# Generated by pormake.
# Topology gar, (4,6)-cn, num edge types: 1
# Building blocks:
#     Node 0, Type 0, BuildingBlock: UXUYUI_clean_sbu_0, # of connection points: 4
#     Node 1, Type 0, BuildingBlock: UXUYUI_clean_sbu_0, # of connection points: 4
#     Node 2, Type 0, BuildingBlock: UXUYUI_clean_sbu_0, # of connection points: 4
#     Node 3, Type 0, BuildingBlock: UXUYUI_clean_sbu_0, # of connection points: 4
#     Node 4, Type 0, BuildingBlock: UXUYUI_clean_sbu_0, # of connection points: 4
#     Node 5, Type 0, BuildingBlock: UXUYUI_clean_sbu_0, # of connection points: 4
#     Node 6, Type 0, BuildingBlock: UXUYUI_clean_sbu_0, # of connection points: 4
#     Node 7, Type 0, BuildingBlock: UXUYUI_clean_sbu_0, # of connection points: 4
#     Node 8, Type 0, BuildingBlock: UXUYUI_clean_sbu_0, # of connection points: 4
#     Node 9, Type 0, BuildingBlock: UXUYUI_clean_sbu_0, # of connection points: 4
#     Node 10, Type 0, BuildingBlock: UXUYUI_clean_sbu_0, # of connection points: 4
#     Node 11, Type 0, BuildingBlock: UXUYUI_clean_sbu_0, # of connection points: 4
#     Node 12, Type 0, BuildingBlock: UXUYUI_clean_sbu_0, # of connection points: 4
#     Node 13, Type 0, BuildingBlock: UXUYUI_clean_sbu_0, # of connection points: 4
#     Node 14, Type 0, BuildingBlock: UXUYUI_clean_sbu_0, # of connection points: 4
#     Node 15, Type 0, BuildingBlock: UXUYUI_clean_sbu_0, # of connection points: 4
#     Node 16, Type 0, BuildingBlock: UXUYUI_clean_sbu_0, # of connection points: 4
#     Node 17, Type 0, BuildingBlock: UXUYUI_clean_sbu_0, # of connection points: 4
#     Node 18, Type 0, BuildingBlock: UXUYUI_clean_sbu_0, # of connection points: 4
#     Node 19, Type 0, BuildingBlock: UXUYUI_clean_sbu_0, # of connection points: 4
#     Node 20, Type 0, BuildingBlock: UXUYUI_clean_sbu_0, # of connection points: 4
#     Node 21, Type 0, BuildingBlock: UXUYUI_clean_sbu_0, # of connection points: 4
#     Node 22, Type 0, BuildingBlock: UXUYUI_clean_sbu_0, # of connection points: 4
#     Node 23, Type 0, BuildingBlock: UXUYUI_clean_sbu_0, # of connection points: 4
#     Node 24, Type 1, BuildingBlock: BETDIP_clean_sbu_0, # of connection points: 6
#     Node 25, Type 1, BuildingBlock: BETDIP_clean_sbu_0, # of connection points: 6
#     Node 26, Type 1, BuildingBlock: BETDIP_clean_sbu_0, # of connection points: 6
#     Node 27, Type 1, BuildingBlock: BETDIP_clean_sbu_0, # of connection points: 6
#     Node 28, Type 1, BuildingBlock: BETDIP_clean_sbu_0, # of connection points: 6
#     Node 29, Type 1, BuildingBlock: BETDIP_clean_sbu_0, # of connection points: 6
#     Node 30, Type 1, BuildingBlock: BETDIP_clean_sbu_0, # of connection points: 6
#     Node 31, Type 1, BuildingBlock: BETDIP_clean_sbu_0, # of connection points: 6
#     Node 32, Type 1, BuildingBlock: BETDIP_clean_sbu_0, # of connection points: 6
#     Node 33, Type 1, BuildingBlock: BETDIP_clean_sbu_0, # of connection points: 6
#     Node 34, Type 1, BuildingBlock: BETDIP_clean_sbu_0, # of connection points: 6
#     Node 35, Type 1, BuildingBlock: BETDIP_clean_sbu_0, # of connection points: 6
#     Node 36, Type 1, BuildingBlock: BETDIP_clean_sbu_0, # of connection points: 6
#     Node 37, Type 1, BuildingBlock: BETDIP_clean_sbu_0, # of connection points: 6
#     Node 38, Type 1, BuildingBlock: BETDIP_clean_sbu_0, # of connection points: 6
#     Node 39, Type 1, BuildingBlock: BETDIP_clean_sbu_0, # of connection points: 6
#     Edge 40, Type (0, 1), BuildingBlock: OJICUG_clean_linker_0, # of connection points: 2
#     Edge 41, Type (0, 1), BuildingBlock: OJICUG_clean_linker_0, # of connection points: 2
#     Edge 42, Type (0, 1), BuildingBlock: OJICUG_clean_linker_0, # of connection points: 2
#     Edge 43, Type (0, 1), BuildingBlock: OJICUG_clean_linker_0, # of connection points: 2
#     Edge 44, Type (0, 1), BuildingBlock: OJICUG_clean_linker_0, # of connection points: 2
#     Edge 45, Type (0, 1), BuildingBlock: OJICUG_clean_linker_0, # of connection points: 2
#     Edge 46, Type (0, 1), BuildingBlock: OJICUG_clean_linker_0, # of connection points: 2
#     Edge 47, Type (0, 1), BuildingBlock: OJICUG_clean_linker_0, # of connection points: 2
#     Edge 48, Type (0, 1), BuildingBlock: OJICUG_clean_linker_0, # of connection points: 2
#     Edge 49, Type (0, 1), BuildingBlock: OJICUG_clean_linker_0, # of connection points: 2
#     Edge 50, Type (0, 1), BuildingBlock: OJICUG_clean_linker_0, # of connection points: 2
#     Edge 51, Type (0, 1), BuildingBlock: OJICUG_clean_linker_0, # of connection points: 2
#     Edge 52, Type (0, 1), BuildingBlock: OJICUG_clean_linker_0, # of connection points: 2
#     Edge 53, Type (0, 1), BuildingBlock: OJICUG_clean_linker_0, # of connection points: 2
#     Edge 54, Type (0, 1), BuildingBlock: OJICUG_clean_linker_0, # of connection points: 2
#     Edge 55, Type (0, 1), BuildingBlock: OJICUG_clean_linker_0, # of connection points: 2
#     Edge 56, Type (0, 1), BuildingBlock: OJICUG_clean_linker_0, # of connection points: 2
#     Edge 57, Type (0, 1), BuildingBlock: OJICUG_clean_linker_0, # of connection points: 2
#     Edge 58, Type (0, 1), BuildingBlock: OJICUG_clean_linker_0, # of connection points: 2
#     Edge 59, Type (0, 1), BuildingBlock: OJICUG_clean_linker_0, # of connection points: 2
#     Edge 60, Type (0, 1), BuildingBlock: OJICUG_clean_linker_0, # of connection points: 2
#     Edge 61, Type (0, 1), BuildingBlock: OJICUG_clean_linker_0, # of connection points: 2
#     Edge 62, Type (0, 1), BuildingBlock: OJICUG_clean_linker_0, # of connection points: 2
#     Edge 63, Type (0, 1), BuildingBlock: OJICUG_clean_linker_0, # of connection points: 2
#     Edge 64, Type (0, 1), BuildingBlock: OJICUG_clean_linker_0, # of connection points: 2
#     Edge 65, Type (0, 1), BuildingBlock: OJICUG_clean_linker_0, # of connection points: 2
#     Edge 66, Type (0, 1), BuildingBlock: OJICUG_clean_linker_0, # of connection points: 2
#     Edge 67, Type (0, 1), BuildingBlock: OJICUG_clean_linker_0, # of connection points: 2
#     Edge 68, Type (0, 1), BuildingBlock: OJICUG_clean_linker_0, # of connection points: 2
#     Edge 69, Type (0, 1), BuildingBlock: OJICUG_clean_linker_0, # of connection points: 2
#     Edge 70, Type (0, 1), BuildingBlock: OJICUG_clean_linker_0, # of connection points: 2
#     Edge 71, Type (0, 1), BuildingBlock: OJICUG_clean_linker_0, # of connection points: 2
#     Edge 72, Type (0, 1), BuildingBlock: OJICUG_clean_linker_0, # of connection points: 2
#     Edge 73, Type (0, 1), BuildingBlock: OJICUG_clean_linker_0, # of connection points: 2
#     Edge 74, Type (0, 1), BuildingBlock: OJICUG_clean_linker_0, # of connection points: 2
#     Edge 75, Type (0, 1), BuildingBlock: OJICUG_clean_linker_0, # of connection points: 2
#     Edge 76, Type (0, 1), BuildingBlock: OJICUG_clean_linker_0, # of connection points: 2
#     Edge 77, Type (0, 1), BuildingBlock: OJICUG_clean_linker_0, # of connection points: 2
#     Edge 78, Type (0, 1), BuildingBlock: OJICUG_clean_linker_0, # of connection points: 2
#     Edge 79, Type (0, 1), BuildingBlock: OJICUG_clean_linker_0, # of connection points: 2
#     Edge 80, Type (0, 1), BuildingBlock: OJICUG_clean_linker_0, # of connection points: 2
#     Edge 81, Type (0, 1), BuildingBlock: OJICUG_clean_linker_0, # of connection points: 2
#     Edge 82, Type (0, 1), BuildingBlock: OJICUG_clean_linker_0, # of connection points: 2
#     Edge 83, Type (0, 1), BuildingBlock: OJICUG_clean_linker_0, # of connection points: 2
#     Edge 84, Type (0, 1), BuildingBlock: OJICUG_clean_linker_0, # of connection points: 2
#     Edge 85, Type (0, 1), BuildingBlock: OJICUG_clean_linker_0, # of connection points: 2
#     Edge 86, Type (0, 1), BuildingBlock: OJICUG_clean_linker_0, # of connection points: 2
#     Edge 87, Type (0, 1), BuildingBlock: OJICUG_clean_linker_0, # of connection points: 2
#     Edge 88, Type (0, 1), BuildingBlock: OJICUG_clean_linker_0, # of connection points: 2
#     Edge 89, Type (0, 1), BuildingBlock: OJICUG_clean_linker_0, # of connection points: 2
#     Edge 90, Type (0, 1), BuildingBlock: OJICUG_clean_linker_0, # of connection points: 2
#     Edge 91, Type (0, 1), BuildingBlock: OJICUG_clean_linker_0, # of connection points: 2
#     Edge 92, Type (0, 1), BuildingBlock: OJICUG_clean_linker_0, # of connection points: 2
#     Edge 93, Type (0, 1), BuildingBlock: OJICUG_clean_linker_0, # of connection points: 2
#     Edge 94, Type (0, 1), BuildingBlock: OJICUG_clean_linker_0, # of connection points: 2
#     Edge 95, Type (0, 1), BuildingBlock: OJICUG_clean_linker_0, # of connection points: 2
#     Edge 96, Type (0, 1), BuildingBlock: OJICUG_clean_linker_0, # of connection points: 2
#     Edge 97, Type (0, 1), BuildingBlock: OJICUG_clean_linker_0, # of connection points: 2
#     Edge 98, Type (0, 1), BuildingBlock: OJICUG_clean_linker_0, # of connection points: 2
#     Edge 99, Type (0, 1), BuildingBlock: OJICUG_clean_linker_0, # of connection points: 2
#     Edge 100, Type (0, 1), BuildingBlock: OJICUG_clean_linker_0, # of connection points: 2
#     Edge 101, Type (0, 1), BuildingBlock: OJICUG_clean_linker_0, # of connection points: 2
#     Edge 102, Type (0, 1), BuildingBlock: OJICUG_clean_linker_0, # of connection points: 2
#     Edge 103, Type (0, 1), BuildingBlock: OJICUG_clean_linker_0, # of connection points: 2
#     Edge 104, Type (0, 1), BuildingBlock: OJICUG_clean_linker_0, # of connection points: 2
#     Edge 105, Type (0, 1), BuildingBlock: OJICUG_clean_linker_0, # of connection points: 2
#     Edge 106, Type (0, 1), BuildingBlock: OJICUG_clean_linker_0, # of connection points: 2
#     Edge 107, Type (0, 1), BuildingBlock: OJICUG_clean_linker_0, # of connection points: 2
#     Edge 108, Type (0, 1), BuildingBlock: OJICUG_clean_linker_0, # of connection points: 2
#     Edge 109, Type (0, 1), BuildingBlock: OJICUG_clean_linker_0, # of connection points: 2
#     Edge 110, Type (0, 1), BuildingBlock: OJICUG_clean_linker_0, # of connection points: 2
#     Edge 111, Type (0, 1), BuildingBlock: OJICUG_clean_linker_0, # of connection points: 2
#     Edge 112, Type (0, 1), BuildingBlock: OJICUG_clean_linker_0, # of connection points: 2
#     Edge 113, Type (0, 1), BuildingBlock: OJICUG_clean_linker_0, # of connection points: 2
#     Edge 114, Type (0, 1), BuildingBlock: OJICUG_clean_linker_0, # of connection points: 2
#     Edge 115, Type (0, 1), BuildingBlock: OJICUG_clean_linker_0, # of connection points: 2
#     Edge 116, Type (0, 1), BuildingBlock: OJICUG_clean_linker_0, # of connection points: 2
#     Edge 117, Type (0, 1), BuildingBlock: OJICUG_clean_linker_0, # of connection points: 2
#     Edge 118, Type (0, 1), BuildingBlock: OJICUG_clean_linker_0, # of connection points: 2
#     Edge 119, Type (0, 1), BuildingBlock: OJICUG_clean_linker_0, # of connection points: 2
#     Edge 120, Type (0, 1), BuildingBlock: OJICUG_clean_linker_0, # of connection points: 2
#     Edge 121, Type (0, 1), BuildingBlock: OJICUG_clean_linker_0, # of connection points: 2
#     Edge 122, Type (0, 1), BuildingBlock: OJICUG_clean_linker_0, # of connection points: 2
#     Edge 123, Type (0, 1), BuildingBlock: OJICUG_clean_linker_0, # of connection points: 2
#     Edge 124, Type (0, 1), BuildingBlock: OJICUG_clean_linker_0, # of connection points: 2
#     Edge 125, Type (0, 1), BuildingBlock: OJICUG_clean_linker_0, # of connection points: 2
#     Edge 126, Type (0, 1), BuildingBlock: OJICUG_clean_linker_0, # of connection points: 2
#     Edge 127, Type (0, 1), BuildingBlock: OJICUG_clean_linker_0, # of connection points: 2
#     Edge 128, Type (0, 1), BuildingBlock: OJICUG_clean_linker_0, # of connection points: 2
#     Edge 129, Type (0, 1), BuildingBlock: OJICUG_clean_linker_0, # of connection points: 2
#     Edge 130, Type (0, 1), BuildingBlock: OJICUG_clean_linker_0, # of connection points: 2
#     Edge 131, Type (0, 1), BuildingBlock: OJICUG_clean_linker_0, # of connection points: 2
#     Edge 132, Type (0, 1), BuildingBlock: OJICUG_clean_linker_0, # of connection points: 2
#     Edge 133, Type (0, 1), BuildingBlock: OJICUG_clean_linker_0, # of connection points: 2
#     Edge 134, Type (0, 1), BuildingBlock: OJICUG_clean_linker_0, # of connection points: 2
#     Edge 135, Type (0, 1), BuildingBlock: OJICUG_clean_linker_0, # of connection points: 2
# Relax obj value: 0.217
# Max RMSD: 0.302
# Mean RMSD: 0.191
data_MOF--net-gar--node1-UXUYUI_clean_sbu_0--node2-BETDIP_clean_sbu_0--edge1-OJICUG_clean_linker_0
_symmetry_space_group_name_H-M    P1
_symmetry_Int_Tables_number       1
_symmetry_cell_setting            triclinic
loop_
_symmetry_equiv_pos_as_xyz
'x, y, z'
_cell_length_a     61.73636
_cell_length_b     55.744932
_cell_length_c     53.645962
_cell_angle_alpha  97.537895
_cell_angle_beta   99.095439
_cell_angle_gamma 101.36625
loop_
_atom_site_label
_atom_site_type_symbol
_atom_site_fract_x
_atom_site_fract_y
_atom_site_fract_z
_atom_type_partial_charge
Li0 Li 1.00792 0.31899 0.38054 0.0
Li1 Li 0.03313 0.33467 0.42111 0.0
Li2 Li 0.04563 0.31504 0.38335 0.0
Li3 Li 0.02225 0.28946 0.4055 0.0
C4 C 0.02779 0.36332 0.37425 0.0
N5 N 1.01145 0.39643 0.34645 0.0
C6 C 0.02298 0.38466 0.38687 0.0
C7 C 0.02464 0.35901 0.34754 0.0
C8 C 0.01463 0.40112 0.37246 0.0
C9 C 0.01627 0.37591 0.33382 0.0
C10 C 0.99211 0.30413 0.4327 0.0
C11 C 0.9917 0.29396 0.47495 0.0
N12 N 0.96888 0.28659 0.46894 0.0
C13 C 0.96867 0.29647 0.42693 0.0
C14 C 1.00377 0.3029 0.45688 0.0
C15 C 0.95723 0.28765 0.44552 0.0
C16 C 0.96619 0.3045 0.34802 0.0
N17 N 0.98009 0.32349 0.36516 0.0
C18 C 0.94903 0.33764 0.37836 0.0
C19 C 0.97208 0.34049 0.37947 0.0
C20 C 0.93425 0.31692 0.36258 0.0
C21 C 0.94296 0.301 0.3462 0.0
H22 H 0.97311 0.29064 0.33785 0.0
H23 H 0.98355 0.35444 0.39404 0.0
C24 C 0.05567 0.37138 0.46664 0.0
N25 N 0.03628 0.35937 0.45025 0.0
C26 C 0.05524 0.38995 0.48671 0.0
C27 C 0.01495 0.38276 0.473 0.0
C28 C 0.0162 0.36474 0.45315 0.0
C29 C 0.03467 0.39607 0.48975 0.0
H30 H 0.07151 0.36716 0.46385 0.0
H31 H 1.00108 0.35536 0.43964 0.0
C32 C 0.02358 0.27616 0.34793 0.0
N33 N 0.03679 0.25101 0.30713 0.0
C34 C 0.03221 0.25509 0.35076 0.0
C35 C 0.02126 0.28416 0.32423 0.0
C36 C 0.03892 0.24271 0.32994 0.0
C37 C 0.02814 0.27126 0.30386 0.0
C38 C 0.07194 0.31957 0.43679 0.0
C39 C 0.08892 0.33699 0.43046 0.0
C40 C 0.07517 0.312 0.46066 0.0
C41 C 0.10897 0.34647 0.44817 0.0
C42 C 0.09541 0.32203 0.47789 0.0
N43 N 0.11175 0.33888 0.47133 0.0
C44 C 0.07764 0.32239 0.34835 0.0
C45 C 0.07967 0.29315 0.37654 0.0
C46 C 0.09569 0.31592 0.33816 0.0
N47 N 0.07021 0.311 0.36732 0.0
C48 C 0.09753 0.28622 0.36707 0.0
C49 C 0.10596 0.29778 0.34784 0.0
H50 H 0.06956 0.33628 0.34111 0.0
H51 H 0.07302 0.28394 0.39112 0.0
C52 C 0.99547 0.24496 0.41441 0.0
N53 N 0.0166 0.25845 0.41554 0.0
C54 C 0.99244 0.22251 0.42364 0.0
C55 C 0.03295 0.22781 0.43334 0.0
C56 C 0.03517 0.25023 0.42434 0.0
C57 C 1.0114 0.2139 0.43341 0.0
H58 H 0.98104 0.25183 0.40677 0.0
H59 H 0.05171 0.26133 0.42467 0.0
O60 O 0.03591 0.34695 0.38801 0.0
O61 O 1.00359 0.31256 0.41461 0.0
O62 O 0.01738 0.28884 0.36824 0.0
O63 O 0.05225 0.30978 0.41972 0.0
H64 H 0.02555 0.38839 0.40755 0.0
H65 H 0.02864 0.3428 0.33755 0.0
H66 H 1.01068 0.41763 0.38195 0.0
H67 H 1.01364 0.37275 0.31312 0.0
H68 H 1.00048 0.29286 0.49374 0.0
H69 H 0.95944 0.29712 0.40821 0.0
H70 H 0.02193 0.30868 0.46157 0.0
H71 H 0.93909 0.28159 0.4413 0.0
H72 H 0.94308 0.35017 0.39149 0.0
H73 H 0.93206 0.28506 0.33339 0.0
H74 H 0.0709 0.40011 0.49894 0.0
H75 H 0.99872 0.38676 0.47473 0.0
H76 H 0.03399 0.24857 0.36893 0.0
H77 H 0.01422 0.30014 0.32159 0.0
H78 H 0.04585 0.22654 0.33194 0.0
H79 H 0.02658 0.27733 0.28545 0.0
H80 H 0.08659 0.34329 0.41219 0.0
H81 H 0.06216 0.29855 0.46583 0.0
H82 H 0.12226 0.35996 0.44356 0.0
H83 H 0.09813 0.31639 0.49647 0.0
H84 H 0.10176 0.3252 0.32327 0.0
H85 H 0.10459 0.27175 0.37463 0.0
H86 H 0.97559 0.21216 0.42344 0.0
H87 H 0.04795 0.2219 0.4411 0.0
Li88 Li 0.0687 0.77258 0.69923 0.0
Li89 Li 0.08512 0.74934 0.72773 0.0
Li90 Li 0.05931 0.72756 0.68907 0.0
Li91 Li 0.04612 0.75107 0.7259 0.0
C92 C 0.10397 0.75454 0.67744 0.0
N93 N 0.13615 0.76351 0.64731 0.0
C94 C 0.12542 0.76908 0.68819 0.0
C95 C 0.09896 0.74444 0.65137 0.0
C96 C 0.14143 0.77342 0.67264 0.0
C97 C 0.11543 0.74923 0.63647 0.0
C98 C 0.08721 0.79869 0.75122 0.0
C99 C 0.09901 0.82865 0.79019 0.0
N100 N 0.11713 0.83964 0.78104 0.0
C101 C 0.10586 0.81036 0.74214 0.0
C102 C 0.08365 0.80795 0.77537 0.0
C103 C 0.12083 0.83101 0.75753 0.0
C104 C 0.06349 0.82051 0.69663 0.0
N105 N 0.07268 0.80252 0.6857 0.0
C106 C 0.08407 0.8272 0.65503 0.0
C107 C 0.08301 0.80552 0.66542 0.0
C108 C 0.07427 0.84586 0.66554 0.0
C109 C 0.06406 0.84248 0.68677 0.0
H110 H 0.05522 0.81748 0.71264 0.0
H111 H 0.08968 0.79083 0.65659 0.0
C112 C 0.12457 0.73428 0.73367 0.0
N113 N 0.11295 0.748 0.74693 0.0
C114 C 0.14767 0.73759 0.74148 0.0
C115 C 0.14584 0.76682 0.77823 0.0
C116 C 0.12273 0.7631 0.76953 0.0
C117 C 0.15874 0.75489 0.76342 0.0
H118 H 0.1162 0.72236 0.71578 0.0
H119 H 0.11295 0.77334 0.78 0.0
C120 C 0.02879 0.76294 0.6705 0.0
N121 N 1.01153 0.7902 0.63592 0.0
C122 C 1.01293 0.77647 0.67639 0.0
C123 C 0.03571 0.76309 0.64692 0.0
C124 C 1.00444 0.79017 0.65867 0.0
C125 C 0.02683 0.77704 0.62973 0.0
C126 C 0.06767 0.71167 0.74621 0.0
C127 C 0.07681 0.69068 0.74329 0.0
C128 C 0.06817 0.7241 0.77075 0.0
C129 C 0.08642 0.68251 0.76508 0.0
C130 C 0.07794 0.71535 0.79204 0.0
N131 N 0.08679 0.69491 0.78879 0.0
C132 C 0.06943 0.68556 0.66512 0.0
C133 C 0.03903 0.69767 0.64094 0.0
C134 C 0.06926 0.667 0.64497 0.0
N135 N 0.05449 0.70038 0.66272 0.0
C136 C 0.03861 0.67973 0.62003 0.0
C137 C 0.05395 0.6641 0.6218 0.0
H138 H 0.08188 0.68865 0.68249 0.0
H139 H 0.02752 0.70994 0.63951 0.0
C140 C 0.02076 0.7788 0.7475 0.0
N141 N 0.02305 0.75495 0.74382 0.0
C142 C 1.00328 0.7849 0.75855 0.0
C143 C 0.99142 0.7419 0.76317 0.0
C144 C 1.00914 0.73654 0.75167 0.0
C145 C 0.98815 0.76628 0.7661 0.0
H146 H 0.03218 0.79296 0.74107 0.0
H147 H 1.01149 0.71773 0.74848 0.0
O148 O 0.0881 0.74975 0.6924 0.0
O149 O 0.07234 0.77836 0.73662 0.0
O150 O 0.0378 0.74997 0.68789 0.0
O151 O 0.0587 0.72043 0.7252 0.0
H152 H 0.12981 0.7768 0.70835 0.0
H153 H 0.08248 0.73323 0.64263 0.0
H154 H 0.15809 0.78462 0.68072 0.0
H155 H 0.11174 0.74162 0.61626 0.0
H156 H 0.09652 0.83597 0.80896 0.0
H157 H 0.10869 0.80363 0.7234 0.0
H158 H 0.06925 0.79912 0.78264 0.0
H159 H 0.13537 0.84019 0.75076 0.0
H160 H 0.09165 0.82887 0.63827 0.0
H161 H 0.05634 0.8565 0.6954 0.0
H162 H 0.15687 0.72799 0.72942 0.0
H163 H 0.15363 0.77969 0.79574 0.0
H164 H 1.00726 0.77645 0.69444 0.0
H165 H 0.0482 0.75301 0.64218 0.0
H166 H 0.99223 0.80081 0.66303 0.0
H167 H 0.03222 0.77753 0.61154 0.0
H168 H 0.07655 0.68084 0.72445 0.0
H169 H 0.06134 0.74052 0.7733 0.0
H170 H 0.09361 0.66632 0.76313 0.0
H171 H 0.07855 0.72485 0.81115 0.0
H172 H 0.08104 0.65511 0.64765 0.0
H173 H 0.02669 0.67852 0.60255 0.0
H174 H 1.00135 0.80392 0.76076 0.0
H175 H 0.97995 0.72712 0.76878 0.0
Li176 Li 0.51159 0.82067 0.88506 0.0
Li177 Li 0.53723 0.84271 0.92406 0.0
Li178 Li 0.55139 0.8236 0.88694 0.0
Li179 Li 0.53297 0.79743 0.91316 0.0
C180 C 0.52853 0.86567 0.87145 0.0
N181 N 0.51456 0.89421 0.83635 0.0
C182 C 0.52081 0.8868 0.87949 0.0
C183 C 0.52945 0.85925 0.84564 0.0
C184 C 0.51374 0.90094 0.86143 0.0
C185 C 0.52222 0.87385 0.82816 0.0
C186 C 0.49618 0.81602 0.93761 0.0
C187 C 0.48513 0.80552 0.97675 0.0
N188 N 0.46661 0.81506 0.97143 0.0
C189 C 0.47687 0.8255 0.93247 0.0
C190 C 0.50021 0.80574 0.95987 0.0
C191 C 0.4622 0.82494 0.94982 0.0
C192 C 0.47097 0.79332 0.87102 0.0
N193 N 0.48191 0.81618 0.86842 0.0
C194 C 0.44726 0.82879 0.85882 0.0
C195 C 0.47071 0.83378 0.86188 0.0
C196 C 0.4356 0.80581 0.86325 0.0
C197 C 0.4478 0.78779 0.86883 0.0
H198 H 0.48053 0.78015 0.87721 0.0
H199 H 0.47987 0.85209 0.86077 0.0
C200 C 0.55629 0.87856 0.97042 0.0
N201 N 0.53869 0.86877 0.95071 0.0
C202 C 0.55424 0.89675 0.98995 0.0
C203 C 0.51611 0.89402 0.96838 0.0
C204 C 0.51908 0.87643 0.94919 0.0
C205 C 0.53391 0.9047 0.98896 0.0
H206 H 0.57188 0.87241 0.97093 0.0
H207 H 0.50571 0.86884 0.93287 0.0
C208 C 0.52754 0.78162 0.85242 0.0
N209 N 0.52971 0.75693 0.80507 0.0
C210 C 0.53759 0.76124 0.85069 0.0
C211 C 0.51812 0.78908 0.8301 0.0
C212 C 0.53866 0.74911 0.82656 0.0
C213 C 0.51951 0.77645 0.80633 0.0
C214 C 0.57352 0.81985 0.94663 0.0
C215 C 0.59503 0.81521 0.94712 0.0
C216 C 0.56455 0.82059 0.96896 0.0
C217 C 0.60703 0.81102 0.96989 0.0
C218 C 0.57707 0.81635 0.99136 0.0
N219 N 0.59787 0.81165 0.99135 0.0
C220 C 0.58415 0.8357 0.85311 0.0
C221 C 0.58369 0.80246 0.87663 0.0
C222 C 0.60234 0.82988 0.84274 0.0
N223 N 0.57538 0.82188 0.86975 0.0
C224 C 0.60163 0.79609 0.86693 0.0
C225 C 0.61135 0.80997 0.84999 0.0
H226 H 0.57722 0.85114 0.84802 0.0
H227 H 0.57616 0.79177 0.88973 0.0
C228 C 0.50949 0.75482 0.92577 0.0
N229 N 0.53049 0.76714 0.92459 0.0
C230 C 0.50647 0.73255 0.93516 0.0
C231 C 0.5466 0.73522 0.93998 0.0
C232 C 0.54885 0.75757 0.93069 0.0
C233 C 0.52525 0.7228 0.94279 0.0
H234 H 0.49515 0.76258 0.91987 0.0
H235 H 0.56521 0.76742 0.92864 0.0
O236 O 0.53577 0.85179 0.88891 0.0
O237 O 0.51058 0.81602 0.92053 0.0
O238 O 0.52637 0.79375 0.87587 0.0
O239 O 0.56132 0.82345 0.92433 0.0
H240 H 0.52028 0.89224 0.89945 0.0
H241 H 0.53577 0.84325 0.83918 0.0
H242 H 0.50764 0.91728 0.86736 0.0
H243 H 0.52277 0.86905 0.8081 0.0
H244 H 0.4881 0.79763 0.99401 0.0
H245 H 0.47333 0.83351 0.91543 0.0
H246 H 0.51462 0.79764 0.96398 0.0
H247 H 0.44731 0.83236 0.94609 0.0
H248 H 0.4385 0.84307 0.854 0.0
H249 H 0.43982 0.77006 0.87299 0.0
H250 H 0.56856 0.90497 1.00517 0.0
H251 H 0.50013 0.89949 0.96684 0.0
H252 H 0.54457 0.75494 0.86781 0.0
H253 H 0.50966 0.80433 0.8311 0.0
H254 H 0.54658 0.73345 0.82493 0.0
H255 H 0.51239 0.78211 0.78889 0.0
H256 H 0.6024 0.81481 0.93012 0.0
H257 H 0.54823 0.82473 0.96907 0.0
H258 H 0.62363 0.8073 0.9705 0.0
H259 H 0.57029 0.81688 0.00877 0.0
H260 H 0.60952 0.84098 0.82969 0.0
H261 H 0.60778 0.78032 0.87259 0.0
H262 H 0.48973 0.72323 0.93679 0.0
H263 H 0.56145 0.72821 0.94577 0.0
Li264 Li 0.57526 0.2778 0.20896 0.0
Li265 Li 0.58932 0.24978 0.23387 0.0
Li266 Li 0.56292 0.23281 0.19605 0.0
Li267 Li 0.55142 0.25382 0.23416 0.0
C268 C 0.60019 0.2564 0.17662 0.0
N269 N 0.61516 0.26287 0.13154 0.0
C270 C 0.62289 0.25814 0.17544 0.0
C271 C 0.58515 0.25817 0.15492 0.0
C272 C 0.63013 0.26139 0.15248 0.0
C273 C 0.59301 0.26132 0.13228 0.0
C274 C 0.59683 0.2995 0.25836 0.0
C275 C 0.61305 0.33446 0.29215 0.0
N276 N 0.63199 0.33877 0.28194 0.0
C277 C 0.61643 0.30434 0.24815 0.0
C278 C 0.59509 0.3147 0.2805 0.0
C279 C 0.63403 0.32425 0.26038 0.0
C280 C 0.56322 0.32052 0.19691 0.0
N281 N 0.58022 0.30832 0.19724 0.0
C282 C 0.60062 0.33799 0.17647 0.0
C283 C 0.59907 0.31703 0.18817 0.0
C284 C 0.58268 0.35009 0.17442 0.0
C285 C 0.5641 0.34165 0.1855 0.0
H286 H 0.54853 0.31315 0.20451 0.0
H287 H 0.61259 0.30731 0.18923 0.0
C288 C 0.62761 0.23265 0.2351 0.0
N289 N 0.617 0.24528 0.25089 0.0
C290 C 0.6509 0.236 0.24056 0.0
C291 C 0.65147 0.26291 0.28002 0.0
C292 C 0.62809 0.25898 0.27379 0.0
C293 C 0.66318 0.25246 0.26253 0.0
H294 H 0.61823 0.22196 0.21697 0.0
H295 H 0.61916 0.26872 0.28603 0.0
C296 C 0.52488 0.25376 0.18061 0.0
N297 N 0.48507 0.24459 0.14556 0.0
C298 C 0.50625 0.23628 0.1835 0.0
C299 C 0.52325 0.26668 0.15998 0.0
C300 C 0.48625 0.23191 0.16556 0.0
C301 C 0.503 0.26172 0.14242 0.0
C302 C 0.57051 0.21234 0.25069 0.0
C303 C 0.57814 0.19039 0.24684 0.0
C304 C 0.57229 0.2247 0.2756 0.0
C305 C 0.58763 0.18127 0.26804 0.0
C306 C 0.58188 0.21499 0.29628 0.0
N307 N 0.58931 0.19367 0.2921 0.0
C308 C 0.57015 0.19046 0.17026 0.0
C309 C 0.54301 0.20614 0.14477 0.0
C310 C 0.56988 0.17205 0.14993 0.0
N311 N 0.5568 0.20694 0.16743 0.0
C312 C 0.54249 0.18825 0.1237 0.0
C313 C 0.55615 0.1709 0.12606 0.0
H314 H 0.5815 0.19209 0.18823 0.0
H315 H 0.53306 0.21987 0.14264 0.0
C316 C 0.52734 0.2822 0.25824 0.0
N317 N 0.52823 0.25805 0.2522 0.0
C318 C 0.51018 0.28855 0.26986 0.0
C319 C 0.4952 0.24493 0.26926 0.0
C320 C 0.51282 0.23941 0.25764 0.0
C321 C 0.49362 0.26982 0.27526 0.0
H322 H 0.53972 0.29655 0.25333 0.0
H323 H 0.51393 0.22033 0.25246 0.0
O324 O 0.59302 0.2537 0.19917 0.0
O325 O 0.57932 0.28011 0.24683 0.0
O326 O 0.54457 0.25844 0.19798 0.0
O327 O 0.56166 0.22199 0.23027 0.0
H328 H 0.63487 0.25727 0.19217 0.0
H329 H 0.56764 0.25731 0.15561 0.0
H330 H 0.64767 0.26282 0.15134 0.0
H331 H 0.58153 0.26266 0.11532 0.0
H332 H 0.61195 0.34635 0.30932 0.0
H333 H 0.6182 0.29267 0.23119 0.0
H334 H 0.58002 0.31121 0.28862 0.0
H335 H 0.64933 0.3281 0.25277 0.0
H336 H 0.61534 0.34423 0.1684 0.0
H337 H 0.54988 0.35042 0.1841 0.0
H338 H 0.65925 0.22751 0.22663 0.0
H339 H 0.66036 0.27518 0.29754 0.0
H340 H 0.50725 0.22615 0.19938 0.0
H341 H 0.5375 0.28029 0.15744 0.0
H342 H 0.47168 0.21842 0.16753 0.0
H343 H 0.50154 0.27148 0.1263 0.0
H344 H 0.57675 0.18046 0.22775 0.0
H345 H 0.56655 0.24178 0.2789 0.0
H346 H 0.59367 0.16434 0.26535 0.0
H347 H 0.58349 0.22444 0.31565 0.0
H348 H 0.58037 0.15887 0.15303 0.0
H349 H 0.53189 0.18845 0.10565 0.0
H350 H 0.50941 0.3079 0.2736 0.0
H351 H 0.48282 0.22993 0.27319 0.0
Li352 Li 0.07785 0.82107 0.14279 0.0
Li353 Li 0.1032 0.80088 0.17643 0.0
Li354 Li 0.07435 0.77415 0.14054 0.0
Li355 Li 0.0606 0.79702 0.1751 0.0
C356 C 0.10804 0.78932 0.11761 0.0
N357 N 0.12046 0.76492 0.07581 0.0
C358 C 0.12554 0.77685 0.12114 0.0
C359 C 0.09688 0.78948 0.09288 0.0
C360 C 0.13155 0.76459 0.09974 0.0
C361 C 0.10341 0.77701 0.07197 0.0
C362 C 0.08239 0.84204 0.20321 0.0
C363 C 0.08398 0.84955 0.24881 0.0
N364 N 0.07458 0.86943 0.2463 0.0
C365 C 0.07281 0.86257 0.20105 0.0
C366 C 0.0881 0.83548 0.22724 0.0
C367 C 0.06898 0.87618 0.22308 0.0
C368 C 0.05605 0.8586 0.12459 0.0
N369 N 0.07567 0.85071 0.12577 0.0
C370 C 0.09097 0.88504 0.10578 0.0
C371 C 0.093 0.86355 0.11652 0.0
C372 C 0.07087 0.89375 0.10438 0.0
C373 C 0.05331 0.87993 0.11408 0.0
H374 H 0.04247 0.84847 0.13221 0.0
H375 H 0.10856 0.85724 0.11757 0.0
C376 C 0.13795 0.77974 0.20151 0.0
N377 N 0.13354 0.80157 0.19565 0.0
C378 C 0.15942 0.77853 0.21404 0.0
C379 C 0.17205 0.82211 0.21348 0.0
C380 C 0.15021 0.82256 0.2013 0.0
C381 C 0.1771 0.79988 0.22032 0.0
H382 H 0.1248 0.76302 0.19626 0.0
H383 H 0.14668 0.83966 0.19598 0.0
C384 C 0.03126 0.78049 0.12159 0.0
N385 N 0.99278 0.75282 0.08897 0.0
C386 C 0.01737 0.76128 0.12973 0.0
C387 C 0.02558 0.78574 0.09694 0.0
C388 C 0.99799 0.74747 0.11292 0.0
C389 C 1.00604 0.77151 0.08071 0.0
C390 C 0.07425 0.75365 0.19119 0.0
C391 C 0.05861 0.73162 0.18003 0.0
C392 C 0.08441 0.757 0.21698 0.0
C393 C 0.05354 0.7132 0.19485 0.0
C394 C 0.07885 0.73814 0.23116 0.0
N395 N 0.06368 0.71681 0.21989 0.0
C396 C 0.08613 0.72796 0.12978 0.0
C397 C 0.05419 0.7296 0.09989 0.0
C398 C 0.08448 0.70303 0.11957 0.0
N399 N 0.07094 0.74076 0.12023 0.0
C400 C 0.05182 0.70455 0.08917 0.0
C401 C 0.0669 0.69065 0.09921 0.0
H402 H 0.09923 0.73695 0.14607 0.0
H403 H 0.0423 0.73984 0.09223 0.0
C404 C 0.0236 0.81453 0.19318 0.0
N405 N 0.03542 0.79632 0.1945 0.0
C406 C 1.00447 0.81393 0.20456 0.0
C407 C 1.00956 0.77572 0.21836 0.0
C408 C 0.02872 0.77723 0.20706 0.0
C409 C 0.99691 0.79409 0.21711 0.0
H410 H 0.0287 0.82934 0.18273 0.0
H411 H 0.03783 0.76272 0.20803 0.0
O412 O 0.10154 0.80093 0.13829 0.0
O413 O 0.08607 0.82834 0.18188 0.0
O414 O 0.05033 0.79415 0.13764 0.0
O415 O 0.07952 0.77191 0.17703 0.0
H416 H 0.13425 0.7765 0.14022 0.0
H417 H 0.08323 0.79898 0.08991 0.0
H418 H 0.14501 0.75477 0.10216 0.0
H419 H 0.0949 0.77689 0.0527 0.0
H420 H 0.08825 0.84466 0.26754 0.0
H421 H 0.06833 0.86787 0.18255 0.0
H422 H 0.09555 0.81964 0.22917 0.0
H423 H 0.06153 0.89208 0.22171 0.0
H424 H 0.10502 0.89458 0.09845 0.0
H425 H 0.0376 0.88576 0.1141 0.0
H426 H 0.16194 0.76093 0.21893 0.0
H427 H 0.18489 0.83909 0.21707 0.0
H428 H 0.0216 0.75701 0.14877 0.0
H429 H 0.03621 0.8006 0.09043 0.0
H430 H 0.9871 0.73248 0.1189 0.0
H431 H 1.00144 0.77529 0.06155 0.0
H432 H 0.05031 0.72884 0.16022 0.0
H433 H 0.09642 0.77401 0.22596 0.0
H434 H 0.04148 0.69606 0.18647 0.0
H435 H 0.08659 0.74048 0.25113 0.0
H436 H 0.09642 0.69329 0.1283 0.0
H437 H 0.03817 0.6961 0.07324 0.0
H438 H 0.99528 0.82846 0.2028 0.0
H439 H 1.00472 0.76019 0.22803 0.0
Li440 Li 0.51947 0.79055 0.47129 0.0
Li441 Li 0.49085 0.76268 0.43422 0.0
Li442 Li 0.51618 0.74285 0.46735 0.0
Li443 Li 0.53346 0.7659 0.43518 0.0
C444 C 0.48083 0.76685 0.49125 0.0
N445 N 0.45648 0.77374 0.52956 0.0
C446 C 0.4608 0.77498 0.48623 0.0
C447 C 0.48837 0.76201 0.51564 0.0
C448 C 0.44876 0.77842 0.50589 0.0
C449 C 0.47585 0.76567 0.53478 0.0
C450 C 0.51402 0.80569 0.41479 0.0
C451 C 0.51171 0.80897 0.37012 0.0
N452 N 0.5114 0.8334 0.37579 0.0
C453 C 0.51371 0.83083 0.42019 0.0
C454 C 0.51302 0.79465 0.38958 0.0
C455 C 0.51236 0.84452 0.4002 0.0
C456 C 0.54293 0.84104 0.48834 0.0
N457 N 0.52456 0.8243 0.49116 0.0
C458 C 0.51151 0.85721 0.5139 0.0
C459 C 0.50908 0.83197 0.50396 0.0
C460 C 0.52996 0.87512 0.51058 0.0
C461 C 0.54595 0.86644 0.49782 0.0
H462 H 0.5548 0.8348 0.4776 0.0
H463 H 0.49439 0.81871 0.50584 0.0
C464 C 0.44354 0.74136 0.40896 0.0
N465 N 0.46032 0.76228 0.41468 0.0
C466 C 0.42174 0.74188 0.39657 0.0
C467 C 0.43457 0.78536 0.39589 0.0
C468 C 0.45598 0.78408 0.40858 0.0
C469 C 0.4168 0.76411 0.38959 0.0
H470 H 0.44694 0.72424 0.41436 0.0
H471 H 0.46907 0.8008 0.4138 0.0
C472 C 0.55892 0.77132 0.49457 0.0
N473 N 0.58967 0.77192 0.53815 0.0
C474 C 0.57909 0.76412 0.49253 0.0
C475 C 0.55447 0.77909 0.5187 0.0
C476 C 0.5944 0.76446 0.51481 0.0
C477 C 0.57021 0.77919 0.54052 0.0
C478 C 0.50879 0.71892 0.40765 0.0
C479 C 0.52 0.69971 0.41054 0.0
C480 C 0.49807 0.72103 0.38333 0.0
C481 C 0.52078 0.68323 0.38888 0.0
C482 C 0.49922 0.70417 0.36214 0.0
N483 N 0.51049 0.6858 0.36533 0.0
C484 C 0.50173 0.7002 0.49439 0.0
C485 C 0.53858 0.70557 0.48602 0.0
C486 C 0.50422 0.67896 0.50549 0.0
N487 N 0.51883 0.71322 0.48488 0.0
C488 C 0.54183 0.68466 0.49709 0.0
C489 C 0.52457 0.67077 0.50714 0.0
H490 H 0.48598 0.70612 0.49323 0.0
H491 H 0.55188 0.71547 0.47787 0.0
C492 C 0.56777 0.78996 0.40939 0.0
N493 N 0.55877 0.76796 0.41619 0.0
C494 C 0.5868 0.79255 0.39775 0.0
C495 C 0.58747 0.74993 0.40042 0.0
C496 C 0.56845 0.74818 0.41206 0.0
C497 C 0.59714 0.77241 0.39312 0.0
H498 H 0.56048 0.80581 0.41344 0.0
H499 H 0.56183 0.73112 0.41846 0.0
O500 O 0.49271 0.76312 0.4722 0.0
O501 O 0.51537 0.792 0.43412 0.0
O502 O 0.54374 0.77109 0.473 0.0
O503 O 0.50775 0.73517 0.42862 0.0
H504 H 0.45468 0.77867 0.46739 0.0
H505 H 0.50367 0.75536 0.51972 0.0
H506 H 0.43327 0.78478 0.50234 0.0
H507 H 0.4815 0.76203 0.55377 0.0
H508 H 0.511 0.80069 0.35053 0.0
H509 H 0.51433 0.83963 0.43958 0.0
H510 H 0.51353 0.77531 0.38514 0.0
H511 H 0.51206 0.86398 0.40408 0.0
H512 H 0.49883 0.8626 0.52386 0.0
H513 H 0.56029 0.87922 0.49421 0.0
H514 H 0.40883 0.72495 0.39293 0.0
H515 H 0.43219 0.80297 0.3909 0.0
H516 H 0.5828 0.75821 0.47393 0.0
H517 H 0.53908 0.78509 0.52053 0.0
H518 H 0.61003 0.75882 0.51356 0.0
H519 H 0.56699 0.78511 0.55935 0.0
H520 H 0.52815 0.69766 0.42929 0.0
H521 H 0.48883 0.73543 0.38087 0.0
H522 H 0.52956 0.66839 0.39079 0.0
H523 H 0.49109 0.70564 0.34318 0.0
H524 H 0.49033 0.66922 0.51295 0.0
H525 H 0.55769 0.67914 0.49719 0.0
H526 H 0.59332 0.81026 0.39243 0.0
H527 H 0.59492 0.73396 0.3979 0.0
Li528 Li 0.57984 0.32414 0.64317 0.0
Li529 Li 0.60365 0.30283 0.67675 0.0
Li530 Li 0.57508 0.2768 0.6398 0.0
Li531 Li 0.56103 0.29987 0.67487 0.0
C532 C 0.6141 0.29866 0.61985 0.0
N533 N 0.63762 0.29033 0.58106 0.0
C534 C 0.63356 0.28944 0.62451 0.0
C535 C 0.60669 0.30387 0.59558 0.0
C536 C 0.6452 0.2853 0.60461 0.0
C537 C 0.61878 0.29945 0.57619 0.0
C538 C 0.58536 0.34835 0.70134 0.0
C539 C 0.59463 0.36802 0.74562 0.0
N540 N 0.58207 0.38475 0.73989 0.0
C541 C 0.5728 0.36592 0.6958 0.0
C542 C 0.5966 0.34955 0.72637 0.0
C543 C 0.57124 0.38411 0.71559 0.0
C544 C 0.56277 0.35348 0.606 0.0
N545 N 0.57911 0.35458 0.62672 0.0
C546 C 0.59164 0.3987 0.6274 0.0
C547 C 0.59356 0.37674 0.63728 0.0
C548 C 0.5746 0.39829 0.6063 0.0
C549 C 0.5603 0.37493 0.5955 0.0
H550 H 0.55125 0.33595 0.59778 0.0
H551 H 0.6063 0.37761 0.65394 0.0
C552 C 0.63778 0.28111 0.70321 0.0
N553 N 0.63383 0.30283 0.69644 0.0
C554 C 0.65915 0.27964 0.7158 0.0
C555 C 0.67267 0.32268 0.71358 0.0
C556 C 0.65091 0.32342 0.70133 0.0
C557 C 0.67723 0.30056 0.72125 0.0
H558 H 0.62443 0.26462 0.69859 0.0
H559 H 0.64778 0.34041 0.69532 0.0
C560 C 0.53474 0.28222 0.61872 0.0
N561 N 0.5017 0.25029 0.58173 0.0
C562 C 0.51554 0.26888 0.62555 0.0
C563 C 0.53713 0.27938 0.5931 0.0
C564 C 0.49902 0.25282 0.60656 0.0
C565 C 0.52025 0.26312 0.57468 0.0
C566 C 0.57971 0.26188 0.69712 0.0
C567 C 0.57758 0.23618 0.69391 0.0
C568 C 0.5828 0.27549 0.72169 0.0
C569 C 0.57853 0.22449 0.71543 0.0
C570 C 0.58366 0.26312 0.74273 0.0
N571 N 0.58152 0.23809 0.73919 0.0
C572 C 0.5835 0.23577 0.60391 0.0
C573 C 0.55247 0.22593 0.62429 0.0
C574 C 0.58099 0.21055 0.59376 0.0
N575 N 0.56951 0.24307 0.61923 0.0
C576 C 0.54933 0.20059 0.6145 0.0
C577 C 0.56391 0.19232 0.59929 0.0
H578 H 0.59713 0.24928 0.60011 0.0
H579 H 0.54186 0.23178 0.63703 0.0
C580 C 0.52535 0.3179 0.6958 0.0
N581 N 0.53572 0.29848 0.69382 0.0
C582 C 0.50633 0.31679 0.70736 0.0
C583 C 0.50839 0.27546 0.71435 0.0
C584 C 0.52739 0.27739 0.70271 0.0
C585 C 0.49738 0.29528 0.71681 0.0
H586 H 0.5314 0.33411 0.68772 0.0
H587 H 0.53511 0.26168 0.70027 0.0
O588 O 0.60265 0.30313 0.63914 0.0
O589 O 0.58716 0.33048 0.68221 0.0
O590 O 0.55124 0.29773 0.63708 0.0
O591 O 0.57875 0.27362 0.67626 0.0
H592 H 0.63957 0.28547 0.64327 0.0
H593 H 0.5918 0.31131 0.59181 0.0
H594 H 0.66026 0.2781 0.60788 0.0
H595 H 0.61323 0.30333 0.55727 0.0
H596 H 0.60315 0.36911 0.76511 0.0
H597 H 0.56417 0.36538 0.67646 0.0
H598 H 0.60685 0.33646 0.73085 0.0
H599 H 0.56142 0.39771 0.71162 0.0
H600 H 0.60301 0.41598 0.63684 0.0
H601 H 0.54712 0.3731 0.57901 0.0
H602 H 0.66129 0.26216 0.72136 0.0
H603 H 0.68583 0.33933 0.71655 0.0
H604 H 0.51345 0.27081 0.6453 0.0
H605 H 0.55196 0.28946 0.58754 0.0
H606 H 0.48409 0.24235 0.61156 0.0
H607 H 0.52191 0.26066 0.55478 0.0
H608 H 0.57533 0.22538 0.67503 0.0
H609 H 0.58427 0.29533 0.72444 0.0
H610 H 0.57691 0.20461 0.71324 0.0
H611 H 0.58597 0.27341 0.76187 0.0
H612 H 0.59254 0.2054 0.58189 0.0
H613 H 0.5361 0.18751 0.6198 0.0
H614 H 0.49832 0.33241 0.70815 0.0
H615 H 0.5024 0.25849 0.72135 0.0
Li616 Li 0.01897 0.28841 0.97127 0.0
Li617 Li 0.99029 0.26029 0.93459 0.0
Li618 Li 0.01651 0.24116 0.96805 0.0
Li619 Li 0.03316 0.26425 0.93565 0.0
C620 C 0.98274 0.26956 0.99235 0.0
N621 N 0.96337 0.28767 0.03173 0.0
C622 C 0.96543 0.28206 0.98731 0.0
C623 C 0.99004 0.266 0.01733 0.0
C624 C 0.95591 0.29117 1.00751 0.0
C625 C 0.98006 0.27536 0.037 0.0
C626 C 0.01854 0.3059 0.91762 0.0
C627 C 0.01613 0.31507 0.8747 0.0
N628 N 0.02784 0.33869 0.88429 0.0
C629 C 0.03054 0.33027 0.92706 0.0
C630 C 1.01126 0.29823 0.89124 0.0
C631 C 0.03507 0.34656 0.9099 0.0
C632 C 0.0412 0.33466 1.0076 0.0
N633 N 0.02228 0.32206 0.99067 0.0
C634 C 1.00728 0.3589 0.99319 0.0
C635 C 1.00543 0.33375 0.98357 0.0
C636 C 0.02679 0.37267 0.01028 0.0
C637 C 0.04376 0.35993 0.01769 0.0
H638 H 0.0547 0.32541 0.01266 0.0
H639 H 0.99087 0.32381 0.96942 0.0
C640 C 0.94236 0.23965 0.91127 0.0
N641 N 0.95978 0.25983 0.91518 0.0
C642 C 0.9206 0.2406 0.89912 0.0
C643 C 0.9348 0.28301 0.89507 0.0
C644 C 0.95619 0.28133 0.90748 0.0
C645 C 0.91637 0.26251 0.89062 0.0
H646 H 0.94521 0.22285 0.91795 0.0
H647 H 0.96992 0.29747 0.91121 0.0
C648 C 0.0596 0.26785 0.99333 0.0
N649 N 0.0916 0.2634 0.03364 0.0
C650 C 0.07914 0.26046 0.98864 0.0
C651 C 0.05639 0.27316 0.01848 0.0
C652 C 0.0951 0.25826 0.00929 0.0
C653 C 0.07275 0.27076 0.03862 0.0
C654 C 1.00801 0.21681 0.90811 0.0
C655 C 0.01678 0.19579 0.91067 0.0
C656 C 0.99884 0.22062 0.88382 0.0
C657 C 0.01667 0.17917 0.88874 0.0
C658 C 0.99904 0.20356 0.86235 0.0
N659 N 1.0079 0.18338 0.86523 0.0
C660 C 1.00387 0.1993 0.99696 0.0
C661 C 0.03901 0.20281 0.98417 0.0
C662 C 1.00669 0.17791 1.00763 0.0
N663 N 0.01994 0.21145 0.9854 0.0
C664 C 0.04256 0.1817 0.99472 0.0
C665 C 0.02632 0.16862 1.00674 0.0
H666 H 0.98866 0.20602 0.99775 0.0
H667 H 0.05146 0.21202 0.97446 0.0
C668 C 0.06975 0.2889 0.91326 0.0
N669 N 0.05834 0.26624 0.91631 0.0
C670 C 0.08873 0.29125 0.90155 0.0
C671 C 0.0845 0.24696 0.89648 0.0
C672 C 0.06556 0.24546 0.90827 0.0
C673 C 0.0966 0.27013 0.89301 0.0
H674 H 0.06451 0.3054 0.92044 0.0
H675 H 0.05707 0.22766 0.91162 0.0
O676 O 0.99234 0.26062 0.97287 0.0
O677 O 0.01397 0.28965 0.93413 0.0
O678 O 0.04372 0.26989 0.97336 0.0
O679 O 1.00789 0.23325 0.92935 0.0
H680 H 0.95949 0.28478 0.96802 0.0
H681 H 1.0032 0.25604 0.02145 0.0
H682 H 0.94258 0.301 1.00393 0.0
H683 H 0.98557 0.2728 0.05644 0.0
H684 H 1.01059 0.30938 0.85423 0.0
H685 H 0.03653 0.3365 0.94739 0.0
H686 H 1.00189 0.2795 0.88362 0.0
H687 H 0.0444 0.36545 0.91693 0.0
H688 H 0.99386 0.36769 0.98634 0.0
H689 H 0.05907 0.36944 0.03096 0.0
H690 H 0.90718 0.2243 0.89689 0.0
H691 H 0.93291 0.30029 0.88882 0.0
H692 H 0.08186 0.25634 0.96924 0.0
H693 H 0.04144 0.27913 0.0224 0.0
H694 H 0.11027 0.25247 1.00597 0.0
H695 H 0.07048 0.27476 0.0582 0.0
H696 H 0.02372 0.19243 0.92936 0.0
H697 H 0.99151 0.23647 0.88158 0.0
H698 H 0.02355 0.16291 0.89041 0.0
H699 H 0.99206 0.20632 0.84341 0.0
H700 H 0.99361 0.16888 0.01672 0.0
H701 H 0.0578 0.17537 0.99284 0.0
H702 H 0.09715 0.30957 0.89929 0.0
H703 H 0.08996 0.23009 0.89087 0.0
Li704 Li 0.43768 0.05586 0.32095 0.0
Li705 Li 0.40265 0.02552 0.29079 0.0
Li706 Li 0.43398 0.05301 0.26743 0.0
Li707 Li 0.40517 0.07684 0.29235 0.0
C708 C 0.45012 1.01211 0.29785 0.0
N709 N 0.47923 0.98201 0.31081 0.0
C710 C 0.44698 0.99796 0.31717 0.0
C711 C 0.4681 1.01105 0.28517 0.0
C712 C 0.46186 0.98283 0.32343 0.0
C713 C 0.48262 0.99568 0.29198 0.0
C714 C 0.386 0.04697 0.33223 0.0
C715 C 0.34671 0.04344 0.33387 0.0
N716 N 0.34959 0.03284 0.35524 0.0
C717 C 0.38859 0.03607 0.35421 0.0
C718 C 0.36492 0.0507 0.32195 0.0
C719 C 0.36997 0.02903 0.36556 0.0
C720 C 0.45088 0.0618 0.38022 0.0
N721 N 0.45816 0.05603 0.35773 0.0
C722 C 0.4908 0.04616 0.38339 0.0
C723 C 0.4781 0.04845 0.35945 0.0
C724 C 0.48359 0.05161 0.40699 0.0
C725 C 0.46305 0.05963 0.40458 0.0
H726 H 0.43531 0.06802 0.37952 0.0
H727 H 0.48425 0.04364 0.34209 0.0
C728 C 0.37277 0.97238 0.26867 0.0
N729 N 0.38413 0.9885 0.29047 0.0
C730 C 0.3622 0.9472 0.26927 0.0
C731 C 0.37472 0.95473 0.3146 0.0
C732 C 0.38505 0.9796 0.31317 0.0
C733 C 0.36289 0.93751 0.29252 0.0
H734 H 0.372 0.97881 0.25044 0.0
H735 H 0.39433 0.99163 0.33055 0.0
C736 C 0.45798 0.10147 0.29405 0.0
N737 N 0.49338 0.13676 0.28635 0.0
C738 C 0.45385 0.1196 0.27939 0.0
C739 C 0.48006 0.10121 0.30478 0.0
C740 C 0.47199 0.13731 0.27574 0.0
C741 C 0.49775 0.11924 0.30066 0.0
C742 C 0.38073 0.04635 0.24332 0.0
C743 C 0.38336 0.05769 0.22193 0.0
C744 C 0.3593 0.03453 0.24611 0.0
C745 C 0.36438 0.05696 0.20355 0.0
C746 C 0.34075 0.03423 0.22732 0.0
N747 N 0.34365 0.04536 0.20661 0.0
C748 C 0.43955 0.03843 0.21023 0.0
C749 C 0.47329 0.06197 0.23546 0.0
C750 C 0.45002 0.03635 0.18813 0.0
N751 N 0.45098 0.05113 0.23389 0.0
C752 C 0.48439 0.06025 0.21384 0.0
C753 C 0.4731 0.0472 0.18907 0.0
H754 H 0.42199 0.0295 0.20819 0.0
H755 H 0.48293 0.07212 0.2537 0.0
C756 C 0.39893 0.13287 0.30352 0.0
N757 N 0.38757 0.10902 0.29264 0.0
C758 C 0.38838 0.15386 0.30422 0.0
C759 C 0.35396 0.12681 0.28269 0.0
C760 C 0.36515 0.1063 0.28223 0.0
C761 C 0.3652 0.15174 0.2938 0.0
H762 H 0.41658 0.13606 0.31199 0.0
H763 H 0.35545 0.088 0.27326 0.0
O764 O 0.43604 0.02743 0.29177 0.0
O765 O 0.40392 0.05389 0.32066 0.0
O766 O 0.44051 0.08376 0.29753 0.0
O767 O 0.39903 0.04698 0.2616 0.0
H768 H 0.43345 0.99901 0.32753 0.0
H769 H 0.47085 0.02204 0.2703 0.0
H770 H 0.45969 0.97185 0.33842 0.0
H771 H 0.49662 0.99466 0.28234 0.0
H772 H 0.33028 0.0462 0.3261 0.0
H773 H 0.40471 0.0327 0.36221 0.0
H774 H 0.36264 0.05903 0.30489 0.0
H775 H 0.3717 0.02046 0.38251 0.0
H776 H 0.5061 0.03955 0.3831 0.0
H777 H 0.45633 0.06454 0.42152 0.0
H778 H 0.3534 0.93551 0.25141 0.0
H779 H 0.37663 0.94902 0.33317 0.0
H780 H 0.43681 0.11991 0.27087 0.0
H781 H 0.48348 0.08717 0.31605 0.0
H782 H 0.46908 0.15147 0.26443 0.0
H783 H 0.51494 0.11927 0.3088 0.0
H784 H 0.39987 0.06698 0.2196 0.0
H785 H 0.35705 0.02569 0.26261 0.0
H786 H 0.36613 0.06565 0.18687 0.0
H787 H 0.32404 0.02516 0.2292 0.0
H788 H 0.43984 0.02575 0.17036 0.0
H789 H 0.50192 0.06954 0.21678 0.0
H790 H 0.39868 0.1718 0.3134 0.0
H791 H 0.33636 0.12284 0.27388 0.0
Li792 Li 0.27433 0.19035 0.5574 0.0
Li793 Li 0.28712 0.15595 0.53313 0.0
Li794 Li 0.27158 0.18726 0.50875 0.0
Li795 Li 0.24507 0.15425 0.52923 0.0
C796 C 0.31744 0.20941 0.5493 0.0
N797 N 0.35527 0.24394 0.57569 0.0
C798 C 0.33519 0.20169 0.56319 0.0
C799 C 0.31897 0.23467 0.54871 0.0
C800 C 0.35417 0.21944 0.57644 0.0
C801 C 0.33822 0.25185 0.56222 0.0
C802 C 0.26755 0.13689 0.57501 0.0
C803 C 0.25555 0.09454 0.58109 0.0
N804 N 0.26667 0.10082 0.60583 0.0
C805 C 0.2788 0.14294 0.60051 0.0
C806 C 0.25578 0.11251 0.56521 0.0
C807 C 0.27818 0.12444 0.61577 0.0
C808 C 0.26202 0.22066 0.59905 0.0
N809 N 0.27906 0.21112 0.59142 0.0
C810 C 0.301 0.22409 0.63408 0.0
C811 C 0.29841 0.2129 0.60844 0.0
C812 C 0.28351 0.23369 0.64269 0.0
C813 C 0.26396 0.23218 0.62446 0.0
H814 H 0.24648 0.21862 0.58575 0.0
H815 H 0.31148 0.20446 0.60254 0.0
C816 C 0.32645 0.14151 0.51832 0.0
N817 N 0.31141 0.13705 0.53418 0.0
C818 C 0.34504 0.13029 0.51947 0.0
C819 C 0.33266 0.11001 0.55329 0.0
C820 C 0.31424 0.12143 0.55136 0.0
C821 C 0.34862 0.11447 0.5374 0.0
H822 H 0.32435 0.15432 0.50511 0.0
H823 H 0.3025 0.11801 0.56403 0.0
C824 C 0.23773 0.21063 0.5332 0.0
N825 N 0.21718 0.25016 0.53964 0.0
C826 C 0.21594 0.2069 0.5384 0.0
C827 C 0.24899 0.23436 0.53102 0.0
C828 C 0.20587 0.22716 0.54166 0.0
C829 C 0.23834 0.25413 0.53441 0.0
C830 C 0.26935 0.13143 0.48563 0.0
C831 C 0.28239 0.13797 0.4675 0.0
C832 C 0.26343 0.10661 0.48862 0.0
C833 C 0.28949 0.11949 0.45275 0.0
C834 C 0.27087 0.08868 0.47352 0.0
N835 N 0.28365 0.09544 0.45606 0.0
C836 C 0.29623 0.21658 0.47762 0.0
C837 C 0.25724 0.20627 0.46088 0.0
C838 C 0.30043 0.22877 0.45695 0.0
N839 N 0.27493 0.20545 0.47934 0.0
C840 C 0.26072 0.21823 0.4397 0.0
C841 C 0.28266 0.22956 0.43718 0.0
H842 H 0.31017 0.21576 0.49223 0.0
H843 H 0.24037 0.19728 0.46231 0.0
C844 C 0.20778 0.1347 0.5519 0.0
N845 N 0.21441 0.13488 0.52885 0.0
C846 C 0.18636 0.12146 0.55368 0.0
C847 C 0.17839 0.10912 0.50788 0.0
C848 C 0.20009 0.12246 0.50699 0.0
C849 C 0.1711 0.10824 0.53151 0.0
H850 H 0.21926 0.14477 0.56911 0.0
H851 H 0.20545 0.12292 0.48877 0.0
O852 O 0.29878 0.1923 0.53611 0.0
O853 O 0.26787 0.15478 0.55982 0.0
O854 O 0.24789 0.19107 0.5301 0.0
O855 O 0.26262 0.1493 0.50057 0.0
H856 H 0.33427 0.18223 0.56394 0.0
H857 H 0.30546 0.24094 0.5379 0.0
H858 H 0.368 0.21375 0.58734 0.0
H859 H 0.33962 0.27146 0.56196 0.0
H860 H 0.24651 0.0756 0.57376 0.0
H861 H 0.28797 0.16168 0.60843 0.0
H862 H 0.24691 0.10752 0.54557 0.0
H863 H 0.28686 0.12886 0.63552 0.0
H864 H 0.31625 0.22416 0.64721 0.0
H865 H 0.25003 0.23949 0.62977 0.0
H866 H 0.35689 0.13463 0.50696 0.0
H867 H 0.33435 0.09776 0.56722 0.0
H868 H 0.20699 0.18859 0.54005 0.0
H869 H 0.26576 0.23745 0.52674 0.0
H870 H 0.18906 0.2246 0.54582 0.0
H871 H 0.24687 0.27263 0.53286 0.0
H872 H 0.28713 0.15713 0.465 0.0
H873 H 0.25325 0.10125 0.50248 0.0
H874 H 0.29967 0.12428 0.43871 0.0
H875 H 0.2665 0.0694 0.47569 0.0
H876 H 0.31763 0.23754 0.4566 0.0
H877 H 0.24636 0.21799 0.42512 0.0
H878 H 0.18204 0.12128 0.57245 0.0
H879 H 0.16739 0.0998 0.49006 0.0
Li880 Li 0.16623 0.0888 0.83118 0.0
Li881 Li 0.13606 0.05981 0.8506 0.0
Li882 Li 0.16325 0.04313 0.82751 0.0
Li883 Li 0.13395 0.05829 0.80274 0.0
C884 C 0.18721 0.06257 0.87477 0.0
N885 N 0.22172 0.04875 0.90491 0.0
C886 C 0.1841 0.05473 0.8979 0.0
C887 C 0.2079 0.06352 0.86702 0.0
C888 C 0.20175 0.04781 0.91287 0.0
C889 C 0.22512 0.05639 0.8825 0.0
C890 C 0.11211 0.09088 0.8185 0.0
C891 C 0.07164 0.07797 0.80863 0.0
N892 N 0.07082 0.09643 0.7945 0.0
C893 C 0.11089 0.10974 0.80391 0.0
C894 C 0.09236 0.07485 0.82092 0.0
C895 C 0.08984 0.11224 0.79191 0.0
C896 C 0.18164 0.13593 0.81682 0.0
N897 N 0.18697 0.12058 0.8334 0.0
C898 C 0.22386 0.14693 0.84776 0.0
C899 C 0.2075 0.126 0.84911 0.0
C900 C 0.21909 0.16301 0.83042 0.0
C901 C 0.19728 0.15741 0.81531 0.0
H902 H 0.16541 0.13114 0.80418 0.0
H903 H 0.21156 0.11358 0.86206 0.0
C904 C 0.11968 0.03128 0.88631 0.0
N905 N 0.12117 0.05426 0.87978 0.0
C906 C 0.11039 0.02532 0.90755 0.0
C907 C 0.10407 0.06673 0.91526 0.0
C908 C 0.11356 0.07193 0.89379 0.0
C909 C 0.10235 0.04309 0.92254 0.0
H910 H 0.12607 0.01758 0.87517 0.0
H911 H 0.11494 0.09014 0.88843 0.0
C912 C 0.17933 0.06198 0.78375 0.0
N913 N 0.20652 0.0567 0.74806 0.0
C914 C 0.17067 0.04635 0.7602 0.0
C915 C 0.20178 0.07499 0.78911 0.0
C916 C 0.1847 0.04392 0.74242 0.0
C917 C 0.21527 0.07204 0.77083 0.0
C918 C 0.11971 1.00815 0.80886 0.0
C919 C 0.12904 0.99766 0.78918 0.0
C920 C 0.09929 0.9956 0.81374 0.0
C921 C 0.11766 0.97473 0.77455 0.0
C922 C 0.08843 0.97271 0.79868 0.0
N923 N 0.09776 0.96284 0.77955 0.0
C924 C 0.17766 1.00384 0.84812 0.0
C925 C 0.19344 1.0124 0.81188 0.0
C926 C 0.1899 0.98555 0.85161 0.0
N927 N 0.17992 0.01719 0.8288 0.0
C928 C 0.20561 0.9939 0.81434 0.0
C929 C 0.20406 0.9805 0.83457 0.0
H930 H 0.16658 1.00772 0.86111 0.0
H931 H 0.19497 0.0229 0.79654 0.0
C932 C 0.1242 0.07193 0.75439 0.0
N933 N 0.1161 0.05458 0.76824 0.0
C934 C 0.1151 0.06997 0.72839 0.0
C935 C 0.08887 0.03259 0.7311 0.0
C936 C 0.09846 0.03533 0.7572 0.0
C937 C 0.09734 0.04991 0.71614 0.0
H938 H 0.13835 0.08696 0.76341 0.0
H939 H 0.09205 0.02174 0.76839 0.0
O940 O 0.16997 0.06899 0.85965 0.0
O941 O 0.13252 0.08746 0.82969 0.0
O942 O 0.16585 0.06475 0.80137 0.0
O943 O 0.13037 0.03068 0.82324 0.0
H944 H 0.16821 0.05395 0.9042 0.0
H945 H 0.21048 0.06925 0.84901 0.0
H946 H 0.19958 0.04165 0.9308 0.0
H947 H 0.24115 0.05683 0.87663 0.0
H948 H 0.05621 0.06565 0.81026 0.0
H949 H 0.126 0.12222 0.80172 0.0
H950 H 0.09305 0.05999 0.83193 0.0
H951 H 0.08864 0.12671 0.78049 0.0
H952 H 0.24033 0.14979 0.85963 0.0
H953 H 0.19225 0.16924 0.80206 0.0
H954 H 0.10991 1.007 0.9124 0.0
H955 H 0.09793 0.08104 0.92584 0.0
H956 H 0.15334 0.03613 0.75568 0.0
H957 H 0.20877 0.08714 0.80722 0.0
H958 H 0.17823 0.03186 0.72414 0.0
H959 H 0.23269 0.08195 0.77474 0.0
H960 H 0.14482 1.00715 0.78519 0.0
H961 H 0.09187 1.00355 0.82892 0.0
H962 H 0.12464 0.9664 0.7592 0.0
H963 H 0.07258 0.96281 0.80217 0.0
H964 H 0.18829 0.97542 0.86737 0.0
H965 H 0.2164 0.99035 0.80085 0.0
H966 H 0.12249 0.08368 0.71782 0.0
H967 H 0.075 0.01701 0.72273 0.0
Li968 Li 0.22822 0.87394 0.01702 0.0
Li969 Li 0.25372 0.84749 0.02677 0.0
Li970 Li 0.26116 0.87956 0.99789 0.0
Li971 Li 0.22979 0.84223 0.98489 0.0
C972 C 0.26151 0.90386 0.05247 0.0
N973 N 0.26241 0.94452 0.08839 0.0
C974 C 0.25902 0.90082 0.07738 0.0
C975 C 0.26474 0.92757 0.04589 0.0
C976 C 0.25947 0.92162 0.09526 0.0
C977 C 0.26504 0.94789 0.06431 0.0
C978 C 0.19834 0.82611 0.01282 0.0
C979 C 0.16894 0.79056 0.01301 0.0
N980 N 0.15362 0.80154 1.00056 0.0
C981 C 0.18234 0.83698 0.99988 0.0
C982 C 0.19163 0.80268 0.01934 0.0
C983 C 0.1598 0.82429 0.99394 0.0
C984 C 0.21047 0.91522 0.02405 0.0
N985 N 0.21103 0.89358 0.03286 0.0
C986 C 0.19444 0.90631 0.06824 0.0
C987 C 0.20292 0.88854 0.0542 0.0
C988 C 0.19487 0.92935 0.06028 0.0
C989 C 0.20253 0.93355 0.03765 0.0
H990 H 0.21739 0.91875 1.00724 0.0
H991 H 0.20404 0.87128 0.06093 0.0
C992 C 0.29237 0.83896 0.05334 0.0
N993 N 0.2696 0.8323 0.04991 0.0
C994 C 0.30565 0.8283 0.07011 0.0
C995 C 0.2716 0.80388 0.0791 0.0
C996 C 0.25899 0.81503 0.06211 0.0
C997 C 0.29524 0.8107 0.08339 0.0
H998 H 0.30018 0.85262 0.04307 0.0
H999 H 0.24081 0.81017 0.05884 0.0
C1000 C 0.22982 0.88101 0.9559 0.0
N1001 N 0.22988 0.88616 0.90536 0.0
C1002 C 0.24498 0.87157 0.94279 0.0
C1003 C 0.21494 0.89346 0.94341 0.0
C1004 C 0.24458 0.8741 0.9172 0.0
C1005 C 0.21527 0.89594 0.91787 0.0
C1006 C 0.27488 0.82826 0.98483 0.0
C1007 C 0.29032 0.83516 0.96915 0.0
C1008 C 0.27272 0.805 0.99247 0.0
C1009 C 0.30293 0.81848 0.96094 0.0
C1010 C 0.28557 0.78881 0.98377 0.0
N1011 N 0.30027 0.79581 0.96829 0.0
C1012 C 0.30574 0.89711 1.00497 0.0
C1013 C 0.28698 0.92073 0.97876 0.0
C1014 C 0.32636 0.91304 1.00614 0.0
N1015 N 0.28662 0.90132 0.99177 0.0
C1016 C 0.30745 0.93718 0.97924 0.0
C1017 C 0.32736 0.93366 0.99363 0.0
H1018 H 0.30482 0.88165 0.01525 0.0
H1019 H 0.27141 0.92392 0.96881 0.0
C1020 C 0.21014 0.81921 0.93333 0.0
N1021 N 0.2159 0.81549 0.95778 0.0
C1022 C 0.21418 0.80306 0.91335 0.0
C1023 C 0.22471 0.77693 0.94363 0.0
C1024 C 0.22046 0.79361 0.96298 0.0
C1025 C 0.22369 0.78309 0.9191 0.0
H1026 H 0.20546 0.83622 0.92956 0.0
H1027 H 0.22424 0.79092 0.98264 0.0
O1028 O 0.26049 0.88367 0.03451 0.0
O1029 O 0.22061 0.83776 0.01807 0.0
O1030 O 0.22926 0.87806 0.98075 0.0
O1031 O 0.26258 0.84456 0.9933 0.0
H1032 H 0.25651 0.88254 0.08272 0.0
H1033 H 0.26658 0.9302 0.02664 0.0
H1034 H 0.25741 0.91955 0.11457 0.0
H1035 H 0.26728 0.96633 0.05941 0.0
H1036 H 0.16351 0.7724 0.01791 0.0
H1037 H 0.1873 0.85489 0.99423 0.0
H1038 H 0.20387 0.79383 0.02897 0.0
H1039 H 0.14722 0.83246 0.98393 0.0
H1040 H 0.18854 0.90257 0.08562 0.0
H1041 H 0.20278 0.95105 0.03084 0.0
H1042 H 0.3238 0.83395 0.07289 0.0
H1043 H 0.26296 0.79073 0.08941 0.0
H1044 H 0.25651 0.86181 0.95196 0.0
H1045 H 0.20316 0.90101 0.95333 0.0
H1046 H 0.2558 0.86622 0.90672 0.0
H1047 H 0.20381 0.90548 0.90795 0.0
H1048 H 0.29257 0.8532 0.96332 0.0
H1049 H 0.2613 0.79948 1.00506 0.0
H1050 H 0.31479 0.82353 0.94865 0.0
H1051 H 0.28392 0.7707 0.98941 0.0
H1052 H 0.34137 0.90947 0.01709 0.0
H1053 H 0.30762 0.95297 0.96941 0.0
H1054 H 0.2131 0.80816 0.89446 0.0
H1055 H 0.23203 0.76165 0.94863 0.0
Li1056 Li 0.3075 0.41102 0.07683 0.0
Li1057 Li 0.32388 0.37902 0.10043 0.0
Li1058 Li 0.34948 0.41188 0.07916 0.0
Li1059 Li 0.32087 0.37762 0.05261 0.0
C1060 C 0.3313 0.4339 0.12836 0.0
N1061 N 0.32912 0.46812 0.16958 0.0
C1062 C 0.31825 0.42672 0.14628 0.0
C1063 C 0.34358 0.45838 0.13165 0.0
C1064 C 0.31727 0.44432 0.16692 0.0
C1065 C 0.34216 0.47543 0.15254 0.0
C1066 C 0.2779 0.35705 0.06096 0.0
C1067 C 0.2553 0.3153 0.0531 0.0
N1068 N 0.2401 0.32191 0.03556 0.0
C1069 C 0.26207 0.36344 0.04286 0.0
C1070 C 0.27453 0.33279 0.06614 0.0
C1071 C 0.24307 0.3454 0.03021 0.0
C1072 C 0.27466 0.4355 0.05283 0.0
N1073 N 0.28314 0.42956 0.07568 0.0
C1074 C 0.25517 0.44591 0.0949 0.0
C1075 C 0.27366 0.43453 0.09652 0.0
C1076 C 0.24588 0.45194 0.07145 0.0
C1077 C 0.25609 0.44666 0.0503 0.0
H1078 H 0.28198 0.43103 0.03627 0.0
H1079 H 0.27999 0.42909 0.11435 0.0
C1080 C 0.33846 0.35838 0.14721 0.0
N1081 N 0.32068 0.3614 0.13019 0.0
C1082 C 0.33502 0.34675 0.1686 0.0
C1083 C 0.29511 0.34103 0.15444 0.0
C1084 C 0.29929 0.35294 0.13363 0.0
C1085 C 0.31303 0.33796 0.17276 0.0
H1086 H 0.35541 0.36534 0.14447 0.0
H1087 H 0.2853 0.35569 0.12028 0.0
C1088 C 0.33022 0.43565 0.04156 0.0
N1089 N 0.33928 0.48128 0.02592 0.0
C1090 C 0.33325 0.43713 0.01648 0.0
C1091 C 0.33161 0.45736 0.0586 0.0
C1092 C 0.33788 0.46038 0.00897 0.0
C1093 C 0.33623 0.48025 0.05035 0.0
C1094 C 0.35312 0.35499 0.06652 0.0
C1095 C 0.37022 0.35804 0.05222 0.0
C1096 C 0.34141 0.33115 0.06772 0.0
C1097 C 0.37522 0.33706 0.03912 0.0
C1098 C 0.34692 0.31065 0.05436 0.0
N1099 N 0.36356 0.314 0.04044 0.0
C1100 C 0.39445 0.44354 0.10147 0.0
C1101 C 0.38632 0.43255 0.05642 0.0
C1102 C 0.41614 0.45693 0.10061 0.0
N1103 N 0.37992 0.43171 0.07953 0.0
C1104 C 0.40773 0.44579 0.05467 0.0
C1105 C 0.4232 0.45837 0.07692 0.0
H1106 H 0.38932 0.44247 0.11974 0.0
H1107 H 0.37475 0.4228 0.03916 0.0
C1108 C 0.30022 0.33709 0.00792 0.0
N1109 N 0.31683 0.35758 0.01836 0.0
C1110 C 0.29801 0.32592 0.9823 0.0
C1111 C 0.3305 0.35635 0.97874 0.0
C1112 C 0.33197 0.367 1.00428 0.0
C1113 C 0.31314 0.33567 0.96714 0.0
H1114 H 0.28843 0.32946 0.01919 0.0
H1115 H 0.34513 0.38317 0.01284 0.0
O1116 O 0.33261 0.41687 0.10815 0.0
O1117 O 0.29644 0.37452 0.07379 0.0
O1118 O 0.32594 0.41305 0.04934 0.0
O1119 O 0.3476 0.37526 0.079 0.0
H1120 H 0.30877 0.40782 0.14412 0.0
H1121 H 0.35416 0.46415 0.11828 0.0
H1122 H 0.30709 0.43906 0.18082 0.0
H1123 H 0.35147 0.49447 0.15525 0.0
H1124 H 0.25249 0.29645 0.05689 0.0
H1125 H 0.26447 0.38209 0.03857 0.0
H1126 H 0.28671 0.32747 0.07994 0.0
H1127 H 0.23068 0.35007 0.01614 0.0
H1128 H 0.24779 0.44919 0.11169 0.0
H1129 H 0.24978 0.45107 0.03184 0.0
H1130 H 0.34954 0.34523 0.18203 0.0
H1131 H 0.27779 0.33425 0.15597 0.0
H1132 H 0.33207 0.42052 1.00296 0.0
H1133 H 0.32894 0.4565 0.07789 0.0
H1134 H 0.34035 0.4618 0.98965 0.0
H1135 H 0.33736 0.4972 0.06336 0.0
H1136 H 0.3794 0.3764 0.0511 0.0
H1137 H 0.32813 0.32856 0.07875 0.0
H1138 H 0.38834 0.33911 0.02786 0.0
H1139 H 0.33795 0.29207 0.05502 0.0
H1140 H 0.42733 0.46577 0.11846 0.0
H1141 H 0.41191 0.44641 0.03588 0.0
H1142 H 0.28455 0.30979 0.97446 0.0
H1143 H 0.3425 0.36479 0.96798 0.0
Li1144 Li 0.85641 0.22252 0.13109 0.0
Li1145 Li 0.87036 0.19214 0.10336 0.0
Li1146 Li 0.85577 0.22571 0.08696 0.0
Li1147 Li 0.83109 0.1916 0.09814 0.0
C1148 C 0.89599 0.25229 0.11754 0.0
N1149 N 0.92251 0.29972 0.12509 0.0
C1150 C 0.91777 0.256 0.11234 0.0
C1151 C 0.88768 0.2727 0.1265 0.0
C1152 C 0.93093 0.28013 0.11631 0.0
C1153 C 0.90134 0.29652 0.1302 0.0
C1154 C 0.83691 0.16842 0.1377 0.0
C1155 C 0.81647 0.12607 0.13372 0.0
N1156 N 0.80726 0.13274 0.15426 0.0
C1157 C 0.8274 0.17481 0.1589 0.0
C1158 C 0.83158 0.1438 0.12514 0.0
C1159 C 0.8124 0.15651 0.16694 0.0
C1160 C 0.83725 0.24439 0.16569 0.0
N1161 N 0.85788 0.24093 0.16278 0.0
C1162 C 0.87505 0.26713 0.20258 0.0
C1163 C 0.87673 0.25172 0.18055 0.0
C1164 C 0.85388 0.27145 0.20554 0.0
C1165 C 0.83486 0.25976 0.18694 0.0
H1166 H 0.8226 0.23512 0.15139 0.0
H1167 H 0.89292 0.24864 0.17743 0.0
C1168 C 0.90147 0.17169 0.08104 0.0
N1169 N 0.89056 0.17184 0.10109 0.0
C1170 C 0.91101 0.15176 0.07415 0.0
C1171 C 0.89879 0.1335 0.10956 0.0
C1172 C 0.88983 0.15394 0.11598 0.0
C1173 C 0.90884 0.13183 0.08785 0.0
H1174 H 0.90131 0.1861 0.06938 0.0
H1175 H 0.88076 0.15459 0.13163 0.0
C1176 C 0.81408 0.23475 0.09276 0.0
N1177 N 0.77988 0.25119 0.06502 0.0
C1178 C 0.8035 0.22214 0.06828 0.0
C1179 C 0.80721 0.25569 0.10318 0.0
C1180 C 0.78627 0.23074 0.05454 0.0
C1181 C 0.78989 0.26371 0.08885 0.0
C1182 C 0.84117 0.17088 0.05121 0.0
C1183 C 0.82868 0.17427 0.0283 0.0
C1184 C 0.84562 0.14751 0.05343 0.0
C1185 C 0.82077 0.15426 0.00817 0.0
C1186 C 0.83748 0.12799 0.03283 0.0
N1187 N 0.82531 0.13174 0.01082 0.0
C1188 C 0.85674 0.23879 0.03955 0.0
C1189 C 0.85066 0.26994 0.0707 0.0
C1190 C 0.84678 0.24929 0.01993 0.0
N1191 N 0.85692 0.24825 0.06419 0.0
C1192 C 0.84074 0.28121 0.05167 0.0
C1193 C 0.83741 0.26973 0.02616 0.0
H1194 H 0.86193 0.22155 0.03514 0.0
H1195 H 0.85062 0.27673 0.09047 0.0
C1196 C 0.78811 0.17987 0.10813 0.0
N1197 N 0.8012 0.17157 0.09232 0.0
C1198 C 0.7666 0.16609 0.10768 0.0
C1199 C 0.77214 0.13555 0.07434 0.0
C1200 C 0.79359 0.14994 0.07545 0.0
C1201 C 0.75847 0.14346 0.09082 0.0
H1202 H 0.79465 0.19698 0.12158 0.0
H1203 H 0.80422 0.14332 0.06338 0.0
O1204 O 0.88296 0.22876 0.11376 0.0
O1205 O 0.8513 0.18619 0.12922 0.0
O1206 O 0.83143 0.22706 0.10634 0.0
O1207 O 0.84949 0.19049 0.07095 0.0
H1208 H 0.92444 0.24039 0.10535 0.0
H1209 H 0.87078 0.27024 0.13034 0.0
H1210 H 0.94783 0.28328 0.1124 0.0
H1211 H 0.89509 0.31247 0.13709 0.0
H1212 H 0.81202 0.10701 0.12401 0.0
H1213 H 0.83149 0.19367 0.16904 0.0
H1214 H 0.83875 0.13851 0.10869 0.0
H1215 H 0.80484 0.16123 0.18326 0.0
H1216 H 0.88994 0.27565 0.21695 0.0
H1217 H 0.81818 0.26202 0.18911 0.0
H1218 H 0.91914 0.1515 0.05768 0.0
H1219 H 0.89658 0.11854 0.12056 0.0
H1220 H 0.80854 0.20592 0.05999 0.0
H1221 H 0.81535 0.26585 0.12201 0.0
H1222 H 0.77798 0.22117 0.03554 0.0
H1223 H 0.78448 0.27995 0.09664 0.0
H1224 H 0.82508 0.19213 0.02596 0.0
H1225 H 0.85489 0.14422 0.07095 0.0
H1226 H 0.81106 0.15667 0.9904 0.0
H1227 H 0.84075 0.10983 0.03439 0.0
H1228 H 0.8446 0.24029 1.00024 0.0
H1229 H 0.83358 0.29697 0.05693 0.0
H1230 H 0.7565 0.17304 0.12051 0.0
H1231 H 0.76662 0.11804 0.0613 0.0
Li1232 Li 0.18982 0.54102 0.3202 0.0
Li1233 Li 0.15917 0.51502 0.34131 0.0
Li1234 Li 0.18842 0.49005 0.31739 0.0
Li1235 Li 0.15486 0.51152 0.28825 0.0
C1236 C 0.21033 0.53283 0.36814 0.0
N1237 N 0.24383 0.56139 0.40701 0.0
C1238 C 0.20524 0.55037 0.38611 0.0
C1239 C 0.23243 0.52987 0.36984 0.0
C1240 C 0.22241 0.56459 0.40567 0.0
C1241 C 0.24914 0.5445 0.38964 0.0
C1242 C 0.14684 0.55777 0.32779 0.0
C1243 C 0.11373 0.57305 0.33355 0.0
N1244 N 0.12675 0.59241 0.35111 0.0
C1245 C 0.15986 0.5777 0.34603 0.0
C1246 C 0.12357 0.55531 0.3216 0.0
C1247 C 0.14941 0.59507 0.35755 0.0
C1248 C 0.20332 0.58845 0.29931 0.0
N1249 N 0.20892 0.5777 0.32028 0.0
C1250 C 0.23586 0.61685 0.33928 0.0
C1251 C 0.22513 0.59181 0.3401 0.0
C1252 C 0.23051 0.62837 0.31774 0.0
C1253 C 0.21385 0.6132 0.29759 0.0
H1254 H 0.19022 0.57794 0.2837 0.0
H1255 H 0.22979 0.58392 0.35696 0.0
C1256 C 0.1513 0.51691 0.39869 0.0
N1257 N 0.14085 0.51677 0.37401 0.0
C1258 C 0.14016 0.51925 0.42026 0.0
C1259 C 0.10701 0.52102 0.39192 0.0
C1260 C 0.11872 0.51862 0.37086 0.0
C1261 C 0.11736 0.52154 0.41778 0.0
H1262 H 0.16864 0.51526 0.40209 0.0
H1263 H 0.10975 0.5184 0.35179 0.0
C1264 C 0.20544 0.52357 0.27733 0.0
N1265 N 0.23895 0.54509 0.25344 0.0
C1266 C 0.19998 0.53425 0.25569 0.0
C1267 C 0.22791 0.52381 0.28684 0.0
C1268 C 0.21718 0.54504 0.24388 0.0
C1269 C 0.24462 0.53478 0.27448 0.0
C1270 C 0.13447 0.46792 0.31698 0.0
C1271 C 0.13772 0.44956 0.33168 0.0
C1272 C 0.11272 0.47089 0.30848 0.0
C1273 C 0.11901 0.43426 0.33748 0.0
C1274 C 0.09447 0.45523 0.31473 0.0
N1275 N 0.09796 0.43739 0.32896 0.0
C1276 C 0.22932 0.46109 0.32196 0.0
C1277 C 0.19445 0.43337 0.31032 0.0
C1278 C 0.24072 0.44073 0.32146 0.0
N1279 N 0.20622 0.45775 0.31649 0.0
C1280 C 0.20523 0.41252 0.30962 0.0
C1281 C 0.22909 0.41525 0.31522 0.0
H1282 H 0.23946 0.47981 0.32686 0.0
H1283 H 0.17628 0.4296 0.30569 0.0
C1284 C 0.12064 0.52728 0.24887 0.0
N1285 N 0.13524 0.51172 0.25098 0.0
C1286 C 0.10831 0.52961 0.22477 0.0
C1287 C 0.12604 0.50049 0.20399 0.0
C1288 C 0.13795 0.49849 0.22862 0.0
C1289 C 0.11059 0.5162 0.2013 0.0
H1290 H 0.11865 0.53853 0.26596 0.0
H1291 H 0.14968 0.48641 0.22959 0.0
O1292 O 0.19377 0.51883 0.34881 0.0
O1293 O 0.15674 0.5403 0.31675 0.0
O1294 O 0.18895 0.51341 0.28952 0.0
O1295 O 0.15254 0.4835 0.31162 0.0
H1296 H 0.18824 0.55304 0.3849 0.0
H1297 H 0.23664 0.51649 0.35596 0.0
H1298 H 0.21873 0.57823 0.41972 0.0
H1299 H 0.26634 0.54243 0.3912 0.0
H1300 H 0.09573 0.57134 0.329 0.0
H1301 H 0.17784 0.57969 0.35136 0.0
H1302 H 0.11314 0.53958 0.30813 0.0
H1303 H 0.1593 0.61061 0.37167 0.0
H1304 H 0.24853 0.62701 0.35551 0.0
H1305 H 0.20841 0.62054 0.28055 0.0
H1306 H 0.1497 0.51902 0.43891 0.0
H1307 H 0.08976 0.52279 0.38759 0.0
H1308 H 0.18267 0.53439 0.24824 0.0
H1309 H 0.23238 0.51578 0.3037 0.0
H1310 H 0.21322 0.55345 0.22715 0.0
H1311 H 0.26209 0.53516 0.28165 0.0
H1312 H 0.1545 0.44727 0.33865 0.0
H1313 H 0.11001 0.48523 0.29731 0.0
H1314 H 0.12124 0.41994 0.34883 0.0
H1315 H 0.07752 0.45731 0.30831 0.0
H1316 H 0.25888 0.44538 0.32624 0.0
H1317 H 0.19444 0.39416 0.30436 0.0
H1318 H 0.0973 0.5425 0.22471 0.0
H1319 H 0.12885 0.48946 0.18714 0.0
Li1320 Li 0.8084 0.91309 0.57864 0.0
Li1321 Li 0.82603 0.88157 0.60191 0.0
Li1322 Li 0.85059 0.91512 0.58021 0.0
Li1323 Li 0.8221 0.87949 0.55306 0.0
C1324 C 0.83263 0.94043 0.62575 0.0
N1325 N 0.83002 0.98226 0.65803 0.0
C1326 C 0.81916 0.93836 0.64433 0.0
C1327 C 0.84496 0.96376 0.62378 0.0
C1328 C 0.818 0.95972 0.66041 0.0
C1329 C 0.84336 0.98469 0.64022 0.0
C1330 C 0.77882 0.85882 0.5645 0.0
C1331 C 0.75853 0.8161 0.55226 0.0
N1332 N 0.73965 0.82377 0.5432 0.0
C1333 C 0.75922 0.86626 0.55496 0.0
C1334 C 0.77847 0.83353 0.5631 0.0
C1335 C 0.73959 0.84827 0.54432 0.0
C1336 C 0.77668 0.93986 0.55576 0.0
N1337 N 0.78362 0.93124 0.57761 0.0
C1338 C 0.75366 0.9443 0.59583 0.0
C1339 C 0.77226 0.93309 0.59737 0.0
C1340 C 0.7461 0.95333 0.57347 0.0
C1341 C 0.75807 0.95098 0.55332 0.0
H1342 H 0.78522 0.93758 0.53981 0.0
H1343 H 0.77713 0.92518 0.61414 0.0
C1344 C 0.8297 0.87626 0.65646 0.0
N1345 N 0.82473 0.86348 0.63199 0.0
C1346 C 0.82669 0.86395 0.67749 0.0
C1347 C 0.81466 0.82527 0.64827 0.0
C1348 C 0.81778 0.83828 0.62787 0.0
C1349 C 0.81858 0.838 0.67367 0.0
H1350 H 0.83569 0.89618 0.65979 0.0
H1351 H 0.81436 0.82808 0.60866 0.0
C1352 C 0.83073 0.93471 0.53822 0.0
N1353 N 0.84025 0.97448 0.5129 0.0
C1354 C 0.83336 0.93075 0.5127 0.0
C1355 C 0.8327 0.95885 0.55076 0.0
C1356 C 0.83825 0.95111 0.50026 0.0
C1357 C 0.83756 0.97872 0.53766 0.0
C1358 C 0.85913 0.8607 0.56921 0.0
C1359 C 0.87985 0.86737 0.56166 0.0
C1360 C 0.8486 0.83565 0.56633 0.0
C1361 C 0.88958 0.84881 0.55109 0.0
C1362 C 0.85887 0.81763 0.55569 0.0
N1363 N 0.87897 0.82453 0.54833 0.0
C1364 C 0.89569 0.94706 0.60164 0.0
C1365 C 0.88699 0.93632 0.55659 0.0
C1366 C 0.91727 0.96055 0.60048 0.0
N1367 N 0.88087 0.93536 0.57984 0.0
C1368 C 0.90828 0.94968 0.55454 0.0
C1369 C 0.92398 0.96219 0.57664 0.0
H1370 H 0.89088 0.94578 0.62004 0.0
H1371 H 0.8754 0.9264 0.53944 0.0
C1372 C 0.79768 0.84558 0.50549 0.0
N1373 N 0.8179 0.8596 0.5186 0.0
C1374 C 0.79525 0.83427 0.47989 0.0
C1375 C 0.83436 0.85202 0.4813 0.0
C1376 C 0.83607 0.86282 0.50691 0.0
C1377 C 0.81365 0.83764 0.46712 0.0
H1378 H 0.78314 0.84368 0.51447 0.0
H1379 H 0.85181 0.87474 0.51713 0.0
O1380 O 0.83406 0.91971 0.60988 0.0
O1381 O 0.79813 0.87622 0.57525 0.0
O1382 O 0.82617 0.91501 0.55079 0.0
O1383 O 0.8493 0.87863 0.5795 0.0
H1384 H 0.80944 0.92046 0.6461 0.0
H1385 H 0.8557 0.9657 0.60975 0.0
H1386 H 0.80751 0.95839 0.67476 0.0
H1387 H 0.85277 1.00286 0.63884 0.0
H1388 H 0.7581 0.79648 0.55095 0.0
H1389 H 0.7591 0.88569 0.55576 0.0
H1390 H 0.79351 0.82736 0.56978 0.0
H1391 H 0.7243 0.85379 0.53694 0.0
H1392 H 0.74484 0.94513 0.61172 0.0
H1393 H 0.7531 0.95766 0.53569 0.0
H1394 H 0.83004 0.87487 0.69647 0.0
H1395 H 0.80907 0.80527 0.64399 0.0
H1396 H 0.83172 0.91218 0.50262 0.0
H1397 H 0.83023 0.96218 0.57029 0.0
H1398 H 0.84044 0.94833 0.48056 0.0
H1399 H 0.83913 0.99751 0.54715 0.0
H1400 H 0.88833 0.88665 0.56393 0.0
H1401 H 0.83262 0.83018 0.57209 0.0
H1402 H 0.90557 0.85371 0.54509 0.0
H1403 H 0.85086 0.79817 0.55327 0.0
H1404 H 0.92866 0.96928 0.61823 0.0
H1405 H 0.91221 0.95036 0.53566 0.0
H1406 H 0.77894 0.82321 0.47017 0.0
H1407 H 0.849 0.85581 0.4725 0.0
Li1408 Li 0.96456 1.00906 0.30247 0.0
Li1409 Li 0.93162 0.97963 0.27509 0.0
Li1410 Li 0.96313 1.00537 0.25453 0.0
Li1411 Li 0.93578 0.02551 0.27677 0.0
C1412 C 0.9812 0.96765 0.28591 0.0
N1413 N 0.01502 0.94484 0.30374 0.0
C1414 C 0.97716 0.94958 0.3014 0.0
C1415 C 1.00235 0.974 0.27931 0.0
C1416 C 0.99452 0.9383 0.31027 0.0
C1417 C 0.01925 0.96228 0.28856 0.0
C1418 C 0.9155 1.00014 0.31714 0.0
C1419 C 0.87636 0.99567 0.32005 0.0
N1420 N 0.88064 0.98811 0.34307 0.0
C1421 C 0.91954 0.99248 0.34092 0.0
C1422 C 0.89377 1.00186 0.30667 0.0
C1423 C 0.90168 0.98641 0.35368 0.0
C1424 C 0.97419 0.03042 0.35476 0.0
N1425 N 0.98223 0.01575 0.33772 0.0
C1426 C 1.00907 1.00883 0.37222 0.0
C1427 C 0.99981 1.00552 0.34597 0.0
C1428 C 1.00044 0.02306 0.39034 0.0
C1429 C 0.98303 0.03434 0.38108 0.0
H1430 H 0.96026 0.03847 0.34797 0.0
H1431 H 1.00646 0.99435 0.33242 0.0
C1432 C 0.89421 0.9367 0.2534 0.0
N1433 N 0.90996 0.9485 0.2744 0.0
C1434 C 0.87769 0.91585 0.25493 0.0
C1435 C 0.89391 0.91952 0.29952 0.0
C1436 C 0.91033 0.93983 0.29697 0.0
C1437 C 0.87701 0.90708 0.27841 0.0
H1438 H 0.89423 0.94361 0.23549 0.0
H1439 H 0.92314 0.9491 0.31336 0.0
C1440 C 0.98737 0.05199 0.29595 0.0
N1441 N 0.02434 0.08311 0.32823 0.0
C1442 C 0.98451 0.07116 0.31383 0.0
C1443 C 1.00898 0.0487 0.29434 0.0
C1444 C 1.00343 0.08668 0.33002 0.0
C1445 C 0.02748 0.06462 0.31087 0.0
C1446 C 0.91203 1.00181 0.22763 0.0
C1447 C 0.91702 1.0115 0.20594 0.0
C1448 C 0.88965 0.99534 0.23061 0.0
C1449 C 0.89952 0.01499 0.18778 0.0
C1450 C 0.87263 0.99912 0.21205 0.0
N1451 N 0.87788 1.0088 0.19121 0.0
C1452 C 0.98405 0.98844 0.21123 0.0
C1453 C 0.98282 0.03084 0.21779 0.0
C1454 C 0.99407 0.99142 0.18961 0.0
N1455 N 0.97859 1.00804 0.22491 0.0
C1456 C 0.99261 0.03458 0.19625 0.0
C1457 C 0.99841 0.01475 0.18159 0.0
H1458 H 0.98047 0.97037 0.21692 0.0
H1459 H 0.97833 0.04623 0.22875 0.0
C1460 C 0.91517 0.06127 0.29975 0.0
N1461 N 0.92024 0.05231 0.27708 0.0
C1462 C 0.90367 0.08048 0.30141 0.0
C1463 C 0.90363 0.08181 0.2566 0.0
C1464 C 0.91511 0.06249 0.2558 0.0
C1465 C 0.89752 0.0909 0.27959 0.0
H1466 H 0.92007 0.05348 0.31663 0.0
H1467 H 0.91994 0.05571 0.23819 0.0
O1468 O 0.96438 0.97865 0.27674 0.0
O1469 O 0.93279 1.00602 0.30429 0.0
O1470 O 0.96905 0.03615 0.28048 0.0
O1471 O 0.92895 0.99835 0.24563 0.0
H1472 H 0.96085 0.94437 0.30655 0.0
H1473 H 1.00566 0.98782 0.26718 0.0
H1474 H 0.99168 0.92434 0.32235 0.0
H1475 H 0.03573 0.96705 0.28368 0.0
H1476 H 0.85946 0.99692 0.31215 0.0
H1477 H 0.93621 0.99082 0.34925 0.0
H1478 H 0.89039 1.00813 0.28853 0.0
H1479 H 0.90454 0.98029 0.372 0.0
H1480 H 0.02279 1.00014 0.37824 0.0
H1481 H 0.97562 0.04533 0.39411 0.0
H1482 H 0.86559 0.90683 0.23779 0.0
H1483 H 0.8943 0.91423 0.31824 0.0
H1484 H 0.96784 0.07384 0.31534 0.0
H1485 H 1.01142 0.03392 0.28058 0.0
H1486 H 1.0015 0.10152 0.34407 0.0
H1487 H 0.04432 0.06225 0.30993 0.0
H1488 H 0.93422 0.01642 0.20321 0.0
H1489 H 0.88544 0.98735 0.24699 0.0
H1490 H 0.90315 0.02261 0.17098 0.0
H1491 H 0.85525 0.99427 0.21416 0.0
H1492 H 0.998 0.97543 0.17902 0.0
H1493 H 0.99585 0.05302 0.19137 0.0
H1494 H 0.8998 0.08723 0.31968 0.0
H1495 H 0.89925 0.08922 0.23928 0.0
Li1496 Li 0.35223 0.72193 0.62549 0.0
Li1497 Li 0.36956 0.69565 0.59536 0.0
Li1498 Li 0.34867 0.72445 0.5813 0.0
Li1499 Li 0.32964 0.68751 0.59299 0.0
C1500 C 0.38721 0.75429 0.60034 0.0
N1501 N 0.40645 0.7981 0.58578 0.0
C1502 C 0.3987 0.75382 0.57989 0.0
C1503 C 0.38561 0.77706 0.61348 0.0
C1504 C 0.40828 0.77616 0.57279 0.0
C1505 C 0.39543 0.799 0.60581 0.0
C1506 C 0.34196 0.66662 0.63265 0.0
C1507 C 0.32777 0.62267 0.63022 0.0
N1508 N 0.31871 0.62741 0.65136 0.0
C1509 C 0.33269 0.67103 0.6545 0.0
C1510 C 0.33969 0.64223 0.62055 0.0
C1511 C 0.32095 0.65097 0.66363 0.0
C1512 C 0.33037 0.73856 0.66072 0.0
N1513 N 0.35176 0.73993 0.65697 0.0
C1514 C 0.36625 0.76972 0.69503 0.0
C1515 C 0.36972 0.75496 0.6735 0.0
C1516 C 0.34415 0.76905 0.69882 0.0
C1517 C 0.32613 0.75313 0.68152 0.0
H1518 H 0.3165 0.72623 0.64732 0.0
H1519 H 0.38653 0.75579 0.66973 0.0
C1520 C 0.40045 0.68059 0.56827 0.0
N1521 N 0.39289 0.67997 0.59068 0.0
C1522 C 0.41156 0.66263 0.55959 0.0
C1523 C 0.40806 0.64499 0.5981 0.0
C1524 C 0.39722 0.66341 0.60615 0.0
C1525 C 0.41442 0.64392 0.57406 0.0
H1526 H 0.39587 0.69337 0.55596 0.0
H1527 H 0.39052 0.66317 0.62358 0.0
C1528 C 0.30611 0.72677 0.58888 0.0
N1529 N 0.26903 0.73967 0.56259 0.0
C1530 C 0.29523 0.71336 0.56481 0.0
C1531 C 0.29802 0.74667 0.59966 0.0
C1532 C 0.27655 0.72019 0.55179 0.0
C1533 C 0.27927 0.75291 0.58606 0.0
C1534 C 0.33926 0.66988 0.54543 0.0
C1535 C 0.32443 0.67056 0.52305 0.0
C1536 C 0.3472 0.64832 0.54798 0.0
C1537 C 0.31786 0.64977 0.5037 0.0
C1538 C 0.34031 0.62795 0.52816 0.0
N1539 N 0.32588 0.62908 0.50661 0.0
C1540 C 0.3429 0.73892 0.53397 0.0
C1541 C 0.33827 0.76803 0.56816 0.0
C1542 C 0.33132 0.75014 0.51624 0.0
N1543 N 0.34481 0.74711 0.55929 0.0
C1544 C 0.32672 0.77999 0.55106 0.0
C1545 C 0.3221 0.76999 0.52501 0.0
H1546 H 0.34861 0.72243 0.52769 0.0
H1547 H 0.33991 0.77384 0.58853 0.0
C1548 C 0.28882 0.66991 0.60569 0.0
N1549 N 0.30191 0.66349 0.58896 0.0
C1550 C 0.26817 0.65448 0.60576 0.0
C1551 C 0.27468 0.62579 0.57137 0.0
C1552 C 0.2953 0.64184 0.57199 0.0
C1553 C 0.26087 0.63205 0.58847 0.0
H1554 H 0.29451 0.68709 0.61914 0.0
H1555 H 0.30593 0.63675 0.5591 0.0
O1556 O 0.3775 0.7326 0.60741 0.0
O1557 O 0.35312 0.68607 0.62312 0.0
O1558 O 0.325 0.72102 0.60152 0.0
O1559 O 0.34629 0.6904 0.56429 0.0
H1560 H 0.40007 0.73639 0.56949 0.0
H1561 H 0.37664 0.77778 0.62923 0.0
H1562 H 0.41713 0.77606 0.55693 0.0
H1563 H 0.39421 0.81674 0.61571 0.0
H1564 H 0.32571 0.60373 0.62089 0.0
H1565 H 0.33449 0.68972 0.66431 0.0
H1566 H 0.34683 0.63844 0.60371 0.0
H1567 H 0.31361 0.65414 0.68046 0.0
H1568 H 0.38051 0.78165 0.70834 0.0
H1569 H 0.30894 0.7516 0.68432 0.0
H1570 H 0.41612 0.66216 0.54087 0.0
H1571 H 0.41027 0.63091 0.6098 0.0
H1572 H 0.30125 0.69796 0.5562 0.0
H1573 H 0.30637 0.75746 0.61815 0.0
H1574 H 0.26808 0.71004 0.53308 0.0
H1575 H 0.27292 0.76836 0.5941 0.0
H1576 H 0.318 0.68695 0.52054 0.0
H1577 H 0.35828 0.64702 0.56515 0.0
H1578 H 0.30639 0.6501 0.48634 0.0
H1579 H 0.34634 0.61119 0.52997 0.0
H1580 H 0.32828 0.74243 0.49606 0.0
H1581 H 0.31984 0.7954 0.55821 0.0
H1582 H 0.25794 0.66024 0.61904 0.0
H1583 H 0.26977 0.60852 0.55792 0.0
Li1584 Li 0.42956 0.47785 0.77601 0.0
Li1585 Li 0.4626 0.50749 0.80413 0.0
Li1586 Li 0.43332 0.52395 0.77996 0.0
Li1587 Li 0.46005 0.50583 0.75597 0.0
C1588 C 0.41671 0.50401 0.82311 0.0
N1589 N 0.38826 0.50766 0.85766 0.0
C1590 C 0.42507 0.5174 0.84785 0.0
C1591 C 0.39388 0.49252 0.81595 0.0
C1592 C 0.41041 0.51902 0.86503 0.0
C1593 C 0.37977 0.49457 0.8337 0.0
C1594 C 0.48321 0.47393 0.78785 0.0
C1595 C 0.52376 0.48536 0.79703 0.0
N1596 N 0.52413 0.46704 0.81143 0.0
C1597 C 0.48398 0.4552 0.8027 0.0
C1598 C 0.50323 0.48913 0.78495 0.0
C1599 C 0.50484 0.45202 0.81448 0.0
C1600 C 0.38773 0.44108 0.75836 0.0
N1601 N 0.40821 0.44651 0.77417 0.0
C1602 C 0.39735 0.4104 0.7932 0.0
C1603 C 0.41323 0.43152 0.79127 0.0
C1604 C 0.37558 0.40481 0.77797 0.0
C1605 C 0.37112 0.42051 0.76011 0.0
H1606 H 0.38389 0.45324 0.74502 0.0
H1607 H 0.42942 0.43633 0.80399 0.0
C1608 C 0.49847 0.52968 0.84991 0.0
N1609 N 0.48056 0.51075 0.83875 0.0
C1610 C 0.50775 0.53243 0.87611 0.0
C1611 C 0.48093 0.49551 0.8787 0.0
C1612 C 0.47211 0.49355 0.85259 0.0
C1613 C 0.49879 0.51541 0.89109 0.0
H1614 H 0.50533 0.54305 0.83878 0.0
H1615 H 0.4578 0.47873 0.84353 0.0
C1616 C 0.40901 0.50313 0.73127 0.0
N1617 N 0.3747 0.51387 0.69789 0.0
C1618 C 0.41254 0.50893 0.70745 0.0
C1619 C 0.38803 0.50275 0.7381 0.0
C1620 C 0.39498 0.5143 0.69084 0.0
C1621 C 0.3709 0.50826 0.72097 0.0
C1622 C 0.47991 0.5566 0.79734 0.0
C1623 C 0.47284 0.56982 0.81734 0.0
C1624 C 0.5011 0.56528 0.79167 0.0
C1625 C 0.48715 0.59165 0.83136 0.0
C1626 C 0.51491 0.58718 0.80615 0.0
N1627 N 0.50771 0.59979 0.82552 0.0
C1628 C 0.40912 0.5582 0.80132 0.0
C1629 C 0.41426 0.56147 0.75906 0.0
C1630 C 0.39713 0.57697 0.80149 0.0
N1631 N 0.41711 0.55045 0.78018 0.0
C1632 C 0.40199 0.58006 0.7582 0.0
C1633 C 0.39302 0.58798 0.77958 0.0
H1634 H 0.41223 0.55012 0.8183 0.0
H1635 H 0.42134 0.55568 0.7427 0.0
C1636 C 0.47918 0.49199 0.71017 0.0
N1637 N 0.47459 0.51067 0.72618 0.0
C1638 C 0.48876 0.49694 0.68866 0.0
C1639 C 0.4886 0.54012 0.70029 0.0
C1640 C 0.47897 0.53436 0.72139 0.0
C1641 C 0.49382 0.52138 0.68349 0.0
H1642 H 0.47539 0.4732 0.71403 0.0
H1643 H 0.47482 0.54891 0.73394 0.0
O1644 O 0.43082 0.50217 0.80603 0.0
O1645 O 0.46302 0.47803 0.77689 0.0
O1646 O 0.42609 0.49805 0.74784 0.0
O1647 O 0.46628 0.53515 0.78345 0.0
H1648 H 0.44261 0.52679 0.8536 0.0
H1649 H 0.38709 0.48218 0.7969 0.0
H1650 H 0.41663 0.52938 0.8842 0.0
H1651 H 0.36206 0.48577 0.8284 0.0
H1652 H 0.53939 0.49704 0.79503 0.0
H1653 H 0.46866 0.44335 0.80525 0.0
H1654 H 0.5029 0.50386 0.77369 0.0
H1655 H 0.5057 0.43765 0.8261 0.0
H1656 H 0.40218 0.39885 0.80685 0.0
H1657 H 0.35471 0.41764 0.74812 0.0
H1658 H 0.52177 0.54783 0.88455 0.0
H1659 H 0.4732 0.48199 0.88926 0.0
H1660 H 0.42868 0.5093 0.70187 0.0
H1661 H 0.3851 0.49859 0.75658 0.0
H1662 H 0.39747 0.51884 0.67235 0.0
H1663 H 0.35462 0.50816 0.72606 0.0
H1664 H 0.45661 0.56315 0.82217 0.0
H1665 H 0.50684 0.55514 0.77632 0.0
H1666 H 0.48194 0.60206 0.84695 0.0
H1667 H 0.53137 0.59411 0.80201 0.0
H1668 H 0.39134 0.58292 0.81881 0.0
H1669 H 0.3993 0.58781 0.74079 0.0
H1670 H 0.49258 0.48184 0.67651 0.0
H1671 H 0.49174 0.55917 0.69708 0.0
Li1672 Li 0.65853 0.01565 0.84356 0.0
Li1673 Li 0.68921 0.0397 0.82097 0.0
Li1674 Li 0.65527 1.01172 0.78911 0.0
Li1675 Li 0.68771 0.98929 0.81867 0.0
C1676 C 0.65595 0.06452 0.82214 0.0
N1677 N 0.65799 0.11495 0.83075 0.0
C1678 C 0.65851 0.07716 0.84707 0.0
C1679 C 0.6542 0.07746 0.80156 0.0
C1680 C 0.65955 0.10267 0.85104 0.0
C1681 C 0.65533 0.10297 0.80632 0.0
C1682 C 0.70967 0.03215 0.86973 0.0
C1683 C 0.74863 0.04456 0.89072 0.0
N1684 N 0.74307 0.06037 0.90895 0.0
C1685 C 0.70432 0.04845 0.8887 0.0
C1686 C 0.73197 0.03008 0.87078 0.0
C1687 C 0.72144 0.06256 0.90838 0.0
C1688 C 0.64913 0.01495 0.90033 0.0
N1689 N 0.64018 0.01842 0.87623 0.0
C1690 C 0.60796 0.02802 0.89467 0.0
C1691 C 0.61965 0.0249 0.87364 0.0
C1692 C 0.6168 0.02479 0.91992 0.0
C1693 C 0.63802 0.01802 0.92187 0.0
H1694 H 0.66527 1.0099 0.9033 0.0
H1695 H 0.61207 0.02805 0.8551 0.0
C1696 C 0.70906 0.08454 0.79827 0.0
N1697 N 0.7086 0.07641 0.82126 0.0
C1698 C 0.71958 0.10931 0.79659 0.0
C1699 C 0.72945 0.11821 0.8422 0.0
C1700 C 0.71871 0.09318 0.84306 0.0
C1701 C 0.73019 0.12719 0.81869 0.0
H1702 H 0.70064 0.07195 0.78082 0.0
H1703 H 0.71823 0.0875 0.86148 0.0
C1704 C 0.63393 0.96671 0.81621 0.0
N1705 N 0.59742 0.93207 0.8226 0.0
C1706 C 0.63723 0.94604 0.82725 0.0
C1707 C 0.61211 0.96991 0.80863 0.0
C1708 C 0.61853 0.92868 0.83024 0.0
C1709 C 0.59386 0.95215 0.81198 0.0
C1710 C 0.70645 0.02049 0.77902 0.0
C1711 C 0.70271 0.02099 0.75274 0.0
C1712 C 0.72826 0.02843 0.79341 0.0
C1713 C 0.72087 0.02978 0.74132 0.0
C1714 C 0.74598 0.03713 0.7813 0.0
N1715 N 0.74195 0.03764 0.75573 0.0
C1716 C 0.64379 0.02924 0.73763 0.0
C1717 C 0.61544 0.99596 0.74155 0.0
C1718 C 0.63181 0.03101 0.71307 0.0
N1719 N 0.63575 1.01191 0.75188 0.0
C1720 C 0.60286 0.99723 0.71712 0.0
C1721 C 0.61067 0.01504 0.70197 0.0
H1722 H 0.6597 0.04216 0.74531 0.0
H1723 H 0.60868 0.98202 0.75222 0.0
C1724 C 0.72771 0.95912 0.82613 0.0
N1725 N 0.70497 0.95634 0.81732 0.0
C1726 C 0.73892 0.93859 0.82529 0.0
C1727 C 0.70402 0.91128 0.80618 0.0
C1728 C 0.69341 0.9323 0.80734 0.0
C1729 C 0.7275 0.91346 0.81518 0.0
H1730 H 0.73773 0.97753 0.83402 0.0
H1731 H 0.67556 0.92896 0.79988 0.0
O1732 O 0.65578 0.03975 0.81802 0.0
O1733 O 0.69311 0.01823 0.85031 0.0
O1734 O 0.65198 0.98403 0.81334 0.0
O1735 O 0.68888 1.01239 0.7907 0.0
H1736 H 0.6598 0.0674 0.86319 0.0
H1737 H 0.65226 0.06798 0.78217 0.0
H1738 H 0.66164 0.11271 0.87025 0.0
H1739 H 0.65419 0.11326 0.79059 0.0
H1740 H 0.76598 0.04321 0.89173 0.0
H1741 H 0.68716 0.05026 0.8882 0.0
H1742 H 0.73638 0.01746 0.85635 0.0
H1743 H 0.71755 0.0753 0.92315 0.0
H1744 H 0.59205 0.03346 0.89092 0.0
H1745 H 0.64625 0.01479 0.94007 0.0
H1746 H 0.71874 0.11441 0.77776 0.0
H1747 H 0.73722 0.13036 0.86013 0.0
H1748 H 0.65404 0.9435 0.83354 0.0
H1749 H 0.60934 0.986 0.80037 0.0
H1750 H 0.62081 0.91255 0.8387 0.0
H1751 H 0.57687 0.95436 0.80617 0.0
H1752 H 0.686 0.01447 0.74123 0.0
H1753 H 0.73141 0.02817 0.81376 0.0
H1754 H 0.71823 0.03032 0.721 0.0
H1755 H 0.76293 0.04351 0.79225 0.0
H1756 H 0.63906 0.04536 0.70314 0.0
H1757 H 0.58705 0.98392 0.71013 0.0
H1758 H 0.75677 0.94282 0.83289 0.0
H1759 H 0.69345 0.89325 0.79783 0.0
Li1760 Li 0.77294 0.68884 0.05751 0.0
Li1761 Li 0.78668 0.65558 0.03377 0.0
Li1762 Li 0.76967 0.68691 0.00963 0.0
Li1763 Li 0.74395 0.65382 0.03077 0.0
C1764 C 0.81617 0.70896 0.04888 0.0
N1765 N 0.85445 0.74323 0.07438 0.0
C1766 C 0.83105 0.70249 0.06796 0.0
C1767 C 0.82079 0.73274 0.04259 0.0
C1768 C 0.8503 0.72012 0.08069 0.0
C1769 C 0.84024 0.74983 0.05575 0.0
C1770 C 0.77148 0.64307 0.08158 0.0
C1771 C 0.76284 0.60989 0.10558 0.0
N1772 N 0.77954 0.62246 0.12532 0.0
C1773 C 0.78862 0.65562 0.10207 0.0
C1774 C 0.75852 0.61999 0.08331 0.0
C1775 C 0.7924 0.64491 0.12403 0.0
C1776 C 0.76131 0.70064 0.10588 0.0
N1777 N 0.77668 0.70931 0.0917 0.0
C1778 C 0.79573 0.74147 0.12723 0.0
C1779 C 0.7935 0.72969 0.10181 0.0
C1780 C 0.78041 0.73246 0.14254 0.0
C1781 C 0.76284 0.71188 0.13124 0.0
H1782 H 0.74805 0.68444 0.09764 0.0
H1783 H 0.80541 0.73677 0.09042 0.0
C1784 C 0.82057 0.63326 0.01314 0.0
N1785 N 0.81096 0.63673 0.03417 0.0
C1786 C 0.83908 0.62187 0.01376 0.0
C1787 C 0.83765 0.61768 0.05758 0.0
C1788 C 0.81911 0.62886 0.05604 0.0
C1789 C 0.84819 0.6142 0.03638 0.0
H1790 H 0.8142 0.63983 0.99595 0.0
H1791 H 0.81159 0.63165 0.07266 0.0
C1792 C 0.73992 0.71008 0.0444 0.0
N1793 N 0.72888 0.74931 0.07288 0.0
C1794 C 0.72122 0.70598 0.05622 0.0
C1795 C 0.75296 0.73411 0.04695 0.0
C1796 C 0.71592 0.72608 0.07056 0.0
C1797 C 0.74711 0.7537 0.06147 0.0
C1798 C 0.76063 0.62536 0.9897 0.0
C1799 C 0.76626 0.62176 0.96547 0.0
C1800 C 0.75428 0.60494 1.00162 0.0
C1801 C 0.76545 0.59768 0.95354 0.0
C1802 C 0.75367 0.58116 0.98905 0.0
N1803 N 0.75922 0.57806 0.96547 0.0
C1804 C 0.78428 0.697 0.96239 0.0
C1805 C 0.76178 0.72381 0.97627 0.0
C1806 C 0.78666 0.70873 0.94094 0.0
N1807 N 0.77193 0.70453 0.97963 0.0
C1808 C 0.76393 0.73624 0.95519 0.0
C1809 C 0.77649 0.7288 0.93695 0.0
H1810 H 0.79248 0.68188 0.96535 0.0
H1811 H 0.75195 0.72966 0.98995 0.0
C1812 C 0.70696 0.6331 0.05344 0.0
N1813 N 0.71359 0.63366 0.03042 0.0
C1814 C 0.68558 0.61964 0.0551 0.0
C1815 C 0.67768 0.60774 0.00924 0.0
C1816 C 0.69933 0.62132 0.00848 0.0
C1817 C 0.67037 0.60657 0.03282 0.0
H1818 H 0.71836 0.64316 0.07071 0.0
H1819 H 0.70466 0.62212 0.99028 0.0
O1820 O 0.79726 0.69202 0.0362 0.0
O1821 O 0.76727 0.65332 0.05998 0.0
O1822 O 0.74586 0.69057 0.03102 0.0
O1823 O 0.76169 0.64877 1.00193 0.0
H1824 H 0.82773 0.6841 0.07294 0.0
H1825 H 0.80944 0.73794 0.02776 0.0
H1826 H 0.86194 0.71544 0.09559 0.0
H1827 H 0.84403 0.76835 0.05116 0.0
H1828 H 0.75293 0.59205 0.10718 0.0
H1829 H 0.79905 0.67333 0.10097 0.0
H1830 H 0.74528 0.60995 0.06758 0.0
H1831 H 0.8056 0.65442 0.14002 0.0
H1832 H 0.80935 0.75751 0.1348 0.0
H1833 H 0.75071 0.70396 0.14212 0.0
H1834 H 0.8466 0.61982 0.99691 0.0
H1835 H 0.84367 0.6118 0.07535 0.0
H1836 H 0.71103 0.68746 0.0545 0.0
H1837 H 0.76765 0.7375 0.03816 0.0
H1838 H 0.70155 0.72319 0.07991 0.0
H1839 H 0.75713 0.77238 0.06376 0.0
H1840 H 0.77125 0.6374 0.95602 0.0
H1841 H 0.74998 0.60746 0.02043 0.0
H1842 H 0.76979 0.5946 0.93479 0.0
H1843 H 0.74881 0.56518 0.99805 0.0
H1844 H 0.79681 0.70237 0.92785 0.0
H1845 H 0.75555 0.75138 0.95307 0.0
H1846 H 0.68123 0.61924 0.07382 0.0
H1847 H 0.66672 0.59852 0.99136 0.0
Li1848 Li 0.90231 0.52426 0.78944 0.0
Li1849 Li 0.93752 0.55437 0.81916 0.0
Li1850 Li 0.90549 0.57595 0.79092 0.0
Li1851 Li 0.93426 0.55139 0.76606 0.0
C1852 C 0.88571 0.54766 0.83048 0.0
N1853 N 0.8486 0.53674 0.85316 0.0
C1854 C 0.88828 0.54244 0.85541 0.0
C1855 C 0.86432 0.54752 0.81713 0.0
C1856 C 0.86929 0.5369 0.86653 0.0
C1857 C 0.84575 0.54191 0.82892 0.0
C1858 C 0.95196 0.51345 0.79862 0.0
C1859 C 0.99034 0.50888 0.80303 0.0
N1860 N 0.98538 0.49013 0.81652 0.0
C1861 C 0.94722 0.49414 0.81248 0.0
C1862 C 0.97367 0.52091 0.79383 0.0
C1863 C 0.96436 0.48259 0.82139 0.0
C1864 C 0.87408 0.47044 0.76804 0.0
N1865 N 0.88346 0.48761 0.78974 0.0
C1866 C 0.87196 0.45521 0.81478 0.0
C1867 C 0.88232 0.47998 0.81286 0.0
C1868 C 0.86219 0.43687 0.7928 0.0
C1869 C 0.86351 0.44541 0.76914 0.0
H1870 H 0.87499 0.4759 0.74955 0.0
H1871 H 0.89007 0.49297 0.83025 0.0
C1872 C 0.97678 0.57095 0.86737 0.0
N1873 N 0.95743 0.55376 0.85604 0.0
C1874 C 0.98939 0.56959 0.89176 0.0
C1875 C 0.96241 0.53313 0.8937 0.0
C1876 C 0.95042 0.535 0.86917 0.0
C1877 C 0.98254 0.55045 0.90587 0.0
H1878 H 0.9827 0.58602 0.8576 0.0
H1879 H 0.93531 0.52105 0.86062 0.0
C1880 C 0.88224 0.54581 0.74052 0.0
N1881 N 0.84791 0.54595 0.70079 0.0
C1882 C 0.88655 0.55959 0.7212 0.0
C1883 C 0.86053 0.53211 0.73971 0.0
C1884 C 0.86894 0.55941 0.70125 0.0
C1885 C 0.84338 0.53242 0.71944 0.0
C1886 C 0.95863 0.60003 0.79314 0.0
C1887 C 0.95488 0.62032 0.78167 0.0
C1888 C 0.98062 0.59771 0.80144 0.0
C1889 C 0.97331 0.63811 0.77879 0.0
C1890 C 0.9986 0.61588 0.79818 0.0
N1891 N 0.9946 0.63553 0.78703 0.0
C1892 C 0.89853 0.6317 0.80477 0.0
C1893 C 0.86606 0.60609 0.7792 0.0
C1894 C 0.88788 0.65264 0.80577 0.0
N1895 N 0.88788 0.60833 0.79161 0.0
C1896 C 0.85482 0.62658 0.77978 0.0
C1897 C 0.8653 0.65105 0.79324 0.0
H1898 H 0.91567 0.63452 0.81491 0.0
H1899 H 0.8569 0.58818 0.7685 0.0
C1900 C 0.93977 0.53638 0.70859 0.0
N1901 N 0.95134 0.54883 0.7323 0.0
C1902 C 0.95026 0.53381 0.6865 0.0
C1903 C 0.98494 0.5567 0.71227 0.0
C1904 C 0.97382 0.55892 0.73388 0.0
C1905 C 0.97353 0.54388 0.68745 0.0
H1906 H 0.92207 0.52802 0.70646 0.0
H1907 H 0.98362 0.56887 0.75212 0.0
O1908 O 0.90397 0.55288 0.81905 0.0
O1909 O 0.93559 0.5254 0.79024 0.0
O1910 O 0.89918 0.54587 0.76029 0.0
O1911 O 0.94084 0.58232 0.79591 0.0
H1912 H 0.90474 0.5427 0.86608 0.0
H1913 H 0.86209 0.55164 0.79785 0.0
H1914 H 0.87101 0.53276 0.88579 0.0
H1915 H 0.82907 0.54166 0.8188 0.0
H1916 H 1.00723 0.51447 0.79951 0.0
H1917 H 0.93054 0.48826 0.81648 0.0
H1918 H 0.97761 0.53593 0.78324 0.0
H1919 H 0.96096 0.46767 0.83222 0.0
H1920 H 0.87227 0.4505 0.83373 0.0
H1921 H 0.85634 0.4329 0.75128 0.0
H1922 H 1.00442 0.58389 0.8996 0.0
H1923 H 0.956 0.51771 0.9028 0.0
H1924 H 0.9033 0.57033 0.72165 0.0
H1925 H 0.85698 0.52135 0.75457 0.0
H1926 H 0.872 0.56998 0.68613 0.0
H1927 H 0.82647 0.52192 0.71854 0.0
H1928 H 0.93792 0.62227 0.77503 0.0
H1929 H 0.98374 0.58196 0.81013 0.0
H1930 H 0.97069 0.65394 0.76996 0.0
H1931 H 0.01572 0.61432 0.80447 0.0
H1932 H 0.89764 0.67012 0.81681 0.0
H1933 H 0.83775 0.62292 0.76927 0.0
H1934 H 0.93991 0.52345 0.66872 0.0
H1935 H 1.00261 0.56544 0.7153 0.0
Li1936 Li 0.75375 0.34494 0.52846 0.0
Li1937 Li 0.72754 0.37147 0.51574 0.0
Li1938 Li 0.73066 0.33764 0.48712 0.0
Li1939 Li 0.76141 0.37426 0.49794 0.0
C1940 C 0.70058 0.31905 0.51162 0.0
N1941 N 0.6611 0.284 0.49223 0.0
C1942 C 0.68189 0.32598 0.49871 0.0
C1943 C 0.69919 0.29433 0.51474 0.0
C1944 C 0.66208 0.30797 0.48903 0.0
C1945 C 0.67908 0.27687 0.50478 0.0
C1946 C 0.76569 0.40632 0.54412 0.0
C1947 C 0.76652 0.44895 0.53962 0.0
N1948 N 0.77809 0.45634 0.5641 0.0
C1949 C 0.77762 0.41432 0.5692 0.0
C1950 C 0.76012 0.42373 0.52915 0.0
C1951 C 0.78373 0.43971 0.57896 0.0
C1952 C 0.79223 0.33861 0.55688 0.0
N1953 N 0.76947 0.33164 0.55347 0.0
C1954 C 0.77191 0.30413 0.58355 0.0
C1955 C 0.75907 0.31478 0.56626 0.0
C1956 C 0.79553 0.31101 0.58748 0.0
C1957 C 0.8057 0.32844 0.57389 0.0
H1958 H 0.79986 0.35182 0.54609 0.0
H1959 H 0.74091 0.30966 0.56302 0.0
C1960 C 0.69742 0.40178 0.51021 0.0
N1961 N 0.70992 0.39226 0.52789 0.0
C1962 C 0.68874 0.42215 0.51782 0.0
C1963 C 0.70473 0.42138 0.56187 0.0
C1964 C 0.71314 0.40097 0.55336 0.0
C1965 C 0.69309 0.43271 0.54383 0.0
H1966 H 0.69528 0.39439 0.49011 0.0
H1967 H 0.72352 0.39316 0.56685 0.0
C1968 C 0.77712 0.32523 0.48798 0.0
N1969 N 0.8056 0.29623 0.47215 0.0
C1970 C 0.79065 0.33251 0.47047 0.0
C1971 C 0.77846 0.3034 0.49778 0.0
C1972 C 0.80482 0.31754 0.4626 0.0
C1973 C 0.79285 0.28895 0.48945 0.0
C1974 C 0.73092 0.37356 0.45416 0.0
C1975 C 0.7431 0.35959 0.44063 0.0
C1976 C 0.71968 0.3895 0.44194 0.0
C1977 C 0.7437 0.36164 0.41508 0.0
C1978 C 0.72063 0.391 0.41634 0.0
N1979 N 0.73253 0.37716 0.40355 0.0
C1980 C 0.70424 0.31233 0.43851 0.0
C1981 C 0.72505 0.28991 0.46386 0.0
C1982 C 0.70424 0.29603 0.41643 0.0
N1983 N 0.71662 0.31027 0.46106 0.0
C1984 C 0.7262 0.27378 0.44236 0.0
C1985 C 0.71801 0.27865 0.41798 0.0
H1986 H 0.69683 0.32824 0.43703 0.0
H1987 H 0.73351 0.28806 0.48244 0.0
C1988 C 0.80576 0.39397 0.50705 0.0
N1989 N 0.78689 0.39558 0.49115 0.0
C1990 C 0.8261 0.41026 0.50795 0.0
C1991 C 0.80757 0.4293 0.47521 0.0
C1992 C 0.78733 0.41261 0.47513 0.0
C1993 C 0.82713 0.4285 0.49227 0.0
H1994 H 0.80477 0.3804 0.51965 0.0
H1995 H 0.77196 0.4138 0.463 0.0
O1996 O 0.72024 0.33636 0.52073 0.0
O1997 O 0.75934 0.38151 0.53446 0.0
O1998 O 0.7632 0.33979 0.496 0.0
O1999 O 0.73005 0.37203 0.47928 0.0
H2000 H 0.68276 0.34501 0.49598 0.0
H2001 H 0.71357 0.28861 0.52447 0.0
H2002 H 0.64751 0.31304 0.4789 0.0
H2003 H 0.67778 0.25765 0.50694 0.0
H2004 H 0.76226 0.46263 0.52829 0.0
H2005 H 0.78202 0.40103 0.581 0.0
H2006 H 0.75084 0.41784 0.5097 0.0
H2007 H 0.79292 0.44618 0.59837 0.0
H2008 H 0.76346 0.29113 0.59415 0.0
H2009 H 0.82384 0.33411 0.57638 0.0
H2010 H 0.67943 0.43013 0.50343 0.0
H2011 H 0.70844 0.4291 0.58208 0.0
H2012 H 0.7903 0.34957 0.46303 0.0
H2013 H 0.76841 0.29755 0.51159 0.0
H2014 H 0.81525 0.3229 0.44896 0.0
H2015 H 0.7939 0.27195 0.49676 0.0
H2016 H 0.75155 0.34688 0.44952 0.0
H2017 H 0.7103 0.40063 0.4521 0.0
H2018 H 0.75295 0.35078 0.40439 0.0
H2019 H 0.71185 0.40313 0.40667 0.0
H2020 H 0.69618 0.29934 0.39815 0.0
H2021 H 0.73626 0.26017 0.44508 0.0
H2022 H 0.84088 0.40879 0.52105 0.0
H2023 H 0.80778 0.4432 0.46286 0.0
Li2024 Li 0.63382 0.56147 0.35293 0.0
Li2025 Li 0.66383 0.59118 0.33343 0.0
Li2026 Li 0.63157 0.56029 0.30508 0.0
Li2027 Li 0.66115 0.54562 0.32903 0.0
C2028 C 0.60973 0.59307 0.32093 0.0
N2029 N 0.56869 0.59943 0.29706 0.0
C2030 C 0.60885 0.61003 0.30399 0.0
C2031 C 0.58977 0.57942 0.32582 0.0
C2032 C 0.58793 0.61295 0.29209 0.0
C2033 C 0.56918 0.58288 0.31355 0.0
C2034 C 0.68482 0.56234 0.37521 0.0
C2035 C 0.723 0.55692 0.38252 0.0
N2036 N 0.71834 0.54373 0.40138 0.0
C2037 C 0.68044 0.54881 0.39472 0.0
C2038 C 0.70628 0.56649 0.3691 0.0
C2039 C 0.6976 0.53954 0.40771 0.0
C2040 C 0.61688 0.53225 0.38834 0.0
N2041 N 0.61912 0.55553 0.38241 0.0
C2042 C 0.60362 0.56834 0.41915 0.0
C2043 C 0.61259 0.57349 0.39734 0.0
C2044 C 0.60139 0.54448 0.42602 0.0
C2045 C 0.6082 0.52637 0.41 0.0
H2046 H 0.6224 0.51825 0.3765 0.0
H2047 H 0.61451 0.59193 0.39248 0.0
C2048 C 0.67943 0.63759 0.31759 0.0
N2049 N 0.68441 0.62317 0.33532 0.0
C2050 C 0.69502 0.659 0.31572 0.0
C2051 C 0.72088 0.65038 0.35019 0.0
C2052 C 0.70454 0.62953 0.35186 0.0
C2053 C 0.7165 0.6655 0.33167 0.0
H2054 H 0.66354 0.63209 0.30432 0.0
H2055 H 0.7083 0.61797 0.36587 0.0
C2056 C 0.61295 0.51195 0.31338 0.0
N2057 N 0.58099 0.46997 0.28914 0.0
C2058 C 0.61827 0.49478 0.29521 0.0
C2059 C 0.59147 0.50764 0.31944 0.0
C2060 C 0.60185 0.47371 0.2831 0.0
C2061 C 0.57552 0.48634 0.30692 0.0
C2062 C 0.67432 0.56089 0.28414 0.0
C2063 C 0.66453 0.53973 0.26579 0.0
C2064 C 0.6951 0.57543 0.28256 0.0
C2065 C 0.67583 0.53333 0.24619 0.0
C2066 C 0.70588 0.56838 0.26268 0.0
N2067 N 0.6961 0.54765 0.24507 0.0
C2068 C 0.62276 0.57247 0.25585 0.0
C2069 C 0.59563 0.53738 0.25952 0.0
C2070 C 0.61397 0.56998 0.22968 0.0
N2071 N 0.61381 0.55613 0.27026 0.0
C2072 C 0.58639 0.53407 0.23326 0.0
C2073 C 0.5957 0.55035 0.2178 0.0
H2074 H 0.63729 0.58714 0.26457 0.0
H2075 H 0.58848 0.52459 0.27104 0.0
C2076 C 0.6694 0.4995 0.33807 0.0
N2077 N 0.67804 0.5201 0.32873 0.0
C2078 C 0.6809 0.48035 0.33944 0.0
C2079 C 0.71022 0.50405 0.32187 0.0
C2080 C 0.69802 0.52263 0.32059 0.0
C2081 C 0.70173 0.4825 0.33146 0.0
H2082 H 0.65359 0.49802 0.34465 0.0
H2083 H 0.70486 0.53938 0.31379 0.0
O2084 O 0.62998 0.58927 0.33219 0.0
O2085 O 0.66805 0.57098 0.3618 0.0
O2086 O 0.62878 0.53263 0.32554 0.0
O2087 O 0.66353 0.56763 0.3034 0.0
H2088 H 0.62411 0.62066 0.29988 0.0
H2089 H 0.59017 0.56619 0.33884 0.0
H2090 H 0.58698 0.62593 0.27884 0.0
H2091 H 0.55359 0.57238 0.31709 0.0
H2092 H 0.73961 0.55978 0.3778 0.0
H2093 H 0.66398 0.54546 0.39977 0.0
H2094 H 0.70984 0.5764 0.35364 0.0
H2095 H 0.69442 0.52898 0.4228 0.0
H2096 H 0.59835 0.58297 0.43038 0.0
H2097 H 0.60736 0.50785 0.41438 0.0
H2098 H 0.69019 0.67003 0.30155 0.0
H2099 H 0.73705 0.6539 0.36282 0.0
H2100 H 0.63491 0.49764 0.29058 0.0
H2101 H 0.58715 0.52063 0.33363 0.0
H2102 H 0.6057 0.46031 0.26894 0.0
H2103 H 0.5588 0.48281 0.31134 0.0
H2104 H 0.64833 0.52848 0.26657 0.0
H2105 H 0.70284 0.59192 0.2966 0.0
H2106 H 0.66846 0.517 0.23185 0.0
H2107 H 0.72201 0.5794 0.26125 0.0
H2108 H 0.62195 0.58291 0.2187 0.0
H2109 H 0.57209 0.51888 0.22516 0.0
H2110 H 0.67345 0.46402 0.34662 0.0
H2111 H 0.72639 0.5069 0.31601 0.0
Tb2112 Tb 0.02736 0.01669 0.03675 0.0
Tb2113 Tb 0.07486 0.04394 0.0659 0.0
C2114 C 0.98556 1.00342 0.02401 0.0
C2115 C 0.96994 0.01666 0.03437 0.0
C2116 C 0.97821 0.03357 0.05719 0.0
C2117 C 0.96519 0.04894 0.06643 0.0
C2118 C 0.9435 0.04777 0.05299 0.0
C2119 C 0.93487 0.03032 0.03035 0.0
C2120 C 0.94811 0.01479 0.02102 0.0
C2121 C 0.05946 0.01913 0.00894 0.0
C2122 C 0.0422 0.07687 0.0442 0.0
C2123 C 0.11669 0.05812 0.074 0.0
C2124 C 0.13425 0.04715 0.08658 0.0
C2125 C 0.15431 0.04894 0.07724 0.0
C2126 C 0.16765 0.03188 0.08165 0.0
C2127 C 0.16108 1.01274 0.09548 0.0
C2128 C 0.14229 1.01284 0.10726 0.0
C2129 C 0.12886 0.02984 0.10269 0.0
C2130 C 0.04659 0.03681 0.09882 0.0
C2131 C 0.05844 0.98508 0.0642 0.0
O2132 O 0.99737 0.99386 0.04097 0.0
O2133 O 0.9981 0.0158 0.01035 0.0
O2134 O 0.05755 0.03537 0.02671 0.0
O2135 O 0.04212 1.00073 1.00564 0.0
O2136 O 0.02558 0.05653 0.03945 0.0
O2137 O 0.06324 0.07609 0.05374 0.0
O2138 O 0.10488 0.04391 0.05286 0.0
O2139 O 0.10412 0.06758 0.08847 0.0
O2140 O 0.04282 0.03153 0.07474 0.0
O2141 O 0.06786 0.04711 0.10546 0.0
O2142 O 0.07564 1.00456 0.06752 0.0
O2143 O 0.03774 0.98622 0.05394 0.0
H2144 H 0.99523 0.03559 0.06735 0.0
H2145 H 0.97265 0.06261 0.08346 0.0
H2146 H 0.91817 0.02908 0.01963 0.0
H2147 H 0.94164 1.00198 1.00318 0.0
H2148 H 0.15852 0.06195 0.06448 0.0
H2149 H 0.18186 0.03232 0.07206 0.0
H2150 H 0.13702 0.99864 0.11838 0.0
H2151 H 0.11328 0.02802 0.10988 0.0
Tb2152 Tb 0.30482 0.77205 0.28481 0.0
Tb2153 Tb 0.2893 0.79313 0.32456 0.0
C2154 C 0.31796 0.75704 0.2446 0.0
C2155 C 0.32429 0.76628 0.22205 0.0
C2156 C 0.32318 0.79042 0.21838 0.0
C2157 C 0.32601 0.79776 0.19508 0.0
C2158 C 0.32985 0.78097 0.17516 0.0
C2159 C 0.33258 0.75739 0.17966 0.0
C2160 C 0.32979 0.75009 0.20304 0.0
C2161 C 0.32933 0.76739 0.32897 0.0
C2162 C 0.31985 0.83186 0.30041 0.0
C2163 C 0.2753 0.80877 0.36389 0.0
C2164 C 0.27078 0.80162 0.38795 0.0
C2165 C 0.27211 0.77798 0.39314 0.0
C2166 C 0.27265 0.77319 0.41799 0.0
C2167 C 0.27207 0.7921 0.43788 0.0
C2168 C 0.26864 0.81503 0.43204 0.0
C2169 C 0.26802 0.81977 0.40711 0.0
C2170 C 0.26492 0.79746 0.28019 0.0
C2171 C 0.27457 0.73348 0.30953 0.0
O2172 O 0.29685 0.75502 0.24635 0.0
O2173 O 0.33143 0.76693 0.2663 0.0
O2174 O 0.3226 0.78668 0.32406 0.0
O2175 O 0.32115 0.75015 0.30942 0.0
O2176 O 0.31597 0.81255 0.28153 0.0
O2177 O 0.31278 0.82767 0.32175 0.0
O2178 O 0.29644 0.81301 0.36184 0.0
O2179 O 0.26218 0.79573 0.34311 0.0
O2180 O 0.27155 0.77828 0.28547 0.0
O2181 O 0.27316 0.81484 0.29953 0.0
O2182 O 0.27906 0.75273 0.32858 0.0
O2183 O 0.28113 0.73767 0.2879 0.0
H2184 H 0.31892 0.80309 0.23294 0.0
H2185 H 0.32345 0.81592 0.19207 0.0
H2186 H 0.33564 0.74418 0.16465 0.0
H2187 H 0.33083 0.73141 0.20581 0.0
H2188 H 0.27429 0.76384 0.37844 0.0
H2189 H 0.27561 0.75543 0.42196 0.0
H2190 H 0.26803 0.8298 0.44703 0.0
H2191 H 0.2669 0.83811 0.40317 0.0
Tb2192 Tb 0.5715 0.03708 0.54804 0.0
Tb2193 Tb 0.52269 0.03045 0.56147 0.0
C2194 C 0.61287 0.03768 0.5494 0.0
C2195 C 0.63074 0.0232 0.55393 0.0
C2196 C 0.63749 0.01592 0.5776 0.0
C2197 C 0.65553 1.00382 0.58126 0.0
C2198 C 0.66738 0.99871 0.56138 0.0
C2199 C 0.66039 1.00601 0.53777 0.0
C2200 C 0.64245 0.01798 0.53416 0.0
C2201 C 0.5407 0.04215 0.50685 0.0
C2202 C 0.53975 0.98254 0.5418 0.0
C2203 C 0.48131 0.02944 0.56047 0.0
C2204 C 0.46295 0.04314 0.5559 0.0
C2205 C 0.46098 0.05794 0.53668 0.0
C2206 C 0.44296 0.07011 0.53319 0.0
C2207 C 0.42656 0.0679 0.54894 0.0
C2208 C 0.42877 0.05299 0.56807 0.0
C2209 C 0.44664 0.04089 0.57146 0.0
C2210 C 0.55351 0.02501 0.60245 0.0
C2211 C 0.55437 0.08504 0.56757 0.0
O2212 O 0.60497 0.0473 0.5688 0.0
O2213 O 0.59714 0.02925 0.52899 0.0
O2214 O 0.53787 0.03774 0.52909 0.0
O2215 O 0.5622 0.04435 0.50826 0.0
O2216 O 0.5603 0.99667 0.54459 0.0
O2217 O 0.52202 0.99195 0.54521 0.0
O2218 O 0.48918 0.01996 0.54098 0.0
O2219 O 0.49717 0.03853 0.58064 0.0
O2220 O 0.55628 0.0298 0.58033 0.0
O2221 O 0.53198 0.02251 0.60102 0.0
O2222 O 0.53387 0.07086 0.56503 0.0
O2223 O 0.5721 0.07569 0.56395 0.0
H2224 H 0.62899 0.01972 0.59335 0.0
H2225 H 0.6601 0.99836 0.59966 0.0
H2226 H 0.66916 1.00305 0.52208 0.0
H2227 H 0.63795 0.02365 0.51582 0.0
H2228 H 0.47334 0.06018 0.52445 0.0
H2229 H 0.44208 0.08154 0.5184 0.0
H2230 H 0.41645 0.05026 0.58031 0.0
H2231 H 0.44762 0.02953 0.58634 0.0
Tb2232 Tb 0.27297 0.28833 0.80088 0.0
Tb2233 Tb 0.32143 0.28042 0.80886 0.0
C2234 C 0.23178 0.28604 0.80268 0.0
C2235 C 0.21465 0.28397 0.81977 0.0
C2236 C 0.20407 0.26074 0.82478 0.0
C2237 C 0.18575 0.25846 0.83764 0.0
C2238 C 0.17731 0.27929 0.84588 0.0
C2239 C 0.1883 0.30259 0.84139 0.0
C2240 C 0.20657 0.30485 0.82848 0.0
C2241 C 0.30435 0.32472 0.79281 0.0
C2242 C 0.30356 0.29875 0.85771 0.0
C2243 C 0.36256 0.28222 0.80726 0.0
C2244 C 0.37965 0.28336 0.79021 0.0
C2245 C 0.38729 0.30491 0.78011 0.0
C2246 C 0.40553 0.30673 0.76711 0.0
C2247 C 0.41677 0.28712 0.76386 0.0
C2248 C 0.40871 0.26541 0.77351 0.0
C2249 C 0.39053 0.26361 0.78651 0.0
C2250 C 0.28992 0.24409 0.81686 0.0
C2251 C 0.29107 0.27019 0.75203 0.0
O2252 O 0.24022 0.2667 0.79679 0.0
O2253 O 0.24685 0.30691 0.80573 0.0
O2254 O 0.30616 0.31142 0.80992 0.0
O2255 O 0.28367 0.31907 0.78036 0.0
O2256 O 0.28315 0.29334 0.84303 0.0
O2257 O 0.32184 0.2975 0.84794 0.0
O2258 O 0.3542 0.30179 0.81233 0.0
O2259 O 0.34744 0.26149 0.80481 0.0
O2260 O 0.28827 0.2574 0.79977 0.0
O2261 O 0.31055 0.24972 0.8294 0.0
O2262 O 0.31143 0.27563 0.76676 0.0
O2263 O 0.27271 0.27133 0.76172 0.0
H2264 H 0.20954 0.24412 0.81818 0.0
H2265 H 0.1781 0.24023 0.84096 0.0
H2266 H 0.18228 0.31908 0.84703 0.0
H2267 H 0.21392 0.32296 0.82458 0.0
H2268 H 0.37953 0.32065 0.78272 0.0
H2269 H 0.41088 0.32364 0.75972 0.0
H2270 H 0.41695 0.24999 0.77188 0.0
H2271 H 0.38542 0.24694 0.79441 0.0
Tb2272 Tb 0.04251 0.05884 0.55878 0.0
Tb2273 Tb 0.05222 1.01133 0.54829 0.0
C2274 C 0.03777 0.10251 0.55873 0.0
C2275 C 0.03146 0.11644 0.53824 0.0
C2276 C 0.04801 0.1291 0.52655 0.0
C2277 C 0.042 0.14164 0.50667 0.0
C2278 C 0.01934 0.14189 0.49815 0.0
C2279 C 1.00278 0.12941 0.50993 0.0
C2280 C 1.00878 0.11683 0.52985 0.0
C2281 C 1.01118 0.02302 0.56848 0.0
C2282 C 0.03084 0.03024 0.5008 0.0
C2283 C 0.05638 0.96734 0.54746 0.0
C2284 C 0.05942 0.9515 0.56677 0.0
C2285 C 0.05116 0.95516 0.58957 0.0
C2286 C 0.05467 0.94016 0.60801 0.0
C2287 C 0.06659 0.92144 0.6039 0.0
C2288 C 0.07497 0.91802 0.58111 0.0
C2289 C 0.0714 0.93298 0.56269 0.0
C2290 C 0.08363 0.04724 0.53871 0.0
C2291 C 0.06429 0.04033 0.60598 0.0
O2292 O 0.05719 0.09626 0.55985 0.0
O2293 O 0.02203 0.08444 0.56198 0.0
O2294 O 0.02085 0.022 0.54932 0.0
O2295 O 0.01899 0.04462 0.58257 0.0
O2296 O 0.03499 0.05177 0.51638 0.0
O2297 O 0.03414 1.01015 0.50986 0.0
O2298 O 0.03695 0.97359 0.54353 0.0
O2299 O 0.07323 0.98605 0.5489 0.0
O2300 O 0.0739 0.04814 0.55782 0.0
O2301 O 0.07595 0.02558 0.5247 0.0
O2302 O 0.05881 0.01848 0.59075 0.0
O2303 O 0.06201 0.0605 0.5965 0.0
H2304 H 0.06565 0.12938 0.53276 0.0
H2305 H 0.05521 0.15165 0.49839 0.0
H2306 H 0.98519 0.12937 0.50374 0.0
H2307 H 0.99565 0.10737 0.53861 0.0
H2308 H 0.04198 0.96955 0.5931 0.0
H2309 H 0.04817 0.94324 0.62548 0.0
H2310 H 0.0839 0.90346 0.57729 0.0
H2311 H 0.07795 0.93005 0.54521 0.0
Tb2312 Tb 0.29701 0.7562 0.8095 0.0
Tb2313 Tb 0.29825 0.81119 0.83041 0.0
C2314 C 0.29839 0.71681 0.78162 0.0
C2315 C 0.3136 0.69943 0.78147 0.0
C2316 C 0.31851 0.68933 0.75819 0.0
C2317 C 0.33211 0.67198 0.75758 0.0
C2318 C 0.34086 0.66426 0.78026 0.0
C2319 C 0.33632 0.67483 0.80361 0.0
C2320 C 0.32295 0.69235 0.80424 0.0
C2321 C 0.28408 0.76427 0.85343 0.0
C2322 C 0.3395 0.78626 0.84864 0.0
C2323 C 0.29814 0.85257 0.85552 0.0
C2324 C 0.28438 0.87117 0.8524 0.0
C2325 C 0.28303 0.88776 0.87377 0.0
C2326 C 0.26975 0.90527 0.87115 0.0
C2327 C 0.25776 0.90681 0.84696 0.0
C2328 C 0.25946 0.89018 0.82552 0.0
C2329 C 0.27246 0.87243 0.82826 0.0
C2330 C 0.31173 0.80237 0.78708 0.0
C2331 C 0.25527 0.78013 0.7922 0.0
O2332 O 0.30638 0.73897 0.77685 0.0
O2333 O 0.28707 0.71751 0.80033 0.0
O2334 O 0.28106 0.77565 0.83495 0.0
O2335 O 0.29219 0.7452 0.84636 0.0
O2336 O 0.33076 0.76648 0.83083 0.0
O2337 O 0.32869 0.8043 0.85352 0.0
O2338 O 0.28786 0.83134 0.86049 0.0
O2339 O 0.31077 0.84968 0.8384 0.0
O2340 O 0.31484 0.79182 0.80606 0.0
O2341 O 0.30114 0.81983 0.79204 0.0
O2342 O 0.26376 0.80009 0.80994 0.0
O2343 O 0.26659 0.76277 0.78702 0.0
H2344 H 0.31155 0.69462 0.74042 0.0
H2345 H 0.33526 0.66409 0.7393 0.0
H2346 H 0.34312 0.66952 0.82142 0.0
H2347 H 0.31971 0.70013 0.82252 0.0
H2348 H 0.29208 0.88702 0.89258 0.0
H2349 H 0.26867 0.91731 0.88824 0.0
H2350 H 0.251 0.89099 0.80648 0.0
H2351 H 0.2733 0.85978 0.81146 0.0
Tb2352 Tb 0.5234 0.03994 0.03545 0.0
Tb2353 Tb 0.56493 0.03988 0.07221 0.0
C2354 C 0.4849 0.03095 1.00749 0.0
C2355 C 0.46141 0.02015 0.00837 0.0
C2356 C 0.45602 1.00229 0.02386 0.0
C2357 C 0.43364 0.99023 0.02228 0.0
C2358 C 0.41624 0.99592 1.00529 0.0
C2359 C 0.42174 0.01446 0.99047 0.0
C2360 C 0.44415 0.02642 0.99198 0.0
C2361 C 0.54991 0.08413 0.05347 0.0
C2362 C 0.52069 0.03942 0.09674 0.0
C2363 C 0.60358 0.05219 0.09953 0.0
C2364 C 0.62638 0.06208 0.0957 0.0
C2365 C 0.62994 0.07593 0.07611 0.0
C2366 C 0.65174 0.08734 0.07427 0.0
C2367 C 0.6703 0.08498 0.09193 0.0
C2368 C 0.66664 0.07022 0.11088 0.0
C2369 C 0.64482 0.05891 0.11277 0.0
C2370 C 0.53886 0.99571 0.05422 0.0
C2371 C 0.56766 0.03793 0.01071 0.0
O2372 O 0.49838 0.01561 1.00776 0.0
O2373 O 0.49422 0.0523 0.02215 0.0
O2374 O 0.54543 0.06631 0.06528 0.0
O2375 O 0.5382 0.07753 0.03042 0.0
O2376 O 0.5097 0.03525 0.07222 0.0
O2377 O 0.54308 0.04306 0.10133 0.0
O2378 O 0.58978 0.06716 0.09708 0.0
O2379 O 0.59421 0.02937 0.08838 0.0
O2380 O 0.54297 1.01364 0.04245 0.0
O2381 O 0.55083 1.00199 0.07724 0.0
O2382 O 0.57859 0.04194 0.03519 0.0
O2383 O 0.54531 0.03551 1.0062 0.0
H2384 H 0.46916 0.99715 0.03659 0.0
H2385 H 0.43007 0.97583 0.03373 0.0
H2386 H 0.40875 0.01957 0.97752 0.0
H2387 H 0.44805 0.04019 0.9799 0.0
H2388 H 0.61585 0.07858 0.06275 0.0
H2389 H 0.65396 0.09877 0.05963 0.0
H2390 H 0.68063 0.0677 0.12448 0.0
H2391 H 0.64232 0.04816 0.12791 0.0
Tb2392 Tb 0.27593 0.26817 0.29696 0.0
Tb2393 Tb 0.31935 0.29925 0.31255 0.0
C2394 C 0.23856 0.23958 0.29432 0.0
C2395 C 0.21857 0.24689 0.30187 0.0
C2396 C 0.2215 0.26692 0.32183 0.0
C2397 C 0.20315 0.27569 0.32806 0.0
C2398 C 0.1813 0.26452 0.31466 0.0
C2399 C 0.17827 0.24452 0.29451 0.0
C2400 C 0.19684 0.23578 0.28813 0.0
C2401 C 0.29044 0.28963 0.2595 0.0
C2402 C 0.27617 0.32622 0.31145 0.0
C2403 C 0.35679 0.32791 0.31562 0.0
C2404 C 0.37815 0.3216 0.31088 0.0
C2405 C 0.38012 0.31135 0.28615 0.0
C2406 C 0.39906 0.3024 0.28219 0.0
C2407 C 0.41656 0.30344 0.3028 0.0
C2408 C 0.41501 0.31447 0.3274 0.0
C2409 C 0.39597 0.32345 0.3314 0.0
C2410 C 0.30493 0.27748 0.34989 0.0
C2411 C 0.3191 0.24123 0.29783 0.0
O2412 O 0.25561 0.24205 0.31309 0.0
O2413 O 0.24481 0.24847 0.2746 0.0
O2414 O 0.302 0.28013 0.27563 0.0
O2415 O 0.27006 0.28602 0.26349 0.0
O2416 O 0.26397 0.30305 0.30791 0.0
O2417 O 0.29849 0.32899 0.31311 0.0
O2418 O 0.34052 0.3237 0.29564 0.0
O2419 O 0.34955 0.32058 0.33559 0.0
O2420 O 0.2933 0.28717 0.33396 0.0
O2421 O 0.32526 0.28104 0.3457 0.0
O2422 O 0.33146 0.2644 0.30198 0.0
O2423 O 0.29674 0.23846 0.29563 0.0
H2424 H 0.23809 0.27612 0.33251 0.0
H2425 H 0.20615 0.29143 0.34331 0.0
H2426 H 0.16158 0.23546 0.28395 0.0
H2427 H 0.19428 0.22055 0.27241 0.0
H2428 H 0.3668 0.30966 0.26982 0.0
H2429 H 0.39997 0.29459 0.2629 0.0
H2430 H 0.42823 0.31555 0.34367 0.0
H2431 H 0.39489 0.33119 0.35065 0.0
Tb2432 Tb 0.54117 0.55534 0.05917 0.0
Tb2433 Tb 0.55234 0.50872 0.04984 0.0
C2434 C 0.53486 0.59841 0.05898 0.0
C2435 C 0.53188 0.61409 0.03931 0.0
C2436 C 0.54964 0.6233 0.02728 0.0
C2437 C 0.54656 0.63854 0.00903 0.0
C2438 C 0.52564 0.6447 1.00237 0.0
C2439 C 0.50774 0.63495 0.01398 0.0
C2440 C 0.51089 0.61992 0.03242 0.0
C2441 C 0.51066 0.51907 0.06964 0.0
C2442 C 0.53052 0.52616 1.00179 0.0
C2443 C 0.55839 0.46551 0.04994 0.0
C2444 C 0.56306 0.45037 0.06969 0.0
C2445 C 0.54903 0.44617 0.08762 0.0
C2446 C 0.55383 0.43151 0.10603 0.0
C2447 C 0.57283 0.42105 0.10697 0.0
C2448 C 0.58713 0.42591 0.08941 0.0
C2449 C 0.58219 0.4403 0.07084 0.0
C2450 C 0.58294 0.54514 0.03955 0.0
C2451 C 0.56337 0.53823 0.10722 0.0
O2452 O 0.55474 0.59354 0.06476 0.0
O2453 O 0.51864 0.57889 0.05694 0.0
O2454 O 0.52036 0.51804 0.05051 0.0
O2455 O 0.51805 0.54091 0.0833 0.0
O2456 O 0.53548 0.54811 0.01678 0.0
O2457 O 0.53322 0.50629 0.01165 0.0
O2458 O 0.5385 0.47072 0.04632 0.0
O2459 O 0.57445 0.48465 0.05005 0.0
O2460 O 0.57318 0.54603 0.05863 0.0
O2461 O 0.57561 0.52329 0.02585 0.0
O2462 O 0.55883 0.51628 0.09229 0.0
O2463 O 0.56017 0.55795 0.09738 0.0
H2464 H 0.56603 0.61908 0.03215 0.0
H2465 H 0.56079 0.64611 1.00076 0.0
H2466 H 0.49136 0.63914 0.00901 0.0
H2467 H 0.49694 0.61293 0.0414 0.0
H2468 H 0.53426 0.45396 0.0873 0.0
H2469 H 0.54232 0.42787 0.11907 0.0
H2470 H 0.60212 0.4185 0.08993 0.0
H2471 H 0.59334 0.44358 0.05733 0.0
Tb2472 Tb 0.79986 0.25936 0.31137 0.0
Tb2473 Tb 0.79909 0.31403 0.32924 0.0
C2474 C 0.80194 0.21891 0.28579 0.0
C2475 C 0.81702 0.20142 0.2845 0.0
C2476 C 0.84045 0.2094 0.28711 0.0
C2477 C 0.85407 0.192 0.28613 0.0
C2478 C 0.8445 0.16639 0.28276 0.0
C2479 C 0.82102 0.15862 0.27992 0.0
C2480 C 0.80748 0.17592 0.28075 0.0
C2481 C 0.77916 0.26743 0.34978 0.0
C2482 C 0.83941 0.2908 0.35385 0.0
C2483 C 0.79688 0.3555 0.35227 0.0
C2484 C 0.78198 0.37312 0.34892 0.0
C2485 C 0.75909 0.36686 0.35053 0.0
C2486 C 0.74551 0.38401 0.34713 0.0
C2487 C 0.7545 0.40759 0.34181 0.0
C2488 C 0.77732 0.41372 0.34005 0.0
C2489 C 0.79093 0.39673 0.34374 0.0
C2490 C 0.81834 0.30541 0.29016 0.0
C2491 C 0.75927 0.28249 0.28685 0.0
O2492 O 0.80829 0.24056 0.27896 0.0
O2493 O 0.79272 0.2205 0.30612 0.0
O2494 O 0.77972 0.27863 0.33109 0.0
O2495 O 0.78951 0.24943 0.34668 0.0
O2496 O 0.83254 0.27074 0.33599 0.0
O2497 O 0.82735 0.30796 0.35657 0.0
O2498 O 0.78874 0.33438 0.35926 0.0
O2499 O 0.80894 0.35277 0.33454 0.0
O2500 O 0.81905 0.29483 0.30933 0.0
O2501 O 0.80708 0.32264 0.29261 0.0
O2502 O 0.76624 0.30263 0.30465 0.0
O2503 O 0.7712 0.26517 0.28444 0.0
H2504 H 0.84824 0.229 0.2901 0.0
H2505 H 0.87211 0.1986 0.28853 0.0
H2506 H 0.81304 0.13907 0.27687 0.0
H2507 H 0.78944 0.16935 0.27856 0.0
H2508 H 0.75163 0.34876 0.35436 0.0
H2509 H 0.72791 0.37876 0.34839 0.0
H2510 H 0.78474 0.43183 0.33623 0.0
H2511 H 0.80852 0.40205 0.34248 0.0
Tb2512 Tb 0.0236 0.53227 0.53338 0.0
Tb2513 Tb 0.06541 0.53414 0.5702 0.0
C2514 C 0.98524 0.52196 0.50498 0.0
C2515 C 0.96148 0.51272 0.50585 0.0
C2516 C 0.95513 0.49785 0.52377 0.0
C2517 C 0.9325 0.4867 0.52218 0.0
C2518 C 0.91586 0.49032 0.50271 0.0
C2519 C 0.9223 0.50602 0.48542 0.0
C2520 C 0.94494 0.51708 0.48698 0.0
C2521 C 0.04908 0.57705 0.55061 0.0
C2522 C 0.02115 0.53391 0.59499 0.0
C2523 C 0.10426 0.5476 0.59704 0.0
C2524 C 0.12729 0.55551 0.59276 0.0
C2525 C 0.13178 0.56908 0.57318 0.0
C2526 C 0.15396 0.57868 0.57111 0.0
C2527 C 0.17201 0.57475 0.58849 0.0
C2528 C 0.16734 0.56009 0.60727 0.0
C2529 C 0.14515 0.55064 0.60942 0.0
C2530 C 0.04073 0.48911 0.5529 0.0
C2531 C 0.06798 0.53165 0.50866 0.0
O2532 O 0.99814 0.50621 0.50794 0.0
O2533 O 0.99493 0.5442 0.51747 0.0
O2534 O 0.04497 0.55952 0.56288 0.0
O2535 O 0.03762 0.56977 0.52751 0.0
O2536 O 1.01006 0.52886 0.57046 0.0
O2537 O 0.0436 0.53801 0.59943 0.0
O2538 O 0.09094 0.56272 0.59232 0.0
O2539 O 0.0943 0.52433 0.58855 0.0
O2540 O 0.04417 0.50678 0.54058 0.0
O2541 O 0.05245 0.49628 0.57596 0.0
O2542 O 0.07896 0.53622 0.53313 0.0
O2543 O 0.04555 0.52817 0.50416 0.0
H2544 H 0.96771 0.49421 0.53843 0.0
H2545 H 0.92818 0.47448 0.53562 0.0
H2546 H 0.90989 0.50949 0.47047 0.0
H2547 H 0.94961 0.52853 0.47299 0.0
H2548 H 0.11818 0.57296 0.56003 0.0
H2549 H 0.15693 0.59007 0.55658 0.0
H2550 H 0.18085 0.55634 0.62064 0.0
H2551 H 0.14196 0.54004 0.62452 0.0
Tb2552 Tb 0.77328 0.79089 0.30072 0.0
Tb2553 Tb 0.82072 0.78022 0.30831 0.0
C2554 C 0.73233 0.79 0.3028 0.0
C2555 C 0.71521 0.788 0.31987 0.0
C2556 C 0.70675 0.76549 0.32791 0.0
C2557 C 0.68845 0.76304 0.34083 0.0
C2558 C 0.67794 0.78297 0.34609 0.0
C2559 C 0.68684 0.80562 0.33854 0.0
C2560 C 0.70508 0.80805 0.32561 0.0
C2561 C 0.80553 0.82607 0.29188 0.0
C2562 C 0.80396 0.80054 0.35739 0.0
C2563 C 0.86121 0.77849 0.30625 0.0
C2564 C 0.87857 0.78034 0.28956 0.0
C2565 C 0.88557 0.80182 0.27906 0.0
C2566 C 0.90389 0.8041 0.26614 0.0
C2567 C 0.91586 0.78505 0.2634 0.0
C2568 C 0.90845 0.76345 0.27358 0.0
C2569 C 0.89016 0.76117 0.2864 0.0
C2570 C 0.78805 0.74561 0.3172 0.0
C2571 C 0.79041 0.77153 0.25164 0.0
O2572 O 0.74009 0.77033 0.29616 0.0
O2573 O 0.74796 0.81049 0.3065 0.0
O2574 O 0.80718 0.81257 0.30891 0.0
O2575 O 0.78459 0.82152 0.2804 0.0
O2576 O 0.78363 0.79634 0.34277 0.0
O2577 O 0.82193 0.79765 0.34762 0.0
O2578 O 0.8547 0.79865 0.31419 0.0
O2579 O 0.84454 0.75889 0.30106 0.0
O2580 O 0.78691 0.75872 0.29987 0.0
O2581 O 0.80874 0.75037 0.32939 0.0
O2582 O 0.81077 0.7762 0.26627 0.0
O2583 O 0.77233 0.77372 0.26146 0.0
H2584 H 0.7139 0.74951 0.32372 0.0
H2585 H 0.68247 0.74539 0.34658 0.0
H2586 H 0.6792 0.82136 0.34178 0.0
H2587 H 0.71082 0.8255 0.31933 0.0
H2588 H 0.87719 0.81709 0.28122 0.0
H2589 H 0.90869 0.82091 0.25836 0.0
H2590 H 0.91723 0.74846 0.27244 0.0
H2591 H 0.88549 0.74457 0.29459 0.0
Tb2592 Tb 0.8046 0.27149 0.78658 0.0
Tb2593 Tb 0.78879 0.2924 0.82596 0.0
C2594 C 0.81846 0.25656 0.74687 0.0
C2595 C 0.82533 0.26588 0.72461 0.0
C2596 C 0.82466 0.29016 0.72113 0.0
C2597 C 0.82788 0.29763 0.698 0.0
C2598 C 0.83164 0.2808 0.67806 0.0
C2599 C 0.83407 0.2571 0.68245 0.0
C2600 C 0.83089 0.24967 0.70567 0.0
C2601 C 0.82881 0.26672 0.83093 0.0
C2602 C 0.81925 0.33136 0.80187 0.0
C2603 C 0.77502 0.30692 0.86589 0.0
C2604 C 0.77299 0.29905 0.89034 0.0
C2605 C 0.77591 0.27549 0.89426 0.0
C2606 C 0.7799 0.27036 0.91901 0.0
C2607 C 0.78118 0.28883 0.94009 0.0
C2608 C 0.77603 0.31157 0.93586 0.0
C2609 C 0.772 0.31667 0.91102 0.0
C2610 C 0.76449 0.29699 0.78165 0.0
C2611 C 0.77415 0.23262 0.81061 0.0
O2612 O 0.79724 0.25462 0.74808 0.0
O2613 O 0.83159 0.26637 0.76879 0.0
O2614 O 0.82218 0.28603 0.82594 0.0
O2615 O 0.8206 0.24949 0.8114 0.0
O2616 O 0.8158 0.31194 0.78321 0.0
O2617 O 0.81184 0.32727 0.82305 0.0
O2618 O 0.7957 0.31353 0.86259 0.0
O2619 O 0.76198 0.29281 0.84562 0.0
O2620 O 0.7712 0.27777 0.78673 0.0
O2621 O 0.77234 0.31413 0.80128 0.0
O2622 O 0.77836 0.25189 0.8296 0.0
O2623 O 0.78104 0.23688 0.78918 0.0
H2624 H 0.82039 0.30285 0.73564 0.0
H2625 H 0.82555 0.31588 0.69507 0.0
H2626 H 0.83706 0.24386 0.66741 0.0
H2627 H 0.83161 0.23089 0.70833 0.0
H2628 H 0.77684 0.26177 0.87844 0.0
H2629 H 0.78404 0.25274 0.92163 0.0
H2630 H 0.77668 0.32598 0.9518 0.0
H2631 H 0.76974 0.33497 0.90813 0.0
Tb2632 Tb 0.77455 0.76468 0.79262 0.0
Tb2633 Tb 0.81788 0.79941 0.81871 0.0
C2634 C 0.73554 0.74 0.79017 0.0
C2635 C 0.7171 0.7494 0.79931 0.0
C2636 C 0.72207 0.76819 0.82086 0.0
C2637 C 0.70539 0.77952 0.82813 0.0
C2638 C 0.68324 0.77212 0.81423 0.0
C2639 C 0.67819 0.7532 0.79268 0.0
C2640 C 0.69507 0.74197 0.78521 0.0
C2641 C 0.79316 0.78505 0.75656 0.0
C2642 C 0.77509 0.8246 0.81015 0.0
C2643 C 0.8584 0.82157 0.82882 0.0
C2644 C 0.87756 0.81374 0.8198 0.0
C2645 C 0.87447 0.79986 0.79518 0.0
C2646 C 0.89217 0.79106 0.78696 0.0
C2647 C 0.91321 0.79574 0.80326 0.0
C2648 C 0.91623 0.80926 0.82806 0.0
C2649 C 0.89848 0.81827 0.83626 0.0
C2650 C 0.79267 0.78049 0.8504 0.0
C2651 C 0.81771 0.73974 0.79807 0.0
O2652 O 0.75251 0.73959 0.808 0.0
O2653 O 0.74215 0.74938 0.77086 0.0
O2654 O 0.80076 0.78879 0.78043 0.0
O2655 O 0.77522 0.76737 0.75223 0.0
O2656 O 0.76336 0.80091 0.80347 0.0
O2657 O 0.79756 0.82866 0.81558 0.0
O2658 O 0.84349 0.82663 0.8112 0.0
O2659 O 0.84907 0.80781 0.84387 0.0
O2660 O 0.79576 0.76986 0.82936 0.0
O2661 O 0.80449 0.80314 0.85439 0.0
O2662 O 0.82922 0.76308 0.8084 0.0
O2663 O 0.7954 0.73584 0.78992 0.0
H2664 H 0.73902 0.77457 0.83189 0.0
H2665 H 0.70994 0.79432 0.84452 0.0
H2666 H 0.6612 0.74694 0.78176 0.0
H2667 H 0.69101 0.72777 0.7683 0.0
H2668 H 0.8583 0.7956 0.78233 0.0
H2669 H 0.88936 0.78042 0.76787 0.0
H2670 H 0.93238 0.81319 0.8409 0.0
H2671 H 0.90102 0.8286 0.85545 0.0
Tb2672 Tb 0.52783 0.52006 0.54086 0.0
Tb2673 Tb 0.57359 0.54941 0.57131 0.0
C2674 C 0.48641 0.50651 0.52544 0.0
C2675 C 0.47033 0.52149 0.53138 0.0
C2676 C 0.4752 0.53736 0.55514 0.0
C2677 C 0.46346 0.55581 0.55939 0.0
C2678 C 0.44669 0.55873 0.54 0.0
C2679 C 0.44094 0.54233 0.51661 0.0
C2680 C 0.45285 0.52373 0.51226 0.0
C2681 C 0.56138 0.52166 0.51493 0.0
C2682 C 0.54058 0.5805 0.5473 0.0
C2683 C 0.61521 0.56683 0.58157 0.0
C2684 C 0.63374 0.55488 0.57682 0.0
C2685 C 0.63488 0.54469 0.5518 0.0
C2686 C 0.64871 0.52818 0.54782 0.0
C2687 C 0.66155 0.52151 0.56875 0.0
C2688 C 0.66179 0.53322 0.59365 0.0
C2689 C 0.64806 0.54991 0.59763 0.0
C2690 C 0.54388 0.54532 0.60263 0.0
C2691 C 0.55936 0.49026 0.56895 0.0
O2692 O 0.49695 0.49902 0.54512 0.0
O2693 O 0.50011 0.51596 0.51118 0.0
O2694 O 0.55847 0.53848 0.53145 0.0
O2695 O 0.54439 0.50293 0.51216 0.0
O2696 O 0.52503 0.55929 0.54031 0.0
O2697 O 0.56103 0.58115 0.55996 0.0
O2698 O 0.60207 0.57047 0.56141 0.0
O2699 O 0.60378 0.55768 0.59802 0.0
O2700 O 0.54091 0.53719 0.57899 0.0
O2701 O 0.56433 0.55839 0.60901 0.0
O2702 O 0.57609 0.50994 0.57051 0.0
O2703 O 0.53829 0.49095 0.56001 0.0
H2704 H 0.48898 0.53649 0.57001 0.0
H2705 H 0.46803 0.56844 0.57751 0.0
H2706 H 0.42797 0.54455 0.50151 0.0
H2707 H 0.44921 0.51199 0.49367 0.0
H2708 H 0.62407 0.54812 0.53532 0.0
H2709 H 0.64808 0.51931 0.52842 0.0
H2710 H 0.6718 0.5286 0.61006 0.0
H2711 H 0.6475 0.55764 0.61708 0.0
Tb2712 Tb 0.07072 0.53481 0.04605 0.0
Tb2713 Tb 0.02217 0.52919 0.06012 0.0
C2714 C 0.11197 0.53502 0.04715 0.0
C2715 C 0.12977 0.52046 0.05183 0.0
C2716 C 0.13908 0.51703 0.07648 0.0
C2717 C 0.15721 0.50511 0.08019 0.0
C2718 C 0.16675 0.4965 0.05941 0.0
C2719 C 0.15727 0.49999 0.03482 0.0
C2720 C 0.13915 0.5117 0.03114 0.0
C2721 C 0.03982 0.54056 1.00531 0.0
C2722 C 0.03857 0.48055 0.04071 0.0
C2723 C 0.98084 0.52895 0.05864 0.0
C2724 C 0.96323 0.54378 0.05414 0.0
C2725 C 0.95526 0.54927 0.02991 0.0
C2726 C 0.93732 0.56153 0.02631 0.0
C2727 C 0.92678 0.56859 0.04681 0.0
C2728 C 0.93497 0.56307 0.07096 0.0
C2729 C 0.95281 0.55093 0.07452 0.0
C2730 C 0.05319 0.52441 0.10121 0.0
C2731 C 0.05449 0.58328 0.06601 0.0
O2732 O 0.10427 0.545 0.06653 0.0
O2733 O 0.0961 0.52646 0.02687 0.0
O2734 O 0.03717 0.53589 0.02751 0.0
O2735 O 0.06131 0.5428 1.00652 0.0
O2736 O 0.05907 0.49444 0.04242 0.0
O2737 O 0.02116 0.49026 0.04497 0.0
O2738 O 0.98873 0.51931 0.03926 0.0
O2739 O 0.99654 0.53708 0.07914 0.0
O2740 O 0.05574 0.52802 0.07866 0.0
O2741 O 0.03183 0.52305 0.10028 0.0
O2742 O 0.03382 0.56952 0.06346 0.0
O2743 O 0.07194 0.57347 0.06226 0.0
H2744 H 0.13261 0.52386 0.09298 0.0
H2745 H 0.16372 0.50267 0.09942 0.0
H2746 H 0.16424 0.49431 0.0183 0.0
H2747 H 0.13279 0.51448 0.01197 0.0
H2748 H 0.96269 0.54389 0.01366 0.0
H2749 H 0.93179 0.56555 1.00745 0.0
H2750 H 0.9272 0.56753 0.08719 0.0
H2751 H 0.95818 0.54663 0.09332 0.0
C2752 C 1.012 0.12499 0.01675 0.0
C2753 C 0.02992 0.14552 0.01782 0.0
H2754 H 1.00152 0.08769 0.02397 0.0
C2755 C 0.05163 0.14344 0.02905 0.0
H2756 H 0.99503 0.12547 0.00817 0.0
C2757 C 0.05535 0.1217 0.03822 0.0
C2758 C 0.03756 0.10093 0.03652 0.0
H2759 H 0.06595 0.15872 0.03083 0.0
H2760 H 0.07242 0.12108 0.04626 0.0
C2761 C 0.01575 0.10311 0.02581 0.0
C2762 C 0.20883 0.77728 0.23212 0.0
C2763 C 0.2003 0.79914 0.2343 0.0
H2764 H 0.2357 0.75938 0.24454 0.0
C2765 C 0.2141 0.82035 0.25063 0.0
H2766 H 0.19919 0.76056 0.21949 0.0
C2767 C 0.23522 0.81972 0.26441 0.0
C2768 C 0.2434 0.79779 0.26285 0.0
H2769 H 0.20842 0.83748 0.25354 0.0
H2770 H 0.24494 0.83648 0.27698 0.0
C2771 C 0.23 0.77659 0.24628 0.0
C2772 C 0.51324 0.91312 0.51942 0.0
C2773 C 0.53227 0.90257 0.51957 0.0
H2774 H 0.50048 0.94616 0.5262 0.0
C2775 C 0.55363 0.91871 0.52783 0.0
H2776 H 0.49646 0.90163 0.5129 0.0
C2777 C 0.55591 0.94437 0.53513 0.0
C2778 C 0.53693 0.95493 0.53468 0.0
H2779 H 0.56877 0.91156 0.52884 0.0
H2780 H 0.57272 0.95594 0.54119 0.0
C2781 C 0.51553 0.93885 0.52693 0.0
C2782 C 0.47236 0.31405 0.74361 0.0
C2783 C 0.47655 0.29334 0.72858 0.0
H2784 H 0.45084 0.32842 0.76659 0.0
C2785 C 0.46054 0.2707 0.72488 0.0
H2786 H 0.48429 0.33176 0.74729 0.0
C2787 C 0.44121 0.26879 0.73595 0.0
C2788 C 0.43712 0.28943 0.75119 0.0
H2789 H 0.46273 0.25439 0.71305 0.0
H2790 H 0.42931 0.25106 0.73228 0.0
C2791 C 0.45302 0.31214 0.75471 0.0
C2792 C 0.05295 0.8755 0.64798 0.0
C2793 C 0.07328 0.86774 0.653 0.0
H2794 H 0.03489 0.8986 0.62824 0.0
C2795 C 0.09201 0.87953 0.6439 0.0
H2796 H 0.03818 0.86651 0.65452 0.0
C2797 C 0.09011 0.89782 0.62884 0.0
C2798 C 0.06945 0.90463 0.62264 0.0
H2799 H 0.10797 0.87413 0.64787 0.0
H2800 H 0.10465 0.90622 0.62151 0.0
C2801 C 0.05106 0.89383 0.63292 0.0
C2802 C 0.40023 0.81943 0.87083 0.0
C2803 C 0.41099 0.80057 0.86267 0.0
H2804 H 0.36884 0.82966 0.87338 0.0
C2805 C 0.39801 0.77636 0.85396 0.0
H2806 H 0.40979 0.83814 0.87842 0.0
C2807 C 0.37485 0.77133 0.85228 0.0
C2808 C 0.36387 0.79051 0.85836 0.0
H2809 H 0.4055 0.76132 0.84728 0.0
H2810 H 0.36544 0.75257 0.84448 0.0
C2811 C 0.37681 0.81447 0.86855 0.0
C2812 C 0.575 0.14187 0.10159 0.0
C2813 C 0.55569 0.15122 0.10419 0.0
H2814 H 0.58831 0.11303 0.08303 0.0
C2815 C 0.5355 0.14033 0.08676 0.0
H2816 H 0.59102 0.15019 0.1141 0.0
C2817 C 0.53432 0.11972 0.06837 0.0
C2818 C 0.55316 0.10939 0.06725 0.0
H2819 H 0.52021 0.14669 0.08824 0.0
H2820 H 0.5182 0.11071 0.05631 0.0
C2821 C 0.57363 0.12087 0.08355 0.0
C2822 C 0.12599 0.28529 0.31252 0.0
C2823 C 0.12566 0.29085 0.33876 0.0
H2824 H 0.1439 0.27235 0.28416 0.0
C2825 C 0.1438 0.28812 0.35672 0.0
H2826 H 0.11212 0.28708 0.29829 0.0
C2827 C 0.16162 0.27944 0.34876 0.0
C2828 C 0.16193 0.27347 0.32258 0.0
H2829 H 0.14411 0.29247 0.37708 0.0
H2830 H 0.17504 0.27703 0.36321 0.0
C2831 C 0.14398 0.27656 0.30447 0.0
C2832 C 1.00318 0.0352 0.14229 0.0
C2833 C 1.00925 0.01863 0.15857 0.0
H2834 H 1.01008 0.05391 0.1108 0.0
C2835 C 0.0265 1.00664 0.1532 0.0
H2836 H 0.98993 0.04472 0.14548 0.0
C2837 C 0.03776 1.0117 0.13296 0.0
C2838 C 0.03191 0.02853 0.11711 0.0
H2839 H 0.03199 0.99406 0.1653 0.0
H2840 H 0.05155 1.0029 0.1301 0.0
C2841 C 0.01441 0.04013 0.12196 0.0
C2842 C 0.31073 0.8021 0.50112 0.0
C2843 C 0.30586 0.77818 0.50706 0.0
H2844 H 0.30322 0.82548 0.47404 0.0
C2845 C 0.28655 0.76087 0.49359 0.0
H2846 H 0.32552 0.81565 0.51156 0.0
C2847 C 0.27355 0.76652 0.47248 0.0
C2848 C 0.27996 0.78941 0.4645 0.0
H2849 H 0.28241 0.74244 0.49841 0.0
H2850 H 0.25967 0.75228 0.46116 0.0
C2851 C 0.29781 0.80771 0.47984 0.0
C2852 C 0.60653 0.02706 0.65564 0.0
C2853 C 0.59674 0.01723 0.67562 0.0
H2854 H 0.6017 0.03712 0.61756 0.0
C2855 C 0.57297 1.00973 0.67008 0.0
H2856 H 0.62462 0.03308 0.65829 0.0
C2857 C 0.55987 1.01204 0.64655 0.0
C2858 C 0.56946 0.02182 0.62665 0.0
H2859 H 0.56409 1.00247 0.68428 0.0
H2860 H 0.54176 1.00619 0.64409 0.0
C2861 C 0.59326 0.02922 0.63177 0.0
C2862 C 0.28921 0.31688 0.92341 0.0
C2863 C 0.31061 0.32495 0.93933 0.0
H2864 H 0.27016 0.30248 0.88552 0.0
C2865 C 0.32961 0.32351 0.92818 0.0
H2866 H 0.27417 0.31792 0.93111 0.0
C2867 C 0.32732 0.31469 0.90192 0.0
C2868 C 0.30595 0.30709 0.88591 0.0
H2869 H 0.34636 0.32919 0.93977 0.0
H2870 H 0.3424 0.3141 0.89414 0.0
C2871 C 0.28692 0.30814 0.89712 0.0
C2872 C 1.01385 1.00472 0.42915 0.0
C2873 C 1.00878 0.02528 0.41866 0.0
H2874 H 0.02445 0.99002 0.46283 0.0
C2875 C 1.01108 0.04762 0.43561 0.0
H2876 H 1.01199 0.98709 0.41691 0.0
C2877 C 0.01821 0.04932 0.46215 0.0
C2878 C 0.02311 0.02865 0.47259 0.0
H2879 H 1.00754 0.06395 0.42834 0.0
H2880 H 0.01984 0.06684 0.47449 0.0
C2881 C 0.02083 1.00636 0.45565 0.0
C2882 C 0.34934 0.77914 0.74592 0.0
C2883 C 0.33943 0.78284 0.72182 0.0
H2884 H 0.34798 0.78246 0.78566 0.0
C2885 C 0.32218 0.79603 0.71975 0.0
H2886 H 0.36251 0.76885 0.74788 0.0
C2887 C 0.31381 0.80383 0.74137 0.0
C2888 C 0.32246 0.79815 0.76504 0.0
H2889 H 0.31439 0.79907 0.70121 0.0
H2890 H 0.29978 0.81288 0.73931 0.0
C2891 C 0.34082 0.78664 0.76739 0.0
C2892 C 0.58075 0.02762 0.94037 0.0
C2893 C 0.60428 0.02839 0.94342 0.0
H2894 H 0.5514 0.02968 0.95739 0.0
C2895 C 0.61541 0.03271 0.96959 0.0
H2896 H 0.57069 0.02414 0.92131 0.0
C2897 C 0.60398 0.03598 0.99084 0.0
C2898 C 0.58049 0.0351 0.98764 0.0
H2899 H 0.63333 0.03388 0.97399 0.0
H2900 H 0.61378 0.03916 0.01006 0.0
C2901 C 0.56934 0.03078 0.9616 0.0
C2902 C 0.28927 0.32874 0.20643 0.0
C2903 C 0.30848 0.32627 0.19603 0.0
H2904 H 0.26884 0.31934 0.23396 0.0
C2905 C 0.32273 0.31235 0.20799 0.0
H2906 H 0.27814 0.33987 0.1988 0.0
C2907 C 0.31751 0.30083 0.229 0.0
C2908 C 0.2978 0.30272 0.23849 0.0
H2909 H 0.33767 0.30979 0.20077 0.0
H2910 H 0.32857 0.28995 0.23736 0.0
C2911 C 0.28398 0.31706 0.22699 0.0
C2912 C 0.20216 0.97289 0.08275 0.0
C2913 C 0.18763 0.94938 0.07525 0.0
H2914 H 0.20541 1.01146 0.09642 0.0
C2915 C 0.16539 0.94612 0.07909 0.0
H2916 H 0.21951 0.97565 0.08023 0.0
C2917 C 0.15718 0.96663 0.08793 0.0
C2918 C 0.17119 0.99066 0.09329 0.0
H2919 H 0.15393 0.9281 0.07338 0.0
H2920 H 0.13941 0.96384 0.0885 0.0
C2921 C 0.19407 0.99333 0.09193 0.0
C2922 C 0.63724 0.56967 0.01652 0.0
C2923 C 0.6474 0.59152 0.03425 0.0
H2924 H 0.60931 0.53844 1.00418 0.0
C2925 C 0.63549 0.59841 0.05353 0.0
H2926 H 0.6457 0.56323 1.00163 0.0
C2927 C 0.61447 0.58378 0.0552 0.0
C2928 C 0.60464 0.56185 0.03758 0.0
H2929 H 0.6423 0.61524 0.06736 0.0
H2930 H 0.606 0.58955 0.07039 0.0
C2931 C 0.61626 0.55522 0.0181 0.0
C2932 C 0.72775 0.45699 0.31529 0.0
C2933 C 0.71473 0.46268 0.33363 0.0
H2934 H 0.75042 0.4351 0.30346 0.0
C2935 C 0.71453 0.44951 0.35431 0.0
H2936 H 0.72804 0.46633 0.29884 0.0
C2937 C 0.72707 0.43131 0.35664 0.0
C2938 C 0.74032 0.42601 0.33856 0.0
H2939 H 0.70511 0.45363 0.36912 0.0
H2940 H 0.72692 0.42186 0.373 0.0
C2941 C 0.7405 0.43899 0.31783 0.0
C2942 C 0.86106 0.45819 0.51879 0.0
C2943 C 0.84861 0.44667 0.49446 0.0
H2944 H 0.89178 0.48146 0.54044 0.0
C2945 C 0.85761 0.45123 0.47268 0.0
H2946 H 0.85431 0.45528 0.53589 0.0
C2947 C 0.87922 0.46605 0.47529 0.0
C2948 C 0.8921 0.47672 0.49973 0.0
H2949 H 0.84839 0.44243 0.45374 0.0
H2950 H 0.88617 0.46826 0.4582 0.0
C2951 C 0.88253 0.47309 0.5214 0.0
C2952 C 0.32934 0.17216 0.29075 0.0
C2953 C 0.35321 0.17473 0.29451 0.0
H2954 H 0.30038 0.18916 0.28881 0.0
C2955 C 0.36527 0.20005 0.29904 0.0
H2956 H 0.31858 0.15378 0.28742 0.0
C2957 C 0.35449 0.22084 0.29979 0.0
C2958 C 0.3307 0.21819 0.29617 0.0
H2959 H 0.38343 0.20416 0.30185 0.0
H2960 H 0.36513 0.23934 0.30338 0.0
C2961 C 0.31856 0.19299 0.29163 0.0
C2962 C 0.38022 0.10107 0.56444 0.0
C2963 C 0.36903 0.10322 0.54011 0.0
H2964 H 0.40705 0.08924 0.58637 0.0
C2965 C 0.37755 0.09446 0.51861 0.0
H2966 H 0.37464 0.10808 0.58156 0.0
C2967 C 0.3963 0.08342 0.52137 0.0
C2968 C 0.4072 0.08085 0.54573 0.0
H2969 H 0.3694 0.09557 0.49952 0.0
H2970 H 0.40187 0.07632 0.50429 0.0
C2971 C 0.39894 0.09018 0.56721 0.0
C2972 C 0.75229 0.69923 0.34868 0.0
C2973 C 0.73438 0.68708 0.32836 0.0
H2974 H 0.78326 0.72677 0.36098 0.0
C2975 C 0.73424 0.69534 0.30452 0.0
H2976 H 0.75304 0.69428 0.36757 0.0
C2977 C 0.75128 0.71474 0.30115 0.0
C2978 C 0.76936 0.72607 0.32124 0.0
H2979 H 0.72132 0.68649 0.28804 0.0
H2980 H 0.75065 0.72035 0.28251 0.0
C2981 C 0.76965 0.71815 0.34504 0.0
C2982 C 0.8486 0.38909 0.77477 0.0
C2983 C 0.85105 0.40956 0.79471 0.0
H2984 H 0.8373 0.34948 0.76099 0.0
C2985 C 0.8427 0.40333 0.81677 0.0
H2986 H 0.85473 0.39213 0.75739 0.0
C2987 C 0.83274 0.3785 0.81887 0.0
C2988 C 0.83038 0.35813 0.79906 0.0
H2989 H 0.84346 0.41775 0.83268 0.0
H2990 H 0.82672 0.37533 0.83631 0.0
C2991 C 0.83857 0.36414 0.77689 0.0
C2992 C 0.08637 0.93745 0.09551 0.0
C2993 C 0.06813 0.91694 0.09314 0.0
H2994 H 0.09783 0.97458 0.08847 0.0
C2995 C 0.04698 0.91902 0.0802 0.0
H2996 H 0.10293 0.93701 0.10544 0.0
C2997 C 0.04405 0.94074 0.07056 0.0
C2998 C 0.06215 0.96137 0.07332 0.0
H2999 H 0.03249 0.90374 0.07732 0.0
H3000 H 0.02739 0.94136 0.06105 0.0
C3001 C 0.08343 0.95924 0.08581 0.0
C3002 C 0.87848 0.24246 0.86168 0.0
C3003 C 0.89321 0.26379 0.87682 0.0
H3004 H 0.84703 0.22668 0.8362 0.0
C3005 C 0.88564 0.28627 0.87796 0.0
H3006 H 0.88339 0.22482 0.85966 0.0
C3007 C 0.86452 0.28739 0.86394 0.0
C3008 C 0.85022 0.26606 0.84843 0.0
H3009 H 0.89604 0.30314 0.88966 0.0
H3010 H 0.85961 0.30505 0.86486 0.0
C3011 C 0.85745 0.24357 0.84792 0.0
C3012 C 0.54032 0.14857 0.58337 0.0
C3013 C 0.56164 0.16496 0.59003 0.0
H3014 H 0.52133 0.11119 0.57113 0.0
C3015 C 0.58067 0.15473 0.58846 0.0
H3016 H 0.52518 0.15552 0.58378 0.0
C3017 C 0.57845 0.12901 0.58092 0.0
C3018 C 0.55711 0.11265 0.57474 0.0
H3019 H 0.59743 0.1665 0.59368 0.0
H3020 H 0.59351 0.12193 0.58034 0.0
C3021 C 0.53811 0.12295 0.57592 0.0
C3022 C 0.62164 0.75515 0.36444 0.0
C3023 C 0.61799 0.77498 0.38128 0.0
H3024 H 0.64275 0.74205 0.34007 0.0
C3025 C 0.63456 0.79732 0.38674 0.0
H3026 H 0.60928 0.73773 0.35936 0.0
C3027 C 0.65391 0.7998 0.37564 0.0
C3028 C 0.65748 0.78004 0.35864 0.0
H3029 H 0.63279 0.81294 0.39995 0.0
H3030 H 0.66624 0.81724 0.3807 0.0
C3031 C 0.641 0.75763 0.35333 0.0
C3032 C 0.02231 0.17449 0.44121 0.0
C3033 C 1.00921 0.19187 0.446 0.0
H3034 H 0.03532 0.1444 0.45377 0.0
C3035 C 0.99671 0.19019 0.46563 0.0
H3036 H 0.03186 0.1753 0.42593 0.0
C3037 C 0.99886 0.17273 0.48171 0.0
C3038 C 1.01346 0.15669 0.47825 0.0
H3039 H 0.98664 0.20356 0.46977 0.0
H3040 H 0.99034 0.17301 0.49788 0.0
C3041 C 0.02436 0.15696 0.45717 0.0
C3042 C 0.69846 0.28566 0.27413 0.0
C3043 C 0.68793 0.26048 0.26593 0.0
H3044 H 0.72944 0.31263 0.28619 0.0
C3045 C 0.70115 0.24335 0.26051 0.0
H3046 H 0.68864 0.29945 0.27754 0.0
C3047 C 0.72457 0.25099 0.26496 0.0
C3048 C 0.73517 0.27588 0.27503 0.0
H3049 H 0.69348 0.22387 0.25391 0.0
H3050 H 0.73433 0.23705 0.26207 0.0
C3051 C 0.72182 0.29329 0.27862 0.0
C3052 C 0.5215 0.94412 0.99841 0.0
C3053 C 0.53195 0.92595 1.00747 0.0
H3054 H 0.51531 0.98009 1.00633 0.0
C3055 C 0.54179 0.92939 0.03357 0.0
H3056 H 0.51409 0.94237 0.97838 0.0
C3057 C 0.54231 0.95138 0.04986 0.0
C3058 C 0.53317 0.97018 0.04011 0.0
H3059 H 0.54974 0.91551 0.04114 0.0
H3060 H 0.55113 0.95431 0.06952 0.0
C3061 C 0.5221 0.96589 0.01454 0.0
C3062 C 0.96353 0.76696 0.79902 0.0
C3063 C 0.96837 0.77241 0.77542 0.0
H3064 H 0.94219 0.77047 0.82665 0.0
C3065 C 0.95474 0.78494 0.76091 0.0
H3066 H 0.97393 0.75737 0.81051 0.0
C3067 C 0.93674 0.79225 0.76996 0.0
C3068 C 0.93212 0.78736 0.7938 0.0
H3069 H 0.95811 0.7892 0.74257 0.0
H3070 H 0.92666 0.80217 0.75851 0.0
C3071 C 0.9456 0.7746 0.80828 0.0
C3072 C 0.07921 1.01286 0.94499 0.0
C3073 C 0.09215 0.03682 0.94533 0.0
H3074 H 0.05912 0.98851 0.9646 0.0
C3075 C 0.09513 0.05458 0.96763 0.0
H3076 H 0.07616 0.99866 0.92822 0.0
C3077 C 0.08522 0.04867 0.98861 0.0
C3078 C 0.07198 0.02485 0.98793 0.0
H3079 H 0.1052 0.0731 0.96897 0.0
H3080 H 0.08758 0.06294 1.0052 0.0
C3081 C 0.06931 1.00699 0.96592 0.0
C3082 C 0.82666 0.31806 0.62517 0.0
C3083 C 0.8093 0.30154 0.60726 0.0
H3084 H 0.84818 0.32403 0.66184 0.0
C3085 C 0.80338 0.27664 0.61034 0.0
H3086 H 0.83162 0.33736 0.62318 0.0
C3087 C 0.81276 0.26908 0.63248 0.0
C3088 C 0.82819 0.28636 0.65182 0.0
H3089 H 0.79039 0.26345 0.59646 0.0
H3090 H 0.80629 0.25036 0.63543 0.0
C3091 C 0.83609 0.31048 0.64732 0.0
C3092 C 0.48791 0.04458 0.45522 0.0
C3093 C 0.49751 0.04932 0.43331 0.0
H3094 H 0.49282 0.03825 0.49478 0.0
C3095 C 0.52112 0.05182 0.43696 0.0
H3096 H 0.46993 0.04227 0.45396 0.0
C3097 C 0.53419 0.04959 0.46051 0.0
C3098 C 0.52478 0.04464 0.48228 0.0
H3099 H 0.52991 0.05593 0.42159 0.0
H3100 H 0.55216 0.0518 0.46157 0.0
C3101 C 0.50116 0.04218 0.47903 0.0
C3102 C 0.80444 0.75197 0.18607 0.0
C3103 C 0.78302 0.74381 0.17021 0.0
H3104 H 0.82361 0.76693 0.22378 0.0
C3105 C 0.76408 0.74579 0.18134 0.0
H3106 H 0.81944 0.75053 0.17843 0.0
C3107 C 0.76647 0.75519 0.2075 0.0
C3108 C 0.78787 0.76284 0.22344 0.0
H3109 H 0.74731 0.74006 0.1698 0.0
H3110 H 0.75144 0.75613 0.21527 0.0
C3111 C 0.80682 0.76127 0.21225 0.0
C3112 C 0.08197 0.02363 0.67207 0.0
C3113 C 0.08815 0.04709 0.68796 0.0
H3114 H 0.06986 1.00301 0.63395 0.0
C3115 C 0.08612 0.06807 0.67651 0.0
H3116 H 0.0835 1.00704 0.68004 0.0
C3117 C 0.07842 0.06576 0.65009 0.0
C3118 C 0.07249 0.04239 0.63414 0.0
H3119 H 0.09034 0.08641 0.68801 0.0
H3120 H 0.07716 0.08245 0.64218 0.0
C3121 C 0.07429 0.02132 0.64553 0.0
C3122 C 0.73995 0.25161 0.3956 0.0
C3123 C 0.7293 0.27183 0.39635 0.0
H3124 H 0.76495 0.2349 0.38109 0.0
C3125 C 0.73374 0.28879 0.37953 0.0
H3126 H 0.73648 0.23761 0.4075 0.0
C3127 C 0.74954 0.28676 0.3641 0.0
C3128 C 0.76175 0.26815 0.3654 0.0
H3129 H 0.72632 0.3048 0.37929 0.0
H3130 H 0.75265 0.30037 0.3517 0.0
C3131 C 0.75634 0.25003 0.38055 0.0
C3132 C 0.5089 0.04875 0.16745 0.0
C3133 C 0.48509 0.04491 0.16506 0.0
H3134 H 0.53808 0.05002 0.14955 0.0
C3135 C 0.47321 0.03883 0.13913 0.0
H3136 H 0.51942 0.0531 0.18629 0.0
C3137 C 0.48428 0.03694 0.11744 0.0
C3138 C 0.50806 0.04083 0.12002 0.0
H3139 H 0.45507 0.0358 0.13528 0.0
H3140 H 0.474 0.03244 0.09842 0.0
C3141 C 0.5199 0.04676 0.14583 0.0
C3142 C 0.77958 0.72873 0.89001 0.0
C3143 C 0.77926 0.74195 0.91423 0.0
H3144 H 0.78357 0.73018 0.85106 0.0
C3145 C 0.78214 0.76797 0.9166 0.0
H3146 H 0.77714 0.70872 0.88711 0.0
C3147 C 0.78586 0.78031 0.89579 0.0
C3148 C 0.78658 0.76709 0.87179 0.0
H3149 H 0.78222 0.77898 0.93482 0.0
H3150 H 0.78857 0.80035 0.89866 0.0
C3151 C 0.78306 0.74106 0.86915 0.0
C3152 C 0.91311 0.10005 0.05246 0.0
C3153 C 0.91597 0.10892 0.07882 0.0
H3154 H 0.91959 0.07361 0.02354 0.0
C3155 C 0.92546 0.09561 0.09646 0.0
H3156 H 0.90519 0.10944 0.03836 0.0
C3157 C 0.93281 0.0745 0.08794 0.0
C3158 C 0.93131 0.0666 0.06163 0.0
H3159 H 0.92792 0.10189 0.11689 0.0
H3160 H 0.9405 0.06492 0.10202 0.0
C3161 C 0.92085 0.07916 0.04393 0.0
C3162 C 0.45662 0.49487 0.09321 0.0
C3163 C 0.4462 0.47317 0.07538 0.0
H3164 H 0.48477 0.52583 0.10547 0.0
C3165 C 0.45785 0.46623 0.05587 0.0
H3166 H 0.44834 0.50132 0.10828 0.0
C3167 C 0.47889 0.48069 0.05406 0.0
C3168 C 0.48897 0.50248 0.07176 0.0
H3169 H 0.4508 0.4495 0.04195 0.0
H3170 H 0.48716 0.47491 0.03869 0.0
C3171 C 0.47761 0.50916 0.09148 0.0
C3172 C 0.36159 0.60647 0.79269 0.0
C3173 C 0.37947 0.60745 0.77921 0.0
H3174 H 0.33554 0.62353 0.80357 0.0
C3175 C 0.38426 0.62724 0.76561 0.0
H3176 H 0.35691 0.59128 0.80284 0.0
C3177 C 0.37161 0.64554 0.76567 0.0
C3178 C 0.3541 0.64469 0.7796 0.0
H3179 H 0.39804 0.62891 0.75528 0.0
H3180 H 0.37584 0.66066 0.75526 0.0
C3181 C 0.34921 0.62492 0.79304 0.0
C3182 C 0.22428 0.60412 0.56508 0.0
C3183 C 0.23882 0.61557 0.58829 0.0
H3184 H 0.19185 0.58186 0.54689 0.0
C3185 C 0.23176 0.61209 0.61145 0.0
H3186 H 0.22921 0.60657 0.54692 0.0
C3187 C 0.21032 0.59827 0.61144 0.0
C3188 C 0.19547 0.58745 0.58826 0.0
H3189 H 0.24271 0.62035 0.62966 0.0
H3190 H 0.20516 0.5968 0.62966 0.0
C3191 C 0.20281 0.5902 0.56507 0.0
C3192 C 0.76359 0.8932 0.8191 0.0
C3193 C 0.73967 0.89044 0.81399 0.0
H3194 H 0.79281 0.87668 0.82208 0.0
C3195 C 0.72786 0.86493 0.8077 0.0
H3196 H 0.7743 0.91162 0.82387 0.0
C3197 C 0.73891 0.84426 0.80659 0.0
C3198 C 0.76277 0.8472 0.81166 0.0
H3199 H 0.70968 0.86053 0.80367 0.0
H3200 H 0.72845 0.82566 0.80165 0.0
C3201 C 0.7746 0.87255 0.81798 0.0
C3202 C 0.72119 0.98 0.59146 0.0
C3203 C 0.72561 0.96445 0.57081 0.0
H3204 H 0.69998 1.00316 0.60479 0.0
C3205 C 0.71021 0.95964 0.54742 0.0
H3206 H 0.73266 0.98437 0.60974 0.0
C3207 C 0.69129 0.97025 0.54462 0.0
C3208 C 0.68708 0.98627 0.56505 0.0
H3209 H 0.7126 0.94736 0.53119 0.0
H3210 H 0.67986 0.96567 0.52632 0.0
C3211 C 0.70229 0.99077 0.58862 0.0
C3212 C 0.3579 0.37518 0.8052 0.0
C3213 C 0.35755 0.38352 0.7814 0.0
H3214 H 0.34172 0.35009 0.82724 0.0
C3215 C 0.3394 0.37167 0.76125 0.0
H3216 H 0.37101 0.3839 0.82154 0.0
C3217 C 0.32209 0.35273 0.76497 0.0
C3218 C 0.32267 0.34462 0.7887 0.0
H3219 H 0.3385 0.37682 0.74243 0.0
H3220 H 0.30835 0.3442 0.74913 0.0
C3221 C 0.34089 0.35584 0.80865 0.0
C3222 C 0.24939 0.67471 0.33781 0.0
C3223 C 0.24194 0.65553 0.31608 0.0
H3224 H 0.26473 0.7134 0.35319 0.0
C3225 C 0.24547 0.66286 0.29243 0.0
H3226 H 0.2471 0.67058 0.3565 0.0
C3227 C 0.25585 0.68762 0.29059 0.0
C3228 C 0.26312 0.70681 0.3122 0.0
H3229 H 0.24053 0.64927 0.27505 0.0
H3230 H 0.25812 0.69172 0.27188 0.0
C3231 C 0.25953 0.69967 0.3359 0.0
C3232 C 0.54912 0.64717 0.53283 0.0
C3233 C 0.52795 0.64801 0.51889 0.0
H3234 H 0.56955 0.6261 0.55279 0.0
C3235 C 0.51046 0.62661 0.5158 0.0
H3236 H 0.56302 0.66317 0.53622 0.0
C3237 C 0.51424 0.60503 0.5255 0.0
C3238 C 0.53561 0.60411 0.5389 0.0
H3239 H 0.49391 0.62619 0.50517 0.0
H3240 H 0.50045 0.58889 0.52206 0.0
C3241 C 0.55284 0.62576 0.54265 0.0
C3242 C 0.7146 0.32074 0.751 0.0
C3243 C 0.70034 0.29948 0.73523 0.0
H3244 H 0.74565 0.33662 0.77708 0.0
C3245 C 0.70831 0.27725 0.73365 0.0
H3246 H 0.70936 0.33818 0.75339 0.0
C3247 C 0.72936 0.27627 0.7479 0.0
C3248 C 0.74318 0.29752 0.764 0.0
H3249 H 0.6983 0.26045 0.72145 0.0
H3250 H 0.7346 0.25878 0.74666 0.0
C3251 C 0.73558 0.3198 0.7649 0.0
C3252 C 0.05102 0.4165 0.02251 0.0
C3253 C 0.02979 0.40024 0.01915 0.0
H3254 H 0.0704 0.45392 0.03169 0.0
C3255 C 1.01142 0.41079 0.02349 0.0
H3256 H 0.06558 0.40943 0.01902 0.0
C3257 C 0.01417 0.43663 0.03067 0.0
C3258 C 0.03538 0.45285 0.03371 0.0
H3259 H 0.99482 0.39906 0.02147 0.0
H3260 H 0.99959 0.44389 0.03369 0.0
C3261 C 0.05375 0.44226 0.02963 0.0
C3262 C 0.97062 0.81308 0.24176 0.0
C3263 C 0.97582 0.79213 0.22832 0.0
H3264 H 0.94832 0.8274 0.26365 0.0
C3265 C 0.9607 0.76907 0.22583 0.0
H3266 H 0.98187 0.83114 0.24433 0.0
C3267 C 0.94124 0.76692 0.23666 0.0
C3268 C 0.93621 0.78773 0.25064 0.0
H3269 H 0.96376 0.75256 0.21521 0.0
H3270 H 0.93004 0.74882 0.23387 0.0
C3271 C 0.95121 0.81091 0.25282 0.0
C3272 C 0.57519 0.39126 0.16663 0.0
C3273 C 0.5822 0.36958 0.1584 0.0
H3274 H 0.56732 0.42502 0.15703 0.0
C3275 C 0.58712 0.36554 0.13375 0.0
H3276 H 0.57139 0.39478 0.18563 0.0
C3277 C 0.58448 0.38252 0.11731 0.0
C3278 C 0.57705 0.40403 0.12525 0.0
H3279 H 0.59212 0.34871 0.12677 0.0
H3280 H 0.58749 0.37828 0.09804 0.0
C3281 C 0.57275 0.40843 0.15023 0.0
C3282 C 0.89941 0.28585 0.36415 0.0
C3283 C 0.91027 0.31067 0.36489 0.0
H3284 H 0.86814 0.26004 0.36118 0.0
C3285 C 0.89803 0.32927 0.3678 0.0
H3286 H 0.90858 0.27118 0.36299 0.0
C3287 C 0.87496 0.32293 0.36762 0.0
C3288 C 0.86374 0.29786 0.3642 0.0
H3289 H 0.90595 0.34858 0.36869 0.0
H3290 H 0.86568 0.33752 0.36778 0.0
C3291 C 0.87635 0.2795 0.36372 0.0
C3292 C 0.07331 0.63643 0.59637 0.0
C3293 C 0.05352 0.64429 0.60012 0.0
H3294 H 0.0874 0.60858 0.57727 0.0
C3295 C 0.03301 0.63182 0.58406 0.0
H3296 H 0.08953 0.64598 0.60778 0.0
C3297 C 0.0321 0.61117 0.56591 0.0
C3298 C 0.05157 0.60235 0.56373 0.0
H3299 H 0.01736 0.63694 0.58647 0.0
H3300 H 0.01587 0.60094 0.55495 0.0
C3301 C 0.07226 0.61534 0.5786 0.0
C3302 C 0.64825 0.79818 0.85799 0.0
C3303 C 0.63095 0.80329 0.84058 0.0
H3304 H 0.67777 0.7837 0.86329 0.0
C3305 C 0.6315 0.79945 0.81432 0.0
H3306 H 0.64829 0.80116 0.87837 0.0
C3307 C 0.64864 0.78958 0.80558 0.0
C3308 C 0.66548 0.78358 0.82304 0.0
H3309 H 0.61824 0.80314 0.80053 0.0
H3310 H 0.64862 0.78645 0.78522 0.0
C3311 C 0.66522 0.78832 0.84934 0.0
C3312 C 0.52224 0.54954 0.66507 0.0
C3313 C 0.50532 0.52774 0.6616 0.0
H3314 H 0.54715 0.57202 0.6493 0.0
C3315 C 0.50001 0.51228 0.63736 0.0
H3316 H 0.52716 0.56182 0.68338 0.0
C3317 C 0.51153 0.51837 0.61744 0.0
C3318 C 0.5288 0.53992 0.62141 0.0
H3319 H 0.487 0.49541 0.63379 0.0
H3320 H 0.50749 0.5058 0.59935 0.0
C3321 C 0.5338 0.55542 0.64542 0.0
C3322 C 0.80231 0.25778 0.99379 0.0
C3323 C 0.82111 0.27614 1.0067 0.0
H3324 H 0.77396 0.24786 0.96299 0.0
C3325 C 0.8243 0.30004 1.00054 0.0
H3326 H 0.7993 0.23939 0.9989 0.0
C3327 C 0.80991 0.30487 0.97996 0.0
C3328 C 0.79209 0.28587 0.96562 0.0
H3329 H 0.83859 0.31446 0.01066 0.0
H3330 H 0.81377 0.32289 0.97418 0.0
C3331 C 0.78778 0.26266 0.97348 0.0
C3332 C 0.10438 0.51548 0.15119 0.0
C3333 C 0.09673 0.51846 0.17495 0.0
H3334 H 0.0978 0.51521 0.10995 0.0
C3335 C 0.07509 0.52378 0.17321 0.0
H3336 H 0.1208 0.51145 0.15094 0.0
C3337 C 0.06196 0.52586 0.14963 0.0
C3338 C 0.06947 0.5231 0.12597 0.0
H3339 H 0.06779 0.52589 0.1902 0.0
H3340 H 0.04546 0.52963 0.15003 0.0
C3341 C 0.09117 0.51791 0.12735 0.0
C3342 C 0.82897 0.81989 0.429 0.0
C3343 C 0.81106 0.82727 0.43908 0.0
H3344 H 0.84093 0.80579 0.39576 0.0
C3345 C 0.79075 0.82525 0.42187 0.0
H3346 H 0.8448 0.8207 0.44146 0.0
C3347 C 0.78845 0.81633 0.39564 0.0
C3348 C 0.80644 0.80929 0.38557 0.0
H3349 H 0.77663 0.83111 0.42847 0.0
H3350 H 0.77258 0.81536 0.38319 0.0
C3351 C 0.82673 0.81115 0.40267 0.0
C3352 C 0.51375 0.54205 0.93507 0.0
C3353 C 0.50756 0.51846 0.91943 0.0
H3354 H 0.52555 0.56308 0.97307 0.0
C3355 C 0.50921 0.49762 0.93128 0.0
H3356 H 0.51249 0.55855 0.9268 0.0
C3357 C 0.51663 0.50022 0.95781 0.0
C3358 C 0.5226 0.52373 0.97349 0.0
H3359 H 0.50493 0.47918 0.92 0.0
H3360 H 0.51763 0.48364 0.96603 0.0
C3361 C 0.52109 0.54465 0.96171 0.0
C3362 C 0.83689 0.3032 0.22694 0.0
C3363 C 0.85048 0.2858 0.22889 0.0
H3364 H 0.81569 0.323 0.24521 0.0
C3365 C 0.85625 0.27808 0.25235 0.0
H3366 H 0.83238 0.3094 0.20889 0.0
C3367 C 0.8466 0.28564 0.2729 0.0
C3368 C 0.83116 0.30098 0.27008 0.0
H3369 H 0.86658 0.26454 0.25415 0.0
H3370 H 0.85026 0.27837 0.29048 0.0
C3371 C 0.82725 0.31079 0.24752 0.0
C3372 C 0.11614 0.53054 0.46747 0.0
C3373 C 0.10476 0.52432 0.44133 0.0
H3374 H 0.11463 0.53776 0.50792 0.0
C3375 C 0.0809 0.52083 0.43838 0.0
H3376 H 0.13428 0.53385 0.47186 0.0
C3377 C 0.06945 0.52332 0.45962 0.0
C3378 C 0.08084 0.52949 0.4856 0.0
H3379 H 0.07061 0.51576 0.41942 0.0
H3380 H 0.05128 0.52018 0.45549 0.0
C3381 C 0.10464 0.533 0.48874 0.0
C3382 C 0.79506 0.80354 0.6909 0.0
C3383 C 0.81319 0.82434 0.69544 0.0
H3384 H 0.77502 0.77523 0.70609 0.0
C3385 C 0.82545 0.83189 0.72088 0.0
H3386 H 0.7847 0.79722 0.67202 0.0
C3387 C 0.81961 0.81911 0.7409 0.0
C3388 C 0.80135 0.79843 0.73605 0.0
H3389 H 0.83964 0.84764 0.72538 0.0
H3390 H 0.82921 0.82559 0.76013 0.0
C3391 C 0.78934 0.79088 0.7107 0.0
C3392 C 0.69081 0.47574 0.53771 0.0
C3393 C 0.68669 0.45628 0.55173 0.0
H3394 H 0.6866 0.51206 0.53259 0.0
C3395 C 0.67624 0.45942 0.57295 0.0
H3396 H 0.69936 0.47399 0.52163 0.0
C3397 C 0.66904 0.48125 0.57928 0.0
C3398 C 0.6723 0.50029 0.56455 0.0
H3399 H 0.67286 0.44465 0.58402 0.0
H3400 H 0.65998 0.48272 0.59494 0.0
C3401 C 0.68367 0.49755 0.54406 0.0
C3402 C 0.1379 0.07139 0.51548 0.0
C3403 C 0.14814 0.09329 0.5331 0.0
H3404 H 0.1099 0.04023 0.50333 0.0
C3405 C 0.13634 0.1003 0.55245 0.0
H3406 H 0.14628 0.06483 0.50056 0.0
C3407 C 0.11534 0.08573 0.55427 0.0
C3408 C 0.10541 0.06379 0.53673 0.0
H3409 H 0.14322 0.11716 0.56621 0.0
H3410 H 0.10694 0.0916 0.5695 0.0
C3411 C 0.11693 0.05703 0.5172 0.0
C3412 C 0.23667 0.96664 0.85733 0.0
C3413 C 0.21743 0.96155 0.83805 0.0
H3414 H 0.2649 0.95393 0.87475 0.0
C3415 C 0.2112 0.93846 0.8219 0.0
H3416 H 0.24178 0.98446 0.86989 0.0
C3417 C 0.22403 0.9206 0.82503 0.0
C3418 C 0.24366 0.92565 0.84408 0.0
H3419 H 0.1963 0.93419 0.80699 0.0
H3420 H 0.21836 0.90277 0.8126 0.0
C3421 C 0.24977 0.94899 0.86018 0.0
C3422 C 0.3628 0.95976 0.02097 0.0
C3423 C 0.34913 0.95156 0.99658 0.0
H3424 H 0.39439 0.98066 0.04292 0.0
C3425 C 0.357 0.95944 0.97521 0.0
H3426 H 0.35697 0.9543 0.03784 0.0
C3427 C 0.3786 0.97436 0.97807 0.0
C3428 C 0.39263 0.98185 1.0024 0.0
H3429 H 0.34682 0.95325 0.9562 0.0
H3430 H 0.38459 0.97925 0.96109 0.0
C3431 C 0.38426 0.97478 0.02386 0.0
C3432 C 0.8647 0.6993 0.80367 0.0
C3433 C 0.85313 0.67402 0.79422 0.0
H3434 H 0.86392 0.73837 0.81221 0.0
C3435 C 0.82948 0.67146 0.78578 0.0
H3436 H 0.8827 0.70353 0.81036 0.0
C3437 C 0.81847 0.69211 0.7868 0.0
C3438 C 0.83007 0.71722 0.79631 0.0
H3439 H 0.81897 0.65319 0.77845 0.0
H3440 H 0.80045 0.68815 0.78013 0.0
C3441 C 0.85366 0.71995 0.80467 0.0
C3442 C 0.88537 0.60948 0.06076 0.0
C3443 C 0.86876 0.60321 0.03829 0.0
H3444 H 0.91658 0.60448 0.08077 0.0
C3445 C 0.87195 0.58619 0.01805 0.0
H3446 H 0.88392 0.62291 0.07658 0.0
C3447 C 0.8908 0.57531 0.02053 0.0
C3448 C 0.90718 0.5812 0.04328 0.0
H3449 H 0.85954 0.58072 1.00048 0.0
H3450 H 0.89216 0.56173 1.0048 0.0
C3451 C 0.90423 0.59879 0.06317 0.0
C3452 C 0.255 0.19636 0.84764 0.0
C3453 C 0.23691 0.18466 0.82737 0.0
H3454 H 0.28594 0.22392 0.86012 0.0
C3455 C 0.23647 0.19345 0.80381 0.0
H3456 H 0.25594 0.19086 0.86631 0.0
C3457 C 0.25341 0.21301 0.80065 0.0
C3458 C 0.2716 0.22405 0.82069 0.0
H3459 H 0.22337 0.18488 0.7874 0.0
H3460 H 0.25255 0.21907 0.7822 0.0
C3461 C 0.27223 0.21555 0.84423 0.0
C3462 C 0.34788 0.89017 0.27325 0.0
C3463 C 0.35168 0.91017 0.29402 0.0
H3464 H 0.33555 0.85081 0.25859 0.0
C3465 C 0.34468 0.90346 0.3166 0.0
H3466 H 0.35293 0.89368 0.25542 0.0
C3467 C 0.3347 0.87858 0.31841 0.0
C3468 C 0.33103 0.85864 0.2978 0.0
H3469 H 0.34653 0.91756 0.33315 0.0
H3470 H 0.32973 0.87503 0.33629 0.0
C3471 C 0.33789 0.86513 0.27511 0.0
C3472 C 0.58927 0.4422 0.597 0.0
C3473 C 0.57116 0.42189 0.59622 0.0
H3474 H 0.60008 0.4792 0.58905 0.0
C3475 C 0.54942 0.42454 0.58595 0.0
H3476 H 0.60634 0.44112 0.60443 0.0
C3477 C 0.54588 0.44636 0.57694 0.0
C3478 C 0.56388 0.46666 0.5778 0.0
H3479 H 0.53484 0.4099 0.5853 0.0
H3480 H 0.52877 0.44733 0.56954 0.0
C3481 C 0.5857 0.46415 0.58795 0.0
C3482 C 0.38531 0.78704 0.37746 0.0
C3483 C 0.39364 0.76503 0.37546 0.0
H3484 H 0.35875 0.80527 0.36477 0.0
C3485 C 0.3797 0.74389 0.35914 0.0
H3486 H 0.39502 0.80373 0.39008 0.0
C3487 C 0.3587 0.74475 0.34514 0.0
C3488 C 0.35074 0.76683 0.34651 0.0
H3489 H 0.3852 0.72663 0.3564 0.0
H3490 H 0.34888 0.72804 0.33257 0.0
C3491 C 0.36425 0.78794 0.36313 0.0
C3492 C 0.04221 0.64761 0.08262 0.0
C3493 C 0.06385 0.66331 0.08943 0.0
H3494 H 0.02232 0.61062 0.07016 0.0
C3495 C 0.08246 0.65239 0.08773 0.0
H3496 H 0.02743 0.65507 0.08394 0.0
C3497 C 0.07953 0.62665 0.07979 0.0
C3498 C 0.05788 0.61093 0.07345 0.0
H3499 H 0.09939 0.66377 0.09251 0.0
H3500 H 0.09429 0.61904 0.07894 0.0
C3501 C 0.03929 0.62191 0.07486 0.0
C3502 C 0.13569 0.29299 0.88924 0.0
C3503 C 0.11741 0.27233 0.88109 0.0
H3504 H 0.16866 0.31123 0.88519 0.0
C3505 C 0.11929 0.2538 0.86145 0.0
H3506 H 0.13531 0.30748 0.90461 0.0
C3507 C 0.13862 0.25594 0.85031 0.0
C3508 C 0.15682 0.27669 0.85834 0.0
H3509 H 0.1056 0.23776 0.85423 0.0
H3510 H 0.13904 0.24147 0.83492 0.0
C3511 C 0.155 0.29515 0.87806 0.0
C3512 C 0.51128 0.70028 0.97609 0.0
C3513 C 0.52293 0.70098 0.95568 0.0
H3514 H 0.50336 0.68215 1.00714 0.0
C3515 C 0.5338 0.68185 0.94919 0.0
H3516 H 0.50302 0.71503 0.98163 0.0
C3517 C 0.53377 0.66278 0.9636 0.0
C3518 C 0.5231 0.66276 0.98489 0.0
H3519 H 0.54268 0.68194 0.93331 0.0
H3520 H 0.54253 0.64839 0.95844 0.0
C3521 C 0.51144 0.6814 0.99064 0.0
C3522 C 0.19505 0.78643 0.77885 0.0
C3523 C 0.18363 0.76161 0.76971 0.0
H3524 H 0.2268 0.81192 0.79265 0.0
C3525 C 0.1962 0.74349 0.76577 0.0
H3526 H 0.18588 0.80098 0.78139 0.0
C3527 C 0.21962 0.74989 0.77149 0.0
C3528 C 0.23098 0.7745 0.78163 0.0
H3529 H 0.18796 0.72419 0.75891 0.0
H3530 H 0.22872 0.73527 0.76906 0.0
C3531 C 0.21849 0.79279 0.78489 0.0
C3532 C 0.0472 0.42386 0.53283 0.0
C3533 C 0.03393 0.41807 0.50807 0.0
H3534 H 0.05924 0.45092 0.56711 0.0
C3535 C 0.02083 0.43451 0.49993 0.0
H3536 H 0.05735 0.41142 0.53966 0.0
C3537 C 0.0219 0.45682 0.51551 0.0
C3538 C 0.03591 0.46327 0.53965 0.0
H3539 H 1.01068 0.43087 0.48086 0.0
H3540 H 1.0126 0.46952 0.50797 0.0
C3541 C 0.04806 0.44627 0.54862 0.0
C3542 C 0.4769 0.29803 0.30334 0.0
C3543 C 0.47404 0.27645 0.2852 0.0
H3544 H 0.46104 0.3236 0.32299 0.0
C3545 C 0.45214 0.2626 0.27478 0.0
H3546 H 0.49358 0.30891 0.31201 0.0
C3547 C 0.43351 0.27089 0.28128 0.0
C3548 C 0.43636 0.29324 0.29829 0.0
H3549 H 0.44931 0.24597 0.26068 0.0
H3550 H 0.41683 0.26009 0.27249 0.0
C3551 C 0.45826 0.30634 0.30981 0.0
C3552 C 0.57958 0.5144 0.45002 0.0
C3553 C 0.59205 0.53841 0.4495 0.0
H3554 H 0.56065 0.49027 0.47086 0.0
C3555 C 0.59535 0.55647 0.47165 0.0
H3556 H 0.57622 0.49993 0.43346 0.0
C3557 C 0.5861 0.55088 0.49315 0.0
C3558 C 0.57338 0.527 0.49336 0.0
H3559 H 0.60512 0.57505 0.47248 0.0
H3560 H 0.58856 0.56547 0.50945 0.0
C3561 C 0.5705 0.5088 0.47157 0.0
C3562 C 0.32565 0.81802 0.12187 0.0
C3563 C 0.3087 0.80135 0.10359 0.0
H3564 H 0.34636 0.82428 0.15908 0.0
C3565 C 0.30266 0.7765 0.10682 0.0
H3566 H 0.33067 0.8373 0.11982 0.0
C3567 C 0.31154 0.76913 0.12932 0.0
C3568 C 0.32658 0.78653 0.14889 0.0
H3569 H 0.28994 0.7632 0.09272 0.0
H3570 H 0.30502 0.75041 0.13227 0.0
C3571 C 0.33456 0.81064 0.14438 0.0
C3572 C 0.9868 0.53737 0.95171 0.0
C3573 C 0.99646 0.54835 0.93224 0.0
H3574 H 0.99173 0.52652 0.98942 0.0
C3575 C 0.02012 0.55714 0.93834 0.0
H3576 H 0.96878 0.53034 0.94858 0.0
C3577 C 0.03325 0.55486 0.96187 0.0
C3578 C 0.02378 0.54394 0.98127 0.0
H3579 H 0.02888 0.56538 0.92453 0.0
H3580 H 0.0513 0.56165 0.96474 0.0
C3581 C 1.00007 0.53535 0.97563 0.0
C3582 C 0.30619 0.25643 0.68605 0.0
C3583 C 0.28528 0.24412 0.67055 0.0
H3584 H 0.32442 0.27422 0.72346 0.0
C3585 C 0.26617 0.24125 0.6822 0.0
H3586 H 0.32128 0.25953 0.67795 0.0
C3587 C 0.26795 0.25012 0.70838 0.0
C3588 C 0.28891 0.26191 0.72387 0.0
H3589 H 0.2498 0.23155 0.67129 0.0
H3590 H 0.25289 0.24717 0.71659 0.0
C3591 C 0.30798 0.26505 0.71227 0.0
C3592 C 0.58522 0.56755 0.17735 0.0
C3593 C 0.58679 0.54689 0.1895 0.0
H3594 H 0.57672 0.58108 0.14238 0.0
C3595 C 0.58039 0.52312 0.17422 0.0
H3596 H 0.58968 0.58611 0.18839 0.0
C3597 C 0.57293 0.52019 0.14757 0.0
C3598 C 0.57149 0.54093 0.13549 0.0
H3599 H 0.58157 0.50677 0.18278 0.0
H3600 H 0.56828 0.50165 0.13645 0.0
C3601 C 0.57766 0.56462 0.15084 0.0
C3602 C 0.23539 0.75313 0.88746 0.0
C3603 C 0.23983 0.77593 0.90389 0.0
H3604 H 0.24676 0.73125 0.85821 0.0
C3605 C 0.26034 0.79297 0.90613 0.0
H3606 H 0.21968 0.73976 0.88574 0.0
C3607 C 0.27587 0.78788 0.89125 0.0
C3608 C 0.27094 0.76589 0.87362 0.0
H3609 H 0.26401 0.8106 0.91891 0.0
H3610 H 0.29132 0.80159 0.89273 0.0
C3611 C 0.25092 0.74817 0.87215 0.0
C3612 C 1.00937 0.54484 0.66577 0.0
C3613 C 0.98556 0.54104 0.66342 0.0
H3614 H 0.03856 0.54565 0.64789 0.0
C3615 C 0.9737 0.53446 0.63747 0.0
H3616 H 0.01994 0.54957 0.68459 0.0
C3617 C 0.98477 0.53204 0.61579 0.0
C3618 C 1.00855 0.5359 0.61834 0.0
H3619 H 0.95556 0.5314 0.63357 0.0
H3620 H 0.97446 0.52716 0.59679 0.0
C3621 C 0.02038 0.54236 0.64416 0.0
C3622 C 0.30742 0.24056 0.4049 0.0
C3623 C 0.28735 0.2414 0.41403 0.0
H3624 H 0.32834 0.25094 0.37811 0.0
C3625 C 0.27228 0.25374 0.40087 0.0
H3626 H 0.31929 0.23076 0.41363 0.0
C3627 C 0.27747 0.26525 0.37982 0.0
C3628 C 0.29788 0.26478 0.37135 0.0
H3629 H 0.25667 0.25502 0.40715 0.0
H3630 H 0.26574 0.27489 0.37055 0.0
C3631 C 0.31259 0.25207 0.38416 0.0
C3632 C 0.44117 0.62468 0.55223 0.0
C3633 C 0.42176 0.622 0.56305 0.0
H3634 H 0.46424 0.60604 0.53607 0.0
C3635 C 0.40918 0.59812 0.56333 0.0
H3636 H 0.45103 0.64292 0.55174 0.0
C3637 C 0.41649 0.5772 0.55403 0.0
C3638 C 0.43642 0.57998 0.54438 0.0
H3639 H 0.39389 0.59568 0.57112 0.0
H3640 H 0.40718 0.55894 0.5554 0.0
C3641 C 0.44858 0.60372 0.54312 0.0
C3642 C 0.95824 0.9703 0.55494 0.0
C3643 C 0.94688 0.97707 0.5748 0.0
H3644 H 0.98725 0.97913 0.53729 0.0
C3645 C 0.9575 0.99864 0.59272 0.0
H3646 H 0.95104 0.95367 0.54093 0.0
C3647 C 0.97841 1.01297 0.59076 0.0
C3648 C 0.9895 1.00646 0.57072 0.0
H3649 H 0.94945 1.00496 0.60806 0.0
H3650 H 0.98574 0.02953 0.60486 0.0
C3651 C 0.9792 0.9848 0.55291 0.0
C3652 C 0.86687 0.10927 0.2947 0.0
C3653 C 0.88443 0.11072 0.28078 0.0
H3654 H 0.84081 0.1257 0.30648 0.0
C3655 C 0.88914 0.13104 0.26792 0.0
H3656 H 0.8626 0.0938 0.30463 0.0
C3657 C 0.8765 0.14937 0.26887 0.0
C3658 C 0.85873 0.14766 0.28252 0.0
H3659 H 0.90268 0.13288 0.25722 0.0
H3660 H 0.88034 0.1646 0.25851 0.0
C3661 C 0.8542 0.12746 0.29554 0.0
C3662 C 0.72901 0.12519 0.11427 0.0
C3663 C 0.73609 0.12792 0.09097 0.0
H3664 H 0.70268 0.10974 0.13281 0.0
C3665 C 0.72166 0.11576 0.06793 0.0
H3666 H 0.7399 0.13402 0.13236 0.0
C3667 C 0.70043 0.10146 0.0682 0.0
C3668 C 0.69324 0.09903 0.09151 0.0
H3669 H 0.72661 0.11764 0.04967 0.0
H3670 H 0.68965 0.09232 0.05015 0.0
C3671 C 0.70781 0.11095 0.11454 0.0
C3672 C 0.22972 0.36705 0.31217 0.0
C3673 C 0.24138 0.39237 0.31454 0.0
H3674 H 0.23036 0.32795 0.30951 0.0
C3675 C 0.26515 0.39501 0.3162 0.0
H3676 H 0.21171 0.36276 0.31098 0.0
C3677 C 0.27615 0.37434 0.31546 0.0
C3678 C 0.2644 0.34918 0.31302 0.0
H3679 H 0.27569 0.4133 0.31786 0.0
H3680 H 0.29421 0.37825 0.31666 0.0
C3681 C 0.24073 0.34643 0.31142 0.0
C3682 C 0.20834 0.4554 0.04682 0.0
C3683 C 0.2254 0.46302 0.06883 0.0
H3684 H 0.17654 0.459 0.02695 0.0
C3685 C 0.22264 0.48126 0.08817 0.0
H3686 H 0.20951 0.44105 0.03172 0.0
C3687 C 0.20366 0.49187 0.08534 0.0
C3688 C 0.18669 0.48446 0.06314 0.0
H3689 H 0.23543 0.48781 0.10533 0.0
H3690 H 0.20263 0.50635 0.10037 0.0
C3691 C 0.18931 0.46582 0.04408 0.0
C3692 C 0.86247 0.8708 0.30018 0.0
C3693 C 0.85876 0.88562 0.28117 0.0
H3694 H 0.84855 0.84172 0.31931 0.0
C3695 C 0.83716 0.88012 0.26549 0.0
H3696 H 0.87875 0.87371 0.31246 0.0
C3697 C 0.82005 0.86066 0.26874 0.0
C3698 C 0.82384 0.84631 0.288 0.0
H3699 H 0.83315 0.89114 0.25097 0.0
H3700 H 0.80372 0.85707 0.25634 0.0
C3701 C 0.8452 0.85183 0.30381 0.0
C3702 C 0.74937 0.16093 0.79476 0.0
C3703 C 0.7416 0.15447 0.81706 0.0
H3704 H 0.76512 0.18909 0.77526 0.0
C3705 C 0.74492 0.1747 0.8375 0.0
H3706 H 0.74794 0.14668 0.77845 0.0
C3707 C 0.75522 0.19964 0.83564 0.0
C3708 C 0.76283 0.20587 0.81323 0.0
H3709 H 0.73927 0.17148 0.8551 0.0
H3710 H 0.75716 0.21411 0.85192 0.0
C3711 C 0.7596 0.18574 0.79292 0.0
loop_
_geom_bond_atom_site_label_1
_geom_bond_atom_site_label_2
_geom_bond_distance
_geom_bond_site_symmetry_2
_ccdc_geom_bond_type
Li0 N17 1.990 . S
Li0 O60 1.956 1_655 S
Li0 O61 1.970 . S
Li0 O62 1.961 . S
Li1 N25 1.990 . S
Li1 O60 1.970 . S
Li1 O61 1.956 1_455 S
Li1 O63 1.961 . S
Li2 N47 1.990 . S
Li2 O60 1.961 . S
Li2 O62 1.956 1_455 S
Li2 O63 1.970 . S
Li3 N53 1.990 . S
Li3 O61 1.961 1_455 S
Li3 O62 1.970 1_455 S
Li3 O63 1.956 . S
C4 C6 1.345 1_455 S
C4 C7 1.356 . S
C4 O60 1.325 . S
N5 C8 1.313 1_455 S
N5 C9 1.279 . S
C6 C4 1.345 1_655 S
C6 C8 1.353 . S
C6 H64 0.932 . S
C7 C4 1.356 . S
C7 C9 1.358 . S
C7 H65 0.930 . S
C8 N5 1.313 1_655 S
C8 C6 1.353 . S
C8 H66 0.931 . S
C9 N5 1.279 . S
C9 C7 1.358 . S
C9 H67 0.930 . S
C10 C13 1.348 . S
C10 C14 1.356 . S
C10 O61 1.325 . S
C11 N12 1.279 . S
C11 C14 1.358 . S
C11 H68 0.930 . S
N12 C11 1.279 . S
N12 C15 1.314 . S
C13 C10 1.348 . S
C13 C15 1.353 . S
C13 H69 0.929 . S
C14 C10 1.356 . S
C14 C11 1.358 . S
C14 H70 0.930 . S
C15 N12 1.314 . S
C15 C13 1.353 . S
C15 H71 0.930 . S
C16 N17 1.314 . S
C16 C21 1.353 . S
C16 H22 0.930 . S
N17 Li0 1.990 . S
N17 C16 1.314 . S
N17 C19 1.279 . S
C18 C19 1.358 . S
C18 C20 1.356 . S
C18 H72 0.930 . S
C19 N17 1.279 . S
C19 C18 1.358 . S
C19 H23 0.930 . S
C20 C18 1.356 . S
C20 C21 1.348 . S
C21 C16 1.353 . S
C21 C20 1.348 . S
C21 H73 0.929 . S
H22 C16 0.930 . S
H23 C19 0.930 . S
C24 N25 1.314 . S
C24 C26 1.353 . S
C24 H30 0.930 . S
N25 Li1 1.990 . S
N25 C24 1.314 . S
N25 C28 1.279 1_455 S
C26 C24 1.353 . S
C26 C29 1.348 . S
C26 H74 0.929 . S
C27 C28 1.360 1_455 S
C27 C29 1.364 . S
C27 H75 0.920 1_455 S
C28 N25 1.279 1_655 S
C28 C27 1.360 1_655 S
C28 H31 0.930 . S
C29 C26 1.348 . S
C29 C27 1.364 . S
H30 C24 0.930 . S
H31 C28 0.930 . S
C32 C34 1.348 . S
C32 C35 1.356 . S
C32 O62 1.325 . S
N33 C36 1.314 . S
N33 C37 1.279 . S
C34 C32 1.348 . S
C34 C36 1.353 . S
C34 H76 0.929 1_655 S
C35 C32 1.356 . S
C35 C37 1.358 . S
C35 H77 0.930 . S
C36 N33 1.314 . S
C36 C34 1.353 . S
C36 H78 0.930 . S
C37 N33 1.279 . S
C37 C35 1.358 . S
C37 H79 0.930 . S
C38 C39 1.348 . S
C38 C40 1.356 . S
C38 O63 1.325 . S
C39 C38 1.348 . S
C39 C41 1.353 . S
C39 H80 0.929 . S
C40 C38 1.356 . S
C40 C42 1.358 . S
C40 H81 0.930 . S
C41 C39 1.353 . S
C41 N43 1.314 . S
C41 H82 0.930 . S
C42 C40 1.358 . S
C42 N43 1.279 . S
C42 H83 0.930 . S
N43 C41 1.314 . S
N43 C42 1.279 . S
C44 C46 1.353 . S
C44 N47 1.314 . S
C44 H50 0.930 . S
C45 N47 1.279 . S
C45 C48 1.358 . S
C45 H51 0.930 . S
C46 C44 1.353 . S
C46 C49 1.348 . S
C46 H84 0.929 . S
N47 Li2 1.990 . S
N47 C44 1.314 . S
N47 C45 1.279 . S
C48 C45 1.358 . S
C48 C49 1.356 . S
C48 H85 0.930 . S
C49 C46 1.348 . S
C49 C48 1.356 . S
H50 C44 0.930 . S
H51 C45 0.930 . S
C52 N53 1.314 1_655 S
C52 C54 1.353 . S
C52 H58 0.930 . S
N53 Li3 1.990 . S
N53 C52 1.314 1_455 S
N53 C56 1.279 . S
C54 C52 1.353 . S
C54 C57 1.337 1_655 S
C54 H86 0.929 . S
C55 C56 1.358 . S
C55 C57 1.366 . S
C55 H87 0.930 . S
C56 N53 1.279 . S
C56 C55 1.358 . S
C56 H59 0.930 . S
C57 C54 1.337 1_455 S
C57 C55 1.366 . S
H58 C52 0.930 . S
H59 C56 0.930 . S
O60 Li0 1.956 1_455 S
O60 Li1 1.970 . S
O60 Li2 1.961 . S
O60 C4 1.325 . S
O61 Li0 1.970 . S
O61 Li1 1.956 1_655 S
O61 Li3 1.961 1_655 S
O61 C10 1.325 . S
O62 Li0 1.961 . S
O62 Li2 1.956 1_655 S
O62 Li3 1.970 1_655 S
O62 C32 1.325 . S
O63 Li1 1.961 . S
O63 Li2 1.970 . S
O63 Li3 1.956 . S
O63 C38 1.325 . S
H64 C6 0.932 . S
H65 C7 0.930 . S
H66 C8 0.931 . S
H67 C9 0.930 . S
H68 C11 0.930 . S
H69 C13 0.929 . S
H70 C14 0.930 . S
H71 C15 0.930 . S
H72 C18 0.930 . S
H73 C21 0.929 . S
H74 C26 0.929 . S
H75 C27 0.920 1_655 S
H76 C34 0.929 1_455 S
H77 C35 0.930 . S
H78 C36 0.930 . S
H79 C37 0.930 . S
H80 C39 0.929 . S
H81 C40 0.930 . S
H82 C41 0.930 . S
H83 C42 0.930 . S
H84 C46 0.929 . S
H85 C48 0.930 . S
H86 C54 0.929 . S
H87 C55 0.930 . S
Li88 N105 1.990 . S
Li88 O148 1.956 . S
Li88 O149 1.970 . S
Li88 O150 1.961 . S
Li89 N113 1.990 . S
Li89 O148 1.970 . S
Li89 O149 1.956 . S
Li89 O151 1.961 . S
Li90 N135 1.990 . S
Li90 O148 1.961 . S
Li90 O150 1.956 . S
Li90 O151 1.970 . S
Li91 N141 1.990 . S
Li91 O149 1.961 . S
Li91 O150 1.970 . S
Li91 O151 1.956 . S
C92 C94 1.348 . S
C92 C95 1.356 . S
C92 O148 1.325 . S
N93 C96 1.314 . S
N93 C97 1.279 . S
C94 C92 1.348 . S
C94 C96 1.353 . S
C94 H152 0.929 . S
C95 C92 1.356 . S
C95 C97 1.358 . S
C95 H153 0.930 . S
C96 N93 1.314 . S
C96 C94 1.353 . S
C96 H154 0.930 . S
C97 N93 1.279 . S
C97 C95 1.358 . S
C97 H155 0.930 . S
C98 C101 1.348 . S
C98 C102 1.356 . S
C98 O149 1.325 . S
C99 N100 1.279 . S
C99 C102 1.358 . S
C99 H156 0.930 . S
N100 C99 1.279 . S
N100 C103 1.314 . S
C101 C98 1.348 . S
C101 C103 1.353 . S
C101 H157 0.929 . S
C102 C98 1.356 . S
C102 C99 1.358 . S
C102 H158 0.930 . S
C103 N100 1.314 . S
C103 C101 1.353 . S
C103 H159 0.930 . S
C104 N105 1.314 . S
C104 C109 1.353 . S
C104 H110 0.930 . S
N105 Li88 1.990 . S
N105 C104 1.314 . S
N105 C107 1.279 . S
C106 C107 1.358 . S
C106 C108 1.356 . S
C106 H160 0.930 . S
C107 N105 1.279 . S
C107 C106 1.358 . S
C107 H111 0.930 . S
C108 C106 1.356 . S
C108 C109 1.348 . S
C109 C104 1.353 . S
C109 C108 1.348 . S
C109 H161 0.929 . S
H110 C104 0.930 . S
H111 C107 0.930 . S
C112 N113 1.314 . S
C112 C114 1.353 . S
C112 H118 0.930 . S
N113 Li89 1.990 . S
N113 C112 1.314 . S
N113 C116 1.279 . S
C114 C112 1.353 . S
C114 C117 1.348 . S
C114 H162 0.929 . S
C115 C116 1.358 . S
C115 C117 1.356 . S
C115 H163 0.930 . S
C116 N113 1.279 . S
C116 C115 1.358 . S
C116 H119 0.930 . S
C117 C114 1.348 . S
C117 C115 1.356 . S
H118 C112 0.930 . S
H119 C116 0.930 . S
C120 C122 1.379 . S
C120 C123 1.356 . S
C120 O150 1.325 . S
N121 C124 1.314 . S
N121 C125 1.325 . S
C122 C120 1.379 . S
C122 C124 1.327 1_455 S
C122 H164 0.923 . S
C123 C120 1.356 . S
C123 C125 1.320 1_455 S
C123 H165 0.930 . S
C124 N121 1.314 . S
C124 C122 1.327 1_655 S
C124 H166 0.930 . S
C125 N121 1.325 . S
C125 C123 1.320 1_655 S
C125 H167 0.928 . S
C126 C127 1.348 . S
C126 C128 1.356 . S
C126 O151 1.325 . S
C127 C126 1.348 . S
C127 C129 1.353 . S
C127 H168 0.929 . S
C128 C126 1.356 . S
C128 C130 1.358 . S
C128 H169 0.930 . S
C129 C127 1.353 . S
C129 N131 1.314 . S
C129 H170 0.930 . S
C130 C128 1.358 . S
C130 N131 1.279 . S
C130 H171 0.930 . S
N131 C129 1.314 . S
N131 C130 1.279 . S
C132 C134 1.353 . S
C132 N135 1.314 . S
C132 H138 0.930 . S
C133 N135 1.279 . S
C133 C136 1.358 . S
C133 H139 0.930 . S
C134 C132 1.353 . S
C134 C137 1.348 . S
C134 H172 0.929 . S
N135 Li90 1.990 . S
N135 C132 1.314 . S
N135 C133 1.279 . S
C136 C133 1.358 . S
C136 C137 1.356 . S
C136 H173 0.930 . S
C137 C134 1.348 . S
C137 C136 1.356 . S
H138 C132 0.930 . S
H139 C133 0.930 . S
C140 N141 1.314 . S
C140 C142 1.353 1_455 S
C140 H146 0.930 . S
N141 Li91 1.990 . S
N141 C140 1.314 . S
N141 C144 1.279 . S
C142 C140 1.353 1_655 S
C142 C145 1.348 . S
C142 H174 0.929 . S
C143 C144 1.358 1_655 S
C143 C145 1.356 . S
C143 H175 0.930 . S
C144 N141 1.279 . S
C144 C143 1.358 1_455 S
C144 H147 0.930 . S
C145 C142 1.348 . S
C145 C143 1.356 . S
H146 C140 0.930 . S
H147 C144 0.930 . S
O148 Li88 1.956 . S
O148 Li89 1.970 . S
O148 Li90 1.961 . S
O148 C92 1.325 . S
O149 Li88 1.970 . S
O149 Li89 1.956 . S
O149 Li91 1.961 . S
O149 C98 1.325 . S
O150 Li88 1.961 . S
O150 Li90 1.956 . S
O150 Li91 1.970 . S
O150 C120 1.325 . S
O151 Li89 1.961 . S
O151 Li90 1.970 . S
O151 Li91 1.956 . S
O151 C126 1.325 . S
H152 C94 0.929 . S
H153 C95 0.930 . S
H154 C96 0.930 . S
H155 C97 0.930 . S
H156 C99 0.930 . S
H157 C101 0.929 . S
H158 C102 0.930 . S
H159 C103 0.930 . S
H160 C106 0.930 . S
H161 C109 0.929 . S
H162 C114 0.929 . S
H163 C115 0.930 . S
H164 C122 0.923 . S
H165 C123 0.930 . S
H166 C124 0.930 . S
H167 C125 0.928 . S
H168 C127 0.929 . S
H169 C128 0.930 . S
H170 C129 0.930 . S
H171 C130 0.930 . S
H172 C134 0.929 . S
H173 C136 0.930 . S
H174 C142 0.929 . S
H175 C143 0.930 . S
Li176 N193 1.990 . S
Li176 O236 1.956 . S
Li176 O237 1.970 . S
Li176 O238 1.961 . S
Li177 N201 1.990 . S
Li177 O236 1.970 . S
Li177 O237 1.956 . S
Li177 O239 1.961 . S
Li178 N223 1.990 . S
Li178 O236 1.961 . S
Li178 O238 1.956 . S
Li178 O239 1.970 . S
Li179 N229 1.990 . S
Li179 O237 1.961 . S
Li179 O238 1.970 . S
Li179 O239 1.956 . S
C180 C182 1.348 . S
C180 C183 1.356 . S
C180 O236 1.325 . S
N181 C184 1.314 . S
N181 C185 1.279 . S
C182 C180 1.348 . S
C182 C184 1.353 . S
C182 H240 0.929 . S
C183 C180 1.356 . S
C183 C185 1.358 . S
C183 H241 0.930 . S
C184 N181 1.314 . S
C184 C182 1.353 . S
C184 H242 0.930 . S
C185 N181 1.279 . S
C185 C183 1.358 . S
C185 H243 0.930 . S
C186 C189 1.348 . S
C186 C190 1.356 . S
C186 O237 1.325 . S
C187 N188 1.279 . S
C187 C190 1.358 . S
C187 H244 0.930 . S
N188 C187 1.279 . S
N188 C191 1.314 . S
C189 C186 1.348 . S
C189 C191 1.353 . S
C189 H245 0.929 . S
C190 C186 1.356 . S
C190 C187 1.358 . S
C190 H246 0.930 . S
C191 N188 1.314 . S
C191 C189 1.353 . S
C191 H247 0.930 . S
C192 N193 1.314 . S
C192 C197 1.353 . S
C192 H198 0.930 . S
N193 Li176 1.990 . S
N193 C192 1.314 . S
N193 C195 1.279 . S
C194 C195 1.358 . S
C194 C196 1.356 . S
C194 H248 0.930 . S
C195 N193 1.279 . S
C195 C194 1.358 . S
C195 H199 0.930 . S
C196 C194 1.356 . S
C196 C197 1.348 . S
C197 C192 1.353 . S
C197 C196 1.348 . S
C197 H249 0.929 . S
H198 C192 0.930 . S
H199 C195 0.930 . S
C200 N201 1.314 . S
C200 C202 1.353 . S
C200 H206 0.930 . S
N201 Li177 1.990 . S
N201 C200 1.314 . S
N201 C204 1.279 . S
C202 C200 1.353 . S
C202 C205 1.348 . S
C202 H250 0.929 . S
C203 C204 1.358 . S
C203 C205 1.356 . S
C203 H251 0.930 . S
C204 N201 1.279 . S
C204 C203 1.358 . S
C204 H207 0.930 . S
C205 C202 1.348 . S
C205 C203 1.356 . S
H206 C200 0.930 . S
H207 C204 0.930 . S
C208 C210 1.348 . S
C208 C211 1.356 . S
C208 O238 1.325 . S
N209 C212 1.314 . S
N209 C213 1.279 . S
C210 C208 1.348 . S
C210 C212 1.353 . S
C210 H252 0.929 . S
C211 C208 1.356 . S
C211 C213 1.358 . S
C211 H253 0.930 . S
C212 N209 1.314 . S
C212 C210 1.353 . S
C212 H254 0.930 . S
C213 N209 1.279 . S
C213 C211 1.358 . S
C213 H255 0.930 . S
C214 C215 1.348 . S
C214 C216 1.356 . S
C214 O239 1.325 . S
C215 C214 1.348 . S
C215 C217 1.353 . S
C215 H256 0.929 . S
C216 C214 1.356 . S
C216 C218 1.358 . S
C216 H257 0.930 . S
C217 C215 1.353 . S
C217 N219 1.314 . S
C217 H258 0.930 . S
C218 C216 1.358 . S
C218 N219 1.279 . S
C218 H259 0.930 . S
N219 C217 1.314 . S
N219 C218 1.279 . S
C220 C222 1.353 . S
C220 N223 1.314 . S
C220 H226 0.930 . S
C221 N223 1.279 . S
C221 C224 1.358 . S
C221 H227 0.930 . S
C222 C220 1.353 . S
C222 C225 1.348 . S
C222 H260 0.929 . S
N223 Li178 1.990 . S
N223 C220 1.314 . S
N223 C221 1.279 . S
C224 C221 1.358 . S
C224 C225 1.356 . S
C224 H261 0.930 . S
C225 C222 1.348 . S
C225 C224 1.356 . S
H226 C220 0.930 . S
H227 C221 0.930 . S
C228 N229 1.314 . S
C228 C230 1.353 . S
C228 H234 0.930 . S
N229 Li179 1.990 . S
N229 C228 1.314 . S
N229 C232 1.279 . S
C230 C228 1.353 . S
C230 C233 1.348 . S
C230 H262 0.929 . S
C231 C232 1.358 . S
C231 C233 1.356 . S
C231 H263 0.930 . S
C232 N229 1.279 . S
C232 C231 1.358 . S
C232 H235 0.930 . S
C233 C230 1.348 . S
C233 C231 1.356 . S
H234 C228 0.930 . S
H235 C232 0.930 . S
O236 Li176 1.956 . S
O236 Li177 1.970 . S
O236 Li178 1.961 . S
O236 C180 1.325 . S
O237 Li176 1.970 . S
O237 Li177 1.956 . S
O237 Li179 1.961 . S
O237 C186 1.325 . S
O238 Li176 1.961 . S
O238 Li178 1.956 . S
O238 Li179 1.970 . S
O238 C208 1.325 . S
O239 Li177 1.961 . S
O239 Li178 1.970 . S
O239 Li179 1.956 . S
O239 C214 1.325 . S
H240 C182 0.929 . S
H241 C183 0.930 . S
H242 C184 0.930 . S
H243 C185 0.930 . S
H244 C187 0.930 . S
H245 C189 0.929 . S
H246 C190 0.930 . S
H247 C191 0.930 . S
H248 C194 0.930 . S
H249 C197 0.929 . S
H250 C202 0.929 . S
H251 C203 0.930 . S
H252 C210 0.929 . S
H253 C211 0.930 . S
H254 C212 0.930 . S
H255 C213 0.930 . S
H256 C215 0.929 . S
H257 C216 0.930 . S
H258 C217 0.930 . S
H259 C218 0.930 . S
H260 C222 0.929 . S
H261 C224 0.930 . S
H262 C230 0.929 . S
H263 C231 0.930 . S
Li264 N281 1.990 . S
Li264 O324 1.956 . S
Li264 O325 1.970 . S
Li264 O326 1.961 . S
Li265 N289 1.990 . S
Li265 O324 1.970 . S
Li265 O325 1.956 . S
Li265 O327 1.961 . S
Li266 N311 1.990 . S
Li266 O324 1.961 . S
Li266 O326 1.956 . S
Li266 O327 1.970 . S
Li267 N317 1.990 . S
Li267 O325 1.961 . S
Li267 O326 1.970 . S
Li267 O327 1.956 . S
C268 C270 1.348 . S
C268 C271 1.356 . S
C268 O324 1.325 . S
N269 C272 1.314 . S
N269 C273 1.279 . S
C270 C268 1.348 . S
C270 C272 1.353 . S
C270 H328 0.929 . S
C271 C268 1.356 . S
C271 C273 1.358 . S
C271 H329 0.930 . S
C272 N269 1.314 . S
C272 C270 1.353 . S
C272 H330 0.930 . S
C273 N269 1.279 . S
C273 C271 1.358 . S
C273 H331 0.930 . S
C274 C277 1.348 . S
C274 C278 1.356 . S
C274 O325 1.325 . S
C275 N276 1.279 . S
C275 C278 1.358 . S
C275 H332 0.930 . S
N276 C275 1.279 . S
N276 C279 1.314 . S
C277 C274 1.348 . S
C277 C279 1.353 . S
C277 H333 0.929 . S
C278 C274 1.356 . S
C278 C275 1.358 . S
C278 H334 0.930 . S
C279 N276 1.314 . S
C279 C277 1.353 . S
C279 H335 0.930 . S
C280 N281 1.314 . S
C280 C285 1.353 . S
C280 H286 0.930 . S
N281 Li264 1.990 . S
N281 C280 1.314 . S
N281 C283 1.279 . S
C282 C283 1.358 . S
C282 C284 1.356 . S
C282 H336 0.930 . S
C283 N281 1.279 . S
C283 C282 1.358 . S
C283 H287 0.930 . S
C284 C282 1.356 . S
C284 C285 1.348 . S
C285 C280 1.353 . S
C285 C284 1.348 . S
C285 H337 0.929 . S
H286 C280 0.930 . S
H287 C283 0.930 . S
C288 N289 1.314 . S
C288 C290 1.353 . S
C288 H294 0.930 . S
N289 Li265 1.990 . S
N289 C288 1.314 . S
N289 C292 1.279 . S
C290 C288 1.353 . S
C290 C293 1.348 . S
C290 H338 0.929 . S
C291 C292 1.358 . S
C291 C293 1.356 . S
C291 H339 0.930 . S
C292 N289 1.279 . S
C292 C291 1.358 . S
C292 H295 0.930 . S
C293 C290 1.348 . S
C293 C291 1.356 . S
H294 C288 0.930 . S
H295 C292 0.930 . S
C296 C298 1.348 . S
C296 C299 1.356 . S
C296 O326 1.325 . S
N297 C300 1.314 . S
N297 C301 1.279 . S
C298 C296 1.348 . S
C298 C300 1.353 . S
C298 H340 0.929 . S
C299 C296 1.356 . S
C299 C301 1.358 . S
C299 H341 0.930 . S
C300 N297 1.314 . S
C300 C298 1.353 . S
C300 H342 0.930 . S
C301 N297 1.279 . S
C301 C299 1.358 . S
C301 H343 0.930 . S
C302 C303 1.348 . S
C302 C304 1.356 . S
C302 O327 1.325 . S
C303 C302 1.348 . S
C303 C305 1.353 . S
C303 H344 0.929 . S
C304 C302 1.356 . S
C304 C306 1.358 . S
C304 H345 0.930 . S
C305 C303 1.353 . S
C305 N307 1.314 . S
C305 H346 0.930 . S
C306 C304 1.358 . S
C306 N307 1.279 . S
C306 H347 0.930 . S
N307 C305 1.314 . S
N307 C306 1.279 . S
C308 C310 1.353 . S
C308 N311 1.314 . S
C308 H314 0.930 . S
C309 N311 1.279 . S
C309 C312 1.358 . S
C309 H315 0.930 . S
C310 C308 1.353 . S
C310 C313 1.348 . S
C310 H348 0.929 . S
N311 Li266 1.990 . S
N311 C308 1.314 . S
N311 C309 1.279 . S
C312 C309 1.358 . S
C312 C313 1.356 . S
C312 H349 0.930 . S
C313 C310 1.348 . S
C313 C312 1.356 . S
H314 C308 0.930 . S
H315 C309 0.930 . S
C316 N317 1.314 . S
C316 C318 1.353 . S
C316 H322 0.930 . S
N317 Li267 1.990 . S
N317 C316 1.314 . S
N317 C320 1.279 . S
C318 C316 1.353 . S
C318 C321 1.348 . S
C318 H350 0.929 . S
C319 C320 1.358 . S
C319 C321 1.356 . S
C319 H351 0.930 . S
C320 N317 1.279 . S
C320 C319 1.358 . S
C320 H323 0.930 . S
C321 C318 1.348 . S
C321 C319 1.356 . S
H322 C316 0.930 . S
H323 C320 0.930 . S
O324 Li264 1.956 . S
O324 Li265 1.970 . S
O324 Li266 1.961 . S
O324 C268 1.325 . S
O325 Li264 1.970 . S
O325 Li265 1.956 . S
O325 Li267 1.961 . S
O325 C274 1.325 . S
O326 Li264 1.961 . S
O326 Li266 1.956 . S
O326 Li267 1.970 . S
O326 C296 1.325 . S
O327 Li265 1.961 . S
O327 Li266 1.970 . S
O327 Li267 1.956 . S
O327 C302 1.325 . S
H328 C270 0.929 . S
H329 C271 0.930 . S
H330 C272 0.930 . S
H331 C273 0.930 . S
H332 C275 0.930 . S
H333 C277 0.929 . S
H334 C278 0.930 . S
H335 C279 0.930 . S
H336 C282 0.930 . S
H337 C285 0.929 . S
H338 C290 0.929 . S
H339 C291 0.930 . S
H340 C298 0.929 . S
H341 C299 0.930 . S
H342 C300 0.930 . S
H343 C301 0.930 . S
H344 C303 0.929 . S
H345 C304 0.930 . S
H346 C305 0.930 . S
H347 C306 0.930 . S
H348 C310 0.929 . S
H349 C312 0.930 . S
H350 C318 0.929 . S
H351 C319 0.930 . S
Li352 N369 1.990 . S
Li352 O412 1.956 . S
Li352 O413 1.970 . S
Li352 O414 1.961 . S
Li353 N377 1.990 . S
Li353 O412 1.970 . S
Li353 O413 1.956 . S
Li353 O415 1.961 . S
Li354 N399 1.990 . S
Li354 O412 1.961 . S
Li354 O414 1.956 . S
Li354 O415 1.970 . S
Li355 N405 1.990 . S
Li355 O413 1.961 . S
Li355 O414 1.970 . S
Li355 O415 1.956 . S
C356 C358 1.348 . S
C356 C359 1.356 . S
C356 O412 1.325 . S
N357 C360 1.314 . S
N357 C361 1.279 . S
C358 C356 1.348 . S
C358 C360 1.353 . S
C358 H416 0.929 . S
C359 C356 1.356 . S
C359 C361 1.358 . S
C359 H417 0.930 . S
C360 N357 1.314 . S
C360 C358 1.353 . S
C360 H418 0.930 . S
C361 N357 1.279 . S
C361 C359 1.358 . S
C361 H419 0.930 . S
C362 C365 1.348 . S
C362 C366 1.356 . S
C362 O413 1.325 . S
C363 N364 1.279 . S
C363 C366 1.358 . S
C363 H420 0.930 . S
N364 C363 1.279 . S
N364 C367 1.314 . S
C365 C362 1.348 . S
C365 C367 1.353 . S
C365 H421 0.929 . S
C366 C362 1.356 . S
C366 C363 1.358 . S
C366 H422 0.930 . S
C367 N364 1.314 . S
C367 C365 1.353 . S
C367 H423 0.930 . S
C368 N369 1.314 . S
C368 C373 1.353 . S
C368 H374 0.930 . S
N369 Li352 1.990 . S
N369 C368 1.314 . S
N369 C371 1.279 . S
C370 C371 1.358 . S
C370 C372 1.356 . S
C370 H424 0.930 . S
C371 N369 1.279 . S
C371 C370 1.358 . S
C371 H375 0.930 . S
C372 C370 1.356 . S
C372 C373 1.348 . S
C373 C368 1.353 . S
C373 C372 1.348 . S
C373 H425 0.929 . S
H374 C368 0.930 . S
H375 C371 0.930 . S
C376 N377 1.314 . S
C376 C378 1.353 . S
C376 H382 0.930 . S
N377 Li353 1.990 . S
N377 C376 1.314 . S
N377 C380 1.279 . S
C378 C376 1.353 . S
C378 C381 1.348 . S
C378 H426 0.929 . S
C379 C380 1.358 . S
C379 C381 1.356 . S
C379 H427 0.930 . S
C380 N377 1.279 . S
C380 C379 1.358 . S
C380 H383 0.930 . S
C381 C378 1.348 . S
C381 C379 1.356 . S
H382 C376 0.930 . S
H383 C380 0.930 . S
C384 C386 1.348 1_455 S
C384 C387 1.356 . S
C384 O414 1.325 . S
N385 C388 1.314 . S
N385 C389 1.279 . S
C386 C384 1.348 1_655 S
C386 C388 1.353 . S
C386 H428 0.929 . S
C387 C384 1.356 . S
C387 C389 1.358 1_455 S
C387 H429 0.930 . S
C388 N385 1.314 . S
C388 C386 1.353 . S
C388 H430 0.930 . S
C389 N385 1.279 . S
C389 C387 1.358 1_655 S
C389 H431 0.930 . S
C390 C391 1.348 . S
C390 C392 1.356 . S
C390 O415 1.325 . S
C391 C390 1.348 . S
C391 C393 1.353 . S
C391 H432 0.929 . S
C392 C390 1.356 . S
C392 C394 1.358 . S
C392 H433 0.930 . S
C393 C391 1.353 . S
C393 N395 1.314 . S
C393 H434 0.930 . S
C394 C392 1.358 . S
C394 N395 1.279 . S
C394 H435 0.930 . S
N395 C393 1.314 . S
N395 C394 1.279 . S
C396 C398 1.353 . S
C396 N399 1.314 . S
C396 H402 0.930 . S
C397 N399 1.279 . S
C397 C400 1.358 . S
C397 H403 0.930 . S
C398 C396 1.353 . S
C398 C401 1.348 . S
C398 H436 0.929 . S
N399 Li354 1.990 . S
N399 C396 1.314 . S
N399 C397 1.279 . S
C400 C397 1.358 . S
C400 C401 1.356 . S
C400 H437 0.930 . S
C401 C398 1.348 . S
C401 C400 1.356 . S
H402 C396 0.930 . S
H403 C397 0.930 . S
C404 N405 1.314 . S
C404 C406 1.353 1_455 S
C404 H410 0.930 . S
N405 Li355 1.990 . S
N405 C404 1.314 . S
N405 C408 1.279 . S
C406 C404 1.353 1_655 S
C406 C409 1.348 . S
C406 H438 0.929 . S
C407 C408 1.358 1_655 S
C407 C409 1.356 . S
C407 H439 0.930 . S
C408 N405 1.279 . S
C408 C407 1.358 1_455 S
C408 H411 0.930 . S
C409 C406 1.348 . S
C409 C407 1.356 . S
H410 C404 0.930 . S
H411 C408 0.930 . S
O412 Li352 1.956 . S
O412 Li353 1.970 . S
O412 Li354 1.961 . S
O412 C356 1.325 . S
O413 Li352 1.970 . S
O413 Li353 1.956 . S
O413 Li355 1.961 . S
O413 C362 1.325 . S
O414 Li352 1.961 . S
O414 Li354 1.956 . S
O414 Li355 1.970 . S
O414 C384 1.325 . S
O415 Li353 1.961 . S
O415 Li354 1.970 . S
O415 Li355 1.956 . S
O415 C390 1.325 . S
H416 C358 0.929 . S
H417 C359 0.930 . S
H418 C360 0.930 . S
H419 C361 0.930 . S
H420 C363 0.930 . S
H421 C365 0.929 . S
H422 C366 0.930 . S
H423 C367 0.930 . S
H424 C370 0.930 . S
H425 C373 0.929 . S
H426 C378 0.929 . S
H427 C379 0.930 . S
H428 C386 0.929 . S
H429 C387 0.930 . S
H430 C388 0.930 . S
H431 C389 0.930 . S
H432 C391 0.929 . S
H433 C392 0.930 . S
H434 C393 0.930 . S
H435 C394 0.930 . S
H436 C398 0.929 . S
H437 C400 0.930 . S
H438 C406 0.929 . S
H439 C407 0.930 . S
Li440 N457 1.990 . S
Li440 O500 1.956 . S
Li440 O501 1.970 . S
Li440 O502 1.961 . S
Li441 N465 1.990 . S
Li441 O500 1.970 . S
Li441 O501 1.956 . S
Li441 O503 1.961 . S
Li442 N487 1.990 . S
Li442 O500 1.961 . S
Li442 O502 1.956 . S
Li442 O503 1.970 . S
Li443 N493 1.990 . S
Li443 O501 1.961 . S
Li443 O502 1.970 . S
Li443 O503 1.956 . S
C444 C446 1.348 . S
C444 C447 1.356 . S
C444 O500 1.325 . S
N445 C448 1.314 . S
N445 C449 1.279 . S
C446 C444 1.348 . S
C446 C448 1.353 . S
C446 H504 0.929 . S
C447 C444 1.356 . S
C447 C449 1.358 . S
C447 H505 0.930 . S
C448 N445 1.314 . S
C448 C446 1.353 . S
C448 H506 0.930 . S
C449 N445 1.279 . S
C449 C447 1.358 . S
C449 H507 0.930 . S
C450 C453 1.348 . S
C450 C454 1.356 . S
C450 O501 1.325 . S
C451 N452 1.279 . S
C451 C454 1.358 . S
C451 H508 0.930 . S
N452 C451 1.279 . S
N452 C455 1.314 . S
C453 C450 1.348 . S
C453 C455 1.353 . S
C453 H509 0.929 . S
C454 C450 1.356 . S
C454 C451 1.358 . S
C454 H510 0.930 . S
C455 N452 1.314 . S
C455 C453 1.353 . S
C455 H511 0.930 . S
C456 N457 1.314 . S
C456 C461 1.353 . S
C456 H462 0.930 . S
N457 Li440 1.990 . S
N457 C456 1.314 . S
N457 C459 1.279 . S
C458 C459 1.358 . S
C458 C460 1.356 . S
C458 H512 0.930 . S
C459 N457 1.279 . S
C459 C458 1.358 . S
C459 H463 0.930 . S
C460 C458 1.356 . S
C460 C461 1.348 . S
C461 C456 1.353 . S
C461 C460 1.348 . S
C461 H513 0.929 . S
H462 C456 0.930 . S
H463 C459 0.930 . S
C464 N465 1.314 . S
C464 C466 1.353 . S
C464 H470 0.930 . S
N465 Li441 1.990 . S
N465 C464 1.314 . S
N465 C468 1.279 . S
C466 C464 1.353 . S
C466 C469 1.348 . S
C466 H514 0.929 . S
C467 C468 1.358 . S
C467 C469 1.356 . S
C467 H515 0.930 . S
C468 N465 1.279 . S
C468 C467 1.358 . S
C468 H471 0.930 . S
C469 C466 1.348 . S
C469 C467 1.356 . S
H470 C464 0.930 . S
H471 C468 0.930 . S
C472 C474 1.348 . S
C472 C475 1.356 . S
C472 O502 1.325 . S
N473 C476 1.314 . S
N473 C477 1.279 . S
C474 C472 1.348 . S
C474 C476 1.353 . S
C474 H516 0.929 . S
C475 C472 1.356 . S
C475 C477 1.358 . S
C475 H517 0.930 . S
C476 N473 1.314 . S
C476 C474 1.353 . S
C476 H518 0.930 . S
C477 N473 1.279 . S
C477 C475 1.358 . S
C477 H519 0.930 . S
C478 C479 1.348 . S
C478 C480 1.356 . S
C478 O503 1.325 . S
C479 C478 1.348 . S
C479 C481 1.353 . S
C479 H520 0.929 . S
C480 C478 1.356 . S
C480 C482 1.358 . S
C480 H521 0.930 . S
C481 C479 1.353 . S
C481 N483 1.314 . S
C481 H522 0.930 . S
C482 C480 1.358 . S
C482 N483 1.279 . S
C482 H523 0.930 . S
N483 C481 1.314 . S
N483 C482 1.279 . S
C484 C486 1.353 . S
C484 N487 1.314 . S
C484 H490 0.930 . S
C485 N487 1.279 . S
C485 C488 1.358 . S
C485 H491 0.930 . S
C486 C484 1.353 . S
C486 C489 1.348 . S
C486 H524 0.929 . S
N487 Li442 1.990 . S
N487 C484 1.314 . S
N487 C485 1.279 . S
C488 C485 1.358 . S
C488 C489 1.356 . S
C488 H525 0.930 . S
C489 C486 1.348 . S
C489 C488 1.356 . S
H490 C484 0.930 . S
H491 C485 0.930 . S
C492 N493 1.314 . S
C492 C494 1.353 . S
C492 H498 0.930 . S
N493 Li443 1.990 . S
N493 C492 1.314 . S
N493 C496 1.279 . S
C494 C492 1.353 . S
C494 C497 1.348 . S
C494 H526 0.929 . S
C495 C496 1.358 . S
C495 C497 1.356 . S
C495 H527 0.930 . S
C496 N493 1.279 . S
C496 C495 1.358 . S
C496 H499 0.930 . S
C497 C494 1.348 . S
C497 C495 1.356 . S
H498 C492 0.930 . S
H499 C496 0.930 . S
O500 Li440 1.956 . S
O500 Li441 1.970 . S
O500 Li442 1.961 . S
O500 C444 1.325 . S
O501 Li440 1.970 . S
O501 Li441 1.956 . S
O501 Li443 1.961 . S
O501 C450 1.325 . S
O502 Li440 1.961 . S
O502 Li442 1.956 . S
O502 Li443 1.970 . S
O502 C472 1.325 . S
O503 Li441 1.961 . S
O503 Li442 1.970 . S
O503 Li443 1.956 . S
O503 C478 1.325 . S
H504 C446 0.929 . S
H505 C447 0.930 . S
H506 C448 0.930 . S
H507 C449 0.930 . S
H508 C451 0.930 . S
H509 C453 0.929 . S
H510 C454 0.930 . S
H511 C455 0.930 . S
H512 C458 0.930 . S
H513 C461 0.929 . S
H514 C466 0.929 . S
H515 C467 0.930 . S
H516 C474 0.929 . S
H517 C475 0.930 . S
H518 C476 0.930 . S
H519 C477 0.930 . S
H520 C479 0.929 . S
H521 C480 0.930 . S
H522 C481 0.930 . S
H523 C482 0.930 . S
H524 C486 0.929 . S
H525 C488 0.930 . S
H526 C494 0.929 . S
H527 C495 0.930 . S
Li528 N545 1.990 . S
Li528 O588 1.956 . S
Li528 O589 1.970 . S
Li528 O590 1.961 . S
Li529 N553 1.990 . S
Li529 O588 1.970 . S
Li529 O589 1.956 . S
Li529 O591 1.961 . S
Li530 N575 1.990 . S
Li530 O588 1.961 . S
Li530 O590 1.956 . S
Li530 O591 1.970 . S
Li531 N581 1.990 . S
Li531 O589 1.961 . S
Li531 O590 1.970 . S
Li531 O591 1.956 . S
C532 C534 1.348 . S
C532 C535 1.356 . S
C532 O588 1.325 . S
N533 C536 1.314 . S
N533 C537 1.279 . S
C534 C532 1.348 . S
C534 C536 1.353 . S
C534 H592 0.929 . S
C535 C532 1.356 . S
C535 C537 1.358 . S
C535 H593 0.930 . S
C536 N533 1.314 . S
C536 C534 1.353 . S
C536 H594 0.930 . S
C537 N533 1.279 . S
C537 C535 1.358 . S
C537 H595 0.930 . S
C538 C541 1.348 . S
C538 C542 1.356 . S
C538 O589 1.325 . S
C539 N540 1.279 . S
C539 C542 1.358 . S
C539 H596 0.930 . S
N540 C539 1.279 . S
N540 C543 1.314 . S
C541 C538 1.348 . S
C541 C543 1.353 . S
C541 H597 0.929 . S
C542 C538 1.356 . S
C542 C539 1.358 . S
C542 H598 0.930 . S
C543 N540 1.314 . S
C543 C541 1.353 . S
C543 H599 0.930 . S
C544 N545 1.314 . S
C544 C549 1.353 . S
C544 H550 0.930 . S
N545 Li528 1.990 . S
N545 C544 1.314 . S
N545 C547 1.279 . S
C546 C547 1.358 . S
C546 C548 1.356 . S
C546 H600 0.930 . S
C547 N545 1.279 . S
C547 C546 1.358 . S
C547 H551 0.930 . S
C548 C546 1.356 . S
C548 C549 1.348 . S
C549 C544 1.353 . S
C549 C548 1.348 . S
C549 H601 0.929 . S
H550 C544 0.930 . S
H551 C547 0.930 . S
C552 N553 1.314 . S
C552 C554 1.353 . S
C552 H558 0.930 . S
N553 Li529 1.990 . S
N553 C552 1.314 . S
N553 C556 1.279 . S
C554 C552 1.353 . S
C554 C557 1.348 . S
C554 H602 0.929 . S
C555 C556 1.358 . S
C555 C557 1.356 . S
C555 H603 0.930 . S
C556 N553 1.279 . S
C556 C555 1.358 . S
C556 H559 0.930 . S
C557 C554 1.348 . S
C557 C555 1.356 . S
H558 C552 0.930 . S
H559 C556 0.930 . S
C560 C562 1.348 . S
C560 C563 1.356 . S
C560 O590 1.325 . S
N561 C564 1.314 . S
N561 C565 1.279 . S
C562 C560 1.348 . S
C562 C564 1.353 . S
C562 H604 0.929 . S
C563 C560 1.356 . S
C563 C565 1.358 . S
C563 H605 0.930 . S
C564 N561 1.314 . S
C564 C562 1.353 . S
C564 H606 0.930 . S
C565 N561 1.279 . S
C565 C563 1.358 . S
C565 H607 0.930 . S
C566 C567 1.348 . S
C566 C568 1.356 . S
C566 O591 1.325 . S
C567 C566 1.348 . S
C567 C569 1.353 . S
C567 H608 0.929 . S
C568 C566 1.356 . S
C568 C570 1.358 . S
C568 H609 0.930 . S
C569 C567 1.353 . S
C569 N571 1.314 . S
C569 H610 0.930 . S
C570 C568 1.358 . S
C570 N571 1.279 . S
C570 H611 0.930 . S
N571 C569 1.314 . S
N571 C570 1.279 . S
C572 C574 1.353 . S
C572 N575 1.314 . S
C572 H578 0.930 . S
C573 N575 1.279 . S
C573 C576 1.358 . S
C573 H579 0.930 . S
C574 C572 1.353 . S
C574 C577 1.348 . S
C574 H612 0.929 . S
N575 Li530 1.990 . S
N575 C572 1.314 . S
N575 C573 1.279 . S
C576 C573 1.358 . S
C576 C577 1.356 . S
C576 H613 0.930 . S
C577 C574 1.348 . S
C577 C576 1.356 . S
H578 C572 0.930 . S
H579 C573 0.930 . S
C580 N581 1.314 . S
C580 C582 1.353 . S
C580 H586 0.930 . S
N581 Li531 1.990 . S
N581 C580 1.314 . S
N581 C584 1.279 . S
C582 C580 1.353 . S
C582 C585 1.348 . S
C582 H614 0.929 . S
C583 C584 1.358 . S
C583 C585 1.356 . S
C583 H615 0.930 . S
C584 N581 1.279 . S
C584 C583 1.358 . S
C584 H587 0.930 . S
C585 C582 1.348 . S
C585 C583 1.356 . S
H586 C580 0.930 . S
H587 C584 0.930 . S
O588 Li528 1.956 . S
O588 Li529 1.970 . S
O588 Li530 1.961 . S
O588 C532 1.325 . S
O589 Li528 1.970 . S
O589 Li529 1.956 . S
O589 Li531 1.961 . S
O589 C538 1.325 . S
O590 Li528 1.961 . S
O590 Li530 1.956 . S
O590 Li531 1.970 . S
O590 C560 1.325 . S
O591 Li529 1.961 . S
O591 Li530 1.970 . S
O591 Li531 1.956 . S
O591 C566 1.325 . S
H592 C534 0.929 . S
H593 C535 0.930 . S
H594 C536 0.930 . S
H595 C537 0.930 . S
H596 C539 0.930 . S
H597 C541 0.929 . S
H598 C542 0.930 . S
H599 C543 0.930 . S
H600 C546 0.930 . S
H601 C549 0.929 . S
H602 C554 0.929 . S
H603 C555 0.930 . S
H604 C562 0.929 . S
H605 C563 0.930 . S
H606 C564 0.930 . S
H607 C565 0.930 . S
H608 C567 0.929 . S
H609 C568 0.930 . S
H610 C569 0.930 . S
H611 C570 0.930 . S
H612 C574 0.929 . S
H613 C576 0.930 . S
H614 C582 0.929 . S
H615 C583 0.930 . S
Li616 N633 1.990 . S
Li616 O676 1.956 1_455 S
Li616 O677 1.970 . S
Li616 O678 1.961 . S
Li617 N641 1.990 . S
Li617 O676 1.970 . S
Li617 O677 1.956 1_655 S
Li617 O679 1.961 1_655 S
Li618 N663 1.990 . S
Li618 O676 1.961 1_455 S
Li618 O678 1.956 . S
Li618 O679 1.970 . S
Li619 N669 1.990 . S
Li619 O677 1.961 . S
Li619 O678 1.970 . S
Li619 O679 1.956 . S
C620 C622 1.348 . S
C620 C623 1.356 1_556 S
C620 O676 1.325 . S
N621 C624 1.314 1_554 S
N621 C625 1.279 . S
C622 C620 1.348 . S
C622 C624 1.353 . S
C622 H680 0.929 . S
C623 C620 1.356 1_554 S
C623 C625 1.358 . S
C623 H681 0.930 . S
C624 N621 1.314 1_556 S
C624 C622 1.353 . S
C624 H682 0.930 . S
C625 N621 1.279 . S
C625 C623 1.358 . S
C625 H683 0.930 . S
C626 C629 1.348 . S
C626 C630 1.356 . S
C626 O677 1.325 . S
C627 N628 1.279 . S
C627 C630 1.358 . S
C627 H684 0.930 . S
N628 C627 1.279 . S
N628 C631 1.314 . S
C629 C626 1.348 . S
C629 C631 1.353 . S
C629 H685 0.929 . S
C630 C626 1.356 . S
C630 C627 1.358 . S
C630 H686 0.930 . S
C631 N628 1.314 . S
C631 C629 1.353 . S
C631 H687 0.930 . S
C632 N633 1.314 1_554 S
C632 C637 1.353 . S
C632 H638 0.930 1_554 S
N633 Li616 1.990 . S
N633 C632 1.314 1_556 S
N633 C635 1.279 1_556 S
C634 C635 1.358 . S
C634 C636 1.356 . S
C634 H688 0.917 1_455 S
C635 N633 1.279 1_554 S
C635 C634 1.358 . S
C635 H639 0.930 1_455 S
C636 C634 1.356 . S
C636 C637 1.348 . S
C637 C632 1.353 . S
C637 C636 1.348 . S
C637 H689 0.929 . S
H638 C632 0.930 1_556 S
H639 C635 0.930 1_655 S
C640 N641 1.314 . S
C640 C642 1.353 . S
C640 H646 0.930 . S
N641 Li617 1.990 . S
N641 C640 1.314 . S
N641 C644 1.279 . S
C642 C640 1.353 . S
C642 C645 1.348 . S
C642 H690 0.929 . S
C643 C644 1.358 . S
C643 C645 1.356 . S
C643 H691 0.930 . S
C644 N641 1.279 . S
C644 C643 1.358 . S
C644 H647 0.930 . S
C645 C642 1.348 . S
C645 C643 1.356 . S
H646 C640 0.930 . S
H647 C644 0.930 . S
C648 C650 1.348 . S
C648 C651 1.356 1_556 S
C648 O678 1.325 . S
N649 C652 1.308 1_554 S
N649 C653 1.279 . S
C650 C648 1.348 . S
C650 C652 1.356 . S
C650 H692 0.929 . S
C651 C648 1.356 1_554 S
C651 C653 1.358 . S
C651 H693 0.930 . S
C652 N649 1.308 1_556 S
C652 C650 1.356 . S
C652 H694 0.932 . S
C653 N649 1.279 . S
C653 C651 1.358 . S
C653 H695 0.930 . S
C654 C655 1.348 . S
C654 C656 1.356 1_455 S
C654 O679 1.325 . S
C655 C654 1.348 . S
C655 C657 1.353 . S
C655 H696 0.929 . S
C656 C654 1.356 1_655 S
C656 C658 1.358 . S
C656 H697 0.930 . S
C657 C655 1.353 . S
C657 N659 1.314 1_455 S
C657 H698 0.930 . S
C658 C656 1.358 . S
C658 N659 1.279 . S
C658 H699 0.930 . S
N659 C657 1.314 1_655 S
N659 C658 1.279 . S
C660 C662 1.353 1_556 S
C660 N663 1.314 1_655 S
C660 H666 0.930 . S
C661 N663 1.279 1_554 S
C661 C664 1.358 . S
C661 H667 0.930 . S
C662 C660 1.353 1_554 S
C662 C665 1.348 1_655 S
C662 H700 0.929 . S
N663 Li618 1.990 . S
N663 C660 1.314 1_455 S
N663 C661 1.279 1_556 S
C664 C661 1.358 . S
C664 C665 1.356 . S
C664 H701 0.930 . S
C665 C662 1.348 1_455 S
C665 C664 1.356 . S
H666 C660 0.930 . S
H667 C661 0.930 . S
C668 N669 1.314 . S
C668 C670 1.353 . S
C668 H674 0.930 . S
N669 Li619 1.990 . S
N669 C668 1.314 . S
N669 C672 1.279 . S
C670 C668 1.353 . S
C670 C673 1.348 . S
C670 H702 0.929 . S
C671 C672 1.358 . S
C671 C673 1.356 . S
C671 H703 0.930 . S
C672 N669 1.279 . S
C672 C671 1.358 . S
C672 H675 0.930 . S
C673 C670 1.348 . S
C673 C671 1.356 . S
H674 C668 0.930 . S
H675 C672 0.930 . S
O676 Li616 1.956 1_655 S
O676 Li617 1.970 . S
O676 Li618 1.961 1_655 S
O676 C620 1.325 . S
O677 Li616 1.970 . S
O677 Li617 1.956 1_455 S
O677 Li619 1.961 . S
O677 C626 1.325 . S
O678 Li616 1.961 . S
O678 Li618 1.956 . S
O678 Li619 1.970 . S
O678 C648 1.325 . S
O679 Li617 1.961 1_455 S
O679 Li618 1.970 . S
O679 Li619 1.956 . S
O679 C654 1.325 . S
H680 C622 0.929 . S
H681 C623 0.930 . S
H682 C624 0.930 . S
H683 C625 0.930 . S
H684 C627 0.930 . S
H685 C629 0.929 . S
H686 C630 0.930 . S
H687 C631 0.930 . S
H688 C634 0.917 1_655 S
H689 C637 0.929 . S
H690 C642 0.929 . S
H691 C643 0.930 . S
H692 C650 0.929 . S
H693 C651 0.930 . S
H694 C652 0.932 . S
H695 C653 0.930 . S
H696 C655 0.929 . S
H697 C656 0.930 . S
H698 C657 0.930 . S
H699 C658 0.930 . S
H700 C662 0.929 . S
H701 C664 0.930 . S
H702 C670 0.929 . S
H703 C671 0.930 . S
Li704 N721 1.990 . S
Li704 O764 1.956 1_545 S
Li704 O765 1.970 . S
Li704 O766 1.961 . S
Li705 N729 1.990 . S
Li705 O764 1.970 . S
Li705 O765 1.956 1_565 S
Li705 O767 1.961 1_565 S
Li706 N751 1.990 . S
Li706 O764 1.961 1_545 S
Li706 O766 1.956 . S
Li706 O767 1.970 . S
Li707 N757 1.990 . S
Li707 O765 1.961 . S
Li707 O766 1.970 . S
Li707 O767 1.956 . S
C708 C710 1.348 . S
C708 C711 1.356 . S
C708 O764 1.325 . S
N709 C712 1.314 . S
N709 C713 1.279 . S
C710 C708 1.348 . S
C710 C712 1.353 . S
C710 H768 0.929 . S
C711 C708 1.356 . S
C711 C713 1.358 . S
C711 H769 0.911 1_565 S
C712 N709 1.314 . S
C712 C710 1.353 . S
C712 H770 0.930 . S
C713 N709 1.279 . S
C713 C711 1.358 . S
C713 H771 0.930 . S
C714 C717 1.348 . S
C714 C718 1.356 . S
C714 O765 1.325 . S
C715 N716 1.279 . S
C715 C718 1.358 . S
C715 H772 0.930 . S
N716 C715 1.279 . S
N716 C719 1.314 . S
C717 C714 1.348 . S
C717 C719 1.353 . S
C717 H773 0.929 . S
C718 C714 1.356 . S
C718 C715 1.358 . S
C718 H774 0.930 . S
C719 N716 1.314 . S
C719 C717 1.353 . S
C719 H775 0.930 . S
C720 N721 1.314 . S
C720 C725 1.353 . S
C720 H726 0.930 . S
N721 Li704 1.990 . S
N721 C720 1.314 . S
N721 C723 1.279 . S
C722 C723 1.358 . S
C722 C724 1.356 . S
C722 H776 0.930 . S
C723 N721 1.279 . S
C723 C722 1.358 . S
C723 H727 0.914 1_545 S
C724 C722 1.356 . S
C724 C725 1.348 . S
C725 C720 1.353 . S
C725 C724 1.348 . S
C725 H777 0.929 . S
H726 C720 0.930 . S
H727 C723 0.914 1_565 S
C728 N729 1.314 . S
C728 C730 1.353 . S
C728 H734 0.930 . S
N729 Li705 1.990 . S
N729 C728 1.314 . S
N729 C732 1.279 . S
C730 C728 1.353 . S
C730 C733 1.348 . S
C730 H778 0.929 . S
C731 C732 1.358 . S
C731 C733 1.356 . S
C731 H779 0.930 . S
C732 N729 1.279 . S
C732 C731 1.358 . S
C732 H735 0.930 . S
C733 C730 1.348 . S
C733 C731 1.356 . S
H734 C728 0.930 . S
H735 C732 0.930 . S
C736 C738 1.348 . S
C736 C739 1.356 . S
C736 O766 1.325 . S
N737 C740 1.314 . S
N737 C741 1.279 . S
C738 C736 1.348 . S
C738 C740 1.353 . S
C738 H780 0.929 . S
C739 C736 1.356 . S
C739 C741 1.358 . S
C739 H781 0.930 . S
C740 N737 1.314 . S
C740 C738 1.353 . S
C740 H782 0.930 . S
C741 N737 1.279 . S
C741 C739 1.358 . S
C741 H783 0.930 . S
C742 C743 1.348 . S
C742 C744 1.356 . S
C742 O767 1.325 . S
C743 C742 1.348 . S
C743 C745 1.353 . S
C743 H784 0.929 . S
C744 C742 1.356 . S
C744 C746 1.358 . S
C744 H785 0.930 . S
C745 C743 1.353 . S
C745 N747 1.314 . S
C745 H786 0.930 . S
C746 C744 1.358 . S
C746 N747 1.279 . S
C746 H787 0.930 1_545 S
N747 C745 1.314 . S
N747 C746 1.279 . S
C748 C750 1.353 . S
C748 N751 1.314 . S
C748 H754 0.930 1_545 S
C749 N751 1.279 . S
C749 C752 1.358 . S
C749 H755 0.930 . S
C750 C748 1.353 . S
C750 C753 1.348 . S
C750 H788 0.929 1_545 S
N751 Li706 1.990 . S
N751 C748 1.314 . S
N751 C749 1.279 . S
C752 C749 1.358 . S
C752 C753 1.356 . S
C752 H789 0.930 . S
C753 C750 1.348 . S
C753 C752 1.356 . S
H754 C748 0.930 1_565 S
H755 C749 0.930 . S
C756 N757 1.314 . S
C756 C758 1.353 . S
C756 H762 0.930 . S
N757 Li707 1.990 . S
N757 C756 1.314 . S
N757 C760 1.279 . S
C758 C756 1.353 . S
C758 C761 1.348 . S
C758 H790 0.929 . S
C759 C760 1.358 . S
C759 C761 1.356 . S
C759 H791 0.930 . S
C760 N757 1.279 . S
C760 C759 1.358 . S
C760 H763 0.930 . S
C761 C758 1.348 . S
C761 C759 1.356 . S
H762 C756 0.930 . S
H763 C760 0.930 . S
O764 Li704 1.956 1_565 S
O764 Li705 1.970 . S
O764 Li706 1.961 1_565 S
O764 C708 1.325 . S
O765 Li704 1.970 . S
O765 Li705 1.956 1_545 S
O765 Li707 1.961 . S
O765 C714 1.325 . S
O766 Li704 1.961 . S
O766 Li706 1.956 . S
O766 Li707 1.970 . S
O766 C736 1.325 . S
O767 Li705 1.961 1_545 S
O767 Li706 1.970 . S
O767 Li707 1.956 . S
O767 C742 1.325 . S
H768 C710 0.929 . S
H769 C711 0.911 1_545 S
H770 C712 0.930 . S
H771 C713 0.930 . S
H772 C715 0.930 . S
H773 C717 0.929 . S
H774 C718 0.930 . S
H775 C719 0.930 . S
H776 C722 0.930 . S
H777 C725 0.929 . S
H778 C730 0.929 . S
H779 C731 0.930 . S
H780 C738 0.929 . S
H781 C739 0.930 . S
H782 C740 0.930 . S
H783 C741 0.930 . S
H784 C743 0.929 . S
H785 C744 0.930 . S
H786 C745 0.930 . S
H787 C746 0.930 1_565 S
H788 C750 0.929 1_565 S
H789 C752 0.930 . S
H790 C758 0.929 . S
H791 C759 0.930 . S
Li792 N809 1.990 . S
Li792 O852 1.956 . S
Li792 O853 1.970 . S
Li792 O854 1.961 . S
Li793 N817 1.990 . S
Li793 O852 1.970 . S
Li793 O853 1.956 . S
Li793 O855 1.961 . S
Li794 N839 1.990 . S
Li794 O852 1.961 . S
Li794 O854 1.956 . S
Li794 O855 1.970 . S
Li795 N845 1.990 . S
Li795 O853 1.961 . S
Li795 O854 1.970 . S
Li795 O855 1.956 . S
C796 C798 1.348 . S
C796 C799 1.356 . S
C796 O852 1.325 . S
N797 C800 1.314 . S
N797 C801 1.279 . S
C798 C796 1.348 . S
C798 C800 1.353 . S
C798 H856 0.929 . S
C799 C796 1.356 . S
C799 C801 1.358 . S
C799 H857 0.930 . S
C800 N797 1.314 . S
C800 C798 1.353 . S
C800 H858 0.930 . S
C801 N797 1.279 . S
C801 C799 1.358 . S
C801 H859 0.930 . S
C802 C805 1.348 . S
C802 C806 1.356 . S
C802 O853 1.325 . S
C803 N804 1.279 . S
C803 C806 1.358 . S
C803 H860 0.930 . S
N804 C803 1.279 . S
N804 C807 1.314 . S
C805 C802 1.348 . S
C805 C807 1.353 . S
C805 H861 0.929 . S
C806 C802 1.356 . S
C806 C803 1.358 . S
C806 H862 0.930 . S
C807 N804 1.314 . S
C807 C805 1.353 . S
C807 H863 0.930 . S
C808 N809 1.314 . S
C808 C813 1.353 . S
C808 H814 0.930 . S
N809 Li792 1.990 . S
N809 C808 1.314 . S
N809 C811 1.279 . S
C810 C811 1.358 . S
C810 C812 1.356 . S
C810 H864 0.930 . S
C811 N809 1.279 . S
C811 C810 1.358 . S
C811 H815 0.930 . S
C812 C810 1.356 . S
C812 C813 1.348 . S
C813 C808 1.353 . S
C813 C812 1.348 . S
C813 H865 0.929 . S
H814 C808 0.930 . S
H815 C811 0.930 . S
C816 N817 1.314 . S
C816 C818 1.353 . S
C816 H822 0.930 . S
N817 Li793 1.990 . S
N817 C816 1.314 . S
N817 C820 1.279 . S
C818 C816 1.353 . S
C818 C821 1.348 . S
C818 H866 0.929 . S
C819 C820 1.358 . S
C819 C821 1.356 . S
C819 H867 0.930 . S
C820 N817 1.279 . S
C820 C819 1.358 . S
C820 H823 0.930 . S
C821 C818 1.348 . S
C821 C819 1.356 . S
H822 C816 0.930 . S
H823 C820 0.930 . S
C824 C826 1.348 . S
C824 C827 1.356 . S
C824 O854 1.325 . S
N825 C828 1.314 . S
N825 C829 1.279 . S
C826 C824 1.348 . S
C826 C828 1.353 . S
C826 H868 0.929 . S
C827 C824 1.356 . S
C827 C829 1.358 . S
C827 H869 0.930 . S
C828 N825 1.314 . S
C828 C826 1.353 . S
C828 H870 0.930 . S
C829 N825 1.279 . S
C829 C827 1.358 . S
C829 H871 0.930 . S
C830 C831 1.348 . S
C830 C832 1.356 . S
C830 O855 1.325 . S
C831 C830 1.348 . S
C831 C833 1.353 . S
C831 H872 0.929 . S
C832 C830 1.356 . S
C832 C834 1.358 . S
C832 H873 0.930 . S
C833 C831 1.353 . S
C833 N835 1.314 . S
C833 H874 0.930 . S
C834 C832 1.358 . S
C834 N835 1.279 . S
C834 H875 0.930 . S
N835 C833 1.314 . S
N835 C834 1.279 . S
C836 C838 1.353 . S
C836 N839 1.314 . S
C836 H842 0.930 . S
C837 N839 1.279 . S
C837 C840 1.358 . S
C837 H843 0.930 . S
C838 C836 1.353 . S
C838 C841 1.348 . S
C838 H876 0.929 . S
N839 Li794 1.990 . S
N839 C836 1.314 . S
N839 C837 1.279 . S
C840 C837 1.358 . S
C840 C841 1.356 . S
C840 H877 0.930 . S
C841 C838 1.348 . S
C841 C840 1.356 . S
H842 C836 0.930 . S
H843 C837 0.930 . S
C844 N845 1.314 . S
C844 C846 1.353 . S
C844 H850 0.930 . S
N845 Li795 1.990 . S
N845 C844 1.314 . S
N845 C848 1.279 . S
C846 C844 1.353 . S
C846 C849 1.348 . S
C846 H878 0.929 . S
C847 C848 1.358 . S
C847 C849 1.356 . S
C847 H879 0.930 . S
C848 N845 1.279 . S
C848 C847 1.358 . S
C848 H851 0.930 . S
C849 C846 1.348 . S
C849 C847 1.356 . S
H850 C844 0.930 . S
H851 C848 0.930 . S
O852 Li792 1.956 . S
O852 Li793 1.970 . S
O852 Li794 1.961 . S
O852 C796 1.325 . S
O853 Li792 1.970 . S
O853 Li793 1.956 . S
O853 Li795 1.961 . S
O853 C802 1.325 . S
O854 Li792 1.961 . S
O854 Li794 1.956 . S
O854 Li795 1.970 . S
O854 C824 1.325 . S
O855 Li793 1.961 . S
O855 Li794 1.970 . S
O855 Li795 1.956 . S
O855 C830 1.325 . S
H856 C798 0.929 . S
H857 C799 0.930 . S
H858 C800 0.930 . S
H859 C801 0.930 . S
H860 C803 0.930 . S
H861 C805 0.929 . S
H862 C806 0.930 . S
H863 C807 0.930 . S
H864 C810 0.930 . S
H865 C813 0.929 . S
H866 C818 0.929 . S
H867 C819 0.930 . S
H868 C826 0.929 . S
H869 C827 0.930 . S
H870 C828 0.930 . S
H871 C829 0.930 . S
H872 C831 0.929 . S
H873 C832 0.930 . S
H874 C833 0.930 . S
H875 C834 0.930 . S
H876 C838 0.929 . S
H877 C840 0.930 . S
H878 C846 0.929 . S
H879 C847 0.930 . S
Li880 N897 1.990 . S
Li880 O940 1.956 . S
Li880 O941 1.970 . S
Li880 O942 1.961 . S
Li881 N905 1.990 . S
Li881 O940 1.970 . S
Li881 O941 1.956 . S
Li881 O943 1.961 . S
Li882 N927 1.990 1_545 S
Li882 O940 1.961 . S
Li882 O942 1.956 . S
Li882 O943 1.970 . S
Li883 N933 1.990 . S
Li883 O941 1.961 . S
Li883 O942 1.970 . S
Li883 O943 1.956 . S
C884 C886 1.348 . S
C884 C887 1.356 . S
C884 O940 1.325 . S
N885 C888 1.314 . S
N885 C889 1.279 . S
C886 C884 1.348 . S
C886 C888 1.353 . S
C886 H944 0.929 . S
C887 C884 1.356 . S
C887 C889 1.358 . S
C887 H945 0.930 . S
C888 N885 1.314 . S
C888 C886 1.353 . S
C888 H946 0.930 . S
C889 N885 1.279 . S
C889 C887 1.358 . S
C889 H947 0.930 . S
C890 C893 1.348 . S
C890 C894 1.356 . S
C890 O941 1.325 . S
C891 N892 1.279 . S
C891 C894 1.358 . S
C891 H948 0.930 . S
N892 C891 1.279 . S
N892 C895 1.314 . S
C893 C890 1.348 . S
C893 C895 1.353 . S
C893 H949 0.929 . S
C894 C890 1.356 . S
C894 C891 1.358 . S
C894 H950 0.930 . S
C895 N892 1.314 . S
C895 C893 1.353 . S
C895 H951 0.930 . S
C896 N897 1.314 . S
C896 C901 1.353 . S
C896 H902 0.930 . S
N897 Li880 1.990 . S
N897 C896 1.314 . S
N897 C899 1.279 . S
C898 C899 1.358 . S
C898 C900 1.356 . S
C898 H952 0.930 . S
C899 N897 1.279 . S
C899 C898 1.358 . S
C899 H903 0.930 . S
C900 C898 1.356 . S
C900 C901 1.348 . S
C901 C896 1.353 . S
C901 C900 1.348 . S
C901 H953 0.929 . S
H902 C896 0.930 . S
H903 C899 0.930 . S
C904 N905 1.314 . S
C904 C906 1.353 . S
C904 H910 0.930 . S
N905 Li881 1.990 . S
N905 C904 1.314 . S
N905 C908 1.279 . S
C906 C904 1.353 . S
C906 C909 1.348 . S
C906 H954 0.929 . S
C907 C908 1.358 . S
C907 C909 1.356 . S
C907 H955 0.930 . S
C908 N905 1.279 . S
C908 C907 1.358 . S
C908 H911 0.930 . S
C909 C906 1.348 . S
C909 C907 1.356 . S
H910 C904 0.930 . S
H911 C908 0.930 . S
C912 C914 1.348 . S
C912 C915 1.356 . S
C912 O942 1.325 . S
N913 C916 1.314 . S
N913 C917 1.279 . S
C914 C912 1.348 . S
C914 C916 1.353 . S
C914 H956 0.929 . S
C915 C912 1.356 . S
C915 C917 1.358 . S
C915 H957 0.930 . S
C916 N913 1.314 . S
C916 C914 1.353 . S
C916 H958 0.930 . S
C917 N913 1.279 . S
C917 C915 1.358 . S
C917 H959 0.930 . S
C918 C919 1.348 . S
C918 C920 1.356 . S
C918 O943 1.325 1_565 S
C919 C918 1.348 . S
C919 C921 1.353 . S
C919 H960 0.929 . S
C920 C918 1.356 . S
C920 C922 1.358 . S
C920 H961 0.930 1_565 S
C921 C919 1.353 . S
C921 N923 1.314 . S
C921 H962 0.930 . S
C922 C920 1.358 . S
C922 N923 1.279 . S
C922 H963 0.930 . S
N923 C921 1.314 . S
N923 C922 1.279 . S
C924 C926 1.353 . S
C924 N927 1.314 . S
C924 H930 0.930 . S
C925 N927 1.279 . S
C925 C928 1.358 . S
C925 H931 0.930 . S
C926 C924 1.353 . S
C926 C929 1.348 . S
C926 H964 0.929 . S
N927 Li882 1.990 1_565 S
N927 C924 1.314 . S
N927 C925 1.279 . S
C928 C925 1.358 . S
C928 C929 1.356 . S
C928 H965 0.930 . S
C929 C926 1.348 . S
C929 C928 1.356 . S
H930 C924 0.930 . S
H931 C925 0.930 . S
C932 N933 1.314 . S
C932 C934 1.353 . S
C932 H938 0.930 . S
N933 Li883 1.990 . S
N933 C932 1.314 . S
N933 C936 1.279 . S
C934 C932 1.353 . S
C934 C937 1.348 . S
C934 H966 0.929 . S
C935 C936 1.358 . S
C935 C937 1.356 . S
C935 H967 0.930 1_545 S
C936 N933 1.279 . S
C936 C935 1.358 . S
C936 H939 0.930 1_545 S
C937 C934 1.348 . S
C937 C935 1.356 . S
H938 C932 0.930 . S
H939 C936 0.930 1_565 S
O940 Li880 1.956 . S
O940 Li881 1.970 . S
O940 Li882 1.961 . S
O940 C884 1.325 . S
O941 Li880 1.970 . S
O941 Li881 1.956 . S
O941 Li883 1.961 . S
O941 C890 1.325 . S
O942 Li880 1.961 . S
O942 Li882 1.956 . S
O942 Li883 1.970 . S
O942 C912 1.325 . S
O943 Li881 1.961 . S
O943 Li882 1.970 . S
O943 Li883 1.956 . S
O943 C918 1.325 1_545 S
H944 C886 0.929 . S
H945 C887 0.930 . S
H946 C888 0.930 . S
H947 C889 0.930 . S
H948 C891 0.930 . S
H949 C893 0.929 . S
H950 C894 0.930 . S
H951 C895 0.930 . S
H952 C898 0.930 . S
H953 C901 0.929 . S
H954 C906 0.929 . S
H955 C907 0.930 . S
H956 C914 0.929 . S
H957 C915 0.930 . S
H958 C916 0.930 . S
H959 C917 0.930 . S
H960 C919 0.929 . S
H961 C920 0.930 1_545 S
H962 C921 0.930 . S
H963 C922 0.930 . S
H964 C926 0.929 . S
H965 C928 0.930 . S
H966 C934 0.929 . S
H967 C935 0.930 1_565 S
Li968 N985 1.990 . S
Li968 O1028 1.971 . S
Li968 O1029 1.971 1_554 S
Li968 O1030 1.942 1_554 S
Li969 N993 1.990 . S
Li969 O1028 1.970 . S
Li969 O1029 1.956 1_554 S
Li969 O1031 1.961 . S
Li970 N1015 1.990 . S
Li970 O1028 1.961 . S
Li970 O1030 1.956 1_554 S
Li970 O1031 1.970 . S
Li971 N1021 1.990 . S
Li971 O1029 1.961 . S
Li971 O1030 1.970 . S
Li971 O1031 1.956 1_556 S
C972 C974 1.348 . S
C972 C975 1.356 . S
C972 O1028 1.325 . S
N973 C976 1.314 . S
N973 C977 1.279 . S
C974 C972 1.348 . S
C974 C976 1.353 . S
C974 H1032 0.929 . S
C975 C972 1.356 . S
C975 C977 1.358 . S
C975 H1033 0.930 . S
C976 N973 1.314 . S
C976 C974 1.353 . S
C976 H1034 0.930 . S
C977 N973 1.279 . S
C977 C975 1.358 . S
C977 H1035 0.930 . S
C978 C981 1.348 . S
C978 C982 1.356 . S
C978 O1029 1.325 . S
C979 N980 1.279 . S
C979 C982 1.358 . S
C979 H1036 0.930 . S
N980 C979 1.279 . S
N980 C983 1.314 . S
C981 C978 1.348 . S
C981 C983 1.353 . S
C981 H1037 0.929 1_556 S
C982 C978 1.356 . S
C982 C979 1.358 . S
C982 H1038 0.930 . S
C983 N980 1.314 . S
C983 C981 1.353 . S
C983 H1039 0.930 . S
C984 N985 1.288 1_556 S
C984 C989 1.353 . S
C984 H990 0.930 . S
N985 Li968 1.990 . S
N985 C984 1.288 1_554 S
N985 C987 1.306 . S
C986 C987 1.358 . S
C986 C988 1.356 1_554 S
C986 H1040 0.930 . S
C987 N985 1.306 . S
C987 C986 1.358 . S
C987 H991 0.930 . S
C988 C986 1.356 1_556 S
C988 C989 1.348 . S
C989 C984 1.353 . S
C989 C988 1.348 . S
C989 H1041 0.929 . S
H990 C984 0.930 . S
H991 C987 0.930 . S
C992 N993 1.314 . S
C992 C994 1.353 . S
C992 H998 0.930 . S
N993 Li969 1.990 . S
N993 C992 1.314 . S
N993 C996 1.279 . S
C994 C992 1.353 . S
C994 C997 1.348 . S
C994 H1042 0.929 . S
C995 C996 1.358 . S
C995 C997 1.356 . S
C995 H1043 0.930 . S
C996 N993 1.279 . S
C996 C995 1.358 . S
C996 H999 0.930 . S
C997 C994 1.348 . S
C997 C995 1.356 . S
H998 C992 0.930 . S
H999 C996 0.930 . S
C1000 C1002 1.348 . S
C1000 C1003 1.356 . S
C1000 O1030 1.325 . S
N1001 C1004 1.314 . S
N1001 C1005 1.279 . S
C1002 C1000 1.348 . S
C1002 C1004 1.353 . S
C1002 H1044 0.929 . S
C1003 C1000 1.356 . S
C1003 C1005 1.358 . S
C1003 H1045 0.930 . S
C1004 N1001 1.314 . S
C1004 C1002 1.353 . S
C1004 H1046 0.930 . S
C1005 N1001 1.279 . S
C1005 C1003 1.358 . S
C1005 H1047 0.930 . S
C1006 C1007 1.331 1_554 S
C1006 C1008 1.368 . S
C1006 O1031 1.328 . S
C1007 C1006 1.331 1_556 S
C1007 C1009 1.353 . S
C1007 H1048 0.929 . S
C1008 C1006 1.368 . S
C1008 C1010 1.358 . S
C1008 H1049 0.930 . S
C1009 C1007 1.353 . S
C1009 N1011 1.323 . S
C1009 H1050 0.930 . S
C1010 C1008 1.358 . S
C1010 N1011 1.269 1_554 S
C1010 H1051 0.930 . S
N1011 C1009 1.323 . S
N1011 C1010 1.269 1_556 S
C1012 C1014 1.353 . S
C1012 N1015 1.314 . S
C1012 H1018 0.930 . S
C1013 N1015 1.279 1_556 S
C1013 C1016 1.358 . S
C1013 H1019 0.930 . S
C1014 C1012 1.353 . S
C1014 C1017 1.348 . S
C1014 H1052 0.929 . S
N1015 Li970 1.990 . S
N1015 C1012 1.314 . S
N1015 C1013 1.279 1_554 S
C1016 C1013 1.358 . S
C1016 C1017 1.356 1_556 S
C1016 H1053 0.930 . S
C1017 C1014 1.348 . S
C1017 C1016 1.356 1_554 S
H1018 C1012 0.930 . S
H1019 C1013 0.930 . S
C1020 N1021 1.314 . S
C1020 C1022 1.353 . S
C1020 H1026 0.930 . S
N1021 Li971 1.990 . S
N1021 C1020 1.314 . S
N1021 C1024 1.279 . S
C1022 C1020 1.353 . S
C1022 C1025 1.348 . S
C1022 H1054 0.929 . S
C1023 C1024 1.358 . S
C1023 C1025 1.356 . S
C1023 H1055 0.930 . S
C1024 N1021 1.279 . S
C1024 C1023 1.358 . S
C1024 H1027 0.930 . S
C1025 C1022 1.348 . S
C1025 C1023 1.356 . S
H1026 C1020 0.930 . S
H1027 C1024 0.930 . S
O1028 Li968 1.971 . S
O1028 Li969 1.970 . S
O1028 Li970 1.961 . S
O1028 C972 1.325 . S
O1029 Li968 1.971 1_556 S
O1029 Li969 1.956 1_556 S
O1029 Li971 1.961 . S
O1029 C978 1.325 . S
O1030 Li968 1.942 1_556 S
O1030 Li970 1.956 1_556 S
O1030 Li971 1.970 . S
O1030 C1000 1.325 . S
O1031 Li969 1.961 . S
O1031 Li970 1.970 . S
O1031 Li971 1.956 1_554 S
O1031 C1006 1.328 . S
H1032 C974 0.929 . S
H1033 C975 0.930 . S
H1034 C976 0.930 . S
H1035 C977 0.930 . S
H1036 C979 0.930 . S
H1037 C981 0.929 1_554 S
H1038 C982 0.930 . S
H1039 C983 0.930 . S
H1040 C986 0.930 . S
H1041 C989 0.929 . S
H1042 C994 0.929 . S
H1043 C995 0.930 . S
H1044 C1002 0.929 . S
H1045 C1003 0.930 . S
H1046 C1004 0.930 . S
H1047 C1005 0.930 . S
H1048 C1007 0.929 . S
H1049 C1008 0.930 . S
H1050 C1009 0.930 . S
H1051 C1010 0.930 . S
H1052 C1014 0.929 . S
H1053 C1016 0.930 . S
H1054 C1022 0.929 . S
H1055 C1023 0.930 . S
Li1056 N1073 1.990 . S
Li1056 O1116 1.956 . S
Li1056 O1117 1.970 . S
Li1056 O1118 1.961 . S
Li1057 N1081 1.990 . S
Li1057 O1116 1.970 . S
Li1057 O1117 1.956 . S
Li1057 O1119 1.961 . S
Li1058 N1103 1.990 . S
Li1058 O1116 1.961 . S
Li1058 O1118 1.956 . S
Li1058 O1119 1.970 . S
Li1059 N1109 1.990 1_554 S
Li1059 O1117 1.961 . S
Li1059 O1118 1.970 . S
Li1059 O1119 1.956 . S
C1060 C1062 1.348 . S
C1060 C1063 1.356 . S
C1060 O1116 1.325 . S
N1061 C1064 1.314 . S
N1061 C1065 1.279 . S
C1062 C1060 1.348 . S
C1062 C1064 1.353 . S
C1062 H1120 0.929 . S
C1063 C1060 1.356 . S
C1063 C1065 1.358 . S
C1063 H1121 0.930 . S
C1064 N1061 1.314 . S
C1064 C1062 1.353 . S
C1064 H1122 0.930 . S
C1065 N1061 1.279 . S
C1065 C1063 1.358 . S
C1065 H1123 0.930 . S
C1066 C1069 1.348 . S
C1066 C1070 1.356 . S
C1066 O1117 1.325 . S
C1067 N1068 1.279 . S
C1067 C1070 1.358 . S
C1067 H1124 0.930 . S
N1068 C1067 1.279 . S
N1068 C1071 1.314 . S
C1069 C1066 1.348 . S
C1069 C1071 1.353 . S
C1069 H1125 0.929 . S
C1070 C1066 1.356 . S
C1070 C1067 1.358 . S
C1070 H1126 0.930 . S
C1071 N1068 1.314 . S
C1071 C1069 1.353 . S
C1071 H1127 0.930 . S
C1072 N1073 1.314 . S
C1072 C1077 1.353 . S
C1072 H1078 0.930 . S
N1073 Li1056 1.990 . S
N1073 C1072 1.314 . S
N1073 C1075 1.279 . S
C1074 C1075 1.358 . S
C1074 C1076 1.356 . S
C1074 H1128 0.930 . S
C1075 N1073 1.279 . S
C1075 C1074 1.358 . S
C1075 H1079 0.930 . S
C1076 C1074 1.356 . S
C1076 C1077 1.348 . S
C1077 C1072 1.353 . S
C1077 C1076 1.348 . S
C1077 H1129 0.929 . S
H1078 C1072 0.930 . S
H1079 C1075 0.930 . S
C1080 N1081 1.314 . S
C1080 C1082 1.353 . S
C1080 H1086 0.930 . S
N1081 Li1057 1.990 . S
N1081 C1080 1.314 . S
N1081 C1084 1.279 . S
C1082 C1080 1.353 . S
C1082 C1085 1.348 . S
C1082 H1130 0.929 . S
C1083 C1084 1.358 . S
C1083 C1085 1.356 . S
C1083 H1131 0.930 . S
C1084 N1081 1.279 . S
C1084 C1083 1.358 . S
C1084 H1087 0.930 . S
C1085 C1082 1.348 . S
C1085 C1083 1.356 . S
H1086 C1080 0.930 . S
H1087 C1084 0.930 . S
C1088 C1090 1.348 1_554 S
C1088 C1091 1.356 . S
C1088 O1118 1.325 . S
N1089 C1092 1.314 . S
N1089 C1093 1.279 . S
C1090 C1088 1.348 1_556 S
C1090 C1092 1.353 . S
C1090 H1132 0.929 . S
C1091 C1088 1.356 . S
C1091 C1093 1.358 1_554 S
C1091 H1133 0.930 . S
C1092 N1089 1.314 . S
C1092 C1090 1.353 . S
C1092 H1134 0.930 . S
C1093 N1089 1.279 . S
C1093 C1091 1.358 1_556 S
C1093 H1135 0.930 . S
C1094 C1095 1.348 . S
C1094 C1096 1.356 . S
C1094 O1119 1.325 . S
C1095 C1094 1.348 . S
C1095 C1097 1.353 . S
C1095 H1136 0.929 . S
C1096 C1094 1.356 . S
C1096 C1098 1.358 . S
C1096 H1137 0.930 . S
C1097 C1095 1.353 . S
C1097 N1099 1.314 . S
C1097 H1138 0.930 . S
C1098 C1096 1.358 . S
C1098 N1099 1.279 . S
C1098 H1139 0.930 . S
N1099 C1097 1.314 . S
N1099 C1098 1.279 . S
C1100 C1102 1.353 . S
C1100 N1103 1.314 . S
C1100 H1106 0.930 . S
C1101 N1103 1.279 . S
C1101 C1104 1.358 . S
C1101 H1107 0.930 . S
C1102 C1100 1.353 . S
C1102 C1105 1.348 . S
C1102 H1140 0.929 . S
N1103 Li1058 1.990 . S
N1103 C1100 1.314 . S
N1103 C1101 1.279 . S
C1104 C1101 1.358 . S
C1104 C1105 1.356 . S
C1104 H1141 0.930 . S
C1105 C1102 1.348 . S
C1105 C1104 1.356 . S
H1106 C1100 0.930 . S
H1107 C1101 0.930 . S
C1108 N1109 1.314 . S
C1108 C1110 1.353 . S
C1108 H1114 0.930 . S
N1109 Li1059 1.990 1_556 S
N1109 C1108 1.314 . S
N1109 C1112 1.279 . S
C1110 C1108 1.353 . S
C1110 C1113 1.348 . S
C1110 H1142 0.929 . S
C1111 C1112 1.358 . S
C1111 C1113 1.356 . S
C1111 H1143 0.930 . S
C1112 N1109 1.279 . S
C1112 C1111 1.358 . S
C1112 H1115 0.930 . S
C1113 C1110 1.348 . S
C1113 C1111 1.356 . S
H1114 C1108 0.930 . S
H1115 C1112 0.930 . S
O1116 Li1056 1.956 . S
O1116 Li1057 1.970 . S
O1116 Li1058 1.961 . S
O1116 C1060 1.325 . S
O1117 Li1056 1.970 . S
O1117 Li1057 1.956 . S
O1117 Li1059 1.961 . S
O1117 C1066 1.325 . S
O1118 Li1056 1.961 . S
O1118 Li1058 1.956 . S
O1118 Li1059 1.970 . S
O1118 C1088 1.325 . S
O1119 Li1057 1.961 . S
O1119 Li1058 1.970 . S
O1119 Li1059 1.956 . S
O1119 C1094 1.325 . S
H1120 C1062 0.929 . S
H1121 C1063 0.930 . S
H1122 C1064 0.930 . S
H1123 C1065 0.930 . S
H1124 C1067 0.930 . S
H1125 C1069 0.929 . S
H1126 C1070 0.930 . S
H1127 C1071 0.930 . S
H1128 C1074 0.930 . S
H1129 C1077 0.929 . S
H1130 C1082 0.929 . S
H1131 C1083 0.930 . S
H1132 C1090 0.929 . S
H1133 C1091 0.930 . S
H1134 C1092 0.930 . S
H1135 C1093 0.930 . S
H1136 C1095 0.929 . S
H1137 C1096 0.930 . S
H1138 C1097 0.930 . S
H1139 C1098 0.930 . S
H1140 C1102 0.929 . S
H1141 C1104 0.930 . S
H1142 C1110 0.929 . S
H1143 C1111 0.930 . S
Li1144 N1161 1.990 . S
Li1144 O1204 1.956 . S
Li1144 O1205 1.970 . S
Li1144 O1206 1.961 . S
Li1145 N1169 1.990 . S
Li1145 O1204 1.970 . S
Li1145 O1205 1.956 . S
Li1145 O1207 1.961 . S
Li1146 N1191 1.990 . S
Li1146 O1204 1.961 . S
Li1146 O1206 1.956 . S
Li1146 O1207 1.970 . S
Li1147 N1197 1.990 . S
Li1147 O1205 1.961 . S
Li1147 O1206 1.970 . S
Li1147 O1207 1.956 . S
C1148 C1150 1.348 . S
C1148 C1151 1.356 . S
C1148 O1204 1.325 . S
N1149 C1152 1.314 . S
N1149 C1153 1.279 . S
C1150 C1148 1.348 . S
C1150 C1152 1.353 . S
C1150 H1208 0.929 . S
C1151 C1148 1.356 . S
C1151 C1153 1.358 . S
C1151 H1209 0.930 . S
C1152 N1149 1.314 . S
C1152 C1150 1.353 . S
C1152 H1210 0.930 . S
C1153 N1149 1.279 . S
C1153 C1151 1.358 . S
C1153 H1211 0.930 . S
C1154 C1157 1.348 . S
C1154 C1158 1.356 . S
C1154 O1205 1.325 . S
C1155 N1156 1.279 . S
C1155 C1158 1.358 . S
C1155 H1212 0.930 . S
N1156 C1155 1.279 . S
N1156 C1159 1.314 . S
C1157 C1154 1.348 . S
C1157 C1159 1.353 . S
C1157 H1213 0.929 . S
C1158 C1154 1.356 . S
C1158 C1155 1.358 . S
C1158 H1214 0.930 . S
C1159 N1156 1.314 . S
C1159 C1157 1.353 . S
C1159 H1215 0.930 . S
C1160 N1161 1.314 . S
C1160 C1165 1.353 . S
C1160 H1166 0.930 . S
N1161 Li1144 1.990 . S
N1161 C1160 1.314 . S
N1161 C1163 1.279 . S
C1162 C1163 1.358 . S
C1162 C1164 1.356 . S
C1162 H1216 0.930 . S
C1163 N1161 1.279 . S
C1163 C1162 1.358 . S
C1163 H1167 0.930 . S
C1164 C1162 1.356 . S
C1164 C1165 1.348 . S
C1165 C1160 1.353 . S
C1165 C1164 1.348 . S
C1165 H1217 0.929 . S
H1166 C1160 0.930 . S
H1167 C1163 0.930 . S
C1168 N1169 1.314 . S
C1168 C1170 1.353 . S
C1168 H1174 0.930 . S
N1169 Li1145 1.990 . S
N1169 C1168 1.314 . S
N1169 C1172 1.279 . S
C1170 C1168 1.353 . S
C1170 C1173 1.348 . S
C1170 H1218 0.929 . S
C1171 C1172 1.358 . S
C1171 C1173 1.356 . S
C1171 H1219 0.930 . S
C1172 N1169 1.279 . S
C1172 C1171 1.358 . S
C1172 H1175 0.930 . S
C1173 C1170 1.348 . S
C1173 C1171 1.356 . S
H1174 C1168 0.930 . S
H1175 C1172 0.930 . S
C1176 C1178 1.348 . S
C1176 C1179 1.356 . S
C1176 O1206 1.325 . S
N1177 C1180 1.314 . S
N1177 C1181 1.279 . S
C1178 C1176 1.348 . S
C1178 C1180 1.353 . S
C1178 H1220 0.929 . S
C1179 C1176 1.356 . S
C1179 C1181 1.358 . S
C1179 H1221 0.930 . S
C1180 N1177 1.314 . S
C1180 C1178 1.353 . S
C1180 H1222 0.930 . S
C1181 N1177 1.279 . S
C1181 C1179 1.358 . S
C1181 H1223 0.930 . S
C1182 C1183 1.348 . S
C1182 C1184 1.356 . S
C1182 O1207 1.325 . S
C1183 C1182 1.348 . S
C1183 C1185 1.375 . S
C1183 H1224 0.929 . S
C1184 C1182 1.356 . S
C1184 C1186 1.358 . S
C1184 H1225 0.930 . S
C1185 C1183 1.375 . S
C1185 N1187 1.317 1_554 S
C1185 H1226 0.902 1_554 S
C1186 C1184 1.358 . S
C1186 N1187 1.279 1_554 S
C1186 H1227 0.930 . S
N1187 C1185 1.317 1_556 S
N1187 C1186 1.279 1_556 S
C1188 C1190 1.353 . S
C1188 N1191 1.314 . S
C1188 H1194 0.930 . S
C1189 N1191 1.279 . S
C1189 C1192 1.358 . S
C1189 H1195 0.930 . S
C1190 C1188 1.353 . S
C1190 C1193 1.348 . S
C1190 H1228 0.929 . S
N1191 Li1146 1.990 . S
N1191 C1188 1.314 . S
N1191 C1189 1.279 . S
C1192 C1189 1.358 . S
C1192 C1193 1.356 . S
C1192 H1229 0.930 . S
C1193 C1190 1.348 . S
C1193 C1192 1.356 . S
H1194 C1188 0.930 . S
H1195 C1189 0.930 . S
C1196 N1197 1.314 . S
C1196 C1198 1.353 . S
C1196 H1202 0.930 . S
N1197 Li1147 1.990 . S
N1197 C1196 1.314 . S
N1197 C1200 1.279 . S
C1198 C1196 1.353 . S
C1198 C1201 1.348 . S
C1198 H1230 0.929 . S
C1199 C1200 1.358 . S
C1199 C1201 1.356 . S
C1199 H1231 0.930 . S
C1200 N1197 1.279 . S
C1200 C1199 1.358 . S
C1200 H1203 0.930 . S
C1201 C1198 1.348 . S
C1201 C1199 1.356 . S
H1202 C1196 0.930 . S
H1203 C1200 0.930 . S
O1204 Li1144 1.956 . S
O1204 Li1145 1.970 . S
O1204 Li1146 1.961 . S
O1204 C1148 1.325 . S
O1205 Li1144 1.970 . S
O1205 Li1145 1.956 . S
O1205 Li1147 1.961 . S
O1205 C1154 1.325 . S
O1206 Li1144 1.961 . S
O1206 Li1146 1.956 . S
O1206 Li1147 1.970 . S
O1206 C1176 1.325 . S
O1207 Li1145 1.961 . S
O1207 Li1146 1.970 . S
O1207 Li1147 1.956 . S
O1207 C1182 1.325 . S
H1208 C1150 0.929 . S
H1209 C1151 0.930 . S
H1210 C1152 0.930 . S
H1211 C1153 0.930 . S
H1212 C1155 0.930 . S
H1213 C1157 0.929 . S
H1214 C1158 0.930 . S
H1215 C1159 0.930 . S
H1216 C1162 0.930 . S
H1217 C1165 0.929 . S
H1218 C1170 0.929 . S
H1219 C1171 0.930 . S
H1220 C1178 0.929 . S
H1221 C1179 0.930 . S
H1222 C1180 0.930 . S
H1223 C1181 0.930 . S
H1224 C1183 0.929 . S
H1225 C1184 0.930 . S
H1226 C1185 0.902 1_556 S
H1227 C1186 0.930 . S
H1228 C1190 0.929 . S
H1229 C1192 0.930 . S
H1230 C1198 0.929 . S
H1231 C1199 0.930 . S
Li1232 N1249 1.990 . S
Li1232 O1292 1.956 . S
Li1232 O1293 1.970 . S
Li1232 O1294 1.961 . S
Li1233 N1257 1.990 . S
Li1233 O1292 1.970 . S
Li1233 O1293 1.956 . S
Li1233 O1295 1.961 . S
Li1234 N1279 1.990 . S
Li1234 O1292 1.961 . S
Li1234 O1294 1.956 . S
Li1234 O1295 1.970 . S
Li1235 N1285 1.990 . S
Li1235 O1293 1.961 . S
Li1235 O1294 1.970 . S
Li1235 O1295 1.956 . S
C1236 C1238 1.348 . S
C1236 C1239 1.356 . S
C1236 O1292 1.325 . S
N1237 C1240 1.314 . S
N1237 C1241 1.279 . S
C1238 C1236 1.348 . S
C1238 C1240 1.353 . S
C1238 H1296 0.929 . S
C1239 C1236 1.356 . S
C1239 C1241 1.358 . S
C1239 H1297 0.930 . S
C1240 N1237 1.314 . S
C1240 C1238 1.353 . S
C1240 H1298 0.930 . S
C1241 N1237 1.279 . S
C1241 C1239 1.358 . S
C1241 H1299 0.930 . S
C1242 C1245 1.348 . S
C1242 C1246 1.356 . S
C1242 O1293 1.325 . S
C1243 N1244 1.279 . S
C1243 C1246 1.358 . S
C1243 H1300 0.930 . S
N1244 C1243 1.279 . S
N1244 C1247 1.314 . S
C1245 C1242 1.348 . S
C1245 C1247 1.353 . S
C1245 H1301 0.929 . S
C1246 C1242 1.356 . S
C1246 C1243 1.358 . S
C1246 H1302 0.930 . S
C1247 N1244 1.314 . S
C1247 C1245 1.353 . S
C1247 H1303 0.930 . S
C1248 N1249 1.314 . S
C1248 C1253 1.353 . S
C1248 H1254 0.930 . S
N1249 Li1232 1.990 . S
N1249 C1248 1.314 . S
N1249 C1251 1.279 . S
C1250 C1251 1.358 . S
C1250 C1252 1.356 . S
C1250 H1304 0.930 . S
C1251 N1249 1.279 . S
C1251 C1250 1.358 . S
C1251 H1255 0.930 . S
C1252 C1250 1.356 . S
C1252 C1253 1.348 . S
C1253 C1248 1.353 . S
C1253 C1252 1.348 . S
C1253 H1305 0.929 . S
H1254 C1248 0.930 . S
H1255 C1251 0.930 . S
C1256 N1257 1.314 . S
C1256 C1258 1.353 . S
C1256 H1262 0.930 . S
N1257 Li1233 1.990 . S
N1257 C1256 1.314 . S
N1257 C1260 1.279 . S
C1258 C1256 1.353 . S
C1258 C1261 1.348 . S
C1258 H1306 0.929 . S
C1259 C1260 1.358 . S
C1259 C1261 1.356 . S
C1259 H1307 0.930 . S
C1260 N1257 1.279 . S
C1260 C1259 1.358 . S
C1260 H1263 0.930 . S
C1261 C1258 1.348 . S
C1261 C1259 1.356 . S
H1262 C1256 0.930 . S
H1263 C1260 0.930 . S
C1264 C1266 1.348 . S
C1264 C1267 1.356 . S
C1264 O1294 1.325 . S
N1265 C1268 1.314 . S
N1265 C1269 1.279 . S
C1266 C1264 1.348 . S
C1266 C1268 1.353 . S
C1266 H1308 0.929 . S
C1267 C1264 1.356 . S
C1267 C1269 1.358 . S
C1267 H1309 0.930 . S
C1268 N1265 1.314 . S
C1268 C1266 1.353 . S
C1268 H1310 0.930 . S
C1269 N1265 1.279 . S
C1269 C1267 1.358 . S
C1269 H1311 0.930 . S
C1270 C1271 1.348 . S
C1270 C1272 1.356 . S
C1270 O1295 1.325 . S
C1271 C1270 1.348 . S
C1271 C1273 1.353 . S
C1271 H1312 0.929 . S
C1272 C1270 1.356 . S
C1272 C1274 1.358 . S
C1272 H1313 0.930 . S
C1273 C1271 1.353 . S
C1273 N1275 1.314 . S
C1273 H1314 0.930 . S
C1274 C1272 1.358 . S
C1274 N1275 1.279 . S
C1274 H1315 0.930 . S
N1275 C1273 1.314 . S
N1275 C1274 1.279 . S
C1276 C1278 1.353 . S
C1276 N1279 1.314 . S
C1276 H1282 0.930 . S
C1277 N1279 1.279 . S
C1277 C1280 1.358 . S
C1277 H1283 0.930 . S
C1278 C1276 1.353 . S
C1278 C1281 1.348 . S
C1278 H1316 0.929 . S
N1279 Li1234 1.990 . S
N1279 C1276 1.314 . S
N1279 C1277 1.279 . S
C1280 C1277 1.358 . S
C1280 C1281 1.356 . S
C1280 H1317 0.930 . S
C1281 C1278 1.348 . S
C1281 C1280 1.356 . S
H1282 C1276 0.930 . S
H1283 C1277 0.930 . S
C1284 N1285 1.314 . S
C1284 C1286 1.353 . S
C1284 H1290 0.930 . S
N1285 Li1235 1.990 . S
N1285 C1284 1.314 . S
N1285 C1288 1.279 . S
C1286 C1284 1.353 . S
C1286 C1289 1.348 . S
C1286 H1318 0.929 . S
C1287 C1288 1.358 . S
C1287 C1289 1.356 . S
C1287 H1319 0.930 . S
C1288 N1285 1.279 . S
C1288 C1287 1.358 . S
C1288 H1291 0.930 . S
C1289 C1286 1.348 . S
C1289 C1287 1.356 . S
H1290 C1284 0.930 . S
H1291 C1288 0.930 . S
O1292 Li1232 1.956 . S
O1292 Li1233 1.970 . S
O1292 Li1234 1.961 . S
O1292 C1236 1.325 . S
O1293 Li1232 1.970 . S
O1293 Li1233 1.956 . S
O1293 Li1235 1.961 . S
O1293 C1242 1.325 . S
O1294 Li1232 1.961 . S
O1294 Li1234 1.956 . S
O1294 Li1235 1.970 . S
O1294 C1264 1.325 . S
O1295 Li1233 1.961 . S
O1295 Li1234 1.970 . S
O1295 Li1235 1.956 . S
O1295 C1270 1.325 . S
H1296 C1238 0.929 . S
H1297 C1239 0.930 . S
H1298 C1240 0.930 . S
H1299 C1241 0.930 . S
H1300 C1243 0.930 . S
H1301 C1245 0.929 . S
H1302 C1246 0.930 . S
H1303 C1247 0.930 . S
H1304 C1250 0.930 . S
H1305 C1253 0.929 . S
H1306 C1258 0.929 . S
H1307 C1259 0.930 . S
H1308 C1266 0.929 . S
H1309 C1267 0.930 . S
H1310 C1268 0.930 . S
H1311 C1269 0.930 . S
H1312 C1271 0.929 . S
H1313 C1272 0.930 . S
H1314 C1273 0.930 . S
H1315 C1274 0.930 . S
H1316 C1278 0.929 . S
H1317 C1280 0.930 . S
H1318 C1286 0.929 . S
H1319 C1287 0.930 . S
Li1320 N1337 1.990 . S
Li1320 O1380 1.956 . S
Li1320 O1381 1.970 . S
Li1320 O1382 1.961 . S
Li1321 N1345 1.990 . S
Li1321 O1380 1.970 . S
Li1321 O1381 1.956 . S
Li1321 O1383 1.961 . S
Li1322 N1367 1.990 . S
Li1322 O1380 1.961 . S
Li1322 O1382 1.956 . S
Li1322 O1383 1.970 . S
Li1323 N1373 1.990 . S
Li1323 O1381 1.961 . S
Li1323 O1382 1.970 . S
Li1323 O1383 1.956 . S
C1324 C1326 1.348 . S
C1324 C1327 1.356 . S
C1324 O1380 1.325 . S
N1325 C1328 1.314 . S
N1325 C1329 1.279 . S
C1326 C1324 1.348 . S
C1326 C1328 1.353 . S
C1326 H1384 0.929 . S
C1327 C1324 1.356 . S
C1327 C1329 1.358 . S
C1327 H1385 0.930 . S
C1328 N1325 1.314 . S
C1328 C1326 1.353 . S
C1328 H1386 0.930 . S
C1329 N1325 1.279 . S
C1329 C1327 1.358 . S
C1329 H1387 0.930 . S
C1330 C1333 1.348 . S
C1330 C1334 1.356 . S
C1330 O1381 1.325 . S
C1331 N1332 1.279 . S
C1331 C1334 1.358 . S
C1331 H1388 0.930 . S
N1332 C1331 1.279 . S
N1332 C1335 1.314 . S
C1333 C1330 1.348 . S
C1333 C1335 1.353 . S
C1333 H1389 0.929 . S
C1334 C1330 1.356 . S
C1334 C1331 1.358 . S
C1334 H1390 0.930 . S
C1335 N1332 1.314 . S
C1335 C1333 1.353 . S
C1335 H1391 0.930 . S
C1336 N1337 1.314 . S
C1336 C1341 1.353 . S
C1336 H1342 0.930 . S
N1337 Li1320 1.990 . S
N1337 C1336 1.314 . S
N1337 C1339 1.279 . S
C1338 C1339 1.358 . S
C1338 C1340 1.356 . S
C1338 H1392 0.930 . S
C1339 N1337 1.279 . S
C1339 C1338 1.358 . S
C1339 H1343 0.930 . S
C1340 C1338 1.356 . S
C1340 C1341 1.348 . S
C1341 C1336 1.353 . S
C1341 C1340 1.348 . S
C1341 H1393 0.929 . S
H1342 C1336 0.930 . S
H1343 C1339 0.930 . S
C1344 N1345 1.314 . S
C1344 C1346 1.353 . S
C1344 H1350 0.930 . S
N1345 Li1321 1.990 . S
N1345 C1344 1.314 . S
N1345 C1348 1.279 . S
C1346 C1344 1.353 . S
C1346 C1349 1.348 . S
C1346 H1394 0.929 . S
C1347 C1348 1.358 . S
C1347 C1349 1.356 . S
C1347 H1395 0.930 . S
C1348 N1345 1.279 . S
C1348 C1347 1.358 . S
C1348 H1351 0.930 . S
C1349 C1346 1.348 . S
C1349 C1347 1.356 . S
H1350 C1344 0.930 . S
H1351 C1348 0.930 . S
C1352 C1354 1.348 . S
C1352 C1355 1.356 . S
C1352 O1382 1.325 . S
N1353 C1356 1.314 . S
N1353 C1357 1.279 . S
C1354 C1352 1.348 . S
C1354 C1356 1.353 . S
C1354 H1396 0.929 . S
C1355 C1352 1.356 . S
C1355 C1357 1.358 . S
C1355 H1397 0.930 . S
C1356 N1353 1.314 . S
C1356 C1354 1.353 . S
C1356 H1398 0.930 . S
C1357 N1353 1.279 . S
C1357 C1355 1.358 . S
C1357 H1399 0.930 . S
C1358 C1359 1.348 . S
C1358 C1360 1.356 . S
C1358 O1383 1.325 . S
C1359 C1358 1.348 . S
C1359 C1361 1.353 . S
C1359 H1400 0.929 . S
C1360 C1358 1.356 . S
C1360 C1362 1.358 . S
C1360 H1401 0.930 . S
C1361 C1359 1.353 . S
C1361 N1363 1.314 . S
C1361 H1402 0.930 . S
C1362 C1360 1.358 . S
C1362 N1363 1.279 . S
C1362 H1403 0.930 . S
N1363 C1361 1.314 . S
N1363 C1362 1.279 . S
C1364 C1366 1.353 . S
C1364 N1367 1.314 . S
C1364 H1370 0.930 . S
C1365 N1367 1.279 . S
C1365 C1368 1.358 . S
C1365 H1371 0.930 . S
C1366 C1364 1.353 . S
C1366 C1369 1.348 . S
C1366 H1404 0.929 . S
N1367 Li1322 1.990 . S
N1367 C1364 1.314 . S
N1367 C1365 1.279 . S
C1368 C1365 1.358 . S
C1368 C1369 1.356 . S
C1368 H1405 0.930 . S
C1369 C1366 1.348 . S
C1369 C1368 1.356 . S
H1370 C1364 0.930 . S
H1371 C1365 0.930 . S
C1372 N1373 1.314 . S
C1372 C1374 1.353 . S
C1372 H1378 0.930 . S
N1373 Li1323 1.990 . S
N1373 C1372 1.314 . S
N1373 C1376 1.279 . S
C1374 C1372 1.353 . S
C1374 C1377 1.348 . S
C1374 H1406 0.929 . S
C1375 C1376 1.358 . S
C1375 C1377 1.356 . S
C1375 H1407 0.930 . S
C1376 N1373 1.279 . S
C1376 C1375 1.358 . S
C1376 H1379 0.930 . S
C1377 C1374 1.348 . S
C1377 C1375 1.356 . S
H1378 C1372 0.930 . S
H1379 C1376 0.930 . S
O1380 Li1320 1.956 . S
O1380 Li1321 1.970 . S
O1380 Li1322 1.961 . S
O1380 C1324 1.325 . S
O1381 Li1320 1.970 . S
O1381 Li1321 1.956 . S
O1381 Li1323 1.961 . S
O1381 C1330 1.325 . S
O1382 Li1320 1.961 . S
O1382 Li1322 1.956 . S
O1382 Li1323 1.970 . S
O1382 C1352 1.325 . S
O1383 Li1321 1.961 . S
O1383 Li1322 1.970 . S
O1383 Li1323 1.956 . S
O1383 C1358 1.325 . S
H1384 C1326 0.929 . S
H1385 C1327 0.930 . S
H1386 C1328 0.930 . S
H1387 C1329 0.930 . S
H1388 C1331 0.930 . S
H1389 C1333 0.929 . S
H1390 C1334 0.930 . S
H1391 C1335 0.930 . S
H1392 C1338 0.930 . S
H1393 C1341 0.929 . S
H1394 C1346 0.929 . S
H1395 C1347 0.930 . S
H1396 C1354 0.929 . S
H1397 C1355 0.930 . S
H1398 C1356 0.930 . S
H1399 C1357 0.930 . S
H1400 C1359 0.929 . S
H1401 C1360 0.930 . S
H1402 C1361 0.930 . S
H1403 C1362 0.930 . S
H1404 C1366 0.929 . S
H1405 C1368 0.930 . S
H1406 C1374 0.929 . S
H1407 C1375 0.930 . S
Li1408 N1425 1.990 . S
Li1408 O1468 1.956 1_545 S
Li1408 O1469 1.966 . S
Li1408 O1470 1.961 . S
Li1409 N1433 1.990 . S
Li1409 O1468 1.970 . S
Li1409 O1469 1.935 1_565 S
Li1409 O1471 1.961 . S
Li1410 N1455 1.990 . S
Li1410 O1468 1.961 1_545 S
Li1410 O1470 1.956 . S
Li1410 O1471 1.970 1_545 S
Li1411 N1461 1.990 . S
Li1411 O1469 1.985 . S
Li1411 O1470 1.970 . S
Li1411 O1471 1.956 1_545 S
C1412 C1414 1.348 . S
C1412 C1415 1.356 . S
C1412 O1468 1.325 . S
N1413 C1416 1.314 . S
N1413 C1417 1.279 . S
C1414 C1412 1.348 . S
C1414 C1416 1.353 . S
C1414 H1472 0.929 . S
C1415 C1412 1.356 . S
C1415 C1417 1.358 . S
C1415 H1473 0.930 . S
C1416 N1413 1.314 . S
C1416 C1414 1.353 . S
C1416 H1474 0.930 . S
C1417 N1413 1.279 . S
C1417 C1415 1.358 . S
C1417 H1475 0.930 1_655 S
C1418 C1421 1.349 . S
C1418 C1422 1.346 1_565 S
C1418 O1469 1.324 1_565 S
C1419 N1420 1.279 . S
C1419 C1422 1.358 1_565 S
C1419 H1476 0.931 1_565 S
N1420 C1419 1.279 . S
N1420 C1423 1.314 . S
C1421 C1418 1.349 . S
C1421 C1423 1.353 . S
C1421 H1477 0.929 . S
C1422 C1418 1.346 1_545 S
C1422 C1419 1.358 1_545 S
C1422 H1478 0.941 . S
C1423 N1420 1.314 . S
C1423 C1421 1.353 . S
C1423 H1479 0.930 . S
C1424 N1425 1.314 . S
C1424 C1429 1.353 . S
C1424 H1430 0.930 . S
N1425 Li1408 1.990 . S
N1425 C1424 1.314 . S
N1425 C1427 1.279 1_545 S
C1426 C1427 1.358 1_455 S
C1426 C1428 1.356 1_565 S
C1426 H1480 0.930 . S
C1427 N1425 1.279 1_565 S
C1427 C1426 1.358 1_655 S
C1427 H1431 0.930 . S
C1428 C1426 1.356 1_545 S
C1428 C1429 1.348 1_455 S
C1429 C1424 1.353 . S
C1429 C1428 1.348 1_655 S
C1429 H1481 0.929 1_655 S
H1430 C1424 0.930 . S
H1431 C1427 0.930 . S
C1432 N1433 1.314 . S
C1432 C1434 1.353 . S
C1432 H1438 0.930 . S
N1433 Li1409 1.990 . S
N1433 C1432 1.314 . S
N1433 C1436 1.279 . S
C1434 C1432 1.353 . S
C1434 C1437 1.348 . S
C1434 H1482 0.929 . S
C1435 C1436 1.358 . S
C1435 C1437 1.356 . S
C1435 H1483 0.930 . S
C1436 N1433 1.279 . S
C1436 C1435 1.358 . S
C1436 H1439 0.930 . S
C1437 C1434 1.348 . S
C1437 C1435 1.356 . S
H1438 C1432 0.930 . S
H1439 C1436 0.930 . S
C1440 C1442 1.348 . S
C1440 C1443 1.356 . S
C1440 O1470 1.325 . S
N1441 C1444 1.314 1_455 S
N1441 C1445 1.279 . S
C1442 C1440 1.348 . S
C1442 C1444 1.353 . S
C1442 H1484 0.929 . S
C1443 C1440 1.356 . S
C1443 C1445 1.358 1_655 S
C1443 H1485 0.930 . S
C1444 N1441 1.314 1_655 S
C1444 C1442 1.353 . S
C1444 H1486 0.930 . S
C1445 N1441 1.279 . S
C1445 C1443 1.358 1_455 S
C1445 H1487 0.930 . S
C1446 C1447 1.348 . S
C1446 C1448 1.356 . S
C1446 O1471 1.325 . S
C1447 C1446 1.348 . S
C1447 C1449 1.353 . S
C1447 H1488 0.929 1_565 S
C1448 C1446 1.356 . S
C1448 C1450 1.358 . S
C1448 H1489 0.930 . S
C1449 C1447 1.353 . S
C1449 N1451 1.314 . S
C1449 H1490 0.930 . S
C1450 C1448 1.358 . S
C1450 N1451 1.279 . S
C1450 H1491 0.930 . S
N1451 C1449 1.314 . S
N1451 C1450 1.279 . S
C1452 C1454 1.353 . S
C1452 N1455 1.314 1_565 S
C1452 H1458 0.930 . S
C1453 N1455 1.279 . S
C1453 C1456 1.358 . S
C1453 H1459 0.930 . S
C1454 C1452 1.353 . S
C1454 C1457 1.312 1_565 S
C1454 H1492 0.929 . S
N1455 Li1410 1.990 . S
N1455 C1452 1.314 1_545 S
N1455 C1453 1.279 . S
C1456 C1453 1.358 . S
C1456 C1457 1.390 . S
C1456 H1493 0.920 1_655 S
C1457 C1454 1.312 1_545 S
C1457 C1456 1.390 . S
H1458 C1452 0.930 . S
H1459 C1453 0.930 . S
C1460 N1461 1.314 . S
C1460 C1462 1.353 . S
C1460 H1466 0.930 . S
N1461 Li1411 1.990 . S
N1461 C1460 1.314 . S
N1461 C1464 1.279 . S
C1462 C1460 1.353 . S
C1462 C1465 1.348 . S
C1462 H1494 0.929 . S
C1463 C1464 1.358 . S
C1463 C1465 1.356 . S
C1463 H1495 0.930 . S
C1464 N1461 1.279 . S
C1464 C1463 1.358 . S
C1464 H1467 0.930 . S
C1465 C1462 1.348 . S
C1465 C1463 1.356 . S
H1466 C1460 0.930 . S
H1467 C1464 0.930 . S
O1468 Li1408 1.956 1_565 S
O1468 Li1409 1.970 . S
O1468 Li1410 1.961 1_565 S
O1468 C1412 1.325 . S
O1469 Li1408 1.966 . S
O1469 Li1409 1.935 1_545 S
O1469 Li1411 1.985 . S
O1469 C1418 1.324 1_545 S
O1470 Li1408 1.961 . S
O1470 Li1410 1.956 . S
O1470 Li1411 1.970 . S
O1470 C1440 1.325 . S
O1471 Li1409 1.961 . S
O1471 Li1410 1.970 1_565 S
O1471 Li1411 1.956 1_565 S
O1471 C1446 1.325 . S
H1472 C1414 0.929 . S
H1473 C1415 0.930 . S
H1474 C1416 0.930 . S
H1475 C1417 0.930 1_455 S
H1476 C1419 0.931 1_545 S
H1477 C1421 0.929 . S
H1478 C1422 0.941 . S
H1479 C1423 0.930 . S
H1480 C1426 0.930 . S
H1481 C1429 0.929 1_455 S
H1482 C1434 0.929 . S
H1483 C1435 0.930 . S
H1484 C1442 0.929 . S
H1485 C1443 0.930 . S
H1486 C1444 0.930 . S
H1487 C1445 0.930 . S
H1488 C1447 0.929 1_545 S
H1489 C1448 0.930 . S
H1490 C1449 0.930 . S
H1491 C1450 0.930 . S
H1492 C1454 0.929 . S
H1493 C1456 0.920 1_455 S
H1494 C1462 0.929 . S
H1495 C1463 0.930 . S
Li1496 N1513 1.990 . S
Li1496 O1556 1.956 . S
Li1496 O1557 1.970 . S
Li1496 O1558 1.961 . S
Li1497 N1521 1.990 . S
Li1497 O1556 1.970 . S
Li1497 O1557 1.956 . S
Li1497 O1559 1.961 . S
Li1498 N1543 1.990 . S
Li1498 O1556 1.961 . S
Li1498 O1558 1.956 . S
Li1498 O1559 1.970 . S
Li1499 N1549 1.990 . S
Li1499 O1557 1.961 . S
Li1499 O1558 1.970 . S
Li1499 O1559 1.956 . S
C1500 C1502 1.348 . S
C1500 C1503 1.356 . S
C1500 O1556 1.325 . S
N1501 C1504 1.314 . S
N1501 C1505 1.279 . S
C1502 C1500 1.348 . S
C1502 C1504 1.353 . S
C1502 H1560 0.929 . S
C1503 C1500 1.356 . S
C1503 C1505 1.358 . S
C1503 H1561 0.930 . S
C1504 N1501 1.314 . S
C1504 C1502 1.353 . S
C1504 H1562 0.930 . S
C1505 N1501 1.279 . S
C1505 C1503 1.358 . S
C1505 H1563 0.930 . S
C1506 C1509 1.348 . S
C1506 C1510 1.356 . S
C1506 O1557 1.325 . S
C1507 N1508 1.279 . S
C1507 C1510 1.358 . S
C1507 H1564 0.930 . S
N1508 C1507 1.279 . S
N1508 C1511 1.314 . S
C1509 C1506 1.348 . S
C1509 C1511 1.353 . S
C1509 H1565 0.929 . S
C1510 C1506 1.356 . S
C1510 C1507 1.358 . S
C1510 H1566 0.930 . S
C1511 N1508 1.314 . S
C1511 C1509 1.353 . S
C1511 H1567 0.930 . S
C1512 N1513 1.314 . S
C1512 C1517 1.353 . S
C1512 H1518 0.930 . S
N1513 Li1496 1.990 . S
N1513 C1512 1.314 . S
N1513 C1515 1.279 . S
C1514 C1515 1.358 . S
C1514 C1516 1.356 . S
C1514 H1568 0.930 . S
C1515 N1513 1.279 . S
C1515 C1514 1.358 . S
C1515 H1519 0.930 . S
C1516 C1514 1.356 . S
C1516 C1517 1.348 . S
C1517 C1512 1.353 . S
C1517 C1516 1.348 . S
C1517 H1569 0.929 . S
H1518 C1512 0.930 . S
H1519 C1515 0.930 . S
C1520 N1521 1.314 . S
C1520 C1522 1.353 . S
C1520 H1526 0.930 . S
N1521 Li1497 1.990 . S
N1521 C1520 1.314 . S
N1521 C1524 1.279 . S
C1522 C1520 1.353 . S
C1522 C1525 1.348 . S
C1522 H1570 0.929 . S
C1523 C1524 1.358 . S
C1523 C1525 1.356 . S
C1523 H1571 0.930 . S
C1524 N1521 1.279 . S
C1524 C1523 1.358 . S
C1524 H1527 0.930 . S
C1525 C1522 1.348 . S
C1525 C1523 1.356 . S
H1526 C1520 0.930 . S
H1527 C1524 0.930 . S
C1528 C1530 1.348 . S
C1528 C1531 1.356 . S
C1528 O1558 1.325 . S
N1529 C1532 1.314 . S
N1529 C1533 1.279 . S
C1530 C1528 1.348 . S
C1530 C1532 1.353 . S
C1530 H1572 0.929 . S
C1531 C1528 1.356 . S
C1531 C1533 1.358 . S
C1531 H1573 0.930 . S
C1532 N1529 1.314 . S
C1532 C1530 1.353 . S
C1532 H1574 0.930 . S
C1533 N1529 1.279 . S
C1533 C1531 1.358 . S
C1533 H1575 0.930 . S
C1534 C1535 1.348 . S
C1534 C1536 1.356 . S
C1534 O1559 1.325 . S
C1535 C1534 1.348 . S
C1535 C1537 1.353 . S
C1535 H1576 0.929 . S
C1536 C1534 1.356 . S
C1536 C1538 1.358 . S
C1536 H1577 0.930 . S
C1537 C1535 1.353 . S
C1537 N1539 1.314 . S
C1537 H1578 0.930 . S
C1538 C1536 1.358 . S
C1538 N1539 1.279 . S
C1538 H1579 0.930 . S
N1539 C1537 1.314 . S
N1539 C1538 1.279 . S
C1540 C1542 1.353 . S
C1540 N1543 1.314 . S
C1540 H1546 0.930 . S
C1541 N1543 1.279 . S
C1541 C1544 1.358 . S
C1541 H1547 0.930 . S
C1542 C1540 1.353 . S
C1542 C1545 1.348 . S
C1542 H1580 0.929 . S
N1543 Li1498 1.990 . S
N1543 C1540 1.314 . S
N1543 C1541 1.279 . S
C1544 C1541 1.358 . S
C1544 C1545 1.356 . S
C1544 H1581 0.930 . S
C1545 C1542 1.348 . S
C1545 C1544 1.356 . S
H1546 C1540 0.930 . S
H1547 C1541 0.930 . S
C1548 N1549 1.314 . S
C1548 C1550 1.353 . S
C1548 H1554 0.930 . S
N1549 Li1499 1.990 . S
N1549 C1548 1.314 . S
N1549 C1552 1.279 . S
C1550 C1548 1.353 . S
C1550 C1553 1.348 . S
C1550 H1582 0.929 . S
C1551 C1552 1.358 . S
C1551 C1553 1.356 . S
C1551 H1583 0.930 . S
C1552 N1549 1.279 . S
C1552 C1551 1.358 . S
C1552 H1555 0.930 . S
C1553 C1550 1.348 . S
C1553 C1551 1.356 . S
H1554 C1548 0.930 . S
H1555 C1552 0.930 . S
O1556 Li1496 1.956 . S
O1556 Li1497 1.970 . S
O1556 Li1498 1.961 . S
O1556 C1500 1.325 . S
O1557 Li1496 1.970 . S
O1557 Li1497 1.956 . S
O1557 Li1499 1.961 . S
O1557 C1506 1.325 . S
O1558 Li1496 1.961 . S
O1558 Li1498 1.956 . S
O1558 Li1499 1.970 . S
O1558 C1528 1.325 . S
O1559 Li1497 1.961 . S
O1559 Li1498 1.970 . S
O1559 Li1499 1.956 . S
O1559 C1534 1.325 . S
H1560 C1502 0.929 . S
H1561 C1503 0.930 . S
H1562 C1504 0.930 . S
H1563 C1505 0.930 . S
H1564 C1507 0.930 . S
H1565 C1509 0.929 . S
H1566 C1510 0.930 . S
H1567 C1511 0.930 . S
H1568 C1514 0.930 . S
H1569 C1517 0.929 . S
H1570 C1522 0.929 . S
H1571 C1523 0.930 . S
H1572 C1530 0.929 . S
H1573 C1531 0.930 . S
H1574 C1532 0.930 . S
H1575 C1533 0.930 . S
H1576 C1535 0.929 . S
H1577 C1536 0.930 . S
H1578 C1537 0.930 . S
H1579 C1538 0.930 . S
H1580 C1542 0.929 . S
H1581 C1544 0.930 . S
H1582 C1550 0.929 . S
H1583 C1551 0.930 . S
Li1584 N1601 1.990 . S
Li1584 O1644 1.956 . S
Li1584 O1645 1.970 . S
Li1584 O1646 1.961 . S
Li1585 N1609 1.990 . S
Li1585 O1644 1.970 . S
Li1585 O1645 1.956 . S
Li1585 O1647 1.961 . S
Li1586 N1631 1.990 . S
Li1586 O1644 1.961 . S
Li1586 O1646 1.956 . S
Li1586 O1647 1.970 . S
Li1587 N1637 1.990 . S
Li1587 O1645 1.961 . S
Li1587 O1646 1.970 . S
Li1587 O1647 1.956 . S
C1588 C1590 1.348 . S
C1588 C1591 1.356 . S
C1588 O1644 1.325 . S
N1589 C1592 1.314 . S
N1589 C1593 1.279 . S
C1590 C1588 1.348 . S
C1590 C1592 1.353 . S
C1590 H1648 0.929 . S
C1591 C1588 1.356 . S
C1591 C1593 1.358 . S
C1591 H1649 0.930 . S
C1592 N1589 1.314 . S
C1592 C1590 1.353 . S
C1592 H1650 0.930 . S
C1593 N1589 1.279 . S
C1593 C1591 1.358 . S
C1593 H1651 0.930 . S
C1594 C1597 1.348 . S
C1594 C1598 1.356 . S
C1594 O1645 1.325 . S
C1595 N1596 1.279 . S
C1595 C1598 1.358 . S
C1595 H1652 0.930 . S
N1596 C1595 1.279 . S
N1596 C1599 1.314 . S
C1597 C1594 1.348 . S
C1597 C1599 1.353 . S
C1597 H1653 0.929 . S
C1598 C1594 1.356 . S
C1598 C1595 1.358 . S
C1598 H1654 0.930 . S
C1599 N1596 1.314 . S
C1599 C1597 1.353 . S
C1599 H1655 0.930 . S
C1600 N1601 1.314 . S
C1600 C1605 1.353 . S
C1600 H1606 0.930 . S
N1601 Li1584 1.990 . S
N1601 C1600 1.314 . S
N1601 C1603 1.279 . S
C1602 C1603 1.358 . S
C1602 C1604 1.356 . S
C1602 H1656 0.930 . S
C1603 N1601 1.279 . S
C1603 C1602 1.358 . S
C1603 H1607 0.930 . S
C1604 C1602 1.356 . S
C1604 C1605 1.348 . S
C1605 C1600 1.353 . S
C1605 C1604 1.348 . S
C1605 H1657 0.929 . S
H1606 C1600 0.930 . S
H1607 C1603 0.930 . S
C1608 N1609 1.314 . S
C1608 C1610 1.353 . S
C1608 H1614 0.930 . S
N1609 Li1585 1.990 . S
N1609 C1608 1.314 . S
N1609 C1612 1.279 . S
C1610 C1608 1.353 . S
C1610 C1613 1.348 . S
C1610 H1658 0.929 . S
C1611 C1612 1.358 . S
C1611 C1613 1.356 . S
C1611 H1659 0.930 . S
C1612 N1609 1.279 . S
C1612 C1611 1.358 . S
C1612 H1615 0.930 . S
C1613 C1610 1.348 . S
C1613 C1611 1.356 . S
H1614 C1608 0.930 . S
H1615 C1612 0.930 . S
C1616 C1618 1.348 . S
C1616 C1619 1.356 . S
C1616 O1646 1.325 . S
N1617 C1620 1.314 . S
N1617 C1621 1.279 . S
C1618 C1616 1.348 . S
C1618 C1620 1.353 . S
C1618 H1660 0.929 . S
C1619 C1616 1.356 . S
C1619 C1621 1.358 . S
C1619 H1661 0.930 . S
C1620 N1617 1.314 . S
C1620 C1618 1.353 . S
C1620 H1662 0.930 . S
C1621 N1617 1.279 . S
C1621 C1619 1.358 . S
C1621 H1663 0.930 . S
C1622 C1623 1.348 . S
C1622 C1624 1.356 . S
C1622 O1647 1.325 . S
C1623 C1622 1.348 . S
C1623 C1625 1.353 . S
C1623 H1664 0.929 . S
C1624 C1622 1.356 . S
C1624 C1626 1.358 . S
C1624 H1665 0.930 . S
C1625 C1623 1.353 . S
C1625 N1627 1.314 . S
C1625 H1666 0.930 . S
C1626 C1624 1.358 . S
C1626 N1627 1.279 . S
C1626 H1667 0.930 . S
N1627 C1625 1.314 . S
N1627 C1626 1.279 . S
C1628 C1630 1.353 . S
C1628 N1631 1.314 . S
C1628 H1634 0.930 . S
C1629 N1631 1.279 . S
C1629 C1632 1.358 . S
C1629 H1635 0.930 . S
C1630 C1628 1.353 . S
C1630 C1633 1.348 . S
C1630 H1668 0.929 . S
N1631 Li1586 1.990 . S
N1631 C1628 1.314 . S
N1631 C1629 1.279 . S
C1632 C1629 1.358 . S
C1632 C1633 1.356 . S
C1632 H1669 0.930 . S
C1633 C1630 1.348 . S
C1633 C1632 1.356 . S
H1634 C1628 0.930 . S
H1635 C1629 0.930 . S
C1636 N1637 1.314 . S
C1636 C1638 1.353 . S
C1636 H1642 0.930 . S
N1637 Li1587 1.990 . S
N1637 C1636 1.314 . S
N1637 C1640 1.279 . S
C1638 C1636 1.353 . S
C1638 C1641 1.348 . S
C1638 H1670 0.929 . S
C1639 C1640 1.358 . S
C1639 C1641 1.356 . S
C1639 H1671 0.930 . S
C1640 N1637 1.279 . S
C1640 C1639 1.358 . S
C1640 H1643 0.930 . S
C1641 C1638 1.348 . S
C1641 C1639 1.356 . S
H1642 C1636 0.930 . S
H1643 C1640 0.930 . S
O1644 Li1584 1.956 . S
O1644 Li1585 1.970 . S
O1644 Li1586 1.961 . S
O1644 C1588 1.325 . S
O1645 Li1584 1.970 . S
O1645 Li1585 1.956 . S
O1645 Li1587 1.961 . S
O1645 C1594 1.325 . S
O1646 Li1584 1.961 . S
O1646 Li1586 1.956 . S
O1646 Li1587 1.970 . S
O1646 C1616 1.325 . S
O1647 Li1585 1.961 . S
O1647 Li1586 1.970 . S
O1647 Li1587 1.956 . S
O1647 C1622 1.325 . S
H1648 C1590 0.929 . S
H1649 C1591 0.930 . S
H1650 C1592 0.930 . S
H1651 C1593 0.930 . S
H1652 C1595 0.930 . S
H1653 C1597 0.929 . S
H1654 C1598 0.930 . S
H1655 C1599 0.930 . S
H1656 C1602 0.930 . S
H1657 C1605 0.929 . S
H1658 C1610 0.929 . S
H1659 C1611 0.930 . S
H1660 C1618 0.929 . S
H1661 C1619 0.930 . S
H1662 C1620 0.930 . S
H1663 C1621 0.930 . S
H1664 C1623 0.929 . S
H1665 C1624 0.930 . S
H1666 C1625 0.930 . S
H1667 C1626 0.930 . S
H1668 C1630 0.929 . S
H1669 C1632 0.930 . S
H1670 C1638 0.929 . S
H1671 C1639 0.930 . S
Li1672 N1689 1.990 . S
Li1672 O1732 1.956 . S
Li1672 O1733 1.970 . S
Li1672 O1734 1.961 1_545 S
Li1673 N1697 1.990 . S
Li1673 O1732 1.970 . S
Li1673 O1733 1.956 . S
Li1673 O1735 1.961 . S
Li1674 N1719 1.990 . S
Li1674 O1732 1.961 . S
Li1674 O1734 1.956 1_545 S
Li1674 O1735 1.970 . S
Li1675 N1725 1.990 . S
Li1675 O1733 1.961 1_565 S
Li1675 O1734 1.970 . S
Li1675 O1735 1.956 1_565 S
C1676 C1678 1.348 . S
C1676 C1679 1.356 . S
C1676 O1732 1.325 . S
N1677 C1680 1.314 . S
N1677 C1681 1.279 . S
C1678 C1676 1.348 . S
C1678 C1680 1.353 . S
C1678 H1736 0.929 . S
C1679 C1676 1.356 . S
C1679 C1681 1.358 . S
C1679 H1737 0.930 . S
C1680 N1677 1.314 . S
C1680 C1678 1.353 . S
C1680 H1738 0.930 . S
C1681 N1677 1.279 . S
C1681 C1679 1.358 . S
C1681 H1739 0.930 . S
C1682 C1685 1.348 . S
C1682 C1686 1.356 . S
C1682 O1733 1.325 . S
C1683 N1684 1.279 . S
C1683 C1686 1.358 . S
C1683 H1740 0.930 . S
N1684 C1683 1.279 . S
N1684 C1687 1.314 . S
C1685 C1682 1.348 . S
C1685 C1687 1.353 . S
C1685 H1741 0.929 . S
C1686 C1682 1.356 . S
C1686 C1683 1.358 . S
C1686 H1742 0.930 . S
C1687 N1684 1.314 . S
C1687 C1685 1.353 . S
C1687 H1743 0.930 . S
C1688 N1689 1.304 1_565 S
C1688 C1693 1.354 . S
C1688 H1694 0.940 . S
N1689 Li1672 1.990 . S
N1689 C1688 1.304 1_545 S
N1689 C1691 1.279 . S
C1690 C1691 1.358 . S
C1690 C1692 1.356 . S
C1690 H1744 0.930 . S
C1691 N1689 1.279 . S
C1691 C1690 1.358 . S
C1691 H1695 0.930 . S
C1692 C1690 1.356 . S
C1692 C1693 1.348 1_545 S
C1693 C1688 1.354 . S
C1693 C1692 1.348 1_565 S
C1693 H1745 0.929 . S
H1694 C1688 0.940 . S
H1695 C1691 0.930 . S
C1696 N1697 1.314 . S
C1696 C1698 1.353 . S
C1696 H1702 0.930 . S
N1697 Li1673 1.990 . S
N1697 C1696 1.314 . S
N1697 C1700 1.279 . S
C1698 C1696 1.353 . S
C1698 C1701 1.348 . S
C1698 H1746 0.929 . S
C1699 C1700 1.358 . S
C1699 C1701 1.356 . S
C1699 H1747 0.930 . S
C1700 N1697 1.279 . S
C1700 C1699 1.358 . S
C1700 H1703 0.930 . S
C1701 C1698 1.348 . S
C1701 C1699 1.356 . S
H1702 C1696 0.930 . S
H1703 C1700 0.930 . S
C1704 C1706 1.348 . S
C1704 C1707 1.356 . S
C1704 O1734 1.325 . S
N1705 C1708 1.314 . S
N1705 C1709 1.279 . S
C1706 C1704 1.348 . S
C1706 C1708 1.353 . S
C1706 H1748 0.929 . S
C1707 C1704 1.356 . S
C1707 C1709 1.358 . S
C1707 H1749 0.930 . S
C1708 N1705 1.314 . S
C1708 C1706 1.353 . S
C1708 H1750 0.930 . S
C1709 N1705 1.279 . S
C1709 C1707 1.358 . S
C1709 H1751 0.930 . S
C1710 C1711 1.348 . S
C1710 C1712 1.356 . S
C1710 O1735 1.325 . S
C1711 C1710 1.348 . S
C1711 C1713 1.353 . S
C1711 H1752 0.929 . S
C1712 C1710 1.356 . S
C1712 C1714 1.358 . S
C1712 H1753 0.930 . S
C1713 C1711 1.353 . S
C1713 N1715 1.314 . S
C1713 H1754 0.930 . S
C1714 C1712 1.358 . S
C1714 N1715 1.279 . S
C1714 H1755 0.930 . S
N1715 C1713 1.314 . S
N1715 C1714 1.279 . S
C1716 C1718 1.353 . S
C1716 N1719 1.314 . S
C1716 H1722 0.930 . S
C1717 N1719 1.279 1_565 S
C1717 C1720 1.358 . S
C1717 H1723 0.930 . S
C1718 C1716 1.353 . S
C1718 C1721 1.349 . S
C1718 H1756 0.929 . S
N1719 Li1674 1.990 . S
N1719 C1716 1.314 . S
N1719 C1717 1.279 1_545 S
C1720 C1717 1.358 . S
C1720 C1721 1.355 1_565 S
C1720 H1757 0.930 . S
C1721 C1718 1.349 . S
C1721 C1720 1.355 1_545 S
H1722 C1716 0.930 . S
H1723 C1717 0.930 . S
C1724 N1725 1.314 . S
C1724 C1726 1.353 . S
C1724 H1730 0.930 . S
N1725 Li1675 1.990 . S
N1725 C1724 1.314 . S
N1725 C1728 1.279 . S
C1726 C1724 1.353 . S
C1726 C1729 1.348 . S
C1726 H1758 0.929 . S
C1727 C1728 1.358 . S
C1727 C1729 1.356 . S
C1727 H1759 0.930 . S
C1728 N1725 1.279 . S
C1728 C1727 1.358 . S
C1728 H1731 0.930 . S
C1729 C1726 1.348 . S
C1729 C1727 1.356 . S
H1730 C1724 0.930 . S
H1731 C1728 0.930 . S
O1732 Li1672 1.956 . S
O1732 Li1673 1.970 . S
O1732 Li1674 1.961 . S
O1732 C1676 1.325 . S
O1733 Li1672 1.970 . S
O1733 Li1673 1.956 . S
O1733 Li1675 1.961 1_545 S
O1733 C1682 1.325 . S
O1734 Li1672 1.961 1_565 S
O1734 Li1674 1.956 1_565 S
O1734 Li1675 1.970 . S
O1734 C1704 1.325 . S
O1735 Li1673 1.961 . S
O1735 Li1674 1.970 . S
O1735 Li1675 1.956 1_545 S
O1735 C1710 1.325 . S
H1736 C1678 0.929 . S
H1737 C1679 0.930 . S
H1738 C1680 0.930 . S
H1739 C1681 0.930 . S
H1740 C1683 0.930 . S
H1741 C1685 0.929 . S
H1742 C1686 0.930 . S
H1743 C1687 0.930 . S
H1744 C1690 0.930 . S
H1745 C1693 0.929 . S
H1746 C1698 0.929 . S
H1747 C1699 0.930 . S
H1748 C1706 0.929 . S
H1749 C1707 0.930 . S
H1750 C1708 0.930 . S
H1751 C1709 0.930 . S
H1752 C1711 0.929 . S
H1753 C1712 0.930 . S
H1754 C1713 0.930 . S
H1755 C1714 0.930 . S
H1756 C1718 0.929 . S
H1757 C1720 0.930 . S
H1758 C1726 0.929 . S
H1759 C1727 0.930 . S
Li1760 N1777 1.990 . S
Li1760 O1820 1.956 . S
Li1760 O1821 1.970 . S
Li1760 O1822 1.961 . S
Li1761 N1785 1.990 . S
Li1761 O1820 1.970 . S
Li1761 O1821 1.956 . S
Li1761 O1823 1.961 . S
Li1762 N1807 1.990 1_554 S
Li1762 O1820 1.961 . S
Li1762 O1822 1.956 . S
Li1762 O1823 1.970 . S
Li1763 N1813 1.990 . S
Li1763 O1821 1.961 . S
Li1763 O1822 1.970 . S
Li1763 O1823 1.956 . S
C1764 C1766 1.348 . S
C1764 C1767 1.356 . S
C1764 O1820 1.325 . S
N1765 C1768 1.314 . S
N1765 C1769 1.279 . S
C1766 C1764 1.348 . S
C1766 C1768 1.353 . S
C1766 H1824 0.929 . S
C1767 C1764 1.356 . S
C1767 C1769 1.358 . S
C1767 H1825 0.930 . S
C1768 N1765 1.314 . S
C1768 C1766 1.353 . S
C1768 H1826 0.930 . S
C1769 N1765 1.279 . S
C1769 C1767 1.358 . S
C1769 H1827 0.930 . S
C1770 C1773 1.348 . S
C1770 C1774 1.356 . S
C1770 O1821 1.325 . S
C1771 N1772 1.279 . S
C1771 C1774 1.358 . S
C1771 H1828 0.930 . S
N1772 C1771 1.279 . S
N1772 C1775 1.314 . S
C1773 C1770 1.348 . S
C1773 C1775 1.353 . S
C1773 H1829 0.929 . S
C1774 C1770 1.356 . S
C1774 C1771 1.358 . S
C1774 H1830 0.930 . S
C1775 N1772 1.314 . S
C1775 C1773 1.353 . S
C1775 H1831 0.930 . S
C1776 N1777 1.314 . S
C1776 C1781 1.353 . S
C1776 H1782 0.930 . S
N1777 Li1760 1.990 . S
N1777 C1776 1.314 . S
N1777 C1779 1.279 . S
C1778 C1779 1.358 . S
C1778 C1780 1.356 . S
C1778 H1832 0.930 . S
C1779 N1777 1.279 . S
C1779 C1778 1.358 . S
C1779 H1783 0.930 . S
C1780 C1778 1.356 . S
C1780 C1781 1.348 . S
C1781 C1776 1.353 . S
C1781 C1780 1.348 . S
C1781 H1833 0.929 . S
H1782 C1776 0.930 . S
H1783 C1779 0.930 . S
C1784 N1785 1.314 . S
C1784 C1786 1.353 . S
C1784 H1790 0.930 . S
N1785 Li1761 1.990 . S
N1785 C1784 1.314 . S
N1785 C1788 1.279 . S
C1786 C1784 1.353 . S
C1786 C1789 1.348 . S
C1786 H1834 0.929 . S
C1787 C1788 1.358 . S
C1787 C1789 1.356 . S
C1787 H1835 0.930 . S
C1788 N1785 1.279 . S
C1788 C1787 1.358 . S
C1788 H1791 0.930 . S
C1789 C1786 1.348 . S
C1789 C1787 1.356 . S
H1790 C1784 0.930 . S
H1791 C1788 0.930 . S
C1792 C1794 1.348 . S
C1792 C1795 1.356 . S
C1792 O1822 1.325 . S
N1793 C1796 1.314 . S
N1793 C1797 1.279 . S
C1794 C1792 1.348 . S
C1794 C1796 1.353 . S
C1794 H1836 0.929 . S
C1795 C1792 1.356 . S
C1795 C1797 1.358 . S
C1795 H1837 0.930 . S
C1796 N1793 1.314 . S
C1796 C1794 1.353 . S
C1796 H1838 0.930 . S
C1797 N1793 1.279 . S
C1797 C1795 1.358 . S
C1797 H1839 0.930 . S
C1798 C1799 1.348 . S
C1798 C1800 1.356 . S
C1798 O1823 1.325 1_556 S
C1799 C1798 1.348 . S
C1799 C1801 1.353 . S
C1799 H1840 0.929 . S
C1800 C1798 1.356 . S
C1800 C1802 1.358 . S
C1800 H1841 0.930 1_556 S
C1801 C1799 1.353 . S
C1801 N1803 1.314 . S
C1801 H1842 0.930 . S
C1802 C1800 1.358 . S
C1802 N1803 1.279 . S
C1802 H1843 0.930 . S
N1803 C1801 1.314 . S
N1803 C1802 1.279 . S
C1804 C1806 1.353 . S
C1804 N1807 1.314 . S
C1804 H1810 0.930 . S
C1805 N1807 1.279 . S
C1805 C1808 1.358 . S
C1805 H1811 0.930 . S
C1806 C1804 1.353 . S
C1806 C1809 1.348 . S
C1806 H1844 0.929 . S
N1807 Li1762 1.990 1_556 S
N1807 C1804 1.314 . S
N1807 C1805 1.279 . S
C1808 C1805 1.358 . S
C1808 C1809 1.356 . S
C1808 H1845 0.930 . S
C1809 C1806 1.348 . S
C1809 C1808 1.356 . S
H1810 C1804 0.930 . S
H1811 C1805 0.930 . S
C1812 N1813 1.314 . S
C1812 C1814 1.353 . S
C1812 H1818 0.930 . S
N1813 Li1763 1.990 . S
N1813 C1812 1.314 . S
N1813 C1816 1.279 . S
C1814 C1812 1.353 . S
C1814 C1817 1.348 . S
C1814 H1846 0.929 . S
C1815 C1816 1.358 . S
C1815 C1817 1.356 . S
C1815 H1847 0.930 1_554 S
C1816 N1813 1.279 . S
C1816 C1815 1.358 . S
C1816 H1819 0.900 1_554 S
C1817 C1814 1.348 . S
C1817 C1815 1.356 . S
H1818 C1812 0.930 . S
H1819 C1816 0.900 1_556 S
O1820 Li1760 1.956 . S
O1820 Li1761 1.970 . S
O1820 Li1762 1.961 . S
O1820 C1764 1.325 . S
O1821 Li1760 1.970 . S
O1821 Li1761 1.956 . S
O1821 Li1763 1.961 . S
O1821 C1770 1.325 . S
O1822 Li1760 1.961 . S
O1822 Li1762 1.956 . S
O1822 Li1763 1.970 . S
O1822 C1792 1.325 . S
O1823 Li1761 1.961 . S
O1823 Li1762 1.970 . S
O1823 Li1763 1.956 . S
O1823 C1798 1.325 1_554 S
H1824 C1766 0.929 . S
H1825 C1767 0.930 . S
H1826 C1768 0.930 . S
H1827 C1769 0.930 . S
H1828 C1771 0.930 . S
H1829 C1773 0.929 . S
H1830 C1774 0.930 . S
H1831 C1775 0.930 . S
H1832 C1778 0.930 . S
H1833 C1781 0.929 . S
H1834 C1786 0.929 . S
H1835 C1787 0.930 . S
H1836 C1794 0.929 . S
H1837 C1795 0.930 . S
H1838 C1796 0.930 . S
H1839 C1797 0.930 . S
H1840 C1799 0.929 . S
H1841 C1800 0.930 1_554 S
H1842 C1801 0.930 . S
H1843 C1802 0.930 . S
H1844 C1806 0.929 . S
H1845 C1808 0.930 . S
H1846 C1814 0.929 . S
H1847 C1815 0.930 1_556 S
Li1848 N1865 1.990 . S
Li1848 O1908 1.956 . S
Li1848 O1909 1.970 . S
Li1848 O1910 1.961 . S
Li1849 N1873 1.990 . S
Li1849 O1908 1.970 . S
Li1849 O1909 1.956 . S
Li1849 O1911 1.961 . S
Li1850 N1895 1.990 . S
Li1850 O1908 1.961 . S
Li1850 O1910 1.956 . S
Li1850 O1911 1.970 . S
Li1851 N1901 1.990 . S
Li1851 O1909 1.961 . S
Li1851 O1910 1.970 . S
Li1851 O1911 1.956 . S
C1852 C1854 1.348 . S
C1852 C1855 1.356 . S
C1852 O1908 1.325 . S
N1853 C1856 1.314 . S
N1853 C1857 1.279 . S
C1854 C1852 1.348 . S
C1854 C1856 1.353 . S
C1854 H1912 0.929 . S
C1855 C1852 1.356 . S
C1855 C1857 1.358 . S
C1855 H1913 0.930 . S
C1856 N1853 1.314 . S
C1856 C1854 1.353 . S
C1856 H1914 0.930 . S
C1857 N1853 1.279 . S
C1857 C1855 1.358 . S
C1857 H1915 0.930 . S
C1858 C1861 1.348 . S
C1858 C1862 1.356 . S
C1858 O1909 1.325 . S
C1859 N1860 1.279 . S
C1859 C1862 1.358 . S
C1859 H1916 0.930 . S
N1860 C1859 1.279 . S
N1860 C1863 1.314 . S
C1861 C1858 1.348 . S
C1861 C1863 1.353 . S
C1861 H1917 0.929 . S
C1862 C1858 1.356 . S
C1862 C1859 1.358 . S
C1862 H1918 0.930 . S
C1863 N1860 1.314 . S
C1863 C1861 1.353 . S
C1863 H1919 0.930 . S
C1864 N1865 1.314 . S
C1864 C1869 1.353 . S
C1864 H1870 0.930 . S
N1865 Li1848 1.990 . S
N1865 C1864 1.314 . S
N1865 C1867 1.279 . S
C1866 C1867 1.358 . S
C1866 C1868 1.356 . S
C1866 H1920 0.930 . S
C1867 N1865 1.279 . S
C1867 C1866 1.358 . S
C1867 H1871 0.930 . S
C1868 C1866 1.356 . S
C1868 C1869 1.348 . S
C1869 C1864 1.353 . S
C1869 C1868 1.348 . S
C1869 H1921 0.929 . S
H1870 C1864 0.930 . S
H1871 C1867 0.930 . S
C1872 N1873 1.314 . S
C1872 C1874 1.353 . S
C1872 H1878 0.930 . S
N1873 Li1849 1.990 . S
N1873 C1872 1.314 . S
N1873 C1876 1.279 . S
C1874 C1872 1.353 . S
C1874 C1877 1.348 . S
C1874 H1922 0.929 . S
C1875 C1876 1.358 . S
C1875 C1877 1.356 . S
C1875 H1923 0.930 . S
C1876 N1873 1.279 . S
C1876 C1875 1.358 . S
C1876 H1879 0.930 . S
C1877 C1874 1.348 . S
C1877 C1875 1.356 . S
H1878 C1872 0.930 . S
H1879 C1876 0.930 . S
C1880 C1882 1.348 . S
C1880 C1883 1.356 . S
C1880 O1910 1.325 . S
N1881 C1884 1.314 . S
N1881 C1885 1.279 . S
C1882 C1880 1.348 . S
C1882 C1884 1.353 . S
C1882 H1924 0.929 . S
C1883 C1880 1.356 . S
C1883 C1885 1.358 . S
C1883 H1925 0.930 . S
C1884 N1881 1.314 . S
C1884 C1882 1.353 . S
C1884 H1926 0.930 . S
C1885 N1881 1.279 . S
C1885 C1883 1.358 . S
C1885 H1927 0.930 . S
C1886 C1887 1.348 . S
C1886 C1888 1.356 . S
C1886 O1911 1.325 . S
C1887 C1886 1.348 . S
C1887 C1889 1.353 . S
C1887 H1928 0.929 . S
C1888 C1886 1.356 . S
C1888 C1890 1.358 . S
C1888 H1929 0.930 . S
C1889 C1887 1.353 . S
C1889 N1891 1.314 . S
C1889 H1930 0.930 . S
C1890 C1888 1.358 . S
C1890 N1891 1.279 . S
C1890 H1931 0.930 . S
N1891 C1889 1.314 . S
N1891 C1890 1.279 . S
C1892 C1894 1.353 . S
C1892 N1895 1.314 . S
C1892 H1898 0.930 . S
C1893 N1895 1.279 . S
C1893 C1896 1.358 . S
C1893 H1899 0.930 . S
C1894 C1892 1.353 . S
C1894 C1897 1.348 . S
C1894 H1932 0.929 . S
N1895 Li1850 1.990 . S
N1895 C1892 1.314 . S
N1895 C1893 1.279 . S
C1896 C1893 1.358 . S
C1896 C1897 1.356 . S
C1896 H1933 0.930 . S
C1897 C1894 1.348 . S
C1897 C1896 1.356 . S
H1898 C1892 0.930 . S
H1899 C1893 0.930 . S
C1900 N1901 1.314 . S
C1900 C1902 1.353 . S
C1900 H1906 0.930 . S
N1901 Li1851 1.990 . S
N1901 C1900 1.314 . S
N1901 C1904 1.279 . S
C1902 C1900 1.353 . S
C1902 C1905 1.348 . S
C1902 H1934 0.929 . S
C1903 C1904 1.358 . S
C1903 C1905 1.356 . S
C1903 H1935 0.930 . S
C1904 N1901 1.279 . S
C1904 C1903 1.358 . S
C1904 H1907 0.930 . S
C1905 C1902 1.348 . S
C1905 C1903 1.356 . S
H1906 C1900 0.930 . S
H1907 C1904 0.930 . S
O1908 Li1848 1.956 . S
O1908 Li1849 1.970 . S
O1908 Li1850 1.961 . S
O1908 C1852 1.325 . S
O1909 Li1848 1.970 . S
O1909 Li1849 1.956 . S
O1909 Li1851 1.961 . S
O1909 C1858 1.325 . S
O1910 Li1848 1.961 . S
O1910 Li1850 1.956 . S
O1910 Li1851 1.970 . S
O1910 C1880 1.325 . S
O1911 Li1849 1.961 . S
O1911 Li1850 1.970 . S
O1911 Li1851 1.956 . S
O1911 C1886 1.325 . S
H1912 C1854 0.929 . S
H1913 C1855 0.930 . S
H1914 C1856 0.930 . S
H1915 C1857 0.930 . S
H1916 C1859 0.930 . S
H1917 C1861 0.929 . S
H1918 C1862 0.930 . S
H1919 C1863 0.930 . S
H1920 C1866 0.930 . S
H1921 C1869 0.929 . S
H1922 C1874 0.929 . S
H1923 C1875 0.930 . S
H1924 C1882 0.929 . S
H1925 C1883 0.930 . S
H1926 C1884 0.930 . S
H1927 C1885 0.930 . S
H1928 C1887 0.929 . S
H1929 C1888 0.930 . S
H1930 C1889 0.930 . S
H1931 C1890 0.930 . S
H1932 C1894 0.929 . S
H1933 C1896 0.930 . S
H1934 C1902 0.929 . S
H1935 C1903 0.930 . S
Li1936 N1953 1.990 . S
Li1936 O1996 1.956 . S
Li1936 O1997 1.970 . S
Li1936 O1998 1.961 . S
Li1937 N1961 1.990 . S
Li1937 O1996 1.970 . S
Li1937 O1997 1.956 . S
Li1937 O1999 1.961 . S
Li1938 N1983 1.990 . S
Li1938 O1996 1.961 . S
Li1938 O1998 1.956 . S
Li1938 O1999 1.970 . S
Li1939 N1989 1.990 . S
Li1939 O1997 1.961 . S
Li1939 O1998 1.970 . S
Li1939 O1999 1.956 . S
C1940 C1942 1.348 . S
C1940 C1943 1.356 . S
C1940 O1996 1.325 . S
N1941 C1944 1.314 . S
N1941 C1945 1.279 . S
C1942 C1940 1.348 . S
C1942 C1944 1.353 . S
C1942 H2000 0.929 . S
C1943 C1940 1.356 . S
C1943 C1945 1.358 . S
C1943 H2001 0.930 . S
C1944 N1941 1.314 . S
C1944 C1942 1.353 . S
C1944 H2002 0.930 . S
C1945 N1941 1.279 . S
C1945 C1943 1.358 . S
C1945 H2003 0.930 . S
C1946 C1949 1.348 . S
C1946 C1950 1.356 . S
C1946 O1997 1.325 . S
C1947 N1948 1.279 . S
C1947 C1950 1.358 . S
C1947 H2004 0.930 . S
N1948 C1947 1.279 . S
N1948 C1951 1.314 . S
C1949 C1946 1.348 . S
C1949 C1951 1.353 . S
C1949 H2005 0.929 . S
C1950 C1946 1.356 . S
C1950 C1947 1.358 . S
C1950 H2006 0.930 . S
C1951 N1948 1.314 . S
C1951 C1949 1.353 . S
C1951 H2007 0.930 . S
C1952 N1953 1.314 . S
C1952 C1957 1.353 . S
C1952 H1958 0.930 . S
N1953 Li1936 1.990 . S
N1953 C1952 1.314 . S
N1953 C1955 1.279 . S
C1954 C1955 1.358 . S
C1954 C1956 1.356 . S
C1954 H2008 0.930 . S
C1955 N1953 1.279 . S
C1955 C1954 1.358 . S
C1955 H1959 0.930 . S
C1956 C1954 1.356 . S
C1956 C1957 1.348 . S
C1957 C1952 1.353 . S
C1957 C1956 1.348 . S
C1957 H2009 0.929 . S
H1958 C1952 0.930 . S
H1959 C1955 0.930 . S
C1960 N1961 1.314 . S
C1960 C1962 1.353 . S
C1960 H1966 0.930 . S
N1961 Li1937 1.990 . S
N1961 C1960 1.314 . S
N1961 C1964 1.279 . S
C1962 C1960 1.353 . S
C1962 C1965 1.348 . S
C1962 H2010 0.929 . S
C1963 C1964 1.358 . S
C1963 C1965 1.356 . S
C1963 H2011 0.930 . S
C1964 N1961 1.279 . S
C1964 C1963 1.358 . S
C1964 H1967 0.930 . S
C1965 C1962 1.348 . S
C1965 C1963 1.356 . S
H1966 C1960 0.930 . S
H1967 C1964 0.930 . S
C1968 C1970 1.348 . S
C1968 C1971 1.356 . S
C1968 O1998 1.325 . S
N1969 C1972 1.314 . S
N1969 C1973 1.279 . S
C1970 C1968 1.348 . S
C1970 C1972 1.353 . S
C1970 H2012 0.929 . S
C1971 C1968 1.356 . S
C1971 C1973 1.358 . S
C1971 H2013 0.930 . S
C1972 N1969 1.314 . S
C1972 C1970 1.353 . S
C1972 H2014 0.930 . S
C1973 N1969 1.279 . S
C1973 C1971 1.358 . S
C1973 H2015 0.930 . S
C1974 C1975 1.348 . S
C1974 C1976 1.356 . S
C1974 O1999 1.325 . S
C1975 C1974 1.348 . S
C1975 C1977 1.353 . S
C1975 H2016 0.929 . S
C1976 C1974 1.356 . S
C1976 C1978 1.358 . S
C1976 H2017 0.930 . S
C1977 C1975 1.353 . S
C1977 N1979 1.314 . S
C1977 H2018 0.930 . S
C1978 C1976 1.358 . S
C1978 N1979 1.279 . S
C1978 H2019 0.930 . S
N1979 C1977 1.314 . S
N1979 C1978 1.279 . S
C1980 C1982 1.353 . S
C1980 N1983 1.314 . S
C1980 H1986 0.930 . S
C1981 N1983 1.279 . S
C1981 C1984 1.358 . S
C1981 H1987 0.930 . S
C1982 C1980 1.353 . S
C1982 C1985 1.348 . S
C1982 H2020 0.929 . S
N1983 Li1938 1.990 . S
N1983 C1980 1.314 . S
N1983 C1981 1.279 . S
C1984 C1981 1.358 . S
C1984 C1985 1.356 . S
C1984 H2021 0.930 . S
C1985 C1982 1.348 . S
C1985 C1984 1.356 . S
H1986 C1980 0.930 . S
H1987 C1981 0.930 . S
C1988 N1989 1.314 . S
C1988 C1990 1.353 . S
C1988 H1994 0.930 . S
N1989 Li1939 1.990 . S
N1989 C1988 1.314 . S
N1989 C1992 1.279 . S
C1990 C1988 1.353 . S
C1990 C1993 1.348 . S
C1990 H2022 0.929 . S
C1991 C1992 1.358 . S
C1991 C1993 1.356 . S
C1991 H2023 0.930 . S
C1992 N1989 1.279 . S
C1992 C1991 1.358 . S
C1992 H1995 0.930 . S
C1993 C1990 1.348 . S
C1993 C1991 1.356 . S
H1994 C1988 0.930 . S
H1995 C1992 0.930 . S
O1996 Li1936 1.956 . S
O1996 Li1937 1.970 . S
O1996 Li1938 1.961 . S
O1996 C1940 1.325 . S
O1997 Li1936 1.970 . S
O1997 Li1937 1.956 . S
O1997 Li1939 1.961 . S
O1997 C1946 1.325 . S
O1998 Li1936 1.961 . S
O1998 Li1938 1.956 . S
O1998 Li1939 1.970 . S
O1998 C1968 1.325 . S
O1999 Li1937 1.961 . S
O1999 Li1938 1.970 . S
O1999 Li1939 1.956 . S
O1999 C1974 1.325 . S
H2000 C1942 0.929 . S
H2001 C1943 0.930 . S
H2002 C1944 0.930 . S
H2003 C1945 0.930 . S
H2004 C1947 0.930 . S
H2005 C1949 0.929 . S
H2006 C1950 0.930 . S
H2007 C1951 0.930 . S
H2008 C1954 0.930 . S
H2009 C1957 0.929 . S
H2010 C1962 0.929 . S
H2011 C1963 0.930 . S
H2012 C1970 0.929 . S
H2013 C1971 0.930 . S
H2014 C1972 0.930 . S
H2015 C1973 0.930 . S
H2016 C1975 0.929 . S
H2017 C1976 0.930 . S
H2018 C1977 0.930 . S
H2019 C1978 0.930 . S
H2020 C1982 0.929 . S
H2021 C1984 0.930 . S
H2022 C1990 0.929 . S
H2023 C1991 0.930 . S
Li2024 N2041 1.990 . S
Li2024 O2084 1.956 . S
Li2024 O2085 1.970 . S
Li2024 O2086 1.961 . S
Li2025 N2049 1.990 . S
Li2025 O2084 1.970 . S
Li2025 O2085 1.956 . S
Li2025 O2087 1.961 . S
Li2026 N2071 1.990 . S
Li2026 O2084 1.961 . S
Li2026 O2086 1.956 . S
Li2026 O2087 1.970 . S
Li2027 N2077 1.990 . S
Li2027 O2085 1.961 . S
Li2027 O2086 1.970 . S
Li2027 O2087 1.956 . S
C2028 C2030 1.348 . S
C2028 C2031 1.356 . S
C2028 O2084 1.325 . S
N2029 C2032 1.314 . S
N2029 C2033 1.279 . S
C2030 C2028 1.348 . S
C2030 C2032 1.353 . S
C2030 H2088 0.929 . S
C2031 C2028 1.356 . S
C2031 C2033 1.358 . S
C2031 H2089 0.930 . S
C2032 N2029 1.314 . S
C2032 C2030 1.353 . S
C2032 H2090 0.930 . S
C2033 N2029 1.279 . S
C2033 C2031 1.358 . S
C2033 H2091 0.930 . S
C2034 C2037 1.348 . S
C2034 C2038 1.356 . S
C2034 O2085 1.325 . S
C2035 N2036 1.279 . S
C2035 C2038 1.358 . S
C2035 H2092 0.930 . S
N2036 C2035 1.279 . S
N2036 C2039 1.314 . S
C2037 C2034 1.348 . S
C2037 C2039 1.353 . S
C2037 H2093 0.929 . S
C2038 C2034 1.356 . S
C2038 C2035 1.358 . S
C2038 H2094 0.930 . S
C2039 N2036 1.314 . S
C2039 C2037 1.353 . S
C2039 H2095 0.930 . S
C2040 N2041 1.314 . S
C2040 C2045 1.353 . S
C2040 H2046 0.930 . S
N2041 Li2024 1.990 . S
N2041 C2040 1.314 . S
N2041 C2043 1.279 . S
C2042 C2043 1.358 . S
C2042 C2044 1.356 . S
C2042 H2096 0.930 . S
C2043 N2041 1.279 . S
C2043 C2042 1.358 . S
C2043 H2047 0.930 . S
C2044 C2042 1.356 . S
C2044 C2045 1.348 . S
C2045 C2040 1.353 . S
C2045 C2044 1.348 . S
C2045 H2097 0.929 . S
H2046 C2040 0.930 . S
H2047 C2043 0.930 . S
C2048 N2049 1.314 . S
C2048 C2050 1.353 . S
C2048 H2054 0.930 . S
N2049 Li2025 1.990 . S
N2049 C2048 1.314 . S
N2049 C2052 1.279 . S
C2050 C2048 1.353 . S
C2050 C2053 1.348 . S
C2050 H2098 0.929 . S
C2051 C2052 1.358 . S
C2051 C2053 1.356 . S
C2051 H2099 0.930 . S
C2052 N2049 1.279 . S
C2052 C2051 1.358 . S
C2052 H2055 0.930 . S
C2053 C2050 1.348 . S
C2053 C2051 1.356 . S
H2054 C2048 0.930 . S
H2055 C2052 0.930 . S
C2056 C2058 1.348 . S
C2056 C2059 1.356 . S
C2056 O2086 1.325 . S
N2057 C2060 1.314 . S
N2057 C2061 1.279 . S
C2058 C2056 1.348 . S
C2058 C2060 1.353 . S
C2058 H2100 0.929 . S
C2059 C2056 1.356 . S
C2059 C2061 1.358 . S
C2059 H2101 0.930 . S
C2060 N2057 1.314 . S
C2060 C2058 1.353 . S
C2060 H2102 0.930 . S
C2061 N2057 1.279 . S
C2061 C2059 1.358 . S
C2061 H2103 0.930 . S
C2062 C2063 1.348 . S
C2062 C2064 1.356 . S
C2062 O2087 1.325 . S
C2063 C2062 1.348 . S
C2063 C2065 1.353 . S
C2063 H2104 0.929 . S
C2064 C2062 1.356 . S
C2064 C2066 1.358 . S
C2064 H2105 0.930 . S
C2065 C2063 1.353 . S
C2065 N2067 1.314 . S
C2065 H2106 0.930 . S
C2066 C2064 1.358 . S
C2066 N2067 1.279 . S
C2066 H2107 0.930 . S
N2067 C2065 1.314 . S
N2067 C2066 1.279 . S
C2068 C2070 1.353 . S
C2068 N2071 1.314 . S
C2068 H2074 0.930 . S
C2069 N2071 1.279 . S
C2069 C2072 1.358 . S
C2069 H2075 0.930 . S
C2070 C2068 1.353 . S
C2070 C2073 1.348 . S
C2070 H2108 0.929 . S
N2071 Li2026 1.990 . S
N2071 C2068 1.314 . S
N2071 C2069 1.279 . S
C2072 C2069 1.358 . S
C2072 C2073 1.356 . S
C2072 H2109 0.930 . S
C2073 C2070 1.348 . S
C2073 C2072 1.356 . S
H2074 C2068 0.930 . S
H2075 C2069 0.930 . S
C2076 N2077 1.314 . S
C2076 C2078 1.353 . S
C2076 H2082 0.930 . S
N2077 Li2027 1.990 . S
N2077 C2076 1.314 . S
N2077 C2080 1.279 . S
C2078 C2076 1.353 . S
C2078 C2081 1.348 . S
C2078 H2110 0.929 . S
C2079 C2080 1.358 . S
C2079 C2081 1.356 . S
C2079 H2111 0.930 . S
C2080 N2077 1.279 . S
C2080 C2079 1.358 . S
C2080 H2083 0.930 . S
C2081 C2078 1.348 . S
C2081 C2079 1.356 . S
H2082 C2076 0.930 . S
H2083 C2080 0.930 . S
O2084 Li2024 1.956 . S
O2084 Li2025 1.970 . S
O2084 Li2026 1.961 . S
O2084 C2028 1.325 . S
O2085 Li2024 1.970 . S
O2085 Li2025 1.956 . S
O2085 Li2027 1.961 . S
O2085 C2034 1.325 . S
O2086 Li2024 1.961 . S
O2086 Li2026 1.956 . S
O2086 Li2027 1.970 . S
O2086 C2056 1.325 . S
O2087 Li2025 1.961 . S
O2087 Li2026 1.970 . S
O2087 Li2027 1.956 . S
O2087 C2062 1.325 . S
H2088 C2030 0.929 . S
H2089 C2031 0.930 . S
H2090 C2032 0.930 . S
H2091 C2033 0.930 . S
H2092 C2035 0.930 . S
H2093 C2037 0.929 . S
H2094 C2038 0.930 . S
H2095 C2039 0.930 . S
H2096 C2042 0.930 . S
H2097 C2045 0.929 . S
H2098 C2050 0.929 . S
H2099 C2051 0.930 . S
H2100 C2058 0.929 . S
H2101 C2059 0.930 . S
H2102 C2060 0.930 . S
H2103 C2061 0.930 . S
H2104 C2063 0.929 . S
H2105 C2064 0.930 . S
H2106 C2065 0.930 . S
H2107 C2066 0.930 . S
H2108 C2070 0.929 . S
H2109 C2072 0.930 . S
H2110 C2078 0.929 . S
H2111 C2079 0.930 . S
Tb2112 C2114 2.809 1_455 S
Tb2112 O2132 2.484 1_455 S
Tb2112 O2133 2.440 1_455 S
Tb2112 O2134 2.658 . S
Tb2112 O2135 2.409 1_554 S
Tb2112 O2136 2.378 . S
Tb2112 O2140 2.325 . S
Tb2112 O2143 2.341 1_545 S
Tb2113 C2123 2.791 1_545 S
Tb2113 O2134 2.325 . S
Tb2113 O2137 2.341 . S
Tb2113 O2138 2.452 1_545 S
Tb2113 O2139 2.440 . S
Tb2113 O2140 2.658 . S
Tb2113 O2141 2.409 . S
Tb2113 O2142 2.378 1_545 S
C2114 Tb2112 2.809 1_655 S
C2114 C2115 1.514 . S
C2114 O2132 1.248 . S
C2114 O2133 1.266 . S
C2115 C2114 1.514 . S
C2115 C2116 1.359 . S
C2115 C2120 1.383 . S
C2116 C2115 1.359 . S
C2116 C2117 1.380 . S
C2116 H2144 0.929 . S
C2117 C2116 1.380 . S
C2117 C2118 1.347 . S
C2117 H2145 0.931 . S
C2118 C2117 1.347 . S
C2118 C2119 1.369 1_554 S
C2119 C2118 1.369 1_556 S
C2119 C2120 1.406 1_556 S
C2119 H2146 0.930 . S
C2120 C2115 1.383 . S
C2120 C2119 1.406 1_554 S
C2120 H2147 0.899 1_554 S
C2121 O2134 1.291 . S
C2121 O2135 1.252 1_554 S
C2122 O2136 1.236 . S
C2122 O2137 1.266 . S
C2123 Tb2113 2.791 1_565 S
C2123 C2124 1.531 . S
C2123 O2138 1.253 . S
C2123 O2139 1.255 1_565 S
C2124 C2123 1.531 . S
C2124 C2125 1.359 . S
C2124 C2129 1.348 . S
C2125 C2124 1.359 . S
C2125 C2126 1.380 . S
C2125 H2148 0.929 . S
C2126 C2125 1.380 . S
C2126 C2127 1.347 . S
C2126 H2149 0.931 . S
C2127 C2126 1.347 . S
C2127 C2128 1.369 . S
C2128 C2127 1.369 . S
C2128 C2129 1.408 . S
C2128 H2150 0.930 . S
C2129 C2124 1.348 . S
C2129 C2128 1.408 . S
C2129 H2151 0.930 . S
C2130 O2140 1.281 . S
C2130 O2141 1.254 . S
C2131 O2142 1.236 . S
C2131 O2143 1.266 . S
O2132 Tb2112 2.484 1_655 S
O2132 C2114 1.248 . S
O2133 Tb2112 2.440 1_655 S
O2133 C2114 1.266 . S
O2134 Tb2112 2.658 . S
O2134 Tb2113 2.325 . S
O2134 C2121 1.291 . S
O2135 Tb2112 2.409 1_556 S
O2135 C2121 1.252 1_556 S
O2136 Tb2112 2.378 . S
O2136 C2122 1.236 . S
O2137 Tb2113 2.341 . S
O2137 C2122 1.266 . S
O2138 Tb2113 2.452 1_565 S
O2138 C2123 1.253 . S
O2139 Tb2113 2.440 . S
O2139 C2123 1.255 1_545 S
O2140 Tb2112 2.325 . S
O2140 Tb2113 2.658 . S
O2140 C2130 1.281 . S
O2141 Tb2113 2.409 . S
O2141 C2130 1.254 . S
O2142 Tb2113 2.378 1_565 S
O2142 C2131 1.236 . S
O2143 Tb2112 2.341 1_565 S
O2143 C2131 1.266 . S
H2144 C2116 0.929 . S
H2145 C2117 0.931 . S
H2146 C2119 0.930 . S
H2147 C2120 0.899 1_556 S
H2148 C2125 0.929 . S
H2149 C2126 0.931 . S
H2150 C2128 0.930 . S
H2151 C2129 0.930 . S
Tb2152 C2154 2.809 . S
Tb2152 O2172 2.484 . S
Tb2152 O2173 2.440 . S
Tb2152 O2174 2.658 . S
Tb2152 O2175 2.409 . S
Tb2152 O2176 2.378 . S
Tb2152 O2180 2.325 . S
Tb2152 O2183 2.341 . S
Tb2153 C2163 2.809 . S
Tb2153 O2174 2.325 . S
Tb2153 O2177 2.341 . S
Tb2153 O2178 2.484 . S
Tb2153 O2179 2.440 . S
Tb2153 O2180 2.658 . S
Tb2153 O2181 2.409 . S
Tb2153 O2182 2.378 . S
C2154 Tb2152 2.809 . S
C2154 C2155 1.514 . S
C2154 O2172 1.248 . S
C2154 O2173 1.266 . S
C2155 C2154 1.514 . S
C2155 C2156 1.359 . S
C2155 C2160 1.348 . S
C2156 C2155 1.359 . S
C2156 C2157 1.380 . S
C2156 H2184 0.929 . S
C2157 C2156 1.380 . S
C2157 C2158 1.347 . S
C2157 H2185 0.931 . S
C2158 C2157 1.347 . S
C2158 C2159 1.369 . S
C2159 C2158 1.369 . S
C2159 C2160 1.408 . S
C2159 H2186 0.930 . S
C2160 C2155 1.348 . S
C2160 C2159 1.408 . S
C2160 H2187 0.930 . S
C2161 O2174 1.281 . S
C2161 O2175 1.254 . S
C2162 O2176 1.236 . S
C2162 O2177 1.266 . S
C2163 Tb2153 2.809 . S
C2163 C2164 1.514 . S
C2163 O2178 1.248 . S
C2163 O2179 1.266 . S
C2164 C2163 1.514 . S
C2164 C2165 1.359 . S
C2164 C2169 1.348 . S
C2165 C2164 1.359 . S
C2165 C2166 1.380 . S
C2165 H2188 0.929 . S
C2166 C2165 1.380 . S
C2166 C2167 1.347 . S
C2166 H2189 0.931 . S
C2167 C2166 1.347 . S
C2167 C2168 1.369 . S
C2168 C2167 1.369 . S
C2168 C2169 1.408 . S
C2168 H2190 0.930 . S
C2169 C2164 1.348 . S
C2169 C2168 1.408 . S
C2169 H2191 0.930 . S
C2170 O2180 1.281 . S
C2170 O2181 1.254 . S
C2171 O2182 1.236 . S
C2171 O2183 1.266 . S
O2172 Tb2152 2.484 . S
O2172 C2154 1.248 . S
O2173 Tb2152 2.440 . S
O2173 C2154 1.266 . S
O2174 Tb2152 2.658 . S
O2174 Tb2153 2.325 . S
O2174 C2161 1.281 . S
O2175 Tb2152 2.409 . S
O2175 C2161 1.254 . S
O2176 Tb2152 2.378 . S
O2176 C2162 1.236 . S
O2177 Tb2153 2.341 . S
O2177 C2162 1.266 . S
O2178 Tb2153 2.484 . S
O2178 C2163 1.248 . S
O2179 Tb2153 2.440 . S
O2179 C2163 1.266 . S
O2180 Tb2152 2.325 . S
O2180 Tb2153 2.658 . S
O2180 C2170 1.281 . S
O2181 Tb2153 2.409 . S
O2181 C2170 1.254 . S
O2182 Tb2153 2.378 . S
O2182 C2171 1.236 . S
O2183 Tb2152 2.341 . S
O2183 C2171 1.266 . S
H2184 C2156 0.929 . S
H2185 C2157 0.931 . S
H2186 C2159 0.930 . S
H2187 C2160 0.930 . S
H2188 C2165 0.929 . S
H2189 C2166 0.931 . S
H2190 C2168 0.930 . S
H2191 C2169 0.930 . S
Tb2192 C2194 2.809 1_545 S
Tb2192 O2212 2.447 1_545 S
Tb2192 O2213 2.440 . S
Tb2192 O2214 2.658 . S
Tb2192 O2215 2.409 . S
Tb2192 O2216 2.378 1_545 S
Tb2192 O2220 2.325 . S
Tb2192 O2223 2.341 . S
Tb2193 C2203 2.809 . S
Tb2193 O2214 2.325 . S
Tb2193 O2217 2.341 1_545 S
Tb2193 O2218 2.484 . S
Tb2193 O2219 2.440 . S
Tb2193 O2220 2.658 . S
Tb2193 O2221 2.409 . S
Tb2193 O2222 2.378 . S
C2194 Tb2192 2.809 1_565 S
C2194 C2195 1.514 . S
C2194 O2212 1.249 . S
C2194 O2213 1.266 1_565 S
C2195 C2194 1.514 . S
C2195 C2196 1.359 . S
C2195 C2200 1.348 . S
C2196 C2195 1.359 . S
C2196 C2197 1.380 . S
C2196 H2224 0.929 . S
C2197 C2196 1.380 . S
C2197 C2198 1.347 . S
C2197 H2225 0.931 . S
C2198 C2197 1.347 . S
C2198 C2199 1.369 . S
C2199 C2198 1.369 . S
C2199 C2200 1.408 . S
C2199 H2226 0.930 . S
C2200 C2195 1.348 . S
C2200 C2199 1.408 . S
C2200 H2227 0.930 . S
C2201 O2214 1.281 . S
C2201 O2215 1.254 . S
C2202 O2216 1.236 . S
C2202 O2217 1.266 . S
C2203 Tb2193 2.809 . S
C2203 C2204 1.514 . S
C2203 O2218 1.248 . S
C2203 O2219 1.266 . S
C2204 C2203 1.514 . S
C2204 C2205 1.359 . S
C2204 C2209 1.348 . S
C2205 C2204 1.359 . S
C2205 C2206 1.380 . S
C2205 H2228 0.929 . S
C2206 C2205 1.380 . S
C2206 C2207 1.347 . S
C2206 H2229 0.931 . S
C2207 C2206 1.347 . S
C2207 C2208 1.369 . S
C2208 C2207 1.369 . S
C2208 C2209 1.408 . S
C2208 H2230 0.930 . S
C2209 C2204 1.348 . S
C2209 C2208 1.408 . S
C2209 H2231 0.930 . S
C2210 O2220 1.281 . S
C2210 O2221 1.254 . S
C2211 O2222 1.236 . S
C2211 O2223 1.266 . S
O2212 Tb2192 2.447 1_565 S
O2212 C2194 1.249 . S
O2213 Tb2192 2.440 . S
O2213 C2194 1.266 1_545 S
O2214 Tb2192 2.658 . S
O2214 Tb2193 2.325 . S
O2214 C2201 1.281 . S
O2215 Tb2192 2.409 . S
O2215 C2201 1.254 . S
O2216 Tb2192 2.378 1_565 S
O2216 C2202 1.236 . S
O2217 Tb2193 2.341 1_565 S
O2217 C2202 1.266 . S
O2218 Tb2193 2.484 . S
O2218 C2203 1.248 . S
O2219 Tb2193 2.440 . S
O2219 C2203 1.266 . S
O2220 Tb2192 2.325 . S
O2220 Tb2193 2.658 . S
O2220 C2210 1.281 . S
O2221 Tb2193 2.409 . S
O2221 C2210 1.254 . S
O2222 Tb2193 2.378 . S
O2222 C2211 1.236 . S
O2223 Tb2192 2.341 . S
O2223 C2211 1.266 . S
H2224 C2196 0.929 . S
H2225 C2197 0.931 . S
H2226 C2199 0.930 . S
H2227 C2200 0.930 . S
H2228 C2205 0.929 . S
H2229 C2206 0.931 . S
H2230 C2208 0.930 . S
H2231 C2209 0.930 . S
Tb2232 C2234 2.809 . S
Tb2232 O2252 2.484 . S
Tb2232 O2253 2.440 . S
Tb2232 O2254 2.658 . S
Tb2232 O2255 2.409 . S
Tb2232 O2256 2.378 . S
Tb2232 O2260 2.325 . S
Tb2232 O2263 2.341 . S
Tb2233 C2243 2.809 . S
Tb2233 O2254 2.325 . S
Tb2233 O2257 2.341 . S
Tb2233 O2258 2.484 . S
Tb2233 O2259 2.440 . S
Tb2233 O2260 2.658 . S
Tb2233 O2261 2.409 . S
Tb2233 O2262 2.378 . S
C2234 Tb2232 2.809 . S
C2234 C2235 1.514 . S
C2234 O2252 1.248 . S
C2234 O2253 1.266 . S
C2235 C2234 1.514 . S
C2235 C2236 1.359 . S
C2235 C2240 1.348 . S
C2236 C2235 1.359 . S
C2236 C2237 1.380 . S
C2236 H2264 0.929 . S
C2237 C2236 1.380 . S
C2237 C2238 1.347 . S
C2237 H2265 0.931 . S
C2238 C2237 1.347 . S
C2238 C2239 1.369 . S
C2239 C2238 1.369 . S
C2239 C2240 1.408 . S
C2239 H2266 0.930 . S
C2240 C2235 1.348 . S
C2240 C2239 1.408 . S
C2240 H2267 0.930 . S
C2241 O2254 1.281 . S
C2241 O2255 1.254 . S
C2242 O2256 1.236 . S
C2242 O2257 1.266 . S
C2243 Tb2233 2.809 . S
C2243 C2244 1.514 . S
C2243 O2258 1.248 . S
C2243 O2259 1.266 . S
C2244 C2243 1.514 . S
C2244 C2245 1.359 . S
C2244 C2249 1.348 . S
C2245 C2244 1.359 . S
C2245 C2246 1.380 . S
C2245 H2268 0.929 . S
C2246 C2245 1.380 . S
C2246 C2247 1.347 . S
C2246 H2269 0.931 . S
C2247 C2246 1.347 . S
C2247 C2248 1.369 . S
C2248 C2247 1.369 . S
C2248 C2249 1.408 . S
C2248 H2270 0.930 . S
C2249 C2244 1.348 . S
C2249 C2248 1.408 . S
C2249 H2271 0.930 . S
C2250 O2260 1.281 . S
C2250 O2261 1.254 . S
C2251 O2262 1.236 . S
C2251 O2263 1.266 . S
O2252 Tb2232 2.484 . S
O2252 C2234 1.248 . S
O2253 Tb2232 2.440 . S
O2253 C2234 1.266 . S
O2254 Tb2232 2.658 . S
O2254 Tb2233 2.325 . S
O2254 C2241 1.281 . S
O2255 Tb2232 2.409 . S
O2255 C2241 1.254 . S
O2256 Tb2232 2.378 . S
O2256 C2242 1.236 . S
O2257 Tb2233 2.341 . S
O2257 C2242 1.266 . S
O2258 Tb2233 2.484 . S
O2258 C2243 1.248 . S
O2259 Tb2233 2.440 . S
O2259 C2243 1.266 . S
O2260 Tb2232 2.325 . S
O2260 Tb2233 2.658 . S
O2260 C2250 1.281 . S
O2261 Tb2233 2.409 . S
O2261 C2250 1.254 . S
O2262 Tb2233 2.378 . S
O2262 C2251 1.236 . S
O2263 Tb2232 2.341 . S
O2263 C2251 1.266 . S
H2264 C2236 0.929 . S
H2265 C2237 0.931 . S
H2266 C2239 0.930 . S
H2267 C2240 0.930 . S
H2268 C2245 0.929 . S
H2269 C2246 0.931 . S
H2270 C2248 0.930 . S
H2271 C2249 0.930 . S
Tb2272 C2274 2.809 . S
Tb2272 O2292 2.484 . S
Tb2272 O2293 2.440 . S
Tb2272 O2294 2.658 . S
Tb2272 O2295 2.409 1_455 S
Tb2272 O2296 2.378 . S
Tb2272 O2300 2.325 . S
Tb2272 O2303 2.341 . S
Tb2273 C2283 2.809 . S
Tb2273 O2294 2.325 1_565 S
Tb2273 O2297 2.361 . S
Tb2273 O2298 2.484 . S
Tb2273 O2299 2.440 . S
Tb2273 O2300 2.658 1_565 S
Tb2273 O2301 2.409 1_565 S
Tb2273 O2302 2.378 1_565 S
C2274 Tb2272 2.809 . S
C2274 C2275 1.514 . S
C2274 O2292 1.248 . S
C2274 O2293 1.266 . S
C2275 C2274 1.514 . S
C2275 C2276 1.359 . S
C2275 C2280 1.348 1_455 S
C2276 C2275 1.359 . S
C2276 C2277 1.380 . S
C2276 H2304 0.929 . S
C2277 C2276 1.380 . S
C2277 C2278 1.347 . S
C2277 H2305 0.931 . S
C2278 C2277 1.347 . S
C2278 C2279 1.369 1_455 S
C2279 C2278 1.369 1_655 S
C2279 C2280 1.408 . S
C2279 H2306 0.930 . S
C2280 C2275 1.348 1_655 S
C2280 C2279 1.408 . S
C2280 H2307 0.930 . S
C2281 O2294 1.281 1_655 S
C2281 O2295 1.254 . S
C2282 O2296 1.236 . S
C2282 O2297 1.230 1_545 S
C2283 Tb2273 2.809 . S
C2283 C2284 1.514 . S
C2283 O2298 1.248 . S
C2283 O2299 1.266 . S
C2284 C2283 1.514 . S
C2284 C2285 1.359 . S
C2284 C2289 1.348 . S
C2285 C2284 1.359 . S
C2285 C2286 1.380 . S
C2285 H2308 0.929 . S
C2286 C2285 1.380 . S
C2286 C2287 1.347 . S
C2286 H2309 0.931 . S
C2287 C2286 1.347 . S
C2287 C2288 1.369 . S
C2288 C2287 1.369 . S
C2288 C2289 1.408 . S
C2288 H2310 0.930 . S
C2289 C2284 1.348 . S
C2289 C2288 1.408 . S
C2289 H2311 0.930 . S
C2290 O2300 1.281 . S
C2290 O2301 1.254 . S
C2291 O2302 1.236 . S
C2291 O2303 1.266 . S
O2292 Tb2272 2.484 . S
O2292 C2274 1.248 . S
O2293 Tb2272 2.440 . S
O2293 C2274 1.266 . S
O2294 Tb2272 2.658 . S
O2294 Tb2273 2.325 1_545 S
O2294 C2281 1.281 1_455 S
O2295 Tb2272 2.409 1_655 S
O2295 C2281 1.254 . S
O2296 Tb2272 2.378 . S
O2296 C2282 1.236 . S
O2297 Tb2273 2.361 . S
O2297 C2282 1.230 1_565 S
O2298 Tb2273 2.484 . S
O2298 C2283 1.248 . S
O2299 Tb2273 2.440 . S
O2299 C2283 1.266 . S
O2300 Tb2272 2.325 . S
O2300 Tb2273 2.658 1_545 S
O2300 C2290 1.281 . S
O2301 Tb2273 2.409 1_545 S
O2301 C2290 1.254 . S
O2302 Tb2273 2.378 1_545 S
O2302 C2291 1.236 . S
O2303 Tb2272 2.341 . S
O2303 C2291 1.266 . S
H2304 C2276 0.929 . S
H2305 C2277 0.931 . S
H2306 C2279 0.930 . S
H2307 C2280 0.930 . S
H2308 C2285 0.929 . S
H2309 C2286 0.931 . S
H2310 C2288 0.930 . S
H2311 C2289 0.930 . S
Tb2312 C2314 2.809 . S
Tb2312 O2332 2.484 . S
Tb2312 O2333 2.440 . S
Tb2312 O2334 2.658 . S
Tb2312 O2335 2.409 . S
Tb2312 O2336 2.378 . S
Tb2312 O2340 2.325 . S
Tb2312 O2343 2.341 . S
Tb2313 C2323 2.809 . S
Tb2313 O2334 2.325 . S
Tb2313 O2337 2.341 . S
Tb2313 O2338 2.484 . S
Tb2313 O2339 2.440 . S
Tb2313 O2340 2.658 . S
Tb2313 O2341 2.409 . S
Tb2313 O2342 2.378 . S
C2314 Tb2312 2.809 . S
C2314 C2315 1.514 . S
C2314 O2332 1.248 . S
C2314 O2333 1.266 . S
C2315 C2314 1.514 . S
C2315 C2316 1.359 . S
C2315 C2320 1.348 . S
C2316 C2315 1.359 . S
C2316 C2317 1.380 . S
C2316 H2344 0.929 . S
C2317 C2316 1.380 . S
C2317 C2318 1.347 . S
C2317 H2345 0.931 . S
C2318 C2317 1.347 . S
C2318 C2319 1.369 . S
C2319 C2318 1.369 . S
C2319 C2320 1.408 . S
C2319 H2346 0.930 . S
C2320 C2315 1.348 . S
C2320 C2319 1.408 . S
C2320 H2347 0.930 . S
C2321 O2334 1.281 . S
C2321 O2335 1.254 . S
C2322 O2336 1.236 . S
C2322 O2337 1.266 . S
C2323 Tb2313 2.809 . S
C2323 C2324 1.514 . S
C2323 O2338 1.248 . S
C2323 O2339 1.266 . S
C2324 C2323 1.514 . S
C2324 C2325 1.359 . S
C2324 C2329 1.348 . S
C2325 C2324 1.359 . S
C2325 C2326 1.380 . S
C2325 H2348 0.929 . S
C2326 C2325 1.380 . S
C2326 C2327 1.347 . S
C2326 H2349 0.931 . S
C2327 C2326 1.347 . S
C2327 C2328 1.369 . S
C2328 C2327 1.369 . S
C2328 C2329 1.408 . S
C2328 H2350 0.930 . S
C2329 C2324 1.348 . S
C2329 C2328 1.408 . S
C2329 H2351 0.930 . S
C2330 O2340 1.281 . S
C2330 O2341 1.254 . S
C2331 O2342 1.236 . S
C2331 O2343 1.266 . S
O2332 Tb2312 2.484 . S
O2332 C2314 1.248 . S
O2333 Tb2312 2.440 . S
O2333 C2314 1.266 . S
O2334 Tb2312 2.658 . S
O2334 Tb2313 2.325 . S
O2334 C2321 1.281 . S
O2335 Tb2312 2.409 . S
O2335 C2321 1.254 . S
O2336 Tb2312 2.378 . S
O2336 C2322 1.236 . S
O2337 Tb2313 2.341 . S
O2337 C2322 1.266 . S
O2338 Tb2313 2.484 . S
O2338 C2323 1.248 . S
O2339 Tb2313 2.440 . S
O2339 C2323 1.266 . S
O2340 Tb2312 2.325 . S
O2340 Tb2313 2.658 . S
O2340 C2330 1.281 . S
O2341 Tb2313 2.409 . S
O2341 C2330 1.254 . S
O2342 Tb2313 2.378 . S
O2342 C2331 1.236 . S
O2343 Tb2312 2.341 . S
O2343 C2331 1.266 . S
H2344 C2316 0.929 . S
H2345 C2317 0.931 . S
H2346 C2319 0.930 . S
H2347 C2320 0.930 . S
H2348 C2325 0.929 . S
H2349 C2326 0.931 . S
H2350 C2328 0.930 . S
H2351 C2329 0.930 . S
Tb2352 C2354 2.809 1_545 S
Tb2352 O2372 2.484 1_545 S
Tb2352 O2373 2.440 . S
Tb2352 O2374 2.658 . S
Tb2352 O2375 2.409 . S
Tb2352 O2376 2.378 . S
Tb2352 O2380 2.325 1_545 S
Tb2352 O2383 2.341 . S
Tb2353 C2363 2.809 . S
Tb2353 O2374 2.325 . S
Tb2353 O2377 2.341 . S
Tb2353 O2378 2.484 . S
Tb2353 O2379 2.440 . S
Tb2353 O2380 2.658 1_545 S
Tb2353 O2381 2.409 1_545 S
Tb2353 O2382 2.378 . S
C2354 Tb2352 2.809 1_565 S
C2354 C2355 1.514 . S
C2354 O2372 1.248 . S
C2354 O2373 1.266 1_565 S
C2355 C2354 1.514 . S
C2355 C2356 1.359 . S
C2355 C2360 1.348 1_565 S
C2356 C2355 1.359 . S
C2356 C2357 1.380 . S
C2356 H2384 0.929 . S
C2357 C2356 1.380 . S
C2357 C2358 1.347 . S
C2357 H2385 0.931 . S
C2358 C2357 1.347 . S
C2358 C2359 1.369 . S
C2359 C2358 1.369 . S
C2359 C2360 1.408 1_565 S
C2359 H2386 0.930 1_565 S
C2360 C2355 1.348 1_545 S
C2360 C2359 1.408 1_545 S
C2360 H2387 0.930 . S
C2361 O2374 1.281 . S
C2361 O2375 1.254 . S
C2362 O2376 1.236 . S
C2362 O2377 1.266 . S
C2363 Tb2353 2.809 . S
C2363 C2364 1.514 . S
C2363 O2378 1.248 . S
C2363 O2379 1.266 . S
C2364 C2363 1.514 . S
C2364 C2365 1.359 . S
C2364 C2369 1.348 . S
C2365 C2364 1.359 . S
C2365 C2366 1.380 . S
C2365 H2388 0.929 . S
C2366 C2365 1.380 . S
C2366 C2367 1.347 . S
C2366 H2389 0.931 . S
C2367 C2366 1.347 . S
C2367 C2368 1.369 . S
C2368 C2367 1.369 . S
C2368 C2369 1.408 . S
C2368 H2390 0.930 . S
C2369 C2364 1.348 . S
C2369 C2368 1.408 . S
C2369 H2391 0.930 . S
C2370 O2380 1.281 . S
C2370 O2381 1.254 . S
C2371 O2382 1.236 . S
C2371 O2383 1.266 . S
O2372 Tb2352 2.484 1_565 S
O2372 C2354 1.248 . S
O2373 Tb2352 2.440 . S
O2373 C2354 1.266 1_545 S
O2374 Tb2352 2.658 . S
O2374 Tb2353 2.325 . S
O2374 C2361 1.281 . S
O2375 Tb2352 2.409 . S
O2375 C2361 1.254 . S
O2376 Tb2352 2.378 . S
O2376 C2362 1.236 . S
O2377 Tb2353 2.341 . S
O2377 C2362 1.266 . S
O2378 Tb2353 2.484 . S
O2378 C2363 1.248 . S
O2379 Tb2353 2.440 . S
O2379 C2363 1.266 . S
O2380 Tb2352 2.325 1_565 S
O2380 Tb2353 2.658 1_565 S
O2380 C2370 1.281 . S
O2381 Tb2353 2.409 1_565 S
O2381 C2370 1.254 . S
O2382 Tb2353 2.378 . S
O2382 C2371 1.236 . S
O2383 Tb2352 2.341 . S
O2383 C2371 1.266 . S
H2384 C2356 0.929 . S
H2385 C2357 0.931 . S
H2386 C2359 0.930 1_545 S
H2387 C2360 0.930 . S
H2388 C2365 0.929 . S
H2389 C2366 0.931 . S
H2390 C2368 0.930 . S
H2391 C2369 0.930 . S
Tb2392 C2394 2.809 . S
Tb2392 O2412 2.484 . S
Tb2392 O2413 2.440 . S
Tb2392 O2414 2.658 . S
Tb2392 O2415 2.409 . S
Tb2392 O2416 2.378 . S
Tb2392 O2420 2.325 . S
Tb2392 O2423 2.341 . S
Tb2393 C2403 2.809 . S
Tb2393 O2414 2.325 . S
Tb2393 O2417 2.341 . S
Tb2393 O2418 2.484 . S
Tb2393 O2419 2.440 . S
Tb2393 O2420 2.658 . S
Tb2393 O2421 2.409 . S
Tb2393 O2422 2.378 . S
C2394 Tb2392 2.809 . S
C2394 C2395 1.514 . S
C2394 O2412 1.248 . S
C2394 O2413 1.266 . S
C2395 C2394 1.514 . S
C2395 C2396 1.359 . S
C2395 C2400 1.348 . S
C2396 C2395 1.359 . S
C2396 C2397 1.380 . S
C2396 H2424 0.929 . S
C2397 C2396 1.380 . S
C2397 C2398 1.347 . S
C2397 H2425 0.931 . S
C2398 C2397 1.347 . S
C2398 C2399 1.369 . S
C2399 C2398 1.369 . S
C2399 C2400 1.408 . S
C2399 H2426 0.930 . S
C2400 C2395 1.348 . S
C2400 C2399 1.408 . S
C2400 H2427 0.930 . S
C2401 O2414 1.281 . S
C2401 O2415 1.254 . S
C2402 O2416 1.236 . S
C2402 O2417 1.266 . S
C2403 Tb2393 2.809 . S
C2403 C2404 1.514 . S
C2403 O2418 1.248 . S
C2403 O2419 1.266 . S
C2404 C2403 1.514 . S
C2404 C2405 1.359 . S
C2404 C2409 1.348 . S
C2405 C2404 1.359 . S
C2405 C2406 1.380 . S
C2405 H2428 0.929 . S
C2406 C2405 1.380 . S
C2406 C2407 1.347 . S
C2406 H2429 0.931 . S
C2407 C2406 1.347 . S
C2407 C2408 1.369 . S
C2408 C2407 1.369 . S
C2408 C2409 1.408 . S
C2408 H2430 0.930 . S
C2409 C2404 1.348 . S
C2409 C2408 1.408 . S
C2409 H2431 0.930 . S
C2410 O2420 1.281 . S
C2410 O2421 1.254 . S
C2411 O2422 1.236 . S
C2411 O2423 1.266 . S
O2412 Tb2392 2.484 . S
O2412 C2394 1.248 . S
O2413 Tb2392 2.440 . S
O2413 C2394 1.266 . S
O2414 Tb2392 2.658 . S
O2414 Tb2393 2.325 . S
O2414 C2401 1.281 . S
O2415 Tb2392 2.409 . S
O2415 C2401 1.254 . S
O2416 Tb2392 2.378 . S
O2416 C2402 1.236 . S
O2417 Tb2393 2.341 . S
O2417 C2402 1.266 . S
O2418 Tb2393 2.484 . S
O2418 C2403 1.248 . S
O2419 Tb2393 2.440 . S
O2419 C2403 1.266 . S
O2420 Tb2392 2.325 . S
O2420 Tb2393 2.658 . S
O2420 C2410 1.281 . S
O2421 Tb2393 2.409 . S
O2421 C2410 1.254 . S
O2422 Tb2393 2.378 . S
O2422 C2411 1.236 . S
O2423 Tb2392 2.341 . S
O2423 C2411 1.266 . S
H2424 C2396 0.929 . S
H2425 C2397 0.931 . S
H2426 C2399 0.930 . S
H2427 C2400 0.930 . S
H2428 C2405 0.929 . S
H2429 C2406 0.931 . S
H2430 C2408 0.930 . S
H2431 C2409 0.930 . S
Tb2432 C2434 2.809 . S
Tb2432 O2452 2.484 . S
Tb2432 O2453 2.440 . S
Tb2432 O2454 2.658 . S
Tb2432 O2455 2.409 . S
Tb2432 O2456 2.378 . S
Tb2432 O2460 2.325 . S
Tb2432 O2463 2.341 . S
Tb2433 C2443 2.809 . S
Tb2433 O2454 2.325 . S
Tb2433 O2457 2.341 . S
Tb2433 O2458 2.484 . S
Tb2433 O2459 2.440 . S
Tb2433 O2460 2.658 . S
Tb2433 O2461 2.409 . S
Tb2433 O2462 2.378 . S
C2434 Tb2432 2.809 . S
C2434 C2435 1.514 . S
C2434 O2452 1.248 . S
C2434 O2453 1.266 . S
C2435 C2434 1.514 . S
C2435 C2436 1.359 1_554 S
C2435 C2440 1.348 . S
C2436 C2435 1.359 1_556 S
C2436 C2437 1.380 . S
C2436 H2464 0.929 . S
C2437 C2436 1.380 . S
C2437 C2438 1.347 . S
C2437 H2465 0.931 . S
C2438 C2437 1.347 . S
C2438 C2439 1.369 . S
C2439 C2438 1.369 . S
C2439 C2440 1.408 1_556 S
C2439 H2466 0.930 . S
C2440 C2435 1.348 . S
C2440 C2439 1.408 1_554 S
C2440 H2467 0.930 . S
C2441 O2454 1.281 . S
C2441 O2455 1.254 . S
C2442 O2456 1.236 1_556 S
C2442 O2457 1.266 1_556 S
C2443 Tb2433 2.809 . S
C2443 C2444 1.514 . S
C2443 O2458 1.248 . S
C2443 O2459 1.266 . S
C2444 C2443 1.514 . S
C2444 C2445 1.359 . S
C2444 C2449 1.348 . S
C2445 C2444 1.359 . S
C2445 C2446 1.380 . S
C2445 H2468 0.929 . S
C2446 C2445 1.380 . S
C2446 C2447 1.347 . S
C2446 H2469 0.931 . S
C2447 C2446 1.347 . S
C2447 C2448 1.369 . S
C2448 C2447 1.369 . S
C2448 C2449 1.408 . S
C2448 H2470 0.930 . S
C2449 C2444 1.348 . S
C2449 C2448 1.408 . S
C2449 H2471 0.930 . S
C2450 O2460 1.281 . S
C2450 O2461 1.254 . S
C2451 O2462 1.236 . S
C2451 O2463 1.266 . S
O2452 Tb2432 2.484 . S
O2452 C2434 1.248 . S
O2453 Tb2432 2.440 . S
O2453 C2434 1.266 . S
O2454 Tb2432 2.658 . S
O2454 Tb2433 2.325 . S
O2454 C2441 1.281 . S
O2455 Tb2432 2.409 . S
O2455 C2441 1.254 . S
O2456 Tb2432 2.378 . S
O2456 C2442 1.236 1_554 S
O2457 Tb2433 2.341 . S
O2457 C2442 1.266 1_554 S
O2458 Tb2433 2.484 . S
O2458 C2443 1.248 . S
O2459 Tb2433 2.440 . S
O2459 C2443 1.266 . S
O2460 Tb2432 2.325 . S
O2460 Tb2433 2.658 . S
O2460 C2450 1.281 . S
O2461 Tb2433 2.409 . S
O2461 C2450 1.254 . S
O2462 Tb2433 2.378 . S
O2462 C2451 1.236 . S
O2463 Tb2432 2.341 . S
O2463 C2451 1.266 . S
H2464 C2436 0.929 . S
H2465 C2437 0.931 . S
H2466 C2439 0.930 . S
H2467 C2440 0.930 . S
H2468 C2445 0.929 . S
H2469 C2446 0.931 . S
H2470 C2448 0.930 . S
H2471 C2449 0.930 . S
Tb2472 C2474 2.809 . S
Tb2472 O2492 2.484 . S
Tb2472 O2493 2.440 . S
Tb2472 O2494 2.658 . S
Tb2472 O2495 2.409 . S
Tb2472 O2496 2.378 . S
Tb2472 O2500 2.325 . S
Tb2472 O2503 2.341 . S
Tb2473 C2483 2.809 . S
Tb2473 O2494 2.325 . S
Tb2473 O2497 2.341 . S
Tb2473 O2498 2.484 . S
Tb2473 O2499 2.440 . S
Tb2473 O2500 2.658 . S
Tb2473 O2501 2.409 . S
Tb2473 O2502 2.378 . S
C2474 Tb2472 2.809 . S
C2474 C2475 1.514 . S
C2474 O2492 1.248 . S
C2474 O2493 1.266 . S
C2475 C2474 1.514 . S
C2475 C2476 1.359 . S
C2475 C2480 1.348 . S
C2476 C2475 1.359 . S
C2476 C2477 1.380 . S
C2476 H2504 0.929 . S
C2477 C2476 1.380 . S
C2477 C2478 1.347 . S
C2477 H2505 0.931 . S
C2478 C2477 1.347 . S
C2478 C2479 1.369 . S
C2479 C2478 1.369 . S
C2479 C2480 1.408 . S
C2479 H2506 0.930 . S
C2480 C2475 1.348 . S
C2480 C2479 1.408 . S
C2480 H2507 0.930 . S
C2481 O2494 1.281 . S
C2481 O2495 1.254 . S
C2482 O2496 1.236 . S
C2482 O2497 1.266 . S
C2483 Tb2473 2.809 . S
C2483 C2484 1.514 . S
C2483 O2498 1.248 . S
C2483 O2499 1.266 . S
C2484 C2483 1.514 . S
C2484 C2485 1.359 . S
C2484 C2489 1.348 . S
C2485 C2484 1.359 . S
C2485 C2486 1.380 . S
C2485 H2508 0.929 . S
C2486 C2485 1.380 . S
C2486 C2487 1.347 . S
C2486 H2509 0.931 . S
C2487 C2486 1.347 . S
C2487 C2488 1.369 . S
C2488 C2487 1.369 . S
C2488 C2489 1.408 . S
C2488 H2510 0.930 . S
C2489 C2484 1.348 . S
C2489 C2488 1.408 . S
C2489 H2511 0.930 . S
C2490 O2500 1.281 . S
C2490 O2501 1.254 . S
C2491 O2502 1.236 . S
C2491 O2503 1.266 . S
O2492 Tb2472 2.484 . S
O2492 C2474 1.248 . S
O2493 Tb2472 2.440 . S
O2493 C2474 1.266 . S
O2494 Tb2472 2.658 . S
O2494 Tb2473 2.325 . S
O2494 C2481 1.281 . S
O2495 Tb2472 2.409 . S
O2495 C2481 1.254 . S
O2496 Tb2472 2.378 . S
O2496 C2482 1.236 . S
O2497 Tb2473 2.341 . S
O2497 C2482 1.266 . S
O2498 Tb2473 2.484 . S
O2498 C2483 1.248 . S
O2499 Tb2473 2.440 . S
O2499 C2483 1.266 . S
O2500 Tb2472 2.325 . S
O2500 Tb2473 2.658 . S
O2500 C2490 1.281 . S
O2501 Tb2473 2.409 . S
O2501 C2490 1.254 . S
O2502 Tb2473 2.378 . S
O2502 C2491 1.236 . S
O2503 Tb2472 2.341 . S
O2503 C2491 1.266 . S
H2504 C2476 0.929 . S
H2505 C2477 0.931 . S
H2506 C2479 0.930 . S
H2507 C2480 0.930 . S
H2508 C2485 0.929 . S
H2509 C2486 0.931 . S
H2510 C2488 0.930 . S
H2511 C2489 0.930 . S
Tb2512 C2514 2.809 1_455 S
Tb2512 O2532 2.484 1_455 S
Tb2512 O2533 2.440 1_455 S
Tb2512 O2534 2.658 . S
Tb2512 O2535 2.409 . S
Tb2512 O2536 2.378 . S
Tb2512 O2540 2.325 . S
Tb2512 O2543 2.341 . S
Tb2513 C2523 2.809 . S
Tb2513 O2534 2.325 . S
Tb2513 O2537 2.341 . S
Tb2513 O2538 2.484 . S
Tb2513 O2539 2.440 . S
Tb2513 O2540 2.658 . S
Tb2513 O2541 2.409 . S
Tb2513 O2542 2.378 . S
C2514 Tb2512 2.809 1_655 S
C2514 C2515 1.514 . S
C2514 O2532 1.248 . S
C2514 O2533 1.266 . S
C2515 C2514 1.514 . S
C2515 C2516 1.359 . S
C2515 C2520 1.348 . S
C2516 C2515 1.359 . S
C2516 C2517 1.380 . S
C2516 H2544 0.929 . S
C2517 C2516 1.380 . S
C2517 C2518 1.347 . S
C2517 H2545 0.931 . S
C2518 C2517 1.347 . S
C2518 C2519 1.369 . S
C2519 C2518 1.369 . S
C2519 C2520 1.408 . S
C2519 H2546 0.930 . S
C2520 C2515 1.348 . S
C2520 C2519 1.408 . S
C2520 H2547 0.930 . S
C2521 O2534 1.281 . S
C2521 O2535 1.254 . S
C2522 O2536 1.236 . S
C2522 O2537 1.266 . S
C2523 Tb2513 2.809 . S
C2523 C2524 1.514 . S
C2523 O2538 1.248 . S
C2523 O2539 1.266 . S
C2524 C2523 1.514 . S
C2524 C2525 1.359 . S
C2524 C2529 1.348 . S
C2525 C2524 1.359 . S
C2525 C2526 1.380 . S
C2525 H2548 0.929 . S
C2526 C2525 1.380 . S
C2526 C2527 1.347 . S
C2526 H2549 0.931 . S
C2527 C2526 1.347 . S
C2527 C2528 1.369 . S
C2528 C2527 1.369 . S
C2528 C2529 1.408 . S
C2528 H2550 0.930 . S
C2529 C2524 1.348 . S
C2529 C2528 1.408 . S
C2529 H2551 0.930 . S
C2530 O2540 1.281 . S
C2530 O2541 1.254 . S
C2531 O2542 1.236 . S
C2531 O2543 1.266 . S
O2532 Tb2512 2.484 1_655 S
O2532 C2514 1.248 . S
O2533 Tb2512 2.440 1_655 S
O2533 C2514 1.266 . S
O2534 Tb2512 2.658 . S
O2534 Tb2513 2.325 . S
O2534 C2521 1.281 . S
O2535 Tb2512 2.409 . S
O2535 C2521 1.254 . S
O2536 Tb2512 2.378 . S
O2536 C2522 1.236 . S
O2537 Tb2513 2.341 . S
O2537 C2522 1.266 . S
O2538 Tb2513 2.484 . S
O2538 C2523 1.248 . S
O2539 Tb2513 2.440 . S
O2539 C2523 1.266 . S
O2540 Tb2512 2.325 . S
O2540 Tb2513 2.658 . S
O2540 C2530 1.281 . S
O2541 Tb2513 2.409 . S
O2541 C2530 1.254 . S
O2542 Tb2513 2.378 . S
O2542 C2531 1.236 . S
O2543 Tb2512 2.341 . S
O2543 C2531 1.266 . S
H2544 C2516 0.929 . S
H2545 C2517 0.931 . S
H2546 C2519 0.930 . S
H2547 C2520 0.930 . S
H2548 C2525 0.929 . S
H2549 C2526 0.931 . S
H2550 C2528 0.930 . S
H2551 C2529 0.930 . S
Tb2552 C2554 2.809 . S
Tb2552 O2572 2.484 . S
Tb2552 O2573 2.440 . S
Tb2552 O2574 2.658 . S
Tb2552 O2575 2.409 . S
Tb2552 O2576 2.378 . S
Tb2552 O2580 2.325 . S
Tb2552 O2583 2.341 . S
Tb2553 C2563 2.809 . S
Tb2553 O2574 2.325 . S
Tb2553 O2577 2.341 . S
Tb2553 O2578 2.484 . S
Tb2553 O2579 2.440 . S
Tb2553 O2580 2.658 . S
Tb2553 O2581 2.409 . S
Tb2553 O2582 2.378 . S
C2554 Tb2552 2.809 . S
C2554 C2555 1.514 . S
C2554 O2572 1.248 . S
C2554 O2573 1.266 . S
C2555 C2554 1.514 . S
C2555 C2556 1.359 . S
C2555 C2560 1.348 . S
C2556 C2555 1.359 . S
C2556 C2557 1.380 . S
C2556 H2584 0.929 . S
C2557 C2556 1.380 . S
C2557 C2558 1.347 . S
C2557 H2585 0.931 . S
C2558 C2557 1.347 . S
C2558 C2559 1.369 . S
C2559 C2558 1.369 . S
C2559 C2560 1.408 . S
C2559 H2586 0.930 . S
C2560 C2555 1.348 . S
C2560 C2559 1.408 . S
C2560 H2587 0.930 . S
C2561 O2574 1.281 . S
C2561 O2575 1.254 . S
C2562 O2576 1.236 . S
C2562 O2577 1.266 . S
C2563 Tb2553 2.809 . S
C2563 C2564 1.514 . S
C2563 O2578 1.248 . S
C2563 O2579 1.266 . S
C2564 C2563 1.514 . S
C2564 C2565 1.359 . S
C2564 C2569 1.348 . S
C2565 C2564 1.359 . S
C2565 C2566 1.380 . S
C2565 H2588 0.929 . S
C2566 C2565 1.380 . S
C2566 C2567 1.347 . S
C2566 H2589 0.931 . S
C2567 C2566 1.347 . S
C2567 C2568 1.369 . S
C2568 C2567 1.369 . S
C2568 C2569 1.408 . S
C2568 H2590 0.930 . S
C2569 C2564 1.348 . S
C2569 C2568 1.408 . S
C2569 H2591 0.930 . S
C2570 O2580 1.281 . S
C2570 O2581 1.254 . S
C2571 O2582 1.236 . S
C2571 O2583 1.266 . S
O2572 Tb2552 2.484 . S
O2572 C2554 1.248 . S
O2573 Tb2552 2.440 . S
O2573 C2554 1.266 . S
O2574 Tb2552 2.658 . S
O2574 Tb2553 2.325 . S
O2574 C2561 1.281 . S
O2575 Tb2552 2.409 . S
O2575 C2561 1.254 . S
O2576 Tb2552 2.378 . S
O2576 C2562 1.236 . S
O2577 Tb2553 2.341 . S
O2577 C2562 1.266 . S
O2578 Tb2553 2.484 . S
O2578 C2563 1.248 . S
O2579 Tb2553 2.440 . S
O2579 C2563 1.266 . S
O2580 Tb2552 2.325 . S
O2580 Tb2553 2.658 . S
O2580 C2570 1.281 . S
O2581 Tb2553 2.409 . S
O2581 C2570 1.254 . S
O2582 Tb2553 2.378 . S
O2582 C2571 1.236 . S
O2583 Tb2552 2.341 . S
O2583 C2571 1.266 . S
H2584 C2556 0.929 . S
H2585 C2557 0.931 . S
H2586 C2559 0.930 . S
H2587 C2560 0.930 . S
H2588 C2565 0.929 . S
H2589 C2566 0.931 . S
H2590 C2568 0.930 . S
H2591 C2569 0.930 . S
Tb2592 C2594 2.809 . S
Tb2592 O2612 2.484 . S
Tb2592 O2613 2.440 . S
Tb2592 O2614 2.658 . S
Tb2592 O2615 2.409 . S
Tb2592 O2616 2.378 . S
Tb2592 O2620 2.325 . S
Tb2592 O2623 2.341 . S
Tb2593 C2603 2.809 . S
Tb2593 O2614 2.325 . S
Tb2593 O2617 2.341 . S
Tb2593 O2618 2.484 . S
Tb2593 O2619 2.440 . S
Tb2593 O2620 2.658 . S
Tb2593 O2621 2.409 . S
Tb2593 O2622 2.378 . S
C2594 Tb2592 2.809 . S
C2594 C2595 1.514 . S
C2594 O2612 1.248 . S
C2594 O2613 1.266 . S
C2595 C2594 1.514 . S
C2595 C2596 1.359 . S
C2595 C2600 1.348 . S
C2596 C2595 1.359 . S
C2596 C2597 1.380 . S
C2596 H2624 0.929 . S
C2597 C2596 1.380 . S
C2597 C2598 1.347 . S
C2597 H2625 0.931 . S
C2598 C2597 1.347 . S
C2598 C2599 1.369 . S
C2599 C2598 1.369 . S
C2599 C2600 1.408 . S
C2599 H2626 0.930 . S
C2600 C2595 1.348 . S
C2600 C2599 1.408 . S
C2600 H2627 0.930 . S
C2601 O2614 1.281 . S
C2601 O2615 1.254 . S
C2602 O2616 1.236 . S
C2602 O2617 1.266 . S
C2603 Tb2593 2.809 . S
C2603 C2604 1.514 . S
C2603 O2618 1.248 . S
C2603 O2619 1.266 . S
C2604 C2603 1.514 . S
C2604 C2605 1.359 . S
C2604 C2609 1.348 . S
C2605 C2604 1.359 . S
C2605 C2606 1.380 . S
C2605 H2628 0.929 . S
C2606 C2605 1.380 . S
C2606 C2607 1.347 . S
C2606 H2629 0.931 . S
C2607 C2606 1.347 . S
C2607 C2608 1.369 . S
C2608 C2607 1.369 . S
C2608 C2609 1.408 . S
C2608 H2630 0.930 . S
C2609 C2604 1.348 . S
C2609 C2608 1.408 . S
C2609 H2631 0.930 . S
C2610 O2620 1.281 . S
C2610 O2621 1.254 . S
C2611 O2622 1.236 . S
C2611 O2623 1.266 . S
O2612 Tb2592 2.484 . S
O2612 C2594 1.248 . S
O2613 Tb2592 2.440 . S
O2613 C2594 1.266 . S
O2614 Tb2592 2.658 . S
O2614 Tb2593 2.325 . S
O2614 C2601 1.281 . S
O2615 Tb2592 2.409 . S
O2615 C2601 1.254 . S
O2616 Tb2592 2.378 . S
O2616 C2602 1.236 . S
O2617 Tb2593 2.341 . S
O2617 C2602 1.266 . S
O2618 Tb2593 2.484 . S
O2618 C2603 1.248 . S
O2619 Tb2593 2.440 . S
O2619 C2603 1.266 . S
O2620 Tb2592 2.325 . S
O2620 Tb2593 2.658 . S
O2620 C2610 1.281 . S
O2621 Tb2593 2.409 . S
O2621 C2610 1.254 . S
O2622 Tb2593 2.378 . S
O2622 C2611 1.236 . S
O2623 Tb2592 2.341 . S
O2623 C2611 1.266 . S
H2624 C2596 0.929 . S
H2625 C2597 0.931 . S
H2626 C2599 0.930 . S
H2627 C2600 0.930 . S
H2628 C2605 0.929 . S
H2629 C2606 0.931 . S
H2630 C2608 0.930 . S
H2631 C2609 0.930 . S
Tb2632 C2634 2.809 . S
Tb2632 O2652 2.484 . S
Tb2632 O2653 2.440 . S
Tb2632 O2654 2.658 . S
Tb2632 O2655 2.409 . S
Tb2632 O2656 2.378 . S
Tb2632 O2660 2.325 . S
Tb2632 O2663 2.341 . S
Tb2633 C2643 2.809 . S
Tb2633 O2654 2.325 . S
Tb2633 O2657 2.341 . S
Tb2633 O2658 2.484 . S
Tb2633 O2659 2.440 . S
Tb2633 O2660 2.658 . S
Tb2633 O2661 2.409 . S
Tb2633 O2662 2.378 . S
C2634 Tb2632 2.809 . S
C2634 C2635 1.514 . S
C2634 O2652 1.248 . S
C2634 O2653 1.266 . S
C2635 C2634 1.514 . S
C2635 C2636 1.359 . S
C2635 C2640 1.348 . S
C2636 C2635 1.359 . S
C2636 C2637 1.380 . S
C2636 H2664 0.929 . S
C2637 C2636 1.380 . S
C2637 C2638 1.347 . S
C2637 H2665 0.931 . S
C2638 C2637 1.347 . S
C2638 C2639 1.369 . S
C2639 C2638 1.369 . S
C2639 C2640 1.408 . S
C2639 H2666 0.930 . S
C2640 C2635 1.348 . S
C2640 C2639 1.408 . S
C2640 H2667 0.930 . S
C2641 O2654 1.281 . S
C2641 O2655 1.254 . S
C2642 O2656 1.236 . S
C2642 O2657 1.266 . S
C2643 Tb2633 2.809 . S
C2643 C2644 1.514 . S
C2643 O2658 1.248 . S
C2643 O2659 1.266 . S
C2644 C2643 1.514 . S
C2644 C2645 1.359 . S
C2644 C2649 1.348 . S
C2645 C2644 1.359 . S
C2645 C2646 1.380 . S
C2645 H2668 0.929 . S
C2646 C2645 1.380 . S
C2646 C2647 1.347 . S
C2646 H2669 0.931 . S
C2647 C2646 1.347 . S
C2647 C2648 1.369 . S
C2648 C2647 1.369 . S
C2648 C2649 1.408 . S
C2648 H2670 0.930 . S
C2649 C2644 1.348 . S
C2649 C2648 1.408 . S
C2649 H2671 0.930 . S
C2650 O2660 1.281 . S
C2650 O2661 1.254 . S
C2651 O2662 1.236 . S
C2651 O2663 1.266 . S
O2652 Tb2632 2.484 . S
O2652 C2634 1.248 . S
O2653 Tb2632 2.440 . S
O2653 C2634 1.266 . S
O2654 Tb2632 2.658 . S
O2654 Tb2633 2.325 . S
O2654 C2641 1.281 . S
O2655 Tb2632 2.409 . S
O2655 C2641 1.254 . S
O2656 Tb2632 2.378 . S
O2656 C2642 1.236 . S
O2657 Tb2633 2.341 . S
O2657 C2642 1.266 . S
O2658 Tb2633 2.484 . S
O2658 C2643 1.248 . S
O2659 Tb2633 2.440 . S
O2659 C2643 1.266 . S
O2660 Tb2632 2.325 . S
O2660 Tb2633 2.658 . S
O2660 C2650 1.281 . S
O2661 Tb2633 2.409 . S
O2661 C2650 1.254 . S
O2662 Tb2633 2.378 . S
O2662 C2651 1.236 . S
O2663 Tb2632 2.341 . S
O2663 C2651 1.266 . S
H2664 C2636 0.929 . S
H2665 C2637 0.931 . S
H2666 C2639 0.930 . S
H2667 C2640 0.930 . S
H2668 C2645 0.929 . S
H2669 C2646 0.931 . S
H2670 C2648 0.930 . S
H2671 C2649 0.930 . S
Tb2672 C2674 2.809 . S
Tb2672 O2692 2.484 . S
Tb2672 O2693 2.440 . S
Tb2672 O2694 2.658 . S
Tb2672 O2695 2.409 . S
Tb2672 O2696 2.378 . S
Tb2672 O2700 2.325 . S
Tb2672 O2703 2.341 . S
Tb2673 C2683 2.809 . S
Tb2673 O2694 2.325 . S
Tb2673 O2697 2.341 . S
Tb2673 O2698 2.484 . S
Tb2673 O2699 2.440 . S
Tb2673 O2700 2.658 . S
Tb2673 O2701 2.409 . S
Tb2673 O2702 2.378 . S
C2674 Tb2672 2.809 . S
C2674 C2675 1.514 . S
C2674 O2692 1.248 . S
C2674 O2693 1.266 . S
C2675 C2674 1.514 . S
C2675 C2676 1.359 . S
C2675 C2680 1.348 . S
C2676 C2675 1.359 . S
C2676 C2677 1.380 . S
C2676 H2704 0.929 . S
C2677 C2676 1.380 . S
C2677 C2678 1.347 . S
C2677 H2705 0.931 . S
C2678 C2677 1.347 . S
C2678 C2679 1.369 . S
C2679 C2678 1.369 . S
C2679 C2680 1.408 . S
C2679 H2706 0.930 . S
C2680 C2675 1.348 . S
C2680 C2679 1.408 . S
C2680 H2707 0.930 . S
C2681 O2694 1.281 . S
C2681 O2695 1.254 . S
C2682 O2696 1.236 . S
C2682 O2697 1.266 . S
C2683 Tb2673 2.809 . S
C2683 C2684 1.514 . S
C2683 O2698 1.248 . S
C2683 O2699 1.266 . S
C2684 C2683 1.514 . S
C2684 C2685 1.359 . S
C2684 C2689 1.348 . S
C2685 C2684 1.359 . S
C2685 C2686 1.380 . S
C2685 H2708 0.929 . S
C2686 C2685 1.380 . S
C2686 C2687 1.347 . S
C2686 H2709 0.931 . S
C2687 C2686 1.347 . S
C2687 C2688 1.369 . S
C2688 C2687 1.369 . S
C2688 C2689 1.408 . S
C2688 H2710 0.930 . S
C2689 C2684 1.348 . S
C2689 C2688 1.408 . S
C2689 H2711 0.930 . S
C2690 O2700 1.281 . S
C2690 O2701 1.254 . S
C2691 O2702 1.236 . S
C2691 O2703 1.266 . S
O2692 Tb2672 2.484 . S
O2692 C2674 1.248 . S
O2693 Tb2672 2.440 . S
O2693 C2674 1.266 . S
O2694 Tb2672 2.658 . S
O2694 Tb2673 2.325 . S
O2694 C2681 1.281 . S
O2695 Tb2672 2.409 . S
O2695 C2681 1.254 . S
O2696 Tb2672 2.378 . S
O2696 C2682 1.236 . S
O2697 Tb2673 2.341 . S
O2697 C2682 1.266 . S
O2698 Tb2673 2.484 . S
O2698 C2683 1.248 . S
O2699 Tb2673 2.440 . S
O2699 C2683 1.266 . S
O2700 Tb2672 2.325 . S
O2700 Tb2673 2.658 . S
O2700 C2690 1.281 . S
O2701 Tb2673 2.409 . S
O2701 C2690 1.254 . S
O2702 Tb2673 2.378 . S
O2702 C2691 1.236 . S
O2703 Tb2672 2.341 . S
O2703 C2691 1.266 . S
H2704 C2676 0.929 . S
H2705 C2677 0.931 . S
H2706 C2679 0.930 . S
H2707 C2680 0.930 . S
H2708 C2685 0.929 . S
H2709 C2686 0.931 . S
H2710 C2688 0.930 . S
H2711 C2689 0.930 . S
Tb2712 C2714 2.809 . S
Tb2712 O2732 2.484 . S
Tb2712 O2733 2.440 . S
Tb2712 O2734 2.658 . S
Tb2712 O2735 2.409 1_554 S
Tb2712 O2736 2.378 . S
Tb2712 O2740 2.325 . S
Tb2712 O2743 2.341 . S
Tb2713 C2723 2.809 1_455 S
Tb2713 O2734 2.325 . S
Tb2713 O2737 2.341 . S
Tb2713 O2738 2.484 1_455 S
Tb2713 O2739 2.440 1_455 S
Tb2713 O2740 2.658 . S
Tb2713 O2741 2.409 . S
Tb2713 O2742 2.378 . S
C2714 Tb2712 2.809 . S
C2714 C2715 1.514 . S
C2714 O2732 1.248 . S
C2714 O2733 1.266 . S
C2715 C2714 1.514 . S
C2715 C2716 1.359 . S
C2715 C2720 1.348 . S
C2716 C2715 1.359 . S
C2716 C2717 1.380 . S
C2716 H2744 0.929 . S
C2717 C2716 1.380 . S
C2717 C2718 1.347 . S
C2717 H2745 0.931 . S
C2718 C2717 1.347 . S
C2718 C2719 1.373 1_554 S
C2719 C2718 1.373 1_556 S
C2719 C2720 1.410 1_556 S
C2719 H2746 0.926 . S
C2720 C2715 1.348 . S
C2720 C2719 1.410 1_554 S
C2720 H2747 0.930 1_554 S
C2721 O2734 1.281 . S
C2721 O2735 1.254 1_554 S
C2722 O2736 1.236 . S
C2722 O2737 1.266 . S
C2723 Tb2713 2.809 1_655 S
C2723 C2724 1.514 . S
C2723 O2738 1.248 . S
C2723 O2739 1.266 . S
C2724 C2723 1.514 . S
C2724 C2725 1.359 . S
C2724 C2729 1.348 . S
C2725 C2724 1.359 . S
C2725 C2726 1.380 . S
C2725 H2748 0.929 . S
C2726 C2725 1.380 . S
C2726 C2727 1.347 . S
C2726 H2749 0.931 . S
C2727 C2726 1.347 . S
C2727 C2728 1.369 . S
C2728 C2727 1.369 . S
C2728 C2729 1.408 . S
C2728 H2750 0.930 . S
C2729 C2724 1.348 . S
C2729 C2728 1.408 . S
C2729 H2751 0.930 . S
C2730 O2740 1.281 . S
C2730 O2741 1.254 . S
C2731 O2742 1.236 . S
C2731 O2743 1.266 . S
O2732 Tb2712 2.484 . S
O2732 C2714 1.248 . S
O2733 Tb2712 2.440 . S
O2733 C2714 1.266 . S
O2734 Tb2712 2.658 . S
O2734 Tb2713 2.325 . S
O2734 C2721 1.281 . S
O2735 Tb2712 2.409 1_556 S
O2735 C2721 1.254 1_556 S
O2736 Tb2712 2.378 . S
O2736 C2722 1.236 . S
O2737 Tb2713 2.341 . S
O2737 C2722 1.266 . S
O2738 Tb2713 2.484 1_655 S
O2738 C2723 1.248 . S
O2739 Tb2713 2.440 1_655 S
O2739 C2723 1.266 . S
O2740 Tb2712 2.325 . S
O2740 Tb2713 2.658 . S
O2740 C2730 1.281 . S
O2741 Tb2713 2.409 . S
O2741 C2730 1.254 . S
O2742 Tb2713 2.378 . S
O2742 C2731 1.236 . S
O2743 Tb2712 2.341 . S
O2743 C2731 1.266 . S
H2744 C2716 0.929 . S
H2745 C2717 0.931 . S
H2746 C2719 0.926 . S
H2747 C2720 0.930 1_556 S
H2748 C2725 0.929 . S
H2749 C2726 0.931 . S
H2750 C2728 0.930 . S
H2751 C2729 0.930 . S
C2752 C2753 1.387 . S
C2752 H2756 0.950 1_454 S
C2752 C2761 1.390 . S
C2753 C2752 1.387 . S
C2753 C2755 1.387 . S
H2754 C2761 0.950 . S
C2755 C2753 1.387 . S
C2755 C2757 1.390 . S
C2755 H2759 0.950 . S
H2756 C2752 0.950 1_656 S
C2757 C2755 1.390 . S
C2757 C2758 1.387 . S
C2757 H2760 0.950 . S
C2758 C2757 1.387 . S
C2758 C2761 1.387 . S
H2759 C2755 0.950 . S
H2760 C2757 0.950 . S
C2761 C2752 1.390 . S
C2761 H2754 0.950 . S
C2761 C2758 1.387 . S
C2762 C2763 1.387 . S
C2762 H2766 0.950 . S
C2762 C2771 1.390 . S
C2763 C2762 1.387 . S
C2763 C2765 1.387 . S
H2764 C2771 0.950 . S
C2765 C2763 1.387 . S
C2765 C2767 1.390 . S
C2765 H2769 0.950 . S
H2766 C2762 0.950 . S
C2767 C2765 1.390 . S
C2767 C2768 1.387 . S
C2767 H2770 0.950 . S
C2768 C2767 1.387 . S
C2768 C2771 1.387 . S
H2769 C2765 0.950 . S
H2770 C2767 0.950 . S
C2771 C2762 1.390 . S
C2771 H2764 0.950 . S
C2771 C2768 1.387 . S
C2772 C2773 1.387 . S
C2772 H2776 0.950 . S
C2772 C2781 1.390 . S
C2773 C2772 1.387 . S
C2773 C2775 1.387 . S
H2774 C2781 0.950 . S
C2775 C2773 1.387 . S
C2775 C2777 1.390 . S
C2775 H2779 0.950 . S
H2776 C2772 0.950 . S
C2777 C2775 1.390 . S
C2777 C2778 1.387 . S
C2777 H2780 0.950 . S
C2778 C2777 1.387 . S
C2778 C2781 1.387 . S
H2779 C2775 0.950 . S
H2780 C2777 0.950 . S
C2781 C2772 1.390 . S
C2781 H2774 0.950 . S
C2781 C2778 1.387 . S
C2782 C2783 1.387 . S
C2782 H2786 0.950 . S
C2782 C2791 1.390 . S
C2783 C2782 1.387 . S
C2783 C2785 1.387 . S
H2784 C2791 0.950 . S
C2785 C2783 1.387 . S
C2785 C2787 1.390 . S
C2785 H2789 0.950 . S
H2786 C2782 0.950 . S
C2787 C2785 1.390 . S
C2787 C2788 1.387 . S
C2787 H2790 0.950 . S
C2788 C2787 1.387 . S
C2788 C2791 1.387 . S
H2789 C2785 0.950 . S
H2790 C2787 0.950 . S
C2791 C2782 1.390 . S
C2791 H2784 0.950 . S
C2791 C2788 1.387 . S
C2792 C2793 1.387 . S
C2792 H2796 0.950 . S
C2792 C2801 1.390 . S
C2793 C2792 1.387 . S
C2793 C2795 1.387 . S
H2794 C2801 0.950 . S
C2795 C2793 1.387 . S
C2795 C2797 1.390 . S
C2795 H2799 0.950 . S
H2796 C2792 0.950 . S
C2797 C2795 1.390 . S
C2797 C2798 1.387 . S
C2797 H2800 0.950 . S
C2798 C2797 1.387 . S
C2798 C2801 1.387 . S
H2799 C2795 0.950 . S
H2800 C2797 0.950 . S
C2801 C2792 1.390 . S
C2801 H2794 0.950 . S
C2801 C2798 1.387 . S
C2802 C2803 1.387 . S
C2802 H2806 0.950 . S
C2802 C2811 1.390 . S
C2803 C2802 1.387 . S
C2803 C2805 1.387 . S
H2804 C2811 0.950 . S
C2805 C2803 1.387 . S
C2805 C2807 1.390 . S
C2805 H2809 0.950 . S
H2806 C2802 0.950 . S
C2807 C2805 1.390 . S
C2807 C2808 1.387 . S
C2807 H2810 0.950 . S
C2808 C2807 1.387 . S
C2808 C2811 1.387 . S
H2809 C2805 0.950 . S
H2810 C2807 0.950 . S
C2811 C2802 1.390 . S
C2811 H2804 0.950 . S
C2811 C2808 1.387 . S
C2812 C2813 1.387 . S
C2812 H2816 0.950 . S
C2812 C2821 1.390 . S
C2813 C2812 1.387 . S
C2813 C2815 1.387 . S
H2814 C2821 0.950 . S
C2815 C2813 1.387 . S
C2815 C2817 1.390 . S
C2815 H2819 0.950 . S
H2816 C2812 0.950 . S
C2817 C2815 1.390 . S
C2817 C2818 1.387 . S
C2817 H2820 0.950 . S
C2818 C2817 1.387 . S
C2818 C2821 1.387 . S
H2819 C2815 0.950 . S
H2820 C2817 0.950 . S
C2821 C2812 1.390 . S
C2821 H2814 0.950 . S
C2821 C2818 1.387 . S
C2822 C2823 1.387 . S
C2822 H2826 0.950 . S
C2822 C2831 1.390 . S
C2823 C2822 1.387 . S
C2823 C2825 1.387 . S
H2824 C2831 0.950 . S
C2825 C2823 1.387 . S
C2825 C2827 1.390 . S
C2825 H2829 0.950 . S
H2826 C2822 0.950 . S
C2827 C2825 1.390 . S
C2827 C2828 1.387 . S
C2827 H2830 0.950 . S
C2828 C2827 1.387 . S
C2828 C2831 1.387 . S
H2829 C2825 0.950 . S
H2830 C2827 0.950 . S
C2831 C2822 1.390 . S
C2831 H2824 0.950 . S
C2831 C2828 1.387 . S
C2832 C2833 1.387 1_655 S
C2832 H2836 0.950 . S
C2832 C2841 1.390 1_655 S
C2833 C2832 1.387 1_455 S
C2833 C2835 1.387 1_545 S
H2834 C2841 0.950 . S
C2835 C2833 1.387 1_565 S
C2835 C2837 1.384 1_565 S
C2835 H2839 0.950 . S
H2836 C2832 0.950 . S
C2837 C2835 1.384 1_545 S
C2837 C2838 1.406 . S
C2837 H2840 0.938 1_545 S
C2838 C2837 1.406 . S
C2838 C2841 1.387 . S
H2839 C2835 0.950 . S
H2840 C2837 0.938 1_565 S
C2841 C2832 1.390 1_455 S
C2841 H2834 0.950 . S
C2841 C2838 1.387 . S
C2842 C2843 1.387 . S
C2842 H2846 0.950 . S
C2842 C2851 1.390 . S
C2843 C2842 1.387 . S
C2843 C2845 1.387 . S
H2844 C2851 0.950 . S
C2845 C2843 1.387 . S
C2845 C2847 1.390 . S
C2845 H2849 0.950 . S
H2846 C2842 0.950 . S
C2847 C2845 1.390 . S
C2847 C2848 1.387 . S
C2847 H2850 0.950 . S
C2848 C2847 1.387 . S
C2848 C2851 1.387 . S
H2849 C2845 0.950 . S
H2850 C2847 0.950 . S
C2851 C2842 1.390 . S
C2851 H2844 0.950 . S
C2851 C2848 1.387 . S
C2852 C2853 1.387 . S
C2852 H2856 0.950 . S
C2852 C2861 1.390 . S
C2853 C2852 1.387 . S
C2853 C2855 1.382 . S
H2854 C2861 0.950 . S
C2855 C2853 1.382 . S
C2855 C2857 1.410 . S
C2855 H2859 0.938 1_545 S
H2856 C2852 0.950 . S
C2857 C2855 1.410 . S
C2857 C2858 1.387 . S
C2857 H2860 0.950 . S
C2858 C2857 1.387 . S
C2858 C2861 1.387 . S
H2859 C2855 0.938 1_565 S
H2860 C2857 0.950 . S
C2861 C2852 1.390 . S
C2861 H2854 0.950 . S
C2861 C2858 1.387 . S
C2862 C2863 1.387 . S
C2862 H2866 0.950 . S
C2862 C2871 1.390 . S
C2863 C2862 1.387 . S
C2863 C2865 1.387 . S
H2864 C2871 0.950 . S
C2865 C2863 1.387 . S
C2865 C2867 1.390 . S
C2865 H2869 0.950 . S
H2866 C2862 0.950 . S
C2867 C2865 1.390 . S
C2867 C2868 1.387 . S
C2867 H2870 0.950 . S
C2868 C2867 1.387 . S
C2868 C2871 1.387 . S
H2869 C2865 0.950 . S
H2870 C2867 0.950 . S
C2871 C2862 1.390 . S
C2871 H2864 0.950 . S
C2871 C2868 1.387 . S
C2872 C2873 1.387 1_565 S
C2872 H2876 0.950 . S
C2872 C2881 1.390 . S
C2873 C2872 1.387 1_545 S
C2873 C2875 1.387 . S
H2874 C2881 0.950 . S
C2875 C2873 1.387 . S
C2875 C2877 1.390 . S
C2875 H2879 0.950 . S
H2876 C2872 0.950 . S
C2877 C2875 1.390 . S
C2877 C2878 1.387 . S
C2877 H2880 0.950 . S
C2878 C2877 1.387 . S
C2878 C2881 1.387 1_545 S
H2879 C2875 0.950 . S
H2880 C2877 0.950 . S
C2881 C2872 1.390 . S
C2881 H2874 0.950 . S
C2881 C2878 1.387 1_565 S
C2882 C2883 1.387 . S
C2882 H2886 0.950 . S
C2882 C2891 1.390 . S
C2883 C2882 1.387 . S
C2883 C2885 1.387 . S
H2884 C2891 0.950 . S
C2885 C2883 1.387 . S
C2885 C2887 1.390 . S
C2885 H2889 0.950 . S
H2886 C2882 0.950 . S
C2887 C2885 1.390 . S
C2887 C2888 1.387 . S
C2887 H2890 0.950 . S
C2888 C2887 1.387 . S
C2888 C2891 1.387 . S
H2889 C2885 0.950 . S
H2890 C2887 0.950 . S
C2891 C2882 1.390 . S
C2891 H2884 0.950 . S
C2891 C2888 1.387 . S
C2892 C2893 1.387 . S
C2892 H2896 0.950 . S
C2892 C2901 1.390 . S
C2893 C2892 1.387 . S
C2893 C2895 1.387 . S
H2894 C2901 0.950 . S
C2895 C2893 1.387 . S
C2895 C2897 1.390 . S
C2895 H2899 0.936 1_545 S
H2896 C2892 0.950 . S
C2897 C2895 1.390 . S
C2897 C2898 1.387 . S
C2897 H2900 0.950 1_556 S
C2898 C2897 1.387 . S
C2898 C2901 1.387 . S
H2899 C2895 0.936 1_565 S
H2900 C2897 0.950 1_554 S
C2901 C2892 1.390 . S
C2901 H2894 0.950 . S
C2901 C2898 1.387 . S
C2902 C2903 1.387 . S
C2902 H2906 0.950 . S
C2902 C2911 1.390 . S
C2903 C2902 1.387 . S
C2903 C2905 1.387 . S
H2904 C2911 0.950 . S
C2905 C2903 1.387 . S
C2905 C2907 1.390 . S
C2905 H2909 0.950 . S
H2906 C2902 0.950 . S
C2907 C2905 1.390 . S
C2907 C2908 1.387 . S
C2907 H2910 0.950 . S
C2908 C2907 1.387 . S
C2908 C2911 1.387 . S
H2909 C2905 0.950 . S
H2910 C2907 0.950 . S
C2911 C2902 1.390 . S
C2911 H2904 0.950 . S
C2911 C2908 1.387 . S
C2912 C2913 1.387 . S
C2912 H2916 0.950 . S
C2912 C2921 1.390 . S
C2913 C2912 1.387 . S
C2913 C2915 1.387 . S
H2914 C2921 0.950 . S
C2915 C2913 1.387 . S
C2915 C2917 1.390 . S
C2915 H2919 0.930 1_554 S
H2916 C2912 0.950 . S
C2917 C2915 1.390 . S
C2917 C2918 1.387 . S
C2917 H2920 0.950 . S
C2918 C2917 1.387 . S
C2918 C2921 1.387 . S
H2919 C2915 0.930 1_556 S
H2920 C2917 0.950 . S
C2921 C2912 1.390 . S
C2921 H2914 0.950 . S
C2921 C2918 1.387 . S
C2922 C2923 1.387 . S
C2922 H2926 0.950 1_554 S
C2922 C2931 1.390 . S
C2923 C2922 1.387 . S
C2923 C2925 1.387 . S
H2924 C2931 0.950 . S
C2925 C2923 1.387 . S
C2925 C2927 1.390 . S
C2925 H2929 0.950 . S
H2926 C2922 0.950 1_556 S
C2927 C2925 1.390 . S
C2927 C2928 1.387 . S
C2927 H2930 0.950 . S
C2928 C2927 1.387 . S
C2928 C2931 1.387 . S
H2929 C2925 0.950 . S
H2930 C2927 0.950 . S
C2931 C2922 1.390 . S
C2931 H2924 0.950 . S
C2931 C2928 1.387 . S
C2932 C2933 1.387 . S
C2932 H2936 0.950 . S
C2932 C2941 1.390 . S
C2933 C2932 1.387 . S
C2933 C2935 1.387 . S
H2934 C2941 0.950 . S
C2935 C2933 1.387 . S
C2935 C2937 1.390 . S
C2935 H2939 0.950 . S
H2936 C2932 0.950 . S
C2937 C2935 1.390 . S
C2937 C2938 1.387 . S
C2937 H2940 0.950 . S
C2938 C2937 1.387 . S
C2938 C2941 1.387 . S
H2939 C2935 0.950 . S
H2940 C2937 0.950 . S
C2941 C2932 1.390 . S
C2941 H2934 0.950 . S
C2941 C2938 1.387 . S
C2942 C2943 1.387 . S
C2942 H2946 0.950 . S
C2942 C2951 1.390 . S
C2943 C2942 1.387 . S
C2943 C2945 1.387 . S
H2944 C2951 0.950 . S
C2945 C2943 1.387 . S
C2945 C2947 1.390 . S
C2945 H2949 0.950 . S
H2946 C2942 0.950 . S
C2947 C2945 1.390 . S
C2947 C2948 1.387 . S
C2947 H2950 0.950 . S
C2948 C2947 1.387 . S
C2948 C2951 1.387 . S
H2949 C2945 0.950 . S
H2950 C2947 0.950 . S
C2951 C2942 1.390 . S
C2951 H2944 0.950 . S
C2951 C2948 1.387 . S
C2952 C2953 1.387 . S
C2952 H2956 0.950 . S
C2952 C2961 1.390 . S
C2953 C2952 1.387 . S
C2953 C2955 1.387 . S
H2954 C2961 0.950 . S
C2955 C2953 1.387 . S
C2955 C2957 1.390 . S
C2955 H2959 0.950 . S
H2956 C2952 0.950 . S
C2957 C2955 1.390 . S
C2957 C2958 1.387 . S
C2957 H2960 0.950 . S
C2958 C2957 1.387 . S
C2958 C2961 1.387 . S
H2959 C2955 0.950 . S
H2960 C2957 0.950 . S
C2961 C2952 1.390 . S
C2961 H2954 0.950 . S
C2961 C2958 1.387 . S
C2962 C2963 1.387 . S
C2962 H2966 0.950 . S
C2962 C2971 1.390 . S
C2963 C2962 1.387 . S
C2963 C2965 1.387 . S
H2964 C2971 0.950 . S
C2965 C2963 1.387 . S
C2965 C2967 1.390 . S
C2965 H2969 0.950 . S
H2966 C2962 0.950 . S
C2967 C2965 1.390 . S
C2967 C2968 1.387 . S
C2967 H2970 0.950 . S
C2968 C2967 1.387 . S
C2968 C2971 1.387 . S
H2969 C2965 0.950 . S
H2970 C2967 0.950 . S
C2971 C2962 1.390 . S
C2971 H2964 0.950 . S
C2971 C2968 1.387 . S
C2972 C2973 1.387 . S
C2972 H2976 0.950 . S
C2972 C2981 1.390 . S
C2973 C2972 1.387 . S
C2973 C2975 1.387 . S
H2974 C2981 0.950 . S
C2975 C2973 1.387 . S
C2975 C2977 1.390 . S
C2975 H2979 0.950 . S
H2976 C2972 0.950 . S
C2977 C2975 1.390 . S
C2977 C2978 1.387 . S
C2977 H2980 0.950 . S
C2978 C2977 1.387 . S
C2978 C2981 1.387 . S
H2979 C2975 0.950 . S
H2980 C2977 0.950 . S
C2981 C2972 1.390 . S
C2981 H2974 0.950 . S
C2981 C2978 1.387 . S
C2982 C2983 1.387 . S
C2982 H2986 0.950 . S
C2982 C2991 1.390 . S
C2983 C2982 1.387 . S
C2983 C2985 1.387 . S
H2984 C2991 0.950 . S
C2985 C2983 1.387 . S
C2985 C2987 1.390 . S
C2985 H2989 0.950 . S
H2986 C2982 0.950 . S
C2987 C2985 1.390 . S
C2987 C2988 1.387 . S
C2987 H2990 0.950 . S
C2988 C2987 1.387 . S
C2988 C2991 1.387 . S
H2989 C2985 0.950 . S
H2990 C2987 0.950 . S
C2991 C2982 1.390 . S
C2991 H2984 0.950 . S
C2991 C2988 1.387 . S
C2992 C2993 1.387 . S
C2992 H2996 0.950 . S
C2992 C3001 1.390 . S
C2993 C2992 1.387 . S
C2993 C2995 1.387 . S
H2994 C3001 0.950 . S
C2995 C2993 1.387 . S
C2995 C2997 1.390 . S
C2995 H2999 0.950 . S
H2996 C2992 0.950 . S
C2997 C2995 1.390 . S
C2997 C2998 1.387 . S
C2997 H3000 0.950 . S
C2998 C2997 1.387 . S
C2998 C3001 1.387 . S
H2999 C2995 0.950 . S
H3000 C2997 0.950 . S
C3001 C2992 1.390 . S
C3001 H2994 0.950 . S
C3001 C2998 1.387 . S
C3002 C3003 1.387 . S
C3002 H3006 0.950 . S
C3002 C3011 1.390 . S
C3003 C3002 1.387 . S
C3003 C3005 1.387 . S
H3004 C3011 0.950 . S
C3005 C3003 1.387 . S
C3005 C3007 1.390 . S
C3005 H3009 0.950 . S
H3006 C3002 0.950 . S
C3007 C3005 1.390 . S
C3007 C3008 1.387 . S
C3007 H3010 0.950 . S
C3008 C3007 1.387 . S
C3008 C3011 1.387 . S
H3009 C3005 0.950 . S
H3010 C3007 0.950 . S
C3011 C3002 1.390 . S
C3011 H3004 0.950 . S
C3011 C3008 1.387 . S
C3012 C3013 1.387 . S
C3012 H3016 0.950 . S
C3012 C3021 1.390 . S
C3013 C3012 1.387 . S
C3013 C3015 1.387 . S
H3014 C3021 0.950 . S
C3015 C3013 1.387 . S
C3015 C3017 1.390 . S
C3015 H3019 0.950 . S
H3016 C3012 0.950 . S
C3017 C3015 1.390 . S
C3017 C3018 1.387 . S
C3017 H3020 0.950 . S
C3018 C3017 1.387 . S
C3018 C3021 1.387 . S
H3019 C3015 0.950 . S
H3020 C3017 0.950 . S
C3021 C3012 1.390 . S
C3021 H3014 0.950 . S
C3021 C3018 1.387 . S
C3022 C3023 1.387 . S
C3022 H3026 0.950 . S
C3022 C3031 1.390 . S
C3023 C3022 1.387 . S
C3023 C3025 1.387 . S
H3024 C3031 0.950 . S
C3025 C3023 1.387 . S
C3025 C3027 1.390 . S
C3025 H3029 0.950 . S
H3026 C3022 0.950 . S
C3027 C3025 1.390 . S
C3027 C3028 1.387 . S
C3027 H3030 0.950 . S
C3028 C3027 1.387 . S
C3028 C3031 1.387 . S
H3029 C3025 0.950 . S
H3030 C3027 0.950 . S
C3031 C3022 1.390 . S
C3031 H3024 0.950 . S
C3031 C3028 1.387 . S
C3032 C3033 1.372 1_455 S
C3032 H3036 0.950 . S
C3032 C3041 1.390 . S
C3033 C3032 1.372 1_655 S
C3033 C3035 1.401 . S
H3034 C3041 0.950 . S
C3035 C3033 1.401 . S
C3035 C3037 1.390 . S
C3035 H3039 0.950 . S
H3036 C3032 0.950 . S
C3037 C3035 1.390 . S
C3037 C3038 1.387 . S
C3037 H3040 0.950 . S
C3038 C3037 1.387 . S
C3038 C3041 1.387 1_655 S
H3039 C3035 0.950 . S
H3040 C3037 0.950 . S
C3041 C3032 1.390 . S
C3041 H3034 0.950 . S
C3041 C3038 1.387 1_455 S
C3042 C3043 1.387 . S
C3042 H3046 0.950 . S
C3042 C3051 1.390 . S
C3043 C3042 1.387 . S
C3043 C3045 1.387 . S
H3044 C3051 0.950 . S
C3045 C3043 1.387 . S
C3045 C3047 1.390 . S
C3045 H3049 0.950 . S
H3046 C3042 0.950 . S
C3047 C3045 1.390 . S
C3047 C3048 1.387 . S
C3047 H3050 0.950 . S
C3048 C3047 1.387 . S
C3048 C3051 1.387 . S
H3049 C3045 0.950 . S
H3050 C3047 0.950 . S
C3051 C3042 1.390 . S
C3051 H3044 0.950 . S
C3051 C3048 1.387 . S
C3052 C3053 1.387 . S
C3052 H3056 0.950 . S
C3052 C3061 1.390 1_556 S
C3053 C3052 1.387 . S
C3053 C3055 1.387 . S
H3054 C3061 0.950 . S
C3055 C3053 1.387 . S
C3055 C3057 1.390 1_556 S
C3055 H3059 0.950 . S
H3056 C3052 0.950 . S
C3057 C3055 1.390 1_554 S
C3057 C3058 1.387 . S
C3057 H3060 0.950 . S
C3058 C3057 1.387 . S
C3058 C3061 1.387 . S
H3059 C3055 0.950 . S
H3060 C3057 0.950 . S
C3061 C3052 1.390 1_554 S
C3061 H3054 0.950 . S
C3061 C3058 1.387 . S
C3062 C3063 1.387 . S
C3062 H3066 0.950 . S
C3062 C3071 1.390 . S
C3063 C3062 1.387 . S
C3063 C3065 1.387 . S
H3064 C3071 0.950 . S
C3065 C3063 1.387 . S
C3065 C3067 1.390 . S
C3065 H3069 0.950 . S
H3066 C3062 0.950 . S
C3067 C3065 1.390 . S
C3067 C3068 1.387 . S
C3067 H3070 0.950 . S
C3068 C3067 1.387 . S
C3068 C3071 1.387 . S
H3069 C3065 0.950 . S
H3070 C3067 0.950 . S
C3071 C3062 1.390 . S
C3071 H3064 0.950 . S
C3071 C3068 1.387 . S
C3072 C3073 1.387 . S
C3072 H3076 0.950 1_545 S
C3072 C3081 1.390 . S
C3073 C3072 1.387 . S
C3073 C3075 1.387 . S
H3074 C3081 0.950 1_565 S
C3075 C3073 1.387 . S
C3075 C3077 1.390 . S
C3075 H3079 0.950 . S
H3076 C3072 0.950 1_565 S
C3077 C3075 1.390 . S
C3077 C3078 1.387 . S
C3077 H3080 0.950 . S
C3078 C3077 1.387 . S
C3078 C3081 1.387 . S
H3079 C3075 0.950 . S
H3080 C3077 0.950 . S
C3081 C3072 1.390 . S
C3081 H3074 0.950 1_545 S
C3081 C3078 1.387 . S
C3082 C3083 1.387 . S
C3082 H3086 0.950 . S
C3082 C3091 1.390 . S
C3083 C3082 1.387 . S
C3083 C3085 1.387 . S
H3084 C3091 0.950 . S
C3085 C3083 1.387 . S
C3085 C3087 1.390 . S
C3085 H3089 0.950 . S
H3086 C3082 0.950 . S
C3087 C3085 1.390 . S
C3087 C3088 1.387 . S
C3087 H3090 0.950 . S
C3088 C3087 1.387 . S
C3088 C3091 1.387 . S
H3089 C3085 0.950 . S
H3090 C3087 0.950 . S
C3091 C3082 1.390 . S
C3091 H3084 0.950 . S
C3091 C3088 1.387 . S
C3092 C3093 1.387 . S
C3092 H3096 0.950 . S
C3092 C3101 1.390 . S
C3093 C3092 1.387 . S
C3093 C3095 1.387 . S
H3094 C3101 0.950 . S
C3095 C3093 1.387 . S
C3095 C3097 1.390 . S
C3095 H3099 0.950 . S
H3096 C3092 0.950 . S
C3097 C3095 1.390 . S
C3097 C3098 1.387 . S
C3097 H3100 0.950 1_545 S
C3098 C3097 1.387 . S
C3098 C3101 1.387 . S
H3099 C3095 0.950 . S
H3100 C3097 0.950 1_565 S
C3101 C3092 1.390 . S
C3101 H3094 0.950 . S
C3101 C3098 1.387 . S
C3102 C3103 1.387 . S
C3102 H3106 0.950 . S
C3102 C3111 1.390 . S
C3103 C3102 1.387 . S
C3103 C3105 1.387 . S
H3104 C3111 0.950 . S
C3105 C3103 1.387 . S
C3105 C3107 1.390 . S
C3105 H3109 0.950 . S
H3106 C3102 0.950 . S
C3107 C3105 1.390 . S
C3107 C3108 1.387 . S
C3107 H3110 0.950 . S
C3108 C3107 1.387 . S
C3108 C3111 1.387 . S
H3109 C3105 0.950 . S
H3110 C3107 0.950 . S
C3111 C3102 1.390 . S
C3111 H3104 0.950 . S
C3111 C3108 1.387 . S
C3112 C3113 1.387 1_565 S
C3112 H3116 0.950 . S
C3112 C3121 1.398 . S
C3113 C3112 1.387 1_545 S
C3113 C3115 1.387 . S
H3114 C3121 0.980 . S
C3115 C3113 1.387 . S
C3115 C3117 1.390 . S
C3115 H3119 0.950 . S
H3116 C3112 0.950 . S
C3117 C3115 1.390 . S
C3117 C3118 1.387 . S
C3117 H3120 0.950 . S
C3118 C3117 1.387 . S
C3118 C3121 1.350 1_545 S
H3119 C3115 0.950 . S
H3120 C3117 0.950 . S
C3121 C3112 1.398 . S
C3121 H3114 0.980 . S
C3121 C3118 1.350 1_565 S
C3122 C3123 1.387 . S
C3122 H3126 0.950 . S
C3122 C3131 1.390 . S
C3123 C3122 1.387 . S
C3123 C3125 1.387 . S
H3124 C3131 0.950 . S
C3125 C3123 1.387 . S
C3125 C3127 1.390 . S
C3125 H3129 0.950 . S
H3126 C3122 0.950 . S
C3127 C3125 1.390 . S
C3127 C3128 1.387 . S
C3127 H3130 0.950 . S
C3128 C3127 1.387 . S
C3128 C3131 1.387 . S
H3129 C3125 0.950 . S
H3130 C3127 0.950 . S
C3131 C3122 1.390 . S
C3131 H3124 0.950 . S
C3131 C3128 1.387 . S
C3132 C3133 1.387 . S
C3132 H3136 0.950 . S
C3132 C3141 1.390 . S
C3133 C3132 1.387 . S
C3133 C3135 1.387 1_545 S
H3134 C3141 0.950 . S
C3135 C3133 1.387 1_565 S
C3135 C3137 1.390 . S
C3135 H3139 0.950 . S
H3136 C3132 0.950 . S
C3137 C3135 1.390 . S
C3137 C3138 1.387 1_565 S
C3137 H3140 0.950 . S
C3138 C3137 1.387 1_545 S
C3138 C3141 1.387 . S
H3139 C3135 0.950 . S
H3140 C3137 0.950 . S
C3141 C3132 1.390 . S
C3141 H3134 0.950 . S
C3141 C3138 1.387 . S
C3142 C3143 1.387 . S
C3142 H3146 0.950 . S
C3142 C3151 1.390 . S
C3143 C3142 1.387 . S
C3143 C3145 1.387 . S
H3144 C3151 0.950 . S
C3145 C3143 1.387 . S
C3145 C3147 1.390 . S
C3145 H3149 0.950 . S
H3146 C3142 0.950 . S
C3147 C3145 1.390 . S
C3147 C3148 1.387 . S
C3147 H3150 0.950 . S
C3148 C3147 1.387 . S
C3148 C3151 1.387 . S
H3149 C3145 0.950 . S
H3150 C3147 0.950 . S
C3151 C3142 1.390 . S
C3151 H3144 0.950 . S
C3151 C3148 1.387 . S
C3152 C3153 1.387 . S
C3152 H3156 0.950 . S
C3152 C3161 1.390 . S
C3153 C3152 1.387 . S
C3153 C3155 1.387 . S
H3154 C3161 0.950 . S
C3155 C3153 1.387 . S
C3155 C3157 1.390 . S
C3155 H3159 0.950 . S
H3156 C3152 0.950 . S
C3157 C3155 1.390 . S
C3157 C3158 1.387 . S
C3157 H3160 0.950 . S
C3158 C3157 1.387 . S
C3158 C3161 1.387 . S
H3159 C3155 0.950 . S
H3160 C3157 0.950 . S
C3161 C3152 1.390 . S
C3161 H3154 0.950 . S
C3161 C3158 1.387 . S
C3162 C3163 1.387 . S
C3162 H3166 0.950 . S
C3162 C3171 1.390 . S
C3163 C3162 1.387 . S
C3163 C3165 1.387 . S
H3164 C3171 0.950 . S
C3165 C3163 1.387 . S
C3165 C3167 1.390 . S
C3165 H3169 0.950 . S
H3166 C3162 0.950 . S
C3167 C3165 1.390 . S
C3167 C3168 1.387 . S
C3167 H3170 0.950 . S
C3168 C3167 1.387 . S
C3168 C3171 1.387 . S
H3169 C3165 0.950 . S
H3170 C3167 0.950 . S
C3171 C3162 1.390 . S
C3171 H3164 0.950 . S
C3171 C3168 1.387 . S
C3172 C3173 1.387 . S
C3172 H3176 0.950 . S
C3172 C3181 1.390 . S
C3173 C3172 1.387 . S
C3173 C3175 1.387 . S
H3174 C3181 0.950 . S
C3175 C3173 1.387 . S
C3175 C3177 1.390 . S
C3175 H3179 0.950 . S
H3176 C3172 0.950 . S
C3177 C3175 1.390 . S
C3177 C3178 1.387 . S
C3177 H3180 0.950 . S
C3178 C3177 1.387 . S
C3178 C3181 1.387 . S
H3179 C3175 0.950 . S
H3180 C3177 0.950 . S
C3181 C3172 1.390 . S
C3181 H3174 0.950 . S
C3181 C3178 1.387 . S
C3182 C3183 1.387 . S
C3182 H3186 0.950 . S
C3182 C3191 1.390 . S
C3183 C3182 1.387 . S
C3183 C3185 1.387 . S
H3184 C3191 0.950 . S
C3185 C3183 1.387 . S
C3185 C3187 1.390 . S
C3185 H3189 0.950 . S
H3186 C3182 0.950 . S
C3187 C3185 1.390 . S
C3187 C3188 1.387 . S
C3187 H3190 0.950 . S
C3188 C3187 1.387 . S
C3188 C3191 1.387 . S
H3189 C3185 0.950 . S
H3190 C3187 0.950 . S
C3191 C3182 1.390 . S
C3191 H3184 0.950 . S
C3191 C3188 1.387 . S
C3192 C3193 1.387 . S
C3192 H3196 0.950 . S
C3192 C3201 1.390 . S
C3193 C3192 1.387 . S
C3193 C3195 1.387 . S
H3194 C3201 0.950 . S
C3195 C3193 1.387 . S
C3195 C3197 1.390 . S
C3195 H3199 0.950 . S
H3196 C3192 0.950 . S
C3197 C3195 1.390 . S
C3197 C3198 1.387 . S
C3197 H3200 0.950 . S
C3198 C3197 1.387 . S
C3198 C3201 1.387 . S
H3199 C3195 0.950 . S
H3200 C3197 0.950 . S
C3201 C3192 1.390 . S
C3201 H3194 0.950 . S
C3201 C3198 1.387 . S
C3202 C3203 1.387 . S
C3202 H3206 0.950 . S
C3202 C3211 1.390 . S
C3203 C3202 1.387 . S
C3203 C3205 1.387 . S
H3204 C3211 0.950 . S
C3205 C3203 1.387 . S
C3205 C3207 1.390 . S
C3205 H3209 0.950 . S
H3206 C3202 0.950 . S
C3207 C3205 1.390 . S
C3207 C3208 1.387 . S
C3207 H3210 0.950 . S
C3208 C3207 1.387 . S
C3208 C3211 1.387 . S
H3209 C3205 0.950 . S
H3210 C3207 0.950 . S
C3211 C3202 1.390 . S
C3211 H3204 0.950 . S
C3211 C3208 1.387 . S
C3212 C3213 1.387 . S
C3212 H3216 0.950 . S
C3212 C3221 1.390 . S
C3213 C3212 1.387 . S
C3213 C3215 1.387 . S
H3214 C3221 0.950 . S
C3215 C3213 1.387 . S
C3215 C3217 1.390 . S
C3215 H3219 0.950 . S
H3216 C3212 0.950 . S
C3217 C3215 1.390 . S
C3217 C3218 1.387 . S
C3217 H3220 0.950 . S
C3218 C3217 1.387 . S
C3218 C3221 1.387 . S
H3219 C3215 0.950 . S
H3220 C3217 0.950 . S
C3221 C3212 1.390 . S
C3221 H3214 0.950 . S
C3221 C3218 1.387 . S
C3222 C3223 1.387 . S
C3222 H3226 0.950 . S
C3222 C3231 1.390 . S
C3223 C3222 1.387 . S
C3223 C3225 1.387 . S
H3224 C3231 0.950 . S
C3225 C3223 1.387 . S
C3225 C3227 1.390 . S
C3225 H3229 0.950 . S
H3226 C3222 0.950 . S
C3227 C3225 1.390 . S
C3227 C3228 1.387 . S
C3227 H3230 0.950 . S
C3228 C3227 1.387 . S
C3228 C3231 1.387 . S
H3229 C3225 0.950 . S
H3230 C3227 0.950 . S
C3231 C3222 1.390 . S
C3231 H3224 0.950 . S
C3231 C3228 1.387 . S
C3232 C3233 1.387 . S
C3232 H3236 0.950 . S
C3232 C3241 1.390 . S
C3233 C3232 1.387 . S
C3233 C3235 1.387 . S
H3234 C3241 0.950 . S
C3235 C3233 1.387 . S
C3235 C3237 1.390 . S
C3235 H3239 0.950 . S
H3236 C3232 0.950 . S
C3237 C3235 1.390 . S
C3237 C3238 1.387 . S
C3237 H3240 0.950 . S
C3238 C3237 1.387 . S
C3238 C3241 1.387 . S
H3239 C3235 0.950 . S
H3240 C3237 0.950 . S
C3241 C3232 1.390 . S
C3241 H3234 0.950 . S
C3241 C3238 1.387 . S
C3242 C3243 1.387 . S
C3242 H3246 0.950 . S
C3242 C3251 1.390 . S
C3243 C3242 1.387 . S
C3243 C3245 1.387 . S
H3244 C3251 0.950 . S
C3245 C3243 1.387 . S
C3245 C3247 1.390 . S
C3245 H3249 0.950 . S
H3246 C3242 0.950 . S
C3247 C3245 1.390 . S
C3247 C3248 1.387 . S
C3247 H3250 0.950 . S
C3248 C3247 1.387 . S
C3248 C3251 1.387 . S
H3249 C3245 0.950 . S
H3250 C3247 0.950 . S
C3251 C3242 1.390 . S
C3251 H3244 0.950 . S
C3251 C3248 1.387 . S
C3252 C3253 1.387 . S
C3252 H3256 0.950 . S
C3252 C3261 1.390 . S
C3253 C3252 1.387 . S
C3253 C3255 1.387 . S
H3254 C3261 0.950 1_556 S
C3255 C3253 1.387 . S
C3255 C3257 1.390 . S
C3255 H3259 0.950 . S
H3256 C3252 0.950 . S
C3257 C3255 1.390 . S
C3257 C3258 1.387 . S
C3257 H3260 0.950 . S
C3258 C3257 1.387 . S
C3258 C3261 1.387 . S
H3259 C3255 0.950 . S
H3260 C3257 0.950 . S
C3261 C3252 1.390 . S
C3261 H3254 0.950 1_554 S
C3261 C3258 1.387 . S
C3262 C3263 1.387 . S
C3262 H3266 0.950 . S
C3262 C3271 1.390 . S
C3263 C3262 1.387 . S
C3263 C3265 1.387 . S
H3264 C3271 0.950 . S
C3265 C3263 1.387 . S
C3265 C3267 1.390 . S
C3265 H3269 0.950 . S
H3266 C3262 0.950 . S
C3267 C3265 1.390 . S
C3267 C3268 1.387 . S
C3267 H3270 0.950 . S
C3268 C3267 1.387 . S
C3268 C3271 1.387 . S
H3269 C3265 0.950 . S
H3270 C3267 0.950 . S
C3271 C3262 1.390 . S
C3271 H3264 0.950 . S
C3271 C3268 1.387 . S
C3272 C3273 1.387 . S
C3272 H3276 0.950 . S
C3272 C3281 1.390 . S
C3273 C3272 1.387 . S
C3273 C3275 1.387 . S
H3274 C3281 0.950 . S
C3275 C3273 1.387 . S
C3275 C3277 1.390 . S
C3275 H3279 0.950 . S
H3276 C3272 0.950 . S
C3277 C3275 1.390 . S
C3277 C3278 1.387 . S
C3277 H3280 0.950 . S
C3278 C3277 1.387 . S
C3278 C3281 1.387 . S
H3279 C3275 0.950 . S
H3280 C3277 0.950 . S
C3281 C3272 1.390 . S
C3281 H3274 0.950 . S
C3281 C3278 1.387 . S
C3282 C3283 1.387 . S
C3282 H3286 0.950 . S
C3282 C3291 1.390 . S
C3283 C3282 1.387 . S
C3283 C3285 1.387 . S
H3284 C3291 0.950 . S
C3285 C3283 1.387 . S
C3285 C3287 1.390 . S
C3285 H3289 0.950 . S
H3286 C3282 0.950 . S
C3287 C3285 1.390 . S
C3287 C3288 1.387 . S
C3287 H3290 0.950 . S
C3288 C3287 1.387 . S
C3288 C3291 1.387 . S
H3289 C3285 0.950 . S
H3290 C3287 0.950 . S
C3291 C3282 1.390 . S
C3291 H3284 0.950 . S
C3291 C3288 1.387 . S
C3292 C3293 1.387 . S
C3292 H3296 0.950 . S
C3292 C3301 1.390 . S
C3293 C3292 1.387 . S
C3293 C3295 1.387 . S
H3294 C3301 0.950 . S
C3295 C3293 1.387 . S
C3295 C3297 1.390 . S
C3295 H3299 0.950 . S
H3296 C3292 0.950 . S
C3297 C3295 1.390 . S
C3297 C3298 1.387 . S
C3297 H3300 0.950 . S
C3298 C3297 1.387 . S
C3298 C3301 1.387 . S
H3299 C3295 0.950 . S
H3300 C3297 0.950 . S
C3301 C3292 1.390 . S
C3301 H3294 0.950 . S
C3301 C3298 1.387 . S
C3302 C3303 1.387 . S
C3302 H3306 0.950 . S
C3302 C3311 1.390 . S
C3303 C3302 1.387 . S
C3303 C3305 1.387 . S
H3304 C3311 0.950 . S
C3305 C3303 1.387 . S
C3305 C3307 1.390 . S
C3305 H3309 0.950 . S
H3306 C3302 0.950 . S
C3307 C3305 1.390 . S
C3307 C3308 1.387 . S
C3307 H3310 0.950 . S
C3308 C3307 1.387 . S
C3308 C3311 1.387 . S
H3309 C3305 0.950 . S
H3310 C3307 0.950 . S
C3311 C3302 1.390 . S
C3311 H3304 0.950 . S
C3311 C3308 1.387 . S
C3312 C3313 1.387 . S
C3312 H3316 0.950 . S
C3312 C3321 1.390 . S
C3313 C3312 1.387 . S
C3313 C3315 1.387 . S
H3314 C3321 0.950 . S
C3315 C3313 1.387 . S
C3315 C3317 1.390 . S
C3315 H3319 0.950 . S
H3316 C3312 0.950 . S
C3317 C3315 1.390 . S
C3317 C3318 1.387 . S
C3317 H3320 0.950 . S
C3318 C3317 1.387 . S
C3318 C3321 1.387 . S
H3319 C3315 0.950 . S
H3320 C3317 0.950 . S
C3321 C3312 1.390 . S
C3321 H3314 0.950 . S
C3321 C3318 1.387 . S
C3322 C3323 1.387 . S
C3322 H3326 0.950 . S
C3322 C3331 1.390 . S
C3323 C3322 1.387 . S
C3323 C3325 1.387 . S
H3324 C3331 0.950 . S
C3325 C3323 1.387 . S
C3325 C3327 1.390 . S
C3325 H3329 0.950 1_556 S
H3326 C3322 0.950 . S
C3327 C3325 1.390 . S
C3327 C3328 1.387 . S
C3327 H3330 0.950 . S
C3328 C3327 1.387 . S
C3328 C3331 1.387 . S
H3329 C3325 0.950 1_554 S
H3330 C3327 0.950 . S
C3331 C3322 1.390 . S
C3331 H3324 0.950 . S
C3331 C3328 1.387 . S
C3332 C3333 1.387 . S
C3332 H3336 0.950 . S
C3332 C3341 1.390 . S
C3333 C3332 1.387 . S
C3333 C3335 1.387 . S
H3334 C3341 0.950 . S
C3335 C3333 1.387 . S
C3335 C3337 1.390 . S
C3335 H3339 0.950 . S
H3336 C3332 0.950 . S
C3337 C3335 1.390 . S
C3337 C3338 1.387 . S
C3337 H3340 0.950 . S
C3338 C3337 1.387 . S
C3338 C3341 1.387 . S
H3339 C3335 0.950 . S
H3340 C3337 0.950 . S
C3341 C3332 1.390 . S
C3341 H3334 0.950 . S
C3341 C3338 1.387 . S
C3342 C3343 1.387 . S
C3342 H3346 0.950 . S
C3342 C3351 1.390 . S
C3343 C3342 1.387 . S
C3343 C3345 1.387 . S
H3344 C3351 0.950 . S
C3345 C3343 1.387 . S
C3345 C3347 1.390 . S
C3345 H3349 0.950 . S
H3346 C3342 0.950 . S
C3347 C3345 1.390 . S
C3347 C3348 1.387 . S
C3347 H3350 0.950 . S
C3348 C3347 1.387 . S
C3348 C3351 1.387 . S
H3349 C3345 0.950 . S
H3350 C3347 0.950 . S
C3351 C3342 1.390 . S
C3351 H3344 0.950 . S
C3351 C3348 1.387 . S
C3352 C3353 1.387 . S
C3352 H3356 0.950 . S
C3352 C3361 1.390 . S
C3353 C3352 1.387 . S
C3353 C3355 1.387 . S
H3354 C3361 0.950 . S
C3355 C3353 1.387 . S
C3355 C3357 1.390 . S
C3355 H3359 0.950 . S
H3356 C3352 0.950 . S
C3357 C3355 1.390 . S
C3357 C3358 1.387 . S
C3357 H3360 0.950 . S
C3358 C3357 1.387 . S
C3358 C3361 1.387 . S
H3359 C3355 0.950 . S
H3360 C3357 0.950 . S
C3361 C3352 1.390 . S
C3361 H3354 0.950 . S
C3361 C3358 1.387 . S
C3362 C3363 1.387 . S
C3362 H3366 0.950 . S
C3362 C3371 1.390 . S
C3363 C3362 1.387 . S
C3363 C3365 1.387 . S
H3364 C3371 0.950 . S
C3365 C3363 1.387 . S
C3365 C3367 1.390 . S
C3365 H3369 0.950 . S
H3366 C3362 0.950 . S
C3367 C3365 1.390 . S
C3367 C3368 1.387 . S
C3367 H3370 0.950 . S
C3368 C3367 1.387 . S
C3368 C3371 1.387 . S
H3369 C3365 0.950 . S
H3370 C3367 0.950 . S
C3371 C3362 1.390 . S
C3371 H3364 0.950 . S
C3371 C3368 1.387 . S
C3372 C3373 1.387 . S
C3372 H3376 0.950 . S
C3372 C3381 1.390 . S
C3373 C3372 1.387 . S
C3373 C3375 1.387 . S
H3374 C3381 0.950 . S
C3375 C3373 1.387 . S
C3375 C3377 1.390 . S
C3375 H3379 0.950 . S
H3376 C3372 0.950 . S
C3377 C3375 1.390 . S
C3377 C3378 1.387 . S
C3377 H3380 0.950 . S
C3378 C3377 1.387 . S
C3378 C3381 1.387 . S
H3379 C3375 0.950 . S
H3380 C3377 0.950 . S
C3381 C3372 1.390 . S
C3381 H3374 0.950 . S
C3381 C3378 1.387 . S
C3382 C3383 1.387 . S
C3382 H3386 0.950 . S
C3382 C3391 1.390 . S
C3383 C3382 1.387 . S
C3383 C3385 1.387 . S
H3384 C3391 0.950 . S
C3385 C3383 1.387 . S
C3385 C3387 1.390 . S
C3385 H3389 0.950 . S
H3386 C3382 0.950 . S
C3387 C3385 1.390 . S
C3387 C3388 1.387 . S
C3387 H3390 0.950 . S
C3388 C3387 1.387 . S
C3388 C3391 1.387 . S
H3389 C3385 0.950 . S
H3390 C3387 0.950 . S
C3391 C3382 1.390 . S
C3391 H3384 0.950 . S
C3391 C3388 1.387 . S
C3392 C3393 1.387 . S
C3392 H3396 0.950 . S
C3392 C3401 1.390 . S
C3393 C3392 1.387 . S
C3393 C3395 1.387 . S
H3394 C3401 0.950 . S
C3395 C3393 1.387 . S
C3395 C3397 1.390 . S
C3395 H3399 0.950 . S
H3396 C3392 0.950 . S
C3397 C3395 1.390 . S
C3397 C3398 1.387 . S
C3397 H3400 0.950 . S
C3398 C3397 1.387 . S
C3398 C3401 1.387 . S
H3399 C3395 0.950 . S
H3400 C3397 0.950 . S
C3401 C3392 1.390 . S
C3401 H3394 0.950 . S
C3401 C3398 1.387 . S
C3402 C3403 1.387 . S
C3402 H3406 0.950 . S
C3402 C3411 1.390 . S
C3403 C3402 1.387 . S
C3403 C3405 1.387 . S
H3404 C3411 0.950 . S
C3405 C3403 1.387 . S
C3405 C3407 1.390 . S
C3405 H3409 0.950 . S
H3406 C3402 0.950 . S
C3407 C3405 1.390 . S
C3407 C3408 1.387 . S
C3407 H3410 0.950 . S
C3408 C3407 1.387 . S
C3408 C3411 1.387 . S
H3409 C3405 0.950 . S
H3410 C3407 0.950 . S
C3411 C3402 1.390 . S
C3411 H3404 0.950 . S
C3411 C3408 1.387 . S
C3412 C3413 1.387 . S
C3412 H3416 0.950 . S
C3412 C3421 1.390 . S
C3413 C3412 1.387 . S
C3413 C3415 1.387 . S
H3414 C3421 0.950 . S
C3415 C3413 1.387 . S
C3415 C3417 1.390 . S
C3415 H3419 0.950 . S
H3416 C3412 0.950 . S
C3417 C3415 1.390 . S
C3417 C3418 1.387 . S
C3417 H3420 0.950 . S
C3418 C3417 1.387 . S
C3418 C3421 1.387 . S
H3419 C3415 0.950 . S
H3420 C3417 0.950 . S
C3421 C3412 1.390 . S
C3421 H3414 0.950 . S
C3421 C3418 1.387 . S
C3422 C3423 1.387 . S
C3422 H3426 0.950 . S
C3422 C3431 1.390 . S
C3423 C3422 1.387 . S
C3423 C3425 1.356 1_554 S
H3424 C3431 0.950 . S
C3425 C3423 1.356 1_556 S
C3425 C3427 1.393 1_556 S
C3425 H3429 0.979 . S
H3426 C3422 0.950 . S
C3427 C3425 1.393 1_554 S
C3427 C3428 1.387 . S
C3427 H3430 0.950 1_554 S
C3428 C3427 1.387 . S
C3428 C3431 1.387 . S
H3429 C3425 0.979 . S
H3430 C3427 0.950 1_556 S
C3431 C3422 1.390 . S
C3431 H3424 0.950 . S
C3431 C3428 1.387 . S
C3432 C3433 1.387 . S
C3432 H3436 0.950 . S
C3432 C3441 1.390 . S
C3433 C3432 1.387 . S
C3433 C3435 1.387 . S
H3434 C3441 0.950 . S
C3435 C3433 1.387 . S
C3435 C3437 1.390 . S
C3435 H3439 0.950 . S
H3436 C3432 0.950 . S
C3437 C3435 1.390 . S
C3437 C3438 1.387 . S
C3437 H3440 0.950 . S
C3438 C3437 1.387 . S
C3438 C3441 1.387 . S
H3439 C3435 0.950 . S
H3440 C3437 0.950 . S
C3441 C3432 1.390 . S
C3441 H3434 0.950 . S
C3441 C3438 1.387 . S
C3442 C3443 1.387 . S
C3442 H3446 0.950 . S
C3442 C3451 1.390 . S
C3443 C3442 1.387 . S
C3443 C3445 1.387 . S
H3444 C3451 0.950 . S
C3445 C3443 1.387 . S
C3445 C3447 1.390 . S
C3445 H3449 0.950 . S
H3446 C3442 0.950 . S
C3447 C3445 1.390 . S
C3447 C3448 1.387 . S
C3447 H3450 0.950 . S
C3448 C3447 1.387 . S
C3448 C3451 1.387 . S
H3449 C3445 0.950 . S
H3450 C3447 0.950 . S
C3451 C3442 1.390 . S
C3451 H3444 0.950 . S
C3451 C3448 1.387 . S
C3452 C3453 1.387 . S
C3452 H3456 0.950 . S
C3452 C3461 1.390 . S
C3453 C3452 1.387 . S
C3453 C3455 1.387 . S
H3454 C3461 0.950 . S
C3455 C3453 1.387 . S
C3455 C3457 1.390 . S
C3455 H3459 0.950 . S
H3456 C3452 0.950 . S
C3457 C3455 1.390 . S
C3457 C3458 1.387 . S
C3457 H3460 0.950 . S
C3458 C3457 1.387 . S
C3458 C3461 1.387 . S
H3459 C3455 0.950 . S
H3460 C3457 0.950 . S
C3461 C3452 1.390 . S
C3461 H3454 0.950 . S
C3461 C3458 1.387 . S
C3462 C3463 1.387 . S
C3462 H3466 0.950 . S
C3462 C3471 1.390 . S
C3463 C3462 1.387 . S
C3463 C3465 1.387 . S
H3464 C3471 0.950 . S
C3465 C3463 1.387 . S
C3465 C3467 1.390 . S
C3465 H3469 0.950 . S
H3466 C3462 0.950 . S
C3467 C3465 1.390 . S
C3467 C3468 1.387 . S
C3467 H3470 0.950 . S
C3468 C3467 1.387 . S
C3468 C3471 1.387 . S
H3469 C3465 0.950 . S
H3470 C3467 0.950 . S
C3471 C3462 1.390 . S
C3471 H3464 0.950 . S
C3471 C3468 1.387 . S
C3472 C3473 1.387 . S
C3472 H3476 0.950 . S
C3472 C3481 1.390 . S
C3473 C3472 1.387 . S
C3473 C3475 1.387 . S
H3474 C3481 0.950 . S
C3475 C3473 1.387 . S
C3475 C3477 1.390 . S
C3475 H3479 0.950 . S
H3476 C3472 0.950 . S
C3477 C3475 1.390 . S
C3477 C3478 1.387 . S
C3477 H3480 0.950 . S
C3478 C3477 1.387 . S
C3478 C3481 1.387 . S
H3479 C3475 0.950 . S
H3480 C3477 0.950 . S
C3481 C3472 1.390 . S
C3481 H3474 0.950 . S
C3481 C3478 1.387 . S
C3482 C3483 1.387 . S
C3482 H3486 0.950 . S
C3482 C3491 1.390 . S
C3483 C3482 1.387 . S
C3483 C3485 1.387 . S
H3484 C3491 0.950 . S
C3485 C3483 1.387 . S
C3485 C3487 1.390 . S
C3485 H3489 0.950 . S
H3486 C3482 0.950 . S
C3487 C3485 1.390 . S
C3487 C3488 1.387 . S
C3487 H3490 0.950 . S
C3488 C3487 1.387 . S
C3488 C3491 1.387 . S
H3489 C3485 0.950 . S
H3490 C3487 0.950 . S
C3491 C3482 1.390 . S
C3491 H3484 0.950 . S
C3491 C3488 1.387 . S
C3492 C3493 1.387 . S
C3492 H3496 0.950 . S
C3492 C3501 1.390 . S
C3493 C3492 1.387 . S
C3493 C3495 1.387 . S
H3494 C3501 0.950 . S
C3495 C3493 1.387 . S
C3495 C3497 1.390 . S
C3495 H3499 0.950 . S
H3496 C3492 0.950 . S
C3497 C3495 1.390 . S
C3497 C3498 1.387 . S
C3497 H3500 0.950 . S
C3498 C3497 1.387 . S
C3498 C3501 1.387 . S
H3499 C3495 0.950 . S
H3500 C3497 0.950 . S
C3501 C3492 1.390 . S
C3501 H3494 0.950 . S
C3501 C3498 1.387 . S
C3502 C3503 1.387 . S
C3502 H3506 0.950 . S
C3502 C3511 1.390 . S
C3503 C3502 1.387 . S
C3503 C3505 1.387 . S
H3504 C3511 0.950 . S
C3505 C3503 1.387 . S
C3505 C3507 1.390 . S
C3505 H3509 0.950 . S
H3506 C3502 0.950 . S
C3507 C3505 1.390 . S
C3507 C3508 1.387 . S
C3507 H3510 0.950 . S
C3508 C3507 1.387 . S
C3508 C3511 1.387 . S
H3509 C3505 0.950 . S
H3510 C3507 0.950 . S
C3511 C3502 1.390 . S
C3511 H3504 0.950 . S
C3511 C3508 1.387 . S
C3512 C3513 1.387 . S
C3512 H3516 0.950 . S
C3512 C3521 1.390 . S
C3513 C3512 1.387 . S
C3513 C3515 1.387 . S
H3514 C3521 0.950 1_554 S
C3515 C3513 1.387 . S
C3515 C3517 1.390 . S
C3515 H3519 0.950 . S
H3516 C3512 0.950 . S
C3517 C3515 1.390 . S
C3517 C3518 1.387 . S
C3517 H3520 0.950 . S
C3518 C3517 1.387 . S
C3518 C3521 1.387 . S
H3519 C3515 0.950 . S
H3520 C3517 0.950 . S
C3521 C3512 1.390 . S
C3521 H3514 0.950 1_556 S
C3521 C3518 1.387 . S
C3522 C3523 1.387 . S
C3522 H3526 0.950 . S
C3522 C3531 1.390 . S
C3523 C3522 1.387 . S
C3523 C3525 1.387 . S
H3524 C3531 0.950 . S
C3525 C3523 1.387 . S
C3525 C3527 1.390 . S
C3525 H3529 0.950 . S
H3526 C3522 0.950 . S
C3527 C3525 1.390 . S
C3527 C3528 1.387 . S
C3527 H3530 0.950 . S
C3528 C3527 1.387 . S
C3528 C3531 1.387 . S
H3529 C3525 0.950 . S
H3530 C3527 0.950 . S
C3531 C3522 1.390 . S
C3531 H3524 0.950 . S
C3531 C3528 1.387 . S
C3532 C3533 1.387 . S
C3532 H3536 0.950 . S
C3532 C3541 1.390 . S
C3533 C3532 1.387 . S
C3533 C3535 1.387 . S
H3534 C3541 0.950 . S
C3535 C3533 1.387 . S
C3535 C3537 1.390 . S
C3535 H3539 0.950 1_455 S
H3536 C3532 0.950 . S
C3537 C3535 1.390 . S
C3537 C3538 1.387 . S
C3537 H3540 0.950 1_455 S
C3538 C3537 1.387 . S
C3538 C3541 1.387 . S
H3539 C3535 0.950 1_655 S
H3540 C3537 0.950 1_655 S
C3541 C3532 1.390 . S
C3541 H3534 0.950 . S
C3541 C3538 1.387 . S
C3542 C3543 1.387 . S
C3542 H3546 0.950 . S
C3542 C3551 1.390 . S
C3543 C3542 1.387 . S
C3543 C3545 1.387 . S
H3544 C3551 0.950 . S
C3545 C3543 1.387 . S
C3545 C3547 1.390 . S
C3545 H3549 0.950 . S
H3546 C3542 0.950 . S
C3547 C3545 1.390 . S
C3547 C3548 1.387 . S
C3547 H3550 0.950 . S
C3548 C3547 1.387 . S
C3548 C3551 1.387 . S
H3549 C3545 0.950 . S
H3550 C3547 0.950 . S
C3551 C3542 1.390 . S
C3551 H3544 0.950 . S
C3551 C3548 1.387 . S
C3552 C3553 1.387 . S
C3552 H3556 0.950 . S
C3552 C3561 1.390 . S
C3553 C3552 1.387 . S
C3553 C3555 1.387 . S
H3554 C3561 0.950 . S
C3555 C3553 1.387 . S
C3555 C3557 1.390 . S
C3555 H3559 0.950 . S
H3556 C3552 0.950 . S
C3557 C3555 1.390 . S
C3557 C3558 1.387 . S
C3557 H3560 0.950 . S
C3558 C3557 1.387 . S
C3558 C3561 1.387 . S
H3559 C3555 0.950 . S
H3560 C3557 0.950 . S
C3561 C3552 1.390 . S
C3561 H3554 0.950 . S
C3561 C3558 1.387 . S
C3562 C3563 1.387 . S
C3562 H3566 0.950 . S
C3562 C3571 1.390 . S
C3563 C3562 1.387 . S
C3563 C3565 1.387 . S
H3564 C3571 0.950 . S
C3565 C3563 1.387 . S
C3565 C3567 1.390 . S
C3565 H3569 0.950 . S
H3566 C3562 0.950 . S
C3567 C3565 1.390 . S
C3567 C3568 1.387 . S
C3567 H3570 0.950 . S
C3568 C3567 1.387 . S
C3568 C3571 1.387 . S
H3569 C3565 0.950 . S
H3570 C3567 0.950 . S
C3571 C3562 1.390 . S
C3571 H3564 0.950 . S
C3571 C3568 1.387 . S
C3572 C3573 1.387 . S
C3572 H3576 0.950 . S
C3572 C3581 1.390 . S
C3573 C3572 1.387 . S
C3573 C3575 1.387 1_655 S
H3574 C3581 0.950 . S
C3575 C3573 1.387 1_455 S
C3575 C3577 1.390 . S
C3575 H3579 0.950 . S
H3576 C3572 0.950 . S
C3577 C3575 1.390 . S
C3577 C3578 1.387 . S
C3577 H3580 0.950 . S
C3578 C3577 1.387 . S
C3578 C3581 1.387 1_455 S
H3579 C3575 0.950 . S
H3580 C3577 0.950 . S
C3581 C3572 1.390 . S
C3581 H3574 0.950 . S
C3581 C3578 1.387 1_655 S
C3582 C3583 1.387 . S
C3582 H3586 0.950 . S
C3582 C3591 1.390 . S
C3583 C3582 1.387 . S
C3583 C3585 1.387 . S
H3584 C3591 0.950 . S
C3585 C3583 1.387 . S
C3585 C3587 1.390 . S
C3585 H3589 0.950 . S
H3586 C3582 0.950 . S
C3587 C3585 1.390 . S
C3587 C3588 1.387 . S
C3587 H3590 0.950 . S
C3588 C3587 1.387 . S
C3588 C3591 1.387 . S
H3589 C3585 0.950 . S
H3590 C3587 0.950 . S
C3591 C3582 1.390 . S
C3591 H3584 0.950 . S
C3591 C3588 1.387 . S
C3592 C3593 1.387 . S
C3592 H3596 0.950 . S
C3592 C3601 1.390 . S
C3593 C3592 1.387 . S
C3593 C3595 1.387 . S
H3594 C3601 0.950 . S
C3595 C3593 1.387 . S
C3595 C3597 1.390 . S
C3595 H3599 0.950 . S
H3596 C3592 0.950 . S
C3597 C3595 1.390 . S
C3597 C3598 1.387 . S
C3597 H3600 0.950 . S
C3598 C3597 1.387 . S
C3598 C3601 1.387 . S
H3599 C3595 0.950 . S
H3600 C3597 0.950 . S
C3601 C3592 1.390 . S
C3601 H3594 0.950 . S
C3601 C3598 1.387 . S
C3602 C3603 1.387 . S
C3602 H3606 0.950 . S
C3602 C3611 1.390 . S
C3603 C3602 1.387 . S
C3603 C3605 1.387 . S
H3604 C3611 0.950 . S
C3605 C3603 1.387 . S
C3605 C3607 1.390 . S
C3605 H3609 0.950 . S
H3606 C3602 0.950 . S
C3607 C3605 1.390 . S
C3607 C3608 1.387 . S
C3607 H3610 0.950 . S
C3608 C3607 1.387 . S
C3608 C3611 1.387 . S
H3609 C3605 0.950 . S
H3610 C3607 0.950 . S
C3611 C3602 1.390 . S
C3611 H3604 0.950 . S
C3611 C3608 1.387 . S
C3612 C3613 1.387 . S
C3612 H3616 0.950 . S
C3612 C3621 1.390 . S
C3613 C3612 1.387 . S
C3613 C3615 1.387 . S
H3614 C3621 0.950 1_455 S
C3615 C3613 1.387 . S
C3615 C3617 1.390 . S
C3615 H3619 0.950 . S
H3616 C3612 0.950 . S
C3617 C3615 1.390 . S
C3617 C3618 1.387 . S
C3617 H3620 0.950 . S
C3618 C3617 1.387 . S
C3618 C3621 1.387 . S
H3619 C3615 0.950 . S
H3620 C3617 0.950 . S
C3621 C3612 1.390 . S
C3621 H3614 0.950 1_655 S
C3621 C3618 1.387 . S
C3622 C3623 1.387 . S
C3622 H3626 0.950 . S
C3622 C3631 1.390 . S
C3623 C3622 1.387 . S
C3623 C3625 1.387 . S
H3624 C3631 0.950 . S
C3625 C3623 1.387 . S
C3625 C3627 1.390 . S
C3625 H3629 0.950 . S
H3626 C3622 0.950 . S
C3627 C3625 1.390 . S
C3627 C3628 1.387 . S
C3627 H3630 0.950 . S
C3628 C3627 1.387 . S
C3628 C3631 1.387 . S
H3629 C3625 0.950 . S
H3630 C3627 0.950 . S
C3631 C3622 1.390 . S
C3631 H3624 0.950 . S
C3631 C3628 1.387 . S
C3632 C3633 1.387 . S
C3632 H3636 0.950 . S
C3632 C3641 1.390 . S
C3633 C3632 1.387 . S
C3633 C3635 1.387 . S
H3634 C3641 0.950 . S
C3635 C3633 1.387 . S
C3635 C3637 1.390 . S
C3635 H3639 0.950 . S
H3636 C3632 0.950 . S
C3637 C3635 1.390 . S
C3637 C3638 1.387 . S
C3637 H3640 0.950 . S
C3638 C3637 1.387 . S
C3638 C3641 1.387 . S
H3639 C3635 0.950 . S
H3640 C3637 0.950 . S
C3641 C3632 1.390 . S
C3641 H3634 0.950 . S
C3641 C3638 1.387 . S
C3642 C3643 1.387 . S
C3642 H3646 0.950 . S
C3642 C3651 1.390 . S
C3643 C3642 1.387 . S
C3643 C3645 1.387 . S
H3644 C3651 0.950 . S
C3645 C3643 1.387 . S
C3645 C3647 1.390 . S
C3645 H3649 0.950 . S
H3646 C3642 0.950 . S
C3647 C3645 1.390 . S
C3647 C3648 1.387 . S
C3647 H3650 0.950 1_565 S
C3648 C3647 1.387 . S
C3648 C3651 1.387 . S
H3649 C3645 0.950 . S
H3650 C3647 0.950 1_545 S
C3651 C3642 1.390 . S
C3651 H3644 0.950 . S
C3651 C3648 1.387 . S
C3652 C3653 1.387 . S
C3652 H3656 0.950 . S
C3652 C3661 1.390 . S
C3653 C3652 1.387 . S
C3653 C3655 1.387 . S
H3654 C3661 0.950 . S
C3655 C3653 1.387 . S
C3655 C3657 1.390 . S
C3655 H3659 0.950 . S
H3656 C3652 0.950 . S
C3657 C3655 1.390 . S
C3657 C3658 1.387 . S
C3657 H3660 0.950 . S
C3658 C3657 1.387 . S
C3658 C3661 1.387 . S
H3659 C3655 0.950 . S
H3660 C3657 0.950 . S
C3661 C3652 1.390 . S
C3661 H3654 0.950 . S
C3661 C3658 1.387 . S
C3662 C3663 1.387 . S
C3662 H3666 0.950 . S
C3662 C3671 1.390 . S
C3663 C3662 1.387 . S
C3663 C3665 1.387 . S
H3664 C3671 0.950 . S
C3665 C3663 1.387 . S
C3665 C3667 1.390 . S
C3665 H3669 0.950 . S
H3666 C3662 0.950 . S
C3667 C3665 1.390 . S
C3667 C3668 1.387 . S
C3667 H3670 0.950 . S
C3668 C3667 1.387 . S
C3668 C3671 1.387 . S
H3669 C3665 0.950 . S
H3670 C3667 0.950 . S
C3671 C3662 1.390 . S
C3671 H3664 0.950 . S
C3671 C3668 1.387 . S
C3672 C3673 1.387 . S
C3672 H3676 0.950 . S
C3672 C3681 1.390 . S
C3673 C3672 1.387 . S
C3673 C3675 1.387 . S
H3674 C3681 0.950 . S
C3675 C3673 1.387 . S
C3675 C3677 1.390 . S
C3675 H3679 0.950 . S
H3676 C3672 0.950 . S
C3677 C3675 1.390 . S
C3677 C3678 1.387 . S
C3677 H3680 0.950 . S
C3678 C3677 1.387 . S
C3678 C3681 1.387 . S
H3679 C3675 0.950 . S
H3680 C3677 0.950 . S
C3681 C3672 1.390 . S
C3681 H3674 0.950 . S
C3681 C3678 1.387 . S
C3682 C3683 1.387 . S
C3682 H3686 0.950 . S
C3682 C3691 1.390 . S
C3683 C3682 1.387 . S
C3683 C3685 1.387 . S
H3684 C3691 0.950 1_556 S
C3685 C3683 1.387 . S
C3685 C3687 1.390 . S
C3685 H3689 0.950 . S
H3686 C3682 0.950 . S
C3687 C3685 1.390 . S
C3687 C3688 1.387 . S
C3687 H3690 0.950 . S
C3688 C3687 1.387 . S
C3688 C3691 1.387 . S
H3689 C3685 0.950 . S
H3690 C3687 0.950 . S
C3691 C3682 1.390 . S
C3691 H3684 0.950 1_554 S
C3691 C3688 1.387 . S
C3692 C3693 1.387 . S
C3692 H3696 0.950 . S
C3692 C3701 1.390 . S
C3693 C3692 1.387 . S
C3693 C3695 1.387 . S
H3694 C3701 0.950 . S
C3695 C3693 1.387 . S
C3695 C3697 1.390 . S
C3695 H3699 0.950 . S
H3696 C3692 0.950 . S
C3697 C3695 1.390 . S
C3697 C3698 1.387 . S
C3697 H3700 0.950 . S
C3698 C3697 1.387 . S
C3698 C3701 1.387 . S
H3699 C3695 0.950 . S
H3700 C3697 0.950 . S
C3701 C3692 1.390 . S
C3701 H3694 0.950 . S
C3701 C3698 1.387 . S
C3702 C3703 1.387 . S
C3702 H3706 0.950 . S
C3702 C3711 1.390 . S
C3703 C3702 1.387 . S
C3703 C3705 1.387 . S
H3704 C3711 0.950 . S
C3705 C3703 1.387 . S
C3705 C3707 1.390 . S
C3705 H3709 0.950 . S
H3706 C3702 0.950 . S
C3707 C3705 1.390 . S
C3707 C3708 1.387 . S
C3707 H3710 0.950 . S
C3708 C3707 1.387 . S
C3708 C3711 1.387 . S
H3709 C3705 0.950 . S
H3710 C3707 0.950 . S
C3711 C3702 1.390 . S
C3711 H3704 0.950 . S
C3711 C3708 1.387 . S
C2753 C665 2.322 . S
C2758 C2122 2.326 . S
C2763 C381 2.036 . S
C2768 C2170 2.015 . S
C2773 C460 1.496 . S
C2778 C2202 1.595 . S
C2788 C2247 1.612 . S
C2783 C585 1.671 . S
C2793 C108 0.963 . S
C2798 C2287 0.959 . S
C2808 C2322 1.236 . S
C2803 C196 1.152 . S
C2818 C2361 1.105 . S
C2813 C313 1.113 . S
C2823 C49 1.260 . S
C2828 C2398 1.297 . S
C2838 C2130 2.050 . S
C2833 C1457 2.072 1_455 S
C2843 C1545 0.980 . S
C2848 C2167 0.980 . S
C2858 C2210 2.421 . S
C2853 C1721 2.457 . S
C2868 C2242 1.380 . S
C2863 C1113 1.302 . S
C2873 C1428 1.424 . S
C2878 C2282 1.497 . S
C2888 C2330 0.943 . S
C2883 C1516 0.929 . S
C2898 C2371 1.935 1_556 S
C2893 C1692 2.049 . S
C2908 C2401 2.073 . S
C2903 C1085 2.067 . S
C2918 C2127 1.658 . S
C2913 C988 1.709 1_554 S
C2923 C1817 2.151 . S
C2928 C2450 2.109 . S
C2938 C2487 1.206 . S
C2933 C2081 1.224 . S
C2948 C2518 0.709 . S
C2943 C1993 0.696 . S
C2953 C761 2.763 . S
C2958 C2411 2.719 . S
C2963 C821 1.432 . S
C2968 C2207 1.402 . S
C2973 C2053 1.746 . S
C2978 C2570 1.751 . S
C2988 C2602 2.021 . S
C2983 C1868 1.934 . S
C2998 C2131 2.323 . S
C2993 C372 2.323 . S
C3008 C2601 2.013 . S
C3003 C645 2.028 . S
C3013 C577 1.494 . S
C3018 C2211 1.590 . S
C3023 C497 1.674 . S
C3028 C2558 1.611 . S
C3038 C2278 0.953 1_655 S
C3033 C57 0.959 1_655 S
C3043 C293 1.146 . S
C3048 C2491 1.228 . S
C3058 C2370 1.105 . S
C3053 C205 1.114 . S
C3068 C2647 1.295 . S
C3063 C145 1.262 . S
C3078 C2121 2.038 1_556 S
C3073 C909 2.065 . S
C3088 C2598 0.978 . S
C3083 C1956 0.987 . S
C3093 C724 2.451 . S
C3098 C2201 2.420 . S
C3103 C1780 1.297 . S
C3108 C2571 1.373 . S
C3113 C937 1.420 . S
C3118 C2291 1.489 . S
C3128 C2481 0.940 . S
C3123 C1985 0.918 . S
C3133 C753 2.049 . S
C3138 C2362 1.932 . S
C3143 C1809 2.067 . S
C3148 C2650 2.071 . S
C3153 C1173 1.725 . S
C3158 C2118 1.659 . S
C3163 C1105 2.144 . S
C3168 C2441 2.107 . S
C3173 C1633 1.227 . S
C3178 C2318 1.206 . S
C3183 C1553 0.708 . S
C3188 C2527 0.722 . S
C3198 C2642 2.717 . S
C3193 C1729 2.761 . S
C3203 C1340 1.432 . S
C3208 C2198 1.399 . S
C3218 C2241 1.750 . S
C3213 C1604 1.738 . S
C3228 C2171 2.015 . S
C3223 C1252 1.935 . S
C3233 C489 2.320 . S
C3238 C2682 2.326 . S
C3248 C2610 2.015 . S
C3243 C557 2.037 . S
C3253 C636 1.498 . S
C3258 C2722 1.595 . S
C3263 C409 1.671 . S
C3268 C2567 1.612 . S
C3273 C284 0.962 . S
C3278 C2447 0.960 . S
C3288 C2482 1.238 . S
C3283 C20 1.157 . S
C3298 C2521 1.104 . S
C3293 C137 1.112 . S
C3308 C2638 1.299 . S
C3303 C225 1.263 . S
C3318 C2690 2.050 . S
C3313 C1641 2.063 . S
C3323 C1193 0.986 1_556 S
C3328 C2607 0.987 . S
C3338 C2730 2.420 . S
C3333 C1289 2.456 . S
C3348 C2562 1.380 . S
C3343 C1377 1.300 . S
C3358 C2442 1.496 . S
C3353 C1613 1.427 . S
C3363 C1164 0.934 . S
C3368 C2490 0.948 . S
C3378 C2531 1.936 . S
C3373 C1261 2.049 . S
C3383 C1349 2.066 . S
C3388 C2641 2.073 . S
C3398 C2687 1.657 . S
C3393 C1965 1.711 . S
C3403 C849 2.152 . S
C3408 C2290 2.109 . S
C3418 C2327 1.205 . S
C3413 C929 1.223 . S
C3428 C2358 0.709 . S
C3423 C1017 0.696 . S
C3438 C2651 2.719 . S
C3433 C1897 2.764 . S
C3443 C1789 1.432 . S
C3448 C2727 1.402 . S
C3458 C2250 1.751 . S
C3453 C900 1.746 . S
C3468 C2162 2.021 . S
C3463 C733 1.935 . S
C3473 C548 2.324 . S
C3478 C2691 2.324 . S
C3488 C2161 2.012 . S
C3483 C469 2.028 . S
C3493 C401 1.493 . S
C3498 C2731 1.590 . S
C3503 C673 1.672 . S
C3508 C2238 1.608 . S
C3513 C233 0.959 . S
C3518 C2438 0.956 . S
C3528 C2331 1.228 . S
C3523 C117 1.146 . S
C3533 C29 1.112 . S
C3538 C2530 1.105 . S
C3543 C321 1.264 . S
C3548 C2407 1.295 . S
C3558 C2681 2.048 . S
C3553 C2044 2.064 . S
C3563 C997 0.985 . S
C3568 C2158 0.971 . S
C3578 C2721 2.419 1_556 S
C3573 C1877 2.450 . S
C3583 C812 1.298 . S
C3588 C2251 1.373 . S
C3593 C2073 1.423 . S
C3598 C2451 1.490 . S
C3608 C2321 0.943 . S
C3603 C1025 0.925 . S
C3613 C1905 2.049 . S
C3618 C2522 1.932 1_655 S
C3628 C2410 2.071 . S
C3623 C841 2.067 . S
C3638 C2678 1.658 . S
C3633 C1525 1.724 . S
C3648 C2281 2.107 1_565 S
C3643 C1369 2.145 . S
C3653 C1465 1.226 . S
C3658 C2478 1.200 . S
C3668 C2367 0.712 . S
C3663 C1201 0.700 . S
C3673 C1281 2.760 . S
C3678 C2402 2.716 . S
C3683 C1076 1.432 . S
C3688 C2718 1.398 . S
C3698 C2561 1.751 . S
C3693 C1437 1.744 . S
C3708 C2611 2.014 . S
C3703 C1701 1.934 . S
