# Generated by pormake.
# Topology iac, (4,6)-cn, num edge types: 1
# Building blocks:
#     Node 0, Type 0, BuildingBlock: GALJAG_clean_sbu_0, # of connection points: 4
#     Node 1, Type 0, BuildingBlock: GALJAG_clean_sbu_0, # of connection points: 4
#     Node 2, Type 0, BuildingBlock: GALJAG_clean_sbu_0, # of connection points: 4
#     Node 3, Type 0, BuildingBlock: GALJAG_clean_sbu_0, # of connection points: 4
#     Node 4, Type 0, BuildingBlock: GALJAG_clean_sbu_0, # of connection points: 4
#     Node 5, Type 0, BuildingBlock: GALJAG_clean_sbu_0, # of connection points: 4
#     Node 6, Type 0, BuildingBlock: GALJAG_clean_sbu_0, # of connection points: 4
#     Node 7, Type 0, BuildingBlock: GALJAG_clean_sbu_0, # of connection points: 4
#     Node 8, Type 0, BuildingBlock: GALJAG_clean_sbu_0, # of connection points: 4
#     Node 9, Type 0, BuildingBlock: GALJAG_clean_sbu_0, # of connection points: 4
#     Node 10, Type 0, BuildingBlock: GALJAG_clean_sbu_0, # of connection points: 4
#     Node 11, Type 0, BuildingBlock: GALJAG_clean_sbu_0, # of connection points: 4
#     Node 12, Type 0, BuildingBlock: GALJAG_clean_sbu_0, # of connection points: 4
#     Node 13, Type 0, BuildingBlock: GALJAG_clean_sbu_0, # of connection points: 4
#     Node 14, Type 0, BuildingBlock: GALJAG_clean_sbu_0, # of connection points: 4
#     Node 15, Type 0, BuildingBlock: GALJAG_clean_sbu_0, # of connection points: 4
#     Node 16, Type 0, BuildingBlock: GALJAG_clean_sbu_0, # of connection points: 4
#     Node 17, Type 0, BuildingBlock: GALJAG_clean_sbu_0, # of connection points: 4
#     Node 18, Type 0, BuildingBlock: GALJAG_clean_sbu_0, # of connection points: 4
#     Node 19, Type 0, BuildingBlock: GALJAG_clean_sbu_0, # of connection points: 4
#     Node 20, Type 0, BuildingBlock: GALJAG_clean_sbu_0, # of connection points: 4
#     Node 21, Type 0, BuildingBlock: GALJAG_clean_sbu_0, # of connection points: 4
#     Node 22, Type 0, BuildingBlock: GALJAG_clean_sbu_0, # of connection points: 4
#     Node 23, Type 0, BuildingBlock: GALJAG_clean_sbu_0, # of connection points: 4
#     Node 24, Type 1, BuildingBlock: VOLQOD_clean_sbu_1, # of connection points: 6
#     Node 25, Type 1, BuildingBlock: VOLQOD_clean_sbu_1, # of connection points: 6
#     Node 26, Type 1, BuildingBlock: VOLQOD_clean_sbu_1, # of connection points: 6
#     Node 27, Type 1, BuildingBlock: VOLQOD_clean_sbu_1, # of connection points: 6
#     Node 28, Type 1, BuildingBlock: VOLQOD_clean_sbu_1, # of connection points: 6
#     Node 29, Type 1, BuildingBlock: VOLQOD_clean_sbu_1, # of connection points: 6
#     Node 30, Type 1, BuildingBlock: VOLQOD_clean_sbu_1, # of connection points: 6
#     Node 31, Type 1, BuildingBlock: VOLQOD_clean_sbu_1, # of connection points: 6
#     Node 32, Type 1, BuildingBlock: VOLQOD_clean_sbu_1, # of connection points: 6
#     Node 33, Type 1, BuildingBlock: VOLQOD_clean_sbu_1, # of connection points: 6
#     Node 34, Type 1, BuildingBlock: VOLQOD_clean_sbu_1, # of connection points: 6
#     Node 35, Type 1, BuildingBlock: VOLQOD_clean_sbu_1, # of connection points: 6
#     Node 36, Type 1, BuildingBlock: VOLQOD_clean_sbu_1, # of connection points: 6
#     Node 37, Type 1, BuildingBlock: VOLQOD_clean_sbu_1, # of connection points: 6
#     Node 38, Type 1, BuildingBlock: VOLQOD_clean_sbu_1, # of connection points: 6
#     Node 39, Type 1, BuildingBlock: VOLQOD_clean_sbu_1, # of connection points: 6
#     Edge 40, Type (0, 1), BuildingBlock: CIFDUS_clean_linker_0, # of connection points: 2
#     Edge 41, Type (0, 1), BuildingBlock: CIFDUS_clean_linker_0, # of connection points: 2
#     Edge 42, Type (0, 1), BuildingBlock: CIFDUS_clean_linker_0, # of connection points: 2
#     Edge 43, Type (0, 1), BuildingBlock: CIFDUS_clean_linker_0, # of connection points: 2
#     Edge 44, Type (0, 1), BuildingBlock: CIFDUS_clean_linker_0, # of connection points: 2
#     Edge 45, Type (0, 1), BuildingBlock: CIFDUS_clean_linker_0, # of connection points: 2
#     Edge 46, Type (0, 1), BuildingBlock: CIFDUS_clean_linker_0, # of connection points: 2
#     Edge 47, Type (0, 1), BuildingBlock: CIFDUS_clean_linker_0, # of connection points: 2
#     Edge 48, Type (0, 1), BuildingBlock: CIFDUS_clean_linker_0, # of connection points: 2
#     Edge 49, Type (0, 1), BuildingBlock: CIFDUS_clean_linker_0, # of connection points: 2
#     Edge 50, Type (0, 1), BuildingBlock: CIFDUS_clean_linker_0, # of connection points: 2
#     Edge 51, Type (0, 1), BuildingBlock: CIFDUS_clean_linker_0, # of connection points: 2
#     Edge 52, Type (0, 1), BuildingBlock: CIFDUS_clean_linker_0, # of connection points: 2
#     Edge 53, Type (0, 1), BuildingBlock: CIFDUS_clean_linker_0, # of connection points: 2
#     Edge 54, Type (0, 1), BuildingBlock: CIFDUS_clean_linker_0, # of connection points: 2
#     Edge 55, Type (0, 1), BuildingBlock: CIFDUS_clean_linker_0, # of connection points: 2
#     Edge 56, Type (0, 1), BuildingBlock: CIFDUS_clean_linker_0, # of connection points: 2
#     Edge 57, Type (0, 1), BuildingBlock: CIFDUS_clean_linker_0, # of connection points: 2
#     Edge 58, Type (0, 1), BuildingBlock: CIFDUS_clean_linker_0, # of connection points: 2
#     Edge 59, Type (0, 1), BuildingBlock: CIFDUS_clean_linker_0, # of connection points: 2
#     Edge 60, Type (0, 1), BuildingBlock: CIFDUS_clean_linker_0, # of connection points: 2
#     Edge 61, Type (0, 1), BuildingBlock: CIFDUS_clean_linker_0, # of connection points: 2
#     Edge 62, Type (0, 1), BuildingBlock: CIFDUS_clean_linker_0, # of connection points: 2
#     Edge 63, Type (0, 1), BuildingBlock: CIFDUS_clean_linker_0, # of connection points: 2
#     Edge 64, Type (0, 1), BuildingBlock: CIFDUS_clean_linker_0, # of connection points: 2
#     Edge 65, Type (0, 1), BuildingBlock: CIFDUS_clean_linker_0, # of connection points: 2
#     Edge 66, Type (0, 1), BuildingBlock: CIFDUS_clean_linker_0, # of connection points: 2
#     Edge 67, Type (0, 1), BuildingBlock: CIFDUS_clean_linker_0, # of connection points: 2
#     Edge 68, Type (0, 1), BuildingBlock: CIFDUS_clean_linker_0, # of connection points: 2
#     Edge 69, Type (0, 1), BuildingBlock: CIFDUS_clean_linker_0, # of connection points: 2
#     Edge 70, Type (0, 1), BuildingBlock: CIFDUS_clean_linker_0, # of connection points: 2
#     Edge 71, Type (0, 1), BuildingBlock: CIFDUS_clean_linker_0, # of connection points: 2
#     Edge 72, Type (0, 1), BuildingBlock: CIFDUS_clean_linker_0, # of connection points: 2
#     Edge 73, Type (0, 1), BuildingBlock: CIFDUS_clean_linker_0, # of connection points: 2
#     Edge 74, Type (0, 1), BuildingBlock: CIFDUS_clean_linker_0, # of connection points: 2
#     Edge 75, Type (0, 1), BuildingBlock: CIFDUS_clean_linker_0, # of connection points: 2
#     Edge 76, Type (0, 1), BuildingBlock: CIFDUS_clean_linker_0, # of connection points: 2
#     Edge 77, Type (0, 1), BuildingBlock: CIFDUS_clean_linker_0, # of connection points: 2
#     Edge 78, Type (0, 1), BuildingBlock: CIFDUS_clean_linker_0, # of connection points: 2
#     Edge 79, Type (0, 1), BuildingBlock: CIFDUS_clean_linker_0, # of connection points: 2
#     Edge 80, Type (0, 1), BuildingBlock: CIFDUS_clean_linker_0, # of connection points: 2
#     Edge 81, Type (0, 1), BuildingBlock: CIFDUS_clean_linker_0, # of connection points: 2
#     Edge 82, Type (0, 1), BuildingBlock: CIFDUS_clean_linker_0, # of connection points: 2
#     Edge 83, Type (0, 1), BuildingBlock: CIFDUS_clean_linker_0, # of connection points: 2
#     Edge 84, Type (0, 1), BuildingBlock: CIFDUS_clean_linker_0, # of connection points: 2
#     Edge 85, Type (0, 1), BuildingBlock: CIFDUS_clean_linker_0, # of connection points: 2
#     Edge 86, Type (0, 1), BuildingBlock: CIFDUS_clean_linker_0, # of connection points: 2
#     Edge 87, Type (0, 1), BuildingBlock: CIFDUS_clean_linker_0, # of connection points: 2
#     Edge 88, Type (0, 1), BuildingBlock: CIFDUS_clean_linker_0, # of connection points: 2
#     Edge 89, Type (0, 1), BuildingBlock: CIFDUS_clean_linker_0, # of connection points: 2
#     Edge 90, Type (0, 1), BuildingBlock: CIFDUS_clean_linker_0, # of connection points: 2
#     Edge 91, Type (0, 1), BuildingBlock: CIFDUS_clean_linker_0, # of connection points: 2
#     Edge 92, Type (0, 1), BuildingBlock: CIFDUS_clean_linker_0, # of connection points: 2
#     Edge 93, Type (0, 1), BuildingBlock: CIFDUS_clean_linker_0, # of connection points: 2
#     Edge 94, Type (0, 1), BuildingBlock: CIFDUS_clean_linker_0, # of connection points: 2
#     Edge 95, Type (0, 1), BuildingBlock: CIFDUS_clean_linker_0, # of connection points: 2
#     Edge 96, Type (0, 1), BuildingBlock: CIFDUS_clean_linker_0, # of connection points: 2
#     Edge 97, Type (0, 1), BuildingBlock: CIFDUS_clean_linker_0, # of connection points: 2
#     Edge 98, Type (0, 1), BuildingBlock: CIFDUS_clean_linker_0, # of connection points: 2
#     Edge 99, Type (0, 1), BuildingBlock: CIFDUS_clean_linker_0, # of connection points: 2
#     Edge 100, Type (0, 1), BuildingBlock: CIFDUS_clean_linker_0, # of connection points: 2
#     Edge 101, Type (0, 1), BuildingBlock: CIFDUS_clean_linker_0, # of connection points: 2
#     Edge 102, Type (0, 1), BuildingBlock: CIFDUS_clean_linker_0, # of connection points: 2
#     Edge 103, Type (0, 1), BuildingBlock: CIFDUS_clean_linker_0, # of connection points: 2
#     Edge 104, Type (0, 1), BuildingBlock: CIFDUS_clean_linker_0, # of connection points: 2
#     Edge 105, Type (0, 1), BuildingBlock: CIFDUS_clean_linker_0, # of connection points: 2
#     Edge 106, Type (0, 1), BuildingBlock: CIFDUS_clean_linker_0, # of connection points: 2
#     Edge 107, Type (0, 1), BuildingBlock: CIFDUS_clean_linker_0, # of connection points: 2
#     Edge 108, Type (0, 1), BuildingBlock: CIFDUS_clean_linker_0, # of connection points: 2
#     Edge 109, Type (0, 1), BuildingBlock: CIFDUS_clean_linker_0, # of connection points: 2
#     Edge 110, Type (0, 1), BuildingBlock: CIFDUS_clean_linker_0, # of connection points: 2
#     Edge 111, Type (0, 1), BuildingBlock: CIFDUS_clean_linker_0, # of connection points: 2
#     Edge 112, Type (0, 1), BuildingBlock: CIFDUS_clean_linker_0, # of connection points: 2
#     Edge 113, Type (0, 1), BuildingBlock: CIFDUS_clean_linker_0, # of connection points: 2
#     Edge 114, Type (0, 1), BuildingBlock: CIFDUS_clean_linker_0, # of connection points: 2
#     Edge 115, Type (0, 1), BuildingBlock: CIFDUS_clean_linker_0, # of connection points: 2
#     Edge 116, Type (0, 1), BuildingBlock: CIFDUS_clean_linker_0, # of connection points: 2
#     Edge 117, Type (0, 1), BuildingBlock: CIFDUS_clean_linker_0, # of connection points: 2
#     Edge 118, Type (0, 1), BuildingBlock: CIFDUS_clean_linker_0, # of connection points: 2
#     Edge 119, Type (0, 1), BuildingBlock: CIFDUS_clean_linker_0, # of connection points: 2
#     Edge 120, Type (0, 1), BuildingBlock: CIFDUS_clean_linker_0, # of connection points: 2
#     Edge 121, Type (0, 1), BuildingBlock: CIFDUS_clean_linker_0, # of connection points: 2
#     Edge 122, Type (0, 1), BuildingBlock: CIFDUS_clean_linker_0, # of connection points: 2
#     Edge 123, Type (0, 1), BuildingBlock: CIFDUS_clean_linker_0, # of connection points: 2
#     Edge 124, Type (0, 1), BuildingBlock: CIFDUS_clean_linker_0, # of connection points: 2
#     Edge 125, Type (0, 1), BuildingBlock: CIFDUS_clean_linker_0, # of connection points: 2
#     Edge 126, Type (0, 1), BuildingBlock: CIFDUS_clean_linker_0, # of connection points: 2
#     Edge 127, Type (0, 1), BuildingBlock: CIFDUS_clean_linker_0, # of connection points: 2
#     Edge 128, Type (0, 1), BuildingBlock: CIFDUS_clean_linker_0, # of connection points: 2
#     Edge 129, Type (0, 1), BuildingBlock: CIFDUS_clean_linker_0, # of connection points: 2
#     Edge 130, Type (0, 1), BuildingBlock: CIFDUS_clean_linker_0, # of connection points: 2
#     Edge 131, Type (0, 1), BuildingBlock: CIFDUS_clean_linker_0, # of connection points: 2
#     Edge 132, Type (0, 1), BuildingBlock: CIFDUS_clean_linker_0, # of connection points: 2
#     Edge 133, Type (0, 1), BuildingBlock: CIFDUS_clean_linker_0, # of connection points: 2
#     Edge 134, Type (0, 1), BuildingBlock: CIFDUS_clean_linker_0, # of connection points: 2
#     Edge 135, Type (0, 1), BuildingBlock: CIFDUS_clean_linker_0, # of connection points: 2
# Relax obj value: 0.329
# Max RMSD: 0.288
# Mean RMSD: 0.183
data_MOF--net-iac--node1-GALJAG_clean_sbu_0--node2-VOLQOD_clean_sbu_1--edge1-CIFDUS_clean_linker_0
_symmetry_space_group_name_H-M    P1
_symmetry_Int_Tables_number       1
_symmetry_cell_setting            triclinic
loop_
_symmetry_equiv_pos_as_xyz
'x, y, z'
_cell_length_a     48.723123
_cell_length_b     48.67863
_cell_length_c     48.590991
_cell_angle_alpha  90.036352
_cell_angle_beta   90.095985
_cell_angle_gamma 90.554689
loop_
_atom_site_label
_atom_site_type_symbol
_atom_site_fract_x
_atom_site_fract_y
_atom_site_fract_z
_atom_type_partial_charge
In0 In 0.98534 0.24001 0.13568 0.0
O1 O 0.97574 0.21472 0.09735 0.0
O2 O 0.98725 0.19364 0.134 0.0
C3 C 0.98287 0.29094 0.11445 0.0
C4 C 0.94232 0.23366 0.16918 0.0
C5 C 0.03754 0.24476 0.15294 0.0
O6 O 0.98729 0.27013 0.09969 0.0
O7 O 0.97782 0.28571 0.13932 0.0
O8 O 0.01739 0.24638 0.16906 0.0
O9 O 0.03142 0.23911 0.12836 0.0
C10 C 0.97976 0.19201 0.10918 0.0
O11 O 0.96672 0.23407 0.17794 0.0
O12 O 0.9396 0.23704 0.14353 0.0
In13 In -0.00462 0.74656 0.39279 0.0
O14 O 0.02348 0.72938 0.35904 0.0
O15 O 0.0223 0.77258 0.36507 0.0
C16 C 0.94658 0.74047 0.36665 0.0
C17 C 0.00279 0.70681 0.43049 0.0
C18 C 0.00048 0.78821 0.4289 0.0
O19 O 0.96062 0.76228 0.36539 0.0
O20 O 0.95728 0.72162 0.38068 0.0
O21 O 0.02024 0.77291 0.42258 0.0
O22 O 0.97834 0.78307 0.41631 0.0
C23 C 0.03205 0.75281 0.35163 0.0
O24 O 0.98343 0.72377 0.43149 0.0
O25 O 0.01824 0.70918 0.4097 0.0
In26 In 0.49375 0.76583 0.67379 0.0
O27 O 0.4937 0.79436 0.63711 0.0
O28 O 0.49013 0.81204 0.67715 0.0
C29 C 0.47128 0.72494 0.64419 0.0
C30 C 0.54826 0.76629 0.68111 0.0
C31 C 0.45986 0.75748 0.71627 0.0
O32 O 0.46656 0.7498 0.63869 0.0
O33 O 0.48811 0.72099 0.6635 0.0
O34 O 0.48008 0.7422 0.71162 0.0
O35 O 0.45774 0.77789 0.70043 0.0
C36 C 0.49234 0.81592 0.65153 0.0
O37 O 0.53182 0.77346 0.69971 0.0
O38 O 0.5371 0.75714 0.65953 0.0
In39 In 0.52974 0.23714 0.84824 0.0
O40 O 0.56739 0.26374 0.84216 0.0
O41 O 0.56782 0.22345 0.82511 0.0
C42 C 0.49546 0.22304 0.807 0.0
C43 C 0.52963 0.19944 0.88838 0.0
C44 C 0.5106 0.28149 0.87478 0.0
O45 O 0.51083 0.24396 0.80591 0.0
O46 O 0.49817 0.20875 0.82843 0.0
O47 O 0.52682 0.26467 0.88565 0.0
O48 O 0.50457 0.27653 0.85002 0.0
C49 C 0.58038 0.24596 0.82871 0.0
O50 O 0.55073 0.20416 0.874 0.0
O51 O 0.50869 0.21293 0.88169 0.0
In52 In 0.12944 0.02047 0.27502 0.0
O53 O 0.15464 0.00146 0.24073 0.0
O54 O 0.16155 0.9878 0.28185 0.0
C55 C 0.14939 0.07224 0.27186 0.0
C56 C 0.08921 0.0053 0.24038 0.0
C57 C 0.11217 0.01378 0.32738 0.0
O58 O 0.16425 0.05137 0.26973 0.0
O59 O 0.12419 0.06711 0.27491 0.0
O60 O 0.09601 0.01409 0.30717 0.0
O61 O 0.13716 0.01637 0.32121 0.0
C62 C 0.1675 0.98562 0.25663 0.0
O63 O 0.09568 0.03024 0.24418 0.0
O64 O 0.10261 0.98825 0.25442 0.0
In65 In 0.27287 0.87069 0.49418 0.0
O66 O 0.245 0.90583 0.50728 0.0
O67 O 0.23191 0.86492 0.51567 0.0
C68 C 0.31719 0.90408 0.49232 0.0
C69 C 0.28325 0.82751 0.52699 0.0
C70 C 0.26183 0.859 0.44117 0.0
O71 O 0.29691 0.90893 0.50764 0.0
O72 O 0.31521 0.88227 0.47844 0.0
O73 O 0.27939 0.84638 0.4552 0.0
O74 O 0.24978 0.87805 0.45376 0.0
C75 C 0.2269 0.89018 0.51754 0.0
O76 O 0.26725 0.82633 0.50667 0.0
O77 O 0.29484 0.85055 0.53059 0.0
In78 In 0.34607 0.98179 0.76711 0.0
O79 O 0.31196 0.0098 0.78215 0.0
O80 O 0.31776 0.00522 0.73899 0.0
C81 C 0.31824 0.93388 0.76408 0.0
C82 C 0.3871 -0.00614 0.7319 0.0
C83 C 0.37551 0.98804 0.81357 0.0
O84 O 0.32293 0.94597 0.78655 0.0
O85 O 0.32794 0.94571 0.74313 0.0
O86 O 0.37685 0.96673 0.79886 0.0
O87 O 0.3589 0.0059 0.80511 0.0
C88 C 0.3046 0.01654 0.75816 0.0
O89 O 0.3707 0.01164 0.74074 0.0
O90 O 0.38271 0.96978 0.74059 0.0
In91 In 0.24734 0.12116 -0.00085 0.0
O92 O 0.27804 0.08758 0.00978 0.0
O93 O 0.29256 0.12329 0.98898 0.0
C94 C 0.19927 0.09466 0.00529 0.0
C95 C 0.25324 0.15164 0.04485 0.0
C96 C 0.24017 0.14017 0.94778 0.0
O97 O 0.22132 0.08205 0.00065 0.0
O98 O 0.20167 0.12041 0.00712 0.0
O99 O 0.24208 0.1558 0.96847 0.0
O100 O 0.24225 0.11485 0.95296 0.0
C101 C 0.29833 0.10075 0.00025 0.0
O102 O 0.24971 0.1624 0.02149 0.0
O103 O 0.25278 0.12577 0.04509 0.0
In104 In 0.78673 0.39544 0.02719 0.0
O105 O 0.7816 0.35799 0.05479 0.0
O106 O 0.78517 0.39695 0.07411 0.0
C107 C 0.80581 0.36137 0.98833 0.0
C108 C 0.7362 0.41632 0.0205 0.0
C109 C 0.82426 0.43477 0.01824 0.0
O110 O 0.82097 0.37029 0.0075 0.0
O111 O 0.78103 0.3686 0.98964 0.0
O112 O 0.80742 0.42702 0.0 0.0
O113 O 0.82165 0.42324 0.04145 0.0
C114 C 0.78095 0.37151 0.07689 0.0
O115 O 0.75696 0.43129 0.02493 0.0
O116 O 0.74108 0.39105 0.01859 0.0
In117 In 0.88369 0.50299 0.26618 0.0
O118 O 0.92564 0.50868 0.24658 0.0
O119 O 0.89119 0.50257 0.22016 0.0
C120 C 0.90704 0.51946 0.31359 0.0
C121 C 0.84526 0.5385 0.25015 0.0
C122 C 0.86489 0.45192 0.27691 0.0
O123 O 0.91866 0.50354 0.29692 0.0
O124 O 0.88352 0.52724 0.30636 0.0
O125 O 0.85496 0.47316 0.28755 0.0
O126 O 0.88462 0.45625 0.26067 0.0
C127 C 0.91661 0.50733 0.22228 0.0
O128 O 0.83982 0.51348 0.25446 0.0
O129 O 0.86993 0.54556 0.25423 0.0
In130 In 0.72249 0.60654 0.52816 0.0
O131 O 0.74876 0.56885 0.53507 0.0
O132 O 0.74296 0.59602 0.56882 0.0
C133 C 0.6714 0.5867 0.53262 0.0
C134 C 0.73189 0.65806 0.54593 0.0
C135 C 0.73099 0.61186 0.47359 0.0
O136 O 0.69199 0.57113 0.53201 0.0
O137 O 0.67682 0.6121 0.53211 0.0
O138 O 0.70751 0.60946 0.484 0.0
O139 O 0.75045 0.61029 0.49058 0.0
C140 C 0.75444 0.57476 0.55975 0.0
O141 O 0.7493 0.64471 0.53239 0.0
O142 O 0.70965 0.64541 0.55064 0.0
In143 In 0.6267 0.5374 0.74 0.0
O144 O 0.65303 0.50968 0.71284 0.0
O145 O 0.66366 0.51358 0.75509 0.0
C146 C 0.65142 0.58709 0.73708 0.0
C147 C 0.58253 0.5379 0.70625 0.0
C148 C 0.60365 0.52122 0.7879 0.0
O149 O 0.65682 0.56794 0.72049 0.0
O150 O 0.63297 0.58142 0.75442 0.0
O151 O 0.59956 0.5088 0.7655 0.0
O152 O 0.61982 0.54153 0.78629 0.0
C153 C 0.66909 0.503 0.73206 0.0
O154 O 0.59757 0.5172 0.70921 0.0
O155 O 0.59037 0.55886 0.71944 0.0
In156 In 0.01247 0.73929 0.87118 0.0
O157 O 0.04115 0.7546 0.83754 0.0
O158 O 0.03262 0.71176 0.83952 0.0
C159 C 0.96183 0.74092 0.84933 0.0
C160 C 0.01565 0.70126 0.91107 0.0
C161 C 0.02764 0.78702 0.89501 0.0
O162 O 0.98006 0.72499 0.8406 0.0
O163 O 0.96864 0.75492 0.87015 0.0
O164 O 0.03407 0.76405 0.90496 0.0
O165 O 0.01399 0.7858 0.87297 0.0
C166 C 0.04445 0.73121 0.82702 0.0
O167 O -0.00669 0.71256 0.90465 0.0
O168 O 0.03614 0.70887 0.89707 0.0
In169 In 0.0212 0.27511 0.60068 0.0
O170 O 0.00361 0.28667 0.55929 0.0
O171 O 0.03912 0.30843 0.573 0.0
C172 C 0.01716 0.22138 0.58927 0.0
C173 C 0.06508 0.27154 0.63335 0.0
C174 C 0.98199 0.30217 0.62845 0.0
O175 O 0.03503 0.2367 0.57828 0.0
O176 O 0.00087 0.23338 0.60531 0.0
O177 O 0.00701 0.30425 0.63474 0.0
O178 O 0.97681 0.28633 0.60857 0.0
C179 C 0.02074 0.30568 0.55483 0.0
O180 O 0.04168 0.26265 0.64032 0.0
O181 O 0.06622 0.28289 0.60995 0.0
In182 In 0.4796 0.27287 0.39794 0.0
O183 O 0.51039 0.28736 0.36533 0.0
O184 O 0.52571 0.27457 0.40412 0.0
C185 C 0.45036 0.26143 0.35233 0.0
C186 C 0.47685 0.22867 0.43086 0.0
C187 C 0.46345 0.31663 0.42764 0.0
O188 O 0.45723 0.24298 0.36915 0.0
O189 O 0.45851 0.28533 0.35847 0.0
O190 O 0.4876 0.30776 0.42788 0.0
O191 O 0.44712 0.30333 0.41245 0.0
C192 C 0.53107 0.28369 0.38046 0.0
O193 O 0.45783 0.24608 0.43011 0.0
O194 O 0.49647 0.23323 0.41455 0.0
In195 In 0.49199 0.7356 0.11509 0.0
O196 O 0.503 0.70947 0.07842 0.0
O197 O 0.48709 0.6893 0.11403 0.0
C198 C 0.49684 0.78359 0.08867 0.0
C199 C 0.43977 0.74271 0.13099 0.0
C200 C 0.53567 0.72841 0.14798 0.0
O201 O 0.49484 0.76103 0.07604 0.0
O202 O 0.49752 0.7818 0.11455 0.0
O203 O 0.51144 0.72738 0.15709 0.0
O204 O 0.53775 0.73439 0.12284 0.0
C205 C 0.49712 0.68708 0.09017 0.0
O206 O 0.45997 0.74765 0.14657 0.0
O207 O 0.44586 0.73274 0.10783 0.0
In208 In 0.88028 0.03182 0.7718 0.0
O209 O 0.91109 -8e-05 0.75721 0.0
O210 O 0.91819 0.04174 0.7464 0.0
C211 C 0.89381 0.02039 0.82445 0.0
C212 C 0.86046 0.08343 0.77025 0.0
C213 C 0.84184 0.00307 0.744 0.0
O214 O 0.9017 0.04186 0.81233 0.0
O215 O 0.8786 0.00487 0.81024 0.0
O216 O 0.86267 0.01334 0.73234 0.0
O217 O 0.83998 0.00817 0.76941 0.0
C218 C 0.92625 0.01719 0.74509 0.0
O219 O 0.84591 0.0629 0.77668 0.0
O220 O 0.88496 0.07796 0.76422 0.0
In221 In 0.77147 0.13881 0.54046 0.0
O222 O 0.80287 0.11688 0.56727 0.0
O223 O 0.80477 0.11116 0.52394 0.0
C224 C 0.73152 0.10143 0.54999 0.0
C225 C 0.77602 0.18474 0.57117 0.0
C226 C 0.76188 0.16224 0.49127 0.0
O227 O 0.74519 0.10236 0.528 0.0
O228 O 0.73805 0.11946 0.56758 0.0
O229 O 0.78578 0.15721 0.49975 0.0
O230 O 0.74293 0.15561 0.50766 0.0
C231 C 0.81456 0.10541 0.54722 0.0
O232 O 0.75417 0.17069 0.56971 0.0
O233 O 0.79579 0.17537 0.55745 0.0
In234 In 0.62971 0.98782 0.27378 0.0
O235 O 0.67051 0.96537 0.27716 0.0
O236 O 0.63393 0.94294 0.28588 0.0
C237 C 0.65033 0.03742 0.2614 0.0
C238 C 0.59968 0.98262 0.22737 0.0
C239 C 0.61055 -0.00357 0.32472 0.0
O240 O 0.6645 0.01589 0.25954 0.0
O241 O 0.62612 0.03382 0.26999 0.0
O242 O 0.59711 0.98287 0.30697 0.0
O243 O 0.63338 0.00577 0.3166 0.0
C244 C 0.65978 0.94306 0.28499 0.0
O245 O 0.58871 0.98517 0.25071 0.0
O246 O 0.62543 0.98068 0.22779 0.0
In247 In 0.7434 0.84268 0.00423 0.0
O248 O 0.72084 0.88195 -0.00525 0.0
O249 O 0.69791 0.84446 0.99415 0.0
C250 C 0.78727 0.86959 0.02449 0.0
C251 C 0.73508 0.81163 0.04902 0.0
C252 C 0.75439 0.82345 0.95377 0.0
O253 O 0.78854 0.84563 0.01467 0.0
O254 O 0.76382 0.88033 0.0236 0.0
O255 O 0.74082 0.8096 0.97109 0.0
O256 O 0.76291 0.84646 0.96229 0.0
C257 C 0.69795 0.87019 0.99093 0.0
O258 O 0.74966 0.80363 0.0292 0.0
O259 O 0.72374 0.83452 0.0455 0.0
In260 In 0.26469 0.61661 0.99062 0.0
O261 O 0.27316 0.65644 0.01369 0.0
O262 O 0.23335 0.63834 0.01742 0.0
C263 C 0.24407 0.63643 0.94346 0.0
C264 C 0.31738 0.60224 0.98314 0.0
C265 C 0.24575 0.56925 0.01214 0.0
O266 O 0.26463 0.64687 0.95543 0.0
O267 O 0.2336 0.61585 0.95536 0.0
O268 O 0.24694 0.57373 0.98662 0.0
O269 O 0.25413 0.58881 0.02708 0.0
C270 C 0.24936 0.65787 0.02386 0.0
O271 O 0.29873 0.59657 0.96607 0.0
O272 O 0.30959 0.61567 0.00387 0.0
In273 In 0.13963 0.46368 0.75779 0.0
O274 O 0.18005 0.44561 0.77123 0.0
O275 O 0.14682 0.41784 0.76321 0.0
C276 C 0.16958 0.50022 0.72903 0.0
C277 C 0.09587 0.46109 0.72383 0.0
C278 C 0.12366 0.47529 0.80936 0.0
O279 O 0.17477 0.47491 0.72844 0.0
O280 O 0.14964 0.50692 0.74404 0.0
O281 O 0.11326 0.45598 0.79544 0.0
O282 O 0.14216 0.48892 0.79722 0.0
C283 C 0.1715 0.42108 0.77081 0.0
O284 O 0.09876 0.47877 0.74253 0.0
O285 O 0.11502 0.44379 0.72236 0.0
In286 In 0.2105 0.37408 0.51578 0.0
O287 O 0.24458 0.35099 0.53682 0.0
O288 O 0.20387 0.3359 0.54257 0.0
C289 C 0.2131 0.34916 0.46653 0.0
C290 C 0.16297 0.40021 0.52455 0.0
C291 C 0.24176 0.41955 0.52127 0.0
O292 O 0.19254 0.34628 0.4821 0.0
O293 O 0.2321 0.36415 0.47607 0.0
O294 O 0.23298 0.41101 0.49836 0.0
O295 O 0.23507 0.4049 0.54164 0.0
C296 C 0.22915 0.33313 0.54765 0.0
O297 O 0.17563 0.38834 0.54378 0.0
O298 O 0.17343 0.39732 0.50107 0.0
In299 In 0.38102 0.52812 0.24166 0.0
O300 O 0.41395 0.50175 0.22108 0.0
O301 O 0.40299 0.53922 0.20201 0.0
C302 C 0.40412 0.52603 0.29221 0.0
C303 C 0.35445 0.57611 0.23848 0.0
C304 C 0.33881 0.49266 0.23609 0.0
O305 O 0.40172 0.54811 0.27899 0.0
O306 O 0.39609 0.50491 0.27942 0.0
O307 O 0.34534 0.50349 0.25883 0.0
O308 O 0.35369 0.49969 0.216 0.0
C309 C 0.41711 0.5177 0.20091 0.0
O310 O 0.34227 0.5532 0.2379 0.0
O311 O 0.38028 0.57493 0.24006 0.0
O312 O 0.98986 0.03627 0.03967 0.0
Zn313 Zn 0.00496 0.00633 0.01656 0.0
O314 O -0.00207 0.97103 0.03355 0.0
Zn315 Zn 0.03219 0.95228 0.04308 0.0
Zn316 Zn 0.9744 0.97566 0.06561 0.0
Zn317 Zn 0.97899 0.94898 0.00714 0.0
O318 O 0.03723 0.91656 0.02188 0.0
O319 O 0.00383 0.92151 0.99117 0.0
O320 O 0.04519 0.01311 0.01353 0.0
O321 O 0.06438 0.97653 0.03272 0.0
O322 O 0.03463 0.94686 0.08425 0.0
O323 O -0.00412 0.96564 0.09902 0.0
O324 O 0.94024 0.95158 0.06362 0.0
O325 O 0.98702 0.01019 0.97953 0.0
O326 O 0.94825 0.92885 0.02476 0.0
O327 O 0.96387 0.97098 0.97605 0.0
C328 C 0.97377 0.03721 0.0602 0.0
C329 C 0.02514 0.90933 -0.00029 0.0
C330 C 0.01891 0.95446 0.10373 0.0
C331 C 0.06632 -9e-05 0.02109 0.0
C332 C 0.93422 0.93271 0.0464 0.0
C333 C 0.96998 -0.00528 0.96692 0.0
O334 O 0.96476 0.01542 0.07169 0.0
O335 O 0.20001 0.73225 0.17367 0.0
Zn336 Zn 0.20645 0.73714 0.2144 0.0
O337 O 0.22696 0.77144 0.22071 0.0
Zn338 Zn 0.26058 0.7645 0.24075 0.0
Zn339 Zn 0.23637 0.78971 0.1859 0.0
Zn340 Zn 0.20515 0.79511 0.24329 0.0
O341 O 0.26125 0.77995 0.27867 0.0
O342 O 0.22177 0.8019 0.28049 0.0
O343 O 0.22929 0.70442 0.22568 0.0
O344 O 0.26644 0.72455 0.24324 0.0
O345 O 0.29356 0.77834 0.22103 0.0
O346 O 0.27741 0.78862 0.17963 0.0
O347 O 0.2248 0.82995 0.18589 0.0
O348 O 0.17009 0.73642 0.23507 0.0
O349 O 0.20321 0.83164 0.2262 0.0
O350 O 0.16788 0.77944 0.25006 0.0
C351 C 0.20709 0.74581 0.15234 0.0
C352 C 0.2442 0.79468 0.29157 0.0
C353 C 0.29741 0.78513 0.19611 0.0
C354 C 0.2531 0.70306 0.23645 0.0
C355 C 0.21181 0.84312 0.20436 0.0
C356 C 0.15726 0.75561 0.24731 0.0
O357 O 0.22031 0.76847 0.15418 0.0
O358 O 0.51315 0.95597 0.54234 0.0
Zn359 Zn 0.50499 0.98963 0.52051 0.0
O360 O 0.51347 0.02276 0.54153 0.0
Zn361 Zn 0.48032 0.04526 0.54608 0.0
Zn362 Zn 0.52908 0.01336 0.57744 0.0
Zn363 Zn 0.54074 0.04274 0.52112 0.0
O364 O 0.48523 0.083 0.52866 0.0
O365 O 0.52828 0.08061 0.51394 0.0
O366 O 0.46509 0.98783 0.51272 0.0
O367 O 0.44708 0.02611 0.52932 0.0
O368 O 0.47101 0.04887 0.58643 0.0
O369 O 0.50452 0.02637 0.60747 0.0
O370 O 0.5681 0.02785 0.5831 0.0
O371 O 0.52419 0.98752 0.48402 0.0
O372 O 0.57593 0.04463 0.5413 0.0
O373 O 0.54873 0.02599 0.4846 0.0
C374 C 0.5218 0.95234 0.56676 0.0
C375 C 0.50617 0.09389 0.51712 0.0
C376 C 0.48216 0.03963 0.60825 0.0
C377 C 0.44452 0.00307 0.51706 0.0
C378 C 0.58406 0.03885 0.56543 0.0
C379 C 0.54096 0.00408 0.47259 0.0
O380 O 0.5287 0.97243 0.58214 0.0
O381 O 0.27319 0.22763 0.80224 0.0
Zn382 Zn 0.29207 0.24586 0.77086 0.0
O383 O 0.27474 0.23509 0.737 0.0
Zn384 Zn 0.2976 0.21388 0.71266 0.0
Zn385 Zn 0.24045 0.21594 0.74436 0.0
Zn386 Zn 0.26969 0.26774 0.7161 0.0
O387 O 0.29618 0.22924 0.67394 0.0
O388 O 0.29743 0.27269 0.68639 0.0
O389 O 0.33101 0.23337 0.76949 0.0
O390 O 0.33603 0.21326 0.72834 0.0
O391 O 0.28365 0.17525 0.71105 0.0
O392 O 0.24364 0.17639 0.73296 0.0
O393 O 0.21009 0.23366 0.72241 0.0
O394 O 0.28751 0.28646 0.77921 0.0
O395 O 0.2328 0.2658 0.69873 0.0
O396 O 0.26971 0.30052 0.73972 0.0
C397 C 0.24926 0.21752 0.80549 0.0
C398 C 0.29937 0.25446 0.66787 0.0
C399 C 0.26201 0.16339 0.71987 0.0
C400 C 0.34554 0.22108 0.75157 0.0
C401 C 0.21089 0.25239 0.70401 0.0
C402 C 0.27749 0.30525 0.76417 0.0
O403 O 0.23283 0.21376 0.78534 0.0
O404 O 0.01324 0.99322 0.47777 0.0
Zn405 Zn -0.00502 0.98255 0.51349 0.0
O406 O 0.01936 0.98918 0.54471 0.0
Zn407 Zn 0.02967 0.95494 0.56332 0.0
Zn408 Zn 0.05174 0.00961 0.53265 0.0
Zn409 Zn 0.00016 0.01173 0.5701 0.0
O410 O 0.01724 0.95414 0.60383 0.0
O411 O 0.00229 -0.00305 0.60744 0.0
O412 O 0.98738 0.94236 0.5105 0.0
O413 O 0.01359 0.92258 0.54232 0.0
O414 O 0.07104 0.95129 0.56222 0.0
O415 O 0.0858 0.99136 0.54564 0.0
O416 O 0.05176 0.04949 0.5442 0.0
O417 O 0.95878 0.00213 0.51694 0.0
O418 O 0.01505 0.04942 0.57088 0.0
O419 O 0.96089 0.01617 0.56025 0.0
C420 C 0.03715 0.00259 0.47252 0.0
C421 C 0.00827 0.97406 0.61823 0.0
C422 C 0.09053 0.96768 0.55556 0.0
C423 C -0.00333 0.92103 0.52228 0.0
C424 C 0.03504 0.062 0.55976 0.0
C425 C 0.94774 0.01329 0.53783 0.0
O426 O 0.05383 0.00903 0.49168 0.0
O427 O 0.29705 0.72302 0.74713 0.0
Zn428 Zn 0.25798 0.73335 0.74979 0.0
O429 O 0.23752 0.716 0.72071 0.0
Zn430 Zn 0.21855 0.74433 0.69978 0.0
Zn431 Zn 0.26149 0.69437 0.69699 0.0
Zn432 Zn 0.21143 0.69195 0.7378 0.0
O433 O 0.17783 0.74498 0.70846 0.0
O434 O 0.17466 0.7079 0.73488 0.0
O435 O 0.2571 0.77395 0.74735 0.0
O436 O 0.23364 0.78212 0.70912 0.0
O437 O 0.22581 0.73907 0.65954 0.0
O438 O 0.26329 0.71303 0.65998 0.0
O439 O 0.24643 0.65553 0.69085 0.0
O440 O 0.2456 0.72194 0.78689 0.0
O441 O 0.20992 0.65659 0.71827 0.0
O442 O 0.21855 0.68614 0.77831 0.0
C443 C 0.31104 0.70691 0.73224 0.0
C444 C 0.16375 0.72834 0.72308 0.0
C445 C 0.24628 0.72834 0.64744 0.0
C446 C 0.2478 0.79054 0.72955 0.0
C447 C 0.22469 0.64452 0.70059 0.0
C448 C 0.23132 0.70166 0.79522 0.0
O449 O 0.3001 0.69341 0.71249 0.0
O450 O 0.5545 0.02018 0.05682 0.0
Zn451 Zn 0.54692 0.01983 0.01613 0.0
O452 O 0.51019 0.00437 0.00965 0.0
Zn453 Zn 0.51236 0.97012 0.98871 0.0
Zn454 Zn 0.49039 -0.00133 0.04449 0.0
Zn455 Zn 0.49016 0.0299 0.98801 0.0
O456 O 0.49004 0.97055 0.95351 0.0
O457 O 0.47712 0.014 0.95271 0.0
O458 O 0.57526 -0.00451 -0.00055 0.0
O459 O 0.5515 0.9615 0.97992 0.0
O460 O 0.49916 0.93891 0.01194 0.0
O461 O 0.48298 0.95855 0.04976 0.0
O462 O 0.45374 0.01878 0.04619 0.0
O463 O 0.55245 0.058 -0.00016 0.0
O464 O 0.45678 0.04146 0.00683 0.0
O465 O 0.51162 0.06323 0.98039 0.0
C466 C 0.54023 0.01527 0.07827 0.0
C467 C 0.47753 0.99026 0.94191 0.0
C468 C 0.48809 0.93723 0.03558 0.0
C469 C 0.57425 0.97317 0.98582 0.0
C470 C 0.44403 0.03573 0.02882 0.0
C471 C 0.53549 0.0722 0.98604 0.0
O472 O 0.51497 0.00836 0.07658 0.0
O473 O 0.18489 0.28392 0.24544 0.0
Zn474 Zn 0.22042 0.27389 0.26321 0.0
O475 O 0.25131 0.28271 0.23922 0.0
Zn476 Zn 0.2731 0.25002 0.23232 0.0
Zn477 Zn 0.23853 0.29891 0.20462 0.0
Zn478 Zn 0.27394 0.30899 0.25785 0.0
O479 O 0.31202 0.25392 0.24643 0.0
O480 O 0.31315 0.29816 0.25754 0.0
O481 O 0.21769 0.23323 0.26811 0.0
O482 O 0.25521 0.21647 0.24872 0.0
O483 O 0.27426 0.24284 0.19179 0.0
O484 O 0.2522 0.27747 0.1722 0.0
O485 O 0.24953 0.33912 0.2005 0.0
O486 O 0.22359 0.2911 0.30094 0.0
O487 O 0.27087 0.34532 0.24049 0.0
O488 O 0.26321 0.31343 0.29706 0.0
C489 C 0.17896 0.29033 0.22077 0.0
C490 C 0.32514 0.27534 0.25415 0.0
C491 C 0.26542 0.25512 0.17045 0.0
C492 C 0.23271 0.21302 0.26159 0.0
C493 C 0.26153 0.35461 0.21798 0.0
C494 C 0.24266 0.30587 0.31133 0.0
O495 O 0.19748 0.29562 0.20302 0.0
O496 O 0.51908 0.48136 0.93603 0.0
Zn497 Zn 0.49236 0.46816 0.96487 0.0
O498 O 0.50886 0.4731 0.00073 0.0
Zn499 Zn 0.51596 0.43949 0.02066 0.0
Zn500 Zn 0.54073 0.49663 -0.00094 0.0
Zn501 Zn 0.48256 0.48967 0.0234 0.0
O502 O 0.50058 0.44201 0.05991 0.0
O503 O 0.46299 0.46228 0.04619 0.0
O504 O 0.48547 0.42778 0.95971 0.0
O505 O 0.50017 0.40812 -0.00151 0.0
O506 O 0.55671 0.43435 0.02306 0.0
O507 O 0.57354 0.47534 0.01132 0.0
O508 O 0.53603 0.53015 0.02303 0.0
O509 O 0.45756 0.49095 0.95983 0.0
O510 O 0.49977 0.51745 0.04775 0.0
O511 O 0.45569 0.50951 0.00141 0.0
C512 C 0.53939 0.49806 0.93704 0.0
C513 C 0.47675 0.45112 0.06519 0.0
C514 C 0.57697 0.45066 0.01927 0.0
C515 C 0.48953 0.40649 0.97447 0.0
C516 C 0.51963 0.53385 0.04309 0.0
C517 C 0.44711 0.50783 0.97684 0.0
O518 O 0.54846 0.50736 0.95987 0.0
O519 O 0.80005 0.24019 0.26488 0.0
Zn520 Zn 0.77239 0.25748 0.28973 0.0
O521 O 0.73578 0.25582 0.27331 0.0
Zn522 Zn 0.7217 0.29264 0.2666 0.0
Zn523 Zn 0.73682 0.23516 0.23887 0.0
Zn524 Zn 0.71133 0.23787 0.29848 0.0
O525 O 0.68333 0.29844 0.28201 0.0
O526 O 0.68132 0.26233 0.30983 0.0
O527 O 0.78415 0.29672 0.29456 0.0
O528 O 0.74699 0.32063 0.28362 0.0
O529 O 0.72309 0.30057 0.22608 0.0
O530 O 0.72892 0.25972 0.20666 0.0
O531 O 0.71188 0.20193 0.23941 0.0
O532 O 0.77391 0.23881 0.32684 0.0
O533 O 0.69385 0.20499 0.2813 0.0
O534 O 0.73053 0.22589 0.33244 0.0
C535 C 0.79804 0.22678 0.24247 0.0
C536 C 0.67155 0.28475 0.30102 0.0
C537 C 0.72581 0.28559 0.20477 0.0
C538 C 0.77159 0.31942 0.29237 0.0
C539 C 0.69589 0.19303 0.25815 0.0
C540 C 0.75511 0.22741 0.34113 0.0
O541 O 0.77489 0.22246 0.23107 0.0
O542 O -0.0035 0.52868 0.59889 0.0
Zn543 Zn -0.00062 0.53478 0.55817 0.0
O544 O 0.96893 0.51799 0.53959 0.0
Zn545 Zn 0.98355 0.50363 0.50581 0.0
Zn546 Zn 0.95353 0.48951 0.56252 0.0
Zn547 Zn 0.94214 0.54548 0.53162 0.0
O548 O 0.96621 0.52096 0.47358 0.0
O549 O 0.93152 0.5444 0.49121 0.0
O550 O 0.03375 0.5152 0.54708 0.0
O551 O 0.02434 0.5065 0.50335 0.0
O552 O 0.9766 0.46327 0.50362 0.0
O553 O 0.956 0.45319 0.54322 0.0
O554 O 0.91368 0.49697 0.57089 0.0
O555 O 0.00202 0.57474 0.54693 0.0
O556 O 0.90847 0.53931 0.55435 0.0
O557 O 0.9582 0.58301 0.53726 0.0
C558 C 0.98964 0.50613 0.61048 0.0
C559 C 0.94479 0.53535 0.47056 0.0
C560 C 0.96559 0.44605 0.51995 0.0
C561 C 0.04106 0.50685 0.52343 0.0
C562 C 0.89943 0.51851 0.56754 0.0
C563 C 0.98289 0.59124 0.54044 0.0
O564 O 0.9754 0.48784 0.59798 0.0
O565 O 0.73045 0.71189 0.33473 0.0
Zn566 Zn 0.74128 0.74203 0.30895 0.0
O567 O 0.72989 0.73209 0.27204 0.0
Zn568 Zn 0.76146 0.73459 0.24766 0.0
Zn569 Zn 0.71302 0.69569 0.27035 0.0
Zn570 Zn 0.70227 0.75702 0.26019 0.0
O571 O 0.75233 0.75557 0.21332 0.0
O572 O 0.71009 0.76996 0.22213 0.0
O573 O 0.78222 0.74443 0.31058 0.0
O574 O 0.7956 0.74918 0.26709 0.0
O575 O 0.7715 0.69685 0.23568 0.0
O576 O 0.73759 0.66974 0.25009 0.0
O577 O 0.67563 0.69632 0.25218 0.0
O578 O 0.72625 0.77922 0.32098 0.0
O579 O 0.66495 0.73998 0.25911 0.0
O580 O 0.70103 0.78934 0.28421 0.0
C581 C 0.71801 0.68892 0.33187 0.0
C582 C 0.73059 0.76799 0.20612 0.0
C583 C 0.76041 0.67319 0.23777 0.0
C584 C 0.8009 0.74876 0.29279 0.0
C585 C 0.65818 0.71562 0.25246 0.0
C586 C 0.71077 0.79546 0.30765 0.0
O587 O 0.70925 0.68045 0.30863 0.0
O588 O 0.76976 0.27604 0.71476 0.0
Zn589 Zn 0.77861 0.27958 0.75445 0.0
O590 O 0.79922 0.31316 0.76078 0.0
Zn591 Zn 0.8346 0.30453 0.778 0.0
Zn592 Zn 0.80322 0.33403 0.72687 0.0
Zn593 Zn 0.77833 0.33506 0.78552 0.0
O594 O 0.83452 0.31272 0.8194 0.0
O595 O 0.79318 0.33129 0.82292 0.0
O596 O 0.80053 0.24641 0.7641 0.0
O597 O 0.84145 0.26371 0.77502 0.0
O598 O 0.86544 0.32311 0.75694 0.0
O599 O 0.84341 0.33961 0.72037 0.0
O600 O 0.78432 0.37128 0.72924 0.0
O601 O 0.74269 0.27869 0.77407 0.0
O602 O 0.77673 0.37421 0.7742 0.0
O603 O 0.73967 0.32166 0.78863 0.0
C604 C 0.7751 0.28981 0.69321 0.0
C605 C 0.81502 0.32238 0.83384 0.0
C606 C 0.86558 0.3349 0.73346 0.0
C607 C 0.82563 0.24319 0.7705 0.0
C608 C 0.77693 0.38494 0.75035 0.0
C609 C 0.72912 0.29796 0.78505 0.0
O610 O 0.78855 0.31237 0.69413 0.0
O611 O 0.71233 0.79517 0.73558 0.0
Zn612 Zn 0.74797 0.7779 0.74462 0.0
O613 O 0.77574 0.789 0.71858 0.0
Zn614 Zn 0.79466 0.75642 0.70568 0.0
Zn615 Zn 0.75945 0.80855 0.68802 0.0
Zn616 Zn 0.80084 0.81272 0.73774 0.0
O617 O 0.83073 0.75194 0.72575 0.0
O618 O 0.83589 0.79348 0.74422 0.0
O619 O 0.74021 0.73769 0.74193 0.0
O620 O 0.7713 0.72244 0.71257 0.0
O621 O 0.79932 0.75775 0.66464 0.0
O622 O 0.7675 0.78819 0.65309 0.0
O623 O 0.77383 0.84781 0.68552 0.0
O624 O 0.75764 0.78783 0.78324 0.0
O625 O 0.8062 0.84817 0.71797 0.0
O626 O 0.78825 0.82102 0.77613 0.0
C627 C 0.70297 0.80444 0.71305 0.0
C628 C 0.84437 0.7692 0.74015 0.0
C629 C 0.78454 0.76958 0.64659 0.0
C630 C 0.75038 0.71834 0.72776 0.0
C631 C 0.79338 0.85974 0.6984 0.0
C632 C 0.7728 0.80726 0.79221 0.0
O633 O 0.71839 0.80885 0.69234 0.0
O634 O 0.4379 0.59916 0.52604 0.0
Zn635 Zn 0.45228 0.56567 0.50655 0.0
O636 O 0.44175 0.53198 0.52623 0.0
Zn637 Zn 0.47367 0.50988 0.5339 0.0
Zn638 Zn 0.42295 0.54036 0.56068 0.0
Zn639 Zn 0.41806 0.51055 0.50294 0.0
O640 O 0.47219 0.47272 0.51678 0.0
O641 O 0.43029 0.47151 0.49916 0.0
O642 O 0.49337 0.56985 0.50734 0.0
O643 O 0.50769 0.52933 0.5222 0.0
O644 O 0.47867 0.50467 0.57404 0.0
O645 O 0.4457 0.52885 0.59379 0.0
O646 O 0.3846 0.52323 0.5616 0.0
O647 O 0.44086 0.56474 0.46629 0.0
O648 O 0.3804 0.50983 0.51798 0.0
O649 O 0.41798 0.52513 0.46482 0.0
C650 C 0.42653 0.60193 0.54947 0.0
C651 C 0.45291 0.45987 0.50456 0.0
C652 C 0.46709 0.51407 0.59539 0.0
C653 C 0.51266 0.55344 0.51338 0.0
C654 C 0.37022 0.51368 0.54175 0.0
C655 C 0.42773 0.5463 0.45291 0.0
O656 O 0.42002 0.58118 0.56412 0.0
O657 O 0.0253 0.44033 0.02449 0.0
Zn658 Zn 0.02403 0.47814 0.00831 0.0
O659 O 0.04349 0.50421 0.03223 0.0
Zn660 Zn 0.0189 0.53352 0.04286 0.0
Zn661 Zn 0.05755 0.48611 0.06534 0.0
Zn662 Zn 0.07338 0.52017 0.01183 0.0
O663 O 0.02782 0.56903 0.02387 0.0
O664 O 0.06834 0.56046 0.00519 0.0
O665 O 0.98383 0.48695 0.00634 0.0
O666 O 0.98031 0.52333 0.03361 0.0
O667 O 0.01755 0.53819 0.08355 0.0
O668 O 0.04029 0.50203 0.09911 0.0
O669 O 0.09895 0.48965 0.0691 0.0
O670 O 0.03991 0.47644 0.97015 0.0
O671 O 0.10844 0.51349 0.03113 0.0
O672 O 0.07633 0.50373 0.97446 0.0
C673 C 0.03372 0.43106 0.04743 0.0
C674 C 0.04865 0.57675 0.01002 0.0
C675 C 0.02539 0.52294 0.10324 0.0
C676 C 0.96941 0.50483 0.01863 0.0
C677 C 0.116 0.50127 0.05293 0.0
C678 C 0.06149 0.48748 0.96021 0.0
O679 O 0.04601 0.44631 0.06495 0.0
H680 H 0.96807 0.14331 0.13302 0.0
H681 H 0.9822 0.18159 0.05422 0.0
H682 H 0.97883 0.13678 0.03151 0.0
H683 H 0.97554 0.08658 0.03476 0.0
H684 H 0.96017 0.0484 0.11346 0.0
H685 H 0.95967 0.09351 0.13554 0.0
C686 C 0.97029 0.14178 0.11086 0.0
C687 C 0.97586 0.16546 0.09528 0.0
C688 C 0.96795 0.1161 0.098 0.0
C689 C 0.97811 0.16349 0.06657 0.0
C690 C 0.97619 0.13794 0.05362 0.0
C691 C 0.97169 0.08818 0.05669 0.0
C692 C 0.96821 0.06425 0.07253 0.0
C693 C 0.97161 0.11409 0.06922 0.0
C694 C 0.96286 0.06656 0.10083 0.0
C695 C 0.96281 0.09231 0.1135 0.0
H696 H 0.05931 0.71406 0.32168 0.0
H697 H 0.05046 0.80164 0.332 0.0
H698 H 0.08629 0.81 0.29815 0.0
H699 H 0.12238 0.79282 0.26855 0.0
H700 H 0.13318 0.70549 0.25853 0.0
H701 H 0.09392 0.69668 0.28879 0.0
C702 C 0.06511 0.73493 0.31631 0.0
C703 C 0.05245 0.75718 0.32957 0.0
C704 C 0.08602 0.73967 0.29686 0.0
C705 C 0.06004 0.78414 0.3223 0.0
C706 C 0.08051 0.78897 0.3029 0.0
C707 C 0.11604 0.7718 0.27269 0.0
C708 C 0.13093 0.74986 0.26152 0.0
C709 C 0.09397 0.76693 0.29048 0.0
C710 C 0.12212 0.72279 0.26687 0.0
C711 C 0.09979 0.71774 0.28434 0.0
H712 H 0.50234 0.82849 0.59824 0.0
H713 H 0.49183 0.86498 0.67848 0.0
H714 H 0.50242 0.91032 0.65954 0.0
H715 H 0.51442 0.93944 0.62026 0.0
H716 H 0.52347 0.90329 0.5397 0.0
H717 H 0.51426 0.85769 0.55887 0.0
C718 C 0.50216 0.8464 0.61153 0.0
C719 C 0.49621 0.84347 0.63965 0.0
C720 C 0.50845 0.8723 0.60057 0.0
C721 C 0.4962 0.86678 0.6567 0.0
C722 C 0.50243 0.89265 0.64594 0.0
C723 C 0.51485 0.92152 0.60698 0.0
C724 C 0.51988 0.9246 0.57868 0.0
C725 C 0.50875 0.8956 0.61796 0.0
C726 C 0.51978 0.90132 0.56159 0.0
C727 C 0.51436 0.87532 0.57249 0.0
H728 H 0.45203 0.18929 0.814 0.0
H729 H 0.4869 0.24837 0.75759 0.0
H730 H 0.44358 0.24977 0.73207 0.0
H731 H 0.39368 0.23987 0.73076 0.0
H732 H 0.35849 0.18496 0.79087 0.0
H733 H 0.40395 0.17604 0.81002 0.0
C734 C 0.45038 0.20194 0.79571 0.0
C735 C 0.4724 0.21891 0.78781 0.0
C736 C 0.42515 0.20368 0.78211 0.0
C737 C 0.47004 0.23525 0.76411 0.0
C738 C 0.44526 0.2362 0.74965 0.0
C739 C 0.39628 0.22555 0.74764 0.0
C740 C 0.37319 0.21307 0.7596 0.0
C741 C 0.42233 0.22142 0.75921 0.0
C742 C 0.37628 0.19474 0.78159 0.0
C743 C 0.40216 0.1897 0.79251 0.0
H744 H 0.96179 0.82497 0.44365 0.0
H745 H 0.04467 0.79991 0.46142 0.0
H746 H 0.04927 0.83666 0.49542 0.0
H747 H 0.03104 0.87814 0.51726 0.0
H748 H 0.94938 0.905 0.49704 0.0
H749 H 0.94269 0.86492 0.46735 0.0
C750 C 0.98081 0.82749 0.45507 0.0
C751 C 0.00294 0.80999 0.44987 0.0
C752 C 0.98342 0.84884 0.47431 0.0
C753 C 0.02742 0.81335 0.46488 0.0
C754 C 0.03004 0.83427 0.48439 0.0
C755 C 0.01155 0.87478 0.5069 0.0
C756 C 0.99067 0.8943 0.50936 0.0
C757 C 0.00832 0.85238 0.48898 0.0
C758 C 0.96569 0.89011 0.49544 0.0
C759 C 0.96194 0.86735 0.47833 0.0
H760 H 0.43762 0.70734 0.71386 0.0
H761 H 0.42837 0.78685 0.75154 0.0
H762 H 0.38154 0.77466 0.76552 0.0
H763 H 0.3413 0.74557 0.75836 0.0
H764 H 0.34828 0.66961 0.71307 0.0
H765 H 0.39811 0.67595 0.7108 0.0
C766 C 0.42563 0.7215 0.72611 0.0
C767 C 0.43619 0.74778 0.73204 0.0
C768 C 0.39818 0.71516 0.73199 0.0
C769 C 0.42049 0.76642 0.74712 0.0
C770 C 0.39372 0.75954 0.75479 0.0
C771 C 0.35373 0.73001 0.74856 0.0
C772 C 0.34113 0.70731 0.73557 0.0
C773 C 0.38197 0.73458 0.74602 0.0
C774 C 0.35753 0.6874 0.72293 0.0
C775 C 0.38597 0.69105 0.72161 0.0
H776 H 0.57057 0.16551 0.90542 0.0
H777 H 0.48763 0.19025 0.92355 0.0
H778 H 0.48459 0.15599 0.9598 0.0
H779 H 0.50298 0.11559 0.98208 0.0
H780 H 0.58455 0.08805 0.96306 0.0
H781 H 0.59117 0.12748 0.93213 0.0
C782 C 0.55197 0.16349 0.91751 0.0
C783 C 0.52916 0.17994 0.91148 0.0
C784 C 0.55022 0.14344 0.93823 0.0
C785 C 0.50529 0.17747 0.92748 0.0
C786 C 0.50355 0.15799 0.9483 0.0
C787 C 0.52246 0.11862 0.97162 0.0
C788 C 0.54314 0.099 0.97442 0.0
C789 C 0.52555 0.14041 0.95326 0.0
C790 C 0.56841 0.10309 0.96119 0.0
C791 C 0.57201 0.12536 0.94325 0.0
H792 H 0.0541 0.26233 0.20317 0.0
H793 H 0.08376 0.24432 0.12153 0.0
H794 H 0.12975 0.25986 0.13469 0.0
H795 H 0.16156 0.27752 0.16957 0.0
H796 H 0.13247 0.29386 0.25176 0.0
H797 H 0.08589 0.28063 0.23797 0.0
C798 C 0.07069 0.26164 0.18833 0.0
C799 C 0.06566 0.25202 0.16151 0.0
C800 C 0.09697 0.27072 0.19598 0.0
C801 C 0.08722 0.25144 0.14238 0.0
C802 C 0.11345 0.26049 0.14982 0.0
C803 C 0.14493 0.27872 0.18433 0.0
C804 C 0.15033 0.28685 0.21157 0.0
C805 C 0.11852 0.27021 0.17653 0.0
C806 C 0.12872 0.28777 0.23063 0.0
C807 C 0.10217 0.28003 0.22282 0.0
H808 H 0.0907 0.95848 0.21088 0.0
H809 H 0.04477 0.03298 0.22169 0.0
H810 H 0.01546 0.0207 0.18252 0.0
H811 H 0.00667 0.99174 0.14247 0.0
H812 H 0.05663 0.92056 0.12767 0.0
H813 H 0.08047 0.92821 0.17152 0.0
C814 C 0.07392 0.97171 0.2049 0.0
C815 C 0.0697 -0.00347 0.219 0.0
C816 C 0.05807 0.96512 0.18167 0.0
C817 C 0.0483 0.01382 0.21096 0.0
C818 C 0.03162 0.0068 0.18863 0.0
C819 C 0.02231 0.97747 0.14914 0.0
C820 C 0.02983 0.95551 0.13201 0.0
C821 C 0.03681 0.98289 0.17344 0.0
C822 C 0.0505 0.93755 0.14062 0.0
C823 C 0.06418 0.94202 0.16556 0.0
H824 H 0.28766 0.82097 0.41072 0.0
H825 H 0.22171 0.87943 0.40772 0.0
H826 H 0.2102 0.86446 0.36094 0.0
H827 H 0.21859 0.83416 0.32139 0.0
H828 H 0.28509 0.77617 0.32484 0.0
H829 H 0.29663 0.79159 0.37117 0.0
C830 C 0.2708 0.83051 0.39982 0.0
C831 C 0.25548 0.85118 0.41259 0.0
C832 C 0.26434 0.82181 0.37314 0.0
C833 C 0.23379 0.86345 0.39823 0.0
C834 C 0.22717 0.85486 0.37156 0.0
C835 C 0.23554 0.82483 0.33232 0.0
C836 C 0.25086 0.80396 0.31973 0.0
C837 C 0.24222 0.83392 0.35891 0.0
C838 C 0.27295 0.79227 0.33405 0.0
C839 C 0.27958 0.80106 0.36054 0.0
H840 H 0.39159 0.03934 0.70006 0.0
H841 H 0.43219 0.96356 0.72021 0.0
H842 H 0.46788 0.97367 0.68633 0.0
H843 H 0.48511 0.00183 0.64854 0.0
H844 H 0.44215 0.07522 0.62476 0.0
H845 H 0.41004 0.06864 0.66301 0.0
C846 C 0.40842 0.02521 0.69718 0.0
C847 C 0.40928 0.00069 0.71244 0.0
C848 C 0.42843 0.03081 0.67716 0.0
C849 C 0.43103 0.98244 0.70849 0.0
C850 C 0.45146 0.98826 0.68922 0.0
C851 C 0.46914 0.0168 0.65209 0.0
C852 C 0.4661 0.03911 0.63398 0.0
C853 C 0.45008 0.01213 0.67313 0.0
C854 C 0.44494 0.05797 0.63852 0.0
C855 C 0.42651 0.05409 0.66024 0.0
H856 H 0.24333 0.19317 0.93151 0.0
H857 H 0.22929 0.111 0.90093 0.0
H858 H 0.22657 0.12857 0.85384 0.0
H859 H 0.23253 0.16688 0.82105 0.0
H860 H 0.25085 0.24804 0.85181 0.0
H861 H 0.24697 0.23152 0.8992 0.0
C862 C 0.2394 0.17914 0.91456 0.0
C863 C 0.23671 0.15085 0.9196 0.0
C864 C 0.2385 0.18929 0.8876 0.0
C865 C 0.23165 0.13288 0.89749 0.0
C866 C 0.23004 0.14291 0.87059 0.0
C867 C 0.23491 0.18095 0.83823 0.0
C868 C 0.2416 0.2086 0.83325 0.0
C869 C 0.23396 0.17101 0.86535 0.0
C870 C 0.24544 0.2267 0.85543 0.0
C871 C 0.24342 0.21723 0.88243 0.0
H872 H 0.05977 0.00652 0.34475 0.0
H873 H 0.14294 0.01646 0.37414 0.0
H874 H 0.1268 0.01459 0.42166 0.0
H875 H 0.08927 0.01027 0.45464 0.0
H876 H 0.00605 -0.00066 0.42559 0.0
H877 H 0.02208 0.0016 0.37799 0.0
C878 C 0.07435 0.0082 0.36158 0.0
C879 C 0.10248 0.01163 0.35601 0.0
C880 C 0.06494 0.00707 0.38881 0.0
C881 C 0.12118 0.01376 0.37794 0.0
C882 C 0.11197 0.01276 0.40509 0.0
C883 C 0.07455 0.00854 0.43794 0.0
C884 C 0.04648 0.00479 0.44367 0.0
C885 C 0.08391 0.00952 0.41073 0.0
C886 C 0.02778 0.00227 0.42174 0.0
C887 C 0.03692 0.00353 0.39453 0.0
H888 H 0.24637 0.7867 0.53363 0.0
H889 H 0.3225 0.81898 0.56623 0.0
H890 H 0.32009 0.7862 0.60442 0.0
H891 H 0.29281 0.75336 0.63176 0.0
H892 H 0.21344 0.72675 0.60236 0.0
H893 H 0.22066 0.75192 0.55928 0.0
C894 C 0.26275 0.78614 0.54877 0.0
C895 C 0.28456 0.80517 0.54728 0.0
C896 C 0.26045 0.76833 0.57124 0.0
C897 C 0.30549 0.80452 0.56712 0.0
C898 C 0.30406 0.78587 0.58894 0.0
C899 C 0.27755 0.7525 0.61548 0.0
C900 C 0.25282 0.73812 0.61975 0.0
C901 C 0.28116 0.76836 0.59168 0.0
C902 C 0.2327 0.73758 0.59912 0.0
C903 C 0.23677 0.75207 0.57469 0.0
H904 H 0.41217 0.95253 0.83575 0.0
H905 H 0.37769 0.03322 0.84635 0.0
H906 H 0.40706 0.04117 0.88629 0.0
H907 H 0.44202 0.02534 0.91811 0.0
H908 H 0.47629 0.94437 0.9089 0.0
H909 H 0.44754 0.93646 0.86822 0.0
C910 C 0.41108 0.97181 0.84687 0.0
C911 C 0.39278 0.99225 0.83817 0.0
C912 C 0.42802 0.97625 0.86988 0.0
C913 C 0.39155 0.01715 0.8527 0.0
C914 C 0.40838 0.02174 0.87549 0.0
C915 C 0.44343 0.00597 0.90718 0.0
C916 C 0.4614 0.98551 0.91651 0.0
C917 C 0.42667 0.00146 0.8842 0.0
C918 C 0.46268 0.96049 0.90214 0.0
C919 C 0.44621 0.95594 0.87893 0.0
H920 H 0.25067 0.20711 0.05097 0.0
H921 H 0.26805 0.13219 0.09491 0.0
H922 H 0.27666 0.15826 0.13689 0.0
H923 H 0.27662 0.20163 0.16167 0.0
H924 H 0.25668 0.27668 0.1191 0.0
H925 H 0.25225 0.25129 0.07583 0.0
C926 C 0.25641 0.19657 0.06974 0.0
C927 C 0.2585 0.1678 0.06995 0.0
C928 C 0.26104 0.21167 0.09395 0.0
C929 C 0.26604 0.15432 0.09433 0.0
C930 C 0.27109 0.1692 0.11831 0.0
C931 C 0.27177 0.2126 0.14288 0.0
C932 C 0.26698 0.241 0.14361 0.0
C933 C 0.26835 0.19781 0.11841 0.0
C934 C 0.26045 0.25478 0.11908 0.0
C935 C 0.25777 0.24027 0.09437 0.0
H936 H 0.18951 0.03989 0.01089 0.0
H937 H 0.14911 0.11822 0.00513 0.0
H938 H 0.10445 0.09552 0.00849 0.0
H939 H 0.07699 0.05381 0.01347 0.0
H940 H 0.11668 0.97531 0.02142 0.0
H941 H 0.16164 -0.00228 0.01674 0.0
C942 C 0.1709 0.05192 0.01035 0.0
C943 C 0.17252 0.08063 0.00773 0.0
C944 C 0.14525 0.03875 0.01263 0.0
C945 C 0.14834 0.09607 0.00722 0.0
C946 C 0.12281 0.08313 0.00907 0.0
C947 C 0.09544 0.04152 0.01398 0.0
C948 C 0.09354 0.01295 0.01758 0.0
C949 C 0.12105 0.05453 0.01179 0.0
C950 C 0.11765 -0.00262 0.01864 0.0
C951 C 0.14333 0.01016 0.01597 0.0
H952 H 0.68893 0.38745 0.02519 0.0
H953 H 0.72095 0.46965 0.01419 0.0
H954 H 0.67427 0.48774 0.01384 0.0
H955 H 0.62459 0.47999 0.01621 0.0
H956 H 0.59277 0.39773 0.02842 0.0
H957 H 0.63935 0.37991 0.02917 0.0
C958 C 0.68566 0.40931 0.02255 0.0
C959 C 0.70819 0.42721 0.01944 0.0
C960 C 0.65891 0.41955 0.02285 0.0
C961 C 0.7038 0.45551 0.01648 0.0
C962 C 0.67718 0.46584 0.01635 0.0
C963 C 0.6278 0.45817 0.01918 0.0
C964 C 0.60519 0.44023 0.02213 0.0
C965 C 0.6546 0.44803 0.01952 0.0
C966 C 0.60978 0.41204 0.02613 0.0
C967 C 0.6364 0.40178 0.02642 0.0
H968 H 0.81577 0.44042 0.29968 0.0
H969 H 0.88731 0.40215 0.26491 0.0
H970 H 0.86573 0.35684 0.27033 0.0
H971 H 0.82502 0.32881 0.28125 0.0
H972 H 0.75197 0.36788 0.31161 0.0
H973 H 0.77579 0.41235 0.31205 0.0
C974 C 0.82676 0.42213 0.29358 0.0
C975 C 0.853 0.42449 0.28186 0.0
C976 C 0.81394 0.3964 0.29599 0.0
C977 C 0.86699 0.40073 0.27385 0.0
C978 C 0.85469 0.37489 0.27697 0.0
C979 C 0.81455 0.347 0.2885 0.0
C980 C 0.78691 0.34523 0.29654 0.0
C981 C 0.82798 0.37256 0.28753 0.0
C982 C 0.77329 0.36891 0.30537 0.0
C983 C 0.78685 0.39427 0.30552 0.0
H984 H 0.77452 0.52362 0.55192 0.0
H985 H 0.78655 0.59771 0.59934 0.0
H986 H 0.83303 0.58368 0.61103 0.0
H987 H 0.87298 0.55588 0.59826 0.0
H988 H 0.86101 0.48134 0.55181 0.0
H989 H 0.8116 0.4896 0.54965 0.0
C990 C 0.78703 0.53615 0.56562 0.0
C991 C 0.77755 0.56192 0.57418 0.0
C992 C 0.81383 0.52807 0.57206 0.0
C993 C 0.79359 0.57787 0.5923 0.0
C994 C 0.82026 0.56999 0.59879 0.0
C995 C 0.8593 0.54096 0.58869 0.0
C996 C 0.87031 0.51831 0.57491 0.0
C997 C 0.83107 0.54597 0.5874 0.0
C998 C 0.85272 0.4989 0.56258 0.0
C999 C 0.82457 0.50378 0.5611 0.0
H1000 H 0.20264 0.08707 0.2654 0.0
H1001 H 0.12186 0.12029 0.27834 0.0
H1002 H 0.14109 0.16684 0.27861 0.0
H1003 H 0.18046 0.19792 0.27361 0.0
H1004 H 0.26109 0.16488 0.25901 0.0
H1005 H 0.24228 0.11823 0.26139 0.0
C1006 C 0.18925 0.10451 0.26829 0.0
C1007 C 0.16088 0.10033 0.27171 0.0
C1008 C 0.20042 0.13113 0.26832 0.0
C1009 C 0.14376 0.12305 0.27552 0.0
C1010 C 0.15475 0.14962 0.27576 0.0
C1011 C 0.19404 0.18054 0.27133 0.0
C1012 C 0.22216 0.18487 0.26619 0.0
C1013 C 0.18301 0.15388 0.27206 0.0
C1014 C 0.23937 0.1621 0.26298 0.0
C1015 C 0.22862 0.13544 0.26423 0.0
H1016 H 0.32497 0.95354 0.51749 0.0
H1017 H 0.36424 0.89489 0.46414 0.0
H1018 H 0.40616 0.92258 0.46436 0.0
H1019 H 0.43277 0.96098 0.48274 0.0
H1020 H 0.39461 0.01949 0.537 0.0
H1021 H 0.35085 -0.00529 0.53275 0.0
C1022 C 0.34267 0.94696 0.50579 0.0
C1023 C 0.34168 0.92203 0.49115 0.0
C1024 C 0.36681 0.96297 0.50605 0.0
C1025 C 0.36459 0.91388 0.47578 0.0
C1026 C 0.38856 0.9297 0.47585 0.0
C1027 C 0.41481 0.96857 0.49339 0.0
C1028 C 0.41702 0.99182 0.51045 0.0
C1029 C 0.39005 0.95394 0.49136 0.0
C1030 C 0.39346 0.00161 0.52375 0.0
C1031 C 0.3685 0.98731 0.52152 0.0
H1032 H 0.85347 0.58745 0.22571 0.0
H1033 H 0.79 0.534 0.25756 0.0
H1034 H 0.75619 0.57042 0.25193 0.0
H1035 H 0.74669 0.61927 0.24458 0.0
H1036 H 0.81076 0.67266 0.21325 0.0
H1037 H 0.84214 0.63414 0.21131 0.0
C1038 C 0.83214 0.58371 0.23104 0.0
C1039 C 0.82421 0.55849 0.24259 0.0
C1040 C 0.81298 0.60469 0.22789 0.0
C1041 C 0.79651 0.55348 0.24887 0.0
C1042 C 0.77723 0.57428 0.24573 0.0
C1043 C 0.76731 0.62239 0.23673 0.0
C1044 C 0.77656 0.64895 0.2298 0.0
C1045 C 0.78549 0.60028 0.23621 0.0
C1046 C 0.80321 0.65252 0.21921 0.0
C1047 C 0.82127 0.63054 0.2182 0.0
H1048 H 0.70947 0.49173 0.76835 0.0
H1049 H 0.6794 0.47027 0.68754 0.0
H1050 H 0.71369 0.434 0.68407 0.0
H1051 H 0.74839 0.40488 0.70658 0.0
H1052 H 0.77676 0.4259 0.78815 0.0
H1053 H 0.74746 0.4662 0.78849 0.0
C1054 C 0.71061 0.47931 0.74984 0.0
C1055 C 0.69169 0.48334 0.72843 0.0
C1056 C 0.73014 0.45842 0.74812 0.0
C1057 C 0.69364 0.46738 0.70442 0.0
C1058 C 0.71322 0.44663 0.70243 0.0
C1059 C 0.74871 0.41875 0.72406 0.0
C1060 C 0.76454 0.41235 0.74738 0.0
C1061 C 0.7311 0.44148 0.72448 0.0
C1062 C 0.76458 0.43032 0.77003 0.0
C1063 C 0.74772 0.45328 0.77031 0.0
H1064 H 0.04759 0.79441 0.94689 0.0
H1065 H 0.01925 0.83826 0.8752 0.0
H1066 H 0.02011 0.88119 0.90096 0.0
H1067 H 0.02265 0.90482 0.94499 0.0
H1068 H 0.04905 0.8617 0.01768 0.0
H1069 H 0.05583 0.81989 0.99027 0.0
C1070 C 0.04213 0.81348 0.93682 0.0
C1071 C 0.03294 0.81318 0.90935 0.0
C1072 C 0.04214 0.83807 0.95196 0.0
C1073 C 0.02606 0.83796 0.89643 0.0
C1074 C 0.02651 0.8625 0.91114 0.0
C1075 C 0.0303 0.88635 0.95476 0.0
C1076 C 0.03489 0.88601 0.98327 0.0
C1077 C 0.03352 0.86256 0.9391 0.0
C1078 C 0.04531 0.86228 -0.0043 0.0
C1079 C 0.04896 0.83839 0.98009 0.0
H1080 H 0.98166 0.31499 0.68274 0.0
H1081 H 0.93332 0.31938 0.60848 0.0
H1082 H 0.89417 0.33611 0.6347 0.0
H1083 H 0.87204 0.3427 0.67885 0.0
H1084 H 0.9181 0.33255 0.75409 0.0
H1085 H 0.96004 0.32565 0.72741 0.0
C1086 C 0.96268 0.32017 0.67236 0.0
C1087 C 0.96012 0.31583 0.64387 0.0
C1088 C 0.93989 0.32862 0.68775 0.0
C1089 C 0.9355 0.32234 0.63049 0.0
C1090 C 0.91319 0.33191 0.64544 0.0
C1091 C 0.89133 0.33966 0.68956 0.0
C1092 C 0.89185 0.33784 0.71845 0.0
C1093 C 0.91487 0.33416 0.67416 0.0
C1094 C 0.91709 0.33385 0.73186 0.0
C1095 C 0.94103 0.32971 0.71661 0.0
H1096 H 0.52114 0.20185 0.4486 0.0
H1097 H 0.43304 0.20351 0.45611 0.0
H1098 H 0.43422 0.16276 0.48586 0.0
H1099 H 0.46055 0.12487 0.50698 0.0
H1100 H 0.54895 0.12518 0.49946 0.0
H1101 H 0.54737 0.16724 0.47281 0.0
C1102 C 0.50218 0.19331 0.45679 0.0
C1103 C 0.47703 0.20521 0.4499 0.0
C1104 C 0.50309 0.17032 0.47394 0.0
C1105 C 0.45265 0.19443 0.46106 0.0
C1106 C 0.45333 0.17119 0.47802 0.0
C1107 C 0.47946 0.13441 0.49988 0.0
C1108 C 0.50477 0.12162 0.50489 0.0
C1109 C 0.47847 0.15871 0.48428 0.0
C1110 C 0.52912 0.13431 0.49562 0.0
C1111 C 0.52829 0.15839 0.48031 0.0
H1112 H 0.54057 0.73096 0.20363 0.0
H1113 H 0.58454 0.71004 0.12965 0.0
H1114 H 0.62518 0.69901 0.15672 0.0
H1115 H 0.64949 0.69934 0.2008 0.0
H1116 H 0.60793 0.72605 0.27405 0.0
H1117 H 0.56481 0.73011 0.24826 0.0
C1118 C 0.55904 0.72382 0.19356 0.0
C1119 C 0.55976 0.72151 0.16477 0.0
C1120 C 0.58261 0.71829 0.2092 0.0
C1121 C 0.58373 0.71233 0.15181 0.0
C1122 C 0.60688 0.70585 0.16726 0.0
C1123 C 0.63072 0.70521 0.21117 0.0
C1124 C 0.63143 0.71181 0.23922 0.0
C1125 C 0.6067 0.70919 0.19589 0.0
C1126 C 0.60745 0.7204 0.25249 0.0
C1127 C 0.58299 0.723 0.2377 0.0
H1128 H 0.05381 0.19045 0.56123 0.0
H1129 H 0.97919 0.18538 0.6089 0.0
H1130 H 0.97911 0.13549 0.60479 0.0
H1131 H -3e-05 0.09381 0.58802 0.0
H1132 H 0.0743 0.09775 0.53978 0.0
H1133 H 0.07496 0.14789 0.54413 0.0
C1134 C 0.03746 0.17838 0.57054 0.0
C1135 C 0.01648 0.19148 0.58526 0.0
C1136 C 0.03764 0.14968 0.56827 0.0
C1137 C -0.00449 0.17571 0.59741 0.0
C1138 C -0.00451 0.14722 0.59516 0.0
C1139 C 0.01648 0.10549 0.57851 0.0
C1140 C 0.03709 0.09203 0.56361 0.0
C1141 C 0.01649 0.13406 0.58076 0.0
C1142 C 0.05822 0.10762 0.55142 0.0
C1143 C 0.05854 0.13626 0.55381 0.0
H1144 H 0.54815 0.30368 0.33085 0.0
H1145 H 0.57772 0.27325 0.40883 0.0
H1146 H 0.62467 0.27476 0.39185 0.0
H1147 H 0.65644 0.2795 0.35355 0.0
H1148 H 0.62807 0.30914 0.27505 0.0
H1149 H 0.5815 0.31386 0.29369 0.0
C1150 C 0.56494 0.29772 0.34418 0.0
C1151 C 0.55947 0.28793 0.37088 0.0
C1152 C 0.592 0.2985 0.33421 0.0
C1153 C 0.58138 0.28058 0.3881 0.0
C1154 C 0.60824 0.28143 0.37843 0.0
C1155 C 0.64013 0.28746 0.34067 0.0
C1156 C 0.64539 0.29365 0.31297 0.0
C1157 C 0.61364 0.28959 0.35133 0.0
C1158 C 0.62436 0.30431 0.29649 0.0
C1159 C 0.59776 0.30673 0.30707 0.0
H1160 H 0.4826 0.83224 0.1104 0.0
H1161 H 0.50848 0.79388 0.03485 0.0
H1162 H 0.50594 0.83805 0.01099 0.0
H1163 H 0.49775 0.88757 0.01221 0.0
H1164 H 0.47088 0.92557 0.0878 0.0
H1165 H 0.47177 0.88121 0.11093 0.0
C1166 C 0.48783 0.83363 0.08875 0.0
C1167 C 0.49611 0.81012 0.07441 0.0
C1168 C 0.4858 0.85884 0.07515 0.0
C1169 C 0.50228 0.8119 0.04627 0.0
C1170 C 0.50073 0.83706 0.03264 0.0
C1171 C 0.49177 0.88614 0.03366 0.0
C1172 C 0.48447 0.90991 0.04828 0.0
C1173 C 0.49261 0.86066 0.04693 0.0
C1174 C 0.47663 0.90763 0.07603 0.0
C1175 C 0.4773 0.8823 0.08935 0.0
H1176 H 0.94576 0.71729 0.80119 0.0
H1177 H 0.9214 0.77663 0.86237 0.0
H1178 H 0.88333 0.79083 0.83324 0.0
H1179 H 0.85875 0.78825 0.78981 0.0
H1180 H 0.88127 0.72838 0.72857 0.0
H1181 H 0.91878 0.71261 0.75833 0.0
C1182 C 0.93186 0.73303 0.80829 0.0
C1183 C 0.93642 0.74602 0.83381 0.0
C1184 C 0.91017 0.74132 0.79128 0.0
C1185 C 0.91829 0.76635 0.84281 0.0
C1186 C 0.89666 0.77462 0.8261 0.0
C1187 C 0.87204 0.77194 0.78276 0.0
C1188 C 0.86779 0.75991 0.75679 0.0
C1189 C 0.89284 0.76267 0.80011 0.0
C1190 C 0.88452 0.73818 0.74835 0.0
C1191 C 0.90579 0.72912 0.76539 0.0
H1192 H 0.92937 0.04903 0.85658 0.0
H1193 H 0.87981 0.97508 0.85438 0.0
H1194 H 0.89854 0.96101 0.8988 0.0
H1195 H 0.93041 0.96874 0.93702 0.0
H1196 H 0.98048 0.04245 0.939 0.0
H1197 H 0.96005 0.05759 0.89577 0.0
C1198 C 0.92251 0.02994 0.86594 0.0
C1199 C 0.90334 0.01306 0.85224 0.0
C1200 C 0.93357 0.02186 0.89128 0.0
C1201 C 0.8946 0.9884 0.86456 0.0
C1202 C 0.90535 0.98031 0.88989 0.0
C1203 C 0.93686 0.98815 0.92807 0.0
C1204 C 0.95709 0.00433 0.94116 0.0
C1205 C 0.9251 -0.00329 0.90323 0.0
C1206 C 0.96502 0.02953 0.92932 0.0
C1207 C 0.95336 0.03822 0.9046 0.0
H1208 H 0.73694 0.20652 0.60377 0.0
H1209 H 0.82075 0.21841 0.57751 0.0
H1210 H 0.82623 0.25647 0.61001 0.0
H1211 H 0.80893 0.28216 0.65004 0.0
H1212 H 0.72647 0.26708 0.67855 0.0
H1213 H 0.71835 0.23505 0.64057 0.0
C1214 C 0.7563 0.21766 0.60492 0.0
C1215 C 0.77852 0.20946 0.5886 0.0
C1216 C 0.75945 0.23906 0.62399 0.0
C1217 C 0.80343 0.22418 0.59013 0.0
C1218 C 0.80656 0.24595 0.60866 0.0
C1219 C 0.78895 0.27251 0.64727 0.0
C1220 C 0.76822 0.27696 0.66674 0.0
C1221 C 0.78495 0.25307 0.62623 0.0
C1222 C 0.74258 0.26396 0.66355 0.0
C1223 C 0.73805 0.2455 0.64204 0.0
H1224 H 0.56855 0.96999 0.35045 0.0
H1225 H 0.63074 0.03266 0.36224 0.0
H1226 H 0.61485 0.04021 0.4092 0.0
H1227 H 0.58326 0.02934 0.4466 0.0
H1228 H 0.52166 0.96587 0.43576 0.0
H1229 H 0.53755 0.95811 0.38872 0.0
C1230 C 0.57853 0.98534 0.36332 0.0
C1231 C 0.60064 0.00087 0.35294 0.0
C1232 C 0.56951 0.98933 0.39042 0.0
C1233 C 0.61364 0.02048 0.36983 0.0
C1234 C 0.60458 0.02481 0.39666 0.0
C1235 C 0.57327 0.01378 0.43399 0.0
C1236 C 0.55122 -0.00168 0.44462 0.0
C1237 C 0.58254 0.00938 0.40712 0.0
C1238 C 0.53871 0.97805 0.42808 0.0
C1239 C 0.54772 0.97366 0.40116 0.0
H1240 H 0.70505 0.82547 0.09336 0.0
H1241 H 0.76457 0.76691 0.06482 0.0
H1242 H 0.76891 0.74848 0.11142 0.0
H1243 H 0.7575 0.75079 0.16062 0.0
H1244 H 0.6975 0.80911 0.18869 0.0
H1245 H 0.69191 0.82618 0.14182 0.0
C1246 C 0.71872 0.80844 0.09727 0.0
C1247 C 0.73455 0.79761 0.07581 0.0
C1248 C 0.72138 0.79827 0.12404 0.0
C1249 C 0.75211 0.77552 0.08108 0.0
C1250 C 0.75477 0.76514 0.10772 0.0
C1251 C 0.74338 0.76738 0.15646 0.0
C1252 C 0.7282 0.77895 0.17804 0.0
C1253 C 0.73991 0.77674 0.12943 0.0
C1254 C 0.70952 0.80001 0.17237 0.0
C1255 C 0.70624 0.80971 0.14561 0.0
H1256 H 0.93606 0.96737 0.72194 0.0
H1257 H 0.96937 0.0494 0.73041 0.0
H1258 H 0.00406 0.03951 0.69576 0.0
H1259 H 0.01842 0.01124 0.65722 0.0
H1260 H 0.98187 0.93138 0.64424 0.0
H1261 H 0.95574 0.93603 0.68713 0.0
C1262 C 0.95138 0.98278 0.71663 0.0
C1263 C 0.95001 0.00922 0.72829 0.0
C1264 C 0.97061 0.97726 0.69585 0.0
C1265 C 0.96986 0.02907 0.72135 0.0
C1266 C 0.98969 0.02341 0.70159 0.0
C1267 C 0.00545 -0.00555 0.66437 0.0
C1268 C 0.00172 0.97118 0.64764 0.0
C1269 C 0.98937 -0.00191 0.68784 0.0
C1270 C 0.9851 0.94942 0.65695 0.0
C1271 C 0.96983 0.95233 0.68119 0.0
H1272 H 0.79919 0.18085 0.45401 0.0
H1273 H 0.71214 0.17077 0.46768 0.0
H1274 H 0.7026 0.18995 0.42237 0.0
H1275 H 0.71878 0.20918 0.37908 0.0
H1276 H 0.80568 0.22017 0.36493 0.0
H1277 H 0.81549 0.201 0.4104 0.0
C1278 C 0.77815 0.1829 0.44704 0.0
C1279 C 0.7564 0.17439 0.46409 0.0
C1280 C 0.7728 0.19404 0.42097 0.0
C1281 C 0.72923 0.17721 0.45491 0.0
C1282 C 0.72375 0.18813 0.42901 0.0
C1283 C 0.73992 0.20736 0.38582 0.0
C1284 C 0.76147 0.21599 0.36856 0.0
C1285 C 0.74536 0.19653 0.41189 0.0
C1286 C 0.7887 0.21367 0.37781 0.0
C1287 C 0.79432 0.20271 0.40378 0.0
H1288 H 0.62002 2e-05 0.17895 0.0
H1289 H 0.54474 0.97466 0.21838 0.0
H1290 H 0.51914 0.98424 0.17601 0.0
H1291 H 0.51853 -0.00054 0.12768 0.0
H1292 H 0.59408 0.02663 0.08945 0.0
H1293 H 0.61909 0.01731 0.13177 0.0
C1294 C 0.59805 -0.00372 0.17816 0.0
C1295 C 0.5843 0.98619 0.2015 0.0
C1296 C 0.58347 0.00261 0.15415 0.0
C1297 C 0.55575 0.98212 0.20049 0.0
C1298 C 0.54113 0.98776 0.17637 0.0
C1299 C 0.5404 0.0037 0.12867 0.0
C1300 C 0.55435 0.01365 0.10526 0.0
C1301 C 0.55479 -0.00189 0.15308 0.0
C1302 C 0.58273 0.01898 0.10705 0.0
C1303 C 0.59714 0.01348 0.13121 0.0
H1304 H 0.78178 0.85077 0.9139 0.0
H1305 H 0.7345 0.77692 0.92918 0.0
H1306 H 0.7364 0.76519 0.88029 0.0
H1307 H 0.74961 0.77715 0.83315 0.0
H1308 H 0.79673 0.85124 0.81802 0.0
H1309 H 0.79666 0.86171 0.86711 0.0
C1310 C 0.7721 0.83197 0.90657 0.0
C1311 C 0.75793 0.81478 0.92501 0.0
C1312 C 0.77301 0.82557 0.87852 0.0
C1313 C 0.74553 0.79047 0.91531 0.0
C1314 C 0.74651 0.78383 0.88738 0.0
C1315 C 0.75984 0.79562 0.84055 0.0
C1316 C 0.77293 0.81351 0.82192 0.0
C1317 C 0.75982 0.80147 0.86877 0.0
C1318 C 0.78639 0.83717 0.83191 0.0
C1319 C 0.78639 0.84317 0.85997 0.0
H1320 H 0.83834 0.84943 0.02918 0.0
H1321 H 0.79078 0.92227 0.04383 0.0
H1322 H 0.83248 0.94751 0.05698 0.0
H1323 H 0.88312 0.95014 0.05858 0.0
H1324 H 0.93014 0.87786 0.04027 0.0
H1325 H 0.88799 0.85083 0.03494 0.0
C1326 C 0.83705 0.87075 0.03552 0.0
C1327 C 0.81169 0.88413 0.03513 0.0
C1328 C 0.86103 0.88515 0.04251 0.0
C1329 C 0.81021 0.91165 0.0437 0.0
C1330 C 0.83401 0.92606 0.05123 0.0
C1331 C 0.88398 0.92829 0.05424 0.0
C1332 C 0.90943 0.91583 0.04985 0.0
C1333 C 0.85964 0.91321 0.04998 0.0
C1334 C 0.91058 0.88769 0.04374 0.0
C1335 C 0.88656 0.87234 0.04051 0.0
H1336 H 0.33508 0.56329 0.94749 0.0
H1337 H 0.36218 0.61679 0.01326 0.0
H1338 H 0.40664 0.59421 0.01397 0.0
H1339 H 0.43526 0.55617 -1e-05 0.0
H1340 H 0.408 0.50026 0.93643 0.0
H1341 H 0.36615 0.52734 0.93024 0.0
C1342 C 0.35092 0.57029 0.96163 0.0
C1343 C 0.34535 0.59144 0.98054 0.0
C1344 C 0.37619 0.5567 0.96241 0.0
C1345 C 0.36596 0.60038 -0.00127 0.0
C1346 C 0.39133 0.58747 -0.00085 0.0
C1347 C 0.42028 0.54998 0.98457 0.0
C1348 C 0.42433 0.52597 0.96906 0.0
C1349 C 0.39625 0.56509 0.98175 0.0
C1350 C 0.40517 0.51859 0.94871 0.0
C1351 C 0.38123 0.53396 0.94533 0.0
H1352 H 0.15109 0.54222 0.69917 0.0
H1353 H 0.22529 0.50476 0.72841 0.0
H1354 H 0.25177 0.546 0.71577 0.0
H1355 H 0.25119 0.59597 0.70566 0.0
H1356 H 0.17609 0.63273 0.67759 0.0
H1357 H 0.15266 0.58831 0.67939 0.0
C1358 C 0.1732 0.54288 0.70194 0.0
C1359 C 0.18632 0.52103 0.71501 0.0
C1360 C 0.18804 0.56655 0.69484 0.0
C1361 C 0.21492 0.52162 0.71838 0.0
C1362 C 0.22997 0.54521 0.71133 0.0
C1363 C 0.2301 0.59384 0.69874 0.0
C1364 C 0.2152 0.61733 0.69167 0.0
C1365 C 0.21647 0.56832 0.7008 0.0
C1366 C 0.18779 0.6147 0.68308 0.0
C1367 C 0.17433 0.58942 0.6844 0.0
H1368 H 0.13898 0.43293 0.48703 0.0
H1369 H 0.13569 0.40988 0.57272 0.0
H1370 H 0.09947 0.44352 0.58062 0.0
H1371 H 0.06814 0.47857 0.56273 0.0
H1372 H 0.07097 0.50042 0.47671 0.0
H1373 H 0.10874 0.46858 0.4695 0.0
C1374 C 0.13024 0.43512 0.50742 0.0
C1375 C 0.13978 0.41882 0.52922 0.0
C1376 C 0.1098 0.45461 0.51182 0.0
C1377 C 0.12848 0.42208 0.55557 0.0
C1378 C 0.10795 0.44141 0.56013 0.0
C1379 C 0.07748 0.47684 0.54256 0.0
C1380 C 0.06704 0.49199 0.52031 0.0
C1381 C 0.09852 0.45783 0.5384 0.0
C1382 C 0.07886 0.48909 0.49415 0.0
C1383 C 0.10024 0.47074 0.48999 0.0
H1384 H 0.85386 0.9718 0.69973 0.0
H1385 H 0.79018 0.98783 0.75898 0.0
H1386 H 0.76551 0.94635 0.74443 0.0
H1387 H 0.76719 0.90131 0.72191 0.0
H1388 H 0.83389 0.88247 0.66735 0.0
H1389 H 0.85212 0.92935 0.6724 0.0
C1390 C 0.83415 0.96664 0.7088 0.0
C1391 C 0.82389 0.98259 0.73053 0.0
C1392 C 0.82084 0.94205 0.7013 0.0
C1393 C 0.79849 0.97566 0.74234 0.0
C1394 C 0.78447 0.95191 0.73412 0.0
C1395 C 0.78507 0.90797 0.71031 0.0
C1396 C 0.79909 0.88895 0.69402 0.0
C1397 C 0.79615 0.9343 0.71462 0.0
C1398 C 0.82266 0.89716 0.67961 0.0
C1399 C 0.83318 0.9238 0.68277 0.0
H1400 H 0.69447 0.09938 0.59212 0.0
H1401 H 0.71598 0.06068 0.51522 0.0
H1402 H 0.67339 0.03421 0.51591 0.0
H1403 H 0.62747 0.0273 0.53451 0.0
H1404 H 0.60435 0.06604 0.61059 0.0
H1405 H 0.65037 0.08687 0.61452 0.0
C1406 C 0.69001 0.08477 0.57582 0.0
C1407 C 0.70806 0.08237 0.55337 0.0
C1408 C 0.66519 0.06977 0.57616 0.0
C1409 C 0.70223 0.06319 0.53251 0.0
C1410 C 0.67788 0.04804 0.53286 0.0
C1411 C 0.63281 0.03978 0.55229 0.0
C1412 C 0.61277 0.04546 0.5721 0.0
C1413 C 0.65883 0.05194 0.55401 0.0
C1414 C 0.61968 0.06139 0.59519 0.0
C1415 C 0.64583 0.07349 0.59724 0.0
H1416 H 0.22693 0.42037 0.76904 0.0
H1417 H 0.15602 0.37022 0.78819 0.0
H1418 H 0.1855 0.33058 0.79581 0.0
H1419 H 0.23003 0.30888 0.78967 0.0
H1420 H 0.29949 0.35698 0.76276 0.0
H1421 H 0.27251 0.39913 0.76664 0.0
C1422 C 0.21805 0.40084 0.77531 0.0
C1423 C 0.18942 0.39798 0.77779 0.0
C1424 C 0.23501 0.37795 0.77854 0.0
C1425 C 0.17802 0.37267 0.7858 0.0
C1426 C 0.19485 0.3501 0.79028 0.0
C1427 C 0.2395 0.32881 0.7859 0.0
C1428 C 0.26671 0.3302 0.77662 0.0
C1429 C 0.22322 0.35232 0.78583 0.0
C1430 C 0.27874 0.35576 0.77066 0.0
C1431 C 0.26315 0.37968 0.77237 0.0
H1432 H 0.29958 0.58271 0.23318 0.0
H1433 H 0.37558 0.62772 0.24447 0.0
H1434 H 0.35037 0.67078 0.24652 0.0
H1435 H 0.30724 0.69537 0.24459 0.0
H1436 H 0.23103 0.65113 0.2316 0.0
H1437 H 0.25597 0.60768 0.23108 0.0
C1438 C 0.31061 0.60197 0.23604 0.0
C1439 C 0.33937 0.60213 0.23863 0.0
C1440 C 0.296 0.6266 0.23711 0.0
C1441 C 0.35344 0.62715 0.24231 0.0
C1442 C 0.33905 0.65171 0.24359 0.0
C1443 C 0.29592 0.67625 0.24195 0.0
C1444 C 0.26727 0.67646 0.23833 0.0
C1445 C 0.31038 0.65162 0.24105 0.0
C1446 C 0.25308 0.65149 0.23453 0.0
C1447 C 0.26733 0.6267 0.23413 0.0
H1448 H 0.45677 0.72071 0.59024 0.0
H1449 H 0.45436 0.67787 0.66787 0.0
H1450 H 0.43438 0.63749 0.64554 0.0
H1451 H 0.42332 0.61267 0.60372 0.0
H1452 H 0.43116 0.65259 0.5248 0.0
H1453 H 0.44253 0.69605 0.54779 0.0
C1454 C 0.45149 0.70258 0.60215 0.0
C1455 C 0.45722 0.70193 0.63047 0.0
C1456 C 0.44099 0.679 0.58895 0.0
C1457 C 0.45046 0.6785 0.64591 0.0
C1458 C 0.43895 0.6555 0.6332 0.0
C1459 C 0.42682 0.63098 0.59145 0.0
C1460 C 0.42653 0.62934 0.56257 0.0
C1461 C 0.4349 0.65526 0.60466 0.0
C1462 C 0.43134 0.6533 0.54708 0.0
C1463 C 0.43806 0.67808 0.56021 0.0
H1464 H 0.60922 0.29329 0.83254 0.0
H1465 H 0.61368 0.2104 0.8014 0.0
H1466 H 0.66025 0.21937 0.78471 0.0
H1467 H 0.69964 0.25061 0.77964 0.0
H1468 H 0.69477 0.33355 0.81093 0.0
H1469 H 0.64817 0.32463 0.82688 0.0
C1470 C 0.62038 0.27719 0.82208 0.0
C1471 C 0.60819 0.25124 0.81824 0.0
C1472 C 0.64697 0.28247 0.8126 0.0
C1473 C 0.62275 0.23056 0.80459 0.0
C1474 C 0.64932 0.23566 0.79507 0.0
C1475 C 0.68841 0.26676 0.78991 0.0
C1476 C 0.70071 0.29267 0.79415 0.0
C1477 C 0.66164 0.26153 0.79907 0.0
C1478 C 0.68581 0.3134 0.80743 0.0
C1479 C 0.65917 0.30834 0.81658 0.0
H1480 H -0.00274 0.30748 0.06294 0.0
H1481 H 0.98082 0.33772 0.14477 0.0
H1482 H -0.00335 0.38343 0.13146 0.0
H1483 H 0.01696 0.41434 0.09731 0.0
H1484 H 0.03114 0.38552 0.01471 0.0
H1485 H 0.01482 0.33949 0.02765 0.0
C1486 C -0.00323 0.32419 0.0777 0.0
C1487 C 0.98798 0.31922 0.10481 0.0
C1488 C 0.00602 0.35046 0.06994 0.0
C1489 C 0.98744 0.34103 0.12375 0.0
C1490 C -0.0033 0.36713 0.11624 0.0
C1491 C 0.01676 0.39786 0.08226 0.0
C1492 C 0.02574 0.40296 0.05532 0.0
C1493 C 0.00651 0.37192 0.08958 0.0
C1494 C 0.02462 0.3818 0.03569 0.0
C1495 C 0.01516 0.35561 0.04304 0.0
H1496 H 0.92525 0.76997 0.32425 0.0
H1497 H 0.90612 0.70507 0.38176 0.0
H1498 H 0.85921 0.7025 0.36419 0.0
H1499 H 0.82339 0.71938 0.33347 0.0
H1500 H 0.84258 0.78153 0.27318 0.0
H1501 H 0.88985 0.78456 0.29076 0.0
C1502 C 0.91078 0.75521 0.33279 0.0
C1503 C 0.91898 0.73786 0.35438 0.0
C1504 C 0.88394 0.75348 0.32219 0.0
C1505 C 0.90025 0.71859 0.3651 0.0
C1506 C 0.87342 0.71718 0.35515 0.0
C1507 C 0.83792 0.73367 0.32425 0.0
C1508 C 0.82956 0.75057 0.30244 0.0
C1509 C 0.865 0.73468 0.33391 0.0
C1510 C 0.84865 0.76848 0.29014 0.0
C1511 C 0.87558 0.7702 0.30019 0.0
H1512 H 0.51054 0.28845 0.92976 0.0
H1513 H 0.48642 0.32727 0.85381 0.0
H1514 H 0.47314 0.36854 0.87911 0.0
H1515 H 0.47384 0.3951 0.92192 0.0
H1516 H 0.49909 0.3563 -0.00229 0.0
H1517 H 0.50564 0.3131 0.97337 0.0
C1518 C 0.50217 0.30589 0.9188 0.0
C1519 C 0.49996 0.30519 0.89 0.0
C1520 C 0.49469 0.32942 0.93342 0.0
C1521 C 0.48856 0.32757 0.876 0.0
C1522 C 0.48097 0.35111 0.89044 0.0
C1523 C 0.48022 0.37709 0.93329 0.0
C1524 C 0.48653 0.37914 0.96151 0.0
C1525 C 0.48469 0.3525 0.91906 0.0
C1526 C 0.4944 0.35544 0.97592 0.0
C1527 C 0.49835 0.33074 0.962 0.0
H1528 H 0.89152 0.21613 0.15506 0.0
H1529 H 0.94066 0.24192 0.22451 0.0
H1530 H 0.90054 0.23861 0.25454 0.0
H1531 H 0.85085 0.23258 0.25987 0.0
H1532 H 0.80188 0.20635 0.19026 0.0
H1533 H 0.84282 0.20489 0.16165 0.0
C1534 C 0.89341 0.22089 0.17681 0.0
C1535 C 0.91872 0.22974 0.18756 0.0
C1536 C 0.8704 0.21871 0.19391 0.0
C1537 C 0.92121 0.23529 0.21581 0.0
C1538 C 0.89832 0.23339 0.23296 0.0
C1539 C 0.84916 0.22608 0.23858 0.0
C1540 C 0.82326 0.22006 0.22715 0.0
C1541 C 0.87271 0.22568 0.22208 0.0
C1542 C 0.82152 0.21131 0.19959 0.0
C1543 C 0.8449 0.21065 0.18311 0.0
H1544 H 0.97398 0.70152 0.47762 0.0
H1545 H 0.04048 0.66547 0.43202 0.0
H1546 H 0.04406 0.62889 0.46639 0.0
H1547 H 0.02416 0.60418 0.50592 0.0
H1548 H 0.95516 0.63857 0.54882 0.0
H1549 H 0.95725 0.6794 0.51957 0.0
C1550 C 0.98943 0.6858 0.4753 0.0
C1551 C 0.00664 0.68589 0.4521 0.0
C1552 C 0.99107 0.66474 0.49485 0.0
C1553 C 0.02678 0.66562 0.44956 0.0
C1554 C 0.02887 0.64477 0.46923 0.0
C1555 C 0.0103 0.62113 0.5095 0.0
C1556 C 0.98969 0.61864 0.52959 0.0
C1557 C 0.01066 0.64375 0.49158 0.0
C1558 C 0.97134 0.6403 0.53363 0.0
C1559 C 0.97232 0.66342 0.51669 0.0
H1560 H 0.5758 0.78967 0.72358 0.0
H1561 H 0.58694 0.75578 0.64228 0.0
H1562 H 0.63552 0.76847 0.64359 0.0
H1563 H 0.67497 0.78778 0.6684 0.0
H1564 H 0.66459 0.819 0.75074 0.0
H1565 H 0.6152 0.8096 0.74817 0.0
C1566 C 0.58892 0.7849 0.70624 0.0
C1567 C 0.57794 0.77164 0.68298 0.0
C1568 C 0.61673 0.7923 0.7071 0.0
C1569 C 0.59505 0.76575 0.66054 0.0
C1570 C 0.62274 0.7732 0.66116 0.0
C1571 C 0.66173 0.79318 0.68547 0.0
C1572 C 0.6731 0.80441 0.70955 0.0
C1573 C 0.63376 0.78651 0.68431 0.0
C1574 C 0.65603 0.81062 0.7319 0.0
C1575 C 0.62794 0.80498 0.73053 0.0
H1576 H 0.55986 0.49376 0.68077 0.0
H1577 H 0.54837 0.58049 0.69429 0.0
H1578 H 0.5076 0.57952 0.66481 0.0
H1579 H 0.47826 0.55491 0.63137 0.0
H1580 H 0.49199 0.46896 0.61582 0.0
H1581 H 0.52825 0.46842 0.65064 0.0
C1582 C 0.54836 0.51243 0.67737 0.0
C1583 C 0.55733 0.53724 0.68931 0.0
C1584 C 0.52512 0.51173 0.66033 0.0
C1585 C 0.54204 0.56119 0.68504 0.0
C1586 C 0.51867 0.56062 0.66829 0.0
C1587 C 0.48856 0.53589 0.63639 0.0
C1588 C 0.48239 0.51192 0.62138 0.0
C1589 C 0.51032 0.53611 0.65541 0.0
C1590 C 0.49631 0.48754 0.62741 0.0
C1591 C 0.51723 0.48732 0.64704 0.0
H1592 H 0.77902 0.32548 0.95597 0.0
H1593 H 0.85638 0.36807 0.96505 0.0
H1594 H 0.8689 0.35587 0.91776 0.0
H1595 H 0.85365 0.34012 0.8713 0.0
H1596 H 0.77524 0.29896 0.86345 0.0
H1597 H 0.76752 0.30302 0.9127 0.0
C1598 C 0.79894 0.33138 0.9478 0.0
C1599 C 0.81661 0.34782 0.96362 0.0
C1600 C 0.80566 0.3248 0.92063 0.0
C1601 C 0.84248 0.35527 0.9531 0.0
C1602 C 0.84951 0.34855 0.92599 0.0
C1603 C 0.83535 0.33139 0.88066 0.0
C1604 C 0.81483 0.31967 0.86394 0.0
C1605 C 0.8307 0.33436 0.90913 0.0
C1606 C 0.79111 0.30841 0.87606 0.0
C1607 C 0.78663 0.31075 0.90417 0.0
H1608 H 0.97212 0.50462 0.21927 0.0
H1609 H 0.89976 0.52341 0.17178 0.0
H1610 H 0.92818 0.53456 0.13197 0.0
H1611 H 0.97287 0.53621 0.11 0.0
H1612 H 0.04511 0.51208 0.15492 0.0
H1613 H 0.01759 0.50648 0.19686 0.0
C1614 C 0.96268 0.5112 0.20018 0.0
C1615 C 0.93398 0.51307 0.19828 0.0
C1616 C 0.97912 0.51697 0.17718 0.0
C1617 C 0.92184 0.52152 0.17353 0.0
C1618 C 0.93805 0.5281 0.15087 0.0
C1619 C 0.98275 0.53047 0.12916 0.0
C1620 C 0.01098 0.52506 0.12966 0.0
C1621 C 0.96663 0.52568 0.15243 0.0
C1622 C 0.02342 0.51672 0.15431 0.0
C1623 C 0.00766 0.51326 0.17812 0.0
H1624 H 0.69287 0.61265 0.43306 0.0
H1625 H 0.77758 0.63273 0.45068 0.0
H1626 H 0.78104 0.65802 0.40745 0.0
H1627 H 0.75852 0.67856 0.36745 0.0
H1628 H 0.67447 0.65747 0.34851 0.0
H1629 H 0.672 0.62845 0.38977 0.0
C1630 C 0.71222 0.62211 0.42713 0.0
C1631 C 0.73484 0.6212 0.44509 0.0
C1632 C 0.71396 0.63684 0.40243 0.0
C1633 C 0.7599 0.63323 0.43716 0.0
C1634 C 0.76181 0.6479 0.4126 0.0
C1635 C 0.73969 0.66755 0.37243 0.0
C1636 C 0.71647 0.67051 0.35566 0.0
C1637 C 0.73871 0.65061 0.39563 0.0
C1638 C 0.69242 0.65563 0.36156 0.0
C1639 C 0.69106 0.63907 0.38501 0.0
H1640 H 0.60997 0.5444 0.83832 0.0
H1641 H 0.56605 0.48013 0.7951 0.0
H1642 H 0.54182 0.4677 0.83732 0.0
H1643 H 0.53303 0.47517 0.88636 0.0
H1644 H 0.57751 0.53898 0.92984 0.0
H1645 H 0.60151 0.55156 0.88759 0.0
C1646 C 0.59515 0.52763 0.83818 0.0
C1647 C 0.5898 0.5132 0.81367 0.0
C1648 C 0.58131 0.52058 0.86251 0.0
C1649 C 0.57056 0.49152 0.81376 0.0
C1650 C 0.55665 0.48444 0.83786 0.0
C1651 C 0.54787 0.49192 0.88661 0.0
C1652 C 0.55337 0.50615 0.91124 0.0
C1653 C 0.56181 0.49889 0.86232 0.0
C1654 C 0.57286 0.52765 0.91118 0.0
C1655 C 0.58663 0.53487 0.88703 0.0
H1656 H 0.76083 0.3201 0.08507 0.0
H1657 H 0.78056 0.39569 0.12749 0.0
H1658 H 0.76233 0.37662 0.17032 0.0
H1659 H 0.74165 0.3383 0.19573 0.0
H1660 H 0.72279 0.26229 0.15363 0.0
H1661 H 0.73915 0.28204 0.11036 0.0
C1662 C 0.76136 0.33231 0.10375 0.0
C1663 C 0.77227 0.35916 0.10322 0.0
C1664 C 0.75054 0.32135 0.12817 0.0
C1665 C 0.77248 0.37487 0.12746 0.0
C1666 C 0.76189 0.36406 0.15189 0.0
C1667 C 0.74058 0.32619 0.17701 0.0
C1668 C 0.73084 0.2989 0.17789 0.0
C1669 C 0.75079 0.33737 0.15244 0.0
C1670 C 0.73006 0.28339 0.15348 0.0
C1671 C 0.73963 0.29458 0.12879 0.0
H1672 H 0.88155 0.54159 0.35791 0.0
H1673 H 0.96 0.51296 0.32902 0.0
H1674 H 0.97942 0.5189 0.37492 0.0
H1675 H 0.97287 0.52734 0.42363 0.0
H1676 H 0.89406 0.55336 0.454 0.0
H1677 H 0.87607 0.55386 0.40689 0.0
C1678 C 0.90299 0.53708 0.36164 0.0
C1679 C 0.9193 0.52658 0.34032 0.0
C1680 C 0.91385 0.5399 0.38826 0.0
C1681 C 0.94702 0.5208 0.34527 0.0
C1682 C 0.95813 0.52418 0.37146 0.0
C1683 C 0.95178 0.53334 0.42002 0.0
C1684 C 0.93466 0.53981 0.4423 0.0
C1685 C 0.94151 0.53291 0.3932 0.0
C1686 C 0.90759 0.5481 0.43718 0.0
C1687 C 0.89728 0.54826 0.4103 0.0
H1688 H 0.78208 0.67951 0.55654 0.0
H1689 H 0.69563 0.69684 0.56232 0.0
H1690 H 0.7058 0.73842 0.58884 0.0
H1691 H 0.73831 0.76456 0.61686 0.0
H1692 H 0.82396 0.74299 0.61708 0.0
H1693 H 0.81536 0.70891 0.58093 0.0
C1694 C 0.76555 0.69277 0.56311 0.0
C1695 C 0.73816 0.68515 0.55783 0.0
C1696 C 0.7715 0.71583 0.57942 0.0
C1697 C 0.71685 0.70227 0.56649 0.0
C1698 C 0.72267 0.72599 0.5816 0.0
C1699 C 0.75529 0.75311 0.6083 0.0
C1700 C 0.78172 0.75616 0.61958 0.0
C1701 C 0.74981 0.73231 0.58911 0.0
C1702 C 0.80345 0.74091 0.60863 0.0
C1703 C 0.79847 0.72127 0.58822 0.0
H1704 H 0.62651 0.61521 0.51823 0.0
H1705 H 0.65326 0.5345 0.54246 0.0
H1706 H 0.60641 0.51671 0.53711 0.0
H1707 H 0.55818 0.52432 0.52588 0.0
H1708 H 0.53162 0.605 0.50082 0.0
H1709 H 0.57848 0.6225 0.50561 0.0
C1710 C 0.62202 0.59377 0.52255 0.0
C1711 C 0.6431 0.57619 0.531 0.0
C1712 C 0.59529 0.58365 0.51892 0.0
C1713 C 0.63722 0.54839 0.53609 0.0
C1714 C 0.61053 0.53822 0.53293 0.0
C1715 C 0.5626 0.5457 0.52123 0.0
C1716 C 0.54138 0.56334 0.51309 0.0
C1717 C 0.58946 0.55568 0.52428 0.0
C1718 C 0.54756 0.59095 0.50709 0.0
C1719 C 0.57431 0.60103 0.50998 0.0
H1720 H 0.21325 0.94318 0.5273 0.0
H1721 H 0.18327 0.85988 0.53545 0.0
H1722 H 0.13921 0.87663 0.55197 0.0
H1723 H 0.1078 0.9149 0.55939 0.0
H1724 H 0.13743 -0.00174 0.55001 0.0
H1725 H 0.18318 0.98149 0.53934 0.0
C1726 C 0.19713 0.92872 0.53293 0.0
C1727 C 0.20131 0.9004 0.52979 0.0
C1728 C 0.17181 0.93848 0.54225 0.0
C1729 C 0.18043 0.88183 0.53746 0.0
C1730 C 0.15524 0.89137 0.54693 0.0
C1731 C 0.12439 0.92943 0.55563 0.0
C1732 C 0.1191 0.95776 0.55516 0.0
C1733 C 0.15049 0.91966 0.54879 0.0
C1734 C 0.14087 0.97631 0.55023 0.0
C1735 C 0.16703 0.96675 0.54398 0.0
H1736 H 0.29519 0.91063 0.71879 0.0
H1737 H 0.30685 0.8988 0.80603 0.0
H1738 H 0.28383 0.85411 0.80329 0.0
H1739 H 0.26323 0.81737 0.7757 0.0
H1740 H 0.25064 0.829 0.68856 0.0
H1741 H 0.27071 0.8752 0.69174 0.0
C1742 C 0.29257 0.89827 0.73717 0.0
C1743 C 0.30298 0.90771 0.76249 0.0
C1744 C 0.27909 0.87273 0.73549 0.0
C1745 C 0.29912 0.89181 0.78628 0.0
C1746 C 0.28598 0.8663 0.78474 0.0
C1747 C 0.26463 0.83011 0.75743 0.0
C1748 C 0.25579 0.81974 0.73189 0.0
C1749 C 0.27628 0.85641 0.75939 0.0
C1750 C 0.25731 0.83659 0.70847 0.0
C1751 C 0.26896 0.86289 0.71024 0.0
H1752 H 0.31739 0.05967 0.03311 0.0
H1753 H 0.3434 0.12277 0.97612 0.0
H1754 H 0.39114 0.11032 0.98321 0.0
H1755 H 0.42509 0.08077 0.0038 0.0
H1756 H 0.40051 0.01613 0.05953 0.0
H1757 H 0.35253 0.03068 0.05563 0.0
C1758 C 0.33355 0.07053 0.02216 0.0
C1759 C 0.32691 0.09189 0.00386 0.0
C1760 C 0.36111 0.06336 0.02648 0.0
C1761 C 0.34799 0.10612 0.99013 0.0
C1762 C 0.37529 0.09913 0.99428 0.0
C1763 C 0.40931 0.06994 0.01536 0.0
C1764 C 0.41627 0.04725 0.03172 0.0
C1765 C 0.38201 0.07775 0.01225 0.0
C1766 C 0.39566 0.03375 0.04689 0.0
C1767 C 0.36823 0.04185 0.04437 0.0
H1768 H 0.69787 0.60048 0.70891 0.0
H1769 H 0.63913 0.63272 0.76664 0.0
H1770 H 0.66517 0.67568 0.76951 0.0
H1771 H 0.70443 0.70392 0.7559 0.0
H1772 H 0.76368 0.67217 0.69833 0.0
H1773 H 0.73777 0.62899 0.69543 0.0
C1774 C 0.69071 0.617 0.72196 0.0
C1775 C 0.66656 0.6135 0.73745 0.0
C1776 C 0.70599 0.64158 0.72378 0.0
C1777 C 0.65763 0.63495 0.75447 0.0
C1778 C 0.67255 0.65948 0.75619 0.0
C1779 C 0.71187 0.68755 0.74281 0.0
C1780 C 0.73605 0.69134 0.72741 0.0
C1781 C 0.69679 0.66296 0.74105 0.0
C1782 C 0.74521 0.66983 0.71052 0.0
C1783 C 0.73033 0.64516 0.70874 0.0
H1784 H 0.85085 0.46987 0.05249 0.0
H1785 H 0.85039 0.43893 0.96934 0.0
H1786 H 0.89471 0.4611 0.96056 0.0
H1787 H 0.93633 0.4836 0.97887 0.0
H1788 H 0.93576 0.51647 0.06135 0.0
H1789 H 0.88887 0.49979 0.0679 0.0
C1790 C 0.86027 0.46854 0.03232 0.0
C1791 C 0.8478 0.45259 0.01172 0.0
C1792 C 0.88556 0.48154 0.02736 0.0
C1793 C 0.85979 0.45116 0.9855 0.0
C1794 C 0.88516 0.46367 0.98052 0.0
C1795 C 0.92564 0.48766 -0.00201 0.0
C1796 C 0.93948 0.50083 0.01969 0.0
C1797 C 0.89866 0.47809 0.00161 0.0
C1798 C 0.92544 0.50635 0.0443 0.0
C1799 C 0.89872 0.49662 0.04818 0.0
H1800 H 0.29611 0.04187 0.70967 0.0
H1801 H 0.27158 0.04287 0.79494 0.0
H1802 H 0.24969 0.08738 0.78821 0.0
H1803 H 0.24615 0.12946 0.76063 0.0
H1804 H 0.27686 0.13045 0.67748 0.0
H1805 H 0.28721 0.0815 0.68049 0.0
C1806 C 0.28535 0.05148 0.72661 0.0
C1807 C 0.2858 0.03943 0.75286 0.0
C1808 C 0.27416 0.07758 0.72294 0.0
C1809 C 0.27172 0.05199 0.77461 0.0
C1810 C 0.25933 0.07747 0.77079 0.0
C1811 C 0.2542 0.11864 0.7429 0.0
C1812 C 0.26086 0.13329 0.7189 0.0
C1813 C 0.26165 0.09102 0.74541 0.0
C1814 C 0.27169 0.11939 0.69614 0.0
C1815 C 0.27775 0.09153 0.69794 0.0
H1816 H 0.16587 0.9616 0.20628 0.0
H1817 H 0.20806 0.96002 0.28442 0.0
H1818 H 0.23071 0.91746 0.27142 0.0
H1819 H 0.23173 0.87714 0.2419 0.0
H1820 H 0.18616 0.87541 0.16592 0.0
H1821 H 0.17199 0.92322 0.17348 0.0
C1822 C 0.18062 0.95227 0.22007 0.0
C1823 C 0.18519 0.96361 0.24636 0.0
C1824 C 0.19267 0.92718 0.21288 0.0
C1825 C 0.20412 0.9514 0.26421 0.0
C1826 C 0.217 0.9271 0.25681 0.0
C1827 C 0.21936 0.88761 0.22661 0.0
C1828 C 0.2098 0.87311 0.20352 0.0
C1829 C 0.21045 0.91427 0.23179 0.0
C1830 C 0.19382 0.88648 0.18374 0.0
C1831 C 0.18552 0.91361 0.18827 0.0
H1832 H 0.49477 0.34532 0.46347 0.0
H1833 H 0.41457 0.34358 0.42568 0.0
H1834 H 0.40341 0.3872 0.44788 0.0
H1835 H 0.41781 0.42715 0.47537 0.0
H1836 H 0.49852 0.42876 0.51241 0.0
H1837 H 0.50801 0.38363 0.49323 0.0
C1838 C 0.47477 0.35438 0.46025 0.0
C1839 C 0.4556 0.34148 0.44282 0.0
C1840 C 0.46864 0.37943 0.47283 0.0
C1841 C 0.42968 0.35326 0.43898 0.0
C1842 C 0.42333 0.37819 0.45159 0.0
C1843 C 0.43739 0.41755 0.47946 0.0
C1844 C 0.45751 0.43147 0.49507 0.0
C1845 C 0.44286 0.39168 0.46816 0.0
C1846 C 0.48272 0.41862 0.5003 0.0
C1847 C 0.48821 0.39282 0.48932 0.0
H1848 H 0.42322 0.76824 0.17743 0.0
H1849 H 0.39306 0.73439 0.10092 0.0
H1850 H 0.34639 0.7481 0.11279 0.0
H1851 H 0.31393 0.76755 0.14607 0.0
H1852 H 0.34408 0.79932 0.22341 0.0
H1853 H 0.39118 0.78927 0.20974 0.0
C1854 C 0.40642 0.76381 0.16338 0.0
C1855 C 0.41148 0.75008 0.13849 0.0
C1856 C 0.37975 0.77174 0.17031 0.0
C1857 C 0.38959 0.74471 0.12035 0.0
C1858 C 0.36296 0.75268 0.12704 0.0
C1859 C 0.33091 0.77288 0.1596 0.0
C1860 C 0.32569 0.78432 0.18559 0.0
C1861 C 0.35778 0.76606 0.15204 0.0
C1862 C 0.34773 0.79061 0.20323 0.0
C1863 C 0.37458 0.78467 0.19553 0.0
H1864 H 0.06168 0.67621 0.92899 0.0
H1865 H 0.97433 0.68032 0.9428 0.0
H1866 H 0.97756 0.64432 0.97766 0.0
H1867 H 0.00455 0.60921 0.0012 0.0
H1868 H 0.09162 0.60388 0.98588 0.0
H1869 H 0.08922 0.64331 0.95501 0.0
C1870 C 0.04337 0.66934 0.93975 0.0
C1871 C 0.01777 0.68063 0.93314 0.0
C1872 C 0.04535 0.64853 0.95955 0.0
C1873 C -0.00575 0.67174 0.94739 0.0
C1874 C -0.00391 0.65121 0.96734 0.0
C1875 C 0.02312 0.617 0.99157 0.0
C1876 C 0.04819 0.60351 -0.00429 0.0
C1877 C 0.02146 0.63914 0.97323 0.0
C1878 C 0.07203 0.6138 0.98293 0.0
C1879 C 0.07065 0.63625 0.96516 0.0
H1880 H 0.1172 0.28783 0.62246 0.0
H1881 H 0.06749 0.24578 0.68295 0.0
H1882 H 0.10832 0.23613 0.7103 0.0
H1883 H 0.15822 0.23852 0.71635 0.0
H1884 H 0.20783 0.28096 0.65596 0.0
H1885 H 0.16694 0.29145 0.62919 0.0
C1886 C 0.11532 0.27671 0.64171 0.0
C1887 C 0.08948 0.26746 0.65066 0.0
C1888 C 0.13883 0.27114 0.65726 0.0
C1889 C 0.08724 0.2531 0.67564 0.0
C1890 C 0.11055 0.24751 0.69126 0.0
C1891 C 0.16007 0.25003 0.69733 0.0
C1892 C 0.18599 0.25882 0.68812 0.0
C1893 C 0.13647 0.2562 0.68212 0.0
C1894 C 0.18807 0.27397 0.66354 0.0
C1895 C 0.16471 0.27999 0.64819 0.0
H1896 H 0.49086 0.63698 0.11346 0.0
H1897 H 0.51957 0.67766 0.03987 0.0
H1898 H 0.53317 0.6336 0.02045 0.0
H1899 H 0.53454 0.58345 0.02338 0.0
H1900 H 0.50345 0.54255 0.09581 0.0
H1901 H 0.49385 0.58691 0.11713 0.0
C1902 C 0.5 0.63616 0.09314 0.0
C1903 C 0.50395 0.6604 0.07798 0.0
C1904 C 0.50776 0.61083 0.08214 0.0
C1905 C 0.51607 0.65916 0.0518 0.0
C1906 C 0.52402 0.63404 0.04077 0.0
C1907 C 0.52638 0.58432 0.04413 0.0
C1908 C 0.5199 0.55995 0.05815 0.0
C1909 C 0.51984 0.60975 0.0557 0.0
C1910 C 0.50875 0.5612 0.08477 0.0
C1911 C 0.50302 0.58648 0.09682 0.0
H1912 H 0.0696 0.77007 0.79567 0.0
H1913 H 0.05573 0.68257 0.80229 0.0
H1914 H 0.08716 0.67463 0.76419 0.0
H1915 H 0.12401 0.69189 0.73496 0.0
H1916 H 0.14087 0.77887 0.73053 0.0
H1917 H 0.10182 0.78789 0.76076 0.0
C1918 C 0.07325 0.74931 0.78852 0.0
C1919 C 0.06102 0.72687 0.80217 0.0
C1920 C 0.09164 0.74487 0.76685 0.0
C1921 C 0.06538 0.70012 0.79243 0.0
C1922 C 0.08324 0.69556 0.77059 0.0
C1923 C 0.11855 0.71288 0.73994 0.0
C1924 C 0.13545 0.73465 0.73111 0.0
C1925 C 0.09723 0.7177 0.75843 0.0
C1926 C 0.12809 0.76179 0.73718 0.0
C1927 C 0.10609 0.76689 0.75484 0.0
H1928 H 0.97115 0.32093 0.53728 0.0
H1929 H 0.05735 0.34035 0.52988 0.0
H1930 H 0.04623 0.38517 0.51018 0.0
H1931 H 0.01255 0.42197 0.50627 0.0
H1932 H 0.9274 0.40513 0.52387 0.0
H1933 H 0.93713 0.35604 0.52797 0.0
C1934 C 0.98747 0.33458 0.53035 0.0
C1935 C 0.01499 0.32763 0.53506 0.0
C1936 C 0.98091 0.361 0.52139 0.0
C1937 C 0.03603 0.34548 0.52642 0.0
C1938 C 0.02965 0.37113 0.51543 0.0
C1939 C -0.00396 0.4073 0.50996 0.0
C1940 C 0.96934 0.41676 0.51472 0.0
C1941 C 0.00223 0.37966 0.51446 0.0
C1942 C 0.94806 0.398 0.52012 0.0
C1943 C 0.95368 0.37007 0.52262 0.0
H1944 H 0.4366 0.29718 0.31245 0.0
H1945 H 0.42192 0.21422 0.3403 0.0
H1946 H 0.38406 0.20926 0.30748 0.0
H1947 H 0.3505 0.23146 0.27692 0.0
H1948 H 0.36386 0.31559 0.25201 0.0
H1949 H 0.40721 0.31699 0.27714 0.0
C1950 C 0.42544 0.27783 0.31097 0.0
C1951 C 0.43159 0.2563 0.32907 0.0
C1952 C 0.40336 0.27543 0.29267 0.0
C1953 C 0.41732 0.2312 0.32671 0.0
C1954 C 0.39562 0.22839 0.30803 0.0
C1955 C 0.36336 0.24977 0.27633 0.0
C1956 C 0.35395 0.2735 0.263 0.0
C1957 C 0.38774 0.25078 0.29175 0.0
C1958 C 0.37064 0.29719 0.26245 0.0
C1959 C 0.39533 0.29804 0.27689 0.0
H1960 H 0.41718 0.56938 0.32537 0.0
H1961 H 0.40834 0.48102 0.32484 0.0
H1962 H 0.41511 0.47984 0.37453 0.0
H1963 H 0.42081 0.5038 0.41813 0.0
H1964 H 0.4305 0.59199 0.41971 0.0
H1965 H 0.42604 0.59338 0.36941 0.0
C1966 C 0.41712 0.54985 0.33611 0.0
C1967 C 0.41213 0.52532 0.32149 0.0
C1968 C 0.42079 0.54934 0.3648 0.0
C1969 C 0.41211 0.50018 0.33563 0.0
C1970 C 0.41584 0.49949 0.36405 0.0
C1971 C 0.42184 0.5234 0.40754 0.0
C1972 C 0.42549 0.54783 0.42262 0.0
C1973 C 0.41963 0.52395 0.37885 0.0
C1974 C 0.42747 0.57294 0.40853 0.0
C1975 C 0.42495 0.57372 0.37982 0.0
H1976 H 0.20496 0.65888 0.05749 0.0
H1977 H 0.27606 0.70634 0.03297 0.0
H1978 H 0.26569 0.74094 0.06773 0.0
H1979 H 0.23999 0.75457 0.10848 0.0
H1980 H 0.17158 0.70493 0.13619 0.0
H1981 H 0.17681 0.67471 0.09632 0.0
C1982 C 0.21793 0.67701 0.05953 0.0
C1983 C 0.24138 0.67997 0.04293 0.0
C1984 C 0.21227 0.69643 0.08009 0.0
C1985 C 0.25805 0.7035 0.04574 0.0
C1986 C 0.2521 0.7233 0.06556 0.0
C1987 C 0.22569 0.73761 0.10543 0.0
C1988 C 0.20544 0.73197 0.12529 0.0
C1989 C 0.22972 0.71959 0.08332 0.0
C1990 C 0.18734 0.70968 0.12118 0.0
C1991 C 0.19047 0.69228 0.09852 0.0
H1992 H 0.08277 0.45031 0.83782 0.0
H1993 H 0.14522 0.5135 0.84442 0.0
H1994 H 0.13138 0.5227 0.8918 0.0
H1995 H 0.10192 0.51261 0.93115 0.0
H1996 H 0.03901 0.44978 0.92465 0.0
H1997 H 0.05273 0.44063 0.8772 0.0
C1998 C 0.09333 0.46611 0.84964 0.0
C1999 C 0.115 0.48118 0.83774 0.0
C2000 C 0.08524 0.47132 0.87678 0.0
C2001 C 0.12846 0.50164 0.85319 0.0
C2002 C 0.12059 0.50689 0.88025 0.0
C2003 C 0.09119 0.49685 0.91943 0.0
C2004 C 0.06953 0.48183 0.93148 0.0
C2005 C 0.09907 0.4918 0.89224 0.0
C2006 C 0.05576 0.46164 0.91588 0.0
C2007 C 0.06359 0.45638 0.88877 0.0
H2008 H 0.28123 0.32867 0.56604 0.0
H2009 H 0.20133 0.28991 0.57075 0.0
H2010 H 0.21864 0.25749 0.60493 0.0
H2011 H 0.25468 0.24448 0.63769 0.0
H2012 H 0.33248 0.28721 0.6369 0.0
H2013 H 0.31822 0.31335 0.5963 0.0
C2014 C 0.2677 0.31288 0.57425 0.0
C2015 C 0.24 0.31178 0.5661 0.0
C2016 C 0.27757 0.29494 0.59441 0.0
C2017 C 0.22269 0.29125 0.57689 0.0
C2018 C 0.23258 0.27271 0.59638 0.0
C2019 C 0.26883 0.25875 0.62785 0.0
C2020 C 0.29478 0.26362 0.6396 0.0
C2021 C 0.25977 0.27486 0.6058 0.0
C2022 C 0.31267 0.28286 0.62763 0.0
C2023 C 0.30436 0.29799 0.60474 0.0
H2024 H 0.44126 0.46861 0.18894 0.0
H2025 H 0.42763 0.55015 0.15694 0.0
H2026 H 0.44591 0.5364 0.11252 0.0
H2027 H 0.4611 0.50057 0.08174 0.0
H2028 H 0.47707 0.41915 0.11217 0.0
H2029 H 0.46216 0.43337 0.15849 0.0
C2030 C 0.44277 0.48344 0.17235 0.0
C2031 C 0.43278 0.51028 0.17609 0.0
C2032 C 0.45311 0.47529 0.14661 0.0
C2033 C 0.43494 0.52934 0.15451 0.0
C2034 C 0.44526 0.52147 0.12907 0.0
C2035 C 0.46149 0.4859 0.09852 0.0
C2036 C 0.46954 0.45872 0.0936 0.0
C2037 C 0.45355 0.49436 0.12472 0.0
C2038 C 0.47055 0.44009 0.11556 0.0
C2039 C 0.46209 0.44826 0.14193 0.0
H2040 H 0.25618 0.68525 0.92063 0.0
H2041 H 0.21065 0.61015 0.90641 0.0
H2042 H 0.20033 0.62489 0.85934 0.0
H2043 H 0.20841 0.6572 0.82106 0.0
H2044 H 0.25449 0.73204 0.83626 0.0
H2045 H 0.26018 0.71936 0.88422 0.0
C2046 C 0.24375 0.67224 0.9073 0.0
C2047 C 0.23451 0.64656 0.91667 0.0
C2048 C 0.23815 0.6807 0.88042 0.0
C2049 C 0.21808 0.63002 0.89947 0.0
C2050 C 0.21229 0.63837 0.87258 0.0
C2051 C 0.2194 0.67087 0.83494 0.0
C2052 C 0.23141 0.69527 0.82491 0.0
C2053 C 0.22285 0.66338 0.86262 0.0
C2054 C 0.24534 0.71292 0.84327 0.0
C2055 C 0.24865 0.70572 0.87076 0.0
H2056 H 0.06031 0.50268 0.71784 0.0
H2057 H 0.0807 0.4232 0.68474 0.0
H2058 H 0.04579 0.42859 0.64881 0.0
H2059 H 0.01311 0.45813 0.62417 0.0
H2060 H -0.00299 0.53956 0.65471 0.0
H2061 H 0.0263 0.53107 0.69473 0.0
C2062 C 0.05687 0.48633 0.70301 0.0
C2063 C 0.07308 0.46259 0.70384 0.0
C2064 C 0.03753 0.49 0.68201 0.0
C2065 C 0.06852 0.44169 0.68441 0.0
C2066 C 0.0486 0.44479 0.66389 0.0
C2067 C 0.01549 0.47369 0.64002 0.0
C2068 C 0.00279 0.49932 0.63683 0.0
C2069 C 0.03344 0.46914 0.66215 0.0
C2070 C 0.00651 0.51965 0.65698 0.0
C2071 C 0.02334 0.51485 0.6797 0.0
H2072 H 0.25477 0.35464 0.43064 0.0
H2073 H 0.17476 0.31712 0.43999 0.0
H2074 H 0.17696 0.29968 0.39271 0.0
H2075 H 0.2013 0.29649 0.3483 0.0
H2076 H 0.28111 0.33512 0.33987 0.0
H2077 H 0.27919 0.35074 0.38728 0.0
C2078 C 0.23783 0.34253 0.42242 0.0
C2079 C 0.21463 0.3372 0.4387 0.0
C2080 C 0.23915 0.33288 0.39535 0.0
C2081 C 0.19286 0.32148 0.42778 0.0
C2082 C 0.1941 0.31157 0.40077 0.0
C2083 C 0.21828 0.30826 0.35686 0.0
C2084 C 0.24124 0.31468 0.34043 0.0
C2085 C 0.21707 0.31737 0.38428 0.0
C2086 C 0.2631 0.32993 0.35191 0.0
C2087 C 0.26209 0.3389 0.37908 0.0
H2088 H 0.2702 0.43718 0.56636 0.0
H2089 H 0.25426 0.45604 0.48103 0.0
H2090 H 0.28973 0.49161 0.48192 0.0
H2091 H 0.32964 0.51188 0.50448 0.0
H2092 H 0.34821 0.49159 0.58879 0.0
H2093 H 0.30674 0.46275 0.59115 0.0
C2094 C 0.2742 0.44944 0.54815 0.0
C2095 C 0.26009 0.44367 0.5235 0.0
C2096 C 0.29508 0.46954 0.54864 0.0
C2097 C 0.26521 0.45982 0.5001 0.0
C2098 C 0.28544 0.48018 0.5006 0.0
C2099 C 0.32425 0.50163 0.52359 0.0
C2100 C 0.34208 0.50337 0.54626 0.0
C2101 C 0.30117 0.48442 0.52439 0.0
C2102 C 0.33474 0.49047 0.57105 0.0
C2103 C 0.31124 0.47374 0.57228 0.0
H2104 H 0.83902 0.07519 0.50761 0.0
H2105 H 0.84247 0.09393 0.59439 0.0
H2106 H 0.88276 0.06486 0.59947 0.0
H2107 H 0.91833 0.03661 0.57879 0.0
H2108 H 0.91555 0.01831 0.49181 0.0
H2109 H 0.87319 0.04441 0.48739 0.0
C2110 C 0.84855 0.07281 0.52765 0.0
C2111 C 0.83803 0.08687 0.55055 0.0
C2112 C 0.87167 0.05613 0.53039 0.0
C2113 C 0.85034 0.08342 0.57644 0.0
C2114 C 0.87333 0.06681 0.57935 0.0
C2115 C 0.90838 0.03806 0.55886 0.0
C2116 C 0.92027 0.02573 0.53561 0.0
C2117 C 0.88436 0.05341 0.55639 0.0
C2118 C 0.9069 0.02765 0.51004 0.0
C2119 C 0.88276 0.04269 0.50746 0.0
H2120 H 0.62587 0.08584 0.2711 0.0
H2121 H 0.69928 0.05046 0.23714 0.0
H2122 H 0.71835 0.09645 0.2291 0.0
H2123 H 0.71572 0.14653 0.23584 0.0
H2124 H 0.6439 0.18104 0.27372 0.0
H2125 H 0.62224 0.13557 0.27561 0.0
C2126 C 0.64594 0.08819 0.2617 0.0
C2127 C 0.66128 0.06491 0.25492 0.0
C2128 C 0.65694 0.11453 0.25776 0.0
C2129 C 0.68723 0.06818 0.24275 0.0
C2130 C 0.69809 0.09443 0.2381 0.0
C2131 C 0.69507 0.14405 0.24385 0.0
C2132 C 0.68124 0.16686 0.25449 0.0
C2133 C 0.68333 0.11773 0.24603 0.0
C2134 C 0.65477 0.16359 0.26538 0.0
C2135 C 0.64249 0.13766 0.2666 0.0
H2136 H 0.69299 0.92531 0.98708 0.0
H2137 H 0.64686 0.84946 0.9803 0.0
H2138 H 0.60453 0.87521 0.97389 0.0
H2139 H 0.58029 0.91896 0.9752 0.0
H2140 H 0.62617 -0.0053 0.98494 0.0
H2141 H 0.66911 0.96926 0.98465 0.0
C2142 C 0.67371 0.91443 0.98391 0.0
C2143 C 0.67292 0.88559 0.98448 0.0
C2144 C 0.64947 0.92932 0.98077 0.0
C2145 C 0.64788 0.8717 0.98019 0.0
C2146 C 0.62371 0.88639 0.97651 0.0
C2147 C 0.5997 0.92998 0.97666 0.0
C2148 C 0.60007 0.95863 0.98029 0.0
C2149 C 0.62419 0.91518 0.97743 0.0
C2150 C 0.62537 0.9726 0.98231 0.0
C2151 C 0.6499 0.95808 0.98227 0.0
H2152 H 0.32501 0.46186 0.19131 0.0
H2153 H 0.30253 0.4778 0.27572 0.0
H2154 H 0.27083 0.43883 0.27497 0.0
H2155 H 0.25623 0.396 0.25337 0.0
H2156 H 0.28047 0.3776 0.17023 0.0
H2157 H 0.30405 0.42228 0.16695 0.0
C2158 C 0.31276 0.45707 0.20933 0.0
C2159 C 0.31652 0.4722 0.23374 0.0
C2160 C 0.29495 0.43424 0.20894 0.0
C2161 C 0.30033 0.4661 0.25685 0.0
C2162 C 0.28218 0.44387 0.25644 0.0
C2163 C 0.26597 0.40222 0.23425 0.0
C2164 C 0.26706 0.38369 0.2122 0.0
C2165 C 0.28028 0.42717 0.23304 0.0
C2166 C 0.2794 0.39176 0.1874 0.0
C2167 C 0.29317 0.41708 0.18571 0.0
H2168 H 0.22298 0.56353 0.06274 0.0
H2169 H 0.23543 0.52111 0.98586 0.0
H2170 H 0.19915 0.48831 -0.00259 0.0
H2171 H 0.15632 0.48103 0.02242 0.0
H2172 H 0.14042 0.52661 0.09648 0.0
H2173 H 0.18596 0.54817 0.09378 0.0
C2174 C 0.21841 0.54647 0.04906 0.0
C2175 C 0.23114 0.5451 0.02316 0.0
C2176 C 0.19662 0.52846 0.05528 0.0
C2177 C 0.22536 0.52284 0.00565 0.0
C2178 C 0.20459 0.50414 0.0122 0.0
C2179 C 0.16354 0.49459 0.0387 0.0
C2180 C 0.1453 0.50261 0.05939 0.0
C2181 C 0.18887 0.50803 0.03597 0.0
C2182 C 0.15439 0.52018 0.08045 0.0
C2183 C 0.18022 0.53284 0.07859 0.0
H2184 H 0.64376 0.90064 0.31722 0.0
H2185 H 0.71256 0.93205 0.27076 0.0
H2186 H 0.73804 0.88998 0.27999 0.0
H2187 H 0.73746 0.84175 0.29495 0.0
H2188 H 0.66807 0.80983 0.33977 0.0
H2189 H 0.64641 0.85499 0.33863 0.0
C2190 C 0.66444 0.89833 0.30936 0.0
C2191 C 0.67609 0.91897 0.29277 0.0
C2192 C 0.67893 0.8742 0.31486 0.0
C2193 C 0.70309 0.91617 0.28325 0.0
C2194 C 0.71767 0.89219 0.28859 0.0
C2195 C 0.71824 0.84518 0.30563 0.0
C2196 C 0.70445 0.8229 0.31781 0.0
C2197 C 0.70545 0.87077 0.30364 0.0
C2198 C 0.67921 0.82703 0.33089 0.0
C2199 C 0.66663 0.85266 0.32972 0.0
H2200 H 0.88983 0.13107 0.76967 0.0
H2201 H 0.80702 0.09892 0.77152 0.0
H2202 H 0.78898 0.14556 0.7721 0.0
H2203 H 0.7967 0.1953 0.7718 0.0
H2204 H 0.87949 0.22775 0.77155 0.0
H2205 H 0.89759 0.18111 0.7709 0.0
C2206 C 0.86784 0.13433 0.77011 0.0
C2207 C 0.84975 0.11166 0.77037 0.0
C2208 C 0.85763 0.16119 0.77088 0.0
C2209 C 0.82133 0.11609 0.77127 0.0
C2210 C 0.81101 0.14273 0.77161 0.0
C2211 C 0.81872 0.19222 0.77164 0.0
C2212 C 0.8367 0.21501 0.77161 0.0
C2213 C 0.82897 0.16541 0.77141 0.0
C2214 C 0.86517 0.21059 0.77166 0.0
C2215 C 0.87555 0.18392 0.77118 0.0
loop_
_geom_bond_atom_site_label_1
_geom_bond_atom_site_label_2
_geom_bond_distance
_geom_bond_site_symmetry_2
_ccdc_geom_bond_type
In0 O1 2.294 . S
In0 O2 2.326 . S
In0 O6 2.266 . S
In0 O7 2.326 . S
In0 O8 2.266 . S
In0 O9 2.326 . S
In0 O11 2.294 1_455 S
In0 O12 2.326 1_455 S
O1 In0 2.294 . S
O1 C10 1.240 . S
O2 In0 2.326 . S
O2 C10 1.252 . S
C3 O6 1.252 . S
C3 O7 1.260 . S
C4 O11 1.240 . S
C4 O12 1.252 . S
C5 O8 1.252 . S
C5 O9 1.260 . S
O6 In0 2.266 . S
O6 C3 1.252 . S
O7 In0 2.326 . S
O7 C3 1.260 . S
O8 In0 2.266 . S
O8 C5 1.252 . S
O9 In0 2.326 . S
O9 C5 1.260 . S
C10 O1 1.240 . S
C10 O2 1.252 . S
O11 In0 2.294 1_655 S
O11 C4 1.240 . S
O12 In0 2.326 1_655 S
O12 C4 1.252 . S
In13 O14 2.294 . S
In13 O15 2.326 . S
In13 O19 2.266 1_455 S
In13 O20 2.326 1_455 S
In13 O21 2.266 . S
In13 O22 2.326 . S
In13 O24 2.294 . S
In13 O25 2.326 . S
O14 In13 2.294 . S
O14 C23 1.240 . S
O15 In13 2.326 . S
O15 C23 1.252 . S
C16 O19 1.252 . S
C16 O20 1.260 . S
C17 O24 1.240 . S
C17 O25 1.252 . S
C18 O21 1.252 . S
C18 O22 1.260 . S
O19 In13 2.266 1_655 S
O19 C16 1.252 . S
O20 In13 2.326 1_655 S
O20 C16 1.260 . S
O21 In13 2.266 . S
O21 C18 1.252 . S
O22 In13 2.326 . S
O22 C18 1.260 . S
C23 O14 1.240 . S
C23 O15 1.252 . S
O24 In13 2.294 . S
O24 C17 1.240 . S
O25 In13 2.326 . S
O25 C17 1.252 . S
In26 O27 2.294 . S
In26 O28 2.326 . S
In26 O32 2.266 . S
In26 O33 2.326 . S
In26 O34 2.266 . S
In26 O35 2.326 . S
In26 O37 2.294 . S
In26 O38 2.326 . S
O27 In26 2.294 . S
O27 C36 1.240 . S
O28 In26 2.326 . S
O28 C36 1.252 . S
C29 O32 1.252 . S
C29 O33 1.260 . S
C30 O37 1.240 . S
C30 O38 1.252 . S
C31 O34 1.252 . S
C31 O35 1.260 . S
O32 In26 2.266 . S
O32 C29 1.252 . S
O33 In26 2.326 . S
O33 C29 1.260 . S
O34 In26 2.266 . S
O34 C31 1.252 . S
O35 In26 2.326 . S
O35 C31 1.260 . S
C36 O27 1.240 . S
C36 O28 1.252 . S
O37 In26 2.294 . S
O37 C30 1.240 . S
O38 In26 2.326 . S
O38 C30 1.252 . S
In39 O40 2.294 . S
In39 O41 2.326 . S
In39 O45 2.266 . S
In39 O46 2.326 . S
In39 O47 2.266 . S
In39 O48 2.326 . S
In39 O50 2.294 . S
In39 O51 2.326 . S
O40 In39 2.294 . S
O40 C49 1.240 . S
O41 In39 2.326 . S
O41 C49 1.252 . S
C42 O45 1.252 . S
C42 O46 1.260 . S
C43 O50 1.240 . S
C43 O51 1.252 . S
C44 O47 1.252 . S
C44 O48 1.260 . S
O45 In39 2.266 . S
O45 C42 1.252 . S
O46 In39 2.326 . S
O46 C42 1.260 . S
O47 In39 2.266 . S
O47 C44 1.252 . S
O48 In39 2.326 . S
O48 C44 1.260 . S
C49 O40 1.240 . S
C49 O41 1.252 . S
O50 In39 2.294 . S
O50 C43 1.240 . S
O51 In39 2.326 . S
O51 C43 1.252 . S
In52 O53 2.294 1_545 S
In52 O54 2.326 1_545 S
In52 O58 2.266 . S
In52 O59 2.326 . S
In52 O60 2.266 . S
In52 O61 2.326 . S
In52 O63 2.294 . S
In52 O64 2.326 . S
O53 In52 2.294 1_565 S
O53 C62 1.240 . S
O54 In52 2.326 1_565 S
O54 C62 1.252 . S
C55 O58 1.252 . S
C55 O59 1.260 . S
C56 O63 1.240 . S
C56 O64 1.252 . S
C57 O60 1.252 . S
C57 O61 1.260 . S
O58 In52 2.266 . S
O58 C55 1.252 . S
O59 In52 2.326 . S
O59 C55 1.260 . S
O60 In52 2.266 . S
O60 C57 1.252 . S
O61 In52 2.326 . S
O61 C57 1.260 . S
C62 O53 1.240 . S
C62 O54 1.252 . S
O63 In52 2.294 . S
O63 C56 1.240 . S
O64 In52 2.326 . S
O64 C56 1.252 . S
In65 O66 2.294 . S
In65 O67 2.326 . S
In65 O71 2.266 . S
In65 O72 2.326 . S
In65 O73 2.266 . S
In65 O74 2.326 . S
In65 O76 2.294 . S
In65 O77 2.326 . S
O66 In65 2.294 . S
O66 C75 1.240 . S
O67 In65 2.326 . S
O67 C75 1.252 . S
C68 O71 1.252 . S
C68 O72 1.260 . S
C69 O76 1.240 . S
C69 O77 1.252 . S
C70 O73 1.252 . S
C70 O74 1.260 . S
O71 In65 2.266 . S
O71 C68 1.252 . S
O72 In65 2.326 . S
O72 C68 1.260 . S
O73 In65 2.266 . S
O73 C70 1.252 . S
O74 In65 2.326 . S
O74 C70 1.260 . S
C75 O66 1.240 . S
C75 O67 1.252 . S
O76 In65 2.294 . S
O76 C69 1.240 . S
O77 In65 2.326 . S
O77 C69 1.252 . S
In78 O79 2.294 . S
In78 O80 2.326 . S
In78 O84 2.266 1_545 S
In78 O85 2.326 1_545 S
In78 O86 2.266 1_545 S
In78 O87 2.326 1_545 S
In78 O89 2.294 . S
In78 O90 2.326 . S
O79 In78 2.294 . S
O79 C88 1.240 . S
O80 In78 2.326 . S
O80 C88 1.252 . S
C81 O84 1.252 . S
C81 O85 1.260 . S
C82 O89 1.240 . S
C82 O90 1.252 . S
C83 O86 1.252 . S
C83 O87 1.260 . S
O84 In78 2.266 1_565 S
O84 C81 1.252 . S
O85 In78 2.326 1_565 S
O85 C81 1.260 . S
O86 In78 2.266 1_565 S
O86 C83 1.252 . S
O87 In78 2.326 1_565 S
O87 C83 1.260 . S
C88 O79 1.240 . S
C88 O80 1.252 . S
O89 In78 2.294 . S
O89 C82 1.240 . S
O90 In78 2.326 . S
O90 C82 1.252 . S
In91 O92 2.294 . S
In91 O93 2.326 . S
In91 O97 2.266 . S
In91 O98 2.326 . S
In91 O99 2.266 1_554 S
In91 O100 2.326 1_554 S
In91 O102 2.294 . S
In91 O103 2.326 . S
O92 In91 2.294 . S
O92 C101 1.240 . S
O93 In91 2.326 . S
O93 C101 1.252 . S
C94 O97 1.252 . S
C94 O98 1.260 . S
C95 O102 1.240 . S
C95 O103 1.252 . S
C96 O99 1.252 . S
C96 O100 1.260 . S
O97 In91 2.266 . S
O97 C94 1.252 . S
O98 In91 2.326 . S
O98 C94 1.260 . S
O99 In91 2.266 1_556 S
O99 C96 1.252 . S
O100 In91 2.326 1_556 S
O100 C96 1.260 . S
C101 O92 1.240 . S
C101 O93 1.252 . S
O102 In91 2.294 . S
O102 C95 1.240 . S
O103 In91 2.326 . S
O103 C95 1.252 . S
In104 O105 2.294 . S
In104 O106 2.326 . S
In104 O110 2.266 1_554 S
In104 O111 2.326 1_554 S
In104 O112 2.266 . S
In104 O113 2.326 . S
In104 O115 2.294 . S
In104 O116 2.326 . S
O105 In104 2.294 . S
O105 C114 1.240 . S
O106 In104 2.326 . S
O106 C114 1.252 . S
C107 O110 1.252 . S
C107 O111 1.260 . S
C108 O115 1.240 . S
C108 O116 1.252 . S
C109 O112 1.252 . S
C109 O113 1.260 . S
O110 In104 2.266 1_556 S
O110 C107 1.252 . S
O111 In104 2.326 1_556 S
O111 C107 1.260 . S
O112 In104 2.266 . S
O112 C109 1.252 . S
O113 In104 2.326 . S
O113 C109 1.260 . S
C114 O105 1.240 . S
C114 O106 1.252 . S
O115 In104 2.294 . S
O115 C108 1.240 . S
O116 In104 2.326 . S
O116 C108 1.252 . S
In117 O118 2.294 . S
In117 O119 2.326 . S
In117 O123 2.266 . S
In117 O124 2.326 . S
In117 O125 2.266 . S
In117 O126 2.326 . S
In117 O128 2.294 . S
In117 O129 2.326 . S
O118 In117 2.294 . S
O118 C127 1.240 . S
O119 In117 2.326 . S
O119 C127 1.252 . S
C120 O123 1.252 . S
C120 O124 1.260 . S
C121 O128 1.240 . S
C121 O129 1.252 . S
C122 O125 1.252 . S
C122 O126 1.260 . S
O123 In117 2.266 . S
O123 C120 1.252 . S
O124 In117 2.326 . S
O124 C120 1.260 . S
O125 In117 2.266 . S
O125 C122 1.252 . S
O126 In117 2.326 . S
O126 C122 1.260 . S
C127 O118 1.240 . S
C127 O119 1.252 . S
O128 In117 2.294 . S
O128 C121 1.240 . S
O129 In117 2.326 . S
O129 C121 1.252 . S
In130 O131 2.294 . S
In130 O132 2.326 . S
In130 O136 2.266 . S
In130 O137 2.326 . S
In130 O138 2.266 . S
In130 O139 2.326 . S
In130 O141 2.294 . S
In130 O142 2.326 . S
O131 In130 2.294 . S
O131 C140 1.240 . S
O132 In130 2.326 . S
O132 C140 1.252 . S
C133 O136 1.252 . S
C133 O137 1.260 . S
C134 O141 1.240 . S
C134 O142 1.252 . S
C135 O138 1.252 . S
C135 O139 1.260 . S
O136 In130 2.266 . S
O136 C133 1.252 . S
O137 In130 2.326 . S
O137 C133 1.260 . S
O138 In130 2.266 . S
O138 C135 1.252 . S
O139 In130 2.326 . S
O139 C135 1.260 . S
C140 O131 1.240 . S
C140 O132 1.252 . S
O141 In130 2.294 . S
O141 C134 1.240 . S
O142 In130 2.326 . S
O142 C134 1.252 . S
In143 O144 2.294 . S
In143 O145 2.326 . S
In143 O149 2.266 . S
In143 O150 2.326 . S
In143 O151 2.266 . S
In143 O152 2.326 . S
In143 O154 2.294 . S
In143 O155 2.326 . S
O144 In143 2.294 . S
O144 C153 1.240 . S
O145 In143 2.326 . S
O145 C153 1.252 . S
C146 O149 1.252 . S
C146 O150 1.260 . S
C147 O154 1.240 . S
C147 O155 1.252 . S
C148 O151 1.252 . S
C148 O152 1.260 . S
O149 In143 2.266 . S
O149 C146 1.252 . S
O150 In143 2.326 . S
O150 C146 1.260 . S
O151 In143 2.266 . S
O151 C148 1.252 . S
O152 In143 2.326 . S
O152 C148 1.260 . S
C153 O144 1.240 . S
C153 O145 1.252 . S
O154 In143 2.294 . S
O154 C147 1.240 . S
O155 In143 2.326 . S
O155 C147 1.252 . S
In156 O157 2.294 . S
In156 O158 2.326 . S
In156 O162 2.266 1_455 S
In156 O163 2.326 1_455 S
In156 O164 2.266 . S
In156 O165 2.326 . S
In156 O167 2.294 . S
In156 O168 2.326 . S
O157 In156 2.294 . S
O157 C166 1.240 . S
O158 In156 2.326 . S
O158 C166 1.252 . S
C159 O162 1.252 . S
C159 O163 1.260 . S
C160 O167 1.240 . S
C160 O168 1.252 . S
C161 O164 1.252 . S
C161 O165 1.260 . S
O162 In156 2.266 1_655 S
O162 C159 1.252 . S
O163 In156 2.326 1_655 S
O163 C159 1.260 . S
O164 In156 2.266 . S
O164 C161 1.252 . S
O165 In156 2.326 . S
O165 C161 1.260 . S
C166 O157 1.240 . S
C166 O158 1.252 . S
O167 In156 2.294 . S
O167 C160 1.240 . S
O168 In156 2.326 . S
O168 C160 1.252 . S
In169 O170 2.294 . S
In169 O171 2.326 . S
In169 O175 2.266 . S
In169 O176 2.326 . S
In169 O177 2.266 1_455 S
In169 O178 2.326 1_455 S
In169 O180 2.294 . S
In169 O181 2.326 . S
O170 In169 2.294 . S
O170 C179 1.240 . S
O171 In169 2.326 . S
O171 C179 1.252 . S
C172 O175 1.252 . S
C172 O176 1.260 . S
C173 O180 1.240 . S
C173 O181 1.252 . S
C174 O177 1.252 . S
C174 O178 1.260 . S
O175 In169 2.266 . S
O175 C172 1.252 . S
O176 In169 2.326 . S
O176 C172 1.260 . S
O177 In169 2.266 1_655 S
O177 C174 1.252 . S
O178 In169 2.326 1_655 S
O178 C174 1.260 . S
C179 O170 1.240 . S
C179 O171 1.252 . S
O180 In169 2.294 . S
O180 C173 1.240 . S
O181 In169 2.326 . S
O181 C173 1.252 . S
In182 O183 2.294 . S
In182 O184 2.326 . S
In182 O188 2.266 . S
In182 O189 2.326 . S
In182 O190 2.266 . S
In182 O191 2.326 . S
In182 O193 2.294 . S
In182 O194 2.326 . S
O183 In182 2.294 . S
O183 C192 1.240 . S
O184 In182 2.326 . S
O184 C192 1.252 . S
C185 O188 1.252 . S
C185 O189 1.260 . S
C186 O193 1.240 . S
C186 O194 1.252 . S
C187 O190 1.252 . S
C187 O191 1.260 . S
O188 In182 2.266 . S
O188 C185 1.252 . S
O189 In182 2.326 . S
O189 C185 1.260 . S
O190 In182 2.266 . S
O190 C187 1.252 . S
O191 In182 2.326 . S
O191 C187 1.260 . S
C192 O183 1.240 . S
C192 O184 1.252 . S
O193 In182 2.294 . S
O193 C186 1.240 . S
O194 In182 2.326 . S
O194 C186 1.252 . S
In195 O196 2.294 . S
In195 O197 2.326 . S
In195 O201 2.266 . S
In195 O202 2.326 . S
In195 O203 2.266 . S
In195 O204 2.326 . S
In195 O206 2.294 . S
In195 O207 2.326 . S
O196 In195 2.294 . S
O196 C205 1.240 . S
O197 In195 2.326 . S
O197 C205 1.252 . S
C198 O201 1.252 . S
C198 O202 1.260 . S
C199 O206 1.240 . S
C199 O207 1.252 . S
C200 O203 1.252 . S
C200 O204 1.260 . S
O201 In195 2.266 . S
O201 C198 1.252 . S
O202 In195 2.326 . S
O202 C198 1.260 . S
O203 In195 2.266 . S
O203 C200 1.252 . S
O204 In195 2.326 . S
O204 C200 1.260 . S
C205 O196 1.240 . S
C205 O197 1.252 . S
O206 In195 2.294 . S
O206 C199 1.240 . S
O207 In195 2.326 . S
O207 C199 1.252 . S
In208 O209 2.294 . S
In208 O210 2.326 . S
In208 O214 2.266 . S
In208 O215 2.326 . S
In208 O216 2.266 1_545 S
In208 O217 2.326 1_545 S
In208 O219 2.294 . S
In208 O220 2.326 . S
O209 In208 2.294 . S
O209 C218 1.240 . S
O210 In208 2.326 . S
O210 C218 1.252 . S
C211 O214 1.252 . S
C211 O215 1.260 . S
C212 O219 1.240 . S
C212 O220 1.252 . S
C213 O216 1.252 . S
C213 O217 1.260 . S
O214 In208 2.266 . S
O214 C211 1.252 . S
O215 In208 2.326 . S
O215 C211 1.260 . S
O216 In208 2.266 1_565 S
O216 C213 1.252 . S
O217 In208 2.326 1_565 S
O217 C213 1.260 . S
C218 O209 1.240 . S
C218 O210 1.252 . S
O219 In208 2.294 . S
O219 C212 1.240 . S
O220 In208 2.326 . S
O220 C212 1.252 . S
In221 O222 2.294 . S
In221 O223 2.326 . S
In221 O227 2.266 . S
In221 O228 2.326 . S
In221 O229 2.266 . S
In221 O230 2.326 . S
In221 O232 2.294 . S
In221 O233 2.326 . S
O222 In221 2.294 . S
O222 C231 1.240 . S
O223 In221 2.326 . S
O223 C231 1.252 . S
C224 O227 1.252 . S
C224 O228 1.260 . S
C225 O232 1.240 . S
C225 O233 1.252 . S
C226 O229 1.252 . S
C226 O230 1.260 . S
O227 In221 2.266 . S
O227 C224 1.252 . S
O228 In221 2.326 . S
O228 C224 1.260 . S
O229 In221 2.266 . S
O229 C226 1.252 . S
O230 In221 2.326 . S
O230 C226 1.260 . S
C231 O222 1.240 . S
C231 O223 1.252 . S
O232 In221 2.294 . S
O232 C225 1.240 . S
O233 In221 2.326 . S
O233 C225 1.252 . S
In234 O235 2.268 1_545 S
In234 O236 2.287 1_545 S
In234 O240 2.292 . S
In234 O241 2.365 . S
In234 O242 2.272 . S
In234 O243 2.329 . S
In234 O245 2.289 1_545 S
In234 O246 2.323 1_545 S
O235 In234 2.268 1_565 S
O235 C244 1.240 . S
O236 In234 2.287 1_565 S
O236 C244 1.252 . S
C237 O240 1.252 . S
C237 O241 1.260 . S
C238 O245 1.240 . S
C238 O246 1.252 . S
C239 O242 1.252 . S
C239 O243 1.260 . S
O240 In234 2.292 . S
O240 C237 1.252 . S
O241 In234 2.365 . S
O241 C237 1.260 . S
O242 In234 2.272 . S
O242 C239 1.252 . S
O243 In234 2.329 . S
O243 C239 1.260 . S
C244 O235 1.240 . S
C244 O236 1.252 . S
O245 In234 2.289 1_565 S
O245 C238 1.240 . S
O246 In234 2.323 1_565 S
O246 C238 1.252 . S
In247 O248 2.294 . S
In247 O249 2.326 . S
In247 O253 2.267 . S
In247 O254 2.326 . S
In247 O255 2.266 1_554 S
In247 O256 2.326 1_554 S
In247 O258 2.294 . S
In247 O259 2.326 . S
O248 In247 2.294 . S
O248 C257 1.240 . S
O249 In247 2.326 . S
O249 C257 1.252 . S
C250 O253 1.252 . S
C250 O254 1.262 . S
C251 O258 1.240 . S
C251 O259 1.252 . S
C252 O255 1.252 . S
C252 O256 1.260 . S
O253 In247 2.267 . S
O253 C250 1.252 . S
O254 In247 2.326 . S
O254 C250 1.262 . S
O255 In247 2.266 1_556 S
O255 C252 1.252 . S
O256 In247 2.326 1_556 S
O256 C252 1.260 . S
C257 O248 1.240 . S
C257 O249 1.252 . S
O258 In247 2.294 . S
O258 C251 1.240 . S
O259 In247 2.326 . S
O259 C251 1.252 . S
In260 O261 2.294 . S
In260 O262 2.326 . S
In260 O266 2.266 1_554 S
In260 O267 2.326 1_554 S
In260 O268 2.264 1_554 S
In260 O269 2.326 . S
In260 O271 2.294 . S
In260 O272 2.326 . S
O261 In260 2.294 . S
O261 C270 1.240 . S
O262 In260 2.326 . S
O262 C270 1.252 . S
C263 O266 1.252 . S
C263 O267 1.260 . S
C264 O271 1.240 . S
C264 O272 1.252 . S
C265 O268 1.252 . S
C265 O269 1.259 1_556 S
O266 In260 2.266 1_556 S
O266 C263 1.252 . S
O267 In260 2.326 1_556 S
O267 C263 1.260 . S
O268 In260 2.264 1_556 S
O268 C265 1.252 . S
O269 In260 2.326 . S
O269 C265 1.259 1_554 S
C270 O261 1.240 . S
C270 O262 1.252 . S
O271 In260 2.294 . S
O271 C264 1.240 . S
O272 In260 2.326 . S
O272 C264 1.252 . S
In273 O274 2.294 . S
In273 O275 2.326 . S
In273 O279 2.266 . S
In273 O280 2.326 . S
In273 O281 2.266 . S
In273 O282 2.326 . S
In273 O284 2.294 . S
In273 O285 2.326 . S
O274 In273 2.294 . S
O274 C283 1.240 . S
O275 In273 2.326 . S
O275 C283 1.252 . S
C276 O279 1.252 . S
C276 O280 1.260 . S
C277 O284 1.240 . S
C277 O285 1.252 . S
C278 O281 1.252 . S
C278 O282 1.260 . S
O279 In273 2.266 . S
O279 C276 1.252 . S
O280 In273 2.326 . S
O280 C276 1.260 . S
O281 In273 2.266 . S
O281 C278 1.252 . S
O282 In273 2.326 . S
O282 C278 1.260 . S
C283 O274 1.240 . S
C283 O275 1.252 . S
O284 In273 2.294 . S
O284 C277 1.240 . S
O285 In273 2.326 . S
O285 C277 1.252 . S
In286 O287 2.294 . S
In286 O288 2.326 . S
In286 O292 2.266 . S
In286 O293 2.326 . S
In286 O294 2.266 . S
In286 O295 2.326 . S
In286 O297 2.294 . S
In286 O298 2.326 . S
O287 In286 2.294 . S
O287 C296 1.240 . S
O288 In286 2.326 . S
O288 C296 1.252 . S
C289 O292 1.252 . S
C289 O293 1.260 . S
C290 O297 1.240 . S
C290 O298 1.252 . S
C291 O294 1.252 . S
C291 O295 1.260 . S
O292 In286 2.266 . S
O292 C289 1.252 . S
O293 In286 2.326 . S
O293 C289 1.260 . S
O294 In286 2.266 . S
O294 C291 1.252 . S
O295 In286 2.326 . S
O295 C291 1.260 . S
C296 O287 1.240 . S
C296 O288 1.252 . S
O297 In286 2.294 . S
O297 C290 1.240 . S
O298 In286 2.326 . S
O298 C290 1.252 . S
In299 O300 2.294 . S
In299 O301 2.326 . S
In299 O305 2.266 . S
In299 O306 2.326 . S
In299 O307 2.266 . S
In299 O308 2.326 . S
In299 O310 2.294 . S
In299 O311 2.326 . S
O300 In299 2.294 . S
O300 C309 1.240 . S
O301 In299 2.326 . S
O301 C309 1.252 . S
C302 O305 1.252 . S
C302 O306 1.260 . S
C303 O310 1.240 . S
C303 O311 1.252 . S
C304 O307 1.252 . S
C304 O308 1.260 . S
O305 In299 2.266 . S
O305 C302 1.252 . S
O306 In299 2.326 . S
O306 C302 1.260 . S
O307 In299 2.266 . S
O307 C304 1.252 . S
O308 In299 2.326 . S
O308 C304 1.260 . S
C309 O300 1.240 . S
C309 O301 1.252 . S
O310 In299 2.294 . S
O310 C303 1.240 . S
O311 In299 2.326 . S
O311 C303 1.252 . S
O312 Zn313 1.940 1_554 S
O312 C328 1.225 1_455 S
Zn313 O312 1.940 1_556 S
Zn313 O314 1.943 1_556 S
Zn313 O320 1.922 . S
Zn313 O325 1.944 1_455 S
O314 Zn313 1.943 1_554 S
O314 Zn315 1.931 1_545 S
O314 Zn316 1.943 1_455 S
O314 Zn317 1.939 1_444 S
Zn315 O314 1.931 1_565 S
Zn315 O318 1.933 . S
Zn315 O321 1.941 1_565 S
Zn315 O322 1.965 . S
Zn316 O314 1.943 1_655 S
Zn316 O323 1.938 . S
Zn316 O324 1.906 1_545 S
Zn316 O334 1.953 . S
Zn317 O314 1.939 1_666 S
Zn317 O319 1.932 . S
Zn317 O326 1.977 1_556 S
Zn317 O327 1.910 1_565 S
O318 Zn315 1.933 . S
O318 C329 1.226 1_554 S
O319 Zn317 1.932 . S
O319 C329 1.307 1_655 S
O320 Zn313 1.922 . S
O320 C331 1.251 1_556 S
O321 Zn315 1.941 1_545 S
O321 C331 1.288 . S
O322 Zn315 1.965 . S
O322 C330 1.303 . S
O323 Zn316 1.938 . S
O323 C330 1.247 1_645 S
O324 Zn316 1.906 1_565 S
O324 C332 1.304 . S
O325 Zn313 1.944 1_655 S
O325 C333 1.311 . S
O326 Zn317 1.977 1_554 S
O326 C332 1.272 . S
O327 Zn317 1.910 1_545 S
O327 C333 1.231 . S
C328 O312 1.225 1_655 S
C328 O334 1.298 . S
C329 O318 1.226 1_556 S
C329 O319 1.307 1_455 S
C330 O322 1.303 . S
C330 O323 1.247 1_465 S
C331 O320 1.251 1_554 S
C331 O321 1.288 . S
C332 O324 1.304 . S
C332 O326 1.272 . S
C333 O325 1.311 . S
C333 O327 1.231 . S
O334 Zn316 1.953 . S
O334 C328 1.298 . S
O335 Zn336 1.953 . S
O335 C351 1.225 . S
Zn336 O335 1.953 . S
Zn336 O337 1.949 . S
Zn336 O343 1.919 . S
Zn336 O348 1.924 . S
O337 Zn336 1.949 . S
O337 Zn338 1.923 . S
O337 Zn339 1.950 . S
O337 Zn340 1.945 . S
Zn338 O337 1.923 . S
Zn338 O341 1.933 . S
Zn338 O344 1.941 . S
Zn338 O345 1.965 . S
Zn339 O337 1.950 . S
Zn339 O346 1.938 . S
Zn339 O347 1.906 . S
Zn339 O357 1.953 . S
Zn340 O337 1.945 . S
Zn340 O342 1.932 . S
Zn340 O349 1.977 . S
Zn340 O350 1.910 . S
O341 Zn338 1.933 . S
O341 C352 1.226 . S
O342 Zn340 1.932 . S
O342 C352 1.307 . S
O343 Zn336 1.919 . S
O343 C354 1.253 . S
O344 Zn338 1.941 . S
O344 C354 1.283 . S
O345 Zn338 1.965 . S
O345 C353 1.303 . S
O346 Zn339 1.938 . S
O346 C353 1.247 . S
O347 Zn339 1.906 . S
O347 C355 1.304 . S
O348 Zn336 1.924 . S
O348 C356 1.311 . S
O349 Zn340 1.977 . S
O349 C355 1.272 . S
O350 Zn340 1.910 . S
O350 C356 1.231 . S
C351 O335 1.225 . S
C351 O357 1.298 . S
C352 O341 1.226 . S
C352 O342 1.307 . S
C353 O345 1.303 . S
C353 O346 1.247 . S
C354 O343 1.253 . S
C354 O344 1.283 . S
C355 O347 1.304 . S
C355 O349 1.272 . S
C356 O348 1.311 . S
C356 O350 1.231 . S
O357 Zn339 1.953 . S
O357 C351 1.298 . S
O358 Zn359 1.953 . S
O358 C374 1.225 . S
Zn359 O358 1.953 . S
Zn359 O360 1.949 1_565 S
Zn359 O366 1.919 . S
Zn359 O371 1.924 . S
O360 Zn359 1.949 1_545 S
O360 Zn361 1.923 . S
O360 Zn362 1.950 . S
O360 Zn363 1.945 . S
Zn361 O360 1.923 . S
Zn361 O364 1.933 . S
Zn361 O367 1.941 . S
Zn361 O368 1.965 . S
Zn362 O360 1.950 . S
Zn362 O369 1.938 . S
Zn362 O370 1.906 . S
Zn362 O380 1.953 1_545 S
Zn363 O360 1.945 . S
Zn363 O365 1.932 . S
Zn363 O372 1.977 . S
Zn363 O373 1.910 . S
O364 Zn361 1.933 . S
O364 C375 1.226 . S
O365 Zn363 1.932 . S
O365 C375 1.307 . S
O366 Zn359 1.919 . S
O366 C377 1.241 1_565 S
O367 Zn361 1.941 . S
O367 C377 1.295 . S
O368 Zn361 1.965 . S
O368 C376 1.303 . S
O369 Zn362 1.938 . S
O369 C376 1.247 . S
O370 Zn362 1.906 . S
O370 C378 1.304 . S
O371 Zn359 1.924 . S
O371 C379 1.311 . S
O372 Zn363 1.977 . S
O372 C378 1.272 . S
O373 Zn363 1.910 . S
O373 C379 1.231 1_545 S
C374 O358 1.225 . S
C374 O380 1.298 . S
C375 O364 1.226 . S
C375 O365 1.307 . S
C376 O368 1.303 . S
C376 O369 1.247 . S
C377 O366 1.241 1_545 S
C377 O367 1.295 . S
C378 O370 1.304 . S
C378 O372 1.272 . S
C379 O371 1.311 . S
C379 O373 1.231 1_565 S
O380 Zn362 1.953 1_565 S
O380 C374 1.298 . S
O381 Zn382 1.953 . S
O381 C397 1.225 . S
Zn382 O381 1.953 . S
Zn382 O383 1.949 . S
Zn382 O389 1.919 . S
Zn382 O394 1.924 . S
O383 Zn382 1.949 . S
O383 Zn384 1.923 . S
O383 Zn385 1.950 . S
O383 Zn386 1.945 . S
Zn384 O383 1.923 . S
Zn384 O387 1.933 . S
Zn384 O390 1.941 . S
Zn384 O391 1.965 . S
Zn385 O383 1.950 . S
Zn385 O392 1.938 . S
Zn385 O393 1.906 . S
Zn385 O403 1.953 . S
Zn386 O383 1.945 . S
Zn386 O388 1.932 . S
Zn386 O395 1.977 . S
Zn386 O396 1.910 . S
O387 Zn384 1.933 . S
O387 C398 1.226 . S
O388 Zn386 1.932 . S
O388 C398 1.307 . S
O389 Zn382 1.919 . S
O389 C400 1.253 . S
O390 Zn384 1.941 . S
O390 C400 1.283 . S
O391 Zn384 1.965 . S
O391 C399 1.303 . S
O392 Zn385 1.938 . S
O392 C399 1.247 . S
O393 Zn385 1.906 . S
O393 C401 1.304 . S
O394 Zn382 1.924 . S
O394 C402 1.311 . S
O395 Zn386 1.977 . S
O395 C401 1.272 . S
O396 Zn386 1.910 . S
O396 C402 1.231 . S
C397 O381 1.225 . S
C397 O403 1.298 . S
C398 O387 1.226 . S
C398 O388 1.307 . S
C399 O391 1.303 . S
C399 O392 1.247 . S
C400 O389 1.253 . S
C400 O390 1.283 . S
C401 O393 1.304 . S
C401 O395 1.272 . S
C402 O394 1.311 . S
C402 O396 1.231 . S
O403 Zn385 1.953 . S
O403 C397 1.298 . S
O404 Zn405 1.953 1_455 S
O404 C420 1.225 . S
Zn405 O404 1.953 1_655 S
Zn405 O406 1.949 1_655 S
Zn405 O412 1.919 1_545 S
Zn405 O417 1.924 . S
O406 Zn405 1.949 1_455 S
O406 Zn407 1.923 1_545 S
O406 Zn408 1.950 . S
O406 Zn409 1.945 1_455 S
Zn407 O406 1.923 1_565 S
Zn407 O410 1.933 . S
Zn407 O413 1.941 . S
Zn407 O414 1.965 . S
Zn408 O406 1.950 . S
Zn408 O415 1.938 . S
Zn408 O416 1.906 . S
Zn408 O426 1.953 . S
Zn409 O406 1.945 1_655 S
Zn409 O411 1.932 . S
Zn409 O418 1.977 . S
Zn409 O419 1.910 . S
O410 Zn407 1.933 . S
O410 C421 1.235 1_455 S
O411 Zn409 1.932 . S
O411 C421 1.294 1_545 S
O412 Zn405 1.919 1_565 S
O412 C423 1.253 . S
O413 Zn407 1.941 . S
O413 C423 1.283 1_455 S
O414 Zn407 1.965 . S
O414 C422 1.314 . S
O415 Zn408 1.938 . S
O415 C422 1.228 1_545 S
O416 Zn408 1.906 . S
O416 C424 1.304 . S
O417 Zn405 1.924 . S
O417 C425 1.311 . S
O418 Zn409 1.977 . S
O418 C424 1.272 1_655 S
O419 Zn409 1.910 . S
O419 C425 1.231 . S
C420 O404 1.225 . S
C420 O426 1.298 . S
C421 O410 1.235 1_655 S
C421 O411 1.294 1_565 S
C422 O414 1.314 . S
C422 O415 1.228 1_565 S
C423 O412 1.253 . S
C423 O413 1.283 1_655 S
C424 O416 1.304 . S
C424 O418 1.272 1_455 S
C425 O417 1.311 . S
C425 O419 1.231 . S
O426 Zn408 1.953 . S
O426 C420 1.298 . S
O427 Zn428 1.953 . S
O427 C443 1.225 . S
Zn428 O427 1.953 . S
Zn428 O429 1.949 . S
Zn428 O435 1.919 . S
Zn428 O440 1.924 . S
O429 Zn428 1.949 . S
O429 Zn430 1.923 . S
O429 Zn431 1.950 . S
O429 Zn432 1.945 . S
Zn430 O429 1.923 . S
Zn430 O433 1.933 . S
Zn430 O436 1.941 . S
Zn430 O437 1.965 . S
Zn431 O429 1.950 . S
Zn431 O438 1.938 . S
Zn431 O439 1.906 . S
Zn431 O449 1.953 . S
Zn432 O429 1.945 . S
Zn432 O434 1.932 . S
Zn432 O441 1.977 . S
Zn432 O442 1.910 . S
O433 Zn430 1.933 . S
O433 C444 1.226 . S
O434 Zn432 1.932 . S
O434 C444 1.307 . S
O435 Zn428 1.919 . S
O435 C446 1.253 . S
O436 Zn430 1.941 . S
O436 C446 1.283 . S
O437 Zn430 1.965 . S
O437 C445 1.303 . S
O438 Zn431 1.938 . S
O438 C445 1.247 . S
O439 Zn431 1.906 . S
O439 C447 1.304 . S
O440 Zn428 1.924 . S
O440 C448 1.311 . S
O441 Zn432 1.977 . S
O441 C447 1.272 . S
O442 Zn432 1.910 . S
O442 C448 1.231 . S
C443 O427 1.225 . S
C443 O449 1.298 . S
C444 O433 1.226 . S
C444 O434 1.307 . S
C445 O437 1.303 . S
C445 O438 1.247 . S
C446 O435 1.253 . S
C446 O436 1.283 . S
C447 O439 1.304 . S
C447 O441 1.272 . S
C448 O440 1.311 . S
C448 O442 1.231 . S
O449 Zn431 1.953 . S
O449 C443 1.298 . S
O450 Zn451 1.953 . S
O450 C466 1.225 . S
Zn451 O450 1.953 . S
Zn451 O452 1.949 . S
Zn451 O458 1.919 1_545 S
Zn451 O463 1.924 . S
O452 Zn451 1.949 . S
O452 Zn453 1.923 1_545 S
O452 Zn454 1.950 . S
O452 Zn455 1.945 1_554 S
Zn453 O452 1.923 1_565 S
Zn453 O456 1.933 1_554 S
Zn453 O459 1.938 1_554 S
Zn453 O460 1.965 . S
Zn454 O452 1.950 . S
Zn454 O461 1.938 1_545 S
Zn454 O462 1.906 . S
Zn454 O472 1.953 . S
Zn455 O452 1.945 1_556 S
Zn455 O457 1.932 . S
Zn455 O464 1.977 1_556 S
Zn455 O465 1.910 . S
O456 Zn453 1.933 1_556 S
O456 C467 1.226 . S
O457 Zn455 1.932 . S
O457 C467 1.307 1_545 S
O458 Zn451 1.919 1_565 S
O458 C469 1.253 1_554 S
O459 Zn453 1.938 1_556 S
O459 C469 1.285 . S
O460 Zn453 1.965 . S
O460 C468 1.303 . S
O461 Zn454 1.938 1_565 S
O461 C468 1.247 . S
O462 Zn454 1.906 . S
O462 C470 1.304 . S
O463 Zn451 1.924 . S
O463 C471 1.311 . S
O464 Zn455 1.977 1_554 S
O464 C470 1.272 . S
O465 Zn455 1.910 . S
O465 C471 1.231 1_556 S
C466 O450 1.225 . S
C466 O472 1.298 . S
C467 O456 1.226 . S
C467 O457 1.307 1_565 S
C468 O460 1.303 . S
C468 O461 1.247 . S
C469 O458 1.253 1_556 S
C469 O459 1.285 . S
C470 O462 1.304 . S
C470 O464 1.272 . S
C471 O463 1.311 . S
C471 O465 1.231 1_554 S
O472 Zn454 1.953 . S
O472 C466 1.298 . S
O473 Zn474 1.953 . S
O473 C489 1.225 . S
Zn474 O473 1.953 . S
Zn474 O475 1.949 . S
Zn474 O481 1.919 . S
Zn474 O486 1.924 . S
O475 Zn474 1.949 . S
O475 Zn476 1.923 . S
O475 Zn477 1.950 . S
O475 Zn478 1.945 . S
Zn476 O475 1.923 . S
Zn476 O479 1.933 . S
Zn476 O482 1.941 . S
Zn476 O483 1.965 . S
Zn477 O475 1.950 . S
Zn477 O484 1.938 . S
Zn477 O485 1.906 . S
Zn477 O495 1.953 . S
Zn478 O475 1.945 . S
Zn478 O480 1.932 . S
Zn478 O487 1.977 . S
Zn478 O488 1.910 . S
O479 Zn476 1.933 . S
O479 C490 1.226 . S
O480 Zn478 1.932 . S
O480 C490 1.307 . S
O481 Zn474 1.919 . S
O481 C492 1.253 . S
O482 Zn476 1.941 . S
O482 C492 1.283 . S
O483 Zn476 1.965 . S
O483 C491 1.303 . S
O484 Zn477 1.938 . S
O484 C491 1.247 . S
O485 Zn477 1.906 . S
O485 C493 1.304 . S
O486 Zn474 1.924 . S
O486 C494 1.311 . S
O487 Zn478 1.977 . S
O487 C493 1.272 . S
O488 Zn478 1.910 . S
O488 C494 1.231 . S
C489 O473 1.225 . S
C489 O495 1.298 . S
C490 O479 1.226 . S
C490 O480 1.307 . S
C491 O483 1.303 . S
C491 O484 1.247 . S
C492 O481 1.253 . S
C492 O482 1.283 . S
C493 O485 1.304 . S
C493 O487 1.272 . S
C494 O486 1.311 . S
C494 O488 1.231 . S
O495 Zn477 1.953 . S
O495 C489 1.298 . S
O496 Zn497 1.953 . S
O496 C512 1.225 . S
Zn497 O496 1.953 . S
Zn497 O498 1.949 1_556 S
Zn497 O504 1.919 . S
Zn497 O509 1.924 . S
O498 Zn497 1.949 1_554 S
O498 Zn499 1.923 . S
O498 Zn500 1.950 . S
O498 Zn501 1.945 . S
Zn499 O498 1.923 . S
Zn499 O502 1.933 . S
Zn499 O505 1.941 . S
Zn499 O506 1.965 . S
Zn500 O498 1.950 . S
Zn500 O507 1.938 . S
Zn500 O508 1.906 . S
Zn500 O518 1.953 1_554 S
Zn501 O498 1.945 . S
Zn501 O503 1.932 . S
Zn501 O510 1.977 . S
Zn501 O511 1.910 . S
O502 Zn499 1.933 . S
O502 C513 1.226 . S
O503 Zn501 1.932 . S
O503 C513 1.307 . S
O504 Zn497 1.919 . S
O504 C515 1.253 1_556 S
O505 Zn499 1.941 . S
O505 C515 1.283 . S
O506 Zn499 1.965 . S
O506 C514 1.303 . S
O507 Zn500 1.938 . S
O507 C514 1.247 . S
O508 Zn500 1.906 . S
O508 C516 1.304 . S
O509 Zn497 1.924 . S
O509 C517 1.311 . S
O510 Zn501 1.977 . S
O510 C516 1.272 . S
O511 Zn501 1.910 . S
O511 C517 1.231 1_554 S
C512 O496 1.225 . S
C512 O518 1.298 . S
C513 O502 1.226 . S
C513 O503 1.307 . S
C514 O506 1.303 . S
C514 O507 1.247 . S
C515 O504 1.253 1_554 S
C515 O505 1.283 . S
C516 O508 1.304 . S
C516 O510 1.272 . S
C517 O509 1.311 . S
C517 O511 1.231 1_556 S
O518 Zn500 1.953 1_556 S
O518 C512 1.298 . S
O519 Zn520 1.953 . S
O519 C535 1.225 . S
Zn520 O519 1.953 . S
Zn520 O521 1.949 . S
Zn520 O527 1.919 . S
Zn520 O532 1.924 . S
O521 Zn520 1.949 . S
O521 Zn522 1.923 . S
O521 Zn523 1.950 . S
O521 Zn524 1.945 . S
Zn522 O521 1.923 . S
Zn522 O525 1.933 . S
Zn522 O528 1.941 . S
Zn522 O529 1.965 . S
Zn523 O521 1.950 . S
Zn523 O530 1.938 . S
Zn523 O531 1.906 . S
Zn523 O541 1.953 . S
Zn524 O521 1.945 . S
Zn524 O526 1.932 . S
Zn524 O533 1.977 . S
Zn524 O534 1.910 . S
O525 Zn522 1.933 . S
O525 C536 1.226 . S
O526 Zn524 1.932 . S
O526 C536 1.307 . S
O527 Zn520 1.919 . S
O527 C538 1.253 . S
O528 Zn522 1.941 . S
O528 C538 1.283 . S
O529 Zn522 1.965 . S
O529 C537 1.303 . S
O530 Zn523 1.938 . S
O530 C537 1.247 . S
O531 Zn523 1.906 . S
O531 C539 1.304 . S
O532 Zn520 1.924 . S
O532 C540 1.311 . S
O533 Zn524 1.977 . S
O533 C539 1.272 . S
O534 Zn524 1.910 . S
O534 C540 1.231 . S
C535 O519 1.225 . S
C535 O541 1.298 . S
C536 O525 1.226 . S
C536 O526 1.307 . S
C537 O529 1.303 . S
C537 O530 1.247 . S
C538 O527 1.253 . S
C538 O528 1.283 . S
C539 O531 1.304 . S
C539 O533 1.272 . S
C540 O532 1.311 . S
C540 O534 1.231 . S
O541 Zn523 1.953 . S
O541 C535 1.298 . S
O542 Zn543 1.953 . S
O542 C558 1.225 . S
Zn543 O542 1.953 . S
Zn543 O544 1.949 . S
Zn543 O550 1.919 . S
Zn543 O555 1.924 . S
O544 Zn543 1.949 . S
O544 Zn545 1.923 . S
O544 Zn546 1.950 1_455 S
O544 Zn547 1.945 1_455 S
Zn545 O544 1.923 . S
Zn545 O548 1.933 1_455 S
Zn545 O551 1.941 . S
Zn545 O552 1.965 1_455 S
Zn546 O544 1.950 1_655 S
Zn546 O553 1.938 . S
Zn546 O554 1.906 . S
Zn546 O564 1.953 1_655 S
Zn547 O544 1.945 1_655 S
Zn547 O549 1.932 . S
Zn547 O556 1.977 . S
Zn547 O557 1.910 1_655 S
O548 Zn545 1.933 1_655 S
O548 C559 1.226 . S
O549 Zn547 1.932 . S
O549 C559 1.307 . S
O550 Zn543 1.919 . S
O550 C561 1.253 . S
O551 Zn545 1.941 . S
O551 C561 1.283 . S
O552 Zn545 1.965 1_655 S
O552 C560 1.303 . S
O553 Zn546 1.938 . S
O553 C560 1.247 . S
O554 Zn546 1.906 . S
O554 C562 1.304 . S
O555 Zn543 1.924 . S
O555 C563 1.311 . S
O556 Zn547 1.977 . S
O556 C562 1.272 . S
O557 Zn547 1.910 1_455 S
O557 C563 1.231 . S
C558 O542 1.225 . S
C558 O564 1.298 . S
C559 O548 1.226 . S
C559 O549 1.307 . S
C560 O552 1.303 . S
C560 O553 1.247 . S
C561 O550 1.253 . S
C561 O551 1.283 . S
C562 O554 1.304 . S
C562 O556 1.272 . S
C563 O555 1.311 . S
C563 O557 1.231 . S
O564 Zn546 1.953 1_455 S
O564 C558 1.298 . S
O565 Zn566 1.953 . S
O565 C581 1.225 . S
Zn566 O565 1.953 . S
Zn566 O567 1.949 . S
Zn566 O573 1.919 . S
Zn566 O578 1.924 . S
O567 Zn566 1.949 . S
O567 Zn568 1.923 . S
O567 Zn569 1.950 . S
O567 Zn570 1.945 . S
Zn568 O567 1.923 . S
Zn568 O571 1.933 . S
Zn568 O574 1.941 . S
Zn568 O575 1.965 . S
Zn569 O567 1.950 . S
Zn569 O576 1.938 . S
Zn569 O577 1.906 . S
Zn569 O587 1.953 . S
Zn570 O567 1.945 . S
Zn570 O572 1.932 . S
Zn570 O579 1.977 . S
Zn570 O580 1.910 . S
O571 Zn568 1.933 . S
O571 C582 1.226 . S
O572 Zn570 1.932 . S
O572 C582 1.307 . S
O573 Zn566 1.919 . S
O573 C584 1.253 . S
O574 Zn568 1.941 . S
O574 C584 1.283 . S
O575 Zn568 1.965 . S
O575 C583 1.303 . S
O576 Zn569 1.938 . S
O576 C583 1.247 . S
O577 Zn569 1.906 . S
O577 C585 1.304 . S
O578 Zn566 1.924 . S
O578 C586 1.311 . S
O579 Zn570 1.977 . S
O579 C585 1.272 . S
O580 Zn570 1.910 . S
O580 C586 1.231 . S
C581 O565 1.225 . S
C581 O587 1.298 . S
C582 O571 1.226 . S
C582 O572 1.307 . S
C583 O575 1.303 . S
C583 O576 1.247 . S
C584 O573 1.253 . S
C584 O574 1.283 . S
C585 O577 1.304 . S
C585 O579 1.272 . S
C586 O578 1.311 . S
C586 O580 1.231 . S
O587 Zn569 1.953 . S
O587 C581 1.298 . S
O588 Zn589 1.953 . S
O588 C604 1.225 . S
Zn589 O588 1.953 . S
Zn589 O590 1.949 . S
Zn589 O596 1.919 . S
Zn589 O601 1.924 . S
O590 Zn589 1.949 . S
O590 Zn591 1.923 . S
O590 Zn592 1.950 . S
O590 Zn593 1.945 . S
Zn591 O590 1.923 . S
Zn591 O594 1.933 . S
Zn591 O597 1.941 . S
Zn591 O598 1.965 . S
Zn592 O590 1.950 . S
Zn592 O599 1.938 . S
Zn592 O600 1.906 . S
Zn592 O610 1.953 . S
Zn593 O590 1.945 . S
Zn593 O595 1.932 . S
Zn593 O602 1.977 . S
Zn593 O603 1.910 . S
O594 Zn591 1.933 . S
O594 C605 1.226 . S
O595 Zn593 1.932 . S
O595 C605 1.307 . S
O596 Zn589 1.919 . S
O596 C607 1.253 . S
O597 Zn591 1.941 . S
O597 C607 1.283 . S
O598 Zn591 1.965 . S
O598 C606 1.303 . S
O599 Zn592 1.938 . S
O599 C606 1.247 . S
O600 Zn592 1.906 . S
O600 C608 1.304 . S
O601 Zn589 1.924 . S
O601 C609 1.311 . S
O602 Zn593 1.977 . S
O602 C608 1.272 . S
O603 Zn593 1.910 . S
O603 C609 1.231 . S
C604 O588 1.225 . S
C604 O610 1.298 . S
C605 O594 1.226 . S
C605 O595 1.307 . S
C606 O598 1.303 . S
C606 O599 1.247 . S
C607 O596 1.253 . S
C607 O597 1.283 . S
C608 O600 1.304 . S
C608 O602 1.272 . S
C609 O601 1.311 . S
C609 O603 1.231 . S
O610 Zn592 1.953 . S
O610 C604 1.298 . S
O611 Zn612 1.953 . S
O611 C627 1.225 . S
Zn612 O611 1.953 . S
Zn612 O613 1.949 . S
Zn612 O619 1.919 . S
Zn612 O624 1.924 . S
O613 Zn612 1.949 . S
O613 Zn614 1.923 . S
O613 Zn615 1.950 . S
O613 Zn616 1.945 . S
Zn614 O613 1.923 . S
Zn614 O617 1.933 . S
Zn614 O620 1.941 . S
Zn614 O621 1.965 . S
Zn615 O613 1.950 . S
Zn615 O622 1.938 . S
Zn615 O623 1.906 . S
Zn615 O633 1.953 . S
Zn616 O613 1.945 . S
Zn616 O618 1.932 . S
Zn616 O625 1.977 . S
Zn616 O626 1.910 . S
O617 Zn614 1.933 . S
O617 C628 1.226 . S
O618 Zn616 1.932 . S
O618 C628 1.307 . S
O619 Zn612 1.919 . S
O619 C630 1.253 . S
O620 Zn614 1.941 . S
O620 C630 1.283 . S
O621 Zn614 1.965 . S
O621 C629 1.303 . S
O622 Zn615 1.938 . S
O622 C629 1.247 . S
O623 Zn615 1.906 . S
O623 C631 1.304 . S
O624 Zn612 1.924 . S
O624 C632 1.311 . S
O625 Zn616 1.977 . S
O625 C631 1.272 . S
O626 Zn616 1.910 . S
O626 C632 1.231 . S
C627 O611 1.225 . S
C627 O633 1.298 . S
C628 O617 1.226 . S
C628 O618 1.307 . S
C629 O621 1.303 . S
C629 O622 1.247 . S
C630 O619 1.253 . S
C630 O620 1.283 . S
C631 O623 1.304 . S
C631 O625 1.272 . S
C632 O624 1.311 . S
C632 O626 1.231 . S
O633 Zn615 1.953 . S
O633 C627 1.298 . S
O634 Zn635 1.953 . S
O634 C650 1.225 . S
Zn635 O634 1.953 . S
Zn635 O636 1.949 . S
Zn635 O642 1.919 . S
Zn635 O647 1.924 . S
O636 Zn635 1.949 . S
O636 Zn637 1.923 . S
O636 Zn638 1.950 . S
O636 Zn639 1.945 . S
Zn637 O636 1.923 . S
Zn637 O640 1.933 . S
Zn637 O643 1.941 . S
Zn637 O644 1.965 . S
Zn638 O636 1.950 . S
Zn638 O645 1.938 . S
Zn638 O646 1.906 . S
Zn638 O656 1.953 . S
Zn639 O636 1.945 . S
Zn639 O641 1.932 . S
Zn639 O648 1.977 . S
Zn639 O649 1.910 . S
O640 Zn637 1.933 . S
O640 C651 1.226 . S
O641 Zn639 1.932 . S
O641 C651 1.307 . S
O642 Zn635 1.919 . S
O642 C653 1.253 . S
O643 Zn637 1.941 . S
O643 C653 1.283 . S
O644 Zn637 1.965 . S
O644 C652 1.303 . S
O645 Zn638 1.938 . S
O645 C652 1.247 . S
O646 Zn638 1.906 . S
O646 C654 1.304 . S
O647 Zn635 1.924 . S
O647 C655 1.311 . S
O648 Zn639 1.977 . S
O648 C654 1.272 . S
O649 Zn639 1.910 . S
O649 C655 1.231 . S
C650 O634 1.225 . S
C650 O656 1.298 . S
C651 O640 1.226 . S
C651 O641 1.307 . S
C652 O644 1.303 . S
C652 O645 1.247 . S
C653 O642 1.253 . S
C653 O643 1.283 . S
C654 O646 1.304 . S
C654 O648 1.272 . S
C655 O647 1.311 . S
C655 O649 1.231 . S
O656 Zn638 1.953 . S
O656 C650 1.298 . S
O657 Zn658 1.951 1_554 S
O657 C673 1.225 . S
Zn658 O657 1.951 1_556 S
Zn658 O659 1.947 1_556 S
Zn658 O665 1.919 1_455 S
Zn658 O670 1.927 . S
O659 Zn658 1.947 1_554 S
O659 Zn660 1.923 1_455 S
O659 Zn661 1.950 . S
O659 Zn662 1.945 1_554 S
Zn660 O659 1.923 1_655 S
Zn660 O663 1.933 . S
Zn660 O666 1.941 . S
Zn660 O667 1.965 . S
Zn661 O659 1.950 . S
Zn661 O668 1.938 . S
Zn661 O669 1.906 . S
Zn661 O679 1.953 . S
Zn662 O659 1.945 1_556 S
Zn662 O664 1.932 . S
Zn662 O671 1.977 1_556 S
Zn662 O672 1.910 . S
O663 Zn660 1.933 . S
O663 C674 1.226 1_554 S
O664 Zn662 1.932 . S
O664 C674 1.307 1_455 S
O665 Zn658 1.919 1_655 S
O665 C676 1.247 1_556 S
O666 Zn660 1.941 . S
O666 C676 1.299 . S
O667 Zn660 1.965 . S
O667 C675 1.303 . S
O668 Zn661 1.938 . S
O668 C675 1.247 1_455 S
O669 Zn661 1.906 . S
O669 C677 1.304 . S
O670 Zn658 1.927 . S
O670 C678 1.311 . S
O671 Zn662 1.977 1_554 S
O671 C677 1.272 . S
O672 Zn662 1.910 . S
O672 C678 1.231 . S
C673 O657 1.225 . S
C673 O679 1.298 . S
C674 O663 1.226 1_556 S
C674 O664 1.307 1_655 S
C675 O667 1.303 . S
C675 O668 1.247 1_655 S
C676 O665 1.247 1_554 S
C676 O666 1.299 . S
C677 O669 1.304 . S
C677 O671 1.272 . S
C678 O670 1.311 . S
C678 O672 1.231 . S
O679 Zn661 1.953 . S
O679 C673 1.298 . S
H680 C686 0.930 . S
H681 C689 0.930 . S
H682 C690 0.930 . S
H683 C691 0.930 . S
H684 C694 0.930 . S
H685 C695 0.930 . S
C686 H680 0.930 . S
C686 C687 1.355 1_655 S
C686 C688 1.415 . S
C687 C686 1.355 1_455 S
C687 C689 1.419 . S
C688 C686 1.415 . S
C688 C693 1.425 . S
C688 C695 1.409 . S
C689 H681 0.930 . S
C689 C687 1.419 . S
C689 C690 1.362 . S
C690 H682 0.930 . S
C690 C689 1.362 . S
C690 C693 1.409 1_455 S
C691 H683 0.930 . S
C691 C692 1.355 . S
C691 C693 1.415 . S
C692 C691 1.355 . S
C692 C694 1.419 . S
C693 C688 1.425 . S
C693 C690 1.409 1_655 S
C693 C691 1.415 . S
C694 H684 0.930 . S
C694 C692 1.419 . S
C694 C695 1.362 . S
C695 H685 0.930 . S
C695 C688 1.409 . S
C695 C694 1.362 . S
H696 C702 0.930 . S
H697 C705 0.930 . S
H698 C706 0.930 . S
H699 C707 0.930 . S
H700 C710 0.930 . S
H701 C711 0.930 . S
C702 H696 0.930 . S
C702 C703 1.355 . S
C702 C704 1.415 . S
C703 C702 1.355 . S
C703 C705 1.419 . S
C704 C702 1.415 . S
C704 C709 1.425 . S
C704 C711 1.409 . S
C705 H697 0.930 . S
C705 C703 1.419 . S
C705 C706 1.362 . S
C706 H698 0.930 . S
C706 C705 1.362 . S
C706 C709 1.409 . S
C707 H699 0.930 . S
C707 C708 1.355 . S
C707 C709 1.415 . S
C708 C707 1.355 . S
C708 C710 1.419 . S
C709 C704 1.425 . S
C709 C706 1.409 . S
C709 C707 1.415 . S
C710 H700 0.930 . S
C710 C708 1.419 . S
C710 C711 1.362 . S
C711 H701 0.930 . S
C711 C704 1.409 . S
C711 C710 1.362 . S
H712 C718 0.930 . S
H713 C721 0.930 . S
H714 C722 0.930 . S
H715 C723 0.930 . S
H716 C726 0.930 . S
H717 C727 0.930 . S
C718 H712 0.930 . S
C718 C719 1.355 . S
C718 C720 1.415 . S
C719 C718 1.355 . S
C719 C721 1.419 . S
C720 C718 1.415 . S
C720 C725 1.425 . S
C720 C727 1.409 . S
C721 H713 0.930 . S
C721 C719 1.419 . S
C721 C722 1.362 . S
C722 H714 0.930 . S
C722 C721 1.362 . S
C722 C725 1.409 . S
C723 H715 0.930 . S
C723 C724 1.355 . S
C723 C725 1.415 . S
C724 C723 1.355 . S
C724 C726 1.419 . S
C725 C720 1.425 . S
C725 C722 1.409 . S
C725 C723 1.415 . S
C726 H716 0.930 . S
C726 C724 1.419 . S
C726 C727 1.362 . S
C727 H717 0.930 . S
C727 C720 1.409 . S
C727 C726 1.362 . S
H728 C734 0.930 . S
H729 C737 0.930 . S
H730 C738 0.930 . S
H731 C739 0.930 . S
H732 C742 0.930 . S
H733 C743 0.930 . S
C734 H728 0.930 . S
C734 C735 1.355 . S
C734 C736 1.415 . S
C735 C734 1.355 . S
C735 C737 1.419 . S
C736 C734 1.415 . S
C736 C741 1.425 . S
C736 C743 1.409 . S
C737 H729 0.930 . S
C737 C735 1.419 . S
C737 C738 1.362 . S
C738 H730 0.930 . S
C738 C737 1.362 . S
C738 C741 1.409 . S
C739 H731 0.930 . S
C739 C740 1.355 . S
C739 C741 1.415 . S
C740 C739 1.355 . S
C740 C742 1.419 . S
C741 C736 1.425 . S
C741 C738 1.409 . S
C741 C739 1.415 . S
C742 H732 0.930 . S
C742 C740 1.419 . S
C742 C743 1.362 . S
C743 H733 0.930 . S
C743 C736 1.409 . S
C743 C742 1.362 . S
H744 C750 0.930 . S
H745 C753 0.930 . S
H746 C754 0.930 . S
H747 C755 0.930 . S
H748 C758 0.930 . S
H749 C759 0.930 . S
C750 H744 0.930 . S
C750 C751 1.355 1_655 S
C750 C752 1.415 . S
C751 C750 1.355 1_455 S
C751 C753 1.419 . S
C752 C750 1.415 . S
C752 C757 1.425 1_655 S
C752 C759 1.409 . S
C753 H745 0.930 . S
C753 C751 1.419 . S
C753 C754 1.362 . S
C754 H746 0.930 . S
C754 C753 1.362 . S
C754 C757 1.409 . S
C755 H747 0.930 . S
C755 C756 1.355 1_455 S
C755 C757 1.415 . S
C756 C755 1.355 1_655 S
C756 C758 1.419 . S
C757 C752 1.425 1_455 S
C757 C754 1.409 . S
C757 C755 1.415 . S
C758 H748 0.930 . S
C758 C756 1.419 . S
C758 C759 1.362 . S
C759 H749 0.930 . S
C759 C752 1.409 . S
C759 C758 1.362 . S
H760 C766 0.930 . S
H761 C769 0.930 . S
H762 C770 0.930 . S
H763 C771 0.930 . S
H764 C774 0.930 . S
H765 C775 0.930 . S
C766 H760 0.930 . S
C766 C767 1.355 . S
C766 C768 1.415 . S
C767 C766 1.355 . S
C767 C769 1.419 . S
C768 C766 1.415 . S
C768 C773 1.425 . S
C768 C775 1.409 . S
C769 H761 0.930 . S
C769 C767 1.419 . S
C769 C770 1.362 . S
C770 H762 0.930 . S
C770 C769 1.362 . S
C770 C773 1.409 . S
C771 H763 0.930 . S
C771 C772 1.355 . S
C771 C773 1.415 . S
C772 C771 1.355 . S
C772 C774 1.419 . S
C773 C768 1.425 . S
C773 C770 1.409 . S
C773 C771 1.415 . S
C774 H764 0.930 . S
C774 C772 1.419 . S
C774 C775 1.362 . S
C775 H765 0.930 . S
C775 C768 1.409 . S
C775 C774 1.362 . S
H776 C782 0.930 . S
H777 C785 0.930 . S
H778 C786 0.930 . S
H779 C787 0.930 1_554 S
H780 C790 0.930 . S
H781 C791 0.930 . S
C782 H776 0.930 . S
C782 C783 1.355 . S
C782 C784 1.415 . S
C783 C782 1.355 . S
C783 C785 1.419 . S
C784 C782 1.415 . S
C784 C789 1.425 . S
C784 C791 1.409 . S
C785 H777 0.930 . S
C785 C783 1.419 . S
C785 C786 1.362 . S
C786 H778 0.930 . S
C786 C785 1.362 . S
C786 C789 1.409 . S
C787 H779 0.930 1_556 S
C787 C788 1.355 . S
C787 C789 1.415 . S
C788 C787 1.355 . S
C788 C790 1.419 . S
C789 C784 1.425 . S
C789 C786 1.409 . S
C789 C787 1.415 . S
C790 H780 0.930 . S
C790 C788 1.419 . S
C790 C791 1.362 . S
C791 H781 0.930 . S
C791 C784 1.409 . S
C791 C790 1.362 . S
H792 C798 0.930 . S
H793 C801 0.930 . S
H794 C802 0.930 . S
H795 C803 0.930 . S
H796 C806 0.930 . S
H797 C807 0.930 . S
C798 H792 0.930 . S
C798 C799 1.355 . S
C798 C800 1.415 . S
C799 C798 1.355 . S
C799 C801 1.419 . S
C800 C798 1.415 . S
C800 C805 1.425 . S
C800 C807 1.409 . S
C801 H793 0.930 . S
C801 C799 1.419 . S
C801 C802 1.362 . S
C802 H794 0.930 . S
C802 C801 1.362 . S
C802 C805 1.409 . S
C803 H795 0.930 . S
C803 C804 1.355 . S
C803 C805 1.415 . S
C804 C803 1.355 . S
C804 C806 1.419 . S
C805 C800 1.425 . S
C805 C802 1.409 . S
C805 C803 1.415 . S
C806 H796 0.930 . S
C806 C804 1.419 . S
C806 C807 1.362 . S
C807 H797 0.930 . S
C807 C800 1.409 . S
C807 C806 1.362 . S
H808 C814 0.930 . S
H809 C817 0.930 . S
H810 C818 0.930 . S
H811 C819 0.930 . S
H812 C822 0.930 . S
H813 C823 0.930 . S
C814 H808 0.930 . S
C814 C815 1.355 . S
C814 C816 1.415 . S
C815 C814 1.355 . S
C815 C817 1.419 . S
C816 C814 1.415 . S
C816 C821 1.425 . S
C816 C823 1.409 1_545 S
C817 H809 0.930 . S
C817 C815 1.419 . S
C817 C818 1.362 . S
C818 H810 0.930 . S
C818 C817 1.362 . S
C818 C821 1.409 . S
C819 H811 0.930 . S
C819 C820 1.354 . S
C819 C821 1.415 . S
C820 C819 1.354 . S
C820 C822 1.420 1_545 S
C821 C816 1.425 . S
C821 C818 1.409 . S
C821 C819 1.415 . S
C822 H812 0.930 . S
C822 C820 1.420 1_565 S
C822 C823 1.362 . S
C823 H813 0.930 . S
C823 C816 1.409 1_565 S
C823 C822 1.362 . S
H824 C830 0.930 . S
H825 C833 0.930 . S
H826 C834 0.930 . S
H827 C835 0.930 . S
H828 C838 0.930 . S
H829 C839 0.930 . S
C830 H824 0.930 . S
C830 C831 1.355 . S
C830 C832 1.415 . S
C831 C830 1.355 . S
C831 C833 1.419 . S
C832 C830 1.415 . S
C832 C837 1.425 . S
C832 C839 1.409 . S
C833 H825 0.930 . S
C833 C831 1.419 . S
C833 C834 1.362 . S
C834 H826 0.930 . S
C834 C833 1.362 . S
C834 C837 1.409 . S
C835 H827 0.930 . S
C835 C836 1.355 . S
C835 C837 1.415 . S
C836 C835 1.355 . S
C836 C838 1.419 . S
C837 C832 1.425 . S
C837 C834 1.409 . S
C837 C835 1.415 . S
C838 H828 0.930 . S
C838 C836 1.419 . S
C838 C839 1.362 . S
C839 H829 0.930 . S
C839 C832 1.409 . S
C839 C838 1.362 . S
H840 C846 0.930 . S
H841 C849 0.930 . S
H842 C850 0.930 . S
H843 C851 0.930 1_565 S
H844 C854 0.930 . S
H845 C855 0.930 . S
C846 H840 0.930 . S
C846 C847 1.355 . S
C846 C848 1.415 . S
C847 C846 1.355 . S
C847 C849 1.419 1_545 S
C848 C846 1.415 . S
C848 C853 1.425 . S
C848 C855 1.409 . S
C849 H841 0.930 . S
C849 C847 1.419 1_565 S
C849 C850 1.362 . S
C850 H842 0.930 . S
C850 C849 1.362 . S
C850 C853 1.409 1_565 S
C851 H843 0.930 1_545 S
C851 C852 1.355 . S
C851 C853 1.415 . S
C852 C851 1.355 . S
C852 C854 1.419 . S
C853 C848 1.425 . S
C853 C850 1.409 1_545 S
C853 C851 1.415 . S
C854 H844 0.930 . S
C854 C852 1.419 . S
C854 C855 1.362 . S
C855 H845 0.930 . S
C855 C848 1.409 . S
C855 C854 1.362 . S
H856 C862 0.930 . S
H857 C865 0.930 . S
H858 C866 0.930 . S
H859 C867 0.930 . S
H860 C870 0.930 . S
H861 C871 0.930 . S
C862 H856 0.930 . S
C862 C863 1.355 . S
C862 C864 1.415 . S
C863 C862 1.355 . S
C863 C865 1.419 . S
C864 C862 1.415 . S
C864 C869 1.425 . S
C864 C871 1.409 . S
C865 H857 0.930 . S
C865 C863 1.419 . S
C865 C866 1.362 . S
C866 H858 0.930 . S
C866 C865 1.362 . S
C866 C869 1.409 . S
C867 H859 0.930 . S
C867 C868 1.355 . S
C867 C869 1.415 . S
C868 C867 1.355 . S
C868 C870 1.419 . S
C869 C864 1.425 . S
C869 C866 1.409 . S
C869 C867 1.415 . S
C870 H860 0.930 . S
C870 C868 1.419 . S
C870 C871 1.362 . S
C871 H861 0.930 . S
C871 C864 1.409 . S
C871 C870 1.362 . S
H872 C878 0.930 . S
H873 C881 0.930 . S
H874 C882 0.930 . S
H875 C883 0.930 . S
H876 C886 0.930 . S
H877 C887 0.930 . S
C878 H872 0.930 . S
C878 C879 1.355 . S
C878 C880 1.415 . S
C879 C878 1.355 . S
C879 C881 1.419 . S
C880 C878 1.415 . S
C880 C885 1.425 . S
C880 C887 1.409 . S
C881 H873 0.930 . S
C881 C879 1.419 . S
C881 C882 1.362 . S
C882 H874 0.930 . S
C882 C881 1.362 . S
C882 C885 1.409 . S
C883 H875 0.930 . S
C883 C884 1.355 . S
C883 C885 1.415 . S
C884 C883 1.355 . S
C884 C886 1.419 . S
C885 C880 1.425 . S
C885 C882 1.409 . S
C885 C883 1.415 . S
C886 H876 0.930 . S
C886 C884 1.419 . S
C886 C887 1.362 . S
C887 H877 0.930 . S
C887 C880 1.409 . S
C887 C886 1.362 . S
H888 C894 0.930 . S
H889 C897 0.930 . S
H890 C898 0.930 . S
H891 C899 0.930 . S
H892 C902 0.930 . S
H893 C903 0.930 . S
C894 H888 0.930 . S
C894 C895 1.355 . S
C894 C896 1.415 . S
C895 C894 1.355 . S
C895 C897 1.419 . S
C896 C894 1.415 . S
C896 C901 1.425 . S
C896 C903 1.409 . S
C897 H889 0.930 . S
C897 C895 1.419 . S
C897 C898 1.362 . S
C898 H890 0.930 . S
C898 C897 1.362 . S
C898 C901 1.409 . S
C899 H891 0.930 . S
C899 C900 1.355 . S
C899 C901 1.415 . S
C900 C899 1.355 . S
C900 C902 1.419 . S
C901 C896 1.425 . S
C901 C898 1.409 . S
C901 C899 1.415 . S
C902 H892 0.930 . S
C902 C900 1.419 . S
C902 C903 1.362 . S
C903 H893 0.930 . S
C903 C896 1.409 . S
C903 C902 1.362 . S
H904 C910 0.930 . S
H905 C913 0.930 . S
H906 C914 0.930 . S
H907 C915 0.930 . S
H908 C918 0.930 . S
H909 C919 0.930 . S
C910 H904 0.930 . S
C910 C911 1.355 . S
C910 C912 1.415 . S
C911 C910 1.355 . S
C911 C913 1.419 1_565 S
C912 C910 1.415 . S
C912 C917 1.424 . S
C912 C919 1.409 . S
C913 H905 0.930 . S
C913 C911 1.419 1_545 S
C913 C914 1.362 . S
C914 H906 0.930 . S
C914 C913 1.362 . S
C914 C917 1.410 1_545 S
C915 H907 0.930 . S
C915 C916 1.355 1_545 S
C915 C917 1.415 1_545 S
C916 C915 1.355 1_565 S
C916 C918 1.419 . S
C917 C912 1.424 . S
C917 C914 1.410 1_565 S
C917 C915 1.415 1_565 S
C918 H908 0.930 . S
C918 C916 1.419 . S
C918 C919 1.362 . S
C919 H909 0.930 . S
C919 C912 1.409 . S
C919 C918 1.362 . S
H920 C926 0.930 . S
H921 C929 0.930 . S
H922 C930 0.930 . S
H923 C931 0.930 . S
H924 C934 0.930 . S
H925 C935 0.930 . S
C926 H920 0.930 . S
C926 C927 1.355 . S
C926 C928 1.415 . S
C927 C926 1.355 . S
C927 C929 1.419 . S
C928 C926 1.415 . S
C928 C933 1.425 . S
C928 C935 1.409 . S
C929 H921 0.930 . S
C929 C927 1.419 . S
C929 C930 1.362 . S
C930 H922 0.930 . S
C930 C929 1.362 . S
C930 C933 1.409 . S
C931 H923 0.930 . S
C931 C932 1.355 . S
C931 C933 1.415 . S
C932 C931 1.355 . S
C932 C934 1.419 . S
C933 C928 1.425 . S
C933 C930 1.409 . S
C933 C931 1.415 . S
C934 H924 0.930 . S
C934 C932 1.419 . S
C934 C935 1.362 . S
C935 H925 0.930 . S
C935 C928 1.409 . S
C935 C934 1.362 . S
H936 C942 0.930 . S
H937 C945 0.930 . S
H938 C946 0.930 . S
H939 C947 0.929 . S
H940 C950 0.930 1_565 S
H941 C951 0.930 . S
C942 H936 0.930 . S
C942 C943 1.355 1_556 S
C942 C944 1.415 . S
C943 C942 1.355 1_554 S
C943 C945 1.419 . S
C944 C942 1.415 . S
C944 C949 1.425 1_556 S
C944 C951 1.409 . S
C945 H937 0.930 . S
C945 C943 1.419 . S
C945 C946 1.362 . S
C946 H938 0.930 . S
C946 C945 1.362 . S
C946 C949 1.409 . S
C947 H939 0.929 . S
C947 C948 1.356 1_554 S
C947 C949 1.415 . S
C948 C947 1.356 1_556 S
C948 C950 1.419 . S
C949 C944 1.425 1_554 S
C949 C946 1.409 . S
C949 C947 1.415 . S
C950 H940 0.930 1_545 S
C950 C948 1.419 . S
C950 C951 1.362 . S
C951 H941 0.930 . S
C951 C944 1.409 . S
C951 C950 1.362 . S
H952 C958 0.930 . S
H953 C961 0.930 . S
H954 C962 0.930 . S
H955 C963 0.930 . S
H956 C966 0.930 . S
H957 C967 0.930 . S
C958 H952 0.930 . S
C958 C959 1.355 . S
C958 C960 1.415 . S
C959 C958 1.355 . S
C959 C961 1.419 . S
C960 C958 1.415 . S
C960 C965 1.425 . S
C960 C967 1.409 . S
C961 H953 0.930 . S
C961 C959 1.419 . S
C961 C962 1.362 . S
C962 H954 0.930 . S
C962 C961 1.362 . S
C962 C965 1.409 . S
C963 H955 0.930 . S
C963 C964 1.355 . S
C963 C965 1.415 . S
C964 C963 1.355 . S
C964 C966 1.419 . S
C965 C960 1.425 . S
C965 C962 1.409 . S
C965 C963 1.415 . S
C966 H956 0.930 . S
C966 C964 1.419 . S
C966 C967 1.362 . S
C967 H957 0.930 . S
C967 C960 1.409 . S
C967 C966 1.362 . S
H968 C974 0.930 . S
H969 C977 0.930 . S
H970 C978 0.930 . S
H971 C979 0.930 . S
H972 C982 0.930 . S
H973 C983 0.930 . S
C974 H968 0.930 . S
C974 C975 1.355 . S
C974 C976 1.415 . S
C975 C974 1.355 . S
C975 C977 1.419 . S
C976 C974 1.415 . S
C976 C981 1.425 . S
C976 C983 1.409 . S
C977 H969 0.930 . S
C977 C975 1.419 . S
C977 C978 1.362 . S
C978 H970 0.930 . S
C978 C977 1.362 . S
C978 C981 1.409 . S
C979 H971 0.930 . S
C979 C980 1.355 . S
C979 C981 1.415 . S
C980 C979 1.355 . S
C980 C982 1.419 . S
C981 C976 1.425 . S
C981 C978 1.409 . S
C981 C979 1.415 . S
C982 H972 0.930 . S
C982 C980 1.419 . S
C982 C983 1.362 . S
C983 H973 0.930 . S
C983 C976 1.409 . S
C983 C982 1.362 . S
H984 C990 0.930 . S
H985 C993 0.930 . S
H986 C994 0.930 . S
H987 C995 0.930 . S
H988 C998 0.930 . S
H989 C999 0.930 . S
C990 H984 0.930 . S
C990 C991 1.355 . S
C990 C992 1.415 . S
C991 C990 1.355 . S
C991 C993 1.419 . S
C992 C990 1.415 . S
C992 C997 1.425 . S
C992 C999 1.409 . S
C993 H985 0.930 . S
C993 C991 1.419 . S
C993 C994 1.362 . S
C994 H986 0.930 . S
C994 C993 1.362 . S
C994 C997 1.409 . S
C995 H987 0.930 . S
C995 C996 1.355 . S
C995 C997 1.415 . S
C996 C995 1.355 . S
C996 C998 1.419 . S
C997 C992 1.425 . S
C997 C994 1.409 . S
C997 C995 1.415 . S
C998 H988 0.930 . S
C998 C996 1.419 . S
C998 C999 1.362 . S
C999 H989 0.930 . S
C999 C992 1.409 . S
C999 C998 1.362 . S
H1000 C1006 0.930 . S
H1001 C1009 0.930 . S
H1002 C1010 0.930 . S
H1003 C1011 0.930 . S
H1004 C1014 0.930 . S
H1005 C1015 0.930 . S
C1006 H1000 0.930 . S
C1006 C1007 1.355 . S
C1006 C1008 1.415 . S
C1007 C1006 1.355 . S
C1007 C1009 1.419 . S
C1008 C1006 1.415 . S
C1008 C1013 1.425 . S
C1008 C1015 1.409 . S
C1009 H1001 0.930 . S
C1009 C1007 1.419 . S
C1009 C1010 1.362 . S
C1010 H1002 0.930 . S
C1010 C1009 1.362 . S
C1010 C1013 1.409 . S
C1011 H1003 0.930 . S
C1011 C1012 1.355 . S
C1011 C1013 1.415 . S
C1012 C1011 1.355 . S
C1012 C1014 1.419 . S
C1013 C1008 1.425 . S
C1013 C1010 1.409 . S
C1013 C1011 1.415 . S
C1014 H1004 0.930 . S
C1014 C1012 1.419 . S
C1014 C1015 1.362 . S
C1015 H1005 0.930 . S
C1015 C1008 1.409 . S
C1015 C1014 1.362 . S
H1016 C1022 0.930 . S
H1017 C1025 0.930 . S
H1018 C1026 0.930 . S
H1019 C1027 0.930 . S
H1020 C1030 0.930 . S
H1021 C1031 0.930 1_545 S
C1022 H1016 0.930 . S
C1022 C1023 1.355 . S
C1022 C1024 1.415 . S
C1023 C1022 1.355 . S
C1023 C1025 1.419 . S
C1024 C1022 1.415 . S
C1024 C1029 1.425 . S
C1024 C1031 1.409 . S
C1025 H1017 0.930 . S
C1025 C1023 1.419 . S
C1025 C1026 1.362 . S
C1026 H1018 0.930 . S
C1026 C1025 1.362 . S
C1026 C1029 1.409 . S
C1027 H1019 0.930 . S
C1027 C1028 1.355 . S
C1027 C1029 1.415 . S
C1028 C1027 1.355 . S
C1028 C1030 1.419 1_565 S
C1029 C1024 1.425 . S
C1029 C1026 1.409 . S
C1029 C1027 1.415 . S
C1030 H1020 0.930 . S
C1030 C1028 1.419 1_545 S
C1030 C1031 1.362 1_545 S
C1031 H1021 0.930 1_565 S
C1031 C1024 1.409 . S
C1031 C1030 1.362 1_565 S
H1032 C1038 0.930 . S
H1033 C1041 0.930 . S
H1034 C1042 0.930 . S
H1035 C1043 0.930 . S
H1036 C1046 0.930 . S
H1037 C1047 0.930 . S
C1038 H1032 0.930 . S
C1038 C1039 1.355 . S
C1038 C1040 1.415 . S
C1039 C1038 1.355 . S
C1039 C1041 1.419 . S
C1040 C1038 1.415 . S
C1040 C1045 1.425 . S
C1040 C1047 1.409 . S
C1041 H1033 0.930 . S
C1041 C1039 1.419 . S
C1041 C1042 1.362 . S
C1042 H1034 0.930 . S
C1042 C1041 1.362 . S
C1042 C1045 1.409 . S
C1043 H1035 0.930 . S
C1043 C1044 1.355 . S
C1043 C1045 1.415 . S
C1044 C1043 1.355 . S
C1044 C1046 1.419 . S
C1045 C1040 1.425 . S
C1045 C1042 1.409 . S
C1045 C1043 1.415 . S
C1046 H1036 0.930 . S
C1046 C1044 1.419 . S
C1046 C1047 1.362 . S
C1047 H1037 0.930 . S
C1047 C1040 1.409 . S
C1047 C1046 1.362 . S
H1048 C1054 0.930 . S
H1049 C1057 0.930 . S
H1050 C1058 0.930 . S
H1051 C1059 0.930 . S
H1052 C1062 0.930 . S
H1053 C1063 0.930 . S
C1054 H1048 0.930 . S
C1054 C1055 1.355 . S
C1054 C1056 1.415 . S
C1055 C1054 1.355 . S
C1055 C1057 1.419 . S
C1056 C1054 1.415 . S
C1056 C1061 1.425 . S
C1056 C1063 1.409 . S
C1057 H1049 0.930 . S
C1057 C1055 1.419 . S
C1057 C1058 1.362 . S
C1058 H1050 0.930 . S
C1058 C1057 1.362 . S
C1058 C1061 1.409 . S
C1059 H1051 0.930 . S
C1059 C1060 1.355 . S
C1059 C1061 1.415 . S
C1060 C1059 1.355 . S
C1060 C1062 1.419 . S
C1061 C1056 1.425 . S
C1061 C1058 1.409 . S
C1061 C1059 1.415 . S
C1062 H1052 0.930 . S
C1062 C1060 1.419 . S
C1062 C1063 1.362 . S
C1063 H1053 0.930 . S
C1063 C1056 1.409 . S
C1063 C1062 1.362 . S
H1064 C1070 0.930 . S
H1065 C1073 0.930 . S
H1066 C1074 0.930 . S
H1067 C1075 0.930 . S
H1068 C1078 0.930 . S
H1069 C1079 0.930 . S
C1070 H1064 0.930 . S
C1070 C1071 1.355 1_655 S
C1070 C1072 1.415 . S
C1071 C1070 1.355 1_455 S
C1071 C1073 1.419 . S
C1072 C1070 1.415 . S
C1072 C1077 1.425 1_655 S
C1072 C1079 1.409 . S
C1073 H1065 0.930 . S
C1073 C1071 1.419 . S
C1073 C1074 1.362 . S
C1074 H1066 0.930 . S
C1074 C1073 1.362 . S
C1074 C1077 1.409 . S
C1075 H1067 0.930 . S
C1075 C1076 1.355 . S
C1075 C1077 1.415 . S
C1076 C1075 1.355 . S
C1076 C1078 1.419 1_455 S
C1077 C1072 1.425 1_455 S
C1077 C1074 1.409 . S
C1077 C1075 1.415 . S
C1078 H1068 0.930 . S
C1078 C1076 1.419 1_655 S
C1078 C1079 1.362 . S
C1079 H1069 0.930 . S
C1079 C1072 1.409 . S
C1079 C1078 1.362 . S
H1080 C1086 0.930 . S
H1081 C1089 0.930 . S
H1082 C1090 0.930 . S
H1083 C1091 0.930 . S
H1084 C1094 0.930 . S
H1085 C1095 0.930 . S
C1086 H1080 0.930 . S
C1086 C1087 1.355 . S
C1086 C1088 1.415 . S
C1087 C1086 1.355 . S
C1087 C1089 1.419 . S
C1088 C1086 1.415 . S
C1088 C1093 1.425 . S
C1088 C1095 1.409 . S
C1089 H1081 0.930 . S
C1089 C1087 1.419 . S
C1089 C1090 1.362 . S
C1090 H1082 0.930 . S
C1090 C1089 1.362 . S
C1090 C1093 1.409 . S
C1091 H1083 0.930 . S
C1091 C1092 1.355 . S
C1091 C1093 1.415 . S
C1092 C1091 1.355 . S
C1092 C1094 1.419 . S
C1093 C1088 1.425 . S
C1093 C1090 1.409 . S
C1093 C1091 1.415 . S
C1094 H1084 0.930 . S
C1094 C1092 1.419 . S
C1094 C1095 1.362 . S
C1095 H1085 0.930 . S
C1095 C1088 1.409 . S
C1095 C1094 1.362 . S
H1096 C1102 0.930 . S
H1097 C1105 0.930 . S
H1098 C1106 0.930 . S
H1099 C1107 0.930 . S
H1100 C1110 0.930 . S
H1101 C1111 0.930 . S
C1102 H1096 0.930 . S
C1102 C1103 1.355 . S
C1102 C1104 1.415 . S
C1103 C1102 1.355 . S
C1103 C1105 1.419 . S
C1104 C1102 1.415 . S
C1104 C1109 1.425 . S
C1104 C1111 1.409 . S
C1105 H1097 0.930 . S
C1105 C1103 1.419 . S
C1105 C1106 1.362 . S
C1106 H1098 0.930 . S
C1106 C1105 1.362 . S
C1106 C1109 1.409 . S
C1107 H1099 0.930 . S
C1107 C1108 1.355 . S
C1107 C1109 1.415 . S
C1108 C1107 1.355 . S
C1108 C1110 1.419 . S
C1109 C1104 1.425 . S
C1109 C1106 1.409 . S
C1109 C1107 1.415 . S
C1110 H1100 0.930 . S
C1110 C1108 1.419 . S
C1110 C1111 1.362 . S
C1111 H1101 0.930 . S
C1111 C1104 1.409 . S
C1111 C1110 1.362 . S
H1112 C1118 0.930 . S
H1113 C1121 0.930 . S
H1114 C1122 0.930 . S
H1115 C1123 0.930 . S
H1116 C1126 0.930 . S
H1117 C1127 0.930 . S
C1118 H1112 0.930 . S
C1118 C1119 1.355 . S
C1118 C1120 1.415 . S
C1119 C1118 1.355 . S
C1119 C1121 1.419 . S
C1120 C1118 1.415 . S
C1120 C1125 1.425 . S
C1120 C1127 1.409 . S
C1121 H1113 0.930 . S
C1121 C1119 1.419 . S
C1121 C1122 1.362 . S
C1122 H1114 0.930 . S
C1122 C1121 1.362 . S
C1122 C1125 1.409 . S
C1123 H1115 0.930 . S
C1123 C1124 1.355 . S
C1123 C1125 1.415 . S
C1124 C1123 1.355 . S
C1124 C1126 1.419 . S
C1125 C1120 1.425 . S
C1125 C1122 1.409 . S
C1125 C1123 1.415 . S
C1126 H1116 0.930 . S
C1126 C1124 1.419 . S
C1126 C1127 1.362 . S
C1127 H1117 0.930 . S
C1127 C1120 1.409 . S
C1127 C1126 1.362 . S
H1128 C1134 0.930 . S
H1129 C1137 0.930 . S
H1130 C1138 0.930 . S
H1131 C1139 0.930 1_655 S
H1132 C1142 0.930 . S
H1133 C1143 0.930 . S
C1134 H1128 0.930 . S
C1134 C1135 1.380 . S
C1134 C1136 1.415 . S
C1135 C1134 1.380 . S
C1135 C1137 1.395 1_455 S
C1136 C1134 1.415 . S
C1136 C1141 1.425 . S
C1136 C1143 1.409 . S
C1137 H1129 0.930 . S
C1137 C1135 1.395 1_655 S
C1137 C1138 1.362 . S
C1138 H1130 0.930 . S
C1138 C1137 1.362 . S
C1138 C1141 1.409 1_655 S
C1139 H1131 0.930 1_455 S
C1139 C1140 1.355 . S
C1139 C1141 1.415 . S
C1140 C1139 1.355 . S
C1140 C1142 1.419 . S
C1141 C1136 1.425 . S
C1141 C1138 1.409 1_455 S
C1141 C1139 1.415 . S
C1142 H1132 0.930 . S
C1142 C1140 1.419 . S
C1142 C1143 1.362 . S
C1143 H1133 0.930 . S
C1143 C1136 1.409 . S
C1143 C1142 1.362 . S
H1144 C1150 0.930 . S
H1145 C1153 0.930 . S
H1146 C1154 0.930 . S
H1147 C1155 0.930 . S
H1148 C1158 0.930 . S
H1149 C1159 0.930 . S
C1150 H1144 0.930 . S
C1150 C1151 1.355 . S
C1150 C1152 1.415 . S
C1151 C1150 1.355 . S
C1151 C1153 1.419 . S
C1152 C1150 1.415 . S
C1152 C1157 1.425 . S
C1152 C1159 1.409 . S
C1153 H1145 0.930 . S
C1153 C1151 1.419 . S
C1153 C1154 1.362 . S
C1154 H1146 0.930 . S
C1154 C1153 1.362 . S
C1154 C1157 1.409 . S
C1155 H1147 0.930 . S
C1155 C1156 1.355 . S
C1155 C1157 1.415 . S
C1156 C1155 1.355 . S
C1156 C1158 1.419 . S
C1157 C1152 1.425 . S
C1157 C1154 1.409 . S
C1157 C1155 1.415 . S
C1158 H1148 0.930 . S
C1158 C1156 1.419 . S
C1158 C1159 1.362 . S
C1159 H1149 0.930 . S
C1159 C1152 1.409 . S
C1159 C1158 1.362 . S
H1160 C1166 0.930 . S
H1161 C1169 0.930 . S
H1162 C1170 0.930 . S
H1163 C1171 0.930 . S
H1164 C1174 0.930 . S
H1165 C1175 0.930 . S
C1166 H1160 0.930 . S
C1166 C1167 1.355 . S
C1166 C1168 1.415 . S
C1167 C1166 1.355 . S
C1167 C1169 1.419 . S
C1168 C1166 1.415 . S
C1168 C1173 1.425 . S
C1168 C1175 1.409 . S
C1169 H1161 0.930 . S
C1169 C1167 1.419 . S
C1169 C1170 1.362 . S
C1170 H1162 0.930 . S
C1170 C1169 1.362 . S
C1170 C1173 1.409 . S
C1171 H1163 0.930 . S
C1171 C1172 1.355 . S
C1171 C1173 1.415 . S
C1172 C1171 1.355 . S
C1172 C1174 1.419 . S
C1173 C1168 1.425 . S
C1173 C1170 1.409 . S
C1173 C1171 1.415 . S
C1174 H1164 0.930 . S
C1174 C1172 1.419 . S
C1174 C1175 1.362 . S
C1175 H1165 0.930 . S
C1175 C1168 1.409 . S
C1175 C1174 1.362 . S
H1176 C1182 0.930 . S
H1177 C1185 0.930 . S
H1178 C1186 0.930 . S
H1179 C1187 0.930 . S
H1180 C1190 0.930 . S
H1181 C1191 0.930 . S
C1182 H1176 0.930 . S
C1182 C1183 1.355 . S
C1182 C1184 1.415 . S
C1183 C1182 1.355 . S
C1183 C1185 1.419 . S
C1184 C1182 1.415 . S
C1184 C1189 1.425 . S
C1184 C1191 1.409 . S
C1185 H1177 0.930 . S
C1185 C1183 1.419 . S
C1185 C1186 1.362 . S
C1186 H1178 0.930 . S
C1186 C1185 1.362 . S
C1186 C1189 1.409 . S
C1187 H1179 0.930 . S
C1187 C1188 1.355 . S
C1187 C1189 1.415 . S
C1188 C1187 1.355 . S
C1188 C1190 1.419 . S
C1189 C1184 1.425 . S
C1189 C1186 1.409 . S
C1189 C1187 1.415 . S
C1190 H1180 0.930 . S
C1190 C1188 1.419 . S
C1190 C1191 1.362 . S
C1191 H1181 0.930 . S
C1191 C1184 1.409 . S
C1191 C1190 1.362 . S
H1192 C1198 0.930 . S
H1193 C1201 0.930 . S
H1194 C1202 0.930 . S
H1195 C1203 0.930 . S
H1196 C1206 0.930 . S
H1197 C1207 0.930 . S
C1198 H1192 0.930 . S
C1198 C1199 1.355 . S
C1198 C1200 1.415 . S
C1199 C1198 1.355 . S
C1199 C1201 1.419 1_545 S
C1200 C1198 1.415 . S
C1200 C1205 1.425 . S
C1200 C1207 1.409 . S
C1201 H1193 0.930 . S
C1201 C1199 1.419 1_565 S
C1201 C1202 1.362 . S
C1202 H1194 0.930 . S
C1202 C1201 1.362 . S
C1202 C1205 1.409 1_565 S
C1203 H1195 0.930 . S
C1203 C1204 1.355 . S
C1203 C1205 1.415 . S
C1204 C1203 1.355 . S
C1204 C1206 1.419 . S
C1205 C1200 1.425 . S
C1205 C1202 1.409 1_545 S
C1205 C1203 1.415 . S
C1206 H1196 0.930 . S
C1206 C1204 1.419 . S
C1206 C1207 1.362 . S
C1207 H1197 0.930 . S
C1207 C1200 1.409 . S
C1207 C1206 1.362 . S
H1208 C1214 0.930 . S
H1209 C1217 0.930 . S
H1210 C1218 0.930 . S
H1211 C1219 0.930 . S
H1212 C1222 0.930 . S
H1213 C1223 0.930 . S
C1214 H1208 0.930 . S
C1214 C1215 1.355 . S
C1214 C1216 1.415 . S
C1215 C1214 1.355 . S
C1215 C1217 1.419 . S
C1216 C1214 1.415 . S
C1216 C1221 1.425 . S
C1216 C1223 1.409 . S
C1217 H1209 0.930 . S
C1217 C1215 1.419 . S
C1217 C1218 1.362 . S
C1218 H1210 0.930 . S
C1218 C1217 1.362 . S
C1218 C1221 1.409 . S
C1219 H1211 0.930 . S
C1219 C1220 1.355 . S
C1219 C1221 1.415 . S
C1220 C1219 1.355 . S
C1220 C1222 1.419 . S
C1221 C1216 1.425 . S
C1221 C1218 1.409 . S
C1221 C1219 1.415 . S
C1222 H1212 0.930 . S
C1222 C1220 1.419 . S
C1222 C1223 1.362 . S
C1223 H1213 0.930 . S
C1223 C1216 1.409 . S
C1223 C1222 1.362 . S
H1224 C1230 0.930 . S
H1225 C1233 0.930 . S
H1226 C1234 0.930 . S
H1227 C1235 0.930 . S
H1228 C1238 0.930 . S
H1229 C1239 0.930 . S
C1230 H1224 0.930 . S
C1230 C1231 1.355 . S
C1230 C1232 1.418 . S
C1231 C1230 1.355 . S
C1231 C1233 1.419 1_545 S
C1232 C1230 1.418 . S
C1232 C1237 1.421 1_545 S
C1232 C1239 1.410 . S
C1233 H1225 0.930 . S
C1233 C1231 1.419 1_565 S
C1233 C1234 1.362 . S
C1234 H1226 0.930 . S
C1234 C1233 1.362 . S
C1234 C1237 1.409 . S
C1235 H1227 0.930 . S
C1235 C1236 1.355 . S
C1235 C1237 1.415 . S
C1236 C1235 1.355 . S
C1236 C1238 1.419 . S
C1237 C1232 1.421 1_565 S
C1237 C1234 1.409 . S
C1237 C1235 1.415 . S
C1238 H1228 0.930 . S
C1238 C1236 1.419 . S
C1238 C1239 1.362 1_565 S
C1239 H1229 0.930 . S
C1239 C1232 1.410 . S
C1239 C1238 1.362 1_545 S
H1240 C1246 0.930 . S
H1241 C1249 0.930 . S
H1242 C1250 0.930 . S
H1243 C1251 0.930 . S
H1244 C1254 0.930 . S
H1245 C1255 0.930 . S
C1246 H1240 0.930 . S
C1246 C1247 1.355 . S
C1246 C1248 1.415 . S
C1247 C1246 1.355 . S
C1247 C1249 1.419 . S
C1248 C1246 1.415 . S
C1248 C1253 1.425 . S
C1248 C1255 1.409 . S
C1249 H1241 0.930 . S
C1249 C1247 1.419 . S
C1249 C1250 1.362 . S
C1250 H1242 0.930 . S
C1250 C1249 1.362 . S
C1250 C1253 1.409 . S
C1251 H1243 0.930 . S
C1251 C1252 1.355 . S
C1251 C1253 1.415 . S
C1252 C1251 1.355 . S
C1252 C1254 1.419 . S
C1253 C1248 1.425 . S
C1253 C1250 1.409 . S
C1253 C1251 1.415 . S
C1254 H1244 0.930 . S
C1254 C1252 1.419 . S
C1254 C1255 1.362 . S
C1255 H1245 0.930 . S
C1255 C1248 1.409 . S
C1255 C1254 1.362 . S
H1256 C1262 0.930 1_565 S
H1257 C1265 0.930 . S
H1258 C1266 0.930 . S
H1259 C1267 0.930 . S
H1260 C1270 0.930 . S
H1261 C1271 0.930 . S
C1262 H1256 0.930 1_545 S
C1262 C1263 1.355 . S
C1262 C1264 1.415 . S
C1263 C1262 1.355 . S
C1263 C1265 1.419 . S
C1264 C1262 1.415 . S
C1264 C1269 1.425 . S
C1264 C1271 1.409 1_545 S
C1265 H1257 0.930 . S
C1265 C1263 1.419 . S
C1265 C1266 1.362 . S
C1266 H1258 0.930 . S
C1266 C1265 1.362 . S
C1266 C1269 1.409 . S
C1267 H1259 0.930 . S
C1267 C1268 1.355 1_545 S
C1267 C1269 1.415 . S
C1268 C1267 1.355 1_565 S
C1268 C1270 1.419 . S
C1269 C1264 1.425 . S
C1269 C1266 1.409 . S
C1269 C1267 1.415 . S
C1270 H1260 0.930 . S
C1270 C1268 1.419 . S
C1270 C1271 1.362 . S
C1271 H1261 0.930 . S
C1271 C1264 1.409 1_565 S
C1271 C1270 1.362 . S
H1272 C1278 0.930 . S
H1273 C1281 0.930 . S
H1274 C1282 0.930 . S
H1275 C1283 0.930 . S
H1276 C1286 0.930 . S
H1277 C1287 0.930 . S
C1278 H1272 0.930 . S
C1278 C1279 1.355 . S
C1278 C1280 1.415 . S
C1279 C1278 1.355 . S
C1279 C1281 1.419 . S
C1280 C1278 1.415 . S
C1280 C1285 1.425 . S
C1280 C1287 1.409 . S
C1281 H1273 0.930 . S
C1281 C1279 1.419 . S
C1281 C1282 1.362 . S
C1282 H1274 0.930 . S
C1282 C1281 1.362 . S
C1282 C1285 1.409 . S
C1283 H1275 0.930 . S
C1283 C1284 1.355 . S
C1283 C1285 1.415 . S
C1284 C1283 1.355 . S
C1284 C1286 1.419 . S
C1285 C1280 1.425 . S
C1285 C1282 1.409 . S
C1285 C1283 1.415 . S
C1286 H1276 0.930 . S
C1286 C1284 1.419 . S
C1286 C1287 1.362 . S
C1287 H1277 0.930 . S
C1287 C1280 1.409 . S
C1287 C1286 1.362 . S
H1288 C1294 0.930 . S
H1289 C1297 0.930 . S
H1290 C1298 0.930 . S
H1291 C1299 0.930 . S
H1292 C1302 0.930 . S
H1293 C1303 0.930 . S
C1294 H1288 0.930 . S
C1294 C1295 1.355 . S
C1294 C1296 1.415 1_565 S
C1295 C1294 1.355 . S
C1295 C1297 1.419 1_565 S
C1296 C1294 1.415 1_545 S
C1296 C1301 1.425 . S
C1296 C1303 1.409 1_545 S
C1297 H1289 0.930 . S
C1297 C1295 1.419 1_545 S
C1297 C1298 1.362 . S
C1298 H1290 0.930 . S
C1298 C1297 1.362 . S
C1298 C1301 1.409 . S
C1299 H1291 0.930 . S
C1299 C1300 1.355 . S
C1299 C1301 1.415 . S
C1300 C1299 1.355 . S
C1300 C1302 1.419 . S
C1301 C1296 1.425 . S
C1301 C1298 1.409 . S
C1301 C1299 1.415 . S
C1302 H1292 0.930 . S
C1302 C1300 1.419 . S
C1302 C1303 1.362 1_545 S
C1303 H1293 0.930 . S
C1303 C1296 1.409 1_565 S
C1303 C1302 1.362 1_565 S
H1304 C1310 0.930 . S
H1305 C1313 0.930 . S
H1306 C1314 0.930 . S
H1307 C1315 0.930 . S
H1308 C1318 0.930 . S
H1309 C1319 0.930 . S
C1310 H1304 0.930 . S
C1310 C1311 1.355 . S
C1310 C1312 1.415 . S
C1311 C1310 1.355 . S
C1311 C1313 1.419 . S
C1312 C1310 1.415 . S
C1312 C1317 1.425 . S
C1312 C1319 1.409 . S
C1313 H1305 0.930 . S
C1313 C1311 1.419 . S
C1313 C1314 1.362 . S
C1314 H1306 0.930 . S
C1314 C1313 1.362 . S
C1314 C1317 1.409 . S
C1315 H1307 0.930 . S
C1315 C1316 1.355 . S
C1315 C1317 1.415 . S
C1316 C1315 1.355 . S
C1316 C1318 1.419 . S
C1317 C1312 1.425 . S
C1317 C1314 1.409 . S
C1317 C1315 1.415 . S
C1318 H1308 0.930 . S
C1318 C1316 1.419 . S
C1318 C1319 1.362 . S
C1319 H1309 0.930 . S
C1319 C1312 1.409 . S
C1319 C1318 1.362 . S
H1320 C1326 0.930 . S
H1321 C1329 0.930 . S
H1322 C1330 0.930 . S
H1323 C1331 0.930 . S
H1324 C1334 0.930 . S
H1325 C1335 0.930 . S
C1326 H1320 0.930 . S
C1326 C1327 1.355 1_556 S
C1326 C1328 1.415 1_556 S
C1327 C1326 1.355 1_554 S
C1327 C1329 1.419 . S
C1328 C1326 1.415 1_554 S
C1328 C1333 1.425 . S
C1328 C1335 1.409 1_554 S
C1329 H1321 0.930 . S
C1329 C1327 1.419 . S
C1329 C1330 1.362 . S
C1330 H1322 0.930 . S
C1330 C1329 1.362 . S
C1330 C1333 1.409 . S
C1331 H1323 0.930 . S
C1331 C1332 1.355 . S
C1331 C1333 1.415 . S
C1332 C1331 1.355 . S
C1332 C1334 1.419 1_554 S
C1333 C1328 1.425 . S
C1333 C1330 1.409 . S
C1333 C1331 1.415 . S
C1334 H1324 0.930 . S
C1334 C1332 1.419 1_556 S
C1334 C1335 1.362 . S
C1335 H1325 0.930 . S
C1335 C1328 1.409 1_556 S
C1335 C1334 1.362 . S
H1336 C1342 0.930 . S
H1337 C1345 0.930 . S
H1338 C1346 0.930 . S
H1339 C1347 0.930 . S
H1340 C1350 0.930 . S
H1341 C1351 0.930 . S
C1342 H1336 0.930 . S
C1342 C1343 1.355 . S
C1342 C1344 1.415 . S
C1343 C1342 1.355 . S
C1343 C1345 1.419 1_554 S
C1344 C1342 1.415 . S
C1344 C1349 1.425 1_554 S
C1344 C1351 1.409 . S
C1345 H1337 0.930 . S
C1345 C1343 1.419 1_556 S
C1345 C1346 1.362 . S
C1346 H1338 0.930 . S
C1346 C1345 1.362 . S
C1346 C1349 1.409 . S
C1347 H1339 0.930 . S
C1347 C1348 1.355 . S
C1347 C1349 1.415 . S
C1348 C1347 1.355 . S
C1348 C1350 1.419 1_556 S
C1349 C1344 1.425 1_556 S
C1349 C1346 1.409 . S
C1349 C1347 1.415 . S
C1350 H1340 0.930 . S
C1350 C1348 1.419 1_554 S
C1350 C1351 1.362 . S
C1351 H1341 0.930 . S
C1351 C1344 1.409 . S
C1351 C1350 1.362 . S
H1352 C1358 0.930 . S
H1353 C1361 0.930 . S
H1354 C1362 0.930 . S
H1355 C1363 0.930 . S
H1356 C1366 0.930 . S
H1357 C1367 0.930 . S
C1358 H1352 0.930 . S
C1358 C1359 1.355 . S
C1358 C1360 1.415 . S
C1359 C1358 1.355 . S
C1359 C1361 1.419 . S
C1360 C1358 1.415 . S
C1360 C1365 1.425 . S
C1360 C1367 1.409 . S
C1361 H1353 0.930 . S
C1361 C1359 1.419 . S
C1361 C1362 1.362 . S
C1362 H1354 0.930 . S
C1362 C1361 1.362 . S
C1362 C1365 1.409 . S
C1363 H1355 0.930 . S
C1363 C1364 1.355 . S
C1363 C1365 1.415 . S
C1364 C1363 1.355 . S
C1364 C1366 1.419 . S
C1365 C1360 1.425 . S
C1365 C1362 1.409 . S
C1365 C1363 1.415 . S
C1366 H1356 0.930 . S
C1366 C1364 1.419 . S
C1366 C1367 1.362 . S
C1367 H1357 0.930 . S
C1367 C1360 1.409 . S
C1367 C1366 1.362 . S
H1368 C1374 0.930 . S
H1369 C1377 0.930 . S
H1370 C1378 0.930 . S
H1371 C1379 0.930 . S
H1372 C1382 0.930 . S
H1373 C1383 0.930 . S
C1374 H1368 0.930 . S
C1374 C1375 1.355 . S
C1374 C1376 1.415 . S
C1375 C1374 1.355 . S
C1375 C1377 1.419 . S
C1376 C1374 1.415 . S
C1376 C1381 1.425 . S
C1376 C1383 1.409 . S
C1377 H1369 0.930 . S
C1377 C1375 1.419 . S
C1377 C1378 1.362 . S
C1378 H1370 0.930 . S
C1378 C1377 1.362 . S
C1378 C1381 1.409 . S
C1379 H1371 0.930 . S
C1379 C1380 1.355 . S
C1379 C1381 1.415 . S
C1380 C1379 1.355 . S
C1380 C1382 1.419 . S
C1381 C1376 1.425 . S
C1381 C1378 1.409 . S
C1381 C1379 1.415 . S
C1382 H1372 0.930 . S
C1382 C1380 1.419 . S
C1382 C1383 1.362 . S
C1383 H1373 0.930 . S
C1383 C1376 1.409 . S
C1383 C1382 1.362 . S
H1384 C1390 0.930 . S
H1385 C1393 0.930 . S
H1386 C1394 0.930 . S
H1387 C1395 0.930 . S
H1388 C1398 0.930 . S
H1389 C1399 0.930 . S
C1390 H1384 0.930 . S
C1390 C1391 1.355 . S
C1390 C1392 1.415 . S
C1391 C1390 1.355 . S
C1391 C1393 1.419 . S
C1392 C1390 1.415 . S
C1392 C1397 1.425 . S
C1392 C1399 1.409 . S
C1393 H1385 0.930 . S
C1393 C1391 1.419 . S
C1393 C1394 1.362 . S
C1394 H1386 0.930 . S
C1394 C1393 1.362 . S
C1394 C1397 1.409 . S
C1395 H1387 0.930 . S
C1395 C1396 1.355 . S
C1395 C1397 1.415 . S
C1396 C1395 1.355 . S
C1396 C1398 1.419 . S
C1397 C1392 1.425 . S
C1397 C1394 1.409 . S
C1397 C1395 1.415 . S
C1398 H1388 0.930 . S
C1398 C1396 1.419 . S
C1398 C1399 1.362 . S
C1399 H1389 0.930 . S
C1399 C1392 1.409 . S
C1399 C1398 1.362 . S
H1400 C1406 0.930 . S
H1401 C1409 0.930 . S
H1402 C1410 0.930 . S
H1403 C1411 0.930 . S
H1404 C1414 0.930 . S
H1405 C1415 0.930 . S
C1406 H1400 0.930 . S
C1406 C1407 1.355 . S
C1406 C1408 1.415 . S
C1407 C1406 1.355 . S
C1407 C1409 1.419 . S
C1408 C1406 1.415 . S
C1408 C1413 1.425 . S
C1408 C1415 1.409 . S
C1409 H1401 0.930 . S
C1409 C1407 1.419 . S
C1409 C1410 1.362 . S
C1410 H1402 0.930 . S
C1410 C1409 1.362 . S
C1410 C1413 1.409 . S
C1411 H1403 0.930 . S
C1411 C1412 1.355 . S
C1411 C1413 1.415 . S
C1412 C1411 1.355 . S
C1412 C1414 1.419 . S
C1413 C1408 1.425 . S
C1413 C1410 1.409 . S
C1413 C1411 1.415 . S
C1414 H1404 0.930 . S
C1414 C1412 1.419 . S
C1414 C1415 1.362 . S
C1415 H1405 0.930 . S
C1415 C1408 1.409 . S
C1415 C1414 1.362 . S
H1416 C1422 0.930 . S
H1417 C1425 0.930 . S
H1418 C1426 0.930 . S
H1419 C1427 0.930 . S
H1420 C1430 0.930 . S
H1421 C1431 0.930 . S
C1422 H1416 0.930 . S
C1422 C1423 1.355 . S
C1422 C1424 1.415 . S
C1423 C1422 1.355 . S
C1423 C1425 1.419 . S
C1424 C1422 1.415 . S
C1424 C1429 1.425 . S
C1424 C1431 1.409 . S
C1425 H1417 0.930 . S
C1425 C1423 1.419 . S
C1425 C1426 1.362 . S
C1426 H1418 0.930 . S
C1426 C1425 1.362 . S
C1426 C1429 1.409 . S
C1427 H1419 0.930 . S
C1427 C1428 1.355 . S
C1427 C1429 1.415 . S
C1428 C1427 1.355 . S
C1428 C1430 1.419 . S
C1429 C1424 1.425 . S
C1429 C1426 1.409 . S
C1429 C1427 1.415 . S
C1430 H1420 0.930 . S
C1430 C1428 1.419 . S
C1430 C1431 1.362 . S
C1431 H1421 0.930 . S
C1431 C1424 1.409 . S
C1431 C1430 1.362 . S
H1432 C1438 0.930 . S
H1433 C1441 0.930 . S
H1434 C1442 0.930 . S
H1435 C1443 0.930 . S
H1436 C1446 0.930 . S
H1437 C1447 0.930 . S
C1438 H1432 0.930 . S
C1438 C1439 1.355 . S
C1438 C1440 1.415 . S
C1439 C1438 1.355 . S
C1439 C1441 1.419 . S
C1440 C1438 1.415 . S
C1440 C1445 1.425 . S
C1440 C1447 1.409 . S
C1441 H1433 0.930 . S
C1441 C1439 1.419 . S
C1441 C1442 1.362 . S
C1442 H1434 0.930 . S
C1442 C1441 1.362 . S
C1442 C1445 1.409 . S
C1443 H1435 0.930 . S
C1443 C1444 1.355 . S
C1443 C1445 1.415 . S
C1444 C1443 1.355 . S
C1444 C1446 1.419 . S
C1445 C1440 1.425 . S
C1445 C1442 1.409 . S
C1445 C1443 1.415 . S
C1446 H1436 0.930 . S
C1446 C1444 1.419 . S
C1446 C1447 1.362 . S
C1447 H1437 0.930 . S
C1447 C1440 1.409 . S
C1447 C1446 1.362 . S
H1448 C1454 0.930 . S
H1449 C1457 0.930 . S
H1450 C1458 0.930 . S
H1451 C1459 0.930 . S
H1452 C1462 0.930 . S
H1453 C1463 0.930 . S
C1454 H1448 0.930 . S
C1454 C1455 1.355 . S
C1454 C1456 1.415 . S
C1455 C1454 1.355 . S
C1455 C1457 1.419 . S
C1456 C1454 1.415 . S
C1456 C1461 1.425 . S
C1456 C1463 1.409 . S
C1457 H1449 0.930 . S
C1457 C1455 1.419 . S
C1457 C1458 1.362 . S
C1458 H1450 0.930 . S
C1458 C1457 1.362 . S
C1458 C1461 1.409 . S
C1459 H1451 0.930 . S
C1459 C1460 1.355 . S
C1459 C1461 1.415 . S
C1460 C1459 1.355 . S
C1460 C1462 1.419 . S
C1461 C1456 1.425 . S
C1461 C1458 1.409 . S
C1461 C1459 1.415 . S
C1462 H1452 0.930 . S
C1462 C1460 1.419 . S
C1462 C1463 1.362 . S
C1463 H1453 0.930 . S
C1463 C1456 1.409 . S
C1463 C1462 1.362 . S
H1464 C1470 0.930 . S
H1465 C1473 0.930 . S
H1466 C1474 0.930 . S
H1467 C1475 0.930 . S
H1468 C1478 0.930 . S
H1469 C1479 0.930 . S
C1470 H1464 0.930 . S
C1470 C1471 1.355 . S
C1470 C1472 1.415 . S
C1471 C1470 1.355 . S
C1471 C1473 1.419 . S
C1472 C1470 1.415 . S
C1472 C1477 1.425 . S
C1472 C1479 1.409 . S
C1473 H1465 0.930 . S
C1473 C1471 1.419 . S
C1473 C1474 1.362 . S
C1474 H1466 0.930 . S
C1474 C1473 1.362 . S
C1474 C1477 1.409 . S
C1475 H1467 0.930 . S
C1475 C1476 1.355 . S
C1475 C1477 1.415 . S
C1476 C1475 1.355 . S
C1476 C1478 1.419 . S
C1477 C1472 1.425 . S
C1477 C1474 1.409 . S
C1477 C1475 1.415 . S
C1478 H1468 0.930 . S
C1478 C1476 1.419 . S
C1478 C1479 1.362 . S
C1479 H1469 0.930 . S
C1479 C1472 1.409 . S
C1479 C1478 1.362 . S
H1480 C1486 0.930 1_655 S
H1481 C1489 0.930 . S
H1482 C1490 0.930 . S
H1483 C1491 0.930 . S
H1484 C1494 0.930 1_655 S
H1485 C1495 0.930 . S
C1486 H1480 0.930 1_455 S
C1486 C1487 1.355 . S
C1486 C1488 1.415 . S
C1487 C1486 1.355 . S
C1487 C1489 1.419 . S
C1488 C1486 1.415 . S
C1488 C1493 1.425 . S
C1488 C1495 1.409 1_455 S
C1489 H1481 0.930 . S
C1489 C1487 1.419 . S
C1489 C1490 1.362 . S
C1490 H1482 0.930 . S
C1490 C1489 1.362 . S
C1490 C1493 1.409 . S
C1491 H1483 0.930 . S
C1491 C1492 1.355 . S
C1491 C1493 1.415 . S
C1492 C1491 1.355 . S
C1492 C1494 1.419 . S
C1493 C1488 1.425 . S
C1493 C1490 1.409 . S
C1493 C1491 1.415 . S
C1494 H1484 0.930 1_455 S
C1494 C1492 1.419 . S
C1494 C1495 1.362 1_455 S
C1495 H1485 0.930 . S
C1495 C1488 1.409 1_655 S
C1495 C1494 1.362 1_655 S
H1496 C1502 0.930 . S
H1497 C1505 0.930 . S
H1498 C1506 0.930 . S
H1499 C1507 0.930 . S
H1500 C1510 0.930 . S
H1501 C1511 0.930 . S
C1502 H1496 0.930 . S
C1502 C1503 1.355 . S
C1502 C1504 1.415 . S
C1503 C1502 1.355 . S
C1503 C1505 1.419 . S
C1504 C1502 1.415 . S
C1504 C1509 1.425 . S
C1504 C1511 1.409 . S
C1505 H1497 0.930 . S
C1505 C1503 1.419 . S
C1505 C1506 1.362 . S
C1506 H1498 0.930 . S
C1506 C1505 1.362 . S
C1506 C1509 1.409 . S
C1507 H1499 0.930 . S
C1507 C1508 1.355 . S
C1507 C1509 1.415 . S
C1508 C1507 1.355 . S
C1508 C1510 1.419 . S
C1509 C1504 1.425 . S
C1509 C1506 1.409 . S
C1509 C1507 1.415 . S
C1510 H1500 0.930 . S
C1510 C1508 1.419 . S
C1510 C1511 1.362 . S
C1511 H1501 0.930 . S
C1511 C1504 1.409 . S
C1511 C1510 1.362 . S
H1512 C1518 0.930 . S
H1513 C1521 0.930 . S
H1514 C1522 0.930 . S
H1515 C1523 0.930 . S
H1516 C1526 0.930 1_554 S
H1517 C1527 0.930 . S
C1518 H1512 0.930 . S
C1518 C1519 1.355 . S
C1518 C1520 1.415 . S
C1519 C1518 1.355 . S
C1519 C1521 1.419 . S
C1520 C1518 1.415 . S
C1520 C1525 1.425 . S
C1520 C1527 1.409 . S
C1521 H1513 0.930 . S
C1521 C1519 1.419 . S
C1521 C1522 1.362 . S
C1522 H1514 0.930 . S
C1522 C1521 1.362 . S
C1522 C1525 1.409 . S
C1523 H1515 0.930 . S
C1523 C1524 1.355 . S
C1523 C1525 1.415 . S
C1524 C1523 1.355 . S
C1524 C1526 1.419 . S
C1525 C1520 1.425 . S
C1525 C1522 1.409 . S
C1525 C1523 1.415 . S
C1526 H1516 0.930 1_556 S
C1526 C1524 1.419 . S
C1526 C1527 1.362 . S
C1527 H1517 0.930 . S
C1527 C1520 1.409 . S
C1527 C1526 1.362 . S
H1528 C1534 0.930 . S
H1529 C1537 0.930 . S
H1530 C1538 0.930 . S
H1531 C1539 0.930 . S
H1532 C1542 0.930 . S
H1533 C1543 0.930 . S
C1534 H1528 0.930 . S
C1534 C1535 1.355 . S
C1534 C1536 1.415 . S
C1535 C1534 1.355 . S
C1535 C1537 1.419 . S
C1536 C1534 1.415 . S
C1536 C1541 1.425 . S
C1536 C1543 1.409 . S
C1537 H1529 0.930 . S
C1537 C1535 1.419 . S
C1537 C1538 1.362 . S
C1538 H1530 0.930 . S
C1538 C1537 1.362 . S
C1538 C1541 1.409 . S
C1539 H1531 0.930 . S
C1539 C1540 1.355 . S
C1539 C1541 1.415 . S
C1540 C1539 1.355 . S
C1540 C1542 1.419 . S
C1541 C1536 1.425 . S
C1541 C1538 1.409 . S
C1541 C1539 1.415 . S
C1542 H1532 0.930 . S
C1542 C1540 1.419 . S
C1542 C1543 1.362 . S
C1543 H1533 0.930 . S
C1543 C1536 1.409 . S
C1543 C1542 1.362 . S
H1544 C1550 0.930 1_655 S
H1545 C1553 0.930 . S
H1546 C1554 0.930 . S
H1547 C1555 0.930 . S
H1548 C1558 0.948 . S
H1549 C1559 0.930 . S
C1550 H1544 0.930 1_455 S
C1550 C1551 1.355 . S
C1550 C1552 1.415 . S
C1551 C1550 1.355 . S
C1551 C1553 1.419 . S
C1552 C1550 1.415 . S
C1552 C1557 1.425 . S
C1552 C1559 1.409 1_455 S
C1553 H1545 0.930 . S
C1553 C1551 1.419 . S
C1553 C1554 1.362 . S
C1554 H1546 0.930 . S
C1554 C1553 1.362 . S
C1554 C1557 1.409 . S
C1555 H1547 0.930 . S
C1555 C1556 1.355 . S
C1555 C1557 1.415 . S
C1556 C1555 1.355 . S
C1556 C1558 1.393 1_455 S
C1557 C1552 1.425 . S
C1557 C1554 1.409 . S
C1557 C1555 1.415 . S
C1558 H1548 0.948 . S
C1558 C1556 1.393 1_655 S
C1558 C1559 1.371 . S
C1559 H1549 0.930 . S
C1559 C1552 1.409 1_655 S
C1559 C1558 1.371 . S
H1560 C1566 0.930 . S
H1561 C1569 0.930 . S
H1562 C1570 0.930 . S
H1563 C1571 0.930 . S
H1564 C1574 0.930 . S
H1565 C1575 0.930 . S
C1566 H1560 0.930 . S
C1566 C1567 1.355 . S
C1566 C1568 1.415 . S
C1567 C1566 1.355 . S
C1567 C1569 1.419 . S
C1568 C1566 1.415 . S
C1568 C1573 1.425 . S
C1568 C1575 1.409 . S
C1569 H1561 0.930 . S
C1569 C1567 1.419 . S
C1569 C1570 1.362 . S
C1570 H1562 0.930 . S
C1570 C1569 1.362 . S
C1570 C1573 1.409 . S
C1571 H1563 0.930 . S
C1571 C1572 1.355 . S
C1571 C1573 1.415 . S
C1572 C1571 1.355 . S
C1572 C1574 1.419 . S
C1573 C1568 1.425 . S
C1573 C1570 1.409 . S
C1573 C1571 1.415 . S
C1574 H1564 0.930 . S
C1574 C1572 1.419 . S
C1574 C1575 1.362 . S
C1575 H1565 0.930 . S
C1575 C1568 1.409 . S
C1575 C1574 1.362 . S
H1576 C1582 0.930 . S
H1577 C1585 0.930 . S
H1578 C1586 0.930 . S
H1579 C1587 0.930 . S
H1580 C1590 0.930 . S
H1581 C1591 0.930 . S
C1582 H1576 0.930 . S
C1582 C1583 1.355 . S
C1582 C1584 1.415 . S
C1583 C1582 1.355 . S
C1583 C1585 1.419 . S
C1584 C1582 1.415 . S
C1584 C1589 1.425 . S
C1584 C1591 1.409 . S
C1585 H1577 0.930 . S
C1585 C1583 1.419 . S
C1585 C1586 1.362 . S
C1586 H1578 0.930 . S
C1586 C1585 1.362 . S
C1586 C1589 1.409 . S
C1587 H1579 0.930 . S
C1587 C1588 1.355 . S
C1587 C1589 1.415 . S
C1588 C1587 1.355 . S
C1588 C1590 1.419 . S
C1589 C1584 1.425 . S
C1589 C1586 1.409 . S
C1589 C1587 1.415 . S
C1590 H1580 0.930 . S
C1590 C1588 1.419 . S
C1590 C1591 1.362 . S
C1591 H1581 0.930 . S
C1591 C1584 1.409 . S
C1591 C1590 1.362 . S
H1592 C1598 0.930 . S
H1593 C1601 0.930 . S
H1594 C1602 0.930 . S
H1595 C1603 0.930 . S
H1596 C1606 0.930 . S
H1597 C1607 0.930 . S
C1598 H1592 0.930 . S
C1598 C1599 1.355 . S
C1598 C1600 1.415 . S
C1599 C1598 1.355 . S
C1599 C1601 1.419 . S
C1600 C1598 1.415 . S
C1600 C1605 1.425 . S
C1600 C1607 1.409 . S
C1601 H1593 0.930 . S
C1601 C1599 1.419 . S
C1601 C1602 1.362 . S
C1602 H1594 0.930 . S
C1602 C1601 1.362 . S
C1602 C1605 1.409 . S
C1603 H1595 0.930 . S
C1603 C1604 1.355 . S
C1603 C1605 1.415 . S
C1604 C1603 1.355 . S
C1604 C1606 1.419 . S
C1605 C1600 1.425 . S
C1605 C1602 1.409 . S
C1605 C1603 1.415 . S
C1606 H1596 0.930 . S
C1606 C1604 1.419 . S
C1606 C1607 1.362 . S
C1607 H1597 0.930 . S
C1607 C1600 1.409 . S
C1607 C1606 1.362 . S
H1608 C1614 0.930 . S
H1609 C1617 0.930 . S
H1610 C1618 0.930 . S
H1611 C1619 0.930 . S
H1612 C1622 0.930 1_455 S
H1613 C1623 0.930 . S
C1614 H1608 0.930 . S
C1614 C1615 1.355 . S
C1614 C1616 1.415 . S
C1615 C1614 1.355 . S
C1615 C1617 1.419 . S
C1616 C1614 1.415 . S
C1616 C1621 1.425 . S
C1616 C1623 1.409 . S
C1617 H1609 0.930 . S
C1617 C1615 1.419 . S
C1617 C1618 1.362 . S
C1618 H1610 0.930 . S
C1618 C1617 1.362 . S
C1618 C1621 1.409 . S
C1619 H1611 0.930 . S
C1619 C1620 1.355 . S
C1619 C1621 1.415 . S
C1620 C1619 1.355 . S
C1620 C1622 1.419 . S
C1621 C1616 1.425 . S
C1621 C1618 1.409 . S
C1621 C1619 1.415 . S
C1622 H1612 0.930 1_655 S
C1622 C1620 1.419 . S
C1622 C1623 1.362 . S
C1623 H1613 0.930 . S
C1623 C1616 1.409 . S
C1623 C1622 1.362 . S
H1624 C1630 0.930 . S
H1625 C1633 0.930 . S
H1626 C1634 0.930 . S
H1627 C1635 0.930 . S
H1628 C1638 0.930 . S
H1629 C1639 0.930 . S
C1630 H1624 0.930 . S
C1630 C1631 1.355 . S
C1630 C1632 1.415 . S
C1631 C1630 1.355 . S
C1631 C1633 1.419 . S
C1632 C1630 1.415 . S
C1632 C1637 1.425 . S
C1632 C1639 1.409 . S
C1633 H1625 0.930 . S
C1633 C1631 1.419 . S
C1633 C1634 1.362 . S
C1634 H1626 0.930 . S
C1634 C1633 1.362 . S
C1634 C1637 1.409 . S
C1635 H1627 0.930 . S
C1635 C1636 1.355 . S
C1635 C1637 1.415 . S
C1636 C1635 1.355 . S
C1636 C1638 1.419 . S
C1637 C1632 1.425 . S
C1637 C1634 1.409 . S
C1637 C1635 1.415 . S
C1638 H1628 0.930 . S
C1638 C1636 1.419 . S
C1638 C1639 1.362 . S
C1639 H1629 0.930 . S
C1639 C1632 1.409 . S
C1639 C1638 1.362 . S
H1640 C1646 0.930 . S
H1641 C1649 0.930 . S
H1642 C1650 0.930 . S
H1643 C1651 0.930 . S
H1644 C1654 0.930 . S
H1645 C1655 0.930 . S
C1646 H1640 0.930 . S
C1646 C1647 1.355 . S
C1646 C1648 1.415 . S
C1647 C1646 1.355 . S
C1647 C1649 1.419 . S
C1648 C1646 1.415 . S
C1648 C1653 1.425 . S
C1648 C1655 1.409 . S
C1649 H1641 0.930 . S
C1649 C1647 1.419 . S
C1649 C1650 1.362 . S
C1650 H1642 0.930 . S
C1650 C1649 1.362 . S
C1650 C1653 1.409 . S
C1651 H1643 0.930 . S
C1651 C1652 1.355 . S
C1651 C1653 1.415 . S
C1652 C1651 1.355 . S
C1652 C1654 1.419 . S
C1653 C1648 1.425 . S
C1653 C1650 1.409 . S
C1653 C1651 1.415 . S
C1654 H1644 0.930 . S
C1654 C1652 1.419 . S
C1654 C1655 1.362 . S
C1655 H1645 0.930 . S
C1655 C1648 1.409 . S
C1655 C1654 1.362 . S
H1656 C1662 0.930 . S
H1657 C1665 0.930 . S
H1658 C1666 0.930 . S
H1659 C1667 0.930 . S
H1660 C1670 0.930 . S
H1661 C1671 0.930 . S
C1662 H1656 0.930 . S
C1662 C1663 1.355 . S
C1662 C1664 1.415 . S
C1663 C1662 1.355 . S
C1663 C1665 1.419 . S
C1664 C1662 1.415 . S
C1664 C1669 1.425 . S
C1664 C1671 1.409 . S
C1665 H1657 0.930 . S
C1665 C1663 1.419 . S
C1665 C1666 1.362 . S
C1666 H1658 0.930 . S
C1666 C1665 1.362 . S
C1666 C1669 1.409 . S
C1667 H1659 0.930 . S
C1667 C1668 1.355 . S
C1667 C1669 1.415 . S
C1668 C1667 1.355 . S
C1668 C1670 1.419 . S
C1669 C1664 1.425 . S
C1669 C1666 1.409 . S
C1669 C1667 1.415 . S
C1670 H1660 0.930 . S
C1670 C1668 1.419 . S
C1670 C1671 1.362 . S
C1671 H1661 0.930 . S
C1671 C1664 1.409 . S
C1671 C1670 1.362 . S
H1672 C1678 0.930 . S
H1673 C1681 0.930 . S
H1674 C1682 0.930 . S
H1675 C1683 0.930 . S
H1676 C1686 0.930 . S
H1677 C1687 0.930 . S
C1678 H1672 0.930 . S
C1678 C1679 1.355 . S
C1678 C1680 1.415 . S
C1679 C1678 1.355 . S
C1679 C1681 1.419 . S
C1680 C1678 1.415 . S
C1680 C1685 1.425 . S
C1680 C1687 1.409 . S
C1681 H1673 0.930 . S
C1681 C1679 1.419 . S
C1681 C1682 1.362 . S
C1682 H1674 0.930 . S
C1682 C1681 1.362 . S
C1682 C1685 1.409 . S
C1683 H1675 0.930 . S
C1683 C1684 1.355 . S
C1683 C1685 1.415 . S
C1684 C1683 1.355 . S
C1684 C1686 1.419 . S
C1685 C1680 1.425 . S
C1685 C1682 1.409 . S
C1685 C1683 1.415 . S
C1686 H1676 0.930 . S
C1686 C1684 1.419 . S
C1686 C1687 1.362 . S
C1687 H1677 0.930 . S
C1687 C1680 1.409 . S
C1687 C1686 1.362 . S
H1688 C1694 0.930 . S
H1689 C1697 0.930 . S
H1690 C1698 0.930 . S
H1691 C1699 0.930 . S
H1692 C1702 0.930 . S
H1693 C1703 0.930 . S
C1694 H1688 0.930 . S
C1694 C1695 1.355 . S
C1694 C1696 1.415 . S
C1695 C1694 1.355 . S
C1695 C1697 1.419 . S
C1696 C1694 1.415 . S
C1696 C1701 1.425 . S
C1696 C1703 1.409 . S
C1697 H1689 0.930 . S
C1697 C1695 1.419 . S
C1697 C1698 1.362 . S
C1698 H1690 0.930 . S
C1698 C1697 1.362 . S
C1698 C1701 1.409 . S
C1699 H1691 0.930 . S
C1699 C1700 1.355 . S
C1699 C1701 1.415 . S
C1700 C1699 1.355 . S
C1700 C1702 1.419 . S
C1701 C1696 1.425 . S
C1701 C1698 1.409 . S
C1701 C1699 1.415 . S
C1702 H1692 0.930 . S
C1702 C1700 1.419 . S
C1702 C1703 1.362 . S
C1703 H1693 0.930 . S
C1703 C1696 1.409 . S
C1703 C1702 1.362 . S
H1704 C1710 0.930 . S
H1705 C1713 0.930 . S
H1706 C1714 0.930 . S
H1707 C1715 0.930 . S
H1708 C1718 0.930 . S
H1709 C1719 0.930 . S
C1710 H1704 0.930 . S
C1710 C1711 1.355 . S
C1710 C1712 1.415 . S
C1711 C1710 1.355 . S
C1711 C1713 1.419 . S
C1712 C1710 1.415 . S
C1712 C1717 1.425 . S
C1712 C1719 1.409 . S
C1713 H1705 0.930 . S
C1713 C1711 1.419 . S
C1713 C1714 1.362 . S
C1714 H1706 0.930 . S
C1714 C1713 1.362 . S
C1714 C1717 1.409 . S
C1715 H1707 0.930 . S
C1715 C1716 1.355 . S
C1715 C1717 1.415 . S
C1716 C1715 1.355 . S
C1716 C1718 1.419 . S
C1717 C1712 1.425 . S
C1717 C1714 1.409 . S
C1717 C1715 1.415 . S
C1718 H1708 0.930 . S
C1718 C1716 1.419 . S
C1718 C1719 1.362 . S
C1719 H1709 0.930 . S
C1719 C1712 1.409 . S
C1719 C1718 1.362 . S
H1720 C1726 0.930 . S
H1721 C1729 0.930 . S
H1722 C1730 0.930 . S
H1723 C1731 0.930 . S
H1724 C1734 0.930 . S
H1725 C1735 0.930 1_545 S
C1726 H1720 0.930 . S
C1726 C1727 1.355 . S
C1726 C1728 1.415 . S
C1727 C1726 1.355 . S
C1727 C1729 1.419 . S
C1728 C1726 1.415 . S
C1728 C1733 1.425 . S
C1728 C1735 1.409 . S
C1729 H1721 0.930 . S
C1729 C1727 1.419 . S
C1729 C1730 1.362 . S
C1730 H1722 0.930 . S
C1730 C1729 1.362 . S
C1730 C1733 1.409 . S
C1731 H1723 0.930 . S
C1731 C1732 1.355 . S
C1731 C1733 1.415 . S
C1732 C1731 1.355 . S
C1732 C1734 1.419 1_565 S
C1733 C1728 1.425 . S
C1733 C1730 1.409 . S
C1733 C1731 1.415 . S
C1734 H1724 0.930 . S
C1734 C1732 1.419 1_545 S
C1734 C1735 1.362 1_545 S
C1735 H1725 0.930 1_565 S
C1735 C1728 1.409 . S
C1735 C1734 1.362 1_565 S
H1736 C1742 0.930 . S
H1737 C1745 0.930 . S
H1738 C1746 0.930 . S
H1739 C1747 0.930 . S
H1740 C1750 0.930 . S
H1741 C1751 0.930 . S
C1742 H1736 0.930 . S
C1742 C1743 1.355 . S
C1742 C1744 1.415 . S
C1743 C1742 1.355 . S
C1743 C1745 1.419 . S
C1744 C1742 1.415 . S
C1744 C1749 1.425 . S
C1744 C1751 1.409 . S
C1745 H1737 0.930 . S
C1745 C1743 1.419 . S
C1745 C1746 1.362 . S
C1746 H1738 0.930 . S
C1746 C1745 1.362 . S
C1746 C1749 1.409 . S
C1747 H1739 0.930 . S
C1747 C1748 1.355 . S
C1747 C1749 1.415 . S
C1748 C1747 1.355 . S
C1748 C1750 1.419 . S
C1749 C1744 1.425 . S
C1749 C1746 1.409 . S
C1749 C1747 1.415 . S
C1750 H1740 0.930 . S
C1750 C1748 1.419 . S
C1750 C1751 1.362 . S
C1751 H1741 0.930 . S
C1751 C1744 1.409 . S
C1751 C1750 1.362 . S
H1752 C1758 0.930 . S
H1753 C1761 0.930 . S
H1754 C1762 0.930 . S
H1755 C1763 0.930 . S
H1756 C1766 0.930 1_565 S
H1757 C1767 0.930 1_556 S
C1758 H1752 0.930 . S
C1758 C1759 1.355 . S
C1758 C1760 1.415 . S
C1759 C1758 1.355 . S
C1759 C1761 1.419 . S
C1760 C1758 1.415 . S
C1760 C1765 1.425 . S
C1760 C1767 1.409 . S
C1761 H1753 0.930 . S
C1761 C1759 1.419 . S
C1761 C1762 1.362 . S
C1762 H1754 0.930 . S
C1762 C1761 1.362 . S
C1762 C1765 1.409 . S
C1763 H1755 0.930 . S
C1763 C1764 1.355 . S
C1763 C1765 1.415 . S
C1764 C1763 1.355 . S
C1764 C1766 1.419 . S
C1765 C1760 1.425 . S
C1765 C1762 1.409 . S
C1765 C1763 1.415 . S
C1766 H1756 0.930 1_545 S
C1766 C1764 1.419 . S
C1766 C1767 1.362 . S
C1767 H1757 0.930 1_554 S
C1767 C1760 1.409 . S
C1767 C1766 1.362 . S
H1768 C1774 0.930 . S
H1769 C1777 0.930 . S
H1770 C1778 0.930 . S
H1771 C1779 0.930 . S
H1772 C1782 0.930 . S
H1773 C1783 0.930 . S
C1774 H1768 0.930 . S
C1774 C1775 1.355 . S
C1774 C1776 1.415 . S
C1775 C1774 1.355 . S
C1775 C1777 1.419 . S
C1776 C1774 1.415 . S
C1776 C1781 1.425 . S
C1776 C1783 1.409 . S
C1777 H1769 0.930 . S
C1777 C1775 1.419 . S
C1777 C1778 1.362 . S
C1778 H1770 0.930 . S
C1778 C1777 1.362 . S
C1778 C1781 1.409 . S
C1779 H1771 0.930 . S
C1779 C1780 1.355 . S
C1779 C1781 1.415 . S
C1780 C1779 1.355 . S
C1780 C1782 1.419 . S
C1781 C1776 1.425 . S
C1781 C1778 1.409 . S
C1781 C1779 1.415 . S
C1782 H1772 0.930 . S
C1782 C1780 1.419 . S
C1782 C1783 1.362 . S
C1783 H1773 0.930 . S
C1783 C1776 1.409 . S
C1783 C1782 1.362 . S
H1784 C1790 0.930 . S
H1785 C1793 0.930 . S
H1786 C1794 0.930 . S
H1787 C1795 0.930 . S
H1788 C1798 0.930 . S
H1789 C1799 0.930 . S
C1790 H1784 0.930 . S
C1790 C1791 1.374 . S
C1790 C1792 1.415 . S
C1791 C1790 1.374 . S
C1791 C1793 1.392 1_554 S
C1792 C1790 1.415 . S
C1792 C1797 1.425 1_554 S
C1792 C1799 1.409 . S
C1793 H1785 0.930 . S
C1793 C1791 1.392 1_556 S
C1793 C1794 1.362 . S
C1794 H1786 0.930 . S
C1794 C1793 1.362 . S
C1794 C1797 1.409 . S
C1795 H1787 0.930 . S
C1795 C1796 1.355 . S
C1795 C1797 1.415 . S
C1796 C1795 1.355 . S
C1796 C1798 1.419 1_556 S
C1797 C1792 1.425 1_556 S
C1797 C1794 1.409 . S
C1797 C1795 1.415 . S
C1798 H1788 0.930 . S
C1798 C1796 1.419 1_554 S
C1798 C1799 1.362 . S
C1799 H1789 0.930 . S
C1799 C1792 1.409 . S
C1799 C1798 1.362 . S
H1800 C1806 0.930 . S
H1801 C1809 0.930 . S
H1802 C1810 0.930 . S
H1803 C1811 0.930 . S
H1804 C1814 0.930 . S
H1805 C1815 0.930 . S
C1806 H1800 0.930 . S
C1806 C1807 1.355 . S
C1806 C1808 1.415 . S
C1807 C1806 1.355 . S
C1807 C1809 1.419 . S
C1808 C1806 1.415 . S
C1808 C1813 1.425 . S
C1808 C1815 1.409 . S
C1809 H1801 0.930 . S
C1809 C1807 1.419 . S
C1809 C1810 1.362 . S
C1810 H1802 0.930 . S
C1810 C1809 1.362 . S
C1810 C1813 1.409 . S
C1811 H1803 0.930 . S
C1811 C1812 1.355 . S
C1811 C1813 1.415 . S
C1812 C1811 1.355 . S
C1812 C1814 1.419 . S
C1813 C1808 1.425 . S
C1813 C1810 1.409 . S
C1813 C1811 1.415 . S
C1814 H1804 0.930 . S
C1814 C1812 1.419 . S
C1814 C1815 1.362 . S
C1815 H1805 0.930 . S
C1815 C1808 1.409 . S
C1815 C1814 1.362 . S
H1816 C1822 0.930 . S
H1817 C1825 0.930 . S
H1818 C1826 0.930 . S
H1819 C1827 0.930 . S
H1820 C1830 0.930 . S
H1821 C1831 0.930 . S
C1822 H1816 0.930 . S
C1822 C1823 1.355 . S
C1822 C1824 1.415 . S
C1823 C1822 1.355 . S
C1823 C1825 1.419 . S
C1824 C1822 1.415 . S
C1824 C1829 1.425 . S
C1824 C1831 1.409 . S
C1825 H1817 0.930 . S
C1825 C1823 1.419 . S
C1825 C1826 1.362 . S
C1826 H1818 0.930 . S
C1826 C1825 1.362 . S
C1826 C1829 1.409 . S
C1827 H1819 0.930 . S
C1827 C1828 1.355 . S
C1827 C1829 1.415 . S
C1828 C1827 1.355 . S
C1828 C1830 1.419 . S
C1829 C1824 1.425 . S
C1829 C1826 1.409 . S
C1829 C1827 1.415 . S
C1830 H1820 0.930 . S
C1830 C1828 1.419 . S
C1830 C1831 1.362 . S
C1831 H1821 0.930 . S
C1831 C1824 1.409 . S
C1831 C1830 1.362 . S
H1832 C1838 0.930 . S
H1833 C1841 0.930 . S
H1834 C1842 0.930 . S
H1835 C1843 0.930 . S
H1836 C1846 0.930 . S
H1837 C1847 0.930 . S
C1838 H1832 0.930 . S
C1838 C1839 1.355 . S
C1838 C1840 1.415 . S
C1839 C1838 1.355 . S
C1839 C1841 1.419 . S
C1840 C1838 1.415 . S
C1840 C1845 1.425 . S
C1840 C1847 1.409 . S
C1841 H1833 0.930 . S
C1841 C1839 1.419 . S
C1841 C1842 1.362 . S
C1842 H1834 0.930 . S
C1842 C1841 1.362 . S
C1842 C1845 1.409 . S
C1843 H1835 0.930 . S
C1843 C1844 1.355 . S
C1843 C1845 1.415 . S
C1844 C1843 1.355 . S
C1844 C1846 1.419 . S
C1845 C1840 1.425 . S
C1845 C1842 1.409 . S
C1845 C1843 1.415 . S
C1846 H1836 0.930 . S
C1846 C1844 1.419 . S
C1846 C1847 1.362 . S
C1847 H1837 0.930 . S
C1847 C1840 1.409 . S
C1847 C1846 1.362 . S
H1848 C1854 0.930 . S
H1849 C1857 0.930 . S
H1850 C1858 0.930 . S
H1851 C1859 0.930 . S
H1852 C1862 0.930 . S
H1853 C1863 0.930 . S
C1854 H1848 0.930 . S
C1854 C1855 1.355 . S
C1854 C1856 1.415 . S
C1855 C1854 1.355 . S
C1855 C1857 1.419 . S
C1856 C1854 1.415 . S
C1856 C1861 1.425 . S
C1856 C1863 1.409 . S
C1857 H1849 0.930 . S
C1857 C1855 1.419 . S
C1857 C1858 1.362 . S
C1858 H1850 0.930 . S
C1858 C1857 1.362 . S
C1858 C1861 1.409 . S
C1859 H1851 0.930 . S
C1859 C1860 1.355 . S
C1859 C1861 1.415 . S
C1860 C1859 1.355 . S
C1860 C1862 1.419 . S
C1861 C1856 1.425 . S
C1861 C1858 1.409 . S
C1861 C1859 1.415 . S
C1862 H1852 0.930 . S
C1862 C1860 1.419 . S
C1862 C1863 1.362 . S
C1863 H1853 0.930 . S
C1863 C1856 1.409 . S
C1863 C1862 1.362 . S
H1864 C1870 0.930 . S
H1865 C1873 0.930 . S
H1866 C1874 0.930 . S
H1867 C1875 0.930 . S
H1868 C1878 0.930 . S
H1869 C1879 0.930 . S
C1870 H1864 0.930 . S
C1870 C1871 1.355 . S
C1870 C1872 1.415 . S
C1871 C1870 1.355 . S
C1871 C1873 1.419 1_455 S
C1872 C1870 1.415 . S
C1872 C1877 1.425 1_455 S
C1872 C1879 1.409 . S
C1873 H1865 0.930 . S
C1873 C1871 1.419 1_655 S
C1873 C1874 1.362 . S
C1874 H1866 0.930 . S
C1874 C1873 1.362 . S
C1874 C1877 1.409 . S
C1875 H1867 0.930 . S
C1875 C1876 1.355 . S
C1875 C1877 1.415 . S
C1876 C1875 1.355 . S
C1876 C1878 1.419 1_655 S
C1877 C1872 1.425 1_655 S
C1877 C1874 1.409 . S
C1877 C1875 1.415 . S
C1878 H1868 0.930 . S
C1878 C1876 1.419 1_455 S
C1878 C1879 1.362 . S
C1879 H1869 0.930 . S
C1879 C1872 1.409 . S
C1879 C1878 1.362 . S
H1880 C1886 0.930 . S
H1881 C1889 0.930 . S
H1882 C1890 0.930 . S
H1883 C1891 0.930 . S
H1884 C1894 0.930 . S
H1885 C1895 0.930 . S
C1886 H1880 0.930 . S
C1886 C1887 1.355 . S
C1886 C1888 1.415 . S
C1887 C1886 1.355 . S
C1887 C1889 1.419 . S
C1888 C1886 1.415 . S
C1888 C1893 1.425 . S
C1888 C1895 1.409 . S
C1889 H1881 0.930 . S
C1889 C1887 1.419 . S
C1889 C1890 1.362 . S
C1890 H1882 0.930 . S
C1890 C1889 1.362 . S
C1890 C1893 1.409 . S
C1891 H1883 0.930 . S
C1891 C1892 1.355 . S
C1891 C1893 1.415 . S
C1892 C1891 1.355 . S
C1892 C1894 1.419 . S
C1893 C1888 1.425 . S
C1893 C1890 1.409 . S
C1893 C1891 1.415 . S
C1894 H1884 0.930 . S
C1894 C1892 1.419 . S
C1894 C1895 1.362 . S
C1895 H1885 0.930 . S
C1895 C1888 1.409 . S
C1895 C1894 1.362 . S
H1896 C1902 0.930 . S
H1897 C1905 0.930 . S
H1898 C1906 0.930 . S
H1899 C1907 0.930 . S
H1900 C1910 0.930 . S
H1901 C1911 0.930 . S
C1902 H1896 0.930 . S
C1902 C1903 1.355 . S
C1902 C1904 1.415 . S
C1903 C1902 1.355 . S
C1903 C1905 1.419 . S
C1904 C1902 1.415 . S
C1904 C1909 1.425 . S
C1904 C1911 1.409 . S
C1905 H1897 0.930 . S
C1905 C1903 1.419 . S
C1905 C1906 1.362 . S
C1906 H1898 0.930 . S
C1906 C1905 1.362 . S
C1906 C1909 1.409 . S
C1907 H1899 0.930 . S
C1907 C1908 1.355 . S
C1907 C1909 1.415 . S
C1908 C1907 1.355 . S
C1908 C1910 1.419 . S
C1909 C1904 1.425 . S
C1909 C1906 1.409 . S
C1909 C1907 1.415 . S
C1910 H1900 0.930 . S
C1910 C1908 1.419 . S
C1910 C1911 1.362 . S
C1911 H1901 0.930 . S
C1911 C1904 1.409 . S
C1911 C1910 1.362 . S
H1912 C1918 0.930 . S
H1913 C1921 0.930 . S
H1914 C1922 0.930 . S
H1915 C1923 0.930 . S
H1916 C1926 0.930 . S
H1917 C1927 0.930 . S
C1918 H1912 0.930 . S
C1918 C1919 1.355 . S
C1918 C1920 1.415 . S
C1919 C1918 1.355 . S
C1919 C1921 1.419 . S
C1920 C1918 1.415 . S
C1920 C1925 1.425 . S
C1920 C1927 1.409 . S
C1921 H1913 0.930 . S
C1921 C1919 1.419 . S
C1921 C1922 1.362 . S
C1922 H1914 0.930 . S
C1922 C1921 1.362 . S
C1922 C1925 1.409 . S
C1923 H1915 0.930 . S
C1923 C1924 1.355 . S
C1923 C1925 1.415 . S
C1924 C1923 1.355 . S
C1924 C1926 1.419 . S
C1925 C1920 1.425 . S
C1925 C1922 1.409 . S
C1925 C1923 1.415 . S
C1926 H1916 0.930 . S
C1926 C1924 1.419 . S
C1926 C1927 1.362 . S
C1927 H1917 0.930 . S
C1927 C1920 1.409 . S
C1927 C1926 1.362 . S
H1928 C1934 0.930 . S
H1929 C1937 0.930 . S
H1930 C1938 0.930 . S
H1931 C1939 0.930 . S
H1932 C1942 0.930 . S
H1933 C1943 0.930 . S
C1934 H1928 0.930 . S
C1934 C1935 1.355 . S
C1934 C1936 1.415 . S
C1935 C1934 1.355 . S
C1935 C1937 1.419 . S
C1936 C1934 1.415 . S
C1936 C1941 1.425 . S
C1936 C1943 1.409 1_455 S
C1937 H1929 0.930 . S
C1937 C1935 1.419 . S
C1937 C1938 1.362 . S
C1938 H1930 0.930 . S
C1938 C1937 1.362 . S
C1938 C1941 1.409 . S
C1939 H1931 0.930 . S
C1939 C1940 1.355 1_455 S
C1939 C1941 1.415 . S
C1940 C1939 1.355 1_655 S
C1940 C1942 1.419 . S
C1941 C1936 1.425 . S
C1941 C1938 1.409 . S
C1941 C1939 1.415 . S
C1942 H1932 0.930 . S
C1942 C1940 1.419 . S
C1942 C1943 1.362 . S
C1943 H1933 0.930 . S
C1943 C1936 1.409 1_655 S
C1943 C1942 1.362 . S
H1944 C1950 0.930 . S
H1945 C1953 0.930 . S
H1946 C1954 0.930 . S
H1947 C1955 0.930 . S
H1948 C1958 0.930 . S
H1949 C1959 0.930 . S
C1950 H1944 0.930 . S
C1950 C1951 1.355 . S
C1950 C1952 1.415 . S
C1951 C1950 1.355 . S
C1951 C1953 1.419 . S
C1952 C1950 1.415 . S
C1952 C1957 1.425 . S
C1952 C1959 1.409 . S
C1953 H1945 0.930 . S
C1953 C1951 1.419 . S
C1953 C1954 1.362 . S
C1954 H1946 0.930 . S
C1954 C1953 1.362 . S
C1954 C1957 1.409 . S
C1955 H1947 0.930 . S
C1955 C1956 1.355 . S
C1955 C1957 1.415 . S
C1956 C1955 1.355 . S
C1956 C1958 1.419 . S
C1957 C1952 1.425 . S
C1957 C1954 1.409 . S
C1957 C1955 1.415 . S
C1958 H1948 0.930 . S
C1958 C1956 1.419 . S
C1958 C1959 1.362 . S
C1959 H1949 0.930 . S
C1959 C1952 1.409 . S
C1959 C1958 1.362 . S
H1960 C1966 0.930 . S
H1961 C1969 0.930 . S
H1962 C1970 0.930 . S
H1963 C1971 0.930 . S
H1964 C1974 0.930 . S
H1965 C1975 0.930 . S
C1966 H1960 0.930 . S
C1966 C1967 1.355 . S
C1966 C1968 1.415 . S
C1967 C1966 1.355 . S
C1967 C1969 1.419 . S
C1968 C1966 1.415 . S
C1968 C1973 1.425 . S
C1968 C1975 1.409 . S
C1969 H1961 0.930 . S
C1969 C1967 1.419 . S
C1969 C1970 1.362 . S
C1970 H1962 0.930 . S
C1970 C1969 1.362 . S
C1970 C1973 1.409 . S
C1971 H1963 0.930 . S
C1971 C1972 1.355 . S
C1971 C1973 1.415 . S
C1972 C1971 1.355 . S
C1972 C1974 1.419 . S
C1973 C1968 1.425 . S
C1973 C1970 1.409 . S
C1973 C1971 1.415 . S
C1974 H1964 0.930 . S
C1974 C1972 1.419 . S
C1974 C1975 1.362 . S
C1975 H1965 0.930 . S
C1975 C1968 1.409 . S
C1975 C1974 1.362 . S
H1976 C1982 0.930 . S
H1977 C1985 0.930 . S
H1978 C1986 0.930 . S
H1979 C1987 0.930 . S
H1980 C1990 0.930 . S
H1981 C1991 0.930 . S
C1982 H1976 0.930 . S
C1982 C1983 1.355 . S
C1982 C1984 1.415 . S
C1983 C1982 1.355 . S
C1983 C1985 1.419 . S
C1984 C1982 1.415 . S
C1984 C1989 1.425 . S
C1984 C1991 1.409 . S
C1985 H1977 0.930 . S
C1985 C1983 1.419 . S
C1985 C1986 1.362 . S
C1986 H1978 0.930 . S
C1986 C1985 1.362 . S
C1986 C1989 1.409 . S
C1987 H1979 0.930 . S
C1987 C1988 1.355 . S
C1987 C1989 1.415 . S
C1988 C1987 1.355 . S
C1988 C1990 1.419 . S
C1989 C1984 1.425 . S
C1989 C1986 1.409 . S
C1989 C1987 1.415 . S
C1990 H1980 0.930 . S
C1990 C1988 1.419 . S
C1990 C1991 1.362 . S
C1991 H1981 0.930 . S
C1991 C1984 1.409 . S
C1991 C1990 1.362 . S
H1992 C1998 0.930 . S
H1993 C2001 0.930 . S
H1994 C2002 0.930 . S
H1995 C2003 0.930 . S
H1996 C2006 0.930 . S
H1997 C2007 0.930 . S
C1998 H1992 0.930 . S
C1998 C1999 1.355 . S
C1998 C2000 1.415 . S
C1999 C1998 1.355 . S
C1999 C2001 1.419 . S
C2000 C1998 1.415 . S
C2000 C2005 1.425 . S
C2000 C2007 1.409 . S
C2001 H1993 0.930 . S
C2001 C1999 1.419 . S
C2001 C2002 1.362 . S
C2002 H1994 0.930 . S
C2002 C2001 1.362 . S
C2002 C2005 1.409 . S
C2003 H1995 0.930 . S
C2003 C2004 1.355 . S
C2003 C2005 1.415 . S
C2004 C2003 1.355 . S
C2004 C2006 1.419 . S
C2005 C2000 1.425 . S
C2005 C2002 1.409 . S
C2005 C2003 1.415 . S
C2006 H1996 0.930 . S
C2006 C2004 1.419 . S
C2006 C2007 1.362 . S
C2007 H1997 0.930 . S
C2007 C2000 1.409 . S
C2007 C2006 1.362 . S
H2008 C2014 0.930 . S
H2009 C2017 0.930 . S
H2010 C2018 0.930 . S
H2011 C2019 0.930 . S
H2012 C2022 0.930 . S
H2013 C2023 0.930 . S
C2014 H2008 0.930 . S
C2014 C2015 1.355 . S
C2014 C2016 1.415 . S
C2015 C2014 1.355 . S
C2015 C2017 1.419 . S
C2016 C2014 1.415 . S
C2016 C2021 1.425 . S
C2016 C2023 1.409 . S
C2017 H2009 0.930 . S
C2017 C2015 1.419 . S
C2017 C2018 1.362 . S
C2018 H2010 0.930 . S
C2018 C2017 1.362 . S
C2018 C2021 1.409 . S
C2019 H2011 0.930 . S
C2019 C2020 1.355 . S
C2019 C2021 1.415 . S
C2020 C2019 1.355 . S
C2020 C2022 1.419 . S
C2021 C2016 1.425 . S
C2021 C2018 1.409 . S
C2021 C2019 1.415 . S
C2022 H2012 0.930 . S
C2022 C2020 1.419 . S
C2022 C2023 1.362 . S
C2023 H2013 0.930 . S
C2023 C2016 1.409 . S
C2023 C2022 1.362 . S
H2024 C2030 0.930 . S
H2025 C2033 0.930 . S
H2026 C2034 0.930 . S
H2027 C2035 0.930 . S
H2028 C2038 0.930 . S
H2029 C2039 0.930 . S
C2030 H2024 0.930 . S
C2030 C2031 1.355 . S
C2030 C2032 1.415 . S
C2031 C2030 1.355 . S
C2031 C2033 1.419 . S
C2032 C2030 1.415 . S
C2032 C2037 1.425 . S
C2032 C2039 1.409 . S
C2033 H2025 0.930 . S
C2033 C2031 1.419 . S
C2033 C2034 1.362 . S
C2034 H2026 0.930 . S
C2034 C2033 1.362 . S
C2034 C2037 1.409 . S
C2035 H2027 0.930 . S
C2035 C2036 1.355 . S
C2035 C2037 1.415 . S
C2036 C2035 1.355 . S
C2036 C2038 1.419 . S
C2037 C2032 1.425 . S
C2037 C2034 1.409 . S
C2037 C2035 1.415 . S
C2038 H2028 0.930 . S
C2038 C2036 1.419 . S
C2038 C2039 1.362 . S
C2039 H2029 0.930 . S
C2039 C2032 1.409 . S
C2039 C2038 1.362 . S
H2040 C2046 0.930 . S
H2041 C2049 0.930 . S
H2042 C2050 0.930 . S
H2043 C2051 0.930 . S
H2044 C2054 0.930 . S
H2045 C2055 0.930 . S
C2046 H2040 0.930 . S
C2046 C2047 1.355 . S
C2046 C2048 1.415 . S
C2047 C2046 1.355 . S
C2047 C2049 1.419 . S
C2048 C2046 1.415 . S
C2048 C2053 1.425 . S
C2048 C2055 1.409 . S
C2049 H2041 0.930 . S
C2049 C2047 1.419 . S
C2049 C2050 1.362 . S
C2050 H2042 0.930 . S
C2050 C2049 1.362 . S
C2050 C2053 1.409 . S
C2051 H2043 0.930 . S
C2051 C2052 1.355 . S
C2051 C2053 1.415 . S
C2052 C2051 1.355 . S
C2052 C2054 1.419 . S
C2053 C2048 1.425 . S
C2053 C2050 1.409 . S
C2053 C2051 1.415 . S
C2054 H2044 0.930 . S
C2054 C2052 1.419 . S
C2054 C2055 1.362 . S
C2055 H2045 0.930 . S
C2055 C2048 1.409 . S
C2055 C2054 1.362 . S
H2056 C2062 0.930 . S
H2057 C2065 0.930 . S
H2058 C2066 0.930 . S
H2059 C2067 0.930 . S
H2060 C2070 0.930 . S
H2061 C2071 0.930 . S
C2062 H2056 0.930 . S
C2062 C2063 1.355 . S
C2062 C2064 1.415 . S
C2063 C2062 1.355 . S
C2063 C2065 1.419 . S
C2064 C2062 1.415 . S
C2064 C2069 1.425 . S
C2064 C2071 1.409 . S
C2065 H2057 0.930 . S
C2065 C2063 1.419 . S
C2065 C2066 1.362 . S
C2066 H2058 0.930 . S
C2066 C2065 1.362 . S
C2066 C2069 1.409 . S
C2067 H2059 0.930 . S
C2067 C2068 1.355 . S
C2067 C2069 1.415 . S
C2068 C2067 1.355 . S
C2068 C2070 1.419 . S
C2069 C2064 1.425 . S
C2069 C2066 1.409 . S
C2069 C2067 1.415 . S
C2070 H2060 0.930 . S
C2070 C2068 1.419 . S
C2070 C2071 1.362 . S
C2071 H2061 0.930 . S
C2071 C2064 1.409 . S
C2071 C2070 1.362 . S
H2072 C2078 0.930 . S
H2073 C2081 0.930 . S
H2074 C2082 0.930 . S
H2075 C2083 0.930 . S
H2076 C2086 0.930 . S
H2077 C2087 0.930 . S
C2078 H2072 0.930 . S
C2078 C2079 1.355 . S
C2078 C2080 1.415 . S
C2079 C2078 1.355 . S
C2079 C2081 1.419 . S
C2080 C2078 1.415 . S
C2080 C2085 1.425 . S
C2080 C2087 1.409 . S
C2081 H2073 0.930 . S
C2081 C2079 1.419 . S
C2081 C2082 1.362 . S
C2082 H2074 0.930 . S
C2082 C2081 1.362 . S
C2082 C2085 1.409 . S
C2083 H2075 0.930 . S
C2083 C2084 1.355 . S
C2083 C2085 1.415 . S
C2084 C2083 1.355 . S
C2084 C2086 1.419 . S
C2085 C2080 1.425 . S
C2085 C2082 1.409 . S
C2085 C2083 1.415 . S
C2086 H2076 0.930 . S
C2086 C2084 1.419 . S
C2086 C2087 1.362 . S
C2087 H2077 0.930 . S
C2087 C2080 1.409 . S
C2087 C2086 1.362 . S
H2088 C2094 0.930 . S
H2089 C2097 0.930 . S
H2090 C2098 0.930 . S
H2091 C2099 0.930 . S
H2092 C2102 0.930 . S
H2093 C2103 0.930 . S
C2094 H2088 0.930 . S
C2094 C2095 1.355 . S
C2094 C2096 1.415 . S
C2095 C2094 1.355 . S
C2095 C2097 1.419 . S
C2096 C2094 1.415 . S
C2096 C2101 1.425 . S
C2096 C2103 1.409 . S
C2097 H2089 0.930 . S
C2097 C2095 1.419 . S
C2097 C2098 1.362 . S
C2098 H2090 0.930 . S
C2098 C2097 1.362 . S
C2098 C2101 1.409 . S
C2099 H2091 0.930 . S
C2099 C2100 1.355 . S
C2099 C2101 1.415 . S
C2100 C2099 1.355 . S
C2100 C2102 1.419 . S
C2101 C2096 1.425 . S
C2101 C2098 1.409 . S
C2101 C2099 1.415 . S
C2102 H2092 0.930 . S
C2102 C2100 1.419 . S
C2102 C2103 1.362 . S
C2103 H2093 0.930 . S
C2103 C2096 1.409 . S
C2103 C2102 1.362 . S
H2104 C2110 0.930 . S
H2105 C2113 0.930 . S
H2106 C2114 0.930 . S
H2107 C2115 0.930 . S
H2108 C2118 0.930 . S
H2109 C2119 0.930 . S
C2110 H2104 0.930 . S
C2110 C2111 1.355 . S
C2110 C2112 1.415 . S
C2111 C2110 1.355 . S
C2111 C2113 1.419 . S
C2112 C2110 1.415 . S
C2112 C2117 1.425 . S
C2112 C2119 1.409 . S
C2113 H2105 0.930 . S
C2113 C2111 1.419 . S
C2113 C2114 1.362 . S
C2114 H2106 0.930 . S
C2114 C2113 1.362 . S
C2114 C2117 1.409 . S
C2115 H2107 0.930 . S
C2115 C2116 1.355 . S
C2115 C2117 1.415 . S
C2116 C2115 1.355 . S
C2116 C2118 1.419 . S
C2117 C2112 1.425 . S
C2117 C2114 1.409 . S
C2117 C2115 1.415 . S
C2118 H2108 0.930 . S
C2118 C2116 1.419 . S
C2118 C2119 1.362 . S
C2119 H2109 0.930 . S
C2119 C2112 1.409 . S
C2119 C2118 1.362 . S
H2120 C2126 0.930 . S
H2121 C2129 0.930 . S
H2122 C2130 0.930 . S
H2123 C2131 0.930 . S
H2124 C2134 0.930 . S
H2125 C2135 0.930 . S
C2126 H2120 0.930 . S
C2126 C2127 1.355 . S
C2126 C2128 1.415 . S
C2127 C2126 1.355 . S
C2127 C2129 1.419 . S
C2128 C2126 1.415 . S
C2128 C2133 1.425 . S
C2128 C2135 1.409 . S
C2129 H2121 0.930 . S
C2129 C2127 1.419 . S
C2129 C2130 1.362 . S
C2130 H2122 0.930 . S
C2130 C2129 1.362 . S
C2130 C2133 1.409 . S
C2131 H2123 0.930 . S
C2131 C2132 1.355 . S
C2131 C2133 1.415 . S
C2132 C2131 1.355 . S
C2132 C2134 1.419 . S
C2133 C2128 1.425 . S
C2133 C2130 1.409 . S
C2133 C2131 1.415 . S
C2134 H2124 0.930 . S
C2134 C2132 1.419 . S
C2134 C2135 1.362 . S
C2135 H2125 0.930 . S
C2135 C2128 1.409 . S
C2135 C2134 1.362 . S
H2136 C2142 0.930 . S
H2137 C2145 0.930 . S
H2138 C2146 0.930 . S
H2139 C2147 0.930 . S
H2140 C2150 0.930 1_545 S
H2141 C2151 0.930 . S
C2142 H2136 0.930 . S
C2142 C2143 1.355 . S
C2142 C2144 1.415 . S
C2143 C2142 1.355 . S
C2143 C2145 1.419 1_554 S
C2144 C2142 1.415 . S
C2144 C2149 1.425 1_554 S
C2144 C2151 1.409 . S
C2145 H2137 0.930 . S
C2145 C2143 1.419 1_556 S
C2145 C2146 1.362 . S
C2146 H2138 0.930 . S
C2146 C2145 1.362 . S
C2146 C2149 1.409 . S
C2147 H2139 0.930 . S
C2147 C2148 1.355 . S
C2147 C2149 1.415 . S
C2148 C2147 1.355 . S
C2148 C2150 1.419 1_556 S
C2149 C2144 1.425 1_556 S
C2149 C2146 1.409 . S
C2149 C2147 1.415 . S
C2150 H2140 0.930 1_565 S
C2150 C2148 1.419 1_554 S
C2150 C2151 1.362 . S
C2151 H2141 0.930 . S
C2151 C2144 1.409 . S
C2151 C2150 1.362 . S
H2152 C2158 0.930 . S
H2153 C2161 0.930 . S
H2154 C2162 0.930 . S
H2155 C2163 0.930 . S
H2156 C2166 0.930 . S
H2157 C2167 0.930 . S
C2158 H2152 0.930 . S
C2158 C2159 1.355 . S
C2158 C2160 1.415 . S
C2159 C2158 1.355 . S
C2159 C2161 1.419 . S
C2160 C2158 1.415 . S
C2160 C2165 1.425 . S
C2160 C2167 1.409 . S
C2161 H2153 0.930 . S
C2161 C2159 1.419 . S
C2161 C2162 1.362 . S
C2162 H2154 0.930 . S
C2162 C2161 1.362 . S
C2162 C2165 1.409 . S
C2163 H2155 0.930 . S
C2163 C2164 1.355 . S
C2163 C2165 1.415 . S
C2164 C2163 1.355 . S
C2164 C2166 1.419 . S
C2165 C2160 1.425 . S
C2165 C2162 1.409 . S
C2165 C2163 1.415 . S
C2166 H2156 0.930 . S
C2166 C2164 1.419 . S
C2166 C2167 1.362 . S
C2167 H2157 0.930 . S
C2167 C2160 1.409 . S
C2167 C2166 1.362 . S
H2168 C2174 0.930 . S
H2169 C2177 0.930 . S
H2170 C2178 0.930 . S
H2171 C2179 0.930 1_556 S
H2172 C2182 0.930 . S
H2173 C2183 0.930 . S
C2174 H2168 0.930 . S
C2174 C2175 1.343 1_554 S
C2174 C2176 1.415 . S
C2175 C2174 1.343 1_556 S
C2175 C2177 1.430 . S
C2176 C2174 1.415 . S
C2176 C2181 1.425 . S
C2176 C2183 1.409 . S
C2177 H2169 0.930 . S
C2177 C2175 1.430 . S
C2177 C2178 1.362 . S
C2178 H2170 0.930 . S
C2178 C2177 1.362 . S
C2178 C2181 1.409 1_556 S
C2179 H2171 0.930 1_554 S
C2179 C2180 1.355 . S
C2179 C2181 1.415 . S
C2180 C2179 1.355 . S
C2180 C2182 1.419 . S
C2181 C2176 1.425 . S
C2181 C2178 1.409 1_554 S
C2181 C2179 1.415 . S
C2182 H2172 0.930 . S
C2182 C2180 1.419 . S
C2182 C2183 1.362 . S
C2183 H2173 0.930 . S
C2183 C2176 1.409 . S
C2183 C2182 1.362 . S
H2184 C2190 0.930 . S
H2185 C2193 0.930 . S
H2186 C2194 0.930 . S
H2187 C2195 0.930 . S
H2188 C2198 0.930 . S
H2189 C2199 0.930 . S
C2190 H2184 0.930 . S
C2190 C2191 1.355 . S
C2190 C2192 1.415 . S
C2191 C2190 1.355 . S
C2191 C2193 1.419 . S
C2192 C2190 1.415 . S
C2192 C2197 1.425 . S
C2192 C2199 1.409 . S
C2193 H2185 0.930 . S
C2193 C2191 1.419 . S
C2193 C2194 1.362 . S
C2194 H2186 0.930 . S
C2194 C2193 1.362 . S
C2194 C2197 1.409 . S
C2195 H2187 0.930 . S
C2195 C2196 1.355 . S
C2195 C2197 1.415 . S
C2196 C2195 1.355 . S
C2196 C2198 1.419 . S
C2197 C2192 1.425 . S
C2197 C2194 1.409 . S
C2197 C2195 1.415 . S
C2198 H2188 0.930 . S
C2198 C2196 1.419 . S
C2198 C2199 1.362 . S
C2199 H2189 0.930 . S
C2199 C2192 1.409 . S
C2199 C2198 1.362 . S
H2200 C2206 0.930 . S
H2201 C2209 0.930 . S
H2202 C2210 0.930 . S
H2203 C2211 0.930 . S
H2204 C2214 0.930 . S
H2205 C2215 0.930 . S
C2206 H2200 0.930 . S
C2206 C2207 1.355 . S
C2206 C2208 1.415 . S
C2207 C2206 1.355 . S
C2207 C2209 1.419 . S
C2208 C2206 1.415 . S
C2208 C2213 1.425 . S
C2208 C2215 1.409 . S
C2209 H2201 0.930 . S
C2209 C2207 1.419 . S
C2209 C2210 1.362 . S
C2210 H2202 0.930 . S
C2210 C2209 1.362 . S
C2210 C2213 1.409 . S
C2211 H2203 0.930 . S
C2211 C2212 1.355 . S
C2211 C2213 1.415 . S
C2212 C2211 1.355 . S
C2212 C2214 1.419 . S
C2213 C2208 1.425 . S
C2213 C2210 1.409 . S
C2213 C2211 1.415 . S
C2214 H2204 0.930 . S
C2214 C2212 1.419 . S
C2214 C2215 1.362 . S
C2215 H2205 0.930 . S
C2215 C2208 1.409 . S
C2215 C2214 1.362 . S
C692 C328 1.319 . S
C687 C10 1.335 . S
C703 C23 1.635 . S
C708 C356 1.526 . S
C719 C36 1.348 . S
C724 C374 1.309 . S
C740 C400 1.444 . S
C735 C42 1.637 . S
C751 C18 1.653 . S
C756 C423 1.516 . S
C772 C443 1.318 . S
C767 C31 1.357 . S
C788 C471 1.452 1_556 S
C783 C43 1.610 . S
C799 C5 1.356 . S
C804 C489 1.321 . S
C815 C56 1.555 . S
C820 C330 1.559 1_545 S
C831 C70 1.343 . S
C836 C352 1.319 . S
C852 C376 1.576 . S
C847 C82 1.581 . S
C868 C397 1.343 . S
C863 C96 1.374 . S
C879 C57 1.378 . S
C884 C420 1.359 . S
C900 C445 1.584 . S
C895 C69 1.573 . S
C916 C467 1.337 . S
C911 C83 1.343 . S
C932 C491 1.579 . S
C927 C95 1.561 . S
C948 C331 1.217 1_556 S
C943 C94 1.321 . S
C964 C514 1.370 . S
C959 C108 1.363 . S
C975 C122 1.342 . S
C980 C538 1.225 . S
C996 C562 1.345 . S
C991 C140 1.366 . S
C1007 C55 1.322 . S
C1012 C492 1.236 . S
C1028 C377 1.220 1_565 S
C1023 C68 1.342 . S
C1039 C121 1.368 . S
C1044 C583 1.367 . S
C1060 C608 1.297 . S
C1055 C153 1.351 . S
C1071 C161 1.113 . S
C1076 C329 1.083 . S
C1092 C606 1.036 . S
C1087 C174 1.045 . S
C1103 C186 1.097 . S
C1108 C375 1.065 . S
C1119 C200 0.986 . S
C1124 C585 0.924 . S
C1140 C424 1.031 . S
C1135 C172 1.035 . S
C1156 C536 1.073 . S
C1151 C192 1.110 . S
C1172 C468 1.061 . S
C1167 C198 1.032 . S
C1188 C628 1.150 . S
C1183 C159 1.152 . S
C1204 C333 1.029 . S
C1199 C211 1.051 . S
C1215 C225 1.316 . S
C1220 C604 1.299 . S
C1236 C379 0.946 . S
C1231 C239 1.029 . S
C1247 C251 1.275 . S
C1252 C582 1.232 . S
C1263 C218 1.302 . S
C1268 C421 1.283 . S
C1279 C226 1.049 . S
C1284 C540 1.008 . S
C1300 C466 1.241 . S
C1295 C238 1.286 . S
C1311 C252 0.986 . S
C1316 C632 0.892 . S
C1327 C250 1.282 . S
C1332 C332 1.212 . S
C1343 C264 1.227 . S
C1348 C517 1.098 . S
C1359 C276 1.288 . S
C1364 C447 1.220 . S
C1375 C290 1.233 . S
C1380 C561 1.127 . S
C1396 C631 1.219 . S
C1391 C213 1.275 . S
C1412 C378 1.310 . S
C1407 C224 1.324 . S
C1428 C402 1.175 . S
C1423 C283 1.262 . S
C1444 C354 1.126 . S
C1439 C303 1.253 . S
C1455 C29 1.343 . S
C1460 C650 1.284 . S
C1476 C609 1.500 . S
C1471 C49 1.630 . S
C1492 C673 1.283 . S
C1487 C3 1.341 . S
C1503 C16 1.667 . S
C1508 C584 1.529 . S
C1519 C44 1.651 . S
C1524 C515 1.443 1_556 S
C1540 C535 1.302 . S
C1535 C4 1.330 . S
C1556 C563 1.463 . S
C1551 C17 1.618 . S
C1572 C627 1.338 . S
C1567 C30 1.354 . S
C1588 C652 1.573 . S
C1583 C147 1.580 . S
C1599 C107 1.343 . S
C1604 C605 1.313 . S
C1615 C127 1.581 . S
C1620 C675 1.585 . S
C1636 C581 1.356 . S
C1631 C135 1.354 . S
C1652 C512 1.314 . S
C1647 C148 1.338 . S
C1663 C114 1.581 . S
C1668 C537 1.580 . S
C1684 C559 1.264 . S
C1679 C120 1.308 . S
C1695 C134 1.577 . S
C1700 C629 1.570 . S
C1716 C653 1.122 . S
C1711 C133 1.283 . S
C1732 C422 1.394 . S
C1727 C75 1.385 . S
C1748 C446 1.126 . S
C1743 C81 1.311 . S
C1759 C101 1.365 . S
C1764 C470 1.341 . S
C1780 C630 1.193 . S
C1775 C146 1.317 . S
C1791 C109 1.322 . S
C1796 C676 1.130 1_556 S
C1812 C399 1.367 . S
C1807 C88 1.365 . S
C1828 C355 1.338 . S
C1823 C62 1.368 . S
C1839 C187 1.147 . S
C1844 C651 1.136 . S
C1860 C353 1.027 . S
C1855 C199 1.047 . S
C1876 C674 1.065 . S
C1871 C160 1.097 . S
C1887 C173 0.984 . S
C1892 C401 0.991 . S
C1903 C205 0.991 . S
C1908 C516 1.005 . S
C1919 C166 1.132 . S
C1924 C444 1.107 . S
C1935 C179 1.052 . S
C1940 C560 1.028 . S
C1951 C185 1.098 . S
C1956 C490 1.068 . S
C1972 C655 0.947 . S
C1967 C302 1.029 . S
C1983 C270 1.299 . S
C1988 C351 1.258 . S
C2004 C678 0.930 . S
C1999 C278 1.023 . S
C2015 C296 1.304 . S
C2020 C398 1.281 . S
C2031 C309 1.320 . S
C2036 C513 1.302 . S
C2052 C448 1.034 . S
C2047 C263 1.056 . S
C2063 C277 1.308 . S
C2068 C558 1.283 . S
C2084 C494 1.020 . S
C2079 C289 1.034 . S
C2100 C654 1.262 . S
C2095 C291 1.285 . S
C2116 C425 1.170 . S
C2111 C231 1.225 . S
C2127 C237 1.290 . S
C2132 C539 1.255 . S
C2148 C469 1.129 . S
C2143 C257 1.252 . S
C2164 C493 1.219 . S
C2159 C304 1.274 . S
C2175 C265 1.327 . S
C2180 C677 1.312 . S
C2196 C586 1.137 . S
C2191 C244 1.217 . S
C2212 C607 1.052 . S
C2207 C212 1.223 . S
