# Generated by pormake.
# Topology ocu, (6,8)-cn, num edge types: 1
# Building blocks:
#     Node 0, Type 0, BuildingBlock: KUMJIN_clean_sbu_1, # of connection points: 6
#     Node 1, Type 0, BuildingBlock: KUMJIN_clean_sbu_1, # of connection points: 6
#     Node 2, Type 0, BuildingBlock: KUMJIN_clean_sbu_1, # of connection points: 6
#     Node 3, Type 0, BuildingBlock: KUMJIN_clean_sbu_1, # of connection points: 6
#     Node 4, Type 0, BuildingBlock: KUMJIN_clean_sbu_1, # of connection points: 6
#     Node 5, Type 0, BuildingBlock: KUMJIN_clean_sbu_1, # of connection points: 6
#     Node 6, Type 0, BuildingBlock: KUMJIN_clean_sbu_1, # of connection points: 6
#     Node 7, Type 0, BuildingBlock: KUMJIN_clean_sbu_1, # of connection points: 6
#     Node 8, Type 1, BuildingBlock: VETTIZ_charged_sbu_0, # of connection points: 8
#     Node 9, Type 1, BuildingBlock: VETTIZ_charged_sbu_0, # of connection points: 8
#     Node 10, Type 1, BuildingBlock: VETTIZ_charged_sbu_0, # of connection points: 8
#     Node 11, Type 1, BuildingBlock: VETTIZ_charged_sbu_0, # of connection points: 8
#     Node 12, Type 1, BuildingBlock: VETTIZ_charged_sbu_0, # of connection points: 8
#     Node 13, Type 1, BuildingBlock: VETTIZ_charged_sbu_0, # of connection points: 8
#     Edge 14, Type (0, 1), BuildingBlock: MIFKUJ_clean_linker_0, # of connection points: 2
#     Edge 15, Type (0, 1), BuildingBlock: MIFKUJ_clean_linker_0, # of connection points: 2
#     Edge 16, Type (0, 1), BuildingBlock: MIFKUJ_clean_linker_0, # of connection points: 2
#     Edge 17, Type (0, 1), BuildingBlock: MIFKUJ_clean_linker_0, # of connection points: 2
#     Edge 18, Type (0, 1), BuildingBlock: MIFKUJ_clean_linker_0, # of connection points: 2
#     Edge 19, Type (0, 1), BuildingBlock: MIFKUJ_clean_linker_0, # of connection points: 2
#     Edge 20, Type (0, 1), BuildingBlock: MIFKUJ_clean_linker_0, # of connection points: 2
#     Edge 21, Type (0, 1), BuildingBlock: MIFKUJ_clean_linker_0, # of connection points: 2
#     Edge 22, Type (0, 1), BuildingBlock: MIFKUJ_clean_linker_0, # of connection points: 2
#     Edge 23, Type (0, 1), BuildingBlock: MIFKUJ_clean_linker_0, # of connection points: 2
#     Edge 24, Type (0, 1), BuildingBlock: MIFKUJ_clean_linker_0, # of connection points: 2
#     Edge 25, Type (0, 1), BuildingBlock: MIFKUJ_clean_linker_0, # of connection points: 2
#     Edge 26, Type (0, 1), BuildingBlock: MIFKUJ_clean_linker_0, # of connection points: 2
#     Edge 27, Type (0, 1), BuildingBlock: MIFKUJ_clean_linker_0, # of connection points: 2
#     Edge 28, Type (0, 1), BuildingBlock: MIFKUJ_clean_linker_0, # of connection points: 2
#     Edge 29, Type (0, 1), BuildingBlock: MIFKUJ_clean_linker_0, # of connection points: 2
#     Edge 30, Type (0, 1), BuildingBlock: MIFKUJ_clean_linker_0, # of connection points: 2
#     Edge 31, Type (0, 1), BuildingBlock: MIFKUJ_clean_linker_0, # of connection points: 2
#     Edge 32, Type (0, 1), BuildingBlock: MIFKUJ_clean_linker_0, # of connection points: 2
#     Edge 33, Type (0, 1), BuildingBlock: MIFKUJ_clean_linker_0, # of connection points: 2
#     Edge 34, Type (0, 1), BuildingBlock: MIFKUJ_clean_linker_0, # of connection points: 2
#     Edge 35, Type (0, 1), BuildingBlock: MIFKUJ_clean_linker_0, # of connection points: 2
#     Edge 36, Type (0, 1), BuildingBlock: MIFKUJ_clean_linker_0, # of connection points: 2
#     Edge 37, Type (0, 1), BuildingBlock: MIFKUJ_clean_linker_0, # of connection points: 2
#     Edge 38, Type (0, 1), BuildingBlock: MIFKUJ_clean_linker_0, # of connection points: 2
#     Edge 39, Type (0, 1), BuildingBlock: MIFKUJ_clean_linker_0, # of connection points: 2
#     Edge 40, Type (0, 1), BuildingBlock: MIFKUJ_clean_linker_0, # of connection points: 2
#     Edge 41, Type (0, 1), BuildingBlock: MIFKUJ_clean_linker_0, # of connection points: 2
#     Edge 42, Type (0, 1), BuildingBlock: MIFKUJ_clean_linker_0, # of connection points: 2
#     Edge 43, Type (0, 1), BuildingBlock: MIFKUJ_clean_linker_0, # of connection points: 2
#     Edge 44, Type (0, 1), BuildingBlock: MIFKUJ_clean_linker_0, # of connection points: 2
#     Edge 45, Type (0, 1), BuildingBlock: MIFKUJ_clean_linker_0, # of connection points: 2
#     Edge 46, Type (0, 1), BuildingBlock: MIFKUJ_clean_linker_0, # of connection points: 2
#     Edge 47, Type (0, 1), BuildingBlock: MIFKUJ_clean_linker_0, # of connection points: 2
#     Edge 48, Type (0, 1), BuildingBlock: MIFKUJ_clean_linker_0, # of connection points: 2
#     Edge 49, Type (0, 1), BuildingBlock: MIFKUJ_clean_linker_0, # of connection points: 2
#     Edge 50, Type (0, 1), BuildingBlock: MIFKUJ_clean_linker_0, # of connection points: 2
#     Edge 51, Type (0, 1), BuildingBlock: MIFKUJ_clean_linker_0, # of connection points: 2
#     Edge 52, Type (0, 1), BuildingBlock: MIFKUJ_clean_linker_0, # of connection points: 2
#     Edge 53, Type (0, 1), BuildingBlock: MIFKUJ_clean_linker_0, # of connection points: 2
#     Edge 54, Type (0, 1), BuildingBlock: MIFKUJ_clean_linker_0, # of connection points: 2
#     Edge 55, Type (0, 1), BuildingBlock: MIFKUJ_clean_linker_0, # of connection points: 2
#     Edge 56, Type (0, 1), BuildingBlock: MIFKUJ_clean_linker_0, # of connection points: 2
#     Edge 57, Type (0, 1), BuildingBlock: MIFKUJ_clean_linker_0, # of connection points: 2
#     Edge 58, Type (0, 1), BuildingBlock: MIFKUJ_clean_linker_0, # of connection points: 2
#     Edge 59, Type (0, 1), BuildingBlock: MIFKUJ_clean_linker_0, # of connection points: 2
#     Edge 60, Type (0, 1), BuildingBlock: MIFKUJ_clean_linker_0, # of connection points: 2
#     Edge 61, Type (0, 1), BuildingBlock: MIFKUJ_clean_linker_0, # of connection points: 2
# Relax obj value: 0.057
# Max RMSD: 0.136
# Mean RMSD: 0.097
data_MOF--net-ocu--node1-KUMJIN_clean_sbu_1--node2-VETTIZ_charged_sbu_0--edge1-MIFKUJ_clean_linker_0
_symmetry_space_group_name_H-M    P1
_symmetry_Int_Tables_number       1
_symmetry_cell_setting            triclinic
loop_
_symmetry_equiv_pos_as_xyz
'x, y, z'
_cell_length_a     49.981444
_cell_length_b     50.482728
_cell_length_c     52.495433
_cell_angle_alpha  98.208976
_cell_angle_beta   82.465093
_cell_angle_gamma 102.00239
loop_
_atom_site_label
_atom_site_type_symbol
_atom_site_fract_x
_atom_site_fract_y
_atom_site_fract_z
_atom_type_partial_charge
Eu0 Eu 0.23777 0.25331 0.23273 0.0
C1 C 0.30852 0.3227 0.31964 0.0
N2 N 0.31529 0.31235 0.29477 0.0
C3 C 0.34984 0.3524 0.28875 0.0
C4 C 0.3223 0.34853 0.32995 0.0
C5 C 0.336 0.32655 0.27946 0.0
C6 C 0.34297 0.36347 0.31408 0.0
C7 C 0.28124 0.31718 0.36114 0.0
C8 C 0.28814 0.30717 0.33514 0.0
C9 C 0.29501 0.34285 0.37138 0.0
C10 C 0.31544 0.35848 0.35584 0.0
Eu11 Eu 0.29311 0.26696 0.283 0.0
N12 N 0.27516 0.28225 0.32486 0.0
C13 C 0.26095 0.30088 0.37622 0.0
C14 C 0.25595 0.26602 0.33962 0.0
C15 C 0.24828 0.27517 0.36541 0.0
H16 H 0.34283 0.31768 0.26043 0.0
H17 H 0.23296 0.26221 0.37705 0.0
H18 H 0.18552 0.20326 0.25166 0.0
H19 H 0.29917 0.26204 0.13979 0.0
H20 H 0.247 0.24584 0.33175 0.0
H21 H 0.25518 0.3078 0.39631 0.0
H22 H 0.2828 0.2773 0.18472 0.0
H23 H 0.36624 0.36353 0.27654 0.0
H24 H 0.29011 0.35077 0.39137 0.0
H25 H 0.32598 0.37819 0.3641 0.0
H26 H 0.16341 0.15716 0.23449 0.0
H27 H 0.35405 0.38335 0.32133 0.0
H28 H 0.27977 0.2158 0.11973 0.0
N29 N 0.21537 0.20861 0.21909 0.0
C30 C 0.22382 0.19851 0.19455 0.0
C31 C 0.18057 0.16843 0.22319 0.0
C32 C 0.21082 0.1727 0.18348 0.0
C33 C 0.19361 0.19436 0.23316 0.0
C34 C 0.18927 0.15749 0.19829 0.0
N35 N 0.25721 0.23931 0.19108 0.0
C36 C 0.27565 0.25666 0.17675 0.0
C37 C 0.25296 0.20506 0.15412 0.0
C38 C 0.2449 0.21444 0.18002 0.0
C39 C 0.2732 0.22218 0.13975 0.0
C40 C 0.28435 0.24823 0.15104 0.0
H41 H 0.1788 0.13757 0.19046 0.0
H42 H 0.20937 0.14338 0.14901 0.0
H43 H 0.24602 0.17176 0.1233 0.0
O44 O 0.22864 0.28638 0.21381 0.0
O45 O 0.27038 0.22526 0.22414 0.0
O46 O 0.30921 0.24649 0.24405 0.0
O47 O 0.19907 0.24871 0.21662 0.0
O48 O 0.26872 0.29335 0.23618 0.0
O49 O 0.30795 0.28124 0.24421 0.0
O50 O 0.30464 0.2376 0.3056 0.0
O51 O 0.2607 0.29508 0.29042 0.0
O52 O 0.22126 0.27101 0.2729 0.0
O53 O 0.3346 0.27244 0.29233 0.0
O54 O 0.26208 0.22694 0.281 0.0
O55 O 0.22193 0.23604 0.27068 0.0
C56 C 0.29662 0.22743 0.22743 0.0
C57 C 0.18151 0.28651 0.20819 0.0
C58 C 0.16049 0.31756 0.18903 0.0
C59 C 0.13519 0.30779 0.20281 0.0
C60 C 0.15594 0.27729 0.22196 0.0
C61 C 0.13296 0.28776 0.21909 0.0
C62 C 0.18369 0.30674 0.19158 0.0
C63 C 0.2955 0.29593 0.23297 0.0
C64 C 0.20467 0.27244 0.20816 0.0
C65 C 0.21923 0.16312 0.15784 0.0
C66 C 0.24013 0.17928 0.14319 0.0
C67 C 0.23376 0.29068 0.28923 0.0
C68 C 0.35232 0.24503 0.3172 0.0
C69 C 0.37317 0.21401 0.33612 0.0
C70 C 0.39737 0.2339 0.33747 0.0
C71 C 0.37678 0.26464 0.31887 0.0
C72 C 0.35037 0.21968 0.32627 0.0
C73 C 0.39908 0.25908 0.32898 0.0
C74 C 0.2351 0.22325 0.28365 0.0
C75 C 0.32989 0.25138 0.30497 0.0
H76 H 0.11701 0.3155 0.2007 0.0
H77 H 0.15347 0.2614 0.23441 0.0
H78 H 0.11325 0.28008 0.2293 0.0
H79 H 0.2031 0.31365 0.1804 0.0
H80 H 0.41507 0.22985 0.34507 0.0
H81 H 0.37884 0.28436 0.31216 0.0
H82 H 0.33178 0.20426 0.32492 0.0
H83 H 0.41784 0.27424 0.33002 0.0
Eu84 Eu 0.73914 0.28578 0.26329 0.0
C85 C 0.83032 0.22098 0.20585 0.0
N86 N 0.80355 0.21291 0.21504 0.0
C87 C 0.79721 0.17799 0.17915 0.0
C88 C 0.8416 0.20744 0.18284 0.0
C89 C 0.78712 0.19138 0.20241 0.0
C90 C 0.82456 0.186 0.1693 0.0
C91 C 0.87454 0.25118 0.21045 0.0
C92 C 0.84663 0.24278 0.21951 0.0
C93 C 0.88611 0.23659 0.1885 0.0
C94 C 0.86961 0.21518 0.17441 0.0
Eu95 Eu 0.79048 0.23389 0.25637 0.0
N96 N 0.83522 0.2559 0.24141 0.0
C97 C 0.89007 0.27398 0.22376 0.0
C98 C 0.85011 0.27861 0.254 0.0
C99 C 0.87764 0.28803 0.24535 0.0
H100 H 0.76652 0.18372 0.21061 0.0
H101 H 0.88933 0.30599 0.25553 0.0
H102 H 0.75284 0.33988 0.30765 0.0
H103 H 0.63843 0.22325 0.2473 0.0
H104 H 0.84107 0.28979 0.27058 0.0
H105 H 0.91152 0.28114 0.21728 0.0
H106 H 0.68697 0.24378 0.23553 0.0
H107 H 0.78409 0.16097 0.16926 0.0
H108 H 0.90785 0.24181 0.18218 0.0
H109 H 0.87878 0.20456 0.15713 0.0
H110 H 0.7341 0.35743 0.35125 0.0
H111 H 0.83245 0.17517 0.15151 0.0
H112 H 0.61591 0.23576 0.29095 0.0
N113 N 0.72161 0.30462 0.30435 0.0
C114 C 0.69545 0.29337 0.31289 0.0
C115 C 0.72335 0.33888 0.34113 0.0
C116 C 0.68266 0.30386 0.33668 0.0
C117 C 0.7347 0.32823 0.3171 0.0
C118 C 0.6974 0.32623 0.35128 0.0
N119 N 0.69271 0.26507 0.27292 0.0
C120 C 0.67771 0.24831 0.25493 0.0
C121 C 0.65243 0.26303 0.30375 0.0
C122 C 0.68041 0.27332 0.29656 0.0
C123 C 0.63745 0.24418 0.28608 0.0
C124 C 0.65008 0.23704 0.26144 0.0
H125 H 0.68825 0.33494 0.36959 0.0
H126 H 0.64486 0.30086 0.36244 0.0
H127 H 0.61833 0.26539 0.33334 0.0
O128 O 0.72924 0.30021 0.22772 0.0
O129 O 0.72284 0.24541 0.28008 0.0
O130 O 0.76185 0.23801 0.29354 0.0
O131 O 0.72663 0.32406 0.26568 0.0
O132 O 0.74028 0.25518 0.22698 0.0
O133 O 0.74851 0.21742 0.24216 0.0
O134 O 0.82077 0.21907 0.27427 0.0
O135 O 0.79427 0.26172 0.22501 0.0
O136 O 0.78427 0.29971 0.25021 0.0
O137 O 0.7849 0.19038 0.25987 0.0
O138 O 0.79795 0.26595 0.29061 0.0
O139 O 0.77528 0.30137 0.28805 0.0
C140 C 0.73496 0.2339 0.29504 0.0
C141 C 0.71665 0.34581 0.23187 0.0
C142 C 0.6975 0.36588 0.20081 0.0
C143 C 0.70129 0.39096 0.21669 0.0
C144 C 0.72061 0.37124 0.24732 0.0
C145 C 0.71283 0.39359 0.23979 0.0
C146 C 0.70497 0.34311 0.20848 0.0
C147 C 0.73742 0.22855 0.226 0.0
C148 C 0.72368 0.32243 0.24144 0.0
C149 C 0.65505 0.29298 0.3443 0.0
C150 C 0.63995 0.27273 0.3278 0.0
C151 C 0.79612 0.28827 0.22898 0.0
C152 C 0.8172 0.17141 0.27905 0.0
C153 C 0.83781 0.15262 0.31005 0.0
C154 C 0.83474 0.12753 0.29417 0.0
C155 C 0.81396 0.14615 0.26358 0.0
C156 C 0.82954 0.17482 0.3022 0.0
C157 C 0.82298 0.12438 0.27103 0.0
C158 C 0.79301 0.29066 0.29813 0.0
C159 C 0.80755 0.19396 0.27085 0.0
H160 H 0.69511 0.40855 0.21124 0.0
H161 H 0.72952 0.37388 0.26546 0.0
H162 H 0.71566 0.41296 0.25193 0.0
H163 H 0.70166 0.32362 0.19646 0.0
H164 H 0.84124 0.11024 0.29986 0.0
H165 H 0.80465 0.14334 0.24563 0.0
H166 H 0.83176 0.19421 0.31443 0.0
H167 H 0.82059 0.10494 0.25899 0.0
Eu168 Eu 0.76018 0.73267 0.28377 0.0
C169 C 0.82619 0.80161 0.19711 0.0
N170 N 0.8163 0.80909 0.22194 0.0
C171 C 0.85713 0.84309 0.22753 0.0
C172 C 0.85222 0.81467 0.18662 0.0
C173 C 0.83109 0.82988 0.23701 0.0
C174 C 0.86778 0.83545 0.20225 0.0
C175 C 0.81958 0.7734 0.15597 0.0
C176 C 0.81005 0.78108 0.18192 0.0
C177 C 0.8455 0.78639 0.14555 0.0
C178 C 0.86176 0.80693 0.16082 0.0
Eu179 Eu 0.77097 0.78717 0.23458 0.0
N180 N 0.78495 0.7688 0.19242 0.0
C181 C 0.80255 0.75319 0.1411 0.0
C182 C 0.7678 0.75008 0.17769 0.0
C183 C 0.77647 0.74161 0.15198 0.0
H184 H 0.82261 0.83709 0.25607 0.0
H185 H 0.76282 0.7266 0.1404 0.0
H186 H 0.71093 0.68043 0.261 0.0
H187 H 0.76614 0.788 0.3798 0.0
H188 H 0.74711 0.74242 0.18537 0.0
H189 H 0.80909 0.74681 0.12106 0.0
H190 H 0.78305 0.77289 0.33471 0.0
H191 H 0.86876 0.85952 0.23957 0.0
H192 H 0.85308 0.78083 0.12562 0.0
H193 H 0.88164 0.81686 0.15242 0.0
H194 H 0.66419 0.65783 0.2756 0.0
H195 H 0.88784 0.84599 0.19486 0.0
H196 H 0.71848 0.76915 0.39699 0.0
N197 N 0.71499 0.70916 0.2949 0.0
C198 C 0.70374 0.71673 0.31926 0.0
C199 C 0.67494 0.67457 0.28792 0.0
C200 C 0.67737 0.70349 0.32873 0.0
C201 C 0.70135 0.68786 0.2795 0.0
C202 C 0.66281 0.68251 0.31255 0.0
N203 N 0.74457 0.74947 0.32575 0.0
C204 C 0.7618 0.76643 0.34162 0.0
C205 C 0.70873 0.74415 0.36105 0.0
C206 C 0.71911 0.73709 0.33525 0.0
C207 C 0.72561 0.76334 0.37698 0.0
C208 C 0.75245 0.7742 0.36732 0.0
H209 H 0.64248 0.67185 0.31911 0.0
H210 H 0.64642 0.70109 0.36179 0.0
H211 H 0.67396 0.73645 0.39011 0.0
O212 O 0.79406 0.72445 0.30261 0.0
O213 O 0.73011 0.76368 0.29228 0.0
O214 O 0.75113 0.80266 0.27389 0.0
O215 O 0.75671 0.69423 0.29912 0.0
O216 O 0.79907 0.76569 0.2836 0.0
O217 O 0.78608 0.80356 0.27357 0.0
O218 O 0.73987 0.79781 0.21251 0.0
O219 O 0.80222 0.75765 0.22798 0.0
O220 O 0.77972 0.71748 0.24371 0.0
O221 O 0.77508 0.82796 0.22542 0.0
O222 O 0.73168 0.75442 0.23559 0.0
O223 O 0.74515 0.7164 0.24477 0.0
C224 C 0.73196 0.78986 0.28996 0.0
C225 C 0.79629 0.67795 0.30535 0.0
C226 C 0.82462 0.6541 0.32516 0.0
C227 C 0.8184 0.63147 0.30655 0.0
C228 C 0.79076 0.65518 0.28672 0.0
C229 C 0.80159 0.63204 0.28755 0.0
C230 C 0.81365 0.6775 0.32442 0.0
C231 C 0.80084 0.79218 0.28604 0.0
C232 C 0.78088 0.70027 0.30749 0.0
C233 C 0.66663 0.7111 0.3542 0.0
C234 C 0.6823 0.73127 0.37034 0.0
C235 C 0.79938 0.73098 0.22837 0.0
C236 C 0.74708 0.84494 0.20026 0.0
C237 C 0.71601 0.86666 0.18158 0.0
C238 C 0.7375 0.88912 0.17817 0.0
C239 C 0.76813 0.86777 0.19639 0.0
C240 C 0.72086 0.84421 0.19242 0.0
C241 C 0.76332 0.8896 0.18544 0.0
C242 C 0.72989 0.72782 0.23278 0.0
C243 C 0.75341 0.82293 0.21302 0.0
H244 H 0.82624 0.61309 0.30703 0.0
H245 H 0.77719 0.65484 0.27214 0.0
H246 H 0.7962 0.61411 0.27394 0.0
H247 H 0.81743 0.69465 0.33934 0.0
H248 H 0.73425 0.90645 0.16975 0.0
H249 H 0.7885 0.86891 0.20193 0.0
H250 H 0.70437 0.82687 0.1953 0.0
H251 H 0.77968 0.90706 0.18271 0.0
Eu252 Eu 0.23812 0.78516 0.2599 0.0
C253 C 0.29624 0.7026 0.29894 0.0
N254 N 0.30403 0.72935 0.29497 0.0
C255 C 0.32656 0.73911 0.33379 0.0
C256 C 0.30294 0.69334 0.32102 0.0
C257 C 0.31989 0.7473 0.31153 0.0
C258 C 0.318 0.71207 0.33865 0.0
C259 C 0.27463 0.65619 0.28396 0.0
C260 C 0.28264 0.68404 0.28034 0.0
C261 C 0.28077 0.64717 0.30619 0.0
C262 C 0.29502 0.66565 0.32458 0.0
Eu263 Eu 0.29436 0.73986 0.25506 0.0
N264 N 0.27715 0.69314 0.25875 0.0
C265 C 0.26077 0.63812 0.26504 0.0
C266 C 0.26476 0.67531 0.23972 0.0
C267 C 0.2559 0.64773 0.24279 0.0
H268 H 0.32872 0.76758 0.30712 0.0
H269 H 0.24574 0.63381 0.22778 0.0
H270 H 0.20539 0.75962 0.20821 0.0
H271 H 0.29016 0.89069 0.2886 0.0
H272 H 0.26208 0.68197 0.22185 0.0
H273 H 0.25412 0.61665 0.26723 0.0
H274 H 0.2702 0.84351 0.29533 0.0
H275 H 0.33875 0.75361 0.3469 0.0
H276 H 0.27485 0.62586 0.30921 0.0
H277 H 0.30005 0.65826 0.3414 0.0
H278 H 0.19574 0.77436 0.16812 0.0
H279 H 0.32369 0.70573 0.35574 0.0
H280 H 0.28529 0.90807 0.24814 0.0
N281 N 0.23051 0.79738 0.22034 0.0
C282 C 0.23945 0.82392 0.21647 0.0
C283 C 0.20847 0.7884 0.18129 0.0
C284 C 0.23422 0.83343 0.19395 0.0
C285 C 0.21436 0.7799 0.20376 0.0
C286 C 0.21869 0.81523 0.1762 0.0
N287 N 0.25678 0.83229 0.25759 0.0
C288 C 0.26908 0.84984 0.27688 0.0
C289 C 0.26315 0.86933 0.23144 0.0
C290 C 0.2533 0.84172 0.23536 0.0
C291 C 0.2771 0.88685 0.25058 0.0
C292 C 0.27997 0.87708 0.27341 0.0
H293 H 0.21397 0.82185 0.15884 0.0
H294 H 0.24033 0.86847 0.17288 0.0
H295 H 0.26618 0.89976 0.20539 0.0
O296 O 0.20606 0.80868 0.27287 0.0
O297 O 0.26879 0.78378 0.22406 0.0
O298 O 0.30603 0.78238 0.2438 0.0
O299 O 0.19506 0.76487 0.26366 0.0
O300 O 0.26476 0.79644 0.2941 0.0
O301 O 0.30504 0.78217 0.27638 0.0
O302 O 0.32032 0.7322 0.21972 0.0
O303 O 0.25232 0.72439 0.2748 0.0
O304 O 0.24008 0.76389 0.29498 0.0
O305 O 0.33471 0.73041 0.25659 0.0
O306 O 0.2677 0.73028 0.2212 0.0
O307 O 0.22773 0.74152 0.24245 0.0
C308 C 0.29537 0.78933 0.22502 0.0
C309 C 0.17268 0.78467 0.30047 0.0
C310 C 0.17475 0.7997 0.34592 0.0
C311 C 0.14651 0.78878 0.35057 0.0
C312 C 0.14442 0.77461 0.30468 0.0
C313 C 0.13151 0.77579 0.33 0.0
C314 C 0.18798 0.79457 0.32135 0.0
C315 C 0.29133 0.7967 0.29419 0.0
C316 C 0.18686 0.7869 0.27472 0.0
C317 C 0.24408 0.86082 0.19009 0.0
C318 C 0.25872 0.87865 0.20866 0.0
C319 C 0.2388 0.73744 0.29385 0.0
C320 C 0.34304 0.69685 0.22295 0.0
C321 C 0.3398 0.66185 0.18723 0.0
C322 C 0.36153 0.65208 0.19496 0.0
C323 C 0.36521 0.68805 0.23069 0.0
C324 C 0.32786 0.68087 0.20385 0.0
C325 C 0.37356 0.66466 0.21736 0.0
C326 C 0.24077 0.7284 0.22309 0.0
C327 C 0.33798 0.72417 0.23172 0.0
H328 H 0.13568 0.79233 0.36949 0.0
H329 H 0.13246 0.76646 0.28856 0.0
H330 H 0.10958 0.76837 0.33348 0.0
H331 H 0.20991 0.80248 0.31798 0.0
H332 H 0.37134 0.63731 0.18209 0.0
H333 H 0.37671 0.69987 0.246 0.0
H334 H 0.31085 0.68769 0.19755 0.0
H335 H 0.39112 0.65811 0.22272 0.0
Eu336 Eu 0.2434 0.78794 0.76147 0.0
C337 C 0.3342 0.72524 0.7036 0.0
N338 N 0.30827 0.71412 0.71293 0.0
C339 C 0.30356 0.68233 0.67452 0.0
C340 C 0.34574 0.71545 0.67899 0.0
C341 C 0.29303 0.69272 0.69903 0.0
C342 C 0.33 0.69381 0.66439 0.0
C343 C 0.3762 0.75854 0.70961 0.0
C344 C 0.34918 0.74661 0.71869 0.0
C345 C 0.38771 0.74898 0.68503 0.0
C346 C 0.37253 0.72749 0.66976 0.0
Eu347 Eu 0.29146 0.73377 0.75375 0.0
N348 N 0.33734 0.75563 0.74229 0.0
C349 C 0.39096 0.77951 0.72565 0.0
C350 C 0.35231 0.77477 0.7586 0.0
C351 C 0.37907 0.78741 0.75039 0.0
H352 H 0.27289 0.68339 0.70699 0.0
H353 H 0.39066 0.80291 0.76332 0.0
H354 H 0.2652 0.83441 0.81067 0.0
H355 H 0.14178 0.72547 0.74963 0.0
H356 H 0.34416 0.77977 0.77819 0.0
H357 H 0.41177 0.78921 0.71939 0.0
H358 H 0.19019 0.74346 0.73678 0.0
H359 H 0.29133 0.66541 0.66352 0.0
H360 H 0.40843 0.75792 0.67772 0.0
H361 H 0.38174 0.72025 0.65089 0.0
H362 H 0.24712 0.85179 0.85435 0.0
H363 H 0.33813 0.68571 0.64539 0.0
H364 H 0.12024 0.74117 0.79253 0.0
N365 N 0.22834 0.80595 0.80353 0.0
C366 C 0.20178 0.79624 0.81229 0.0
C367 C 0.23425 0.83607 0.84281 0.0
C368 C 0.19044 0.80616 0.83694 0.0
C369 C 0.24454 0.82586 0.81817 0.0
C370 C 0.20713 0.82617 0.85229 0.0
N371 N 0.19748 0.76674 0.77297 0.0
C372 C 0.18185 0.74904 0.75614 0.0
C373 C 0.15793 0.76667 0.80467 0.0
C374 C 0.18585 0.77628 0.79651 0.0
C375 C 0.14202 0.74805 0.78758 0.0
C376 C 0.15406 0.7392 0.76325 0.0
H377 H 0.1992 0.83434 0.87135 0.0
H378 H 0.15377 0.80349 0.86424 0.0
H379 H 0.12519 0.76923 0.83582 0.0
O380 O 0.22483 0.8011 0.73078 0.0
O381 O 0.23727 0.76002 0.79331 0.0
O382 O 0.24711 0.72131 0.76958 0.0
O383 O 0.23765 0.82974 0.76446 0.0
O384 O 0.24036 0.75645 0.72524 0.0
O385 O 0.25081 0.71787 0.73706 0.0
O386 O 0.3112 0.72169 0.78431 0.0
O387 O 0.29778 0.76197 0.72159 0.0
O388 O 0.28725 0.80124 0.74436 0.0
O389 O 0.2919 0.69131 0.75537 0.0
O390 O 0.29289 0.76508 0.79008 0.0
O391 O 0.28516 0.80346 0.77582 0.0
C392 C 0.23542 0.73351 0.79036 0.0
C393 C 0.21794 0.84799 0.73274 0.0
C394 C 0.19648 0.86488 0.70104 0.0
C395 C 0.20284 0.89135 0.71397 0.0
C396 C 0.22407 0.87465 0.74547 0.0
C397 C 0.21653 0.89616 0.73609 0.0
C398 C 0.20397 0.84309 0.71042 0.0
C399 C 0.23877 0.72979 0.7223 0.0
C400 C 0.22688 0.82584 0.74268 0.0
C401 C 0.16284 0.79605 0.84537 0.0
C402 C 0.14658 0.7765 0.82922 0.0
C403 C 0.29965 0.78861 0.72417 0.0
C404 C 0.32406 0.67763 0.77777 0.0
C405 C 0.34516 0.65463 0.8054 0.0
C406 C 0.35088 0.6358 0.78397 0.0
C407 C 0.33037 0.65876 0.75655 0.0
C408 C 0.33201 0.67581 0.80216 0.0
C409 C 0.34371 0.638 0.75972 0.0
C410 C 0.29543 0.79175 0.79201 0.0
C411 C 0.3051 0.69583 0.7758 0.0
H412 H 0.19721 0.90834 0.70683 0.0
H413 H 0.23492 0.87896 0.76261 0.0
H414 H 0.22143 0.91665 0.74592 0.0
H415 H 0.19919 0.82268 0.70029 0.0
H416 H 0.3608 0.61919 0.78608 0.0
H417 H 0.32413 0.65939 0.73769 0.0
H418 H 0.32658 0.68978 0.81881 0.0
H419 H 0.34795 0.62318 0.74344 0.0
Eu420 Eu 0.26108 0.23226 0.78444 0.0
C421 C 0.32735 0.30181 0.69804 0.0
N422 N 0.31738 0.30872 0.72298 0.0
C423 C 0.35798 0.34292 0.72908 0.0
C424 C 0.35326 0.31535 0.68774 0.0
C425 C 0.332 0.32935 0.73835 0.0
C426 C 0.36869 0.33587 0.70369 0.0
C427 C 0.32089 0.27461 0.65637 0.0
C428 C 0.31136 0.2815 0.68248 0.0
C429 C 0.34651 0.28836 0.64608 0.0
C430 C 0.36274 0.30848 0.66174 0.0
Eu431 Eu 0.27192 0.28658 0.73492 0.0
N432 N 0.28639 0.26871 0.69277 0.0
C433 C 0.30411 0.25446 0.64121 0.0
C434 C 0.26952 0.2499 0.67785 0.0
C435 C 0.27828 0.24212 0.65199 0.0
H436 H 0.32343 0.33626 0.75746 0.0
H437 H 0.26485 0.22706 0.64023 0.0
H438 H 0.21168 0.17989 0.76226 0.0
H439 H 0.26603 0.29144 0.87915 0.0
H440 H 0.24902 0.24154 0.68555 0.0
H441 H 0.3107 0.24864 0.62106 0.0
H442 H 0.28321 0.27566 0.83445 0.0
H443 H 0.36947 0.35922 0.74135 0.0
H444 H 0.35387 0.28384 0.62592 0.0
H445 H 0.38246 0.31888 0.65345 0.0
H446 H 0.16473 0.15769 0.77696 0.0
H447 H 0.38865 0.34675 0.69645 0.0
H448 H 0.21891 0.27156 0.8969 0.0
N449 N 0.21599 0.20878 0.79598 0.0
C450 C 0.20489 0.21657 0.82034 0.0
C451 C 0.17571 0.17438 0.78925 0.0
C452 C 0.17848 0.20354 0.82994 0.0
C453 C 0.20218 0.18746 0.78073 0.0
C454 C 0.16374 0.18252 0.8139 0.0
N455 N 0.24545 0.25002 0.82619 0.0
C456 C 0.26222 0.26834 0.84155 0.0
C457 C 0.2097 0.24505 0.86162 0.0
C458 C 0.22022 0.23734 0.83602 0.0
C459 C 0.22619 0.26521 0.87706 0.0
C460 C 0.25271 0.27665 0.86707 0.0
H461 H 0.14335 0.17209 0.82054 0.0
H462 H 0.14751 0.20174 0.86298 0.0
H463 H 0.17491 0.23784 0.89074 0.0
O464 O 0.29459 0.2245 0.80397 0.0
O465 O 0.23085 0.26266 0.79257 0.0
O466 O 0.25089 0.30175 0.77396 0.0
O467 O 0.25757 0.19388 0.79982 0.0
O468 O 0.3001 0.26502 0.78303 0.0
O469 O 0.28643 0.30284 0.77414 0.0
O470 O 0.24104 0.29728 0.71275 0.0
O471 O 0.30238 0.25596 0.72738 0.0
O472 O 0.28036 0.21638 0.74462 0.0
O473 O 0.2763 0.32741 0.72554 0.0
O474 O 0.23273 0.25399 0.73569 0.0
O475 O 0.24567 0.21599 0.74566 0.0
C476 C 0.23215 0.28869 0.79027 0.0
C477 C 0.29745 0.17813 0.80567 0.0
C478 C 0.32714 0.15501 0.82434 0.0
C479 C 0.32119 0.13247 0.80555 0.0
C480 C 0.29216 0.15555 0.78677 0.0
C481 C 0.30401 0.13287 0.78678 0.0
C482 C 0.3154 0.178 0.82423 0.0
C483 C 0.30138 0.29144 0.78634 0.0
C484 C 0.28163 0.20011 0.8084 0.0
C485 C 0.16775 0.21158 0.85529 0.0
C486 C 0.18335 0.23216 0.87111 0.0
C487 C 0.29973 0.2294 0.72866 0.0
C488 C 0.24749 0.34455 0.70112 0.0
C489 C 0.21657 0.36463 0.68043 0.0
C490 C 0.23641 0.38884 0.68022 0.0
C491 C 0.26679 0.3692 0.70054 0.0
C492 C 0.22224 0.34215 0.69065 0.0
C493 C 0.26127 0.39105 0.69016 0.0
C494 C 0.23079 0.2274 0.73324 0.0
C495 C 0.2546 0.3224 0.71317 0.0
H496 H 0.32972 0.11442 0.80558 0.0
H497 H 0.27824 0.15508 0.77246 0.0
H498 H 0.29941 0.1153 0.7725 0.0
H499 H 0.31912 0.19507 0.83924 0.0
H500 H 0.23259 0.40625 0.67231 0.0
H501 H 0.28638 0.37176 0.70822 0.0
H502 H 0.20703 0.32343 0.69101 0.0
H503 H 0.2763 0.40988 0.68994 0.0
Eu504 Eu 0.73675 0.27788 0.75788 0.0
C505 C 0.80002 0.20215 0.7995 0.0
N506 N 0.80786 0.22878 0.79529 0.0
C507 C 0.82878 0.23982 0.83496 0.0
C508 C 0.80593 0.19355 0.82223 0.0
C509 C 0.82242 0.2475 0.8123 0.0
C510 C 0.82035 0.21278 0.84005 0.0
C511 C 0.77846 0.15561 0.78508 0.0
C512 C 0.78639 0.18334 0.7809 0.0
C513 C 0.78385 0.14723 0.80797 0.0
C514 C 0.7976 0.16609 0.82641 0.0
Eu515 Eu 0.79697 0.23924 0.75619 0.0
N516 N 0.7812 0.19186 0.75874 0.0
C517 C 0.76537 0.13696 0.7661 0.0
C518 C 0.77033 0.1732 0.73942 0.0
C519 C 0.76158 0.14575 0.7431 0.0
H520 H 0.8299 0.26816 0.80802 0.0
H521 H 0.7524 0.13125 0.7279 0.0
H522 H 0.70506 0.25249 0.70487 0.0
H523 H 0.78783 0.38389 0.78794 0.0
H524 H 0.76892 0.17875 0.72071 0.0
H525 H 0.75876 0.11559 0.76874 0.0
H526 H 0.76604 0.33744 0.79499 0.0
H527 H 0.84041 0.2547 0.84836 0.0
H528 H 0.77772 0.12606 0.81146 0.0
H529 H 0.8019 0.15918 0.84379 0.0
H530 H 0.69605 0.26824 0.66495 0.0
H531 H 0.82541 0.20687 0.85761 0.0
H532 H 0.78568 0.40077 0.74655 0.0
N533 N 0.72885 0.29059 0.71849 0.0
C534 C 0.7385 0.31716 0.71479 0.0
C535 C 0.70833 0.28209 0.67858 0.0
C536 C 0.73376 0.327 0.69225 0.0
C537 C 0.71387 0.27307 0.70091 0.0
C538 C 0.71839 0.30914 0.67417 0.0
N539 N 0.75599 0.32516 0.75608 0.0
C540 C 0.76691 0.34309 0.77591 0.0
C541 C 0.76343 0.36216 0.7297 0.0
C542 C 0.75297 0.33463 0.73367 0.0
C543 C 0.77713 0.37962 0.74902 0.0
C544 C 0.77852 0.37013 0.77234 0.0
H545 H 0.714 0.3161 0.65685 0.0
H546 H 0.74079 0.36218 0.67127 0.0
H547 H 0.7671 0.39281 0.70377 0.0
O548 O 0.70524 0.28091 0.78989 0.0
O549 O 0.76815 0.27814 0.72254 0.0
O550 O 0.80537 0.28134 0.74361 0.0
O551 O 0.69608 0.28369 0.7516 0.0
O552 O 0.76299 0.29104 0.79281 0.0
O553 O 0.80521 0.28239 0.7747 0.0
O554 O 0.82738 0.2405 0.72322 0.0
O555 O 0.76518 0.23654 0.79138 0.0
O556 O 0.72728 0.23654 0.77182 0.0
O557 O 0.83775 0.2309 0.75896 0.0
O558 O 0.77022 0.225 0.72231 0.0
O559 O 0.72778 0.23443 0.73935 0.0
C560 C 0.79439 0.28675 0.72423 0.0
C561 C 0.67812 0.31183 0.78521 0.0
C562 C 0.67741 0.34673 0.8207 0.0
C563 C 0.65198 0.35083 0.81487 0.0
C564 C 0.65294 0.31556 0.77874 0.0
C565 C 0.64039 0.33602 0.79306 0.0
C566 C 0.69182 0.32995 0.80394 0.0
C567 C 0.78998 0.29423 0.79318 0.0
C568 C 0.68814 0.28695 0.77596 0.0
C569 C 0.74426 0.3543 0.68845 0.0
C570 C 0.75927 0.37173 0.70697 0.0
C571 C 0.73851 0.23102 0.79096 0.0
C572 C 0.85582 0.20885 0.72028 0.0
C573 C 0.86052 0.18052 0.67985 0.0
C574 C 0.88277 0.1719 0.6878 0.0
C575 C 0.8776 0.20001 0.72873 0.0
C576 C 0.8463 0.19767 0.69649 0.0
C577 C 0.89072 0.18103 0.7126 0.0
C578 C 0.74343 0.22212 0.72157 0.0
C579 C 0.84502 0.23185 0.7345 0.0
H580 H 0.6402 0.3636 0.82819 0.0
H581 H 0.6425 0.30189 0.76371 0.0
H582 H 0.62055 0.3386 0.78876 0.0
H583 H 0.71136 0.32714 0.80902 0.0
H584 H 0.89437 0.15885 0.6746 0.0
H585 H 0.88498 0.20844 0.74726 0.0
H586 H 0.82945 0.20421 0.68961 0.0
H587 H 0.90789 0.17452 0.71878 0.0
Eu588 Eu 0.7405 0.7519 0.7317 0.0
C589 C 0.80808 0.82157 0.82162 0.0
N590 N 0.81676 0.81104 0.79728 0.0
C591 C 0.85201 0.8509 0.79306 0.0
C592 C 0.8212 0.84745 0.83248 0.0
C593 C 0.83889 0.82492 0.78328 0.0
C594 C 0.84309 0.86226 0.81771 0.0
C595 C 0.77817 0.81613 0.86184 0.0
C596 C 0.78658 0.80609 0.83621 0.0
C597 C 0.79121 0.84191 0.87254 0.0
C598 C 0.81256 0.85754 0.8579 0.0
Eu599 Eu 0.79437 0.76602 0.78464 0.0
N600 N 0.77396 0.78122 0.82541 0.0
C601 C 0.75714 0.79974 0.87615 0.0
C602 C 0.75437 0.76473 0.8396 0.0
C603 C 0.74533 0.77386 0.86502 0.0
H604 H 0.84727 0.81575 0.76503 0.0
H605 H 0.72965 0.76072 0.87618 0.0
H606 H 0.68865 0.70228 0.75444 0.0
H607 H 0.79703 0.75687 0.63656 0.0
H608 H 0.74632 0.7443 0.83166 0.0
H609 H 0.75025 0.80667 0.89595 0.0
H610 H 0.78504 0.7729 0.68255 0.0
H611 H 0.86943 0.86187 0.78181 0.0
H612 H 0.78505 0.84989 0.89222 0.0
H613 H 0.82253 0.87732 0.86655 0.0
H614 H 0.66565 0.65616 0.73921 0.0
H615 H 0.85365 0.8822 0.8254 0.0
H616 H 0.77424 0.71127 0.61777 0.0
N617 N 0.71746 0.70653 0.72076 0.0
C618 C 0.72414 0.69584 0.69594 0.0
C619 C 0.68234 0.66691 0.727 0.0
C620 C 0.71008 0.67001 0.68586 0.0
C621 C 0.69612 0.69291 0.73591 0.0
C622 C 0.68944 0.65533 0.70193 0.0
N623 N 0.75756 0.73619 0.68994 0.0
C624 C 0.77588 0.7527 0.67469 0.0
C625 C 0.7498 0.70157 0.65367 0.0
C626 C 0.74401 0.71139 0.67994 0.0
C627 C 0.76929 0.71808 0.63804 0.0
C628 C 0.78233 0.74378 0.64859 0.0
H629 H 0.67824 0.63542 0.6949 0.0
H630 H 0.70565 0.64025 0.65185 0.0
H631 H 0.74026 0.66788 0.62371 0.0
O632 O 0.73113 0.7846 0.71267 0.0
O633 O 0.77603 0.72774 0.72169 0.0
O634 O 0.8121 0.74361 0.7474 0.0
O635 O 0.70273 0.74597 0.71406 0.0
O636 O 0.77199 0.7913 0.73611 0.0
O637 O 0.81184 0.78229 0.74656 0.0
O638 O 0.80178 0.73469 0.80678 0.0
O639 O 0.76053 0.79289 0.79156 0.0
O640 O 0.72248 0.77164 0.77019 0.0
O641 O 0.83264 0.771 0.80166 0.0
O642 O 0.76388 0.72611 0.77898 0.0
O643 O 0.72424 0.73642 0.76994 0.0
C644 C 0.80102 0.72764 0.72768 0.0
C645 C 0.68376 0.78327 0.70824 0.0
C646 C 0.6618 0.81517 0.69212 0.0
C647 C 0.63666 0.80418 0.70546 0.0
C648 C 0.65846 0.77254 0.72174 0.0
C649 C 0.63504 0.78292 0.7202 0.0
C650 C 0.6853 0.80465 0.6934 0.0
C651 C 0.79883 0.79397 0.73249 0.0
C652 C 0.70754 0.77006 0.70655 0.0
C653 C 0.71634 0.65999 0.65988 0.0
C654 C 0.736 0.67577 0.64381 0.0
C655 C 0.7344 0.79067 0.7874 0.0
C656 C 0.84873 0.73243 0.80982 0.0
C657 C 0.87104 0.7025 0.82905 0.0
C658 C 0.8945 0.70878 0.81153 0.0
C659 C 0.87232 0.73801 0.79216 0.0
C660 C 0.8481 0.71439 0.82821 0.0
C661 C 0.89505 0.72631 0.79313 0.0
C662 C 0.73711 0.72333 0.78261 0.0
C663 C 0.82637 0.74788 0.8113 0.0
H664 H 0.61828 0.812 0.70434 0.0
H665 H 0.65659 0.7557 0.73296 0.0
H666 H 0.61555 0.77431 0.73025 0.0
H667 H 0.70457 0.81278 0.68258 0.0
H668 H 0.9125 0.70017 0.81222 0.0
H669 H 0.87351 0.75197 0.778 0.0
H670 H 0.83023 0.71023 0.84221 0.0
H671 H 0.91331 0.73114 0.77979 0.0
Fe672 Fe 0.02565 0.07323 0.50931 0.0
O673 O 0.01722 0.03315 0.4987 0.0
Fe674 Fe 0.04675 0.01264 0.50669 0.0
Fe675 Fe 0.98318 1.00781 0.51199 0.0
O676 O 0.02007 0.03416 0.50021 0.0
O677 O 1.01305 0.98806 0.52173 0.0
O678 O 1.00988 0.98699 0.52023 0.0
Fe679 Fe 1.00537 0.94778 0.51115 0.0
C680 C 0.99071 0.05277 0.55665 0.0
O681 O 0.99337 0.07053 0.48944 0.0
O682 O 0.95983 0.03402 0.50042 0.0
O683 O 0.03432 0.94956 0.48006 0.0
O684 O 0.04034 0.99211 0.4713 0.0
O685 O 0.07803 0.04096 0.48681 0.0
O686 O 0.0541 0.07279 0.47834 0.0
O687 O 0.97917 0.98609 0.47559 0.0
O688 O 0.97518 0.94474 0.48722 0.0
C689 C 0.0747 0.06038 0.47394 0.0
O690 O 0.03672 0.95154 0.53293 0.0
O691 O 0.07017 0.98584 0.51689 0.0
O692 O 0.9993 0.07164 0.54224 0.0
O693 O 0.98596 0.02779 0.54804 0.0
C694 C 0.96918 0.05565 0.48838 0.0
C695 C 0.97143 0.96032 0.47166 0.0
C696 C 0.95391 0.95966 0.54333 0.0
O697 O 0.95124 0.97881 0.52988 0.0
O698 O 0.97484 0.94778 0.54057 0.0
C699 C 0.04114 0.96738 0.46445 0.0
O700 O 0.05395 0.03458 0.54259 0.0
O701 O 0.05739 0.07567 0.53081 0.0
C702 C 0.06119 0.96637 0.5317 0.0
C703 C 0.06152 0.06039 0.54641 0.0
Fe704 Fe 0.51434 0.97742 1.00518 0.0
O705 O 0.53987 0.01018 0.9926 0.0
Fe706 Fe 0.4538 1.00345 0.02383 0.0
Fe707 Fe 0.57997 0.01672 0.99446 0.0
O708 O 0.49371 1.00639 0.02362 0.0
O709 O 0.4939 0.01003 0.02461 0.0
O710 O 0.54003 0.01388 0.99355 0.0
Fe711 Fe 0.51915 0.04283 0.01185 0.0
C712 C 0.56006 0.98 0.03784 0.0
O713 O 0.54174 0.95197 0.98215 0.0
O714 O 0.57759 0.98386 0.966 0.0
O715 O 0.49824 0.04006 0.97997 0.0
O716 O 0.45491 0.03078 0.99778 0.0
O717 O 0.45065 0.97217 0.99421 0.0
O718 O 0.49235 0.97179 0.9732 0.0
O719 O 0.58063 0.04586 0.97156 0.0
O720 O 0.54979 0.07218 0.99278 0.0
C721 C 0.4662 0.96473 0.97453 0.0
O722 O 0.49193 0.06829 0.03504 0.0
O723 O 0.45692 0.03629 0.05215 0.0
O724 O 0.53481 0.98022 0.03736 0.0
O725 O 0.57838 0.98899 0.02035 0.0
C726 C 0.56446 0.95893 0.96657 0.0
C727 C 0.56975 0.0674 0.97476 0.0
C728 C 0.56663 0.05506 0.04364 0.0
O729 O 0.58283 0.04815 0.02427 0.0
O730 O 0.54061 0.0483 0.044 0.0
C731 C 0.4728 0.03999 0.97999 0.0
O732 O 0.45365 0.9743 0.04678 0.0
O733 O 0.48378 0.94801 0.02388 0.0
C734 C 0.47012 0.06119 0.05162 0.0
C735 C 0.46438 0.9526 0.0425 0.0
Fe736 Fe 0.01925 0.54295 0.01281 0.0
O737 O 0.99406 0.51019 0.02589 0.0
Fe738 Fe 0.07859 0.51572 0.99043 0.0
Fe739 Fe 0.95368 0.50376 0.02661 0.0
O740 O 0.03869 0.51391 0.99265 0.0
O741 O 0.03829 0.51029 0.99142 0.0
O742 O 0.99373 0.50666 0.02476 0.0
Fe743 Fe 1.01363 0.4777 1.00514 0.0
C744 C 0.97104 0.56204 0.05297 0.0
O745 O 0.99696 0.54114 0.98217 0.0
O746 O 0.95374 0.53062 1.00031 0.0
O747 O 0.03994 0.45209 0.98069 0.0
O748 O 0.07306 0.48408 0.96133 0.0
O749 O 0.0787 0.54668 0.96928 0.0
O750 O 0.04924 0.57256 0.99412 0.0
O751 O 0.94909 0.47201 0.99731 0.0
O752 O 0.98975 0.47167 0.97437 0.0
C753 C 0.06842 0.56858 0.97518 0.0
O754 O 0.03658 0.4811 0.03592 0.0
O755 O 0.07809 0.48621 0.01413 0.0
O756 O 0.99328 0.56856 0.03684 0.0
O757 O 0.95779 0.53726 0.05445 0.0
C758 C 0.97135 0.54045 0.98261 0.0
C759 C 0.96359 0.46456 0.97683 0.0
C760 C 0.96511 0.45298 0.04423 0.0
O761 O 0.95456 0.47476 0.04973 0.0
O762 O 0.98396 0.44858 0.025 0.0
C763 C 0.06091 0.45902 0.96315 0.0
O764 O 0.08361 0.54523 0.02152 0.0
O765 O 0.04271 0.54771 0.04356 0.0
C766 C 0.06158 0.47861 0.03342 0.0
C767 C 0.06896 0.55268 0.04191 0.0
Fe768 Fe 0.5149 0.52569 0.9535 0.0
O769 O 0.51789 0.52848 0.9912 0.0
Fe770 Fe 0.48432 0.50676 0.01307 0.0
Fe771 Fe 0.54782 0.51551 1.00484 0.0
O772 O 0.51497 0.52605 0.99037 0.0
O773 O 0.51415 0.49355 0.0267 0.0
O774 O 0.51716 0.49587 0.02743 0.0
Fe775 Fe 0.51746 0.49658 0.06444 0.0
C776 C 0.54493 0.4814 0.95466 0.0
O777 O 0.54762 0.55632 0.95701 0.0
O778 O 0.5763 0.53866 0.97822 0.0
O779 O 0.4908 0.52237 0.07502 0.0
O780 O 0.49149 0.54048 0.03874 0.0
O781 O 0.45735 0.52509 0.99622 0.0
O782 O 0.48595 0.54844 0.96499 0.0
O783 O 0.55487 0.54968 0.03162 0.0
O784 O 0.54995 0.52931 0.06741 0.0
C785 C 0.46333 0.54326 0.97985 0.0
O786 O 0.48367 0.46621 0.06167 0.0
O787 O 0.4559 0.48469 0.03999 0.0
O788 O 0.54261 0.50097 0.94314 0.0
O789 O 0.54095 0.48186 0.9789 0.0
C790 C 0.5714 0.55622 0.96407 0.0
C791 C 0.55904 0.54977 0.05503 0.0
C792 C 0.56862 0.4785 0.0379 0.0
O793 O 0.5749 0.4969 0.02168 0.0
O794 O 0.54586 0.47348 0.05269 0.0
C795 C 0.48767 0.54132 0.06303 0.0
O796 O 0.47647 0.47244 0.98637 0.0
O797 O 0.48349 0.49222 0.94997 0.0
C798 C 0.46018 0.46716 0.05439 0.0
C799 C 0.47354 0.47203 0.96254 0.0
Fe800 Fe 1.01639 0.47795 0.50665 0.0
O801 O 0.99979 0.50743 0.52963 0.0
Fe802 Fe 0.03593 0.50743 0.4495 0.0
Fe803 Fe 0.99882 0.51291 0.56773 0.0
O804 O 0.03492 0.50923 0.48721 0.0
O805 O 0.03478 0.51248 0.48752 0.0
O806 O 0.99954 0.51069 0.5299 0.0
Fe807 Fe 0.01797 0.54184 0.51018 0.0
C808 C 0.97497 0.45351 0.55142 0.0
O809 O 0.04912 0.48374 0.5282 0.0
O810 O 0.02782 0.48939 0.56818 0.0
O811 O 0.0418 0.57026 0.48536 0.0
O812 O 0.06392 0.54266 0.45411 0.0
O813 O 0.06197 0.48106 0.4499 0.0
O814 O 0.03847 0.45157 0.47856 0.0
O815 O 0.02918 0.54745 0.5712 0.0
O816 O 0.05119 0.55059 0.53173 0.0
C817 C 0.05774 0.45815 0.45953 0.0
O818 O 0.98517 0.53534 0.48833 0.0
O819 O 1.0081 0.53223 0.44905 0.0
O820 O 0.99327 0.44977 0.53161 0.0
O821 O 0.97129 0.47684 0.56375 0.0
C822 C 0.04751 0.48251 0.55243 0.0
C823 C 0.05031 0.556 0.55619 0.0
C824 C 0.97676 0.56174 0.55729 0.0
O825 O 0.97221 0.53902 0.56736 0.0
O826 O 0.99573 0.56788 0.53794 0.0
C827 C 0.06122 0.56616 0.46663 0.0
O828 O 1.00529 0.47326 0.44588 0.0
O829 O 0.9831 0.4698 0.48528 0.0
C830 C 0.98788 0.53839 0.46443 0.0
C831 C 0.98427 0.46425 0.46082 0.0
Fe832 Fe 0.52193 0.94934 0.5027 0.0
O833 O 0.52909 0.9897 0.50856 0.0
Fe834 Fe 0.52036 1.00853 0.47778 0.0
Fe835 Fe 0.51335 0.01212 0.54016 0.0
O836 O 0.53021 0.98955 0.50505 0.0
O837 O 0.50437 0.03076 0.50912 0.0
O838 O 0.50301 0.03076 0.51263 0.0
Fe839 Fe 0.51048 0.07087 0.51302 0.0
C840 C 0.4715 0.95944 0.54227 0.0
O841 O 0.54493 0.95594 0.5326 0.0
O842 O 0.52894 0.98831 0.56337 0.0
O843 O 0.54196 0.07426 0.48329 0.0
O844 O 0.558 0.03564 0.4765 0.0
O845 O 0.54062 0.98105 0.44884 0.0
O846 O 0.55387 0.95278 0.4736 0.0
O847 O 0.55076 0.0387 0.54169 0.0
O848 O 0.53875 0.07842 0.5398 0.0
C849 C 0.55503 0.96274 0.45203 0.0
O850 O 0.48515 0.0623 0.4844 0.0
O851 O 0.50501 0.0317 0.45431 0.0
O852 O 0.48828 0.94502 0.5302 0.0
O853 O 0.47571 0.98529 0.54231 0.0
C854 C 0.54326 0.96898 0.55564 0.0
C855 C 0.55469 0.06458 0.54648 0.0
C856 C 0.47958 0.05862 0.56577 0.0
O857 O 0.49354 0.03992 0.56893 0.0
O858 O 0.48045 0.06841 0.54413 0.0
C859 C 0.56034 0.06069 0.47345 0.0
O860 O 0.48255 0.98247 0.47639 0.0
O861 O 0.49645 0.94324 0.47358 0.0
C862 C 0.48805 0.04862 0.46169 0.0
C863 C 0.47955 0.9571 0.469 0.0
H864 H 0.25516 0.1933 0.31366 0.0
H865 H 0.22974 0.16487 0.34586 0.0
H866 H 0.1534 0.17991 0.32625 0.0
H867 H 0.17902 0.21092 0.29618 0.0
H868 H 0.14781 0.18076 0.37295 0.0
H869 H 0.18085 0.11558 0.3083 0.0
H870 H 0.21446 0.09397 0.27819 0.0
H871 H 0.2563 0.08521 0.34205 0.0
H872 H 0.22323 0.10719 0.37246 0.0
H873 H 0.06179 0.06938 0.42847 0.0
H874 H 0.09039 0.09707 0.39713 0.0
H875 H 0.16075 0.10247 0.43848 0.0
H876 H 0.13158 0.07508 0.47088 0.0
H877 H 0.16975 0.09159 0.3827 0.0
H878 H 0.1295 0.15505 0.4468 0.0
H879 H 0.09267 0.17536 0.47333 0.0
H880 H 0.0583 0.18313 0.40458 0.0
H881 H 0.0946 0.16244 0.37767 0.0
C882 C 0.23293 0.19046 0.31603 0.0
C883 C 0.21919 0.20403 0.30174 0.0
C884 C 0.21831 0.17387 0.33439 0.0
C885 C 0.18942 0.16934 0.33818 0.0
C886 C 0.17563 0.18274 0.32375 0.0
C887 C 0.19034 0.20019 0.3061 0.0
C888 C 0.17367 0.15167 0.35791 0.0
C889 C 0.15242 0.16106 0.37465 0.0
C890 C 0.17975 0.1261 0.36085 0.0
C891 C 0.19981 0.11329 0.34257 0.0
C892 C 0.19739 0.10927 0.31586 0.0
C893 C 0.21631 0.09693 0.29876 0.0
C894 C 0.23755 0.0883 0.30819 0.0
C895 C 0.2399 0.09196 0.33475 0.0
C896 C 0.22109 0.10436 0.35192 0.0
C897 C 0.08352 0.07595 0.43068 0.0
C898 C 0.0945 0.06995 0.45211 0.0
C899 C 0.09973 0.09209 0.41289 0.0
C900 C 0.12749 0.10243 0.41584 0.0
C901 C 0.13919 0.09493 0.43612 0.0
C902 C 0.12271 0.07893 0.45434 0.0
C903 C 0.14405 0.12069 0.39732 0.0
C904 C 0.16534 0.11134 0.38082 0.0
C905 C 0.13724 0.14578 0.39395 0.0
C906 C 0.11461 0.15688 0.41025 0.0
C907 C 0.11384 0.16068 0.43736 0.0
C908 C 0.09311 0.17237 0.45246 0.0
C909 C 0.07312 0.18046 0.44065 0.0
C910 C 0.07375 0.1768 0.41372 0.0
C911 C 0.09438 0.16507 0.39855 0.0
H912 H 0.05718 0.18964 0.45238 0.0
H913 H 0.25216 0.07871 0.29491 0.0
H914 H 0.88571 0.1832 0.32703 0.0
H915 H 0.9081 0.17394 0.36297 0.0
H916 H 0.83591 0.11431 0.38388 0.0
H917 H 0.81331 0.12482 0.3494 0.0
H918 H 0.8593 0.13164 0.42439 0.0
H919 H 0.89476 0.10378 0.33303 0.0
H920 H 0.91862 0.11546 0.29069 0.0
H921 H 0.98896 0.16015 0.32761 0.0
H922 H 0.96531 0.14913 0.37019 0.0
H923 H 0.91593 0.03407 0.47481 0.0
H924 H 0.89248 0.05126 0.44377 0.0
H925 H 0.96446 0.1134 0.42947 0.0
H926 H 0.98752 0.09701 0.45887 0.0
H927 H 0.94332 0.09661 0.38645 0.0
H928 H 0.91252 0.1272 0.47516 0.0
H929 H 0.89391 0.11544 0.51891 0.0
H930 H 0.82033 0.06839 0.48896 0.0
H931 H 0.83875 0.07959 0.44497 0.0
C932 C 0.87436 0.16907 0.34014 0.0
C933 C 0.84813 0.15417 0.33533 0.0
C934 C 0.8872 0.16352 0.36044 0.0
C935 C 0.87415 0.14245 0.37536 0.0
C936 C 0.84666 0.13028 0.37242 0.0
C937 C 0.83374 0.13618 0.35263 0.0
C938 C 0.88952 0.12974 0.39107 0.0
C939 C 0.87764 0.12399 0.41598 0.0
C940 C 0.9138 0.12003 0.38049 0.0
C941 C 0.92818 0.12585 0.35476 0.0
C942 C 0.91531 0.1161 0.33208 0.0
C943 C 0.92876 0.12267 0.30806 0.0
C944 C 0.95526 0.13858 0.30647 0.0
C945 C 0.96841 0.14789 0.32887 0.0
C946 C 0.95498 0.14152 0.35295 0.0
C947 C 0.9266 0.05132 0.46498 0.0
C948 C 0.95333 0.06439 0.47015 0.0
C949 C 0.91336 0.06099 0.44713 0.0
C950 C 0.92678 0.08378 0.43448 0.0
C951 C 0.95371 0.09578 0.43879 0.0
C952 C 0.96671 0.08638 0.45625 0.0
C953 C 0.9125 0.09789 0.41919 0.0
C954 C 0.92484 0.10416 0.39464 0.0
C955 C 0.88913 0.10859 0.43025 0.0
C956 C 0.87689 0.1043 0.45691 0.0
C957 C 0.89224 0.1146 0.47801 0.0
C958 C 0.88182 0.1079 0.5028 0.0
C959 C 0.85593 0.09121 0.50672 0.0
C960 C 0.84034 0.08137 0.4859 0.0
C961 C 0.85072 0.08793 0.46105 0.0
H962 H 0.84796 0.08589 0.52589 0.0
H963 H 0.96563 0.14366 0.28786 0.0
H964 H 0.78588 0.82098 0.33119 0.0
H965 H 0.81542 0.84691 0.36305 0.0
H966 H 0.88711 0.83397 0.31074 0.0
H967 H 0.85701 0.80344 0.28099 0.0
H968 H 0.90085 0.83558 0.35403 0.0
H969 H 0.8541 0.89867 0.32338 0.0
H970 H 0.812 0.91239 0.31435 0.0
H971 H 0.78099 0.91326 0.39468 0.0
H972 H 0.82282 0.89939 0.40412 0.0
H973 H 0.98802 0.9499 0.42014 0.0
H974 H 0.96058 0.92097 0.38717 0.0
H975 H 0.88943 0.91194 0.44372 0.0
H976 H 0.91696 0.94021 0.47659 0.0
H977 H 0.87736 0.92297 0.39731 0.0
H978 H 0.92345 0.86083 0.42797 0.0
H979 H 0.96302 0.84306 0.43741 0.0
H980 H 0.99482 0.83974 0.35719 0.0
H981 H 0.95557 0.85778 0.34733 0.0
C982 C 0.80797 0.82323 0.32682 0.0
C983 C 0.81923 0.80982 0.304 0.0
C984 C 0.82499 0.8387 0.34479 0.0
C985 C 0.85381 0.84375 0.33912 0.0
C986 C 0.86506 0.83068 0.31582 0.0
C987 C 0.84791 0.81341 0.29868 0.0
C988 C 0.87203 0.86262 0.35733 0.0
C989 C 0.89591 0.85495 0.36297 0.0
C990 C 0.86561 0.88777 0.36982 0.0
C991 C 0.84152 0.89802 0.36442 0.0
C992 C 0.83836 0.902 0.33911 0.0
C993 C 0.81452 0.9097 0.33392 0.0
C994 C 0.79383 0.91368 0.35393 0.0
C995 C 0.79705 0.91023 0.37922 0.0
C996 C 0.82085 0.90256 0.38452 0.0
C997 C 0.96641 0.94209 0.42525 0.0
C998 C 0.95437 0.94764 0.45064 0.0
C999 C 0.95083 0.92536 0.40656 0.0
C1000 C 0.92295 0.91412 0.413 0.0
C1001 C 0.91084 0.92038 0.43826 0.0
C1002 C 0.92648 0.9367 0.45695 0.0
C1003 C 0.90611 0.896 0.39359 0.0
C1004 C 0.88248 0.90383 0.38787 0.0
C1005 C 0.9129 0.87119 0.38095 0.0
C1006 C 0.9368 0.86099 0.38698 0.0
C1007 C 0.93906 0.85662 0.4124 0.0
C1008 C 0.96138 0.84641 0.41782 0.0
C1009 C 0.98147 0.84036 0.39793 0.0
C1010 C 0.97928 0.84449 0.37259 0.0
C1011 C 0.957 0.85469 0.36707 0.0
H1012 H 0.99871 0.83241 0.40215 0.0
H1013 H 0.7753 0.91945 0.34983 0.0
H1014 H 0.17843 0.80847 0.39887 0.0
H1015 H 0.17913 0.85352 0.42389 0.0
H1016 H 0.1946 0.89024 0.35274 0.0
H1017 H 0.1994 0.84773 0.32893 0.0
H1018 H 0.18846 0.92726 0.38197 0.0
H1019 H 0.11128 0.83364 0.38408 0.0
H1020 H 0.09398 0.78983 0.40214 0.0
H1021 H 0.12083 0.82658 0.4757 0.0
H1022 H 0.13753 0.87068 0.45821 0.0
H1023 H 0.03296 0.9381 0.41772 0.0
H1024 H 0.06899 0.91851 0.38933 0.0
H1025 H 0.12923 0.96339 0.43953 0.0
H1026 H 0.09422 0.98399 0.46632 0.0
H1027 H 0.09463 0.88935 0.42052 0.0
H1028 H 0.17259 0.98267 0.41331 0.0
H1029 H 0.16947 0.02765 0.40185 0.0
H1030 H 0.12665 0.98863 0.33659 0.0
H1031 H 0.12877 0.9435 0.34822 0.0
C1032 C 0.18369 0.82656 0.38897 0.0
C1033 C 0.18707 0.82445 0.36192 0.0
C1034 C 0.18345 0.85217 0.4031 0.0
C1035 C 0.18272 0.87433 0.38987 0.0
C1036 C 0.19316 0.87329 0.3637 0.0
C1037 C 0.19561 0.8484 0.3498 0.0
C1038 C 0.1626 0.89242 0.39881 0.0
C1039 C 0.16809 0.91866 0.39042 0.0
C1040 C 0.13539 0.88171 0.40956 0.0
C1041 C 0.12661 0.85499 0.4196 0.0
C1042 C 0.11372 0.8322 0.40401 0.0
C1043 C 0.10384 0.80742 0.4142 0.0
C1044 C 0.10671 0.80531 0.43992 0.0
C1045 C 0.11892 0.82813 0.45569 0.0
C1046 C 0.12845 0.85302 0.44572 0.0
C1047 C 0.05425 0.94481 0.42145 0.0
C1048 C 0.06143 0.96237 0.44359 0.0
C1049 C 0.07459 0.93376 0.40544 0.0
C1050 C 0.10154 0.94014 0.41226 0.0
C1051 C 0.10875 0.95938 0.43338 0.0
C1052 C 0.08876 0.97085 0.4488 0.0
C1053 C 0.12073 0.92237 0.40244 0.0
C1054 C 0.115 0.8969 0.41118 0.0
C1055 C 0.14703 0.93322 0.39143 0.0
C1056 C 0.15162 0.95981 0.38117 0.0
C1057 C 0.16336 0.98377 0.39603 0.0
C1058 C 0.1613 1.00926 0.38979 0.0
C1059 C 0.14809 0.01101 0.36838 0.0
C1060 C 0.13705 0.98728 0.35306 0.0
C1061 C 0.13865 0.96176 0.35949 0.0
H1062 H 0.14625 0.03075 0.36377 0.0
H1063 H 0.09925 0.78607 0.44769 0.0
H1064 H 0.14179 0.8487 0.69687 0.0
H1065 H 0.11796 0.86029 0.66318 0.0
H1066 H 0.19619 0.8866 0.61976 0.0
H1067 H 0.21988 0.87522 0.65344 0.0
H1068 H 0.16685 0.92801 0.63798 0.0
H1069 H 0.1492 0.83575 0.59206 0.0
H1070 H 0.13079 0.78623 0.58835 0.0
H1071 H 0.05 0.8012 0.61645 0.0
H1072 H 0.06798 0.85083 0.62044 0.0
H1073 H 0.11745 0.96788 0.52643 0.0
H1074 H 0.14169 0.94752 0.55451 0.0
H1075 H 0.06683 0.9298 0.60533 0.0
H1076 H 0.0432 0.95095 0.57871 0.0
H1077 H 0.0929 0.88295 0.58303 0.0
H1078 H 0.10499 0.9694 0.63277 0.0
H1079 H 0.11727 0.01955 0.64032 0.0
H1080 H 0.20142 0.01641 0.61257 0.0
H1081 H 0.18947 0.96615 0.60438 0.0
C1082 C 0.15368 0.85562 0.67945 0.0
C1083 C 0.18252 0.86116 0.67752 0.0
C1084 C 0.14012 0.86231 0.66029 0.0
C1085 C 0.15541 0.87456 0.63918 0.0
C1086 C 0.18411 0.8772 0.63595 0.0
C1087 C 0.1976 0.87055 0.65505 0.0
C1088 C 0.14246 0.88954 0.6236 0.0
C1089 C 0.15115 0.91803 0.62545 0.0
C1090 C 0.12073 0.87675 0.60871 0.0
C1091 C 0.11 0.84696 0.60676 0.0
C1092 C 0.12757 0.82846 0.59767 0.0
C1093 C 0.11719 0.80038 0.59543 0.0
C1094 C 0.08926 0.79057 0.60222 0.0
C1095 C 0.07163 0.80883 0.61121 0.0
C1096 C 0.0819 0.83692 0.61341 0.0
C1097 C 0.10655 0.96035 0.54398 0.0
C1098 C 0.07839 0.96034 0.55003 0.0
C1099 C 0.12022 0.94855 0.55981 0.0
C1100 C 0.10566 0.93664 0.58148 0.0
C1101 C 0.07816 0.93844 0.58841 0.0
C1102 C 0.0648 0.95057 0.57312 0.0
C1103 C 0.11841 0.92102 0.59644 0.0
C1104 C 0.10914 0.89269 0.59504 0.0
C1105 C 0.13886 0.93398 0.61254 0.0
C1106 C 0.14627 0.9641 0.61751 0.0
C1107 C 0.12605 0.97943 0.62795 0.0
C1108 C 0.13295 1.00786 0.63242 0.0
C1109 C 0.16008 0.02118 0.62679 0.0
C1110 C 0.18038 1.00606 0.61682 0.0
C1111 C 0.17357 0.9776 0.61225 0.0
H1112 H 0.16539 0.0432 0.63024 0.0
H1113 H 0.08126 0.76883 0.60046 0.0
H1114 H 0.18851 0.24027 0.71188 0.0
H1115 H 0.15893 0.21092 0.68115 0.0
H1116 H 0.20156 0.14535 0.68314 0.0
H1117 H 0.23128 0.1745 0.71349 0.0
H1118 H 0.19473 0.15181 0.6338 0.0
H1119 H 0.13816 0.14553 0.71577 0.0
H1120 H 0.11397 0.16407 0.75624 0.0
H1121 H 0.06687 0.19998 0.71258 0.0
H1122 H 0.09115 0.18203 0.67187 0.0
H1123 H 0.10019 0.04313 0.56999 0.0
H1124 H 0.12921 0.0707 0.60255 0.0
H1125 H 0.08597 0.13668 0.60443 0.0
H1126 H 0.05748 0.10966 0.57223 0.0
H1127 H 0.09319 0.12995 0.65207 0.0
H1128 H 0.14809 0.14008 0.57164 0.0
H1129 H 0.17377 0.12764 0.52975 0.0
H1130 H 0.22445 0.09014 0.56802 0.0
H1131 H 0.19875 0.102 0.6101 0.0
C1132 C 0.19146 0.21955 0.70587 0.0
C1133 C 0.21204 0.20963 0.71539 0.0
C1134 C 0.17451 0.20278 0.68835 0.0
C1135 C 0.17786 0.17583 0.68003 0.0
C1136 C 0.19854 0.16602 0.68934 0.0
C1137 C 0.21538 0.18268 0.70687 0.0
C1138 C 0.16008 0.15776 0.66142 0.0
C1139 C 0.17255 0.14662 0.63797 0.0
C1140 C 0.13109 0.15182 0.6664 0.0
C1141 C 0.11661 0.16265 0.69084 0.0
C1142 C 0.1228 0.15757 0.71483 0.0
C1143 C 0.10906 0.16794 0.7378 0.0
C1144 C 0.08892 0.18323 0.73699 0.0
C1145 C 0.08249 0.18816 0.71319 0.0
C1146 C 0.09623 0.1779 0.69017 0.0
C1147 C 0.09664 0.06331 0.57779 0.0
C1148 C 0.0765 0.07419 0.56868 0.0
C1149 C 0.1134 0.07916 0.59611 0.0
C1150 C 0.10994 0.10591 0.60574 0.0
C1151 C 0.08909 0.11619 0.59733 0.0
C1152 C 0.07275 0.10064 0.57894 0.0
C1153 C 0.12786 0.12352 0.62454 0.0
C1154 C 0.1154 0.13479 0.64797 0.0
C1155 C 0.15682 0.13 0.6193 0.0
C1156 C 0.17121 0.12149 0.59393 0.0
C1157 C 0.1644 0.12876 0.57106 0.0
C1158 C 0.17904 0.12193 0.5473 0.0
C1159 C 0.20065 0.10801 0.5462 0.0
C1160 C 0.20763 0.10083 0.56887 0.0
C1161 C 0.19303 0.10757 0.59267 0.0
H1162 H 0.21206 0.10286 0.5278 0.0
H1163 H 0.07827 0.19121 0.7548 0.0
H1164 H 0.81557 0.14889 0.65789 0.0
H1165 H 0.81784 0.1297 0.61187 0.0
H1166 H 0.89147 0.18706 0.59557 0.0
H1167 H 0.89086 0.20586 0.64078 0.0
H1168 H 0.90546 0.1505 0.57104 0.0
H1169 H 0.86028 0.11515 0.67083 0.0
H1170 H 0.81993 0.0888 0.69435 0.0
H1171 H 0.79005 0.05114 0.62216 0.0
H1172 H 0.83022 0.07769 0.59824 0.0
H1173 H 1.00927 0.09512 0.5923 0.0
H1174 H 0.97696 0.12102 0.61839 0.0
H1175 H 0.91015 0.05405 0.60064 0.0
H1176 H 0.94223 0.02731 0.57803 0.0
H1177 H 0.89387 0.08658 0.63682 0.0
H1178 H 0.94574 0.11122 0.54108 0.0
H1179 H 0.99167 0.12898 0.5194 0.0
H1180 H 1.01125 0.18359 0.58789 0.0
H1181 H 0.96522 0.16663 0.60961 0.0
C1182 C 0.83234 0.15736 0.64432 0.0
C1183 C 0.85526 0.17602 0.65288 0.0
C1184 C 0.83359 0.14666 0.61815 0.0
C1185 C 0.85925 0.15191 0.60337 0.0
C1186 C 0.87444 0.17856 0.60885 0.0
C1187 C 0.87455 0.18926 0.63475 0.0
C1188 C 0.87691 0.13073 0.60046 0.0
C1189 C 0.90247 0.13632 0.58533 0.0
C1190 C 0.87382 0.11152 0.61877 0.0
C1191 C 0.84764 0.09913 0.63279 0.0
C1192 C 0.8447 0.10181 0.66002 0.0
C1193 C 0.82205 0.08664 0.67341 0.0
C1194 C 0.80248 0.06824 0.65975 0.0
C1195 C 0.80526 0.0654 0.63269 0.0
C1196 C 0.82782 0.0807 0.6192 0.0
C1197 C 0.98788 0.08545 0.59574 0.0
C1198 C 0.97767 0.06018 0.58215 0.0
C1199 C 0.96943 0.10042 0.60998 0.0
C1200 C 0.94124 0.09036 0.60909 0.0
C1201 C 0.9319 0.06264 0.6008 0.0
C1202 C 0.95036 0.04723 0.5878 0.0
C1203 C 0.92193 0.10865 0.60946 0.0
C1204 C 0.89647 0.10159 0.62331 0.0
C1205 C 0.92522 0.12669 0.59051 0.0
C1206 C 0.9524 0.1373 0.57705 0.0
C1207 C 0.95988 0.12703 0.55142 0.0
C1208 C 0.98587 0.13702 0.53912 0.0
C1209 C 1.00444 0.15726 0.55232 0.0
C1210 C 0.9969 0.1679 0.57769 0.0
C1211 C 0.97083 0.15825 0.58992 0.0
H1212 H 0.02462 0.16478 0.54285 0.0
H1213 H 0.78503 0.05631 0.67014 0.0
H1214 H 0.85496 0.8059 0.71934 0.0
H1215 H 0.88039 0.83746 0.68913 0.0
H1216 H 0.80424 0.85566 0.67314 0.0
H1217 H 0.77874 0.82549 0.70417 0.0
H1218 H 0.85221 0.83536 0.62809 0.0
H1219 H 0.82725 0.90265 0.70125 0.0
H1220 H 0.82736 0.92257 0.74697 0.0
H1221 H 0.91544 0.93347 0.74019 0.0
H1222 H 0.91574 0.91318 0.69451 0.0
H1223 H 0.89921 0.93543 0.54189 0.0
H1224 H 0.87099 0.90909 0.57531 0.0
H1225 H 0.93662 0.93424 0.62472 0.0
H1226 H 0.96366 0.96139 0.59229 0.0
H1227 H 0.89399 0.93193 0.65405 0.0
H1228 H 0.92415 0.8687 0.58578 0.0
H1229 H 0.93104 0.84509 0.54162 0.0
H1230 H 0.84357 0.82216 0.53954 0.0
H1231 H 0.83621 0.8458 0.58365 0.0
C1232 C 0.84362 0.81704 0.70987 0.0
C1233 C 0.81476 0.81337 0.71458 0.0
C1234 C 0.8582 0.83491 0.69246 0.0
C1235 C 0.84414 0.84894 0.67906 0.0
C1236 C 0.81543 0.84512 0.68345 0.0
C1237 C 0.80092 0.82784 0.70124 0.0
C1238 C 0.85915 0.86704 0.65984 0.0
C1239 C 0.86109 0.8566 0.63362 0.0
C1240 C 0.8717 0.8943 0.66722 0.0
C1241 C 0.87146 0.90604 0.69468 0.0
C1242 C 0.84658 0.90893 0.70965 0.0
C1243 C 0.84658 0.92038 0.73551 0.0
C1244 C 0.87138 0.92917 0.74652 0.0
C1245 C 0.89624 0.92657 0.73167 0.0
C1246 C 0.89633 0.9151 0.70581 0.0
C1247 C 0.90689 0.93624 0.5604 0.0
C1248 C 0.93331 0.95087 0.56478 0.0
C1249 C 0.89111 0.92067 0.57927 0.0
C1250 C 0.90182 0.9191 0.60249 0.0
C1251 C 0.92765 0.935 0.60719 0.0
C1252 C 0.94308 0.95074 0.58867 0.0
C1253 C 0.88684 0.90058 0.62175 0.0
C1254 C 0.88504 0.9108 0.64817 0.0
C1255 C 0.87535 0.87277 0.61457 0.0
C1256 C 0.87964 0.85933 0.5878 0.0
C1257 C 0.90641 0.85888 0.57577 0.0
C1258 C 0.91039 0.84541 0.5508 0.0
C1259 C 0.88776 0.83223 0.53774 0.0
C1260 C 0.86109 0.83244 0.54965 0.0
C1261 C 0.85699 0.84585 0.57463 0.0
H1262 H 0.89088 0.82178 0.51842 0.0
H1263 H 0.87134 0.93809 0.76653 0.0
H1264 H 0.29839 0.17311 0.22788 0.0
H1265 H 0.32917 0.14576 0.20055 0.0
H1266 H 0.36582 0.2152 0.16005 0.0
H1267 H 0.33466 0.24197 0.18688 0.0
H1268 H 0.36003 0.17427 0.12624 0.0
H1269 H 0.39666 0.18603 0.20944 0.0
H1270 H 0.39535 0.18132 0.25577 0.0
H1271 H 0.37234 0.09431 0.23946 0.0
H1272 H 0.37317 0.09852 0.19311 0.0
H1273 H 0.46977 0.11716 0.05104 0.0
H1274 H 0.4425 0.14587 0.08142 0.0
H1275 H 0.41191 0.07892 0.1266 0.0
H1276 H 0.43955 0.0511 0.09745 0.0
H1277 H 0.4153 0.11852 0.15953 0.0
H1278 H 0.36222 0.10471 0.08667 0.0
H1279 H 0.35002 0.10428 0.04271 0.0
H1280 H 0.39579 0.18599 0.03983 0.0
H1281 H 0.40652 0.18755 0.08475 0.0
C1282 C 0.3129 0.18242 0.21298 0.0
C1283 C 0.31393 0.20985 0.20963 0.0
C1284 C 0.33092 0.16683 0.19748 0.0
C1285 C 0.35072 0.17821 0.17817 0.0
C1286 C 0.35121 0.20555 0.17469 0.0
C1287 C 0.3333 0.22106 0.19017 0.0
C1288 C 0.37007 0.16183 0.16075 0.0
C1289 C 0.37254 0.16267 0.13384 0.0
C1290 C 0.38566 0.14509 0.16984 0.0
C1291 C 0.38474 0.14264 0.1978 0.0
C1292 C 0.39109 0.16592 0.21576 0.0
C1293 C 0.39048 0.16333 0.24203 0.0
C1294 C 0.38373 0.13754 0.25056 0.0
C1295 C 0.37755 0.11428 0.23284 0.0
C1296 C 0.3781 0.11676 0.20657 0.0
C1297 C 0.4577 0.10874 0.06772 0.0
C1298 C 0.4573 0.0815 0.0714 0.0
C1299 C 0.4415 0.1251 0.08503 0.0
C1300 C 0.42419 0.11482 0.10658 0.0
C1301 C 0.42468 0.08796 0.11055 0.0
C1302 C 0.44074 0.07182 0.0935 0.0
C1303 C 0.40562 0.13149 0.12498 0.0
C1304 C 0.40316 0.13055 0.15203 0.0
C1305 C 0.38928 0.1475 0.11617 0.0
C1306 C 0.38578 0.14596 0.08858 0.0
C1307 C 0.37006 0.12238 0.07644 0.0
C1308 C 0.36319 0.12204 0.05147 0.0
C1309 C 0.37274 0.14481 0.03813 0.0
C1310 C 0.3887 0.16824 0.05004 0.0
C1311 C 0.39491 0.169 0.07537 0.0
H1312 H 0.36749 0.14439 0.0187 0.0
H1313 H 0.38333 0.13558 0.27089 0.0
H1314 H 0.79945 0.27687 0.17666 0.0
H1315 H 0.82576 0.30504 0.14435 0.0
H1316 H 0.85815 0.36538 0.2053 0.0
H1317 H 0.82971 0.33813 0.23762 0.0
H1318 H 0.85139 0.39149 0.17072 0.0
H1319 H 0.903 0.31685 0.16058 0.0
H1320 H 0.912 0.27017 0.15158 0.0
H1321 H 0.86661 0.25503 0.08532 0.0
H1322 H 0.85929 0.30257 0.09276 0.0
H1323 H 0.96846 0.45653 0.09533 0.0
H1324 H 0.93726 0.42954 0.12616 0.0
H1325 H 0.89953 0.37767 0.06264 0.0
H1326 H 0.93127 0.4045 0.03179 0.0
H1327 H 0.90637 0.34841 0.09692 0.0
H1328 H 0.86885 0.42855 0.10145 0.0
H1329 H 0.86726 0.47756 0.1077 0.0
H1330 H 0.88724 0.48369 0.18569 0.0
H1331 H 0.88939 0.4348 0.1798 0.0
C1332 C 0.8122 0.29618 0.1831 0.0
C1333 C 0.81263 0.30531 0.2096 0.0
C1334 C 0.82758 0.3122 0.16459 0.0
C1335 C 0.84486 0.33716 0.17211 0.0
C1336 C 0.84514 0.34629 0.19875 0.0
C1337 C 0.82895 0.33068 0.21727 0.0
C1338 C 0.86244 0.35371 0.15232 0.0
C1339 C 0.86371 0.38207 0.15481 0.0
C1340 C 0.8779 0.34173 0.13083 0.0
C1341 C 0.88007 0.31281 0.12756 0.0
C1342 C 0.89462 0.30338 0.14433 0.0
C1343 C 0.89951 0.27682 0.13944 0.0
C1344 C 0.88912 0.25925 0.11842 0.0
C1345 C 0.87435 0.2685 0.1018 0.0
C1346 C 0.87014 0.29534 0.10612 0.0
C1347 C 0.95416 0.4387 0.08801 0.0
C1348 C 0.95285 0.43193 0.06122 0.0
C1349 C 0.93587 0.42373 0.10563 0.0
C1350 C 0.91553 0.40194 0.09681 0.0
C1351 C 0.91495 0.39447 0.06995 0.0
C1352 C 0.93341 0.4094 0.05229 0.0
C1353 C 0.89576 0.38612 0.11554 0.0
C1354 C 0.89397 0.35788 0.11276 0.0
C1355 C 0.88007 0.39843 0.13673 0.0
C1356 C 0.87954 0.42802 0.14008 0.0
C1357 C 0.87323 0.4404 0.11984 0.0
C1358 C 0.87215 0.46816 0.12334 0.0
C1359 C 0.8772 0.48374 0.14706 0.0
C1360 C 0.88337 0.4716 0.16731 0.0
C1361 C 0.88451 0.44387 0.1639 0.0
H1362 H 0.87628 0.5052 0.14975 0.0
H1363 H 0.89287 0.23863 0.1148 0.0
H1364 H 0.68447 0.90325 0.20196 0.0
H1365 H 0.65022 0.91718 0.18073 0.0
H1366 H 0.65239 0.84844 0.12171 0.0
H1367 H 0.68842 0.83553 0.1424 0.0
H1368 H 0.6581 0.89104 0.09933 0.0
H1369 H 0.59139 0.85785 0.16781 0.0
H1370 H 0.57603 0.85257 0.21375 0.0
H1371 H 0.5828 0.93929 0.23126 0.0
H1372 H 0.59836 0.94509 0.18546 0.0
H1373 H 0.55723 0.92567 0.03505 0.0
H1374 H 0.57502 0.90111 0.0642 0.0
H1375 H 0.59928 0.97664 0.11267 0.0
H1376 H 0.58157 1.00127 0.08328 0.0
H1377 H 0.57572 0.92729 0.14065 0.0
H1378 H 0.65047 0.95943 0.07395 0.0
H1379 H 0.66374 0.96487 0.02767 0.0
H1380 H 0.63675 0.8787 1.00802 0.0
H1381 H 0.62509 0.8727 0.0538 0.0
C1382 C 0.67686 0.89052 0.18499 0.0
C1383 C 0.68895 0.86826 0.1739 0.0
C1384 C 0.65712 0.89845 0.17282 0.0
C1385 C 0.64827 0.88381 0.1496 0.0
C1386 C 0.65879 0.86015 0.13958 0.0
C1387 C 0.67905 0.85248 0.1516 0.0
C1388 C 0.63077 0.89515 0.13449 0.0
C1389 C 0.6398 0.89837 0.10844 0.0
C1390 C 0.60713 0.90549 0.14613 0.0
C1391 C 0.59599 0.90189 0.17325 0.0
C1392 C 0.58947 0.87577 0.18146 0.0
C1393 C 0.58079 0.87269 0.20747 0.0
C1394 C 0.57844 0.89558 0.22541 0.0
C1395 C 0.58454 0.92157 0.21733 0.0
C1396 C 0.59317 0.92476 0.19134 0.0
C1397 C 0.56587 0.93688 0.05222 0.0
C1398 C 0.56799 0.96525 0.0571 0.0
C1399 C 0.57599 0.92288 0.06887 0.0
C1400 C 0.58842 0.93702 0.09069 0.0
C1401 C 0.58953 0.96529 0.09612 0.0
C1402 C 0.57956 0.97934 0.07932 0.0
C1403 C 0.60316 0.92284 0.10583 0.0
C1404 C 0.59379 0.91944 0.13175 0.0
C1405 C 0.62647 0.91226 0.09424 0.0
C1406 C 0.63715 0.91558 0.06713 0.0
C1407 C 0.64814 0.94162 0.05963 0.0
C1408 C 0.65551 0.94479 0.03346 0.0
C1409 C 0.65163 0.92209 0.01474 0.0
C1410 C 0.64073 0.8962 0.02226 0.0
C1411 C 0.63395 0.89284 0.04835 0.0
H1412 H 0.65671 0.92462 0.99444 0.0
H1413 H 0.5719 0.89317 0.24557 0.0
H1414 H 0.25667 0.69863 0.17703 0.0
H1415 H 0.22637 0.66863 0.14717 0.0
H1416 H 0.1553 0.68702 0.19735 0.0
H1417 H 0.18491 0.71475 0.22775 0.0
H1418 H 0.14396 0.63808 0.1819 0.0
H1419 H 0.18177 0.71621 0.13727 0.0
H1420 H 0.21895 0.75044 0.11848 0.0
H1421 H 0.24964 0.68709 0.06665 0.0
H1422 H 0.21284 0.65245 0.08536 0.0
H1423 H 0.04912 0.58459 0.08486 0.0
H1424 H 0.07644 0.61554 0.11671 0.0
H1425 H 0.15007 0.58973 0.07836 0.0
H1426 H 0.12339 0.55913 0.04696 0.0
H1427 H 0.15782 0.64475 0.08763 0.0
H1428 H 0.1186 0.5671 0.13519 0.0
H1429 H 0.08061 0.53463 0.15532 0.0
H1430 H 0.05029 0.60108 0.20254 0.0
H1431 H 0.0879 0.63396 0.18239 0.0
C1432 C 0.23459 0.696 0.18173 0.0
C1433 C 0.22339 0.70938 0.20471 0.0
C1434 C 0.21722 0.6791 0.16451 0.0
C1435 C 0.18836 0.67589 0.16964 0.0
C1436 C 0.17735 0.68899 0.19277 0.0
C1437 C 0.19452 0.70512 0.21015 0.0
C1438 C 0.16933 0.65874 0.15137 0.0
C1439 C 0.14686 0.63994 0.16134 0.0
C1440 C 0.17289 0.66086 0.12447 0.0
C1441 C 0.19467 0.68172 0.11284 0.0
C1442 C 0.19651 0.70958 0.12193 0.0
C1443 C 0.21752 0.72905 0.11129 0.0
C1444 C 0.23667 0.72094 0.09141 0.0
C1445 C 0.2348 0.69335 0.08205 0.0
C1446 C 0.21385 0.67378 0.09264 0.0
C1447 C 0.07106 0.58528 0.08348 0.0
C1448 C 0.08398 0.56939 0.06324 0.0
C1449 C 0.08668 0.60305 0.10161 0.0
C1450 C 0.1154 0.60509 0.09981 0.0
C1451 C 0.12806 0.58878 0.08001 0.0
C1452 C 0.11262 0.57113 0.06208 0.0
C1453 C 0.13277 0.6241 0.11823 0.0
C1454 C 0.15487 0.64324 0.10826 0.0
C1455 C 0.12855 0.62273 0.1452 0.0
C1456 C 0.10585 0.60297 0.15708 0.0
C1457 C 0.10368 0.57478 0.14968 0.0
C1458 C 0.08225 0.55631 0.16113 0.0
C1459 C 0.063 0.56579 0.18015 0.0
C1460 C 0.06517 0.59376 0.18777 0.0
C1461 C 0.08653 0.61232 0.17635 0.0
H1462 H 0.04646 0.55145 0.18902 0.0
H1463 H 0.25295 0.73604 0.08322 0.0
H1464 H 0.29791 0.78512 0.84242 0.0
H1465 H 0.32806 0.81439 0.87305 0.0
H1466 H 0.3638 0.86612 0.81386 0.0
H1467 H 0.33302 0.83767 0.78365 0.0
H1468 H 0.40289 0.84715 0.84315 0.0
H1469 H 0.32628 0.89491 0.85524 0.0
H1470 H 0.27753 0.89895 0.86436 0.0
H1471 H 0.27213 0.86541 0.93602 0.0
H1472 H 0.32103 0.86151 0.9274 0.0
H1473 H 0.47872 0.95992 0.92129 0.0
H1474 H 0.45117 0.92974 0.88911 0.0
H1475 H 0.39562 0.8943 0.95084 0.0
H1476 H 0.4222 0.92473 0.98254 0.0
H1477 H 0.3666 0.90476 0.91899 0.0
H1478 H 0.44356 0.86051 0.91015 0.0
H1479 H 0.49252 0.85706 0.90269 0.0
H1480 H 0.49746 0.8802 0.82634 0.0
H1481 H 0.44863 0.8843 0.83355 0.0
C1482 C 0.31217 0.80281 0.83607 0.0
C1483 C 0.31315 0.80925 0.81077 0.0
C1484 C 0.32933 0.81947 0.85351 0.0
C1485 C 0.34824 0.84235 0.84565 0.0
C1486 C 0.34939 0.84857 0.82029 0.0
C1487 C 0.33171 0.83243 0.80313 0.0
C1488 C 0.36677 0.85989 0.86387 0.0
C1489 C 0.39509 0.85999 0.85962 0.0
C1490 C 0.35653 0.87607 0.88564 0.0
C1491 C 0.32709 0.87768 0.89057 0.0
C1492 C 0.3146 0.88823 0.87284 0.0
C1493 C 0.28703 0.89066 0.878 0.0
C1494 C 0.2717 0.88235 0.90071 0.0
C1495 C 0.284 0.87179 0.91841 0.0
C1496 C 0.31167 0.86959 0.91347 0.0
C1497 C 0.46083 0.9454 0.92783 0.0
C1498 C 0.45252 0.94481 0.95438 0.0
C1499 C 0.44507 0.92814 0.90948 0.0
C1500 C 0.42117 0.90963 0.91747 0.0
C1501 C 0.41367 0.9085 0.94404 0.0
C1502 C 0.429 0.9259 0.96219 0.0
C1503 C 0.40308 0.8921 0.89858 0.0
C1504 C 0.37468 0.89194 0.90265 0.0
C1505 C 0.41331 0.87554 0.8769 0.0
C1506 C 0.44257 0.873 0.87249 0.0
C1507 C 0.45517 0.86509 0.89185 0.0
C1508 C 0.48288 0.86299 0.88766 0.0
C1509 C 0.49812 0.86848 0.86408 0.0
C1510 C 0.48565 0.87602 0.84462 0.0
C1511 C 0.45797 0.87824 0.84874 0.0
H1512 H 0.51957 0.86683 0.86086 0.0
H1513 H 0.2503 0.8841 0.90459 0.0
H1514 H 0.18394 0.2697 0.8208 0.0
H1515 H 0.15329 0.29613 0.84914 0.0
H1516 H 0.20532 0.37072 0.82784 0.0
H1517 H 0.23605 0.34448 0.79977 0.0
H1518 H 0.19173 0.37777 0.87724 0.0
H1519 H 0.14099 0.34632 0.80612 0.0
H1520 H 0.11628 0.3155 0.77239 0.0
H1521 H 0.05974 0.27632 0.83081 0.0
H1522 H 0.08444 0.3066 0.86494 0.0
H1523 H 0.10355 0.46992 0.92532 0.0
H1524 H 0.12951 0.43993 0.89756 0.0
H1525 H 0.07766 0.37046 0.92919 0.0
H1526 H 0.05079 0.40106 0.95801 0.0
H1527 H 0.09056 0.35967 0.8757 0.0
H1528 H 0.14308 0.39925 0.94669 0.0
H1529 H 0.16622 0.43691 0.97583 0.0
H1530 H 0.22138 0.46676 0.91185 0.0
H1531 H 0.19733 0.4301 0.88192 0.0
C1532 C 0.18902 0.29172 0.82218 0.0
C1533 C 0.21285 0.30468 0.80782 0.0
C1534 C 0.17117 0.30696 0.83833 0.0
C1535 C 0.17649 0.33576 0.84083 0.0
C1536 C 0.20037 0.34868 0.82658 0.0
C1537 C 0.21805 0.33349 0.81031 0.0
C1538 C 0.15789 0.35247 0.85871 0.0
C1539 C 0.16964 0.37382 0.87661 0.0
C1540 C 0.12882 0.34769 0.85847 0.0
C1541 C 0.11488 0.3284 0.8381 0.0
C1542 C 0.1236 0.3308 0.81179 0.0
C1543 C 0.10951 0.31351 0.79259 0.0
C1544 C 0.08653 0.29387 0.79945 0.0
C1545 C 0.07762 0.29145 0.82553 0.0
C1546 C 0.09168 0.30865 0.84481 0.0
C1547 C 0.09712 0.44829 0.92675 0.0
C1548 C 0.0746 0.43838 0.94459 0.0
C1549 C 0.11246 0.43097 0.91059 0.0
C1550 C 0.10634 0.40266 0.91127 0.0
C1551 C 0.08326 0.39222 0.92823 0.0
C1552 C 0.06775 0.40981 0.9448 0.0
C1553 C 0.1244 0.38463 0.89441 0.0
C1554 C 0.1126 0.36325 0.87655 0.0
C1555 C 0.1536 0.38995 0.89408 0.0
C1556 C 0.16817 0.41202 0.91202 0.0
C1557 C 0.15992 0.414 0.93875 0.0
C1558 C 0.17328 0.4352 0.95544 0.0
C1559 C 0.19549 0.45414 0.9458 0.0
C1560 C 0.2042 0.45206 0.91932 0.0
C1561 C 0.19057 0.43116 0.90245 0.0
H1562 H 0.20589 0.47046 0.95884 0.0
H1563 H 0.07556 0.2806 0.78455 0.0
H1564 H 0.70392 0.25122 0.82949 0.0
H1565 H 0.67189 0.22582 0.86112 0.0
H1566 H 0.70155 0.15237 0.82877 0.0
H1567 H 0.73179 0.17746 0.79619 0.0
H1568 H 0.6496 0.14088 0.83576 0.0
H1569 H 0.71852 0.18879 0.88771 0.0
H1570 H 0.75024 0.22785 0.90791 0.0
H1571 H 0.68165 0.26178 0.94668 0.0
H1572 H 0.64949 0.22317 0.92626 0.0
H1573 H 0.60592 0.05799 0.93283 0.0
H1574 H 0.63014 0.08818 0.90301 0.0
H1575 H 0.58671 0.15115 0.94007 0.0
H1576 H 0.56264 0.12068 0.97235 0.0
H1577 H 0.64116 0.17033 0.93024 0.0
H1578 H 0.57334 0.11169 0.87714 0.0
H1579 H 0.54882 0.0672 0.85796 0.0
H1580 H 0.62555 0.04662 0.82288 0.0
H1581 H 0.65053 0.09075 0.84205 0.0
C1582 C 0.7036 0.22969 0.82937 0.0
C1583 C 0.72087 0.21631 0.81105 0.0
C1584 C 0.68548 0.21523 0.8475 0.0
C1585 C 0.68457 0.18723 0.84766 0.0
C1586 C 0.70196 0.17397 0.82923 0.0
C1587 C 0.71972 0.18837 0.81094 0.0
C1588 C 0.66473 0.17141 0.86621 0.0
C1589 C 0.64788 0.14729 0.85644 0.0
C1590 C 0.66228 0.17981 0.89319 0.0
C1591 C 0.68158 0.20328 0.90515 0.0
C1592 C 0.71019 0.20474 0.90028 0.0
C1593 C 0.72826 0.22678 0.91182 0.0
C1594 C 0.71797 0.24733 0.92851 0.0
C1595 C 0.68959 0.24588 0.93369 0.0
C1596 C 0.67143 0.22394 0.92212 0.0
C1597 C 0.60109 0.07819 0.93517 0.0
C1598 C 0.5822 0.08682 0.95558 0.0
C1599 C 0.61491 0.09542 0.91746 0.0
C1600 C 0.60974 0.12169 0.91861 0.0
C1601 C 0.59071 0.13069 0.93861 0.0
C1602 C 0.57693 0.11331 0.957 0.0
C1603 C 0.62601 0.13981 0.89979 0.0
C1604 C 0.6424 0.16432 0.9095 0.0
C1605 C 0.62903 0.13106 0.8728 0.0
C1606 C 0.61378 0.10459 0.86107 0.0
C1607 C 0.58498 0.09765 0.8654 0.0
C1608 C 0.57101 0.07247 0.85452 0.0
C1609 C 0.58562 0.05411 0.83921 0.0
C1610 C 0.61424 0.06087 0.8347 0.0
C1611 C 0.6283 0.08598 0.84552 0.0
H1612 H 0.57476 0.03464 0.83082 0.0
H1613 H 0.73199 0.26434 0.93748 0.0
H1614 H 0.89024 0.71684 0.87603 0.0
H1615 H 0.90287 0.68632 0.90291 0.0
H1616 H 0.86819 0.61664 0.85169 0.0
H1617 H 0.85554 0.64727 0.82476 0.0
H1618 H 0.86146 0.60878 0.90736 0.0
H1619 H 0.93045 0.63814 0.83859 0.0
H1620 H 0.95873 0.67365 0.81352 0.0
H1621 H 0.99676 0.71291 0.88143 0.0
H1622 H 0.96819 0.67792 0.90706 0.0
H1623 H 0.93412 0.51904 0.94799 0.0
H1624 H 0.91529 0.54378 0.91981 0.0
H1625 H 0.96667 0.61897 0.94898 0.0
H1626 H 0.98706 0.59371 0.97536 0.0
H1627 H 0.96321 0.62218 0.90235 0.0
H1628 H 0.89397 0.59528 0.97198 0.0
H1629 H 0.86463 0.56168 0.9986 0.0
H1630 H 0.82658 0.51965 0.93157 0.0
H1631 H 0.85597 0.55283 0.90449 0.0
C1632 C 0.88443 0.69498 0.87111 0.0
C1633 C 0.87176 0.68428 0.84854 0.0
C1634 C 0.89173 0.67757 0.88637 0.0
C1635 C 0.88667 0.64922 0.87917 0.0
C1636 C 0.87214 0.63842 0.85768 0.0
C1637 C 0.86491 0.65587 0.84234 0.0
C1638 C 0.89996 0.63152 0.89182 0.0
C1639 C 0.88368 0.61144 0.90609 0.0
C1640 C 0.92895 0.63522 0.89037 0.0
C1641 C 0.94707 0.65552 0.87477 0.0
C1642 C 0.94477 0.65441 0.8482 0.0
C1643 C 0.96081 0.67445 0.8339 0.0
C1644 C 0.97951 0.69555 0.84589 0.0
C1645 C 0.98225 0.69657 0.87218 0.0
C1646 C 0.96615 0.67662 0.88661 0.0
C1647 C 0.94163 0.54077 0.94793 0.0
C1648 C 0.96191 0.55456 0.96377 0.0
C1649 C 0.93069 0.555 0.93207 0.0
C1650 C 0.9388 0.58354 0.93278 0.0
C1651 C 0.95986 0.59706 0.94803 0.0
C1652 C 0.9715 0.58266 0.96316 0.0
C1653 C 0.92479 0.59951 0.91855 0.0
C1654 C 0.94097 0.61932 0.90377 0.0
C1655 C 0.89567 0.59571 0.91981 0.0
C1656 C 0.87725 0.57642 0.93621 0.0
C1657 C 0.87934 0.57886 0.96294 0.0
C1658 C 0.86274 0.55987 0.97809 0.0
C1659 C 0.84378 0.53852 0.96678 0.0
C1660 C 0.84128 0.5362 0.9403 0.0
C1661 C 0.85787 0.55511 0.92505 0.0
H1662 H 0.83099 0.5238 0.97853 0.0
H1663 H 0.99189 0.71108 0.83479 0.0
H1664 H 0.15759 0.37062 0.2032 0.0
H1665 H 0.14579 0.40164 0.17646 0.0
H1666 H 0.15094 0.34177 0.1095 0.0
H1667 H 0.16353 0.31098 0.13626 0.0
H1668 H 0.16722 0.39451 0.09677 0.0
H1669 H 0.09054 0.34294 0.146 0.0
H1670 H 0.06746 0.3271 0.18709 0.0
H1671 H 0.06456 0.40975 0.21915 0.0
H1672 H 0.08812 0.42612 0.17836 0.0
H1673 H 0.08108 0.43219 0.01952 0.0
H1674 H 0.1002 0.40675 0.0466 0.0
H1675 H 0.08372 0.46413 0.1132 0.0
H1676 H 0.06319 0.48892 0.08605 0.0
H1677 H 0.07457 0.41491 0.12759 0.0
H1678 H 0.1501 0.46725 0.08006 0.0
H1679 H 0.17973 0.48547 0.04266 0.0
H1680 H 0.18754 0.40427 0.00947 0.0
H1681 H 0.15774 0.38553 0.04661 0.0
C1682 C 0.15722 0.36458 0.18258 0.0
C1683 C 0.16145 0.33853 0.17172 0.0
C1684 C 0.15025 0.38217 0.16735 0.0
C1685 C 0.14673 0.37375 0.1411 0.0
C1686 C 0.15334 0.34864 0.12973 0.0
C1687 C 0.16062 0.3311 0.14497 0.0
C1688 C 0.13323 0.38958 0.12643 0.0
C1689 C 0.14685 0.3987 0.10333 0.0
C1690 C 0.10689 0.39567 0.13531 0.0
C1691 C 0.09116 0.38575 0.15919 0.0
C1692 C 0.08493 0.35772 0.16181 0.0
C1693 C 0.07185 0.34866 0.18506 0.0
C1694 C 0.06457 0.36741 0.20573 0.0
C1695 C 0.07021 0.39525 0.20312 0.0
C1696 C 0.08341 0.40444 0.17993 0.0
C1697 C 0.08134 0.43919 0.04 0.0
C1698 C 0.07089 0.46254 0.05074 0.0
C1699 C 0.09243 0.42477 0.05546 0.0
C1700 C 0.09418 0.43387 0.08189 0.0
C1701 C 0.08279 0.45673 0.09287 0.0
C1702 C 0.07108 0.4709 0.07741 0.0
C1703 C 0.10851 0.41978 0.09763 0.0
C1704 C 0.09497 0.41085 0.12096 0.0
C1705 C 0.13506 0.41403 0.08906 0.0
C1706 C 0.15175 0.42502 0.06609 0.0
C1707 C 0.15795 0.45327 0.06467 0.0
C1708 C 0.17484 0.4637 0.04358 0.0
C1709 C 0.18576 0.44606 0.02388 0.0
C1710 C 0.17931 0.41791 0.02491 0.0
C1711 C 0.16243 0.40738 0.04597 0.0
H1712 H 0.1992 0.45424 1.00779 0.0
H1713 H 0.05453 0.36037 0.22376 0.0
H1714 H 0.21149 0.67965 0.78274 0.0
H1715 H 0.18339 0.65156 0.81448 0.0
H1716 H 0.19262 0.72079 0.8733 0.0
H1717 H 0.22042 0.74928 0.84145 0.0
H1718 H 0.20119 0.66827 0.88817 0.0
H1719 H 0.12755 0.70456 0.85529 0.0
H1720 H 0.10057 0.71231 0.82199 0.0
H1721 H 0.09677 0.62946 0.78723 0.0
H1722 H 0.12222 0.62076 0.82154 0.0
H1723 H 0.09794 0.62024 0.98696 0.0
H1724 H 0.12784 0.64817 0.95558 0.0
H1725 H 0.09768 0.58896 0.89291 0.0
H1726 H 0.06744 0.56202 0.92394 0.0
H1727 H 0.102 0.63465 0.87883 0.0
H1728 H 0.16209 0.59299 0.91433 0.0
H1729 H 0.18566 0.57872 0.94697 0.0
H1730 H 0.21931 0.66246 0.9717 0.0
H1731 H 0.19568 0.67727 0.93937 0.0
C1732 C 0.20757 0.68893 0.80244 0.0
C1733 C 0.21812 0.71672 0.80961 0.0
C1734 C 0.19151 0.67283 0.82054 0.0
C1735 C 0.18598 0.68408 0.84625 0.0
C1736 C 0.19674 0.71172 0.85356 0.0
C1737 C 0.21244 0.72799 0.83534 0.0
C1738 C 0.1682 0.66721 0.86527 0.0
C1739 C 0.17941 0.66115 0.88643 0.0
C1740 C 0.14023 0.65665 0.86225 0.0
C1741 C 0.12704 0.6622 0.84059 0.0
C1742 C 0.12121 0.68813 0.84034 0.0
C1743 C 0.10611 0.69265 0.82136 0.0
C1744 C 0.09748 0.6716 0.80212 0.0
C1745 C 0.10363 0.64581 0.80203 0.0
C1746 C 0.11814 0.64099 0.82138 0.0
C1747 C 0.09696 0.61397 0.96643 0.0
C1748 C 0.0799 0.58944 0.95776 0.0
C1749 C 0.11452 0.6295 0.94853 0.0
C1750 C 0.11544 0.62047 0.92181 0.0
C1751 C 0.09744 0.59651 0.91331 0.0
C1752 C 0.0799 0.58125 0.93105 0.0
C1753 C 0.13459 0.63594 0.90241 0.0
C1754 C 0.12375 0.64159 0.8809 0.0
C1755 C 0.16312 0.64498 0.90468 0.0
C1756 C 0.1768 0.63627 0.92465 0.0
C1757 C 0.17424 0.60839 0.92693 0.0
C1758 C 0.1877 0.60019 0.94532 0.0
C1759 C 0.2039 0.61967 0.96146 0.0
C1760 C 0.20671 0.64739 0.95922 0.0
C1761 C 0.1933 0.65571 0.94085 0.0
H1762 H 0.21436 0.61329 0.97564 0.0
H1763 H 0.08573 0.67519 0.78748 0.0
H1764 H 0.37891 0.18337 0.83307 0.0
H1765 H 0.40928 0.17258 0.86188 0.0
H1766 H 0.34328 0.10988 0.8892 0.0
H1767 H 0.31317 0.12127 0.86129 0.0
H1768 H 0.36972 0.12923 0.9265 0.0
H1769 H 0.39521 0.09955 0.83743 0.0
H1770 H 0.41093 0.10513 0.79167 0.0
H1771 H 0.48712 0.15477 0.81344 0.0
H1772 H 0.47155 0.14998 0.85947 0.0
H1773 H 0.42477 0.02458 0.95814 0.0
H1774 H 0.40592 0.04989 0.93074 0.0
H1775 H 0.48001 0.11153 0.93099 0.0
H1776 H 0.49966 0.08531 0.95734 0.0
H1777 H 0.45617 0.10235 0.88347 0.0
H1778 H 0.42399 0.11498 0.97641 0.0
H1779 H 0.40345 0.09171 0.0146 0.0
H1780 H 0.33016 0.05793 0.9775 0.0
H1781 H 0.3507 0.07988 0.93868 0.0
C1782 C 0.37087 0.16786 0.84586 0.0
C1783 C 0.34388 0.15293 0.84495 0.0
C1784 C 0.38824 0.1615 0.86212 0.0
C1785 C 0.37887 0.13993 0.8774 0.0
C1786 C 0.35122 0.12651 0.87765 0.0
C1787 C 0.33397 0.13293 0.86162 0.0
C1788 C 0.39773 0.12942 0.89163 0.0
C1789 C 0.38869 0.12354 0.91703 0.0
C1790 C 0.4226 0.12186 0.87949 0.0
C1791 C 0.43205 0.12479 0.8519 0.0
C1792 C 0.41521 0.11187 0.83248 0.0
C1793 C 0.42409 0.11489 0.8065 0.0
C1794 C 0.44997 0.13039 0.79966 0.0
C1795 C 0.46704 0.14287 0.81879 0.0
C1796 C 0.45817 0.14006 0.84483 0.0
C1797 C 0.43729 0.04321 0.95187 0.0
C1798 C 0.46353 0.05312 0.96011 0.0
C1799 C 0.42649 0.05772 0.93626 0.0
C1800 C 0.44119 0.08308 0.92947 0.0
C1801 C 0.46817 0.09217 0.9362 0.0
C1802 C 0.47935 0.07719 0.95128 0.0
C1803 C 0.42726 0.10103 0.91766 0.0
C1804 C 0.43754 0.1087 0.89304 0.0
C1805 C 0.40251 0.10874 0.92983 0.0
C1806 C 0.389 0.09892 0.95456 0.0
C1807 C 0.40345 0.1027 0.97646 0.0
C1808 C 0.39193 0.08945 0.99808 0.0
C1809 C 0.36566 0.07308 0.99831 0.0
C1810 C 0.3506 0.07041 0.97719 0.0
C1811 C 0.36221 0.08318 0.95535 0.0
H1812 H 0.35688 0.0626 0.01496 0.0
H1813 H 0.45684 0.13265 0.77952 0.0
H1814 H 0.7773 0.30501 0.84613 0.0
H1815 H 0.80852 0.33188 0.87717 0.0
H1816 H 0.87001 0.35346 0.81397 0.0
H1817 H 0.83926 0.32691 0.78332 0.0
H1818 H 0.8942 0.34029 0.85179 0.0
H1819 H 0.83223 0.39883 0.8449 0.0
H1820 H 0.78693 0.41131 0.84609 0.0
H1821 H 0.76846 0.39698 0.92578 0.0
H1822 H 0.81356 0.3839 0.92492 0.0
H1823 H 0.97946 0.4531 0.92417 0.0
H1824 H 0.95162 0.42328 0.89192 0.0
H1825 H 0.88654 0.40234 0.95244 0.0
H1826 H 0.91352 0.43201 0.98409 0.0
H1827 H 0.86541 0.41483 0.91462 0.0
H1828 H 0.92942 0.35764 0.92167 0.0
H1829 H 0.97539 0.34639 0.91979 0.0
H1830 H 0.99097 0.35831 0.8394 0.0
H1831 H 0.94522 0.37006 0.84093 0.0
C1832 C 0.79719 0.31606 0.83895 0.0
C1833 C 0.8056 0.3141 0.81229 0.0
C1834 C 0.81522 0.33112 0.85665 0.0
C1835 C 0.84185 0.34466 0.84796 0.0
C1836 C 0.84987 0.34304 0.8213 0.0
C1837 C 0.83203 0.32808 0.80376 0.0
C1838 C 0.86108 0.36152 0.86633 0.0
C1839 C 0.88796 0.3567 0.86543 0.0
C1840 C 0.8532 0.38287 0.88426 0.0
C1841 C 0.82614 0.39044 0.88485 0.0
C1842 C 0.81841 0.39817 0.86262 0.0
C1843 C 0.79283 0.40531 0.86321 0.0
C1844 C 0.77504 0.40517 0.88604 0.0
C1845 C 0.78242 0.39724 0.90818 0.0
C1846 C 0.80798 0.38997 0.90765 0.0
C1847 C 0.95929 0.44196 0.93051 0.0
C1848 C 0.94866 0.44532 0.95671 0.0
C1849 C 0.94338 0.42484 0.9121 0.0
C1850 C 0.91678 0.41049 0.91965 0.0
C1851 C 0.90673 0.41331 0.94591 0.0
C1852 C 0.92233 0.43042 0.96408 0.0
C1853 C 0.89849 0.39339 0.9006 0.0
C1854 C 0.87174 0.3983 0.90118 0.0
C1855 C 0.90663 0.37217 0.88245 0.0
C1856 C 0.93404 0.36499 0.88148 0.0
C1857 C 0.94274 0.35806 0.90365 0.0
C1858 C 0.96874 0.35157 0.90264 0.0
C1859 C 0.98613 0.3517 0.87951 0.0
C1860 C 0.97751 0.35826 0.85732 0.0
C1861 C 0.95154 0.36483 0.85824 0.0
H1862 H 1.00625 0.34666 0.87876 0.0
H1863 H 0.75579 0.41171 0.88662 0.0
H1864 H 0.67836 0.78872 0.78923 0.0
H1865 H 0.64975 0.81775 0.81642 0.0
H1866 H 0.72165 0.86547 0.84957 0.0
H1867 H 0.75019 0.83619 0.82269 0.0
H1868 H 0.6865 0.85949 0.88601 0.0
H1869 H 0.67984 0.88823 0.80623 0.0
H1870 H 0.67169 0.8847 0.76045 0.0
H1871 H 0.58702 0.8484 0.77916 0.0
H1872 H 0.59474 0.85131 0.82503 0.0
H1873 H 0.61945 0.9607 0.95956 0.0
H1874 H 0.64671 0.93441 0.92821 0.0
H1875 H 0.57272 0.88411 0.90136 0.0
H1876 H 0.54482 0.91155 0.93285 0.0
H1877 H 0.60886 0.89284 0.85999 0.0
H1878 H 0.62894 0.84856 0.93483 0.0
H1879 H 0.64864 0.84299 0.97395 0.0
H1880 H 0.71412 0.91118 0.96065 0.0
H1881 H 0.69551 0.91608 0.92062 0.0
C1882 C 0.68825 0.80542 0.80225 0.0
C1883 C 0.7169 0.80947 0.80378 0.0
C1884 C 0.67169 0.82241 0.81777 0.0
C1885 C 0.68304 0.84447 0.83533 0.0
C1886 C 0.71178 0.84877 0.83654 0.0
C1887 C 0.72832 0.83173 0.82108 0.0
C1888 C 0.66506 0.8616 0.85378 0.0
C1889 C 0.66993 0.86715 0.87988 0.0
C1890 C 0.64274 0.8716 0.84665 0.0
C1891 C 0.63795 0.86972 0.81908 0.0
C1892 C 0.65953 0.87926 0.80057 0.0
C1893 C 0.65498 0.8774 0.77459 0.0
C1894 C 0.62885 0.86625 0.7669 0.0
C1895 C 0.60724 0.85698 0.78516 0.0
C1896 C 0.61169 0.85875 0.81116 0.0
C1897 C 0.60864 0.94374 0.9474 0.0
C1898 C 0.57952 0.93831 0.94948 0.0
C1899 C 0.62456 0.92834 0.92932 0.0
C1900 C 0.61238 0.90634 0.91227 0.0
C1901 C 0.58315 0.90062 0.9142 0.0
C1902 C 0.56699 0.9162 0.93259 0.0
C1903 C 0.63033 0.89036 0.89232 0.0
C1904 C 0.62554 0.88521 0.86589 0.0
C1905 C 0.65343 0.88126 0.89877 0.0
C1906 C 0.66032 0.88327 0.92542 0.0
C1907 C 0.64705 0.86285 0.94074 0.0
C1908 C 0.65842 0.85938 0.96266 0.0
C1909 C 0.68255 0.87682 0.96987 0.0
C1910 C 0.69536 0.8978 0.95515 0.0
C1911 C 0.6845 0.90083 0.93278 0.0
H1912 H 0.69127 0.87409 0.9869 0.0
H1913 H 0.62527 0.86486 0.74682 0.0
H1914 H 0.78522 0.68449 0.1949 0.0
H1915 H 0.81485 0.6584 0.1654 0.0
H1916 H 0.88637 0.7138 0.19221 0.0
H1917 H 0.85627 0.74142 0.21987 0.0
H1918 H 0.90186 0.70064 0.14768 0.0
H1919 H 0.85584 0.63873 0.20807 0.0
H1920 H 0.8169 0.6118 0.23265 0.0
H1921 H 0.78582 0.57115 0.16194 0.0
H1922 H 0.82477 0.59786 0.13679 0.0
H1923 H 0.99209 0.60851 0.08624 0.0
H1924 H 0.96547 0.63739 0.1171 0.0
H1925 H 0.89037 0.59181 0.08816 0.0
H1926 H 0.91659 0.56269 0.05851 0.0
H1927 H 0.87892 0.59968 0.13596 0.0
H1928 H 0.92557 0.66369 0.0761 0.0
H1929 H 0.96742 0.68796 0.0526 0.0
H1930 H 0.9991 0.72267 0.12476 0.0
H1931 H 0.95751 0.69837 0.14865 0.0
C1932 C 0.80726 0.69118 0.1945 0.0
C1933 C 0.81813 0.71512 0.21008 0.0
C1934 C 0.8245 0.67585 0.17772 0.0
C1935 C 0.85352 0.68295 0.1767 0.0
C1936 C 0.86434 0.70721 0.19218 0.0
C1937 C 0.847 0.72315 0.20825 0.0
C1938 C 0.87237 0.66567 0.15934 0.0
C1939 C 0.89675 0.67856 0.14563 0.0
C1940 C 0.86647 0.63654 0.15562 0.0
C1941 C 0.84302 0.62052 0.1706 0.0
C1942 C 0.84061 0.62417 0.19777 0.0
C1943 C 0.81851 0.60893 0.2118 0.0
C1944 C 0.79871 0.58992 0.19894 0.0
C1945 C 0.8011 0.58596 0.17191 0.0
C1946 C 0.82323 0.60108 0.15774 0.0
C1947 C 0.96998 0.60504 0.08612 0.0
C1948 C 0.95674 0.5833 0.06942 0.0
C1949 C 0.95455 0.62164 0.10393 0.0
C1950 C 0.92541 0.61744 0.10523 0.0
C1951 C 0.91253 0.59592 0.08814 0.0
C1952 C 0.92776 0.57926 0.07081 0.0
C1953 C 0.90797 0.63472 0.12419 0.0
C1954 C 0.8839 0.62179 0.13816 0.0
C1955 C 0.91427 0.66369 0.12834 0.0
C1956 C 0.93858 0.67918 0.1141 0.0
C1957 C 0.94147 0.67654 0.08691 0.0
C1958 C 0.96515 0.69025 0.07354 0.0
C1959 C 0.98593 0.70682 0.08718 0.0
C1960 C 0.98299 0.70984 0.11423 0.0
C1961 C 0.95936 0.69615 0.12769 0.0
H1962 H 1.00429 0.71734 0.07678 0.0
H1963 H 0.7816 0.57819 0.20991 0.0
H1964 H 0.324 0.76829 0.18221 0.0
H1965 H 0.35551 0.79377 0.1501 0.0
H1966 H 0.33893 0.86943 0.19247 0.0
H1967 H 0.30908 0.84399 0.22527 0.0
H1968 H 0.33434 0.86492 0.13906 0.0
H1969 H 0.39551 0.85719 0.197 0.0
H1970 H 0.41948 0.83594 0.2243 0.0
H1971 H 0.45293 0.78999 0.15681 0.0
H1972 H 0.4286 0.81052 0.1291 0.0
H1973 H 0.44213 0.9637 0.09145 0.0
H1974 H 0.4137 0.93238 0.11936 0.0
H1975 H 0.43011 0.86423 0.06428 0.0
H1976 H 0.45837 0.89606 0.03506 0.0
H1977 H 0.4338 0.86222 0.12122 0.0
H1978 H 0.37235 0.88001 0.06406 0.0
H1979 H 0.3495 0.90832 0.04268 0.0
H1980 H 0.31871 0.94477 0.11674 0.0
H1981 H 0.34185 0.91715 0.13858 0.0
C1982 C 0.32716 0.79035 0.1845 0.0
C1983 C 0.31348 0.80435 0.20551 0.0
C1984 C 0.34511 0.80483 0.1663 0.0
C1985 C 0.34928 0.83342 0.16885 0.0
C1986 C 0.33567 0.84735 0.19 0.0
C1987 C 0.3183 0.83288 0.20847 0.0
C1988 C 0.36756 0.84884 0.14927 0.0
C1989 C 0.35611 0.86441 0.13517 0.0
C1990 C 0.39591 0.84813 0.14438 0.0
C1991 C 0.4098 0.83499 0.161 0.0
C1992 C 0.40756 0.84217 0.18799 0.0
C1993 C 0.42131 0.83035 0.20355 0.0
C1994 C 0.43762 0.81153 0.19231 0.0
C1995 C 0.44019 0.80449 0.1655 0.0
C1996 C 0.42639 0.81618 0.14986 0.0
C1997 C 0.43992 0.94204 0.08507 0.0
C1998 C 0.45219 0.93237 0.0607 0.0
C1999 C 0.42355 0.9242 0.10115 0.0
C2000 C 0.41931 0.89613 0.09359 0.0
C2001 C 0.43294 0.886 0.07017 0.0
C2002 C 0.44924 0.90409 0.05365 0.0
C2003 C 0.40049 0.8779 0.11062 0.0
C2004 C 0.41189 0.86211 0.1246 0.0
C2005 C 0.37227 0.87936 0.11618 0.0
C2006 C 0.35909 0.89663 0.10295 0.0
C2007 C 0.36105 0.89433 0.0758 0.0
C2008 C 0.34796 0.91022 0.06359 0.0
C2009 C 0.33271 0.92837 0.07834 0.0
C2010 C 0.33056 0.93074 0.10533 0.0
C2011 C 0.34367 0.91498 0.11762 0.0
H2012 H 0.3225 0.94055 0.06885 0.0
H2013 H 0.44836 0.80249 0.20438 0.0
H2014 H 0.71105 0.17564 0.22829 0.0
H2015 H 0.68066 0.14707 0.19817 0.0
H2016 H 0.69442 0.21228 0.15018 0.0
H2017 H 0.72402 0.24134 0.18093 0.0
H2018 H 0.64339 0.19097 0.15262 0.0
H2019 H 0.72332 0.15041 0.12915 0.0
H2020 H 0.76228 0.13026 0.1362 0.0
H2021 H 0.70677 0.06907 0.17635 0.0
H2022 H 0.66737 0.08834 0.1687 0.0
H2023 H 0.5948 0.10626 0.03996 0.0
H2024 H 0.62162 0.13659 0.07219 0.0
H2025 H 0.59523 0.07702 0.12616 0.0
H2026 H 0.5678 0.04683 0.09389 0.0
H2027 H 0.65197 0.09546 0.12066 0.0
H2028 H 0.57109 0.13532 0.13596 0.0
H2029 H 0.53466 0.15583 0.12376 0.0
H2030 H 0.59555 0.22127 0.09529 0.0
H2031 H 0.63239 0.20087 0.1069 0.0
C2032 C 0.70781 0.18381 0.2112 0.0
C2033 C 0.72011 0.2107 0.20693 0.0
C2034 C 0.6905 0.16737 0.19384 0.0
C2035 C 0.6855 0.17719 0.17148 0.0
C2036 C 0.69787 0.20409 0.16719 0.0
C2037 C 0.71489 0.22068 0.18476 0.0
C2038 C 0.66676 0.15969 0.15308 0.0
C2039 C 0.64557 0.17022 0.14539 0.0
C2040 C 0.66907 0.13243 0.14376 0.0
C2041 C 0.69254 0.12091 0.14859 0.0
C2042 C 0.71949 0.13272 0.13957 0.0
C2043 C 0.74161 0.12143 0.14362 0.0
C2044 C 0.73706 0.09863 0.15702 0.0
C2045 C 0.71029 0.08679 0.16606 0.0
C2046 C 0.68803 0.09773 0.16168 0.0
C2047 C 0.59427 0.09997 0.05894 0.0
C2048 C 0.57905 0.07443 0.06465 0.0
C2049 C 0.60961 0.11726 0.07732 0.0
C2050 C 0.61038 0.10919 0.10169 0.0
C2051 C 0.59484 0.08375 0.10754 0.0
C2052 C 0.57906 0.0666 0.08924 0.0
C2053 C 0.62858 0.1267 0.12038 0.0
C2054 C 0.64974 0.11618 0.12802 0.0
C2055 C 0.62658 0.15416 0.12912 0.0
C2056 C 0.60449 0.16643 0.12209 0.0
C2057 C 0.57672 0.15395 0.12688 0.0
C2058 C 0.556 0.16557 0.1201 0.0
C2059 C 0.56279 0.18981 0.10871 0.0
C2060 C 0.59032 0.20248 0.10409 0.0
C2061 C 0.61113 0.1909 0.11077 0.0
H2062 H 0.5467 0.1988 0.10352 0.0
H2063 H 0.75425 0.09003 0.16027 0.0
H2064 H 0.75502 0.68554 0.8052 0.0
H2065 H 0.72916 0.65699 0.83749 0.0
H2066 H 0.65699 0.68967 0.83277 0.0
H2067 H 0.68294 0.71898 0.80122 0.0
H2068 H 0.66485 0.69068 0.88095 0.0
H2069 H 0.66257 0.6248 0.80696 0.0
H2070 H 0.68109 0.59813 0.76809 0.0
H2071 H 0.72676 0.56414 0.81476 0.0
H2072 H 0.70899 0.59111 0.85385 0.0
H2073 H 0.56484 0.60246 0.94801 0.0
H2074 H 0.59471 0.62853 0.91748 0.0
H2075 H 0.65964 0.58605 0.92408 0.0
H2076 H 0.62738 0.55595 0.95229 0.0
H2077 H 0.65843 0.59075 0.87628 0.0
H2078 H 0.65481 0.65928 0.95211 0.0
H2079 H 0.62901 0.68372 0.98799 0.0
H2080 H 0.58656 0.71092 0.93362 0.0
H2081 H 0.61185 0.68644 0.89751 0.0
C2082 C 0.73357 0.68645 0.81084 0.0
C2083 C 0.72095 0.70431 0.80045 0.0
C2084 C 0.71878 0.67002 0.82921 0.0
C2085 C 0.69108 0.67099 0.83735 0.0
C2086 C 0.67834 0.68854 0.82672 0.0
C2087 C 0.69314 0.7051 0.80851 0.0
C2088 C 0.6758 0.6549 0.85803 0.0
C2089 C 0.66336 0.6688 0.87987 0.0
C2090 C 0.67404 0.62643 0.85675 0.0
C2091 C 0.68475 0.61024 0.83328 0.0
C2092 C 0.67681 0.61187 0.8089 0.0
C2093 C 0.68713 0.59667 0.78683 0.0
C2094 C 0.70516 0.57951 0.78894 0.0
C2095 C 0.71285 0.57749 0.81313 0.0
C2096 C 0.70268 0.59275 0.83525 0.0
C2097 C 0.58553 0.59851 0.94333 0.0
C2098 C 0.59355 0.57672 0.95249 0.0
C2099 C 0.60294 0.61406 0.92604 0.0
C2100 C 0.62996 0.61022 0.91904 0.0
C2101 C 0.63891 0.58964 0.92942 0.0
C2102 C 0.6207 0.57276 0.94589 0.0
C2103 C 0.64769 0.62655 0.89949 0.0
C2104 C 0.66048 0.61272 0.87769 0.0
C2105 C 0.64916 0.65508 0.90045 0.0
C2106 C 0.63528 0.67111 0.92216 0.0
C2107 C 0.64007 0.6706 0.94785 0.0
C2108 C 0.62547 0.68439 0.96821 0.0
C2109 C 0.60618 0.69888 0.96309 0.0
C2110 C 0.60156 0.69977 0.93758 0.0
C2111 C 0.61608 0.68603 0.91716 0.0
H2112 H 0.59481 0.70943 0.97889 0.0
H2113 H 0.71312 0.56772 0.77183 0.0
H2114 H 0.3281 0.60928 0.8292 0.0
H2115 H 0.34661 0.59751 0.86553 0.0
H2116 H 0.39514 0.67895 0.87673 0.0
H2117 H 0.37762 0.69021 0.8387 0.0
H2118 H 0.42634 0.64545 0.87782 0.0
H2119 H 0.3367 0.64909 0.9267 0.0
H2120 H 0.2861 0.63903 0.93613 0.0
H2121 H 0.28585 0.55314 0.91956 0.0
H2122 H 0.3363 0.56273 0.91014 0.0
H2123 H 0.46312 0.59668 0.99141 0.0
H2124 H 0.44563 0.62332 0.9639 0.0
H2125 H 0.40488 0.54863 0.92307 0.0
H2126 H 0.42233 0.52209 0.95048 0.0
H2127 H 0.37245 0.58742 0.94259 0.0
H2128 H 0.46015 0.58183 0.89292 0.0
H2129 H 0.51051 0.58935 0.88227 0.0
H2130 H 0.5155 0.6759 0.89891 0.0
H2131 H 0.46519 0.6689 0.90984 0.0
C2132 C 0.34231 0.62485 0.83973 0.0
C2133 C 0.35166 0.65051 0.83107 0.0
C2134 C 0.35265 0.61825 0.86085 0.0
C2135 C 0.37196 0.63744 0.87442 0.0
C2136 C 0.38015 0.66379 0.86671 0.0
C2137 C 0.37 0.67032 0.84518 0.0
C2138 C 0.38558 0.62864 0.89449 0.0
C2139 C 0.41453 0.63337 0.89246 0.0
C2140 C 0.37043 0.61222 0.91322 0.0
C2141 C 0.34009 0.60667 0.91751 0.0
C2142 C 0.32574 0.62812 0.92481 0.0
C2143 C 0.29713 0.62247 0.93028 0.0
C2144 C 0.28276 0.59548 0.92838 0.0
C2145 C 0.29695 0.57404 0.92103 0.0
C2146 C 0.32552 0.57956 0.9157 0.0
C2147 C 0.4492 0.58611 0.97742 0.0
C2148 C 0.4429 0.55744 0.97381 0.0
C2149 C 0.44019 0.60126 0.96113 0.0
C2150 C 0.42467 0.58786 0.94111 0.0
C2151 C 0.41717 0.55926 0.93832 0.0
C2152 C 0.42621 0.54415 0.95455 0.0
C2153 C 0.4128 0.6034 0.92527 0.0
C2154 C 0.38423 0.60007 0.92832 0.0
C2155 C 0.42845 0.62075 0.9075 0.0
C2156 C 0.4589 0.62479 0.90275 0.0
C2157 C 0.47201 0.60243 0.89483 0.0
C2158 C 0.50055 0.60662 0.88854 0.0
C2159 C 0.51621 0.63307 0.89006 0.0
C2160 C 0.50337 0.65541 0.89785 0.0
C2161 C 0.47485 0.65134 0.90409 0.0
H2162 H 0.53828 0.63626 0.8851 0.0
H2163 H 0.26062 0.59117 0.93266 0.0
H2164 H 0.35652 0.29456 0.78656 0.0
H2165 H 0.3868 0.32383 0.81666 0.0
H2166 H 0.31692 0.35462 0.85842 0.0
H2167 H 0.28772 0.32802 0.82629 0.0
H2168 H 0.35398 0.39314 0.8598 0.0
H2169 H 0.35418 0.30134 0.87683 0.0
H2170 H 0.36138 0.254 0.86537 0.0
H2171 H 0.44645 0.2834 0.84063 0.0
H2172 H 0.43965 0.33087 0.85158 0.0
H2173 H 0.41994 0.44792 0.97476 0.0
H2174 H 0.39041 0.41488 0.94604 0.0
H2175 H 0.46037 0.4102 0.88921 0.0
H2176 H 0.48948 0.44389 0.91731 0.0
H2177 H 0.42414 0.3581 0.89688 0.0
H2178 H 0.4224 0.44967 0.88105 0.0
H2179 H 0.41419 0.49667 0.89186 0.0
H2180 H 0.32924 0.46591 0.91589 0.0
H2181 H 0.33712 0.41874 0.90583 0.0
C2182 C 0.34785 0.30777 0.80215 0.0
C2183 C 0.31985 0.30892 0.80438 0.0
C2184 C 0.36506 0.32425 0.81965 0.0
C2185 C 0.35425 0.34098 0.84068 0.0
C2186 C 0.3261 0.34207 0.84259 0.0
C2187 C 0.3093 0.32677 0.82428 0.0
C2188 C 0.37206 0.35798 0.86029 0.0
C2189 C 0.36879 0.38504 0.86824 0.0
C2190 C 0.39226 0.34815 0.87104 0.0
C2191 C 0.39636 0.31962 0.86485 0.0
C2192 C 0.37438 0.29768 0.86886 0.0
C2193 C 0.37839 0.27083 0.86244 0.0
C2194 C 0.40434 0.2657 0.85224 0.0
C2195 C 0.42635 0.2874 0.84851 0.0
C2196 C 0.42245 0.31426 0.85483 0.0
C2197 C 0.42906 0.43921 0.95645 0.0
C2198 C 0.45705 0.44805 0.94838 0.0
C2199 C 0.41219 0.42056 0.93997 0.0
C2200 C 0.42319 0.41014 0.91543 0.0
C2201 C 0.45145 0.41787 0.90805 0.0
C2202 C 0.4681 0.43698 0.92417 0.0
C2203 C 0.40517 0.39254 0.89667 0.0
C2204 C 0.40874 0.36567 0.88872 0.0
C2205 C 0.3849 0.40231 0.88625 0.0
C2206 C 0.38047 0.4307 0.89311 0.0
C2207 C 0.40209 0.45294 0.88906 0.0
C2208 C 0.39747 0.47961 0.89496 0.0
C2209 C 0.37123 0.48428 0.90465 0.0
C2210 C 0.34957 0.46228 0.90849 0.0
C2211 C 0.35412 0.43558 0.90274 0.0
H2212 H 0.36765 0.50494 0.90908 0.0
H2213 H 0.40739 0.2449 0.84727 0.0
H2214 H 0.71598 0.38469 0.84561 0.0
H2215 H 0.71118 0.39679 0.89259 0.0
H2216 H 0.65039 0.32439 0.90164 0.0
H2217 H 0.65369 0.31237 0.85505 0.0
H2218 H 0.65358 0.38776 0.86973 0.0
H2219 H 0.63098 0.33189 0.94752 0.0
H2220 H 0.64909 0.31126 0.97992 0.0
H2221 H 0.70529 0.38658 0.99789 0.0
H2222 H 0.68771 0.4074 0.96521 0.0
H2223 H 0.53105 0.4311 0.92974 0.0
H2224 H 0.56244 0.39856 0.91836 0.0
H2225 H 0.62931 0.46072 0.94571 0.0
H2226 H 0.59848 0.49329 0.95593 0.0
H2227 H 0.619 0.40238 0.96217 0.0
H2228 H 0.63482 0.45988 0.89034 0.0
H2229 H 0.61221 0.48061 0.86134 0.0
H2230 H 0.57063 0.40114 0.83162 0.0
H2231 H 0.59271 0.38001 0.86084 0.0
C2232 C 0.70247 0.37085 0.85782 0.0
C2233 C 0.68302 0.34935 0.84738 0.0
C2234 C 0.70086 0.37694 0.88466 0.0
C2235 C 0.67816 0.36315 0.89938 0.0
C2236 C 0.66629 0.33662 0.88982 0.0
C2237 C 0.66733 0.3303 0.86318 0.0
C2238 C 0.65751 0.37982 0.90868 0.0
C2239 C 0.64638 0.39079 0.89005 0.0
C2240 C 0.64746 0.38336 0.93478 0.0
C2241 C 0.65814 0.37107 0.95411 0.0
C2242 C 0.6474 0.34387 0.95824 0.0
C2243 C 0.65754 0.33218 0.97662 0.0
C2244 C 0.67836 0.34759 0.99094 0.0
C2245 C 0.68922 0.37466 0.98676 0.0
C2246 C 0.67924 0.38639 0.96828 0.0
C2247 C 0.55264 0.43767 0.93244 0.0
C2248 C 0.56314 0.46428 0.94267 0.0
C2249 C 0.5701 0.4192 0.92676 0.0
C2250 C 0.5975 0.42759 0.93205 0.0
C2251 C 0.60789 0.45424 0.94221 0.0
C2252 C 0.59069 0.47276 0.94727 0.0
C2253 C 0.61663 0.40986 0.92362 0.0
C2254 C 0.62701 0.39873 0.94217 0.0
C2255 C 0.62616 0.40608 0.89736 0.0
C2256 C 0.61541 0.41838 0.87771 0.0
C2257 C 0.62101 0.44684 0.87748 0.0
C2258 C 0.60819 0.45866 0.86111 0.0
C2259 C 0.58998 0.4422 0.84466 0.0
C2260 C 0.58477 0.41386 0.84436 0.0
C2261 C 0.59747 0.40194 0.86079 0.0
H2262 H 0.5799 0.4514 0.83214 0.0
H2263 H 0.68604 0.33857 1.00531 0.0
H2264 H 0.71815 0.39504 0.16132 0.0
H2265 H 0.69164 0.40551 0.12949 0.0
H2266 H 0.62222 0.34514 0.15448 0.0
H2267 H 0.64871 0.33496 0.18708 0.0
H2268 H 0.63823 0.3561 0.09408 0.0
H2269 H 0.60936 0.39183 0.17935 0.0
H2270 H 0.61705 0.41165 0.22406 0.0
H2271 H 0.66634 0.48418 0.19628 0.0
H2272 H 0.65977 0.46433 0.15124 0.0
H2273 H 0.55846 0.42463 0.03448 0.0
H2274 H 0.57423 0.39978 0.06373 0.0
H2275 H 0.63822 0.46923 0.08228 0.0
H2276 H 0.61902 0.49591 0.05593 0.0
H2277 H 0.61661 0.44789 0.12467 0.0
H2278 H 0.64567 0.40788 0.03855 0.0
H2279 H 0.6296 0.39125 0.99661 0.0
H2280 H 0.57542 0.32289 0.02742 0.0
H2281 H 0.58928 0.34108 0.07099 0.0
C2282 C 0.6976 0.38328 0.15932 0.0
C2283 C 0.68524 0.36447 0.17663 0.0
C2284 C 0.6825 0.38933 0.14129 0.0
C2285 C 0.65498 0.37645 0.1402 0.0
C2286 C 0.64348 0.35531 0.15533 0.0
C2287 C 0.6586 0.34941 0.17371 0.0
C2288 C 0.63793 0.3881 0.12575 0.0
C2289 C 0.63289 0.37586 0.1009 0.0
C2290 C 0.63112 0.41387 0.13484 0.0
C2291 C 0.63442 0.4264 0.16188 0.0
C2292 C 0.62216 0.41185 0.18273 0.0
C2293 C 0.6263 0.4231 0.20814 0.0
C2294 C 0.64228 0.44912 0.21301 0.0
C2295 C 0.65405 0.46398 0.19246 0.0
C2296 C 0.65016 0.45272 0.16697 0.0
C2297 C 0.57668 0.43429 0.04391 0.0
C2298 C 0.58798 0.462 0.04241 0.0
C2299 C 0.58547 0.42012 0.06099 0.0
C2300 C 0.60791 0.43225 0.07486 0.0
C2301 C 0.62092 0.45934 0.0717 0.0
C2302 C 0.61073 0.47429 0.05586 0.0
C2303 C 0.6178 0.41642 0.09233 0.0
C2304 C 0.62152 0.42796 0.11787 0.0
C2305 C 0.62282 0.38965 0.08413 0.0
C2306 C 0.61831 0.37597 0.05791 0.0
C2307 C 0.63053 0.38914 0.03638 0.0
C2308 C 0.62139 0.37962 0.01231 0.0
C2309 C 0.60152 0.35581 0.00893 0.0
C2310 C 0.59075 0.3414 0.02997 0.0
C2311 C 0.59895 0.35152 0.05452 0.0
H2312 H 0.5945 0.34859 0.99007 0.0
H2313 H 0.64545 0.45781 0.23271 0.0
H2314 H 0.68115 0.73633 0.21997 0.0
H2315 H 0.65161 0.70771 0.18859 0.0
H2316 H 0.70786 0.65182 0.17252 0.0
H2317 H 0.73664 0.67954 0.20466 0.0
H2318 H 0.69069 0.67175 0.12689 0.0
H2319 H 0.6553 0.62704 0.20275 0.0
H2320 H 0.63594 0.6238 0.2481 0.0
H2321 H 0.56785 0.6582 0.23527 0.0
H2322 H 0.58673 0.66137 0.18969 0.0
H2323 H 0.61388 0.55581 0.05608 0.0
H2324 H 0.64306 0.58929 0.08433 0.0
H2325 H 0.57418 0.62844 0.11284 0.0
H2326 H 0.54493 0.59452 0.08475 0.0
H2327 H 0.59766 0.61939 0.15187 0.0
H2328 H 0.63128 0.65939 0.07382 0.0
H2329 H 0.65087 0.66146 0.02836 0.0
H2330 H 0.72325 0.63659 0.04491 0.0
H2331 H 0.70391 0.63396 0.09038 0.0
C2332 C 0.68705 0.71783 0.20988 0.0
C2333 C 0.71121 0.71018 0.21476 0.0
C2334 C 0.67021 0.70152 0.19198 0.0
C2335 C 0.67762 0.67771 0.17816 0.0
C2336 C 0.70179 0.67012 0.18293 0.0
C2337 C 0.71816 0.68595 0.20136 0.0
C2338 C 0.66031 0.66085 0.15853 0.0
C2339 C 0.67043 0.66007 0.13229 0.0
C2340 C 0.6337 0.64615 0.16556 0.0
C2341 C 0.62262 0.64484 0.19299 0.0
C2342 C 0.63637 0.63422 0.2097 0.0
C2343 C 0.62545 0.63231 0.23541 0.0
C2344 C 0.60085 0.64109 0.24466 0.0
C2345 C 0.58699 0.65155 0.22812 0.0
C2346 C 0.59773 0.65331 0.20232 0.0
C2347 C 0.60529 0.5721 0.06784 0.0
C2348 C 0.57741 0.57304 0.06796 0.0
C2349 C 0.62193 0.59122 0.08401 0.0
C2350 C 0.61099 0.61168 0.10063 0.0
C2351 C 0.58319 0.61298 0.10017 0.0
C2352 C 0.56654 0.5938 0.08399 0.0
C2353 C 0.62789 0.63016 0.1199 0.0
C2354 C 0.61776 0.63123 0.14623 0.0
C2355 C 0.65454 0.64509 0.11287 0.0
C2356 C 0.66602 0.64623 0.08545 0.0
C2357 C 0.65125 0.65409 0.0677 0.0
C2358 C 0.66234 0.65542 0.04194 0.0
C2359 C 0.68826 0.6491 0.03374 0.0
C2360 C 0.70316 0.64144 0.05128 0.0
C2361 C 0.69215 0.64004 0.07705 0.0
H2362 H 0.69683 0.65019 0.0138 0.0
H2363 H 0.59245 0.63963 0.2646 0.0
H2364 H 0.37142 0.70417 0.16564 0.0
H2365 H 0.38438 0.7057 0.11967 0.0
H2366 H 0.32319 0.63608 0.10193 0.0
H2367 H 0.30793 0.6339 0.14838 0.0
H2368 H 0.35223 0.6106 0.11677 0.0
H2369 H 0.3979 0.68088 0.06181 0.0
H2370 H 0.41946 0.72607 0.04839 0.0
H2371 H 0.47266 0.74015 0.10888 0.0
H2372 H 0.4511 0.69546 0.12298 0.0
H2373 H 0.44298 0.5496 0.04627 0.0
H2374 H 0.41447 0.58158 0.06608 0.0
H2375 H 0.46609 0.60673 0.12863 0.0
H2376 H 0.49557 0.57409 0.10819 0.0
H2377 H 0.45119 0.64818 0.09799 0.0
H2378 H 0.41272 0.57634 0.14734 0.0
H2379 H 0.40007 0.52743 0.15248 0.0
H2380 H 0.33806 0.51681 0.10062 0.0
H2381 H 0.35103 0.56533 0.09419 0.0
C2382 C 0.36084 0.68862 0.15197 0.0
C2383 C 0.34147 0.66625 0.16026 0.0
C2384 C 0.36831 0.68929 0.12567 0.0
C2385 C 0.36074 0.66487 0.10958 0.0
C2386 C 0.33336 0.6515 0.11592 0.0
C2387 C 0.32501 0.64952 0.14233 0.0
C2388 C 0.38191 0.64691 0.10592 0.0
C2389 C 0.3736 0.61978 0.11259 0.0
C2390 C 0.41071 0.65747 0.10137 0.0
C2391 C 0.42269 0.68487 0.09351 0.0
C2392 C 0.41399 0.69374 0.07237 0.0
C2393 C 0.42625 0.71928 0.06466 0.0
C2394 C 0.44738 0.73597 0.07779 0.0
C2395 C 0.45626 0.72725 0.09874 0.0
C2396 C 0.44399 0.70187 0.10663 0.0
C2397 C 0.44836 0.56205 0.06416 0.0
C2398 C 0.47125 0.5601 0.07588 0.0
C2399 C 0.43207 0.58001 0.07547 0.0
C2400 C 0.43834 0.59584 0.09876 0.0
C2401 C 0.46126 0.59415 0.11069 0.0
C2402 C 0.47775 0.57578 0.09925 0.0
C2403 C 0.42043 0.61451 0.10923 0.0
C2404 C 0.4294 0.64109 0.10344 0.0
C2405 C 0.39245 0.60379 0.11491 0.0
C2406 C 0.38284 0.5748 0.12036 0.0
C2407 C 0.39636 0.56365 0.13699 0.0
C2408 C 0.38924 0.5359 0.14002 0.0
C2409 C 0.36826 0.51903 0.1269 0.0
C2410 C 0.35429 0.52992 0.1108 0.0
C2411 C 0.36154 0.55759 0.10745 0.0
H2412 H 0.36283 0.49754 0.1292 0.0
H2413 H 0.45691 0.75566 0.07169 0.0
H2414 H 0.28705 0.34574 0.22516 0.0
H2415 H 0.31441 0.37619 0.19498 0.0
H2416 H 0.36698 0.31738 0.16965 0.0
H2417 H 0.34156 0.28869 0.2018 0.0
H2418 H 0.39704 0.36215 0.17023 0.0
H2419 H 0.30989 0.32877 0.13563 0.0
H2420 H 0.2595 0.32078 0.13542 0.0
H2421 H 0.26183 0.40715 0.14852 0.0
H2422 H 0.31213 0.41561 0.14926 0.0
H2423 H 0.4558 0.41301 0.05289 0.0
H2424 H 0.42705 0.38416 0.08358 0.0
H2425 H 0.38635 0.45076 0.11592 0.0
H2426 H 0.41497 0.47959 0.0848 0.0
H2427 H 0.35091 0.40342 0.11224 0.0
H2428 H 0.44021 0.43492 0.14412 0.0
H2429 H 0.49042 0.44072 0.14443 0.0
H2430 H 0.48403 0.35379 0.1337 0.0
H2431 H 0.43387 0.34747 0.13296 0.0
C2432 C 0.30462 0.33958 0.21323 0.0
C2433 C 0.31211 0.31484 0.21549 0.0
C2434 C 0.32007 0.35678 0.19576 0.0
C2435 C 0.34234 0.3488 0.17931 0.0
C2436 C 0.34993 0.32412 0.18196 0.0
C2437 C 0.33529 0.30761 0.20023 0.0
C2438 C 0.358 0.36609 0.1595 0.0
C2439 C 0.38686 0.37075 0.15727 0.0
C2440 C 0.34494 0.37799 0.1429 0.0
C2441 C 0.31469 0.37279 0.14274 0.0
C2442 C 0.2996 0.34603 0.13866 0.0
C2443 C 0.27106 0.34142 0.13843 0.0
C2444 C 0.25746 0.36344 0.142 0.0
C2445 C 0.27236 0.39011 0.1458 0.0
C2446 C 0.30087 0.39482 0.14614 0.0
C2447 C 0.43995 0.42109 0.06593 0.0
C2448 C 0.43714 0.44827 0.06625 0.0
C2449 C 0.42398 0.40481 0.08379 0.0
C2450 C 0.40515 0.41556 0.1025 0.0
C2451 C 0.40097 0.44216 0.10174 0.0
C2452 C 0.41691 0.45846 0.08371 0.0
C2453 C 0.38974 0.39905 0.12281 0.0
C2454 C 0.36098 0.39462 0.12514 0.0
C2455 C 0.40293 0.38683 0.13906 0.0
C2456 C 0.4333 0.39076 0.13815 0.0
C2457 C 0.44955 0.41706 0.14144 0.0
C2458 C 0.47801 0.42043 0.1418 0.0
C2459 C 0.49042 0.39764 0.139 0.0
C2460 C 0.47442 0.37143 0.13579 0.0
C2461 C 0.44599 0.36795 0.13539 0.0
H2462 H 0.51242 0.4003 0.1394 0.0
H2463 H 0.23536 0.35983 0.14178 0.0
H2464 H 0.84713 0.71056 0.73832 0.0
H2465 H 0.87497 0.68111 0.71059 0.0
H2466 H 0.82304 0.67432 0.64963 0.0
H2467 H 0.79441 0.70194 0.67802 0.0
H2468 H 0.83701 0.62875 0.64561 0.0
H2469 H 0.89429 0.71968 0.65432 0.0
H2470 H 0.91701 0.76129 0.67977 0.0
H2471 H 0.95984 0.71341 0.71554 0.0
H2472 H 0.93721 0.67153 0.6904 0.0
H2473 H 0.93408 0.58204 0.5427 0.0
H2474 H 0.90289 0.60836 0.57107 0.0
H2475 H 0.95039 0.61126 0.63464 0.0
H2476 H 0.98129 0.58537 0.60643 0.0
H2477 H 0.93838 0.65831 0.63704 0.0
H2478 H 0.88435 0.56859 0.62974 0.0
H2479 H 0.85987 0.52478 0.6093 0.0
H2480 H 0.8106 0.56706 0.57448 0.0
H2481 H 0.83492 0.61117 0.59462 0.0
C2482 C 0.84157 0.70286 0.719 0.0
C2483 C 0.81834 0.70936 0.7105 0.0
C2484 C 0.85781 0.68603 0.70287 0.0
C2485 C 0.85211 0.67583 0.67721 0.0
C2486 C 0.82851 0.68177 0.66902 0.0
C2487 C 0.81195 0.69797 0.6854 0.0
C2488 C 0.8707 0.65955 0.65881 0.0
C2489 C 0.85915 0.6356 0.6435 0.0
C2490 C 0.89985 0.66739 0.65616 0.0
C2491 C 0.91402 0.69257 0.67061 0.0
C2492 C 0.90858 0.71809 0.66761 0.0
C2493 C 0.9214 0.74169 0.68199 0.0
C2494 C 0.93984 0.73999 0.69928 0.0
C2495 C 0.94558 0.7147 0.70214 0.0
C2496 C 0.93281 0.69104 0.68779 0.0
C2497 C 0.93829 0.58905 0.56251 0.0
C2498 C 0.9609 0.58239 0.57195 0.0
C2499 C 0.92008 0.60369 0.57898 0.0
C2500 C 0.92387 0.61196 0.6054 0.0
C2501 C 0.94676 0.60555 0.61452 0.0
C2502 C 0.96471 0.59089 0.59821 0.0
C2503 C 0.90475 0.62769 0.62359 0.0
C2504 C 0.91623 0.65154 0.63892 0.0
C2505 C 0.87562 0.6195 0.6264 0.0
C2506 C 0.86174 0.59319 0.61337 0.0
C2507 C 0.86854 0.56857 0.61745 0.0
C2508 C 0.85461 0.54367 0.60602 0.0
C2509 C 0.83376 0.54314 0.59053 0.0
C2510 C 0.82679 0.56751 0.58644 0.0
C2511 C 0.84063 0.59246 0.59787 0.0
H2512 H 0.82294 0.52385 0.58175 0.0
H2513 H 0.9497 0.75828 0.71045 0.0
H2514 H 0.33221 0.83836 0.73461 0.0
H2515 H 0.35984 0.86804 0.70415 0.0
H2516 H 0.33379 0.80811 0.64046 0.0
H2517 H 0.3077 0.77749 0.67129 0.0
H2518 H 0.383 0.8278 0.6286 0.0
H2519 H 0.3078 0.87368 0.66263 0.0
H2520 H 0.27786 0.89475 0.69739 0.0
H2521 H 0.34806 0.95223 0.7232 0.0
H2522 H 0.3784 0.9313 0.68877 0.0
H2523 H 0.4345 0.91256 0.53055 0.0
H2524 H 0.40292 0.88504 0.56073 0.0
H2525 H 0.42832 0.94522 0.62443 0.0
H2526 H 0.45832 0.97366 0.59387 0.0
H2527 H 0.37875 0.92591 0.63661 0.0
H2528 H 0.45382 0.87933 0.60404 0.0
H2529 H 0.48448 0.85667 0.57126 0.0
H2530 H 0.41466 0.79971 0.54399 0.0
H2531 H 0.38364 0.8222 0.57645 0.0
C2532 C 0.33255 0.83144 0.71409 0.0
C2533 C 0.31773 0.80558 0.70533 0.0
C2534 C 0.34811 0.84866 0.69657 0.0
C2535 C 0.34842 0.841 0.66969 0.0
C2536 C 0.33395 0.81483 0.66099 0.0
C2537 C 0.31902 0.79722 0.6786 0.0
C2538 C 0.3644 0.85976 0.65069 0.0
C2539 C 0.38156 0.84913 0.63018 0.0
C2540 C 0.36361 0.888 0.65289 0.0
C2541 C 0.34534 0.90082 0.67328 0.0
C2542 C 0.31682 0.89076 0.6758 0.0
C2543 C 0.2998 0.90267 0.69543 0.0
C2544 C 0.31106 0.92478 0.71252 0.0
C2545 C 0.33936 0.9351 0.70996 0.0
C2546 C 0.35647 0.92325 0.69038 0.0
C2547 C 0.43273 0.92023 0.55094 0.0
C2548 C 0.44863 0.94547 0.55976 0.0
C2549 C 0.41502 0.90421 0.56835 0.0
C2550 C 0.41368 0.91232 0.59525 0.0
C2551 C 0.42881 0.93815 0.60393 0.0
C2552 C 0.4459 0.95458 0.5864 0.0
C2553 C 0.39712 0.89381 0.61428 0.0
C2554 C 0.37998 0.90452 0.63489 0.0
C2555 C 0.39791 0.8656 0.61225 0.0
C2556 C 0.41648 0.8526 0.5924 0.0
C2557 C 0.44505 0.86212 0.59088 0.0
C2558 C 0.46247 0.84927 0.57241 0.0
C2559 C 0.45152 0.82681 0.5555 0.0
C2560 C 0.42312 0.81713 0.55704 0.0
C2561 C 0.40562 0.8299 0.57547 0.0
H2562 H 0.46504 0.81686 0.54125 0.0
H2563 H 0.29785 0.93395 0.72773 0.0
H2564 H 0.19411 0.33298 0.63836 0.0
H2565 H 0.15901 0.34392 0.61494 0.0
H2566 H 0.14772 0.40989 0.67502 0.0
H2567 H 0.18078 0.39761 0.69891 0.0
H2568 H 0.10344 0.39463 0.6582 0.0
H2569 H 0.19632 0.41241 0.61269 0.0
H2570 H 0.23836 0.39973 0.58823 0.0
H2571 H 0.1901 0.34871 0.53142 0.0
H2572 H 0.14777 0.36079 0.55579 0.0
H2573 H 0.07066 0.49696 0.59764 0.0
H2574 H 0.09564 0.47021 0.61795 0.0
H2575 H 0.0893 0.40867 0.5517 0.0
H2576 H 0.06581 0.43636 0.5307 0.0
H2577 H 0.1364 0.41324 0.56806 0.0
H2578 H 0.04413 0.4034 0.61266 0.0
H2579 H 1.00429 0.42054 0.63715 0.0
H2580 H 0.05475 0.46204 0.69649 0.0
H2581 H 0.09487 0.44535 0.67225 0.0
C2582 C 0.1831 0.34896 0.64698 0.0
C2583 C 0.19019 0.36458 0.67035 0.0
C2584 C 0.16348 0.35565 0.63335 0.0
C2585 C 0.15135 0.37853 0.64256 0.0
C2586 C 0.15674 0.39233 0.66712 0.0
C2587 C 0.17568 0.38528 0.68091 0.0
C2588 C 0.13478 0.38988 0.62648 0.0
C2589 C 0.11086 0.39875 0.63852 0.0
C2590 C 0.1436 0.39473 0.60043 0.0
C2591 C 0.16894 0.3871 0.58625 0.0
C2592 C 0.19471 0.39828 0.59512 0.0
C2593 C 0.21856 0.39123 0.58126 0.0
C2594 C 0.21689 0.37332 0.55835 0.0
C2595 C 0.19136 0.36246 0.54923 0.0
C2596 C 0.16744 0.36935 0.56307 0.0
C2597 C 0.07515 0.47799 0.58724 0.0
C2598 C 0.06648 0.46876 0.56259 0.0
C2599 C 0.08903 0.46247 0.599 0.0
C2600 C 0.09352 0.43685 0.58682 0.0
C2601 C 0.08589 0.42819 0.56166 0.0
C2602 C 0.07264 0.4441 0.54957 0.0
C2603 C 0.1061 0.41916 0.60034 0.0
C2604 C 0.12893 0.40884 0.58766 0.0
C2605 C 0.09667 0.41351 0.62601 0.0
C2606 C 0.07244 0.4232 0.64062 0.0
C2607 C 0.04669 0.41624 0.63089 0.0
C2608 C 0.02408 0.42587 0.64473 0.0
C2609 C 0.02699 0.44238 0.66835 0.0
C2610 C 0.0525 0.44924 0.67822 0.0
C2611 C 0.07515 0.43965 0.66447 0.0
H2612 H 1.00947 0.44984 0.67902 0.0
H2613 H 0.2354 0.36794 0.54762 0.0
H2614 H 0.70962 0.17351 0.72695 0.0
H2615 H 0.67826 0.14689 0.69618 0.0
H2616 H 0.71037 0.20448 0.64125 0.0
H2617 H 0.74295 0.23024 0.67149 0.0
H2618 H 0.64567 0.18683 0.6547 0.0
H2619 H 0.73005 0.15506 0.62293 0.0
H2620 H 0.77099 0.13994 0.63255 0.0
H2621 H 0.71963 0.07044 0.66412 0.0
H2622 H 0.67819 0.08566 0.65531 0.0
H2623 H 0.58183 0.1173 0.54587 0.0
H2624 H 0.61539 0.14314 0.57445 0.0
H2625 H 0.61058 0.07177 0.61259 0.0
H2626 H 0.57786 0.04543 0.58308 0.0
H2627 H 0.66099 0.09716 0.60918 0.0
H2628 H 0.57617 0.12643 0.63865 0.0
H2629 H 0.53446 0.14362 0.63432 0.0
H2630 H 0.58437 0.21789 0.61068 0.0
H2631 H 0.62638 0.20094 0.61444 0.0
C2632 C 0.71055 0.17992 0.70796 0.0
C2633 C 0.72916 0.2034 0.70122 0.0
C2634 C 0.69233 0.16503 0.69062 0.0
C2635 C 0.69174 0.17391 0.66658 0.0
C2636 C 0.7104 0.19737 0.65976 0.0
C2637 C 0.7293 0.21175 0.67679 0.0
C2638 C 0.67249 0.15779 0.64816 0.0
C2639 C 0.64913 0.16742 0.6444 0.0
C2640 C 0.67654 0.13213 0.63544 0.0
C2641 C 0.70114 0.12157 0.63866 0.0
C2642 C 0.72751 0.13655 0.63192 0.0
C2643 C 0.75077 0.12803 0.63729 0.0
C2644 C 0.74787 0.10434 0.64904 0.0
C2645 C 0.72176 0.08885 0.65509 0.0
C2646 C 0.69838 0.09741 0.64992 0.0
C2647 C 0.58814 0.10701 0.56017 0.0
C2648 C 0.57714 0.0793 0.56219 0.0
C2649 C 0.60718 0.1219 0.57671 0.0
C2650 C 0.61511 0.10973 0.59627 0.0
C2651 C 0.60479 0.08178 0.59781 0.0
C2652 C 0.58611 0.06668 0.58086 0.0
C2653 C 0.63398 0.12623 0.61511 0.0
C2654 C 0.6573 0.11659 0.61923 0.0
C2655 C 0.62963 0.15184 0.62835 0.0
C2656 C 0.60441 0.16233 0.62663 0.0
C2657 C 0.57824 0.14638 0.63241 0.0
C2658 C 0.55455 0.15607 0.63005 0.0
C2659 C 0.55677 0.18181 0.62219 0.0
C2660 C 0.58268 0.19795 0.61675 0.0
C2661 C 0.60644 0.18832 0.61901 0.0
H2662 H 0.5384 0.18927 0.62035 0.0
H2663 H 0.76587 0.09817 0.6536 0.0
H2664 H 0.78863 0.34124 0.32495 0.0
H2665 H 0.81781 0.36902 0.35543 0.0
H2666 H 0.87002 0.30924 0.34368 0.0
H2667 H 0.83866 0.27967 0.31537 0.0
H2668 H 0.86799 0.32668 0.38995 0.0
H2669 H 0.88439 0.37447 0.31498 0.0
H2670 H 0.87131 0.39603 0.28037 0.0
H2671 H 0.8373 0.45341 0.33725 0.0
H2672 H 0.84987 0.43196 0.37221 0.0
H2673 H 0.98863 0.41716 0.43071 0.0
H2674 H 0.95334 0.38664 0.40652 0.0
H2675 H 0.8947 0.43743 0.43876 0.0
H2676 H 0.9301 0.46784 0.46354 0.0
H2677 H 0.8989 0.42571 0.38381 0.0
H2678 H 0.88613 0.37635 0.45839 0.0
H2679 H 0.90018 0.35264 0.49091 0.0
H2680 H 0.93185 0.29707 0.43041 0.0
H2681 H 0.91824 0.32062 0.39755 0.0
C2682 C 0.80575 0.33352 0.32897 0.0
C2683 C 0.81078 0.30796 0.31736 0.0
C2684 C 0.82302 0.34988 0.34626 0.0
C2685 C 0.84679 0.34182 0.35139 0.0
C2686 C 0.85191 0.31617 0.34007 0.0
C2687 C 0.8339 0.29927 0.32366 0.0
C2688 C 0.86597 0.35979 0.36894 0.0
C2689 C 0.87503 0.34824 0.38824 0.0
C2690 C 0.87485 0.38815 0.36726 0.0
C2691 C 0.8679 0.40149 0.34622 0.0
C2692 C 0.87405 0.39163 0.3201 0.0
C2693 C 0.86672 0.40382 0.30042 0.0
C2694 C 0.85344 0.42604 0.30661 0.0
C2695 C 0.84758 0.43619 0.33248 0.0
C2696 C 0.85483 0.42405 0.35224 0.0
C2697 C 0.96805 0.42148 0.43295 0.0
C2698 C 0.96188 0.44461 0.44902 0.0
C2699 C 0.94793 0.40407 0.41918 0.0
C2700 C 0.92138 0.40971 0.42093 0.0
C2701 C 0.91505 0.43267 0.43728 0.0
C2702 C 0.93512 0.44987 0.45151 0.0
C2703 C 0.90094 0.3924 0.40445 0.0
C2704 C 0.89175 0.40412 0.38536 0.0
C2705 C 0.89255 0.36407 0.40581 0.0
C2706 C 0.90138 0.3504 0.42554 0.0
C2707 C 0.89635 0.35926 0.45203 0.0
C2708 C 0.90416 0.34579 0.47052 0.0
C2709 C 0.91695 0.3234 0.46273 0.0
C2710 C 0.92197 0.31443 0.43643 0.0
C2711 C 0.91419 0.32781 0.41787 0.0
H2712 H 0.92291 0.31296 0.47707 0.0
H2713 H 0.84773 0.43542 0.29135 0.0
H2714 H 0.67701 0.7745 0.30954 0.0
H2715 H 0.64626 0.80377 0.33427 0.0
H2716 H 0.71343 0.87279 0.33417 0.0
H2717 H 0.7437 0.84404 0.30893 0.0
H2718 H 0.68573 0.87135 0.38176 0.0
H2719 H 0.66227 0.8689 0.29689 0.0
H2720 H 0.64598 0.85107 0.25427 0.0
H2721 H 0.56828 0.81359 0.29123 0.0
H2722 H 0.58424 0.83098 0.33412 0.0
H2723 H 0.61068 0.97678 0.43665 0.0
H2724 H 0.64022 0.9483 0.40942 0.0
H2725 H 0.56869 0.88629 0.39433 0.0
H2726 H 0.53934 0.91536 0.42067 0.0
H2727 H 0.59869 0.88319 0.35357 0.0
H2728 H 0.62576 0.8859 0.44013 0.0
H2729 H 0.6467 0.90195 0.48105 0.0
H2730 H 0.72087 0.94016 0.43895 0.0
H2731 H 0.70034 0.92459 0.39794 0.0
C2732 C 0.68525 0.7959 0.31482 0.0
C2733 C 0.71304 0.8067 0.30697 0.0
C2734 C 0.6675 0.8128 0.32887 0.0
C2735 C 0.67709 0.84094 0.33613 0.0
C2736 C 0.70506 0.85141 0.32889 0.0
C2737 C 0.72251 0.83478 0.31434 0.0
C2738 C 0.65869 0.85939 0.35196 0.0
C2739 C 0.6668 0.8741 0.37539 0.0
C2740 C 0.63358 0.86303 0.3443 0.0
C2741 C 0.62461 0.85086 0.3187 0.0
C2742 C 0.64189 0.85643 0.29594 0.0
C2743 C 0.63267 0.84654 0.27173 0.0
C2744 C 0.60615 0.83113 0.27004 0.0
C2745 C 0.58885 0.82547 0.29257 0.0
C2746 C 0.59797 0.83532 0.31683 0.0
C2747 C 0.60114 0.95754 0.42668 0.0
C2748 C 0.57225 0.94923 0.43001 0.0
C2749 C 0.61826 0.94067 0.41154 0.0
C2750 C 0.60731 0.9143 0.39968 0.0
C2751 C 0.57831 0.90629 0.40275 0.0
C2752 C 0.56125 0.92325 0.41768 0.0
C2753 C 0.6255 0.89527 0.38389 0.0
C2754 C 0.61741 0.8804 0.36028 0.0
C2755 C 0.65089 0.89167 0.39127 0.0
C2756 C 0.66137 0.90441 0.41606 0.0
C2757 C 0.64627 0.89828 0.4397 0.0
C2758 C 0.65815 0.90713 0.46288 0.0
C2759 C 0.6851 0.92203 0.46253 0.0
C2760 C 0.7 0.92866 0.43916 0.0
C2761 C 0.68824 0.9199 0.416 0.0
H2762 H 0.69466 0.92821 0.48025 0.0
H2763 H 0.59897 0.82366 0.25128 0.0
H2764 H 0.2283 0.68214 0.29371 0.0
H2765 H 0.20029 0.65519 0.32539 0.0
H2766 H 0.17474 0.72766 0.3666 0.0
H2767 H 0.20715 0.75536 0.33726 0.0
H2768 H 0.18103 0.69919 0.39968 0.0
H2769 H 0.1344 0.67149 0.32002 0.0
H2770 H 0.133 0.65274 0.27401 0.0
H2771 H 0.15543 0.57955 0.28981 0.0
H2772 H 0.15719 0.59794 0.33581 0.0
H2773 H 0.05434 0.61827 0.46191 0.0
H2774 H 0.0848 0.64987 0.4338 0.0
H2775 H 0.14206 0.59502 0.41749 0.0
H2776 H 0.11328 0.56475 0.44645 0.0
H2777 H 0.11756 0.6135 0.37187 0.0
H2778 H 0.17074 0.63792 0.44413 0.0
H2779 H 0.17552 0.65093 0.4906 0.0
H2780 H 0.14617 0.72459 0.48818 0.0
H2781 H 0.14062 0.71161 0.4417 0.0
C2782 C 0.21749 0.6926 0.30988 0.0
C2783 C 0.22021 0.72116 0.31285 0.0
C2784 C 0.20061 0.6769 0.32769 0.0
C2785 C 0.18432 0.68904 0.34801 0.0
C2786 C 0.18678 0.71759 0.35096 0.0
C2787 C 0.20496 0.73349 0.33388 0.0
C2788 C 0.16563 0.67226 0.36676 0.0
C2789 C 0.16673 0.68086 0.39338 0.0
C2790 C 0.14781 0.64737 0.3589 0.0
C2791 C 0.14601 0.63616 0.33133 0.0
C2792 C 0.13904 0.65142 0.31366 0.0
C2793 C 0.13821 0.64085 0.28758 0.0
C2794 C 0.14414 0.61498 0.27899 0.0
C2795 C 0.15082 0.59957 0.29648 0.0
C2796 C 0.15167 0.61003 0.32255 0.0
C2797 C 0.07394 0.61361 0.45316 0.0
C2798 C 0.08132 0.589 0.45631 0.0
C2799 C 0.09104 0.63134 0.4368 0.0
C2800 C 0.1153 0.62433 0.42326 0.0
C2801 C 0.12328 0.60057 0.42752 0.0
C2802 C 0.10682 0.58343 0.44425 0.0
C2803 C 0.13243 0.64131 0.40421 0.0
C2804 C 0.13135 0.63238 0.37778 0.0
C2805 C 0.15083 0.66532 0.41206 0.0
C2806 C 0.15484 0.67362 0.43966 0.0
C2807 C 0.16501 0.65674 0.4536 0.0
C2808 C 0.1679 0.6641 0.47991 0.0
C2809 C 0.16102 0.68851 0.49239 0.0
C2810 C 0.15139 0.70565 0.47851 0.0
C2811 C 0.14834 0.69829 0.45219 0.0
H2812 H 0.16325 0.69418 0.51278 0.0
H2813 H 0.14354 0.60688 0.2588 0.0
H2814 H 0.40626 0.17929 0.31517 0.0
H2815 H 0.41725 0.14341 0.3357 0.0
H2816 H 0.35134 0.15239 0.39644 0.0
H2817 H 0.34152 0.19004 0.37638 0.0
H2818 H 0.39503 0.15377 0.41722 0.0
H2819 H 0.3525 0.08934 0.35104 0.0
H2820 H 0.34214 0.07091 0.30652 0.0
H2821 H 0.42773 0.07031 0.28355 0.0
H2822 H 0.43859 0.08881 0.32785 0.0
H2823 H 0.43381 0.04657 0.47057 0.0
H2824 H 0.40688 0.06989 0.4487 0.0
H2825 H 0.47621 0.0889 0.39166 0.0
H2826 H 0.50353 0.06579 0.41388 0.0
H2827 H 0.42377 0.0693 0.37221 0.0
H2828 H 0.4661 0.13578 0.43807 0.0
H2829 H 0.47679 0.15581 0.48209 0.0
H2830 H 0.39089 0.15304 0.50621 0.0
H2831 H 0.37963 0.13256 0.46244 0.0
C2832 C 0.39357 0.17299 0.33246 0.0
C2833 C 0.37315 0.1873 0.34429 0.0
C2834 C 0.39969 0.15226 0.34415 0.0
C2835 C 0.38491 0.14478 0.36753 0.0
C2836 C 0.36298 0.15774 0.37838 0.0
C2837 C 0.35714 0.17896 0.36681 0.0
C2838 C 0.39493 0.12607 0.38186 0.0
C2839 C 0.40056 0.13488 0.40758 0.0
C2840 C 0.40286 0.10176 0.36924 0.0
C2841 C 0.39631 0.09045 0.34269 0.0
C2842 C 0.36909 0.08533 0.33644 0.0
C2843 C 0.36314 0.07485 0.31126 0.0
C2844 C 0.38426 0.06944 0.29222 0.0
C2845 C 0.41138 0.07444 0.29832 0.0
C2846 C 0.41742 0.08481 0.32347 0.0
C2847 C 0.443 0.05501 0.45287 0.0
C2848 C 0.47058 0.05424 0.44365 0.0
C2849 C 0.42777 0.06865 0.44071 0.0
C2850 C 0.43983 0.08153 0.41902 0.0
C2851 C 0.46675 0.07916 0.40859 0.0
C2852 C 0.48216 0.06562 0.42095 0.0
C2853 C 0.42422 0.09732 0.40708 0.0
C2854 C 0.41757 0.08787 0.38194 0.0
C2855 C 0.41522 0.12086 0.4204 0.0
C2856 C 0.42198 0.13219 0.44702 0.0
C2857 C 0.44944 0.139 0.45284 0.0
C2858 C 0.45562 0.15056 0.47774 0.0
C2859 C 0.43453 0.15559 0.49696 0.0
C2860 C 0.40721 0.14905 0.49133 0.0
C2861 C 0.40092 0.13746 0.46648 0.0
H2862 H 0.43937 0.16464 0.51618 0.0
H2863 H 0.37961 0.06136 0.27273 0.0
H2864 H 0.66183 0.86754 0.71085 0.0
H2865 H 0.65118 0.90238 0.68791 0.0
H2866 H 0.65262 0.84782 0.61672 0.0
H2867 H 0.66326 0.81284 0.63987 0.0
H2868 H 0.67044 0.90292 0.60896 0.0
H2869 H 0.59589 0.84484 0.64963 0.0
H2870 H 0.56908 0.82013 0.68475 0.0
H2871 H 0.56011 0.89616 0.73017 0.0
H2872 H 0.58759 0.92138 0.69554 0.0
H2873 H 0.56633 0.92405 0.5454 0.0
H2874 H 0.59581 0.90872 0.56974 0.0
H2875 H 0.58763 0.97458 0.63048 0.0
H2876 H 0.55751 0.99147 0.60517 0.0
H2877 H 0.57826 0.92082 0.64575 0.0
H2878 H 0.64834 0.97585 0.59254 0.0
H2879 H 0.67122 0.99203 0.55153 0.0
H2880 H 0.68158 0.91064 0.52156 0.0
H2881 H 0.65828 0.89391 0.56205 0.0
C2882 C 0.66064 0.86342 0.69018 0.0
C2883 C 0.6629 0.83772 0.67705 0.0
C2884 C 0.65468 0.88324 0.67711 0.0
C2885 C 0.6507 0.87742 0.65079 0.0
C2886 C 0.65563 0.85261 0.63705 0.0
C2887 C 0.66162 0.83271 0.65021 0.0
C2888 C 0.63717 0.89524 0.63897 0.0
C2889 C 0.65036 0.90701 0.61699 0.0
C2890 C 0.6108 0.90009 0.64935 0.0
C2891 C 0.59423 0.88502 0.67021 0.0
C2892 C 0.58854 0.85632 0.66725 0.0
C2893 C 0.57318 0.8422 0.68705 0.0
C2894 C 0.56301 0.85657 0.70974 0.0
C2895 C 0.56813 0.88507 0.71264 0.0
C2896 C 0.58364 0.89929 0.69295 0.0
C2897 C 0.57071 0.93599 0.56375 0.0
C2898 C 0.55959 0.95958 0.57305 0.0
C2899 C 0.58797 0.92702 0.57759 0.0
C2900 C 0.59469 0.941 0.60142 0.0
C2901 C 0.58309 0.96397 0.61166 0.0
C2902 C 0.56575 0.97343 0.59739 0.0
C2903 C 0.61173 0.92926 0.61602 0.0
C2904 C 0.59887 0.91785 0.63832 0.0
C2905 C 0.63774 0.92358 0.60499 0.0
C2906 C 0.65159 0.93366 0.58043 0.0
C2907 C 0.65532 0.96138 0.57713 0.0
C2908 C 0.66836 0.97066 0.55395 0.0
C2909 C 0.67788 0.95244 0.53395 0.0
C2910 C 0.67425 0.92482 0.53701 0.0
C2911 C 0.66114 0.91543 0.56011 0.0
H2912 H 0.68813 0.95987 0.51618 0.0
H2913 H 0.55107 0.84561 0.72504 0.0
H2914 H 0.6798 0.21176 0.2967 0.0
H2915 H 0.65216 0.18101 0.32621 0.0
H2916 H 0.72383 0.18259 0.36453 0.0
H2917 H 0.75174 0.21293 0.33452 0.0
H2918 H 0.6964 0.13316 0.36089 0.0
H2919 H 0.66962 0.21888 0.39159 0.0
H2920 H 0.65166 0.26078 0.3914 0.0
H2921 H 0.57645 0.21296 0.36544 0.0
H2922 H 0.59404 0.17075 0.36536 0.0
H2923 H 0.61706 0.07451 0.47228 0.0
H2924 H 0.64866 0.1025 0.44196 0.0
H2925 H 0.58081 0.10368 0.39931 0.0
H2926 H 0.54951 0.07684 0.42996 0.0
H2927 H 0.60793 0.15234 0.40649 0.0
H2928 H 0.63483 0.06619 0.37654 0.0
H2929 H 0.65117 0.0246 0.38169 0.0
H2930 H 0.7259 0.07343 0.40776 0.0
H2931 H 0.70978 0.11533 0.40315 0.0
C2932 C 0.68969 0.20584 0.31155 0.0
C2933 C 0.71801 0.21528 0.31336 0.0
C2934 C 0.67378 0.18817 0.32855 0.0
C2935 C 0.6856 0.17965 0.34816 0.0
C2936 C 0.714 0.18876 0.34975 0.0
C2937 C 0.72999 0.20628 0.33258 0.0
C2938 C 0.66843 0.16123 0.36682 0.0
C2939 C 0.67722 0.13761 0.37107 0.0
C2940 C 0.64305 0.16639 0.37999 0.0
C2941 C 0.63315 0.19172 0.37844 0.0
C2942 C 0.64937 0.21733 0.3856 0.0
C2943 C 0.63919 0.24111 0.38567 0.0
C2944 C 0.61281 0.23949 0.37871 0.0
C2945 C 0.59677 0.21414 0.37108 0.0
C2946 C 0.60682 0.1903 0.37103 0.0
C2947 C 0.60915 0.08028 0.45606 0.0
C2948 C 0.58088 0.07321 0.45327 0.0
C2949 C 0.62719 0.09635 0.4387 0.0
C2950 C 0.61733 0.10531 0.41803 0.0
C2951 C 0.58915 0.09735 0.41499 0.0
C2952 C 0.57124 0.08173 0.43241 0.0
C2953 C 0.63562 0.12406 0.40027 0.0
C2954 C 0.62706 0.14781 0.39624 0.0
C2955 C 0.66113 0.11897 0.38737 0.0
C2956 C 0.67102 0.09385 0.38971 0.0
C2957 C 0.65469 0.06804 0.3835 0.0
C2958 C 0.6639 0.04442 0.38632 0.0
C2959 C 0.68953 0.04637 0.3951 0.0
C2960 C 0.70604 0.07195 0.401 0.0
C2961 C 0.69689 0.09563 0.39827 0.0
H2962 H 0.69663 0.02805 0.39728 0.0
H2963 H 0.60481 0.2579 0.37914 0.0
H2964 H 0.87642 0.68161 0.33482 0.0
H2965 H 0.90581 0.67012 0.36412 0.0
H2966 H 0.83865 0.60808 0.39054 0.0
H2967 H 0.8094 0.62011 0.36201 0.0
H2968 H 0.8661 0.62852 0.429 0.0
H2969 H 0.89114 0.59734 0.33866 0.0
H2970 H 0.90797 0.60335 0.29314 0.0
H2971 H 0.98381 0.65221 0.31664 0.0
H2972 H 0.96718 0.64694 0.36236 0.0
H2973 H 0.9316 0.52919 0.46568 0.0
H2974 H 0.90465 0.55494 0.44603 0.0
H2975 H 0.97922 0.61065 0.42328 0.0
H2976 H 1.00602 0.58397 0.44136 0.0
H2977 H 0.95124 0.59949 0.38542 0.0
H2978 H 0.92768 0.62605 0.47594 0.0
H2979 H 0.91097 0.61755 0.52093 0.0
H2980 H 0.83273 0.57558 0.49699 0.0
H2981 H 0.84911 0.5835 0.4518 0.0
C2982 C 0.86785 0.66612 0.34751 0.0
C2983 C 0.84075 0.65163 0.34617 0.0
C2984 C 0.88468 0.65933 0.36404 0.0
C2985 C 0.87471 0.63771 0.37919 0.0
C2986 C 0.847 0.62469 0.37905 0.0
C2987 C 0.83026 0.63152 0.3627 0.0
C2988 C 0.89317 0.6268 0.39355 0.0
C2989 C 0.88471 0.62215 0.41943 0.0
C2990 C 0.91783 0.61891 0.38141 0.0
C2991 C 0.92776 0.62207 0.35393 0.0
C2992 C 0.91131 0.60955 0.33413 0.0
C2993 C 0.92081 0.61282 0.3083 0.0
C2994 C 0.9469 0.62823 0.30201 0.0
C2995 C 0.96356 0.64037 0.32154 0.0
C2996 C 0.95409 0.63729 0.34742 0.0
C2997 C 0.94203 0.54708 0.45666 0.0
C2998 C 0.97077 0.55468 0.45498 0.0
C2999 C 0.92668 0.56192 0.44554 0.0
C3000 C 0.93978 0.58513 0.4334 0.0
C3001 C 0.96852 0.59288 0.43236 0.0
C3002 C 0.98383 0.57769 0.4428 0.0
C3003 C 0.92392 0.60073 0.42076 0.0
C3004 C 0.93291 0.60627 0.39521 0.0
C3005 C 0.89974 0.60935 0.43319 0.0
C3006 C 0.88966 0.60528 0.46048 0.0
C3007 C 0.90693 0.61496 0.48027 0.0
C3008 C 0.89753 0.61021 0.50581 0.0
C3009 C 0.87082 0.59599 0.51182 0.0
C3010 C 0.85342 0.58659 0.49232 0.0
C3011 C 0.86273 0.59124 0.46675 0.0
H3012 H 0.86359 0.5923 0.5316 0.0
H3013 H 0.95424 0.63069 0.28199 0.0
H3014 H 0.34598 0.81756 0.28782 0.0
H3015 H 0.37546 0.84298 0.31982 0.0
H3016 H 0.305 0.84297 0.37682 0.0
H3017 H 0.27492 0.81686 0.34445 0.0
H3018 H 0.33788 0.89298 0.37671 0.0
H3019 H 0.3591 0.80388 0.38929 0.0
H3020 H 0.37423 0.75978 0.37688 0.0
H3021 H 0.44204 0.79785 0.32701 0.0
H3022 H 0.42793 0.84233 0.34 0.0
H3023 H 0.42348 0.95071 0.47859 0.0
H3024 H 0.38918 0.92433 0.45046 0.0
H3025 H 0.45455 0.9085 0.39137 0.0
H3026 H 0.48855 0.93338 0.42007 0.0
H3027 H 0.42176 0.86433 0.39501 0.0
H3028 H 0.40743 0.95372 0.38837 0.0
H3029 H 0.39682 0.99942 0.40284 0.0
H3030 H 0.31769 0.96323 0.43813 0.0
H3031 H 0.32805 0.91736 0.42427 0.0
C3032 C 0.33657 0.82286 0.30717 0.0
C3033 C 0.30798 0.81501 0.31359 0.0
C3034 C 0.35364 0.83716 0.3256 0.0
C3035 C 0.3427 0.84429 0.35101 0.0
C3036 C 0.31401 0.83734 0.3574 0.0
C3037 C 0.29678 0.82271 0.33886 0.0
C3038 C 0.36119 0.86089 0.36998 0.0
C3039 C 0.35594 0.88649 0.38117 0.0
C3040 C 0.38542 0.85311 0.37506 0.0
C3041 C 0.39215 0.82615 0.36516 0.0
C3042 C 0.37699 0.80269 0.3754 0.0
C3043 C 0.38559 0.77774 0.36851 0.0
C3044 C 0.40887 0.77594 0.35092 0.0
C3045 C 0.42387 0.7992 0.34045 0.0
C3046 C 0.41573 0.8243 0.34772 0.0
C3047 C 0.43034 0.94179 0.45946 0.0
C3048 C 0.45854 0.94395 0.45143 0.0
C3049 C 0.41077 0.92683 0.44329 0.0
C3050 C 0.41909 0.91444 0.41853 0.0
C3051 C 0.44741 0.91756 0.41035 0.0
C3052 C 0.46688 0.93187 0.4267 0.0
C3053 C 0.39871 0.89675 0.40173 0.0
C3054 C 0.40363 0.87093 0.39084 0.0
C3055 C 0.37449 0.90463 0.3966 0.0
C3056 C 0.36865 0.93217 0.4056 0.0
C3057 C 0.38792 0.95554 0.3995 0.0
C3058 C 0.38192 0.98147 0.40753 0.0
C3059 C 0.35663 0.98423 0.42146 0.0
C3060 C 0.3373 0.96108 0.42741 0.0
C3061 C 0.34322 0.93512 0.4195 0.0
H3062 H 0.35199 1.00432 0.42759 0.0
H3063 H 0.41539 0.75658 0.34554 0.0
H3064 H 0.17967 0.27651 0.30871 0.0
H3065 H 0.15126 0.30365 0.33835 0.0
H3066 H 0.21917 0.37227 0.33988 0.0
H3067 H 0.24837 0.34402 0.31201 0.0
H3068 H 0.19611 0.37887 0.38213 0.0
H3069 H 0.15393 0.36251 0.30516 0.0
H3070 H 0.13356 0.33682 0.26648 0.0
H3071 H 0.06886 0.29213 0.31485 0.0
H3072 H 0.08907 0.31729 0.35384 0.0
H3073 H 0.10922 0.47271 0.43543 0.0
H3074 H 0.13772 0.44513 0.40716 0.0
H3075 H 0.07889 0.37242 0.42305 0.0
H3076 H 0.04901 0.40064 0.45101 0.0
H3077 H 0.09738 0.36967 0.37156 0.0
H3078 H 0.14633 0.39546 0.44953 0.0
H3079 H 0.16887 0.42976 0.48241 0.0
H3080 H 0.22385 0.46831 0.42263 0.0
H3081 H 0.20144 0.43444 0.38941 0.0
C3082 C 0.18863 0.29741 0.31533 0.0
C3083 C 0.21642 0.30796 0.30754 0.0
C3084 C 0.17208 0.31327 0.33221 0.0
C3085 C 0.18217 0.34087 0.34116 0.0
C3086 C 0.21021 0.35131 0.33357 0.0
C3087 C 0.22708 0.33507 0.31736 0.0
C3088 C 0.16381 0.35833 0.35875 0.0
C3089 C 0.17464 0.37683 0.37936 0.0
C3090 C 0.13551 0.35667 0.35576 0.0
C3091 C 0.12316 0.3416 0.33242 0.0
C3092 C 0.13544 0.34709 0.30755 0.0
C3093 C 0.12393 0.33263 0.28557 0.0
C3094 C 0.09996 0.31282 0.28822 0.0
C3095 C 0.08744 0.30746 0.31284 0.0
C3096 C 0.0989 0.32183 0.33489 0.0
C3097 C 0.10218 0.45079 0.43337 0.0
C3098 C 0.07657 0.43916 0.44611 0.0
C3099 C 0.11887 0.43485 0.41706 0.0
C3100 C 0.11121 0.40629 0.41299 0.0
C3101 C 0.08573 0.39434 0.42582 0.0
C3102 C 0.06869 0.4105 0.44221 0.0
C3103 C 0.12963 0.38941 0.39506 0.0
C3104 C 0.11883 0.37129 0.37426 0.0
C3105 C 0.15833 0.3926 0.39695 0.0
C3106 C 0.17216 0.41246 0.41703 0.0
C3107 C 0.1632 0.41127 0.44343 0.0
C3108 C 0.17594 0.43066 0.46211 0.0
C3109 C 0.19776 0.4512 0.45462 0.0
C3110 C 0.20696 0.45238 0.42842 0.0
C3111 C 0.19429 0.43307 0.40967 0.0
H3112 H 0.20756 0.4662 0.46911 0.0
H3113 H 0.09103 0.30168 0.2712 0.0
H3114 H 0.35507 0.24449 0.71105 0.0
H3115 H 0.38582 0.21617 0.68595 0.0
H3116 H 0.31725 0.14858 0.67877 0.0
H3117 H 0.28745 0.17615 0.70621 0.0
H3118 H 0.35268 0.12536 0.68057 0.0
H3119 H 0.36005 0.19514 0.6255 0.0
H3120 H 0.36863 0.24176 0.61349 0.0
H3121 H 0.45091 0.2559 0.63492 0.0
H3122 H 0.44288 0.20907 0.64675 0.0
H3123 H 0.42364 0.04582 0.57847 0.0
H3124 H 0.39391 0.07445 0.60505 0.0
H3125 H 0.4655 0.13321 0.62651 0.0
H3126 H 0.49513 0.10461 0.59944 0.0
H3127 H 0.42957 0.1606 0.61714 0.0
H3128 H 0.41936 0.08672 0.66944 0.0
H3129 H 0.40833 0.03844 0.67736 0.0
H3130 H 0.32674 0.03128 0.65625 0.0
H3131 H 0.33743 0.07941 0.64786 0.0
C3132 C 0.34653 0.22359 0.70406 0.0
C3133 C 0.31853 0.21285 0.71094 0.0
C3134 C 0.36425 0.20719 0.68915 0.0
C3135 C 0.3545 0.17965 0.67926 0.0
C3136 C 0.32621 0.16932 0.68582 0.0
C3137 C 0.30882 0.18535 0.70156 0.0
C3138 C 0.37339 0.16133 0.6631 0.0
C3139 C 0.36905 0.13337 0.66641 0.0
C3140 C 0.39572 0.17074 0.64458 0.0
C3141 C 0.40074 0.19876 0.6373 0.0
C3142 C 0.37993 0.20824 0.62775 0.0
C3143 C 0.3847 0.23473 0.621 0.0
C3144 C 0.41019 0.25197 0.62375 0.0
C3145 C 0.43112 0.24259 0.63294 0.0
C3146 C 0.42651 0.21603 0.63956 0.0
C3147 C 0.43313 0.06424 0.58974 0.0
C3148 C 0.46209 0.07185 0.58777 0.0
C3149 C 0.41596 0.08097 0.60491 0.0
C3150 C 0.42694 0.10628 0.6187 0.0
C3151 C 0.45595 0.11391 0.61663 0.0
C3152 C 0.4731 0.09713 0.60145 0.0
C3153 C 0.40843 0.1249 0.63457 0.0
C3154 C 0.41297 0.15282 0.63123 0.0
C3155 C 0.38577 0.11533 0.65252 0.0
C3156 C 0.37927 0.08656 0.65785 0.0
C3157 C 0.39912 0.07479 0.66638 0.0
C3158 C 0.39293 0.04746 0.67094 0.0
C3159 C 0.36687 0.03179 0.66726 0.0
C3160 C 0.34693 0.04343 0.65907 0.0
C3161 C 0.35303 0.07073 0.65442 0.0
H3162 H 0.36212 0.01063 0.6708 0.0
H3163 H 0.41378 0.27253 0.61863 0.0
H3164 H 0.7823 0.29414 0.67668 0.0
H3165 H 0.81136 0.32238 0.64546 0.0
H3166 H 0.87357 0.3469 0.6984 0.0
H3167 H 0.84475 0.31885 0.72963 0.0
H3168 H 0.8638 0.39015 0.67603 0.0
H3169 H 0.883 0.30062 0.6504 0.0
H3170 H 0.87354 0.2511 0.63673 0.0
H3171 H 0.8388 0.26413 0.56999 0.0
H3172 H 0.84764 0.31375 0.58356 0.0
H3173 H 0.98348 0.43904 0.59625 0.0
H3174 H 0.94947 0.41189 0.62491 0.0
H3175 H 0.89441 0.39139 0.56521 0.0
H3176 H 0.92855 0.41903 0.5365 0.0
H3177 H 0.89693 0.34748 0.58977 0.0
H3178 H 0.88176 0.43855 0.61472 0.0
H3179 H 0.89128 0.48785 0.62967 0.0
H3180 H 0.92004 0.47212 0.69857 0.0
H3181 H 0.91093 0.42276 0.68393 0.0
C3182 C 0.8021 0.30569 0.6817 0.0
C3183 C 0.81131 0.30422 0.70553 0.0
C3184 C 0.81869 0.3217 0.66383 0.0
C3185 C 0.84466 0.33655 0.6696 0.0
C3186 C 0.8536 0.33558 0.69361 0.0
C3187 C 0.83716 0.31943 0.71136 0.0
C3188 C 0.86285 0.35275 0.65047 0.0
C3189 C 0.87129 0.38084 0.65724 0.0
C3190 C 0.872 0.34064 0.62578 0.0
C3191 C 0.8656 0.31081 0.61819 0.0
C3192 C 0.87296 0.29288 0.63303 0.0
C3193 C 0.86781 0.2648 0.62524 0.0
C3194 C 0.85551 0.25445 0.60254 0.0
C3195 C 0.84826 0.27216 0.58761 0.0
C3196 C 0.85331 0.30025 0.59535 0.0
C3197 C 0.9645 0.42787 0.58895 0.0
C3198 C 0.95884 0.43031 0.56396 0.0
C3199 C 0.94488 0.41291 0.60551 0.0
C3200 C 0.91922 0.40013 0.59737 0.0
C3201 C 0.91406 0.40129 0.57188 0.0
C3202 C 0.93369 0.41656 0.55533 0.0
C3203 C 0.8982 0.38492 0.61534 0.0
C3204 C 0.88924 0.35694 0.60841 0.0
C3205 C 0.8888 0.39717 0.63999 0.0
C3206 C 0.89597 0.42696 0.64805 0.0
C3207 C 0.89052 0.44563 0.63286 0.0
C3208 C 0.89571 0.47358 0.64135 0.0
C3209 C 0.90633 0.48312 0.66501 0.0
C3210 C 0.91186 0.46472 0.68022 0.0
C3211 C 0.90668 0.43676 0.67184 0.0
H3212 H 0.9102 0.50475 0.67161 0.0
H3213 H 0.85168 0.23271 0.59647 0.0
H3214 H 0.21006 0.7455 0.68753 0.0
H3215 H 0.1786 0.71612 0.65842 0.0
H3216 H 0.19515 0.64487 0.68503 0.0
H3217 H 0.22504 0.67385 0.71536 0.0
H3218 H 0.19969 0.64976 0.62506 0.0
H3219 H 0.14144 0.64852 0.70544 0.0
H3220 H 0.11795 0.66783 0.74582 0.0
H3221 H 0.07812 0.71155 0.70251 0.0
H3222 H 0.10183 0.69276 0.6618 0.0
H3223 H 0.09497 0.54309 0.57247 0.0
H3224 H 0.12933 0.57353 0.59817 0.0
H3225 H 0.09069 0.64128 0.59322 0.0
H3226 H 0.05631 0.61074 0.56775 0.0
H3227 H 0.09823 0.63875 0.6421 0.0
H3228 H 0.15446 0.63653 0.56089 0.0
H3229 H 0.17795 0.6162 0.5209 0.0
H3230 H 0.22185 0.57826 0.56583 0.0
H3231 H 0.19824 0.59795 0.60609 0.0
C3232 C 0.20706 0.72359 0.68722 0.0
C3233 C 0.2206 0.71216 0.70358 0.0
C3234 C 0.18902 0.70684 0.6706 0.0
C3235 C 0.18467 0.67835 0.66952 0.0
C3236 C 0.19836 0.66683 0.68548 0.0
C3237 C 0.21572 0.68352 0.70264 0.0
C3238 C 0.16601 0.66054 0.65155 0.0
C3239 C 0.17748 0.64708 0.62885 0.0
C3240 C 0.13712 0.65746 0.6563 0.0
C3241 C 0.12374 0.66964 0.68068 0.0
C3242 C 0.12802 0.6626 0.70457 0.0
C3243 C 0.11449 0.67327 0.7275 0.0
C3244 C 0.0965 0.6909 0.72676 0.0
C3245 C 0.09207 0.69792 0.70306 0.0
C3246 C 0.10555 0.68727 0.68006 0.0
C3247 C 0.09434 0.56463 0.5764 0.0
C3248 C 0.0734 0.57478 0.56789 0.0
C3249 C 0.11392 0.58201 0.59107 0.0
C3250 C 0.11277 0.60982 0.59756 0.0
C3251 C 0.09209 0.61998 0.58848 0.0
C3252 C 0.07259 0.60261 0.57379 0.0
C3253 C 0.1318 0.62789 0.61527 0.0
C3254 C 0.12042 0.64145 0.63806 0.0
C3255 C 0.16079 0.63092 0.61061 0.0
C3256 C 0.17437 0.61845 0.58646 0.0
C3257 C 0.16887 0.62357 0.56222 0.0
C3258 C 0.18227 0.61223 0.53952 0.0
C3259 C 0.20135 0.59591 0.54082 0.0
C3260 C 0.20704 0.59086 0.56484 0.0
C3261 C 0.19365 0.60209 0.5876 0.0
H3262 H 0.21177 0.58723 0.52321 0.0
H3263 H 0.08606 0.69917 0.74456 0.0
loop_
_geom_bond_atom_site_label_1
_geom_bond_atom_site_label_2
_geom_bond_distance
_geom_bond_site_symmetry_2
_ccdc_geom_bond_type
Eu0 N29 2.600 . S
Eu0 N35 2.562 . S
Eu0 O44 2.462 . S
Eu0 O45 2.373 . S
Eu0 O47 2.432 . S
Eu0 O48 2.291 . S
Eu0 O52 2.335 . S
Eu0 O55 2.372 . S
Eu0 C64 2.787 . S
C1 N2 1.365 . S
C1 C4 1.405 . S
C1 C8 1.448 . S
N2 C1 1.365 . S
N2 C5 1.319 . S
N2 Eu11 2.600 . S
C3 C5 1.397 . S
C3 C6 1.367 . S
C3 H23 0.931 . S
C4 C1 1.405 . S
C4 C6 1.403 . S
C4 C10 1.439 . S
C5 N2 1.319 . S
C5 C3 1.397 . S
C5 H16 0.930 . S
C6 C3 1.367 . S
C6 C4 1.403 . S
C6 H27 0.929 . S
C7 C8 1.430 . S
C7 C9 1.387 . S
C7 C13 1.404 . S
C8 C1 1.448 . S
C8 C7 1.430 . S
C8 N12 1.351 . S
C9 C7 1.387 . S
C9 C10 1.374 . S
C9 H24 0.931 . S
C10 C4 1.439 . S
C10 C9 1.374 . S
C10 H25 0.931 . S
Eu11 N2 2.600 . S
Eu11 N12 2.562 . S
Eu11 O46 2.335 . S
Eu11 O49 2.372 . S
Eu11 O50 2.462 . S
Eu11 O51 2.373 . S
Eu11 O53 2.432 . S
Eu11 O54 2.291 . S
Eu11 C75 2.787 . S
N12 C8 1.351 . S
N12 Eu11 2.562 . S
N12 C14 1.325 . S
C13 C7 1.404 . S
C13 C15 1.366 . S
C13 H21 0.930 . S
C14 N12 1.325 . S
C14 C15 1.416 . S
C14 H20 0.929 . S
C15 C13 1.366 . S
C15 C14 1.416 . S
C15 H17 0.930 . S
H16 C5 0.930 . S
H17 C15 0.930 . S
H18 C33 0.930 . S
H19 C40 0.930 . S
H20 C14 0.929 . S
H21 C13 0.930 . S
H22 C36 0.929 . S
H23 C3 0.931 . S
H24 C9 0.931 . S
H25 C10 0.931 . S
H26 C31 0.931 . S
H27 C6 0.929 . S
H28 C39 0.930 . S
N29 Eu0 2.600 . S
N29 C30 1.365 . S
N29 C33 1.319 . S
C30 N29 1.365 . S
C30 C32 1.405 . S
C30 C38 1.448 . S
C31 H26 0.931 . S
C31 C33 1.397 . S
C31 C34 1.367 . S
C32 C30 1.405 . S
C32 C34 1.403 . S
C32 C65 1.439 . S
C33 H18 0.930 . S
C33 N29 1.319 . S
C33 C31 1.397 . S
C34 C31 1.367 . S
C34 C32 1.403 . S
C34 H41 0.929 . S
N35 Eu0 2.562 . S
N35 C36 1.325 . S
N35 C38 1.351 . S
C36 H22 0.929 . S
C36 N35 1.325 . S
C36 C40 1.416 . S
C37 C38 1.430 . S
C37 C39 1.404 . S
C37 C66 1.387 . S
C38 C30 1.448 . S
C38 N35 1.351 . S
C38 C37 1.430 . S
C39 H28 0.930 . S
C39 C37 1.404 . S
C39 C40 1.366 . S
C40 H19 0.930 . S
C40 C36 1.416 . S
C40 C39 1.366 . S
H41 C34 0.929 . S
H42 C65 0.931 . S
H43 C66 0.931 . S
O44 Eu0 2.462 . S
O44 C64 1.252 . S
O45 Eu0 2.373 . S
O45 C56 1.249 . S
O46 Eu11 2.335 . S
O46 C56 1.264 . S
O47 Eu0 2.432 . S
O47 C64 1.268 . S
O48 Eu0 2.291 . S
O48 C63 1.255 . S
O49 Eu11 2.372 . S
O49 C63 1.257 . S
O50 Eu11 2.462 . S
O50 C75 1.252 . S
O51 Eu11 2.373 . S
O51 C67 1.249 . S
O52 Eu0 2.335 . S
O52 C67 1.264 . S
O53 Eu11 2.432 . S
O53 C75 1.268 . S
O54 Eu11 2.291 . S
O54 C74 1.255 . S
O55 Eu0 2.372 . S
O55 C74 1.257 . S
C56 O45 1.249 . S
C56 O46 1.264 . S
C57 C60 1.382 . S
C57 C62 1.390 . S
C57 C64 1.506 . S
C58 C59 1.398 . S
C58 C62 1.392 . S
C59 C58 1.398 . S
C59 C61 1.372 . S
C59 H76 0.931 . S
C60 C57 1.382 . S
C60 C61 1.390 . S
C60 H77 0.931 . S
C61 C59 1.372 . S
C61 C60 1.390 . S
C61 H78 0.929 . S
C62 C57 1.390 . S
C62 C58 1.392 . S
C62 H79 0.930 . S
C63 O48 1.255 . S
C63 O49 1.257 . S
C64 Eu0 2.787 . S
C64 O44 1.252 . S
C64 O47 1.268 . S
C64 C57 1.506 . S
C65 C32 1.439 . S
C65 H42 0.931 . S
C65 C66 1.374 . S
C66 C37 1.387 . S
C66 H43 0.931 . S
C66 C65 1.374 . S
C67 O51 1.249 . S
C67 O52 1.264 . S
C68 C71 1.382 . S
C68 C72 1.390 . S
C68 C75 1.506 . S
C69 C70 1.398 . S
C69 C72 1.392 . S
C70 C69 1.398 . S
C70 C73 1.372 . S
C70 H80 0.931 . S
C71 C68 1.382 . S
C71 C73 1.390 . S
C71 H81 0.931 . S
C72 C68 1.390 . S
C72 C69 1.392 . S
C72 H82 0.930 . S
C73 C70 1.372 . S
C73 C71 1.390 . S
C73 H83 0.929 . S
C74 O54 1.255 . S
C74 O55 1.257 . S
C75 Eu11 2.787 . S
C75 O50 1.252 . S
C75 O53 1.268 . S
C75 C68 1.506 . S
H76 C59 0.931 . S
H77 C60 0.931 . S
H78 C61 0.929 . S
H79 C62 0.930 . S
H80 C70 0.931 . S
H81 C71 0.931 . S
H82 C72 0.930 . S
H83 C73 0.929 . S
Eu84 N113 2.600 . S
Eu84 N119 2.562 . S
Eu84 O128 2.462 . S
Eu84 O129 2.373 . S
Eu84 O131 2.432 . S
Eu84 O132 2.291 . S
Eu84 O136 2.335 . S
Eu84 O139 2.372 . S
Eu84 C148 2.787 . S
C85 N86 1.365 . S
C85 C88 1.405 . S
C85 C92 1.448 . S
N86 C85 1.365 . S
N86 C89 1.319 . S
N86 Eu95 2.600 . S
C87 C89 1.397 . S
C87 C90 1.367 . S
C87 H107 0.931 . S
C88 C85 1.405 . S
C88 C90 1.403 . S
C88 C94 1.439 . S
C89 N86 1.319 . S
C89 C87 1.397 . S
C89 H100 0.930 . S
C90 C87 1.367 . S
C90 C88 1.403 . S
C90 H111 0.929 . S
C91 C92 1.430 . S
C91 C93 1.387 . S
C91 C97 1.404 . S
C92 C85 1.448 . S
C92 C91 1.430 . S
C92 N96 1.351 . S
C93 C91 1.387 . S
C93 C94 1.374 . S
C93 H108 0.931 . S
C94 C88 1.439 . S
C94 C93 1.374 . S
C94 H109 0.931 . S
Eu95 N86 2.600 . S
Eu95 N96 2.562 . S
Eu95 O130 2.335 . S
Eu95 O133 2.372 . S
Eu95 O134 2.462 . S
Eu95 O135 2.373 . S
Eu95 O137 2.432 . S
Eu95 O138 2.291 . S
Eu95 C159 2.787 . S
N96 C92 1.351 . S
N96 Eu95 2.562 . S
N96 C98 1.325 . S
C97 C91 1.404 . S
C97 C99 1.366 . S
C97 H105 0.930 . S
C98 N96 1.325 . S
C98 C99 1.416 . S
C98 H104 0.929 . S
C99 C97 1.366 . S
C99 C98 1.416 . S
C99 H101 0.930 . S
H100 C89 0.930 . S
H101 C99 0.930 . S
H102 C117 0.930 . S
H103 C124 0.930 . S
H104 C98 0.929 . S
H105 C97 0.930 . S
H106 C120 0.929 . S
H107 C87 0.931 . S
H108 C93 0.931 . S
H109 C94 0.931 . S
H110 C115 0.931 . S
H111 C90 0.929 . S
H112 C123 0.930 . S
N113 Eu84 2.600 . S
N113 C114 1.365 . S
N113 C117 1.319 . S
C114 N113 1.365 . S
C114 C116 1.405 . S
C114 C122 1.448 . S
C115 H110 0.931 . S
C115 C117 1.397 . S
C115 C118 1.367 . S
C116 C114 1.405 . S
C116 C118 1.403 . S
C116 C149 1.439 . S
C117 H102 0.930 . S
C117 N113 1.319 . S
C117 C115 1.397 . S
C118 C115 1.367 . S
C118 C116 1.403 . S
C118 H125 0.929 . S
N119 Eu84 2.562 . S
N119 C120 1.325 . S
N119 C122 1.351 . S
C120 H106 0.929 . S
C120 N119 1.325 . S
C120 C124 1.416 . S
C121 C122 1.430 . S
C121 C123 1.404 . S
C121 C150 1.387 . S
C122 C114 1.448 . S
C122 N119 1.351 . S
C122 C121 1.430 . S
C123 H112 0.930 . S
C123 C121 1.404 . S
C123 C124 1.366 . S
C124 H103 0.930 . S
C124 C120 1.416 . S
C124 C123 1.366 . S
H125 C118 0.929 . S
H126 C149 0.931 . S
H127 C150 0.931 . S
O128 Eu84 2.462 . S
O128 C148 1.252 . S
O129 Eu84 2.373 . S
O129 C140 1.249 . S
O130 Eu95 2.335 . S
O130 C140 1.264 . S
O131 Eu84 2.432 . S
O131 C148 1.268 . S
O132 Eu84 2.291 . S
O132 C147 1.255 . S
O133 Eu95 2.372 . S
O133 C147 1.257 . S
O134 Eu95 2.462 . S
O134 C159 1.252 . S
O135 Eu95 2.373 . S
O135 C151 1.249 . S
O136 Eu84 2.335 . S
O136 C151 1.264 . S
O137 Eu95 2.432 . S
O137 C159 1.268 . S
O138 Eu95 2.291 . S
O138 C158 1.255 . S
O139 Eu84 2.372 . S
O139 C158 1.257 . S
C140 O129 1.249 . S
C140 O130 1.264 . S
C141 C144 1.382 . S
C141 C146 1.390 . S
C141 C148 1.506 . S
C142 C143 1.398 . S
C142 C146 1.392 . S
C143 C142 1.398 . S
C143 C145 1.372 . S
C143 H160 0.931 . S
C144 C141 1.382 . S
C144 C145 1.390 . S
C144 H161 0.931 . S
C145 C143 1.372 . S
C145 C144 1.390 . S
C145 H162 0.929 . S
C146 C141 1.390 . S
C146 C142 1.392 . S
C146 H163 0.930 . S
C147 O132 1.255 . S
C147 O133 1.257 . S
C148 Eu84 2.787 . S
C148 O128 1.252 . S
C148 O131 1.268 . S
C148 C141 1.506 . S
C149 C116 1.439 . S
C149 H126 0.931 . S
C149 C150 1.374 . S
C150 C121 1.387 . S
C150 H127 0.931 . S
C150 C149 1.374 . S
C151 O135 1.249 . S
C151 O136 1.264 . S
C152 C155 1.382 . S
C152 C156 1.390 . S
C152 C159 1.506 . S
C153 C154 1.398 . S
C153 C156 1.392 . S
C154 C153 1.398 . S
C154 C157 1.372 . S
C154 H164 0.931 . S
C155 C152 1.382 . S
C155 C157 1.390 . S
C155 H165 0.931 . S
C156 C152 1.390 . S
C156 C153 1.392 . S
C156 H166 0.930 . S
C157 C154 1.372 . S
C157 C155 1.390 . S
C157 H167 0.929 . S
C158 O138 1.255 . S
C158 O139 1.257 . S
C159 Eu95 2.787 . S
C159 O134 1.252 . S
C159 O137 1.268 . S
C159 C152 1.506 . S
H160 C143 0.931 . S
H161 C144 0.931 . S
H162 C145 0.929 . S
H163 C146 0.930 . S
H164 C154 0.931 . S
H165 C155 0.931 . S
H166 C156 0.930 . S
H167 C157 0.929 . S
Eu168 N197 2.600 . S
Eu168 N203 2.562 . S
Eu168 O212 2.462 . S
Eu168 O213 2.373 . S
Eu168 O215 2.432 . S
Eu168 O216 2.291 . S
Eu168 O220 2.335 . S
Eu168 O223 2.372 . S
Eu168 C232 2.787 . S
C169 N170 1.365 . S
C169 C172 1.405 . S
C169 C176 1.448 . S
N170 C169 1.365 . S
N170 C173 1.319 . S
N170 Eu179 2.600 . S
C171 C173 1.397 . S
C171 C174 1.367 . S
C171 H191 0.931 . S
C172 C169 1.405 . S
C172 C174 1.403 . S
C172 C178 1.439 . S
C173 N170 1.319 . S
C173 C171 1.397 . S
C173 H184 0.930 . S
C174 C171 1.367 . S
C174 C172 1.403 . S
C174 H195 0.929 . S
C175 C176 1.430 . S
C175 C177 1.387 . S
C175 C181 1.404 . S
C176 C169 1.448 . S
C176 C175 1.430 . S
C176 N180 1.351 . S
C177 C175 1.387 . S
C177 C178 1.374 . S
C177 H192 0.931 . S
C178 C172 1.439 . S
C178 C177 1.374 . S
C178 H193 0.931 . S
Eu179 N170 2.600 . S
Eu179 N180 2.562 . S
Eu179 O214 2.335 . S
Eu179 O217 2.372 . S
Eu179 O218 2.462 . S
Eu179 O219 2.373 . S
Eu179 O221 2.432 . S
Eu179 O222 2.291 . S
Eu179 C243 2.787 . S
N180 C176 1.351 . S
N180 Eu179 2.562 . S
N180 C182 1.325 . S
C181 C175 1.404 . S
C181 C183 1.366 . S
C181 H189 0.930 . S
C182 N180 1.325 . S
C182 C183 1.416 . S
C182 H188 0.929 . S
C183 C181 1.366 . S
C183 C182 1.416 . S
C183 H185 0.930 . S
H184 C173 0.930 . S
H185 C183 0.930 . S
H186 C201 0.930 . S
H187 C208 0.930 . S
H188 C182 0.929 . S
H189 C181 0.930 . S
H190 C204 0.929 . S
H191 C171 0.931 . S
H192 C177 0.931 . S
H193 C178 0.931 . S
H194 C199 0.931 . S
H195 C174 0.929 . S
H196 C207 0.930 . S
N197 Eu168 2.600 . S
N197 C198 1.365 . S
N197 C201 1.319 . S
C198 N197 1.365 . S
C198 C200 1.405 . S
C198 C206 1.448 . S
C199 H194 0.931 . S
C199 C201 1.397 . S
C199 C202 1.367 . S
C200 C198 1.405 . S
C200 C202 1.403 . S
C200 C233 1.439 . S
C201 H186 0.930 . S
C201 N197 1.319 . S
C201 C199 1.397 . S
C202 C199 1.367 . S
C202 C200 1.403 . S
C202 H209 0.929 . S
N203 Eu168 2.562 . S
N203 C204 1.325 . S
N203 C206 1.351 . S
C204 H190 0.929 . S
C204 N203 1.325 . S
C204 C208 1.416 . S
C205 C206 1.430 . S
C205 C207 1.404 . S
C205 C234 1.387 . S
C206 C198 1.448 . S
C206 N203 1.351 . S
C206 C205 1.430 . S
C207 H196 0.930 . S
C207 C205 1.404 . S
C207 C208 1.366 . S
C208 H187 0.930 . S
C208 C204 1.416 . S
C208 C207 1.366 . S
H209 C202 0.929 . S
H210 C233 0.931 . S
H211 C234 0.931 . S
O212 Eu168 2.462 . S
O212 C232 1.252 . S
O213 Eu168 2.373 . S
O213 C224 1.249 . S
O214 Eu179 2.335 . S
O214 C224 1.264 . S
O215 Eu168 2.432 . S
O215 C232 1.268 . S
O216 Eu168 2.291 . S
O216 C231 1.255 . S
O217 Eu179 2.372 . S
O217 C231 1.257 . S
O218 Eu179 2.462 . S
O218 C243 1.252 . S
O219 Eu179 2.373 . S
O219 C235 1.249 . S
O220 Eu168 2.335 . S
O220 C235 1.264 . S
O221 Eu179 2.432 . S
O221 C243 1.268 . S
O222 Eu179 2.291 . S
O222 C242 1.255 . S
O223 Eu168 2.372 . S
O223 C242 1.257 . S
C224 O213 1.249 . S
C224 O214 1.264 . S
C225 C228 1.382 . S
C225 C230 1.390 . S
C225 C232 1.506 . S
C226 C227 1.398 . S
C226 C230 1.392 . S
C227 C226 1.398 . S
C227 C229 1.372 . S
C227 H244 0.931 . S
C228 C225 1.382 . S
C228 C229 1.390 . S
C228 H245 0.931 . S
C229 C227 1.372 . S
C229 C228 1.390 . S
C229 H246 0.929 . S
C230 C225 1.390 . S
C230 C226 1.392 . S
C230 H247 0.930 . S
C231 O216 1.255 . S
C231 O217 1.257 . S
C232 Eu168 2.787 . S
C232 O212 1.252 . S
C232 O215 1.268 . S
C232 C225 1.506 . S
C233 C200 1.439 . S
C233 H210 0.931 . S
C233 C234 1.374 . S
C234 C205 1.387 . S
C234 H211 0.931 . S
C234 C233 1.374 . S
C235 O219 1.249 . S
C235 O220 1.264 . S
C236 C239 1.382 . S
C236 C240 1.390 . S
C236 C243 1.506 . S
C237 C238 1.398 . S
C237 C240 1.392 . S
C238 C237 1.398 . S
C238 C241 1.372 . S
C238 H248 0.931 . S
C239 C236 1.382 . S
C239 C241 1.390 . S
C239 H249 0.931 . S
C240 C236 1.390 . S
C240 C237 1.392 . S
C240 H250 0.930 . S
C241 C238 1.372 . S
C241 C239 1.390 . S
C241 H251 0.929 . S
C242 O222 1.255 . S
C242 O223 1.257 . S
C243 Eu179 2.787 . S
C243 O218 1.252 . S
C243 O221 1.268 . S
C243 C236 1.506 . S
H244 C227 0.931 . S
H245 C228 0.931 . S
H246 C229 0.929 . S
H247 C230 0.930 . S
H248 C238 0.931 . S
H249 C239 0.931 . S
H250 C240 0.930 . S
H251 C241 0.929 . S
Eu252 N281 2.600 . S
Eu252 N287 2.562 . S
Eu252 O296 2.462 . S
Eu252 O297 2.373 . S
Eu252 O299 2.432 . S
Eu252 O300 2.291 . S
Eu252 O304 2.335 . S
Eu252 O307 2.372 . S
Eu252 C316 2.787 . S
C253 N254 1.365 . S
C253 C256 1.405 . S
C253 C260 1.448 . S
N254 C253 1.365 . S
N254 C257 1.319 . S
N254 Eu263 2.600 . S
C255 C257 1.397 . S
C255 C258 1.367 . S
C255 H275 0.931 . S
C256 C253 1.405 . S
C256 C258 1.403 . S
C256 C262 1.439 . S
C257 N254 1.319 . S
C257 C255 1.397 . S
C257 H268 0.930 . S
C258 C255 1.367 . S
C258 C256 1.403 . S
C258 H279 0.929 . S
C259 C260 1.430 . S
C259 C261 1.387 . S
C259 C265 1.404 . S
C260 C253 1.448 . S
C260 C259 1.430 . S
C260 N264 1.351 . S
C261 C259 1.387 . S
C261 C262 1.374 . S
C261 H276 0.931 . S
C262 C256 1.439 . S
C262 C261 1.374 . S
C262 H277 0.931 . S
Eu263 N254 2.600 . S
Eu263 N264 2.562 . S
Eu263 O298 2.335 . S
Eu263 O301 2.372 . S
Eu263 O302 2.462 . S
Eu263 O303 2.373 . S
Eu263 O305 2.432 . S
Eu263 O306 2.291 . S
Eu263 C327 2.787 . S
N264 C260 1.351 . S
N264 Eu263 2.562 . S
N264 C266 1.325 . S
C265 C259 1.404 . S
C265 C267 1.366 . S
C265 H273 0.930 . S
C266 N264 1.325 . S
C266 C267 1.416 . S
C266 H272 0.929 . S
C267 C265 1.366 . S
C267 C266 1.416 . S
C267 H269 0.930 . S
H268 C257 0.930 . S
H269 C267 0.930 . S
H270 C285 0.930 . S
H271 C292 0.930 . S
H272 C266 0.929 . S
H273 C265 0.930 . S
H274 C288 0.929 . S
H275 C255 0.931 . S
H276 C261 0.931 . S
H277 C262 0.931 . S
H278 C283 0.931 . S
H279 C258 0.929 . S
H280 C291 0.930 . S
N281 Eu252 2.600 . S
N281 C282 1.365 . S
N281 C285 1.319 . S
C282 N281 1.365 . S
C282 C284 1.405 . S
C282 C290 1.448 . S
C283 H278 0.931 . S
C283 C285 1.397 . S
C283 C286 1.367 . S
C284 C282 1.405 . S
C284 C286 1.403 . S
C284 C317 1.439 . S
C285 H270 0.930 . S
C285 N281 1.319 . S
C285 C283 1.397 . S
C286 C283 1.367 . S
C286 C284 1.403 . S
C286 H293 0.929 . S
N287 Eu252 2.562 . S
N287 C288 1.325 . S
N287 C290 1.351 . S
C288 H274 0.929 . S
C288 N287 1.325 . S
C288 C292 1.416 . S
C289 C290 1.430 . S
C289 C291 1.404 . S
C289 C318 1.387 . S
C290 C282 1.448 . S
C290 N287 1.351 . S
C290 C289 1.430 . S
C291 H280 0.930 . S
C291 C289 1.404 . S
C291 C292 1.366 . S
C292 H271 0.930 . S
C292 C288 1.416 . S
C292 C291 1.366 . S
H293 C286 0.929 . S
H294 C317 0.931 . S
H295 C318 0.931 . S
O296 Eu252 2.462 . S
O296 C316 1.252 . S
O297 Eu252 2.373 . S
O297 C308 1.249 . S
O298 Eu263 2.335 . S
O298 C308 1.264 . S
O299 Eu252 2.432 . S
O299 C316 1.268 . S
O300 Eu252 2.291 . S
O300 C315 1.255 . S
O301 Eu263 2.372 . S
O301 C315 1.257 . S
O302 Eu263 2.462 . S
O302 C327 1.252 . S
O303 Eu263 2.373 . S
O303 C319 1.249 . S
O304 Eu252 2.335 . S
O304 C319 1.264 . S
O305 Eu263 2.432 . S
O305 C327 1.268 . S
O306 Eu263 2.291 . S
O306 C326 1.255 . S
O307 Eu252 2.372 . S
O307 C326 1.257 . S
C308 O297 1.249 . S
C308 O298 1.264 . S
C309 C312 1.382 . S
C309 C314 1.390 . S
C309 C316 1.506 . S
C310 C311 1.398 . S
C310 C314 1.392 . S
C311 C310 1.398 . S
C311 C313 1.372 . S
C311 H328 0.931 . S
C312 C309 1.382 . S
C312 C313 1.390 . S
C312 H329 0.931 . S
C313 C311 1.372 . S
C313 C312 1.390 . S
C313 H330 0.929 . S
C314 C309 1.390 . S
C314 C310 1.392 . S
C314 H331 0.930 . S
C315 O300 1.255 . S
C315 O301 1.257 . S
C316 Eu252 2.787 . S
C316 O296 1.252 . S
C316 O299 1.268 . S
C316 C309 1.506 . S
C317 C284 1.439 . S
C317 H294 0.931 . S
C317 C318 1.374 . S
C318 C289 1.387 . S
C318 H295 0.931 . S
C318 C317 1.374 . S
C319 O303 1.249 . S
C319 O304 1.264 . S
C320 C323 1.382 . S
C320 C324 1.390 . S
C320 C327 1.506 . S
C321 C322 1.398 . S
C321 C324 1.392 . S
C322 C321 1.398 . S
C322 C325 1.372 . S
C322 H332 0.931 . S
C323 C320 1.382 . S
C323 C325 1.390 . S
C323 H333 0.931 . S
C324 C320 1.390 . S
C324 C321 1.392 . S
C324 H334 0.930 . S
C325 C322 1.372 . S
C325 C323 1.390 . S
C325 H335 0.929 . S
C326 O306 1.255 . S
C326 O307 1.257 . S
C327 Eu263 2.787 . S
C327 O302 1.252 . S
C327 O305 1.268 . S
C327 C320 1.506 . S
H328 C311 0.931 . S
H329 C312 0.931 . S
H330 C313 0.929 . S
H331 C314 0.930 . S
H332 C322 0.931 . S
H333 C323 0.931 . S
H334 C324 0.930 . S
H335 C325 0.929 . S
Eu336 N365 2.600 . S
Eu336 N371 2.562 . S
Eu336 O380 2.462 . S
Eu336 O381 2.373 . S
Eu336 O383 2.432 . S
Eu336 O384 2.291 . S
Eu336 O388 2.335 . S
Eu336 O391 2.372 . S
Eu336 C400 2.787 . S
C337 N338 1.365 . S
C337 C340 1.405 . S
C337 C344 1.448 . S
N338 C337 1.365 . S
N338 C341 1.319 . S
N338 Eu347 2.600 . S
C339 C341 1.397 . S
C339 C342 1.367 . S
C339 H359 0.931 . S
C340 C337 1.405 . S
C340 C342 1.403 . S
C340 C346 1.439 . S
C341 N338 1.319 . S
C341 C339 1.397 . S
C341 H352 0.930 . S
C342 C339 1.367 . S
C342 C340 1.403 . S
C342 H363 0.929 . S
C343 C344 1.430 . S
C343 C345 1.387 . S
C343 C349 1.404 . S
C344 C337 1.448 . S
C344 C343 1.430 . S
C344 N348 1.351 . S
C345 C343 1.387 . S
C345 C346 1.374 . S
C345 H360 0.931 . S
C346 C340 1.439 . S
C346 C345 1.374 . S
C346 H361 0.931 . S
Eu347 N338 2.600 . S
Eu347 N348 2.562 . S
Eu347 O382 2.335 . S
Eu347 O385 2.372 . S
Eu347 O386 2.462 . S
Eu347 O387 2.373 . S
Eu347 O389 2.432 . S
Eu347 O390 2.291 . S
Eu347 C411 2.787 . S
N348 C344 1.351 . S
N348 Eu347 2.562 . S
N348 C350 1.325 . S
C349 C343 1.404 . S
C349 C351 1.366 . S
C349 H357 0.930 . S
C350 N348 1.325 . S
C350 C351 1.416 . S
C350 H356 0.929 . S
C351 C349 1.366 . S
C351 C350 1.416 . S
C351 H353 0.930 . S
H352 C341 0.930 . S
H353 C351 0.930 . S
H354 C369 0.930 . S
H355 C376 0.930 . S
H356 C350 0.929 . S
H357 C349 0.930 . S
H358 C372 0.929 . S
H359 C339 0.931 . S
H360 C345 0.931 . S
H361 C346 0.931 . S
H362 C367 0.931 . S
H363 C342 0.929 . S
H364 C375 0.930 . S
N365 Eu336 2.600 . S
N365 C366 1.365 . S
N365 C369 1.319 . S
C366 N365 1.365 . S
C366 C368 1.405 . S
C366 C374 1.448 . S
C367 H362 0.931 . S
C367 C369 1.397 . S
C367 C370 1.367 . S
C368 C366 1.405 . S
C368 C370 1.403 . S
C368 C401 1.439 . S
C369 H354 0.930 . S
C369 N365 1.319 . S
C369 C367 1.397 . S
C370 C367 1.367 . S
C370 C368 1.403 . S
C370 H377 0.929 . S
N371 Eu336 2.562 . S
N371 C372 1.325 . S
N371 C374 1.351 . S
C372 H358 0.929 . S
C372 N371 1.325 . S
C372 C376 1.416 . S
C373 C374 1.430 . S
C373 C375 1.404 . S
C373 C402 1.387 . S
C374 C366 1.448 . S
C374 N371 1.351 . S
C374 C373 1.430 . S
C375 H364 0.930 . S
C375 C373 1.404 . S
C375 C376 1.366 . S
C376 H355 0.930 . S
C376 C372 1.416 . S
C376 C375 1.366 . S
H377 C370 0.929 . S
H378 C401 0.931 . S
H379 C402 0.931 . S
O380 Eu336 2.462 . S
O380 C400 1.252 . S
O381 Eu336 2.373 . S
O381 C392 1.249 . S
O382 Eu347 2.335 . S
O382 C392 1.264 . S
O383 Eu336 2.432 . S
O383 C400 1.268 . S
O384 Eu336 2.291 . S
O384 C399 1.255 . S
O385 Eu347 2.372 . S
O385 C399 1.257 . S
O386 Eu347 2.462 . S
O386 C411 1.252 . S
O387 Eu347 2.373 . S
O387 C403 1.249 . S
O388 Eu336 2.335 . S
O388 C403 1.264 . S
O389 Eu347 2.432 . S
O389 C411 1.268 . S
O390 Eu347 2.291 . S
O390 C410 1.255 . S
O391 Eu336 2.372 . S
O391 C410 1.257 . S
C392 O381 1.249 . S
C392 O382 1.264 . S
C393 C396 1.382 . S
C393 C398 1.390 . S
C393 C400 1.506 . S
C394 C395 1.398 . S
C394 C398 1.392 . S
C395 C394 1.398 . S
C395 C397 1.372 . S
C395 H412 0.931 . S
C396 C393 1.382 . S
C396 C397 1.390 . S
C396 H413 0.931 . S
C397 C395 1.372 . S
C397 C396 1.390 . S
C397 H414 0.929 . S
C398 C393 1.390 . S
C398 C394 1.392 . S
C398 H415 0.930 . S
C399 O384 1.255 . S
C399 O385 1.257 . S
C400 Eu336 2.787 . S
C400 O380 1.252 . S
C400 O383 1.268 . S
C400 C393 1.506 . S
C401 C368 1.439 . S
C401 H378 0.931 . S
C401 C402 1.374 . S
C402 C373 1.387 . S
C402 H379 0.931 . S
C402 C401 1.374 . S
C403 O387 1.249 . S
C403 O388 1.264 . S
C404 C407 1.382 . S
C404 C408 1.390 . S
C404 C411 1.506 . S
C405 C406 1.398 . S
C405 C408 1.392 . S
C406 C405 1.398 . S
C406 C409 1.372 . S
C406 H416 0.931 . S
C407 C404 1.382 . S
C407 C409 1.390 . S
C407 H417 0.931 . S
C408 C404 1.390 . S
C408 C405 1.392 . S
C408 H418 0.930 . S
C409 C406 1.372 . S
C409 C407 1.390 . S
C409 H419 0.929 . S
C410 O390 1.255 . S
C410 O391 1.257 . S
C411 Eu347 2.787 . S
C411 O386 1.252 . S
C411 O389 1.268 . S
C411 C404 1.506 . S
H412 C395 0.931 . S
H413 C396 0.931 . S
H414 C397 0.929 . S
H415 C398 0.930 . S
H416 C406 0.931 . S
H417 C407 0.931 . S
H418 C408 0.930 . S
H419 C409 0.929 . S
Eu420 N449 2.600 . S
Eu420 N455 2.562 . S
Eu420 O464 2.462 . S
Eu420 O465 2.373 . S
Eu420 O467 2.432 . S
Eu420 O468 2.291 . S
Eu420 O472 2.335 . S
Eu420 O475 2.372 . S
Eu420 C484 2.787 . S
C421 N422 1.365 . S
C421 C424 1.405 . S
C421 C428 1.448 . S
N422 C421 1.365 . S
N422 C425 1.319 . S
N422 Eu431 2.600 . S
C423 C425 1.397 . S
C423 C426 1.367 . S
C423 H443 0.931 . S
C424 C421 1.405 . S
C424 C426 1.403 . S
C424 C430 1.439 . S
C425 N422 1.319 . S
C425 C423 1.397 . S
C425 H436 0.930 . S
C426 C423 1.367 . S
C426 C424 1.403 . S
C426 H447 0.929 . S
C427 C428 1.430 . S
C427 C429 1.387 . S
C427 C433 1.404 . S
C428 C421 1.448 . S
C428 C427 1.430 . S
C428 N432 1.351 . S
C429 C427 1.387 . S
C429 C430 1.374 . S
C429 H444 0.931 . S
C430 C424 1.439 . S
C430 C429 1.374 . S
C430 H445 0.931 . S
Eu431 N422 2.600 . S
Eu431 N432 2.562 . S
Eu431 O466 2.335 . S
Eu431 O469 2.372 . S
Eu431 O470 2.462 . S
Eu431 O471 2.373 . S
Eu431 O473 2.432 . S
Eu431 O474 2.291 . S
Eu431 C495 2.787 . S
N432 C428 1.351 . S
N432 Eu431 2.562 . S
N432 C434 1.325 . S
C433 C427 1.404 . S
C433 C435 1.366 . S
C433 H441 0.930 . S
C434 N432 1.325 . S
C434 C435 1.416 . S
C434 H440 0.929 . S
C435 C433 1.366 . S
C435 C434 1.416 . S
C435 H437 0.930 . S
H436 C425 0.930 . S
H437 C435 0.930 . S
H438 C453 0.930 . S
H439 C460 0.930 . S
H440 C434 0.929 . S
H441 C433 0.930 . S
H442 C456 0.929 . S
H443 C423 0.931 . S
H444 C429 0.931 . S
H445 C430 0.931 . S
H446 C451 0.931 . S
H447 C426 0.929 . S
H448 C459 0.930 . S
N449 Eu420 2.600 . S
N449 C450 1.365 . S
N449 C453 1.319 . S
C450 N449 1.365 . S
C450 C452 1.405 . S
C450 C458 1.448 . S
C451 H446 0.931 . S
C451 C453 1.397 . S
C451 C454 1.367 . S
C452 C450 1.405 . S
C452 C454 1.403 . S
C452 C485 1.439 . S
C453 H438 0.930 . S
C453 N449 1.319 . S
C453 C451 1.397 . S
C454 C451 1.367 . S
C454 C452 1.403 . S
C454 H461 0.929 . S
N455 Eu420 2.562 . S
N455 C456 1.325 . S
N455 C458 1.351 . S
C456 H442 0.929 . S
C456 N455 1.325 . S
C456 C460 1.416 . S
C457 C458 1.430 . S
C457 C459 1.404 . S
C457 C486 1.387 . S
C458 C450 1.448 . S
C458 N455 1.351 . S
C458 C457 1.430 . S
C459 H448 0.930 . S
C459 C457 1.404 . S
C459 C460 1.366 . S
C460 H439 0.930 . S
C460 C456 1.416 . S
C460 C459 1.366 . S
H461 C454 0.929 . S
H462 C485 0.931 . S
H463 C486 0.931 . S
O464 Eu420 2.462 . S
O464 C484 1.252 . S
O465 Eu420 2.373 . S
O465 C476 1.249 . S
O466 Eu431 2.335 . S
O466 C476 1.264 . S
O467 Eu420 2.432 . S
O467 C484 1.268 . S
O468 Eu420 2.291 . S
O468 C483 1.255 . S
O469 Eu431 2.372 . S
O469 C483 1.257 . S
O470 Eu431 2.462 . S
O470 C495 1.252 . S
O471 Eu431 2.373 . S
O471 C487 1.249 . S
O472 Eu420 2.335 . S
O472 C487 1.264 . S
O473 Eu431 2.432 . S
O473 C495 1.268 . S
O474 Eu431 2.291 . S
O474 C494 1.255 . S
O475 Eu420 2.372 . S
O475 C494 1.257 . S
C476 O465 1.249 . S
C476 O466 1.264 . S
C477 C480 1.382 . S
C477 C482 1.390 . S
C477 C484 1.506 . S
C478 C479 1.398 . S
C478 C482 1.392 . S
C479 C478 1.398 . S
C479 C481 1.372 . S
C479 H496 0.931 . S
C480 C477 1.382 . S
C480 C481 1.390 . S
C480 H497 0.931 . S
C481 C479 1.372 . S
C481 C480 1.390 . S
C481 H498 0.929 . S
C482 C477 1.390 . S
C482 C478 1.392 . S
C482 H499 0.930 . S
C483 O468 1.255 . S
C483 O469 1.257 . S
C484 Eu420 2.787 . S
C484 O464 1.252 . S
C484 O467 1.268 . S
C484 C477 1.506 . S
C485 C452 1.439 . S
C485 H462 0.931 . S
C485 C486 1.374 . S
C486 C457 1.387 . S
C486 H463 0.931 . S
C486 C485 1.374 . S
C487 O471 1.249 . S
C487 O472 1.264 . S
C488 C491 1.382 . S
C488 C492 1.390 . S
C488 C495 1.506 . S
C489 C490 1.398 . S
C489 C492 1.392 . S
C490 C489 1.398 . S
C490 C493 1.372 . S
C490 H500 0.931 . S
C491 C488 1.382 . S
C491 C493 1.390 . S
C491 H501 0.931 . S
C492 C488 1.390 . S
C492 C489 1.392 . S
C492 H502 0.930 . S
C493 C490 1.372 . S
C493 C491 1.390 . S
C493 H503 0.929 . S
C494 O474 1.255 . S
C494 O475 1.257 . S
C495 Eu431 2.787 . S
C495 O470 1.252 . S
C495 O473 1.268 . S
C495 C488 1.506 . S
H496 C479 0.931 . S
H497 C480 0.931 . S
H498 C481 0.929 . S
H499 C482 0.930 . S
H500 C490 0.931 . S
H501 C491 0.931 . S
H502 C492 0.930 . S
H503 C493 0.929 . S
Eu504 N533 2.600 . S
Eu504 N539 2.562 . S
Eu504 O548 2.462 . S
Eu504 O549 2.373 . S
Eu504 O551 2.432 . S
Eu504 O552 2.291 . S
Eu504 O556 2.335 . S
Eu504 O559 2.372 . S
Eu504 C568 2.787 . S
C505 N506 1.365 . S
C505 C508 1.405 . S
C505 C512 1.448 . S
N506 C505 1.365 . S
N506 C509 1.319 . S
N506 Eu515 2.600 . S
C507 C509 1.397 . S
C507 C510 1.367 . S
C507 H527 0.931 . S
C508 C505 1.405 . S
C508 C510 1.403 . S
C508 C514 1.439 . S
C509 N506 1.319 . S
C509 C507 1.397 . S
C509 H520 0.930 . S
C510 C507 1.367 . S
C510 C508 1.403 . S
C510 H531 0.929 . S
C511 C512 1.430 . S
C511 C513 1.387 . S
C511 C517 1.404 . S
C512 C505 1.448 . S
C512 C511 1.430 . S
C512 N516 1.351 . S
C513 C511 1.387 . S
C513 C514 1.374 . S
C513 H528 0.931 . S
C514 C508 1.439 . S
C514 C513 1.374 . S
C514 H529 0.931 . S
Eu515 N506 2.600 . S
Eu515 N516 2.562 . S
Eu515 O550 2.335 . S
Eu515 O553 2.372 . S
Eu515 O554 2.462 . S
Eu515 O555 2.373 . S
Eu515 O557 2.432 . S
Eu515 O558 2.291 . S
Eu515 C579 2.787 . S
N516 C512 1.351 . S
N516 Eu515 2.562 . S
N516 C518 1.325 . S
C517 C511 1.404 . S
C517 C519 1.366 . S
C517 H525 0.930 . S
C518 N516 1.325 . S
C518 C519 1.416 . S
C518 H524 0.929 . S
C519 C517 1.366 . S
C519 C518 1.416 . S
C519 H521 0.930 . S
H520 C509 0.930 . S
H521 C519 0.930 . S
H522 C537 0.930 . S
H523 C544 0.930 . S
H524 C518 0.929 . S
H525 C517 0.930 . S
H526 C540 0.929 . S
H527 C507 0.931 . S
H528 C513 0.931 . S
H529 C514 0.931 . S
H530 C535 0.931 . S
H531 C510 0.929 . S
H532 C543 0.930 . S
N533 Eu504 2.600 . S
N533 C534 1.365 . S
N533 C537 1.319 . S
C534 N533 1.365 . S
C534 C536 1.405 . S
C534 C542 1.448 . S
C535 H530 0.931 . S
C535 C537 1.397 . S
C535 C538 1.367 . S
C536 C534 1.405 . S
C536 C538 1.403 . S
C536 C569 1.439 . S
C537 H522 0.930 . S
C537 N533 1.319 . S
C537 C535 1.397 . S
C538 C535 1.367 . S
C538 C536 1.403 . S
C538 H545 0.929 . S
N539 Eu504 2.562 . S
N539 C540 1.325 . S
N539 C542 1.351 . S
C540 H526 0.929 . S
C540 N539 1.325 . S
C540 C544 1.416 . S
C541 C542 1.430 . S
C541 C543 1.404 . S
C541 C570 1.387 . S
C542 C534 1.448 . S
C542 N539 1.351 . S
C542 C541 1.430 . S
C543 H532 0.930 . S
C543 C541 1.404 . S
C543 C544 1.366 . S
C544 H523 0.930 . S
C544 C540 1.416 . S
C544 C543 1.366 . S
H545 C538 0.929 . S
H546 C569 0.931 . S
H547 C570 0.931 . S
O548 Eu504 2.462 . S
O548 C568 1.252 . S
O549 Eu504 2.373 . S
O549 C560 1.249 . S
O550 Eu515 2.335 . S
O550 C560 1.264 . S
O551 Eu504 2.432 . S
O551 C568 1.268 . S
O552 Eu504 2.291 . S
O552 C567 1.255 . S
O553 Eu515 2.372 . S
O553 C567 1.257 . S
O554 Eu515 2.462 . S
O554 C579 1.252 . S
O555 Eu515 2.373 . S
O555 C571 1.249 . S
O556 Eu504 2.335 . S
O556 C571 1.264 . S
O557 Eu515 2.432 . S
O557 C579 1.268 . S
O558 Eu515 2.291 . S
O558 C578 1.255 . S
O559 Eu504 2.372 . S
O559 C578 1.257 . S
C560 O549 1.249 . S
C560 O550 1.264 . S
C561 C564 1.382 . S
C561 C566 1.390 . S
C561 C568 1.506 . S
C562 C563 1.398 . S
C562 C566 1.392 . S
C563 C562 1.398 . S
C563 C565 1.372 . S
C563 H580 0.931 . S
C564 C561 1.382 . S
C564 C565 1.390 . S
C564 H581 0.931 . S
C565 C563 1.372 . S
C565 C564 1.390 . S
C565 H582 0.929 . S
C566 C561 1.390 . S
C566 C562 1.392 . S
C566 H583 0.930 . S
C567 O552 1.255 . S
C567 O553 1.257 . S
C568 Eu504 2.787 . S
C568 O548 1.252 . S
C568 O551 1.268 . S
C568 C561 1.506 . S
C569 C536 1.439 . S
C569 H546 0.931 . S
C569 C570 1.374 . S
C570 C541 1.387 . S
C570 H547 0.931 . S
C570 C569 1.374 . S
C571 O555 1.249 . S
C571 O556 1.264 . S
C572 C575 1.382 . S
C572 C576 1.390 . S
C572 C579 1.506 . S
C573 C574 1.398 . S
C573 C576 1.392 . S
C574 C573 1.398 . S
C574 C577 1.372 . S
C574 H584 0.931 . S
C575 C572 1.382 . S
C575 C577 1.390 . S
C575 H585 0.931 . S
C576 C572 1.390 . S
C576 C573 1.392 . S
C576 H586 0.930 . S
C577 C574 1.372 . S
C577 C575 1.390 . S
C577 H587 0.929 . S
C578 O558 1.255 . S
C578 O559 1.257 . S
C579 Eu515 2.787 . S
C579 O554 1.252 . S
C579 O557 1.268 . S
C579 C572 1.506 . S
H580 C563 0.931 . S
H581 C564 0.931 . S
H582 C565 0.929 . S
H583 C566 0.930 . S
H584 C574 0.931 . S
H585 C575 0.931 . S
H586 C576 0.930 . S
H587 C577 0.929 . S
Eu588 N617 2.600 . S
Eu588 N623 2.562 . S
Eu588 O632 2.462 . S
Eu588 O633 2.373 . S
Eu588 O635 2.432 . S
Eu588 O636 2.291 . S
Eu588 O640 2.335 . S
Eu588 O643 2.372 . S
Eu588 C652 2.787 . S
C589 N590 1.365 . S
C589 C592 1.405 . S
C589 C596 1.448 . S
N590 C589 1.365 . S
N590 C593 1.319 . S
N590 Eu599 2.600 . S
C591 C593 1.397 . S
C591 C594 1.367 . S
C591 H611 0.931 . S
C592 C589 1.405 . S
C592 C594 1.403 . S
C592 C598 1.439 . S
C593 N590 1.319 . S
C593 C591 1.397 . S
C593 H604 0.930 . S
C594 C591 1.367 . S
C594 C592 1.403 . S
C594 H615 0.929 . S
C595 C596 1.430 . S
C595 C597 1.387 . S
C595 C601 1.404 . S
C596 C589 1.448 . S
C596 C595 1.430 . S
C596 N600 1.351 . S
C597 C595 1.387 . S
C597 C598 1.374 . S
C597 H612 0.931 . S
C598 C592 1.439 . S
C598 C597 1.374 . S
C598 H613 0.931 . S
Eu599 N590 2.600 . S
Eu599 N600 2.562 . S
Eu599 O634 2.335 . S
Eu599 O637 2.372 . S
Eu599 O638 2.462 . S
Eu599 O639 2.373 . S
Eu599 O641 2.432 . S
Eu599 O642 2.291 . S
Eu599 C663 2.787 . S
N600 C596 1.351 . S
N600 Eu599 2.562 . S
N600 C602 1.325 . S
C601 C595 1.404 . S
C601 C603 1.366 . S
C601 H609 0.930 . S
C602 N600 1.325 . S
C602 C603 1.416 . S
C602 H608 0.929 . S
C603 C601 1.366 . S
C603 C602 1.416 . S
C603 H605 0.930 . S
H604 C593 0.930 . S
H605 C603 0.930 . S
H606 C621 0.930 . S
H607 C628 0.930 . S
H608 C602 0.929 . S
H609 C601 0.930 . S
H610 C624 0.929 . S
H611 C591 0.931 . S
H612 C597 0.931 . S
H613 C598 0.931 . S
H614 C619 0.931 . S
H615 C594 0.929 . S
H616 C627 0.930 . S
N617 Eu588 2.600 . S
N617 C618 1.365 . S
N617 C621 1.319 . S
C618 N617 1.365 . S
C618 C620 1.405 . S
C618 C626 1.448 . S
C619 H614 0.931 . S
C619 C621 1.397 . S
C619 C622 1.367 . S
C620 C618 1.405 . S
C620 C622 1.403 . S
C620 C653 1.439 . S
C621 H606 0.930 . S
C621 N617 1.319 . S
C621 C619 1.397 . S
C622 C619 1.367 . S
C622 C620 1.403 . S
C622 H629 0.929 . S
N623 Eu588 2.562 . S
N623 C624 1.325 . S
N623 C626 1.351 . S
C624 H610 0.929 . S
C624 N623 1.325 . S
C624 C628 1.416 . S
C625 C626 1.430 . S
C625 C627 1.404 . S
C625 C654 1.387 . S
C626 C618 1.448 . S
C626 N623 1.351 . S
C626 C625 1.430 . S
C627 H616 0.930 . S
C627 C625 1.404 . S
C627 C628 1.366 . S
C628 H607 0.930 . S
C628 C624 1.416 . S
C628 C627 1.366 . S
H629 C622 0.929 . S
H630 C653 0.931 . S
H631 C654 0.931 . S
O632 Eu588 2.462 . S
O632 C652 1.252 . S
O633 Eu588 2.373 . S
O633 C644 1.249 . S
O634 Eu599 2.335 . S
O634 C644 1.264 . S
O635 Eu588 2.432 . S
O635 C652 1.268 . S
O636 Eu588 2.291 . S
O636 C651 1.255 . S
O637 Eu599 2.372 . S
O637 C651 1.257 . S
O638 Eu599 2.462 . S
O638 C663 1.252 . S
O639 Eu599 2.373 . S
O639 C655 1.249 . S
O640 Eu588 2.335 . S
O640 C655 1.264 . S
O641 Eu599 2.432 . S
O641 C663 1.268 . S
O642 Eu599 2.291 . S
O642 C662 1.255 . S
O643 Eu588 2.372 . S
O643 C662 1.257 . S
C644 O633 1.249 . S
C644 O634 1.264 . S
C645 C648 1.382 . S
C645 C650 1.390 . S
C645 C652 1.506 . S
C646 C647 1.398 . S
C646 C650 1.392 . S
C647 C646 1.398 . S
C647 C649 1.372 . S
C647 H664 0.931 . S
C648 C645 1.382 . S
C648 C649 1.390 . S
C648 H665 0.931 . S
C649 C647 1.372 . S
C649 C648 1.390 . S
C649 H666 0.929 . S
C650 C645 1.390 . S
C650 C646 1.392 . S
C650 H667 0.930 . S
C651 O636 1.255 . S
C651 O637 1.257 . S
C652 Eu588 2.787 . S
C652 O632 1.252 . S
C652 O635 1.268 . S
C652 C645 1.506 . S
C653 C620 1.439 . S
C653 H630 0.931 . S
C653 C654 1.374 . S
C654 C625 1.387 . S
C654 H631 0.931 . S
C654 C653 1.374 . S
C655 O639 1.249 . S
C655 O640 1.264 . S
C656 C659 1.382 . S
C656 C660 1.390 . S
C656 C663 1.506 . S
C657 C658 1.398 . S
C657 C660 1.392 . S
C658 C657 1.398 . S
C658 C661 1.372 . S
C658 H668 0.931 . S
C659 C656 1.382 . S
C659 C661 1.390 . S
C659 H669 0.931 . S
C660 C656 1.390 . S
C660 C657 1.392 . S
C660 H670 0.930 . S
C661 C658 1.372 . S
C661 C659 1.390 . S
C661 H671 0.929 . S
C662 O642 1.255 . S
C662 O643 1.257 . S
C663 Eu599 2.787 . S
C663 O638 1.252 . S
C663 O641 1.268 . S
C663 C656 1.506 . S
H664 C647 0.931 . S
H665 C648 0.931 . S
H666 C649 0.929 . S
H667 C650 0.930 . S
H668 C658 0.931 . S
H669 C659 0.931 . S
H670 C660 0.930 . S
H671 C661 0.929 . S
Fe672 O673 1.886 1_455 S
Fe672 O676 1.715 . S
Fe672 O681 2.077 1_455 S
Fe672 O686 1.935 . S
Fe672 O692 2.077 1_455 S
Fe672 O701 1.935 . S
O673 Fe672 1.886 1_655 S
O673 Fe675 1.715 1_545 S
Fe674 O676 1.886 . S
Fe674 O677 1.715 1_545 S
Fe674 O684 1.935 1_545 S
Fe674 O685 2.077 . S
Fe674 O691 1.935 1_545 S
Fe674 O700 2.077 . S
Fe675 O673 1.715 1_565 S
Fe675 O678 1.886 . S
Fe675 O682 1.935 1_565 S
Fe675 O687 2.077 . S
Fe675 O693 1.935 1_565 S
Fe675 O697 2.077 . S
O676 Fe672 1.715 . S
O676 Fe674 1.886 . S
O677 Fe674 1.715 1_565 S
O677 Fe679 1.886 1_455 S
O678 Fe675 1.886 . S
O678 Fe679 1.715 . S
Fe679 O677 1.886 1_655 S
Fe679 O678 1.715 . S
Fe679 O683 2.077 1_655 S
Fe679 O688 1.935 . S
Fe679 O690 2.077 1_655 S
Fe679 O698 1.935 . S
C680 O692 1.381 . S
C680 O693 1.421 . S
O681 Fe672 2.077 1_655 S
O681 C694 1.381 . S
O682 Fe675 1.935 1_545 S
O682 C694 1.421 . S
O683 Fe679 2.077 1_455 S
O683 C699 1.381 . S
O684 Fe674 1.935 1_565 S
O684 C699 1.421 . S
O685 Fe674 2.077 . S
O685 C689 1.381 . S
O686 Fe672 1.935 . S
O686 C689 1.421 . S
O687 Fe675 2.077 . S
O687 C695 1.381 . S
O688 Fe679 1.935 . S
O688 C695 1.421 . S
C689 O685 1.381 . S
C689 O686 1.421 . S
O690 Fe679 2.077 1_455 S
O690 C702 1.381 . S
O691 Fe674 1.935 1_565 S
O691 C702 1.421 . S
O692 Fe672 2.077 1_655 S
O692 C680 1.381 . S
O693 Fe675 1.935 1_545 S
O693 C680 1.421 . S
C694 O681 1.381 . S
C694 O682 1.421 . S
C695 O687 1.381 . S
C695 O688 1.421 . S
C696 O697 1.381 . S
C696 O698 1.421 . S
O697 Fe675 2.077 . S
O697 C696 1.381 . S
O698 Fe679 1.935 . S
O698 C696 1.421 . S
C699 O683 1.381 . S
C699 O684 1.421 . S
O700 Fe674 2.077 . S
O700 C703 1.381 . S
O701 Fe672 1.935 . S
O701 C703 1.421 . S
C702 O690 1.381 . S
C702 O691 1.421 . S
C703 O700 1.381 . S
C703 O701 1.421 . S
Fe704 O705 1.886 . S
Fe704 O708 1.715 . S
Fe704 O713 2.077 . S
Fe704 O718 1.935 . S
Fe704 O724 2.077 1_556 S
Fe704 O733 1.935 1_556 S
O705 Fe704 1.886 . S
O705 Fe707 1.715 1_565 S
Fe706 O708 1.886 1_554 S
Fe706 O709 1.715 1_565 S
Fe706 O716 1.935 1_564 S
Fe706 O717 2.077 1_554 S
Fe706 O723 1.935 1_565 S
Fe706 O732 2.077 . S
Fe707 O705 1.715 1_545 S
Fe707 O710 1.886 1_556 S
Fe707 O714 1.935 1_545 S
Fe707 O719 2.077 . S
Fe707 O725 1.935 1_546 S
Fe707 O729 2.077 1_556 S
O708 Fe704 1.715 . S
O708 Fe706 1.886 1_556 S
O709 Fe706 1.715 1_545 S
O709 Fe711 1.886 . S
O710 Fe707 1.886 1_554 S
O710 Fe711 1.714 . S
Fe711 O709 1.886 . S
Fe711 O710 1.714 . S
Fe711 O715 2.077 1_554 S
Fe711 O720 1.935 1_554 S
Fe711 O722 2.077 . S
Fe711 O730 1.935 . S
C712 O724 1.381 . S
C712 O725 1.421 . S
O713 Fe704 2.077 . S
O713 C726 1.381 . S
O714 Fe707 1.935 1_565 S
O714 C726 1.421 . S
O715 Fe711 2.077 1_556 S
O715 C731 1.381 . S
O716 Fe706 1.935 1_546 S
O716 C731 1.421 . S
O717 Fe706 2.077 1_556 S
O717 C721 1.381 . S
O718 Fe704 1.935 . S
O718 C721 1.421 . S
O719 Fe707 2.077 . S
O719 C727 1.381 . S
O720 Fe711 1.935 1_556 S
O720 C727 1.421 . S
C721 O717 1.381 . S
C721 O718 1.421 . S
O722 Fe711 2.077 . S
O722 C734 1.381 . S
O723 Fe706 1.935 1_545 S
O723 C734 1.421 . S
O724 Fe704 2.077 1_554 S
O724 C712 1.381 . S
O725 Fe707 1.935 1_564 S
O725 C712 1.421 . S
C726 O713 1.381 . S
C726 O714 1.421 . S
C727 O719 1.381 . S
C727 O720 1.421 . S
C728 O729 1.381 . S
C728 O730 1.421 . S
O729 Fe707 2.077 1_554 S
O729 C728 1.381 . S
O730 Fe711 1.935 . S
O730 C728 1.421 . S
C731 O715 1.381 . S
C731 O716 1.421 . S
O732 Fe706 2.077 . S
O732 C735 1.381 . S
O733 Fe704 1.935 1_554 S
O733 C735 1.421 . S
C734 O722 1.381 . S
C734 O723 1.421 . S
C735 O732 1.381 . S
C735 O733 1.421 . S
Fe736 O737 1.886 1_455 S
Fe736 O740 1.714 . S
Fe736 O745 2.077 1_454 S
Fe736 O750 1.935 1_554 S
Fe736 O756 2.077 1_455 S
Fe736 O765 1.935 . S
O737 Fe736 1.886 1_655 S
O737 Fe739 1.715 . S
Fe738 O740 1.886 1_556 S
Fe738 O741 1.715 . S
Fe738 O748 1.935 . S
Fe738 O749 2.077 . S
Fe738 O755 1.935 1_556 S
Fe738 O764 2.077 1_556 S
Fe739 O737 1.715 . S
Fe739 O742 1.886 1_554 S
Fe739 O746 1.935 1_554 S
Fe739 O751 2.077 1_554 S
Fe739 O757 1.935 . S
Fe739 O761 2.077 . S
O740 Fe736 1.714 . S
O740 Fe738 1.886 1_554 S
O741 Fe738 1.715 . S
O741 Fe743 1.886 1_455 S
O742 Fe739 1.886 1_556 S
O742 Fe743 1.715 . S
Fe743 O741 1.886 1_655 S
Fe743 O742 1.715 . S
Fe743 O747 2.077 1_655 S
Fe743 O752 1.935 . S
Fe743 O754 2.077 1_656 S
Fe743 O762 1.935 1_556 S
C744 O756 1.381 . S
C744 O757 1.421 . S
O745 Fe736 2.077 1_656 S
O745 C758 1.381 . S
O746 Fe739 1.935 1_556 S
O746 C758 1.421 . S
O747 Fe743 2.077 1_455 S
O747 C763 1.381 . S
O748 Fe738 1.935 . S
O748 C763 1.421 . S
O749 Fe738 2.077 . S
O749 C753 1.381 . S
O750 Fe736 1.935 1_556 S
O750 C753 1.421 . S
O751 Fe739 2.077 1_556 S
O751 C759 1.381 . S
O752 Fe743 1.935 . S
O752 C759 1.421 . S
C753 O749 1.381 . S
C753 O750 1.421 . S
O754 Fe743 2.077 1_454 S
O754 C766 1.381 . S
O755 Fe738 1.935 1_554 S
O755 C766 1.421 . S
O756 Fe736 2.077 1_655 S
O756 C744 1.381 . S
O757 Fe739 1.935 . S
O757 C744 1.421 . S
C758 O745 1.381 . S
C758 O746 1.421 . S
C759 O751 1.381 . S
C759 O752 1.421 . S
C760 O761 1.381 . S
C760 O762 1.421 . S
O761 Fe739 2.077 . S
O761 C760 1.381 . S
O762 Fe743 1.935 1_554 S
O762 C760 1.421 . S
C763 O747 1.381 . S
C763 O748 1.421 . S
O764 Fe738 2.077 1_554 S
O764 C767 1.381 . S
O765 Fe736 1.935 . S
O765 C767 1.421 . S
C766 O754 1.381 . S
C766 O755 1.421 . S
C767 O764 1.381 . S
C767 O765 1.421 . S
Fe768 O769 1.886 . S
Fe768 O772 1.715 . S
Fe768 O777 2.077 . S
Fe768 O782 1.935 . S
Fe768 O788 2.077 . S
Fe768 O797 1.935 . S
O769 Fe768 1.886 . S
O769 Fe771 1.715 . S
Fe770 O772 1.886 1_554 S
Fe770 O773 1.715 . S
Fe770 O780 1.935 . S
Fe770 O781 2.077 1_554 S
Fe770 O787 1.935 . S
Fe770 O796 2.077 1_554 S
Fe771 O769 1.715 . S
Fe771 O774 1.886 1_556 S
Fe771 O778 1.935 . S
Fe771 O783 2.077 1_556 S
Fe771 O789 1.935 . S
Fe771 O793 2.077 1_556 S
O772 Fe768 1.715 . S
O772 Fe770 1.886 1_556 S
O773 Fe770 1.715 . S
O773 Fe775 1.886 . S
O774 Fe771 1.886 1_554 S
O774 Fe775 1.715 . S
Fe775 O773 1.886 . S
Fe775 O774 1.715 . S
Fe775 O779 2.077 . S
Fe775 O784 1.935 . S
Fe775 O786 2.077 . S
Fe775 O794 1.935 . S
C776 O788 1.381 . S
C776 O789 1.421 . S
O777 Fe768 2.077 . S
O777 C790 1.381 . S
O778 Fe771 1.935 . S
O778 C790 1.421 . S
O779 Fe775 2.077 . S
O779 C795 1.381 . S
O780 Fe770 1.935 . S
O780 C795 1.421 . S
O781 Fe770 2.077 1_556 S
O781 C785 1.381 . S
O782 Fe768 1.935 . S
O782 C785 1.421 . S
O783 Fe771 2.077 1_554 S
O783 C791 1.381 . S
O784 Fe775 1.935 . S
O784 C791 1.421 . S
C785 O781 1.381 . S
C785 O782 1.421 . S
O786 Fe775 2.077 . S
O786 C798 1.381 . S
O787 Fe770 1.935 . S
O787 C798 1.421 . S
O788 Fe768 2.077 . S
O788 C776 1.381 . S
O789 Fe771 1.935 . S
O789 C776 1.421 . S
C790 O777 1.381 . S
C790 O778 1.421 . S
C791 O783 1.381 . S
C791 O784 1.421 . S
C792 O793 1.381 . S
C792 O794 1.421 . S
O793 Fe771 2.077 1_554 S
O793 C792 1.381 . S
O794 Fe775 1.935 . S
O794 C792 1.421 . S
C795 O779 1.381 . S
C795 O780 1.421 . S
O796 Fe770 2.077 1_556 S
O796 C799 1.381 . S
O797 Fe768 1.935 . S
O797 C799 1.421 . S
C798 O786 1.381 . S
C798 O787 1.421 . S
C799 O796 1.381 . S
C799 O797 1.421 . S
Fe800 O801 1.886 . S
Fe800 O804 1.715 . S
Fe800 O809 2.077 1_655 S
Fe800 O814 1.935 1_655 S
Fe800 O820 2.077 . S
Fe800 O829 1.935 . S
O801 Fe800 1.886 . S
O801 Fe803 1.715 . S
Fe802 O804 1.886 1_455 S
Fe802 O805 1.715 . S
Fe802 O812 1.935 . S
Fe802 O813 2.077 . S
Fe802 O819 1.935 1_455 S
Fe802 O828 2.077 1_455 S
Fe803 O801 1.715 . S
Fe803 O806 1.886 1_655 S
Fe803 O810 1.935 1_655 S
Fe803 O815 2.077 1_655 S
Fe803 O821 1.935 . S
Fe803 O825 2.077 . S
O804 Fe800 1.715 . S
O804 Fe802 1.886 1_655 S
O805 Fe802 1.715 . S
O805 Fe807 1.886 . S
O806 Fe803 1.886 1_455 S
O806 Fe807 1.715 . S
Fe807 O805 1.886 . S
Fe807 O806 1.715 . S
Fe807 O811 2.077 . S
Fe807 O816 1.935 . S
Fe807 O818 2.077 1_455 S
Fe807 O826 1.935 1_455 S
C808 O820 1.381 . S
C808 O821 1.421 . S
O809 Fe800 2.077 1_455 S
O809 C822 1.381 . S
O810 Fe803 1.935 1_455 S
O810 C822 1.421 . S
O811 Fe807 2.077 . S
O811 C827 1.381 . S
O812 Fe802 1.935 . S
O812 C827 1.421 . S
O813 Fe802 2.077 . S
O813 C817 1.381 . S
O814 Fe800 1.935 1_455 S
O814 C817 1.421 . S
O815 Fe803 2.077 1_455 S
O815 C823 1.381 . S
O816 Fe807 1.935 . S
O816 C823 1.421 . S
C817 O813 1.381 . S
C817 O814 1.421 . S
O818 Fe807 2.077 1_655 S
O818 C830 1.381 . S
O819 Fe802 1.935 1_655 S
O819 C830 1.421 . S
O820 Fe800 2.077 . S
O820 C808 1.381 . S
O821 Fe803 1.935 . S
O821 C808 1.421 . S
C822 O809 1.381 . S
C822 O810 1.421 . S
C823 O815 1.381 . S
C823 O816 1.421 . S
C824 O825 1.381 . S
C824 O826 1.421 . S
O825 Fe803 2.077 . S
O825 C824 1.381 . S
O826 Fe807 1.935 1_655 S
O826 C824 1.421 . S
C827 O811 1.381 . S
C827 O812 1.421 . S
O828 Fe802 2.077 1_655 S
O828 C831 1.381 . S
O829 Fe800 1.935 . S
O829 C831 1.421 . S
C830 O818 1.381 . S
C830 O819 1.421 . S
C831 O828 1.381 . S
C831 O829 1.421 . S
Fe832 O833 1.886 . S
Fe832 O836 1.715 . S
Fe832 O841 2.077 . S
Fe832 O846 1.935 . S
Fe832 O852 2.077 . S
Fe832 O861 1.935 . S
O833 Fe832 1.886 . S
O833 Fe835 1.715 1_565 S
Fe834 O836 1.886 . S
Fe834 O837 1.715 1_565 S
Fe834 O844 1.935 1_565 S
Fe834 O845 2.077 . S
Fe834 O851 1.935 1_565 S
Fe834 O860 2.077 . S
Fe835 O833 1.715 1_545 S
Fe835 O838 1.886 . S
Fe835 O842 1.935 1_545 S
Fe835 O847 2.077 . S
Fe835 O853 1.935 1_545 S
Fe835 O857 2.077 . S
O836 Fe832 1.715 . S
O836 Fe834 1.886 . S
O837 Fe834 1.715 1_545 S
O837 Fe839 1.886 . S
O838 Fe835 1.886 . S
O838 Fe839 1.715 . S
Fe839 O837 1.886 . S
Fe839 O838 1.715 . S
Fe839 O843 2.077 . S
Fe839 O848 1.935 . S
Fe839 O850 2.077 . S
Fe839 O858 1.935 . S
C840 O852 1.381 . S
C840 O853 1.421 . S
O841 Fe832 2.077 . S
O841 C854 1.381 . S
O842 Fe835 1.935 1_565 S
O842 C854 1.421 . S
O843 Fe839 2.077 . S
O843 C859 1.381 . S
O844 Fe834 1.935 1_545 S
O844 C859 1.421 . S
O845 Fe834 2.077 . S
O845 C849 1.381 . S
O846 Fe832 1.935 . S
O846 C849 1.421 . S
O847 Fe835 2.077 . S
O847 C855 1.381 . S
O848 Fe839 1.935 . S
O848 C855 1.421 . S
C849 O845 1.381 . S
C849 O846 1.421 . S
O850 Fe839 2.077 . S
O850 C862 1.381 . S
O851 Fe834 1.935 1_545 S
O851 C862 1.421 . S
O852 Fe832 2.077 . S
O852 C840 1.381 . S
O853 Fe835 1.935 1_565 S
O853 C840 1.421 . S
C854 O841 1.381 . S
C854 O842 1.421 . S
C855 O847 1.381 . S
C855 O848 1.421 . S
C856 O857 1.381 . S
C856 O858 1.421 . S
O857 Fe835 2.077 . S
O857 C856 1.381 . S
O858 Fe839 1.935 . S
O858 C856 1.421 . S
C859 O843 1.381 . S
C859 O844 1.421 . S
O860 Fe834 2.077 . S
O860 C863 1.381 . S
O861 Fe832 1.935 . S
O861 C863 1.421 . S
C862 O850 1.381 . S
C862 O851 1.421 . S
C863 O860 1.381 . S
C863 O861 1.421 . S
H864 C882 0.951 . S
H865 C884 0.951 . S
H866 C886 0.950 . S
H867 C887 0.950 . S
H868 C889 0.950 . S
H869 C892 0.950 . S
H870 C893 0.950 . S
H871 C895 0.950 . S
H872 C896 0.950 . S
H873 C897 0.951 . S
H874 C899 0.951 . S
H875 C901 0.950 . S
H876 C902 0.950 . S
H877 C904 0.950 . S
H878 C907 0.950 . S
H879 C908 0.950 . S
H880 C910 0.950 . S
H881 C911 0.950 . S
C882 H864 0.951 . S
C882 C883 1.366 . S
C882 C884 1.388 . S
C883 C882 1.366 . S
C883 C887 1.385 . S
C884 H865 0.951 . S
C884 C882 1.388 . S
C884 C885 1.366 . S
C885 C884 1.366 . S
C885 C886 1.414 . S
C885 C888 1.499 . S
C886 H866 0.950 . S
C886 C885 1.414 . S
C886 C887 1.374 . S
C887 H867 0.950 . S
C887 C883 1.385 . S
C887 C886 1.374 . S
C888 C885 1.499 . S
C888 C889 1.373 . S
C888 C890 1.389 . S
C889 H868 0.950 . S
C889 C888 1.373 . S
C889 C905 1.377 . S
C890 C888 1.389 . S
C890 C891 1.524 . S
C890 C904 1.377 . S
C891 C890 1.524 . S
C891 C892 1.397 . S
C891 C896 1.363 . S
C892 H869 0.950 . S
C892 C891 1.397 . S
C892 C893 1.334 . S
C893 H870 0.950 . S
C893 C892 1.334 . S
C893 C894 1.287 . S
C894 C893 1.287 . S
C894 C895 1.524 . S
C894 H913 0.913 . S
C895 H871 0.950 . S
C895 C894 1.524 . S
C895 C896 1.415 . S
C896 H872 0.950 . S
C896 C891 1.363 . S
C896 C895 1.415 . S
C897 H873 0.951 . S
C897 C898 1.366 . S
C897 C899 1.388 . S
C898 C897 1.366 . S
C898 C902 1.385 . S
C899 H874 0.951 . S
C899 C897 1.388 . S
C899 C900 1.366 . S
C900 C899 1.366 . S
C900 C901 1.414 . S
C900 C903 1.499 . S
C901 H875 0.950 . S
C901 C900 1.414 . S
C901 C902 1.374 . S
C902 H876 0.950 . S
C902 C898 1.385 . S
C902 C901 1.374 . S
C903 C900 1.499 . S
C903 C904 1.373 . S
C903 C905 1.389 . S
C904 H877 0.950 . S
C904 C890 1.377 . S
C904 C903 1.373 . S
C905 C889 1.377 . S
C905 C903 1.389 . S
C905 C906 1.524 . S
C906 C905 1.524 . S
C906 C907 1.397 . S
C906 C911 1.363 . S
C907 H878 0.950 . S
C907 C906 1.397 . S
C907 C908 1.334 . S
C908 H879 0.950 . S
C908 C907 1.334 . S
C908 C909 1.287 . S
C909 C908 1.287 . S
C909 C910 1.524 . S
C909 H912 0.999 . S
C910 H880 0.950 . S
C910 C909 1.524 . S
C910 C911 1.415 . S
C911 H881 0.950 . S
C911 C906 1.363 . S
C911 C910 1.415 . S
H912 C909 0.999 . S
H913 C894 0.913 . S
H914 C932 0.951 . S
H915 C934 0.951 . S
H916 C936 0.950 . S
H917 C937 0.950 . S
H918 C939 0.950 . S
H919 C942 0.950 . S
H920 C943 0.950 . S
H921 C945 0.950 . S
H922 C946 0.950 . S
H923 C947 0.951 . S
H924 C949 0.951 . S
H925 C951 0.950 . S
H926 C952 0.950 . S
H927 C954 0.950 . S
H928 C957 0.950 . S
H929 C958 0.950 . S
H930 C960 0.950 . S
H931 C961 0.950 . S
C932 H914 0.951 . S
C932 C933 1.366 . S
C932 C934 1.388 . S
C933 C932 1.366 . S
C933 C937 1.385 . S
C934 H915 0.951 . S
C934 C932 1.388 . S
C934 C935 1.366 . S
C935 C934 1.366 . S
C935 C936 1.414 . S
C935 C938 1.499 . S
C936 H916 0.950 . S
C936 C935 1.414 . S
C936 C937 1.374 . S
C937 H917 0.950 . S
C937 C933 1.385 . S
C937 C936 1.374 . S
C938 C935 1.499 . S
C938 C939 1.373 . S
C938 C940 1.389 . S
C939 H918 0.950 . S
C939 C938 1.373 . S
C939 C955 1.377 . S
C940 C938 1.389 . S
C940 C941 1.524 . S
C940 C954 1.377 . S
C941 C940 1.524 . S
C941 C942 1.397 . S
C941 C946 1.363 . S
C942 H919 0.950 . S
C942 C941 1.397 . S
C942 C943 1.334 . S
C943 H920 0.950 . S
C943 C942 1.334 . S
C943 C944 1.287 . S
C944 C943 1.287 . S
C944 C945 1.524 . S
C944 H963 0.913 . S
C945 H921 0.950 . S
C945 C944 1.524 . S
C945 C946 1.415 . S
C946 H922 0.950 . S
C946 C941 1.363 . S
C946 C945 1.415 . S
C947 H923 0.951 . S
C947 C948 1.366 . S
C947 C949 1.388 . S
C948 C947 1.366 . S
C948 C952 1.385 . S
C949 H924 0.951 . S
C949 C947 1.388 . S
C949 C950 1.366 . S
C950 C949 1.366 . S
C950 C951 1.414 . S
C950 C953 1.499 . S
C951 H925 0.950 . S
C951 C950 1.414 . S
C951 C952 1.374 . S
C952 H926 0.950 . S
C952 C948 1.385 . S
C952 C951 1.374 . S
C953 C950 1.499 . S
C953 C954 1.373 . S
C953 C955 1.389 . S
C954 H927 0.950 . S
C954 C940 1.377 . S
C954 C953 1.373 . S
C955 C939 1.377 . S
C955 C953 1.389 . S
C955 C956 1.524 . S
C956 C955 1.524 . S
C956 C957 1.397 . S
C956 C961 1.363 . S
C957 H928 0.950 . S
C957 C956 1.397 . S
C957 C958 1.334 . S
C958 H929 0.950 . S
C958 C957 1.334 . S
C958 C959 1.287 . S
C959 C958 1.287 . S
C959 C960 1.524 . S
C959 H962 0.999 . S
C960 H930 0.950 . S
C960 C959 1.524 . S
C960 C961 1.415 . S
C961 H931 0.950 . S
C961 C956 1.363 . S
C961 C960 1.415 . S
H962 C959 0.999 . S
H963 C944 0.913 . S
H964 C982 0.951 . S
H965 C984 0.951 . S
H966 C986 0.950 . S
H967 C987 0.950 . S
H968 C989 0.950 . S
H969 C992 0.950 . S
H970 C993 0.950 . S
H971 C995 0.950 . S
H972 C996 0.950 . S
H973 C997 0.951 . S
H974 C999 0.951 . S
H975 C1001 0.950 . S
H976 C1002 0.950 . S
H977 C1004 0.950 . S
H978 C1007 0.950 . S
H979 C1008 0.950 . S
H980 C1010 0.950 . S
H981 C1011 0.950 . S
C982 H964 0.951 . S
C982 C983 1.366 . S
C982 C984 1.388 . S
C983 C982 1.366 . S
C983 C987 1.385 . S
C984 H965 0.951 . S
C984 C982 1.388 . S
C984 C985 1.366 . S
C985 C984 1.366 . S
C985 C986 1.414 . S
C985 C988 1.499 . S
C986 H966 0.950 . S
C986 C985 1.414 . S
C986 C987 1.374 . S
C987 H967 0.950 . S
C987 C983 1.385 . S
C987 C986 1.374 . S
C988 C985 1.499 . S
C988 C989 1.373 . S
C988 C990 1.389 . S
C989 H968 0.950 . S
C989 C988 1.373 . S
C989 C1005 1.377 . S
C990 C988 1.389 . S
C990 C991 1.524 . S
C990 C1004 1.377 . S
C991 C990 1.524 . S
C991 C992 1.397 . S
C991 C996 1.363 . S
C992 H969 0.950 . S
C992 C991 1.397 . S
C992 C993 1.334 . S
C993 H970 0.950 . S
C993 C992 1.334 . S
C993 C994 1.287 . S
C994 C993 1.287 . S
C994 C995 1.524 . S
C994 H1013 0.913 . S
C995 H971 0.950 . S
C995 C994 1.524 . S
C995 C996 1.415 . S
C996 H972 0.950 . S
C996 C991 1.363 . S
C996 C995 1.415 . S
C997 H973 0.951 . S
C997 C998 1.366 . S
C997 C999 1.388 . S
C998 C997 1.366 . S
C998 C1002 1.385 . S
C999 H974 0.951 . S
C999 C997 1.388 . S
C999 C1000 1.366 . S
C1000 C999 1.366 . S
C1000 C1001 1.414 . S
C1000 C1003 1.499 . S
C1001 H975 0.950 . S
C1001 C1000 1.414 . S
C1001 C1002 1.374 . S
C1002 H976 0.950 . S
C1002 C998 1.385 . S
C1002 C1001 1.374 . S
C1003 C1000 1.499 . S
C1003 C1004 1.373 . S
C1003 C1005 1.389 . S
C1004 H977 0.950 . S
C1004 C990 1.377 . S
C1004 C1003 1.373 . S
C1005 C989 1.377 . S
C1005 C1003 1.389 . S
C1005 C1006 1.524 . S
C1006 C1005 1.524 . S
C1006 C1007 1.397 . S
C1006 C1011 1.363 . S
C1007 H978 0.950 . S
C1007 C1006 1.397 . S
C1007 C1008 1.334 . S
C1008 H979 0.950 . S
C1008 C1007 1.334 . S
C1008 C1009 1.287 . S
C1009 C1008 1.287 . S
C1009 C1010 1.524 . S
C1009 H1012 0.999 . S
C1010 H980 0.950 . S
C1010 C1009 1.524 . S
C1010 C1011 1.415 . S
C1011 H981 0.950 . S
C1011 C1006 1.363 . S
C1011 C1010 1.415 . S
H1012 C1009 0.999 . S
H1013 C994 0.913 . S
H1014 C1032 0.951 . S
H1015 C1034 0.951 . S
H1016 C1036 0.950 . S
H1017 C1037 0.950 . S
H1018 C1039 0.950 . S
H1019 C1042 0.950 . S
H1020 C1043 0.950 . S
H1021 C1045 0.950 . S
H1022 C1046 0.950 . S
H1023 C1047 0.951 . S
H1024 C1049 0.951 . S
H1025 C1051 0.950 . S
H1026 C1052 0.950 . S
H1027 C1054 0.950 . S
H1028 C1057 0.950 . S
H1029 C1058 0.950 1_545 S
H1030 C1060 0.950 . S
H1031 C1061 0.950 . S
C1032 H1014 0.951 . S
C1032 C1033 1.366 . S
C1032 C1034 1.388 . S
C1033 C1032 1.366 . S
C1033 C1037 1.385 . S
C1034 H1015 0.951 . S
C1034 C1032 1.388 . S
C1034 C1035 1.366 . S
C1035 C1034 1.366 . S
C1035 C1036 1.414 . S
C1035 C1038 1.499 . S
C1036 H1016 0.950 . S
C1036 C1035 1.414 . S
C1036 C1037 1.374 . S
C1037 H1017 0.950 . S
C1037 C1033 1.385 . S
C1037 C1036 1.374 . S
C1038 C1035 1.499 . S
C1038 C1039 1.373 . S
C1038 C1040 1.389 . S
C1039 H1018 0.950 . S
C1039 C1038 1.373 . S
C1039 C1055 1.377 . S
C1040 C1038 1.389 . S
C1040 C1041 1.524 . S
C1040 C1054 1.377 . S
C1041 C1040 1.524 . S
C1041 C1042 1.397 . S
C1041 C1046 1.363 . S
C1042 H1019 0.950 . S
C1042 C1041 1.397 . S
C1042 C1043 1.334 . S
C1043 H1020 0.950 . S
C1043 C1042 1.334 . S
C1043 C1044 1.287 . S
C1044 C1043 1.287 . S
C1044 C1045 1.524 . S
C1044 H1063 0.913 . S
C1045 H1021 0.950 . S
C1045 C1044 1.524 . S
C1045 C1046 1.415 . S
C1046 H1022 0.950 . S
C1046 C1041 1.363 . S
C1046 C1045 1.415 . S
C1047 H1023 0.951 . S
C1047 C1048 1.366 . S
C1047 C1049 1.388 . S
C1048 C1047 1.366 . S
C1048 C1052 1.385 . S
C1049 H1024 0.951 . S
C1049 C1047 1.388 . S
C1049 C1050 1.366 . S
C1050 C1049 1.366 . S
C1050 C1051 1.414 . S
C1050 C1053 1.499 . S
C1051 H1025 0.950 . S
C1051 C1050 1.414 . S
C1051 C1052 1.374 . S
C1052 H1026 0.950 . S
C1052 C1048 1.385 . S
C1052 C1051 1.374 . S
C1053 C1050 1.499 . S
C1053 C1054 1.373 . S
C1053 C1055 1.389 . S
C1054 H1027 0.950 . S
C1054 C1040 1.377 . S
C1054 C1053 1.373 . S
C1055 C1039 1.377 . S
C1055 C1053 1.389 . S
C1055 C1056 1.524 . S
C1056 C1055 1.524 . S
C1056 C1057 1.397 . S
C1056 C1061 1.363 . S
C1057 H1028 0.950 . S
C1057 C1056 1.397 . S
C1057 C1058 1.334 . S
C1058 H1029 0.950 1_565 S
C1058 C1057 1.334 . S
C1058 C1059 1.287 . S
C1059 C1058 1.287 . S
C1059 C1060 1.524 . S
C1059 H1062 0.999 1_565 S
C1060 H1030 0.950 . S
C1060 C1059 1.524 . S
C1060 C1061 1.415 . S
C1061 H1031 0.950 . S
C1061 C1056 1.363 . S
C1061 C1060 1.415 . S
H1062 C1059 0.999 1_545 S
H1063 C1044 0.913 . S
H1064 C1082 0.951 . S
H1065 C1084 0.951 . S
H1066 C1086 0.950 . S
H1067 C1087 0.950 . S
H1068 C1089 0.950 . S
H1069 C1092 0.950 . S
H1070 C1093 0.950 . S
H1071 C1095 0.950 . S
H1072 C1096 0.950 . S
H1073 C1097 0.951 . S
H1074 C1099 0.951 . S
H1075 C1101 0.950 . S
H1076 C1102 0.950 . S
H1077 C1104 0.950 . S
H1078 C1107 0.950 . S
H1079 C1108 0.950 1_545 S
H1080 C1110 0.950 1_545 S
H1081 C1111 0.950 . S
C1082 H1064 0.951 . S
C1082 C1083 1.366 . S
C1082 C1084 1.388 . S
C1083 C1082 1.366 . S
C1083 C1087 1.385 . S
C1084 H1065 0.951 . S
C1084 C1082 1.388 . S
C1084 C1085 1.366 . S
C1085 C1084 1.366 . S
C1085 C1086 1.414 . S
C1085 C1088 1.499 . S
C1086 H1066 0.950 . S
C1086 C1085 1.414 . S
C1086 C1087 1.374 . S
C1087 H1067 0.950 . S
C1087 C1083 1.385 . S
C1087 C1086 1.374 . S
C1088 C1085 1.499 . S
C1088 C1089 1.373 . S
C1088 C1090 1.389 . S
C1089 H1068 0.950 . S
C1089 C1088 1.373 . S
C1089 C1105 1.377 . S
C1090 C1088 1.389 . S
C1090 C1091 1.524 . S
C1090 C1104 1.377 . S
C1091 C1090 1.524 . S
C1091 C1092 1.397 . S
C1091 C1096 1.363 . S
C1092 H1069 0.950 . S
C1092 C1091 1.397 . S
C1092 C1093 1.334 . S
C1093 H1070 0.950 . S
C1093 C1092 1.334 . S
C1093 C1094 1.287 . S
C1094 C1093 1.287 . S
C1094 C1095 1.524 . S
C1094 H1113 0.913 . S
C1095 H1071 0.950 . S
C1095 C1094 1.524 . S
C1095 C1096 1.415 . S
C1096 H1072 0.950 . S
C1096 C1091 1.363 . S
C1096 C1095 1.415 . S
C1097 H1073 0.951 . S
C1097 C1098 1.366 . S
C1097 C1099 1.388 . S
C1098 C1097 1.366 . S
C1098 C1102 1.385 . S
C1099 H1074 0.951 . S
C1099 C1097 1.388 . S
C1099 C1100 1.366 . S
C1100 C1099 1.366 . S
C1100 C1101 1.414 . S
C1100 C1103 1.499 . S
C1101 H1075 0.950 . S
C1101 C1100 1.414 . S
C1101 C1102 1.374 . S
C1102 H1076 0.950 . S
C1102 C1098 1.385 . S
C1102 C1101 1.374 . S
C1103 C1100 1.499 . S
C1103 C1104 1.373 . S
C1103 C1105 1.389 . S
C1104 H1077 0.950 . S
C1104 C1090 1.377 . S
C1104 C1103 1.373 . S
C1105 C1089 1.377 . S
C1105 C1103 1.389 . S
C1105 C1106 1.524 . S
C1106 C1105 1.524 . S
C1106 C1107 1.397 . S
C1106 C1111 1.363 . S
C1107 H1078 0.950 . S
C1107 C1106 1.397 . S
C1107 C1108 1.334 . S
C1108 H1079 0.950 1_565 S
C1108 C1107 1.334 . S
C1108 C1109 1.287 1_565 S
C1109 C1108 1.287 1_545 S
C1109 C1110 1.524 1_545 S
C1109 H1112 0.999 . S
C1110 H1080 0.950 1_565 S
C1110 C1109 1.524 1_565 S
C1110 C1111 1.415 . S
C1111 H1081 0.950 . S
C1111 C1106 1.363 . S
C1111 C1110 1.415 . S
H1112 C1109 0.999 . S
H1113 C1094 0.913 . S
H1114 C1132 0.951 . S
H1115 C1134 0.951 . S
H1116 C1136 0.950 . S
H1117 C1137 0.950 . S
H1118 C1139 0.950 . S
H1119 C1142 0.950 . S
H1120 C1143 0.950 . S
H1121 C1145 0.950 . S
H1122 C1146 0.950 . S
H1123 C1147 0.951 . S
H1124 C1149 0.951 . S
H1125 C1151 0.950 . S
H1126 C1152 0.950 . S
H1127 C1154 0.950 . S
H1128 C1157 0.950 . S
H1129 C1158 0.950 . S
H1130 C1160 0.950 . S
H1131 C1161 0.950 . S
C1132 H1114 0.951 . S
C1132 C1133 1.366 . S
C1132 C1134 1.388 . S
C1133 C1132 1.366 . S
C1133 C1137 1.385 . S
C1134 H1115 0.951 . S
C1134 C1132 1.388 . S
C1134 C1135 1.366 . S
C1135 C1134 1.366 . S
C1135 C1136 1.414 . S
C1135 C1138 1.499 . S
C1136 H1116 0.950 . S
C1136 C1135 1.414 . S
C1136 C1137 1.374 . S
C1137 H1117 0.950 . S
C1137 C1133 1.385 . S
C1137 C1136 1.374 . S
C1138 C1135 1.499 . S
C1138 C1139 1.373 . S
C1138 C1140 1.389 . S
C1139 H1118 0.950 . S
C1139 C1138 1.373 . S
C1139 C1155 1.377 . S
C1140 C1138 1.389 . S
C1140 C1141 1.524 . S
C1140 C1154 1.377 . S
C1141 C1140 1.524 . S
C1141 C1142 1.397 . S
C1141 C1146 1.363 . S
C1142 H1119 0.950 . S
C1142 C1141 1.397 . S
C1142 C1143 1.334 . S
C1143 H1120 0.950 . S
C1143 C1142 1.334 . S
C1143 C1144 1.287 . S
C1144 C1143 1.287 . S
C1144 C1145 1.524 . S
C1144 H1163 0.913 . S
C1145 H1121 0.950 . S
C1145 C1144 1.524 . S
C1145 C1146 1.415 . S
C1146 H1122 0.950 . S
C1146 C1141 1.363 . S
C1146 C1145 1.415 . S
C1147 H1123 0.951 . S
C1147 C1148 1.366 . S
C1147 C1149 1.388 . S
C1148 C1147 1.366 . S
C1148 C1152 1.385 . S
C1149 H1124 0.951 . S
C1149 C1147 1.388 . S
C1149 C1150 1.366 . S
C1150 C1149 1.366 . S
C1150 C1151 1.414 . S
C1150 C1153 1.499 . S
C1151 H1125 0.950 . S
C1151 C1150 1.414 . S
C1151 C1152 1.374 . S
C1152 H1126 0.950 . S
C1152 C1148 1.385 . S
C1152 C1151 1.374 . S
C1153 C1150 1.499 . S
C1153 C1154 1.373 . S
C1153 C1155 1.389 . S
C1154 H1127 0.950 . S
C1154 C1140 1.377 . S
C1154 C1153 1.373 . S
C1155 C1139 1.377 . S
C1155 C1153 1.389 . S
C1155 C1156 1.524 . S
C1156 C1155 1.524 . S
C1156 C1157 1.397 . S
C1156 C1161 1.363 . S
C1157 H1128 0.950 . S
C1157 C1156 1.397 . S
C1157 C1158 1.334 . S
C1158 H1129 0.950 . S
C1158 C1157 1.334 . S
C1158 C1159 1.287 . S
C1159 C1158 1.287 . S
C1159 C1160 1.524 . S
C1159 H1162 0.999 . S
C1160 H1130 0.950 . S
C1160 C1159 1.524 . S
C1160 C1161 1.415 . S
C1161 H1131 0.950 . S
C1161 C1156 1.363 . S
C1161 C1160 1.415 . S
H1162 C1159 0.999 . S
H1163 C1144 0.913 . S
H1164 C1182 0.951 . S
H1165 C1184 0.951 . S
H1166 C1186 0.950 . S
H1167 C1187 0.950 . S
H1168 C1189 0.950 . S
H1169 C1192 0.950 . S
H1170 C1193 0.950 . S
H1171 C1195 0.950 . S
H1172 C1196 0.950 . S
H1173 C1197 0.951 . S
H1174 C1199 0.951 . S
H1175 C1201 0.950 . S
H1176 C1202 0.950 . S
H1177 C1204 0.950 . S
H1178 C1207 0.950 . S
H1179 C1208 0.950 . S
H1180 C1210 0.922 1_455 S
H1181 C1211 0.950 . S
C1182 H1164 0.951 . S
C1182 C1183 1.366 . S
C1182 C1184 1.388 . S
C1183 C1182 1.366 . S
C1183 C1187 1.385 . S
C1184 H1165 0.951 . S
C1184 C1182 1.388 . S
C1184 C1185 1.366 . S
C1185 C1184 1.366 . S
C1185 C1186 1.414 . S
C1185 C1188 1.499 . S
C1186 H1166 0.950 . S
C1186 C1185 1.414 . S
C1186 C1187 1.374 . S
C1187 H1167 0.950 . S
C1187 C1183 1.385 . S
C1187 C1186 1.374 . S
C1188 C1185 1.499 . S
C1188 C1189 1.373 . S
C1188 C1190 1.389 . S
C1189 H1168 0.950 . S
C1189 C1188 1.373 . S
C1189 C1205 1.377 . S
C1190 C1188 1.389 . S
C1190 C1191 1.524 . S
C1190 C1204 1.377 . S
C1191 C1190 1.524 . S
C1191 C1192 1.397 . S
C1191 C1196 1.363 . S
C1192 H1169 0.950 . S
C1192 C1191 1.397 . S
C1192 C1193 1.334 . S
C1193 H1170 0.950 . S
C1193 C1192 1.334 . S
C1193 C1194 1.287 . S
C1194 C1193 1.287 . S
C1194 C1195 1.524 . S
C1194 H1213 0.913 . S
C1195 H1171 0.950 . S
C1195 C1194 1.524 . S
C1195 C1196 1.415 . S
C1196 H1172 0.950 . S
C1196 C1191 1.363 . S
C1196 C1195 1.415 . S
C1197 H1173 0.951 . S
C1197 C1198 1.366 . S
C1197 C1199 1.388 . S
C1198 C1197 1.366 . S
C1198 C1202 1.385 . S
C1199 H1174 0.951 . S
C1199 C1197 1.388 . S
C1199 C1200 1.366 . S
C1200 C1199 1.366 . S
C1200 C1201 1.414 . S
C1200 C1203 1.499 . S
C1201 H1175 0.950 . S
C1201 C1200 1.414 . S
C1201 C1202 1.374 . S
C1202 H1176 0.950 . S
C1202 C1198 1.385 . S
C1202 C1201 1.374 . S
C1203 C1200 1.499 . S
C1203 C1204 1.373 . S
C1203 C1205 1.389 . S
C1204 H1177 0.950 . S
C1204 C1190 1.377 . S
C1204 C1203 1.373 . S
C1205 C1189 1.377 . S
C1205 C1203 1.389 . S
C1205 C1206 1.524 . S
C1206 C1205 1.524 . S
C1206 C1207 1.397 . S
C1206 C1211 1.363 . S
C1207 H1178 0.950 . S
C1207 C1206 1.397 . S
C1207 C1208 1.334 . S
C1208 H1179 0.950 . S
C1208 C1207 1.334 . S
C1208 C1209 1.287 . S
C1209 C1208 1.287 . S
C1209 C1210 1.524 . S
C1209 H1212 0.999 1_655 S
C1210 H1180 0.922 1_655 S
C1210 C1209 1.524 . S
C1210 C1211 1.415 . S
C1211 H1181 0.950 . S
C1211 C1206 1.363 . S
C1211 C1210 1.415 . S
H1212 C1209 0.999 1_455 S
H1213 C1194 0.913 . S
H1214 C1232 0.951 . S
H1215 C1234 0.951 . S
H1216 C1236 0.950 . S
H1217 C1237 0.950 . S
H1218 C1239 0.950 . S
H1219 C1242 0.950 . S
H1220 C1243 0.950 . S
H1221 C1245 0.950 . S
H1222 C1246 0.950 . S
H1223 C1247 0.951 . S
H1224 C1249 0.951 . S
H1225 C1251 0.950 . S
H1226 C1252 0.950 . S
H1227 C1254 0.950 . S
H1228 C1257 0.950 . S
H1229 C1258 0.950 . S
H1230 C1260 0.950 . S
H1231 C1261 0.950 . S
C1232 H1214 0.951 . S
C1232 C1233 1.366 . S
C1232 C1234 1.388 . S
C1233 C1232 1.366 . S
C1233 C1237 1.385 . S
C1234 H1215 0.951 . S
C1234 C1232 1.388 . S
C1234 C1235 1.366 . S
C1235 C1234 1.366 . S
C1235 C1236 1.414 . S
C1235 C1238 1.499 . S
C1236 H1216 0.950 . S
C1236 C1235 1.414 . S
C1236 C1237 1.374 . S
C1237 H1217 0.950 . S
C1237 C1233 1.385 . S
C1237 C1236 1.374 . S
C1238 C1235 1.499 . S
C1238 C1239 1.373 . S
C1238 C1240 1.389 . S
C1239 H1218 0.950 . S
C1239 C1238 1.373 . S
C1239 C1255 1.377 . S
C1240 C1238 1.389 . S
C1240 C1241 1.524 . S
C1240 C1254 1.377 . S
C1241 C1240 1.524 . S
C1241 C1242 1.397 . S
C1241 C1246 1.363 . S
C1242 H1219 0.950 . S
C1242 C1241 1.397 . S
C1242 C1243 1.334 . S
C1243 H1220 0.950 . S
C1243 C1242 1.334 . S
C1243 C1244 1.287 . S
C1244 C1243 1.287 . S
C1244 C1245 1.524 . S
C1244 H1263 0.913 . S
C1245 H1221 0.950 . S
C1245 C1244 1.524 . S
C1245 C1246 1.415 . S
C1246 H1222 0.950 . S
C1246 C1241 1.363 . S
C1246 C1245 1.415 . S
C1247 H1223 0.951 . S
C1247 C1248 1.366 . S
C1247 C1249 1.388 . S
C1248 C1247 1.366 . S
C1248 C1252 1.385 . S
C1249 H1224 0.951 . S
C1249 C1247 1.388 . S
C1249 C1250 1.366 . S
C1250 C1249 1.366 . S
C1250 C1251 1.414 . S
C1250 C1253 1.499 . S
C1251 H1225 0.950 . S
C1251 C1250 1.414 . S
C1251 C1252 1.374 . S
C1252 H1226 0.950 . S
C1252 C1248 1.385 . S
C1252 C1251 1.374 . S
C1253 C1250 1.499 . S
C1253 C1254 1.373 . S
C1253 C1255 1.389 . S
C1254 H1227 0.950 . S
C1254 C1240 1.377 . S
C1254 C1253 1.373 . S
C1255 C1239 1.377 . S
C1255 C1253 1.389 . S
C1255 C1256 1.524 . S
C1256 C1255 1.524 . S
C1256 C1257 1.397 . S
C1256 C1261 1.363 . S
C1257 H1228 0.950 . S
C1257 C1256 1.397 . S
C1257 C1258 1.334 . S
C1258 H1229 0.950 . S
C1258 C1257 1.334 . S
C1258 C1259 1.287 . S
C1259 C1258 1.287 . S
C1259 C1260 1.524 . S
C1259 H1262 0.999 . S
C1260 H1230 0.950 . S
C1260 C1259 1.524 . S
C1260 C1261 1.415 . S
C1261 H1231 0.950 . S
C1261 C1256 1.363 . S
C1261 C1260 1.415 . S
H1262 C1259 0.999 . S
H1263 C1244 0.913 . S
H1264 C1282 0.951 . S
H1265 C1284 0.951 . S
H1266 C1286 0.950 . S
H1267 C1287 0.950 . S
H1268 C1289 0.950 . S
H1269 C1292 0.950 . S
H1270 C1293 0.950 . S
H1271 C1295 0.950 . S
H1272 C1296 0.950 . S
H1273 C1297 0.951 . S
H1274 C1299 0.951 . S
H1275 C1301 0.950 . S
H1276 C1302 0.950 . S
H1277 C1304 0.950 . S
H1278 C1307 0.950 . S
H1279 C1308 0.950 . S
H1280 C1310 0.950 . S
H1281 C1311 0.950 . S
C1282 H1264 0.951 . S
C1282 C1283 1.366 . S
C1282 C1284 1.388 . S
C1283 C1282 1.366 . S
C1283 C1287 1.385 . S
C1284 H1265 0.951 . S
C1284 C1282 1.388 . S
C1284 C1285 1.366 . S
C1285 C1284 1.366 . S
C1285 C1286 1.414 . S
C1285 C1288 1.499 . S
C1286 H1266 0.950 . S
C1286 C1285 1.414 . S
C1286 C1287 1.374 . S
C1287 H1267 0.950 . S
C1287 C1283 1.385 . S
C1287 C1286 1.374 . S
C1288 C1285 1.499 . S
C1288 C1289 1.373 . S
C1288 C1290 1.389 . S
C1289 H1268 0.950 . S
C1289 C1288 1.373 . S
C1289 C1305 1.377 . S
C1290 C1288 1.389 . S
C1290 C1291 1.524 . S
C1290 C1304 1.377 . S
C1291 C1290 1.524 . S
C1291 C1292 1.397 . S
C1291 C1296 1.363 . S
C1292 H1269 0.950 . S
C1292 C1291 1.397 . S
C1292 C1293 1.334 . S
C1293 H1270 0.950 . S
C1293 C1292 1.334 . S
C1293 C1294 1.287 . S
C1294 C1293 1.287 . S
C1294 C1295 1.524 . S
C1294 H1313 0.913 . S
C1295 H1271 0.950 . S
C1295 C1294 1.524 . S
C1295 C1296 1.415 . S
C1296 H1272 0.950 . S
C1296 C1291 1.363 . S
C1296 C1295 1.415 . S
C1297 H1273 0.951 . S
C1297 C1298 1.366 . S
C1297 C1299 1.388 . S
C1298 C1297 1.366 . S
C1298 C1302 1.385 . S
C1299 H1274 0.951 . S
C1299 C1297 1.388 . S
C1299 C1300 1.366 . S
C1300 C1299 1.366 . S
C1300 C1301 1.414 . S
C1300 C1303 1.499 . S
C1301 H1275 0.950 . S
C1301 C1300 1.414 . S
C1301 C1302 1.374 . S
C1302 H1276 0.950 . S
C1302 C1298 1.385 . S
C1302 C1301 1.374 . S
C1303 C1300 1.499 . S
C1303 C1304 1.373 . S
C1303 C1305 1.389 . S
C1304 H1277 0.950 . S
C1304 C1290 1.377 . S
C1304 C1303 1.373 . S
C1305 C1289 1.377 . S
C1305 C1303 1.389 . S
C1305 C1306 1.524 . S
C1306 C1305 1.524 . S
C1306 C1307 1.397 . S
C1306 C1311 1.363 . S
C1307 H1278 0.950 . S
C1307 C1306 1.397 . S
C1307 C1308 1.334 . S
C1308 H1279 0.950 . S
C1308 C1307 1.334 . S
C1308 C1309 1.287 . S
C1309 C1308 1.287 . S
C1309 C1310 1.524 . S
C1309 H1312 0.999 . S
C1310 H1280 0.950 . S
C1310 C1309 1.524 . S
C1310 C1311 1.415 . S
C1311 H1281 0.950 . S
C1311 C1306 1.363 . S
C1311 C1310 1.415 . S
H1312 C1309 0.999 . S
H1313 C1294 0.913 . S
H1314 C1332 0.951 . S
H1315 C1334 0.951 . S
H1316 C1336 0.950 . S
H1317 C1337 0.950 . S
H1318 C1339 0.950 . S
H1319 C1342 0.950 . S
H1320 C1343 0.950 . S
H1321 C1345 0.950 . S
H1322 C1346 0.950 . S
H1323 C1347 0.951 . S
H1324 C1349 0.951 . S
H1325 C1351 0.950 . S
H1326 C1352 0.950 . S
H1327 C1354 0.950 . S
H1328 C1357 0.950 . S
H1329 C1358 0.950 . S
H1330 C1360 0.950 . S
H1331 C1361 0.950 . S
C1332 H1314 0.951 . S
C1332 C1333 1.366 . S
C1332 C1334 1.388 . S
C1333 C1332 1.366 . S
C1333 C1337 1.385 . S
C1334 H1315 0.951 . S
C1334 C1332 1.388 . S
C1334 C1335 1.366 . S
C1335 C1334 1.366 . S
C1335 C1336 1.414 . S
C1335 C1338 1.499 . S
C1336 H1316 0.950 . S
C1336 C1335 1.414 . S
C1336 C1337 1.374 . S
C1337 H1317 0.950 . S
C1337 C1333 1.385 . S
C1337 C1336 1.374 . S
C1338 C1335 1.499 . S
C1338 C1339 1.373 . S
C1338 C1340 1.389 . S
C1339 H1318 0.950 . S
C1339 C1338 1.373 . S
C1339 C1355 1.377 . S
C1340 C1338 1.389 . S
C1340 C1341 1.524 . S
C1340 C1354 1.377 . S
C1341 C1340 1.524 . S
C1341 C1342 1.397 . S
C1341 C1346 1.363 . S
C1342 H1319 0.950 . S
C1342 C1341 1.397 . S
C1342 C1343 1.334 . S
C1343 H1320 0.950 . S
C1343 C1342 1.334 . S
C1343 C1344 1.287 . S
C1344 C1343 1.287 . S
C1344 C1345 1.524 . S
C1344 H1363 0.913 . S
C1345 H1321 0.950 . S
C1345 C1344 1.524 . S
C1345 C1346 1.415 . S
C1346 H1322 0.950 . S
C1346 C1341 1.363 . S
C1346 C1345 1.415 . S
C1347 H1323 0.951 . S
C1347 C1348 1.366 . S
C1347 C1349 1.388 . S
C1348 C1347 1.366 . S
C1348 C1352 1.385 . S
C1349 H1324 0.951 . S
C1349 C1347 1.388 . S
C1349 C1350 1.366 . S
C1350 C1349 1.366 . S
C1350 C1351 1.414 . S
C1350 C1353 1.499 . S
C1351 H1325 0.950 . S
C1351 C1350 1.414 . S
C1351 C1352 1.374 . S
C1352 H1326 0.950 . S
C1352 C1348 1.385 . S
C1352 C1351 1.374 . S
C1353 C1350 1.499 . S
C1353 C1354 1.373 . S
C1353 C1355 1.389 . S
C1354 H1327 0.950 . S
C1354 C1340 1.377 . S
C1354 C1353 1.373 . S
C1355 C1339 1.377 . S
C1355 C1353 1.389 . S
C1355 C1356 1.524 . S
C1356 C1355 1.524 . S
C1356 C1357 1.397 . S
C1356 C1361 1.363 . S
C1357 H1328 0.950 . S
C1357 C1356 1.397 . S
C1357 C1358 1.334 . S
C1358 H1329 0.950 . S
C1358 C1357 1.334 . S
C1358 C1359 1.287 . S
C1359 C1358 1.287 . S
C1359 C1360 1.524 . S
C1359 H1362 0.999 . S
C1360 H1330 0.950 . S
C1360 C1359 1.524 . S
C1360 C1361 1.415 . S
C1361 H1331 0.950 . S
C1361 C1356 1.363 . S
C1361 C1360 1.415 . S
H1362 C1359 0.999 . S
H1363 C1344 0.913 . S
H1364 C1382 0.951 . S
H1365 C1384 0.951 . S
H1366 C1386 0.950 . S
H1367 C1387 0.950 . S
H1368 C1389 0.950 . S
H1369 C1392 0.950 . S
H1370 C1393 0.950 . S
H1371 C1395 0.950 . S
H1372 C1396 0.950 . S
H1373 C1397 0.951 . S
H1374 C1399 0.951 . S
H1375 C1401 0.950 . S
H1376 C1402 0.950 . S
H1377 C1404 0.950 . S
H1378 C1407 0.950 . S
H1379 C1408 0.950 . S
H1380 C1410 0.950 1_556 S
H1381 C1411 0.950 . S
C1382 H1364 0.951 . S
C1382 C1383 1.366 . S
C1382 C1384 1.388 . S
C1383 C1382 1.366 . S
C1383 C1387 1.385 . S
C1384 H1365 0.951 . S
C1384 C1382 1.388 . S
C1384 C1385 1.366 . S
C1385 C1384 1.366 . S
C1385 C1386 1.414 . S
C1385 C1388 1.499 . S
C1386 H1366 0.950 . S
C1386 C1385 1.414 . S
C1386 C1387 1.374 . S
C1387 H1367 0.950 . S
C1387 C1383 1.385 . S
C1387 C1386 1.374 . S
C1388 C1385 1.499 . S
C1388 C1389 1.373 . S
C1388 C1390 1.389 . S
C1389 H1368 0.950 . S
C1389 C1388 1.373 . S
C1389 C1405 1.377 . S
C1390 C1388 1.389 . S
C1390 C1391 1.524 . S
C1390 C1404 1.377 . S
C1391 C1390 1.524 . S
C1391 C1392 1.397 . S
C1391 C1396 1.363 . S
C1392 H1369 0.950 . S
C1392 C1391 1.397 . S
C1392 C1393 1.334 . S
C1393 H1370 0.950 . S
C1393 C1392 1.334 . S
C1393 C1394 1.287 . S
C1394 C1393 1.287 . S
C1394 C1395 1.524 . S
C1394 H1413 0.913 . S
C1395 H1371 0.950 . S
C1395 C1394 1.524 . S
C1395 C1396 1.415 . S
C1396 H1372 0.950 . S
C1396 C1391 1.363 . S
C1396 C1395 1.415 . S
C1397 H1373 0.951 . S
C1397 C1398 1.366 . S
C1397 C1399 1.388 . S
C1398 C1397 1.366 . S
C1398 C1402 1.385 . S
C1399 H1374 0.951 . S
C1399 C1397 1.388 . S
C1399 C1400 1.366 . S
C1400 C1399 1.366 . S
C1400 C1401 1.414 . S
C1400 C1403 1.499 . S
C1401 H1375 0.950 . S
C1401 C1400 1.414 . S
C1401 C1402 1.374 . S
C1402 H1376 0.950 . S
C1402 C1398 1.385 . S
C1402 C1401 1.374 . S
C1403 C1400 1.499 . S
C1403 C1404 1.373 . S
C1403 C1405 1.389 . S
C1404 H1377 0.950 . S
C1404 C1390 1.377 . S
C1404 C1403 1.373 . S
C1405 C1389 1.377 . S
C1405 C1403 1.389 . S
C1405 C1406 1.524 . S
C1406 C1405 1.524 . S
C1406 C1407 1.397 . S
C1406 C1411 1.363 . S
C1407 H1378 0.950 . S
C1407 C1406 1.397 . S
C1407 C1408 1.334 . S
C1408 H1379 0.950 . S
C1408 C1407 1.334 . S
C1408 C1409 1.287 . S
C1409 C1408 1.287 . S
C1409 C1410 1.524 . S
C1409 H1412 0.999 1_554 S
C1410 H1380 0.950 1_554 S
C1410 C1409 1.524 . S
C1410 C1411 1.415 . S
C1411 H1381 0.950 . S
C1411 C1406 1.363 . S
C1411 C1410 1.415 . S
H1412 C1409 0.999 1_556 S
H1413 C1394 0.913 . S
H1414 C1432 0.951 . S
H1415 C1434 0.951 . S
H1416 C1436 0.950 . S
H1417 C1437 0.950 . S
H1418 C1439 0.950 . S
H1419 C1442 0.950 . S
H1420 C1443 0.950 . S
H1421 C1445 0.950 . S
H1422 C1446 0.950 . S
H1423 C1447 0.951 . S
H1424 C1449 0.951 . S
H1425 C1451 0.950 . S
H1426 C1452 0.950 . S
H1427 C1454 0.950 . S
H1428 C1457 0.950 . S
H1429 C1458 0.950 . S
H1430 C1460 0.950 . S
H1431 C1461 0.950 . S
C1432 H1414 0.951 . S
C1432 C1433 1.366 . S
C1432 C1434 1.388 . S
C1433 C1432 1.366 . S
C1433 C1437 1.385 . S
C1434 H1415 0.951 . S
C1434 C1432 1.388 . S
C1434 C1435 1.366 . S
C1435 C1434 1.366 . S
C1435 C1436 1.414 . S
C1435 C1438 1.499 . S
C1436 H1416 0.950 . S
C1436 C1435 1.414 . S
C1436 C1437 1.374 . S
C1437 H1417 0.950 . S
C1437 C1433 1.385 . S
C1437 C1436 1.374 . S
C1438 C1435 1.499 . S
C1438 C1439 1.373 . S
C1438 C1440 1.389 . S
C1439 H1418 0.950 . S
C1439 C1438 1.373 . S
C1439 C1455 1.377 . S
C1440 C1438 1.389 . S
C1440 C1441 1.524 . S
C1440 C1454 1.377 . S
C1441 C1440 1.524 . S
C1441 C1442 1.397 . S
C1441 C1446 1.363 . S
C1442 H1419 0.950 . S
C1442 C1441 1.397 . S
C1442 C1443 1.334 . S
C1443 H1420 0.950 . S
C1443 C1442 1.334 . S
C1443 C1444 1.287 . S
C1444 C1443 1.287 . S
C1444 C1445 1.524 . S
C1444 H1463 0.913 . S
C1445 H1421 0.950 . S
C1445 C1444 1.524 . S
C1445 C1446 1.415 . S
C1446 H1422 0.950 . S
C1446 C1441 1.363 . S
C1446 C1445 1.415 . S
C1447 H1423 0.951 . S
C1447 C1448 1.366 . S
C1447 C1449 1.388 . S
C1448 C1447 1.366 . S
C1448 C1452 1.385 . S
C1449 H1424 0.951 . S
C1449 C1447 1.388 . S
C1449 C1450 1.366 . S
C1450 C1449 1.366 . S
C1450 C1451 1.414 . S
C1450 C1453 1.499 . S
C1451 H1425 0.950 . S
C1451 C1450 1.414 . S
C1451 C1452 1.374 . S
C1452 H1426 0.950 . S
C1452 C1448 1.385 . S
C1452 C1451 1.374 . S
C1453 C1450 1.499 . S
C1453 C1454 1.373 . S
C1453 C1455 1.389 . S
C1454 H1427 0.950 . S
C1454 C1440 1.377 . S
C1454 C1453 1.373 . S
C1455 C1439 1.377 . S
C1455 C1453 1.389 . S
C1455 C1456 1.524 . S
C1456 C1455 1.524 . S
C1456 C1457 1.397 . S
C1456 C1461 1.363 . S
C1457 H1428 0.950 . S
C1457 C1456 1.397 . S
C1457 C1458 1.334 . S
C1458 H1429 0.950 . S
C1458 C1457 1.334 . S
C1458 C1459 1.287 . S
C1459 C1458 1.287 . S
C1459 C1460 1.524 . S
C1459 H1462 0.999 . S
C1460 H1430 0.950 . S
C1460 C1459 1.524 . S
C1460 C1461 1.415 . S
C1461 H1431 0.950 . S
C1461 C1456 1.363 . S
C1461 C1460 1.415 . S
H1462 C1459 0.999 . S
H1463 C1444 0.913 . S
H1464 C1482 0.951 . S
H1465 C1484 0.951 . S
H1466 C1486 0.950 . S
H1467 C1487 0.950 . S
H1468 C1489 0.950 . S
H1469 C1492 0.950 . S
H1470 C1493 0.950 . S
H1471 C1495 0.950 . S
H1472 C1496 0.950 . S
H1473 C1497 0.951 . S
H1474 C1499 0.951 . S
H1475 C1501 0.950 . S
H1476 C1502 0.950 . S
H1477 C1504 0.950 . S
H1478 C1507 0.950 . S
H1479 C1508 0.950 . S
H1480 C1510 0.950 . S
H1481 C1511 0.950 . S
C1482 H1464 0.951 . S
C1482 C1483 1.366 . S
C1482 C1484 1.388 . S
C1483 C1482 1.366 . S
C1483 C1487 1.385 . S
C1484 H1465 0.951 . S
C1484 C1482 1.388 . S
C1484 C1485 1.366 . S
C1485 C1484 1.366 . S
C1485 C1486 1.414 . S
C1485 C1488 1.499 . S
C1486 H1466 0.950 . S
C1486 C1485 1.414 . S
C1486 C1487 1.374 . S
C1487 H1467 0.950 . S
C1487 C1483 1.385 . S
C1487 C1486 1.374 . S
C1488 C1485 1.499 . S
C1488 C1489 1.373 . S
C1488 C1490 1.389 . S
C1489 H1468 0.950 . S
C1489 C1488 1.373 . S
C1489 C1505 1.377 . S
C1490 C1488 1.389 . S
C1490 C1491 1.524 . S
C1490 C1504 1.377 . S
C1491 C1490 1.524 . S
C1491 C1492 1.397 . S
C1491 C1496 1.363 . S
C1492 H1469 0.950 . S
C1492 C1491 1.397 . S
C1492 C1493 1.334 . S
C1493 H1470 0.950 . S
C1493 C1492 1.334 . S
C1493 C1494 1.287 . S
C1494 C1493 1.287 . S
C1494 C1495 1.524 . S
C1494 H1513 0.913 . S
C1495 H1471 0.950 . S
C1495 C1494 1.524 . S
C1495 C1496 1.415 . S
C1496 H1472 0.950 . S
C1496 C1491 1.363 . S
C1496 C1495 1.415 . S
C1497 H1473 0.951 . S
C1497 C1498 1.366 . S
C1497 C1499 1.388 . S
C1498 C1497 1.366 . S
C1498 C1502 1.385 . S
C1499 H1474 0.951 . S
C1499 C1497 1.388 . S
C1499 C1500 1.366 . S
C1500 C1499 1.366 . S
C1500 C1501 1.414 . S
C1500 C1503 1.499 . S
C1501 H1475 0.950 . S
C1501 C1500 1.414 . S
C1501 C1502 1.374 . S
C1502 H1476 0.950 . S
C1502 C1498 1.385 . S
C1502 C1501 1.374 . S
C1503 C1500 1.499 . S
C1503 C1504 1.373 . S
C1503 C1505 1.389 . S
C1504 H1477 0.950 . S
C1504 C1490 1.377 . S
C1504 C1503 1.373 . S
C1505 C1489 1.377 . S
C1505 C1503 1.389 . S
C1505 C1506 1.524 . S
C1506 C1505 1.524 . S
C1506 C1507 1.397 . S
C1506 C1511 1.363 . S
C1507 H1478 0.950 . S
C1507 C1506 1.397 . S
C1507 C1508 1.334 . S
C1508 H1479 0.950 . S
C1508 C1507 1.334 . S
C1508 C1509 1.287 . S
C1509 C1508 1.287 . S
C1509 C1510 1.524 . S
C1509 H1512 0.999 . S
C1510 H1480 0.950 . S
C1510 C1509 1.524 . S
C1510 C1511 1.415 . S
C1511 H1481 0.950 . S
C1511 C1506 1.363 . S
C1511 C1510 1.415 . S
H1512 C1509 0.999 . S
H1513 C1494 0.913 . S
H1514 C1532 0.951 . S
H1515 C1534 0.951 . S
H1516 C1536 0.950 . S
H1517 C1537 0.950 . S
H1518 C1539 0.950 . S
H1519 C1542 0.950 . S
H1520 C1543 0.950 . S
H1521 C1545 0.950 . S
H1522 C1546 0.950 . S
H1523 C1547 0.951 . S
H1524 C1549 0.951 . S
H1525 C1551 0.950 . S
H1526 C1552 0.950 . S
H1527 C1554 0.950 . S
H1528 C1557 0.950 . S
H1529 C1558 0.950 . S
H1530 C1560 0.950 . S
H1531 C1561 0.950 . S
C1532 H1514 0.951 . S
C1532 C1533 1.366 . S
C1532 C1534 1.388 . S
C1533 C1532 1.366 . S
C1533 C1537 1.385 . S
C1534 H1515 0.951 . S
C1534 C1532 1.388 . S
C1534 C1535 1.366 . S
C1535 C1534 1.366 . S
C1535 C1536 1.414 . S
C1535 C1538 1.499 . S
C1536 H1516 0.950 . S
C1536 C1535 1.414 . S
C1536 C1537 1.374 . S
C1537 H1517 0.950 . S
C1537 C1533 1.385 . S
C1537 C1536 1.374 . S
C1538 C1535 1.499 . S
C1538 C1539 1.373 . S
C1538 C1540 1.389 . S
C1539 H1518 0.950 . S
C1539 C1538 1.373 . S
C1539 C1555 1.377 . S
C1540 C1538 1.389 . S
C1540 C1541 1.524 . S
C1540 C1554 1.377 . S
C1541 C1540 1.524 . S
C1541 C1542 1.397 . S
C1541 C1546 1.363 . S
C1542 H1519 0.950 . S
C1542 C1541 1.397 . S
C1542 C1543 1.334 . S
C1543 H1520 0.950 . S
C1543 C1542 1.334 . S
C1543 C1544 1.287 . S
C1544 C1543 1.287 . S
C1544 C1545 1.524 . S
C1544 H1563 0.913 . S
C1545 H1521 0.950 . S
C1545 C1544 1.524 . S
C1545 C1546 1.415 . S
C1546 H1522 0.950 . S
C1546 C1541 1.363 . S
C1546 C1545 1.415 . S
C1547 H1523 0.951 . S
C1547 C1548 1.366 . S
C1547 C1549 1.388 . S
C1548 C1547 1.366 . S
C1548 C1552 1.385 . S
C1549 H1524 0.951 . S
C1549 C1547 1.388 . S
C1549 C1550 1.366 . S
C1550 C1549 1.366 . S
C1550 C1551 1.414 . S
C1550 C1553 1.499 . S
C1551 H1525 0.950 . S
C1551 C1550 1.414 . S
C1551 C1552 1.374 . S
C1552 H1526 0.950 . S
C1552 C1548 1.385 . S
C1552 C1551 1.374 . S
C1553 C1550 1.499 . S
C1553 C1554 1.373 . S
C1553 C1555 1.389 . S
C1554 H1527 0.950 . S
C1554 C1540 1.377 . S
C1554 C1553 1.373 . S
C1555 C1539 1.377 . S
C1555 C1553 1.389 . S
C1555 C1556 1.524 . S
C1556 C1555 1.524 . S
C1556 C1557 1.397 . S
C1556 C1561 1.363 . S
C1557 H1528 0.950 . S
C1557 C1556 1.397 . S
C1557 C1558 1.334 . S
C1558 H1529 0.950 . S
C1558 C1557 1.334 . S
C1558 C1559 1.287 . S
C1559 C1558 1.287 . S
C1559 C1560 1.524 . S
C1559 H1562 0.999 . S
C1560 H1530 0.950 . S
C1560 C1559 1.524 . S
C1560 C1561 1.415 . S
C1561 H1531 0.950 . S
C1561 C1556 1.363 . S
C1561 C1560 1.415 . S
H1562 C1559 0.999 . S
H1563 C1544 0.913 . S
H1564 C1582 0.951 . S
H1565 C1584 0.951 . S
H1566 C1586 0.950 . S
H1567 C1587 0.950 . S
H1568 C1589 0.950 . S
H1569 C1592 0.950 . S
H1570 C1593 0.950 . S
H1571 C1595 0.950 . S
H1572 C1596 0.950 . S
H1573 C1597 0.951 . S
H1574 C1599 0.951 . S
H1575 C1601 0.950 . S
H1576 C1602 0.950 . S
H1577 C1604 0.950 . S
H1578 C1607 0.950 . S
H1579 C1608 0.950 . S
H1580 C1610 0.950 . S
H1581 C1611 0.950 . S
C1582 H1564 0.951 . S
C1582 C1583 1.366 . S
C1582 C1584 1.388 . S
C1583 C1582 1.366 . S
C1583 C1587 1.385 . S
C1584 H1565 0.951 . S
C1584 C1582 1.388 . S
C1584 C1585 1.366 . S
C1585 C1584 1.366 . S
C1585 C1586 1.414 . S
C1585 C1588 1.499 . S
C1586 H1566 0.950 . S
C1586 C1585 1.414 . S
C1586 C1587 1.374 . S
C1587 H1567 0.950 . S
C1587 C1583 1.385 . S
C1587 C1586 1.374 . S
C1588 C1585 1.499 . S
C1588 C1589 1.373 . S
C1588 C1590 1.389 . S
C1589 H1568 0.950 . S
C1589 C1588 1.373 . S
C1589 C1605 1.377 . S
C1590 C1588 1.389 . S
C1590 C1591 1.524 . S
C1590 C1604 1.377 . S
C1591 C1590 1.524 . S
C1591 C1592 1.397 . S
C1591 C1596 1.363 . S
C1592 H1569 0.950 . S
C1592 C1591 1.397 . S
C1592 C1593 1.334 . S
C1593 H1570 0.950 . S
C1593 C1592 1.334 . S
C1593 C1594 1.287 . S
C1594 C1593 1.287 . S
C1594 C1595 1.524 . S
C1594 H1613 0.913 . S
C1595 H1571 0.950 . S
C1595 C1594 1.524 . S
C1595 C1596 1.415 . S
C1596 H1572 0.950 . S
C1596 C1591 1.363 . S
C1596 C1595 1.415 . S
C1597 H1573 0.951 . S
C1597 C1598 1.366 . S
C1597 C1599 1.388 . S
C1598 C1597 1.366 . S
C1598 C1602 1.385 . S
C1599 H1574 0.951 . S
C1599 C1597 1.388 . S
C1599 C1600 1.366 . S
C1600 C1599 1.366 . S
C1600 C1601 1.414 . S
C1600 C1603 1.499 . S
C1601 H1575 0.950 . S
C1601 C1600 1.414 . S
C1601 C1602 1.374 . S
C1602 H1576 0.950 . S
C1602 C1598 1.385 . S
C1602 C1601 1.374 . S
C1603 C1600 1.499 . S
C1603 C1604 1.373 . S
C1603 C1605 1.389 . S
C1604 H1577 0.950 . S
C1604 C1590 1.377 . S
C1604 C1603 1.373 . S
C1605 C1589 1.377 . S
C1605 C1603 1.389 . S
C1605 C1606 1.524 . S
C1606 C1605 1.524 . S
C1606 C1607 1.397 . S
C1606 C1611 1.363 . S
C1607 H1578 0.950 . S
C1607 C1606 1.397 . S
C1607 C1608 1.334 . S
C1608 H1579 0.950 . S
C1608 C1607 1.334 . S
C1608 C1609 1.287 . S
C1609 C1608 1.287 . S
C1609 C1610 1.524 . S
C1609 H1612 0.999 . S
C1610 H1580 0.950 . S
C1610 C1609 1.524 . S
C1610 C1611 1.415 . S
C1611 H1581 0.950 . S
C1611 C1606 1.363 . S
C1611 C1610 1.415 . S
H1612 C1609 0.999 . S
H1613 C1594 0.913 . S
H1614 C1632 0.951 . S
H1615 C1634 0.951 . S
H1616 C1636 0.950 . S
H1617 C1637 0.950 . S
H1618 C1639 0.950 . S
H1619 C1642 0.950 . S
H1620 C1643 0.950 . S
H1621 C1645 0.950 . S
H1622 C1646 0.950 . S
H1623 C1647 0.951 . S
H1624 C1649 0.951 . S
H1625 C1651 0.950 . S
H1626 C1652 0.950 . S
H1627 C1654 0.950 . S
H1628 C1657 0.950 . S
H1629 C1658 0.950 . S
H1630 C1660 0.950 . S
H1631 C1661 0.950 . S
C1632 H1614 0.951 . S
C1632 C1633 1.366 . S
C1632 C1634 1.388 . S
C1633 C1632 1.366 . S
C1633 C1637 1.385 . S
C1634 H1615 0.951 . S
C1634 C1632 1.388 . S
C1634 C1635 1.366 . S
C1635 C1634 1.366 . S
C1635 C1636 1.414 . S
C1635 C1638 1.499 . S
C1636 H1616 0.950 . S
C1636 C1635 1.414 . S
C1636 C1637 1.374 . S
C1637 H1617 0.950 . S
C1637 C1633 1.385 . S
C1637 C1636 1.374 . S
C1638 C1635 1.499 . S
C1638 C1639 1.373 . S
C1638 C1640 1.389 . S
C1639 H1618 0.950 . S
C1639 C1638 1.373 . S
C1639 C1655 1.377 . S
C1640 C1638 1.389 . S
C1640 C1641 1.524 . S
C1640 C1654 1.377 . S
C1641 C1640 1.524 . S
C1641 C1642 1.397 . S
C1641 C1646 1.363 . S
C1642 H1619 0.950 . S
C1642 C1641 1.397 . S
C1642 C1643 1.334 . S
C1643 H1620 0.950 . S
C1643 C1642 1.334 . S
C1643 C1644 1.287 . S
C1644 C1643 1.287 . S
C1644 C1645 1.524 . S
C1644 H1663 0.913 . S
C1645 H1621 0.950 . S
C1645 C1644 1.524 . S
C1645 C1646 1.415 . S
C1646 H1622 0.950 . S
C1646 C1641 1.363 . S
C1646 C1645 1.415 . S
C1647 H1623 0.951 . S
C1647 C1648 1.366 . S
C1647 C1649 1.388 . S
C1648 C1647 1.366 . S
C1648 C1652 1.385 . S
C1649 H1624 0.951 . S
C1649 C1647 1.388 . S
C1649 C1650 1.366 . S
C1650 C1649 1.366 . S
C1650 C1651 1.414 . S
C1650 C1653 1.499 . S
C1651 H1625 0.950 . S
C1651 C1650 1.414 . S
C1651 C1652 1.374 . S
C1652 H1626 0.950 . S
C1652 C1648 1.385 . S
C1652 C1651 1.374 . S
C1653 C1650 1.499 . S
C1653 C1654 1.373 . S
C1653 C1655 1.389 . S
C1654 H1627 0.950 . S
C1654 C1640 1.377 . S
C1654 C1653 1.373 . S
C1655 C1639 1.377 . S
C1655 C1653 1.389 . S
C1655 C1656 1.524 . S
C1656 C1655 1.524 . S
C1656 C1657 1.397 . S
C1656 C1661 1.363 . S
C1657 H1628 0.950 . S
C1657 C1656 1.397 . S
C1657 C1658 1.334 . S
C1658 H1629 0.950 . S
C1658 C1657 1.334 . S
C1658 C1659 1.287 . S
C1659 C1658 1.287 . S
C1659 C1660 1.524 . S
C1659 H1662 0.999 . S
C1660 H1630 0.950 . S
C1660 C1659 1.524 . S
C1660 C1661 1.415 . S
C1661 H1631 0.950 . S
C1661 C1656 1.363 . S
C1661 C1660 1.415 . S
H1662 C1659 0.999 . S
H1663 C1644 0.913 . S
H1664 C1682 0.951 . S
H1665 C1684 0.951 . S
H1666 C1686 0.950 . S
H1667 C1687 0.950 . S
H1668 C1689 0.950 . S
H1669 C1692 0.950 . S
H1670 C1693 0.950 . S
H1671 C1695 0.950 . S
H1672 C1696 0.950 . S
H1673 C1697 0.951 . S
H1674 C1699 0.951 . S
H1675 C1701 0.950 . S
H1676 C1702 0.950 . S
H1677 C1704 0.950 . S
H1678 C1707 0.950 . S
H1679 C1708 0.950 . S
H1680 C1710 0.950 . S
H1681 C1711 0.950 . S
C1682 H1664 0.951 . S
C1682 C1683 1.366 . S
C1682 C1684 1.388 . S
C1683 C1682 1.366 . S
C1683 C1687 1.385 . S
C1684 H1665 0.951 . S
C1684 C1682 1.388 . S
C1684 C1685 1.366 . S
C1685 C1684 1.366 . S
C1685 C1686 1.414 . S
C1685 C1688 1.499 . S
C1686 H1666 0.950 . S
C1686 C1685 1.414 . S
C1686 C1687 1.374 . S
C1687 H1667 0.950 . S
C1687 C1683 1.385 . S
C1687 C1686 1.374 . S
C1688 C1685 1.499 . S
C1688 C1689 1.373 . S
C1688 C1690 1.389 . S
C1689 H1668 0.950 . S
C1689 C1688 1.373 . S
C1689 C1705 1.377 . S
C1690 C1688 1.389 . S
C1690 C1691 1.524 . S
C1690 C1704 1.377 . S
C1691 C1690 1.524 . S
C1691 C1692 1.397 . S
C1691 C1696 1.363 . S
C1692 H1669 0.950 . S
C1692 C1691 1.397 . S
C1692 C1693 1.334 . S
C1693 H1670 0.950 . S
C1693 C1692 1.334 . S
C1693 C1694 1.287 . S
C1694 C1693 1.287 . S
C1694 C1695 1.524 . S
C1694 H1713 0.913 . S
C1695 H1671 0.950 . S
C1695 C1694 1.524 . S
C1695 C1696 1.415 . S
C1696 H1672 0.950 . S
C1696 C1691 1.363 . S
C1696 C1695 1.415 . S
C1697 H1673 0.951 . S
C1697 C1698 1.366 . S
C1697 C1699 1.388 . S
C1698 C1697 1.366 . S
C1698 C1702 1.385 . S
C1699 H1674 0.951 . S
C1699 C1697 1.388 . S
C1699 C1700 1.366 . S
C1700 C1699 1.366 . S
C1700 C1701 1.414 . S
C1700 C1703 1.499 . S
C1701 H1675 0.950 . S
C1701 C1700 1.414 . S
C1701 C1702 1.374 . S
C1702 H1676 0.950 . S
C1702 C1698 1.385 . S
C1702 C1701 1.374 . S
C1703 C1700 1.499 . S
C1703 C1704 1.373 . S
C1703 C1705 1.389 . S
C1704 H1677 0.950 . S
C1704 C1690 1.377 . S
C1704 C1703 1.373 . S
C1705 C1689 1.377 . S
C1705 C1703 1.389 . S
C1705 C1706 1.524 . S
C1706 C1705 1.524 . S
C1706 C1707 1.397 . S
C1706 C1711 1.363 . S
C1707 H1678 0.950 . S
C1707 C1706 1.397 . S
C1707 C1708 1.334 . S
C1708 H1679 0.950 . S
C1708 C1707 1.334 . S
C1708 C1709 1.287 . S
C1709 C1708 1.287 . S
C1709 C1710 1.524 . S
C1709 H1712 0.964 1_554 S
C1710 H1680 0.950 . S
C1710 C1709 1.524 . S
C1710 C1711 1.415 . S
C1711 H1681 0.950 . S
C1711 C1706 1.363 . S
C1711 C1710 1.415 . S
H1712 C1709 0.964 1_556 S
H1713 C1694 0.913 . S
H1714 C1732 0.951 . S
H1715 C1734 0.951 . S
H1716 C1736 0.950 . S
H1717 C1737 0.950 . S
H1718 C1739 0.950 . S
H1719 C1742 0.950 . S
H1720 C1743 0.950 . S
H1721 C1745 0.950 . S
H1722 C1746 0.950 . S
H1723 C1747 0.951 . S
H1724 C1749 0.951 . S
H1725 C1751 0.950 . S
H1726 C1752 0.950 . S
H1727 C1754 0.950 . S
H1728 C1757 0.950 . S
H1729 C1758 0.950 . S
H1730 C1760 0.950 . S
H1731 C1761 0.950 . S
C1732 H1714 0.951 . S
C1732 C1733 1.366 . S
C1732 C1734 1.388 . S
C1733 C1732 1.366 . S
C1733 C1737 1.385 . S
C1734 H1715 0.951 . S
C1734 C1732 1.388 . S
C1734 C1735 1.366 . S
C1735 C1734 1.366 . S
C1735 C1736 1.414 . S
C1735 C1738 1.499 . S
C1736 H1716 0.950 . S
C1736 C1735 1.414 . S
C1736 C1737 1.374 . S
C1737 H1717 0.950 . S
C1737 C1733 1.385 . S
C1737 C1736 1.374 . S
C1738 C1735 1.499 . S
C1738 C1739 1.373 . S
C1738 C1740 1.389 . S
C1739 H1718 0.950 . S
C1739 C1738 1.373 . S
C1739 C1755 1.377 . S
C1740 C1738 1.389 . S
C1740 C1741 1.524 . S
C1740 C1754 1.377 . S
C1741 C1740 1.524 . S
C1741 C1742 1.397 . S
C1741 C1746 1.363 . S
C1742 H1719 0.950 . S
C1742 C1741 1.397 . S
C1742 C1743 1.334 . S
C1743 H1720 0.950 . S
C1743 C1742 1.334 . S
C1743 C1744 1.287 . S
C1744 C1743 1.287 . S
C1744 C1745 1.524 . S
C1744 H1763 0.913 . S
C1745 H1721 0.950 . S
C1745 C1744 1.524 . S
C1745 C1746 1.415 . S
C1746 H1722 0.950 . S
C1746 C1741 1.363 . S
C1746 C1745 1.415 . S
C1747 H1723 0.951 . S
C1747 C1748 1.366 . S
C1747 C1749 1.388 . S
C1748 C1747 1.366 . S
C1748 C1752 1.385 . S
C1749 H1724 0.951 . S
C1749 C1747 1.388 . S
C1749 C1750 1.366 . S
C1750 C1749 1.366 . S
C1750 C1751 1.414 . S
C1750 C1753 1.499 . S
C1751 H1725 0.950 . S
C1751 C1750 1.414 . S
C1751 C1752 1.374 . S
C1752 H1726 0.950 . S
C1752 C1748 1.385 . S
C1752 C1751 1.374 . S
C1753 C1750 1.499 . S
C1753 C1754 1.373 . S
C1753 C1755 1.389 . S
C1754 H1727 0.950 . S
C1754 C1740 1.377 . S
C1754 C1753 1.373 . S
C1755 C1739 1.377 . S
C1755 C1753 1.389 . S
C1755 C1756 1.524 . S
C1756 C1755 1.524 . S
C1756 C1757 1.397 . S
C1756 C1761 1.363 . S
C1757 H1728 0.950 . S
C1757 C1756 1.397 . S
C1757 C1758 1.334 . S
C1758 H1729 0.950 . S
C1758 C1757 1.334 . S
C1758 C1759 1.287 . S
C1759 C1758 1.287 . S
C1759 C1760 1.524 . S
C1759 H1762 0.999 . S
C1760 H1730 0.950 . S
C1760 C1759 1.524 . S
C1760 C1761 1.415 . S
C1761 H1731 0.950 . S
C1761 C1756 1.363 . S
C1761 C1760 1.415 . S
H1762 C1759 0.999 . S
H1763 C1744 0.913 . S
H1764 C1782 0.951 . S
H1765 C1784 0.951 . S
H1766 C1786 0.950 . S
H1767 C1787 0.950 . S
H1768 C1789 0.950 . S
H1769 C1792 0.950 . S
H1770 C1793 0.950 . S
H1771 C1795 0.950 . S
H1772 C1796 0.950 . S
H1773 C1797 0.951 . S
H1774 C1799 0.951 . S
H1775 C1801 0.950 . S
H1776 C1802 0.950 . S
H1777 C1804 0.950 . S
H1778 C1807 0.950 . S
H1779 C1808 0.950 1_554 S
H1780 C1810 0.950 . S
H1781 C1811 0.950 . S
C1782 H1764 0.951 . S
C1782 C1783 1.366 . S
C1782 C1784 1.388 . S
C1783 C1782 1.366 . S
C1783 C1787 1.385 . S
C1784 H1765 0.951 . S
C1784 C1782 1.388 . S
C1784 C1785 1.366 . S
C1785 C1784 1.366 . S
C1785 C1786 1.414 . S
C1785 C1788 1.499 . S
C1786 H1766 0.950 . S
C1786 C1785 1.414 . S
C1786 C1787 1.374 . S
C1787 H1767 0.950 . S
C1787 C1783 1.385 . S
C1787 C1786 1.374 . S
C1788 C1785 1.499 . S
C1788 C1789 1.373 . S
C1788 C1790 1.389 . S
C1789 H1768 0.950 . S
C1789 C1788 1.373 . S
C1789 C1805 1.377 . S
C1790 C1788 1.389 . S
C1790 C1791 1.524 . S
C1790 C1804 1.377 . S
C1791 C1790 1.524 . S
C1791 C1792 1.397 . S
C1791 C1796 1.363 . S
C1792 H1769 0.950 . S
C1792 C1791 1.397 . S
C1792 C1793 1.334 . S
C1793 H1770 0.950 . S
C1793 C1792 1.334 . S
C1793 C1794 1.287 . S
C1794 C1793 1.287 . S
C1794 C1795 1.524 . S
C1794 H1813 0.913 . S
C1795 H1771 0.950 . S
C1795 C1794 1.524 . S
C1795 C1796 1.415 . S
C1796 H1772 0.950 . S
C1796 C1791 1.363 . S
C1796 C1795 1.415 . S
C1797 H1773 0.951 . S
C1797 C1798 1.366 . S
C1797 C1799 1.388 . S
C1798 C1797 1.366 . S
C1798 C1802 1.385 . S
C1799 H1774 0.951 . S
C1799 C1797 1.388 . S
C1799 C1800 1.366 . S
C1800 C1799 1.366 . S
C1800 C1801 1.414 . S
C1800 C1803 1.499 . S
C1801 H1775 0.950 . S
C1801 C1800 1.414 . S
C1801 C1802 1.374 . S
C1802 H1776 0.950 . S
C1802 C1798 1.385 . S
C1802 C1801 1.374 . S
C1803 C1800 1.499 . S
C1803 C1804 1.373 . S
C1803 C1805 1.389 . S
C1804 H1777 0.950 . S
C1804 C1790 1.377 . S
C1804 C1803 1.373 . S
C1805 C1789 1.377 . S
C1805 C1803 1.389 . S
C1805 C1806 1.524 . S
C1806 C1805 1.524 . S
C1806 C1807 1.397 . S
C1806 C1811 1.363 . S
C1807 H1778 0.950 . S
C1807 C1806 1.397 . S
C1807 C1808 1.334 . S
C1808 H1779 0.950 1_556 S
C1808 C1807 1.334 . S
C1808 C1809 1.287 . S
C1809 C1808 1.287 . S
C1809 C1810 1.524 . S
C1809 H1812 0.999 1_556 S
C1810 H1780 0.950 . S
C1810 C1809 1.524 . S
C1810 C1811 1.415 . S
C1811 H1781 0.950 . S
C1811 C1806 1.363 . S
C1811 C1810 1.415 . S
H1812 C1809 0.999 1_554 S
H1813 C1794 0.913 . S
H1814 C1832 0.951 . S
H1815 C1834 0.951 . S
H1816 C1836 0.950 . S
H1817 C1837 0.950 . S
H1818 C1839 0.950 . S
H1819 C1842 0.950 . S
H1820 C1843 0.950 . S
H1821 C1845 0.950 . S
H1822 C1846 0.950 . S
H1823 C1847 0.951 . S
H1824 C1849 0.951 . S
H1825 C1851 0.950 . S
H1826 C1852 0.950 . S
H1827 C1854 0.950 . S
H1828 C1857 0.950 . S
H1829 C1858 0.950 . S
H1830 C1860 0.950 . S
H1831 C1861 0.950 . S
C1832 H1814 0.951 . S
C1832 C1833 1.366 . S
C1832 C1834 1.388 . S
C1833 C1832 1.366 . S
C1833 C1837 1.385 . S
C1834 H1815 0.951 . S
C1834 C1832 1.388 . S
C1834 C1835 1.366 . S
C1835 C1834 1.366 . S
C1835 C1836 1.414 . S
C1835 C1838 1.499 . S
C1836 H1816 0.950 . S
C1836 C1835 1.414 . S
C1836 C1837 1.374 . S
C1837 H1817 0.950 . S
C1837 C1833 1.385 . S
C1837 C1836 1.374 . S
C1838 C1835 1.499 . S
C1838 C1839 1.373 . S
C1838 C1840 1.389 . S
C1839 H1818 0.950 . S
C1839 C1838 1.373 . S
C1839 C1855 1.377 . S
C1840 C1838 1.389 . S
C1840 C1841 1.524 . S
C1840 C1854 1.377 . S
C1841 C1840 1.524 . S
C1841 C1842 1.397 . S
C1841 C1846 1.363 . S
C1842 H1819 0.950 . S
C1842 C1841 1.397 . S
C1842 C1843 1.334 . S
C1843 H1820 0.950 . S
C1843 C1842 1.334 . S
C1843 C1844 1.287 . S
C1844 C1843 1.287 . S
C1844 C1845 1.524 . S
C1844 H1863 0.913 . S
C1845 H1821 0.950 . S
C1845 C1844 1.524 . S
C1845 C1846 1.415 . S
C1846 H1822 0.950 . S
C1846 C1841 1.363 . S
C1846 C1845 1.415 . S
C1847 H1823 0.951 . S
C1847 C1848 1.366 . S
C1847 C1849 1.388 . S
C1848 C1847 1.366 . S
C1848 C1852 1.385 . S
C1849 H1824 0.951 . S
C1849 C1847 1.388 . S
C1849 C1850 1.366 . S
C1850 C1849 1.366 . S
C1850 C1851 1.414 . S
C1850 C1853 1.499 . S
C1851 H1825 0.950 . S
C1851 C1850 1.414 . S
C1851 C1852 1.374 . S
C1852 H1826 0.950 . S
C1852 C1848 1.385 . S
C1852 C1851 1.374 . S
C1853 C1850 1.499 . S
C1853 C1854 1.373 . S
C1853 C1855 1.389 . S
C1854 H1827 0.950 . S
C1854 C1840 1.377 . S
C1854 C1853 1.373 . S
C1855 C1839 1.377 . S
C1855 C1853 1.389 . S
C1855 C1856 1.524 . S
C1856 C1855 1.524 . S
C1856 C1857 1.397 . S
C1856 C1861 1.363 . S
C1857 H1828 0.950 . S
C1857 C1856 1.397 . S
C1857 C1858 1.334 . S
C1858 H1829 0.950 . S
C1858 C1857 1.334 . S
C1858 C1859 1.287 . S
C1859 C1858 1.287 . S
C1859 C1860 1.524 . S
C1859 H1862 0.999 . S
C1860 H1830 0.950 . S
C1860 C1859 1.524 . S
C1860 C1861 1.415 . S
C1861 H1831 0.950 . S
C1861 C1856 1.363 . S
C1861 C1860 1.415 . S
H1862 C1859 0.999 . S
H1863 C1844 0.913 . S
H1864 C1882 0.951 . S
H1865 C1884 0.951 . S
H1866 C1886 0.950 . S
H1867 C1887 0.950 . S
H1868 C1889 0.950 . S
H1869 C1892 0.950 . S
H1870 C1893 0.950 . S
H1871 C1895 0.950 . S
H1872 C1896 0.950 . S
H1873 C1897 0.951 . S
H1874 C1899 0.951 . S
H1875 C1901 0.950 . S
H1876 C1902 0.950 . S
H1877 C1904 0.950 . S
H1878 C1907 0.950 . S
H1879 C1908 0.950 . S
H1880 C1910 0.950 . S
H1881 C1911 0.950 . S
C1882 H1864 0.951 . S
C1882 C1883 1.366 . S
C1882 C1884 1.388 . S
C1883 C1882 1.366 . S
C1883 C1887 1.385 . S
C1884 H1865 0.951 . S
C1884 C1882 1.388 . S
C1884 C1885 1.366 . S
C1885 C1884 1.366 . S
C1885 C1886 1.414 . S
C1885 C1888 1.499 . S
C1886 H1866 0.950 . S
C1886 C1885 1.414 . S
C1886 C1887 1.374 . S
C1887 H1867 0.950 . S
C1887 C1883 1.385 . S
C1887 C1886 1.374 . S
C1888 C1885 1.499 . S
C1888 C1889 1.373 . S
C1888 C1890 1.389 . S
C1889 H1868 0.950 . S
C1889 C1888 1.373 . S
C1889 C1905 1.377 . S
C1890 C1888 1.389 . S
C1890 C1891 1.524 . S
C1890 C1904 1.377 . S
C1891 C1890 1.524 . S
C1891 C1892 1.397 . S
C1891 C1896 1.363 . S
C1892 H1869 0.950 . S
C1892 C1891 1.397 . S
C1892 C1893 1.334 . S
C1893 H1870 0.950 . S
C1893 C1892 1.334 . S
C1893 C1894 1.287 . S
C1894 C1893 1.287 . S
C1894 C1895 1.524 . S
C1894 H1913 0.913 . S
C1895 H1871 0.950 . S
C1895 C1894 1.524 . S
C1895 C1896 1.415 . S
C1896 H1872 0.950 . S
C1896 C1891 1.363 . S
C1896 C1895 1.415 . S
C1897 H1873 0.951 . S
C1897 C1898 1.366 . S
C1897 C1899 1.388 . S
C1898 C1897 1.366 . S
C1898 C1902 1.385 . S
C1899 H1874 0.951 . S
C1899 C1897 1.388 . S
C1899 C1900 1.366 . S
C1900 C1899 1.366 . S
C1900 C1901 1.414 . S
C1900 C1903 1.499 . S
C1901 H1875 0.950 . S
C1901 C1900 1.414 . S
C1901 C1902 1.374 . S
C1902 H1876 0.950 . S
C1902 C1898 1.385 . S
C1902 C1901 1.374 . S
C1903 C1900 1.499 . S
C1903 C1904 1.373 . S
C1903 C1905 1.389 . S
C1904 H1877 0.950 . S
C1904 C1890 1.377 . S
C1904 C1903 1.373 . S
C1905 C1889 1.377 . S
C1905 C1903 1.389 . S
C1905 C1906 1.524 . S
C1906 C1905 1.524 . S
C1906 C1907 1.397 . S
C1906 C1911 1.363 . S
C1907 H1878 0.950 . S
C1907 C1906 1.397 . S
C1907 C1908 1.334 . S
C1908 H1879 0.950 . S
C1908 C1907 1.334 . S
C1908 C1909 1.287 . S
C1909 C1908 1.287 . S
C1909 C1910 1.524 . S
C1909 H1912 0.999 . S
C1910 H1880 0.950 . S
C1910 C1909 1.524 . S
C1910 C1911 1.415 . S
C1911 H1881 0.950 . S
C1911 C1906 1.363 . S
C1911 C1910 1.415 . S
H1912 C1909 0.999 . S
H1913 C1894 0.913 . S
H1914 C1932 0.951 . S
H1915 C1934 0.951 . S
H1916 C1936 0.950 . S
H1917 C1937 0.950 . S
H1918 C1939 0.950 . S
H1919 C1942 0.950 . S
H1920 C1943 0.950 . S
H1921 C1945 0.950 . S
H1922 C1946 0.950 . S
H1923 C1947 0.951 . S
H1924 C1949 0.951 . S
H1925 C1951 0.950 . S
H1926 C1952 0.950 . S
H1927 C1954 0.950 . S
H1928 C1957 0.950 . S
H1929 C1958 0.950 . S
H1930 C1960 0.950 . S
H1931 C1961 0.950 . S
C1932 H1914 0.951 . S
C1932 C1933 1.366 . S
C1932 C1934 1.388 . S
C1933 C1932 1.366 . S
C1933 C1937 1.385 . S
C1934 H1915 0.951 . S
C1934 C1932 1.388 . S
C1934 C1935 1.366 . S
C1935 C1934 1.366 . S
C1935 C1936 1.414 . S
C1935 C1938 1.499 . S
C1936 H1916 0.950 . S
C1936 C1935 1.414 . S
C1936 C1937 1.374 . S
C1937 H1917 0.950 . S
C1937 C1933 1.385 . S
C1937 C1936 1.374 . S
C1938 C1935 1.499 . S
C1938 C1939 1.373 . S
C1938 C1940 1.389 . S
C1939 H1918 0.950 . S
C1939 C1938 1.373 . S
C1939 C1955 1.377 . S
C1940 C1938 1.389 . S
C1940 C1941 1.524 . S
C1940 C1954 1.377 . S
C1941 C1940 1.524 . S
C1941 C1942 1.397 . S
C1941 C1946 1.363 . S
C1942 H1919 0.950 . S
C1942 C1941 1.397 . S
C1942 C1943 1.334 . S
C1943 H1920 0.950 . S
C1943 C1942 1.334 . S
C1943 C1944 1.287 . S
C1944 C1943 1.287 . S
C1944 C1945 1.524 . S
C1944 H1963 0.913 . S
C1945 H1921 0.950 . S
C1945 C1944 1.524 . S
C1945 C1946 1.415 . S
C1946 H1922 0.950 . S
C1946 C1941 1.363 . S
C1946 C1945 1.415 . S
C1947 H1923 0.951 . S
C1947 C1948 1.366 . S
C1947 C1949 1.388 . S
C1948 C1947 1.366 . S
C1948 C1952 1.385 . S
C1949 H1924 0.951 . S
C1949 C1947 1.388 . S
C1949 C1950 1.366 . S
C1950 C1949 1.366 . S
C1950 C1951 1.414 . S
C1950 C1953 1.499 . S
C1951 H1925 0.950 . S
C1951 C1950 1.414 . S
C1951 C1952 1.374 . S
C1952 H1926 0.950 . S
C1952 C1948 1.385 . S
C1952 C1951 1.374 . S
C1953 C1950 1.499 . S
C1953 C1954 1.373 . S
C1953 C1955 1.389 . S
C1954 H1927 0.950 . S
C1954 C1940 1.377 . S
C1954 C1953 1.373 . S
C1955 C1939 1.377 . S
C1955 C1953 1.389 . S
C1955 C1956 1.524 . S
C1956 C1955 1.524 . S
C1956 C1957 1.397 . S
C1956 C1961 1.363 . S
C1957 H1928 0.950 . S
C1957 C1956 1.397 . S
C1957 C1958 1.334 . S
C1958 H1929 0.950 . S
C1958 C1957 1.334 . S
C1958 C1959 1.287 . S
C1959 C1958 1.287 . S
C1959 C1960 1.524 . S
C1959 H1962 0.999 . S
C1960 H1930 0.950 . S
C1960 C1959 1.524 . S
C1960 C1961 1.415 . S
C1961 H1931 0.950 . S
C1961 C1956 1.363 . S
C1961 C1960 1.415 . S
H1962 C1959 0.999 . S
H1963 C1944 0.913 . S
H1964 C1982 0.951 . S
H1965 C1984 0.951 . S
H1966 C1986 0.950 . S
H1967 C1987 0.950 . S
H1968 C1989 0.950 . S
H1969 C1992 0.950 . S
H1970 C1993 0.950 . S
H1971 C1995 0.950 . S
H1972 C1996 0.950 . S
H1973 C1997 0.951 . S
H1974 C1999 0.951 . S
H1975 C2001 0.950 . S
H1976 C2002 0.950 . S
H1977 C2004 0.950 . S
H1978 C2007 0.950 . S
H1979 C2008 0.950 . S
H1980 C2010 0.950 . S
H1981 C2011 0.950 . S
C1982 H1964 0.951 . S
C1982 C1983 1.366 . S
C1982 C1984 1.388 . S
C1983 C1982 1.366 . S
C1983 C1987 1.385 . S
C1984 H1965 0.951 . S
C1984 C1982 1.388 . S
C1984 C1985 1.366 . S
C1985 C1984 1.366 . S
C1985 C1986 1.414 . S
C1985 C1988 1.499 . S
C1986 H1966 0.950 . S
C1986 C1985 1.414 . S
C1986 C1987 1.374 . S
C1987 H1967 0.950 . S
C1987 C1983 1.385 . S
C1987 C1986 1.374 . S
C1988 C1985 1.499 . S
C1988 C1989 1.373 . S
C1988 C1990 1.389 . S
C1989 H1968 0.950 . S
C1989 C1988 1.373 . S
C1989 C2005 1.377 . S
C1990 C1988 1.389 . S
C1990 C1991 1.524 . S
C1990 C2004 1.377 . S
C1991 C1990 1.524 . S
C1991 C1992 1.397 . S
C1991 C1996 1.363 . S
C1992 H1969 0.950 . S
C1992 C1991 1.397 . S
C1992 C1993 1.334 . S
C1993 H1970 0.950 . S
C1993 C1992 1.334 . S
C1993 C1994 1.287 . S
C1994 C1993 1.287 . S
C1994 C1995 1.524 . S
C1994 H2013 0.913 . S
C1995 H1971 0.950 . S
C1995 C1994 1.524 . S
C1995 C1996 1.415 . S
C1996 H1972 0.950 . S
C1996 C1991 1.363 . S
C1996 C1995 1.415 . S
C1997 H1973 0.951 . S
C1997 C1998 1.366 . S
C1997 C1999 1.388 . S
C1998 C1997 1.366 . S
C1998 C2002 1.385 . S
C1999 H1974 0.951 . S
C1999 C1997 1.388 . S
C1999 C2000 1.366 . S
C2000 C1999 1.366 . S
C2000 C2001 1.414 . S
C2000 C2003 1.499 . S
C2001 H1975 0.950 . S
C2001 C2000 1.414 . S
C2001 C2002 1.374 . S
C2002 H1976 0.950 . S
C2002 C1998 1.385 . S
C2002 C2001 1.374 . S
C2003 C2000 1.499 . S
C2003 C2004 1.373 . S
C2003 C2005 1.389 . S
C2004 H1977 0.950 . S
C2004 C1990 1.377 . S
C2004 C2003 1.373 . S
C2005 C1989 1.377 . S
C2005 C2003 1.389 . S
C2005 C2006 1.524 . S
C2006 C2005 1.524 . S
C2006 C2007 1.397 . S
C2006 C2011 1.363 . S
C2007 H1978 0.950 . S
C2007 C2006 1.397 . S
C2007 C2008 1.334 . S
C2008 H1979 0.950 . S
C2008 C2007 1.334 . S
C2008 C2009 1.287 . S
C2009 C2008 1.287 . S
C2009 C2010 1.524 . S
C2009 H2012 0.999 . S
C2010 H1980 0.950 . S
C2010 C2009 1.524 . S
C2010 C2011 1.415 . S
C2011 H1981 0.950 . S
C2011 C2006 1.363 . S
C2011 C2010 1.415 . S
H2012 C2009 0.999 . S
H2013 C1994 0.913 . S
H2014 C2032 0.951 . S
H2015 C2034 0.951 . S
H2016 C2036 0.950 . S
H2017 C2037 0.950 . S
H2018 C2039 0.950 . S
H2019 C2042 0.950 . S
H2020 C2043 0.950 . S
H2021 C2045 0.950 . S
H2022 C2046 0.950 . S
H2023 C2047 0.951 . S
H2024 C2049 0.951 . S
H2025 C2051 0.950 . S
H2026 C2052 0.950 . S
H2027 C2054 0.950 . S
H2028 C2057 0.950 . S
H2029 C2058 0.950 . S
H2030 C2060 0.950 . S
H2031 C2061 0.950 . S
C2032 H2014 0.951 . S
C2032 C2033 1.366 . S
C2032 C2034 1.388 . S
C2033 C2032 1.366 . S
C2033 C2037 1.385 . S
C2034 H2015 0.951 . S
C2034 C2032 1.388 . S
C2034 C2035 1.366 . S
C2035 C2034 1.366 . S
C2035 C2036 1.414 . S
C2035 C2038 1.499 . S
C2036 H2016 0.950 . S
C2036 C2035 1.414 . S
C2036 C2037 1.374 . S
C2037 H2017 0.950 . S
C2037 C2033 1.385 . S
C2037 C2036 1.374 . S
C2038 C2035 1.499 . S
C2038 C2039 1.373 . S
C2038 C2040 1.389 . S
C2039 H2018 0.950 . S
C2039 C2038 1.373 . S
C2039 C2055 1.377 . S
C2040 C2038 1.389 . S
C2040 C2041 1.524 . S
C2040 C2054 1.377 . S
C2041 C2040 1.524 . S
C2041 C2042 1.397 . S
C2041 C2046 1.363 . S
C2042 H2019 0.950 . S
C2042 C2041 1.397 . S
C2042 C2043 1.334 . S
C2043 H2020 0.950 . S
C2043 C2042 1.334 . S
C2043 C2044 1.287 . S
C2044 C2043 1.287 . S
C2044 C2045 1.524 . S
C2044 H2063 0.913 . S
C2045 H2021 0.950 . S
C2045 C2044 1.524 . S
C2045 C2046 1.415 . S
C2046 H2022 0.950 . S
C2046 C2041 1.363 . S
C2046 C2045 1.415 . S
C2047 H2023 0.951 . S
C2047 C2048 1.366 . S
C2047 C2049 1.388 . S
C2048 C2047 1.366 . S
C2048 C2052 1.385 . S
C2049 H2024 0.951 . S
C2049 C2047 1.388 . S
C2049 C2050 1.366 . S
C2050 C2049 1.366 . S
C2050 C2051 1.414 . S
C2050 C2053 1.499 . S
C2051 H2025 0.950 . S
C2051 C2050 1.414 . S
C2051 C2052 1.374 . S
C2052 H2026 0.950 . S
C2052 C2048 1.385 . S
C2052 C2051 1.374 . S
C2053 C2050 1.499 . S
C2053 C2054 1.373 . S
C2053 C2055 1.389 . S
C2054 H2027 0.950 . S
C2054 C2040 1.377 . S
C2054 C2053 1.373 . S
C2055 C2039 1.377 . S
C2055 C2053 1.389 . S
C2055 C2056 1.524 . S
C2056 C2055 1.524 . S
C2056 C2057 1.397 . S
C2056 C2061 1.363 . S
C2057 H2028 0.950 . S
C2057 C2056 1.397 . S
C2057 C2058 1.334 . S
C2058 H2029 0.950 . S
C2058 C2057 1.334 . S
C2058 C2059 1.287 . S
C2059 C2058 1.287 . S
C2059 C2060 1.524 . S
C2059 H2062 0.999 . S
C2060 H2030 0.950 . S
C2060 C2059 1.524 . S
C2060 C2061 1.415 . S
C2061 H2031 0.950 . S
C2061 C2056 1.363 . S
C2061 C2060 1.415 . S
H2062 C2059 0.999 . S
H2063 C2044 0.913 . S
H2064 C2082 0.951 . S
H2065 C2084 0.951 . S
H2066 C2086 0.950 . S
H2067 C2087 0.950 . S
H2068 C2089 0.950 . S
H2069 C2092 0.950 . S
H2070 C2093 0.950 . S
H2071 C2095 0.950 . S
H2072 C2096 0.950 . S
H2073 C2097 0.951 . S
H2074 C2099 0.951 . S
H2075 C2101 0.950 . S
H2076 C2102 0.950 . S
H2077 C2104 0.950 . S
H2078 C2107 0.950 . S
H2079 C2108 0.950 . S
H2080 C2110 0.950 . S
H2081 C2111 0.950 . S
C2082 H2064 0.951 . S
C2082 C2083 1.366 . S
C2082 C2084 1.388 . S
C2083 C2082 1.366 . S
C2083 C2087 1.385 . S
C2084 H2065 0.951 . S
C2084 C2082 1.388 . S
C2084 C2085 1.366 . S
C2085 C2084 1.366 . S
C2085 C2086 1.414 . S
C2085 C2088 1.499 . S
C2086 H2066 0.950 . S
C2086 C2085 1.414 . S
C2086 C2087 1.374 . S
C2087 H2067 0.950 . S
C2087 C2083 1.385 . S
C2087 C2086 1.374 . S
C2088 C2085 1.499 . S
C2088 C2089 1.373 . S
C2088 C2090 1.389 . S
C2089 H2068 0.950 . S
C2089 C2088 1.373 . S
C2089 C2105 1.377 . S
C2090 C2088 1.389 . S
C2090 C2091 1.524 . S
C2090 C2104 1.377 . S
C2091 C2090 1.524 . S
C2091 C2092 1.397 . S
C2091 C2096 1.363 . S
C2092 H2069 0.950 . S
C2092 C2091 1.397 . S
C2092 C2093 1.334 . S
C2093 H2070 0.950 . S
C2093 C2092 1.334 . S
C2093 C2094 1.287 . S
C2094 C2093 1.287 . S
C2094 C2095 1.524 . S
C2094 H2113 0.913 . S
C2095 H2071 0.950 . S
C2095 C2094 1.524 . S
C2095 C2096 1.415 . S
C2096 H2072 0.950 . S
C2096 C2091 1.363 . S
C2096 C2095 1.415 . S
C2097 H2073 0.951 . S
C2097 C2098 1.366 . S
C2097 C2099 1.388 . S
C2098 C2097 1.366 . S
C2098 C2102 1.385 . S
C2099 H2074 0.951 . S
C2099 C2097 1.388 . S
C2099 C2100 1.366 . S
C2100 C2099 1.366 . S
C2100 C2101 1.414 . S
C2100 C2103 1.499 . S
C2101 H2075 0.950 . S
C2101 C2100 1.414 . S
C2101 C2102 1.374 . S
C2102 H2076 0.950 . S
C2102 C2098 1.385 . S
C2102 C2101 1.374 . S
C2103 C2100 1.499 . S
C2103 C2104 1.373 . S
C2103 C2105 1.389 . S
C2104 H2077 0.950 . S
C2104 C2090 1.377 . S
C2104 C2103 1.373 . S
C2105 C2089 1.377 . S
C2105 C2103 1.389 . S
C2105 C2106 1.524 . S
C2106 C2105 1.524 . S
C2106 C2107 1.397 . S
C2106 C2111 1.363 . S
C2107 H2078 0.950 . S
C2107 C2106 1.397 . S
C2107 C2108 1.334 . S
C2108 H2079 0.950 . S
C2108 C2107 1.334 . S
C2108 C2109 1.287 . S
C2109 C2108 1.287 . S
C2109 C2110 1.524 . S
C2109 H2112 0.999 . S
C2110 H2080 0.950 . S
C2110 C2109 1.524 . S
C2110 C2111 1.415 . S
C2111 H2081 0.950 . S
C2111 C2106 1.363 . S
C2111 C2110 1.415 . S
H2112 C2109 0.999 . S
H2113 C2094 0.913 . S
H2114 C2132 0.951 . S
H2115 C2134 0.951 . S
H2116 C2136 0.950 . S
H2117 C2137 0.950 . S
H2118 C2139 0.950 . S
H2119 C2142 0.950 . S
H2120 C2143 0.950 . S
H2121 C2145 0.950 . S
H2122 C2146 0.950 . S
H2123 C2147 0.951 . S
H2124 C2149 0.951 . S
H2125 C2151 0.950 . S
H2126 C2152 0.950 . S
H2127 C2154 0.950 . S
H2128 C2157 0.950 . S
H2129 C2158 0.950 . S
H2130 C2160 0.950 . S
H2131 C2161 0.950 . S
C2132 H2114 0.951 . S
C2132 C2133 1.366 . S
C2132 C2134 1.388 . S
C2133 C2132 1.366 . S
C2133 C2137 1.385 . S
C2134 H2115 0.951 . S
C2134 C2132 1.388 . S
C2134 C2135 1.366 . S
C2135 C2134 1.366 . S
C2135 C2136 1.414 . S
C2135 C2138 1.499 . S
C2136 H2116 0.950 . S
C2136 C2135 1.414 . S
C2136 C2137 1.374 . S
C2137 H2117 0.950 . S
C2137 C2133 1.385 . S
C2137 C2136 1.374 . S
C2138 C2135 1.499 . S
C2138 C2139 1.373 . S
C2138 C2140 1.389 . S
C2139 H2118 0.950 . S
C2139 C2138 1.373 . S
C2139 C2155 1.377 . S
C2140 C2138 1.389 . S
C2140 C2141 1.524 . S
C2140 C2154 1.377 . S
C2141 C2140 1.524 . S
C2141 C2142 1.397 . S
C2141 C2146 1.363 . S
C2142 H2119 0.950 . S
C2142 C2141 1.397 . S
C2142 C2143 1.334 . S
C2143 H2120 0.950 . S
C2143 C2142 1.334 . S
C2143 C2144 1.287 . S
C2144 C2143 1.287 . S
C2144 C2145 1.524 . S
C2144 H2163 0.913 . S
C2145 H2121 0.950 . S
C2145 C2144 1.524 . S
C2145 C2146 1.415 . S
C2146 H2122 0.950 . S
C2146 C2141 1.363 . S
C2146 C2145 1.415 . S
C2147 H2123 0.951 . S
C2147 C2148 1.366 . S
C2147 C2149 1.388 . S
C2148 C2147 1.366 . S
C2148 C2152 1.385 . S
C2149 H2124 0.951 . S
C2149 C2147 1.388 . S
C2149 C2150 1.366 . S
C2150 C2149 1.366 . S
C2150 C2151 1.414 . S
C2150 C2153 1.499 . S
C2151 H2125 0.950 . S
C2151 C2150 1.414 . S
C2151 C2152 1.374 . S
C2152 H2126 0.950 . S
C2152 C2148 1.385 . S
C2152 C2151 1.374 . S
C2153 C2150 1.499 . S
C2153 C2154 1.373 . S
C2153 C2155 1.389 . S
C2154 H2127 0.950 . S
C2154 C2140 1.377 . S
C2154 C2153 1.373 . S
C2155 C2139 1.377 . S
C2155 C2153 1.389 . S
C2155 C2156 1.524 . S
C2156 C2155 1.524 . S
C2156 C2157 1.397 . S
C2156 C2161 1.363 . S
C2157 H2128 0.950 . S
C2157 C2156 1.397 . S
C2157 C2158 1.334 . S
C2158 H2129 0.950 . S
C2158 C2157 1.334 . S
C2158 C2159 1.287 . S
C2159 C2158 1.287 . S
C2159 C2160 1.524 . S
C2159 H2162 0.999 . S
C2160 H2130 0.950 . S
C2160 C2159 1.524 . S
C2160 C2161 1.415 . S
C2161 H2131 0.950 . S
C2161 C2156 1.363 . S
C2161 C2160 1.415 . S
H2162 C2159 0.999 . S
H2163 C2144 0.913 . S
H2164 C2182 0.951 . S
H2165 C2184 0.951 . S
H2166 C2186 0.950 . S
H2167 C2187 0.950 . S
H2168 C2189 0.950 . S
H2169 C2192 0.950 . S
H2170 C2193 0.950 . S
H2171 C2195 0.950 . S
H2172 C2196 0.950 . S
H2173 C2197 0.951 . S
H2174 C2199 0.951 . S
H2175 C2201 0.950 . S
H2176 C2202 0.950 . S
H2177 C2204 0.950 . S
H2178 C2207 0.950 . S
H2179 C2208 0.950 . S
H2180 C2210 0.950 . S
H2181 C2211 0.950 . S
C2182 H2164 0.951 . S
C2182 C2183 1.366 . S
C2182 C2184 1.388 . S
C2183 C2182 1.366 . S
C2183 C2187 1.385 . S
C2184 H2165 0.951 . S
C2184 C2182 1.388 . S
C2184 C2185 1.366 . S
C2185 C2184 1.366 . S
C2185 C2186 1.414 . S
C2185 C2188 1.499 . S
C2186 H2166 0.950 . S
C2186 C2185 1.414 . S
C2186 C2187 1.374 . S
C2187 H2167 0.950 . S
C2187 C2183 1.385 . S
C2187 C2186 1.374 . S
C2188 C2185 1.499 . S
C2188 C2189 1.373 . S
C2188 C2190 1.389 . S
C2189 H2168 0.950 . S
C2189 C2188 1.373 . S
C2189 C2205 1.377 . S
C2190 C2188 1.389 . S
C2190 C2191 1.524 . S
C2190 C2204 1.377 . S
C2191 C2190 1.524 . S
C2191 C2192 1.397 . S
C2191 C2196 1.363 . S
C2192 H2169 0.950 . S
C2192 C2191 1.397 . S
C2192 C2193 1.334 . S
C2193 H2170 0.950 . S
C2193 C2192 1.334 . S
C2193 C2194 1.287 . S
C2194 C2193 1.287 . S
C2194 C2195 1.524 . S
C2194 H2213 0.913 . S
C2195 H2171 0.950 . S
C2195 C2194 1.524 . S
C2195 C2196 1.415 . S
C2196 H2172 0.950 . S
C2196 C2191 1.363 . S
C2196 C2195 1.415 . S
C2197 H2173 0.951 . S
C2197 C2198 1.366 . S
C2197 C2199 1.388 . S
C2198 C2197 1.366 . S
C2198 C2202 1.385 . S
C2199 H2174 0.951 . S
C2199 C2197 1.388 . S
C2199 C2200 1.366 . S
C2200 C2199 1.366 . S
C2200 C2201 1.414 . S
C2200 C2203 1.499 . S
C2201 H2175 0.950 . S
C2201 C2200 1.414 . S
C2201 C2202 1.374 . S
C2202 H2176 0.950 . S
C2202 C2198 1.385 . S
C2202 C2201 1.374 . S
C2203 C2200 1.499 . S
C2203 C2204 1.373 . S
C2203 C2205 1.389 . S
C2204 H2177 0.950 . S
C2204 C2190 1.377 . S
C2204 C2203 1.373 . S
C2205 C2189 1.377 . S
C2205 C2203 1.389 . S
C2205 C2206 1.524 . S
C2206 C2205 1.524 . S
C2206 C2207 1.397 . S
C2206 C2211 1.363 . S
C2207 H2178 0.950 . S
C2207 C2206 1.397 . S
C2207 C2208 1.334 . S
C2208 H2179 0.950 . S
C2208 C2207 1.334 . S
C2208 C2209 1.287 . S
C2209 C2208 1.287 . S
C2209 C2210 1.524 . S
C2209 H2212 0.999 . S
C2210 H2180 0.950 . S
C2210 C2209 1.524 . S
C2210 C2211 1.415 . S
C2211 H2181 0.950 . S
C2211 C2206 1.363 . S
C2211 C2210 1.415 . S
H2212 C2209 0.999 . S
H2213 C2194 0.913 . S
H2214 C2232 0.951 . S
H2215 C2234 0.951 . S
H2216 C2236 0.950 . S
H2217 C2237 0.950 . S
H2218 C2239 0.950 . S
H2219 C2242 0.950 . S
H2220 C2243 0.950 . S
H2221 C2245 0.950 . S
H2222 C2246 0.950 . S
H2223 C2247 0.951 . S
H2224 C2249 0.951 . S
H2225 C2251 0.950 . S
H2226 C2252 0.950 . S
H2227 C2254 0.950 . S
H2228 C2257 0.950 . S
H2229 C2258 0.950 . S
H2230 C2260 0.950 . S
H2231 C2261 0.950 . S
C2232 H2214 0.951 . S
C2232 C2233 1.366 . S
C2232 C2234 1.388 . S
C2233 C2232 1.366 . S
C2233 C2237 1.385 . S
C2234 H2215 0.951 . S
C2234 C2232 1.388 . S
C2234 C2235 1.366 . S
C2235 C2234 1.366 . S
C2235 C2236 1.414 . S
C2235 C2238 1.499 . S
C2236 H2216 0.950 . S
C2236 C2235 1.414 . S
C2236 C2237 1.374 . S
C2237 H2217 0.950 . S
C2237 C2233 1.385 . S
C2237 C2236 1.374 . S
C2238 C2235 1.499 . S
C2238 C2239 1.373 . S
C2238 C2240 1.389 . S
C2239 H2218 0.950 . S
C2239 C2238 1.373 . S
C2239 C2255 1.377 . S
C2240 C2238 1.389 . S
C2240 C2241 1.524 . S
C2240 C2254 1.377 . S
C2241 C2240 1.524 . S
C2241 C2242 1.397 . S
C2241 C2246 1.363 . S
C2242 H2219 0.950 . S
C2242 C2241 1.397 . S
C2242 C2243 1.334 . S
C2243 H2220 0.950 . S
C2243 C2242 1.334 . S
C2243 C2244 1.287 . S
C2244 C2243 1.287 . S
C2244 C2245 1.524 . S
C2244 H2263 0.913 . S
C2245 H2221 0.950 . S
C2245 C2244 1.524 . S
C2245 C2246 1.415 . S
C2246 H2222 0.950 . S
C2246 C2241 1.363 . S
C2246 C2245 1.415 . S
C2247 H2223 0.951 . S
C2247 C2248 1.366 . S
C2247 C2249 1.388 . S
C2248 C2247 1.366 . S
C2248 C2252 1.385 . S
C2249 H2224 0.951 . S
C2249 C2247 1.388 . S
C2249 C2250 1.366 . S
C2250 C2249 1.366 . S
C2250 C2251 1.414 . S
C2250 C2253 1.499 . S
C2251 H2225 0.950 . S
C2251 C2250 1.414 . S
C2251 C2252 1.374 . S
C2252 H2226 0.950 . S
C2252 C2248 1.385 . S
C2252 C2251 1.374 . S
C2253 C2250 1.499 . S
C2253 C2254 1.373 . S
C2253 C2255 1.389 . S
C2254 H2227 0.950 . S
C2254 C2240 1.377 . S
C2254 C2253 1.373 . S
C2255 C2239 1.377 . S
C2255 C2253 1.389 . S
C2255 C2256 1.524 . S
C2256 C2255 1.524 . S
C2256 C2257 1.397 . S
C2256 C2261 1.363 . S
C2257 H2228 0.950 . S
C2257 C2256 1.397 . S
C2257 C2258 1.334 . S
C2258 H2229 0.950 . S
C2258 C2257 1.334 . S
C2258 C2259 1.287 . S
C2259 C2258 1.287 . S
C2259 C2260 1.524 . S
C2259 H2262 0.999 . S
C2260 H2230 0.950 . S
C2260 C2259 1.524 . S
C2260 C2261 1.415 . S
C2261 H2231 0.950 . S
C2261 C2256 1.363 . S
C2261 C2260 1.415 . S
H2262 C2259 0.999 . S
H2263 C2244 0.913 . S
H2264 C2282 0.951 . S
H2265 C2284 0.951 . S
H2266 C2286 0.950 . S
H2267 C2287 0.950 . S
H2268 C2289 0.950 . S
H2269 C2292 0.950 . S
H2270 C2293 0.950 . S
H2271 C2295 0.950 . S
H2272 C2296 0.950 . S
H2273 C2297 0.951 . S
H2274 C2299 0.951 . S
H2275 C2301 0.950 . S
H2276 C2302 0.950 . S
H2277 C2304 0.950 . S
H2278 C2307 0.950 . S
H2279 C2308 0.950 1_556 S
H2280 C2310 0.950 . S
H2281 C2311 0.950 . S
C2282 H2264 0.951 . S
C2282 C2283 1.366 . S
C2282 C2284 1.388 . S
C2283 C2282 1.366 . S
C2283 C2287 1.385 . S
C2284 H2265 0.951 . S
C2284 C2282 1.388 . S
C2284 C2285 1.366 . S
C2285 C2284 1.366 . S
C2285 C2286 1.414 . S
C2285 C2288 1.499 . S
C2286 H2266 0.950 . S
C2286 C2285 1.414 . S
C2286 C2287 1.374 . S
C2287 H2267 0.950 . S
C2287 C2283 1.385 . S
C2287 C2286 1.374 . S
C2288 C2285 1.499 . S
C2288 C2289 1.373 . S
C2288 C2290 1.389 . S
C2289 H2268 0.950 . S
C2289 C2288 1.373 . S
C2289 C2305 1.377 . S
C2290 C2288 1.389 . S
C2290 C2291 1.524 . S
C2290 C2304 1.377 . S
C2291 C2290 1.524 . S
C2291 C2292 1.397 . S
C2291 C2296 1.363 . S
C2292 H2269 0.950 . S
C2292 C2291 1.397 . S
C2292 C2293 1.334 . S
C2293 H2270 0.950 . S
C2293 C2292 1.334 . S
C2293 C2294 1.287 . S
C2294 C2293 1.287 . S
C2294 C2295 1.524 . S
C2294 H2313 0.913 . S
C2295 H2271 0.950 . S
C2295 C2294 1.524 . S
C2295 C2296 1.415 . S
C2296 H2272 0.950 . S
C2296 C2291 1.363 . S
C2296 C2295 1.415 . S
C2297 H2273 0.951 . S
C2297 C2298 1.366 . S
C2297 C2299 1.388 . S
C2298 C2297 1.366 . S
C2298 C2302 1.385 . S
C2299 H2274 0.951 . S
C2299 C2297 1.388 . S
C2299 C2300 1.366 . S
C2300 C2299 1.366 . S
C2300 C2301 1.414 . S
C2300 C2303 1.499 . S
C2301 H2275 0.950 . S
C2301 C2300 1.414 . S
C2301 C2302 1.374 . S
C2302 H2276 0.950 . S
C2302 C2298 1.385 . S
C2302 C2301 1.374 . S
C2303 C2300 1.499 . S
C2303 C2304 1.373 . S
C2303 C2305 1.389 . S
C2304 H2277 0.950 . S
C2304 C2290 1.377 . S
C2304 C2303 1.373 . S
C2305 C2289 1.377 . S
C2305 C2303 1.389 . S
C2305 C2306 1.524 . S
C2306 C2305 1.524 . S
C2306 C2307 1.397 . S
C2306 C2311 1.363 . S
C2307 H2278 0.950 . S
C2307 C2306 1.397 . S
C2307 C2308 1.334 . S
C2308 H2279 0.950 1_554 S
C2308 C2307 1.334 . S
C2308 C2309 1.287 . S
C2309 C2308 1.287 . S
C2309 C2310 1.524 . S
C2309 H2312 0.999 1_554 S
C2310 H2280 0.950 . S
C2310 C2309 1.524 . S
C2310 C2311 1.415 . S
C2311 H2281 0.950 . S
C2311 C2306 1.363 . S
C2311 C2310 1.415 . S
H2312 C2309 0.999 1_556 S
H2313 C2294 0.913 . S
H2314 C2332 0.951 . S
H2315 C2334 0.951 . S
H2316 C2336 0.950 . S
H2317 C2337 0.950 . S
H2318 C2339 0.950 . S
H2319 C2342 0.950 . S
H2320 C2343 0.950 . S
H2321 C2345 0.950 . S
H2322 C2346 0.950 . S
H2323 C2347 0.951 . S
H2324 C2349 0.951 . S
H2325 C2351 0.950 . S
H2326 C2352 0.950 . S
H2327 C2354 0.950 . S
H2328 C2357 0.950 . S
H2329 C2358 0.950 . S
H2330 C2360 0.950 . S
H2331 C2361 0.950 . S
C2332 H2314 0.951 . S
C2332 C2333 1.366 . S
C2332 C2334 1.388 . S
C2333 C2332 1.366 . S
C2333 C2337 1.385 . S
C2334 H2315 0.951 . S
C2334 C2332 1.388 . S
C2334 C2335 1.366 . S
C2335 C2334 1.366 . S
C2335 C2336 1.414 . S
C2335 C2338 1.499 . S
C2336 H2316 0.950 . S
C2336 C2335 1.414 . S
C2336 C2337 1.374 . S
C2337 H2317 0.950 . S
C2337 C2333 1.385 . S
C2337 C2336 1.374 . S
C2338 C2335 1.499 . S
C2338 C2339 1.373 . S
C2338 C2340 1.389 . S
C2339 H2318 0.950 . S
C2339 C2338 1.373 . S
C2339 C2355 1.377 . S
C2340 C2338 1.389 . S
C2340 C2341 1.524 . S
C2340 C2354 1.377 . S
C2341 C2340 1.524 . S
C2341 C2342 1.397 . S
C2341 C2346 1.363 . S
C2342 H2319 0.950 . S
C2342 C2341 1.397 . S
C2342 C2343 1.334 . S
C2343 H2320 0.950 . S
C2343 C2342 1.334 . S
C2343 C2344 1.287 . S
C2344 C2343 1.287 . S
C2344 C2345 1.524 . S
C2344 H2363 0.913 . S
C2345 H2321 0.950 . S
C2345 C2344 1.524 . S
C2345 C2346 1.415 . S
C2346 H2322 0.950 . S
C2346 C2341 1.363 . S
C2346 C2345 1.415 . S
C2347 H2323 0.951 . S
C2347 C2348 1.366 . S
C2347 C2349 1.388 . S
C2348 C2347 1.366 . S
C2348 C2352 1.385 . S
C2349 H2324 0.951 . S
C2349 C2347 1.388 . S
C2349 C2350 1.366 . S
C2350 C2349 1.366 . S
C2350 C2351 1.414 . S
C2350 C2353 1.499 . S
C2351 H2325 0.950 . S
C2351 C2350 1.414 . S
C2351 C2352 1.374 . S
C2352 H2326 0.950 . S
C2352 C2348 1.385 . S
C2352 C2351 1.374 . S
C2353 C2350 1.499 . S
C2353 C2354 1.373 . S
C2353 C2355 1.389 . S
C2354 H2327 0.950 . S
C2354 C2340 1.377 . S
C2354 C2353 1.373 . S
C2355 C2339 1.377 . S
C2355 C2353 1.389 . S
C2355 C2356 1.524 . S
C2356 C2355 1.524 . S
C2356 C2357 1.397 . S
C2356 C2361 1.363 . S
C2357 H2328 0.950 . S
C2357 C2356 1.397 . S
C2357 C2358 1.334 . S
C2358 H2329 0.950 . S
C2358 C2357 1.334 . S
C2358 C2359 1.287 . S
C2359 C2358 1.287 . S
C2359 C2360 1.524 . S
C2359 H2362 0.999 . S
C2360 H2330 0.950 . S
C2360 C2359 1.524 . S
C2360 C2361 1.415 . S
C2361 H2331 0.950 . S
C2361 C2356 1.363 . S
C2361 C2360 1.415 . S
H2362 C2359 0.999 . S
H2363 C2344 0.913 . S
H2364 C2382 0.951 . S
H2365 C2384 0.951 . S
H2366 C2386 0.950 . S
H2367 C2387 0.950 . S
H2368 C2389 0.950 . S
H2369 C2392 0.950 . S
H2370 C2393 0.950 . S
H2371 C2395 0.950 . S
H2372 C2396 0.950 . S
H2373 C2397 0.951 . S
H2374 C2399 0.951 . S
H2375 C2401 0.950 . S
H2376 C2402 0.950 . S
H2377 C2404 0.950 . S
H2378 C2407 0.950 . S
H2379 C2408 0.950 . S
H2380 C2410 0.950 . S
H2381 C2411 0.950 . S
C2382 H2364 0.951 . S
C2382 C2383 1.366 . S
C2382 C2384 1.388 . S
C2383 C2382 1.366 . S
C2383 C2387 1.385 . S
C2384 H2365 0.951 . S
C2384 C2382 1.388 . S
C2384 C2385 1.366 . S
C2385 C2384 1.366 . S
C2385 C2386 1.414 . S
C2385 C2388 1.499 . S
C2386 H2366 0.950 . S
C2386 C2385 1.414 . S
C2386 C2387 1.374 . S
C2387 H2367 0.950 . S
C2387 C2383 1.385 . S
C2387 C2386 1.374 . S
C2388 C2385 1.499 . S
C2388 C2389 1.373 . S
C2388 C2390 1.389 . S
C2389 H2368 0.950 . S
C2389 C2388 1.373 . S
C2389 C2405 1.377 . S
C2390 C2388 1.389 . S
C2390 C2391 1.524 . S
C2390 C2404 1.377 . S
C2391 C2390 1.524 . S
C2391 C2392 1.397 . S
C2391 C2396 1.363 . S
C2392 H2369 0.950 . S
C2392 C2391 1.397 . S
C2392 C2393 1.334 . S
C2393 H2370 0.950 . S
C2393 C2392 1.334 . S
C2393 C2394 1.287 . S
C2394 C2393 1.287 . S
C2394 C2395 1.524 . S
C2394 H2413 0.913 . S
C2395 H2371 0.950 . S
C2395 C2394 1.524 . S
C2395 C2396 1.415 . S
C2396 H2372 0.950 . S
C2396 C2391 1.363 . S
C2396 C2395 1.415 . S
C2397 H2373 0.951 . S
C2397 C2398 1.366 . S
C2397 C2399 1.388 . S
C2398 C2397 1.366 . S
C2398 C2402 1.385 . S
C2399 H2374 0.951 . S
C2399 C2397 1.388 . S
C2399 C2400 1.366 . S
C2400 C2399 1.366 . S
C2400 C2401 1.414 . S
C2400 C2403 1.499 . S
C2401 H2375 0.950 . S
C2401 C2400 1.414 . S
C2401 C2402 1.374 . S
C2402 H2376 0.950 . S
C2402 C2398 1.385 . S
C2402 C2401 1.374 . S
C2403 C2400 1.499 . S
C2403 C2404 1.373 . S
C2403 C2405 1.389 . S
C2404 H2377 0.950 . S
C2404 C2390 1.377 . S
C2404 C2403 1.373 . S
C2405 C2389 1.377 . S
C2405 C2403 1.389 . S
C2405 C2406 1.524 . S
C2406 C2405 1.524 . S
C2406 C2407 1.397 . S
C2406 C2411 1.363 . S
C2407 H2378 0.950 . S
C2407 C2406 1.397 . S
C2407 C2408 1.334 . S
C2408 H2379 0.950 . S
C2408 C2407 1.334 . S
C2408 C2409 1.287 . S
C2409 C2408 1.287 . S
C2409 C2410 1.524 . S
C2409 H2412 0.999 . S
C2410 H2380 0.950 . S
C2410 C2409 1.524 . S
C2410 C2411 1.415 . S
C2411 H2381 0.950 . S
C2411 C2406 1.363 . S
C2411 C2410 1.415 . S
H2412 C2409 0.999 . S
H2413 C2394 0.913 . S
H2414 C2432 0.951 . S
H2415 C2434 0.951 . S
H2416 C2436 0.950 . S
H2417 C2437 0.950 . S
H2418 C2439 0.950 . S
H2419 C2442 0.950 . S
H2420 C2443 0.950 . S
H2421 C2445 0.950 . S
H2422 C2446 0.950 . S
H2423 C2447 0.951 . S
H2424 C2449 0.951 . S
H2425 C2451 0.950 . S
H2426 C2452 0.950 . S
H2427 C2454 0.950 . S
H2428 C2457 0.950 . S
H2429 C2458 0.950 . S
H2430 C2460 0.950 . S
H2431 C2461 0.950 . S
C2432 H2414 0.951 . S
C2432 C2433 1.366 . S
C2432 C2434 1.388 . S
C2433 C2432 1.366 . S
C2433 C2437 1.385 . S
C2434 H2415 0.951 . S
C2434 C2432 1.388 . S
C2434 C2435 1.366 . S
C2435 C2434 1.366 . S
C2435 C2436 1.414 . S
C2435 C2438 1.499 . S
C2436 H2416 0.950 . S
C2436 C2435 1.414 . S
C2436 C2437 1.374 . S
C2437 H2417 0.950 . S
C2437 C2433 1.385 . S
C2437 C2436 1.374 . S
C2438 C2435 1.499 . S
C2438 C2439 1.373 . S
C2438 C2440 1.389 . S
C2439 H2418 0.950 . S
C2439 C2438 1.373 . S
C2439 C2455 1.377 . S
C2440 C2438 1.389 . S
C2440 C2441 1.524 . S
C2440 C2454 1.377 . S
C2441 C2440 1.524 . S
C2441 C2442 1.397 . S
C2441 C2446 1.363 . S
C2442 H2419 0.950 . S
C2442 C2441 1.397 . S
C2442 C2443 1.334 . S
C2443 H2420 0.950 . S
C2443 C2442 1.334 . S
C2443 C2444 1.287 . S
C2444 C2443 1.287 . S
C2444 C2445 1.524 . S
C2444 H2463 0.913 . S
C2445 H2421 0.950 . S
C2445 C2444 1.524 . S
C2445 C2446 1.415 . S
C2446 H2422 0.950 . S
C2446 C2441 1.363 . S
C2446 C2445 1.415 . S
C2447 H2423 0.951 . S
C2447 C2448 1.366 . S
C2447 C2449 1.388 . S
C2448 C2447 1.366 . S
C2448 C2452 1.385 . S
C2449 H2424 0.951 . S
C2449 C2447 1.388 . S
C2449 C2450 1.366 . S
C2450 C2449 1.366 . S
C2450 C2451 1.414 . S
C2450 C2453 1.499 . S
C2451 H2425 0.950 . S
C2451 C2450 1.414 . S
C2451 C2452 1.374 . S
C2452 H2426 0.950 . S
C2452 C2448 1.385 . S
C2452 C2451 1.374 . S
C2453 C2450 1.499 . S
C2453 C2454 1.373 . S
C2453 C2455 1.389 . S
C2454 H2427 0.950 . S
C2454 C2440 1.377 . S
C2454 C2453 1.373 . S
C2455 C2439 1.377 . S
C2455 C2453 1.389 . S
C2455 C2456 1.524 . S
C2456 C2455 1.524 . S
C2456 C2457 1.397 . S
C2456 C2461 1.363 . S
C2457 H2428 0.950 . S
C2457 C2456 1.397 . S
C2457 C2458 1.334 . S
C2458 H2429 0.950 . S
C2458 C2457 1.334 . S
C2458 C2459 1.287 . S
C2459 C2458 1.287 . S
C2459 C2460 1.524 . S
C2459 H2462 0.999 . S
C2460 H2430 0.950 . S
C2460 C2459 1.524 . S
C2460 C2461 1.415 . S
C2461 H2431 0.950 . S
C2461 C2456 1.363 . S
C2461 C2460 1.415 . S
H2462 C2459 0.999 . S
H2463 C2444 0.913 . S
H2464 C2482 0.951 . S
H2465 C2484 0.951 . S
H2466 C2486 0.950 . S
H2467 C2487 0.950 . S
H2468 C2489 0.950 . S
H2469 C2492 0.950 . S
H2470 C2493 0.950 . S
H2471 C2495 0.950 . S
H2472 C2496 0.950 . S
H2473 C2497 0.951 . S
H2474 C2499 0.951 . S
H2475 C2501 0.950 . S
H2476 C2502 0.950 . S
H2477 C2504 0.950 . S
H2478 C2507 0.950 . S
H2479 C2508 0.950 . S
H2480 C2510 0.950 . S
H2481 C2511 0.950 . S
C2482 H2464 0.951 . S
C2482 C2483 1.366 . S
C2482 C2484 1.388 . S
C2483 C2482 1.366 . S
C2483 C2487 1.385 . S
C2484 H2465 0.951 . S
C2484 C2482 1.388 . S
C2484 C2485 1.366 . S
C2485 C2484 1.366 . S
C2485 C2486 1.414 . S
C2485 C2488 1.499 . S
C2486 H2466 0.950 . S
C2486 C2485 1.414 . S
C2486 C2487 1.374 . S
C2487 H2467 0.950 . S
C2487 C2483 1.385 . S
C2487 C2486 1.374 . S
C2488 C2485 1.499 . S
C2488 C2489 1.373 . S
C2488 C2490 1.389 . S
C2489 H2468 0.950 . S
C2489 C2488 1.373 . S
C2489 C2505 1.377 . S
C2490 C2488 1.389 . S
C2490 C2491 1.524 . S
C2490 C2504 1.377 . S
C2491 C2490 1.524 . S
C2491 C2492 1.397 . S
C2491 C2496 1.363 . S
C2492 H2469 0.950 . S
C2492 C2491 1.397 . S
C2492 C2493 1.334 . S
C2493 H2470 0.950 . S
C2493 C2492 1.334 . S
C2493 C2494 1.287 . S
C2494 C2493 1.287 . S
C2494 C2495 1.524 . S
C2494 H2513 0.913 . S
C2495 H2471 0.950 . S
C2495 C2494 1.524 . S
C2495 C2496 1.415 . S
C2496 H2472 0.950 . S
C2496 C2491 1.363 . S
C2496 C2495 1.415 . S
C2497 H2473 0.951 . S
C2497 C2498 1.366 . S
C2497 C2499 1.388 . S
C2498 C2497 1.366 . S
C2498 C2502 1.385 . S
C2499 H2474 0.951 . S
C2499 C2497 1.388 . S
C2499 C2500 1.366 . S
C2500 C2499 1.366 . S
C2500 C2501 1.414 . S
C2500 C2503 1.499 . S
C2501 H2475 0.950 . S
C2501 C2500 1.414 . S
C2501 C2502 1.374 . S
C2502 H2476 0.950 . S
C2502 C2498 1.385 . S
C2502 C2501 1.374 . S
C2503 C2500 1.499 . S
C2503 C2504 1.373 . S
C2503 C2505 1.389 . S
C2504 H2477 0.950 . S
C2504 C2490 1.377 . S
C2504 C2503 1.373 . S
C2505 C2489 1.377 . S
C2505 C2503 1.389 . S
C2505 C2506 1.524 . S
C2506 C2505 1.524 . S
C2506 C2507 1.397 . S
C2506 C2511 1.363 . S
C2507 H2478 0.950 . S
C2507 C2506 1.397 . S
C2507 C2508 1.334 . S
C2508 H2479 0.950 . S
C2508 C2507 1.334 . S
C2508 C2509 1.287 . S
C2509 C2508 1.287 . S
C2509 C2510 1.524 . S
C2509 H2512 0.999 . S
C2510 H2480 0.950 . S
C2510 C2509 1.524 . S
C2510 C2511 1.415 . S
C2511 H2481 0.950 . S
C2511 C2506 1.363 . S
C2511 C2510 1.415 . S
H2512 C2509 0.999 . S
H2513 C2494 0.913 . S
H2514 C2532 0.951 . S
H2515 C2534 0.951 . S
H2516 C2536 0.950 . S
H2517 C2537 0.950 . S
H2518 C2539 0.950 . S
H2519 C2542 0.950 . S
H2520 C2543 0.950 . S
H2521 C2545 0.950 . S
H2522 C2546 0.950 . S
H2523 C2547 0.951 . S
H2524 C2549 0.951 . S
H2525 C2551 0.950 . S
H2526 C2552 0.950 . S
H2527 C2554 0.950 . S
H2528 C2557 0.950 . S
H2529 C2558 0.950 . S
H2530 C2560 0.950 . S
H2531 C2561 0.950 . S
C2532 H2514 0.951 . S
C2532 C2533 1.366 . S
C2532 C2534 1.388 . S
C2533 C2532 1.366 . S
C2533 C2537 1.385 . S
C2534 H2515 0.951 . S
C2534 C2532 1.388 . S
C2534 C2535 1.366 . S
C2535 C2534 1.366 . S
C2535 C2536 1.414 . S
C2535 C2538 1.499 . S
C2536 H2516 0.950 . S
C2536 C2535 1.414 . S
C2536 C2537 1.374 . S
C2537 H2517 0.950 . S
C2537 C2533 1.385 . S
C2537 C2536 1.374 . S
C2538 C2535 1.499 . S
C2538 C2539 1.373 . S
C2538 C2540 1.389 . S
C2539 H2518 0.950 . S
C2539 C2538 1.373 . S
C2539 C2555 1.377 . S
C2540 C2538 1.389 . S
C2540 C2541 1.524 . S
C2540 C2554 1.377 . S
C2541 C2540 1.524 . S
C2541 C2542 1.397 . S
C2541 C2546 1.363 . S
C2542 H2519 0.950 . S
C2542 C2541 1.397 . S
C2542 C2543 1.334 . S
C2543 H2520 0.950 . S
C2543 C2542 1.334 . S
C2543 C2544 1.287 . S
C2544 C2543 1.287 . S
C2544 C2545 1.524 . S
C2544 H2563 0.913 . S
C2545 H2521 0.950 . S
C2545 C2544 1.524 . S
C2545 C2546 1.415 . S
C2546 H2522 0.950 . S
C2546 C2541 1.363 . S
C2546 C2545 1.415 . S
C2547 H2523 0.951 . S
C2547 C2548 1.366 . S
C2547 C2549 1.388 . S
C2548 C2547 1.366 . S
C2548 C2552 1.385 . S
C2549 H2524 0.951 . S
C2549 C2547 1.388 . S
C2549 C2550 1.366 . S
C2550 C2549 1.366 . S
C2550 C2551 1.414 . S
C2550 C2553 1.499 . S
C2551 H2525 0.950 . S
C2551 C2550 1.414 . S
C2551 C2552 1.374 . S
C2552 H2526 0.950 . S
C2552 C2548 1.385 . S
C2552 C2551 1.374 . S
C2553 C2550 1.499 . S
C2553 C2554 1.373 . S
C2553 C2555 1.389 . S
C2554 H2527 0.950 . S
C2554 C2540 1.377 . S
C2554 C2553 1.373 . S
C2555 C2539 1.377 . S
C2555 C2553 1.389 . S
C2555 C2556 1.524 . S
C2556 C2555 1.524 . S
C2556 C2557 1.397 . S
C2556 C2561 1.363 . S
C2557 H2528 0.950 . S
C2557 C2556 1.397 . S
C2557 C2558 1.334 . S
C2558 H2529 0.950 . S
C2558 C2557 1.334 . S
C2558 C2559 1.287 . S
C2559 C2558 1.287 . S
C2559 C2560 1.524 . S
C2559 H2562 0.999 . S
C2560 H2530 0.950 . S
C2560 C2559 1.524 . S
C2560 C2561 1.415 . S
C2561 H2531 0.950 . S
C2561 C2556 1.363 . S
C2561 C2560 1.415 . S
H2562 C2559 0.999 . S
H2563 C2544 0.913 . S
H2564 C2582 0.951 . S
H2565 C2584 0.951 . S
H2566 C2586 0.950 . S
H2567 C2587 0.950 . S
H2568 C2589 0.950 . S
H2569 C2592 0.950 . S
H2570 C2593 0.950 . S
H2571 C2595 0.950 . S
H2572 C2596 0.950 . S
H2573 C2597 0.951 . S
H2574 C2599 0.951 . S
H2575 C2601 0.950 . S
H2576 C2602 0.950 . S
H2577 C2604 0.950 . S
H2578 C2607 0.950 . S
H2579 C2608 0.948 . S
H2580 C2610 0.950 . S
H2581 C2611 0.950 . S
C2582 H2564 0.951 . S
C2582 C2583 1.366 . S
C2582 C2584 1.388 . S
C2583 C2582 1.366 . S
C2583 C2587 1.385 . S
C2584 H2565 0.951 . S
C2584 C2582 1.388 . S
C2584 C2585 1.366 . S
C2585 C2584 1.366 . S
C2585 C2586 1.414 . S
C2585 C2588 1.499 . S
C2586 H2566 0.950 . S
C2586 C2585 1.414 . S
C2586 C2587 1.374 . S
C2587 H2567 0.950 . S
C2587 C2583 1.385 . S
C2587 C2586 1.374 . S
C2588 C2585 1.499 . S
C2588 C2589 1.373 . S
C2588 C2590 1.389 . S
C2589 H2568 0.950 . S
C2589 C2588 1.373 . S
C2589 C2605 1.377 . S
C2590 C2588 1.389 . S
C2590 C2591 1.524 . S
C2590 C2604 1.377 . S
C2591 C2590 1.524 . S
C2591 C2592 1.397 . S
C2591 C2596 1.363 . S
C2592 H2569 0.950 . S
C2592 C2591 1.397 . S
C2592 C2593 1.334 . S
C2593 H2570 0.950 . S
C2593 C2592 1.334 . S
C2593 C2594 1.287 . S
C2594 C2593 1.287 . S
C2594 C2595 1.524 . S
C2594 H2613 0.913 . S
C2595 H2571 0.950 . S
C2595 C2594 1.524 . S
C2595 C2596 1.415 . S
C2596 H2572 0.950 . S
C2596 C2591 1.363 . S
C2596 C2595 1.415 . S
C2597 H2573 0.951 . S
C2597 C2598 1.366 . S
C2597 C2599 1.388 . S
C2598 C2597 1.366 . S
C2598 C2602 1.385 . S
C2599 H2574 0.951 . S
C2599 C2597 1.388 . S
C2599 C2600 1.366 . S
C2600 C2599 1.366 . S
C2600 C2601 1.414 . S
C2600 C2603 1.499 . S
C2601 H2575 0.950 . S
C2601 C2600 1.414 . S
C2601 C2602 1.374 . S
C2602 H2576 0.950 . S
C2602 C2598 1.385 . S
C2602 C2601 1.374 . S
C2603 C2600 1.499 . S
C2603 C2604 1.373 . S
C2603 C2605 1.389 . S
C2604 H2577 0.950 . S
C2604 C2590 1.377 . S
C2604 C2603 1.373 . S
C2605 C2589 1.377 . S
C2605 C2603 1.389 . S
C2605 C2606 1.524 . S
C2606 C2605 1.524 . S
C2606 C2607 1.397 . S
C2606 C2611 1.363 . S
C2607 H2578 0.950 . S
C2607 C2606 1.397 . S
C2607 C2608 1.334 . S
C2608 H2579 0.948 . S
C2608 C2607 1.334 . S
C2608 C2609 1.287 . S
C2609 C2608 1.287 . S
C2609 C2610 1.524 . S
C2609 H2612 0.999 . S
C2610 H2580 0.950 . S
C2610 C2609 1.524 . S
C2610 C2611 1.415 . S
C2611 H2581 0.950 . S
C2611 C2606 1.363 . S
C2611 C2610 1.415 . S
H2612 C2609 0.999 . S
H2613 C2594 0.913 . S
H2614 C2632 0.951 . S
H2615 C2634 0.951 . S
H2616 C2636 0.950 . S
H2617 C2637 0.950 . S
H2618 C2639 0.950 . S
H2619 C2642 0.950 . S
H2620 C2643 0.950 . S
H2621 C2645 0.950 . S
H2622 C2646 0.950 . S
H2623 C2647 0.951 . S
H2624 C2649 0.951 . S
H2625 C2651 0.950 . S
H2626 C2652 0.950 . S
H2627 C2654 0.950 . S
H2628 C2657 0.950 . S
H2629 C2658 0.950 . S
H2630 C2660 0.950 . S
H2631 C2661 0.950 . S
C2632 H2614 0.951 . S
C2632 C2633 1.366 . S
C2632 C2634 1.388 . S
C2633 C2632 1.366 . S
C2633 C2637 1.385 . S
C2634 H2615 0.951 . S
C2634 C2632 1.388 . S
C2634 C2635 1.366 . S
C2635 C2634 1.366 . S
C2635 C2636 1.414 . S
C2635 C2638 1.499 . S
C2636 H2616 0.950 . S
C2636 C2635 1.414 . S
C2636 C2637 1.374 . S
C2637 H2617 0.950 . S
C2637 C2633 1.385 . S
C2637 C2636 1.374 . S
C2638 C2635 1.499 . S
C2638 C2639 1.373 . S
C2638 C2640 1.389 . S
C2639 H2618 0.950 . S
C2639 C2638 1.373 . S
C2639 C2655 1.377 . S
C2640 C2638 1.389 . S
C2640 C2641 1.524 . S
C2640 C2654 1.377 . S
C2641 C2640 1.524 . S
C2641 C2642 1.397 . S
C2641 C2646 1.363 . S
C2642 H2619 0.950 . S
C2642 C2641 1.397 . S
C2642 C2643 1.334 . S
C2643 H2620 0.950 . S
C2643 C2642 1.334 . S
C2643 C2644 1.287 . S
C2644 C2643 1.287 . S
C2644 C2645 1.524 . S
C2644 H2663 0.913 . S
C2645 H2621 0.950 . S
C2645 C2644 1.524 . S
C2645 C2646 1.415 . S
C2646 H2622 0.950 . S
C2646 C2641 1.363 . S
C2646 C2645 1.415 . S
C2647 H2623 0.951 . S
C2647 C2648 1.366 . S
C2647 C2649 1.388 . S
C2648 C2647 1.366 . S
C2648 C2652 1.385 . S
C2649 H2624 0.951 . S
C2649 C2647 1.388 . S
C2649 C2650 1.366 . S
C2650 C2649 1.366 . S
C2650 C2651 1.414 . S
C2650 C2653 1.499 . S
C2651 H2625 0.950 . S
C2651 C2650 1.414 . S
C2651 C2652 1.374 . S
C2652 H2626 0.950 . S
C2652 C2648 1.385 . S
C2652 C2651 1.374 . S
C2653 C2650 1.499 . S
C2653 C2654 1.373 . S
C2653 C2655 1.389 . S
C2654 H2627 0.950 . S
C2654 C2640 1.377 . S
C2654 C2653 1.373 . S
C2655 C2639 1.377 . S
C2655 C2653 1.389 . S
C2655 C2656 1.524 . S
C2656 C2655 1.524 . S
C2656 C2657 1.397 . S
C2656 C2661 1.363 . S
C2657 H2628 0.950 . S
C2657 C2656 1.397 . S
C2657 C2658 1.334 . S
C2658 H2629 0.950 . S
C2658 C2657 1.334 . S
C2658 C2659 1.287 . S
C2659 C2658 1.287 . S
C2659 C2660 1.524 . S
C2659 H2662 0.999 . S
C2660 H2630 0.950 . S
C2660 C2659 1.524 . S
C2660 C2661 1.415 . S
C2661 H2631 0.950 . S
C2661 C2656 1.363 . S
C2661 C2660 1.415 . S
H2662 C2659 0.999 . S
H2663 C2644 0.913 . S
H2664 C2682 0.951 . S
H2665 C2684 0.951 . S
H2666 C2686 0.950 . S
H2667 C2687 0.950 . S
H2668 C2689 0.950 . S
H2669 C2692 0.950 . S
H2670 C2693 0.950 . S
H2671 C2695 0.950 . S
H2672 C2696 0.950 . S
H2673 C2697 0.951 . S
H2674 C2699 0.951 . S
H2675 C2701 0.950 . S
H2676 C2702 0.950 . S
H2677 C2704 0.950 . S
H2678 C2707 0.950 . S
H2679 C2708 0.950 . S
H2680 C2710 0.950 . S
H2681 C2711 0.950 . S
C2682 H2664 0.951 . S
C2682 C2683 1.366 . S
C2682 C2684 1.388 . S
C2683 C2682 1.366 . S
C2683 C2687 1.385 . S
C2684 H2665 0.951 . S
C2684 C2682 1.388 . S
C2684 C2685 1.366 . S
C2685 C2684 1.366 . S
C2685 C2686 1.414 . S
C2685 C2688 1.499 . S
C2686 H2666 0.950 . S
C2686 C2685 1.414 . S
C2686 C2687 1.374 . S
C2687 H2667 0.950 . S
C2687 C2683 1.385 . S
C2687 C2686 1.374 . S
C2688 C2685 1.499 . S
C2688 C2689 1.373 . S
C2688 C2690 1.389 . S
C2689 H2668 0.950 . S
C2689 C2688 1.373 . S
C2689 C2705 1.377 . S
C2690 C2688 1.389 . S
C2690 C2691 1.524 . S
C2690 C2704 1.377 . S
C2691 C2690 1.524 . S
C2691 C2692 1.397 . S
C2691 C2696 1.363 . S
C2692 H2669 0.950 . S
C2692 C2691 1.397 . S
C2692 C2693 1.334 . S
C2693 H2670 0.950 . S
C2693 C2692 1.334 . S
C2693 C2694 1.287 . S
C2694 C2693 1.287 . S
C2694 C2695 1.524 . S
C2694 H2713 0.913 . S
C2695 H2671 0.950 . S
C2695 C2694 1.524 . S
C2695 C2696 1.415 . S
C2696 H2672 0.950 . S
C2696 C2691 1.363 . S
C2696 C2695 1.415 . S
C2697 H2673 0.951 . S
C2697 C2698 1.366 . S
C2697 C2699 1.388 . S
C2698 C2697 1.366 . S
C2698 C2702 1.385 . S
C2699 H2674 0.951 . S
C2699 C2697 1.388 . S
C2699 C2700 1.366 . S
C2700 C2699 1.366 . S
C2700 C2701 1.414 . S
C2700 C2703 1.499 . S
C2701 H2675 0.950 . S
C2701 C2700 1.414 . S
C2701 C2702 1.374 . S
C2702 H2676 0.950 . S
C2702 C2698 1.385 . S
C2702 C2701 1.374 . S
C2703 C2700 1.499 . S
C2703 C2704 1.373 . S
C2703 C2705 1.389 . S
C2704 H2677 0.950 . S
C2704 C2690 1.377 . S
C2704 C2703 1.373 . S
C2705 C2689 1.377 . S
C2705 C2703 1.389 . S
C2705 C2706 1.524 . S
C2706 C2705 1.524 . S
C2706 C2707 1.397 . S
C2706 C2711 1.363 . S
C2707 H2678 0.950 . S
C2707 C2706 1.397 . S
C2707 C2708 1.334 . S
C2708 H2679 0.950 . S
C2708 C2707 1.334 . S
C2708 C2709 1.287 . S
C2709 C2708 1.287 . S
C2709 C2710 1.524 . S
C2709 H2712 0.999 . S
C2710 H2680 0.950 . S
C2710 C2709 1.524 . S
C2710 C2711 1.415 . S
C2711 H2681 0.950 . S
C2711 C2706 1.363 . S
C2711 C2710 1.415 . S
H2712 C2709 0.999 . S
H2713 C2694 0.913 . S
H2714 C2732 0.951 . S
H2715 C2734 0.951 . S
H2716 C2736 0.950 . S
H2717 C2737 0.950 . S
H2718 C2739 0.950 . S
H2719 C2742 0.950 . S
H2720 C2743 0.950 . S
H2721 C2745 0.950 . S
H2722 C2746 0.950 . S
H2723 C2747 0.951 . S
H2724 C2749 0.951 . S
H2725 C2751 0.950 . S
H2726 C2752 0.950 . S
H2727 C2754 0.950 . S
H2728 C2757 0.950 . S
H2729 C2758 0.950 . S
H2730 C2760 0.950 . S
H2731 C2761 0.950 . S
C2732 H2714 0.951 . S
C2732 C2733 1.366 . S
C2732 C2734 1.388 . S
C2733 C2732 1.366 . S
C2733 C2737 1.385 . S
C2734 H2715 0.951 . S
C2734 C2732 1.388 . S
C2734 C2735 1.366 . S
C2735 C2734 1.366 . S
C2735 C2736 1.414 . S
C2735 C2738 1.499 . S
C2736 H2716 0.950 . S
C2736 C2735 1.414 . S
C2736 C2737 1.374 . S
C2737 H2717 0.950 . S
C2737 C2733 1.385 . S
C2737 C2736 1.374 . S
C2738 C2735 1.499 . S
C2738 C2739 1.373 . S
C2738 C2740 1.389 . S
C2739 H2718 0.950 . S
C2739 C2738 1.373 . S
C2739 C2755 1.377 . S
C2740 C2738 1.389 . S
C2740 C2741 1.524 . S
C2740 C2754 1.377 . S
C2741 C2740 1.524 . S
C2741 C2742 1.397 . S
C2741 C2746 1.363 . S
C2742 H2719 0.950 . S
C2742 C2741 1.397 . S
C2742 C2743 1.334 . S
C2743 H2720 0.950 . S
C2743 C2742 1.334 . S
C2743 C2744 1.287 . S
C2744 C2743 1.287 . S
C2744 C2745 1.524 . S
C2744 H2763 0.913 . S
C2745 H2721 0.950 . S
C2745 C2744 1.524 . S
C2745 C2746 1.415 . S
C2746 H2722 0.950 . S
C2746 C2741 1.363 . S
C2746 C2745 1.415 . S
C2747 H2723 0.951 . S
C2747 C2748 1.366 . S
C2747 C2749 1.388 . S
C2748 C2747 1.366 . S
C2748 C2752 1.385 . S
C2749 H2724 0.951 . S
C2749 C2747 1.388 . S
C2749 C2750 1.366 . S
C2750 C2749 1.366 . S
C2750 C2751 1.414 . S
C2750 C2753 1.499 . S
C2751 H2725 0.950 . S
C2751 C2750 1.414 . S
C2751 C2752 1.374 . S
C2752 H2726 0.950 . S
C2752 C2748 1.385 . S
C2752 C2751 1.374 . S
C2753 C2750 1.499 . S
C2753 C2754 1.373 . S
C2753 C2755 1.389 . S
C2754 H2727 0.950 . S
C2754 C2740 1.377 . S
C2754 C2753 1.373 . S
C2755 C2739 1.377 . S
C2755 C2753 1.389 . S
C2755 C2756 1.524 . S
C2756 C2755 1.524 . S
C2756 C2757 1.397 . S
C2756 C2761 1.363 . S
C2757 H2728 0.950 . S
C2757 C2756 1.397 . S
C2757 C2758 1.334 . S
C2758 H2729 0.950 . S
C2758 C2757 1.334 . S
C2758 C2759 1.287 . S
C2759 C2758 1.287 . S
C2759 C2760 1.524 . S
C2759 H2762 0.999 . S
C2760 H2730 0.950 . S
C2760 C2759 1.524 . S
C2760 C2761 1.415 . S
C2761 H2731 0.950 . S
C2761 C2756 1.363 . S
C2761 C2760 1.415 . S
H2762 C2759 0.999 . S
H2763 C2744 0.913 . S
H2764 C2782 0.951 . S
H2765 C2784 0.951 . S
H2766 C2786 0.950 . S
H2767 C2787 0.950 . S
H2768 C2789 0.950 . S
H2769 C2792 0.950 . S
H2770 C2793 0.950 . S
H2771 C2795 0.950 . S
H2772 C2796 0.950 . S
H2773 C2797 0.951 . S
H2774 C2799 0.951 . S
H2775 C2801 0.950 . S
H2776 C2802 0.950 . S
H2777 C2804 0.950 . S
H2778 C2807 0.950 . S
H2779 C2808 0.950 . S
H2780 C2810 0.950 . S
H2781 C2811 0.950 . S
C2782 H2764 0.951 . S
C2782 C2783 1.366 . S
C2782 C2784 1.388 . S
C2783 C2782 1.366 . S
C2783 C2787 1.385 . S
C2784 H2765 0.951 . S
C2784 C2782 1.388 . S
C2784 C2785 1.366 . S
C2785 C2784 1.366 . S
C2785 C2786 1.414 . S
C2785 C2788 1.499 . S
C2786 H2766 0.950 . S
C2786 C2785 1.414 . S
C2786 C2787 1.374 . S
C2787 H2767 0.950 . S
C2787 C2783 1.385 . S
C2787 C2786 1.374 . S
C2788 C2785 1.499 . S
C2788 C2789 1.373 . S
C2788 C2790 1.389 . S
C2789 H2768 0.950 . S
C2789 C2788 1.373 . S
C2789 C2805 1.377 . S
C2790 C2788 1.389 . S
C2790 C2791 1.524 . S
C2790 C2804 1.377 . S
C2791 C2790 1.524 . S
C2791 C2792 1.397 . S
C2791 C2796 1.363 . S
C2792 H2769 0.950 . S
C2792 C2791 1.397 . S
C2792 C2793 1.334 . S
C2793 H2770 0.950 . S
C2793 C2792 1.334 . S
C2793 C2794 1.287 . S
C2794 C2793 1.287 . S
C2794 C2795 1.524 . S
C2794 H2813 0.913 . S
C2795 H2771 0.950 . S
C2795 C2794 1.524 . S
C2795 C2796 1.415 . S
C2796 H2772 0.950 . S
C2796 C2791 1.363 . S
C2796 C2795 1.415 . S
C2797 H2773 0.951 . S
C2797 C2798 1.366 . S
C2797 C2799 1.388 . S
C2798 C2797 1.366 . S
C2798 C2802 1.385 . S
C2799 H2774 0.951 . S
C2799 C2797 1.388 . S
C2799 C2800 1.366 . S
C2800 C2799 1.366 . S
C2800 C2801 1.414 . S
C2800 C2803 1.499 . S
C2801 H2775 0.950 . S
C2801 C2800 1.414 . S
C2801 C2802 1.374 . S
C2802 H2776 0.950 . S
C2802 C2798 1.385 . S
C2802 C2801 1.374 . S
C2803 C2800 1.499 . S
C2803 C2804 1.373 . S
C2803 C2805 1.389 . S
C2804 H2777 0.950 . S
C2804 C2790 1.377 . S
C2804 C2803 1.373 . S
C2805 C2789 1.377 . S
C2805 C2803 1.389 . S
C2805 C2806 1.524 . S
C2806 C2805 1.524 . S
C2806 C2807 1.397 . S
C2806 C2811 1.363 . S
C2807 H2778 0.950 . S
C2807 C2806 1.397 . S
C2807 C2808 1.334 . S
C2808 H2779 0.950 . S
C2808 C2807 1.334 . S
C2808 C2809 1.287 . S
C2809 C2808 1.287 . S
C2809 C2810 1.524 . S
C2809 H2812 0.999 . S
C2810 H2780 0.950 . S
C2810 C2809 1.524 . S
C2810 C2811 1.415 . S
C2811 H2781 0.950 . S
C2811 C2806 1.363 . S
C2811 C2810 1.415 . S
H2812 C2809 0.999 . S
H2813 C2794 0.913 . S
H2814 C2832 0.951 . S
H2815 C2834 0.951 . S
H2816 C2836 0.950 . S
H2817 C2837 0.950 . S
H2818 C2839 0.950 . S
H2819 C2842 0.950 . S
H2820 C2843 0.950 . S
H2821 C2845 0.950 . S
H2822 C2846 0.950 . S
H2823 C2847 0.951 . S
H2824 C2849 0.951 . S
H2825 C2851 0.950 . S
H2826 C2852 0.950 . S
H2827 C2854 0.950 . S
H2828 C2857 0.950 . S
H2829 C2858 0.950 . S
H2830 C2860 0.950 . S
H2831 C2861 0.950 . S
C2832 H2814 0.951 . S
C2832 C2833 1.366 . S
C2832 C2834 1.388 . S
C2833 C2832 1.366 . S
C2833 C2837 1.385 . S
C2834 H2815 0.951 . S
C2834 C2832 1.388 . S
C2834 C2835 1.366 . S
C2835 C2834 1.366 . S
C2835 C2836 1.414 . S
C2835 C2838 1.499 . S
C2836 H2816 0.950 . S
C2836 C2835 1.414 . S
C2836 C2837 1.374 . S
C2837 H2817 0.950 . S
C2837 C2833 1.385 . S
C2837 C2836 1.374 . S
C2838 C2835 1.499 . S
C2838 C2839 1.373 . S
C2838 C2840 1.389 . S
C2839 H2818 0.950 . S
C2839 C2838 1.373 . S
C2839 C2855 1.377 . S
C2840 C2838 1.389 . S
C2840 C2841 1.524 . S
C2840 C2854 1.377 . S
C2841 C2840 1.524 . S
C2841 C2842 1.397 . S
C2841 C2846 1.363 . S
C2842 H2819 0.950 . S
C2842 C2841 1.397 . S
C2842 C2843 1.334 . S
C2843 H2820 0.950 . S
C2843 C2842 1.334 . S
C2843 C2844 1.287 . S
C2844 C2843 1.287 . S
C2844 C2845 1.524 . S
C2844 H2863 0.913 . S
C2845 H2821 0.950 . S
C2845 C2844 1.524 . S
C2845 C2846 1.415 . S
C2846 H2822 0.950 . S
C2846 C2841 1.363 . S
C2846 C2845 1.415 . S
C2847 H2823 0.951 . S
C2847 C2848 1.366 . S
C2847 C2849 1.388 . S
C2848 C2847 1.366 . S
C2848 C2852 1.385 . S
C2849 H2824 0.951 . S
C2849 C2847 1.388 . S
C2849 C2850 1.366 . S
C2850 C2849 1.366 . S
C2850 C2851 1.414 . S
C2850 C2853 1.499 . S
C2851 H2825 0.950 . S
C2851 C2850 1.414 . S
C2851 C2852 1.374 . S
C2852 H2826 0.950 . S
C2852 C2848 1.385 . S
C2852 C2851 1.374 . S
C2853 C2850 1.499 . S
C2853 C2854 1.373 . S
C2853 C2855 1.389 . S
C2854 H2827 0.950 . S
C2854 C2840 1.377 . S
C2854 C2853 1.373 . S
C2855 C2839 1.377 . S
C2855 C2853 1.389 . S
C2855 C2856 1.524 . S
C2856 C2855 1.524 . S
C2856 C2857 1.397 . S
C2856 C2861 1.363 . S
C2857 H2828 0.950 . S
C2857 C2856 1.397 . S
C2857 C2858 1.334 . S
C2858 H2829 0.950 . S
C2858 C2857 1.334 . S
C2858 C2859 1.287 . S
C2859 C2858 1.287 . S
C2859 C2860 1.524 . S
C2859 H2862 0.999 . S
C2860 H2830 0.950 . S
C2860 C2859 1.524 . S
C2860 C2861 1.415 . S
C2861 H2831 0.950 . S
C2861 C2856 1.363 . S
C2861 C2860 1.415 . S
H2862 C2859 0.999 . S
H2863 C2844 0.913 . S
H2864 C2882 0.951 . S
H2865 C2884 0.951 . S
H2866 C2886 0.950 . S
H2867 C2887 0.950 . S
H2868 C2889 0.950 . S
H2869 C2892 0.950 . S
H2870 C2893 0.950 . S
H2871 C2895 0.950 . S
H2872 C2896 0.950 . S
H2873 C2897 0.951 . S
H2874 C2899 0.951 . S
H2875 C2901 0.950 . S
H2876 C2902 0.950 . S
H2877 C2904 0.950 . S
H2878 C2907 0.950 . S
H2879 C2908 0.950 . S
H2880 C2910 0.950 . S
H2881 C2911 0.950 . S
C2882 H2864 0.951 . S
C2882 C2883 1.366 . S
C2882 C2884 1.388 . S
C2883 C2882 1.366 . S
C2883 C2887 1.385 . S
C2884 H2865 0.951 . S
C2884 C2882 1.388 . S
C2884 C2885 1.366 . S
C2885 C2884 1.366 . S
C2885 C2886 1.414 . S
C2885 C2888 1.499 . S
C2886 H2866 0.950 . S
C2886 C2885 1.414 . S
C2886 C2887 1.374 . S
C2887 H2867 0.950 . S
C2887 C2883 1.385 . S
C2887 C2886 1.374 . S
C2888 C2885 1.499 . S
C2888 C2889 1.373 . S
C2888 C2890 1.389 . S
C2889 H2868 0.950 . S
C2889 C2888 1.373 . S
C2889 C2905 1.377 . S
C2890 C2888 1.389 . S
C2890 C2891 1.524 . S
C2890 C2904 1.377 . S
C2891 C2890 1.524 . S
C2891 C2892 1.397 . S
C2891 C2896 1.363 . S
C2892 H2869 0.950 . S
C2892 C2891 1.397 . S
C2892 C2893 1.334 . S
C2893 H2870 0.950 . S
C2893 C2892 1.334 . S
C2893 C2894 1.287 . S
C2894 C2893 1.287 . S
C2894 C2895 1.524 . S
C2894 H2913 0.913 . S
C2895 H2871 0.950 . S
C2895 C2894 1.524 . S
C2895 C2896 1.415 . S
C2896 H2872 0.950 . S
C2896 C2891 1.363 . S
C2896 C2895 1.415 . S
C2897 H2873 0.951 . S
C2897 C2898 1.366 . S
C2897 C2899 1.388 . S
C2898 C2897 1.366 . S
C2898 C2902 1.385 . S
C2899 H2874 0.951 . S
C2899 C2897 1.388 . S
C2899 C2900 1.366 . S
C2900 C2899 1.366 . S
C2900 C2901 1.414 . S
C2900 C2903 1.499 . S
C2901 H2875 0.950 . S
C2901 C2900 1.414 . S
C2901 C2902 1.374 . S
C2902 H2876 0.950 . S
C2902 C2898 1.385 . S
C2902 C2901 1.374 . S
C2903 C2900 1.499 . S
C2903 C2904 1.373 . S
C2903 C2905 1.389 . S
C2904 H2877 0.950 . S
C2904 C2890 1.377 . S
C2904 C2903 1.373 . S
C2905 C2889 1.377 . S
C2905 C2903 1.389 . S
C2905 C2906 1.524 . S
C2906 C2905 1.524 . S
C2906 C2907 1.397 . S
C2906 C2911 1.363 . S
C2907 H2878 0.950 . S
C2907 C2906 1.397 . S
C2907 C2908 1.334 . S
C2908 H2879 0.950 . S
C2908 C2907 1.334 . S
C2908 C2909 1.287 . S
C2909 C2908 1.287 . S
C2909 C2910 1.524 . S
C2909 H2912 0.999 . S
C2910 H2880 0.950 . S
C2910 C2909 1.524 . S
C2910 C2911 1.415 . S
C2911 H2881 0.950 . S
C2911 C2906 1.363 . S
C2911 C2910 1.415 . S
H2912 C2909 0.999 . S
H2913 C2894 0.913 . S
H2914 C2932 0.951 . S
H2915 C2934 0.951 . S
H2916 C2936 0.950 . S
H2917 C2937 0.950 . S
H2918 C2939 0.950 . S
H2919 C2942 0.950 . S
H2920 C2943 0.950 . S
H2921 C2945 0.950 . S
H2922 C2946 0.950 . S
H2923 C2947 0.951 . S
H2924 C2949 0.951 . S
H2925 C2951 0.950 . S
H2926 C2952 0.950 . S
H2927 C2954 0.950 . S
H2928 C2957 0.950 . S
H2929 C2958 0.950 . S
H2930 C2960 0.950 . S
H2931 C2961 0.950 . S
C2932 H2914 0.951 . S
C2932 C2933 1.366 . S
C2932 C2934 1.388 . S
C2933 C2932 1.366 . S
C2933 C2937 1.385 . S
C2934 H2915 0.951 . S
C2934 C2932 1.388 . S
C2934 C2935 1.366 . S
C2935 C2934 1.366 . S
C2935 C2936 1.414 . S
C2935 C2938 1.499 . S
C2936 H2916 0.950 . S
C2936 C2935 1.414 . S
C2936 C2937 1.374 . S
C2937 H2917 0.950 . S
C2937 C2933 1.385 . S
C2937 C2936 1.374 . S
C2938 C2935 1.499 . S
C2938 C2939 1.373 . S
C2938 C2940 1.389 . S
C2939 H2918 0.950 . S
C2939 C2938 1.373 . S
C2939 C2955 1.377 . S
C2940 C2938 1.389 . S
C2940 C2941 1.524 . S
C2940 C2954 1.377 . S
C2941 C2940 1.524 . S
C2941 C2942 1.397 . S
C2941 C2946 1.363 . S
C2942 H2919 0.950 . S
C2942 C2941 1.397 . S
C2942 C2943 1.334 . S
C2943 H2920 0.950 . S
C2943 C2942 1.334 . S
C2943 C2944 1.287 . S
C2944 C2943 1.287 . S
C2944 C2945 1.524 . S
C2944 H2963 0.913 . S
C2945 H2921 0.950 . S
C2945 C2944 1.524 . S
C2945 C2946 1.415 . S
C2946 H2922 0.950 . S
C2946 C2941 1.363 . S
C2946 C2945 1.415 . S
C2947 H2923 0.951 . S
C2947 C2948 1.366 . S
C2947 C2949 1.388 . S
C2948 C2947 1.366 . S
C2948 C2952 1.385 . S
C2949 H2924 0.951 . S
C2949 C2947 1.388 . S
C2949 C2950 1.366 . S
C2950 C2949 1.366 . S
C2950 C2951 1.414 . S
C2950 C2953 1.499 . S
C2951 H2925 0.950 . S
C2951 C2950 1.414 . S
C2951 C2952 1.374 . S
C2952 H2926 0.950 . S
C2952 C2948 1.385 . S
C2952 C2951 1.374 . S
C2953 C2950 1.499 . S
C2953 C2954 1.373 . S
C2953 C2955 1.389 . S
C2954 H2927 0.950 . S
C2954 C2940 1.377 . S
C2954 C2953 1.373 . S
C2955 C2939 1.377 . S
C2955 C2953 1.389 . S
C2955 C2956 1.524 . S
C2956 C2955 1.524 . S
C2956 C2957 1.397 . S
C2956 C2961 1.363 . S
C2957 H2928 0.950 . S
C2957 C2956 1.397 . S
C2957 C2958 1.334 . S
C2958 H2929 0.950 . S
C2958 C2957 1.334 . S
C2958 C2959 1.287 . S
C2959 C2958 1.287 . S
C2959 C2960 1.524 . S
C2959 H2962 0.999 . S
C2960 H2930 0.950 . S
C2960 C2959 1.524 . S
C2960 C2961 1.415 . S
C2961 H2931 0.950 . S
C2961 C2956 1.363 . S
C2961 C2960 1.415 . S
H2962 C2959 0.999 . S
H2963 C2944 0.913 . S
H2964 C2982 0.951 . S
H2965 C2984 0.951 . S
H2966 C2986 0.950 . S
H2967 C2987 0.950 . S
H2968 C2989 0.950 . S
H2969 C2992 0.950 . S
H2970 C2993 0.950 . S
H2971 C2995 0.950 . S
H2972 C2996 0.950 . S
H2973 C2997 0.951 . S
H2974 C2999 0.951 . S
H2975 C3001 0.950 . S
H2976 C3002 0.950 . S
H2977 C3004 0.950 . S
H2978 C3007 0.950 . S
H2979 C3008 0.950 . S
H2980 C3010 0.950 . S
H2981 C3011 0.950 . S
C2982 H2964 0.951 . S
C2982 C2983 1.366 . S
C2982 C2984 1.388 . S
C2983 C2982 1.366 . S
C2983 C2987 1.385 . S
C2984 H2965 0.951 . S
C2984 C2982 1.388 . S
C2984 C2985 1.366 . S
C2985 C2984 1.366 . S
C2985 C2986 1.414 . S
C2985 C2988 1.499 . S
C2986 H2966 0.950 . S
C2986 C2985 1.414 . S
C2986 C2987 1.374 . S
C2987 H2967 0.950 . S
C2987 C2983 1.385 . S
C2987 C2986 1.374 . S
C2988 C2985 1.499 . S
C2988 C2989 1.373 . S
C2988 C2990 1.389 . S
C2989 H2968 0.950 . S
C2989 C2988 1.373 . S
C2989 C3005 1.377 . S
C2990 C2988 1.389 . S
C2990 C2991 1.524 . S
C2990 C3004 1.377 . S
C2991 C2990 1.524 . S
C2991 C2992 1.397 . S
C2991 C2996 1.363 . S
C2992 H2969 0.950 . S
C2992 C2991 1.397 . S
C2992 C2993 1.334 . S
C2993 H2970 0.950 . S
C2993 C2992 1.334 . S
C2993 C2994 1.287 . S
C2994 C2993 1.287 . S
C2994 C2995 1.524 . S
C2994 H3013 0.913 . S
C2995 H2971 0.950 . S
C2995 C2994 1.524 . S
C2995 C2996 1.415 . S
C2996 H2972 0.950 . S
C2996 C2991 1.363 . S
C2996 C2995 1.415 . S
C2997 H2973 0.951 . S
C2997 C2998 1.366 . S
C2997 C2999 1.388 . S
C2998 C2997 1.366 . S
C2998 C3002 1.385 . S
C2999 H2974 0.951 . S
C2999 C2997 1.388 . S
C2999 C3000 1.366 . S
C3000 C2999 1.366 . S
C3000 C3001 1.414 . S
C3000 C3003 1.499 . S
C3001 H2975 0.950 . S
C3001 C3000 1.414 . S
C3001 C3002 1.374 . S
C3002 H2976 0.950 . S
C3002 C2998 1.385 . S
C3002 C3001 1.374 . S
C3003 C3000 1.499 . S
C3003 C3004 1.373 . S
C3003 C3005 1.389 . S
C3004 H2977 0.950 . S
C3004 C2990 1.377 . S
C3004 C3003 1.373 . S
C3005 C2989 1.377 . S
C3005 C3003 1.389 . S
C3005 C3006 1.524 . S
C3006 C3005 1.524 . S
C3006 C3007 1.397 . S
C3006 C3011 1.363 . S
C3007 H2978 0.950 . S
C3007 C3006 1.397 . S
C3007 C3008 1.334 . S
C3008 H2979 0.950 . S
C3008 C3007 1.334 . S
C3008 C3009 1.287 . S
C3009 C3008 1.287 . S
C3009 C3010 1.524 . S
C3009 H3012 0.999 . S
C3010 H2980 0.950 . S
C3010 C3009 1.524 . S
C3010 C3011 1.415 . S
C3011 H2981 0.950 . S
C3011 C3006 1.363 . S
C3011 C3010 1.415 . S
H3012 C3009 0.999 . S
H3013 C2994 0.913 . S
H3014 C3032 0.951 . S
H3015 C3034 0.951 . S
H3016 C3036 0.950 . S
H3017 C3037 0.950 . S
H3018 C3039 0.950 . S
H3019 C3042 0.950 . S
H3020 C3043 0.950 . S
H3021 C3045 0.950 . S
H3022 C3046 0.950 . S
H3023 C3047 0.951 . S
H3024 C3049 0.951 . S
H3025 C3051 0.950 . S
H3026 C3052 0.950 . S
H3027 C3054 0.950 . S
H3028 C3057 0.950 . S
H3029 C3058 0.950 . S
H3030 C3060 0.950 . S
H3031 C3061 0.950 . S
C3032 H3014 0.951 . S
C3032 C3033 1.366 . S
C3032 C3034 1.388 . S
C3033 C3032 1.366 . S
C3033 C3037 1.385 . S
C3034 H3015 0.951 . S
C3034 C3032 1.388 . S
C3034 C3035 1.366 . S
C3035 C3034 1.366 . S
C3035 C3036 1.414 . S
C3035 C3038 1.499 . S
C3036 H3016 0.950 . S
C3036 C3035 1.414 . S
C3036 C3037 1.374 . S
C3037 H3017 0.950 . S
C3037 C3033 1.385 . S
C3037 C3036 1.374 . S
C3038 C3035 1.499 . S
C3038 C3039 1.373 . S
C3038 C3040 1.389 . S
C3039 H3018 0.950 . S
C3039 C3038 1.373 . S
C3039 C3055 1.377 . S
C3040 C3038 1.389 . S
C3040 C3041 1.524 . S
C3040 C3054 1.377 . S
C3041 C3040 1.524 . S
C3041 C3042 1.397 . S
C3041 C3046 1.363 . S
C3042 H3019 0.950 . S
C3042 C3041 1.397 . S
C3042 C3043 1.334 . S
C3043 H3020 0.950 . S
C3043 C3042 1.334 . S
C3043 C3044 1.287 . S
C3044 C3043 1.287 . S
C3044 C3045 1.524 . S
C3044 H3063 0.913 . S
C3045 H3021 0.950 . S
C3045 C3044 1.524 . S
C3045 C3046 1.415 . S
C3046 H3022 0.950 . S
C3046 C3041 1.363 . S
C3046 C3045 1.415 . S
C3047 H3023 0.951 . S
C3047 C3048 1.366 . S
C3047 C3049 1.388 . S
C3048 C3047 1.366 . S
C3048 C3052 1.385 . S
C3049 H3024 0.951 . S
C3049 C3047 1.388 . S
C3049 C3050 1.366 . S
C3050 C3049 1.366 . S
C3050 C3051 1.414 . S
C3050 C3053 1.499 . S
C3051 H3025 0.950 . S
C3051 C3050 1.414 . S
C3051 C3052 1.374 . S
C3052 H3026 0.950 . S
C3052 C3048 1.385 . S
C3052 C3051 1.374 . S
C3053 C3050 1.499 . S
C3053 C3054 1.373 . S
C3053 C3055 1.389 . S
C3054 H3027 0.950 . S
C3054 C3040 1.377 . S
C3054 C3053 1.373 . S
C3055 C3039 1.377 . S
C3055 C3053 1.389 . S
C3055 C3056 1.524 . S
C3056 C3055 1.524 . S
C3056 C3057 1.397 . S
C3056 C3061 1.363 . S
C3057 H3028 0.950 . S
C3057 C3056 1.397 . S
C3057 C3058 1.334 . S
C3058 H3029 0.950 . S
C3058 C3057 1.334 . S
C3058 C3059 1.287 . S
C3059 C3058 1.287 . S
C3059 C3060 1.524 . S
C3059 H3062 0.999 . S
C3060 H3030 0.950 . S
C3060 C3059 1.524 . S
C3060 C3061 1.415 . S
C3061 H3031 0.950 . S
C3061 C3056 1.363 . S
C3061 C3060 1.415 . S
H3062 C3059 0.999 . S
H3063 C3044 0.913 . S
H3064 C3082 0.951 . S
H3065 C3084 0.951 . S
H3066 C3086 0.950 . S
H3067 C3087 0.950 . S
H3068 C3089 0.950 . S
H3069 C3092 0.950 . S
H3070 C3093 0.950 . S
H3071 C3095 0.950 . S
H3072 C3096 0.950 . S
H3073 C3097 0.951 . S
H3074 C3099 0.951 . S
H3075 C3101 0.950 . S
H3076 C3102 0.950 . S
H3077 C3104 0.950 . S
H3078 C3107 0.950 . S
H3079 C3108 0.950 . S
H3080 C3110 0.950 . S
H3081 C3111 0.950 . S
C3082 H3064 0.951 . S
C3082 C3083 1.366 . S
C3082 C3084 1.388 . S
C3083 C3082 1.366 . S
C3083 C3087 1.385 . S
C3084 H3065 0.951 . S
C3084 C3082 1.388 . S
C3084 C3085 1.366 . S
C3085 C3084 1.366 . S
C3085 C3086 1.414 . S
C3085 C3088 1.499 . S
C3086 H3066 0.950 . S
C3086 C3085 1.414 . S
C3086 C3087 1.374 . S
C3087 H3067 0.950 . S
C3087 C3083 1.385 . S
C3087 C3086 1.374 . S
C3088 C3085 1.499 . S
C3088 C3089 1.373 . S
C3088 C3090 1.389 . S
C3089 H3068 0.950 . S
C3089 C3088 1.373 . S
C3089 C3105 1.377 . S
C3090 C3088 1.389 . S
C3090 C3091 1.524 . S
C3090 C3104 1.377 . S
C3091 C3090 1.524 . S
C3091 C3092 1.397 . S
C3091 C3096 1.363 . S
C3092 H3069 0.950 . S
C3092 C3091 1.397 . S
C3092 C3093 1.334 . S
C3093 H3070 0.950 . S
C3093 C3092 1.334 . S
C3093 C3094 1.287 . S
C3094 C3093 1.287 . S
C3094 C3095 1.524 . S
C3094 H3113 0.913 . S
C3095 H3071 0.950 . S
C3095 C3094 1.524 . S
C3095 C3096 1.415 . S
C3096 H3072 0.950 . S
C3096 C3091 1.363 . S
C3096 C3095 1.415 . S
C3097 H3073 0.951 . S
C3097 C3098 1.366 . S
C3097 C3099 1.388 . S
C3098 C3097 1.366 . S
C3098 C3102 1.385 . S
C3099 H3074 0.951 . S
C3099 C3097 1.388 . S
C3099 C3100 1.366 . S
C3100 C3099 1.366 . S
C3100 C3101 1.414 . S
C3100 C3103 1.499 . S
C3101 H3075 0.950 . S
C3101 C3100 1.414 . S
C3101 C3102 1.374 . S
C3102 H3076 0.950 . S
C3102 C3098 1.385 . S
C3102 C3101 1.374 . S
C3103 C3100 1.499 . S
C3103 C3104 1.373 . S
C3103 C3105 1.389 . S
C3104 H3077 0.950 . S
C3104 C3090 1.377 . S
C3104 C3103 1.373 . S
C3105 C3089 1.377 . S
C3105 C3103 1.389 . S
C3105 C3106 1.524 . S
C3106 C3105 1.524 . S
C3106 C3107 1.397 . S
C3106 C3111 1.363 . S
C3107 H3078 0.950 . S
C3107 C3106 1.397 . S
C3107 C3108 1.334 . S
C3108 H3079 0.950 . S
C3108 C3107 1.334 . S
C3108 C3109 1.287 . S
C3109 C3108 1.287 . S
C3109 C3110 1.524 . S
C3109 H3112 0.999 . S
C3110 H3080 0.950 . S
C3110 C3109 1.524 . S
C3110 C3111 1.415 . S
C3111 H3081 0.950 . S
C3111 C3106 1.363 . S
C3111 C3110 1.415 . S
H3112 C3109 0.999 . S
H3113 C3094 0.913 . S
H3114 C3132 0.951 . S
H3115 C3134 0.951 . S
H3116 C3136 0.950 . S
H3117 C3137 0.950 . S
H3118 C3139 0.950 . S
H3119 C3142 0.950 . S
H3120 C3143 0.950 . S
H3121 C3145 0.950 . S
H3122 C3146 0.950 . S
H3123 C3147 0.951 . S
H3124 C3149 0.951 . S
H3125 C3151 0.950 . S
H3126 C3152 0.950 . S
H3127 C3154 0.950 . S
H3128 C3157 0.950 . S
H3129 C3158 0.950 . S
H3130 C3160 0.950 . S
H3131 C3161 0.950 . S
C3132 H3114 0.951 . S
C3132 C3133 1.366 . S
C3132 C3134 1.388 . S
C3133 C3132 1.366 . S
C3133 C3137 1.385 . S
C3134 H3115 0.951 . S
C3134 C3132 1.388 . S
C3134 C3135 1.366 . S
C3135 C3134 1.366 . S
C3135 C3136 1.414 . S
C3135 C3138 1.499 . S
C3136 H3116 0.950 . S
C3136 C3135 1.414 . S
C3136 C3137 1.374 . S
C3137 H3117 0.950 . S
C3137 C3133 1.385 . S
C3137 C3136 1.374 . S
C3138 C3135 1.499 . S
C3138 C3139 1.373 . S
C3138 C3140 1.389 . S
C3139 H3118 0.950 . S
C3139 C3138 1.373 . S
C3139 C3155 1.377 . S
C3140 C3138 1.389 . S
C3140 C3141 1.524 . S
C3140 C3154 1.377 . S
C3141 C3140 1.524 . S
C3141 C3142 1.397 . S
C3141 C3146 1.363 . S
C3142 H3119 0.950 . S
C3142 C3141 1.397 . S
C3142 C3143 1.334 . S
C3143 H3120 0.950 . S
C3143 C3142 1.334 . S
C3143 C3144 1.287 . S
C3144 C3143 1.287 . S
C3144 C3145 1.524 . S
C3144 H3163 0.913 . S
C3145 H3121 0.950 . S
C3145 C3144 1.524 . S
C3145 C3146 1.415 . S
C3146 H3122 0.950 . S
C3146 C3141 1.363 . S
C3146 C3145 1.415 . S
C3147 H3123 0.951 . S
C3147 C3148 1.366 . S
C3147 C3149 1.388 . S
C3148 C3147 1.366 . S
C3148 C3152 1.385 . S
C3149 H3124 0.951 . S
C3149 C3147 1.388 . S
C3149 C3150 1.366 . S
C3150 C3149 1.366 . S
C3150 C3151 1.414 . S
C3150 C3153 1.499 . S
C3151 H3125 0.950 . S
C3151 C3150 1.414 . S
C3151 C3152 1.374 . S
C3152 H3126 0.950 . S
C3152 C3148 1.385 . S
C3152 C3151 1.374 . S
C3153 C3150 1.499 . S
C3153 C3154 1.373 . S
C3153 C3155 1.389 . S
C3154 H3127 0.950 . S
C3154 C3140 1.377 . S
C3154 C3153 1.373 . S
C3155 C3139 1.377 . S
C3155 C3153 1.389 . S
C3155 C3156 1.524 . S
C3156 C3155 1.524 . S
C3156 C3157 1.397 . S
C3156 C3161 1.363 . S
C3157 H3128 0.950 . S
C3157 C3156 1.397 . S
C3157 C3158 1.334 . S
C3158 H3129 0.950 . S
C3158 C3157 1.334 . S
C3158 C3159 1.287 . S
C3159 C3158 1.287 . S
C3159 C3160 1.524 . S
C3159 H3162 0.999 . S
C3160 H3130 0.950 . S
C3160 C3159 1.524 . S
C3160 C3161 1.415 . S
C3161 H3131 0.950 . S
C3161 C3156 1.363 . S
C3161 C3160 1.415 . S
H3162 C3159 0.999 . S
H3163 C3144 0.913 . S
H3164 C3182 0.951 . S
H3165 C3184 0.951 . S
H3166 C3186 0.950 . S
H3167 C3187 0.950 . S
H3168 C3189 0.950 . S
H3169 C3192 0.950 . S
H3170 C3193 0.950 . S
H3171 C3195 0.950 . S
H3172 C3196 0.950 . S
H3173 C3197 0.951 . S
H3174 C3199 0.951 . S
H3175 C3201 0.950 . S
H3176 C3202 0.950 . S
H3177 C3204 0.950 . S
H3178 C3207 0.950 . S
H3179 C3208 0.950 . S
H3180 C3210 0.950 . S
H3181 C3211 0.950 . S
C3182 H3164 0.951 . S
C3182 C3183 1.366 . S
C3182 C3184 1.388 . S
C3183 C3182 1.366 . S
C3183 C3187 1.385 . S
C3184 H3165 0.951 . S
C3184 C3182 1.388 . S
C3184 C3185 1.366 . S
C3185 C3184 1.366 . S
C3185 C3186 1.414 . S
C3185 C3188 1.499 . S
C3186 H3166 0.950 . S
C3186 C3185 1.414 . S
C3186 C3187 1.374 . S
C3187 H3167 0.950 . S
C3187 C3183 1.385 . S
C3187 C3186 1.374 . S
C3188 C3185 1.499 . S
C3188 C3189 1.373 . S
C3188 C3190 1.389 . S
C3189 H3168 0.950 . S
C3189 C3188 1.373 . S
C3189 C3205 1.377 . S
C3190 C3188 1.389 . S
C3190 C3191 1.524 . S
C3190 C3204 1.377 . S
C3191 C3190 1.524 . S
C3191 C3192 1.397 . S
C3191 C3196 1.363 . S
C3192 H3169 0.950 . S
C3192 C3191 1.397 . S
C3192 C3193 1.334 . S
C3193 H3170 0.950 . S
C3193 C3192 1.334 . S
C3193 C3194 1.287 . S
C3194 C3193 1.287 . S
C3194 C3195 1.524 . S
C3194 H3213 0.913 . S
C3195 H3171 0.950 . S
C3195 C3194 1.524 . S
C3195 C3196 1.415 . S
C3196 H3172 0.950 . S
C3196 C3191 1.363 . S
C3196 C3195 1.415 . S
C3197 H3173 0.951 . S
C3197 C3198 1.366 . S
C3197 C3199 1.388 . S
C3198 C3197 1.366 . S
C3198 C3202 1.385 . S
C3199 H3174 0.951 . S
C3199 C3197 1.388 . S
C3199 C3200 1.366 . S
C3200 C3199 1.366 . S
C3200 C3201 1.414 . S
C3200 C3203 1.499 . S
C3201 H3175 0.950 . S
C3201 C3200 1.414 . S
C3201 C3202 1.374 . S
C3202 H3176 0.950 . S
C3202 C3198 1.385 . S
C3202 C3201 1.374 . S
C3203 C3200 1.499 . S
C3203 C3204 1.373 . S
C3203 C3205 1.389 . S
C3204 H3177 0.950 . S
C3204 C3190 1.377 . S
C3204 C3203 1.373 . S
C3205 C3189 1.377 . S
C3205 C3203 1.389 . S
C3205 C3206 1.524 . S
C3206 C3205 1.524 . S
C3206 C3207 1.397 . S
C3206 C3211 1.363 . S
C3207 H3178 0.950 . S
C3207 C3206 1.397 . S
C3207 C3208 1.334 . S
C3208 H3179 0.950 . S
C3208 C3207 1.334 . S
C3208 C3209 1.287 . S
C3209 C3208 1.287 . S
C3209 C3210 1.524 . S
C3209 H3212 0.999 . S
C3210 H3180 0.950 . S
C3210 C3209 1.524 . S
C3210 C3211 1.415 . S
C3211 H3181 0.950 . S
C3211 C3206 1.363 . S
C3211 C3210 1.415 . S
H3212 C3209 0.999 . S
H3213 C3194 0.913 . S
H3214 C3232 0.951 . S
H3215 C3234 0.951 . S
H3216 C3236 0.950 . S
H3217 C3237 0.950 . S
H3218 C3239 0.950 . S
H3219 C3242 0.950 . S
H3220 C3243 0.950 . S
H3221 C3245 0.950 . S
H3222 C3246 0.950 . S
H3223 C3247 0.951 . S
H3224 C3249 0.951 . S
H3225 C3251 0.950 . S
H3226 C3252 0.950 . S
H3227 C3254 0.950 . S
H3228 C3257 0.950 . S
H3229 C3258 0.950 . S
H3230 C3260 0.950 . S
H3231 C3261 0.950 . S
C3232 H3214 0.951 . S
C3232 C3233 1.366 . S
C3232 C3234 1.388 . S
C3233 C3232 1.366 . S
C3233 C3237 1.385 . S
C3234 H3215 0.951 . S
C3234 C3232 1.388 . S
C3234 C3235 1.366 . S
C3235 C3234 1.366 . S
C3235 C3236 1.414 . S
C3235 C3238 1.499 . S
C3236 H3216 0.950 . S
C3236 C3235 1.414 . S
C3236 C3237 1.374 . S
C3237 H3217 0.950 . S
C3237 C3233 1.385 . S
C3237 C3236 1.374 . S
C3238 C3235 1.499 . S
C3238 C3239 1.373 . S
C3238 C3240 1.389 . S
C3239 H3218 0.950 . S
C3239 C3238 1.373 . S
C3239 C3255 1.377 . S
C3240 C3238 1.389 . S
C3240 C3241 1.524 . S
C3240 C3254 1.377 . S
C3241 C3240 1.524 . S
C3241 C3242 1.397 . S
C3241 C3246 1.363 . S
C3242 H3219 0.950 . S
C3242 C3241 1.397 . S
C3242 C3243 1.334 . S
C3243 H3220 0.950 . S
C3243 C3242 1.334 . S
C3243 C3244 1.287 . S
C3244 C3243 1.287 . S
C3244 C3245 1.524 . S
C3244 H3263 0.913 . S
C3245 H3221 0.950 . S
C3245 C3244 1.524 . S
C3245 C3246 1.415 . S
C3246 H3222 0.950 . S
C3246 C3241 1.363 . S
C3246 C3245 1.415 . S
C3247 H3223 0.951 . S
C3247 C3248 1.366 . S
C3247 C3249 1.388 . S
C3248 C3247 1.366 . S
C3248 C3252 1.385 . S
C3249 H3224 0.951 . S
C3249 C3247 1.388 . S
C3249 C3250 1.366 . S
C3250 C3249 1.366 . S
C3250 C3251 1.414 . S
C3250 C3253 1.499 . S
C3251 H3225 0.950 . S
C3251 C3250 1.414 . S
C3251 C3252 1.374 . S
C3252 H3226 0.950 . S
C3252 C3248 1.385 . S
C3252 C3251 1.374 . S
C3253 C3250 1.499 . S
C3253 C3254 1.373 . S
C3253 C3255 1.389 . S
C3254 H3227 0.950 . S
C3254 C3240 1.377 . S
C3254 C3253 1.373 . S
C3255 C3239 1.377 . S
C3255 C3253 1.389 . S
C3255 C3256 1.524 . S
C3256 C3255 1.524 . S
C3256 C3257 1.397 . S
C3256 C3261 1.363 . S
C3257 H3228 0.950 . S
C3257 C3256 1.397 . S
C3257 C3258 1.334 . S
C3258 H3229 0.950 . S
C3258 C3257 1.334 . S
C3258 C3259 1.287 . S
C3259 C3258 1.287 . S
C3259 C3260 1.524 . S
C3259 H3262 0.999 . S
C3260 H3230 0.950 . S
C3260 C3259 1.524 . S
C3260 C3261 1.415 . S
C3261 H3231 0.950 . S
C3261 C3256 1.363 . S
C3261 C3260 1.415 . S
H3262 C3259 0.999 . S
H3263 C3244 0.913 . S
C898 C689 1.594 . S
C883 C74 1.579 . S
C948 C694 1.312 . S
C933 C153 1.237 . S
C998 C695 1.541 . S
C983 C231 1.531 . S
C1033 C310 0.796 . S
C1048 C699 0.550 . S
C1083 C394 1.234 . S
C1098 C702 1.311 . S
C1148 C703 1.541 . S
C1133 C494 1.523 . S
C1183 C573 0.795 . S
C1198 C680 0.548 . S
C1233 C651 1.582 . S
C1248 C696 1.596 . S
C1298 C734 2.338 . S
C1283 C56 2.418 . S
C1333 C151 1.523 . S
C1348 C760 1.484 . S
C1398 C712 1.294 . S
C1383 C237 1.229 . S
C1448 C767 1.493 . S
C1433 C326 1.484 . S
C1483 C410 1.514 . S
C1498 C721 1.512 . S
C1548 C763 2.325 . S
C1533 C476 2.405 . S
C1583 C571 1.543 . S
C1598 C727 1.507 . S
C1633 C657 1.224 . S
C1648 C758 1.291 . S
C1683 C58 1.224 . S
C1698 C766 1.280 . S
C1733 C392 1.523 . S
C1748 C753 1.488 . S
C1798 C731 1.294 . S
C1783 C478 1.234 . S
C1848 C759 1.494 . S
C1833 C567 1.493 . S
C1883 C655 2.422 . S
C1898 C726 2.342 . S
C1933 C235 2.405 . S
C1948 C744 2.324 . S
C1998 C735 1.506 . S
C1983 C308 1.542 . S
C2033 C147 1.514 . S
C2048 C728 1.504 . S
C2083 C662 1.548 . S
C2098 C790 1.535 . S
C2133 C405 1.204 . S
C2148 C785 1.282 . S
C2198 C799 1.471 . S
C2183 C483 1.504 . S
C2248 C776 0.419 . S
C2233 C562 0.816 . S
C2283 C142 1.205 . S
C2298 C792 1.277 . S
C2348 C791 1.470 . S
C2333 C242 1.499 . S
C2383 C321 0.816 . S
C2398 C795 0.420 . S
C2433 C63 1.548 . S
C2448 C798 1.531 . S
C2483 C644 2.428 . S
C2498 C824 2.379 . S
C2548 C840 1.471 . S
C2533 C403 1.540 . S
C2583 C489 1.238 . S
C2598 C822 1.307 . S
C2633 C578 1.510 . S
C2648 C855 1.508 . S
C2698 C831 1.483 . S
C2683 C158 1.501 . S
C2733 C224 2.443 . S
C2748 C849 2.375 . S
C2798 C827 1.458 . S
C2783 C319 1.525 . S
C2848 C862 1.314 . S
C2833 C69 1.246 . S
C2898 C854 1.314 . S
C2883 C646 1.252 . S
C2933 C140 1.538 . S
C2948 C859 1.469 . S
C2983 C226 1.238 . S
C2998 C830 1.313 . S
C3048 C863 1.508 . S
C3033 C315 1.512 . S
C3083 C67 2.428 . S
C3098 C817 2.373 . S
C3133 C487 2.443 . S
C3148 C856 2.372 . S
C3198 C808 1.458 . S
C3183 C560 1.528 . S
C3248 C823 1.482 . S
C3233 C399 1.496 . S
