# Generated by pormake.
# Topology pto, (3,4)-cn, num edge types: 1
# Building blocks:
#     Node 0, Type 0, BuildingBlock: OLANEW_clean_sbu_2, # of connection points: 3
#     Node 1, Type 0, BuildingBlock: OLANEW_clean_sbu_2, # of connection points: 3
#     Node 2, Type 0, BuildingBlock: OLANEW_clean_sbu_2, # of connection points: 3
#     Node 3, Type 0, BuildingBlock: OLANEW_clean_sbu_2, # of connection points: 3
#     Node 4, Type 0, BuildingBlock: OLANEW_clean_sbu_2, # of connection points: 3
#     Node 5, Type 0, BuildingBlock: OLANEW_clean_sbu_2, # of connection points: 3
#     Node 6, Type 0, BuildingBlock: OLANEW_clean_sbu_2, # of connection points: 3
#     Node 7, Type 0, BuildingBlock: OLANEW_clean_sbu_2, # of connection points: 3
#     Node 8, Type 1, BuildingBlock: NAWXER_clean_sbu_0, # of connection points: 4
#     Node 9, Type 1, BuildingBlock: NAWXER_clean_sbu_0, # of connection points: 4
#     Node 10, Type 1, BuildingBlock: NAWXER_clean_sbu_0, # of connection points: 4
#     Node 11, Type 1, BuildingBlock: NAWXER_clean_sbu_0, # of connection points: 4
#     Node 12, Type 1, BuildingBlock: NAWXER_clean_sbu_0, # of connection points: 4
#     Node 13, Type 1, BuildingBlock: NAWXER_clean_sbu_0, # of connection points: 4
#     Edge 14, Type (0, 1), BuildingBlock: UVAHIK_clean_linker_0, # of connection points: 2
#     Edge 15, Type (0, 1), BuildingBlock: UVAHIK_clean_linker_0, # of connection points: 2
#     Edge 16, Type (0, 1), BuildingBlock: UVAHIK_clean_linker_0, # of connection points: 2
#     Edge 17, Type (0, 1), BuildingBlock: UVAHIK_clean_linker_0, # of connection points: 2
#     Edge 18, Type (0, 1), BuildingBlock: UVAHIK_clean_linker_0, # of connection points: 2
#     Edge 19, Type (0, 1), BuildingBlock: UVAHIK_clean_linker_0, # of connection points: 2
#     Edge 20, Type (0, 1), BuildingBlock: UVAHIK_clean_linker_0, # of connection points: 2
#     Edge 21, Type (0, 1), BuildingBlock: UVAHIK_clean_linker_0, # of connection points: 2
#     Edge 22, Type (0, 1), BuildingBlock: UVAHIK_clean_linker_0, # of connection points: 2
#     Edge 23, Type (0, 1), BuildingBlock: UVAHIK_clean_linker_0, # of connection points: 2
#     Edge 24, Type (0, 1), BuildingBlock: UVAHIK_clean_linker_0, # of connection points: 2
#     Edge 25, Type (0, 1), BuildingBlock: UVAHIK_clean_linker_0, # of connection points: 2
#     Edge 26, Type (0, 1), BuildingBlock: UVAHIK_clean_linker_0, # of connection points: 2
#     Edge 27, Type (0, 1), BuildingBlock: UVAHIK_clean_linker_0, # of connection points: 2
#     Edge 28, Type (0, 1), BuildingBlock: UVAHIK_clean_linker_0, # of connection points: 2
#     Edge 29, Type (0, 1), BuildingBlock: UVAHIK_clean_linker_0, # of connection points: 2
#     Edge 30, Type (0, 1), BuildingBlock: UVAHIK_clean_linker_0, # of connection points: 2
#     Edge 31, Type (0, 1), BuildingBlock: UVAHIK_clean_linker_0, # of connection points: 2
#     Edge 32, Type (0, 1), BuildingBlock: UVAHIK_clean_linker_0, # of connection points: 2
#     Edge 33, Type (0, 1), BuildingBlock: UVAHIK_clean_linker_0, # of connection points: 2
#     Edge 34, Type (0, 1), BuildingBlock: UVAHIK_clean_linker_0, # of connection points: 2
#     Edge 35, Type (0, 1), BuildingBlock: UVAHIK_clean_linker_0, # of connection points: 2
#     Edge 36, Type (0, 1), BuildingBlock: UVAHIK_clean_linker_0, # of connection points: 2
#     Edge 37, Type (0, 1), BuildingBlock: UVAHIK_clean_linker_0, # of connection points: 2
# Relax obj value: 0.011
# Max RMSD: 0.131
# Mean RMSD: 0.057
data_MOF--net-pto--node1-OLANEW_clean_sbu_2--node2-NAWXER_clean_sbu_0--edge1-UVAHIK_clean_linker_0
_symmetry_space_group_name_H-M    P1
_symmetry_Int_Tables_number       1
_symmetry_cell_setting            triclinic
loop_
_symmetry_equiv_pos_as_xyz
'x, y, z'
_cell_length_a     57.567847
_cell_length_b     56.476422
_cell_length_c     51.933829
_cell_angle_alpha  93.039218
_cell_angle_beta   90.349155
_cell_angle_gamma 102.83575
loop_
_atom_site_label
_atom_site_type_symbol
_atom_site_fract_x
_atom_site_fract_y
_atom_site_fract_z
_atom_type_partial_charge
O0 O 0.39587 0.40167 0.28002 0.0
Cd1 Cd 0.39872 0.41277 0.32613 0.0
O2 O 0.36398 0.4165 0.27747 0.0
Cd3 Cd 0.33218 0.42561 0.26104 0.0
O4 O 0.29805 0.43659 0.2609 0.0
C5 C 0.28436 0.4339 0.24117 0.0
O6 O 0.2909 0.42435 0.21953 0.0
C7 C 0.37905 0.40613 0.26648 0.0
C8 C 0.39134 0.37123 0.35424 0.0
O9 O 0.37386 0.38024 0.34731 0.0
O10 O 0.41241 0.38204 0.34807 0.0
O11 O 0.31183 0.94173 0.86583 0.0
Cd12 Cd 0.28227 0.96261 0.85006 0.0
O13 O 0.29202 0.90719 0.84801 0.0
Cd14 Cd 0.28034 0.86886 0.83444 0.0
O15 O 0.25595 0.83489 0.82078 0.0
C16 C 0.2377 0.82751 0.8343 0.0
O17 O 0.23513 0.84001 0.85576 0.0
C18 C 0.30999 0.91906 0.86121 0.0
C19 C 0.29312 0.97843 0.80078 0.0
O20 O 0.30228 0.99138 0.82087 0.0
O21 O 0.27877 0.95798 0.804 0.0
O22 O 0.8058 0.76356 0.26735 0.0
Cd23 Cd 0.7954 0.72841 0.23665 0.0
O24 O 0.76823 0.75835 0.27829 0.0
Cd25 Cd 0.75406 0.73318 0.24583 0.0
O26 O 0.73206 0.73139 0.21117 0.0
C27 C 0.7342 0.7515 0.20052 0.0
O28 O 0.74995 0.7705 0.21012 0.0
C29 C 0.7899 0.76944 0.28166 0.0
C30 C 0.82387 0.69515 0.24319 0.0
O31 O 0.82862 0.71098 0.22607 0.0
O32 O 0.80568 0.69508 0.25731 0.0
O33 O 0.7892 0.33259 0.67391 0.0
Cd34 Cd 0.76064 0.29423 0.66459 0.0
O35 O 0.76853 0.33799 0.70795 0.0
Cd36 Cd 0.75541 0.35412 0.74269 0.0
O37 O 0.7293 0.35643 0.77272 0.0
C38 C 0.72896 0.37574 0.7863 0.0
O39 O 0.74532 0.39554 0.78279 0.0
C40 C 0.78643 0.34552 0.69392 0.0
C41 C 0.78329 0.25793 0.64682 0.0
O42 O 0.77545 0.27121 0.6311 0.0
O43 O 0.78041 0.26183 0.67101 0.0
O44 O 0.75286 0.7596 0.69272 0.0
Cd45 Cd 0.74201 0.72466 0.71979 0.0
O46 O 0.75721 0.78688 0.7252 0.0
Cd47 Cd 0.74195 0.7599 0.75252 0.0
O48 O 0.7118 0.74529 0.7766 0.0
C49 C 0.69252 0.75078 0.76973 0.0
O50 O 0.6925 0.76317 0.74902 0.0
C51 C 0.75837 0.78172 0.70119 0.0
C52 C 0.78185 0.71036 0.73913 0.0
O53 O 0.77347 0.70329 0.7164 0.0
O54 O 0.77141 0.72426 0.75286 0.0
O55 O 0.78849 0.27453 0.24418 0.0
Cd56 Cd 0.74837 0.25051 0.25167 0.0
O57 O 0.7769 0.29058 0.20997 0.0
Cd58 Cd 0.73856 0.27975 0.21533 0.0
O59 O 0.70757 0.29516 0.20875 0.0
C60 C 0.69015 0.28444 0.19425 0.0
O61 O 0.68975 0.26243 0.18441 0.0
C62 C 0.79347 0.28758 0.22488 0.0
C63 C 0.74922 0.21331 0.2849 0.0
O64 O 0.7533 0.21069 0.2608 0.0
O65 O 0.74468 0.2335 0.29336 0.0
O66 O 0.28369 0.40708 0.84056 0.0
Cd67 Cd 0.24571 0.38357 0.82257 0.0
O68 O 0.30368 0.403 0.80519 0.0
Cd69 Cd 0.27518 0.37823 0.78276 0.0
O70 O 0.26682 0.34862 0.7528 0.0
C71 C 0.2852 0.34283 0.74322 0.0
O72 O 0.30628 0.35473 0.75193 0.0
C73 C 0.30306 0.41161 0.82826 0.0
C74 C 0.21031 0.41031 0.82491 0.0
O75 O 0.21422 0.39809 0.84393 0.0
O76 O 0.22314 0.40988 0.80487 0.0
O77 O 0.30727 0.84494 0.23387 0.0
Cd78 Cd 0.27334 0.84917 0.26066 0.0
O79 O 0.2831 0.8263 0.20243 0.0
Cd80 Cd 0.24915 0.82729 0.22011 0.0
O81 O 0.21359 0.80385 0.2199 0.0
C82 C 0.20662 0.79267 0.19838 0.0
O83 O 0.22024 0.79744 0.17824 0.0
C84 C 0.3041 0.83416 0.21156 0.0
C85 C 0.28121 0.88991 0.29518 0.0
O86 O 0.28787 0.87056 0.30074 0.0
O87 O 0.27128 0.89021 0.27308 0.0
C88 C 0.99708 0.47829 0.2076 0.0
C89 C 0.04529 0.56097 0.20436 0.0
O90 O 0.0036 0.48847 0.22992 0.0
Zn91 Zn 0.02361 0.52241 0.24628 0.0
O92 O 0.00333 0.48985 0.18751 0.0
Zn93 Zn 0.02165 0.51939 0.20491 0.0
O94 O 0.05108 0.50801 0.22173 0.0
O95 O 0.04976 0.51325 0.26406 0.0
O96 O 0.03752 0.54642 0.1851 0.0
O97 O 0.04129 0.55388 0.22727 0.0
O98 O -0.00027 0.53509 0.26561 0.0
O99 O 0.99461 0.53429 0.2234 0.0
C100 C 0.05995 0.50661 0.24416 0.0
C101 C 0.9881 0.53948 0.24618 0.0
C102 C 0.98249 0.54796 0.75753 0.0
C103 C 0.04707 0.62006 0.77391 0.0
O104 O 0.98561 0.55504 0.78141 0.0
Zn105 Zn 0.0083 0.58286 0.80529 0.0
O106 O 0.99606 0.55932 0.74081 0.0
Zn107 Zn 0.01535 0.58367 0.76464 0.0
O108 O 0.03447 0.56267 0.78571 0.0
O109 O 0.02489 0.56419 0.82671 0.0
O110 O 0.04075 0.60895 0.75217 0.0
O111 O 0.03636 0.61202 0.79433 0.0
O112 O 0.98526 0.60025 0.81989 0.0
O113 O 0.98983 0.6035 0.77796 0.0
C114 C 0.03681 0.55653 0.80881 0.0
C115 C 0.97974 0.60846 0.79887 0.0
C116 C 0.32719 0.09448 0.56171 0.0
C117 C 0.34017 0.15458 0.49647 0.0
O118 O 0.30764 0.09665 0.55111 0.0
Zn119 Zn 0.29665 0.11783 0.52196 0.0
O120 O 0.3469 0.10712 0.55443 0.0
Zn121 Zn 0.33395 0.12381 0.52842 0.0
O122 O 0.31607 0.14692 0.55143 0.0
O123 O 0.27771 0.13665 0.5415 0.0
O124 O 0.35578 0.14716 0.50926 0.0
O125 O 0.31802 0.14507 0.49946 0.0
O126 O 0.28102 0.09367 0.49609 0.0
O127 O 0.31955 0.09528 0.49978 0.0
C128 C 0.29485 0.15004 0.55464 0.0
C129 C 0.29918 0.08577 0.48921 0.0
C130 C 0.55124 0.79283 0.03036 0.0
C131 C 0.48989 0.81718 0.97933 0.0
O132 O 0.53374 0.77504 0.02398 0.0
Zn133 Zn 0.50091 0.76881 0.00238 0.0
O134 O 0.5511 0.81395 0.02314 0.0
Zn135 Zn 0.52082 0.80549 0.00478 0.0
O136 O 0.49585 0.79606 0.03496 0.0
O137 O 0.4772 0.75763 0.02788 0.0
O138 O 0.50903 0.83066 0.98882 0.0
O139 O 0.48514 0.7943 0.9829 0.0
O140 O 0.50635 0.74635 0.97472 0.0
O141 O 0.52799 0.78373 0.97207 0.0
C142 C 0.48029 0.77749 0.04152 0.0
C143 C 0.52156 0.76168 0.96296 0.0
C144 C 0.78145 0.97359 0.52476 0.0
C145 C 0.77476 0.03088 0.45951 0.0
O146 O 0.7627 0.97899 0.51612 0.0
Zn147 Zn 0.77791 0.00245 0.49247 0.0
O148 O 0.80184 0.98419 0.51634 0.0
Zn149 Zn 0.81552 0.01101 0.48882 0.0
O150 O 0.8349 0.03758 0.50989 0.0
O151 O 0.79647 0.03179 0.51756 0.0
O152 O 0.79643 0.02965 0.46373 0.0
O153 O 0.75817 0.01817 0.47217 0.0
O154 O 0.79187 0.98023 0.46443 0.0
O155 O 0.83103 0.99273 0.46457 0.0
C156 C 0.81793 0.04352 0.52232 0.0
C157 C 0.8122 0.97822 0.45574 0.0
C158 C 0.54556 0.40015 0.04438 0.0
C159 C 0.50322 0.43642 0.98084 0.0
O160 O 0.53202 0.38459 0.02891 0.0
Zn161 Zn 0.50844 0.38358 0.99702 0.0
O162 O 0.54718 0.42273 0.04183 0.0
Zn163 Zn 0.52523 0.41936 0.01241 0.0
O164 O 0.49166 0.40355 0.02867 0.0
O165 O 0.47841 0.3665 0.01088 0.0
O166 O 0.51784 0.44792 0.99807 0.0
O167 O 0.4986 0.41312 0.97869 0.0
O168 O 0.52353 0.36829 0.96957 0.0
O169 O 0.54397 0.40506 0.98186 0.0
C170 C 0.47575 0.38366 0.02665 0.0
C171 C 0.54164 0.38559 0.96726 0.0
C172 C 0.24589 0.43826 0.22109 0.0
C173 C 0.26109 0.441 0.24283 0.0
C174 C 0.2238 0.44462 0.22279 0.0
C175 C 0.19016 0.48154 0.26233 0.0
H176 H 0.1356 0.44067 0.22579 0.0
C177 C 0.0946 0.49903 0.26987 0.0
C178 C 0.08213 0.49758 0.24627 0.0
C179 C 0.11602 0.49121 0.27115 0.0
C180 C 0.1507 0.45235 0.236 0.0
H181 H 0.265 0.45267 0.28343 0.0
H182 H 0.22639 0.46351 0.28642 0.0
H183 H 0.17393 0.42912 0.22448 0.0
H184 H 0.08227 0.48645 0.2056 0.0
H185 H 0.11937 0.47296 0.20787 0.0
H186 H 0.16684 0.50484 0.27369 0.0
C187 C 0.23165 0.45671 0.26798 0.0
C188 C 0.17269 0.44576 0.23518 0.0
C189 C 0.25375 0.45037 0.26627 0.0
C190 C 0.09136 0.48785 0.22412 0.0
C191 C 0.1126 0.47994 0.22543 0.0
C192 C 0.16811 0.48811 0.26319 0.0
C193 C 0.21637 0.45385 0.24628 0.0
C194 C 0.19277 0.46042 0.24807 0.0
C195 C 0.12525 0.48159 0.2489 0.0
C196 C 0.14821 0.47374 0.24974 0.0
H197 H 0.25102 0.4312 0.20271 0.0
H198 H 0.21264 0.44255 0.20559 0.0
H199 H 0.20531 0.49338 0.27226 0.0
H200 H 0.08797 0.50646 0.28727 0.0
H201 H 0.12531 0.49256 0.28955 0.0
C202 C 0.19919 0.79797 0.84111 0.0
C203 C 0.21894 0.80602 0.82555 0.0
C204 C 0.18086 0.77845 0.83264 0.0
C205 C 0.16606 0.72494 0.78653 0.0
H206 H 0.10131 0.72894 0.80267 0.0
C207 C 0.08235 0.64899 0.75604 0.0
C208 C 0.06649 0.64224 0.77624 0.0
C209 C 0.10103 0.6697 0.75915 0.0
C210 C 0.11929 0.72754 0.79805 0.0
H211 H 0.23508 0.79959 0.78895 0.0
H212 H 0.20287 0.76551 0.77403 0.0
H213 H 0.13402 0.76355 0.81367 0.0
H214 H 0.05763 0.65215 0.81534 0.0
H215 H 0.08984 0.68804 0.82057 0.0
H216 H 0.15111 0.6887 0.77109 0.0
C217 C 0.2017 0.77424 0.79291 0.0
C218 C 0.13806 0.74733 0.80444 0.0
C219 C 0.22011 0.79382 0.80143 0.0
C220 C 0.06951 0.65676 0.79938 0.0
C221 C 0.0879 0.67747 0.80234 0.0
C222 C 0.14719 0.70511 0.78002 0.0
C223 C 0.18173 0.76649 0.80833 0.0
C224 C 0.16174 0.7461 0.79934 0.0
C225 C 0.10391 0.68418 0.78234 0.0
C226 C 0.12368 0.70603 0.78627 0.0
H227 H 0.19775 0.80682 0.85986 0.0
H228 H 0.16602 0.77265 0.84527 0.0
H229 H 0.18409 0.72335 0.78243 0.0
H230 H 0.08052 0.63814 0.73801 0.0
H231 H 0.11309 0.67451 0.74338 0.0
C232 C 0.83844 0.66503 0.2692 0.0
C233 C 0.83877 0.67726 0.24626 0.0
C234 C 0.85255 0.64804 0.27193 0.0
C235 C 0.8795 0.60533 0.23507 0.0
H236 H 0.92753 0.61393 0.28953 0.0
C237 C 0.95777 0.55896 0.22698 0.0
C238 C 0.96797 0.55177 0.24909 0.0
C239 C 0.93978 0.57179 0.22905 0.0
C240 C 0.91387 0.6109 0.27453 0.0
H241 H 0.85389 0.68117 0.20817 0.0
H242 H 0.87798 0.65101 0.21272 0.0
H243 H 0.90002 0.6413 0.28882 0.0
H244 H 0.96683 0.55204 0.29081 0.0
H245 H 0.93474 0.57413 0.29447 0.0
H246 H 0.89288 0.57492 0.22077 0.0
C247 C 0.867 0.65477 0.22862 0.0
C248 C 0.89824 0.62666 0.27409 0.0
C249 C 0.85332 0.67209 0.22609 0.0
C250 C 0.95935 0.55735 0.27342 0.0
C251 C 0.94108 0.57013 0.27549 0.0
C252 C 0.89479 0.58935 0.23573 0.0
C253 C 0.86676 0.64263 0.25156 0.0
C254 C 0.8814 0.62439 0.25393 0.0
C255 C 0.93117 0.57763 0.25329 0.0
C256 C 0.9127 0.5924 0.25498 0.0
H257 H 0.82744 0.66872 0.2851 0.0
H258 H 0.85209 0.63885 0.28978 0.0
H259 H 0.86638 0.60301 0.21956 0.0
H260 H 0.96403 0.55518 0.2079 0.0
H261 H 0.9331 0.57773 0.21154 0.0
C262 C 0.81836 0.38006 0.68076 0.0
C263 C 0.80413 0.36845 0.70033 0.0
C264 C 0.83674 0.40038 0.68664 0.0
C265 C 0.87722 0.42892 0.73983 0.0
H266 H 0.89121 0.4842 0.69674 0.0
C267 C 0.94789 0.51533 0.76915 0.0
C268 C 0.9626 0.52711 0.75001 0.0
C269 C 0.9286 0.49617 0.76259 0.0
C270 C 0.88773 0.46875 0.70876 0.0
H271 H 0.79808 0.36911 0.74148 0.0
H272 H 0.82995 0.40491 0.75176 0.0
H273 H 0.85642 0.45129 0.68676 0.0
H274 H 0.9686 0.52779 0.70885 0.0
H275 H 0.93488 0.49392 0.69734 0.0
H276 H 0.90856 0.44617 0.76169 0.0
C277 C 0.82686 0.39821 0.73182 0.0
C278 C 0.86774 0.44995 0.70311 0.0
C279 C 0.80836 0.37791 0.7259 0.0
C280 C 0.95762 0.51911 0.72406 0.0
C281 C 0.93822 0.49982 0.71746 0.0
C282 C 0.89721 0.44766 0.74542 0.0
C283 C 0.84146 0.40946 0.71228 0.0
C284 C 0.86223 0.42985 0.71863 0.0
C285 C 0.92347 0.48816 0.7367 0.0
C286 C 0.90266 0.46785 0.73004 0.0
H287 H 0.81558 0.37317 0.66085 0.0
H288 H 0.84778 0.40843 0.67117 0.0
H289 H 0.87377 0.41346 0.75183 0.0
H290 H 0.95108 0.52103 0.78935 0.0
H291 H 0.91742 0.48791 0.77787 0.0
C292 C 0.4065 0.34002 0.37799 0.0
C293 C 0.38723 0.34887 0.36874 0.0
C294 C 0.40251 0.31883 0.39162 0.0
C295 C 0.3561 0.27914 0.42854 0.0
H296 H 0.3948 0.2316 0.41665 0.0
C297 C 0.32931 0.1839 0.46677 0.0
C298 C 0.34706 0.17518 0.47955 0.0
C299 C 0.33528 0.20467 0.4527 0.0
C300 C 0.38401 0.24483 0.42032 0.0
H301 H 0.34868 0.34228 0.36629 0.0
H302 H 0.34173 0.3052 0.38961 0.0
H303 H 0.40315 0.26901 0.39338 0.0
H304 H 0.38512 0.18096 0.48673 0.0
H305 H 0.39556 0.21739 0.46193 0.0
H306 H 0.33679 0.2549 0.45519 0.0
C307 C 0.35993 0.31484 0.38681 0.0
C308 C 0.3888 0.26627 0.40705 0.0
C309 C 0.36392 0.33605 0.3733 0.0
C310 C 0.37103 0.18723 0.47713 0.0
C311 C 0.37702 0.20804 0.4629 0.0
C312 C 0.35125 0.25772 0.44164 0.0
C313 C 0.37917 0.30601 0.39623 0.0
C314 C 0.37475 0.28357 0.41086 0.0
C315 C 0.35912 0.21721 0.45098 0.0
C316 C 0.365 0.24024 0.43751 0.0
H317 H 0.42469 0.34952 0.37482 0.0
H318 H 0.41772 0.31268 0.39885 0.0
H319 H 0.34528 0.29231 0.43239 0.0
H320 H 0.31067 0.175 0.46806 0.0
H321 H 0.32114 0.21106 0.44333 0.0
C322 C 0.35057 0.9225 0.8802 0.0
C323 C 0.3288 0.90759 0.87121 0.0
C324 C 0.3683 0.91246 0.89072 0.0
C325 C 0.38977 0.856 0.89325 0.0
H326 H 0.42173 0.88712 0.95623 0.0
C327 C 0.45207 0.81233 0.95361 0.0
C328 C 0.47265 0.82764 0.96491 0.0
C329 C 0.4351 0.82205 0.94105 0.0
C330 C 0.41324 0.87841 0.93844 0.0
H331 H 0.30862 0.87027 0.86688 0.0
H332 H 0.33983 0.85266 0.88475 0.0
H333 H 0.3907 0.90373 0.93659 0.0
H334 H 0.49175 0.86519 0.9714 0.0
H335 H 0.46218 0.88217 0.94925 0.0
H336 H 0.41237 0.83068 0.8951 0.0
C337 C 0.34317 0.87218 0.88328 0.0
C338 C 0.39541 0.88789 0.92723 0.0
C339 C 0.3253 0.88228 0.87287 0.0
C340 C 0.47608 0.85289 0.96295 0.0
C341 C 0.45905 0.86263 0.95041 0.0
C342 C 0.40768 0.84654 0.90444 0.0
C343 C 0.36478 0.88722 0.89252 0.0
C344 C 0.38349 0.87682 0.9045 0.0
C345 C 0.43827 0.84732 0.93949 0.0
C346 C 0.41962 0.85764 0.92718 0.0
H347 H 0.35398 0.94208 0.87919 0.0
H348 H 0.38486 0.92452 0.89735 0.0
H349 H 0.38111 0.84725 0.87557 0.0
H350 H 0.44885 0.79278 0.95473 0.0
H351 H 0.41919 0.80976 0.93311 0.0
C352 C 0.81941 0.80431 0.30385 0.0
C353 C 0.79594 0.79039 0.30075 0.0
C354 C 0.82431 0.82561 0.31994 0.0
C355 C 0.79487 0.87281 0.34469 0.0
H356 H 0.84393 0.88798 0.39831 0.0
C357 C 0.79206 0.94301 0.42672 0.0
C358 C 0.81329 0.95862 0.43602 0.0
C359 C 0.79259 0.92401 0.40869 0.0
C360 C 0.83045 0.88421 0.3831 0.0
H361 H 0.75945 0.78735 0.31307 0.0
H362 H 0.76801 0.82431 0.34084 0.0
H363 H 0.84028 0.8511 0.37004 0.0
H364 H 0.85182 0.96655 0.43354 0.0
H365 H 0.85273 0.9332 0.40163 0.0
H366 H 0.78482 0.90558 0.35758 0.0
C367 C 0.78255 0.81895 0.33063 0.0
C368 C 0.82833 0.86309 0.36701 0.0
C369 C 0.7777 0.79769 0.31481 0.0
C370 C 0.83515 0.95484 0.42672 0.0
C371 C 0.83568 0.9357 0.40857 0.0
C372 C 0.79707 0.89388 0.36055 0.0
C373 C 0.80577 0.83339 0.33294 0.0
C374 C 0.81007 0.8569 0.34817 0.0
C375 C 0.81437 0.92012 0.39935 0.0
C376 C 0.8144 0.89947 0.38043 0.0
H377 H 0.83387 0.79915 0.29333 0.0
H378 H 0.84237 0.83644 0.32147 0.0
H379 H 0.78097 0.86872 0.32992 0.0
H380 H 0.77489 0.94525 0.43353 0.0
H381 H 0.77586 0.91206 0.40241 0.0
C382 C 0.70926 0.39724 0.82038 0.0
C383 C 0.70982 0.37601 0.80524 0.0
C384 C 0.69083 0.39765 0.8377 0.0
C385 C 0.64333 0.35759 0.87324 0.0
H386 H 0.61675 0.41496 0.87889 0.0
C387 C 0.55915 0.36208 0.9328 0.0
C388 C 0.56016 0.38363 0.94804 0.0
C389 C 0.57696 0.36052 0.91492 0.0
C390 C 0.6241 0.39888 0.87771 0.0
H391 H 0.69147 0.33846 0.79661 0.0
H392 H 0.65923 0.33928 0.82657 0.0
H393 H 0.6489 0.4135 0.84901 0.0
H394 H 0.58074 0.42044 0.95637 0.0
H395 H 0.61163 0.41765 0.92545 0.0
H396 H 0.61843 0.343 0.90198 0.0
C397 C 0.67319 0.35554 0.82531 0.0
C398 C 0.64259 0.39806 0.86061 0.0
C399 C 0.69164 0.35512 0.80801 0.0
C400 C 0.57931 0.40356 0.94494 0.0
C401 C 0.597 0.40203 0.92706 0.0
C402 C 0.62478 0.35839 0.89033 0.0
C403 C 0.67248 0.37685 0.84027 0.0
C404 C 0.65255 0.37748 0.85827 0.0
C405 C 0.59606 0.38052 0.91182 0.0
C406 C 0.61507 0.37913 0.8929 0.0
H407 H 0.72303 0.41361 0.81883 0.0
H408 H 0.69105 0.41425 0.84923 0.0
H409 H 0.65076 0.34156 0.87214 0.0
H410 H 0.54465 0.34639 0.93471 0.0
H411 H 0.57563 0.34375 0.90331 0.0
C412 C 0.3175 0.00712 0.77099 0.0
C413 C 0.29862 0.98708 0.77466 0.0
C414 C 0.32214 0.01587 0.74644 0.0
C415 C 0.29209 0.02021 0.68588 0.0
H416 H 0.35556 0.03681 0.65784 0.0
C417 C 0.30639 0.05931 0.58615 0.0
C418 C 0.32638 0.07832 0.58327 0.0
C419 C 0.30433 0.04547 0.60784 0.0
C420 C 0.33775 0.03253 0.66549 0.0
H421 H 0.27008 0.96026 0.75544 0.0
H422 H 0.27794 0.9759 0.71262 0.0
H423 H 0.34956 0.01802 0.69932 0.0
H424 H 0.36024 0.09735 0.60041 0.0
H425 H 0.35629 0.07387 0.63882 0.0
H426 H 0.28024 0.03557 0.65297 0.0
C427 C 0.28916 0.98472 0.72876 0.0
C428 C 0.33434 0.02167 0.68918 0.0
C429 C 0.28472 0.97575 0.75323 0.0
C430 C 0.34468 0.08271 0.60208 0.0
C431 C 0.34243 0.06914 0.62406 0.0
C432 C 0.29552 0.03136 0.66244 0.0
C433 C 0.30779 0.00497 0.72517 0.0
C434 C 0.31147 0.01548 0.6996 0.0
C435 C 0.32199 0.05063 0.62746 0.0
C436 C 0.3184 0.03774 0.65192 0.0
H437 H 0.32859 0.01617 0.78711 0.0
H438 H 0.3365 0.03163 0.74422 0.0
H439 H 0.27432 0.01597 0.69369 0.0
H440 H 0.29215 0.0553 0.57177 0.0
H441 H 0.28866 0.03094 0.60938 0.0
C442 C 0.71927 0.77715 0.16928 0.0
C443 C 0.7177 0.7543 0.1795 0.0
C444 C 0.70242 0.78053 0.15118 0.0
C445 C 0.64061 0.75462 0.12966 0.0
H446 H 0.657 0.79683 0.07288 0.0
C447 C 0.57098 0.76482 0.05366 0.0
C448 C 0.57125 0.7884 0.04605 0.0
C449 C 0.58952 0.76037 0.06873 0.0
C450 C 0.65215 0.78518 0.0888 0.0
H451 H 0.69777 0.71682 0.17793 0.0
H452 H 0.66851 0.72266 0.14606 0.0
H453 H 0.68856 0.78884 0.10054 0.0
H454 H 0.59142 0.8258 0.04813 0.0
H455 H 0.62382 0.81802 0.07474 0.0
H456 H 0.60424 0.75106 0.11808 0.0
C457 C 0.68255 0.73807 0.15241 0.0
C458 C 0.67021 0.78056 0.10461 0.0
C459 C 0.69941 0.73468 0.17054 0.0
C460 C 0.59067 0.80743 0.05367 0.0
C461 C 0.60929 0.80295 0.06878 0.0
C462 C 0.62259 0.7592 0.11385 0.0
C463 C 0.68363 0.76114 0.14285 0.0
C464 C 0.66463 0.76528 0.12527 0.0
C465 C 0.60882 0.77938 0.0766 0.0
C466 C 0.62813 0.77456 0.09327 0.0
H467 H 0.73315 0.79265 0.17575 0.0
H468 H 0.70366 0.79858 0.14442 0.0
H469 H 0.63565 0.74316 0.14571 0.0
H470 H 0.55639 0.74968 0.04803 0.0
H471 H 0.5888 0.74194 0.07409 0.0
C472 C 0.79546 0.23249 0.61067 0.0
C473 C 0.79469 0.2382 0.63726 0.0
C474 C 0.80474 0.21284 0.60162 0.0
C475 C 0.81407 0.15446 0.62235 0.0
H476 H 0.84413 0.15314 0.55583 0.0
C477 C 0.80383 0.06801 0.55769 0.0
C478 C 0.82221 0.06463 0.54119 0.0
C479 C 0.80625 0.08923 0.57337 0.0
C480 C 0.83621 0.15326 0.57469 0.0
H481 H 0.80404 0.22844 0.67518 0.0
H482 H 0.82054 0.19429 0.65934 0.0
H483 H 0.8387 0.19167 0.57542 0.0
H484 H 0.85807 0.08033 0.52915 0.0
H485 H 0.86233 0.11768 0.55674 0.0
H486 H 0.81129 0.11603 0.62146 0.0
C487 C 0.81358 0.20476 0.64551 0.0
C488 C 0.8328 0.17531 0.58576 0.0
C489 C 0.80418 0.22437 0.65458 0.0
C490 C 0.84358 0.08246 0.54164 0.0
C491 C 0.84597 0.10387 0.55731 0.0
C492 C 0.81758 0.13246 0.61134 0.0
C493 C 0.81359 0.19849 0.61893 0.0
C494 C 0.82091 0.17602 0.60927 0.0
C495 C 0.8271 0.10767 0.57295 0.0
C496 C 0.82787 0.13147 0.58695 0.0
H497 H 0.7883 0.24278 0.59681 0.0
H498 H 0.80409 0.20834 0.58106 0.0
H499 H 0.80478 0.15426 0.64043 0.0
H500 H 0.78717 0.05457 0.55793 0.0
H501 H 0.79123 0.09164 0.58487 0.0
C502 C 0.3868 0.37969 0.2291 0.0
C503 C 0.37786 0.39963 0.23851 0.0
C504 C 0.38907 0.37526 0.20265 0.0
C505 C 0.40247 0.40935 0.14591 0.0
H506 H 0.39225 0.34594 0.10972 0.0
C507 C 0.44403 0.40071 0.04759 0.0
C508 C 0.45509 0.3811 0.04363 0.0
C509 C 0.4277 0.40081 0.06731 0.0
C510 C 0.39534 0.36378 0.11955 0.0
H511 H 0.36362 0.43016 0.22761 0.0
H512 H 0.36785 0.42257 0.18118 0.0
H513 H 0.37565 0.3499 0.15256 0.0
H514 H 0.45711 0.34569 0.05613 0.0
H515 H 0.42946 0.34622 0.09154 0.0
H516 H 0.42347 0.4232 0.11419 0.0
C517 C 0.37284 0.41024 0.19437 0.0
C518 C 0.38569 0.36604 0.14401 0.0
C519 C 0.37024 0.41447 0.2209 0.0
C520 C 0.44858 0.36091 0.05873 0.0
C521 C 0.43266 0.36126 0.07898 0.0
C522 C 0.41239 0.40708 0.12171 0.0
C523 C 0.38281 0.39092 0.18504 0.0
C524 C 0.38957 0.38879 0.15763 0.0
C525 C 0.42266 0.38164 0.08412 0.0
C526 C 0.40939 0.38419 0.10836 0.0
H527 H 0.39278 0.36794 0.24228 0.0
H528 H 0.39706 0.36041 0.19609 0.0
H529 H 0.40613 0.42706 0.15611 0.0
H530 H 0.44868 0.41641 0.03597 0.0
H531 H 0.41981 0.41645 0.07002 0.0
C532 C 0.80839 0.70434 0.77564 0.0
C533 C 0.80306 0.70276 0.74905 0.0
C534 C 0.82837 0.69683 0.78484 0.0
C535 C 0.88711 0.6891 0.7657 0.0
H536 H 0.88044 0.63897 0.8151 0.0
C537 C 0.95587 0.63128 0.77372 0.0
C538 C 0.96125 0.62295 0.79759 0.0
C539 C 0.93781 0.64386 0.77142 0.0
C540 C 0.88275 0.65336 0.80174 0.0
H541 H 0.81457 0.69233 0.71127 0.0
H542 H 0.84969 0.67983 0.72728 0.0
H543 H 0.84613 0.65584 0.80434 0.0
H544 H 0.95196 0.62171 0.83796 0.0
H545 H 0.92031 0.64419 0.83399 0.0
H546 H 0.92354 0.68683 0.7629 0.0
C547 C 0.83834 0.68671 0.74099 0.0
C548 C 0.86308 0.66292 0.79552 0.0
C549 C 0.81818 0.69374 0.73185 0.0
C550 C 0.94827 0.6279 0.8193 0.0
C551 C 0.93007 0.64065 0.81699 0.0
C552 C 0.90678 0.67984 0.77214 0.0
C553 C 0.84361 0.68813 0.76755 0.0
C554 C 0.86495 0.68033 0.77685 0.0
C555 C 0.92461 0.64871 0.79294 0.0
C556 C 0.90468 0.66124 0.78955 0.0
H557 H 0.79699 0.71114 0.78935 0.0
H558 H 0.8321 0.69812 0.8054 0.0
H559 H 0.88909 0.70282 0.75157 0.0
H560 H 0.96536 0.62776 0.75649 0.0
H561 H 0.93381 0.64922 0.75247 0.0
C562 C 0.82372 0.31373 0.19806 0.0
C563 C 0.81826 0.30078 0.22046 0.0
C564 C 0.84629 0.32856 0.19504 0.0
C565 C 0.89549 0.36469 0.23438 0.0
H566 H 0.92737 0.3745 0.16894 0.0
C567 C 0.98029 0.43888 0.227 0.0
C568 C 0.9814 0.45369 0.20595 0.0
C569 C 0.96348 0.41692 0.22729 0.0
C570 C 0.91862 0.37205 0.18732 0.0
H571 H 0.8327 0.29225 0.25662 0.0
H572 H 0.87222 0.31822 0.25131 0.0
H573 H 0.89232 0.34126 0.17227 0.0
H574 H 0.96658 0.45659 0.16811 0.0
H575 H 0.93663 0.41842 0.16885 0.0
H576 H 0.921 0.39585 0.2493 0.0
C577 C 0.85887 0.31704 0.23622 0.0
C578 C 0.8986 0.35298 0.18924 0.0
C579 C 0.83627 0.30208 0.23921 0.0
C580 C 0.96613 0.44551 0.18458 0.0
C581 C 0.94904 0.42359 0.18499 0.0
C582 C 0.91537 0.38376 0.23244 0.0
C583 C 0.86393 0.33087 0.21437 0.0
C584 C 0.88665 0.3493 0.21274 0.0
C585 C 0.94712 0.40937 0.20669 0.0
C586 C 0.92705 0.38787 0.20884 0.0
H587 H 0.81031 0.31304 0.18315 0.0
H588 H 0.84953 0.33913 0.1781 0.0
H589 H 0.88643 0.36268 0.25262 0.0
H590 H 0.99209 0.44452 0.2436 0.0
H591 H 0.96293 0.40614 0.244 0.0
C592 C 0.18529 0.43494 0.80367 0.0
C593 C 0.19138 0.42431 0.82586 0.0
C594 C 0.16715 0.44776 0.80427 0.0
C595 C 0.13391 0.48139 0.84715 0.0
H596 H 0.089 0.47045 0.78949 0.0
C597 C 0.05621 0.53213 0.83842 0.0
C598 C 0.05331 0.54044 0.8138 0.0
C599 C 0.0717 0.51655 0.84223 0.0
C600 C 0.10147 0.47383 0.80568 0.0
H601 H 0.1834 0.41911 0.86622 0.0
H602 H 0.15173 0.44176 0.86726 0.0
H603 H 0.11888 0.44611 0.79162 0.0
H604 H 0.06478 0.53919 0.77404 0.0
H605 H 0.09159 0.5126 0.78075 0.0
H606 H 0.11677 0.50962 0.86082 0.0
C607 C 0.16104 0.44009 0.84943 0.0
C608 C 0.11858 0.45987 0.80689 0.0
C609 C 0.17909 0.42705 0.84878 0.0
C610 C 0.06635 0.53305 0.79326 0.0
C611 C 0.08167 0.5176 0.79704 0.0
C612 C 0.11679 0.49551 0.84588 0.0
C613 C 0.15476 0.4504 0.8271 0.0
C614 C 0.13532 0.46385 0.82731 0.0
C615 C 0.08442 0.50895 0.82147 0.0
C616 C 0.10075 0.49225 0.82478 0.0
H617 H 0.19442 0.43324 0.78572 0.0
H618 H 0.16295 0.4558 0.78684 0.0
H619 H 0.14664 0.48489 0.8631 0.0
H620 H 0.04645 0.5375 0.85464 0.0
H621 H 0.07344 0.51015 0.86129 0.0
C622 C 0.17203 0.76553 0.21874 0.0
C623 C 0.18545 0.77223 0.19674 0.0
C624 C 0.15414 0.74426 0.218 0.0
C625 C 0.11681 0.69596 0.1748 0.0
H626 H 0.11998 0.65623 0.23279 0.0
C627 C 0.06842 0.59368 0.17734 0.0
C628 C 0.05868 0.58616 0.2011 0.0
C629 C 0.08222 0.61732 0.17538 0.0
C630 C 0.11861 0.6672 0.21659 0.0
H631 H 0.18962 0.76262 0.15626 0.0
H632 H 0.15859 0.72538 0.15511 0.0
H633 H 0.14599 0.6964 0.23226 0.0
H634 H 0.05461 0.59793 0.241 0.0
H635 H 0.07811 0.63883 0.23744 0.0
H636 H 0.08944 0.6664 0.1591 0.0
C637 C 0.1618 0.73663 0.17288 0.0
C638 C 0.1335 0.69028 0.21633 0.0
C639 C 0.17968 0.75793 0.1736 0.0
C640 C 0.06221 0.60295 0.2225 0.0
C641 C 0.07577 0.62643 0.22051 0.0
C642 C 0.1018 0.67276 0.17509 0.0
C643 C 0.14931 0.72921 0.19527 0.0
C644 C 0.13273 0.70499 0.19552 0.0
C645 C 0.08638 0.63378 0.19712 0.0
C646 C 0.10247 0.6582 0.19609 0.0
H647 H 0.17586 0.77627 0.2368 0.0
H648 H 0.14448 0.73926 0.23545 0.0
H649 H 0.11578 0.70692 0.15852 0.0
H650 H 0.06592 0.58116 0.16051 0.0
H651 H 0.09023 0.62245 0.1571 0.0
C652 C 0.76961 0.82599 0.69226 0.0
C653 C 0.76436 0.80149 0.68303 0.0
C654 C 0.77302 0.84467 0.67511 0.0
C655 C 0.75738 0.85655 0.60894 0.0
H656 H 0.80505 0.91651 0.62139 0.0
C657 C 0.75772 0.94178 0.55208 0.0
C658 C 0.77993 0.95466 0.54378 0.0
C659 C 0.75639 0.92329 0.56926 0.0
C660 C 0.79174 0.89982 0.61755 0.0
H661 H 0.75941 0.77747 0.64845 0.0
H662 H 0.76558 0.81009 0.61857 0.0
H663 H 0.80294 0.88347 0.65035 0.0
H664 H 0.81818 0.95835 0.54731 0.0
H665 H 0.81582 0.92609 0.57712 0.0
H666 H 0.74634 0.87276 0.576 0.0
C667 C 0.7667 0.81482 0.6391 0.0
C668 C 0.7904 0.88097 0.63428 0.0
C669 C 0.76334 0.79613 0.65624 0.0
C670 C 0.80077 0.94884 0.55332 0.0
C671 C 0.79944 0.93041 0.57054 0.0
C672 C 0.75868 0.87541 0.59227 0.0
C673 C 0.77123 0.8393 0.64834 0.0
C674 C 0.77318 0.85912 0.63018 0.0
C675 C 0.77724 0.91731 0.57859 0.0
C676 C 0.77584 0.89729 0.5964 0.0
H677 H 0.77051 0.83079 0.71277 0.0
H678 H 0.77628 0.86332 0.68288 0.0
H679 H 0.74372 0.84007 0.60541 0.0
H680 H 0.74133 0.94583 0.54515 0.0
H681 H 0.73902 0.91377 0.57536 0.0
C682 C 0.6756 0.32297 0.1919 0.0
C683 C 0.67227 0.29783 0.18592 0.0
C684 C 0.66027 0.33619 0.18154 0.0
C685 C 0.60141 0.33008 0.14989 0.0
H686 H 0.63196 0.3877 0.11518 0.0
C687 C 0.55534 0.36605 0.06769 0.0
C688 C 0.55889 0.39123 0.0649 0.0
C689 C 0.5679 0.357 0.0864 0.0
C690 C 0.62308 0.37197 0.12521 0.0
H691 H 0.64956 0.2667 0.16535 0.0
H692 H 0.62276 0.28974 0.14743 0.0
H693 H 0.65591 0.3672 0.14145 0.0
H694 H 0.57832 0.42669 0.07995 0.0
H695 H 0.60044 0.41073 0.11296 0.0
H696 H 0.56866 0.33451 0.1333 0.0
C697 C 0.63722 0.29922 0.16013 0.0
C698 C 0.63681 0.36019 0.14023 0.0
C699 C 0.65266 0.28603 0.1703 0.0
C700 C 0.57522 0.4072 0.08157 0.0
C701 C 0.58791 0.39806 0.1004 0.0
C702 C 0.58768 0.34191 0.13502 0.0
C703 C 0.64115 0.32452 0.16522 0.0
C704 C 0.62619 0.33874 0.15215 0.0
C705 C 0.58438 0.37282 0.10297 0.0
C706 C 0.59845 0.36257 0.12187 0.0
H707 H 0.69051 0.33263 0.20391 0.0
H708 H 0.66358 0.35562 0.186 0.0
H709 H 0.59268 0.31385 0.15924 0.0
H710 H 0.54294 0.35315 0.05521 0.0
H711 H 0.56507 0.33746 0.08743 0.0
C712 C 0.30413 0.31782 0.71226 0.0
C713 C 0.28331 0.32322 0.72266 0.0
C714 C 0.30281 0.29953 0.69283 0.0
C715 C 0.2637 0.24399 0.66346 0.0
H716 H 0.30961 0.25502 0.60859 0.0
C717 C 0.26786 0.17283 0.57865 0.0
C718 C 0.2909 0.16964 0.57312 0.0
C719 C 0.26464 0.1918 0.59584 0.0
C720 C 0.29673 0.25161 0.62383 0.0
H721 H 0.24469 0.31347 0.72083 0.0
H722 H 0.24239 0.28139 0.68662 0.0
H723 H 0.30798 0.28789 0.64031 0.0
H724 H 0.32858 0.1838 0.58154 0.0
H725 H 0.32296 0.21659 0.61126 0.0
H726 H 0.25271 0.2075 0.64696 0.0
C727 C 0.25974 0.29132 0.69371 0.0
C728 C 0.2958 0.27044 0.64204 0.0
C729 C 0.26106 0.30976 0.71321 0.0
C730 C 0.31057 0.18571 0.58524 0.0
C731 C 0.30738 0.20465 0.60219 0.0
C732 C 0.26459 0.22509 0.64513 0.0
C733 C 0.28064 0.28612 0.6832 0.0
C734 C 0.27969 0.26671 0.66244 0.0
C735 C 0.28442 0.20805 0.60759 0.0
C736 C 0.28152 0.22857 0.62548 0.0
H737 H 0.32157 0.3277 0.71913 0.0
H738 H 0.31926 0.29569 0.68555 0.0
H739 H 0.25116 0.2405 0.67901 0.0
H740 H 0.25233 0.16074 0.56965 0.0
H741 H 0.24674 0.19401 0.5996 0.0
C742 C 0.32008 0.81184 0.17554 0.0
C743 C 0.32443 0.82893 0.1967 0.0
C744 C 0.3389 0.80552 0.16213 0.0
C745 C 0.40037 0.82753 0.14484 0.0
H746 H 0.39893 0.75932 0.12877 0.0
C747 C 0.47287 0.79913 0.08271 0.0
C748 C 0.4652 0.78012 0.06391 0.0
C749 C 0.45767 0.80372 0.10226 0.0
C750 C 0.39952 0.77845 0.13286 0.0
H751 H 0.35206 0.85308 0.2201 0.0
H752 H 0.38518 0.84238 0.196 0.0
H753 H 0.36855 0.77071 0.15632 0.0
H754 H 0.43591 0.75048 0.0513 0.0
H755 H 0.409 0.75893 0.08488 0.0
H756 H 0.43053 0.83546 0.12048 0.0
C757 C 0.36705 0.83378 0.19013 0.0
C758 C 0.38219 0.78494 0.14876 0.0
C759 C 0.34813 0.83988 0.20388 0.0
C760 C 0.44234 0.76517 0.06563 0.0
C761 C 0.42696 0.77 0.08498 0.0
C762 C 0.41753 0.82106 0.12865 0.0
C763 C 0.36255 0.81633 0.16931 0.0
C764 C 0.38226 0.80953 0.15459 0.0
C765 C 0.43427 0.78968 0.10324 0.0
C766 C 0.41715 0.79643 0.12216 0.0
H767 H 0.30207 0.80296 0.1695 0.0
H768 H 0.33494 0.79228 0.14593 0.0
H769 H 0.40066 0.84662 0.14883 0.0
H770 H 0.49053 0.81078 0.08204 0.0
H771 H 0.46416 0.81861 0.11633 0.0
C772 C 0.76229 0.17552 0.29555 0.0
C773 C 0.74992 0.19364 0.30241 0.0
C774 C 0.76337 0.15716 0.31225 0.0
C775 C 0.75324 0.1412 0.3809 0.0
H776 H 0.75835 0.07751 0.35302 0.0
C777 C 0.74914 0.05744 0.4427 0.0
C778 C 0.76944 0.04756 0.44042 0.0
C779 C 0.74511 0.07448 0.42556 0.0
C780 C 0.7569 0.09523 0.36101 0.0
H781 H 0.72848 0.20646 0.33188 0.0
H782 H 0.72931 0.17385 0.3605 0.0
H783 H 0.75376 0.10858 0.32374 0.0
H784 H 0.80101 0.04714 0.41799 0.0
H785 H 0.79348 0.07629 0.38753 0.0
H786 H 0.75569 0.12728 0.41823 0.0
C787 C 0.73898 0.17418 0.34267 0.0
C788 C 0.75448 0.11317 0.34428 0.0
C789 C 0.73833 0.19284 0.32617 0.0
C790 C 0.78525 0.0545 0.42026 0.0
C791 C 0.78092 0.07108 0.40279 0.0
C792 C 0.75515 0.12307 0.39761 0.0
C793 C 0.75165 0.15613 0.33605 0.0
C794 C 0.75298 0.13657 0.35395 0.0
C795 C 0.76099 0.08145 0.40549 0.0
C796 C 0.75731 0.10005 0.3878 0.0
H797 H 0.77158 0.17579 0.27745 0.0
H798 H 0.77378 0.14404 0.3066 0.0
H799 H 0.75259 0.15902 0.38922 0.0
H800 H 0.73673 0.0525 0.45814 0.0
H801 H 0.72959 0.08222 0.42795 0.0
C802 C 0.34689 0.42982 0.8277 0.0
C803 C 0.32545 0.42514 0.84129 0.0
C804 C 0.36856 0.43946 0.84059 0.0
C805 C 0.39673 0.46831 0.90247 0.0
H806 H 0.44294 0.42943 0.88646 0.0
C807 C 0.46925 0.45569 0.97407 0.0
C808 C 0.48968 0.449 0.9644 0.0
C809 C 0.45205 0.46044 0.95715 0.0
C810 C 0.43067 0.44103 0.89086 0.0
H811 H 0.30986 0.4285 0.87887 0.0
H812 H 0.34775 0.4451 0.90142 0.0
H813 H 0.4071 0.42368 0.8602 0.0
H814 H 0.50925 0.44356 0.93004 0.0
H815 H 0.47997 0.45321 0.90043 0.0
H816 H 0.4202 0.48523 0.93364 0.0
C817 C 0.34776 0.44143 0.88073 0.0
C818 C 0.40997 0.43762 0.87576 0.0
C819 C 0.32604 0.43176 0.86782 0.0
C820 C 0.49369 0.44899 0.93784 0.0
C821 C 0.47673 0.45416 0.92094 0.0
C822 C 0.41763 0.47188 0.91754 0.0
C823 C 0.36932 0.44467 0.86738 0.0
C824 C 0.39251 0.45082 0.88169 0.0
C825 C 0.45509 0.45864 0.93028 0.0
C826 C 0.43463 0.45787 0.91226 0.0
H827 H 0.3471 0.42522 0.80719 0.0
H828 H 0.38483 0.44214 0.82969 0.0
H829 H 0.3837 0.47893 0.90735 0.0
H830 H 0.46565 0.45525 0.99451 0.0
H831 H 0.43559 0.46357 0.96513 0.0
C832 C 0.27067 0.92861 0.31161 0.0
C833 C 0.28416 0.91094 0.31411 0.0
C834 C 0.27242 0.94773 0.33029 0.0
C835 C 0.29344 0.9661 0.39807 0.0
H836 H 0.28573 0.02944 0.37909 0.0
C837 C 0.31488 0.0523 0.46704 0.0
C838 C 0.29706 0.06572 0.46919 0.0
C839 C 0.31307 0.03338 0.44816 0.0
C840 C 0.28776 0.01178 0.38464 0.0
H841 H 0.31065 0.89987 0.33767 0.0
H842 H 0.31455 0.93373 0.3696 0.0
H843 H 0.28409 0.99704 0.3457 0.0
H844 H 0.26349 0.06998 0.45306 0.0
H845 H 0.26065 0.03717 0.41958 0.0
H846 H 0.2979 0.98132 0.43697 0.0
C847 C 0.30193 0.93245 0.35377 0.0
C848 C 0.28672 0.99313 0.36555 0.0
C849 C 0.29987 0.91311 0.33533 0.0
C850 C 0.27746 0.05991 0.45193 0.0
C851 C 0.27588 0.04125 0.43271 0.0
C852 C 0.29487 0.98488 0.41707 0.0
C853 C 0.28801 0.94989 0.35171 0.0
C854 C 0.28947 0.96997 0.37199 0.0
C855 C 0.29363 0.02776 0.43073 0.0
C856 C 0.29197 0.00786 0.41055 0.0
H857 H 0.25826 0.92732 0.29557 0.0
H858 H 0.26109 0.96047 0.32816 0.0
H859 H 0.29511 0.94845 0.40398 0.0
H860 H 0.33017 0.05628 0.48009 0.0
H861 H 0.32706 0.02334 0.44694 0.0
C862 C 0.65219 0.75698 0.78124 0.0
C863 C 0.67124 0.74591 0.78613 0.0
C864 C 0.63325 0.7549 0.7982 0.0
C865 C 0.60032 0.72076 0.84894 0.0
H866 H 0.59248 0.78382 0.87577 0.0
C867 C 0.54247 0.73395 0.93781 0.0
C868 C 0.53267 0.75459 0.93923 0.0
C869 C 0.55697 0.73007 0.91714 0.0
C870 C 0.59391 0.766 0.86815 0.0
H871 H 0.68464 0.72274 0.81182 0.0
H872 H 0.65109 0.71884 0.84138 0.0
H873 H 0.62183 0.78149 0.84305 0.0
H874 H 0.52845 0.78622 0.91956 0.0
H875 H 0.55221 0.77871 0.88275 0.0
H876 H 0.572 0.70521 0.87371 0.0
C877 C 0.65107 0.72924 0.82445 0.0
C878 C 0.61093 0.76472 0.8495 0.0
C879 C 0.67028 0.73159 0.80762 0.0
C880 C 0.53607 0.7703 0.91893 0.0
C881 C 0.54995 0.76611 0.89802 0.0
C882 C 0.58288 0.722 0.86737 0.0
C883 C 0.63275 0.74143 0.8202 0.0
C884 C 0.61432 0.74215 0.83973 0.0
C885 C 0.56148 0.74656 0.89735 0.0
C886 C 0.57943 0.74469 0.8772 0.0
H887 H 0.6523 0.76806 0.76483 0.0
H888 H 0.61922 0.76434 0.79446 0.0
H889 H 0.60266 0.70314 0.84161 0.0
H890 H 0.54019 0.72171 0.95343 0.0
H891 H 0.56559 0.71489 0.91743 0.0
loop_
_geom_bond_atom_site_label_1
_geom_bond_atom_site_label_2
_geom_bond_distance
_geom_bond_site_symmetry_2
_ccdc_geom_bond_type
O0 Cd1 2.300 . S
O0 C7 1.275 . S
Cd1 O0 2.300 . S
Cd1 O9 2.381 . S
Cd1 O10 2.378 . S
O2 Cd3 2.385 . S
O2 C7 1.255 . S
Cd3 O2 2.385 . S
Cd3 O4 2.317 . S
O4 Cd3 2.317 . S
O4 C5 1.232 . S
C5 O4 1.232 . S
C5 O6 1.218 . S
O6 C5 1.218 . S
C7 O0 1.275 . S
C7 O2 1.255 . S
C8 O9 1.258 . S
C8 O10 1.256 . S
O9 Cd1 2.381 . S
O9 C8 1.258 . S
O10 Cd1 2.378 . S
O10 C8 1.256 . S
O11 Cd12 2.300 . S
O11 C18 1.275 . S
Cd12 O11 2.300 . S
Cd12 O20 2.381 . S
Cd12 O21 2.378 . S
O13 Cd14 2.385 . S
O13 C18 1.255 . S
Cd14 O13 2.385 . S
Cd14 O15 2.317 . S
O15 Cd14 2.317 . S
O15 C16 1.232 . S
C16 O15 1.232 . S
C16 O17 1.218 . S
O17 C16 1.218 . S
C18 O11 1.275 . S
C18 O13 1.255 . S
C19 O20 1.258 . S
C19 O21 1.256 . S
O20 Cd12 2.381 . S
O20 C19 1.258 . S
O21 Cd12 2.378 . S
O21 C19 1.256 . S
O22 Cd23 2.300 . S
O22 C29 1.275 . S
Cd23 O22 2.300 . S
Cd23 O31 2.381 . S
Cd23 O32 2.378 . S
O24 Cd25 2.385 . S
O24 C29 1.255 . S
Cd25 O24 2.385 . S
Cd25 O26 2.317 . S
O26 Cd25 2.317 . S
O26 C27 1.232 . S
C27 O26 1.232 . S
C27 O28 1.218 . S
O28 C27 1.218 . S
C29 O22 1.275 . S
C29 O24 1.255 . S
C30 O31 1.258 . S
C30 O32 1.256 . S
O31 Cd23 2.381 . S
O31 C30 1.258 . S
O32 Cd23 2.378 . S
O32 C30 1.256 . S
O33 Cd34 2.300 . S
O33 C40 1.275 . S
Cd34 O33 2.300 . S
Cd34 O42 2.381 . S
Cd34 O43 2.378 . S
O35 Cd36 2.385 . S
O35 C40 1.255 . S
Cd36 O35 2.385 . S
Cd36 O37 2.317 . S
O37 Cd36 2.317 . S
O37 C38 1.232 . S
C38 O37 1.232 . S
C38 O39 1.218 . S
O39 C38 1.218 . S
C40 O33 1.275 . S
C40 O35 1.255 . S
C41 O42 1.258 . S
C41 O43 1.256 . S
O42 Cd34 2.381 . S
O42 C41 1.258 . S
O43 Cd34 2.378 . S
O43 C41 1.256 . S
O44 Cd45 2.300 . S
O44 C51 1.275 . S
Cd45 O44 2.300 . S
Cd45 O53 2.381 . S
Cd45 O54 2.378 . S
O46 Cd47 2.385 . S
O46 C51 1.255 . S
Cd47 O46 2.385 . S
Cd47 O48 2.317 . S
O48 Cd47 2.317 . S
O48 C49 1.232 . S
C49 O48 1.232 . S
C49 O50 1.218 . S
O50 C49 1.218 . S
C51 O44 1.275 . S
C51 O46 1.255 . S
C52 O53 1.258 . S
C52 O54 1.256 . S
O53 Cd45 2.381 . S
O53 C52 1.258 . S
O54 Cd45 2.378 . S
O54 C52 1.256 . S
O55 Cd56 2.300 . S
O55 C62 1.275 . S
Cd56 O55 2.300 . S
Cd56 O64 2.381 . S
Cd56 O65 2.378 . S
O57 Cd58 2.385 . S
O57 C62 1.255 . S
Cd58 O57 2.385 . S
Cd58 O59 2.317 . S
O59 Cd58 2.317 . S
O59 C60 1.232 . S
C60 O59 1.232 . S
C60 O61 1.218 . S
O61 C60 1.218 . S
C62 O55 1.275 . S
C62 O57 1.255 . S
C63 O64 1.258 . S
C63 O65 1.256 . S
O64 Cd56 2.381 . S
O64 C63 1.258 . S
O65 Cd56 2.378 . S
O65 C63 1.256 . S
O66 Cd67 2.300 . S
O66 C73 1.275 . S
Cd67 O66 2.300 . S
Cd67 O75 2.381 . S
Cd67 O76 2.378 . S
O68 Cd69 2.385 . S
O68 C73 1.255 . S
Cd69 O68 2.385 . S
Cd69 O70 2.317 . S
O70 Cd69 2.317 . S
O70 C71 1.232 . S
C71 O70 1.232 . S
C71 O72 1.218 . S
O72 C71 1.218 . S
C73 O66 1.275 . S
C73 O68 1.255 . S
C74 O75 1.258 . S
C74 O76 1.256 . S
O75 Cd67 2.381 . S
O75 C74 1.258 . S
O76 Cd67 2.378 . S
O76 C74 1.256 . S
O77 Cd78 2.300 . S
O77 C84 1.275 . S
Cd78 O77 2.300 . S
Cd78 O86 2.381 . S
Cd78 O87 2.378 . S
O79 Cd80 2.385 . S
O79 C84 1.255 . S
Cd80 O79 2.385 . S
Cd80 O81 2.317 . S
O81 Cd80 2.317 . S
O81 C82 1.232 . S
C82 O81 1.232 . S
C82 O83 1.218 . S
O83 C82 1.218 . S
C84 O77 1.275 . S
C84 O79 1.255 . S
C85 O86 1.258 . S
C85 O87 1.256 . S
O86 Cd78 2.381 . S
O86 C85 1.258 . S
O87 Cd78 2.378 . S
O87 C85 1.256 . S
C88 O90 1.245 . S
C88 O92 1.256 . S
C89 O96 1.247 . S
C89 O97 1.258 . S
O90 C88 1.245 . S
O90 Zn91 2.028 . S
Zn91 O90 2.028 . S
Zn91 O95 2.035 . S
Zn91 O97 2.035 . S
Zn91 O98 2.028 . S
O92 C88 1.256 . S
O92 Zn93 2.035 . S
Zn93 O92 2.035 . S
Zn93 O94 2.028 . S
Zn93 O96 2.028 . S
Zn93 O99 2.035 . S
O94 Zn93 2.028 . S
O94 C100 1.247 . S
O95 Zn91 2.035 . S
O95 C100 1.258 . S
O96 C89 1.247 . S
O96 Zn93 2.028 . S
O97 C89 1.258 . S
O97 Zn91 2.035 . S
O98 Zn91 2.028 . S
O98 C101 1.247 . S
O99 Zn93 2.035 . S
O99 C101 1.258 . S
C100 O94 1.247 . S
C100 O95 1.258 . S
C101 O98 1.247 . S
C101 O99 1.258 . S
C102 O104 1.247 . S
C102 O106 1.258 . S
C103 O110 1.247 . S
C103 O111 1.258 . S
O104 C102 1.247 . S
O104 Zn105 2.028 1_655 S
Zn105 O104 2.028 1_455 S
Zn105 O109 2.035 . S
Zn105 O111 2.035 . S
Zn105 O112 2.028 1_455 S
O106 C102 1.258 . S
O106 Zn107 2.035 1_655 S
Zn107 O106 2.035 1_455 S
Zn107 O108 2.028 . S
Zn107 O110 2.028 . S
Zn107 O113 2.035 1_455 S
O108 Zn107 2.028 . S
O108 C114 1.247 . S
O109 Zn105 2.035 . S
O109 C114 1.258 . S
O110 C103 1.247 . S
O110 Zn107 2.028 . S
O111 C103 1.258 . S
O111 Zn105 2.035 . S
O112 Zn105 2.028 1_655 S
O112 C115 1.247 . S
O113 Zn107 2.035 1_655 S
O113 C115 1.258 . S
C114 O108 1.247 . S
C114 O109 1.258 . S
C115 O112 1.247 . S
C115 O113 1.258 . S
C116 O118 1.247 . S
C116 O120 1.258 . S
C117 O124 1.247 . S
C117 O125 1.258 . S
O118 C116 1.247 . S
O118 Zn119 2.028 . S
Zn119 O118 2.028 . S
Zn119 O123 2.035 . S
Zn119 O125 2.035 . S
Zn119 O126 2.028 . S
O120 C116 1.258 . S
O120 Zn121 2.035 . S
Zn121 O120 2.035 . S
Zn121 O122 2.028 . S
Zn121 O124 2.028 . S
Zn121 O127 2.035 . S
O122 Zn121 2.028 . S
O122 C128 1.247 . S
O123 Zn119 2.035 . S
O123 C128 1.258 . S
O124 C117 1.247 . S
O124 Zn121 2.028 . S
O125 C117 1.258 . S
O125 Zn119 2.035 . S
O126 Zn119 2.028 . S
O126 C129 1.247 . S
O127 Zn121 2.035 . S
O127 C129 1.258 . S
C128 O122 1.247 . S
C128 O123 1.258 . S
C129 O126 1.247 . S
C129 O127 1.258 . S
C130 O132 1.247 . S
C130 O134 1.258 . S
C131 O138 1.247 . S
C131 O139 1.258 . S
O132 C130 1.247 . S
O132 Zn133 2.028 . S
Zn133 O132 2.028 . S
Zn133 O137 2.035 . S
Zn133 O139 2.035 1_554 S
Zn133 O140 2.028 1_554 S
O134 C130 1.258 . S
O134 Zn135 2.035 . S
Zn135 O134 2.035 . S
Zn135 O136 2.028 . S
Zn135 O138 2.028 1_554 S
Zn135 O141 2.035 1_554 S
O136 Zn135 2.028 . S
O136 C142 1.247 . S
O137 Zn133 2.035 . S
O137 C142 1.258 . S
O138 C131 1.247 . S
O138 Zn135 2.028 1_556 S
O139 C131 1.258 . S
O139 Zn133 2.035 1_556 S
O140 Zn133 2.028 1_556 S
O140 C143 1.247 . S
O141 Zn135 2.035 1_556 S
O141 C143 1.258 . S
C142 O136 1.247 . S
C142 O137 1.258 . S
C143 O140 1.247 . S
C143 O141 1.258 . S
C144 O146 1.247 . S
C144 O148 1.258 . S
C145 O152 1.247 . S
C145 O153 1.258 . S
O146 C144 1.247 . S
O146 Zn147 2.028 . S
Zn147 O146 2.028 . S
Zn147 O151 2.035 1_565 S
Zn147 O153 2.035 1_565 S
Zn147 O154 2.028 . S
O148 C144 1.258 . S
O148 Zn149 2.035 1_565 S
Zn149 O148 2.035 1_545 S
Zn149 O150 2.028 . S
Zn149 O152 2.028 . S
Zn149 O155 2.035 1_545 S
O150 Zn149 2.028 . S
O150 C156 1.247 . S
O151 Zn147 2.035 1_545 S
O151 C156 1.258 . S
O152 C145 1.247 . S
O152 Zn149 2.028 . S
O153 C145 1.258 . S
O153 Zn147 2.035 1_545 S
O154 Zn147 2.028 . S
O154 C157 1.247 . S
O155 Zn149 2.035 1_565 S
O155 C157 1.258 . S
C156 O150 1.247 . S
C156 O151 1.258 . S
C157 O154 1.247 . S
C157 O155 1.258 . S
C158 O160 1.247 . S
C158 O162 1.258 . S
C159 O166 1.247 . S
C159 O167 1.258 . S
O160 C158 1.247 . S
O160 Zn161 2.028 . S
Zn161 O160 2.028 . S
Zn161 O165 2.035 . S
Zn161 O167 2.035 1_554 S
Zn161 O168 2.028 1_554 S
O162 C158 1.258 . S
O162 Zn163 2.035 . S
Zn163 O162 2.035 . S
Zn163 O164 2.028 . S
Zn163 O166 2.028 1_554 S
Zn163 O169 2.035 1_554 S
O164 Zn163 2.028 . S
O164 C170 1.247 . S
O165 Zn161 2.035 . S
O165 C170 1.258 . S
O166 C159 1.247 . S
O166 Zn163 2.028 1_556 S
O167 C159 1.258 . S
O167 Zn161 2.035 1_556 S
O168 Zn161 2.028 1_556 S
O168 C171 1.247 . S
O169 Zn163 2.035 1_556 S
O169 C171 1.258 . S
C170 O164 1.247 . S
C170 O165 1.258 . S
C171 O168 1.247 . S
C171 O169 1.258 . S
C172 C173 1.349 . S
C172 C174 1.327 . S
C172 H197 0.950 . S
C173 C172 1.349 . S
C173 C189 1.349 . S
C174 C172 1.327 . S
C174 C193 1.429 . S
C174 H198 0.950 . S
C175 C192 1.574 . S
C175 C194 1.368 . S
C175 H199 0.949 . S
H176 C180 0.949 . S
C177 C178 1.349 . S
C177 C179 1.327 . S
C177 H200 0.950 . S
C178 C177 1.349 . S
C178 C190 1.349 . S
C179 C177 1.327 . S
C179 C195 1.429 . S
C179 H201 0.950 . S
C180 H176 0.949 . S
C180 C188 1.574 . S
C180 C196 1.368 . S
H181 C189 0.950 . S
H182 C187 0.950 . S
H183 C188 0.949 . S
H184 C190 0.950 . S
H185 C191 0.950 . S
H186 C192 0.949 . S
C187 H182 0.950 . S
C187 C189 1.327 . S
C187 C193 1.429 . S
C188 C180 1.574 . S
C188 H183 0.949 . S
C188 C194 1.368 . S
C189 C173 1.349 . S
C189 H181 0.950 . S
C189 C187 1.327 . S
C190 C178 1.349 . S
C190 H184 0.950 . S
C190 C191 1.327 . S
C191 H185 0.950 . S
C191 C190 1.327 . S
C191 C195 1.429 . S
C192 C175 1.574 . S
C192 H186 0.949 . S
C192 C196 1.368 . S
C193 C174 1.429 . S
C193 C187 1.429 . S
C193 C194 1.523 . S
C194 C175 1.368 . S
C194 C188 1.368 . S
C194 C193 1.523 . S
C195 C179 1.429 . S
C195 C191 1.429 . S
C195 C196 1.523 . S
C196 C180 1.368 . S
C196 C192 1.368 . S
C196 C195 1.523 . S
H197 C172 0.950 . S
H198 C174 0.950 . S
H199 C175 0.949 . S
H200 C177 0.950 . S
H201 C179 0.950 . S
C202 C203 1.349 . S
C202 C204 1.327 . S
C202 H227 0.950 . S
C203 C202 1.349 . S
C203 C219 1.349 . S
C204 C202 1.327 . S
C204 C223 1.429 . S
C204 H228 0.950 . S
C205 C222 1.574 . S
C205 C224 1.368 . S
C205 H229 0.949 . S
H206 C210 0.949 . S
C207 C208 1.349 . S
C207 C209 1.327 . S
C207 H230 0.950 . S
C208 C207 1.349 . S
C208 C220 1.349 . S
C209 C207 1.327 . S
C209 C225 1.429 . S
C209 H231 0.950 . S
C210 H206 0.949 . S
C210 C218 1.574 . S
C210 C226 1.368 . S
H211 C219 0.950 . S
H212 C217 0.950 . S
H213 C218 0.949 . S
H214 C220 0.950 . S
H215 C221 0.950 . S
H216 C222 0.949 . S
C217 H212 0.950 . S
C217 C219 1.327 . S
C217 C223 1.429 . S
C218 C210 1.574 . S
C218 H213 0.949 . S
C218 C224 1.368 . S
C219 C203 1.349 . S
C219 H211 0.950 . S
C219 C217 1.327 . S
C220 C208 1.349 . S
C220 H214 0.950 . S
C220 C221 1.327 . S
C221 H215 0.950 . S
C221 C220 1.327 . S
C221 C225 1.429 . S
C222 C205 1.574 . S
C222 H216 0.949 . S
C222 C226 1.368 . S
C223 C204 1.429 . S
C223 C217 1.429 . S
C223 C224 1.523 . S
C224 C205 1.368 . S
C224 C218 1.368 . S
C224 C223 1.523 . S
C225 C209 1.429 . S
C225 C221 1.429 . S
C225 C226 1.523 . S
C226 C210 1.368 . S
C226 C222 1.368 . S
C226 C225 1.523 . S
H227 C202 0.950 . S
H228 C204 0.950 . S
H229 C205 0.949 . S
H230 C207 0.950 . S
H231 C209 0.950 . S
C232 C233 1.349 . S
C232 C234 1.327 . S
C232 H257 0.950 . S
C233 C232 1.349 . S
C233 C249 1.349 . S
C234 C232 1.327 . S
C234 C253 1.429 . S
C234 H258 0.950 . S
C235 C252 1.574 . S
C235 C254 1.368 . S
C235 H259 0.949 . S
H236 C240 0.949 . S
C237 C238 1.349 . S
C237 C239 1.327 . S
C237 H260 0.950 . S
C238 C237 1.349 . S
C238 C250 1.349 . S
C239 C237 1.327 . S
C239 C255 1.429 . S
C239 H261 0.950 . S
C240 H236 0.949 . S
C240 C248 1.574 . S
C240 C256 1.368 . S
H241 C249 0.950 . S
H242 C247 0.950 . S
H243 C248 0.949 . S
H244 C250 0.950 . S
H245 C251 0.950 . S
H246 C252 0.949 . S
C247 H242 0.950 . S
C247 C249 1.327 . S
C247 C253 1.429 . S
C248 C240 1.574 . S
C248 H243 0.949 . S
C248 C254 1.368 . S
C249 C233 1.349 . S
C249 H241 0.950 . S
C249 C247 1.327 . S
C250 C238 1.349 . S
C250 H244 0.950 . S
C250 C251 1.327 . S
C251 H245 0.950 . S
C251 C250 1.327 . S
C251 C255 1.429 . S
C252 C235 1.574 . S
C252 H246 0.949 . S
C252 C256 1.368 . S
C253 C234 1.429 . S
C253 C247 1.429 . S
C253 C254 1.523 . S
C254 C235 1.368 . S
C254 C248 1.368 . S
C254 C253 1.523 . S
C255 C239 1.429 . S
C255 C251 1.429 . S
C255 C256 1.523 . S
C256 C240 1.368 . S
C256 C252 1.368 . S
C256 C255 1.523 . S
H257 C232 0.950 . S
H258 C234 0.950 . S
H259 C235 0.949 . S
H260 C237 0.950 . S
H261 C239 0.950 . S
C262 C263 1.349 . S
C262 C264 1.327 . S
C262 H287 0.950 . S
C263 C262 1.349 . S
C263 C279 1.349 . S
C264 C262 1.327 . S
C264 C283 1.429 . S
C264 H288 0.950 . S
C265 C282 1.574 . S
C265 C284 1.368 . S
C265 H289 0.949 . S
H266 C270 0.949 . S
C267 C268 1.349 . S
C267 C269 1.327 . S
C267 H290 0.950 . S
C268 C267 1.349 . S
C268 C280 1.349 . S
C269 C267 1.327 . S
C269 C285 1.429 . S
C269 H291 0.950 . S
C270 H266 0.949 . S
C270 C278 1.574 . S
C270 C286 1.368 . S
H271 C279 0.950 . S
H272 C277 0.950 . S
H273 C278 0.949 . S
H274 C280 0.950 . S
H275 C281 0.950 . S
H276 C282 0.949 . S
C277 H272 0.950 . S
C277 C279 1.327 . S
C277 C283 1.429 . S
C278 C270 1.574 . S
C278 H273 0.949 . S
C278 C284 1.368 . S
C279 C263 1.349 . S
C279 H271 0.950 . S
C279 C277 1.327 . S
C280 C268 1.349 . S
C280 H274 0.950 . S
C280 C281 1.327 . S
C281 H275 0.950 . S
C281 C280 1.327 . S
C281 C285 1.429 . S
C282 C265 1.574 . S
C282 H276 0.949 . S
C282 C286 1.368 . S
C283 C264 1.429 . S
C283 C277 1.429 . S
C283 C284 1.523 . S
C284 C265 1.368 . S
C284 C278 1.368 . S
C284 C283 1.523 . S
C285 C269 1.429 . S
C285 C281 1.429 . S
C285 C286 1.523 . S
C286 C270 1.368 . S
C286 C282 1.368 . S
C286 C285 1.523 . S
H287 C262 0.950 . S
H288 C264 0.950 . S
H289 C265 0.949 . S
H290 C267 0.950 . S
H291 C269 0.950 . S
C292 C293 1.349 . S
C292 C294 1.327 . S
C292 H317 0.950 . S
C293 C292 1.349 . S
C293 C309 1.349 . S
C294 C292 1.327 . S
C294 C313 1.429 . S
C294 H318 0.950 . S
C295 C312 1.574 . S
C295 C314 1.368 . S
C295 H319 0.949 . S
H296 C300 0.949 . S
C297 C298 1.349 . S
C297 C299 1.327 . S
C297 H320 0.950 . S
C298 C297 1.349 . S
C298 C310 1.349 . S
C299 C297 1.327 . S
C299 C315 1.429 . S
C299 H321 0.950 . S
C300 H296 0.949 . S
C300 C308 1.574 . S
C300 C316 1.368 . S
H301 C309 0.950 . S
H302 C307 0.950 . S
H303 C308 0.949 . S
H304 C310 0.950 . S
H305 C311 0.950 . S
H306 C312 0.949 . S
C307 H302 0.950 . S
C307 C309 1.327 . S
C307 C313 1.429 . S
C308 C300 1.574 . S
C308 H303 0.949 . S
C308 C314 1.368 . S
C309 C293 1.349 . S
C309 H301 0.950 . S
C309 C307 1.327 . S
C310 C298 1.349 . S
C310 H304 0.950 . S
C310 C311 1.327 . S
C311 H305 0.950 . S
C311 C310 1.327 . S
C311 C315 1.429 . S
C312 C295 1.574 . S
C312 H306 0.949 . S
C312 C316 1.368 . S
C313 C294 1.429 . S
C313 C307 1.429 . S
C313 C314 1.523 . S
C314 C295 1.368 . S
C314 C308 1.368 . S
C314 C313 1.523 . S
C315 C299 1.429 . S
C315 C311 1.429 . S
C315 C316 1.523 . S
C316 C300 1.368 . S
C316 C312 1.368 . S
C316 C315 1.523 . S
H317 C292 0.950 . S
H318 C294 0.950 . S
H319 C295 0.949 . S
H320 C297 0.950 . S
H321 C299 0.950 . S
C322 C323 1.349 . S
C322 C324 1.327 . S
C322 H347 0.950 . S
C323 C322 1.349 . S
C323 C339 1.349 . S
C324 C322 1.327 . S
C324 C343 1.429 . S
C324 H348 0.950 . S
C325 C342 1.574 . S
C325 C344 1.368 . S
C325 H349 0.949 . S
H326 C330 0.949 . S
C327 C328 1.349 . S
C327 C329 1.327 . S
C327 H350 0.950 . S
C328 C327 1.349 . S
C328 C340 1.349 . S
C329 C327 1.327 . S
C329 C345 1.429 . S
C329 H351 0.950 . S
C330 H326 0.949 . S
C330 C338 1.574 . S
C330 C346 1.368 . S
H331 C339 0.950 . S
H332 C337 0.950 . S
H333 C338 0.949 . S
H334 C340 0.950 . S
H335 C341 0.950 . S
H336 C342 0.949 . S
C337 H332 0.950 . S
C337 C339 1.327 . S
C337 C343 1.429 . S
C338 C330 1.574 . S
C338 H333 0.949 . S
C338 C344 1.368 . S
C339 C323 1.349 . S
C339 H331 0.950 . S
C339 C337 1.327 . S
C340 C328 1.349 . S
C340 H334 0.950 . S
C340 C341 1.327 . S
C341 H335 0.950 . S
C341 C340 1.327 . S
C341 C345 1.429 . S
C342 C325 1.574 . S
C342 H336 0.949 . S
C342 C346 1.368 . S
C343 C324 1.429 . S
C343 C337 1.429 . S
C343 C344 1.523 . S
C344 C325 1.368 . S
C344 C338 1.368 . S
C344 C343 1.523 . S
C345 C329 1.429 . S
C345 C341 1.429 . S
C345 C346 1.523 . S
C346 C330 1.368 . S
C346 C342 1.368 . S
C346 C345 1.523 . S
H347 C322 0.950 . S
H348 C324 0.950 . S
H349 C325 0.949 . S
H350 C327 0.950 . S
H351 C329 0.950 . S
C352 C353 1.349 . S
C352 C354 1.327 . S
C352 H377 0.950 . S
C353 C352 1.349 . S
C353 C369 1.349 . S
C354 C352 1.327 . S
C354 C373 1.429 . S
C354 H378 0.950 . S
C355 C372 1.574 . S
C355 C374 1.368 . S
C355 H379 0.949 . S
H356 C360 0.949 . S
C357 C358 1.349 . S
C357 C359 1.327 . S
C357 H380 0.950 . S
C358 C357 1.349 . S
C358 C370 1.349 . S
C359 C357 1.327 . S
C359 C375 1.429 . S
C359 H381 0.950 . S
C360 H356 0.949 . S
C360 C368 1.574 . S
C360 C376 1.368 . S
H361 C369 0.950 . S
H362 C367 0.950 . S
H363 C368 0.949 . S
H364 C370 0.950 . S
H365 C371 0.950 . S
H366 C372 0.949 . S
C367 H362 0.950 . S
C367 C369 1.327 . S
C367 C373 1.429 . S
C368 C360 1.574 . S
C368 H363 0.949 . S
C368 C374 1.368 . S
C369 C353 1.349 . S
C369 H361 0.950 . S
C369 C367 1.327 . S
C370 C358 1.349 . S
C370 H364 0.950 . S
C370 C371 1.327 . S
C371 H365 0.950 . S
C371 C370 1.327 . S
C371 C375 1.429 . S
C372 C355 1.574 . S
C372 H366 0.949 . S
C372 C376 1.368 . S
C373 C354 1.429 . S
C373 C367 1.429 . S
C373 C374 1.523 . S
C374 C355 1.368 . S
C374 C368 1.368 . S
C374 C373 1.523 . S
C375 C359 1.429 . S
C375 C371 1.429 . S
C375 C376 1.523 . S
C376 C360 1.368 . S
C376 C372 1.368 . S
C376 C375 1.523 . S
H377 C352 0.950 . S
H378 C354 0.950 . S
H379 C355 0.949 . S
H380 C357 0.950 . S
H381 C359 0.950 . S
C382 C383 1.349 . S
C382 C384 1.327 . S
C382 H407 0.950 . S
C383 C382 1.349 . S
C383 C399 1.349 . S
C384 C382 1.327 . S
C384 C403 1.429 . S
C384 H408 0.950 . S
C385 C402 1.574 . S
C385 C404 1.368 . S
C385 H409 0.949 . S
H386 C390 0.949 . S
C387 C388 1.349 . S
C387 C389 1.327 . S
C387 H410 0.950 . S
C388 C387 1.349 . S
C388 C400 1.349 . S
C389 C387 1.327 . S
C389 C405 1.429 . S
C389 H411 0.950 . S
C390 H386 0.949 . S
C390 C398 1.574 . S
C390 C406 1.368 . S
H391 C399 0.950 . S
H392 C397 0.950 . S
H393 C398 0.949 . S
H394 C400 0.950 . S
H395 C401 0.950 . S
H396 C402 0.949 . S
C397 H392 0.950 . S
C397 C399 1.327 . S
C397 C403 1.429 . S
C398 C390 1.574 . S
C398 H393 0.949 . S
C398 C404 1.368 . S
C399 C383 1.349 . S
C399 H391 0.950 . S
C399 C397 1.327 . S
C400 C388 1.349 . S
C400 H394 0.950 . S
C400 C401 1.327 . S
C401 H395 0.950 . S
C401 C400 1.327 . S
C401 C405 1.429 . S
C402 C385 1.574 . S
C402 H396 0.949 . S
C402 C406 1.368 . S
C403 C384 1.429 . S
C403 C397 1.429 . S
C403 C404 1.523 . S
C404 C385 1.368 . S
C404 C398 1.368 . S
C404 C403 1.523 . S
C405 C389 1.429 . S
C405 C401 1.429 . S
C405 C406 1.523 . S
C406 C390 1.368 . S
C406 C402 1.368 . S
C406 C405 1.523 . S
H407 C382 0.950 . S
H408 C384 0.950 . S
H409 C385 0.949 . S
H410 C387 0.950 . S
H411 C389 0.950 . S
C412 C413 1.349 . S
C412 C414 1.327 . S
C412 H437 0.950 . S
C413 C412 1.349 . S
C413 C429 1.349 . S
C414 C412 1.327 . S
C414 C433 1.429 . S
C414 H438 0.950 . S
C415 C432 1.574 1_565 S
C415 C434 1.368 . S
C415 H439 0.949 . S
H416 C420 0.949 . S
C417 C418 1.349 . S
C417 C419 1.327 . S
C417 H440 0.950 . S
C418 C417 1.349 . S
C418 C430 1.349 . S
C419 C417 1.327 . S
C419 C435 1.429 . S
C419 H441 0.950 . S
C420 H416 0.949 . S
C420 C428 1.574 . S
C420 C436 1.368 . S
H421 C429 0.950 . S
H422 C427 0.950 . S
H423 C428 0.949 . S
H424 C430 0.950 . S
H425 C431 0.950 . S
H426 C432 0.949 . S
C427 H422 0.950 . S
C427 C429 1.327 . S
C427 C433 1.429 . S
C428 C420 1.574 . S
C428 H423 0.949 . S
C428 C434 1.368 1_545 S
C429 C413 1.349 . S
C429 H421 0.950 . S
C429 C427 1.327 . S
C430 C418 1.349 . S
C430 H424 0.950 . S
C430 C431 1.327 . S
C431 H425 0.950 . S
C431 C430 1.327 . S
C431 C435 1.429 . S
C432 C415 1.574 1_545 S
C432 H426 0.949 . S
C432 C436 1.368 . S
C433 C414 1.429 . S
C433 C427 1.429 . S
C433 C434 1.523 . S
C434 C415 1.368 . S
C434 C428 1.368 1_565 S
C434 C433 1.523 . S
C435 C419 1.429 . S
C435 C431 1.429 . S
C435 C436 1.523 . S
C436 C420 1.368 . S
C436 C432 1.368 . S
C436 C435 1.523 . S
H437 C412 0.950 . S
H438 C414 0.950 . S
H439 C415 0.949 . S
H440 C417 0.950 . S
H441 C419 0.950 . S
C442 C443 1.349 . S
C442 C444 1.327 . S
C442 H467 0.950 . S
C443 C442 1.349 . S
C443 C459 1.349 . S
C444 C442 1.327 . S
C444 C463 1.429 . S
C444 H468 0.950 . S
C445 C462 1.574 . S
C445 C464 1.368 . S
C445 H469 0.949 . S
H446 C450 0.949 . S
C447 C448 1.349 . S
C447 C449 1.327 . S
C447 H470 0.950 . S
C448 C447 1.349 . S
C448 C460 1.349 . S
C449 C447 1.327 . S
C449 C465 1.429 . S
C449 H471 0.950 . S
C450 H446 0.949 . S
C450 C458 1.574 . S
C450 C466 1.368 . S
H451 C459 0.950 . S
H452 C457 0.950 . S
H453 C458 0.949 . S
H454 C460 0.950 . S
H455 C461 0.950 . S
H456 C462 0.949 . S
C457 H452 0.950 . S
C457 C459 1.327 . S
C457 C463 1.429 . S
C458 C450 1.574 . S
C458 H453 0.949 . S
C458 C464 1.368 . S
C459 C443 1.349 . S
C459 H451 0.950 . S
C459 C457 1.327 . S
C460 C448 1.349 . S
C460 H454 0.950 . S
C460 C461 1.327 . S
C461 H455 0.950 . S
C461 C460 1.327 . S
C461 C465 1.429 . S
C462 C445 1.574 . S
C462 H456 0.949 . S
C462 C466 1.368 . S
C463 C444 1.429 . S
C463 C457 1.429 . S
C463 C464 1.523 . S
C464 C445 1.368 . S
C464 C458 1.368 . S
C464 C463 1.523 . S
C465 C449 1.429 . S
C465 C461 1.429 . S
C465 C466 1.523 . S
C466 C450 1.368 . S
C466 C462 1.368 . S
C466 C465 1.523 . S
H467 C442 0.950 . S
H468 C444 0.950 . S
H469 C445 0.949 . S
H470 C447 0.950 . S
H471 C449 0.950 . S
C472 C473 1.349 . S
C472 C474 1.327 . S
C472 H497 0.950 . S
C473 C472 1.349 . S
C473 C489 1.349 . S
C474 C472 1.327 . S
C474 C493 1.429 . S
C474 H498 0.950 . S
C475 C492 1.574 . S
C475 C494 1.368 . S
C475 H499 0.949 . S
H476 C480 0.949 . S
C477 C478 1.349 . S
C477 C479 1.327 . S
C477 H500 0.950 . S
C478 C477 1.349 . S
C478 C490 1.349 . S
C479 C477 1.327 . S
C479 C495 1.429 . S
C479 H501 0.950 . S
C480 H476 0.949 . S
C480 C488 1.574 . S
C480 C496 1.368 . S
H481 C489 0.950 . S
H482 C487 0.950 . S
H483 C488 0.949 . S
H484 C490 0.950 . S
H485 C491 0.950 . S
H486 C492 0.949 . S
C487 H482 0.950 . S
C487 C489 1.327 . S
C487 C493 1.429 . S
C488 C480 1.574 . S
C488 H483 0.949 . S
C488 C494 1.368 . S
C489 C473 1.349 . S
C489 H481 0.950 . S
C489 C487 1.327 . S
C490 C478 1.349 . S
C490 H484 0.950 . S
C490 C491 1.327 . S
C491 H485 0.950 . S
C491 C490 1.327 . S
C491 C495 1.429 . S
C492 C475 1.574 . S
C492 H486 0.949 . S
C492 C496 1.368 . S
C493 C474 1.429 . S
C493 C487 1.429 . S
C493 C494 1.523 . S
C494 C475 1.368 . S
C494 C488 1.368 . S
C494 C493 1.523 . S
C495 C479 1.429 . S
C495 C491 1.429 . S
C495 C496 1.523 . S
C496 C480 1.368 . S
C496 C492 1.368 . S
C496 C495 1.523 . S
H497 C472 0.950 . S
H498 C474 0.950 . S
H499 C475 0.949 . S
H500 C477 0.950 . S
H501 C479 0.950 . S
C502 C503 1.349 . S
C502 C504 1.327 . S
C502 H527 0.950 . S
C503 C502 1.349 . S
C503 C519 1.349 . S
C504 C502 1.327 . S
C504 C523 1.429 . S
C504 H528 0.950 . S
C505 C522 1.574 . S
C505 C524 1.368 . S
C505 H529 0.949 . S
H506 C510 0.949 . S
C507 C508 1.349 . S
C507 C509 1.327 . S
C507 H530 0.950 . S
C508 C507 1.349 . S
C508 C520 1.349 . S
C509 C507 1.327 . S
C509 C525 1.429 . S
C509 H531 0.950 . S
C510 H506 0.949 . S
C510 C518 1.574 . S
C510 C526 1.368 . S
H511 C519 0.950 . S
H512 C517 0.950 . S
H513 C518 0.949 . S
H514 C520 0.950 . S
H515 C521 0.950 . S
H516 C522 0.949 . S
C517 H512 0.950 . S
C517 C519 1.327 . S
C517 C523 1.429 . S
C518 C510 1.574 . S
C518 H513 0.949 . S
C518 C524 1.368 . S
C519 C503 1.349 . S
C519 H511 0.950 . S
C519 C517 1.327 . S
C520 C508 1.349 . S
C520 H514 0.950 . S
C520 C521 1.327 . S
C521 H515 0.950 . S
C521 C520 1.327 . S
C521 C525 1.429 . S
C522 C505 1.574 . S
C522 H516 0.949 . S
C522 C526 1.368 . S
C523 C504 1.429 . S
C523 C517 1.429 . S
C523 C524 1.523 . S
C524 C505 1.368 . S
C524 C518 1.368 . S
C524 C523 1.523 . S
C525 C509 1.429 . S
C525 C521 1.429 . S
C525 C526 1.523 . S
C526 C510 1.368 . S
C526 C522 1.368 . S
C526 C525 1.523 . S
H527 C502 0.950 . S
H528 C504 0.950 . S
H529 C505 0.949 . S
H530 C507 0.950 . S
H531 C509 0.950 . S
C532 C533 1.349 . S
C532 C534 1.327 . S
C532 H557 0.950 . S
C533 C532 1.349 . S
C533 C549 1.349 . S
C534 C532 1.327 . S
C534 C553 1.429 . S
C534 H558 0.950 . S
C535 C552 1.574 . S
C535 C554 1.368 . S
C535 H559 0.949 . S
H536 C540 0.949 . S
C537 C538 1.349 . S
C537 C539 1.327 . S
C537 H560 0.950 . S
C538 C537 1.349 . S
C538 C550 1.349 . S
C539 C537 1.327 . S
C539 C555 1.429 . S
C539 H561 0.950 . S
C540 H536 0.949 . S
C540 C548 1.574 . S
C540 C556 1.368 . S
H541 C549 0.950 . S
H542 C547 0.950 . S
H543 C548 0.949 . S
H544 C550 0.950 . S
H545 C551 0.950 . S
H546 C552 0.949 . S
C547 H542 0.950 . S
C547 C549 1.327 . S
C547 C553 1.429 . S
C548 C540 1.574 . S
C548 H543 0.949 . S
C548 C554 1.368 . S
C549 C533 1.349 . S
C549 H541 0.950 . S
C549 C547 1.327 . S
C550 C538 1.349 . S
C550 H544 0.950 . S
C550 C551 1.327 . S
C551 H545 0.950 . S
C551 C550 1.327 . S
C551 C555 1.429 . S
C552 C535 1.574 . S
C552 H546 0.949 . S
C552 C556 1.368 . S
C553 C534 1.429 . S
C553 C547 1.429 . S
C553 C554 1.523 . S
C554 C535 1.368 . S
C554 C548 1.368 . S
C554 C553 1.523 . S
C555 C539 1.429 . S
C555 C551 1.429 . S
C555 C556 1.523 . S
C556 C540 1.368 . S
C556 C552 1.368 . S
C556 C555 1.523 . S
H557 C532 0.950 . S
H558 C534 0.950 . S
H559 C535 0.949 . S
H560 C537 0.950 . S
H561 C539 0.950 . S
C562 C563 1.349 . S
C562 C564 1.327 . S
C562 H587 0.950 . S
C563 C562 1.349 . S
C563 C579 1.349 . S
C564 C562 1.327 . S
C564 C583 1.429 . S
C564 H588 0.950 . S
C565 C582 1.574 . S
C565 C584 1.368 . S
C565 H589 0.949 . S
H566 C570 0.949 . S
C567 C568 1.349 . S
C567 C569 1.327 . S
C567 H590 0.950 . S
C568 C567 1.349 . S
C568 C580 1.349 . S
C569 C567 1.327 . S
C569 C585 1.429 . S
C569 H591 0.950 . S
C570 H566 0.949 . S
C570 C578 1.574 . S
C570 C586 1.368 . S
H571 C579 0.950 . S
H572 C577 0.950 . S
H573 C578 0.949 . S
H574 C580 0.950 . S
H575 C581 0.950 . S
H576 C582 0.949 . S
C577 H572 0.950 . S
C577 C579 1.327 . S
C577 C583 1.429 . S
C578 C570 1.574 . S
C578 H573 0.949 . S
C578 C584 1.368 . S
C579 C563 1.349 . S
C579 H571 0.950 . S
C579 C577 1.327 . S
C580 C568 1.349 . S
C580 H574 0.950 . S
C580 C581 1.327 . S
C581 H575 0.950 . S
C581 C580 1.327 . S
C581 C585 1.429 . S
C582 C565 1.574 . S
C582 H576 0.949 . S
C582 C586 1.368 . S
C583 C564 1.429 . S
C583 C577 1.429 . S
C583 C584 1.523 . S
C584 C565 1.368 . S
C584 C578 1.368 . S
C584 C583 1.523 . S
C585 C569 1.429 . S
C585 C581 1.429 . S
C585 C586 1.523 . S
C586 C570 1.368 . S
C586 C582 1.368 . S
C586 C585 1.523 . S
H587 C562 0.950 . S
H588 C564 0.950 . S
H589 C565 0.949 . S
H590 C567 0.950 . S
H591 C569 0.950 . S
C592 C593 1.349 . S
C592 C594 1.327 . S
C592 H617 0.950 . S
C593 C592 1.349 . S
C593 C609 1.349 . S
C594 C592 1.327 . S
C594 C613 1.429 . S
C594 H618 0.950 . S
C595 C612 1.574 . S
C595 C614 1.368 . S
C595 H619 0.949 . S
H596 C600 0.949 . S
C597 C598 1.349 . S
C597 C599 1.327 . S
C597 H620 0.950 . S
C598 C597 1.349 . S
C598 C610 1.349 . S
C599 C597 1.327 . S
C599 C615 1.429 . S
C599 H621 0.950 . S
C600 H596 0.949 . S
C600 C608 1.574 . S
C600 C616 1.368 . S
H601 C609 0.950 . S
H602 C607 0.950 . S
H603 C608 0.949 . S
H604 C610 0.950 . S
H605 C611 0.950 . S
H606 C612 0.949 . S
C607 H602 0.950 . S
C607 C609 1.327 . S
C607 C613 1.429 . S
C608 C600 1.574 . S
C608 H603 0.949 . S
C608 C614 1.368 . S
C609 C593 1.349 . S
C609 H601 0.950 . S
C609 C607 1.327 . S
C610 C598 1.349 . S
C610 H604 0.950 . S
C610 C611 1.327 . S
C611 H605 0.950 . S
C611 C610 1.327 . S
C611 C615 1.429 . S
C612 C595 1.574 . S
C612 H606 0.949 . S
C612 C616 1.368 . S
C613 C594 1.429 . S
C613 C607 1.429 . S
C613 C614 1.523 . S
C614 C595 1.368 . S
C614 C608 1.368 . S
C614 C613 1.523 . S
C615 C599 1.429 . S
C615 C611 1.429 . S
C615 C616 1.523 . S
C616 C600 1.368 . S
C616 C612 1.368 . S
C616 C615 1.523 . S
H617 C592 0.950 . S
H618 C594 0.950 . S
H619 C595 0.949 . S
H620 C597 0.950 . S
H621 C599 0.950 . S
C622 C623 1.349 . S
C622 C624 1.327 . S
C622 H647 0.950 . S
C623 C622 1.349 . S
C623 C639 1.349 . S
C624 C622 1.327 . S
C624 C643 1.429 . S
C624 H648 0.950 . S
C625 C642 1.574 . S
C625 C644 1.368 . S
C625 H649 0.949 . S
H626 C630 0.949 . S
C627 C628 1.349 . S
C627 C629 1.327 . S
C627 H650 0.950 . S
C628 C627 1.349 . S
C628 C640 1.349 . S
C629 C627 1.327 . S
C629 C645 1.429 . S
C629 H651 0.950 . S
C630 H626 0.949 . S
C630 C638 1.574 . S
C630 C646 1.368 . S
H631 C639 0.950 . S
H632 C637 0.950 . S
H633 C638 0.949 . S
H634 C640 0.950 . S
H635 C641 0.950 . S
H636 C642 0.949 . S
C637 H632 0.950 . S
C637 C639 1.327 . S
C637 C643 1.429 . S
C638 C630 1.574 . S
C638 H633 0.949 . S
C638 C644 1.368 . S
C639 C623 1.349 . S
C639 H631 0.950 . S
C639 C637 1.327 . S
C640 C628 1.349 . S
C640 H634 0.950 . S
C640 C641 1.327 . S
C641 H635 0.950 . S
C641 C640 1.327 . S
C641 C645 1.429 . S
C642 C625 1.574 . S
C642 H636 0.949 . S
C642 C646 1.368 . S
C643 C624 1.429 . S
C643 C637 1.429 . S
C643 C644 1.523 . S
C644 C625 1.368 . S
C644 C638 1.368 . S
C644 C643 1.523 . S
C645 C629 1.429 . S
C645 C641 1.429 . S
C645 C646 1.523 . S
C646 C630 1.368 . S
C646 C642 1.368 . S
C646 C645 1.523 . S
H647 C622 0.950 . S
H648 C624 0.950 . S
H649 C625 0.949 . S
H650 C627 0.950 . S
H651 C629 0.950 . S
C652 C653 1.349 . S
C652 C654 1.327 . S
C652 H677 0.950 . S
C653 C652 1.349 . S
C653 C669 1.349 . S
C654 C652 1.327 . S
C654 C673 1.429 . S
C654 H678 0.950 . S
C655 C672 1.574 . S
C655 C674 1.368 . S
C655 H679 0.949 . S
H656 C660 0.949 . S
C657 C658 1.349 . S
C657 C659 1.327 . S
C657 H680 0.950 . S
C658 C657 1.349 . S
C658 C670 1.349 . S
C659 C657 1.327 . S
C659 C675 1.429 . S
C659 H681 0.950 . S
C660 H656 0.949 . S
C660 C668 1.574 . S
C660 C676 1.368 . S
H661 C669 0.950 . S
H662 C667 0.950 . S
H663 C668 0.949 . S
H664 C670 0.950 . S
H665 C671 0.950 . S
H666 C672 0.949 . S
C667 H662 0.950 . S
C667 C669 1.327 . S
C667 C673 1.429 . S
C668 C660 1.574 . S
C668 H663 0.949 . S
C668 C674 1.368 . S
C669 C653 1.349 . S
C669 H661 0.950 . S
C669 C667 1.327 . S
C670 C658 1.349 . S
C670 H664 0.950 . S
C670 C671 1.327 . S
C671 H665 0.950 . S
C671 C670 1.327 . S
C671 C675 1.429 . S
C672 C655 1.574 . S
C672 H666 0.949 . S
C672 C676 1.368 . S
C673 C654 1.429 . S
C673 C667 1.429 . S
C673 C674 1.523 . S
C674 C655 1.368 . S
C674 C668 1.368 . S
C674 C673 1.523 . S
C675 C659 1.429 . S
C675 C671 1.429 . S
C675 C676 1.523 . S
C676 C660 1.368 . S
C676 C672 1.368 . S
C676 C675 1.523 . S
H677 C652 0.950 . S
H678 C654 0.950 . S
H679 C655 0.949 . S
H680 C657 0.950 . S
H681 C659 0.950 . S
C682 C683 1.349 . S
C682 C684 1.327 . S
C682 H707 0.950 . S
C683 C682 1.349 . S
C683 C699 1.349 . S
C684 C682 1.327 . S
C684 C703 1.429 . S
C684 H708 0.950 . S
C685 C702 1.574 . S
C685 C704 1.368 . S
C685 H709 0.949 . S
H686 C690 0.949 . S
C687 C688 1.349 . S
C687 C689 1.327 . S
C687 H710 0.950 . S
C688 C687 1.349 . S
C688 C700 1.349 . S
C689 C687 1.327 . S
C689 C705 1.429 . S
C689 H711 0.950 . S
C690 H686 0.949 . S
C690 C698 1.574 . S
C690 C706 1.368 . S
H691 C699 0.950 . S
H692 C697 0.950 . S
H693 C698 0.949 . S
H694 C700 0.950 . S
H695 C701 0.950 . S
H696 C702 0.949 . S
C697 H692 0.950 . S
C697 C699 1.327 . S
C697 C703 1.429 . S
C698 C690 1.574 . S
C698 H693 0.949 . S
C698 C704 1.368 . S
C699 C683 1.349 . S
C699 H691 0.950 . S
C699 C697 1.327 . S
C700 C688 1.349 . S
C700 H694 0.950 . S
C700 C701 1.327 . S
C701 H695 0.950 . S
C701 C700 1.327 . S
C701 C705 1.429 . S
C702 C685 1.574 . S
C702 H696 0.949 . S
C702 C706 1.368 . S
C703 C684 1.429 . S
C703 C697 1.429 . S
C703 C704 1.523 . S
C704 C685 1.368 . S
C704 C698 1.368 . S
C704 C703 1.523 . S
C705 C689 1.429 . S
C705 C701 1.429 . S
C705 C706 1.523 . S
C706 C690 1.368 . S
C706 C702 1.368 . S
C706 C705 1.523 . S
H707 C682 0.950 . S
H708 C684 0.950 . S
H709 C685 0.949 . S
H710 C687 0.950 . S
H711 C689 0.950 . S
C712 C713 1.349 . S
C712 C714 1.327 . S
C712 H737 0.950 . S
C713 C712 1.349 . S
C713 C729 1.349 . S
C714 C712 1.327 . S
C714 C733 1.429 . S
C714 H738 0.950 . S
C715 C732 1.574 . S
C715 C734 1.368 . S
C715 H739 0.949 . S
H716 C720 0.949 . S
C717 C718 1.349 . S
C717 C719 1.327 . S
C717 H740 0.950 . S
C718 C717 1.349 . S
C718 C730 1.349 . S
C719 C717 1.327 . S
C719 C735 1.429 . S
C719 H741 0.950 . S
C720 H716 0.949 . S
C720 C728 1.574 . S
C720 C736 1.368 . S
H721 C729 0.950 . S
H722 C727 0.950 . S
H723 C728 0.949 . S
H724 C730 0.950 . S
H725 C731 0.950 . S
H726 C732 0.949 . S
C727 H722 0.950 . S
C727 C729 1.327 . S
C727 C733 1.429 . S
C728 C720 1.574 . S
C728 H723 0.949 . S
C728 C734 1.368 . S
C729 C713 1.349 . S
C729 H721 0.950 . S
C729 C727 1.327 . S
C730 C718 1.349 . S
C730 H724 0.950 . S
C730 C731 1.327 . S
C731 H725 0.950 . S
C731 C730 1.327 . S
C731 C735 1.429 . S
C732 C715 1.574 . S
C732 H726 0.949 . S
C732 C736 1.368 . S
C733 C714 1.429 . S
C733 C727 1.429 . S
C733 C734 1.523 . S
C734 C715 1.368 . S
C734 C728 1.368 . S
C734 C733 1.523 . S
C735 C719 1.429 . S
C735 C731 1.429 . S
C735 C736 1.523 . S
C736 C720 1.368 . S
C736 C732 1.368 . S
C736 C735 1.523 . S
H737 C712 0.950 . S
H738 C714 0.950 . S
H739 C715 0.949 . S
H740 C717 0.950 . S
H741 C719 0.950 . S
C742 C743 1.349 . S
C742 C744 1.327 . S
C742 H767 0.950 . S
C743 C742 1.349 . S
C743 C759 1.349 . S
C744 C742 1.327 . S
C744 C763 1.429 . S
C744 H768 0.950 . S
C745 C762 1.574 . S
C745 C764 1.368 . S
C745 H769 0.949 . S
H746 C750 0.949 . S
C747 C748 1.349 . S
C747 C749 1.327 . S
C747 H770 0.950 . S
C748 C747 1.349 . S
C748 C760 1.349 . S
C749 C747 1.327 . S
C749 C765 1.429 . S
C749 H771 0.950 . S
C750 H746 0.949 . S
C750 C758 1.574 . S
C750 C766 1.368 . S
H751 C759 0.950 . S
H752 C757 0.950 . S
H753 C758 0.949 . S
H754 C760 0.950 . S
H755 C761 0.950 . S
H756 C762 0.949 . S
C757 H752 0.950 . S
C757 C759 1.327 . S
C757 C763 1.429 . S
C758 C750 1.574 . S
C758 H753 0.949 . S
C758 C764 1.368 . S
C759 C743 1.349 . S
C759 H751 0.950 . S
C759 C757 1.327 . S
C760 C748 1.349 . S
C760 H754 0.950 . S
C760 C761 1.327 . S
C761 H755 0.950 . S
C761 C760 1.327 . S
C761 C765 1.429 . S
C762 C745 1.574 . S
C762 H756 0.949 . S
C762 C766 1.368 . S
C763 C744 1.429 . S
C763 C757 1.429 . S
C763 C764 1.523 . S
C764 C745 1.368 . S
C764 C758 1.368 . S
C764 C763 1.523 . S
C765 C749 1.429 . S
C765 C761 1.429 . S
C765 C766 1.523 . S
C766 C750 1.368 . S
C766 C762 1.368 . S
C766 C765 1.523 . S
H767 C742 0.950 . S
H768 C744 0.950 . S
H769 C745 0.949 . S
H770 C747 0.950 . S
H771 C749 0.950 . S
C772 C773 1.349 . S
C772 C774 1.327 . S
C772 H797 0.950 . S
C773 C772 1.349 . S
C773 C789 1.349 . S
C774 C772 1.327 . S
C774 C793 1.429 . S
C774 H798 0.950 . S
C775 C792 1.574 . S
C775 C794 1.368 . S
C775 H799 0.949 . S
H776 C780 0.949 . S
C777 C778 1.349 . S
C777 C779 1.327 . S
C777 H800 0.950 . S
C778 C777 1.349 . S
C778 C790 1.349 . S
C779 C777 1.327 . S
C779 C795 1.429 . S
C779 H801 0.950 . S
C780 H776 0.949 . S
C780 C788 1.574 . S
C780 C796 1.368 . S
H781 C789 0.950 . S
H782 C787 0.950 . S
H783 C788 0.949 . S
H784 C790 0.950 . S
H785 C791 0.950 . S
H786 C792 0.949 . S
C787 H782 0.950 . S
C787 C789 1.327 . S
C787 C793 1.429 . S
C788 C780 1.574 . S
C788 H783 0.949 . S
C788 C794 1.368 . S
C789 C773 1.349 . S
C789 H781 0.950 . S
C789 C787 1.327 . S
C790 C778 1.349 . S
C790 H784 0.950 . S
C790 C791 1.327 . S
C791 H785 0.950 . S
C791 C790 1.327 . S
C791 C795 1.429 . S
C792 C775 1.574 . S
C792 H786 0.949 . S
C792 C796 1.368 . S
C793 C774 1.429 . S
C793 C787 1.429 . S
C793 C794 1.523 . S
C794 C775 1.368 . S
C794 C788 1.368 . S
C794 C793 1.523 . S
C795 C779 1.429 . S
C795 C791 1.429 . S
C795 C796 1.523 . S
C796 C780 1.368 . S
C796 C792 1.368 . S
C796 C795 1.523 . S
H797 C772 0.950 . S
H798 C774 0.950 . S
H799 C775 0.949 . S
H800 C777 0.950 . S
H801 C779 0.950 . S
C802 C803 1.349 . S
C802 C804 1.327 . S
C802 H827 0.950 . S
C803 C802 1.349 . S
C803 C819 1.349 . S
C804 C802 1.327 . S
C804 C823 1.429 . S
C804 H828 0.950 . S
C805 C822 1.574 . S
C805 C824 1.368 . S
C805 H829 0.949 . S
H806 C810 0.949 . S
C807 C808 1.349 . S
C807 C809 1.327 . S
C807 H830 0.950 . S
C808 C807 1.349 . S
C808 C820 1.349 . S
C809 C807 1.327 . S
C809 C825 1.429 . S
C809 H831 0.950 . S
C810 H806 0.949 . S
C810 C818 1.574 . S
C810 C826 1.368 . S
H811 C819 0.950 . S
H812 C817 0.950 . S
H813 C818 0.949 . S
H814 C820 0.950 . S
H815 C821 0.950 . S
H816 C822 0.949 . S
C817 H812 0.950 . S
C817 C819 1.327 . S
C817 C823 1.429 . S
C818 C810 1.574 . S
C818 H813 0.949 . S
C818 C824 1.368 . S
C819 C803 1.349 . S
C819 H811 0.950 . S
C819 C817 1.327 . S
C820 C808 1.349 . S
C820 H814 0.950 . S
C820 C821 1.327 . S
C821 H815 0.950 . S
C821 C820 1.327 . S
C821 C825 1.429 . S
C822 C805 1.574 . S
C822 H816 0.949 . S
C822 C826 1.368 . S
C823 C804 1.429 . S
C823 C817 1.429 . S
C823 C824 1.523 . S
C824 C805 1.368 . S
C824 C818 1.368 . S
C824 C823 1.523 . S
C825 C809 1.429 . S
C825 C821 1.429 . S
C825 C826 1.523 . S
C826 C810 1.368 . S
C826 C822 1.368 . S
C826 C825 1.523 . S
H827 C802 0.950 . S
H828 C804 0.950 . S
H829 C805 0.949 . S
H830 C807 0.950 . S
H831 C809 0.950 . S
C832 C833 1.349 . S
C832 C834 1.327 . S
C832 H857 0.950 . S
C833 C832 1.349 . S
C833 C849 1.349 . S
C834 C832 1.327 . S
C834 C853 1.429 . S
C834 H858 0.950 . S
C835 C852 1.574 . S
C835 C854 1.368 . S
C835 H859 0.949 . S
H836 C840 0.949 . S
C837 C838 1.349 . S
C837 C839 1.327 . S
C837 H860 0.950 . S
C838 C837 1.349 . S
C838 C850 1.349 . S
C839 C837 1.327 . S
C839 C855 1.429 . S
C839 H861 0.950 . S
C840 H836 0.949 . S
C840 C848 1.549 1_545 S
C840 C856 1.368 . S
H841 C849 0.950 . S
H842 C847 0.950 . S
H843 C848 0.948 . S
H844 C850 0.950 . S
H845 C851 0.950 . S
H846 C852 0.949 . S
C847 H842 0.950 . S
C847 C849 1.327 . S
C847 C853 1.429 . S
C848 C840 1.549 1_565 S
C848 H843 0.948 . S
C848 C854 1.399 . S
C849 C833 1.349 . S
C849 H841 0.950 . S
C849 C847 1.327 . S
C850 C838 1.349 . S
C850 H844 0.950 . S
C850 C851 1.327 . S
C851 H845 0.950 . S
C851 C850 1.327 . S
C851 C855 1.429 . S
C852 C835 1.574 . S
C852 H846 0.949 . S
C852 C856 1.368 1_565 S
C853 C834 1.429 . S
C853 C847 1.429 . S
C853 C854 1.523 . S
C854 C835 1.368 . S
C854 C848 1.399 . S
C854 C853 1.523 . S
C855 C839 1.429 . S
C855 C851 1.429 . S
C855 C856 1.523 . S
C856 C840 1.368 . S
C856 C852 1.368 1_545 S
C856 C855 1.523 . S
H857 C832 0.950 . S
H858 C834 0.950 . S
H859 C835 0.949 . S
H860 C837 0.950 . S
H861 C839 0.950 . S
C862 C863 1.349 . S
C862 C864 1.327 . S
C862 H887 0.950 . S
C863 C862 1.349 . S
C863 C879 1.349 . S
C864 C862 1.327 . S
C864 C883 1.429 . S
C864 H888 0.950 . S
C865 C882 1.574 . S
C865 C884 1.368 . S
C865 H889 0.949 . S
H866 C870 0.949 . S
C867 C868 1.349 . S
C867 C869 1.327 . S
C867 H890 0.950 . S
C868 C867 1.349 . S
C868 C880 1.349 . S
C869 C867 1.327 . S
C869 C885 1.429 . S
C869 H891 0.950 . S
C870 H866 0.949 . S
C870 C878 1.574 . S
C870 C886 1.368 . S
H871 C879 0.950 . S
H872 C877 0.950 . S
H873 C878 0.949 . S
H874 C880 0.950 . S
H875 C881 0.950 . S
H876 C882 0.949 . S
C877 H872 0.950 . S
C877 C879 1.327 . S
C877 C883 1.429 . S
C878 C870 1.574 . S
C878 H873 0.949 . S
C878 C884 1.368 . S
C879 C863 1.349 . S
C879 H871 0.950 . S
C879 C877 1.327 . S
C880 C868 1.349 . S
C880 H874 0.950 . S
C880 C881 1.327 . S
C881 H875 0.950 . S
C881 C880 1.327 . S
C881 C885 1.429 . S
C882 C865 1.574 . S
C882 H876 0.949 . S
C882 C886 1.368 . S
C883 C864 1.429 . S
C883 C877 1.429 . S
C883 C884 1.523 . S
C884 C865 1.368 . S
C884 C878 1.368 . S
C884 C883 1.523 . S
C885 C869 1.429 . S
C885 C881 1.429 . S
C885 C886 1.523 . S
C886 C870 1.368 . S
C886 C882 1.368 . S
C886 C885 1.523 . S
H887 C862 0.950 . S
H888 C864 0.950 . S
H889 C865 0.949 . S
H890 C867 0.950 . S
H891 C869 0.950 . S
C178 C100 1.693 . S
C173 C5 1.526 . S
C208 C103 1.450 . S
C203 C16 1.239 . S
C238 C101 1.776 1_655 S
C233 C30 1.791 . S
C268 C102 1.589 . S
C263 C40 1.549 . S
C298 C117 1.406 . S
C293 C8 1.406 . S
C328 C131 1.348 . S
C323 C18 1.294 . S
C353 C29 1.730 . S
C358 C157 1.756 . S
C388 C171 1.588 . S
C383 C38 1.382 . S
C418 C116 1.371 . S
C413 C19 1.364 . S
C443 C27 1.444 . S
C448 C130 1.600 . S
C478 C156 1.552 . S
C473 C41 1.541 . S
C508 C170 1.645 . S
C503 C7 1.594 . S
C533 C52 1.558 . S
C538 C115 1.584 . S
C568 C88 1.741 1_655 S
C563 C62 1.707 . S
C593 C74 1.366 . S
C598 C114 1.365 . S
C623 C82 1.282 . S
C628 C89 1.491 . S
C658 C144 1.842 . S
C653 C51 1.751 . S
C688 C158 1.722 . S
C683 C60 1.463 . S
C718 C128 1.430 . S
C713 C71 1.255 . S
C743 C84 1.387 . S
C748 C142 1.431 . S
C778 C145 1.714 . S
C773 C63 1.700 . S
C808 C159 1.487 . S
C803 C73 1.463 . S
C838 C129 1.495 . S
C833 C85 1.495 . S
C863 C49 1.320 . S
C868 C143 1.587 . S
