# Generated by pormake.
# Topology cor, (4,6)-cn, num edge types: 1
# Building blocks:
#     Node 0, Type 0, BuildingBlock: ESEHIV_clean_sbu_0, # of connection points: 4
#     Node 1, Type 0, BuildingBlock: ESEHIV_clean_sbu_0, # of connection points: 4
#     Node 2, Type 0, BuildingBlock: ESEHIV_clean_sbu_0, # of connection points: 4
#     Node 3, Type 0, BuildingBlock: ESEHIV_clean_sbu_0, # of connection points: 4
#     Node 4, Type 0, BuildingBlock: ESEHIV_clean_sbu_0, # of connection points: 4
#     Node 5, Type 0, BuildingBlock: ESEHIV_clean_sbu_0, # of connection points: 4
#     Node 6, Type 0, BuildingBlock: ESEHIV_clean_sbu_0, # of connection points: 4
#     Node 7, Type 0, BuildingBlock: ESEHIV_clean_sbu_0, # of connection points: 4
#     Node 8, Type 0, BuildingBlock: ESEHIV_clean_sbu_0, # of connection points: 4
#     Node 9, Type 0, BuildingBlock: ESEHIV_clean_sbu_0, # of connection points: 4
#     Node 10, Type 0, BuildingBlock: ESEHIV_clean_sbu_0, # of connection points: 4
#     Node 11, Type 0, BuildingBlock: ESEHIV_clean_sbu_0, # of connection points: 4
#     Node 12, Type 0, BuildingBlock: ESEHIV_clean_sbu_0, # of connection points: 4
#     Node 13, Type 0, BuildingBlock: ESEHIV_clean_sbu_0, # of connection points: 4
#     Node 14, Type 0, BuildingBlock: ESEHIV_clean_sbu_0, # of connection points: 4
#     Node 15, Type 0, BuildingBlock: ESEHIV_clean_sbu_0, # of connection points: 4
#     Node 16, Type 0, BuildingBlock: ESEHIV_clean_sbu_0, # of connection points: 4
#     Node 17, Type 0, BuildingBlock: ESEHIV_clean_sbu_0, # of connection points: 4
#     Node 18, Type 1, BuildingBlock: MIDCAF_clean_sbu_0, # of connection points: 6
#     Node 19, Type 1, BuildingBlock: MIDCAF_clean_sbu_0, # of connection points: 6
#     Node 20, Type 1, BuildingBlock: MIDCAF_clean_sbu_0, # of connection points: 6
#     Node 21, Type 1, BuildingBlock: MIDCAF_clean_sbu_0, # of connection points: 6
#     Node 22, Type 1, BuildingBlock: MIDCAF_clean_sbu_0, # of connection points: 6
#     Node 23, Type 1, BuildingBlock: MIDCAF_clean_sbu_0, # of connection points: 6
#     Node 24, Type 1, BuildingBlock: MIDCAF_clean_sbu_0, # of connection points: 6
#     Node 25, Type 1, BuildingBlock: MIDCAF_clean_sbu_0, # of connection points: 6
#     Node 26, Type 1, BuildingBlock: MIDCAF_clean_sbu_0, # of connection points: 6
#     Node 27, Type 1, BuildingBlock: MIDCAF_clean_sbu_0, # of connection points: 6
#     Node 28, Type 1, BuildingBlock: MIDCAF_clean_sbu_0, # of connection points: 6
#     Node 29, Type 1, BuildingBlock: MIDCAF_clean_sbu_0, # of connection points: 6
#     Edge 30, Type (0, 1), BuildingBlock: KIFKEQ_clean_linker_1, # of connection points: 2
#     Edge 31, Type (0, 1), BuildingBlock: KIFKEQ_clean_linker_1, # of connection points: 2
#     Edge 32, Type (0, 1), BuildingBlock: KIFKEQ_clean_linker_1, # of connection points: 2
#     Edge 33, Type (0, 1), BuildingBlock: KIFKEQ_clean_linker_1, # of connection points: 2
#     Edge 34, Type (0, 1), BuildingBlock: KIFKEQ_clean_linker_1, # of connection points: 2
#     Edge 35, Type (0, 1), BuildingBlock: KIFKEQ_clean_linker_1, # of connection points: 2
#     Edge 36, Type (0, 1), BuildingBlock: KIFKEQ_clean_linker_1, # of connection points: 2
#     Edge 37, Type (0, 1), BuildingBlock: KIFKEQ_clean_linker_1, # of connection points: 2
#     Edge 38, Type (0, 1), BuildingBlock: KIFKEQ_clean_linker_1, # of connection points: 2
#     Edge 39, Type (0, 1), BuildingBlock: KIFKEQ_clean_linker_1, # of connection points: 2
#     Edge 40, Type (0, 1), BuildingBlock: KIFKEQ_clean_linker_1, # of connection points: 2
#     Edge 41, Type (0, 1), BuildingBlock: KIFKEQ_clean_linker_1, # of connection points: 2
#     Edge 42, Type (0, 1), BuildingBlock: KIFKEQ_clean_linker_1, # of connection points: 2
#     Edge 43, Type (0, 1), BuildingBlock: KIFKEQ_clean_linker_1, # of connection points: 2
#     Edge 44, Type (0, 1), BuildingBlock: KIFKEQ_clean_linker_1, # of connection points: 2
#     Edge 45, Type (0, 1), BuildingBlock: KIFKEQ_clean_linker_1, # of connection points: 2
#     Edge 46, Type (0, 1), BuildingBlock: KIFKEQ_clean_linker_1, # of connection points: 2
#     Edge 47, Type (0, 1), BuildingBlock: KIFKEQ_clean_linker_1, # of connection points: 2
#     Edge 48, Type (0, 1), BuildingBlock: KIFKEQ_clean_linker_1, # of connection points: 2
#     Edge 49, Type (0, 1), BuildingBlock: KIFKEQ_clean_linker_1, # of connection points: 2
#     Edge 50, Type (0, 1), BuildingBlock: KIFKEQ_clean_linker_1, # of connection points: 2
#     Edge 51, Type (0, 1), BuildingBlock: KIFKEQ_clean_linker_1, # of connection points: 2
#     Edge 52, Type (0, 1), BuildingBlock: KIFKEQ_clean_linker_1, # of connection points: 2
#     Edge 53, Type (0, 1), BuildingBlock: KIFKEQ_clean_linker_1, # of connection points: 2
#     Edge 54, Type (0, 1), BuildingBlock: KIFKEQ_clean_linker_1, # of connection points: 2
#     Edge 55, Type (0, 1), BuildingBlock: KIFKEQ_clean_linker_1, # of connection points: 2
#     Edge 56, Type (0, 1), BuildingBlock: KIFKEQ_clean_linker_1, # of connection points: 2
#     Edge 57, Type (0, 1), BuildingBlock: KIFKEQ_clean_linker_1, # of connection points: 2
#     Edge 58, Type (0, 1), BuildingBlock: KIFKEQ_clean_linker_1, # of connection points: 2
#     Edge 59, Type (0, 1), BuildingBlock: KIFKEQ_clean_linker_1, # of connection points: 2
#     Edge 60, Type (0, 1), BuildingBlock: KIFKEQ_clean_linker_1, # of connection points: 2
#     Edge 61, Type (0, 1), BuildingBlock: KIFKEQ_clean_linker_1, # of connection points: 2
#     Edge 62, Type (0, 1), BuildingBlock: KIFKEQ_clean_linker_1, # of connection points: 2
#     Edge 63, Type (0, 1), BuildingBlock: KIFKEQ_clean_linker_1, # of connection points: 2
#     Edge 64, Type (0, 1), BuildingBlock: KIFKEQ_clean_linker_1, # of connection points: 2
#     Edge 65, Type (0, 1), BuildingBlock: KIFKEQ_clean_linker_1, # of connection points: 2
#     Edge 66, Type (0, 1), BuildingBlock: KIFKEQ_clean_linker_1, # of connection points: 2
#     Edge 67, Type (0, 1), BuildingBlock: KIFKEQ_clean_linker_1, # of connection points: 2
#     Edge 68, Type (0, 1), BuildingBlock: KIFKEQ_clean_linker_1, # of connection points: 2
#     Edge 69, Type (0, 1), BuildingBlock: KIFKEQ_clean_linker_1, # of connection points: 2
#     Edge 70, Type (0, 1), BuildingBlock: KIFKEQ_clean_linker_1, # of connection points: 2
#     Edge 71, Type (0, 1), BuildingBlock: KIFKEQ_clean_linker_1, # of connection points: 2
#     Edge 72, Type (0, 1), BuildingBlock: KIFKEQ_clean_linker_1, # of connection points: 2
#     Edge 73, Type (0, 1), BuildingBlock: KIFKEQ_clean_linker_1, # of connection points: 2
#     Edge 74, Type (0, 1), BuildingBlock: KIFKEQ_clean_linker_1, # of connection points: 2
#     Edge 75, Type (0, 1), BuildingBlock: KIFKEQ_clean_linker_1, # of connection points: 2
#     Edge 76, Type (0, 1), BuildingBlock: KIFKEQ_clean_linker_1, # of connection points: 2
#     Edge 77, Type (0, 1), BuildingBlock: KIFKEQ_clean_linker_1, # of connection points: 2
#     Edge 78, Type (0, 1), BuildingBlock: KIFKEQ_clean_linker_1, # of connection points: 2
#     Edge 79, Type (0, 1), BuildingBlock: KIFKEQ_clean_linker_1, # of connection points: 2
#     Edge 80, Type (0, 1), BuildingBlock: KIFKEQ_clean_linker_1, # of connection points: 2
#     Edge 81, Type (0, 1), BuildingBlock: KIFKEQ_clean_linker_1, # of connection points: 2
#     Edge 82, Type (0, 1), BuildingBlock: KIFKEQ_clean_linker_1, # of connection points: 2
#     Edge 83, Type (0, 1), BuildingBlock: KIFKEQ_clean_linker_1, # of connection points: 2
#     Edge 84, Type (0, 1), BuildingBlock: KIFKEQ_clean_linker_1, # of connection points: 2
#     Edge 85, Type (0, 1), BuildingBlock: KIFKEQ_clean_linker_1, # of connection points: 2
#     Edge 86, Type (0, 1), BuildingBlock: KIFKEQ_clean_linker_1, # of connection points: 2
#     Edge 87, Type (0, 1), BuildingBlock: KIFKEQ_clean_linker_1, # of connection points: 2
#     Edge 88, Type (0, 1), BuildingBlock: KIFKEQ_clean_linker_1, # of connection points: 2
#     Edge 89, Type (0, 1), BuildingBlock: KIFKEQ_clean_linker_1, # of connection points: 2
#     Edge 90, Type (0, 1), BuildingBlock: KIFKEQ_clean_linker_1, # of connection points: 2
#     Edge 91, Type (0, 1), BuildingBlock: KIFKEQ_clean_linker_1, # of connection points: 2
#     Edge 92, Type (0, 1), BuildingBlock: KIFKEQ_clean_linker_1, # of connection points: 2
#     Edge 93, Type (0, 1), BuildingBlock: KIFKEQ_clean_linker_1, # of connection points: 2
#     Edge 94, Type (0, 1), BuildingBlock: KIFKEQ_clean_linker_1, # of connection points: 2
#     Edge 95, Type (0, 1), BuildingBlock: KIFKEQ_clean_linker_1, # of connection points: 2
#     Edge 96, Type (0, 1), BuildingBlock: KIFKEQ_clean_linker_1, # of connection points: 2
#     Edge 97, Type (0, 1), BuildingBlock: KIFKEQ_clean_linker_1, # of connection points: 2
#     Edge 98, Type (0, 1), BuildingBlock: KIFKEQ_clean_linker_1, # of connection points: 2
#     Edge 99, Type (0, 1), BuildingBlock: KIFKEQ_clean_linker_1, # of connection points: 2
#     Edge 100, Type (0, 1), BuildingBlock: KIFKEQ_clean_linker_1, # of connection points: 2
#     Edge 101, Type (0, 1), BuildingBlock: KIFKEQ_clean_linker_1, # of connection points: 2
# Relax obj value: 0.149
# Max RMSD: 0.293
# Mean RMSD: 0.236
data_MOF--net-cor--node1-ESEHIV_clean_sbu_0--node2-MIDCAF_clean_sbu_0--edge1-KIFKEQ_clean_linker_1
_symmetry_space_group_name_H-M    P1
_symmetry_Int_Tables_number       1
_symmetry_cell_setting            triclinic
loop_
_symmetry_equiv_pos_as_xyz
'x, y, z'
_cell_length_a     39.913154
_cell_length_b     38.32009
_cell_length_c     117.2749
_cell_angle_alpha  91.896343
_cell_angle_beta   91.966779
_cell_angle_gamma 120.24335
loop_
_atom_site_label
_atom_site_type_symbol
_atom_site_fract_x
_atom_site_fract_y
_atom_site_fract_z
_atom_type_partial_charge
Cu0 Cu 0.75252 0.03519 0.2653 0.0
N1 N 0.76639 0.0147 0.25269 0.0
N2 N 0.78863 0.01155 0.23562 0.0
C3 C 0.79121 0.03577 0.24466 0.0
C4 C 0.76142 0.97383 0.23808 0.0
C5 C 0.7478 0.97587 0.24858 0.0
O6 O 0.75118 0.08255 0.26007 0.0
C7 C 0.79332 0.01791 0.28203 0.0
O8 O 0.77939 0.98464 0.27542 0.0
H9 H 0.80925 0.06837 0.24512 0.0
H10 H 0.72469 0.951 0.25272 0.0
N11 N 0.70234 0.99595 0.26895 0.0
N12 N 0.653 0.9464 0.27767 0.0
C13 C 0.69128 0.97459 0.27843 0.0
C14 C 0.66994 0.98105 0.26205 0.0
C15 C 0.63956 0.95054 0.26737 0.0
C16 C 0.78156 0.11586 0.25819 0.0
O17 O 0.81579 0.12102 0.26129 0.0
H18 H 0.71108 0.97865 0.28555 0.0
H19 H 0.66876 0.99111 0.25362 0.0
O20 O 0.78693 0.04576 0.27893 0.0
H21 H 0.7516 0.9468 0.23258 0.0
H22 H 0.60987 0.93261 0.26388 0.0
Cu23 Cu 0.03481 0.748 0.26617 0.0
N24 N 0.05609 0.78404 0.25452 0.0
N25 N 0.06082 0.8143 0.23814 0.0
C26 C 0.0367 0.79032 0.24591 0.0
C27 C 0.09675 0.82356 0.24203 0.0
C28 C 0.09372 0.80489 0.25212 0.0
O29 O 0.98742 0.70057 0.25952 0.0
C30 C 0.0198 0.80201 0.27996 0.0
O31 O 0.01422 0.81505 0.27026 0.0
H32 H 1.00542 0.77634 0.24512 0.0
H33 H 0.11719 0.80545 0.25717 0.0
N34 N 0.06946 0.73128 0.27103 0.0
N35 N 0.11422 0.72584 0.28164 0.0
C36 C 0.09778 0.74857 0.27949 0.0
C37 C 0.06813 0.69669 0.26768 0.0
C38 C 0.09564 0.69324 0.27418 0.0
C39 C 0.95572 0.69987 0.25708 0.0
O40 O 0.95266 0.73143 0.26009 0.0
H41 H 0.10512 0.77642 0.28426 0.0
H42 H 0.04783 0.67497 0.26116 0.0
O43 O 0.02711 0.7733 0.2798 0.0
H44 H 0.12332 0.84235 0.23787 0.0
H45 H 0.10139 0.66852 0.27352 0.0
Cu46 Cu 0.3175 0.31254 0.26818 0.0
N47 N 0.2929 0.27184 0.27848 0.0
N48 N 0.26471 0.23935 0.29405 0.0
C49 C 0.2821 0.27521 0.28906 0.0
C50 C 0.26479 0.21257 0.28627 0.0
C51 C 0.28218 0.23266 0.27672 0.0
O52 O 0.32213 0.36239 0.27508 0.0
C53 C 0.25297 0.27167 0.25155 0.0
O54 O 0.23142 0.2609 0.26042 0.0
H55 H 0.28718 0.30342 0.29306 0.0
H56 H 0.28637 0.21959 0.26897 0.0
N57 N 0.36706 0.32017 0.26607 0.0
N58 N 0.41679 0.3184 0.25828 0.0
C59 C 0.37985 0.31059 0.2566 0.0
C60 C 0.39686 0.33466 0.27397 0.0
C61 C 0.42748 0.33361 0.26921 0.0
C62 C 0.29259 0.3641 0.27814 0.0
O63 O 0.25778 0.33284 0.27562 0.0
H64 H 0.36206 0.29719 0.24875 0.0
H65 H 0.39617 0.34485 0.28262 0.0
O66 O 0.28957 0.29495 0.25313 0.0
H67 H 0.25235 0.18048 0.28726 0.0
H68 H 0.45555 0.34349 0.27349 0.0
Cu69 Cu 0.30373 0.03596 0.76741 0.0
N70 N 0.2791 0.04874 0.77879 0.0
N71 N 0.24689 0.04492 0.79439 0.0
C72 C 0.27245 0.03641 0.78958 0.0
C73 C 0.23761 0.06372 0.78643 0.0
C74 C 0.25757 0.06614 0.77686 0.0
O75 O 0.31065 0.99165 0.7726 0.0
C76 C 0.27865 0.01589 0.7434 0.0
O77 O 0.30789 0.00964 0.74229 0.0
H78 H 0.28391 0.01915 0.79353 0.0
H79 H 0.25487 0.07768 0.7688 0.0
N80 N 0.35229 0.08152 0.76507 0.0
N81 N 0.40147 0.13302 0.75679 0.0
C82 C 0.36476 0.10117 0.75536 0.0
C83 C 0.38209 0.10162 0.7729 0.0
C84 C 0.41235 0.13331 0.76785 0.0
C85 C 0.28349 0.96 0.77674 0.0
O86 O 0.24815 0.95438 0.77635 0.0
H87 H 0.3471 0.09276 0.74744 0.0
H88 H 0.38181 0.09367 0.78168 0.0
O89 O 0.27133 0.024 0.75332 0.0
H90 H 0.21672 0.07363 0.78732 0.0
H91 H 0.44045 0.15451 0.77198 0.0
Cu92 Cu 0.02938 0.30906 0.76653 0.0
N93 N 0.01968 0.26777 0.7764 0.0
N94 N 0.02317 0.23549 0.79155 0.0
C95 C 0.02948 0.27106 0.7877 0.0
C96 C 1.00832 0.20883 0.78241 0.0
C97 C 1.00599 0.22872 0.77312 0.0
O98 O 0.07284 0.36021 0.77343 0.0
C99 C 0.05938 0.27792 0.74949 0.0
O100 O 0.07995 0.27551 0.75809 0.0
H101 H 0.04304 0.29932 0.79283 0.0
H102 H 0.99659 0.21603 0.76444 0.0
N103 N 0.9849 0.31359 0.76469 0.0
N104 N 0.93266 0.31296 0.7567 0.0
C105 C 0.96359 0.30835 0.7549 0.0
C106 C 0.96703 0.32193 0.77294 0.0
C107 C 0.93492 0.32157 0.76807 0.0
C108 C 0.10317 0.3622 0.77812 0.0
O109 O 0.10679 0.33 0.77748 0.0
H110 H 0.97029 0.30059 0.74666 0.0
H111 H 0.97668 0.32774 0.7819 0.0
O112 O 0.03806 0.29323 0.75132 0.0
H113 H 1.00059 0.17739 0.78239 0.0
H114 H 0.91502 0.32764 0.77258 0.0
Cu115 Cu 0.75046 0.76163 0.76535 0.0
N116 N 0.77522 0.80099 0.75474 0.0
N117 N 0.80378 0.83124 0.73894 0.0
C118 C 0.78932 0.79715 0.74476 0.0
C119 C 0.79875 0.8575 0.74562 0.0
C120 C 0.78115 0.83877 0.75531 0.0
O121 O 0.74898 0.71224 0.75942 0.0
C122 C 0.81419 0.79836 0.78247 0.0
O123 O 0.83625 0.80077 0.77412 0.0
H124 H 0.78834 0.76965 0.74175 0.0
H125 H 0.77299 0.85166 0.76227 0.0
N126 N 0.70076 0.75412 0.76721 0.0
N127 N 0.65158 0.75483 0.77573 0.0
C128 C 0.68507 0.75426 0.77724 0.0
C129 C 0.6764 0.75466 0.7591 0.0
C130 C 0.64602 0.75485 0.7643 0.0
C131 C 0.72981 0.69415 0.75005 0.0
O132 O 0.70863 0.70716 0.745 0.0
H133 H 0.69908 0.75614 0.78549 0.0
H134 H 0.68127 0.75666 0.75008 0.0
O135 O 0.77768 0.78166 0.7804 0.0
H136 H 0.80749 0.88829 0.74375 0.0
H137 H 0.62209 0.75572 0.75998 0.0
Cu138 Cu 0.41801 0.35925 0.5968 0.0
N139 N 0.42879 0.33605 0.58418 0.0
N140 N 0.45096 0.32967 0.5674 0.0
C141 C 0.45294 0.35556 0.57589 0.0
C142 C 0.42465 0.29248 0.57059 0.0
C143 C 0.41103 0.29654 0.58089 0.0
O144 O 0.42369 0.4107 0.59204 0.0
C145 C 0.46053 0.38724 0.61874 0.0
O146 O 0.4503 0.41489 0.61896 0.0
H147 H 0.4711 0.38814 0.57603 0.0
H148 H 0.3889 0.27248 0.58552 0.0
N149 N 0.36728 0.32332 0.60086 0.0
N150 N 0.3188 0.2759 0.61035 0.0
C151 C 0.35708 0.30386 0.61067 0.0
C152 C 0.33428 0.30721 0.59416 0.0
C153 C 0.30441 0.27808 0.59998 0.0
C154 C 0.40754 0.4104 0.58239 0.0
O155 O 0.38671 0.37575 0.57647 0.0
H156 H 0.37764 0.30863 0.61766 0.0
H157 H 0.3322 0.31478 0.58548 0.0
O158 O 0.4518 0.36352 0.60988 0.0
H159 H 0.4149 0.26429 0.56567 0.0
H160 H 0.27452 0.25938 0.59673 0.0
Cu161 Cu 0.70057 0.09323 0.60029 0.0
N162 N 0.71399 0.13501 0.59027 0.0
N163 N 0.71294 0.16835 0.57505 0.0
C164 C 0.7061 0.13252 0.57885 0.0
C165 C 0.72634 0.19438 0.58434 0.0
C166 C 0.72712 0.17386 0.59366 0.0
O167 O 0.65403 0.04358 0.59401 0.0
C168 C 0.67021 0.12328 0.61758 0.0
O169 O 0.64581 0.12121 0.60941 0.0
H170 H 0.69279 0.10447 0.57362 0.0
H171 H 0.73451 0.18582 0.60245 0.0
N172 N 0.7412 0.08257 0.60264 0.0
N173 N 0.78791 0.0764 0.61188 0.0
C174 C 0.76655 0.09481 0.61186 0.0
C175 C 0.74693 0.0558 0.59658 0.0
C176 C 0.77566 0.05192 0.60225 0.0
C177 C 0.62667 0.04307 0.58789 0.0
O178 O 0.62746 0.07719 0.58625 0.0
H179 H 0.76777 0.11502 0.61875 0.0
H180 H 0.73016 0.03895 0.58886 0.0
O181 O 0.69402 0.1115 0.61535 0.0
H182 H 0.73355 0.22568 0.58445 0.0
H183 H 0.78618 0.03198 0.59961 0.0
Cu184 Cu 0.97237 0.64167 0.59801 0.0
N185 N 0.94678 0.59884 0.60757 0.0
N186 N 0.91214 0.56522 0.62217 0.0
C187 C 0.93731 0.60179 0.61837 0.0
C188 C 0.90572 0.53827 0.61346 0.0
C189 C 0.92718 0.55907 0.60448 0.0
O190 O 0.96997 0.68679 0.6055 0.0
C191 C 0.91142 0.60922 0.57996 0.0
O192 O 0.88797 0.60623 0.58795 0.0
H193 H 0.94646 0.63031 0.62305 0.0
H194 H 0.92671 0.54636 0.59607 0.0
N195 N 0.02392 0.6546 0.59636 0.0
N196 N 0.07619 0.66102 0.58792 0.0
C197 C 0.03694 0.64172 0.58761 0.0
C198 C 0.05599 0.68276 0.60245 0.0
C199 C 0.08822 0.6868 0.59728 0.0
C200 C 0.98911 0.72394 0.60331 0.0
O201 O 0.01173 0.73472 0.59467 0.0
H202 H 0.01804 0.62014 0.58083 0.0
H203 H 0.05594 0.70024 0.60988 0.0
O204 O 0.94753 0.62492 0.58259 0.0
H205 H 0.88581 0.50597 0.61343 0.0
H206 H 0.11823 0.70759 0.60008 0.0
Cu207 Cu 0.97666 0.36334 0.10046 0.0
N208 N 0.96576 0.38608 0.11321 0.0
N209 N 0.94438 0.39134 0.13026 0.0
C210 C 0.94014 0.36639 0.12119 0.0
C211 C 0.97356 0.42815 0.12782 0.0
C212 C 0.98665 0.4248 0.11734 0.0
O213 O 0.97995 0.31739 0.10599 0.0
C214 C 0.9469 0.34846 0.07731 0.0
O215 O 0.97956 0.34946 0.07535 0.0
H216 H 0.92008 0.33413 0.12065 0.0
H217 H 0.01079 0.44861 0.11322 0.0
N218 N 0.0261 0.40084 0.09573 0.0
N219 N 0.07389 0.44509 0.08536 0.0
C220 C 0.03586 0.42784 0.08753 0.0
C221 C 0.05921 0.40187 0.099 0.0
C222 C 0.08862 0.42898 0.09264 0.0
C223 C 0.9522 0.28423 0.10922 0.0
O224 O 0.9162 0.27593 0.10741 0.0
H225 H 0.01509 0.43292 0.08279 0.0
H226 H 0.06143 0.38296 0.10527 0.0
O227 O 0.93857 0.35071 0.08763 0.0
H228 H 0.985 0.45548 0.1333 0.0
H229 H 0.11843 0.43569 0.09319 0.0
Cu230 Cu 0.69589 0.64463 0.10011 0.0
N231 N 0.68186 0.60277 0.11005 0.0
N232 N 0.67681 0.5681 0.12554 0.0
C233 C 0.69393 0.60492 0.12109 0.0
C234 C 0.65311 0.542 0.11695 0.0
C235 C 0.65628 0.56342 0.10745 0.0
O236 O 0.73927 0.69468 0.1074 0.0
C237 C 0.72303 0.6083 0.08386 0.0
O238 O 0.73801 0.6005 0.09289 0.0
H239 H 0.71436 0.6329 0.12581 0.0
H240 H 0.6411 0.55122 0.09918 0.0
N241 N 0.6532 0.65184 0.09764 0.0
N242 N 0.60183 0.65197 0.08933 0.0
C243 C 0.63176 0.64547 0.0878 0.0
C244 C 0.63646 0.66288 0.10563 0.0
C245 C 0.60486 0.663 0.10056 0.0
C246 C 0.77016 0.69772 0.112 0.0
O247 O 0.77558 0.66669 0.11108 0.0
H248 H 0.63743 0.63531 0.07976 0.0
H249 H 0.64639 0.66996 0.11455 0.0
O250 O 0.70591 0.62847 0.08518 0.0
H251 H 0.63521 0.50956 0.11741 0.0
H252 H 0.58571 0.67081 0.10482 0.0
Cu253 Cu 0.41964 0.09475 0.10085 0.0
N254 N 0.44719 0.13573 0.09087 0.0
N255 N 0.47567 0.1681 0.07534 0.0
C256 C 0.45558 0.13187 0.08 0.0
C257 C 0.47986 0.19567 0.0836 0.0
C258 C 0.46229 0.17565 0.09313 0.0
O259 O 0.41114 0.04358 0.09376 0.0
C260 C 0.48308 0.12908 0.11804 0.0
O261 O 0.50586 0.13812 0.10946 0.0
H262 H 0.44667 0.10309 0.07554 0.0
H263 H 0.46073 0.18919 0.10119 0.0
N264 N 0.37195 0.09171 0.10304 0.0
N265 N 0.32367 0.09353 0.11179 0.0
C266 C 0.35681 0.09217 0.11314 0.0
C267 C 0.34758 0.0927 0.09503 0.0
C268 C 0.31782 0.09377 0.10038 0.0
C269 C 0.43855 0.0395 0.08987 0.0
O270 O 0.47454 0.06948 0.09157 0.0
H271 H 0.37054 0.09285 0.12133 0.0
H272 H 0.35166 0.09345 0.08595 0.0
O273 O 0.44642 0.10919 0.11602 0.0
H274 H 0.49515 0.22812 0.08288 0.0
H275 H 0.29372 0.09464 0.09616 0.0
Cu276 Cu 0.08322 0.6952 0.93203 0.0
N277 N 0.11206 0.68482 0.92154 0.0
N278 N 0.14741 0.69059 0.90654 0.0
C279 C 0.12159 0.69928 0.91105 0.0
C280 C 0.15428 0.6698 0.91444 0.0
C281 C 0.13237 0.66618 0.92365 0.0
O282 O 0.08019 0.74183 0.92691 0.0
C283 C 0.14465 0.72755 0.94996 0.0
O284 O 0.16821 0.7492 0.94219 0.0
H285 H 0.11156 0.71768 0.90706 0.0
H286 H 0.13245 0.65241 0.93154 0.0
N287 N 0.03443 0.64897 0.93354 0.0
N288 N 0.9864 0.59727 0.94214 0.0
C289 C 0.02005 0.63317 0.94358 0.0
C290 C 1.00909 0.62216 0.92542 0.0
C291 C 0.97941 0.59046 0.93068 0.0
C292 C 0.0607 0.73936 0.91775 0.0
O293 O 0.03919 0.70385 0.9123 0.0
H294 H 0.035 0.64705 0.95178 0.0
H295 H 0.01253 0.62479 0.91633 0.0
O296 O 0.10859 0.70523 0.94725 0.0
H297 H 0.17431 0.6587 0.9137 0.0
H298 H 0.95484 0.56425 0.92633 0.0
Cu299 Cu 0.36372 0.42318 0.93436 0.0
N300 N 0.37552 0.46654 0.92521 0.0
N301 N 0.37262 0.50158 0.91071 0.0
C302 C 0.36355 0.46471 0.91418 0.0
C303 C 0.39115 0.5275 0.91987 0.0
C304 C 0.39301 0.50584 0.92877 0.0
O305 O 0.32049 0.37538 0.92618 0.0
C306 C 0.33141 0.45146 0.95121 0.0
O307 O 0.31128 0.45377 0.94246 0.0
H308 H 0.34676 0.43674 0.909 0.0
H309 H 0.40481 0.51761 0.93739 0.0
N310 N 0.40708 0.41683 0.9363 0.0
N311 N 0.45918 0.41735 0.94433 0.0
C312 C 0.42943 0.42404 0.946 0.0
C313 C 0.42303 0.40502 0.92825 0.0
C314 C 0.45509 0.40532 0.93315 0.0
C315 C 0.2898 0.34833 0.93042 0.0
O316 O 0.28605 0.35052 0.94147 0.0
H317 H 0.42439 0.43475 0.95405 0.0
H318 H 0.41215 0.39694 0.91942 0.0
O319 O 0.35327 0.43673 0.94954 0.0
H320 H 0.40188 0.55972 0.92015 0.0
H321 H 0.47371 0.39694 0.92881 0.0
Cu322 Cu 0.64142 0.97308 0.93417 0.0
N323 N 0.62782 0.93781 0.9461 0.0
N324 N 0.60344 0.90856 0.96241 0.0
C325 C 0.60326 0.93295 0.95434 0.0
C326 C 0.62897 0.89753 0.95899 0.0
C327 C 0.64395 0.91564 0.94898 0.0
O328 O 0.63865 0.02034 0.94002 0.0
C329 C 0.61094 0.95941 0.91102 0.0
O330 O 0.63835 0.9972 0.91012 0.0
H331 H 0.58626 0.94776 0.95451 0.0
H332 H 0.66604 0.91389 0.94433 0.0
N333 N 0.69214 0.98814 0.9302 0.0
N334 N 0.74176 0.98976 0.92131 0.0
C335 C 0.70299 0.97517 0.92091 0.0
C336 C 0.72527 0.0118 0.93659 0.0
C337 C 0.75576 0.01276 0.93117 0.0
C338 C 0.65335 0.03571 0.95007 0.0
O339 O 0.67114 0.02045 0.95589 0.0
H340 H 0.68278 0.95427 0.91422 0.0
H341 H 0.7272 0.02669 0.94476 0.0
O342 O 0.60623 0.9442 0.92075 0.0
H343 H 0.63739 0.87885 0.96358 0.0
H344 H 0.78594 0.02892 0.93429 0.0
Cu345 Cu 0.64221 0.70122 0.43456 0.0
N346 N 0.61908 0.71591 0.44597 0.0
N347 N 0.58678 0.71341 0.46144 0.0
C348 C 0.61016 0.70195 0.45654 0.0
C349 C 0.58108 0.73558 0.45375 0.0
C350 C 0.60111 0.73719 0.44426 0.0
O351 O 0.64642 0.65546 0.43989 0.0
C352 C 0.61619 0.68108 0.41065 0.0
O353 O 0.64477 0.67379 0.40948 0.0
H354 H 0.61842 0.68166 0.46024 0.0
H355 H 0.60085 0.75099 0.43638 0.0
N356 N 0.69143 0.74537 0.43195 0.0
N357 N 0.74052 0.79615 0.42342 0.0
C358 C 0.70333 0.76515 0.42223 0.0
C359 C 0.72212 0.76455 0.43954 0.0
C360 C 0.75233 0.79579 0.43433 0.0
C361 C 0.61651 0.623 0.44259 0.0
O362 O 0.58205 0.61888 0.4406 0.0
H363 H 0.6849 0.75753 0.4145 0.0
H364 H 0.72243 0.75637 0.44827 0.0
O365 O 0.60949 0.68979 0.42057 0.0
H366 H 0.56261 0.74849 0.45477 0.0
H367 H 0.78097 0.81631 0.43825 0.0
Cu368 Cu 0.36368 0.97286 0.43366 0.0
N369 N 0.35077 0.93561 0.44504 0.0
N370 N 0.35367 0.90636 0.46095 0.0
C371 C 0.36505 0.94172 0.45601 0.0
C372 C 0.33143 0.87711 0.45285 0.0
C373 C 0.32952 0.8952 0.44309 0.0
O374 O 0.40939 0.02379 0.43956 0.0
C375 C 0.38068 0.96248 0.41032 0.0
O376 O 0.38967 1.00013 0.40911 0.0
H377 H 0.38524 0.9712 0.46005 0.0
H378 H 0.31534 0.88 0.43493 0.0
N379 N 0.3216 0.98072 0.43036 0.0
N380 N 0.27086 0.98062 0.42144 0.0
C381 C 0.30036 0.97308 0.42038 0.0
C382 C 0.30511 0.99365 0.43792 0.0
C383 C 0.27392 0.99361 0.43248 0.0
C384 C 0.44072 0.02536 0.44311 0.0
O385 O 0.44359 0.9928 0.44176 0.0
H386 H 0.30571 0.96119 0.41259 0.0
H387 H 0.31488 1.00208 0.44683 0.0
O388 O 0.37134 0.94749 0.42003 0.0
H389 H 0.31866 0.84494 0.45382 0.0
H390 H 0.25501 1.00259 0.43638 0.0
Cu391 Cu 0.08753 0.42029 0.43439 0.0
N392 N 0.10115 0.45569 0.42251 0.0
N393 N 0.12634 0.48419 0.40621 0.0
C394 C 0.12819 0.46274 0.4149 0.0
C395 C 0.09728 0.4912 0.40854 0.0
C396 C 0.0818 0.47358 0.41857 0.0
O397 O 0.09081 0.37369 0.42829 0.0
C398 C 0.1132 0.44103 0.45813 0.0
O399 O 0.07859 0.41077 0.46 0.0
H400 H 0.14728 0.45036 0.41537 0.0
H401 H 0.0571 0.4724 0.42247 0.0
N402 N 0.0363 0.40385 0.43811 0.0
N403 N 0.98474 0.40205 0.44571 0.0
C404 C 0.02379 0.42308 0.44515 0.0
C405 C 1.00399 0.36966 0.43415 0.0
C406 C 0.97224 0.36859 0.43875 0.0
C407 C 0.07543 0.35843 0.4183 0.0
O408 O 0.05659 0.37327 0.4128 0.0
H409 H 0.04285 0.45196 0.44968 0.0
H410 H 1.00347 0.34685 0.42835 0.0
O411 O 0.1231 0.44854 0.44785 0.0
H412 H 0.08747 0.50738 0.40328 0.0
H413 H 0.94226 0.34472 0.43724 0.0
Zn414 Zn 0.03748 0.03846 0.14784 0.0
Zn415 Zn 0.02299 0.03887 0.18496 0.0
Zn416 Zn 0.02998 0.04039 0.16661 0.0
C417 C 0.02604 0.97253 0.18082 0.0
C418 C 0.08942 0.10671 0.18395 0.0
O419 O 1.00353 0.07517 0.1593 0.0
O420 O 0.0416 0.09112 0.14497 0.0
C421 C 0.97656 0.96368 0.15059 0.0
O422 O 0.0107 0.97706 0.17151 0.0
O423 O 0.04196 1.00142 0.18829 0.0
O424 O 0.05841 0.09749 0.18873 0.0
O425 O 0.08823 0.08355 0.17551 0.0
O426 O 0.98744 0.9897 0.14316 0.0
O427 O 0.99449 0.97421 0.16059 0.0
O428 O 0.09424 0.07089 0.1644 0.0
O429 O 0.08526 0.03483 0.1484 0.0
C430 C 0.10787 0.05801 0.15653 0.0
O431 O 0.98754 0.06075 0.17035 0.0
O432 O 0.96641 0.01745 0.18383 0.0
C433 C 0.01841 0.09691 0.15069 0.0
C434 C 0.96132 0.04022 0.17737 0.0
Zn435 Zn 0.02551 0.04235 0.34549 0.0
Zn436 Zn 0.02401 0.02414 0.38395 0.0
Zn437 Zn 0.02392 0.03316 0.36363 0.0
C438 C 0.05787 0.10741 0.38242 0.0
C439 C 0.9461 0.98291 0.37668 0.0
O440 O 0.03893 0.98993 0.35498 0.0
O441 O 1.00125 0.98472 0.34017 0.0
C442 C 0.09149 0.10443 0.35222 0.0
O443 O 0.05634 0.09653 0.37177 0.0
O444 O 0.04414 0.08067 0.38965 0.0
O445 O 0.96815 0.98614 0.3851 0.0
O446 O 0.96074 1.00105 0.3675 0.0
O447 O 0.08189 0.07723 0.34439 0.0
O448 O 0.0689 0.09758 0.36052 0.0
O449 O 0.96464 0.01763 0.35614 0.0
O450 O 0.99309 0.06801 0.34494 0.0
C451 C 0.96234 0.0418 0.34913 0.0
O452 O 0.05499 0.99814 0.36645 0.0
O453 O 0.05928 1.00258 0.38534 0.0
C454 C 0.01935 0.97084 0.3456 0.0
C455 C 0.06787 0.99238 0.37605 0.0
Zn456 Zn 0.02423 0.02571 0.89007 0.0
Zn457 Zn 0.03924 0.02948 0.85122 0.0
Zn458 Zn 0.03118 0.02542 0.86945 0.0
C459 C 0.03898 0.09581 0.8553 0.0
C460 C 0.97278 0.96208 0.85128 0.0
O461 O 0.05804 0.98985 0.87591 0.0
O462 O 0.04419 0.98961 0.89396 0.0
C463 C 0.07264 0.10634 0.88654 0.0
O464 O 0.05392 0.08947 0.86439 0.0
O465 O 0.02023 0.06703 0.84793 0.0
O466 O 1.0042 0.97134 0.84677 0.0
O467 O 0.9735 0.98439 0.85991 0.0
O468 O 0.05782 0.08353 0.89464 0.0
O469 O 0.06481 0.09106 0.87613 0.0
O470 O 0.9666 0.99409 0.87126 0.0
O471 O 0.96769 1.00295 0.89001 0.0
C472 C 0.94872 0.99057 0.88049 0.0
O473 O 0.07172 1.00348 0.8646 0.0
O474 O 0.09626 0.05098 0.85236 0.0
C475 C 0.05802 0.97822 0.88612 0.0
C476 C 0.09893 0.02481 0.85792 0.0
Zn477 Zn 0.04066 0.0247 0.68727 0.0
Zn478 Zn 0.043 0.04259 0.64812 0.0
Zn479 Zn 0.04118 0.03108 0.66858 0.0
C480 C 1.0071 0.95833 0.64942 0.0
C481 C 0.12016 0.08171 0.65581 0.0
O482 O 0.02486 0.0741 0.67666 0.0
O483 O 0.06064 0.08205 0.69228 0.0
C484 C 0.97566 0.95925 0.68021 0.0
O485 O 1.00934 0.96812 0.66018 0.0
O486 O 0.02057 0.98574 0.64237 0.0
O487 O 0.09913 0.07844 0.64711 0.0
O488 O 0.10446 0.06407 0.66495 0.0
O489 O 0.98479 0.9864 0.68802 0.0
O490 O 0.99786 0.96665 0.67179 0.0
O491 O 0.10085 0.04735 0.67583 0.0
O492 O 0.07607 1.00288 0.68895 0.0
C493 C 0.10498 0.02611 0.6835 0.0
O494 O 1.00905 0.06482 0.66521 0.0
O495 O 1.0099 0.06659 0.6464 0.0
C496 C 0.04253 0.09425 0.68612 0.0
C497 C 0.99857 0.0735 0.65565 0.0
Zn498 Zn 0.69327 0.37404 0.51435 0.0
Zn499 Zn 0.69359 0.36931 0.47457 0.0
Zn500 Zn 0.69425 0.3728 0.49571 0.0
C501 C 0.77221 0.40963 0.48225 0.0
C502 C 0.65206 0.28892 0.47996 0.0
O503 O 0.65207 0.39178 0.5009 0.0
O504 O 0.63703 0.35258 0.51539 0.0
C505 C 0.75743 0.44142 0.51219 0.0
O506 O 0.75736 0.40584 0.49205 0.0
O507 O 0.75028 0.39592 0.47325 0.0
O508 O 0.66242 0.31012 0.47137 0.0
O509 O 0.66243 0.30629 0.49013 0.0
O510 O 0.72793 0.43264 0.5177 0.0
O511 O 0.75419 0.41756 0.50363 0.0
O512 O 0.67546 0.31077 0.50189 0.0
O513 O 0.71402 0.33768 0.51739 0.0
C514 C 0.69346 0.30708 0.51071 0.0
O515 O 0.66314 0.40504 0.48962 0.0
O516 O 0.66865 0.40126 0.471 0.0
C517 C 0.62905 0.37314 0.50885 0.0
C518 C 0.65793 0.41382 0.4794 0.0
Zn519 Zn 0.68741 0.36554 0.71796 0.0
Zn520 Zn 0.687 0.37051 0.67858 0.0
Zn521 Zn 0.68669 0.36934 0.69718 0.0
C522 C 0.62238 0.36899 0.68137 0.0
C523 C 0.75143 0.4373 0.68415 0.0
O524 O 0.71912 0.33677 0.70172 0.0
O525 O 0.72117 0.34263 0.72058 0.0
C526 C 0.60915 0.32264 0.71081 0.0
O527 O 0.62671 0.34988 0.68964 0.0
O528 O 0.65149 0.39177 0.67591 0.0
O529 O 0.74337 0.40737 0.67746 0.0
O530 O 0.72854 0.43259 0.69223 0.0
O531 O 0.63133 0.3299 0.71958 0.0
O532 O 0.6236 0.33665 0.70119 0.0
O533 O 0.71796 0.43451 0.70387 0.0
O534 O 0.70946 0.42352 0.72217 0.0
C535 C 0.72132 0.44806 0.71433 0.0
O536 O 0.70382 0.32534 0.69027 0.0
O537 O 0.66585 0.31227 0.6748 0.0
C538 C 0.73084 0.33175 0.71162 0.0
C539 C 0.68528 0.30247 0.68124 0.0
Zn540 Zn 0.7018 0.36155 0.22367 0.0
Zn541 Zn 0.70545 0.36065 0.18395 0.0
Zn542 Zn 0.70341 0.3598 0.20256 0.0
C543 C 0.70394 0.42648 0.188 0.0
C544 C 0.64172 0.29188 0.1858 0.0
O545 O 0.73575 0.32894 0.20851 0.0
O546 O 0.72761 0.33036 0.22703 0.0
C547 C 0.74293 0.44232 0.21883 0.0
O548 O 0.72113 0.42208 0.1969 0.0
O549 O 0.68455 0.3967 0.18096 0.0
O550 O 0.67152 0.30198 0.18029 0.0
O551 O 0.64414 0.31479 0.1945 0.0
O552 O 0.73207 0.42047 0.22728 0.0
O553 O 0.73372 0.42565 0.20858 0.0
O554 O 0.63986 0.32586 0.20598 0.0
O555 O 0.64509 0.33446 0.22482 0.0
C556 C 0.62406 0.32142 0.21565 0.0
O557 O 0.74668 0.34218 0.19708 0.0
O558 O 0.76198 0.38372 0.18318 0.0
C559 C 0.7402 0.31959 0.21871 0.0
C560 C 0.77008 0.3624 0.18936 0.0
Zn561 Zn 0.70165 0.36033 0.02108 0.0
Zn562 Zn 0.70732 0.37149 0.98236 0.0
Zn563 Zn 0.70631 0.36465 1.00274 0.0
C564 C 0.67177 0.28857 0.98456 0.0
C565 C 0.78498 0.41252 0.99025 0.0
O566 O 0.69265 0.41112 1.01014 0.0
O567 O 0.7273 0.41839 0.02593 0.0
C568 C 0.63622 0.29753 1.01397 0.0
O569 O 0.67294 0.30055 0.99508 0.0
O570 O 0.68663 0.31453 0.97717 0.0
O571 O 0.76343 0.40864 0.98162 0.0
O572 O 0.7698 0.3952 0.99948 0.0
O573 O 0.64426 0.32722 0.02077 0.0
O574 O 0.66072 0.30159 1.00648 0.0
O575 O 0.76407 0.3773 1.01062 0.0
O576 O 0.7317 0.33269 0.02312 0.0
C577 C 0.76313 0.3537 0.01838 0.0
O578 O 0.67679 0.40051 0.99883 0.0
O579 O 0.67313 0.39389 0.97997 0.0
C580 C 0.71087 0.43172 0.01951 0.0
C581 C 0.66456 0.40553 0.98901 0.0
Zn582 Zn 0.35769 0.71249 0.84986 0.0
Zn583 Zn 0.36524 0.70172 0.81144 0.0
Zn584 Zn 0.36083 0.70997 0.83138 0.0
C585 C 0.43959 0.72999 0.82019 0.0
C586 C 0.31077 0.62566 0.81613 0.0
O587 O 0.32245 0.73517 0.83559 0.0
O588 O 0.30153 0.694 0.84957 0.0
C589 C 0.42511 0.77617 0.84829 0.0
O590 O 0.42473 0.73784 0.82882 0.0
O591 O 0.4182 0.71026 0.81146 0.0
O592 O 0.32259 0.64627 0.80747 0.0
O593 O 0.32408 0.64295 0.82623 0.0
O594 O 0.39565 0.77076 0.85336 0.0
O595 O 0.42058 0.75109 0.83992 0.0
O596 O 0.33713 0.64756 0.83776 0.0
O597 O 0.37388 0.67296 0.85366 0.0
C598 C 0.35296 0.64272 0.84691 0.0
O599 O 0.33564 0.74598 0.82405 0.0
O600 O 0.35821 0.7472 0.80713 0.0
C601 C 0.29721 0.71721 0.8431 0.0
C602 C 0.34252 0.75991 0.814 0.0
Zn603 Zn 0.34937 0.69291 0.05053 0.0
Zn604 Zn 0.35723 0.70917 1.01222 0.0
Zn605 Zn 0.35333 0.70343 0.03069 0.0
C606 C 0.29426 0.71204 1.01533 0.0
C607 C 0.42231 0.77292 0.01975 0.0
O608 O 0.38473 0.66952 0.03454 0.0
O609 O 0.38865 0.67713 0.05337 0.0
C610 C 0.27349 0.64943 0.04232 0.0
O611 O 0.29513 0.68877 0.02291 0.0
O612 O 0.32489 0.73455 1.01043 0.0
O613 O 0.41414 0.74449 1.01245 0.0
O614 O 0.39818 0.76738 0.02751 0.0
O615 O 0.29442 0.651 0.05084 0.0
O616 O 0.28941 0.67019 0.03362 0.0
O617 O 0.38383 0.76714 0.03862 0.0
O618 O 0.36171 0.74777 0.05558 0.0
C619 C 0.37821 0.77585 0.04885 0.0
O620 O 0.36872 0.65867 0.02327 0.0
O621 O 0.33406 0.65116 1.00744 0.0
C622 C 0.39807 0.66614 0.04438 0.0
C623 C 0.35083 0.63817 1.01386 0.0
Zn624 Zn 0.36056 0.69086 0.55725 0.0
Zn625 Zn 0.37688 0.70152 0.51867 0.0
Zn626 Zn 0.36834 0.69495 0.53687 0.0
C627 C 0.37628 0.76719 0.52331 0.0
C628 C 0.31043 0.63244 0.51853 0.0
O629 O 0.39683 0.66003 0.5429 0.0
O630 O 0.3799 0.65427 0.56073 0.0
C631 C 0.40953 0.77295 0.5546 0.0
O632 O 0.39046 0.75968 0.53235 0.0
O633 O 0.35823 0.73939 0.51562 0.0
O634 O 0.34193 0.64395 0.51378 0.0
O635 O 0.31057 0.65322 0.52746 0.0
O636 O 0.39561 0.74802 0.56229 0.0
O637 O 0.40069 0.75986 0.54401 0.0
O638 O 0.30363 0.66376 0.5387 0.0
O639 O 0.30428 0.66933 0.55753 0.0
C640 C 0.28555 0.65909 0.54796 0.0
O641 O 0.40914 0.67388 0.53148 0.0
O642 O 0.43382 0.72244 0.51954 0.0
C643 C 0.39601 0.64617 0.55284 0.0
C644 C 0.43621 0.69552 0.52479 0.0
Zn645 Zn 0.37564 0.69942 0.31594 0.0
Zn646 Zn 0.38243 0.70041 0.35607 0.0
Zn647 Zn 0.37859 0.69859 0.3371 0.0
C648 C 0.44483 0.69801 0.35182 0.0
C649 C 0.31517 0.6334 0.3508 0.0
O650 O 0.34705 0.73168 0.33274 0.0
O651 O 0.34427 0.7255 0.31388 0.0
C652 C 0.45445 0.74164 0.32242 0.0
O653 O 0.43934 0.7162 0.3435 0.0
O654 O 0.4176 0.67867 0.35827 0.0
O655 O 0.32651 0.6633 0.35784 0.0
O656 O 0.33573 0.63661 0.34222 0.0
O657 O 0.43158 0.73212 0.3137 0.0
O658 O 0.44084 0.73039 0.33232 0.0
O659 O 0.34532 0.63296 0.33071 0.0
O660 O 0.35001 0.64067 0.31213 0.0
C661 C 0.33929 0.61768 0.32034 0.0
O662 O 0.36243 0.74304 0.34429 0.0
O663 O 0.40345 0.75935 0.3592 0.0
C664 C 0.33536 0.73702 0.32289 0.0
C665 C 0.38201 0.76731 0.353 0.0
H666 H 0.17712 0.23975 0.24429 0.0
H667 H 0.28762 0.26334 0.23257 0.0
H668 H 0.14587 0.2071 0.2257 0.0
H669 H 0.25591 0.2298 0.21387 0.0
H670 H 0.15659 0.10857 0.19114 0.0
H671 H 0.20273 0.15511 0.20647 0.0
H672 H 0.14731 0.2269 0.20513 0.0
H673 H 0.10159 0.18066 0.18998 0.0
C674 C 0.19482 0.23824 0.23771 0.0
C675 C 0.23488 0.25432 0.23992 0.0
C676 C 0.17694 0.21967 0.22702 0.0
C677 C 0.19846 0.21606 0.21827 0.0
C678 C 0.23859 0.23216 0.22043 0.0
C679 C 0.25672 0.25154 0.23111 0.0
C680 C 0.15564 0.13544 0.19374 0.0
C681 C 0.12558 0.14107 0.18937 0.0
C682 C 0.18179 0.16189 0.20259 0.0
C683 C 0.17803 0.19414 0.20718 0.0
C684 C 0.15051 0.20194 0.20193 0.0
C685 C 0.12462 0.17573 0.19315 0.0
H686 H 0.86342 0.06964 0.23354 0.0
H687 H 0.75979 0.98047 0.21415 0.0
H688 H 0.89982 0.08422 0.21634 0.0
H689 H 0.79525 0.99619 0.19677 0.0
H690 H 0.88598 0.98276 0.17622 0.0
H691 H 0.83941 0.98171 0.18905 0.0
H692 H 0.91641 0.10905 0.19811 0.0
H693 H 0.96383 0.10914 0.1854 0.0
C694 C 0.84827 0.05384 0.22552 0.0
C695 C 0.80901 0.02337 0.22523 0.0
C696 C 0.869 0.0624 0.21558 0.0
C697 C 0.85078 0.04116 0.20505 0.0
C698 C 0.81073 0.01251 0.20471 0.0
C699 C 0.79028 1.00344 0.21467 0.0
C700 C 0.89199 0.01105 0.18047 0.0
C701 C 0.92842 0.04601 0.17978 0.0
C702 C 0.86531 0.01049 0.18797 0.0
C703 C 0.87434 0.04506 0.19496 0.0
C704 C 0.90882 0.08149 0.19314 0.0
C705 C 0.93568 0.08192 0.18562 0.0
H706 H 1.00218 0.82967 0.2345 0.0
H707 H 0.09604 0.82709 0.21812 0.0
H708 H 0.98884 0.85708 0.21759 0.0
H709 H 0.08204 0.85303 0.20102 0.0
H710 H 0.08751 0.96245 0.18333 0.0
H711 H 0.09202 0.9154 0.19571 0.0
H712 H 0.96739 0.85204 0.19819 0.0
H713 H 0.96353 0.9007 0.18594 0.0
C714 C 0.01944 0.83418 0.22718 0.0
C715 C 0.05058 0.82686 0.22773 0.0
C716 C 0.01164 0.84965 0.2174 0.0
C717 C 0.0345 0.85771 0.20786 0.0
C718 C 0.06431 0.84819 0.20824 0.0
C719 C 0.07242 0.83331 0.21806 0.0
C720 C 0.06088 0.93721 0.18606 0.0
C721 C 0.02516 0.93487 0.18356 0.0
C722 C 0.0634 0.9102 0.19326 0.0
C723 C 0.03015 0.88008 0.1982 0.0
C724 C 0.99376 0.87533 0.19476 0.0
C725 C 0.99132 0.9026 0.18753 0.0
H726 H 0.2369 0.28054 0.30608 0.0
H727 H 0.25438 0.17831 0.30721 0.0
H728 H 0.20384 0.26203 0.32394 0.0
H729 H 0.22029 0.15895 0.32466 0.0
H730 H 0.16698 0.12747 0.35656 0.0
H731 H 0.21833 0.17189 0.34447 0.0
H732 H 0.14207 0.20984 0.32962 0.0
H733 H 0.0917 0.16665 0.34209 0.0
C734 C 0.23417 0.25443 0.31019 0.0
C735 C 0.24799 0.23066 0.30509 0.0
C736 C 0.21495 0.24365 0.32041 0.0
C737 C 0.20926 0.20895 0.32583 0.0
C738 C 0.22454 0.18625 0.32093 0.0
C739 C 0.24362 0.19697 0.31075 0.0
C740 C 0.16224 0.1474 0.35126 0.0
C741 C 0.12555 0.14398 0.35035 0.0
C742 C 0.19131 0.17217 0.3441 0.0
C743 C 0.18399 0.19346 0.33574 0.0
C744 C 0.14896 0.19397 0.3359 0.0
C745 C 0.12007 0.1695 0.34317 0.0
H746 H 0.81046 0.07218 0.30037 0.0
H747 H 0.82013 0.96915 0.28938 0.0
H748 H 0.84079 0.0744 0.31904 0.0
H749 H 0.85171 0.97222 0.30775 0.0
H750 H 0.94748 0.09987 0.34275 0.0
H751 H 0.90127 0.09265 0.3276 0.0
H752 H 0.84786 0.96253 0.32749 0.0
H753 H 0.89577 0.9703 0.3425 0.0
C754 C 0.81937 0.05023 0.30189 0.0
C755 C 0.81313 0.02074 0.29331 0.0
C756 C 0.83677 0.05141 0.31263 0.0
C757 C 0.8488 0.02339 0.31504 0.0
C758 C 0.84219 0.99377 0.30643 0.0
C759 C 0.82448 0.99236 0.29577 0.0
C760 C 0.9249 0.06963 0.3398 0.0
C761 C 0.92543 0.03568 0.34379 0.0
C762 C 0.89828 0.06542 0.33103 0.0
C763 C 0.87117 0.02701 0.32601 0.0
C764 C 0.86899 0.99272 0.33089 0.0
C765 C 0.8959 0.99702 0.33969 0.0
H766 H 0.0522 0.80119 0.30094 0.0
H767 H 0.98658 0.84804 0.28398 0.0
H768 H 0.05277 0.83596 0.319 0.0
H769 H 0.98662 0.88191 0.30197 0.0
H770 H 0.95698 0.90335 0.3364 0.0
H771 H 0.95698 0.8575 0.32152 0.0
H772 H 0.08147 0.91388 0.32662 0.0
H773 H 0.08144 0.96035 0.34166 0.0
C774 C 0.03762 0.81858 0.30108 0.0
C775 C 0.01917 0.82173 0.29102 0.0
C776 C 0.03817 0.83861 0.3114 0.0
C777 C 0.01951 0.86137 0.31191 0.0
C778 C 1.00087 0.86418 0.30187 0.0
C779 C 1.00097 0.84491 0.29155 0.0
C780 C 0.98422 0.90494 0.33467 0.0
C781 C 0.01921 0.9354 0.34017 0.0
C782 C 0.98424 0.87896 0.32606 0.0
C783 C 0.01928 0.88271 0.32273 0.0
C784 C 0.05402 0.9104 0.32901 0.0
C785 C 0.05401 0.93672 0.33768 0.0
H786 H 0.88833 0.82479 0.79085 0.0
H787 H 0.78028 0.81457 0.80036 0.0
H788 H 0.91847 0.8579 0.80948 0.0
H789 H 0.81075 0.84809 0.8191 0.0
H790 H 0.90839 0.96328 0.84289 0.0
H791 H 0.86409 0.91824 0.82705 0.0
H792 H 0.91479 0.84228 0.82993 0.0
H793 H 0.95892 0.8873 0.84553 0.0
C794 C 0.87089 0.82934 0.79694 0.0
C795 C 0.83186 0.81689 0.79408 0.0
C796 C 0.88811 0.84813 0.80767 0.0
C797 C 0.86694 0.8554 0.81584 0.0
C798 C 0.82785 0.84297 0.81301 0.0
C799 C 0.8104 0.82361 0.80229 0.0
C800 C 0.90862 0.93586 0.84048 0.0
C801 C 0.93692 0.92864 0.84546 0.0
C802 C 0.88357 0.91027 0.83133 0.0
C803 C 0.88661 0.87721 0.82704 0.0
C804 C 0.91226 0.86794 0.83285 0.0
C805 C 0.93715 0.89338 0.84191 0.0
H806 H 0.17061 0.00968 0.79769 0.0
H807 H 0.28206 0.05099 0.81516 0.0
H808 H 0.13961 0.99368 0.81586 0.0
H809 H 0.25108 0.0357 0.83359 0.0
H810 H 0.17683 0.07414 0.85832 0.0
H811 H 0.21744 0.06982 0.84392 0.0
H812 H 0.12505 0.94958 0.83309 0.0
H813 H 0.0847 0.95382 0.84771 0.0
C814 C 0.18836 0.01488 0.80545 0.0
C815 C 0.22871 0.03189 0.80506 0.0
C816 C 0.1706 1.0053 0.81586 0.0
C817 C 0.19283 0.01315 0.82618 0.0
C818 C 0.23318 0.02911 0.82577 0.0
C819 C 0.25089 0.03786 0.81527 0.0
C820 C 0.16621 0.04578 0.85338 0.0
C821 C 0.12773 0.01424 0.85417 0.0
C822 C 0.18936 0.04341 0.84503 0.0
C823 C 0.17415 0.00969 0.83721 0.0
C824 C 0.1374 0.97612 0.83893 0.0
C825 C 0.11449 0.97826 0.84743 0.0
H826 H 0.01166 0.26065 0.81217 0.0
H827 H 0.05836 0.19294 0.79607 0.0
H828 H 0.02379 0.24127 0.83104 0.0
H829 H 0.07115 0.17427 0.81472 0.0
H830 H 0.10675 0.15566 0.84818 0.0
H831 H 0.11038 0.2025 0.83392 0.0
H832 H 0.99205 0.1701 0.83941 0.0
H833 H 0.98845 0.12296 0.85349 0.0
C834 C 0.02519 0.24232 0.81271 0.0
C835 C 0.03373 0.22791 0.80269 0.0
C836 C 0.03212 0.23124 0.82346 0.0
C837 C 0.04874 0.20652 0.82438 0.0
C838 C 0.0589 0.19385 0.81435 0.0
C839 C 0.05119 0.20411 0.80365 0.0
C840 C 0.08242 0.16049 0.84685 0.0
C841 C 0.04748 0.13608 0.85203 0.0
C842 C 0.08424 0.1868 0.83855 0.0
C843 C 0.05126 0.18945 0.8354 0.0
C844 C 0.018 0.16891 0.84167 0.0
C845 C 0.01602 0.14217 0.84983 0.0
H846 H 0.81068 0.88742 0.72422 0.0
H847 H 0.83604 0.79139 0.72848 0.0
H848 H 0.84473 0.90414 0.70677 0.0
H849 H 0.86866 0.80686 0.71056 0.0
H850 H 0.97799 0.9003 0.69139 0.0
H851 H 0.9283 0.85834 0.70414 0.0
H852 H 0.84868 0.88853 0.68748 0.0
H853 H 0.8995 0.93207 0.67511 0.0
C854 C 0.82321 0.86954 0.7214 0.0
C855 C 0.82105 0.83847 0.72796 0.0
C856 C 0.84222 0.87866 0.7112 0.0
C857 C 0.85954 0.85683 0.70713 0.0
C858 C 0.85603 0.82461 0.71343 0.0
C859 C 0.83703 0.81554 0.72371 0.0
C860 C 0.9491 0.89593 0.68999 0.0
C861 C 0.94253 0.91924 0.68222 0.0
C862 C 0.92055 0.87216 0.69743 0.0
C863 C 0.88471 0.87104 0.69715 0.0
C864 C 0.87635 0.8897 0.68821 0.0
C865 C 0.90513 0.91387 0.68089 0.0
H866 H 0.23275 0.04986 0.74233 0.0
H867 H 0.27777 0.99038 0.72114 0.0
H868 H 0.20034 0.05799 0.7255 0.0
H869 H 0.24471 0.99819 0.70423 0.0
H870 H 0.12523 0.96874 0.68402 0.0
H871 H 0.17372 0.96933 0.69743 0.0
H872 H 0.21541 0.09487 0.70703 0.0
H873 H 0.16702 0.09422 0.69341 0.0
C874 C 0.23566 0.03836 0.73408 0.0
C875 C 0.25767 0.01914 0.73312 0.0
C876 C 0.21747 0.04354 0.7244 0.0
C877 C 0.22031 0.02919 0.7135 0.0
C878 C 0.24209 0.00972 0.71251 0.0
C879 C 0.2609 1.00512 0.7222 0.0
C880 C 0.14618 0.99703 0.68855 0.0
C881 C 0.14281 0.0316 0.68755 0.0
C882 C 0.17375 0.99729 0.69631 0.0
C883 C 0.19798 0.03194 0.70344 0.0
C884 C 0.19683 0.06757 0.70174 0.0
C885 C 0.16963 0.06747 0.6938 0.0
H886 H 0.10846 0.25333 0.74197 0.0
H887 H 1.00638 0.25821 0.73125 0.0
H888 H 0.1029 0.21588 0.7242 0.0
H889 H 1.00085 0.22053 0.71329 0.0
H890 H 0.98033 0.09862 0.69337 0.0
H891 H 0.98459 0.15001 0.70734 0.0
H892 H 0.10824 0.22111 0.70364 0.0
H893 H 0.10384 0.16939 0.68997 0.0
C894 C 0.08509 0.2469 0.73574 0.0
C895 C 0.0579 0.25882 0.73807 0.0
C896 C 0.08202 0.2256 0.72548 0.0
C897 C 0.0515 0.21528 0.71724 0.0
C898 C 0.02463 0.22785 0.71945 0.0
C899 C 0.02796 0.24966 0.72972 0.0
C900 C 1.008 0.12619 0.69515 0.0
C901 C 0.0417 0.1303 0.69053 0.0
C902 C 1.01057 0.15553 0.70323 0.0
C903 C 0.04694 0.18931 0.70682 0.0
C904 C 0.07992 0.1951 0.70128 0.0
C905 C 0.07734 0.16581 0.6933 0.0
H906 H 0.8395 0.58622 0.57026 0.0
H907 H 0.94716 0.59129 0.56299 0.0
H908 H 0.81176 0.55304 0.55145 0.0
H909 H 0.91909 0.55764 0.5441 0.0
H910 H 0.82095 0.4402 0.52106 0.0
H911 H 0.86519 0.4875 0.5365 0.0
H912 H 0.81852 0.56587 0.53074 0.0
H913 H 0.77439 0.51852 0.51548 0.0
C914 C 0.85741 0.58061 0.56461 0.0
C915 C 0.89557 0.59151 0.56816 0.0
C916 C 0.84158 0.5618 0.55377 0.0
C917 C 0.86329 0.55289 0.5462 0.0
C918 C 0.90161 0.56405 0.5497 0.0
C919 C 0.91769 0.58349 0.56051 0.0
C920 C 0.82182 0.46866 0.52267 0.0
C921 C 0.79451 0.47589 0.51701 0.0
C922 C 0.8468 0.49557 0.53162 0.0
C923 C 0.84466 0.52998 0.53505 0.0
C924 C 0.82035 0.53926 0.52848 0.0
C925 C 0.79555 0.5125 0.51959 0.0
H926 H 0.48369 0.40124 0.55692 0.0
H927 H 0.46582 0.28025 0.55415 0.0
H928 H 0.52031 0.41753 0.5397 0.0
H929 H 0.50191 0.29635 0.53706 0.0
H930 H 0.55283 0.31905 0.50459 0.0
H931 H 0.50268 0.31139 0.51729 0.0
H932 H 0.58288 0.42793 0.53411 0.0
H933 H 0.63233 0.4358 0.5211 0.0
C934 C 0.48749 0.37808 0.55268 0.0
C935 C 0.47174 0.33936 0.55701 0.0
C936 C 0.50833 0.3874 0.54275 0.0
C937 C 0.51376 0.35818 0.53687 0.0
C938 C 0.49749 0.31938 0.54113 0.0
C939 C 0.47684 0.31013 0.55103 0.0
C940 C 0.55881 0.34407 0.51053 0.0
C941 C 0.59621 0.37821 0.51178 0.0
C942 C 0.5304 0.33936 0.51799 0.0
C943 C 0.53911 0.36845 0.52698 0.0
C944 C 0.57506 0.40486 0.52732 0.0
C945 C 0.60337 0.40966 0.51976 0.0
H946 H 0.72693 0.14603 0.55437 0.0
H947 H 0.67554 0.20879 0.57063 0.0
H948 H 0.71477 0.16601 0.53559 0.0
H949 H 0.66274 0.22803 0.55207 0.0
H950 H 0.62687 0.24617 0.51827 0.0
H951 H 0.62483 0.20038 0.53269 0.0
H952 H 0.74449 0.23736 0.52754 0.0
H953 H 0.74651 0.28348 0.51334 0.0
C954 C 0.71241 0.16342 0.55388 0.0
C955 C 0.70255 0.17628 0.56393 0.0
C956 C 0.70546 0.17485 0.54318 0.0
C957 C 0.68751 0.19835 0.54233 0.0
C958 C 0.67606 0.20943 0.55238 0.0
C959 C 0.68378 0.19884 0.56303 0.0
C960 C 0.65195 0.24269 0.51975 0.0
C961 C 0.6867 0.26796 0.5146 0.0
C962 C 0.65102 0.21696 0.52813 0.0
C963 C 0.6847 0.2157 0.53138 0.0
C964 C 0.71801 0.23741 0.52521 0.0
C965 C 0.71911 0.26362 0.51699 0.0
H966 H 0.83592 0.51406 0.6245 0.0
H967 H 0.94295 0.59787 0.64348 0.0
H968 H 0.80178 0.49778 0.64219 0.0
H969 H 0.90885 0.58069 0.66139 0.0
H970 H 0.82899 0.46665 0.68566 0.0
H971 H 0.87268 0.50913 0.67146 0.0
H972 H 0.78473 0.53422 0.65879 0.0
H973 H 0.74153 0.49257 0.67321 0.0
C974 C 0.85208 0.52902 0.63248 0.0
C975 C 0.89209 0.55699 0.63263 0.0
C976 C 0.8325 0.52008 0.64259 0.0
C977 C 0.85257 0.53826 0.65317 0.0
C978 C 0.89262 0.56647 0.65335 0.0
C979 C 0.91208 0.57624 0.64314 0.0
C980 C 0.82008 0.48355 0.68037 0.0
C981 C 0.78211 0.47684 0.68067 0.0
C982 C 0.84492 0.50748 0.67213 0.0
C983 C 0.83185 0.52441 0.66389 0.0
C984 C 0.79548 0.52134 0.665 0.0
C985 C 0.77098 0.49807 0.67339 0.0
H986 H 0.50888 0.44372 0.63542 0.0
H987 H 0.45223 0.3163 0.62573 0.0
H988 H 0.53951 0.43347 0.65227 0.0
H989 H 0.4801 0.30501 0.64299 0.0
H990 H 0.57808 0.30877 0.66578 0.0
H991 H 0.53452 0.31069 0.65125 0.0
H992 H 0.53875 0.41198 0.67014 0.0
H993 H 0.58505 0.41144 0.68419 0.0
C994 C 0.50263 0.41338 0.63699 0.0
C995 C 0.47873 0.38099 0.62914 0.0
C996 C 0.51978 0.40723 0.64678 0.0
C997 C 0.51261 0.36823 0.64919 0.0
C998 C 0.48746 0.33568 0.64144 0.0
C999 C 0.47124 0.34207 0.6315 0.0
C1000 C 0.56821 0.33021 0.66707 0.0
C1001 C 0.58432 0.35942 0.67622 0.0
C1002 C 0.54329 0.33166 0.65865 0.0
C1003 C 0.53332 0.36214 0.65923 0.0
C1004 C 0.54654 0.38885 0.66908 0.0
C1005 C 0.57228 0.38793 0.67736 0.0
H1006 H 0.72603 0.146 0.6351 0.0
H1007 H 0.61949 0.14445 0.62598 0.0
H1008 H 0.73177 0.18215 0.65333 0.0
H1009 H 0.62531 0.18052 0.64407 0.0
H1010 H 0.62658 0.2254 0.67862 0.0
H1011 H 0.62309 0.17466 0.66475 0.0
H1012 H 0.74525 0.25111 0.65959 0.0
H1013 H 0.74862 0.3015 0.67372 0.0
C1014 C 0.70358 0.15292 0.63703 0.0
C1015 C 0.67228 0.14235 0.62904 0.0
C1016 C 0.707 0.17379 0.64747 0.0
C1017 C 0.67893 0.18408 0.65023 0.0
C1018 C 0.64715 0.17249 0.64235 0.0
C1019 C 0.64393 0.15204 0.6319 0.0
C1020 C 0.65311 0.23031 0.67497 0.0
C1021 C 0.68795 0.26709 0.67733 0.0
C1022 C 0.65099 0.20161 0.66686 0.0
C1023 C 0.68363 0.20927 0.66082 0.0
C1024 C 0.71954 0.24419 0.66408 0.0
C1025 C 0.72165 0.27294 0.67227 0.0
H1026 H 0.55746 0.15668 0.12629 0.0
H1027 H 0.44717 0.13884 0.13645 0.0
H1028 H 0.58684 0.18792 0.14516 0.0
H1029 H 0.47694 0.17078 0.1554 0.0
H1030 H 0.5751 0.29015 0.17841 0.0
H1031 H 0.52972 0.24326 0.16307 0.0
H1032 H 0.58336 0.17001 0.16575 0.0
H1033 H 0.62848 0.2168 0.18093 0.0
C1034 C 0.53938 0.15907 0.13259 0.0
C1035 C 0.49997 0.14516 0.12984 0.0
C1036 C 0.55616 0.17678 0.14344 0.0
C1037 C 0.53416 0.18162 0.15182 0.0
C1038 C 0.49462 0.16745 0.14914 0.0
C1039 C 0.47759 0.149 0.1383 0.0
C1040 C 0.57566 0.26281 0.17614 0.0
C1041 C 0.60513 0.25694 0.18089 0.0
C1042 C 0.54998 0.23617 0.16726 0.0
C1043 C 0.55362 0.20347 0.16301 0.0
C1044 C 0.58029 0.19532 0.16868 0.0
C1045 C 0.60575 0.22178 0.1775 0.0
H1046 H 0.97239 0.42456 0.15167 0.0
H1047 H 0.86916 0.33395 0.13237 0.0
H1048 H 0.93631 0.41042 0.1689 0.0
H1049 H 0.83241 0.32059 0.14947 0.0
H1050 H 0.76991 0.29492 0.18109 0.0
H1051 H 0.81715 0.29623 0.16805 0.0
H1052 H 0.89054 0.42481 0.17599 0.0
H1053 H 0.84406 0.42276 0.1891 0.0
C1054 C 0.94189 0.40165 0.15111 0.0
C1055 C 0.9235 0.38082 0.1406 0.0
C1056 C 0.92112 0.39344 0.16101 0.0
C1057 C 0.88115 0.36458 0.16066 0.0
C1058 C 0.86319 0.34258 0.1502 0.0
C1059 C 0.88417 0.35043 0.14033 0.0
C1060 C 0.79727 0.32283 0.18052 0.0
C1061 C 0.8036 0.35865 0.1862 0.0
C1062 C 0.82398 0.32389 0.17283 0.0
C1063 C 0.85744 0.36083 0.17069 0.0
C1064 C 0.86547 0.39568 0.17737 0.0
C1065 C 0.83887 0.39455 0.18501 0.0
H1066 H 0.62491 0.50592 0.13726 0.0
H1067 H 0.74235 0.60714 0.13966 0.0
H1068 H 0.6363 0.48412 0.15543 0.0
H1069 H 0.75368 0.58591 0.15819 0.0
H1070 H 0.76596 0.48604 0.17831 0.0
H1071 H 0.7615 0.53057 0.16469 0.0
H1072 H 0.64737 0.49689 0.17568 0.0
H1073 H 0.65162 0.45132 0.18894 0.0
C1074 C 0.65312 0.5238 0.14174 0.0
C1075 C 0.68282 0.55799 0.13691 0.0
C1076 C 0.65955 0.51166 0.15229 0.0
C1077 C 0.69593 0.53332 0.15838 0.0
C1078 C 0.72536 0.5684 0.15374 0.0
C1079 C 0.7188 0.58072 0.14315 0.0
C1080 C 0.74092 0.49 0.17825 0.0
C1081 C 0.7093 0.46561 0.18474 0.0
C1082 C 0.73812 0.51527 0.17036 0.0
C1083 C 0.70359 0.51653 0.16884 0.0
C1084 C 0.67399 0.49589 0.1764 0.0
C1085 C 0.67668 0.47038 0.18418 0.0
H1086 H 0.49824 0.12428 0.0623 0.0
H1087 H 0.48701 0.23056 0.06275 0.0
H1088 H 0.52821 0.14164 0.04388 0.0
H1089 H 0.51753 0.24842 0.04467 0.0
H1090 H 0.56042 0.27509 1.01143 0.0
H1091 H 0.51217 0.23211 0.0245 0.0
H1092 H 0.59055 0.19384 0.03736 0.0
H1093 H 0.63801 0.23579 0.02393 0.0
C1094 C 0.50165 0.15101 0.0584 0.0
C1095 C 0.49052 0.17624 0.06406 0.0
C1096 C 0.51903 0.16108 0.04787 0.0
C1097 C 0.5252 0.19635 0.04271 0.0
C1098 C 0.51271 0.22064 0.04822 0.0
C1099 C 0.49568 0.21075 0.05872 0.0
C1100 C 0.56622 0.25543 0.01653 0.0
C1101 C 0.60278 0.2585 0.01661 0.0
C1102 C 0.53895 0.23145 0.02422 0.0
C1103 C 0.54797 0.21058 0.03229 0.0
C1104 C 0.58254 0.20952 0.03132 0.0
C1105 C 0.60968 0.23324 0.02351 0.0
H1106 H 0.96931 0.37438 0.05597 0.0
H1107 H 0.86964 0.32529 0.07661 0.0
H1108 H 0.92987 0.37733 0.03994 0.0
H1109 H 0.83011 0.32731 0.06046 0.0
H1110 H 0.76392 0.28852 0.02582 0.0
H1111 H 0.81108 0.28827 0.03947 0.0
H1112 H 0.88691 0.41626 0.03633 0.0
H1113 H 0.8387 0.41681 0.02269 0.0
C1114 C 0.93891 0.36392 0.05706 0.0
C1115 C 0.92248 0.34924 0.06755 0.0
C1116 C 0.91651 0.36596 0.0479 0.0
C1117 C 0.87698 0.35248 0.04895 0.0
C1118 C 0.86053 0.33773 0.05941 0.0
C1119 C 0.88311 0.33657 0.06865 0.0
C1120 C 0.79114 0.3165 0.02775 0.0
C1121 C 0.79749 0.35275 0.02321 0.0
C1122 C 0.81796 0.31634 0.03566 0.0
C1123 C 0.85219 0.35233 0.03914 0.0
C1124 C 0.86054 0.38809 0.03382 0.0
C1125 C 0.83323 0.38835 0.02592 0.0
H1126 H 0.67698 0.59755 0.06452 0.0
H1127 H 0.76844 0.5777 0.0773 0.0
H1128 H 0.6735 0.56242 0.04624 0.0
H1129 H 0.7651 0.54308 0.05916 0.0
H1130 H 0.77385 0.50476 0.02467 0.0
H1131 H 0.77787 0.5552 0.03875 0.0
H1132 H 0.65286 0.48987 0.03954 0.0
H1133 H 0.64904 0.43955 0.02523 0.0
C1134 C 0.69673 0.58626 0.06338 0.0
C1135 C 0.72304 0.59047 0.07239 0.0
C1136 C 0.69456 0.56596 0.05293 0.0
C1137 C 0.71917 0.55015 0.05119 0.0
C1138 C 0.74613 0.55543 0.06011 0.0
C1139 C 0.74789 0.57509 0.07057 0.0
C1140 C 0.74714 0.50232 0.02743 0.0
C1141 C 0.71114 0.4685 0.02379 0.0
C1142 C 0.74945 0.53085 0.03563 0.0
C1143 C 0.71577 0.52604 0.04049 0.0
C1144 C 0.67937 0.49449 0.03597 0.0
C1145 C 0.67709 0.46585 0.02769 0.0
H1146 H 0.56299 0.87693 0.90873 0.0
H1147 H 0.60729 0.98437 0.88962 0.0
H1148 H 0.52619 0.83552 0.89155 0.0
H1149 H 0.5704 0.94291 0.87246 0.0
H1150 H 0.48346 0.76631 0.85735 0.0
H1151 H 0.53366 0.8125 0.87185 0.0
H1152 H 0.50012 0.90183 0.86629 0.0
H1153 H 0.45002 0.85558 0.852 0.0
C1154 C 0.56491 0.89175 0.90088 0.0
C1155 C 0.58791 0.93408 0.90061 0.0
C1156 C 0.54416 0.86794 0.89098 0.0
C1157 C 0.54552 0.88583 0.88058 0.0
C1158 C 0.56863 0.92814 0.88031 0.0
C1159 C 0.58974 0.95191 0.89017 0.0
C1160 C 0.48814 0.79653 0.85887 0.0
C1161 C 0.46333 0.80768 0.85343 0.0
C1162 C 0.51636 0.82271 0.86732 0.0
C1163 C 0.52058 0.8607 0.87035 0.0
C1164 C 0.49789 0.87299 0.86415 0.0
C1165 C 0.46936 0.84663 0.85589 0.0
H1166 H 0.11461 0.69111 0.88595 0.0
H1167 H 0.22314 0.71937 0.90324 0.0
H1168 H 0.14644 0.70825 0.86769 0.0
H1169 H 0.25505 0.73733 0.88521 0.0
H1170 H 0.31269 0.78697 0.85419 0.0
H1171 H 0.27232 0.7887 0.86918 0.0
H1172 H 0.17812 0.67243 0.85616 0.0
H1173 H 0.21887 0.67045 0.84138 0.0
C1174 C 0.14537 0.70167 0.88586 0.0
C1175 C 0.16639 0.7036 0.89597 0.0
C1176 C 0.16354 0.71148 0.87544 0.0
C1177 C 0.20334 0.72458 0.87503 0.0
C1178 C 0.22452 0.72799 0.88525 0.0
C1179 C 0.20621 0.71727 0.89556 0.0
C1180 C 0.28252 0.76311 0.85406 0.0
C1181 C 0.26882 0.72872 0.84657 0.0
C1182 C 0.25962 0.76372 0.86278 0.0
C1183 C 0.22234 0.73031 0.86398 0.0
C1184 C 0.20668 0.69865 0.85545 0.0
C1185 C 0.22986 0.69774 0.84687 0.0
H1186 H 0.37541 0.47252 0.88959 0.0
H1187 H 0.34575 0.55255 0.90741 0.0
H1188 H 0.36192 0.49349 0.87117 0.0
H1189 H 0.33153 0.57278 0.88919 0.0
H1190 H 0.28709 0.5887 0.85633 0.0
H1191 H 0.28469 0.54329 0.8709 0.0
H1192 H 0.39773 0.56539 0.86231 0.0
H1193 H 0.4003 0.61137 0.84794 0.0
C1194 C 0.36538 0.49403 0.88954 0.0
C1195 C 0.36191 0.5112 0.8999 0.0
C1196 C 0.35769 0.506 0.87904 0.0
C1197 C 0.34529 0.53446 0.87874 0.0
C1198 C 0.34044 0.55034 0.88912 0.0
C1199 C 0.34899 0.53913 0.89956 0.0
C1200 C 0.31033 0.58192 0.8571 0.0
C1201 C 0.34361 0.60299 0.8509 0.0
C1202 C 0.30925 0.55644 0.86556 0.0
C1203 C 0.34126 0.55124 0.86784 0.0
C1204 C 0.37255 0.56859 0.8607 0.0
C1205 C 0.37388 0.59462 0.85239 0.0
H1206 H 0.5727 0.94859 0.97366 0.0
H1207 H 0.58536 0.84323 0.97471 0.0
H1208 H 0.53575 0.92867 0.99082 0.0
H1209 H 0.54893 0.82362 0.99172 0.0
H1210 H 0.49778 0.79631 0.02412 0.0
H1211 H 0.54875 0.83917 1.01171 0.0
H1212 H 0.47246 0.87602 0.99629 0.0
H1213 H 0.42223 0.83415 1.00903 0.0
C1214 C 0.56766 0.9212 0.9775 0.0
C1215 C 0.58213 0.89754 0.97271 0.0
C1216 C 0.54662 0.90991 0.9874 0.0
C1217 C 0.53967 0.87478 0.9928 0.0
C1218 C 0.55454 0.85149 0.98805 0.0
C1219 C 0.57539 0.86267 0.97819 0.0
C1220 C 0.49292 0.81568 0.0186 0.0
C1221 C 0.45624 0.81227 0.01762 0.0
C1222 C 0.52177 0.83952 1.01127 0.0
C1223 C 0.51429 0.85998 1.00269 0.0
C1224 C 0.47934 0.86066 1.00274 0.0
C1225 C 0.45061 0.83704 1.01017 0.0
H1226 H 0.10717 0.67336 0.96626 0.0
H1227 H 0.2175 0.77782 0.9598 0.0
H1228 H 0.13444 0.66788 0.98468 0.0
H1229 H 0.24453 0.77238 0.97814 0.0
H1230 H 0.28248 0.77484 1.0135 0.0
H1231 H 0.23944 0.77889 0.99902 0.0
H1232 H 0.1852 0.65032 0.99111 0.0
H1233 H 0.22824 0.64639 1.00579 0.0
C1234 C 0.13709 0.69548 0.96882 0.0
C1235 C 0.1602 0.72608 0.96153 0.0
C1236 C 0.1527 0.69217 0.97936 0.0
C1237 C 0.19156 0.71978 0.98293 0.0
C1238 C 0.21428 0.75096 0.97576 0.0
C1239 C 0.19887 0.75396 0.96518 0.0
C1240 C 0.25999 0.74712 1.00907 0.0
C1241 C 0.25851 0.71028 1.0108 0.0
C1242 C 0.23577 0.74953 1.00064 0.0
C1243 C 0.20964 0.71516 0.99369 0.0
C1244 C 0.20507 0.67739 0.9963 0.0
C1245 C 0.2294 0.67499 1.0048 0.0
H1246 H 0.28309 0.47783 0.95831 0.0
H1247 H 0.38253 0.46922 0.96979 0.0
H1248 H 0.28858 0.51562 0.97602 0.0
H1249 H 0.38793 0.50714 0.98766 0.0
H1250 H 0.41185 0.63058 1.0072 0.0
H1251 H 0.40626 0.57805 0.99343 0.0
H1252 H 0.28209 0.51125 0.99654 0.0
H1253 H 0.28787 0.56413 1.01002 0.0
C1254 C 0.3058 0.48346 0.96469 0.0
C1255 C 0.33235 0.47047 0.96259 0.0
C1256 C 0.30883 0.50497 0.97492 0.0
C1257 C 0.33865 0.51437 0.98334 0.0
C1258 C 0.36473 0.50058 0.98136 0.0
C1259 C 0.36146 0.47864 0.97114 0.0
C1260 C 0.38372 0.60366 1.00534 0.0
C1261 C 0.35034 0.60113 1.00974 0.0
C1262 C 0.38038 0.57367 0.99738 0.0
C1263 C 0.34356 0.54082 0.99367 0.0
C1264 C 0.31077 0.53653 0.999 0.0
C1265 C 0.31411 0.56647 1.00687 0.0
H1266 H 0.19148 0.49451 0.4584 0.0
H1267 H 0.09444 0.44742 0.48007 0.0
H1268 H 0.23466 0.53714 0.47458 0.0
H1269 H 0.13779 0.4907 0.49623 0.0
H1270 H 0.23537 0.61897 0.5161 0.0
H1271 H 0.18416 0.57022 0.50206 0.0
H1272 H 0.25643 0.52018 0.49363 0.0
H1273 H 0.30664 0.5678 0.50753 0.0
C1274 C 0.17933 0.49329 0.46659 0.0
C1275 C 0.13957 0.46724 0.46794 0.0
C1276 C 0.20406 0.51766 0.47587 0.0
C1277 C 0.18961 0.51712 0.4867 0.0
C1278 C 0.14971 0.49183 0.488 0.0
C1279 C 0.12502 0.46686 0.47875 0.0
C1280 C 0.23957 0.59658 0.51152 0.0
C1281 C 0.27513 0.59743 0.51284 0.0
C1282 C 0.21049 0.56894 0.50342 0.0
C1283 C 0.2168 0.5421 0.49655 0.0
C1284 C 0.25107 0.54106 0.4986 0.0
C1285 C 0.2797 0.56818 0.50664 0.0
H1286 H 0.51067 0.68275 0.46423 0.0
H1287 H 0.61918 0.71564 0.48234 0.0
H1288 H 0.47809 0.66726 0.48218 0.0
H1289 H 0.58673 0.70113 0.50054 0.0
H1290 H 0.51431 0.74382 0.52505 0.0
H1291 H 0.55469 0.73892 0.51063 0.0
H1292 H 0.46056 0.62027 0.49927 0.0
H1293 H 0.42052 0.62492 0.51395 0.0
C1294 C 0.52738 0.68618 0.47208 0.0
C1295 C 0.5674 0.70058 0.47194 0.0
C1296 C 0.50872 0.67695 0.48235 0.0
C1297 C 0.52977 0.68269 0.49278 0.0
C1298 C 0.56973 0.69617 0.49263 0.0
C1299 C 0.58827 0.70446 0.48226 0.0
C1300 C 0.50318 0.71564 0.51997 0.0
C1301 C 0.46444 0.6846 0.52069 0.0
C1302 C 0.5262 0.71296 0.51163 0.0
C1303 C 0.51056 0.6795 0.50369 0.0
C1304 C 0.47328 0.64653 0.50523 0.0
C1305 C 0.45054 0.64891 0.51375 0.0
H1306 H 0.34689 0.93408 0.48177 0.0
H1307 H 0.389 0.86374 0.46472 0.0
H1308 H 0.36128 0.91508 0.50044 0.0
H1309 H 0.40437 0.84564 0.48316 0.0
H1310 H 0.44362 0.82713 0.51605 0.0
H1311 H 0.4464 0.87452 0.50211 0.0
H1312 H 0.32909 0.84305 0.50875 0.0
H1313 H 0.32627 0.79526 0.5225 0.0
C1314 C 0.36013 0.91543 0.48207 0.0
C1315 C 0.36678 0.90018 0.47188 0.0
C1316 C 0.36831 0.90454 0.4927 0.0
C1317 C 0.3843 0.87917 0.49328 0.0
C1318 C 0.39271 0.86577 0.48304 0.0
C1319 C 0.38367 0.8758 0.47248 0.0
C1320 C 0.41939 0.8323 0.51506 0.0
C1321 C 0.3849 0.8079 0.52045 0.0
C1322 C 0.42072 0.85895 0.50694 0.0
C1323 C 0.38772 0.86201 0.50419 0.0
C1324 C 0.35505 0.84156 0.5107 0.0
C1325 C 0.35354 0.81444 0.51868 0.0
H1326 H 0.10331 0.49148 0.38485 0.0
H1327 H 0.20092 0.50199 0.4049 0.0
H1328 H 0.14283 0.51475 0.36834 0.0
H1329 H 0.24101 0.52646 0.38853 0.0
H1330 H 0.30878 0.56341 0.35793 0.0
H1331 H 0.25767 0.51666 0.36986 0.0
H1332 H 0.19295 0.57702 0.36285 0.0
H1333 H 0.2433 0.62232 0.35083 0.0
C1334 C 0.1333 0.49889 0.38574 0.0
C1335 C 0.14913 0.49546 0.39625 0.0
C1336 C 0.15601 0.51216 0.37625 0.0
C1337 C 0.19538 0.5229 0.37704 0.0
C1338 C 0.21073 0.51793 0.38746 0.0
C1339 C 0.18783 0.50418 0.39692 0.0
C1340 C 0.28251 0.56496 0.35845 0.0
C1341 C 0.27961 0.59599 0.35334 0.0
C1342 C 0.25358 0.53882 0.36549 0.0
C1343 C 0.22138 0.54347 0.36757 0.0
C1344 C 0.21693 0.57204 0.36146 0.0
C1345 C 0.24574 0.59799 0.35446 0.0
H1346 H 0.57161 0.71653 0.40972 0.0
H1347 H 0.61469 0.65559 0.38832 0.0
H1348 H 0.53998 0.72608 0.39297 0.0
H1349 H 0.58241 0.66487 0.37148 0.0
H1350 H 0.46366 0.63953 0.35142 0.0
H1351 H 0.51178 0.63815 0.36455 0.0
H1352 H 0.55632 0.76382 0.37474 0.0
H1353 H 0.50826 0.76507 0.36144 0.0
C1354 C 0.57425 0.70501 0.40145 0.0
C1355 C 0.59551 0.685 0.4004 0.0
C1356 C 0.55652 0.71099 0.39181 0.0
C1357 C 0.5591 0.69673 0.38086 0.0
C1358 C 0.58004 0.67638 0.37979 0.0
C1359 C 0.59839 0.67094 0.38944 0.0
C1360 C 0.48524 0.66744 0.35597 0.0
C1361 C 0.48273 0.7026 0.35527 0.0
C1362 C 0.51257 0.66657 0.3636 0.0
C1363 C 0.5374 0.70066 0.37084 0.0
C1364 C 0.53725 0.73692 0.36936 0.0
C1365 C 0.51025 0.73791 0.36159 0.0
H1366 H 0.34339 0.8799 0.40831 0.0
H1367 H 0.4123 0.98583 0.38954 0.0
H1368 H 0.33934 0.83668 0.39194 0.0
H1369 H 0.40861 0.94231 0.37315 0.0
H1370 H 0.43916 0.84466 0.35763 0.0
H1371 H 0.43581 0.89506 0.37007 0.0
H1372 H 0.31189 0.81599 0.37112 0.0
H1373 H 0.31534 0.76576 0.3584 0.0
C1374 C 0.35769 0.89401 0.40069 0.0
C1375 C 0.37846 0.93641 0.40029 0.0
C1376 C 0.35495 0.86917 0.39125 0.0
C1377 C 0.37337 0.88602 0.3812 0.0
C1378 C 0.39403 0.92842 0.38076 0.0
C1379 C 0.3962 0.95332 0.39015 0.0
C1380 C 0.41097 0.8389 0.36009 0.0
C1381 C 0.37744 0.80159 0.35695 0.0
C1382 C 0.40906 0.86766 0.36727 0.0
C1383 C 0.37367 0.85933 0.3717 0.0
C1384 C 0.33963 0.82312 0.36791 0.0
C1385 C 0.34146 0.79462 0.36051 0.0
H1386 H 0.31453 0.06301 0.13281 0.0
H1387 H 0.27841 0.12765 0.11083 0.0
H1388 H 0.27075 0.06176 0.1471 0.0
H1389 H 0.23425 0.12572 0.12494 0.0
H1390 H 0.16711 0.1338 0.15304 0.0
H1391 H 0.22721 0.14873 0.14407 0.0
H1392 H 0.19995 0.02564 0.148 0.0
H1393 H 0.14037 0.01118 0.15691 0.0
C1394 C 0.29765 0.07739 0.13107 0.0
C1395 C 0.29975 0.09504 0.12059 0.0
C1396 C 0.27239 0.07651 0.13925 0.0
C1397 C 0.2489 0.09366 0.13721 0.0
C1398 C 0.25219 0.11267 0.12691 0.0
C1399 C 0.27714 0.11323 0.11871 0.0
C1400 C 0.17513 0.11069 0.15251 0.0
C1401 C 0.14945 0.07152 0.15582 0.0
C1402 C 0.20916 0.11894 0.14718 0.0
C1403 C 0.21817 0.0882 0.14512 0.0
C1404 C 0.19424 0.05016 0.14948 0.0
C1405 C 0.16014 0.04188 0.15468 0.0
H1406 H 0.02253 0.30105 0.11873 0.0
H1407 H 0.90169 0.20727 0.11568 0.0
H1408 H 0.03733 0.25914 0.13051 0.0
H1409 H 0.91684 0.16423 0.12718 0.0
H1410 H 0.95434 0.10521 0.15486 0.0
H1411 H 0.93723 0.15171 0.14577 0.0
H1412 H 0.04323 0.202 0.12788 0.0
H1413 H 0.0605 0.15757 0.13707 0.0
C1414 C 0.9991 0.27121 0.12045 0.0
C1415 C 0.96098 0.25741 0.11608 0.0
C1416 C 1.00761 0.24701 0.12724 0.0
C1417 C 0.97841 0.20787 0.12975 0.0
C1418 C 0.94007 0.19425 0.12554 0.0
C1419 C 0.93145 0.21878 0.11882 0.0
C1420 C 0.97418 0.12685 0.14916 0.0
C1421 C 1.00873 0.12749 0.1467 0.0
C1422 C 0.96423 0.15319 0.14384 0.0
C1423 C 0.98882 0.18084 0.13604 0.0
C1424 C 0.02374 0.18192 0.13394 0.0
C1425 C 0.03355 0.15595 0.13919 0.0
H1426 H 0.76255 0.76241 0.11867 0.0
H1427 H 0.84188 0.71712 0.12144 0.0
H1428 H 0.80873 0.82327 0.13008 0.0
H1429 H 0.88883 0.77884 0.13259 0.0
H1430 H 0.95818 0.88852 0.15849 0.0
H1431 H 0.90599 0.82184 0.15047 0.0
H1432 H 0.86864 0.88135 0.12683 0.0
H1433 H 0.91908 0.94636 0.13483 0.0
C1434 C 0.78996 0.76551 0.12165 0.0
C1435 C 0.79862 0.73501 0.11896 0.0
C1436 C 0.81656 0.80051 0.12822 0.0
C1437 C 0.85285 0.80635 0.13221 0.0
C1438 C 0.86111 0.77535 0.12978 0.0
C1439 C 0.83431 0.7401 0.12326 0.0
C1440 C 0.93824 0.88704 0.15173 0.0
C1441 C 0.94299 0.92275 0.14726 0.0
C1442 C 0.9086 0.84895 0.14705 0.0
C1443 C 0.88294 0.84604 0.13796 0.0
C1444 C 0.88718 0.882 0.13389 0.0
C1445 C 0.91655 0.91954 0.13846 0.0
H1446 H 0.1215 0.32722 0.42499 0.0
H1447 H 0.03734 0.31432 0.39857 0.0
H1448 H 0.12659 0.27271 0.41533 0.0
H1449 H 0.0412 0.25917 0.38919 0.0
H1450 H 0.06588 0.17178 0.37032 0.0
H1451 H 0.07676 0.23677 0.37844 0.0
H1452 H 0.09063 0.20243 0.41224 0.0
H1453 H 0.08138 0.13917 0.40416 0.0
C1454 C 0.10394 0.31264 0.41716 0.0
C1455 C 0.07881 0.32504 0.41263 0.0
C1456 C 0.10678 0.28127 0.4116 0.0
C1457 C 0.08428 0.26119 0.40141 0.0
C1458 C 0.0596 0.27415 0.39685 0.0
C1459 C 0.05703 0.30564 0.40234 0.0
C1460 C 0.07236 0.17876 0.37943 0.0
C1461 C 0.07234 0.15004 0.38658 0.0
C1462 C 0.0781 0.21579 0.38413 0.0
C1463 C 0.08401 0.22489 0.39607 0.0
C1464 C 0.08652 0.19708 0.40305 0.0
C1465 C 0.0809 0.16041 0.39837 0.0
H1466 H 0.79915 0.87368 0.42717 0.0
H1467 H 0.73369 0.7816 0.40031 0.0
H1468 H 0.84037 0.919 0.41318 0.0
H1469 H 0.7748 0.82747 0.38615 0.0
H1470 H 0.89998 0.90296 0.37078 0.0
H1471 H 0.84298 0.85687 0.3809 0.0
H1472 H 0.84277 0.9593 0.39731 0.0
H1473 H 0.90011 1.00505 0.38729 0.0
C1474 C 0.79339 0.86314 0.41826 0.0
C1475 C 0.76321 0.8238 0.41492 0.0
C1476 C 0.81675 0.8894 0.41017 0.0
C1477 C 0.81088 0.87713 0.39847 0.0
C1478 C 0.78025 0.83797 0.39508 0.0
C1479 C 0.75652 0.81174 0.40319 0.0
C1480 C 0.88634 0.91548 0.37605 0.0
C1481 C 0.90401 0.95759 0.37807 0.0
C1482 C 0.85387 0.88907 0.38197 0.0
C1483 C 0.83868 0.90431 0.39014 0.0
C1484 C 0.85411 0.94646 0.39126 0.0
C1485 C 0.8865 0.97276 0.38534 0.0
H1486 H 0.19664 0.95974 0.4249 0.0
H1487 H 0.27778 0.98888 0.39849 0.0
H1488 H 0.14773 0.95457 0.41096 0.0
H1489 H 0.22816 0.98315 0.38431 0.0
H1490 H 0.14316 0.02997 0.37026 0.0
H1491 H 0.19382 0.02116 0.37978 0.0
H1492 H 0.10544 0.91393 0.3946 0.0
H1493 H 0.05529 0.92357 0.38532 0.0
C1494 C 0.204 0.96487 0.41608 0.0
C1495 C 0.2413 0.97502 0.41286 0.0
C1496 C 0.1757 0.96137 0.40802 0.0
C1497 C 0.18373 0.96809 0.39644 0.0
C1498 C 0.22093 0.97777 0.39314 0.0
C1499 C 0.24929 0.98083 0.40125 0.0
C1500 C 0.13464 1.00332 0.37504 0.0
C1501 C 0.09527 0.97719 0.37695 0.0
C1502 C 0.16368 0.99846 0.38062 0.0
C1503 C 0.15379 0.9674 0.38821 0.0
C1504 C 0.1142 0.93874 0.38904 0.0
C1505 C 0.08535 0.94377 0.38354 0.0
H1506 H 0.80035 0.97655 0.92666 0.0
H1507 H 0.73368 0.98369 0.89808 0.0
H1508 H 0.84139 0.96665 0.91363 0.0
H1509 H 0.77544 0.97411 0.88482 0.0
H1510 H 0.90789 0.02471 0.87222 0.0
H1511 H 0.84906 0.01694 0.88052 0.0
H1512 H 0.83774 0.91583 0.89871 0.0
H1513 H 0.89648 0.92401 0.89053 0.0
C1514 C 0.79438 0.97576 0.91756 0.0
C1515 C 0.76392 0.98104 0.9134 0.0
C1516 C 0.81766 0.96969 0.91006 0.0
C1517 C 0.81154 0.96925 0.89815 0.0
C1518 C 0.7808 0.97417 0.89393 0.0
C1519 C 0.75685 0.97947 0.9015 0.0
C1520 C 0.89147 0.99938 0.87745 0.0
C1521 C 0.90652 0.97471 0.88065 0.0
C1522 C 0.85797 0.99516 0.88231 0.0
C1523 C 0.83924 0.96633 0.89048 0.0
C1524 C 0.85185 0.93875 0.89259 0.0
C1525 C 0.88517 0.943 0.88777 0.0
H1526 H 0.01709 0.74341 0.89988 0.0
H1527 H 0.11459 0.8189 0.9236 0.0
H1528 H 0.02425 0.80333 0.89111 0.0
H1529 H 0.1228 0.87891 0.91456 0.0
H1530 H 0.08816 0.9738 0.90661 0.0
H1531 H 0.09279 0.9176 0.91355 0.0
H1532 H 0.06072 0.85916 0.87959 0.0
H1533 H 0.05482 0.91579 0.87269 0.0
C1534 C 0.04025 0.77284 0.9032 0.0
C1535 C 0.06493 0.77627 0.91257 0.0
C1536 C 0.04469 0.80731 0.89805 0.0
C1537 C 0.07417 0.84629 0.90206 0.0
C1538 C 0.09933 0.84959 0.91131 0.0
C1539 C 0.09464 0.8151 0.91653 0.0
C1540 C 0.08293 0.94941 0.90053 0.0
C1541 C 0.07081 0.94917 0.88911 0.0
C1542 C 0.08575 0.91703 0.90453 0.0
C1543 C 0.07666 0.88324 0.89722 0.0
C1544 C 0.0672 0.88425 0.88555 0.0
C1545 C 0.0644 0.91697 0.88152 0.0
H1546 H 0.28399 0.33926 0.90692 0.0
H1547 H 0.22327 0.28253 0.93679 0.0
H1548 H 0.2306 0.2861 0.89464 0.0
H1549 H 0.17069 0.22915 0.92461 0.0
H1550 H 0.0657 0.15503 0.90227 0.0
H1551 H 0.11804 0.21683 0.91186 0.0
H1552 H 0.1985 0.21488 0.88848 0.0
H1553 H 0.14519 0.15336 0.8786 0.0
C1554 C 0.25937 0.31536 0.91088 0.0
C1555 C 0.25795 0.31536 0.92288 0.0
C1556 C 0.22876 0.28478 0.90382 0.0
C1557 C 0.1959 0.2534 0.90857 0.0
C1558 C 0.1949 0.25326 0.92058 0.0
C1559 C 0.22533 0.2838 0.92761 0.0
C1560 C 0.09431 0.16862 0.89893 0.0
C1561 C 0.10132 0.14941 0.88967 0.0
C1562 C 0.12455 0.20373 0.90455 0.0
C1563 C 0.16292 0.22035 0.90121 0.0
C1564 C 0.1694 0.203 0.89134 0.0
C1565 C 0.13881 0.16788 0.88559 0.0
H1566 H 0.95947 0.71555 0.62454 0.0
H1567 H 0.01464 0.80298 0.59911 0.0
H1568 H 0.95749 0.76736 0.63689 0.0
H1569 H 0.01233 0.85429 0.61136 0.0
H1570 H 0.96808 0.92585 0.62906 0.0
H1571 H 0.95994 0.86608 0.61854 0.0
H1572 H 1.00561 0.836 0.64811 0.0
H1573 H 0.0139 0.89665 0.65876 0.0
C1574 C 0.97098 0.74571 0.62155 0.0
C1575 C 0.98704 0.755 0.61077 0.0
C1576 C 0.97003 0.77541 0.62867 0.0
C1577 C 0.98447 0.81488 0.62509 0.0
C1578 C 1.00046 0.82404 0.61432 0.0
C1579 C 1.00193 0.79463 0.6073 0.0
C1580 C 0.97546 0.90597 0.63345 0.0
C1581 C 0.9919 0.91619 0.64473 0.0
C1582 C 0.97112 0.87188 0.62737 0.0
C1583 C 0.98303 0.84682 0.63237 0.0
C1584 C 0.99631 0.85486 0.644 0.0
C1585 C 1.00078 0.88937 0.65013 0.0
H1586 H 0.33053 0.28762 0.63347 0.0
H1587 H 0.25988 0.19903 0.60637 0.0
H1588 H 0.29219 0.2396 0.64769 0.0
H1589 H 0.22179 0.15156 0.62039 0.0
H1590 H 0.16724 0.06174 0.64502 0.0
H1591 H 0.22476 0.10982 0.6355 0.0
H1592 H 0.22289 0.20883 0.65353 0.0
H1593 H 0.16564 0.16039 0.66316 0.0
C1594 C 0.30714 0.25778 0.63057 0.0
C1595 C 0.29798 0.24724 0.6188 0.0
C1596 C 0.28515 0.23037 0.63869 0.0
C1597 C 0.2541 0.19158 0.6352 0.0
C1598 C 0.24587 0.18085 0.62342 0.0
C1599 C 0.26736 0.2083 0.61535 0.0
C1600 C 0.18057 0.0937 0.64745 0.0
C1601 C 0.16236 0.10736 0.65493 0.0
C1602 C 0.2131 0.12132 0.64185 0.0
C1603 C 0.22784 0.1632 0.64354 0.0
C1604 C 0.21236 0.17683 0.65204 0.0
C1605 C 0.17977 0.14907 0.65767 0.0
H1606 H 0.79888 0.0163 0.61898 0.0
H1607 H 0.83985 0.14356 0.62479 0.0
H1608 H 0.84816 0.0219 0.63304 0.0
H1609 H 0.88978 0.14941 0.63886 0.0
H1610 H 1.00433 0.13769 0.64496 0.0
H1611 H 0.94981 0.14199 0.63653 0.0
H1612 H 0.87025 0.03774 0.65432 0.0
H1613 H 0.9252 0.0341 0.66295 0.0
C1614 C 0.81837 0.04547 0.62331 0.0
C1615 C 0.8157 0.07956 0.62069 0.0
C1616 C 0.8463 0.0486 0.63148 0.0
C1617 C 0.87279 0.08606 0.63713 0.0
C1618 C 0.86974 0.12011 0.63468 0.0
C1619 C 0.84118 0.11678 0.62664 0.0
C1620 C 0.97535 0.11709 0.64755 0.0
C1621 C 0.96904 0.08588 0.65471 0.0
C1622 C 0.94404 0.11933 0.64265 0.0
C1623 C 0.90564 0.08982 0.64461 0.0
C1624 C 0.89951 0.06072 0.65257 0.0
C1625 C 0.93098 0.059 0.65766 0.0
H1626 H 0.9159 0.39281 0.43862 0.0
H1627 H 0.99872 0.43398 0.46759 0.0
H1628 H 0.87241 0.40582 0.44974 0.0
H1629 H 0.95447 0.4465 0.47895 0.0
H1630 H 0.82206 0.39125 0.49368 0.0
H1631 H 0.88131 0.39764 0.48593 0.0
H1632 H 0.87431 0.46903 0.45928 0.0
H1633 H 0.8156 0.46257 0.46694 0.0
C1634 C 0.92481 0.40484 0.44737 0.0
C1635 C 0.96065 0.41245 0.45223 0.0
C1636 C 0.90005 0.41253 0.45374 0.0
C1637 C 0.91012 0.42742 0.46521 0.0
C1638 C 0.94604 0.43513 0.47012 0.0
C1639 C 0.97136 0.42822 0.46362 0.0
C1640 C 0.8344 0.41002 0.48653 0.0
C1641 C 0.81421 0.42632 0.48089 0.0
C1642 C 0.86813 0.41342 0.48204 0.0
C1643 C 0.88191 0.43313 0.47186 0.0
C1644 C 0.86405 0.45317 0.46703 0.0
C1645 C 0.83062 0.44978 0.47149 0.0
H1646 H 0.68261 0.62782 0.45232 0.0
H1647 H 0.55859 0.54754 0.44736 0.0
H1648 H 0.68767 0.57692 0.46314 0.0
H1649 H 0.5637 0.49692 0.45815 0.0
H1650 H 0.60335 0.40167 0.463 0.0
H1651 H 0.59129 0.45255 0.45506 0.0
H1652 H 0.66878 0.54015 0.48149 0.0
H1653 H 0.6805 0.4885 0.48954 0.0
C1654 C 0.65644 0.59933 0.4535 0.0
C1655 C 0.62023 0.59174 0.44886 0.0
C1656 C 0.65928 0.57033 0.45983 0.0
C1657 C 0.62606 0.53283 0.46158 0.0
C1658 C 0.58991 0.52534 0.45694 0.0
C1659 C 0.58701 0.55443 0.45073 0.0
C1660 C 0.61669 0.43139 0.46737 0.0
C1661 C 0.64246 0.44095 0.47698 0.0
C1662 C 0.60994 0.46068 0.46278 0.0
C1663 C 0.62939 0.50066 0.46754 0.0
C1664 C 0.65366 0.50975 0.47754 0.0
C1665 C 0.65988 0.48006 0.48227 0.0
H1666 H 0.51405 0.04152 0.44938 0.0
H1667 H 0.43922 0.09226 0.45169 0.0
H1668 H 0.56576 0.10069 0.46031 0.0
H1669 H 0.49112 0.15156 0.46268 0.0
H1670 H 0.58303 0.24029 0.48959 0.0
H1671 H 0.5311 0.17377 0.48163 0.0
H1672 H 0.60805 0.17329 0.45672 0.0
H1673 H 0.65922 0.23943 0.46454 0.0
C1674 C 0.50857 0.06529 0.45221 0.0
C1675 C 0.47247 0.06216 0.44954 0.0
C1676 C 0.53828 0.09923 0.4585 0.0
C1677 C 0.53261 0.13086 0.46244 0.0
C1678 C 0.49633 0.12753 0.45992 0.0
C1679 C 0.46671 0.09373 0.4535 0.0
C1680 C 0.58914 0.22517 0.48269 0.0
C1681 C 0.62528 0.24482 0.47776 0.0
C1682 C 0.55926 0.18742 0.47801 0.0
C1683 C 0.56524 0.16834 0.46844 0.0
C1684 C 0.60238 0.18686 0.4641 0.0
C1685 C 0.63183 0.22473 0.46862 0.0
H1686 H 0.78413 0.67159 0.75457 0.0
H1687 H 0.68441 0.64257 0.73214 0.0
H1688 H 0.79116 0.61916 0.74445 0.0
H1689 H 0.69026 0.58915 0.72233 0.0
H1690 H 0.71634 0.50568 0.70197 0.0
H1691 H 0.72401 0.56966 0.70982 0.0
H1692 H 0.76214 0.54929 0.7426 0.0
H1693 H 0.75599 0.48719 0.73467 0.0
C1694 C 0.76344 0.65374 0.74756 0.0
C1695 C 0.73349 0.66112 0.74426 0.0
C1696 C 0.76743 0.62357 0.74172 0.0
C1697 C 0.74127 0.59954 0.7325 0.0
C1698 C 0.71151 0.6073 0.72919 0.0
C1699 C 0.70781 0.63772 0.73494 0.0
C1700 C 0.72767 0.51577 0.71072 0.0
C1701 C 0.7353 0.4912 0.7177 0.0
C1702 C 0.73146 0.55211 0.71531 0.0
C1703 C 0.74303 0.56461 0.72697 0.0
C1704 C 0.75343 0.54129 0.73361 0.0
C1705 C 0.74973 0.50532 0.72904 0.0
H1706 H 0.39686 0.11837 0.73371 0.0
H1707 H 0.45903 0.21097 0.76071 0.0
H1708 H 0.43872 0.16461 0.71975 0.0
H1709 H 0.50111 0.25654 0.74694 0.0
H1710 H 0.56212 0.34319 0.72144 0.0
H1711 H 0.5044 0.29658 0.73114 0.0
H1712 H 0.50692 0.19541 0.71474 0.0
H1713 H 0.56417 0.24243 0.70484 0.0
C1714 C 0.41914 0.14867 0.73666 0.0
C1715 C 0.42465 0.16079 0.74838 0.0
C1716 C 0.44332 0.17512 0.72866 0.0
C1717 C 0.47329 0.21452 0.73216 0.0
C1718 C 0.47803 0.22678 0.74384 0.0
C1719 C 0.45416 0.20035 0.75181 0.0
C1720 C 0.549 0.31097 0.71944 0.0
C1721 C 0.56718 0.29644 0.71223 0.0
C1722 C 0.51637 0.28418 0.72517 0.0
C1723 C 0.50146 0.24213 0.72397 0.0
C1724 C 0.51742 0.22751 0.71587 0.0
C1725 C 0.55004 0.25445 0.71008 0.0
H1726 H 0.93898 0.32438 0.73383 0.0
H1727 H 0.85869 0.29282 0.76061 0.0
H1728 H 0.88931 0.32041 0.72012 0.0
H1729 H 0.80997 0.29022 0.74715 0.0
H1730 H 0.71717 0.26426 0.72195 0.0
H1731 H 0.76639 0.25315 0.73121 0.0
H1732 H 0.85607 0.35751 0.71561 0.0
H1733 H 0.80625 0.36736 0.706 0.0
C1734 C 0.91073 0.3163 0.7368 0.0
C1735 C 0.90307 0.30916 0.74839 0.0
C1736 C 0.8823 0.31431 0.72894 0.0
C1737 C 0.84536 0.30474 0.73245 0.0
C1738 C 0.83768 0.29693 0.74401 0.0
C1739 C 0.86599 0.29906 0.75183 0.0
C1740 C 0.74728 0.28354 0.72006 0.0
C1741 C 0.75786 0.31632 0.71315 0.0
C1742 C 0.77564 0.27772 0.72554 0.0
C1743 C 0.81543 0.30513 0.72446 0.0
C1744 C 0.82581 0.33573 0.71666 0.0
C1745 C 0.79724 0.34123 0.71105 0.0
H1746 H 0.47341 0.30139 0.26346 0.0
H1747 H 0.41297 0.31889 0.23502 0.0
H1748 H 0.51522 0.29315 0.25047 0.0
H1749 H 0.45468 0.30965 0.22181 0.0
H1750 H 0.58093 0.35341 0.20779 0.0
H1751 H 0.52352 0.34633 0.2168 0.0
H1752 H 0.51683 0.24864 0.23583 0.0
H1753 H 0.57475 0.25686 0.22709 0.0
C1754 C 0.4689 0.30333 0.25441 0.0
C1755 C 0.43994 0.31115 0.25033 0.0
C1756 C 0.4926 0.29798 0.24689 0.0
C1757 C 0.48824 0.30033 0.23502 0.0
C1758 C 0.45893 0.30766 0.23089 0.0
C1759 C 0.43486 0.31272 0.23845 0.0
C1760 C 0.5659 0.32907 0.21344 0.0
C1761 C 0.58209 0.30546 0.21667 0.0
C1762 C 0.53318 0.32524 0.21872 0.0
C1763 C 0.5161 0.29764 0.2273 0.0
C1764 C 0.5298 0.27095 0.22949 0.0
C1765 C 0.56257 0.27507 0.22432 0.0
H1766 H 0.84012 0.19143 0.2536 0.0
H1767 H 0.71677 0.10997 0.24723 0.0
H1768 H 0.83617 0.24103 0.24197 0.0
H1769 H 0.71283 0.15977 0.23565 0.0
H1770 H 0.71995 0.24525 0.20886 0.0
H1771 H 0.73269 0.1951 0.21745 0.0
H1772 H 0.80855 0.28519 0.24364 0.0
H1773 H 0.79564 0.33462 0.2351 0.0
C1774 C 0.8121 0.18409 0.24976 0.0
C1775 C 0.77871 0.14673 0.25147 0.0
C1776 C 0.80986 0.21257 0.24306 0.0
C1777 C 0.77423 0.20441 0.23779 0.0
C1778 C 0.74088 0.16688 0.23941 0.0
C1779 C 0.74306 0.13849 0.24618 0.0
C1780 C 0.74057 0.2546 0.21616 0.0
C1781 C 0.75718 0.29392 0.22124 0.0
C1782 C 0.74735 0.22576 0.22122 0.0
C1783 C 0.77128 0.23592 0.23135 0.0
C1784 C 0.79019 0.27622 0.23584 0.0
C1785 C 0.78296 0.30469 0.2309 0.0
H1786 H 0.95647 0.63557 0.24633 0.0
H1787 H 0.8821 0.68539 0.25201 0.0
H1788 H 0.90371 0.57867 0.23493 0.0
H1789 H 0.82942 0.6285 0.24057 0.0
H1790 H 0.73664 0.48956 0.23523 0.0
H1791 H 0.78788 0.55535 0.24319 0.0
H1792 H 0.86185 0.55944 0.21662 0.0
H1793 H 0.80989 0.49316 0.20858 0.0
C1794 C 0.92891 0.63446 0.24514 0.0
C1795 C 0.92349 0.66495 0.2502 0.0
C1796 C 0.89879 0.60205 0.23848 0.0
C1797 C 0.86235 0.59908 0.23677 0.0
C1798 C 0.85705 0.62976 0.24175 0.0
C1799 C 0.88728 0.66236 0.24832 0.0
C1800 C 0.76335 0.50517 0.23085 0.0
C1801 C 0.76922 0.48633 0.22126 0.0
C1802 C 0.79281 0.54288 0.23543 0.0
C1803 C 0.82921 0.56249 0.23064 0.0
C1804 C 0.83428 0.54486 0.22059 0.0
C1805 C 0.80439 0.50724 0.21587 0.0
H1806 H 0.69158 0.08099 0.96961 0.0
H1807 H 0.60714 0.06646 0.94306 0.0
H1808 H 0.68754 0.1364 0.97872 0.0
H1809 H 0.60177 0.12119 0.95246 0.0
H1810 H 0.6463 0.25498 0.96309 0.0
H1811 H 0.63674 0.19126 0.95533 0.0
H1812 H 0.65257 0.15952 0.98932 0.0
H1813 H 0.6639 0.22509 0.9971 0.0
C1814 C 0.67178 0.08937 0.96575 0.0
C1815 C 0.64998 0.06943 0.9555 0.0
C1816 C 0.66909 0.12101 0.97109 0.0
C1817 C 0.64424 0.13359 0.96642 0.0
C1818 C 0.62174 0.11298 0.95627 0.0
C1819 C 0.62474 0.08148 0.95085 0.0
C1820 C 0.6471 0.23419 0.96899 0.0
C1821 C 0.65642 0.24549 0.98072 0.0
C1822 C 0.6413 0.19723 0.9645 0.0
C1823 C 0.64437 0.17004 0.97161 0.0
C1824 C 0.65084 0.18 0.98351 0.0
C1825 C 0.65679 0.21735 0.98803 0.0
H1826 H 0.93407 0.51644 0.93975 0.0
H1827 H 0.98707 0.61767 0.96473 0.0
H1828 H 0.89419 0.47296 0.95417 0.0
H1829 H 0.94821 0.5735 0.97936 0.0
H1830 H 0.82709 0.49305 0.99519 0.0
H1831 H 0.88252 0.5394 0.9847 0.0
H1832 H 0.89122 0.43852 0.97087 0.0
H1833 H 0.83477 0.39231 0.98113 0.0
C1834 C 0.93747 0.52955 0.94832 0.0
C1835 C 0.96379 0.57095 0.95094 0.0
C1836 C 0.91493 0.50427 0.95671 0.0
C1837 C 0.91796 0.5194 0.96804 0.0
C1838 C 0.94479 0.56065 0.97074 0.0
C1839 C 0.96738 0.58603 0.96232 0.0
C1840 C 0.84228 0.48111 0.99043 0.0
C1841 C 0.82703 0.43913 0.98915 0.0
C1842 C 0.8739 0.50768 0.98426 0.0
C1843 C 0.89095 0.49278 0.97665 0.0
C1844 C 0.87828 0.45111 0.97639 0.0
C1845 C 0.8465 0.42459 0.98251 0.0
H1846 H 0.45541 0.4116 0.96744 0.0
H1847 H 0.53207 0.43489 0.94 0.0
H1848 H 0.50633 0.41794 0.98111 0.0
H1849 H 0.58208 0.44009 0.95346 0.0
H1850 H 0.67744 0.47174 0.97812 0.0
H1851 H 0.62731 0.48149 0.9689 0.0
H1852 H 0.53959 0.38043 0.98607 0.0
H1853 H 0.59033 0.37182 0.9956 0.0
C1854 C 0.48316 0.41839 0.96432 0.0
C1855 C 0.48947 0.42251 0.95257 0.0
C1856 C 0.51227 0.42177 0.97216 0.0
C1857 C 0.54856 0.42986 0.96845 0.0
C1858 C 0.5549 0.43462 0.95672 0.0
C1859 C 0.52588 0.43101 0.94893 0.0
C1860 C 0.64763 0.45301 0.98038 0.0
C1861 C 0.63781 0.42135 0.98767 0.0
C1862 C 0.61875 0.45804 0.97492 0.0
C1863 C 0.57921 0.43098 0.97645 0.0
C1864 C 0.56967 0.40185 0.98467 0.0
C1865 C 0.59878 0.39711 0.99024 0.0
H1866 H 0.64341 0.72766 0.7972 0.0
H1867 H 0.60612 0.78863 0.77414 0.0
H1868 H 0.60087 0.72949 0.81146 0.0
H1869 H 0.56313 0.7895 0.78816 0.0
H1870 H 0.49829 0.80419 0.8154 0.0
H1871 H 0.55765 0.81649 0.80652 0.0
H1872 H 0.53103 0.69539 0.81342 0.0
H1873 H 0.47233 0.68376 0.82239 0.0
C1874 C 0.62646 0.74178 0.7952 0.0
C1875 C 0.62795 0.75757 0.78444 0.0
C1876 C 0.60191 0.74267 0.80336 0.0
C1877 C 0.57852 0.75974 0.80102 0.0
C1878 C 0.58105 0.77665 0.79039 0.0
C1879 C 0.60532 0.77554 0.78223 0.0
C1880 C 0.5064 0.78114 0.81557 0.0
C1881 C 0.48116 0.74332 0.81976 0.0
C1882 C 0.53998 0.7878 0.81028 0.0
C1883 C 0.54882 0.75664 0.80902 0.0
C1884 C 0.52545 0.72021 0.81426 0.0
C1885 C 0.49189 0.71359 0.81951 0.0
H1886 H 0.35419 0.96575 0.78089 0.0
H1887 H 0.23256 0.89068 0.78694 0.0
H1888 H 0.36857 0.92056 0.79137 0.0
H1889 H 0.24691 0.84485 0.79725 0.0
H1890 H 0.29386 0.78588 0.82272 0.0
H1891 H 0.27956 0.83591 0.81459 0.0
H1892 H 0.35758 0.85372 0.78788 0.0
H1893 H 0.37206 0.80547 0.79589 0.0
C1894 C 0.33043 0.93947 0.78438 0.0
C1895 C 0.29215 0.93172 0.7829 0.0
C1896 C 0.33867 0.91346 0.79042 0.0
C1897 C 0.30887 0.87876 0.79513 0.0
C1898 C 0.27065 0.8714 0.79385 0.0
C1899 C 0.26239 0.89751 0.78781 0.0
C1900 C 0.30811 0.80086 0.81518 0.0
C1901 C 0.33397 0.79135 0.80997 0.0
C1902 C 0.29977 0.82932 0.81047 0.0
C1903 C 0.31759 0.84915 0.80058 0.0
C1904 C 0.34376 0.83983 0.79558 0.0
C1905 C 0.35179 0.8116 0.80017 0.0
H1906 H 0.17239 0.37632 0.78779 0.0
H1907 H 0.10177 0.43174 0.78404 0.0
H1908 H 0.22141 0.43577 0.79915 0.0
H1909 H 0.15134 0.49172 0.7954 0.0
H1910 H 0.23662 0.5834 0.82326 0.0
H1911 H 0.1846 0.51723 0.81506 0.0
H1912 H 0.26816 0.50581 0.79524 0.0
H1913 H 0.31937 0.57141 0.80334 0.0
C1914 C 0.16726 0.40121 0.78937 0.0
C1915 C 0.13315 0.39925 0.78488 0.0
C1916 C 0.19548 0.43538 0.7959 0.0
C1917 C 0.19041 0.46861 0.79822 0.0
C1918 C 0.156 0.46649 0.79391 0.0
C1919 C 0.12777 0.43228 0.78728 0.0
C1920 C 0.24389 0.56589 0.81748 0.0
C1921 C 0.28207 0.58209 0.81407 0.0
C1922 C 0.21408 0.52838 0.81263 0.0
C1923 C 0.2221 0.50627 0.80442 0.0
C1924 C 0.26085 0.52166 0.8016 0.0
C1925 C 0.29032 0.5592 0.80629 0.0
H1926 H 0.49031 0.02057 0.08074 0.0
H1927 H 0.36738 0.97543 0.08249 0.0
H1928 H 0.47613 0.9598 0.0692 0.0
H1929 H 0.35331 0.91539 0.07078 0.0
H1930 H 0.34379 0.7928 0.06573 0.0
H1931 H 0.35881 0.85726 0.07434 0.0
H1932 H 0.44809 0.91833 0.05058 0.0
H1933 H 0.43304 0.85206 0.04182 0.0
C1934 C 0.46024 0.99781 0.07863 0.0
C1935 C 0.42996 1.00267 0.08274 0.0
C1936 C 0.45217 0.96316 0.07189 0.0
C1937 C 0.41359 0.93248 0.06909 0.0
C1938 C 0.3834 0.93803 0.07292 0.0
C1939 C 0.39145 0.97251 0.07966 0.0
C1940 C 0.36669 0.81977 0.06223 0.0
C1941 C 0.38746 0.81703 0.0531 0.0
C1942 C 0.37502 0.85701 0.06715 0.0
C1943 C 0.4045 0.89322 0.06316 0.0
C1944 C 0.42524 0.89094 0.0539 0.0
C1945 C 0.41654 0.8531 0.04883 0.0
H1946 H 0.062 0.50363 0.077 0.0
H1947 H 0.13177 0.44752 0.07348 0.0
H1948 H 0.1002 0.5524 0.06295 0.0
H1949 H 0.16992 0.49595 0.05968 0.0
H1950 H 0.22887 0.57389 0.03239 0.0
H1951 H 0.17087 0.5204 0.0406 0.0
H1952 H 0.16793 0.60976 0.0633 0.0
H1953 H 0.22552 0.66282 0.05499 0.0
C1954 C 0.08513 0.5014 0.07313 0.0
C1955 C 0.0942 0.47206 0.07648 0.0
C1956 C 0.10708 0.52936 0.06511 0.0
C1957 C 0.13811 0.52809 0.06013 0.0
C1958 C 0.14595 0.4976 0.06317 0.0
C1959 C 0.12442 0.47013 0.07124 0.0
C1960 C 0.21438 0.58222 0.03864 0.0
C1961 C 0.23129 0.62251 0.04293 0.0
C1962 C 0.18159 0.55154 0.04352 0.0
C1963 C 0.16518 0.56064 0.0528 0.0
C1964 C 0.17957 0.60154 0.05616 0.0
C1965 C 0.21244 0.6321 0.05132 0.0
H1966 H 0.52795 0.63161 0.09323 0.0
H1967 H 0.60789 0.6616 0.06642 0.0
H1968 H 0.47879 0.62763 0.07965 0.0
H1969 H 0.55789 0.65666 0.05259 0.0
H1970 H 0.47358 0.7036 0.03882 0.0
H1971 H 0.52412 0.6945 0.04829 0.0
H1972 H 0.43556 0.58838 0.06353 0.0
H1973 H 0.38557 0.59852 0.05436 0.0
C1974 C 0.53502 0.63721 0.0844 0.0
C1975 C 0.57207 0.64727 0.08097 0.0
C1976 C 0.50653 0.63433 0.07653 0.0
C1977 C 0.5141 0.64146 0.06495 0.0
C1978 C 0.55103 0.65102 0.06143 0.0
C1979 C 0.57961 0.6536 0.06935 0.0
C1980 C 0.46501 0.67724 0.04375 0.0
C1981 C 0.42571 0.6515 0.04578 0.0
C1982 C 0.49396 0.67217 0.04927 0.0
C1983 C 0.484 0.64125 0.05692 0.0
C1984 C 0.44438 0.6131 0.05793 0.0
C1985 C 0.41563 0.61842 0.05252 0.0
H1986 H 0.06195 0.59288 0.57575 0.0
H1987 H 0.14527 0.72027 0.58126 0.0
H1988 H 0.1049 0.58581 0.56255 0.0
H1989 H 0.18793 0.71339 0.5681 0.0
H1990 H 0.25114 0.69942 0.53966 0.0
H1991 H 0.19373 0.69703 0.54737 0.0
H1992 H 0.17119 0.59187 0.56552 0.0
H1993 H 0.22878 0.59487 0.55796 0.0
C1994 C 0.08918 0.61943 0.57403 0.0
C1995 C 0.10035 0.65706 0.57964 0.0
C1996 C 0.1138 0.61539 0.56649 0.0
C1997 C 0.14977 0.64908 0.56419 0.0
C1998 C 0.16023 0.68691 0.56953 0.0
C1999 C 0.136 0.69078 0.5772 0.0
C2000 C 0.23268 0.67454 0.54479 0.0
C2001 C 0.24408 0.64696 0.54807 0.0
C2002 C 0.20019 0.67357 0.54938 0.0
C2003 C 0.17819 0.64462 0.55721 0.0
C2004 C 0.1873 0.61445 0.55949 0.0
C2005 C 0.22012 0.61589 0.55506 0.0
H2006 H 0.36763 0.41588 0.5639 0.0
H2007 H 0.45908 0.48999 0.58949 0.0
H2008 H 0.37407 0.47601 0.55566 0.0
H2009 H 0.46677 0.55077 0.58093 0.0
H2010 H 0.42605 0.64153 0.57328 0.0
H2011 H 0.43466 0.58716 0.5797 0.0
H2012 H 0.40946 0.53396 0.54515 0.0
H2013 H 0.39927 0.58855 0.53878 0.0
C2014 C 0.38948 0.44513 0.56772 0.0
C2015 C 0.41253 0.44798 0.57747 0.0
C2016 C 0.39353 0.47983 0.56287 0.0
C2017 C 0.42103 0.51864 0.56754 0.0
C2018 C 0.44482 0.52152 0.57715 0.0
C2019 C 0.44047 0.48664 0.58209 0.0
C2020 C 0.42314 0.61872 0.56697 0.0
C2021 C 0.41147 0.61912 0.55554 0.0
C2022 C 0.42833 0.58744 0.57067 0.0
C2023 C 0.4222 0.55545 0.56304 0.0
C2024 C 0.41358 0.55754 0.55136 0.0
C2025 C 0.4083 0.58912 0.54764 0.0
H2026 H 0.57577 0.03355 0.57013 0.0
H2027 H 0.60589 0.96546 0.5927 0.0
H2028 H 0.52288 0.97027 0.56096 0.0
H2029 H 0.55275 0.90243 0.58363 0.0
H2030 H 0.42549 0.80676 0.57622 0.0
H2031 H 0.47814 0.87235 0.58335 0.0
H2032 H 0.51192 0.90365 0.54895 0.0
H2033 H 0.45881 0.83654 0.54161 0.0
C2034 C 0.57112 1.00512 0.57315 0.0
C2035 C 0.59488 1.0046 0.58224 0.0
C2036 C 0.54103 0.96893 0.56782 0.0
C2037 C 0.5336 0.93144 0.57159 0.0
C2038 C 0.55764 0.93092 0.58058 0.0
C2039 C 0.58809 0.96702 0.58578 0.0
C2040 C 0.44377 0.82745 0.57006 0.0
C2041 C 0.43801 0.81592 0.5583 0.0
C2042 C 0.47417 0.86511 0.57421 0.0
C2043 C 0.49962 0.89284 0.56675 0.0
C2044 C 0.49279 0.88267 0.5549 0.0
C2045 C 0.46234 0.84436 0.5507 0.0
H2046 H 0.23543 0.37869 0.28466 0.0
H2047 H 0.35957 0.42846 0.2883 0.0
H2048 H 0.24169 0.43455 0.2969 0.0
H2049 H 0.36582 0.48468 0.30055 0.0
H2050 H 0.36264 0.56712 0.32886 0.0
H2051 H 0.34952 0.50259 0.31959 0.0
H2052 H 0.26846 0.50735 0.29525 0.0
H2053 H 0.28181 0.57137 0.30443 0.0
C2054 C 0.26413 0.40158 0.28804 0.0
C2055 C 0.29704 0.39914 0.28538 0.0
C2056 C 0.26769 0.43366 0.29509 0.0
C2057 C 0.30423 0.46414 0.29977 0.0
C2058 C 0.33715 0.46147 0.29723 0.0
C2059 C 0.33362 0.42947 0.29009 0.0
C2060 C 0.34089 0.55341 0.32182 0.0
C2061 C 0.32283 0.57394 0.31746 0.0
C2062 C 0.33388 0.51686 0.31638 0.0
C2063 C 0.30825 0.49994 0.30657 0.0
C2064 C 0.28816 0.51919 0.30279 0.0
C2065 C 0.29562 0.55583 0.3081 0.0
H2066 H 0.5922 0.87104 0.27277 0.0
H2067 H 0.66425 0.95341 0.30087 0.0
H2068 H 0.55315 0.82123 0.28611 0.0
H2069 H 0.62508 0.90283 0.31441 0.0
H2070 H 0.50091 0.81969 0.33065 0.0
H2071 H 0.55677 0.87064 0.32096 0.0
H2072 H 0.55569 0.77577 0.29976 0.0
H2073 H 0.49949 0.72538 0.30924 0.0
C2074 C 0.59978 0.8785 0.28182 0.0
C2075 C 0.63121 0.91638 0.28573 0.0
C2076 C 0.57768 0.84964 0.2895 0.0
C2077 C 0.58614 0.85776 0.30137 0.0
C2078 C 0.6178 0.89556 0.30533 0.0
C2079 C 0.64033 0.92444 0.29758 0.0
C2080 C 0.51401 0.80974 0.32435 0.0
C2081 C 0.4961 0.76861 0.32074 0.0
C2082 C 0.5458 0.83894 0.3187 0.0
C2083 C 0.56007 0.82736 0.30937 0.0
C2084 C 0.54486 0.78582 0.30672 0.0
C2085 C 0.51308 0.75684 0.31229 0.0
H2086 H 0.12187 0.67049 0.2934 0.0
H2087 H 0.17501 0.79876 0.2894 0.0
H2088 H 0.17569 0.68254 0.30658 0.0
H2089 H 0.22917 0.81104 0.3027 0.0
H2090 H 0.33811 0.79177 0.30841 0.0
H2091 H 0.2824 0.79514 0.3007 0.0
H2092 H 0.21113 0.71345 0.32563 0.0
H2093 H 0.26746 0.71056 0.33343 0.0
C2094 C 0.14495 0.70134 0.29542 0.0
C2095 C 0.14439 0.73362 0.29024 0.0
C2096 C 0.17558 0.70833 0.30311 0.0
C2097 C 0.20677 0.74779 0.30574 0.0
C2098 C 0.20562 0.78028 0.30085 0.0
C2099 C 0.17459 0.77329 0.29326 0.0
C2100 C 0.31099 0.77612 0.3126 0.0
C2101 C 0.30713 0.75103 0.32154 0.0
C2102 C 0.27895 0.77789 0.30815 0.0
C2103 C 0.2421 0.75402 0.31241 0.0
C2104 C 0.23905 0.73183 0.32207 0.0
C2105 C 0.27141 0.73062 0.32665 0.0
loop_
_geom_bond_atom_site_label_1
_geom_bond_atom_site_label_2
_geom_bond_distance
_geom_bond_site_symmetry_2
_ccdc_geom_bond_type
Cu0 N1 1.999 . S
Cu0 O6 1.974 . S
Cu0 N11 1.985 . S
Cu0 O20 1.959 1_545 S
N1 Cu0 1.999 . S
N1 C3 1.263 . S
N1 C5 1.389 . S
N2 C3 1.358 . S
N2 C4 1.400 . S
C3 N1 1.263 . S
C3 N2 1.358 . S
C3 H9 0.930 . S
C4 N2 1.400 . S
C4 C5 1.351 . S
C4 H21 0.930 . S
C5 N1 1.389 . S
C5 C4 1.351 . S
C5 H10 0.930 1_545 S
O6 Cu0 1.974 . S
O6 C16 1.282 . S
C7 O8 1.261 . S
C7 O20 1.251 1_545 S
O8 C7 1.261 . S
H9 C3 0.930 . S
H10 C5 0.930 1_565 S
N11 Cu0 1.985 . S
N11 C13 1.335 1_545 S
N11 C14 1.390 . S
N12 C13 1.345 . S
N12 C15 1.336 1_565 S
C13 N11 1.335 1_565 S
C13 N12 1.345 . S
C13 H18 0.930 . S
C14 N11 1.390 . S
C14 C15 1.346 . S
C14 H19 0.930 . S
C15 N12 1.336 1_545 S
C15 C14 1.346 . S
C15 H22 0.929 . S
C16 O6 1.282 . S
C16 O17 1.216 . S
O17 C16 1.216 . S
H18 C13 0.930 . S
H19 C14 0.930 . S
O20 Cu0 1.959 1_565 S
O20 C7 1.251 1_565 S
H21 C4 0.930 . S
H22 C15 0.929 . S
Cu23 N24 1.999 . S
Cu23 O29 1.974 . S
Cu23 N34 1.985 . S
Cu23 O43 1.959 . S
N24 Cu23 1.999 . S
N24 C26 1.263 1_455 S
N24 C28 1.389 . S
N25 C26 1.358 . S
N25 C27 1.400 1_655 S
C26 N24 1.263 1_655 S
C26 N25 1.358 . S
C26 H32 0.930 . S
C27 N25 1.400 1_455 S
C27 C28 1.351 . S
C27 H44 0.930 . S
C28 N24 1.389 . S
C28 C27 1.351 . S
C28 H33 0.930 . S
O29 Cu23 1.974 . S
O29 C39 1.282 1_455 S
C30 O31 1.261 1_455 S
C30 O43 1.251 . S
O31 C30 1.261 1_655 S
H32 C26 0.930 . S
H33 C28 0.930 . S
N34 Cu23 1.985 . S
N34 C36 1.335 . S
N34 C37 1.390 . S
N35 C36 1.345 . S
N35 C38 1.336 . S
C36 N34 1.335 . S
C36 N35 1.345 . S
C36 H41 0.930 . S
C37 N34 1.390 . S
C37 C38 1.346 . S
C37 H42 0.930 . S
C38 N35 1.336 . S
C38 C37 1.346 . S
C38 H45 0.929 . S
C39 O29 1.282 1_655 S
C39 O40 1.216 . S
O40 C39 1.216 . S
H41 C36 0.930 . S
H42 C37 0.930 . S
O43 Cu23 1.959 . S
O43 C30 1.251 . S
H44 C27 0.930 . S
H45 C38 0.929 . S
Cu46 N47 1.999 . S
Cu46 O52 1.974 . S
Cu46 N57 1.985 . S
Cu46 O66 1.959 . S
N47 Cu46 1.999 . S
N47 C49 1.263 . S
N47 C51 1.389 . S
N48 C49 1.358 . S
N48 C50 1.400 . S
C49 N47 1.263 . S
C49 N48 1.358 . S
C49 H55 0.930 . S
C50 N48 1.400 . S
C50 C51 1.351 . S
C50 H67 0.930 . S
C51 N47 1.389 . S
C51 C50 1.351 . S
C51 H56 0.930 . S
O52 Cu46 1.974 . S
O52 C62 1.282 . S
C53 O54 1.261 . S
C53 O66 1.251 . S
O54 C53 1.261 . S
H55 C49 0.930 . S
H56 C51 0.930 . S
N57 Cu46 1.985 . S
N57 C59 1.335 . S
N57 C60 1.390 . S
N58 C59 1.345 . S
N58 C61 1.336 . S
C59 N57 1.335 . S
C59 N58 1.345 . S
C59 H64 0.930 . S
C60 N57 1.390 . S
C60 C61 1.346 . S
C60 H65 0.930 . S
C61 N58 1.336 . S
C61 C60 1.346 . S
C61 H68 0.929 . S
C62 O52 1.282 . S
C62 O63 1.216 . S
O63 C62 1.216 . S
H64 C59 0.930 . S
H65 C60 0.930 . S
O66 Cu46 1.959 . S
O66 C53 1.251 . S
H67 C50 0.930 . S
H68 C61 0.929 . S
Cu69 N70 1.999 . S
Cu69 O75 1.974 . S
Cu69 N80 1.985 . S
Cu69 O89 1.959 . S
N70 Cu69 1.999 . S
N70 C72 1.263 1_545 S
N70 C74 1.389 . S
N71 C72 1.358 . S
N71 C73 1.400 1_565 S
C72 N70 1.263 1_565 S
C72 N71 1.358 . S
C72 H78 0.930 . S
C73 N71 1.400 1_545 S
C73 C74 1.351 . S
C73 H90 0.930 . S
C74 N70 1.389 . S
C74 C73 1.351 . S
C74 H79 0.930 . S
O75 Cu69 1.974 . S
O75 C85 1.282 1_545 S
C76 O77 1.261 1_545 S
C76 O89 1.251 . S
O77 C76 1.261 1_565 S
H78 C72 0.930 . S
H79 C74 0.930 . S
N80 Cu69 1.985 . S
N80 C82 1.335 . S
N80 C83 1.390 . S
N81 C82 1.345 . S
N81 C84 1.336 . S
C82 N80 1.335 . S
C82 N81 1.345 . S
C82 H87 0.930 . S
C83 N80 1.390 . S
C83 C84 1.346 . S
C83 H88 0.930 . S
C84 N81 1.336 . S
C84 C83 1.346 . S
C84 H91 0.929 . S
C85 O75 1.282 1_565 S
C85 O86 1.216 . S
O86 C85 1.216 . S
H87 C82 0.930 . S
H88 C83 0.930 . S
O89 Cu69 1.959 . S
O89 C76 1.251 . S
H90 C73 0.930 . S
H91 C84 0.929 . S
Cu92 N93 1.999 . S
Cu92 O98 1.974 . S
Cu92 N103 1.985 . S
Cu92 O112 1.959 1_455 S
N93 Cu92 1.999 . S
N93 C95 1.263 . S
N93 C97 1.389 . S
N94 C95 1.358 . S
N94 C96 1.400 . S
C95 N93 1.263 . S
C95 N94 1.358 . S
C95 H101 0.930 . S
C96 N94 1.400 . S
C96 C97 1.351 . S
C96 H113 0.930 . S
C97 N93 1.389 . S
C97 C96 1.351 . S
C97 H102 0.930 1_455 S
O98 Cu92 1.974 . S
O98 C108 1.282 . S
C99 O100 1.261 . S
C99 O112 1.251 1_455 S
O100 C99 1.261 . S
H101 C95 0.930 . S
H102 C97 0.930 1_655 S
N103 Cu92 1.985 . S
N103 C105 1.335 1_455 S
N103 C106 1.390 . S
N104 C105 1.345 . S
N104 C107 1.336 1_655 S
C105 N103 1.335 1_655 S
C105 N104 1.345 . S
C105 H110 0.930 . S
C106 N103 1.390 . S
C106 C107 1.346 . S
C106 H111 0.930 . S
C107 N104 1.336 1_455 S
C107 C106 1.346 . S
C107 H114 0.929 . S
C108 O98 1.282 . S
C108 O109 1.216 . S
O109 C108 1.216 . S
H110 C105 0.930 . S
H111 C106 0.930 . S
O112 Cu92 1.959 1_655 S
O112 C99 1.251 1_655 S
H113 C96 0.930 . S
H114 C107 0.929 . S
Cu115 N116 1.999 . S
Cu115 O121 1.974 . S
Cu115 N126 1.985 . S
Cu115 O135 1.959 . S
N116 Cu115 1.999 . S
N116 C118 1.263 . S
N116 C120 1.389 . S
N117 C118 1.358 . S
N117 C119 1.400 . S
C118 N116 1.263 . S
C118 N117 1.358 . S
C118 H124 0.930 . S
C119 N117 1.400 . S
C119 C120 1.351 . S
C119 H136 0.930 . S
C120 N116 1.389 . S
C120 C119 1.351 . S
C120 H125 0.930 . S
O121 Cu115 1.974 . S
O121 C131 1.282 . S
C122 O123 1.261 . S
C122 O135 1.251 . S
O123 C122 1.261 . S
H124 C118 0.930 . S
H125 C120 0.930 . S
N126 Cu115 1.985 . S
N126 C128 1.335 . S
N126 C129 1.390 . S
N127 C128 1.345 . S
N127 C130 1.336 . S
C128 N126 1.335 . S
C128 N127 1.345 . S
C128 H133 0.930 . S
C129 N126 1.390 . S
C129 C130 1.346 . S
C129 H134 0.930 . S
C130 N127 1.336 . S
C130 C129 1.346 . S
C130 H137 0.929 . S
C131 O121 1.282 . S
C131 O132 1.216 . S
O132 C131 1.216 . S
H133 C128 0.930 . S
H134 C129 0.930 . S
O135 Cu115 1.959 . S
O135 C122 1.251 . S
H136 C119 0.930 . S
H137 C130 0.929 . S
Cu138 N139 1.999 . S
Cu138 O144 1.974 . S
Cu138 N149 1.985 . S
Cu138 O158 1.959 . S
N139 Cu138 1.999 . S
N139 C141 1.263 . S
N139 C143 1.389 . S
N140 C141 1.358 . S
N140 C142 1.400 . S
C141 N139 1.263 . S
C141 N140 1.358 . S
C141 H147 0.930 . S
C142 N140 1.400 . S
C142 C143 1.351 . S
C142 H159 0.930 . S
C143 N139 1.389 . S
C143 C142 1.351 . S
C143 H148 0.930 . S
O144 Cu138 1.974 . S
O144 C154 1.282 . S
C145 O146 1.261 . S
C145 O158 1.251 . S
O146 C145 1.261 . S
H147 C141 0.930 . S
H148 C143 0.930 . S
N149 Cu138 1.985 . S
N149 C151 1.335 . S
N149 C152 1.390 . S
N150 C151 1.345 . S
N150 C153 1.336 . S
C151 N149 1.335 . S
C151 N150 1.345 . S
C151 H156 0.930 . S
C152 N149 1.390 . S
C152 C153 1.346 . S
C152 H157 0.930 . S
C153 N150 1.336 . S
C153 C152 1.346 . S
C153 H160 0.929 . S
C154 O144 1.282 . S
C154 O155 1.216 . S
O155 C154 1.216 . S
H156 C151 0.930 . S
H157 C152 0.930 . S
O158 Cu138 1.959 . S
O158 C145 1.251 . S
H159 C142 0.930 . S
H160 C153 0.929 . S
Cu161 N162 1.999 . S
Cu161 O167 1.974 . S
Cu161 N172 1.985 . S
Cu161 O181 1.959 . S
N162 Cu161 1.999 . S
N162 C164 1.263 . S
N162 C166 1.389 . S
N163 C164 1.358 . S
N163 C165 1.400 . S
C164 N162 1.263 . S
C164 N163 1.358 . S
C164 H170 0.930 . S
C165 N163 1.400 . S
C165 C166 1.351 . S
C165 H182 0.930 . S
C166 N162 1.389 . S
C166 C165 1.351 . S
C166 H171 0.930 . S
O167 Cu161 1.974 . S
O167 C177 1.282 . S
C168 O169 1.261 . S
C168 O181 1.251 . S
O169 C168 1.261 . S
H170 C164 0.930 . S
H171 C166 0.930 . S
N172 Cu161 1.985 . S
N172 C174 1.335 . S
N172 C175 1.390 . S
N173 C174 1.345 . S
N173 C176 1.336 1_545 S
C174 N172 1.335 . S
C174 N173 1.345 . S
C174 H179 0.930 . S
C175 N172 1.390 . S
C175 C176 1.346 1_545 S
C175 H180 0.930 1_545 S
C176 N173 1.336 1_565 S
C176 C175 1.346 1_565 S
C176 H183 0.929 . S
C177 O167 1.282 . S
C177 O178 1.216 . S
O178 C177 1.216 . S
H179 C174 0.930 . S
H180 C175 0.930 1_565 S
O181 Cu161 1.959 . S
O181 C168 1.251 . S
H182 C165 0.930 . S
H183 C176 0.929 . S
Cu184 N185 1.999 . S
Cu184 O190 1.974 . S
Cu184 N195 1.985 1_655 S
Cu184 O204 1.959 . S
N185 Cu184 1.999 . S
N185 C187 1.263 . S
N185 C189 1.389 . S
N186 C187 1.358 . S
N186 C188 1.400 . S
C187 N185 1.263 . S
C187 N186 1.358 . S
C187 H193 0.930 . S
C188 N186 1.400 . S
C188 C189 1.351 . S
C188 H205 0.930 . S
C189 N185 1.389 . S
C189 C188 1.351 . S
C189 H194 0.930 . S
O190 Cu184 1.974 . S
O190 C200 1.282 . S
C191 O192 1.261 . S
C191 O204 1.251 . S
O192 C191 1.261 . S
H193 C187 0.930 . S
H194 C189 0.930 . S
N195 Cu184 1.985 1_455 S
N195 C197 1.335 . S
N195 C198 1.390 . S
N196 C197 1.345 . S
N196 C199 1.336 . S
C197 N195 1.335 . S
C197 N196 1.345 . S
C197 H202 0.930 . S
C198 N195 1.390 . S
C198 C199 1.346 . S
C198 H203 0.930 . S
C199 N196 1.336 . S
C199 C198 1.346 . S
C199 H206 0.929 . S
C200 O190 1.282 . S
C200 O201 1.216 . S
O201 C200 1.216 . S
H202 C197 0.930 . S
H203 C198 0.930 . S
O204 Cu184 1.959 . S
O204 C191 1.251 . S
H205 C188 0.930 . S
H206 C199 0.929 . S
Cu207 N208 1.999 . S
Cu207 O213 1.974 . S
Cu207 N218 1.985 1_655 S
Cu207 O227 1.959 . S
N208 Cu207 1.999 . S
N208 C210 1.263 . S
N208 C212 1.389 . S
N209 C210 1.358 . S
N209 C211 1.400 . S
C210 N208 1.263 . S
C210 N209 1.358 . S
C210 H216 0.930 . S
C211 N209 1.400 . S
C211 C212 1.351 . S
C211 H228 0.930 . S
C212 N208 1.389 . S
C212 C211 1.351 . S
C212 H217 0.930 . S
O213 Cu207 1.974 . S
O213 C223 1.282 . S
C214 O215 1.261 . S
C214 O227 1.251 . S
O215 C214 1.261 . S
H216 C210 0.930 . S
H217 C212 0.930 . S
N218 Cu207 1.985 1_455 S
N218 C220 1.335 . S
N218 C221 1.390 . S
N219 C220 1.345 . S
N219 C222 1.336 . S
C220 N218 1.335 . S
C220 N219 1.345 . S
C220 H225 0.930 . S
C221 N218 1.390 . S
C221 C222 1.346 . S
C221 H226 0.930 . S
C222 N219 1.336 . S
C222 C221 1.346 . S
C222 H229 0.929 . S
C223 O213 1.282 . S
C223 O224 1.216 . S
O224 C223 1.216 . S
H225 C220 0.930 . S
H226 C221 0.930 . S
O227 Cu207 1.959 . S
O227 C214 1.251 . S
H228 C211 0.930 . S
H229 C222 0.929 . S
Cu230 N231 1.999 . S
Cu230 O236 1.974 . S
Cu230 N241 1.985 . S
Cu230 O250 1.959 . S
N231 Cu230 1.999 . S
N231 C233 1.263 . S
N231 C235 1.389 . S
N232 C233 1.358 . S
N232 C234 1.400 . S
C233 N231 1.263 . S
C233 N232 1.358 . S
C233 H239 0.930 . S
C234 N232 1.400 . S
C234 C235 1.351 . S
C234 H251 0.930 . S
C235 N231 1.389 . S
C235 C234 1.351 . S
C235 H240 0.930 . S
O236 Cu230 1.974 . S
O236 C246 1.282 . S
C237 O238 1.261 . S
C237 O250 1.251 . S
O238 C237 1.261 . S
H239 C233 0.930 . S
H240 C235 0.930 . S
N241 Cu230 1.985 . S
N241 C243 1.335 . S
N241 C244 1.390 . S
N242 C243 1.345 . S
N242 C245 1.336 . S
C243 N241 1.335 . S
C243 N242 1.345 . S
C243 H248 0.930 . S
C244 N241 1.390 . S
C244 C245 1.346 . S
C244 H249 0.930 . S
C245 N242 1.336 . S
C245 C244 1.346 . S
C245 H252 0.929 . S
C246 O236 1.282 . S
C246 O247 1.216 . S
O247 C246 1.216 . S
H248 C243 0.930 . S
H249 C244 0.930 . S
O250 Cu230 1.959 . S
O250 C237 1.251 . S
H251 C234 0.930 . S
H252 C245 0.929 . S
Cu253 N254 1.999 . S
Cu253 O259 1.974 . S
Cu253 N264 1.985 . S
Cu253 O273 1.959 . S
N254 Cu253 1.999 . S
N254 C256 1.263 . S
N254 C258 1.389 . S
N255 C256 1.358 . S
N255 C257 1.400 . S
C256 N254 1.263 . S
C256 N255 1.358 . S
C256 H262 0.930 . S
C257 N255 1.400 . S
C257 C258 1.351 . S
C257 H274 0.930 . S
C258 N254 1.389 . S
C258 C257 1.351 . S
C258 H263 0.930 . S
O259 Cu253 1.974 . S
O259 C269 1.282 . S
C260 O261 1.261 . S
C260 O273 1.251 . S
O261 C260 1.261 . S
H262 C256 0.930 . S
H263 C258 0.930 . S
N264 Cu253 1.985 . S
N264 C266 1.335 . S
N264 C267 1.390 1_545 S
N265 C266 1.345 . S
N265 C268 1.336 1_545 S
C266 N264 1.335 . S
C266 N265 1.345 . S
C266 H271 0.930 . S
C267 N264 1.390 1_565 S
C267 C268 1.346 . S
C267 H272 0.930 . S
C268 N265 1.336 1_565 S
C268 C267 1.346 . S
C268 H275 0.929 . S
C269 O259 1.282 . S
C269 O270 1.216 1_545 S
O270 C269 1.216 1_565 S
H271 C266 0.930 . S
H272 C267 0.930 . S
O273 Cu253 1.959 . S
O273 C260 1.251 . S
H274 C257 0.930 . S
H275 C268 0.929 . S
Cu276 N277 1.999 . S
Cu276 O282 1.974 . S
Cu276 N287 1.985 . S
Cu276 O296 1.959 . S
N277 Cu276 1.999 . S
N277 C279 1.263 . S
N277 C281 1.389 . S
N278 C279 1.358 . S
N278 C280 1.400 . S
C279 N277 1.263 . S
C279 N278 1.358 . S
C279 H285 0.930 . S
C280 N278 1.400 . S
C280 C281 1.351 . S
C280 H297 0.930 . S
C281 N277 1.389 . S
C281 C280 1.351 . S
C281 H286 0.930 . S
O282 Cu276 1.974 . S
O282 C292 1.282 . S
C283 O284 1.261 . S
C283 O296 1.251 . S
O284 C283 1.261 . S
H285 C279 0.930 . S
H286 C281 0.930 . S
N287 Cu276 1.985 . S
N287 C289 1.335 . S
N287 C290 1.421 . S
N288 C289 1.345 1_655 S
N288 C291 1.336 . S
C289 N287 1.335 . S
C289 N288 1.345 1_455 S
C289 H294 0.930 . S
C290 N287 1.421 . S
C290 C291 1.329 1_455 S
C290 H295 0.919 . S
C291 N288 1.336 . S
C291 C290 1.329 1_655 S
C291 H298 0.929 . S
C292 O282 1.282 . S
C292 O293 1.216 . S
O293 C292 1.216 . S
H294 C289 0.930 . S
H295 C290 0.919 . S
O296 Cu276 1.959 . S
O296 C283 1.251 . S
H297 C280 0.930 . S
H298 C291 0.929 . S
Cu299 N300 1.999 . S
Cu299 O305 1.974 . S
Cu299 N310 1.985 . S
Cu299 O319 1.959 . S
N300 Cu299 1.999 . S
N300 C302 1.263 . S
N300 C304 1.389 . S
N301 C302 1.358 . S
N301 C303 1.400 . S
C302 N300 1.263 . S
C302 N301 1.358 . S
C302 H308 0.930 . S
C303 N301 1.400 . S
C303 C304 1.351 . S
C303 H320 0.930 . S
C304 N300 1.389 . S
C304 C303 1.351 . S
C304 H309 0.930 . S
O305 Cu299 1.974 . S
O305 C315 1.282 . S
C306 O307 1.261 . S
C306 O319 1.251 . S
O307 C306 1.261 . S
H308 C302 0.930 . S
H309 C304 0.930 . S
N310 Cu299 1.985 . S
N310 C312 1.335 . S
N310 C313 1.390 . S
N311 C312 1.345 . S
N311 C314 1.336 . S
C312 N310 1.335 . S
C312 N311 1.345 . S
C312 H317 0.930 . S
C313 N310 1.390 . S
C313 C314 1.346 . S
C313 H318 0.930 . S
C314 N311 1.336 . S
C314 C313 1.346 . S
C314 H321 0.929 . S
C315 O305 1.282 . S
C315 O316 1.216 . S
O316 C315 1.216 . S
H317 C312 0.930 . S
H318 C313 0.930 . S
O319 Cu299 1.959 . S
O319 C306 1.251 . S
H320 C303 0.930 . S
H321 C314 0.929 . S
Cu322 N323 1.999 . S
Cu322 O328 1.974 1_565 S
Cu322 N333 1.985 1_565 S
Cu322 O342 1.959 . S
N323 Cu322 1.999 . S
N323 C325 1.263 . S
N323 C327 1.389 . S
N324 C325 1.358 . S
N324 C326 1.400 . S
C325 N323 1.263 . S
C325 N324 1.358 . S
C325 H331 0.930 . S
C326 N324 1.400 . S
C326 C327 1.351 . S
C326 H343 0.930 . S
C327 N323 1.389 . S
C327 C326 1.351 . S
C327 H332 0.930 . S
O328 Cu322 1.974 1_545 S
O328 C338 1.282 . S
C329 O330 1.261 . S
C329 O342 1.251 . S
O330 C329 1.261 . S
H331 C325 0.930 . S
H332 C327 0.930 . S
N333 Cu322 1.985 1_545 S
N333 C335 1.335 1_545 S
N333 C336 1.390 . S
N334 C335 1.345 1_545 S
N334 C337 1.336 . S
C335 N333 1.335 1_565 S
C335 N334 1.345 1_565 S
C335 H340 0.930 . S
C336 N333 1.390 . S
C336 C337 1.346 . S
C336 H341 0.930 . S
C337 N334 1.336 . S
C337 C336 1.346 . S
C337 H344 0.929 . S
C338 O328 1.282 . S
C338 O339 1.216 . S
O339 C338 1.216 . S
H340 C335 0.930 . S
H341 C336 0.930 . S
O342 Cu322 1.959 . S
O342 C329 1.251 . S
H343 C326 0.930 . S
H344 C337 0.929 . S
Cu345 N346 1.999 . S
Cu345 O351 1.974 . S
Cu345 N356 1.985 . S
Cu345 O365 1.959 . S
N346 Cu345 1.999 . S
N346 C348 1.263 . S
N346 C350 1.389 . S
N347 C348 1.358 . S
N347 C349 1.400 . S
C348 N346 1.263 . S
C348 N347 1.358 . S
C348 H354 0.930 . S
C349 N347 1.400 . S
C349 C350 1.351 . S
C349 H366 0.930 . S
C350 N346 1.389 . S
C350 C349 1.351 . S
C350 H355 0.930 . S
O351 Cu345 1.974 . S
O351 C361 1.282 . S
C352 O353 1.261 . S
C352 O365 1.251 . S
O353 C352 1.261 . S
H354 C348 0.930 . S
H355 C350 0.930 . S
N356 Cu345 1.985 . S
N356 C358 1.335 . S
N356 C359 1.390 . S
N357 C358 1.345 . S
N357 C360 1.336 . S
C358 N356 1.335 . S
C358 N357 1.345 . S
C358 H363 0.930 . S
C359 N356 1.390 . S
C359 C360 1.346 . S
C359 H364 0.930 . S
C360 N357 1.336 . S
C360 C359 1.346 . S
C360 H367 0.929 . S
C361 O351 1.282 . S
C361 O362 1.216 . S
O362 C361 1.216 . S
H363 C358 0.930 . S
H364 C359 0.930 . S
O365 Cu345 1.959 . S
O365 C352 1.251 . S
H366 C349 0.930 . S
H367 C360 0.929 . S
Cu368 N369 1.999 . S
Cu368 O374 1.974 1_565 S
Cu368 N379 1.985 1_565 S
Cu368 O388 1.959 . S
N369 Cu368 1.999 . S
N369 C371 1.263 . S
N369 C373 1.389 . S
N370 C371 1.358 . S
N370 C372 1.400 . S
C371 N369 1.263 . S
C371 N370 1.358 . S
C371 H377 0.930 . S
C372 N370 1.400 . S
C372 C373 1.351 . S
C372 H389 0.930 . S
C373 N369 1.389 . S
C373 C372 1.351 . S
C373 H378 0.930 . S
O374 Cu368 1.974 1_545 S
O374 C384 1.282 . S
C375 O376 1.261 . S
C375 O388 1.251 . S
O376 C375 1.261 . S
H377 C371 0.930 . S
H378 C373 0.930 . S
N379 Cu368 1.985 1_545 S
N379 C381 1.335 1_545 S
N379 C382 1.390 . S
N380 C381 1.345 1_545 S
N380 C383 1.336 . S
C381 N379 1.335 1_565 S
C381 N380 1.345 1_565 S
C381 H386 0.930 . S
C382 N379 1.390 . S
C382 C383 1.346 . S
C382 H387 0.930 . S
C383 N380 1.336 . S
C383 C382 1.346 . S
C383 H390 0.929 . S
C384 O374 1.282 . S
C384 O385 1.216 . S
O385 C384 1.216 . S
H386 C381 0.930 . S
H387 C382 0.930 . S
O388 Cu368 1.959 . S
O388 C375 1.251 . S
H389 C372 0.930 . S
H390 C383 0.929 . S
Cu391 N392 1.999 . S
Cu391 O397 1.974 . S
Cu391 N402 1.985 . S
Cu391 O411 1.959 . S
N392 Cu391 1.999 . S
N392 C394 1.263 . S
N392 C396 1.389 . S
N393 C394 1.358 . S
N393 C395 1.400 . S
C394 N392 1.263 . S
C394 N393 1.358 . S
C394 H400 0.930 . S
C395 N393 1.400 . S
C395 C396 1.351 . S
C395 H412 0.930 . S
C396 N392 1.389 . S
C396 C395 1.351 . S
C396 H401 0.930 . S
O397 Cu391 1.974 . S
O397 C407 1.282 . S
C398 O399 1.261 . S
C398 O411 1.251 . S
O399 C398 1.261 . S
H400 C394 0.930 . S
H401 C396 0.930 . S
N402 Cu391 1.985 . S
N402 C404 1.335 . S
N402 C405 1.386 1_455 S
N403 C404 1.345 1_655 S
N403 C406 1.336 . S
C404 N402 1.335 . S
C404 N403 1.345 1_455 S
C404 H409 0.930 . S
C405 N402 1.386 1_655 S
C405 C406 1.366 . S
C405 H410 0.928 . S
C406 N403 1.336 . S
C406 C405 1.366 . S
C406 H413 0.929 . S
C407 O397 1.282 . S
C407 O408 1.216 . S
O408 C407 1.216 . S
H409 C404 0.930 . S
H410 C405 0.928 . S
O411 Cu391 1.959 . S
O411 C398 1.251 . S
H412 C395 0.930 . S
H413 C406 0.929 . S
Zn414 O420 1.920 1_455 S
Zn414 O426 1.898 1_445 S
Zn414 O429 1.905 . S
Zn415 O423 1.905 1_545 S
Zn415 O424 1.898 . S
Zn415 O432 1.920 1_455 S
Zn416 O419 2.080 . S
Zn416 O422 2.114 1_545 S
Zn416 O425 2.120 . S
Zn416 O427 2.120 1_445 S
Zn416 O428 2.114 . S
Zn416 O431 2.080 1_455 S
C417 O422 1.166 . S
C417 O423 1.182 . S
C418 O424 1.167 . S
C418 O425 1.299 . S
O419 Zn416 2.080 . S
O419 C433 1.312 . S
O420 Zn414 1.920 1_655 S
O420 C433 1.236 1_655 S
C421 O426 1.167 . S
C421 O427 1.299 . S
O422 Zn416 2.114 1_565 S
O422 C417 1.166 . S
O423 Zn415 1.905 1_565 S
O423 C417 1.182 . S
O424 Zn415 1.898 . S
O424 C418 1.167 . S
O425 Zn416 2.120 . S
O425 C418 1.299 . S
O426 Zn414 1.898 1_665 S
O426 C421 1.167 . S
O427 Zn416 2.120 1_665 S
O427 C421 1.299 . S
O428 Zn416 2.114 . S
O428 C430 1.166 . S
O429 Zn414 1.905 . S
O429 C430 1.182 . S
C430 O428 1.166 . S
C430 O429 1.182 . S
O431 Zn416 2.080 1_655 S
O431 C434 1.305 . S
O432 Zn415 1.920 1_655 S
O432 C434 1.234 . S
C433 O419 1.312 . S
C433 O420 1.236 1_455 S
C434 O431 1.305 . S
C434 O432 1.234 . S
Zn435 O441 1.920 1_545 S
Zn435 O447 1.898 . S
Zn435 O450 1.905 1_455 S
Zn436 O444 1.905 . S
Zn436 O445 1.898 1_445 S
Zn436 O453 1.920 . S
Zn437 O440 2.080 1_545 S
Zn437 O443 2.114 . S
Zn437 O446 2.120 1_445 S
Zn437 O448 2.120 . S
Zn437 O449 2.114 1_455 S
Zn437 O452 2.080 . S
C438 O443 1.166 . S
C438 O444 1.182 . S
C439 O445 1.167 . S
C439 O446 1.299 . S
O440 Zn437 2.080 1_565 S
O440 C454 1.305 . S
O441 Zn435 1.920 1_565 S
O441 C454 1.234 . S
C442 O447 1.167 . S
C442 O448 1.299 . S
O443 Zn437 2.114 . S
O443 C438 1.166 . S
O444 Zn436 1.905 . S
O444 C438 1.182 . S
O445 Zn436 1.898 1_665 S
O445 C439 1.167 . S
O446 Zn437 2.120 1_665 S
O446 C439 1.299 . S
O447 Zn435 1.898 . S
O447 C442 1.167 . S
O448 Zn437 2.120 . S
O448 C442 1.299 . S
O449 Zn437 2.114 1_655 S
O449 C451 1.166 . S
O450 Zn435 1.905 1_655 S
O450 C451 1.182 . S
C451 O449 1.166 . S
C451 O450 1.182 . S
O452 Zn437 2.080 . S
O452 C455 1.305 . S
O453 Zn436 1.920 . S
O453 C455 1.234 . S
C454 O440 1.305 . S
C454 O441 1.234 . S
C455 O452 1.305 . S
C455 O453 1.234 . S
Zn456 O462 1.920 1_545 S
Zn456 O468 1.898 . S
Zn456 O471 1.907 1_445 S
Zn457 O465 1.905 . S
Zn457 O466 1.898 1_445 S
Zn457 O474 1.920 1_545 S
Zn458 O461 2.080 1_545 S
Zn458 O464 2.114 . S
Zn458 O467 2.120 1_445 S
Zn458 O469 2.120 . S
Zn458 O470 2.114 1_455 S
Zn458 O473 2.080 . S
C459 O464 1.166 . S
C459 O465 1.182 . S
C460 O466 1.167 . S
C460 O467 1.299 . S
O461 Zn458 2.080 1_565 S
O461 C475 1.305 . S
O462 Zn456 1.920 1_565 S
O462 C475 1.234 . S
C463 O468 1.167 . S
C463 O469 1.299 . S
O464 Zn458 2.114 . S
O464 C459 1.166 . S
O465 Zn457 1.905 . S
O465 C459 1.182 . S
O466 Zn457 1.898 1_665 S
O466 C460 1.167 . S
O467 Zn458 2.120 1_665 S
O467 C460 1.299 . S
O468 Zn456 1.898 . S
O468 C463 1.167 . S
O469 Zn458 2.120 . S
O469 C463 1.299 . S
O470 Zn458 2.114 1_655 S
O470 C472 1.166 . S
O471 Zn456 1.907 1_665 S
O471 C472 1.179 1_565 S
C472 O470 1.166 . S
C472 O471 1.179 1_545 S
O473 Zn458 2.080 . S
O473 C476 1.305 . S
O474 Zn457 1.920 1_565 S
O474 C476 1.234 1_565 S
C475 O461 1.305 . S
C475 O462 1.234 . S
C476 O473 1.305 . S
C476 O474 1.234 1_545 S
Zn477 O483 1.920 . S
Zn477 O489 1.898 1_445 S
Zn477 O492 1.905 . S
Zn478 O486 1.902 1_545 S
Zn478 O487 1.898 . S
Zn478 O495 1.920 1_455 S
Zn479 O482 2.080 . S
Zn479 O485 2.114 1_545 S
Zn479 O488 2.120 . S
Zn479 O490 2.120 1_445 S
Zn479 O491 2.114 . S
Zn479 O494 2.080 1_455 S
C480 O485 1.166 . S
C480 O486 1.190 . S
C481 O487 1.167 . S
C481 O488 1.299 . S
O482 Zn479 2.080 . S
O482 C496 1.305 . S
O483 Zn477 1.920 . S
O483 C496 1.234 . S
C484 O489 1.167 . S
C484 O490 1.299 . S
O485 Zn479 2.114 1_565 S
O485 C480 1.166 . S
O486 Zn478 1.902 1_565 S
O486 C480 1.190 . S
O487 Zn478 1.898 . S
O487 C481 1.167 . S
O488 Zn479 2.120 . S
O488 C481 1.299 . S
O489 Zn477 1.898 1_665 S
O489 C484 1.167 . S
O490 Zn479 2.120 1_665 S
O490 C484 1.299 . S
O491 Zn479 2.114 . S
O491 C493 1.166 . S
O492 Zn477 1.905 . S
O492 C493 1.182 . S
C493 O491 1.166 . S
C493 O492 1.182 . S
O494 Zn479 2.080 1_655 S
O494 C497 1.305 . S
O495 Zn478 1.920 1_655 S
O495 C497 1.234 . S
C496 O482 1.305 . S
C496 O483 1.234 . S
C497 O494 1.305 . S
C497 O495 1.234 . S
Zn498 O504 1.920 . S
Zn498 O510 1.898 . S
Zn498 O513 1.905 . S
Zn499 O507 1.905 . S
Zn499 O508 1.898 . S
Zn499 O516 1.920 . S
Zn500 O503 2.080 . S
Zn500 O506 2.114 . S
Zn500 O509 2.120 . S
Zn500 O511 2.120 . S
Zn500 O512 2.114 . S
Zn500 O515 2.080 . S
C501 O506 1.166 . S
C501 O507 1.182 . S
C502 O508 1.167 . S
C502 O509 1.299 . S
O503 Zn500 2.080 . S
O503 C517 1.305 . S
O504 Zn498 1.920 . S
O504 C517 1.234 . S
C505 O510 1.167 . S
C505 O511 1.299 . S
O506 Zn500 2.114 . S
O506 C501 1.166 . S
O507 Zn499 1.905 . S
O507 C501 1.182 . S
O508 Zn499 1.898 . S
O508 C502 1.167 . S
O509 Zn500 2.120 . S
O509 C502 1.299 . S
O510 Zn498 1.898 . S
O510 C505 1.167 . S
O511 Zn500 2.120 . S
O511 C505 1.299 . S
O512 Zn500 2.114 . S
O512 C514 1.166 . S
O513 Zn498 1.905 . S
O513 C514 1.182 . S
C514 O512 1.166 . S
C514 O513 1.182 . S
O515 Zn500 2.080 . S
O515 C518 1.305 . S
O516 Zn499 1.920 . S
O516 C518 1.234 . S
C517 O503 1.305 . S
C517 O504 1.234 . S
C518 O515 1.305 . S
C518 O516 1.234 . S
Zn519 O525 1.920 . S
Zn519 O531 1.898 . S
Zn519 O534 1.905 . S
Zn520 O528 1.905 . S
Zn520 O529 1.898 . S
Zn520 O537 1.920 . S
Zn521 O524 2.080 . S
Zn521 O527 2.114 . S
Zn521 O530 2.120 . S
Zn521 O532 2.120 . S
Zn521 O533 2.114 . S
Zn521 O536 2.080 . S
C522 O527 1.166 . S
C522 O528 1.182 . S
C523 O529 1.167 . S
C523 O530 1.299 . S
O524 Zn521 2.080 . S
O524 C538 1.305 . S
O525 Zn519 1.920 . S
O525 C538 1.234 . S
C526 O531 1.167 . S
C526 O532 1.299 . S
O527 Zn521 2.114 . S
O527 C522 1.166 . S
O528 Zn520 1.905 . S
O528 C522 1.182 . S
O529 Zn520 1.898 . S
O529 C523 1.167 . S
O530 Zn521 2.120 . S
O530 C523 1.299 . S
O531 Zn519 1.898 . S
O531 C526 1.167 . S
O532 Zn521 2.120 . S
O532 C526 1.299 . S
O533 Zn521 2.114 . S
O533 C535 1.166 . S
O534 Zn519 1.905 . S
O534 C535 1.182 . S
C535 O533 1.166 . S
C535 O534 1.182 . S
O536 Zn521 2.080 . S
O536 C539 1.305 . S
O537 Zn520 1.920 . S
O537 C539 1.234 . S
C538 O524 1.305 . S
C538 O525 1.234 . S
C539 O536 1.305 . S
C539 O537 1.234 . S
Zn540 O546 1.920 . S
Zn540 O552 1.898 . S
Zn540 O555 1.905 . S
Zn541 O549 1.905 . S
Zn541 O550 1.898 . S
Zn541 O558 1.920 . S
Zn542 O545 2.080 . S
Zn542 O548 2.114 . S
Zn542 O551 2.120 . S
Zn542 O553 2.120 . S
Zn542 O554 2.114 . S
Zn542 O557 2.080 . S
C543 O548 1.166 . S
C543 O549 1.182 . S
C544 O550 1.167 . S
C544 O551 1.299 . S
O545 Zn542 2.080 . S
O545 C559 1.305 . S
O546 Zn540 1.920 . S
O546 C559 1.234 . S
C547 O552 1.167 . S
C547 O553 1.299 . S
O548 Zn542 2.114 . S
O548 C543 1.166 . S
O549 Zn541 1.905 . S
O549 C543 1.182 . S
O550 Zn541 1.898 . S
O550 C544 1.167 . S
O551 Zn542 2.120 . S
O551 C544 1.299 . S
O552 Zn540 1.898 . S
O552 C547 1.167 . S
O553 Zn542 2.120 . S
O553 C547 1.299 . S
O554 Zn542 2.114 . S
O554 C556 1.166 . S
O555 Zn540 1.905 . S
O555 C556 1.182 . S
C556 O554 1.166 . S
C556 O555 1.182 . S
O557 Zn542 2.080 . S
O557 C560 1.305 . S
O558 Zn541 1.920 . S
O558 C560 1.234 . S
C559 O545 1.305 . S
C559 O546 1.234 . S
C560 O557 1.305 . S
C560 O558 1.234 . S
Zn561 O567 1.920 . S
Zn561 O573 1.898 . S
Zn561 O576 1.905 . S
Zn562 O570 1.905 . S
Zn562 O571 1.898 . S
Zn562 O579 1.920 . S
Zn563 O566 2.080 1_556 S
Zn563 O569 2.114 . S
Zn563 O572 2.120 . S
Zn563 O574 2.120 1_556 S
Zn563 O575 2.114 1_556 S
Zn563 O578 2.080 . S
C564 O569 1.166 . S
C564 O570 1.182 . S
C565 O571 1.167 . S
C565 O572 1.299 . S
O566 Zn563 2.080 1_554 S
O566 C580 1.305 . S
O567 Zn561 1.920 . S
O567 C580 1.234 . S
C568 O573 1.167 . S
C568 O574 1.299 . S
O569 Zn563 2.114 . S
O569 C564 1.166 . S
O570 Zn562 1.905 . S
O570 C564 1.182 . S
O571 Zn562 1.898 . S
O571 C565 1.167 . S
O572 Zn563 2.120 . S
O572 C565 1.299 . S
O573 Zn561 1.898 . S
O573 C568 1.167 . S
O574 Zn563 2.120 1_554 S
O574 C568 1.299 . S
O575 Zn563 2.114 1_554 S
O575 C577 1.166 . S
O576 Zn561 1.905 . S
O576 C577 1.182 . S
C577 O575 1.166 . S
C577 O576 1.182 . S
O578 Zn563 2.080 . S
O578 C581 1.305 . S
O579 Zn562 1.920 . S
O579 C581 1.234 . S
C580 O566 1.305 . S
C580 O567 1.234 . S
C581 O578 1.305 . S
C581 O579 1.234 . S
Zn582 O588 1.920 . S
Zn582 O594 1.898 . S
Zn582 O597 1.905 . S
Zn583 O591 1.905 . S
Zn583 O592 1.898 . S
Zn583 O600 1.920 . S
Zn584 O587 2.080 . S
Zn584 O590 2.114 . S
Zn584 O593 2.120 . S
Zn584 O595 2.120 . S
Zn584 O596 2.114 . S
Zn584 O599 2.080 . S
C585 O590 1.166 . S
C585 O591 1.182 . S
C586 O592 1.167 . S
C586 O593 1.299 . S
O587 Zn584 2.080 . S
O587 C601 1.305 . S
O588 Zn582 1.920 . S
O588 C601 1.234 . S
C589 O594 1.167 . S
C589 O595 1.299 . S
O590 Zn584 2.114 . S
O590 C585 1.166 . S
O591 Zn583 1.905 . S
O591 C585 1.182 . S
O592 Zn583 1.898 . S
O592 C586 1.167 . S
O593 Zn584 2.120 . S
O593 C586 1.299 . S
O594 Zn582 1.898 . S
O594 C589 1.167 . S
O595 Zn584 2.120 . S
O595 C589 1.299 . S
O596 Zn584 2.114 . S
O596 C598 1.166 . S
O597 Zn582 1.905 . S
O597 C598 1.182 . S
C598 O596 1.166 . S
C598 O597 1.182 . S
O599 Zn584 2.080 . S
O599 C602 1.305 . S
O600 Zn583 1.920 . S
O600 C602 1.234 . S
C601 O587 1.305 . S
C601 O588 1.234 . S
C602 O599 1.305 . S
C602 O600 1.234 . S
Zn603 O609 1.920 . S
Zn603 O615 1.898 . S
Zn603 O618 1.905 . S
Zn604 O612 1.905 . S
Zn604 O613 1.898 . S
Zn604 O621 1.920 . S
Zn605 O608 2.080 . S
Zn605 O611 2.114 1_554 S
Zn605 O614 2.068 1_554 S
Zn605 O616 2.120 . S
Zn605 O617 2.114 . S
Zn605 O620 2.080 1_554 S
C606 O611 1.166 . S
C606 O612 1.182 . S
C607 O613 1.167 . S
C607 O614 1.370 . S
O608 Zn605 2.080 . S
O608 C622 1.305 . S
O609 Zn603 1.920 . S
O609 C622 1.234 . S
C610 O615 1.167 . S
C610 O616 1.299 . S
O611 Zn605 2.114 1_556 S
O611 C606 1.166 . S
O612 Zn604 1.905 . S
O612 C606 1.182 . S
O613 Zn604 1.898 . S
O613 C607 1.167 . S
O614 Zn605 2.068 1_556 S
O614 C607 1.370 . S
O615 Zn603 1.898 . S
O615 C610 1.167 . S
O616 Zn605 2.120 . S
O616 C610 1.299 . S
O617 Zn605 2.114 . S
O617 C619 1.166 . S
O618 Zn603 1.905 . S
O618 C619 1.182 . S
C619 O617 1.166 . S
C619 O618 1.182 . S
O620 Zn605 2.080 1_556 S
O620 C623 1.305 . S
O621 Zn604 1.920 . S
O621 C623 1.234 . S
C622 O608 1.305 . S
C622 O609 1.234 . S
C623 O620 1.305 . S
C623 O621 1.234 . S
Zn624 O630 1.920 . S
Zn624 O636 1.898 . S
Zn624 O639 1.905 . S
Zn625 O633 1.905 . S
Zn625 O634 1.898 . S
Zn625 O642 1.920 . S
Zn626 O629 2.080 . S
Zn626 O632 2.114 . S
Zn626 O635 2.120 . S
Zn626 O637 2.120 . S
Zn626 O638 2.114 . S
Zn626 O641 2.080 . S
C627 O632 1.166 . S
C627 O633 1.182 . S
C628 O634 1.167 . S
C628 O635 1.299 . S
O629 Zn626 2.080 . S
O629 C643 1.305 . S
O630 Zn624 1.920 . S
O630 C643 1.234 . S
C631 O636 1.167 . S
C631 O637 1.299 . S
O632 Zn626 2.114 . S
O632 C627 1.166 . S
O633 Zn625 1.905 . S
O633 C627 1.182 . S
O634 Zn625 1.898 . S
O634 C628 1.167 . S
O635 Zn626 2.120 . S
O635 C628 1.299 . S
O636 Zn624 1.898 . S
O636 C631 1.167 . S
O637 Zn626 2.120 . S
O637 C631 1.299 . S
O638 Zn626 2.114 . S
O638 C640 1.166 . S
O639 Zn624 1.905 . S
O639 C640 1.182 . S
C640 O638 1.166 . S
C640 O639 1.182 . S
O641 Zn626 2.080 . S
O641 C644 1.305 . S
O642 Zn625 1.920 . S
O642 C644 1.234 . S
C643 O629 1.305 . S
C643 O630 1.234 . S
C644 O641 1.305 . S
C644 O642 1.234 . S
Zn645 O651 1.920 . S
Zn645 O657 1.898 . S
Zn645 O660 1.905 . S
Zn646 O654 1.905 . S
Zn646 O655 1.898 . S
Zn646 O663 1.920 . S
Zn647 O650 2.080 . S
Zn647 O653 2.114 . S
Zn647 O656 2.120 . S
Zn647 O658 2.120 . S
Zn647 O659 2.114 . S
Zn647 O662 2.080 . S
C648 O653 1.166 . S
C648 O654 1.182 . S
C649 O655 1.167 . S
C649 O656 1.299 . S
O650 Zn647 2.080 . S
O650 C664 1.305 . S
O651 Zn645 1.920 . S
O651 C664 1.234 . S
C652 O657 1.167 . S
C652 O658 1.299 . S
O653 Zn647 2.114 . S
O653 C648 1.166 . S
O654 Zn646 1.905 . S
O654 C648 1.182 . S
O655 Zn646 1.898 . S
O655 C649 1.167 . S
O656 Zn647 2.120 . S
O656 C649 1.299 . S
O657 Zn645 1.898 . S
O657 C652 1.167 . S
O658 Zn647 2.120 . S
O658 C652 1.299 . S
O659 Zn647 2.114 . S
O659 C661 1.166 . S
O660 Zn645 1.905 . S
O660 C661 1.182 . S
C661 O659 1.166 . S
C661 O660 1.182 . S
O662 Zn647 2.080 . S
O662 C665 1.305 . S
O663 Zn646 1.920 . S
O663 C665 1.234 . S
C664 O650 1.305 . S
C664 O651 1.234 . S
C665 O662 1.305 . S
C665 O663 1.234 . S
H666 C674 0.950 . S
H667 C679 0.950 . S
H668 C676 0.950 . S
H669 C678 0.950 . S
H670 C680 0.950 . S
H671 C682 0.950 . S
H672 C684 0.950 . S
H673 C685 0.950 . S
C674 H666 0.950 . S
C674 C675 1.386 . S
C674 C676 1.391 . S
C675 C674 1.386 . S
C675 C679 1.393 . S
C676 H668 0.950 . S
C676 C674 1.391 . S
C676 C677 1.400 . S
C677 C676 1.400 . S
C677 C678 1.398 . S
C677 C683 1.491 . S
C678 H669 0.950 . S
C678 C677 1.398 . S
C678 C679 1.391 . S
C679 H667 0.950 . S
C679 C675 1.393 . S
C679 C678 1.391 . S
C680 H670 0.950 . S
C680 C681 1.386 . S
C680 C682 1.391 . S
C681 C680 1.386 . S
C681 C685 1.393 . S
C682 H671 0.950 . S
C682 C680 1.391 . S
C682 C683 1.400 . S
C683 C677 1.491 . S
C683 C682 1.400 . S
C683 C684 1.398 . S
C684 H672 0.950 . S
C684 C683 1.398 . S
C684 C685 1.391 . S
C685 H673 0.950 . S
C685 C681 1.393 . S
C685 C684 1.391 . S
H686 C694 0.950 . S
H687 C699 0.950 . S
H688 C696 0.950 . S
H689 C698 0.950 . S
H690 C700 0.950 1_565 S
H691 C702 0.950 1_565 S
H692 C704 0.950 . S
H693 C705 0.950 . S
C694 H686 0.950 . S
C694 C695 1.386 . S
C694 C696 1.391 . S
C695 C694 1.386 . S
C695 C699 1.393 . S
C696 H688 0.950 . S
C696 C694 1.391 . S
C696 C697 1.400 . S
C697 C696 1.400 . S
C697 C698 1.398 . S
C697 C703 1.491 . S
C698 H689 0.950 . S
C698 C697 1.398 . S
C698 C699 1.391 . S
C699 H687 0.950 . S
C699 C695 1.393 . S
C699 C698 1.391 . S
C700 H690 0.950 1_545 S
C700 C701 1.386 . S
C700 C702 1.391 . S
C701 C700 1.386 . S
C701 C705 1.393 . S
C702 H691 0.950 1_545 S
C702 C700 1.391 . S
C702 C703 1.400 . S
C703 C697 1.491 . S
C703 C702 1.400 . S
C703 C704 1.398 . S
C704 H692 0.950 . S
C704 C703 1.398 . S
C704 C705 1.391 . S
C705 H693 0.950 . S
C705 C701 1.393 . S
C705 C704 1.391 . S
H706 C714 0.950 . S
H707 C719 0.950 . S
H708 C716 0.950 . S
H709 C718 0.950 . S
H710 C720 0.950 . S
H711 C722 0.950 . S
H712 C724 0.950 . S
H713 C725 0.950 . S
C714 H706 0.950 . S
C714 C715 1.386 . S
C714 C716 1.391 . S
C715 C714 1.386 . S
C715 C719 1.393 1_655 S
C716 H708 0.950 . S
C716 C714 1.391 . S
C716 C717 1.400 . S
C717 C716 1.400 . S
C717 C718 1.398 1_655 S
C717 C723 1.491 . S
C718 H709 0.950 . S
C718 C717 1.398 1_455 S
C718 C719 1.391 . S
C719 H707 0.950 . S
C719 C715 1.393 1_455 S
C719 C718 1.391 . S
C720 H710 0.950 . S
C720 C721 1.386 . S
C720 C722 1.391 . S
C721 C720 1.386 . S
C721 C725 1.393 1_455 S
C722 H711 0.950 . S
C722 C720 1.391 . S
C722 C723 1.400 1_455 S
C723 C717 1.491 . S
C723 C722 1.400 1_655 S
C723 C724 1.398 . S
C724 H712 0.950 . S
C724 C723 1.398 . S
C724 C725 1.391 . S
C725 H713 0.950 . S
C725 C721 1.393 1_655 S
C725 C724 1.391 . S
H726 C734 0.950 . S
H727 C739 0.950 . S
H728 C736 0.950 . S
H729 C738 0.950 . S
H730 C740 0.950 . S
H731 C742 0.950 . S
H732 C744 0.950 . S
H733 C745 0.950 . S
C734 H726 0.950 . S
C734 C735 1.386 . S
C734 C736 1.391 . S
C735 C734 1.386 . S
C735 C739 1.393 . S
C736 H728 0.950 . S
C736 C734 1.391 . S
C736 C737 1.400 . S
C737 C736 1.400 . S
C737 C738 1.398 . S
C737 C743 1.491 . S
C738 H729 0.950 . S
C738 C737 1.398 . S
C738 C739 1.391 . S
C739 H727 0.950 . S
C739 C735 1.393 . S
C739 C738 1.391 . S
C740 H730 0.950 . S
C740 C741 1.386 . S
C740 C742 1.391 . S
C741 C740 1.386 . S
C741 C745 1.393 . S
C742 H731 0.950 . S
C742 C740 1.391 . S
C742 C743 1.400 . S
C743 C737 1.491 . S
C743 C742 1.400 . S
C743 C744 1.398 . S
C744 H732 0.950 . S
C744 C743 1.398 . S
C744 C745 1.391 . S
C745 H733 0.950 . S
C745 C741 1.393 . S
C745 C744 1.391 . S
H746 C754 0.950 . S
H747 C759 0.950 . S
H748 C756 0.950 . S
H749 C758 0.950 . S
H750 C760 0.950 . S
H751 C762 0.950 . S
H752 C764 0.950 . S
H753 C765 0.950 . S
C754 H746 0.950 . S
C754 C755 1.386 1_565 S
C754 C756 1.391 . S
C755 C754 1.386 1_545 S
C755 C759 1.393 . S
C756 H748 0.950 . S
C756 C754 1.391 . S
C756 C757 1.400 1_565 S
C757 C756 1.400 1_545 S
C757 C758 1.398 . S
C757 C763 1.491 . S
C758 H749 0.950 . S
C758 C757 1.398 . S
C758 C759 1.391 . S
C759 H747 0.950 . S
C759 C755 1.393 . S
C759 C758 1.391 . S
C760 H750 0.950 . S
C760 C761 1.386 . S
C760 C762 1.391 . S
C761 C760 1.386 . S
C761 C765 1.393 1_545 S
C762 H751 0.950 . S
C762 C760 1.391 . S
C762 C763 1.400 . S
C763 C757 1.491 . S
C763 C762 1.400 . S
C763 C764 1.398 1_545 S
C764 H752 0.950 . S
C764 C763 1.398 1_565 S
C764 C765 1.391 . S
C765 H753 0.950 . S
C765 C761 1.393 1_565 S
C765 C764 1.391 . S
H766 C774 0.950 . S
H767 C779 0.950 . S
H768 C776 0.950 . S
H769 C778 0.950 . S
H770 C780 0.960 . S
H771 C782 0.950 . S
H772 C784 0.950 . S
H773 C785 0.950 . S
C774 H766 0.950 . S
C774 C775 1.386 . S
C774 C776 1.391 . S
C775 C774 1.386 . S
C775 C779 1.393 . S
C776 H768 0.950 . S
C776 C774 1.391 . S
C776 C777 1.400 . S
C777 C776 1.400 . S
C777 C778 1.398 . S
C777 C783 1.491 . S
C778 H769 0.950 . S
C778 C777 1.398 . S
C778 C779 1.391 . S
C779 H767 0.950 . S
C779 C775 1.393 . S
C779 C778 1.391 . S
C780 H770 0.960 . S
C780 C781 1.386 . S
C780 C782 1.391 . S
C781 C780 1.386 . S
C781 C785 1.393 . S
C782 H771 0.950 . S
C782 C780 1.391 . S
C782 C783 1.400 . S
C783 C777 1.491 . S
C783 C782 1.400 . S
C783 C784 1.398 . S
C784 H772 0.950 . S
C784 C783 1.398 . S
C784 C785 1.391 . S
C785 H773 0.950 . S
C785 C781 1.393 . S
C785 C784 1.391 . S
H786 C794 0.950 . S
H787 C799 0.950 . S
H788 C796 0.950 . S
H789 C798 0.950 . S
H790 C800 0.950 . S
H791 C802 0.950 . S
H792 C804 0.950 . S
H793 C805 0.950 . S
C794 H786 0.950 . S
C794 C795 1.386 . S
C794 C796 1.391 . S
C795 C794 1.386 . S
C795 C799 1.393 . S
C796 H788 0.950 . S
C796 C794 1.391 . S
C796 C797 1.400 . S
C797 C796 1.400 . S
C797 C798 1.398 . S
C797 C803 1.491 . S
C798 H789 0.950 . S
C798 C797 1.398 . S
C798 C799 1.391 . S
C799 H787 0.950 . S
C799 C795 1.393 . S
C799 C798 1.391 . S
C800 H790 0.950 . S
C800 C801 1.386 . S
C800 C802 1.391 . S
C801 C800 1.386 . S
C801 C805 1.393 . S
C802 H791 0.950 . S
C802 C800 1.391 . S
C802 C803 1.400 . S
C803 C797 1.491 . S
C803 C802 1.400 . S
C803 C804 1.398 . S
C804 H792 0.950 . S
C804 C803 1.398 . S
C804 C805 1.391 . S
C805 H793 0.950 . S
C805 C801 1.393 . S
C805 C804 1.391 . S
H806 C814 0.950 . S
H807 C819 0.950 . S
H808 C816 0.950 . S
H809 C818 0.950 . S
H810 C820 0.950 . S
H811 C822 0.950 . S
H812 C824 0.950 . S
H813 C825 0.950 . S
C814 H806 0.950 . S
C814 C815 1.386 . S
C814 C816 1.391 . S
C815 C814 1.386 . S
C815 C819 1.393 1_565 S
C816 H808 0.950 . S
C816 C814 1.391 . S
C816 C817 1.400 . S
C817 C816 1.400 . S
C817 C818 1.398 1_565 S
C817 C823 1.491 . S
C818 H809 0.950 . S
C818 C817 1.398 1_545 S
C818 C819 1.391 . S
C819 H807 0.950 . S
C819 C815 1.393 1_545 S
C819 C818 1.391 . S
C820 H810 0.950 . S
C820 C821 1.386 1_545 S
C820 C822 1.391 . S
C821 C820 1.386 1_565 S
C821 C825 1.393 . S
C822 H811 0.950 . S
C822 C820 1.391 . S
C822 C823 1.400 1_545 S
C823 C817 1.491 . S
C823 C822 1.400 1_565 S
C823 C824 1.398 . S
C824 H812 0.950 . S
C824 C823 1.398 . S
C824 C825 1.391 . S
C825 H813 0.950 . S
C825 C821 1.393 . S
C825 C824 1.391 . S
H826 C834 0.950 . S
H827 C839 0.950 . S
H828 C836 0.950 . S
H829 C838 0.950 . S
H830 C840 0.950 . S
H831 C842 0.950 . S
H832 C844 0.950 1_655 S
H833 C845 0.950 1_655 S
C834 H826 0.950 . S
C834 C835 1.386 . S
C834 C836 1.391 . S
C835 C834 1.386 . S
C835 C839 1.393 . S
C836 H828 0.950 . S
C836 C834 1.391 . S
C836 C837 1.400 . S
C837 C836 1.400 . S
C837 C838 1.398 . S
C837 C843 1.491 . S
C838 H829 0.950 . S
C838 C837 1.398 . S
C838 C839 1.391 . S
C839 H827 0.950 . S
C839 C835 1.393 . S
C839 C838 1.391 . S
C840 H830 0.950 . S
C840 C841 1.386 . S
C840 C842 1.391 . S
C841 C840 1.386 . S
C841 C845 1.393 . S
C842 H831 0.950 . S
C842 C840 1.391 . S
C842 C843 1.400 . S
C843 C837 1.491 . S
C843 C842 1.400 . S
C843 C844 1.398 . S
C844 H832 0.950 1_455 S
C844 C843 1.398 . S
C844 C845 1.391 . S
C845 H833 0.950 1_455 S
C845 C841 1.393 . S
C845 C844 1.391 . S
H846 C854 0.950 . S
H847 C859 0.950 . S
H848 C856 0.950 . S
H849 C858 0.950 . S
H850 C860 0.950 . S
H851 C862 0.950 . S
H852 C864 0.950 . S
H853 C865 0.950 . S
C854 H846 0.950 . S
C854 C855 1.386 . S
C854 C856 1.391 . S
C855 C854 1.386 . S
C855 C859 1.393 . S
C856 H848 0.950 . S
C856 C854 1.391 . S
C856 C857 1.400 . S
C857 C856 1.400 . S
C857 C858 1.398 . S
C857 C863 1.491 . S
C858 H849 0.950 . S
C858 C857 1.398 . S
C858 C859 1.391 . S
C859 H847 0.950 . S
C859 C855 1.393 . S
C859 C858 1.391 . S
C860 H850 0.950 . S
C860 C861 1.386 . S
C860 C862 1.391 . S
C861 C860 1.386 . S
C861 C865 1.393 . S
C862 H851 0.950 . S
C862 C860 1.391 . S
C862 C863 1.400 . S
C863 C857 1.491 . S
C863 C862 1.400 . S
C863 C864 1.398 . S
C864 H852 0.950 . S
C864 C863 1.398 . S
C864 C865 1.391 . S
C865 H853 0.950 . S
C865 C861 1.393 . S
C865 C864 1.391 . S
H866 C874 0.950 . S
H867 C879 0.950 1_565 S
H868 C876 0.950 . S
H869 C878 0.950 1_565 S
H870 C880 0.950 1_565 S
H871 C882 0.950 1_565 S
H872 C884 0.950 . S
H873 C885 0.950 . S
C874 H866 0.950 . S
C874 C875 1.386 . S
C874 C876 1.391 . S
C875 C874 1.386 . S
C875 C879 1.393 . S
C876 H868 0.950 . S
C876 C874 1.391 . S
C876 C877 1.400 . S
C877 C876 1.400 . S
C877 C878 1.398 . S
C877 C883 1.491 . S
C878 H869 0.950 1_545 S
C878 C877 1.398 . S
C878 C879 1.391 . S
C879 H867 0.950 1_545 S
C879 C875 1.393 . S
C879 C878 1.391 . S
C880 H870 0.950 1_545 S
C880 C881 1.386 . S
C880 C882 1.391 . S
C881 C880 1.386 . S
C881 C885 1.393 . S
C882 H871 0.950 1_545 S
C882 C880 1.391 . S
C882 C883 1.400 . S
C883 C877 1.491 . S
C883 C882 1.400 . S
C883 C884 1.398 . S
C884 H872 0.950 . S
C884 C883 1.398 . S
C884 C885 1.391 . S
C885 H873 0.950 . S
C885 C881 1.393 . S
C885 C884 1.391 . S
H886 C894 0.950 . S
H887 C899 0.950 . S
H888 C896 0.950 . S
H889 C898 0.950 . S
H890 C900 0.950 . S
H891 C902 0.950 . S
H892 C904 0.950 . S
H893 C905 0.950 . S
C894 H886 0.950 . S
C894 C895 1.386 . S
C894 C896 1.391 . S
C895 C894 1.386 . S
C895 C899 1.393 1_455 S
C896 H888 0.950 . S
C896 C894 1.391 . S
C896 C897 1.400 . S
C897 C896 1.400 . S
C897 C898 1.398 1_455 S
C897 C903 1.491 . S
C898 H889 0.950 . S
C898 C897 1.398 1_655 S
C898 C899 1.391 . S
C899 H887 0.950 . S
C899 C895 1.393 1_655 S
C899 C898 1.391 . S
C900 H890 0.950 . S
C900 C901 1.386 1_655 S
C900 C902 1.391 . S
C901 C900 1.386 1_455 S
C901 C905 1.393 . S
C902 H891 0.950 . S
C902 C900 1.391 . S
C902 C903 1.400 1_655 S
C903 C897 1.491 . S
C903 C902 1.400 1_455 S
C903 C904 1.398 . S
C904 H892 0.950 . S
C904 C903 1.398 . S
C904 C905 1.391 . S
C905 H893 0.950 . S
C905 C901 1.393 . S
C905 C904 1.391 . S
H906 C914 0.950 . S
H907 C919 0.950 . S
H908 C916 0.950 . S
H909 C918 0.950 . S
H910 C920 0.950 . S
H911 C922 0.950 . S
H912 C924 0.950 . S
H913 C925 0.950 . S
C914 H906 0.950 . S
C914 C915 1.386 . S
C914 C916 1.391 . S
C915 C914 1.386 . S
C915 C919 1.393 . S
C916 H908 0.950 . S
C916 C914 1.391 . S
C916 C917 1.400 . S
C917 C916 1.400 . S
C917 C918 1.398 . S
C917 C923 1.491 . S
C918 H909 0.950 . S
C918 C917 1.398 . S
C918 C919 1.391 . S
C919 H907 0.950 . S
C919 C915 1.393 . S
C919 C918 1.391 . S
C920 H910 0.950 . S
C920 C921 1.386 . S
C920 C922 1.391 . S
C921 C920 1.386 . S
C921 C925 1.393 . S
C922 H911 0.950 . S
C922 C920 1.391 . S
C922 C923 1.400 . S
C923 C917 1.491 . S
C923 C922 1.400 . S
C923 C924 1.398 . S
C924 H912 0.950 . S
C924 C923 1.398 . S
C924 C925 1.391 . S
C925 H913 0.950 . S
C925 C921 1.393 . S
C925 C924 1.391 . S
H926 C934 0.950 . S
H927 C939 0.950 . S
H928 C936 0.950 . S
H929 C938 0.950 . S
H930 C940 0.950 . S
H931 C942 0.950 . S
H932 C944 0.950 . S
H933 C945 0.950 . S
C934 H926 0.950 . S
C934 C935 1.386 . S
C934 C936 1.391 . S
C935 C934 1.386 . S
C935 C939 1.393 . S
C936 H928 0.950 . S
C936 C934 1.391 . S
C936 C937 1.400 . S
C937 C936 1.400 . S
C937 C938 1.398 . S
C937 C943 1.491 . S
C938 H929 0.950 . S
C938 C937 1.398 . S
C938 C939 1.391 . S
C939 H927 0.950 . S
C939 C935 1.393 . S
C939 C938 1.391 . S
C940 H930 0.950 . S
C940 C941 1.386 . S
C940 C942 1.391 . S
C941 C940 1.386 . S
C941 C945 1.393 . S
C942 H931 0.950 . S
C942 C940 1.391 . S
C942 C943 1.400 . S
C943 C937 1.491 . S
C943 C942 1.400 . S
C943 C944 1.398 . S
C944 H932 0.950 . S
C944 C943 1.398 . S
C944 C945 1.391 . S
C945 H933 0.950 . S
C945 C941 1.393 . S
C945 C944 1.391 . S
H946 C954 0.950 . S
H947 C959 0.950 . S
H948 C956 0.950 . S
H949 C958 0.950 . S
H950 C960 0.950 . S
H951 C962 0.950 . S
H952 C964 0.950 . S
H953 C965 0.950 . S
C954 H946 0.950 . S
C954 C955 1.386 . S
C954 C956 1.391 . S
C955 C954 1.386 . S
C955 C959 1.393 . S
C956 H948 0.950 . S
C956 C954 1.391 . S
C956 C957 1.400 . S
C957 C956 1.400 . S
C957 C958 1.398 . S
C957 C963 1.491 . S
C958 H949 0.950 . S
C958 C957 1.398 . S
C958 C959 1.391 . S
C959 H947 0.950 . S
C959 C955 1.393 . S
C959 C958 1.391 . S
C960 H950 0.950 . S
C960 C961 1.386 . S
C960 C962 1.391 . S
C961 C960 1.386 . S
C961 C965 1.393 . S
C962 H951 0.950 . S
C962 C960 1.391 . S
C962 C963 1.400 . S
C963 C957 1.491 . S
C963 C962 1.400 . S
C963 C964 1.398 . S
C964 H952 0.950 . S
C964 C963 1.398 . S
C964 C965 1.391 . S
C965 H953 0.950 . S
C965 C961 1.393 . S
C965 C964 1.391 . S
H966 C974 0.950 . S
H967 C979 0.950 . S
H968 C976 0.950 . S
H969 C978 0.950 . S
H970 C980 0.950 . S
H971 C982 0.950 . S
H972 C984 0.950 . S
H973 C985 0.950 . S
C974 H966 0.950 . S
C974 C975 1.386 . S
C974 C976 1.391 . S
C975 C974 1.386 . S
C975 C979 1.393 . S
C976 H968 0.950 . S
C976 C974 1.391 . S
C976 C977 1.400 . S
C977 C976 1.400 . S
C977 C978 1.398 . S
C977 C983 1.491 . S
C978 H969 0.950 . S
C978 C977 1.398 . S
C978 C979 1.391 . S
C979 H967 0.950 . S
C979 C975 1.393 . S
C979 C978 1.391 . S
C980 H970 0.950 . S
C980 C981 1.386 . S
C980 C982 1.391 . S
C981 C980 1.386 . S
C981 C985 1.393 . S
C982 H971 0.950 . S
C982 C980 1.391 . S
C982 C983 1.400 . S
C983 C977 1.491 . S
C983 C982 1.400 . S
C983 C984 1.398 . S
C984 H972 0.950 . S
C984 C983 1.398 . S
C984 C985 1.391 . S
C985 H973 0.950 . S
C985 C981 1.393 . S
C985 C984 1.391 . S
H986 C994 0.950 . S
H987 C999 0.950 . S
H988 C996 0.950 . S
H989 C998 0.950 . S
H990 C1000 0.950 . S
H991 C1002 0.950 . S
H992 C1004 0.950 . S
H993 C1005 0.950 . S
C994 H986 0.950 . S
C994 C995 1.386 . S
C994 C996 1.391 . S
C995 C994 1.386 . S
C995 C999 1.393 . S
C996 H988 0.950 . S
C996 C994 1.391 . S
C996 C997 1.400 . S
C997 C996 1.400 . S
C997 C998 1.398 . S
C997 C1003 1.491 . S
C998 H989 0.950 . S
C998 C997 1.398 . S
C998 C999 1.391 . S
C999 H987 0.950 . S
C999 C995 1.393 . S
C999 C998 1.391 . S
C1000 H990 0.950 . S
C1000 C1001 1.386 . S
C1000 C1002 1.391 . S
C1001 C1000 1.386 . S
C1001 C1005 1.393 . S
C1002 H991 0.950 . S
C1002 C1000 1.391 . S
C1002 C1003 1.400 . S
C1003 C997 1.491 . S
C1003 C1002 1.400 . S
C1003 C1004 1.398 . S
C1004 H992 0.950 . S
C1004 C1003 1.398 . S
C1004 C1005 1.391 . S
C1005 H993 0.950 . S
C1005 C1001 1.393 . S
C1005 C1004 1.391 . S
H1006 C1014 0.950 . S
H1007 C1019 0.950 . S
H1008 C1016 0.950 . S
H1009 C1018 0.950 . S
H1010 C1020 0.950 . S
H1011 C1022 0.950 . S
H1012 C1024 0.950 . S
H1013 C1025 0.950 . S
C1014 H1006 0.950 . S
C1014 C1015 1.386 . S
C1014 C1016 1.391 . S
C1015 C1014 1.386 . S
C1015 C1019 1.393 . S
C1016 H1008 0.950 . S
C1016 C1014 1.391 . S
C1016 C1017 1.400 . S
C1017 C1016 1.400 . S
C1017 C1018 1.398 . S
C1017 C1023 1.491 . S
C1018 H1009 0.950 . S
C1018 C1017 1.398 . S
C1018 C1019 1.391 . S
C1019 H1007 0.950 . S
C1019 C1015 1.393 . S
C1019 C1018 1.391 . S
C1020 H1010 0.950 . S
C1020 C1021 1.386 . S
C1020 C1022 1.391 . S
C1021 C1020 1.386 . S
C1021 C1025 1.393 . S
C1022 H1011 0.950 . S
C1022 C1020 1.391 . S
C1022 C1023 1.400 . S
C1023 C1017 1.491 . S
C1023 C1022 1.400 . S
C1023 C1024 1.398 . S
C1024 H1012 0.950 . S
C1024 C1023 1.398 . S
C1024 C1025 1.391 . S
C1025 H1013 0.950 . S
C1025 C1021 1.393 . S
C1025 C1024 1.391 . S
H1026 C1034 0.950 . S
H1027 C1039 0.950 . S
H1028 C1036 0.950 . S
H1029 C1038 0.950 . S
H1030 C1040 0.950 . S
H1031 C1042 0.950 . S
H1032 C1044 0.950 . S
H1033 C1045 0.950 . S
C1034 H1026 0.950 . S
C1034 C1035 1.386 . S
C1034 C1036 1.391 . S
C1035 C1034 1.386 . S
C1035 C1039 1.393 . S
C1036 H1028 0.950 . S
C1036 C1034 1.391 . S
C1036 C1037 1.400 . S
C1037 C1036 1.400 . S
C1037 C1038 1.398 . S
C1037 C1043 1.491 . S
C1038 H1029 0.950 . S
C1038 C1037 1.398 . S
C1038 C1039 1.391 . S
C1039 H1027 0.950 . S
C1039 C1035 1.393 . S
C1039 C1038 1.391 . S
C1040 H1030 0.950 . S
C1040 C1041 1.386 . S
C1040 C1042 1.391 . S
C1041 C1040 1.386 . S
C1041 C1045 1.393 . S
C1042 H1031 0.950 . S
C1042 C1040 1.391 . S
C1042 C1043 1.400 . S
C1043 C1037 1.491 . S
C1043 C1042 1.400 . S
C1043 C1044 1.398 . S
C1044 H1032 0.950 . S
C1044 C1043 1.398 . S
C1044 C1045 1.391 . S
C1045 H1033 0.950 . S
C1045 C1041 1.393 . S
C1045 C1044 1.391 . S
H1046 C1054 0.950 . S
H1047 C1059 0.950 . S
H1048 C1056 0.950 . S
H1049 C1058 0.950 . S
H1050 C1060 0.950 . S
H1051 C1062 0.950 . S
H1052 C1064 0.950 . S
H1053 C1065 0.950 . S
C1054 H1046 0.950 . S
C1054 C1055 1.386 . S
C1054 C1056 1.391 . S
C1055 C1054 1.386 . S
C1055 C1059 1.393 . S
C1056 H1048 0.950 . S
C1056 C1054 1.391 . S
C1056 C1057 1.400 . S
C1057 C1056 1.400 . S
C1057 C1058 1.398 . S
C1057 C1063 1.491 . S
C1058 H1049 0.950 . S
C1058 C1057 1.398 . S
C1058 C1059 1.391 . S
C1059 H1047 0.950 . S
C1059 C1055 1.393 . S
C1059 C1058 1.391 . S
C1060 H1050 0.950 . S
C1060 C1061 1.386 . S
C1060 C1062 1.391 . S
C1061 C1060 1.386 . S
C1061 C1065 1.393 . S
C1062 H1051 0.950 . S
C1062 C1060 1.391 . S
C1062 C1063 1.400 . S
C1063 C1057 1.491 . S
C1063 C1062 1.400 . S
C1063 C1064 1.398 . S
C1064 H1052 0.950 . S
C1064 C1063 1.398 . S
C1064 C1065 1.391 . S
C1065 H1053 0.950 . S
C1065 C1061 1.393 . S
C1065 C1064 1.391 . S
H1066 C1074 0.950 . S
H1067 C1079 0.950 . S
H1068 C1076 0.950 . S
H1069 C1078 0.950 . S
H1070 C1080 0.950 . S
H1071 C1082 0.950 . S
H1072 C1084 0.950 . S
H1073 C1085 0.950 . S
C1074 H1066 0.950 . S
C1074 C1075 1.386 . S
C1074 C1076 1.391 . S
C1075 C1074 1.386 . S
C1075 C1079 1.393 . S
C1076 H1068 0.950 . S
C1076 C1074 1.391 . S
C1076 C1077 1.400 . S
C1077 C1076 1.400 . S
C1077 C1078 1.398 . S
C1077 C1083 1.491 . S
C1078 H1069 0.950 . S
C1078 C1077 1.398 . S
C1078 C1079 1.391 . S
C1079 H1067 0.950 . S
C1079 C1075 1.393 . S
C1079 C1078 1.391 . S
C1080 H1070 0.950 . S
C1080 C1081 1.386 . S
C1080 C1082 1.391 . S
C1081 C1080 1.386 . S
C1081 C1085 1.393 . S
C1082 H1071 0.950 . S
C1082 C1080 1.391 . S
C1082 C1083 1.400 . S
C1083 C1077 1.491 . S
C1083 C1082 1.400 . S
C1083 C1084 1.398 . S
C1084 H1072 0.950 . S
C1084 C1083 1.398 . S
C1084 C1085 1.391 . S
C1085 H1073 0.950 . S
C1085 C1081 1.393 . S
C1085 C1084 1.391 . S
H1086 C1094 0.950 . S
H1087 C1099 0.950 . S
H1088 C1096 0.950 . S
H1089 C1098 0.950 . S
H1090 C1100 0.950 . S
H1091 C1102 0.950 . S
H1092 C1104 0.950 . S
H1093 C1105 0.950 . S
C1094 H1086 0.950 . S
C1094 C1095 1.386 . S
C1094 C1096 1.391 . S
C1095 C1094 1.386 . S
C1095 C1099 1.393 . S
C1096 H1088 0.950 . S
C1096 C1094 1.391 . S
C1096 C1097 1.400 . S
C1097 C1096 1.400 . S
C1097 C1098 1.398 . S
C1097 C1103 1.491 . S
C1098 H1089 0.950 . S
C1098 C1097 1.398 . S
C1098 C1099 1.391 . S
C1099 H1087 0.950 . S
C1099 C1095 1.393 . S
C1099 C1098 1.391 . S
C1100 H1090 0.950 . S
C1100 C1101 1.386 . S
C1100 C1102 1.391 . S
C1101 C1100 1.386 . S
C1101 C1105 1.393 . S
C1102 H1091 0.950 . S
C1102 C1100 1.391 . S
C1102 C1103 1.400 . S
C1103 C1097 1.491 . S
C1103 C1102 1.400 . S
C1103 C1104 1.398 . S
C1104 H1092 0.950 . S
C1104 C1103 1.398 . S
C1104 C1105 1.391 . S
C1105 H1093 0.950 . S
C1105 C1101 1.393 . S
C1105 C1104 1.391 . S
H1106 C1114 0.950 . S
H1107 C1119 0.950 . S
H1108 C1116 0.950 . S
H1109 C1118 0.950 . S
H1110 C1120 0.950 . S
H1111 C1122 0.950 . S
H1112 C1124 0.950 . S
H1113 C1125 0.950 . S
C1114 H1106 0.950 . S
C1114 C1115 1.386 . S
C1114 C1116 1.391 . S
C1115 C1114 1.386 . S
C1115 C1119 1.393 . S
C1116 H1108 0.950 . S
C1116 C1114 1.391 . S
C1116 C1117 1.400 . S
C1117 C1116 1.400 . S
C1117 C1118 1.398 . S
C1117 C1123 1.491 . S
C1118 H1109 0.950 . S
C1118 C1117 1.398 . S
C1118 C1119 1.391 . S
C1119 H1107 0.950 . S
C1119 C1115 1.393 . S
C1119 C1118 1.391 . S
C1120 H1110 0.950 . S
C1120 C1121 1.386 . S
C1120 C1122 1.391 . S
C1121 C1120 1.386 . S
C1121 C1125 1.393 . S
C1122 H1111 0.950 . S
C1122 C1120 1.391 . S
C1122 C1123 1.400 . S
C1123 C1117 1.491 . S
C1123 C1122 1.400 . S
C1123 C1124 1.398 . S
C1124 H1112 0.950 . S
C1124 C1123 1.398 . S
C1124 C1125 1.391 . S
C1125 H1113 0.950 . S
C1125 C1121 1.393 . S
C1125 C1124 1.391 . S
H1126 C1134 0.950 . S
H1127 C1139 0.950 . S
H1128 C1136 0.950 . S
H1129 C1138 0.950 . S
H1130 C1140 0.950 . S
H1131 C1142 0.950 . S
H1132 C1144 0.950 . S
H1133 C1145 0.950 . S
C1134 H1126 0.950 . S
C1134 C1135 1.386 . S
C1134 C1136 1.391 . S
C1135 C1134 1.386 . S
C1135 C1139 1.393 . S
C1136 H1128 0.950 . S
C1136 C1134 1.391 . S
C1136 C1137 1.400 . S
C1137 C1136 1.400 . S
C1137 C1138 1.398 . S
C1137 C1143 1.491 . S
C1138 H1129 0.950 . S
C1138 C1137 1.398 . S
C1138 C1139 1.391 . S
C1139 H1127 0.950 . S
C1139 C1135 1.393 . S
C1139 C1138 1.391 . S
C1140 H1130 0.950 . S
C1140 C1141 1.386 . S
C1140 C1142 1.391 . S
C1141 C1140 1.386 . S
C1141 C1145 1.393 . S
C1142 H1131 0.950 . S
C1142 C1140 1.391 . S
C1142 C1143 1.400 . S
C1143 C1137 1.491 . S
C1143 C1142 1.400 . S
C1143 C1144 1.398 . S
C1144 H1132 0.950 . S
C1144 C1143 1.398 . S
C1144 C1145 1.391 . S
C1145 H1133 0.950 . S
C1145 C1141 1.393 . S
C1145 C1144 1.391 . S
H1146 C1154 0.950 . S
H1147 C1159 0.950 . S
H1148 C1156 0.950 . S
H1149 C1158 0.950 . S
H1150 C1160 0.950 . S
H1151 C1162 0.950 . S
H1152 C1164 0.950 . S
H1153 C1165 0.950 . S
C1154 H1146 0.950 . S
C1154 C1155 1.386 . S
C1154 C1156 1.391 . S
C1155 C1154 1.386 . S
C1155 C1159 1.393 . S
C1156 H1148 0.950 . S
C1156 C1154 1.391 . S
C1156 C1157 1.400 . S
C1157 C1156 1.400 . S
C1157 C1158 1.398 . S
C1157 C1163 1.491 . S
C1158 H1149 0.950 . S
C1158 C1157 1.398 . S
C1158 C1159 1.391 . S
C1159 H1147 0.950 . S
C1159 C1155 1.393 . S
C1159 C1158 1.391 . S
C1160 H1150 0.950 . S
C1160 C1161 1.386 . S
C1160 C1162 1.391 . S
C1161 C1160 1.386 . S
C1161 C1165 1.393 . S
C1162 H1151 0.950 . S
C1162 C1160 1.391 . S
C1162 C1163 1.400 . S
C1163 C1157 1.491 . S
C1163 C1162 1.400 . S
C1163 C1164 1.398 . S
C1164 H1152 0.950 . S
C1164 C1163 1.398 . S
C1164 C1165 1.391 . S
C1165 H1153 0.950 . S
C1165 C1161 1.393 . S
C1165 C1164 1.391 . S
H1166 C1174 0.950 . S
H1167 C1179 0.950 . S
H1168 C1176 0.950 . S
H1169 C1178 0.950 . S
H1170 C1180 0.950 . S
H1171 C1182 0.950 . S
H1172 C1184 0.950 . S
H1173 C1185 0.950 . S
C1174 H1166 0.950 . S
C1174 C1175 1.386 . S
C1174 C1176 1.391 . S
C1175 C1174 1.386 . S
C1175 C1179 1.393 . S
C1176 H1168 0.950 . S
C1176 C1174 1.391 . S
C1176 C1177 1.400 . S
C1177 C1176 1.400 . S
C1177 C1178 1.398 . S
C1177 C1183 1.491 . S
C1178 H1169 0.950 . S
C1178 C1177 1.398 . S
C1178 C1179 1.391 . S
C1179 H1167 0.950 . S
C1179 C1175 1.393 . S
C1179 C1178 1.391 . S
C1180 H1170 0.950 . S
C1180 C1181 1.386 . S
C1180 C1182 1.391 . S
C1181 C1180 1.386 . S
C1181 C1185 1.393 . S
C1182 H1171 0.950 . S
C1182 C1180 1.391 . S
C1182 C1183 1.400 . S
C1183 C1177 1.491 . S
C1183 C1182 1.400 . S
C1183 C1184 1.398 . S
C1184 H1172 0.950 . S
C1184 C1183 1.398 . S
C1184 C1185 1.391 . S
C1185 H1173 0.950 . S
C1185 C1181 1.393 . S
C1185 C1184 1.391 . S
H1186 C1194 0.950 . S
H1187 C1199 0.950 . S
H1188 C1196 0.950 . S
H1189 C1198 0.950 . S
H1190 C1200 0.950 . S
H1191 C1202 0.950 . S
H1192 C1204 0.950 . S
H1193 C1205 0.950 . S
C1194 H1186 0.950 . S
C1194 C1195 1.386 . S
C1194 C1196 1.391 . S
C1195 C1194 1.386 . S
C1195 C1199 1.393 . S
C1196 H1188 0.950 . S
C1196 C1194 1.391 . S
C1196 C1197 1.400 . S
C1197 C1196 1.400 . S
C1197 C1198 1.398 . S
C1197 C1203 1.491 . S
C1198 H1189 0.950 . S
C1198 C1197 1.398 . S
C1198 C1199 1.391 . S
C1199 H1187 0.950 . S
C1199 C1195 1.393 . S
C1199 C1198 1.391 . S
C1200 H1190 0.950 . S
C1200 C1201 1.386 . S
C1200 C1202 1.391 . S
C1201 C1200 1.386 . S
C1201 C1205 1.393 . S
C1202 H1191 0.950 . S
C1202 C1200 1.391 . S
C1202 C1203 1.400 . S
C1203 C1197 1.491 . S
C1203 C1202 1.400 . S
C1203 C1204 1.398 . S
C1204 H1192 0.950 . S
C1204 C1203 1.398 . S
C1204 C1205 1.391 . S
C1205 H1193 0.950 . S
C1205 C1201 1.393 . S
C1205 C1204 1.391 . S
H1206 C1214 0.950 . S
H1207 C1219 0.950 . S
H1208 C1216 0.950 . S
H1209 C1218 0.950 . S
H1210 C1220 0.950 . S
H1211 C1222 0.950 . S
H1212 C1224 0.950 . S
H1213 C1225 0.950 . S
C1214 H1206 0.950 . S
C1214 C1215 1.386 . S
C1214 C1216 1.391 . S
C1215 C1214 1.386 . S
C1215 C1219 1.393 . S
C1216 H1208 0.950 . S
C1216 C1214 1.391 . S
C1216 C1217 1.400 . S
C1217 C1216 1.400 . S
C1217 C1218 1.398 . S
C1217 C1223 1.491 . S
C1218 H1209 0.950 . S
C1218 C1217 1.398 . S
C1218 C1219 1.391 . S
C1219 H1207 0.950 . S
C1219 C1215 1.393 . S
C1219 C1218 1.391 . S
C1220 H1210 0.950 . S
C1220 C1221 1.386 . S
C1220 C1222 1.391 . S
C1221 C1220 1.386 . S
C1221 C1225 1.393 . S
C1222 H1211 0.950 . S
C1222 C1220 1.391 . S
C1222 C1223 1.400 . S
C1223 C1217 1.491 . S
C1223 C1222 1.400 . S
C1223 C1224 1.398 . S
C1224 H1212 0.950 . S
C1224 C1223 1.398 . S
C1224 C1225 1.391 . S
C1225 H1213 0.950 . S
C1225 C1221 1.393 . S
C1225 C1224 1.391 . S
H1226 C1234 0.950 . S
H1227 C1239 0.950 . S
H1228 C1236 0.950 . S
H1229 C1238 0.950 . S
H1230 C1240 0.950 . S
H1231 C1242 0.950 . S
H1232 C1244 0.950 . S
H1233 C1245 0.950 . S
C1234 H1226 0.950 . S
C1234 C1235 1.386 . S
C1234 C1236 1.391 . S
C1235 C1234 1.386 . S
C1235 C1239 1.393 . S
C1236 H1228 0.950 . S
C1236 C1234 1.391 . S
C1236 C1237 1.400 . S
C1237 C1236 1.400 . S
C1237 C1238 1.398 . S
C1237 C1243 1.491 . S
C1238 H1229 0.950 . S
C1238 C1237 1.398 . S
C1238 C1239 1.391 . S
C1239 H1227 0.950 . S
C1239 C1235 1.393 . S
C1239 C1238 1.391 . S
C1240 H1230 0.950 . S
C1240 C1241 1.386 . S
C1240 C1242 1.391 . S
C1241 C1240 1.386 . S
C1241 C1245 1.393 . S
C1242 H1231 0.950 . S
C1242 C1240 1.391 . S
C1242 C1243 1.400 . S
C1243 C1237 1.491 . S
C1243 C1242 1.400 . S
C1243 C1244 1.398 . S
C1244 H1232 0.950 . S
C1244 C1243 1.398 . S
C1244 C1245 1.391 . S
C1245 H1233 0.950 . S
C1245 C1241 1.393 . S
C1245 C1244 1.391 . S
H1246 C1254 0.950 . S
H1247 C1259 0.950 . S
H1248 C1256 0.950 . S
H1249 C1258 0.950 . S
H1250 C1260 0.950 . S
H1251 C1262 0.950 . S
H1252 C1264 0.950 . S
H1253 C1265 0.950 . S
C1254 H1246 0.950 . S
C1254 C1255 1.386 . S
C1254 C1256 1.391 . S
C1255 C1254 1.386 . S
C1255 C1259 1.393 . S
C1256 H1248 0.950 . S
C1256 C1254 1.391 . S
C1256 C1257 1.400 . S
C1257 C1256 1.400 . S
C1257 C1258 1.398 . S
C1257 C1263 1.491 . S
C1258 H1249 0.950 . S
C1258 C1257 1.398 . S
C1258 C1259 1.391 . S
C1259 H1247 0.950 . S
C1259 C1255 1.393 . S
C1259 C1258 1.391 . S
C1260 H1250 0.950 . S
C1260 C1261 1.386 . S
C1260 C1262 1.391 . S
C1261 C1260 1.386 . S
C1261 C1265 1.393 . S
C1262 H1251 0.950 . S
C1262 C1260 1.391 . S
C1262 C1263 1.400 . S
C1263 C1257 1.491 . S
C1263 C1262 1.400 . S
C1263 C1264 1.398 . S
C1264 H1252 0.950 . S
C1264 C1263 1.398 . S
C1264 C1265 1.391 . S
C1265 H1253 0.950 . S
C1265 C1261 1.393 . S
C1265 C1264 1.391 . S
H1266 C1274 0.950 . S
H1267 C1279 0.950 . S
H1268 C1276 0.950 . S
H1269 C1278 0.950 . S
H1270 C1280 0.950 . S
H1271 C1282 0.950 . S
H1272 C1284 0.950 . S
H1273 C1285 0.950 . S
C1274 H1266 0.950 . S
C1274 C1275 1.386 . S
C1274 C1276 1.391 . S
C1275 C1274 1.386 . S
C1275 C1279 1.393 . S
C1276 H1268 0.950 . S
C1276 C1274 1.391 . S
C1276 C1277 1.400 . S
C1277 C1276 1.400 . S
C1277 C1278 1.398 . S
C1277 C1283 1.491 . S
C1278 H1269 0.950 . S
C1278 C1277 1.398 . S
C1278 C1279 1.391 . S
C1279 H1267 0.950 . S
C1279 C1275 1.393 . S
C1279 C1278 1.391 . S
C1280 H1270 0.950 . S
C1280 C1281 1.386 . S
C1280 C1282 1.391 . S
C1281 C1280 1.386 . S
C1281 C1285 1.393 . S
C1282 H1271 0.950 . S
C1282 C1280 1.391 . S
C1282 C1283 1.400 . S
C1283 C1277 1.491 . S
C1283 C1282 1.400 . S
C1283 C1284 1.398 . S
C1284 H1272 0.950 . S
C1284 C1283 1.398 . S
C1284 C1285 1.391 . S
C1285 H1273 0.950 . S
C1285 C1281 1.393 . S
C1285 C1284 1.391 . S
H1286 C1294 0.950 . S
H1287 C1299 0.950 . S
H1288 C1296 0.950 . S
H1289 C1298 0.950 . S
H1290 C1300 0.950 . S
H1291 C1302 0.950 . S
H1292 C1304 0.950 . S
H1293 C1305 0.950 . S
C1294 H1286 0.950 . S
C1294 C1295 1.386 . S
C1294 C1296 1.391 . S
C1295 C1294 1.386 . S
C1295 C1299 1.393 . S
C1296 H1288 0.950 . S
C1296 C1294 1.391 . S
C1296 C1297 1.400 . S
C1297 C1296 1.400 . S
C1297 C1298 1.398 . S
C1297 C1303 1.491 . S
C1298 H1289 0.950 . S
C1298 C1297 1.398 . S
C1298 C1299 1.391 . S
C1299 H1287 0.950 . S
C1299 C1295 1.393 . S
C1299 C1298 1.391 . S
C1300 H1290 0.950 . S
C1300 C1301 1.386 . S
C1300 C1302 1.391 . S
C1301 C1300 1.386 . S
C1301 C1305 1.393 . S
C1302 H1291 0.950 . S
C1302 C1300 1.391 . S
C1302 C1303 1.400 . S
C1303 C1297 1.491 . S
C1303 C1302 1.400 . S
C1303 C1304 1.398 . S
C1304 H1292 0.950 . S
C1304 C1303 1.398 . S
C1304 C1305 1.391 . S
C1305 H1293 0.950 . S
C1305 C1301 1.393 . S
C1305 C1304 1.391 . S
H1306 C1314 0.950 . S
H1307 C1319 0.950 . S
H1308 C1316 0.950 . S
H1309 C1318 0.950 . S
H1310 C1320 0.950 . S
H1311 C1322 0.950 . S
H1312 C1324 0.950 . S
H1313 C1325 0.950 . S
C1314 H1306 0.950 . S
C1314 C1315 1.386 . S
C1314 C1316 1.391 . S
C1315 C1314 1.386 . S
C1315 C1319 1.393 . S
C1316 H1308 0.950 . S
C1316 C1314 1.391 . S
C1316 C1317 1.400 . S
C1317 C1316 1.400 . S
C1317 C1318 1.398 . S
C1317 C1323 1.491 . S
C1318 H1309 0.950 . S
C1318 C1317 1.398 . S
C1318 C1319 1.391 . S
C1319 H1307 0.950 . S
C1319 C1315 1.393 . S
C1319 C1318 1.391 . S
C1320 H1310 0.950 . S
C1320 C1321 1.386 . S
C1320 C1322 1.391 . S
C1321 C1320 1.386 . S
C1321 C1325 1.393 . S
C1322 H1311 0.950 . S
C1322 C1320 1.391 . S
C1322 C1323 1.400 . S
C1323 C1317 1.491 . S
C1323 C1322 1.400 . S
C1323 C1324 1.398 . S
C1324 H1312 0.950 . S
C1324 C1323 1.398 . S
C1324 C1325 1.391 . S
C1325 H1313 0.950 . S
C1325 C1321 1.393 . S
C1325 C1324 1.391 . S
H1326 C1334 0.950 . S
H1327 C1339 0.950 . S
H1328 C1336 0.950 . S
H1329 C1338 0.950 . S
H1330 C1340 0.950 . S
H1331 C1342 0.950 . S
H1332 C1344 0.950 . S
H1333 C1345 0.950 . S
C1334 H1326 0.950 . S
C1334 C1335 1.386 . S
C1334 C1336 1.391 . S
C1335 C1334 1.386 . S
C1335 C1339 1.393 . S
C1336 H1328 0.950 . S
C1336 C1334 1.391 . S
C1336 C1337 1.400 . S
C1337 C1336 1.400 . S
C1337 C1338 1.398 . S
C1337 C1343 1.491 . S
C1338 H1329 0.950 . S
C1338 C1337 1.398 . S
C1338 C1339 1.391 . S
C1339 H1327 0.950 . S
C1339 C1335 1.393 . S
C1339 C1338 1.391 . S
C1340 H1330 0.950 . S
C1340 C1341 1.386 . S
C1340 C1342 1.391 . S
C1341 C1340 1.386 . S
C1341 C1345 1.393 . S
C1342 H1331 0.950 . S
C1342 C1340 1.391 . S
C1342 C1343 1.400 . S
C1343 C1337 1.491 . S
C1343 C1342 1.400 . S
C1343 C1344 1.398 . S
C1344 H1332 0.950 . S
C1344 C1343 1.398 . S
C1344 C1345 1.391 . S
C1345 H1333 0.950 . S
C1345 C1341 1.393 . S
C1345 C1344 1.391 . S
H1346 C1354 0.950 . S
H1347 C1359 0.950 . S
H1348 C1356 0.950 . S
H1349 C1358 0.950 . S
H1350 C1360 0.950 . S
H1351 C1362 0.950 . S
H1352 C1364 0.950 . S
H1353 C1365 0.950 . S
C1354 H1346 0.950 . S
C1354 C1355 1.386 . S
C1354 C1356 1.391 . S
C1355 C1354 1.386 . S
C1355 C1359 1.393 . S
C1356 H1348 0.950 . S
C1356 C1354 1.391 . S
C1356 C1357 1.400 . S
C1357 C1356 1.400 . S
C1357 C1358 1.398 . S
C1357 C1363 1.491 . S
C1358 H1349 0.950 . S
C1358 C1357 1.398 . S
C1358 C1359 1.391 . S
C1359 H1347 0.950 . S
C1359 C1355 1.393 . S
C1359 C1358 1.391 . S
C1360 H1350 0.950 . S
C1360 C1361 1.386 . S
C1360 C1362 1.391 . S
C1361 C1360 1.386 . S
C1361 C1365 1.393 . S
C1362 H1351 0.950 . S
C1362 C1360 1.391 . S
C1362 C1363 1.400 . S
C1363 C1357 1.491 . S
C1363 C1362 1.400 . S
C1363 C1364 1.398 . S
C1364 H1352 0.950 . S
C1364 C1363 1.398 . S
C1364 C1365 1.391 . S
C1365 H1353 0.950 . S
C1365 C1361 1.393 . S
C1365 C1364 1.391 . S
H1366 C1374 0.950 . S
H1367 C1379 0.950 . S
H1368 C1376 0.950 . S
H1369 C1378 0.950 . S
H1370 C1380 0.950 . S
H1371 C1382 0.950 . S
H1372 C1384 0.950 . S
H1373 C1385 0.950 . S
C1374 H1366 0.950 . S
C1374 C1375 1.386 . S
C1374 C1376 1.391 . S
C1375 C1374 1.386 . S
C1375 C1379 1.393 . S
C1376 H1368 0.950 . S
C1376 C1374 1.391 . S
C1376 C1377 1.400 . S
C1377 C1376 1.400 . S
C1377 C1378 1.398 . S
C1377 C1383 1.491 . S
C1378 H1369 0.950 . S
C1378 C1377 1.398 . S
C1378 C1379 1.391 . S
C1379 H1367 0.950 . S
C1379 C1375 1.393 . S
C1379 C1378 1.391 . S
C1380 H1370 0.950 . S
C1380 C1381 1.386 . S
C1380 C1382 1.391 . S
C1381 C1380 1.386 . S
C1381 C1385 1.393 . S
C1382 H1371 0.950 . S
C1382 C1380 1.391 . S
C1382 C1383 1.400 . S
C1383 C1377 1.491 . S
C1383 C1382 1.400 . S
C1383 C1384 1.398 . S
C1384 H1372 0.950 . S
C1384 C1383 1.398 . S
C1384 C1385 1.391 . S
C1385 H1373 0.950 . S
C1385 C1381 1.393 . S
C1385 C1384 1.391 . S
H1386 C1394 0.962 . S
H1387 C1399 0.950 . S
H1388 C1396 0.950 1_565 S
H1389 C1398 0.950 . S
H1390 C1400 0.950 . S
H1391 C1402 0.950 . S
H1392 C1404 0.950 1_565 S
H1393 C1405 0.950 1_565 S
C1394 H1386 0.962 . S
C1394 C1395 1.382 1_565 S
C1394 C1396 1.383 1_565 S
C1395 C1394 1.382 1_545 S
C1395 C1399 1.393 . S
C1396 H1388 0.950 1_545 S
C1396 C1394 1.383 1_545 S
C1396 C1397 1.400 . S
C1397 C1396 1.400 . S
C1397 C1398 1.398 . S
C1397 C1403 1.491 . S
C1398 H1389 0.950 . S
C1398 C1397 1.398 . S
C1398 C1399 1.391 . S
C1399 H1387 0.950 . S
C1399 C1395 1.393 . S
C1399 C1398 1.391 . S
C1400 H1390 0.950 . S
C1400 C1401 1.386 . S
C1400 C1402 1.391 . S
C1401 C1400 1.386 . S
C1401 C1405 1.393 . S
C1402 H1391 0.950 . S
C1402 C1400 1.391 . S
C1402 C1403 1.400 . S
C1403 C1397 1.491 . S
C1403 C1402 1.400 . S
C1403 C1404 1.398 . S
C1404 H1392 0.950 1_545 S
C1404 C1403 1.398 . S
C1404 C1405 1.391 . S
C1405 H1393 0.950 1_545 S
C1405 C1401 1.393 . S
C1405 C1404 1.391 . S
H1406 C1414 0.950 . S
H1407 C1419 0.950 . S
H1408 C1416 0.950 . S
H1409 C1418 0.950 . S
H1410 C1420 0.950 . S
H1411 C1422 0.950 . S
H1412 C1424 0.950 . S
H1413 C1425 0.950 . S
C1414 H1406 0.950 . S
C1414 C1415 1.386 1_455 S
C1414 C1416 1.391 . S
C1415 C1414 1.386 1_655 S
C1415 C1419 1.393 . S
C1416 H1408 0.950 . S
C1416 C1414 1.391 . S
C1416 C1417 1.400 1_455 S
C1417 C1416 1.400 1_655 S
C1417 C1418 1.398 . S
C1417 C1423 1.491 . S
C1418 H1409 0.950 . S
C1418 C1417 1.398 . S
C1418 C1419 1.391 . S
C1419 H1407 0.950 . S
C1419 C1415 1.393 . S
C1419 C1418 1.391 . S
C1420 H1410 0.950 . S
C1420 C1421 1.386 . S
C1420 C1422 1.391 . S
C1421 C1420 1.386 . S
C1421 C1425 1.393 1_655 S
C1422 H1411 0.950 . S
C1422 C1420 1.391 . S
C1422 C1423 1.400 . S
C1423 C1417 1.491 . S
C1423 C1422 1.400 . S
C1423 C1424 1.398 1_655 S
C1424 H1412 0.950 . S
C1424 C1423 1.398 1_455 S
C1424 C1425 1.391 . S
C1425 H1413 0.950 . S
C1425 C1421 1.393 1_455 S
C1425 C1424 1.391 . S
H1426 C1434 0.950 . S
H1427 C1439 0.950 . S
H1428 C1436 0.950 . S
H1429 C1438 0.950 . S
H1430 C1440 0.950 . S
H1431 C1442 0.950 . S
H1432 C1444 0.950 . S
H1433 C1445 0.950 . S
C1434 H1426 0.950 . S
C1434 C1435 1.386 . S
C1434 C1436 1.391 . S
C1435 C1434 1.386 . S
C1435 C1439 1.393 . S
C1436 H1428 0.950 . S
C1436 C1434 1.391 . S
C1436 C1437 1.400 . S
C1437 C1436 1.400 . S
C1437 C1438 1.398 . S
C1437 C1443 1.491 . S
C1438 H1429 0.950 . S
C1438 C1437 1.398 . S
C1438 C1439 1.391 . S
C1439 H1427 0.950 . S
C1439 C1435 1.393 . S
C1439 C1438 1.391 . S
C1440 H1430 0.950 . S
C1440 C1441 1.386 . S
C1440 C1442 1.391 . S
C1441 C1440 1.386 . S
C1441 C1445 1.393 . S
C1442 H1431 0.950 . S
C1442 C1440 1.391 . S
C1442 C1443 1.400 . S
C1443 C1437 1.491 . S
C1443 C1442 1.400 . S
C1443 C1444 1.398 . S
C1444 H1432 0.950 . S
C1444 C1443 1.398 . S
C1444 C1445 1.391 . S
C1445 H1433 0.950 . S
C1445 C1441 1.393 . S
C1445 C1444 1.391 . S
H1446 C1454 0.950 . S
H1447 C1459 0.950 . S
H1448 C1456 0.950 . S
H1449 C1458 0.950 . S
H1450 C1460 0.950 . S
H1451 C1462 0.950 . S
H1452 C1464 0.950 . S
H1453 C1465 0.950 . S
C1454 H1446 0.950 . S
C1454 C1455 1.386 . S
C1454 C1456 1.391 . S
C1455 C1454 1.386 . S
C1455 C1459 1.393 . S
C1456 H1448 0.950 . S
C1456 C1454 1.391 . S
C1456 C1457 1.400 . S
C1457 C1456 1.400 . S
C1457 C1458 1.398 . S
C1457 C1463 1.491 . S
C1458 H1449 0.950 . S
C1458 C1457 1.398 . S
C1458 C1459 1.391 . S
C1459 H1447 0.950 . S
C1459 C1455 1.393 . S
C1459 C1458 1.391 . S
C1460 H1450 0.950 . S
C1460 C1461 1.386 . S
C1460 C1462 1.391 . S
C1461 C1460 1.386 . S
C1461 C1465 1.393 . S
C1462 H1451 0.950 . S
C1462 C1460 1.391 . S
C1462 C1463 1.400 . S
C1463 C1457 1.491 . S
C1463 C1462 1.400 . S
C1463 C1464 1.398 . S
C1464 H1452 0.950 . S
C1464 C1463 1.398 . S
C1464 C1465 1.391 . S
C1465 H1453 0.950 . S
C1465 C1461 1.393 . S
C1465 C1464 1.391 . S
H1466 C1474 0.950 . S
H1467 C1479 0.950 . S
H1468 C1476 0.950 . S
H1469 C1478 0.950 . S
H1470 C1480 0.950 . S
H1471 C1482 0.950 . S
H1472 C1484 0.950 . S
H1473 C1485 0.950 . S
C1474 H1466 0.950 . S
C1474 C1475 1.386 . S
C1474 C1476 1.391 . S
C1475 C1474 1.386 . S
C1475 C1479 1.393 . S
C1476 H1468 0.950 . S
C1476 C1474 1.391 . S
C1476 C1477 1.400 . S
C1477 C1476 1.400 . S
C1477 C1478 1.398 . S
C1477 C1483 1.491 . S
C1478 H1469 0.950 . S
C1478 C1477 1.398 . S
C1478 C1479 1.391 . S
C1479 H1467 0.950 . S
C1479 C1475 1.393 . S
C1479 C1478 1.391 . S
C1480 H1470 0.950 . S
C1480 C1481 1.386 . S
C1480 C1482 1.391 . S
C1481 C1480 1.386 . S
C1481 C1485 1.393 . S
C1482 H1471 0.950 . S
C1482 C1480 1.391 . S
C1482 C1483 1.400 . S
C1483 C1477 1.491 . S
C1483 C1482 1.400 . S
C1483 C1484 1.398 . S
C1484 H1472 0.950 . S
C1484 C1483 1.398 . S
C1484 C1485 1.391 . S
C1485 H1473 0.950 . S
C1485 C1481 1.393 . S
C1485 C1484 1.391 . S
H1486 C1494 0.950 . S
H1487 C1499 0.950 . S
H1488 C1496 0.950 . S
H1489 C1498 0.950 . S
H1490 C1500 0.950 . S
H1491 C1502 0.950 . S
H1492 C1504 0.950 . S
H1493 C1505 0.950 . S
C1494 H1486 0.950 . S
C1494 C1495 1.386 1_565 S
C1494 C1496 1.391 . S
C1495 C1494 1.386 1_545 S
C1495 C1499 1.393 . S
C1496 H1488 0.950 . S
C1496 C1494 1.391 . S
C1496 C1497 1.400 1_565 S
C1497 C1496 1.400 1_545 S
C1497 C1498 1.398 . S
C1497 C1503 1.491 . S
C1498 H1489 0.950 . S
C1498 C1497 1.398 . S
C1498 C1499 1.391 . S
C1499 H1487 0.950 . S
C1499 C1495 1.393 . S
C1499 C1498 1.391 . S
C1500 H1490 0.950 . S
C1500 C1501 1.386 1_545 S
C1500 C1502 1.391 . S
C1501 C1500 1.386 1_565 S
C1501 C1505 1.393 . S
C1502 H1491 0.950 . S
C1502 C1500 1.391 . S
C1502 C1503 1.400 . S
C1503 C1497 1.491 . S
C1503 C1502 1.400 . S
C1503 C1504 1.398 1_545 S
C1504 H1492 0.950 . S
C1504 C1503 1.398 1_565 S
C1504 C1505 1.391 . S
C1505 H1493 0.950 . S
C1505 C1501 1.393 . S
C1505 C1504 1.391 . S
H1506 C1514 0.950 . S
H1507 C1519 0.950 . S
H1508 C1516 0.950 . S
H1509 C1518 0.950 . S
H1510 C1520 0.950 . S
H1511 C1522 0.950 . S
H1512 C1524 0.950 . S
H1513 C1525 0.950 . S
C1514 H1506 0.950 . S
C1514 C1515 1.386 . S
C1514 C1516 1.391 . S
C1515 C1514 1.386 . S
C1515 C1519 1.393 . S
C1516 H1508 0.950 . S
C1516 C1514 1.391 . S
C1516 C1517 1.400 . S
C1517 C1516 1.400 . S
C1517 C1518 1.398 . S
C1517 C1523 1.491 . S
C1518 H1509 0.950 . S
C1518 C1517 1.398 . S
C1518 C1519 1.391 . S
C1519 H1507 0.950 . S
C1519 C1515 1.393 . S
C1519 C1518 1.391 . S
C1520 H1510 0.950 . S
C1520 C1521 1.394 . S
C1520 C1522 1.391 . S
C1521 C1520 1.394 . S
C1521 C1525 1.393 1_545 S
C1522 H1511 0.950 . S
C1522 C1520 1.391 . S
C1522 C1523 1.400 . S
C1523 C1517 1.491 . S
C1523 C1522 1.400 . S
C1523 C1524 1.398 . S
C1524 H1512 0.950 . S
C1524 C1523 1.398 . S
C1524 C1525 1.391 1_545 S
C1525 H1513 0.950 . S
C1525 C1521 1.393 1_565 S
C1525 C1524 1.391 1_565 S
H1526 C1534 0.950 . S
H1527 C1539 0.950 . S
H1528 C1536 0.950 . S
H1529 C1538 0.950 . S
H1530 C1540 0.950 . S
H1531 C1542 0.950 . S
H1532 C1544 0.950 . S
H1533 C1545 0.950 . S
C1534 H1526 0.950 . S
C1534 C1535 1.386 . S
C1534 C1536 1.391 . S
C1535 C1534 1.386 . S
C1535 C1539 1.393 . S
C1536 H1528 0.950 . S
C1536 C1534 1.391 . S
C1536 C1537 1.400 . S
C1537 C1536 1.400 . S
C1537 C1538 1.398 . S
C1537 C1543 1.491 . S
C1538 H1529 0.950 . S
C1538 C1537 1.398 . S
C1538 C1539 1.391 . S
C1539 H1527 0.950 . S
C1539 C1535 1.393 . S
C1539 C1538 1.391 . S
C1540 H1530 0.950 . S
C1540 C1541 1.386 . S
C1540 C1542 1.391 . S
C1541 C1540 1.386 . S
C1541 C1545 1.393 . S
C1542 H1531 0.950 . S
C1542 C1540 1.391 . S
C1542 C1543 1.400 . S
C1543 C1537 1.491 . S
C1543 C1542 1.400 . S
C1543 C1544 1.398 . S
C1544 H1532 0.950 . S
C1544 C1543 1.398 . S
C1544 C1545 1.391 . S
C1545 H1533 0.950 . S
C1545 C1541 1.393 . S
C1545 C1544 1.391 . S
H1546 C1554 0.950 . S
H1547 C1559 0.950 . S
H1548 C1556 0.950 . S
H1549 C1558 0.950 . S
H1550 C1560 0.950 . S
H1551 C1562 0.950 . S
H1552 C1564 0.950 . S
H1553 C1565 0.950 . S
C1554 H1546 0.950 . S
C1554 C1555 1.386 . S
C1554 C1556 1.391 . S
C1555 C1554 1.386 . S
C1555 C1559 1.393 . S
C1556 H1548 0.950 . S
C1556 C1554 1.391 . S
C1556 C1557 1.400 . S
C1557 C1556 1.400 . S
C1557 C1558 1.398 . S
C1557 C1563 1.491 . S
C1558 H1549 0.950 . S
C1558 C1557 1.398 . S
C1558 C1559 1.391 . S
C1559 H1547 0.950 . S
C1559 C1555 1.393 . S
C1559 C1558 1.391 . S
C1560 H1550 0.950 . S
C1560 C1561 1.386 . S
C1560 C1562 1.391 . S
C1561 C1560 1.386 . S
C1561 C1565 1.393 . S
C1562 H1551 0.950 . S
C1562 C1560 1.391 . S
C1562 C1563 1.400 . S
C1563 C1557 1.491 . S
C1563 C1562 1.400 . S
C1563 C1564 1.398 . S
C1564 H1552 0.950 . S
C1564 C1563 1.398 . S
C1564 C1565 1.391 . S
C1565 H1553 0.950 . S
C1565 C1561 1.393 . S
C1565 C1564 1.391 . S
H1566 C1574 0.950 . S
H1567 C1579 0.950 . S
H1568 C1576 0.950 . S
H1569 C1578 0.950 . S
H1570 C1580 0.950 . S
H1571 C1582 0.950 . S
H1572 C1584 0.950 . S
H1573 C1585 0.950 . S
C1574 H1566 0.950 . S
C1574 C1575 1.391 . S
C1574 C1576 1.391 . S
C1575 C1574 1.391 . S
C1575 C1579 1.396 1_655 S
C1576 H1568 0.950 . S
C1576 C1574 1.391 . S
C1576 C1577 1.393 . S
C1577 C1576 1.393 . S
C1577 C1578 1.389 1_655 S
C1577 C1583 1.507 . S
C1578 H1569 0.950 . S
C1578 C1577 1.389 1_455 S
C1578 C1579 1.391 . S
C1579 H1567 0.950 . S
C1579 C1575 1.396 1_455 S
C1579 C1578 1.391 . S
C1580 H1570 0.950 . S
C1580 C1581 1.386 1_455 S
C1580 C1582 1.391 . S
C1581 C1580 1.386 1_655 S
C1581 C1585 1.393 . S
C1582 H1571 0.950 . S
C1582 C1580 1.391 . S
C1582 C1583 1.400 1_455 S
C1583 C1577 1.507 . S
C1583 C1582 1.400 1_655 S
C1583 C1584 1.398 . S
C1584 H1572 0.950 . S
C1584 C1583 1.398 . S
C1584 C1585 1.391 . S
C1585 H1573 0.950 . S
C1585 C1581 1.393 . S
C1585 C1584 1.391 . S
H1586 C1594 0.950 . S
H1587 C1599 0.950 . S
H1588 C1596 0.950 . S
H1589 C1598 0.950 . S
H1590 C1600 0.950 . S
H1591 C1602 0.950 . S
H1592 C1604 0.950 . S
H1593 C1605 0.950 . S
C1594 H1586 0.950 . S
C1594 C1595 1.386 . S
C1594 C1596 1.391 . S
C1595 C1594 1.386 . S
C1595 C1599 1.393 . S
C1596 H1588 0.950 . S
C1596 C1594 1.391 . S
C1596 C1597 1.400 . S
C1597 C1596 1.400 . S
C1597 C1598 1.398 . S
C1597 C1603 1.491 . S
C1598 H1589 0.950 . S
C1598 C1597 1.398 . S
C1598 C1599 1.391 . S
C1599 H1587 0.950 . S
C1599 C1595 1.393 . S
C1599 C1598 1.391 . S
C1600 H1590 0.950 . S
C1600 C1601 1.386 . S
C1600 C1602 1.391 . S
C1601 C1600 1.386 . S
C1601 C1605 1.393 . S
C1602 H1591 0.950 . S
C1602 C1600 1.391 . S
C1602 C1603 1.400 . S
C1603 C1597 1.491 . S
C1603 C1602 1.400 . S
C1603 C1604 1.398 . S
C1604 H1592 0.950 . S
C1604 C1603 1.398 . S
C1604 C1605 1.391 . S
C1605 H1593 0.950 . S
C1605 C1601 1.393 . S
C1605 C1604 1.391 . S
H1606 C1614 0.950 1_565 S
H1607 C1619 0.950 . S
H1608 C1616 0.950 1_565 S
H1609 C1618 0.950 . S
H1610 C1620 0.950 . S
H1611 C1622 0.950 . S
H1612 C1624 0.950 1_565 S
H1613 C1625 0.950 1_565 S
C1614 H1606 0.950 1_545 S
C1614 C1615 1.386 . S
C1614 C1616 1.391 . S
C1615 C1614 1.386 . S
C1615 C1619 1.393 . S
C1616 H1608 0.950 1_545 S
C1616 C1614 1.391 . S
C1616 C1617 1.400 . S
C1617 C1616 1.400 . S
C1617 C1618 1.398 . S
C1617 C1623 1.491 . S
C1618 H1609 0.950 . S
C1618 C1617 1.398 . S
C1618 C1619 1.391 . S
C1619 H1607 0.950 . S
C1619 C1615 1.393 . S
C1619 C1618 1.391 . S
C1620 H1610 0.950 . S
C1620 C1621 1.386 . S
C1620 C1622 1.391 . S
C1621 C1620 1.386 . S
C1621 C1625 1.393 . S
C1622 H1611 0.950 . S
C1622 C1620 1.391 . S
C1622 C1623 1.400 . S
C1623 C1617 1.491 . S
C1623 C1622 1.400 . S
C1623 C1624 1.398 . S
C1624 H1612 0.950 1_545 S
C1624 C1623 1.398 . S
C1624 C1625 1.391 . S
C1625 H1613 0.950 1_545 S
C1625 C1621 1.393 . S
C1625 C1624 1.391 . S
H1626 C1634 0.950 . S
H1627 C1639 0.950 . S
H1628 C1636 0.950 . S
H1629 C1638 0.950 . S
H1630 C1640 0.950 . S
H1631 C1642 0.950 . S
H1632 C1644 0.950 . S
H1633 C1645 0.950 . S
C1634 H1626 0.950 . S
C1634 C1635 1.386 . S
C1634 C1636 1.391 . S
C1635 C1634 1.386 . S
C1635 C1639 1.393 . S
C1636 H1628 0.950 . S
C1636 C1634 1.391 . S
C1636 C1637 1.400 . S
C1637 C1636 1.400 . S
C1637 C1638 1.398 . S
C1637 C1643 1.491 . S
C1638 H1629 0.950 . S
C1638 C1637 1.398 . S
C1638 C1639 1.391 . S
C1639 H1627 0.950 . S
C1639 C1635 1.393 . S
C1639 C1638 1.391 . S
C1640 H1630 0.950 . S
C1640 C1641 1.386 . S
C1640 C1642 1.391 . S
C1641 C1640 1.386 . S
C1641 C1645 1.393 . S
C1642 H1631 0.950 . S
C1642 C1640 1.391 . S
C1642 C1643 1.400 . S
C1643 C1637 1.491 . S
C1643 C1642 1.400 . S
C1643 C1644 1.398 . S
C1644 H1632 0.950 . S
C1644 C1643 1.398 . S
C1644 C1645 1.391 . S
C1645 H1633 0.950 . S
C1645 C1641 1.393 . S
C1645 C1644 1.391 . S
H1646 C1654 0.950 . S
H1647 C1659 0.950 . S
H1648 C1656 0.950 . S
H1649 C1658 0.950 . S
H1650 C1660 0.950 . S
H1651 C1662 0.950 . S
H1652 C1664 0.950 . S
H1653 C1665 0.950 . S
C1654 H1646 0.950 . S
C1654 C1655 1.386 . S
C1654 C1656 1.391 . S
C1655 C1654 1.386 . S
C1655 C1659 1.393 . S
C1656 H1648 0.950 . S
C1656 C1654 1.391 . S
C1656 C1657 1.400 . S
C1657 C1656 1.400 . S
C1657 C1658 1.398 . S
C1657 C1663 1.491 . S
C1658 H1649 0.950 . S
C1658 C1657 1.398 . S
C1658 C1659 1.391 . S
C1659 H1647 0.950 . S
C1659 C1655 1.393 . S
C1659 C1658 1.391 . S
C1660 H1650 0.950 . S
C1660 C1661 1.386 . S
C1660 C1662 1.391 . S
C1661 C1660 1.386 . S
C1661 C1665 1.393 . S
C1662 H1651 0.950 . S
C1662 C1660 1.391 . S
C1662 C1663 1.400 . S
C1663 C1657 1.491 . S
C1663 C1662 1.400 . S
C1663 C1664 1.398 . S
C1664 H1652 0.950 . S
C1664 C1663 1.398 . S
C1664 C1665 1.391 . S
C1665 H1653 0.950 . S
C1665 C1661 1.393 . S
C1665 C1664 1.391 . S
H1666 C1674 0.950 . S
H1667 C1679 0.950 . S
H1668 C1676 0.950 . S
H1669 C1678 0.950 . S
H1670 C1680 0.950 . S
H1671 C1682 0.950 . S
H1672 C1684 0.950 . S
H1673 C1685 0.950 . S
C1674 H1666 0.950 . S
C1674 C1675 1.386 . S
C1674 C1676 1.391 . S
C1675 C1674 1.386 . S
C1675 C1679 1.393 . S
C1676 H1668 0.950 . S
C1676 C1674 1.391 . S
C1676 C1677 1.400 . S
C1677 C1676 1.400 . S
C1677 C1678 1.398 . S
C1677 C1683 1.491 . S
C1678 H1669 0.950 . S
C1678 C1677 1.398 . S
C1678 C1679 1.391 . S
C1679 H1667 0.950 . S
C1679 C1675 1.393 . S
C1679 C1678 1.391 . S
C1680 H1670 0.950 . S
C1680 C1681 1.386 . S
C1680 C1682 1.391 . S
C1681 C1680 1.386 . S
C1681 C1685 1.393 . S
C1682 H1671 0.950 . S
C1682 C1680 1.391 . S
C1682 C1683 1.400 . S
C1683 C1677 1.491 . S
C1683 C1682 1.400 . S
C1683 C1684 1.398 . S
C1684 H1672 0.950 . S
C1684 C1683 1.398 . S
C1684 C1685 1.391 . S
C1685 H1673 0.950 . S
C1685 C1681 1.393 . S
C1685 C1684 1.391 . S
H1686 C1694 0.950 . S
H1687 C1699 0.950 . S
H1688 C1696 0.950 . S
H1689 C1698 0.950 . S
H1690 C1700 0.950 . S
H1691 C1702 0.950 . S
H1692 C1704 0.950 . S
H1693 C1705 0.950 . S
C1694 H1686 0.950 . S
C1694 C1695 1.386 . S
C1694 C1696 1.391 . S
C1695 C1694 1.386 . S
C1695 C1699 1.393 . S
C1696 H1688 0.950 . S
C1696 C1694 1.391 . S
C1696 C1697 1.400 . S
C1697 C1696 1.400 . S
C1697 C1698 1.398 . S
C1697 C1703 1.491 . S
C1698 H1689 0.950 . S
C1698 C1697 1.398 . S
C1698 C1699 1.391 . S
C1699 H1687 0.950 . S
C1699 C1695 1.393 . S
C1699 C1698 1.391 . S
C1700 H1690 0.950 . S
C1700 C1701 1.386 . S
C1700 C1702 1.391 . S
C1701 C1700 1.386 . S
C1701 C1705 1.393 . S
C1702 H1691 0.950 . S
C1702 C1700 1.391 . S
C1702 C1703 1.400 . S
C1703 C1697 1.491 . S
C1703 C1702 1.400 . S
C1703 C1704 1.398 . S
C1704 H1692 0.950 . S
C1704 C1703 1.398 . S
C1704 C1705 1.391 . S
C1705 H1693 0.950 . S
C1705 C1701 1.393 . S
C1705 C1704 1.391 . S
H1706 C1714 0.950 . S
H1707 C1719 0.950 . S
H1708 C1716 0.950 . S
H1709 C1718 0.950 . S
H1710 C1720 0.950 . S
H1711 C1722 0.950 . S
H1712 C1724 0.950 . S
H1713 C1725 0.950 . S
C1714 H1706 0.950 . S
C1714 C1715 1.386 . S
C1714 C1716 1.391 . S
C1715 C1714 1.386 . S
C1715 C1719 1.393 . S
C1716 H1708 0.950 . S
C1716 C1714 1.391 . S
C1716 C1717 1.400 . S
C1717 C1716 1.400 . S
C1717 C1718 1.398 . S
C1717 C1723 1.491 . S
C1718 H1709 0.950 . S
C1718 C1717 1.398 . S
C1718 C1719 1.391 . S
C1719 H1707 0.950 . S
C1719 C1715 1.393 . S
C1719 C1718 1.391 . S
C1720 H1710 0.950 . S
C1720 C1721 1.386 . S
C1720 C1722 1.391 . S
C1721 C1720 1.386 . S
C1721 C1725 1.393 . S
C1722 H1711 0.950 . S
C1722 C1720 1.391 . S
C1722 C1723 1.400 . S
C1723 C1717 1.491 . S
C1723 C1722 1.400 . S
C1723 C1724 1.398 . S
C1724 H1712 0.950 . S
C1724 C1723 1.398 . S
C1724 C1725 1.391 . S
C1725 H1713 0.950 . S
C1725 C1721 1.393 . S
C1725 C1724 1.391 . S
H1726 C1734 0.950 . S
H1727 C1739 0.950 . S
H1728 C1736 0.950 . S
H1729 C1738 0.950 . S
H1730 C1740 0.950 . S
H1731 C1742 0.950 . S
H1732 C1744 0.950 . S
H1733 C1745 0.950 . S
C1734 H1726 0.950 . S
C1734 C1735 1.386 . S
C1734 C1736 1.391 . S
C1735 C1734 1.386 . S
C1735 C1739 1.393 . S
C1736 H1728 0.950 . S
C1736 C1734 1.391 . S
C1736 C1737 1.400 . S
C1737 C1736 1.400 . S
C1737 C1738 1.398 . S
C1737 C1743 1.491 . S
C1738 H1729 0.950 . S
C1738 C1737 1.398 . S
C1738 C1739 1.391 . S
C1739 H1727 0.950 . S
C1739 C1735 1.393 . S
C1739 C1738 1.391 . S
C1740 H1730 0.950 . S
C1740 C1741 1.386 . S
C1740 C1742 1.391 . S
C1741 C1740 1.386 . S
C1741 C1745 1.393 . S
C1742 H1731 0.950 . S
C1742 C1740 1.391 . S
C1742 C1743 1.400 . S
C1743 C1737 1.491 . S
C1743 C1742 1.400 . S
C1743 C1744 1.398 . S
C1744 H1732 0.950 . S
C1744 C1743 1.398 . S
C1744 C1745 1.391 . S
C1745 H1733 0.950 . S
C1745 C1741 1.393 . S
C1745 C1744 1.391 . S
H1746 C1754 0.950 . S
H1747 C1759 0.950 . S
H1748 C1756 0.950 . S
H1749 C1758 0.950 . S
H1750 C1760 0.950 . S
H1751 C1762 0.950 . S
H1752 C1764 0.950 . S
H1753 C1765 0.950 . S
C1754 H1746 0.950 . S
C1754 C1755 1.386 . S
C1754 C1756 1.391 . S
C1755 C1754 1.386 . S
C1755 C1759 1.393 . S
C1756 H1748 0.950 . S
C1756 C1754 1.391 . S
C1756 C1757 1.400 . S
C1757 C1756 1.400 . S
C1757 C1758 1.398 . S
C1757 C1763 1.491 . S
C1758 H1749 0.950 . S
C1758 C1757 1.398 . S
C1758 C1759 1.391 . S
C1759 H1747 0.950 . S
C1759 C1755 1.393 . S
C1759 C1758 1.391 . S
C1760 H1750 0.950 . S
C1760 C1761 1.386 . S
C1760 C1762 1.391 . S
C1761 C1760 1.386 . S
C1761 C1765 1.393 . S
C1762 H1751 0.950 . S
C1762 C1760 1.391 . S
C1762 C1763 1.400 . S
C1763 C1757 1.491 . S
C1763 C1762 1.400 . S
C1763 C1764 1.398 . S
C1764 H1752 0.950 . S
C1764 C1763 1.398 . S
C1764 C1765 1.391 . S
C1765 H1753 0.950 . S
C1765 C1761 1.393 . S
C1765 C1764 1.391 . S
H1766 C1774 0.950 . S
H1767 C1779 0.950 . S
H1768 C1776 0.950 . S
H1769 C1778 0.950 . S
H1770 C1780 0.950 . S
H1771 C1782 0.950 . S
H1772 C1784 0.950 . S
H1773 C1785 0.950 . S
C1774 H1766 0.950 . S
C1774 C1775 1.386 . S
C1774 C1776 1.391 . S
C1775 C1774 1.386 . S
C1775 C1779 1.393 . S
C1776 H1768 0.950 . S
C1776 C1774 1.391 . S
C1776 C1777 1.400 . S
C1777 C1776 1.400 . S
C1777 C1778 1.398 . S
C1777 C1783 1.491 . S
C1778 H1769 0.950 . S
C1778 C1777 1.398 . S
C1778 C1779 1.391 . S
C1779 H1767 0.950 . S
C1779 C1775 1.393 . S
C1779 C1778 1.391 . S
C1780 H1770 0.950 . S
C1780 C1781 1.386 . S
C1780 C1782 1.391 . S
C1781 C1780 1.386 . S
C1781 C1785 1.393 . S
C1782 H1771 0.950 . S
C1782 C1780 1.391 . S
C1782 C1783 1.400 . S
C1783 C1777 1.491 . S
C1783 C1782 1.400 . S
C1783 C1784 1.398 . S
C1784 H1772 0.950 . S
C1784 C1783 1.398 . S
C1784 C1785 1.391 . S
C1785 H1773 0.950 . S
C1785 C1781 1.393 . S
C1785 C1784 1.391 . S
H1786 C1794 0.950 . S
H1787 C1799 0.950 . S
H1788 C1796 0.950 . S
H1789 C1798 0.950 . S
H1790 C1800 0.950 . S
H1791 C1802 0.950 . S
H1792 C1804 0.950 . S
H1793 C1805 0.950 . S
C1794 H1786 0.950 . S
C1794 C1795 1.386 . S
C1794 C1796 1.391 . S
C1795 C1794 1.386 . S
C1795 C1799 1.393 . S
C1796 H1788 0.950 . S
C1796 C1794 1.391 . S
C1796 C1797 1.400 . S
C1797 C1796 1.400 . S
C1797 C1798 1.398 . S
C1797 C1803 1.491 . S
C1798 H1789 0.950 . S
C1798 C1797 1.398 . S
C1798 C1799 1.391 . S
C1799 H1787 0.950 . S
C1799 C1795 1.393 . S
C1799 C1798 1.391 . S
C1800 H1790 0.950 . S
C1800 C1801 1.386 . S
C1800 C1802 1.391 . S
C1801 C1800 1.386 . S
C1801 C1805 1.393 . S
C1802 H1791 0.950 . S
C1802 C1800 1.391 . S
C1802 C1803 1.400 . S
C1803 C1797 1.491 . S
C1803 C1802 1.400 . S
C1803 C1804 1.398 . S
C1804 H1792 0.950 . S
C1804 C1803 1.398 . S
C1804 C1805 1.391 . S
C1805 H1793 0.950 . S
C1805 C1801 1.393 . S
C1805 C1804 1.391 . S
H1806 C1814 0.950 . S
H1807 C1819 0.950 . S
H1808 C1816 0.950 . S
H1809 C1818 0.950 . S
H1810 C1820 0.950 . S
H1811 C1822 0.950 . S
H1812 C1824 0.950 . S
H1813 C1825 0.950 . S
C1814 H1806 0.950 . S
C1814 C1815 1.386 . S
C1814 C1816 1.391 . S
C1815 C1814 1.386 . S
C1815 C1819 1.393 . S
C1816 H1808 0.950 . S
C1816 C1814 1.391 . S
C1816 C1817 1.400 . S
C1817 C1816 1.400 . S
C1817 C1818 1.398 . S
C1817 C1823 1.491 . S
C1818 H1809 0.950 . S
C1818 C1817 1.398 . S
C1818 C1819 1.391 . S
C1819 H1807 0.950 . S
C1819 C1815 1.393 . S
C1819 C1818 1.391 . S
C1820 H1810 0.950 . S
C1820 C1821 1.386 . S
C1820 C1822 1.391 . S
C1821 C1820 1.386 . S
C1821 C1825 1.393 . S
C1822 H1811 0.950 . S
C1822 C1820 1.391 . S
C1822 C1823 1.400 . S
C1823 C1817 1.491 . S
C1823 C1822 1.400 . S
C1823 C1824 1.398 . S
C1824 H1812 0.950 . S
C1824 C1823 1.398 . S
C1824 C1825 1.391 . S
C1825 H1813 0.950 . S
C1825 C1821 1.393 . S
C1825 C1824 1.391 . S
H1826 C1834 0.950 . S
H1827 C1839 0.950 . S
H1828 C1836 0.950 . S
H1829 C1838 0.950 . S
H1830 C1840 0.950 . S
H1831 C1842 0.950 . S
H1832 C1844 0.950 . S
H1833 C1845 0.950 . S
C1834 H1826 0.950 . S
C1834 C1835 1.386 . S
C1834 C1836 1.391 . S
C1835 C1834 1.386 . S
C1835 C1839 1.393 . S
C1836 H1828 0.950 . S
C1836 C1834 1.391 . S
C1836 C1837 1.400 . S
C1837 C1836 1.400 . S
C1837 C1838 1.398 . S
C1837 C1843 1.491 . S
C1838 H1829 0.950 . S
C1838 C1837 1.398 . S
C1838 C1839 1.391 . S
C1839 H1827 0.950 . S
C1839 C1835 1.393 . S
C1839 C1838 1.391 . S
C1840 H1830 0.950 . S
C1840 C1841 1.386 . S
C1840 C1842 1.391 . S
C1841 C1840 1.386 . S
C1841 C1845 1.393 . S
C1842 H1831 0.950 . S
C1842 C1840 1.391 . S
C1842 C1843 1.400 . S
C1843 C1837 1.491 . S
C1843 C1842 1.400 . S
C1843 C1844 1.398 . S
C1844 H1832 0.950 . S
C1844 C1843 1.398 . S
C1844 C1845 1.391 . S
C1845 H1833 0.950 . S
C1845 C1841 1.393 . S
C1845 C1844 1.391 . S
H1846 C1854 0.950 . S
H1847 C1859 0.950 . S
H1848 C1856 0.950 . S
H1849 C1858 0.950 . S
H1850 C1860 0.950 . S
H1851 C1862 0.950 . S
H1852 C1864 0.950 . S
H1853 C1865 0.950 . S
C1854 H1846 0.950 . S
C1854 C1855 1.386 . S
C1854 C1856 1.391 . S
C1855 C1854 1.386 . S
C1855 C1859 1.393 . S
C1856 H1848 0.950 . S
C1856 C1854 1.391 . S
C1856 C1857 1.400 . S
C1857 C1856 1.400 . S
C1857 C1858 1.398 . S
C1857 C1863 1.491 . S
C1858 H1849 0.950 . S
C1858 C1857 1.398 . S
C1858 C1859 1.391 . S
C1859 H1847 0.950 . S
C1859 C1855 1.393 . S
C1859 C1858 1.391 . S
C1860 H1850 0.950 . S
C1860 C1861 1.386 . S
C1860 C1862 1.391 . S
C1861 C1860 1.386 . S
C1861 C1865 1.393 . S
C1862 H1851 0.950 . S
C1862 C1860 1.391 . S
C1862 C1863 1.400 . S
C1863 C1857 1.491 . S
C1863 C1862 1.400 . S
C1863 C1864 1.398 . S
C1864 H1852 0.950 . S
C1864 C1863 1.398 . S
C1864 C1865 1.391 . S
C1865 H1853 0.950 . S
C1865 C1861 1.393 . S
C1865 C1864 1.391 . S
H1866 C1874 0.950 . S
H1867 C1879 0.950 . S
H1868 C1876 0.950 . S
H1869 C1878 0.950 . S
H1870 C1880 0.950 . S
H1871 C1882 0.950 . S
H1872 C1884 0.950 . S
H1873 C1885 0.950 . S
C1874 H1866 0.950 . S
C1874 C1875 1.386 . S
C1874 C1876 1.391 . S
C1875 C1874 1.386 . S
C1875 C1879 1.393 . S
C1876 H1868 0.950 . S
C1876 C1874 1.391 . S
C1876 C1877 1.400 . S
C1877 C1876 1.400 . S
C1877 C1878 1.398 . S
C1877 C1883 1.491 . S
C1878 H1869 0.950 . S
C1878 C1877 1.398 . S
C1878 C1879 1.391 . S
C1879 H1867 0.950 . S
C1879 C1875 1.393 . S
C1879 C1878 1.391 . S
C1880 H1870 0.950 . S
C1880 C1881 1.386 . S
C1880 C1882 1.391 . S
C1881 C1880 1.386 . S
C1881 C1885 1.393 . S
C1882 H1871 0.950 . S
C1882 C1880 1.391 . S
C1882 C1883 1.400 . S
C1883 C1877 1.491 . S
C1883 C1882 1.400 . S
C1883 C1884 1.398 . S
C1884 H1872 0.950 . S
C1884 C1883 1.398 . S
C1884 C1885 1.391 . S
C1885 H1873 0.950 . S
C1885 C1881 1.393 . S
C1885 C1884 1.391 . S
H1886 C1894 0.950 . S
H1887 C1899 0.950 . S
H1888 C1896 0.950 . S
H1889 C1898 0.950 . S
H1890 C1900 0.950 . S
H1891 C1902 0.950 . S
H1892 C1904 0.950 . S
H1893 C1905 0.950 . S
C1894 H1886 0.950 . S
C1894 C1895 1.386 . S
C1894 C1896 1.391 . S
C1895 C1894 1.386 . S
C1895 C1899 1.393 . S
C1896 H1888 0.950 . S
C1896 C1894 1.391 . S
C1896 C1897 1.400 . S
C1897 C1896 1.400 . S
C1897 C1898 1.398 . S
C1897 C1903 1.491 . S
C1898 H1889 0.950 . S
C1898 C1897 1.398 . S
C1898 C1899 1.391 . S
C1899 H1887 0.950 . S
C1899 C1895 1.393 . S
C1899 C1898 1.391 . S
C1900 H1890 0.950 . S
C1900 C1901 1.386 . S
C1900 C1902 1.391 . S
C1901 C1900 1.386 . S
C1901 C1905 1.393 . S
C1902 H1891 0.950 . S
C1902 C1900 1.391 . S
C1902 C1903 1.400 . S
C1903 C1897 1.491 . S
C1903 C1902 1.400 . S
C1903 C1904 1.398 . S
C1904 H1892 0.950 . S
C1904 C1903 1.398 . S
C1904 C1905 1.391 . S
C1905 H1893 0.950 . S
C1905 C1901 1.393 . S
C1905 C1904 1.391 . S
H1906 C1914 0.950 . S
H1907 C1919 0.950 . S
H1908 C1916 0.950 . S
H1909 C1918 0.950 . S
H1910 C1920 0.950 . S
H1911 C1922 0.950 . S
H1912 C1924 0.950 . S
H1913 C1925 0.950 . S
C1914 H1906 0.950 . S
C1914 C1915 1.386 . S
C1914 C1916 1.391 . S
C1915 C1914 1.386 . S
C1915 C1919 1.393 . S
C1916 H1908 0.950 . S
C1916 C1914 1.391 . S
C1916 C1917 1.400 . S
C1917 C1916 1.400 . S
C1917 C1918 1.398 . S
C1917 C1923 1.491 . S
C1918 H1909 0.950 . S
C1918 C1917 1.398 . S
C1918 C1919 1.391 . S
C1919 H1907 0.950 . S
C1919 C1915 1.393 . S
C1919 C1918 1.391 . S
C1920 H1910 0.950 . S
C1920 C1921 1.386 . S
C1920 C1922 1.391 . S
C1921 C1920 1.386 . S
C1921 C1925 1.393 . S
C1922 H1911 0.950 . S
C1922 C1920 1.391 . S
C1922 C1923 1.400 . S
C1923 C1917 1.491 . S
C1923 C1922 1.400 . S
C1923 C1924 1.398 . S
C1924 H1912 0.950 . S
C1924 C1923 1.398 . S
C1924 C1925 1.391 . S
C1925 H1913 0.950 . S
C1925 C1921 1.393 . S
C1925 C1924 1.391 . S
H1926 C1934 0.950 . S
H1927 C1939 0.950 . S
H1928 C1936 0.950 . S
H1929 C1938 0.950 . S
H1930 C1940 0.950 . S
H1931 C1942 0.950 . S
H1932 C1944 0.950 . S
H1933 C1945 0.950 . S
C1934 H1926 0.950 . S
C1934 C1935 1.386 . S
C1934 C1936 1.391 . S
C1935 C1934 1.386 . S
C1935 C1939 1.393 . S
C1936 H1928 0.950 . S
C1936 C1934 1.391 . S
C1936 C1937 1.400 . S
C1937 C1936 1.400 . S
C1937 C1938 1.398 . S
C1937 C1943 1.491 . S
C1938 H1929 0.950 . S
C1938 C1937 1.398 . S
C1938 C1939 1.391 . S
C1939 H1927 0.950 . S
C1939 C1935 1.393 . S
C1939 C1938 1.391 . S
C1940 H1930 0.950 . S
C1940 C1941 1.386 . S
C1940 C1942 1.391 . S
C1941 C1940 1.386 . S
C1941 C1945 1.393 . S
C1942 H1931 0.950 . S
C1942 C1940 1.391 . S
C1942 C1943 1.400 . S
C1943 C1937 1.491 . S
C1943 C1942 1.400 . S
C1943 C1944 1.398 . S
C1944 H1932 0.950 . S
C1944 C1943 1.398 . S
C1944 C1945 1.391 . S
C1945 H1933 0.950 . S
C1945 C1941 1.393 . S
C1945 C1944 1.391 . S
H1946 C1954 0.950 . S
H1947 C1959 0.950 . S
H1948 C1956 0.950 . S
H1949 C1958 0.950 . S
H1950 C1960 0.950 . S
H1951 C1962 0.950 . S
H1952 C1964 0.950 . S
H1953 C1965 0.950 . S
C1954 H1946 0.950 . S
C1954 C1955 1.386 . S
C1954 C1956 1.391 . S
C1955 C1954 1.386 . S
C1955 C1959 1.393 . S
C1956 H1948 0.950 . S
C1956 C1954 1.391 . S
C1956 C1957 1.400 . S
C1957 C1956 1.400 . S
C1957 C1958 1.398 . S
C1957 C1963 1.491 . S
C1958 H1949 0.950 . S
C1958 C1957 1.398 . S
C1958 C1959 1.391 . S
C1959 H1947 0.950 . S
C1959 C1955 1.393 . S
C1959 C1958 1.391 . S
C1960 H1950 0.950 . S
C1960 C1961 1.386 . S
C1960 C1962 1.391 . S
C1961 C1960 1.386 . S
C1961 C1965 1.393 . S
C1962 H1951 0.950 . S
C1962 C1960 1.391 . S
C1962 C1963 1.400 . S
C1963 C1957 1.491 . S
C1963 C1962 1.400 . S
C1963 C1964 1.398 . S
C1964 H1952 0.950 . S
C1964 C1963 1.398 . S
C1964 C1965 1.391 . S
C1965 H1953 0.950 . S
C1965 C1961 1.393 . S
C1965 C1964 1.391 . S
H1966 C1974 0.950 . S
H1967 C1979 0.950 . S
H1968 C1976 0.950 . S
H1969 C1978 0.950 . S
H1970 C1980 0.950 . S
H1971 C1982 0.950 . S
H1972 C1984 0.950 . S
H1973 C1985 0.950 . S
C1974 H1966 0.950 . S
C1974 C1975 1.386 . S
C1974 C1976 1.391 . S
C1975 C1974 1.386 . S
C1975 C1979 1.393 . S
C1976 H1968 0.950 . S
C1976 C1974 1.391 . S
C1976 C1977 1.400 . S
C1977 C1976 1.400 . S
C1977 C1978 1.398 . S
C1977 C1983 1.491 . S
C1978 H1969 0.950 . S
C1978 C1977 1.398 . S
C1978 C1979 1.391 . S
C1979 H1967 0.950 . S
C1979 C1975 1.393 . S
C1979 C1978 1.391 . S
C1980 H1970 0.950 . S
C1980 C1981 1.386 . S
C1980 C1982 1.391 . S
C1981 C1980 1.386 . S
C1981 C1985 1.393 . S
C1982 H1971 0.950 . S
C1982 C1980 1.391 . S
C1982 C1983 1.400 . S
C1983 C1977 1.491 . S
C1983 C1982 1.400 . S
C1983 C1984 1.398 . S
C1984 H1972 0.950 . S
C1984 C1983 1.398 . S
C1984 C1985 1.391 . S
C1985 H1973 0.950 . S
C1985 C1981 1.393 . S
C1985 C1984 1.391 . S
H1986 C1994 0.950 . S
H1987 C1999 0.950 . S
H1988 C1996 0.950 . S
H1989 C1998 0.950 . S
H1990 C2000 0.950 . S
H1991 C2002 0.950 . S
H1992 C2004 0.950 . S
H1993 C2005 0.950 . S
C1994 H1986 0.950 . S
C1994 C1995 1.386 . S
C1994 C1996 1.391 . S
C1995 C1994 1.386 . S
C1995 C1999 1.393 . S
C1996 H1988 0.950 . S
C1996 C1994 1.391 . S
C1996 C1997 1.400 . S
C1997 C1996 1.400 . S
C1997 C1998 1.398 . S
C1997 C2003 1.491 . S
C1998 H1989 0.950 . S
C1998 C1997 1.398 . S
C1998 C1999 1.391 . S
C1999 H1987 0.950 . S
C1999 C1995 1.393 . S
C1999 C1998 1.391 . S
C2000 H1990 0.950 . S
C2000 C2001 1.386 . S
C2000 C2002 1.391 . S
C2001 C2000 1.386 . S
C2001 C2005 1.393 . S
C2002 H1991 0.950 . S
C2002 C2000 1.391 . S
C2002 C2003 1.400 . S
C2003 C1997 1.491 . S
C2003 C2002 1.400 . S
C2003 C2004 1.398 . S
C2004 H1992 0.950 . S
C2004 C2003 1.398 . S
C2004 C2005 1.391 . S
C2005 H1993 0.950 . S
C2005 C2001 1.393 . S
C2005 C2004 1.391 . S
H2006 C2014 0.950 . S
H2007 C2019 0.950 . S
H2008 C2016 0.950 . S
H2009 C2018 0.950 . S
H2010 C2020 0.950 . S
H2011 C2022 0.950 . S
H2012 C2024 0.950 . S
H2013 C2025 0.950 . S
C2014 H2006 0.950 . S
C2014 C2015 1.386 . S
C2014 C2016 1.391 . S
C2015 C2014 1.386 . S
C2015 C2019 1.393 . S
C2016 H2008 0.950 . S
C2016 C2014 1.391 . S
C2016 C2017 1.400 . S
C2017 C2016 1.400 . S
C2017 C2018 1.398 . S
C2017 C2023 1.491 . S
C2018 H2009 0.950 . S
C2018 C2017 1.398 . S
C2018 C2019 1.391 . S
C2019 H2007 0.950 . S
C2019 C2015 1.393 . S
C2019 C2018 1.391 . S
C2020 H2010 0.950 . S
C2020 C2021 1.386 . S
C2020 C2022 1.391 . S
C2021 C2020 1.386 . S
C2021 C2025 1.393 . S
C2022 H2011 0.950 . S
C2022 C2020 1.391 . S
C2022 C2023 1.400 . S
C2023 C2017 1.491 . S
C2023 C2022 1.400 . S
C2023 C2024 1.398 . S
C2024 H2012 0.950 . S
C2024 C2023 1.398 . S
C2024 C2025 1.391 . S
C2025 H2013 0.950 . S
C2025 C2021 1.393 . S
C2025 C2024 1.391 . S
H2026 C2034 0.950 . S
H2027 C2039 0.950 . S
H2028 C2036 0.950 . S
H2029 C2038 0.950 . S
H2030 C2040 0.950 . S
H2031 C2042 0.950 . S
H2032 C2044 0.950 . S
H2033 C2045 0.950 . S
C2034 H2026 0.950 . S
C2034 C2035 1.386 . S
C2034 C2036 1.391 . S
C2035 C2034 1.386 . S
C2035 C2039 1.393 . S
C2036 H2028 0.950 . S
C2036 C2034 1.391 . S
C2036 C2037 1.400 . S
C2037 C2036 1.400 . S
C2037 C2038 1.398 . S
C2037 C2043 1.491 . S
C2038 H2029 0.950 . S
C2038 C2037 1.398 . S
C2038 C2039 1.391 . S
C2039 H2027 0.950 . S
C2039 C2035 1.393 . S
C2039 C2038 1.391 . S
C2040 H2030 0.950 . S
C2040 C2041 1.386 . S
C2040 C2042 1.391 . S
C2041 C2040 1.386 . S
C2041 C2045 1.393 . S
C2042 H2031 0.950 . S
C2042 C2040 1.391 . S
C2042 C2043 1.400 . S
C2043 C2037 1.491 . S
C2043 C2042 1.400 . S
C2043 C2044 1.398 . S
C2044 H2032 0.950 . S
C2044 C2043 1.398 . S
C2044 C2045 1.391 . S
C2045 H2033 0.950 . S
C2045 C2041 1.393 . S
C2045 C2044 1.391 . S
H2046 C2054 0.950 . S
H2047 C2059 0.950 . S
H2048 C2056 0.950 . S
H2049 C2058 0.950 . S
H2050 C2060 0.950 . S
H2051 C2062 0.950 . S
H2052 C2064 0.950 . S
H2053 C2065 0.950 . S
C2054 H2046 0.950 . S
C2054 C2055 1.386 . S
C2054 C2056 1.391 . S
C2055 C2054 1.386 . S
C2055 C2059 1.393 . S
C2056 H2048 0.950 . S
C2056 C2054 1.391 . S
C2056 C2057 1.400 . S
C2057 C2056 1.400 . S
C2057 C2058 1.398 . S
C2057 C2063 1.491 . S
C2058 H2049 0.950 . S
C2058 C2057 1.398 . S
C2058 C2059 1.391 . S
C2059 H2047 0.950 . S
C2059 C2055 1.393 . S
C2059 C2058 1.391 . S
C2060 H2050 0.950 . S
C2060 C2061 1.386 . S
C2060 C2062 1.391 . S
C2061 C2060 1.386 . S
C2061 C2065 1.393 . S
C2062 H2051 0.950 . S
C2062 C2060 1.391 . S
C2062 C2063 1.400 . S
C2063 C2057 1.491 . S
C2063 C2062 1.400 . S
C2063 C2064 1.398 . S
C2064 H2052 0.950 . S
C2064 C2063 1.398 . S
C2064 C2065 1.391 . S
C2065 H2053 0.950 . S
C2065 C2061 1.393 . S
C2065 C2064 1.391 . S
H2066 C2074 0.950 . S
H2067 C2079 0.950 . S
H2068 C2076 0.950 . S
H2069 C2078 0.950 . S
H2070 C2080 0.950 . S
H2071 C2082 0.950 . S
H2072 C2084 0.950 . S
H2073 C2085 0.950 . S
C2074 H2066 0.950 . S
C2074 C2075 1.386 . S
C2074 C2076 1.391 . S
C2075 C2074 1.386 . S
C2075 C2079 1.393 . S
C2076 H2068 0.950 . S
C2076 C2074 1.391 . S
C2076 C2077 1.400 . S
C2077 C2076 1.400 . S
C2077 C2078 1.398 . S
C2077 C2083 1.491 . S
C2078 H2069 0.950 . S
C2078 C2077 1.398 . S
C2078 C2079 1.391 . S
C2079 H2067 0.950 . S
C2079 C2075 1.393 . S
C2079 C2078 1.391 . S
C2080 H2070 0.950 . S
C2080 C2081 1.386 . S
C2080 C2082 1.391 . S
C2081 C2080 1.386 . S
C2081 C2085 1.393 . S
C2082 H2071 0.950 . S
C2082 C2080 1.391 . S
C2082 C2083 1.400 . S
C2083 C2077 1.491 . S
C2083 C2082 1.400 . S
C2083 C2084 1.398 . S
C2084 H2072 0.950 . S
C2084 C2083 1.398 . S
C2084 C2085 1.391 . S
C2085 H2073 0.950 . S
C2085 C2081 1.393 . S
C2085 C2084 1.391 . S
H2086 C2094 0.950 . S
H2087 C2099 0.950 . S
H2088 C2096 0.950 . S
H2089 C2098 0.950 . S
H2090 C2100 0.950 . S
H2091 C2102 0.950 . S
H2092 C2104 0.950 . S
H2093 C2105 0.950 . S
C2094 H2086 0.950 . S
C2094 C2095 1.386 . S
C2094 C2096 1.391 . S
C2095 C2094 1.386 . S
C2095 C2099 1.393 . S
C2096 H2088 0.950 . S
C2096 C2094 1.391 . S
C2096 C2097 1.400 . S
C2097 C2096 1.400 . S
C2097 C2098 1.398 . S
C2097 C2103 1.491 . S
C2098 H2089 0.950 . S
C2098 C2097 1.398 . S
C2098 C2099 1.391 . S
C2099 H2087 0.950 . S
C2099 C2095 1.393 . S
C2099 C2098 1.391 . S
C2100 H2090 0.950 . S
C2100 C2101 1.386 . S
C2100 C2102 1.391 . S
C2101 C2100 1.386 . S
C2101 C2105 1.393 . S
C2102 H2091 0.950 . S
C2102 C2100 1.391 . S
C2102 C2103 1.400 . S
C2103 C2097 1.491 . S
C2103 C2102 1.400 . S
C2103 C2104 1.398 . S
C2104 H2092 0.950 . S
C2104 C2103 1.398 . S
C2104 C2105 1.391 . S
C2105 H2093 0.950 . S
C2105 C2101 1.393 . S
C2105 C2104 1.391 . S
C675 C53 1.506 . S
C681 C418 1.284 . S
C695 N2 1.304 . S
C701 C434 1.246 . S
C721 C417 1.272 . S
C715 N25 1.288 . S
C741 C442 1.233 . S
C735 N48 1.315 . S
C755 C7 1.563 . S
C761 C451 1.366 . S
C781 C454 1.297 . S
C775 C30 1.462 . S
C795 C122 1.514 . S
C801 C460 1.313 . S
C821 C476 1.193 1_565 S
C815 N71 1.329 . S
C841 C459 1.273 . S
C835 N94 1.277 . S
C855 N117 1.321 . S
C861 C484 1.217 . S
C881 C493 1.336 . S
C875 C76 1.563 . S
C901 C496 1.302 . S
C895 C99 1.461 . S
C921 C505 1.287 . S
C915 C191 1.504 . S
C941 C517 1.231 . S
C935 N140 1.326 . S
C961 C514 1.222 . S
C955 N163 1.301 . S
C975 N186 1.292 . S
C981 C523 1.251 . S
C1001 C522 1.335 . S
C995 C145 1.561 . S
C1015 C168 1.457 . S
C1021 C539 1.308 . S
C1041 C544 1.330 . S
C1035 C260 1.504 . S
C1061 C560 1.246 . S
C1055 N209 1.300 . S
C1075 N232 1.268 . S
C1081 C543 1.251 . S
C1101 C568 1.225 . S
C1095 N255 1.280 . S
C1121 C577 1.366 . S
C1115 C214 1.548 . S
C1135 C237 1.453 . S
C1141 C580 1.267 . S
C1155 C329 1.499 . S
C1161 C589 1.302 . S
C1181 C601 1.204 . S
C1175 N278 1.335 . S
C1201 C598 1.235 . S
C1195 N301 1.313 . S
C1215 N324 1.312 . S
C1221 C607 1.237 . S
C1241 C606 1.377 . S
C1235 C283 1.559 . S
C1255 C306 1.465 . S
C1261 C623 1.287 . S
C1281 C628 1.299 . S
C1275 C398 1.516 . S
C1301 C644 1.191 . S
C1295 N347 1.324 . S
C1315 N370 1.275 . S
C1321 C627 1.272 . S
C1341 C649 1.246 . S
C1335 N393 1.303 . S
C1361 C648 1.339 . S
C1355 C352 1.565 . S
C1381 C665 1.272 . S
C1375 C375 1.466 . S
C1401 C430 1.843 . S
C1395 N265 1.926 . S
C1415 C223 1.783 . S
C1421 C433 1.716 1_655 S
C1441 C421 1.670 . S
C1435 C246 1.699 . S
C1455 C407 1.713 . S
C1461 C438 1.672 . S
C1475 N357 1.860 . S
C1481 C439 1.751 . S
C1501 C455 1.756 1_565 S
C1495 N380 1.805 . S
C1521 C472 1.834 . S
C1515 N334 1.920 . S
C1541 C475 1.735 . S
C1535 C292 1.775 . S
C1555 C315 1.711 . S
C1561 C463 1.686 . S
C1581 C480 1.678 1_655 S
C1575 C200 1.729 . S
C1595 N150 1.859 . S
C1601 C481 1.753 . S
C1615 N173 1.800 . S
C1621 C497 1.759 . S
C1635 N403 1.913 . S
C1641 C501 1.861 . S
C1655 C361 1.798 . S
C1661 C518 1.722 . S
C1681 C502 1.696 . S
C1675 C384 1.692 . S
C1701 C535 1.678 . S
C1695 C131 1.711 . S
C1721 C526 1.734 . S
C1715 N81 1.861 . S
C1735 N104 1.818 . S
C1741 C538 1.737 . S
C1761 C556 1.847 . S
C1755 N58 1.914 . S
C1781 C559 1.724 . S
C1775 C16 1.799 . S
C1795 C39 1.688 . S
C1801 C547 1.687 . S
C1821 C564 1.675 . S
C1815 C338 1.711 . S
C1841 C565 1.736 . S
C1835 N288 1.860 . S
C1861 C581 1.753 . S
C1855 N311 1.809 . S
C1881 C585 1.841 . S
C1875 N127 1.918 . S
C1901 C602 1.724 . S
C1895 C85 1.782 . S
C1915 C108 1.688 . S
C1921 C586 1.689 . S
C1935 C269 1.723 1_565 S
C1941 C619 1.688 . S
C1955 N219 1.850 . S
C1961 C610 1.758 . S
C1981 C622 1.755 . S
C1975 N242 1.806 . S
C1995 N196 1.927 . S
C2001 C640 1.840 . S
C2015 C154 1.775 . S
C2021 C643 1.735 . S
C2041 C631 1.666 . S
C2035 C177 1.705 1_565 S
C2061 C661 1.669 . S
C2055 C62 1.736 . S
C2081 C652 1.744 . S
C2075 N12 1.864 . S
C2095 N35 1.799 . S
C2101 C664 1.757 . S
