# Generated by pormake.
# Topology zzz, (3,6)-cn, num edge types: 1
# Building blocks:
#     Node 0, Type 0, BuildingBlock: OLANEW_clean_sbu_2, # of connection points: 3
#     Node 1, Type 0, BuildingBlock: OLANEW_clean_sbu_2, # of connection points: 3
#     Node 2, Type 0, BuildingBlock: OLANEW_clean_sbu_2, # of connection points: 3
#     Node 3, Type 0, BuildingBlock: OLANEW_clean_sbu_2, # of connection points: 3
#     Node 4, Type 0, BuildingBlock: OLANEW_clean_sbu_2, # of connection points: 3
#     Node 5, Type 0, BuildingBlock: OLANEW_clean_sbu_2, # of connection points: 3
#     Node 6, Type 0, BuildingBlock: OLANEW_clean_sbu_2, # of connection points: 3
#     Node 7, Type 0, BuildingBlock: OLANEW_clean_sbu_2, # of connection points: 3
#     Node 8, Type 1, BuildingBlock: MIFKUJ_clean_sbu_0, # of connection points: 6
#     Node 9, Type 1, BuildingBlock: MIFKUJ_clean_sbu_0, # of connection points: 6
#     Node 10, Type 1, BuildingBlock: MIFKUJ_clean_sbu_0, # of connection points: 6
#     Node 11, Type 1, BuildingBlock: MIFKUJ_clean_sbu_0, # of connection points: 6
#     Edge 12, Type (0, 1), BuildingBlock: XUDNAN_clean_linker_2, # of connection points: 2
#     Edge 13, Type (0, 1), BuildingBlock: XUDNAN_clean_linker_2, # of connection points: 2
#     Edge 14, Type (0, 1), BuildingBlock: XUDNAN_clean_linker_2, # of connection points: 2
#     Edge 15, Type (0, 1), BuildingBlock: XUDNAN_clean_linker_2, # of connection points: 2
#     Edge 16, Type (0, 1), BuildingBlock: XUDNAN_clean_linker_2, # of connection points: 2
#     Edge 17, Type (0, 1), BuildingBlock: XUDNAN_clean_linker_2, # of connection points: 2
#     Edge 18, Type (0, 1), BuildingBlock: XUDNAN_clean_linker_2, # of connection points: 2
#     Edge 19, Type (0, 1), BuildingBlock: XUDNAN_clean_linker_2, # of connection points: 2
#     Edge 20, Type (0, 1), BuildingBlock: XUDNAN_clean_linker_2, # of connection points: 2
#     Edge 21, Type (0, 1), BuildingBlock: XUDNAN_clean_linker_2, # of connection points: 2
#     Edge 22, Type (0, 1), BuildingBlock: XUDNAN_clean_linker_2, # of connection points: 2
#     Edge 23, Type (0, 1), BuildingBlock: XUDNAN_clean_linker_2, # of connection points: 2
#     Edge 24, Type (0, 1), BuildingBlock: XUDNAN_clean_linker_2, # of connection points: 2
#     Edge 25, Type (0, 1), BuildingBlock: XUDNAN_clean_linker_2, # of connection points: 2
#     Edge 26, Type (0, 1), BuildingBlock: XUDNAN_clean_linker_2, # of connection points: 2
#     Edge 27, Type (0, 1), BuildingBlock: XUDNAN_clean_linker_2, # of connection points: 2
#     Edge 28, Type (0, 1), BuildingBlock: XUDNAN_clean_linker_2, # of connection points: 2
#     Edge 29, Type (0, 1), BuildingBlock: XUDNAN_clean_linker_2, # of connection points: 2
#     Edge 30, Type (0, 1), BuildingBlock: XUDNAN_clean_linker_2, # of connection points: 2
#     Edge 31, Type (0, 1), BuildingBlock: XUDNAN_clean_linker_2, # of connection points: 2
#     Edge 32, Type (0, 1), BuildingBlock: XUDNAN_clean_linker_2, # of connection points: 2
#     Edge 33, Type (0, 1), BuildingBlock: XUDNAN_clean_linker_2, # of connection points: 2
#     Edge 34, Type (0, 1), BuildingBlock: XUDNAN_clean_linker_2, # of connection points: 2
#     Edge 35, Type (0, 1), BuildingBlock: XUDNAN_clean_linker_2, # of connection points: 2
# Relax obj value: 0.119
# Max RMSD: 0.126
# Mean RMSD: 0.092
data_MOF--net-zzz--node1-OLANEW_clean_sbu_2--node2-MIFKUJ_clean_sbu_0--edge1-XUDNAN_clean_linker_2
_symmetry_space_group_name_H-M    P1
_symmetry_Int_Tables_number       1
_symmetry_cell_setting            triclinic
loop_
_symmetry_equiv_pos_as_xyz
'x, y, z'
_cell_length_a     52.970376
_cell_length_b     53.62512
_cell_length_c     17.752235
_cell_angle_alpha  89.866644
_cell_angle_beta   89.980629
_cell_angle_gamma 89.956807
loop_
_atom_site_label
_atom_site_type_symbol
_atom_site_fract_x
_atom_site_fract_y
_atom_site_fract_z
_atom_type_partial_charge
O0 O 0.75583 0.61005 0.99166 0.0
Cd1 Cd 0.71208 0.61815 0.02845 0.0
O2 O 0.76253 0.58519 0.08815 0.0
Cd3 Cd 0.78879 0.56513 0.16117 0.0
O4 O 0.81957 0.55327 0.23431 0.0
C5 C 0.84047 0.56488 0.23128 0.0
O6 O 0.84298 0.58339 0.18323 0.0
C7 C 0.7706 0.5961 0.02927 0.0
C8 C 0.67699 0.59369 0.93794 0.0
O9 O 0.68674 0.61448 0.91729 0.0
O10 O 0.68395 0.58437 0.00117 0.0
O11 O 0.96857 0.78622 0.03478 0.0
Cd12 Cd 0.94875 0.74939 0.09062 0.0
O13 O 0.0071 0.77129 0.04094 0.0
Cd14 Cd 0.99393 0.75164 0.14109 0.0
O15 O 0.98316 0.77786 0.22966 0.0
C16 C 0.99553 0.7981 0.22423 0.0
O17 O 0.01363 0.79959 0.17384 0.0
C18 C 0.99175 0.78765 0.01655 0.0
C19 C 0.96207 0.70744 0.00694 0.0
O20 O 0.94516 0.72264 0.98336 0.0
O21 O 0.97239 0.71167 0.07086 0.0
O22 O 0.74269 0.92304 0.82578 0.0
Cd23 Cd 0.7803 0.89838 0.85396 0.0
O24 O 0.73997 0.93619 0.94265 0.0
Cd25 Cd 0.71853 0.95455 0.03212 0.0
O26 O 0.68897 0.97066 0.10255 0.0
C27 C 0.6661 0.96713 0.08367 0.0
O28 O 0.66124 0.9541 0.02278 0.0
C29 C 0.73149 0.93592 0.87564 0.0
C30 C 0.8246 0.92487 0.82671 0.0
O31 O 0.81404 0.91225 0.77424 0.0
O32 O 0.81416 0.92496 0.89187 0.0
O33 O 0.55432 0.73895 0.93074 0.0
Cd34 Cd 0.5697 0.78047 0.96239 0.0
O35 O 0.53497 0.74143 0.03937 0.0
Cd36 Cd 0.51627 0.7238 0.13469 0.0
O37 O 0.51166 0.6998 0.23242 0.0
C38 C 0.5098 0.6764 0.22306 0.0
O39 O 0.50955 0.66739 0.15435 0.0
C40 C 0.54017 0.72911 0.9803 0.0
C41 C 0.54265 0.81825 0.89144 0.0
O42 O 0.56375 0.81063 0.86454 0.0
O43 O 0.53427 0.80788 0.95153 0.0
O44 O 0.22854 0.49107 0.27534 0.0
Cd45 Cd 0.27017 0.48417 0.22027 0.0
O46 O 0.22266 0.45167 0.30434 0.0
Cd47 Cd 0.24763 0.44108 0.21243 0.0
O48 O 0.22453 0.43912 0.11078 0.0
C49 C 0.2171 0.45959 0.08212 0.0
O50 O 0.22644 0.48056 0.10814 0.0
C51 C 0.21588 0.47435 0.30925 0.0
C52 C 0.30604 0.4882 0.33471 0.0
O53 O 0.29671 0.50758 0.30286 0.0
O54 O 0.29887 0.46673 0.31156 0.0
O55 O 0.91205 0.24726 0.36756 0.0
Cd56 Cd 0.8928 0.28837 0.35349 0.0
O57 O 0.9251 0.24887 0.25017 0.0
Cd58 Cd 0.9464 0.23208 0.1579 0.0
O59 O 0.96562 0.20684 0.08068 0.0
C60 C 0.95275 0.19718 0.02798 0.0
O61 O 0.92883 0.20332 0.02126 0.0
C62 C 0.92319 0.23712 0.31217 0.0
C63 C 0.91057 0.32248 0.45906 0.0
O64 O 0.89167 0.30838 0.47392 0.0
O65 O 0.92113 0.32031 0.39441 0.0
O66 O 0.27175 0.05039 0.19694 0.0
Cd67 Cd 0.24063 0.0465 0.09664 0.0
O68 O 0.25414 0.08431 0.24238 0.0
Cd69 Cd 0.24115 0.0917 0.12846 0.0
O70 O 0.27068 0.08838 0.04365 0.0
C71 C 0.29081 0.10061 0.05599 0.0
O72 O 0.29142 0.1162 0.11296 0.0
C73 C 0.26952 0.06624 0.24977 0.0
C74 C 0.19777 0.0292 0.17056 0.0
O75 O 0.21423 0.01401 0.14426 0.0
O76 O 0.20092 0.05255 0.15831 0.0
O77 O 0.56356 0.26873 0.21949 0.0
Cd78 Cd 0.56781 0.22919 0.15199 0.0
O79 O 0.52205 0.26747 0.22079 0.0
Cd80 Cd 0.52193 0.24518 0.11877 0.0
O81 O 0.52545 0.26666 0.0153 0.0
C82 C 0.5472 0.27522 -0.0001 0.0
O83 O 0.56656 0.26796 0.04071 0.0
C84 C 0.54258 0.27729 0.24289 0.0
C85 C 0.54608 0.19063 0.23562 0.0
O86 O 0.56934 0.1964 0.24498 0.0
O87 O 0.53344 0.20275 0.18617 0.0
Zn88 Zn 0.00597 0.03482 0.54352 0.0
Zn89 Zn 0.02225 0.97868 0.63039 0.0
C90 C 0.99093 0.06837 0.65365 0.0
O91 O 0.97026 0.06469 0.61426 0.0
C92 C 0.00185 0.95475 0.49447 0.0
O93 O 0.01595 0.97064 0.45703 0.0
O94 O 0.99224 0.05856 0.46523 0.0
O95 O 0.0394 0.02227 0.50478 0.0
O96 O 0.05247 0.98931 0.56999 0.0
C97 C 0.00254 0.07997 0.46375 0.0
O98 O 0.02221 0.08424 0.50689 0.0
O99 O 0.01081 0.05645 0.63574 0.0
C100 C 0.01467 0.94521 0.74702 0.0
O101 O 0.99172 0.9527 0.73053 0.0
O102 O 0.03317 0.95529 0.71304 0.0
O103 O 0.00011 0.00516 0.67506 0.0
O104 O 0.97867 0.01009 0.57106 0.0
O105 O 0.00094 0.95604 0.56579 0.0
C106 C 0.05602 0.00584 0.51961 0.0
C107 C 0.97908 0.00516 0.64103 0.0
Zn108 Zn 0.45457 0.02042 0.64007 0.0
Zn109 Zn 0.52596 0.01802 0.62361 0.0
C110 C 0.43093 0.02589 0.77605 0.0
O111 O 0.42328 0.00403 0.75175 0.0
C112 C 0.55686 0.02391 0.49256 0.0
O113 O 0.56904 0.039 0.53801 0.0
O114 O 0.41995 0.02094 0.59312 0.0
O115 O 0.47408 0.04223 0.56893 0.0
O116 O 0.50936 0.05167 0.62848 0.0
C117 C 0.40868 0.04182 0.59911 0.0
O118 O 0.42021 0.06036 0.63292 0.0
O119 O 0.4486 0.03682 0.7405 0.0
C120 C 0.57036 0.99716 0.67642 0.0
O121 O 0.56206 0.9806 0.62797 0.0
O122 O 0.55761 0.01698 0.68641 0.0
O123 O 0.50662 0.98747 0.6541 0.0
O124 O 0.46497 0.98492 0.65705 0.0
O125 O 0.53702 0.01307 0.51606 0.0
C126 C 0.49303 0.05637 0.5781 0.0
C127 C 0.48657 0.97504 0.66507 0.0
Zn128 Zn 0.50577 0.46622 0.63602 0.0
Zn129 Zn 0.49307 0.51837 0.74715 0.0
C130 C 0.53396 0.43105 0.71341 0.0
O131 O 0.55051 0.44106 0.66721 0.0
C132 C 0.49983 0.54072 0.59293 0.0
O133 O 0.48956 0.52086 0.56263 0.0
O134 O 0.51407 0.44768 0.54156 0.0
O135 O 0.46897 0.47623 0.63144 0.0
O136 O 0.45921 0.50438 0.71849 0.0
C137 C 0.50143 0.42802 0.52885 0.0
O138 O 0.48178 0.42303 0.5715 0.0
O139 O 0.51165 0.43984 0.71494 0.0
C140 C 0.50987 0.55607 0.83911 0.0
O141 O 0.52923 0.55049 0.79633 0.0
O142 O 0.49004 0.5428 0.83381 0.0
O143 O 0.52195 0.49478 0.76739 0.0
O144 O 0.53237 0.49263 0.64881 0.0
O145 O 0.50297 0.54179 0.6637 0.0
C146 C 0.45276 0.48946 0.6662 0.0
C147 C 0.53849 0.49743 0.71629 0.0
Zn148 Zn 0.02189 0.504 0.70041 0.0
Zn149 Zn 0.97278 0.51253 0.79509 0.0
C150 C 0.06563 0.50308 0.7928 0.0
O151 O 0.06951 0.52415 0.75668 0.0
C152 C 0.94404 0.51511 0.66209 0.0
O153 O 0.93061 0.49969 0.70344 0.0
O154 O 0.04422 0.50511 0.60955 0.0
O155 O 0.99508 0.47756 0.682 0.0
O156 O 0.97516 0.47541 0.79142 0.0
C157 C 0.05782 0.48625 0.59455 0.0
O158 O 0.05494 0.46579 0.6345 0.0
O159 O 0.04513 0.49134 0.78174 0.0
C160 C 0.93774 0.54711 0.84626 0.0
O161 O 0.9521 0.56006 0.8004 0.0
O162 O 0.94264 0.52408 0.85615 0.0
O163 O 0.00274 0.53077 0.83651 0.0
O164 O 0.01273 0.54 0.72095 0.0
O165 O 0.96455 0.52364 0.68882 0.0
C166 C 0.98108 0.46576 0.72843 0.0
C167 C 0.0098 0.54687 0.78871 0.0
H168 H 0.15706 0.05583 0.22211 0.0
H169 H 0.19164 0.98242 0.22936 0.0
H170 H 0.15935 0.96857 0.32054 0.0
H171 H 0.14139 0.05981 0.41533 0.0
H172 H 0.11152 0.07519 0.40051 0.0
H173 H 0.13669 0.07918 0.33338 0.0
H174 H 0.10751 0.06374 0.22601 0.0
H175 H 0.08215 0.05999 0.29268 0.0
H176 H 0.09188 0.03404 0.23522 0.0
H177 H 0.12506 0.96358 0.41723 0.0
H178 H 0.08845 0.96645 0.50292 0.0
H179 H 0.07547 0.04267 0.42931 0.0
C180 C 0.15767 0.03675 0.24216 0.0
C181 C 0.17688 0.02021 0.21866 0.0
C182 C 0.17703 0.9954 0.24629 0.0
C183 C 0.15885 0.98738 0.29837 0.0
C184 C 0.14051 0.00432 0.32161 0.0
C185 C 0.13954 0.02837 0.29358 0.0
C186 C 0.11783 0.04286 0.32768 0.0
C187 C 0.12745 0.0656 0.37185 0.0
C188 C 0.09871 0.0506 0.26676 0.0
C189 C 0.10693 0.02329 0.3799 0.0
C190 C 0.12038 0.00124 0.37595 0.0
C191 C 0.11425 0.98068 0.4204 0.0
C192 C 0.09353 0.98255 0.46925 0.0
C193 C 0.07908 0.00477 0.47275 0.0
C194 C 0.08606 0.0254 0.42768 0.0
H195 H 0.56785 0.16012 0.34262 0.0
H196 H 0.49658 0.17682 0.23235 0.0
H197 H 0.47549 0.14501 0.31021 0.0
H198 H 0.55787 0.09337 0.35734 0.0
H199 H 0.57273 0.09079 0.4483 0.0
H200 H 0.58251 0.11484 0.38358 0.0
H201 H 0.57348 0.14836 0.48517 0.0
H202 H 0.56356 0.1244 0.55 0.0
H203 H 0.54262 0.1499 0.52784 0.0
H204 H 0.46198 0.11178 0.39844 0.0
H205 H 0.45682 0.07801 0.49127 0.0
H206 H 0.53656 0.08261 0.54663 0.0
C207 C 0.54782 0.15704 0.33478 0.0
C208 C 0.53386 0.17098 0.28137 0.0
C209 C 0.50769 0.16637 0.27277 0.0
C210 C 0.49551 0.14836 0.31681 0.0
C211 C 0.50975 0.13507 0.36912 0.0
C212 C 0.53533 0.13903 0.37824 0.0
C213 C 0.54614 0.12196 0.43843 0.0
C214 C 0.56598 0.10419 0.40489 0.0
C215 C 0.55709 0.13707 0.50426 0.0
C216 C 0.52256 0.10796 0.4619 0.0
C217 C 0.50184 0.11583 0.42092 0.0
C218 C 0.47803 0.10545 0.431 0.0
C219 C 0.47532 0.08627 0.48385 0.0
C220 C 0.49628 0.0777 0.52627 0.0
C221 C 0.52016 0.08891 0.51556 0.0
H222 H 0.34445 0.45629 0.37276 0.0
H223 H 0.30899 0.52609 0.43604 0.0
H224 H 0.33982 0.53105 0.53937 0.0
H225 H 0.36301 0.43547 0.5628 0.0
H226 H 0.39296 0.42342 0.53122 0.0
H227 H 0.36625 0.42363 0.46832 0.0
H228 H 0.39214 0.44872 0.37011 0.0
H229 H 0.41891 0.44839 0.43244 0.0
H230 H 0.40675 0.47765 0.39777 0.0
H231 H 0.37543 0.52943 0.63179 0.0
H232 H 0.41624 0.52421 0.6966 0.0
H233 H 0.43019 0.45667 0.56852 0.0
C234 C 0.34296 0.47237 0.40929 0.0
C235 C 0.32423 0.49069 0.39717 0.0
C236 C 0.32321 0.51184 0.44465 0.0
C237 C 0.3405 0.51471 0.50376 0.0
C238 C 0.35886 0.4964 0.51407 0.0
C239 C 0.36043 0.47579 0.46759 0.0
C240 C 0.38355 0.46024 0.4858 0.0
C241 C 0.37598 0.43414 0.51371 0.0
C242 C 0.40139 0.45868 0.41748 0.0
C243 C 0.39496 0.47558 0.54876 0.0
C244 C 0.38011 0.49604 0.56533 0.0
C245 C 0.38715 0.5134 0.61966 0.0
C246 C 0.41036 0.5102 0.65643 0.0
C247 C 0.42647 0.49002 0.63777 0.0
C248 C 0.41828 0.47222 0.5844 0.0
H249 H 0.94692 0.35812 0.43812 0.0
H250 H 0.89436 0.32914 0.6043 0.0
H251 H 0.90839 0.36127 0.6946 0.0
H252 H 0.99731 0.37426 0.56844 0.0
H253 H 0.00555 0.40228 0.51789 0.0
H254 H 0.99239 0.3761 0.46809 0.0
H255 H 0.95679 0.40444 0.41548 0.0
H256 H 0.96987 0.43066 0.46501 0.0
H257 H 0.9374 0.42194 0.47999 0.0
H258 H 0.92692 0.39786 0.76476 0.0
H259 H 0.94795 0.43635 0.80814 0.0
H260 H 0.98813 0.44108 0.59526 0.0
C261 C 0.93853 0.35833 0.49375 0.0
C262 C 0.9196 0.34107 0.51425 0.0
C263 C 0.90892 0.34217 0.58738 0.0
C264 C 0.9168 0.36031 0.63912 0.0
C265 C 0.93537 0.37718 0.61684 0.0
C266 C 0.94609 0.37634 0.54588 0.0
C267 C 0.96492 0.39722 0.53469 0.0
C268 C 0.99163 0.38684 0.52152 0.0
C269 C 0.95674 0.41459 0.46998 0.0
C270 C 0.96295 0.4101 0.61015 0.0
C271 C 0.94593 0.39822 0.65699 0.0
C272 C 0.94043 0.40722 0.72874 0.0
C273 C 0.95248 0.4291 0.75294 0.0
C274 C 0.96975 0.44173 0.70531 0.0
C275 C 0.97514 0.43184 0.63336 0.0
H276 H 0.84932 0.93145 0.69198 0.0
H277 H 0.85329 0.94989 0.9298 0.0
H278 H 0.89281 0.97304 0.90714 0.0
H279 H 0.91618 0.9227 0.66405 0.0
H280 H 0.91623 0.93633 0.57117 0.0
H281 H 0.8883 0.92103 0.60603 0.0
H282 H 0.86227 0.9612 0.58099 0.0
H283 H 0.89017 0.97661 0.54637 0.0
H284 H 0.87229 0.99024 0.62229 0.0
H285 H 0.93231 0.99309 0.85992 0.0
H286 H 0.96894 0.0098 0.79006 0.0
H287 H 0.93869 0.97975 0.58215 0.0
C288 C 0.85849 0.94036 0.73931 0.0
C289 C 0.84821 0.93885 0.81272 0.0
C290 C 0.86078 0.95081 0.87308 0.0
C291 C 0.88324 0.96399 0.86081 0.0
C292 C 0.89283 0.96513 0.78783 0.0
C293 C 0.88087 0.95371 0.72801 0.0
C294 C 0.89518 0.95788 0.65508 0.0
C295 C 0.90452 0.933 0.62217 0.0
C296 C 0.87901 0.97235 0.59782 0.0
C297 C 0.91697 0.97353 0.68328 0.0
C298 C 0.91533 0.97731 0.76014 0.0
C299 C 0.93372 0.99041 0.79966 0.0
C300 C 0.95441 0.9998 0.75959 0.0
C301 C 0.95643 0.99622 0.68084 0.0
C302 C 0.93735 0.9831 0.64216 0.0
H303 H 0.56178 0.85468 0.80015 0.0
H304 H 0.49231 0.82878 0.90342 0.0
H305 H 0.46935 0.8644 0.84698 0.0
H306 H 0.55078 0.91872 0.83547 0.0
H307 H 0.56519 0.92925 0.74911 0.0
H308 H 0.57533 0.90049 0.79184 0.0
H309 H 0.56585 0.8772 0.66706 0.0
H310 H 0.55546 0.90597 0.62457 0.0
H311 H 0.53477 0.87928 0.62609 0.0
H312 H 0.45441 0.90383 0.7833 0.0
H313 H 0.44929 0.94548 0.72529 0.0
H314 H 0.52899 0.94593 0.6681 0.0
C315 C 0.54165 0.85628 0.80979 0.0
C316 C 0.52871 0.83888 0.85535 0.0
C317 C 0.50251 0.84191 0.86836 0.0
C318 C 0.48932 0.86199 0.83632 0.0
C319 C 0.50268 0.87896 0.7921 0.0
C320 C 0.52831 0.87641 0.77935 0.0
C321 C 0.53866 0.89823 0.73485 0.0
C322 C 0.55866 0.91252 0.78056 0.0
C323 C 0.5493 0.88964 0.65861 0.0
C324 C 0.51487 0.91349 0.72485 0.0
C325 C 0.49425 0.90197 0.75745 0.0
C326 C 0.47039 0.91297 0.75719 0.0
C327 C 0.46766 0.93659 0.72392 0.0
C328 C 0.48874 0.94901 0.69215 0.0
C329 C 0.51249 0.937 0.6918 0.0
H330 H 0.64287 0.55815 0.98137 0.0
H331 H 0.66825 0.60076 0.78755 0.0
H332 H 0.63675 0.5793 0.70795 0.0
H333 H 0.63014 0.50042 0.88636 0.0
H334 H 0.60207 0.49381 0.94021 0.0
H335 H 0.62713 0.51193 0.98129 0.0
H336 H 0.59554 0.54756 0.00955 0.0
H337 H 0.57029 0.52978 0.96816 0.0
H338 H 0.57714 0.5607 0.93393 0.0
H339 H 0.60271 0.55282 0.64941 0.0
H340 H 0.56639 0.52579 0.61848 0.0
H341 H 0.5625 0.50164 0.85167 0.0
C342 C 0.64193 0.56283 0.92205 0.0
C343 C 0.65814 0.58092 0.89037 0.0
C344 C 0.65603 0.58689 0.81286 0.0
C345 C 0.63827 0.57476 0.7672 0.0
C346 C 0.62261 0.55694 0.80017 0.0
C347 C 0.62409 0.55119 0.87598 0.0
C348 C 0.60433 0.53217 0.89826 0.0
C349 C 0.61666 0.50816 0.92829 0.0
C350 C 0.58572 0.54322 0.95586 0.0
C351 C 0.59172 0.52787 0.82295 0.0
C352 C 0.60261 0.54222 0.76697 0.0
C353 C 0.59404 0.54149 0.69277 0.0
C354 C 0.57352 0.52597 0.67565 0.0
C355 C 0.56169 0.51164 0.73271 0.0
C356 C 0.57121 0.51239 0.80697 0.0
H357 H 0.97798 0.66172 0.05617 0.0
H358 H 0.96347 0.70486 0.85384 0.0
H359 H 0.97774 0.66937 0.77576 0.0
H360 H 0.03285 0.62803 0.99204 0.0
H361 H 0.02366 0.59911 0.03604 0.0
H362 H 0.01382 0.62836 0.07625 0.0
H363 H 0.96704 0.61436 0.06936 0.0
H364 H 0.97668 0.58501 0.02953 0.0
H365 H 0.95416 0.60431 0.98052 0.0
H366 H 0.99403 0.62941 0.72021 0.0
H367 H 0.00557 0.58597 0.68999 0.0
H368 H 0.0068 0.56804 0.9286 0.0
C369 C 0.97801 0.66369 0.99543 0.0
C370 C 0.96992 0.68601 0.96075 0.0
C371 C 0.96965 0.68785 0.88123 0.0
C372 C 0.97785 0.66789 0.83656 0.0
C373 C 0.98585 0.64614 0.87244 0.0
C374 C 0.98555 0.64375 0.95 0.0
C375 C 0.99324 0.61774 0.97423 0.0
C376 C 0.01733 0.61836 0.02249 0.0
C377 C 0.97149 0.60458 0.01585 0.0
C378 C 0.99816 0.60596 0.89824 0.0
C379 C 0.99411 0.62274 0.84031 0.0
C380 C 0.99723 0.61608 0.76507 0.0
C381 C 0.00396 0.5914 0.74851 0.0
C382 C 0.00709 0.57362 0.80696 0.0
C383 C 0.00462 0.58123 0.88275 0.0
H384 H 0.95117 0.21886 0.42875 0.0
H385 H 0.91862 0.19853 0.21352 0.0
H386 H 0.936 0.15588 0.22691 0.0
H387 H 0.00909 0.1842 0.40505 0.0
H388 H 0.01108 0.17533 0.50287 0.0
H389 H 0.99572 0.20404 0.47661 0.0
H390 H 0.95521 0.18996 0.54687 0.0
H391 H 0.97047 0.16122 0.57321 0.0
H392 H 0.94088 0.16052 0.52319 0.0
H393 H 0.95483 0.11465 0.26838 0.0
H394 H 0.97678 0.07912 0.32992 0.0
H395 H 0.99951 0.1277 0.51258 0.0
C396 C 0.94775 0.20537 0.38461 0.0
C397 C 0.9338 0.21186 0.31987 0.0
C398 C 0.92967 0.19389 0.26294 0.0
C399 C 0.9393 0.16964 0.27031 0.0
C400 C 0.95316 0.16381 0.3347 0.0
C401 C 0.95758 0.18124 0.39052 0.0
C402 C 0.97357 0.17044 0.45323 0.0
C403 C 0.99886 0.18433 0.45978 0.0
C404 C 0.95916 0.17054 0.52854 0.0
C405 C 0.97727 0.14419 0.42429 0.0
C406 C 0.96511 0.14058 0.35634 0.0
C407 C 0.96474 0.11735 0.32103 0.0
C408 C 0.97717 0.09732 0.35622 0.0
C409 C 0.99015 0.10091 0.42493 0.0
C410 C 0.99025 0.12465 0.45898 0.0
H411 H 0.3055 0.03091 0.2786 0.0
H412 H 0.27022 0.09693 0.37323 0.0
H413 H 0.2994 0.09484 0.48155 0.0
H414 H 0.3188 0.99903 0.4594 0.0
H415 H 0.34863 0.9872 0.42607 0.0
H416 H 0.32302 0.99213 0.36085 0.0
H417 H 0.35179 0.02049 0.27932 0.0
H418 H 0.37741 0.01568 0.34415 0.0
H419 H 0.36711 0.0469 0.32218 0.0
H420 H 0.33505 0.08827 0.57156 0.0
H421 H 0.37482 0.07786 0.63679 0.0
H422 H 0.38652 0.01583 0.48417 0.0
C423 C 0.30355 0.04469 0.32273 0.0
C424 C 0.28553 0.06406 0.31757 0.0
C425 C 0.28383 0.08188 0.37611 0.0
C426 C 0.30025 0.08079 0.43797 0.0
C427 C 0.31807 0.06167 0.44058 0.0
C428 C 0.31973 0.04387 0.38471 0.0
C429 C 0.34174 0.02637 0.3979 0.0
C430 C 0.33248 0.9996 0.41191 0.0
C431 C 0.36062 0.02745 0.33199 0.0
C432 C 0.35272 0.03761 0.4687 0.0
C433 C 0.33862 0.05779 0.49287 0.0
C434 C 0.34603 0.0723 0.55387 0.0
C435 C 0.36869 0.06631 0.59028 0.0
C436 C 0.38363 0.04601 0.5655 0.0
C437 C 0.37523 0.03118 0.50501 0.0
H438 H 0.50226 0.2967 0.32009 0.0
H439 H 0.58109 0.31027 0.2668 0.0
H440 H 0.57859 0.35116 0.32984 0.0
H441 H 0.4802 0.35844 0.29162 0.0
H442 H 0.45839 0.35801 0.36958 0.0
H443 H 0.46637 0.32942 0.32214 0.0
H444 H 0.48066 0.30971 0.44867 0.0
H445 H 0.47231 0.33809 0.49666 0.0
H446 H 0.50377 0.32561 0.50552 0.0
H447 H 0.56686 0.39151 0.39212 0.0
H448 H 0.54825 0.42635 0.46383 0.0
H449 H 0.47747 0.38587 0.47972 0.0
C450 C 0.51908 0.30815 0.32235 0.0
C451 C 0.54186 0.30032 0.28842 0.0
C452 C 0.56346 0.31582 0.29276 0.0
C453 C 0.56219 0.33916 0.32797 0.0
C454 C 0.53927 0.34657 0.35918 0.0
C455 C 0.51822 0.33137 0.35792 0.0
C456 C 0.496 0.34359 0.39679 0.0
C457 C 0.47394 0.3476 0.34172 0.0
C458 C 0.48771 0.32834 0.46602 0.0
C459 C 0.50779 0.36813 0.41955 0.0
C460 C 0.53268 0.36957 0.3967 0.0
C461 C 0.54742 0.39055 0.4107 0.0
C462 C 0.53662 0.41031 0.451 0.0
C463 C 0.51141 0.40882 0.47736 0.0
C464 C 0.49678 0.38757 0.46031 0.0
H465 H 0.18569 0.444 0.39564 0.0
H466 H 0.19256 0.51985 0.31172 0.0
H467 H 0.15178 0.53052 0.37041 0.0
H468 H 0.11888 0.43803 0.36937 0.0
H469 H 0.11397 0.42041 0.45472 0.0
H470 H 0.14377 0.41855 0.40612 0.0
H471 H 0.16726 0.43188 0.52766 0.0
H472 H 0.13757 0.43349 0.57681 0.0
H473 H 0.15811 0.46026 0.57461 0.0
H474 H 0.11006 0.53285 0.43631 0.0
H475 H 0.0718 0.52759 0.51395 0.0
H476 H 0.09237 0.45038 0.55613 0.0
C477 C 0.17869 0.46289 0.38985 0.0
C478 C 0.19233 0.48108 0.34903 0.0
C479 C 0.18251 0.5056 0.34293 0.0
C480 C 0.1593 0.51183 0.37572 0.0
C481 C 0.14619 0.49336 0.41463 0.0
C482 C 0.15562 0.46947 0.42254 0.0
C483 C 0.13802 0.45328 0.46867 0.0
C484 C 0.12807 0.43127 0.4219 0.0
C485 C 0.15101 0.44421 0.54124 0.0
C486 C 0.11725 0.47183 0.48557 0.0
C487 C 0.12223 0.49478 0.45338 0.0
C488 C 0.10594 0.51497 0.46186 0.0
C489 C 0.08421 0.51176 0.50586 0.0
C490 C 0.07908 0.48857 0.54112 0.0
C491 C 0.09569 0.4683 0.52971 0.0
H492 H 0.96458 0.82878 0.97659 0.0
H493 H 0.03978 0.79682 0.96367 0.0
H494 H 0.05504 0.83519 0.90049 0.0
H495 H 0.96473 0.85903 0.79862 0.0
H496 H 0.94748 0.88583 0.8318 0.0
H497 H 0.9431 0.85602 0.87655 0.0
H498 H 0.95473 0.87562 0.00554 0.0
H499 H 0.95942 0.90545 0.96084 0.0
H500 H 0.9844 0.89166 0.01588 0.0
H501 H 0.06153 0.87725 0.83585 0.0
H502 H 0.05807 0.9179 0.77009 0.0
H503 H 0.9787 0.92158 0.82994 0.0
C504 C 0.98426 0.82969 0.96021 0.0
C505 C 0.00096 0.80972 0.97466 0.0
C506 C 0.02661 0.81185 0.95282 0.0
C507 C 0.03547 0.83361 0.9173 0.0
C508 C 0.01847 0.85307 0.90473 0.0
C509 C 0.9934 0.85121 0.92548 0.0
C510 C 0.97877 0.87446 0.90508 0.0
C511 C 0.95726 0.86847 0.84971 0.0
C512 C 0.96875 0.88757 0.97607 0.0
C513 C 0.99937 0.88953 0.86785 0.0
C514 C 0.02223 0.87709 0.86874 0.0
C515 C 0.04375 0.8872 0.83526 0.0
C516 C 0.04164 0.91033 0.79832 0.0
C517 C 0.01813 0.9229 0.79494 0.0
C518 C 0.99697 0.91251 0.83168 0.0
H519 H 0.69417 0.92049 0.78132 0.0
H520 H 0.71665 0.98216 0.92372 0.0
H521 H 0.67703 0.00431 0.89216 0.0
H522 H 0.66673 0.95744 0.63505 0.0
H523 H 0.64145 0.93581 0.61665 0.0
H524 H 0.6711 0.9246 0.65294 0.0
H525 H 0.64781 0.90392 0.76578 0.0
H526 H 0.61818 0.91497 0.72885 0.0
H527 H 0.62729 0.92262 0.82384 0.0
H528 H 0.63503 0.01994 0.84238 0.0
H529 H 0.59448 0.02794 0.77722 0.0
H530 H 0.60035 0.95595 0.66707 0.0
C531 C 0.6907 0.93864 0.8059 0.0
C532 C 0.7081 0.94942 0.85626 0.0
C533 C 0.7031 0.97326 0.88693 0.0
C534 C 0.68078 0.98605 0.8688 0.0
C535 C 0.66379 0.97474 0.8197 0.0
C536 C 0.66852 0.95157 0.78863 0.0
C537 C 0.64749 0.94364 0.73639 0.0
C538 C 0.65729 0.94018 0.65547 0.0
C539 C 0.63443 0.91988 0.76551 0.0
C540 C 0.63029 0.96605 0.74232 0.0
C541 C 0.6399 0.98378 0.79077 0.0
C542 C 0.6273 0.00616 0.8044 0.0
C543 C 0.60431 0.01054 0.76719 0.0
C544 C 0.59427 0.99261 0.71701 0.0
C545 C 0.60749 0.97008 0.70498 0.0
H546 H 0.5664 0.68959 0.92409 0.0
H547 H 0.49355 0.7107 0.01508 0.0
H548 H 0.47844 0.6673 -0.0003 0.0
H549 H 0.54376 0.64833 0.78463 0.0
H550 H 0.56925 0.62631 0.79522 0.0
H551 H 0.57426 0.65866 0.81706 0.0
H552 H 0.58934 0.64613 0.95107 0.0
H553 H 0.58403 0.61374 0.92947 0.0
H554 H 0.569 0.6276 0.01031 0.0
H555 H 0.47085 0.62169 0.96816 0.0
H556 H 0.471 0.57867 0.91723 0.0
H557 H 0.54939 0.58798 0.85158 0.0
C558 C 0.54733 0.68498 0.94119 0.0
C559 C 0.53118 0.70328 0.97155 0.0
C560 C 0.50631 0.69673 0.99295 0.0
C561 C 0.49757 0.67219 0.98428 0.0
C562 C 0.51412 0.65441 0.95532 0.0
C563 C 0.5385 0.66053 0.93417 0.0
C564 C 0.55226 0.63829 0.90187 0.0
C565 C 0.56034 0.6432 0.81984 0.0
C566 C 0.575 0.63102 0.95115 0.0
C567 C 0.53166 0.61886 0.90644 0.0
C568 C 0.50984 0.62833 0.93798 0.0
C569 C 0.48793 0.614 0.94407 0.0
C570 C 0.48819 0.58958 0.91527 0.0
C571 C 0.51021 0.57991 0.88078 0.0
C572 C 0.53229 0.59465 0.87828 0.0
H573 H 0.79992 0.5539 0.02804 0.0
H574 H 0.80093 0.63294 0.97617 0.0
H575 H 0.84531 0.62938 0.9344 0.0
H576 H 0.86688 0.54811 0.09166 0.0
H577 H 0.86979 0.51792 0.04849 0.0
H578 H 0.83956 0.52823 0.08328 0.0
H579 H 0.82101 0.51966 0.94948 0.0
H580 H 0.85168 0.51062 0.91551 0.0
H581 H 0.83457 0.53532 0.86913 0.0
H582 H 0.88847 0.61719 0.8939 0.0
H583 H 0.92703 0.5967 0.84771 0.0
H584 H 0.89806 0.52496 0.92186 0.0
C585 C 0.80975 0.57053 0.00968 0.0
C586 C 0.79729 0.59382 0.00661 0.0
C587 C 0.8103 0.615 0.97932 0.0
C588 C 0.8355 0.61318 0.95602 0.0
C589 C 0.8473 0.58998 0.95979 0.0
C590 C 0.83487 0.56897 0.98549 0.0
C591 C 0.85127 0.54591 0.97752 0.0
C592 C 0.8572 0.53437 0.05487 0.0
C593 C 0.83889 0.52676 0.92476 0.0
C594 C 0.8747 0.55722 0.94235 0.0
C595 C 0.87208 0.58272 0.9337 0.0
C596 C 0.89079 0.59726 0.9006 0.0
C597 C 0.91261 0.5854 0.87437 0.0
C598 C 0.91552 0.5592 0.88093 0.0
C599 C 0.89644 0.54502 0.91653 0.0
H600 H 0.93076 0.17522 0.90572 0.0
H601 H 0.00036 0.1769 0.03468 0.0
H602 H 0.01843 0.14453 0.95154 0.0
H603 H 0.92904 0.1101 0.87569 0.0
H604 H 0.91674 0.11244 0.78128 0.0
H605 H 0.90985 0.13645 0.84891 0.0
H606 H 0.92822 0.16978 0.75811 0.0
H607 H 0.93518 0.14588 0.69007 0.0
H608 H 0.95992 0.16619 0.72279 0.0
H609 H 0.02828 0.11076 0.8554 0.0
H610 H 0.02902 0.07904 0.75409 0.0
H611 H 0.95278 0.10012 0.69064 0.0
C612 C 0.94986 0.16893 0.91636 0.0
C613 C 0.96414 0.17859 0.97672 0.0
C614 C 0.98907 0.16981 0.98862 0.0
C615 C 0.9995 0.15142 0.94174 0.0
C616 C 0.98478 0.14213 0.8831 0.0
C617 C 0.96054 0.15071 0.87016 0.0
C618 C 0.94844 0.13751 0.80429 0.0
C619 C 0.92462 0.12328 0.82906 0.0
C620 C 0.9426 0.15594 0.74003 0.0
C621 C 0.96948 0.11986 0.7829 0.0
C622 C 0.99037 0.12283 0.82851 0.0
C623 C 0.01203 0.10833 0.81923 0.0
C624 C 0.01228 0.09036 0.7617 0.0
C625 C 0.99094 0.08704 0.71472 0.0
C626 C 0.96937 0.10207 0.72577 0.0
H627 H 0.30002 0.06014 0.96661 0.0
H628 H 0.33486 0.12733 0.05398 0.0
H629 H 0.37531 0.11529 0.99457 0.0
H630 H 0.35216 0.02033 0.9986 0.0
H631 H 0.34758 0.00225 0.91423 0.0
H632 H 0.321 0.01697 0.95911 0.0
H633 H 0.30987 0.04 0.83467 0.0
H634 H 0.33616 0.02497 0.78915 0.0
H635 H 0.33369 0.05848 0.78819 0.0
H636 H 0.4122 0.09543 0.92493 0.0
H637 H 0.44188 0.06963 0.85014 0.0
H638 H 0.38279 0.01473 0.81699 0.0
C639 C 0.31602 0.07255 0.97229 0.0
C640 C 0.31425 0.09477 0.01441 0.0
C641 C 0.33578 0.11026 0.02162 0.0
C642 C 0.35884 0.10356 0.98825 0.0
C643 C 0.36007 0.08123 0.94843 0.0
C644 C 0.33918 0.06602 0.94026 0.0
C645 C 0.34554 0.04265 0.89675 0.0
C646 C 0.34132 0.01917 0.94508 0.0
C647 C 0.33042 0.04147 0.82281 0.0
C648 C 0.37328 0.04701 0.88196 0.0
C649 C 0.38136 0.06942 0.91154 0.0
C650 C 0.40612 0.07775 0.90198 0.0
C651 C 0.42286 0.06296 0.8598 0.0
C652 C 0.41477 0.04002 0.82871 0.0
C653 C 0.38976 0.03191 0.84122 0.0
H654 H 0.5098 0.30472 0.94068 0.0
H655 H 0.59106 0.29402 0.9423 0.0
H656 H 0.59634 0.33265 0.86805 0.0
H657 H 0.50529 0.33167 0.75046 0.0
H658 H 0.48099 0.35339 0.77777 0.0
H659 H 0.48357 0.32371 0.82493 0.0
H660 H 0.48671 0.34649 0.95321 0.0
H661 H 0.48457 0.37624 0.90638 0.0
H662 H 0.51101 0.36955 0.96706 0.0
H663 H 0.59302 0.37338 0.80029 0.0
H664 H 0.58127 0.41285 0.73804 0.0
H665 H 0.50218 0.39779 0.78364 0.0
C666 C 0.52867 0.31018 0.92396 0.0
C667 C 0.55004 0.29628 0.94682 0.0
C668 C 0.57444 0.30433 0.92511 0.0
C669 C 0.57763 0.32626 0.88309 0.0
C670 C 0.55623 0.33991 0.86345 0.0
C671 C 0.53221 0.33213 0.88261 0.0
C672 C 0.51247 0.35083 0.85738 0.0
C673 C 0.49453 0.3392 0.79916 0.0
C674 C 0.49784 0.3614 0.92505 0.0
C675 C 0.52919 0.37048 0.82176 0.0
C676 C 0.55434 0.36373 0.82559 0.0
C677 C 0.57339 0.37882 0.79663 0.0
C678 C 0.56651 0.40124 0.76159 0.0
C679 C 0.54082 0.40842 0.75623 0.0
C680 C 0.52198 0.3929 0.78748 0.0
H681 H 0.19808 0.49986 0.00572 0.0
H682 H 0.18584 0.42082 0.04447 0.0
H683 H 0.14573 0.42325 0.97395 0.0
H684 H 0.13542 0.51911 0.02933 0.0
H685 H 0.13599 0.54234 0.95582 0.0
H686 H 0.16468 0.53416 0.00426 0.0
H687 H 0.18616 0.52336 0.87721 0.0
H688 H 0.15765 0.53192 0.82821 0.0
H689 H 0.17125 0.50144 0.81456 0.0
H690 H 0.1051 0.43521 0.90914 0.0
H691 H 0.0692 0.4548 0.84261 0.0
H692 H 0.10867 0.52572 0.84366 0.0
C693 C 0.18721 0.48295 0.99829 0.0
C694 C 0.19511 0.46015 0.03068 0.0
C695 C 0.18026 0.43847 0.01984 0.0
C696 C 0.15738 0.43969 0.98018 0.0
C697 C 0.14977 0.46264 0.951 0.0
C698 C 0.16446 0.48379 0.95841 0.0
C699 C 0.15184 0.50624 0.92276 0.0
C700 C 0.14668 0.52666 0.98157 0.0
C701 C 0.16766 0.51633 0.85676 0.0
C702 C 0.12754 0.49454 0.89537 0.0
C703 C 0.12665 0.4694 0.91241 0.0
C704 C 0.1057 0.45482 0.8948 0.0
C705 C 0.08533 0.46616 0.85751 0.0
C706 C 0.08615 0.49177 0.83787 0.0
C707 C 0.10752 0.50608 0.85761 0.0
H708 H 0.01153 0.84558 0.20069 0.0
H709 H 0.96553 0.80065 0.35091 0.0
H710 H 0.95715 0.83802 0.42902 0.0
H711 H 0.0411 0.8809 0.33731 0.0
H712 H 0.04146 0.90936 0.28308 0.0
H713 H 0.04123 0.87978 0.2358 0.0
H714 H 0.00108 0.89298 0.16235 0.0
H715 H 0.00107 0.92264 0.20991 0.0
H716 H 0.97348 0.90301 0.21341 0.0
H717 H 0.95794 0.87942 0.49754 0.0
H718 H 0.9685 0.92051 0.55174 0.0
H719 H 0.01298 0.93801 0.35322 0.0
C720 C 0.99947 0.84357 0.24961 0.0
C721 C 0.98927 0.8202 0.27009 0.0
C722 C 0.97351 0.81841 0.33428 0.0
C723 C 0.96858 0.83954 0.37869 0.0
C724 C 0.97922 0.86229 0.3572 0.0
C725 C 0.99421 0.86439 0.2938 0.0
C726 C 0.00477 0.89041 0.28504 0.0
C727 C 0.03385 0.89008 0.28539 0.0
C728 C 0.99447 0.903 0.21344 0.0
C729 C 0.99428 0.90249 0.35523 0.0
C730 C 0.97929 0.88612 0.3957 0.0
C731 C 0.96929 0.89249 0.46571 0.0
C732 C 0.97542 0.91587 0.49606 0.0
C733 C 0.99149 0.9325 0.45651 0.0
C734 C 0.0003 0.92593 0.38423 0.0
H735 H 0.66951 0.99678 0.2091 0.0
H736 H 0.61551 0.9584 0.06664 0.0
H737 H 0.58092 0.97177 0.1506 0.0
H738 H 0.642 0.98095 0.38209 0.0
H739 H 0.64828 0.01046 0.42668 0.0
H740 H 0.66846 0.99963 0.35209 0.0
H741 H 0.66032 0.04052 0.27768 0.0
H742 H 0.64006 0.05148 0.35219 0.0
H743 H 0.62834 0.04981 0.25703 0.0
H744 H 0.55283 0.98589 0.25647 0.0
H745 H 0.53329 0.00071 0.37471 0.0
H746 H 0.60539 0.03114 0.44513 0.0
C747 C 0.65038 0.99144 0.19497 0.0
C748 C 0.64523 0.9765 0.13134 0.0
C749 C 0.61993 0.96985 0.11502 0.0
C750 C 0.60014 0.97739 0.1623 0.0
C751 C 0.60592 0.99181 0.22515 0.0
C752 C 0.6304 0.99895 0.2412 0.0
C753 C 0.63169 0.0136 0.31391 0.0
C754 C 0.6486 0.00036 0.37211 0.0
C755 C 0.64063 0.04045 0.2993 0.0
C756 C 0.60422 0.01301 0.33728 0.0
C757 C 0.58962 0.00046 0.2852 0.0
C758 C 0.56399 0.99609 0.2971 0.0
C759 C 0.55307 0.00452 0.36443 0.0
C760 C 0.56777 0.01724 0.41874 0.0
C761 C 0.59355 0.02186 0.40412 0.0
H762 H 0.49946 0.62631 0.22441 0.0
H763 H 0.51992 0.68815 0.36967 0.0
H764 H 0.52156 0.65952 0.47848 0.0
H765 H 0.45892 0.5957 0.35805 0.0
H766 H 0.46803 0.56473 0.32963 0.0
H767 H 0.46911 0.58999 0.26272 0.0
H768 H 0.51625 0.58034 0.23649 0.0
H769 H 0.51537 0.55517 0.30381 0.0
H770 H 0.53833 0.57973 0.31374 0.0
H771 H 0.52176 0.62449 0.57047 0.0
H772 H 0.51671 0.58576 0.64333 0.0
H773 H 0.49469 0.54661 0.43955 0.0
C774 C 0.5043 0.63383 0.27911 0.0
C775 C 0.50967 0.65943 0.28859 0.0
C776 C 0.51571 0.6686 0.36113 0.0
C777 C 0.51681 0.65248 0.42319 0.0
C778 C 0.51167 0.62732 0.41177 0.0
C779 C 0.50526 0.61804 0.34183 0.0
C780 C 0.49977 0.59034 0.34557 0.0
C781 C 0.47233 0.58488 0.32266 0.0
C782 C 0.51855 0.57553 0.29702 0.0
C783 C 0.50401 0.58555 0.42869 0.0
C784 C 0.51114 0.6071 0.46551 0.0
C785 C 0.51611 0.60749 0.5424 0.0
C786 C 0.51323 0.58534 0.58321 0.0
C787 C 0.50518 0.56313 0.54718 0.0
C788 C 0.50086 0.56325 0.46867 0.0
H789 H 0.84009 0.52955 0.34294 0.0
H790 H 0.88754 0.58599 0.23928 0.0
H791 H 0.92089 0.57728 0.33306 0.0
H792 H 0.85511 0.54357 0.52962 0.0
H793 H 0.85481 0.5117 0.56211 0.0
H794 H 0.83579 0.52072 0.48265 0.0
H795 H 0.85721 0.48663 0.40125 0.0
H796 H 0.87628 0.47745 0.48067 0.0
H797 H 0.89113 0.48607 0.39305 0.0
H798 H 0.94772 0.56455 0.44475 0.0
H799 H 0.96568 0.54872 0.56434 0.0
H800 H 0.90043 0.50067 0.59298 0.0
C801 C 0.85762 0.53985 0.33915 0.0
C802 C 0.86119 0.55847 0.28378 0.0
C803 C 0.88436 0.57164 0.28123 0.0
C804 C 0.90345 0.56678 0.33414 0.0
C805 C 0.89912 0.5486 0.38884 0.0
C806 C 0.87682 0.53524 0.39135 0.0
C807 C 0.87625 0.5176 0.45793 0.0
C808 C 0.85419 0.52379 0.51121 0.0
C809 C 0.87516 0.49032 0.43163 0.0
C810 C 0.90144 0.52355 0.49364 0.0
C811 C 0.9145 0.54129 0.45273 0.0
C812 C 0.93777 0.55045 0.47679 0.0
C813 C 0.94781 0.54138 0.54478 0.0
C814 C 0.93449 0.52344 0.58793 0.0
C815 C 0.91117 0.51428 0.5612 0.0
loop_
_geom_bond_atom_site_label_1
_geom_bond_atom_site_label_2
_geom_bond_distance
_geom_bond_site_symmetry_2
_ccdc_geom_bond_type
O0 Cd1 2.300 . S
O0 C7 1.275 . S
Cd1 O0 2.300 . S
Cd1 O9 2.381 . S
Cd1 O10 2.378 1_556 S
O2 Cd3 2.385 . S
O2 C7 1.255 1_554 S
Cd3 O2 2.385 . S
Cd3 O4 2.317 . S
O4 Cd3 2.317 . S
O4 C5 1.232 . S
C5 O4 1.232 . S
C5 O6 1.218 . S
O6 C5 1.218 . S
C7 O0 1.275 . S
C7 O2 1.255 1_556 S
C8 O9 1.258 . S
C8 O10 1.256 1_556 S
O9 Cd1 2.381 . S
O9 C8 1.258 . S
O10 Cd1 2.378 1_554 S
O10 C8 1.256 1_554 S
O11 Cd12 2.300 1_656 S
O11 C18 1.275 1_655 S
Cd12 O11 2.300 1_454 S
Cd12 O20 2.381 1_454 S
Cd12 O21 2.378 . S
O13 Cd14 2.385 . S
O13 C18 1.255 1_554 S
Cd14 O13 2.385 . S
Cd14 O15 2.317 . S
O15 Cd14 2.317 . S
O15 C16 1.232 . S
C16 O15 1.232 . S
C16 O17 1.218 . S
O17 C16 1.218 . S
C18 O11 1.275 1_455 S
C18 O13 1.255 1_556 S
C19 O20 1.258 1_455 S
C19 O21 1.256 1_556 S
O20 Cd12 2.381 1_656 S
O20 C19 1.258 1_655 S
O21 Cd12 2.378 . S
O21 C19 1.256 1_554 S
O22 Cd23 2.300 1_556 S
O22 C29 1.275 . S
Cd23 O22 2.300 1_554 S
Cd23 O31 2.381 1_554 S
Cd23 O32 2.378 . S
O24 Cd25 2.385 1_565 S
O24 C29 1.255 1_554 S
Cd25 O24 2.385 1_545 S
Cd25 O26 2.317 1_545 S
O26 Cd25 2.317 1_565 S
O26 C27 1.232 . S
C27 O26 1.232 . S
C27 O28 1.218 . S
O28 C27 1.218 . S
C29 O22 1.275 . S
C29 O24 1.255 1_556 S
C30 O31 1.258 . S
C30 O32 1.256 1_556 S
O31 Cd23 2.381 1_556 S
O31 C30 1.258 . S
O32 Cd23 2.378 . S
O32 C30 1.256 1_554 S
O33 Cd34 2.300 1_556 S
O33 C40 1.275 . S
Cd34 O33 2.300 1_554 S
Cd34 O42 2.381 1_554 S
Cd34 O43 2.378 . S
O35 Cd36 2.385 . S
O35 C40 1.255 1_554 S
Cd36 O35 2.385 . S
Cd36 O37 2.317 . S
O37 Cd36 2.317 . S
O37 C38 1.232 . S
C38 O37 1.232 . S
C38 O39 1.218 . S
O39 C38 1.218 . S
C40 O33 1.275 . S
C40 O35 1.255 1_556 S
C41 O42 1.258 . S
C41 O43 1.256 1_556 S
O42 Cd34 2.381 1_556 S
O42 C41 1.258 . S
O43 Cd34 2.378 . S
O43 C41 1.256 1_554 S
O44 Cd45 2.300 . S
O44 C51 1.275 . S
Cd45 O44 2.300 . S
Cd45 O53 2.381 . S
Cd45 O54 2.378 . S
O46 Cd47 2.385 . S
O46 C51 1.255 . S
Cd47 O46 2.385 . S
Cd47 O48 2.317 . S
O48 Cd47 2.317 . S
O48 C49 1.232 . S
C49 O48 1.232 . S
C49 O50 1.218 . S
O50 C49 1.218 . S
C51 O44 1.275 . S
C51 O46 1.255 . S
C52 O53 1.258 . S
C52 O54 1.256 . S
O53 Cd45 2.381 . S
O53 C52 1.258 . S
O54 Cd45 2.378 . S
O54 C52 1.256 . S
O55 Cd56 2.300 1_655 S
O55 C62 1.275 1_655 S
Cd56 O55 2.300 1_455 S
Cd56 O64 2.381 1_455 S
Cd56 O65 2.378 . S
O57 Cd58 2.385 . S
O57 C62 1.255 . S
Cd58 O57 2.385 . S
Cd58 O59 2.317 . S
O59 Cd58 2.317 . S
O59 C60 1.232 . S
C60 O59 1.232 . S
C60 O61 1.218 . S
O61 C60 1.218 . S
C62 O55 1.275 1_455 S
C62 O57 1.255 . S
C63 O64 1.258 1_455 S
C63 O65 1.256 . S
O64 Cd56 2.381 1_655 S
O64 C63 1.258 1_655 S
O65 Cd56 2.378 . S
O65 C63 1.256 . S
O66 Cd67 2.300 . S
O66 C73 1.275 . S
Cd67 O66 2.300 . S
Cd67 O75 2.381 . S
Cd67 O76 2.378 . S
O68 Cd69 2.385 . S
O68 C73 1.255 . S
Cd69 O68 2.385 . S
Cd69 O70 2.317 . S
O70 Cd69 2.317 . S
O70 C71 1.232 . S
C71 O70 1.232 . S
C71 O72 1.218 . S
O72 C71 1.218 . S
C73 O66 1.275 . S
C73 O68 1.255 . S
C74 O75 1.258 . S
C74 O76 1.256 . S
O75 Cd67 2.381 . S
O75 C74 1.258 . S
O76 Cd67 2.378 . S
O76 C74 1.256 . S
O77 Cd78 2.300 . S
O77 C84 1.275 . S
Cd78 O77 2.300 . S
Cd78 O86 2.381 . S
Cd78 O87 2.378 . S
O79 Cd80 2.385 . S
O79 C84 1.255 . S
Cd80 O79 2.385 . S
Cd80 O81 2.317 . S
O81 Cd80 2.317 . S
O81 C82 1.232 . S
C82 O81 1.232 . S
C82 O83 1.218 . S
O83 C82 1.218 . S
C84 O77 1.275 . S
C84 O79 1.255 . S
C85 O86 1.258 . S
C85 O87 1.256 . S
O86 Cd78 2.381 . S
O86 C85 1.258 . S
O87 Cd78 2.378 . S
O87 C85 1.256 . S
Zn88 O94 1.969 . S
Zn88 O95 1.965 1_655 S
Zn88 O99 2.024 1_655 S
Zn88 O104 1.969 . S
Zn89 O96 1.969 . S
Zn89 O102 1.969 . S
Zn89 O103 1.965 1_455 S
Zn89 O105 2.024 1_455 S
C90 O91 1.229 1_455 S
C90 O99 1.058 . S
O91 C90 1.229 1_655 S
C92 O93 1.229 1_655 S
C92 O105 1.058 . S
O93 C92 1.229 1_455 S
O94 Zn88 1.969 . S
O94 C97 1.267 . S
O95 Zn88 1.965 1_455 S
O95 C106 1.260 . S
O96 Zn89 1.969 . S
O96 C106 1.258 1_565 S
C97 O94 1.267 . S
C97 O98 1.228 1_655 S
O98 C97 1.228 1_455 S
O99 Zn88 2.024 1_455 S
O99 C90 1.058 . S
C100 O101 1.228 1_455 S
C100 O102 1.267 . S
O101 C100 1.228 1_655 S
O102 Zn89 1.969 . S
O102 C100 1.267 . S
O103 Zn89 1.965 1_655 S
O103 C107 1.260 1_565 S
O104 Zn88 1.969 . S
O104 C107 1.258 . S
O105 Zn89 2.024 1_655 S
O105 C92 1.058 . S
C106 O95 1.260 . S
C106 O96 1.258 1_545 S
C107 O103 1.260 1_545 S
C107 O104 1.258 . S
Zn108 O114 1.971 . S
Zn108 O115 1.965 . S
Zn108 O119 2.024 . S
Zn108 O124 1.969 1_545 S
Zn109 O116 1.969 . S
Zn109 O122 1.969 . S
Zn109 O123 1.965 1_545 S
Zn109 O125 2.024 1_545 S
C110 O111 1.229 . S
C110 O119 1.058 . S
O111 C110 1.229 . S
C112 O113 1.229 1_565 S
C112 O125 1.058 . S
O113 C112 1.229 1_545 S
O114 Zn108 1.971 . S
O114 C117 1.272 . S
O115 Zn108 1.965 . S
O115 C126 1.260 . S
O116 Zn109 1.969 . S
O116 C126 1.258 . S
C117 O114 1.272 . S
C117 O118 1.228 . S
O118 C117 1.228 . S
O119 Zn108 2.024 . S
O119 C110 1.058 . S
C120 O121 1.228 . S
C120 O122 1.267 1_565 S
O121 C120 1.228 . S
O122 Zn109 1.969 . S
O122 C120 1.267 1_545 S
O123 Zn109 1.965 1_565 S
O123 C127 1.260 . S
O124 Zn108 1.969 1_565 S
O124 C127 1.258 . S
O125 Zn109 2.024 1_565 S
O125 C112 1.058 . S
C126 O115 1.260 . S
C126 O116 1.258 . S
C127 O123 1.260 . S
C127 O124 1.258 . S
Zn128 O134 1.969 . S
Zn128 O135 1.965 . S
Zn128 O139 2.024 . S
Zn128 O144 1.969 . S
Zn129 O136 1.969 . S
Zn129 O142 1.969 . S
Zn129 O143 1.965 . S
Zn129 O145 2.024 . S
C130 O131 1.229 . S
C130 O139 1.058 . S
O131 C130 1.229 . S
C132 O133 1.229 . S
C132 O145 1.058 . S
O133 C132 1.229 . S
O134 Zn128 1.969 . S
O134 C137 1.267 . S
O135 Zn128 1.965 . S
O135 C146 1.260 . S
O136 Zn129 1.969 . S
O136 C146 1.258 . S
C137 O134 1.267 . S
C137 O138 1.228 . S
O138 C137 1.228 . S
O139 Zn128 2.024 . S
O139 C130 1.058 . S
C140 O141 1.228 . S
C140 O142 1.267 . S
O141 C140 1.228 . S
O142 Zn129 1.969 . S
O142 C140 1.267 . S
O143 Zn129 1.965 . S
O143 C147 1.260 . S
O144 Zn128 1.969 . S
O144 C147 1.258 . S
O145 Zn129 2.024 . S
O145 C132 1.058 . S
C146 O135 1.260 . S
C146 O136 1.258 . S
C147 O143 1.260 . S
C147 O144 1.258 . S
Zn148 O154 1.969 . S
Zn148 O155 1.965 . S
Zn148 O159 2.024 . S
Zn148 O164 1.969 . S
Zn149 O156 1.969 . S
Zn149 O162 1.969 . S
Zn149 O163 1.965 . S
Zn149 O165 2.024 . S
C150 O151 1.229 . S
C150 O159 1.058 . S
O151 C150 1.229 . S
C152 O153 1.229 . S
C152 O165 1.058 . S
O153 C152 1.229 . S
O154 Zn148 1.969 . S
O154 C157 1.267 . S
O155 Zn148 1.965 . S
O155 C166 1.260 1_455 S
O156 Zn149 1.969 . S
O156 C166 1.258 . S
C157 O154 1.267 . S
C157 O158 1.228 . S
O158 C157 1.228 . S
O159 Zn148 2.024 . S
O159 C150 1.058 . S
C160 O161 1.228 . S
C160 O162 1.267 . S
O161 C160 1.228 . S
O162 Zn149 1.969 . S
O162 C160 1.267 . S
O163 Zn149 1.965 . S
O163 C167 1.260 1_655 S
O164 Zn148 1.969 . S
O164 C167 1.258 . S
O165 Zn149 2.024 . S
O165 C152 1.058 . S
C166 O155 1.260 1_655 S
C166 O156 1.258 . S
C167 O163 1.260 1_455 S
C167 O164 1.258 . S
H168 C180 0.930 . S
H169 C182 0.930 . S
H170 C183 0.930 . S
H171 C187 0.959 . S
H172 C187 0.959 . S
H173 C187 0.961 . S
H174 C188 0.960 . S
H175 C188 0.961 . S
H176 C188 0.959 . S
H177 C191 0.929 1_565 S
H178 C192 0.931 1_565 S
H179 C194 0.930 . S
C180 H168 0.930 . S
C180 C181 1.399 . S
C180 C185 1.399 . S
C181 C180 1.399 . S
C181 C182 1.376 . S
C182 H169 0.930 . S
C182 C181 1.376 . S
C182 C183 1.388 . S
C183 H170 0.930 . S
C183 C182 1.388 . S
C183 C184 1.390 . S
C184 C183 1.390 . S
C184 C185 1.394 . S
C184 C190 1.465 . S
C185 C180 1.399 . S
C185 C184 1.394 . S
C185 C186 1.516 . S
C186 C185 1.516 . S
C186 C187 1.502 . S
C186 C188 1.561 . S
C186 C189 1.526 . S
C187 H171 0.959 . S
C187 H172 0.959 . S
C187 H173 0.961 . S
C187 C186 1.502 . S
C188 H174 0.960 . S
C188 H175 0.961 . S
C188 H176 0.959 . S
C188 C186 1.561 . S
C189 C186 1.526 . S
C189 C190 1.396 . S
C189 C194 1.390 . S
C190 C184 1.465 . S
C190 C189 1.396 . S
C190 C191 1.399 . S
C191 H177 0.929 1_545 S
C191 C190 1.399 . S
C191 C192 1.385 . S
C192 H178 0.931 1_545 S
C192 C191 1.385 . S
C192 C193 1.389 . S
C193 C192 1.389 . S
C193 C194 1.387 . S
C194 H179 0.930 . S
C194 C189 1.390 . S
C194 C193 1.387 . S
H195 C207 0.930 . S
H196 C209 0.930 . S
H197 C210 0.930 . S
H198 C214 0.959 . S
H199 C214 0.959 . S
H200 C214 0.961 . S
H201 C215 0.960 . S
H202 C215 0.961 . S
H203 C215 0.959 . S
H204 C218 0.929 . S
H205 C219 0.931 . S
H206 C221 0.930 . S
C207 H195 0.930 . S
C207 C208 1.399 . S
C207 C212 1.399 . S
C208 C207 1.399 . S
C208 C209 1.376 . S
C209 H196 0.930 . S
C209 C208 1.376 . S
C209 C210 1.388 . S
C210 H197 0.930 . S
C210 C209 1.388 . S
C210 C211 1.390 . S
C211 C210 1.390 . S
C211 C212 1.394 . S
C211 C217 1.465 . S
C212 C207 1.399 . S
C212 C211 1.394 . S
C212 C213 1.516 . S
C213 C212 1.516 . S
C213 C214 1.502 . S
C213 C215 1.561 . S
C213 C216 1.526 . S
C214 H198 0.959 . S
C214 H199 0.959 . S
C214 H200 0.961 . S
C214 C213 1.502 . S
C215 H201 0.960 . S
C215 H202 0.961 . S
C215 H203 0.959 . S
C215 C213 1.561 . S
C216 C213 1.526 . S
C216 C217 1.396 . S
C216 C221 1.390 . S
C217 C211 1.465 . S
C217 C216 1.396 . S
C217 C218 1.399 . S
C218 H204 0.929 . S
C218 C217 1.399 . S
C218 C219 1.385 . S
C219 H205 0.931 . S
C219 C218 1.385 . S
C219 C220 1.389 . S
C220 C219 1.389 . S
C220 C221 1.387 . S
C221 H206 0.930 . S
C221 C216 1.390 . S
C221 C220 1.387 . S
H222 C234 0.930 . S
H223 C236 0.930 . S
H224 C237 0.930 . S
H225 C241 0.959 . S
H226 C241 0.959 . S
H227 C241 0.961 . S
H228 C242 0.960 . S
H229 C242 0.961 . S
H230 C242 0.959 . S
H231 C245 0.929 . S
H232 C246 0.931 . S
H233 C248 0.930 . S
C234 H222 0.930 . S
C234 C235 1.399 . S
C234 C239 1.399 . S
C235 C234 1.399 . S
C235 C236 1.376 . S
C236 H223 0.930 . S
C236 C235 1.376 . S
C236 C237 1.388 . S
C237 H224 0.930 . S
C237 C236 1.388 . S
C237 C238 1.390 . S
C238 C237 1.390 . S
C238 C239 1.394 . S
C238 C244 1.465 . S
C239 C234 1.399 . S
C239 C238 1.394 . S
C239 C240 1.516 . S
C240 C239 1.516 . S
C240 C241 1.502 . S
C240 C242 1.561 . S
C240 C243 1.526 . S
C241 H225 0.959 . S
C241 H226 0.959 . S
C241 H227 0.961 . S
C241 C240 1.502 . S
C242 H228 0.960 . S
C242 H229 0.961 . S
C242 H230 0.959 . S
C242 C240 1.561 . S
C243 C240 1.526 . S
C243 C244 1.396 . S
C243 C248 1.390 . S
C244 C238 1.465 . S
C244 C243 1.396 . S
C244 C245 1.399 . S
C245 H231 0.929 . S
C245 C244 1.399 . S
C245 C246 1.385 . S
C246 H232 0.931 . S
C246 C245 1.385 . S
C246 C247 1.389 . S
C247 C246 1.389 . S
C247 C248 1.387 . S
C248 H233 0.930 . S
C248 C243 1.390 . S
C248 C247 1.387 . S
H249 C261 0.930 . S
H250 C263 0.930 . S
H251 C264 0.930 . S
H252 C268 0.959 . S
H253 C268 0.959 . S
H254 C268 0.961 . S
H255 C269 0.960 . S
H256 C269 0.959 1_455 S
H257 C269 0.959 . S
H258 C272 0.929 . S
H259 C273 0.931 . S
H260 C275 0.930 . S
C261 H249 0.930 . S
C261 C262 1.399 1_455 S
C261 C266 1.399 . S
C262 C261 1.399 1_655 S
C262 C263 1.376 . S
C263 H250 0.930 . S
C263 C262 1.376 . S
C263 C264 1.388 . S
C264 H251 0.930 . S
C264 C263 1.388 . S
C264 C265 1.390 . S
C265 C264 1.390 . S
C265 C266 1.394 1_655 S
C265 C271 1.465 . S
C266 C261 1.399 . S
C266 C265 1.394 1_455 S
C266 C267 1.516 . S
C267 C266 1.516 . S
C267 C268 1.502 . S
C267 C269 1.561 1_455 S
C267 C270 1.526 . S
C268 H252 0.959 . S
C268 H253 0.959 . S
C268 H254 0.961 . S
C268 C267 1.502 . S
C269 H255 0.960 . S
C269 H256 0.959 1_655 S
C269 H257 0.959 . S
C269 C267 1.561 1_655 S
C270 C267 1.526 . S
C270 C271 1.396 1_455 S
C270 C275 1.390 . S
C271 C265 1.465 . S
C271 C270 1.396 1_655 S
C271 C272 1.399 . S
C272 H258 0.929 . S
C272 C271 1.399 . S
C272 C273 1.385 . S
C273 H259 0.931 . S
C273 C272 1.385 . S
C273 C274 1.389 . S
C274 C273 1.389 . S
C274 C275 1.387 1_655 S
C275 H260 0.930 . S
C275 C270 1.390 . S
C275 C274 1.387 1_455 S
H276 C288 0.930 . S
H277 C290 0.930 . S
H278 C291 0.922 1_545 S
H279 C295 0.959 . S
H280 C295 0.959 . S
H281 C295 0.961 . S
H282 C296 0.960 . S
H283 C296 0.961 . S
H284 C296 0.959 . S
H285 C299 0.929 . S
H286 C300 0.931 . S
H287 C302 0.930 . S
C288 H276 0.930 . S
C288 C289 1.399 . S
C288 C293 1.399 . S
C289 C288 1.399 . S
C289 C290 1.376 . S
C290 H277 0.930 . S
C290 C289 1.376 . S
C290 C291 1.392 . S
C291 H278 0.922 1_565 S
C291 C290 1.392 . S
C291 C292 1.394 . S
C292 C291 1.394 . S
C292 C293 1.394 . S
C292 C298 1.465 . S
C293 C288 1.399 . S
C293 C292 1.394 . S
C293 C294 1.516 . S
C294 C293 1.516 . S
C294 C295 1.502 . S
C294 C296 1.561 . S
C294 C297 1.526 . S
C295 H279 0.959 . S
C295 H280 0.959 . S
C295 H281 0.961 . S
C295 C294 1.502 . S
C296 H282 0.960 . S
C296 H283 0.961 . S
C296 H284 0.959 . S
C296 C294 1.561 . S
C297 C294 1.526 . S
C297 C298 1.396 . S
C297 C302 1.390 . S
C298 C292 1.465 . S
C298 C297 1.396 . S
C298 C299 1.399 1_565 S
C299 H285 0.929 . S
C299 C298 1.399 1_545 S
C299 C300 1.385 . S
C300 H286 0.931 . S
C300 C299 1.385 . S
C300 C301 1.389 1_545 S
C301 C300 1.389 1_565 S
C301 C302 1.387 . S
C302 H287 0.930 . S
C302 C297 1.390 . S
C302 C301 1.387 . S
H303 C315 0.930 . S
H304 C317 0.930 . S
H305 C318 0.930 . S
H306 C322 0.959 . S
H307 C322 0.959 . S
H308 C322 0.961 . S
H309 C323 0.960 . S
H310 C323 0.961 . S
H311 C323 0.959 . S
H312 C326 0.929 . S
H313 C327 0.931 . S
H314 C329 0.930 . S
C315 H303 0.930 . S
C315 C316 1.399 . S
C315 C320 1.399 . S
C316 C315 1.399 . S
C316 C317 1.376 . S
C317 H304 0.930 . S
C317 C316 1.376 . S
C317 C318 1.388 . S
C318 H305 0.930 . S
C318 C317 1.388 . S
C318 C319 1.390 . S
C319 C318 1.390 . S
C319 C320 1.394 . S
C319 C325 1.465 . S
C320 C315 1.399 . S
C320 C319 1.394 . S
C320 C321 1.516 . S
C321 C320 1.516 . S
C321 C322 1.502 . S
C321 C323 1.561 . S
C321 C324 1.526 . S
C322 H306 0.959 . S
C322 H307 0.959 . S
C322 H308 0.961 . S
C322 C321 1.502 . S
C323 H309 0.960 . S
C323 H310 0.961 . S
C323 H311 0.959 . S
C323 C321 1.561 . S
C324 C321 1.526 . S
C324 C325 1.396 . S
C324 C329 1.390 . S
C325 C319 1.465 . S
C325 C324 1.396 . S
C325 C326 1.399 . S
C326 H312 0.929 . S
C326 C325 1.399 . S
C326 C327 1.385 . S
C327 H313 0.931 . S
C327 C326 1.385 . S
C327 C328 1.389 . S
C328 C327 1.389 . S
C328 C329 1.387 . S
C329 H314 0.930 . S
C329 C324 1.390 . S
C329 C328 1.387 . S
H330 C342 0.930 . S
H331 C344 0.930 . S
H332 C345 0.930 . S
H333 C349 0.959 . S
H334 C349 0.959 . S
H335 C349 0.961 . S
H336 C350 0.960 . S
H337 C350 0.961 . S
H338 C350 0.959 . S
H339 C353 0.929 . S
H340 C354 0.931 . S
H341 C356 0.930 . S
C342 H330 0.930 . S
C342 C343 1.399 . S
C342 C347 1.399 . S
C343 C342 1.399 . S
C343 C344 1.376 . S
C344 H331 0.930 . S
C344 C343 1.376 . S
C344 C345 1.388 . S
C345 H332 0.930 . S
C345 C344 1.388 . S
C345 C346 1.390 . S
C346 C345 1.390 . S
C346 C347 1.394 . S
C346 C352 1.465 . S
C347 C342 1.399 . S
C347 C346 1.394 . S
C347 C348 1.516 . S
C348 C347 1.516 . S
C348 C349 1.502 . S
C348 C350 1.561 . S
C348 C351 1.526 . S
C349 H333 0.959 . S
C349 H334 0.959 . S
C349 H335 0.961 . S
C349 C348 1.502 . S
C350 H336 0.960 . S
C350 H337 0.961 . S
C350 H338 0.959 . S
C350 C348 1.561 . S
C351 C348 1.526 . S
C351 C352 1.396 . S
C351 C356 1.390 . S
C352 C346 1.465 . S
C352 C351 1.396 . S
C352 C353 1.399 . S
C353 H339 0.929 . S
C353 C352 1.399 . S
C353 C354 1.385 . S
C354 H340 0.931 . S
C354 C353 1.385 . S
C354 C355 1.389 . S
C355 C354 1.389 . S
C355 C356 1.387 . S
C356 H341 0.930 . S
C356 C351 1.390 . S
C356 C355 1.387 . S
H357 C369 0.930 . S
H358 C371 0.930 . S
H359 C372 0.930 . S
H360 C376 0.959 . S
H361 C376 0.959 . S
H362 C376 0.961 . S
H363 C377 0.960 1_554 S
H364 C377 0.961 1_455 S
H365 C377 0.959 . S
H366 C380 0.929 . S
H367 C381 0.931 . S
H368 C383 0.930 . S
C369 H357 0.930 . S
C369 C370 1.399 1_455 S
C369 C374 1.399 . S
C370 C369 1.399 1_655 S
C370 C371 1.376 . S
C371 H358 0.930 . S
C371 C370 1.376 . S
C371 C372 1.388 . S
C372 H359 0.930 . S
C372 C371 1.388 . S
C372 C373 1.390 . S
C373 C372 1.390 . S
C373 C374 1.394 1_655 S
C373 C379 1.465 . S
C374 C369 1.399 . S
C374 C373 1.394 1_455 S
C374 C375 1.516 . S
C375 C374 1.516 . S
C375 C376 1.502 . S
C375 C377 1.561 1_455 S
C375 C378 1.526 . S
C376 H360 0.959 . S
C376 H361 0.959 . S
C376 H362 0.961 . S
C376 C375 1.502 . S
C377 H363 0.960 1_556 S
C377 H364 0.961 1_655 S
C377 H365 0.959 . S
C377 C375 1.561 1_655 S
C378 C375 1.526 . S
C378 C379 1.396 1_455 S
C378 C383 1.390 . S
C379 C373 1.465 . S
C379 C378 1.396 1_655 S
C379 C380 1.399 . S
C380 H366 0.929 . S
C380 C379 1.399 . S
C380 C381 1.385 . S
C381 H367 0.931 . S
C381 C380 1.385 . S
C381 C382 1.378 1_655 S
C382 C381 1.378 1_455 S
C382 C383 1.395 . S
C383 H368 0.930 . S
C383 C378 1.390 . S
C383 C382 1.395 . S
H384 C396 0.930 . S
H385 C398 0.930 . S
H386 C399 0.935 . S
H387 C403 0.942 1_455 S
H388 C403 0.965 . S
H389 C403 0.962 . S
H390 C404 0.960 . S
H391 C404 0.961 . S
H392 C404 0.959 . S
H393 C407 0.935 . S
H394 C408 0.931 . S
H395 C410 0.930 . S
C396 H384 0.930 . S
C396 C397 1.407 . S
C396 C401 1.399 . S
C397 C396 1.407 . S
C397 C398 1.373 1_655 S
C398 H385 0.930 . S
C398 C397 1.373 1_455 S
C398 C399 1.391 . S
C399 H386 0.935 . S
C399 C398 1.391 . S
C399 C400 1.383 1_455 S
C400 C399 1.383 1_655 S
C400 C401 1.394 . S
C400 C406 1.465 . S
C401 C396 1.399 . S
C401 C400 1.394 . S
C401 C402 1.516 . S
C402 C401 1.516 . S
C402 C403 1.512 . S
C402 C404 1.561 . S
C402 C405 1.526 . S
C403 H387 0.942 1_655 S
C403 H388 0.965 . S
C403 H389 0.962 . S
C403 C402 1.512 . S
C404 H390 0.960 . S
C404 H391 0.961 . S
C404 H392 0.959 . S
C404 C402 1.561 . S
C405 C402 1.526 . S
C405 C406 1.396 . S
C405 C410 1.390 . S
C406 C400 1.465 . S
C406 C405 1.396 . S
C406 C407 1.399 . S
C407 H393 0.935 . S
C407 C406 1.399 . S
C407 C408 1.385 . S
C408 H394 0.931 . S
C408 C407 1.385 . S
C408 C409 1.389 . S
C409 C408 1.389 . S
C409 C410 1.387 . S
C410 H395 0.930 . S
C410 C405 1.390 . S
C410 C409 1.387 . S
H411 C423 0.930 . S
H412 C425 0.930 . S
H413 C426 0.930 . S
H414 C430 0.959 . S
H415 C430 0.959 . S
H416 C430 0.961 . S
H417 C431 0.960 . S
H418 C431 0.997 . S
H419 C431 0.959 . S
H420 C434 0.929 . S
H421 C435 0.931 . S
H422 C437 0.930 1_565 S
C423 H411 0.930 . S
C423 C424 1.399 . S
C423 C428 1.399 . S
C424 C423 1.399 . S
C424 C425 1.376 . S
C425 H412 0.930 . S
C425 C424 1.376 . S
C425 C426 1.388 . S
C426 H413 0.930 . S
C426 C425 1.388 . S
C426 C427 1.390 . S
C427 C426 1.390 . S
C427 C428 1.394 . S
C427 C433 1.465 . S
C428 C423 1.399 . S
C428 C427 1.394 . S
C428 C429 1.516 . S
C429 C428 1.516 . S
C429 C430 1.502 1_545 S
C429 C431 1.561 . S
C429 C432 1.526 . S
C430 H414 0.959 . S
C430 H415 0.959 . S
C430 H416 0.961 . S
C430 C429 1.502 1_565 S
C431 H417 0.960 . S
C431 H418 0.997 . S
C431 H419 0.959 . S
C431 C429 1.561 . S
C432 C429 1.526 . S
C432 C433 1.396 . S
C432 C437 1.390 . S
C433 C427 1.465 . S
C433 C432 1.396 . S
C433 C434 1.399 . S
C434 H420 0.929 . S
C434 C433 1.399 . S
C434 C435 1.385 . S
C435 H421 0.931 . S
C435 C434 1.385 . S
C435 C436 1.389 . S
C436 C435 1.389 . S
C436 C437 1.387 . S
C437 H422 0.930 1_545 S
C437 C432 1.390 . S
C437 C436 1.387 . S
H438 C450 0.930 . S
H439 C452 0.930 . S
H440 C453 0.930 . S
H441 C457 0.959 . S
H442 C457 0.959 . S
H443 C457 0.961 . S
H444 C458 0.960 . S
H445 C458 0.961 . S
H446 C458 0.959 . S
H447 C461 0.929 . S
H448 C462 0.931 . S
H449 C464 0.930 . S
C450 H438 0.930 . S
C450 C451 1.399 . S
C450 C455 1.399 . S
C451 C450 1.399 . S
C451 C452 1.376 . S
C452 H439 0.930 . S
C452 C451 1.376 . S
C452 C453 1.388 . S
C453 H440 0.930 . S
C453 C452 1.388 . S
C453 C454 1.390 . S
C454 C453 1.390 . S
C454 C455 1.394 . S
C454 C460 1.465 . S
C455 C450 1.399 . S
C455 C454 1.394 . S
C455 C456 1.516 . S
C456 C455 1.516 . S
C456 C457 1.502 . S
C456 C458 1.561 . S
C456 C459 1.526 . S
C457 H441 0.959 . S
C457 H442 0.959 . S
C457 H443 0.961 . S
C457 C456 1.502 . S
C458 H444 0.960 . S
C458 H445 0.961 . S
C458 H446 0.959 . S
C458 C456 1.561 . S
C459 C456 1.526 . S
C459 C460 1.396 . S
C459 C464 1.390 . S
C460 C454 1.465 . S
C460 C459 1.396 . S
C460 C461 1.399 . S
C461 H447 0.929 . S
C461 C460 1.399 . S
C461 C462 1.385 . S
C462 H448 0.931 . S
C462 C461 1.385 . S
C462 C463 1.389 . S
C463 C462 1.389 . S
C463 C464 1.387 . S
C464 H449 0.930 . S
C464 C459 1.390 . S
C464 C463 1.387 . S
H465 C477 0.930 . S
H466 C479 0.930 . S
H467 C480 0.930 . S
H468 C484 0.959 . S
H469 C484 0.959 . S
H470 C484 0.961 . S
H471 C485 0.960 . S
H472 C485 0.961 . S
H473 C485 0.959 . S
H474 C488 0.929 . S
H475 C489 0.931 . S
H476 C491 0.930 . S
C477 H465 0.930 . S
C477 C478 1.399 . S
C477 C482 1.399 . S
C478 C477 1.399 . S
C478 C479 1.376 . S
C479 H466 0.930 . S
C479 C478 1.376 . S
C479 C480 1.388 . S
C480 H467 0.930 . S
C480 C479 1.388 . S
C480 C481 1.390 . S
C481 C480 1.390 . S
C481 C482 1.394 . S
C481 C487 1.465 . S
C482 C477 1.399 . S
C482 C481 1.394 . S
C482 C483 1.516 . S
C483 C482 1.516 . S
C483 C484 1.502 . S
C483 C485 1.561 . S
C483 C486 1.526 . S
C484 H468 0.959 . S
C484 H469 0.959 . S
C484 H470 0.961 . S
C484 C483 1.502 . S
C485 H471 0.960 . S
C485 H472 0.961 . S
C485 H473 0.959 . S
C485 C483 1.561 . S
C486 C483 1.526 . S
C486 C487 1.396 . S
C486 C491 1.390 . S
C487 C481 1.465 . S
C487 C486 1.396 . S
C487 C488 1.399 . S
C488 H474 0.929 . S
C488 C487 1.399 . S
C488 C489 1.385 . S
C489 H475 0.931 . S
C489 C488 1.385 . S
C489 C490 1.389 . S
C490 C489 1.389 . S
C490 C491 1.387 . S
C491 H476 0.930 . S
C491 C486 1.390 . S
C491 C490 1.387 . S
H492 C504 0.930 1_554 S
H493 C506 0.930 . S
H494 C507 0.930 . S
H495 C511 0.959 . S
H496 C511 0.959 . S
H497 C511 0.961 1_554 S
H498 C512 0.961 1_554 S
H499 C512 0.961 1_554 S
H500 C512 0.959 . S
H501 C515 0.929 . S
H502 C516 0.931 . S
H503 C518 0.917 1_655 S
C504 H492 0.930 1_556 S
C504 C505 1.399 1_655 S
C504 C509 1.399 1_655 S
C505 C504 1.399 1_455 S
C505 C506 1.376 . S
C506 H493 0.930 . S
C506 C505 1.376 . S
C506 C507 1.388 . S
C507 H494 0.930 . S
C507 C506 1.388 . S
C507 C508 1.390 . S
C508 C507 1.390 . S
C508 C509 1.394 . S
C508 C514 1.465 . S
C509 C504 1.399 1_455 S
C509 C508 1.394 . S
C509 C510 1.516 1_455 S
C510 C509 1.516 1_655 S
C510 C511 1.502 . S
C510 C512 1.561 1_655 S
C510 C513 1.526 1_655 S
C511 H495 0.959 . S
C511 H496 0.959 . S
C511 H497 0.961 1_556 S
C511 C510 1.502 . S
C512 H498 0.961 1_556 S
C512 H499 0.961 1_556 S
C512 H500 0.959 . S
C512 C510 1.561 1_455 S
C513 C510 1.526 1_455 S
C513 C514 1.396 . S
C513 C518 1.390 . S
C514 C508 1.465 . S
C514 C513 1.396 . S
C514 C515 1.399 . S
C515 H501 0.929 . S
C515 C514 1.399 . S
C515 C516 1.385 . S
C516 H502 0.931 . S
C516 C515 1.385 . S
C516 C517 1.389 . S
C517 C516 1.389 . S
C517 C518 1.387 . S
C518 H503 0.917 1_455 S
C518 C513 1.390 . S
C518 C517 1.387 . S
H519 C531 0.930 . S
H520 C533 0.930 . S
H521 C534 0.930 1_545 S
H522 C538 0.959 . S
H523 C538 0.959 . S
H524 C538 0.961 . S
H525 C539 0.960 . S
H526 C539 0.961 . S
H527 C539 0.959 . S
H528 C542 0.929 . S
H529 C543 0.931 . S
H530 C545 0.930 . S
C531 H519 0.930 . S
C531 C532 1.399 . S
C531 C536 1.399 . S
C532 C531 1.399 . S
C532 C533 1.376 . S
C533 H520 0.930 . S
C533 C532 1.376 . S
C533 C534 1.388 . S
C534 H521 0.930 1_565 S
C534 C533 1.388 . S
C534 C535 1.390 . S
C535 C534 1.390 . S
C535 C536 1.394 . S
C535 C541 1.465 . S
C536 C531 1.399 . S
C536 C535 1.394 . S
C536 C537 1.516 . S
C537 C536 1.516 . S
C537 C538 1.502 . S
C537 C539 1.561 . S
C537 C540 1.526 . S
C538 H522 0.959 . S
C538 H523 0.959 . S
C538 H524 0.961 . S
C538 C537 1.502 . S
C539 H525 0.960 . S
C539 H526 0.961 . S
C539 H527 0.959 . S
C539 C537 1.561 . S
C540 C537 1.526 . S
C540 C541 1.396 . S
C540 C545 1.390 . S
C541 C535 1.465 . S
C541 C540 1.396 . S
C541 C542 1.399 1_565 S
C542 H528 0.929 . S
C542 C541 1.399 1_545 S
C542 C543 1.385 . S
C543 H529 0.931 . S
C543 C542 1.385 . S
C543 C544 1.389 . S
C544 C543 1.389 . S
C544 C545 1.387 1_545 S
C545 H530 0.930 . S
C545 C540 1.390 . S
C545 C544 1.387 1_565 S
H546 C558 0.930 1_554 S
H547 C560 0.930 . S
H548 C561 0.930 . S
H549 C565 0.959 . S
H550 C565 0.959 . S
H551 C565 0.961 1_554 S
H552 C566 0.960 1_554 S
H553 C566 0.958 1_554 S
H554 C566 0.959 . S
H555 C569 0.929 . S
H556 C570 0.931 . S
H557 C572 0.930 . S
C558 H546 0.930 1_556 S
C558 C559 1.399 . S
C558 C563 1.399 . S
C559 C558 1.399 . S
C559 C560 1.376 . S
C560 H547 0.930 . S
C560 C559 1.376 . S
C560 C561 1.388 . S
C561 H548 0.930 . S
C561 C560 1.388 . S
C561 C562 1.390 . S
C562 C561 1.390 . S
C562 C563 1.394 . S
C562 C568 1.465 . S
C563 C558 1.399 . S
C563 C562 1.394 . S
C563 C564 1.516 . S
C564 C563 1.516 . S
C564 C565 1.502 . S
C564 C566 1.561 . S
C564 C567 1.526 . S
C565 H549 0.959 . S
C565 H550 0.959 . S
C565 H551 0.961 1_556 S
C565 C564 1.502 . S
C566 H552 0.960 1_556 S
C566 H553 0.958 1_556 S
C566 H554 0.959 . S
C566 C564 1.561 . S
C567 C564 1.526 . S
C567 C568 1.396 . S
C567 C572 1.390 . S
C568 C562 1.465 . S
C568 C567 1.396 . S
C568 C569 1.399 . S
C569 H555 0.929 . S
C569 C568 1.399 . S
C569 C570 1.385 . S
C570 H556 0.931 . S
C570 C569 1.385 . S
C570 C571 1.389 . S
C571 C570 1.389 . S
C571 C572 1.387 . S
C572 H557 0.930 . S
C572 C567 1.390 . S
C572 C571 1.387 . S
H573 C585 0.930 . S
H574 C587 0.930 . S
H575 C588 0.930 . S
H576 C592 0.959 . S
H577 C592 0.959 . S
H578 C592 0.961 . S
H579 C593 0.960 . S
H580 C593 0.961 . S
H581 C593 0.959 . S
H582 C596 0.929 . S
H583 C597 0.931 . S
H584 C599 0.930 . S
C585 H573 0.930 . S
C585 C586 1.399 . S
C585 C590 1.399 . S
C586 C585 1.399 . S
C586 C587 1.376 . S
C587 H574 0.930 . S
C587 C586 1.376 . S
C587 C588 1.388 . S
C588 H575 0.930 . S
C588 C587 1.388 . S
C588 C589 1.390 . S
C589 C588 1.390 . S
C589 C590 1.394 . S
C589 C595 1.465 . S
C590 C585 1.399 . S
C590 C589 1.394 . S
C590 C591 1.516 . S
C591 C590 1.516 . S
C591 C592 1.502 . S
C591 C593 1.561 . S
C591 C594 1.526 . S
C592 H576 0.959 . S
C592 H577 0.959 . S
C592 H578 0.961 . S
C592 C591 1.502 . S
C593 H579 0.960 . S
C593 H580 0.961 . S
C593 H581 0.959 . S
C593 C591 1.561 . S
C594 C591 1.526 . S
C594 C595 1.396 . S
C594 C599 1.390 . S
C595 C589 1.465 . S
C595 C594 1.396 . S
C595 C596 1.399 . S
C596 H582 0.929 . S
C596 C595 1.399 . S
C596 C597 1.385 . S
C597 H583 0.931 . S
C597 C596 1.385 . S
C597 C598 1.389 . S
C598 C597 1.389 . S
C598 C599 1.387 . S
C599 H584 0.930 . S
C599 C594 1.390 . S
C599 C598 1.387 . S
H600 C612 0.930 . S
H601 C614 0.930 . S
H602 C615 0.930 . S
H603 C619 0.959 . S
H604 C619 0.959 . S
H605 C619 0.961 . S
H606 C620 0.960 . S
H607 C620 0.961 . S
H608 C620 0.959 . S
H609 C623 0.929 . S
H610 C624 0.931 . S
H611 C626 0.932 . S
C612 H600 0.930 . S
C612 C613 1.399 1_656 S
C612 C617 1.399 1_655 S
C613 C612 1.399 1_454 S
C613 C614 1.376 . S
C614 H601 0.930 . S
C614 C613 1.376 . S
C614 C615 1.388 . S
C615 H602 0.930 . S
C615 C614 1.388 . S
C615 C616 1.390 1_554 S
C616 C615 1.390 1_556 S
C616 C617 1.394 . S
C616 C622 1.465 . S
C617 C612 1.399 1_455 S
C617 C616 1.394 . S
C617 C618 1.519 . S
C618 C617 1.519 . S
C618 C619 1.474 1_455 S
C618 C620 1.586 . S
C618 C621 1.531 . S
C619 H603 0.959 . S
C619 H604 0.959 . S
C619 H605 0.961 . S
C619 C618 1.474 1_655 S
C620 H606 0.960 . S
C620 H607 0.961 . S
C620 H608 0.959 . S
C620 C618 1.586 . S
C621 C618 1.531 . S
C621 C622 1.396 . S
C621 C626 1.390 . S
C622 C616 1.465 . S
C622 C621 1.396 . S
C622 C623 1.399 . S
C623 H609 0.929 . S
C623 C622 1.399 . S
C623 C624 1.385 . S
C624 H610 0.931 . S
C624 C623 1.385 . S
C624 C625 1.389 . S
C625 C624 1.389 . S
C625 C626 1.387 . S
C626 H611 0.932 . S
C626 C621 1.390 . S
C626 C625 1.387 . S
H627 C639 0.930 . S
H628 C641 0.930 . S
H629 C642 0.930 . S
H630 C646 0.959 . S
H631 C646 0.959 . S
H632 C646 0.961 . S
H633 C647 0.960 . S
H634 C647 0.961 . S
H635 C647 0.959 . S
H636 C650 0.929 1_554 S
H637 C651 0.931 . S
H638 C653 0.930 . S
C639 H627 0.930 . S
C639 C640 1.399 1_556 S
C639 C644 1.399 . S
C640 C639 1.399 1_554 S
C640 C641 1.376 . S
C641 H628 0.930 . S
C641 C640 1.376 . S
C641 C642 1.388 . S
C642 H629 0.930 . S
C642 C641 1.388 . S
C642 C643 1.390 1_554 S
C643 C642 1.390 1_556 S
C643 C644 1.394 . S
C643 C649 1.465 . S
C644 C639 1.399 . S
C644 C643 1.394 . S
C644 C645 1.516 . S
C645 C644 1.516 . S
C645 C646 1.502 . S
C645 C647 1.561 . S
C645 C648 1.526 . S
C646 H630 0.959 . S
C646 H631 0.959 . S
C646 H632 0.961 . S
C646 C645 1.502 . S
C647 H633 0.960 . S
C647 H634 0.961 . S
C647 H635 0.959 . S
C647 C645 1.561 . S
C648 C645 1.526 . S
C648 C649 1.396 . S
C648 C653 1.390 . S
C649 C643 1.465 . S
C649 C648 1.396 . S
C649 C650 1.399 . S
C650 H636 0.929 1_556 S
C650 C649 1.399 . S
C650 C651 1.385 . S
C651 H637 0.931 . S
C651 C650 1.385 . S
C651 C652 1.389 . S
C652 C651 1.389 . S
C652 C653 1.387 . S
C653 H638 0.930 . S
C653 C648 1.390 . S
C653 C652 1.387 . S
H654 C666 0.930 . S
H655 C668 0.930 . S
H656 C669 0.930 . S
H657 C673 0.959 . S
H658 C673 0.959 . S
H659 C673 0.961 . S
H660 C674 0.960 . S
H661 C674 0.961 . S
H662 C674 0.959 . S
H663 C677 0.929 . S
H664 C678 0.931 . S
H665 C680 0.930 . S
C666 H654 0.930 . S
C666 C667 1.399 . S
C666 C671 1.399 1_554 S
C667 C666 1.399 . S
C667 C668 1.376 1_554 S
C668 H655 0.930 . S
C668 C667 1.376 1_556 S
C668 C669 1.388 . S
C669 H656 0.930 . S
C669 C668 1.388 . S
C669 C670 1.390 . S
C670 C669 1.390 . S
C670 C671 1.394 . S
C670 C676 1.465 . S
C671 C666 1.399 1_556 S
C671 C670 1.394 . S
C671 C672 1.516 . S
C672 C671 1.516 . S
C672 C673 1.502 . S
C672 C674 1.561 1_556 S
C672 C675 1.526 . S
C673 H657 0.959 . S
C673 H658 0.959 . S
C673 H659 0.961 . S
C673 C672 1.502 . S
C674 H660 0.960 . S
C674 H661 0.961 . S
C674 H662 0.959 . S
C674 C672 1.561 1_554 S
C675 C672 1.526 . S
C675 C676 1.396 . S
C675 C680 1.390 . S
C676 C670 1.465 . S
C676 C675 1.396 . S
C676 C677 1.399 . S
C677 H663 0.929 . S
C677 C676 1.399 . S
C677 C678 1.385 . S
C678 H664 0.931 . S
C678 C677 1.385 . S
C678 C679 1.389 . S
C679 C678 1.389 . S
C679 C680 1.387 . S
C680 H665 0.930 . S
C680 C675 1.390 . S
C680 C679 1.387 . S
H681 C693 0.930 . S
H682 C695 0.930 . S
H683 C696 0.930 . S
H684 C700 0.959 . S
H685 C700 0.959 . S
H686 C700 0.961 . S
H687 C701 0.960 . S
H688 C701 0.961 . S
H689 C701 0.959 . S
H690 C704 0.929 . S
H691 C705 0.931 . S
H692 C707 0.930 . S
C693 H681 0.930 . S
C693 C694 1.399 1_556 S
C693 C698 1.399 . S
C694 C693 1.399 1_554 S
C694 C695 1.376 . S
C695 H682 0.930 . S
C695 C694 1.376 . S
C695 C696 1.388 1_554 S
C696 H683 0.930 . S
C696 C695 1.388 1_556 S
C696 C697 1.390 . S
C697 C696 1.390 . S
C697 C698 1.394 . S
C697 C703 1.465 . S
C698 C693 1.399 . S
C698 C697 1.394 . S
C698 C699 1.516 . S
C699 C698 1.516 . S
C699 C700 1.502 . S
C699 C701 1.561 . S
C699 C702 1.526 . S
C700 H684 0.959 . S
C700 H685 0.959 . S
C700 H686 0.961 . S
C700 C699 1.502 . S
C701 H687 0.960 . S
C701 H688 0.961 . S
C701 H689 0.959 . S
C701 C699 1.561 . S
C702 C699 1.526 . S
C702 C703 1.396 . S
C702 C707 1.390 . S
C703 C697 1.465 . S
C703 C702 1.396 . S
C703 C704 1.399 . S
C704 H690 0.929 . S
C704 C703 1.399 . S
C704 C705 1.385 . S
C705 H691 0.931 . S
C705 C704 1.385 . S
C705 C706 1.389 . S
C706 C705 1.389 . S
C706 C707 1.387 . S
C707 H692 0.930 . S
C707 C702 1.390 . S
C707 C706 1.387 . S
H708 C720 0.930 . S
H709 C722 0.930 . S
H710 C723 0.930 . S
H711 C727 0.959 1_455 S
H712 C727 0.959 . S
H713 C727 0.961 . S
H714 C728 0.960 . S
H715 C728 0.961 . S
H716 C728 0.959 . S
H717 C731 0.929 . S
H718 C732 0.931 . S
H719 C734 0.930 . S
C720 H708 0.930 . S
C720 C721 1.411 . S
C720 C725 1.399 . S
C721 C720 1.411 . S
C721 C722 1.365 1_655 S
C722 H709 0.930 . S
C722 C721 1.365 1_455 S
C722 C723 1.388 . S
C723 H710 0.930 . S
C723 C722 1.388 . S
C723 C724 1.398 . S
C724 C723 1.398 . S
C724 C725 1.385 1_455 S
C724 C730 1.464 1_455 S
C725 C720 1.399 . S
C725 C724 1.385 1_655 S
C725 C726 1.516 . S
C726 C725 1.516 . S
C726 C727 1.502 . S
C726 C728 1.561 . S
C726 C729 1.526 . S
C727 H711 0.959 1_655 S
C727 H712 0.959 . S
C727 H713 0.961 . S
C727 C726 1.502 . S
C728 H714 0.960 . S
C728 H715 0.961 . S
C728 H716 0.959 . S
C728 C726 1.561 . S
C729 C726 1.526 . S
C729 C730 1.404 . S
C729 C734 1.390 . S
C730 C724 1.464 1_655 S
C730 C729 1.404 . S
C730 C731 1.393 1_655 S
C731 H717 0.929 . S
C731 C730 1.393 1_455 S
C731 C732 1.385 . S
C732 H718 0.931 . S
C732 C731 1.385 . S
C732 C733 1.389 1_455 S
C733 C732 1.389 1_655 S
C733 C734 1.387 . S
C734 H719 0.930 . S
C734 C729 1.390 . S
C734 C733 1.387 . S
H735 C747 0.930 . S
H736 C749 0.930 . S
H737 C750 0.930 . S
H738 C754 0.959 1_565 S
H739 C754 0.959 . S
H740 C754 0.961 . S
H741 C755 0.960 . S
H742 C755 0.961 . S
H743 C755 0.959 . S
H744 C758 0.929 . S
H745 C759 0.931 . S
H746 C761 0.930 1_545 S
C747 H735 0.930 . S
C747 C748 1.399 . S
C747 C752 1.399 . S
C748 C747 1.399 . S
C748 C749 1.376 . S
C749 H736 0.930 . S
C749 C748 1.376 . S
C749 C750 1.388 . S
C750 H737 0.930 . S
C750 C749 1.388 . S
C750 C751 1.390 . S
C751 C750 1.390 . S
C751 C752 1.394 . S
C751 C757 1.465 . S
C752 C747 1.399 . S
C752 C751 1.394 . S
C752 C753 1.516 . S
C753 C752 1.516 . S
C753 C754 1.502 1_565 S
C753 C755 1.561 1_565 S
C753 C756 1.526 . S
C754 H738 0.959 1_545 S
C754 H739 0.959 . S
C754 H740 0.961 . S
C754 C753 1.502 1_545 S
C755 H741 0.960 . S
C755 H742 0.961 . S
C755 H743 0.959 . S
C755 C753 1.561 1_545 S
C756 C753 1.526 . S
C756 C757 1.396 . S
C756 C761 1.390 . S
C757 C751 1.465 . S
C757 C756 1.396 . S
C757 C758 1.399 . S
C758 H744 0.929 . S
C758 C757 1.399 . S
C758 C759 1.385 . S
C759 H745 0.931 . S
C759 C758 1.385 . S
C759 C760 1.389 . S
C760 C759 1.389 . S
C760 C761 1.387 . S
C761 H746 0.930 1_565 S
C761 C756 1.390 . S
C761 C760 1.387 . S
H762 C774 0.930 . S
H763 C776 0.930 . S
H764 C777 0.930 . S
H765 C781 0.959 . S
H766 C781 0.959 . S
H767 C781 0.961 . S
H768 C782 0.960 . S
H769 C782 0.961 . S
H770 C782 0.959 . S
H771 C785 0.929 . S
H772 C786 0.931 . S
H773 C788 0.930 . S
C774 H762 0.930 . S
C774 C775 1.399 . S
C774 C779 1.399 . S
C775 C774 1.399 . S
C775 C776 1.376 . S
C776 H763 0.930 . S
C776 C775 1.376 . S
C776 C777 1.388 . S
C777 H764 0.930 . S
C777 C776 1.388 . S
C777 C778 1.390 . S
C778 C777 1.390 . S
C778 C779 1.394 . S
C778 C784 1.465 . S
C779 C774 1.399 . S
C779 C778 1.394 . S
C779 C780 1.516 . S
C780 C779 1.516 . S
C780 C781 1.502 . S
C780 C782 1.561 . S
C780 C783 1.526 . S
C781 H765 0.959 . S
C781 H766 0.959 . S
C781 H767 0.961 . S
C781 C780 1.502 . S
C782 H768 0.960 . S
C782 H769 0.961 . S
C782 H770 0.959 . S
C782 C780 1.561 . S
C783 C780 1.526 . S
C783 C784 1.396 . S
C783 C788 1.390 . S
C784 C778 1.465 . S
C784 C783 1.396 . S
C784 C785 1.399 . S
C785 H771 0.929 . S
C785 C784 1.399 . S
C785 C786 1.385 . S
C786 H772 0.931 . S
C786 C785 1.385 . S
C786 C787 1.389 . S
C787 C786 1.389 . S
C787 C788 1.387 . S
C788 H773 0.930 . S
C788 C783 1.390 . S
C788 C787 1.387 . S
H789 C801 0.930 . S
H790 C803 0.930 . S
H791 C804 0.930 . S
H792 C808 0.959 . S
H793 C808 0.959 . S
H794 C808 0.961 . S
H795 C809 0.960 . S
H796 C809 0.961 . S
H797 C809 0.959 . S
H798 C812 0.929 . S
H799 C813 0.931 . S
H800 C815 0.930 . S
C801 H789 0.930 . S
C801 C802 1.399 . S
C801 C806 1.399 . S
C802 C801 1.399 . S
C802 C803 1.376 . S
C803 H790 0.930 . S
C803 C802 1.376 . S
C803 C804 1.388 . S
C804 H791 0.930 . S
C804 C803 1.388 . S
C804 C805 1.390 . S
C805 C804 1.390 . S
C805 C806 1.394 . S
C805 C811 1.465 . S
C806 C801 1.399 . S
C806 C805 1.394 . S
C806 C807 1.516 . S
C807 C806 1.516 . S
C807 C808 1.502 . S
C807 C809 1.561 . S
C807 C810 1.526 . S
C808 H792 0.959 . S
C808 H793 0.959 . S
C808 H794 0.961 . S
C808 C807 1.502 . S
C809 H795 0.960 . S
C809 H796 0.961 . S
C809 H797 0.959 . S
C809 C807 1.561 . S
C810 C807 1.526 . S
C810 C811 1.396 . S
C810 C815 1.390 . S
C811 C805 1.465 . S
C811 C810 1.396 . S
C811 C812 1.399 . S
C812 H798 0.929 . S
C812 C811 1.399 . S
C812 C813 1.385 . S
C813 H799 0.931 . S
C813 C812 1.385 . S
C813 C814 1.389 . S
C814 C813 1.389 . S
C814 C815 1.387 . S
C815 H800 0.930 . S
C815 C810 1.390 . S
C815 C814 1.387 . S
C181 C74 1.541 . S
C193 C106 1.541 . S
C220 C126 1.369 . S
C208 C85 1.410 . S
C247 C146 1.527 . S
C235 C52 1.540 . S
C274 C166 1.418 . S
C262 C63 1.410 1_655 S
C301 C107 1.527 1_565 S
C289 C30 1.467 . S
C316 C41 1.389 . S
C328 C127 1.372 . S
C343 C8 1.529 . S
C355 C147 1.549 . S
C370 C19 1.409 1_655 S
C382 C167 1.441 . S
C409 C97 0.925 . S
C397 C62 0.909 1_655 S
C436 C117 0.854 . S
C424 C73 0.966 . S
C463 C137 0.958 . S
C451 C84 0.943 . S
C478 C51 0.939 . S
C490 C157 0.961 . S
C505 C18 0.847 . S
C517 C100 0.861 . S
C544 C120 0.992 1_545 S
C532 C29 0.864 . S
C571 C140 0.857 . S
C559 C40 0.874 . S
C586 C7 0.971 . S
C598 C160 0.842 . S
C613 C60 1.190 . S
C625 C90 1.512 . S
C640 C71 1.358 . S
C652 C110 1.561 . S
C679 C130 1.395 . S
C667 C82 1.316 . S
C706 C150 1.558 . S
C694 C49 1.377 . S
C721 C16 1.333 1_655 S
C733 C92 1.405 . S
C760 C112 1.560 . S
C748 C27 1.272 . S
C787 C132 1.386 . S
C775 C38 1.313 . S
C802 C5 1.339 . S
C814 C152 1.549 . S
