# Generated by pormake.
# Topology pth, (4,4)-cn, num edge types: 1
# Building blocks:
#     Node 0, Type 0, BuildingBlock: QUQFOY_clean_sbu_3, # of connection points: 4
#     Node 1, Type 0, BuildingBlock: QUQFOY_clean_sbu_3, # of connection points: 4
#     Node 2, Type 0, BuildingBlock: QUQFOY_clean_sbu_3, # of connection points: 4
#     Node 3, Type 1, BuildingBlock: MUDLON_clean_sbu_0, # of connection points: 4
#     Node 4, Type 1, BuildingBlock: MUDLON_clean_sbu_0, # of connection points: 4
#     Node 5, Type 1, BuildingBlock: MUDLON_clean_sbu_0, # of connection points: 4
#     Edge 6, Type (0, 1), BuildingBlock: FUNLAD_clean_linker_1, # of connection points: 2
#     Edge 7, Type (0, 1), BuildingBlock: FUNLAD_clean_linker_1, # of connection points: 2
#     Edge 8, Type (0, 1), BuildingBlock: FUNLAD_clean_linker_1, # of connection points: 2
#     Edge 9, Type (0, 1), BuildingBlock: FUNLAD_clean_linker_1, # of connection points: 2
#     Edge 10, Type (0, 1), BuildingBlock: FUNLAD_clean_linker_1, # of connection points: 2
#     Edge 11, Type (0, 1), BuildingBlock: FUNLAD_clean_linker_1, # of connection points: 2
#     Edge 12, Type (0, 1), BuildingBlock: FUNLAD_clean_linker_1, # of connection points: 2
#     Edge 13, Type (0, 1), BuildingBlock: FUNLAD_clean_linker_1, # of connection points: 2
#     Edge 14, Type (0, 1), BuildingBlock: FUNLAD_clean_linker_1, # of connection points: 2
#     Edge 15, Type (0, 1), BuildingBlock: FUNLAD_clean_linker_1, # of connection points: 2
#     Edge 16, Type (0, 1), BuildingBlock: FUNLAD_clean_linker_1, # of connection points: 2
#     Edge 17, Type (0, 1), BuildingBlock: FUNLAD_clean_linker_1, # of connection points: 2
# Relax obj value: 0.015
# Max RMSD: 0.070
# Mean RMSD: 0.054
data_MOF--net-pth--node1-QUQFOY_clean_sbu_3--node2-MUDLON_clean_sbu_0--edge1-FUNLAD_clean_linker_1
_symmetry_space_group_name_H-M    P1
_symmetry_Int_Tables_number       1
_symmetry_cell_setting            triclinic
loop_
_symmetry_equiv_pos_as_xyz
'x, y, z'
_cell_length_a     23.815604
_cell_length_b     23.735514
_cell_length_c     64.239173
_cell_angle_alpha  90.389055
_cell_angle_beta   90.436067
_cell_angle_gamma 120.57014
loop_
_atom_site_label
_atom_site_type_symbol
_atom_site_fract_x
_atom_site_fract_y
_atom_site_fract_z
_atom_type_partial_charge
C0 C 0.01378 0.23034 0.11059 0.0
O1 O 0.99347 0.2363 0.09287 0.0
Cd2 Cd 1.00029 0.181 0.06218 0.0
O3 O 0.03746 0.19323 0.11291 0.0
Cd4 Cd 0.05667 0.11615 0.09199 0.0
C5 C 0.16396 0.23446 0.05991 0.0
O6 O 0.95564 0.06803 0.07086 0.0
O7 O 0.02667 0.04148 0.06211 0.0
O8 O 0.01904 0.04197 0.12141 0.0
C9 C 0.97048 0.03387 0.05943 0.0
O10 O 0.1146 0.23344 0.05168 0.0
C11 C 0.0698 0.03769 0.12315 0.0
O12 O 0.15779 0.20002 0.07578 0.0
O13 O 0.1156 0.07044 0.1105 0.0
C14 C 0.19558 0.14515 0.44002 0.0
O15 O 0.22003 0.17317 0.42297 0.0
Cd16 Cd 0.15947 0.18926 0.39634 0.0
O17 O 0.13505 0.12152 0.44362 0.0
Cd18 Cd 0.03783 0.11262 0.42486 0.0
C19 C 0.04847 0.02973 0.38339 0.0
O20 O 0.09455 0.22628 0.41338 0.0
O21 O 1.00088 0.16359 0.39882 0.0
O22 O 1.00092 0.1239 0.45925 0.0
C23 C 0.0492 0.22082 0.40164 0.0
O24 O 0.09648 0.08451 0.37801 0.0
C25 C 0.94231 0.07804 0.45685 0.0
O26 O 0.02005 0.02379 0.40066 0.0
O27 O 0.92745 0.04696 0.43961 0.0
C28 C 0.94397 0.12424 0.74025 0.0
O29 O 0.94751 0.15176 0.75761 0.0
Cd30 Cd 0.01878 0.16566 0.78614 0.0
O31 O 0.9787 0.09834 0.73667 0.0
Cd32 Cd 0.06084 0.08232 0.75652 0.0
C33 C 0.95865 0.00399 0.79714 0.0
O34 O 0.12078 0.19416 0.77079 0.0
O35 O 0.15158 0.1286 0.78191 0.0
O36 O 0.11578 0.08752 0.72363 0.0
C37 C 0.15994 0.18567 0.78189 0.0
O38 O 0.96738 0.05935 0.80281 0.0
C39 C 0.11755 0.03562 0.72672 0.0
O40 O 0.98339 0.99754 0.7804 0.0
O41 O 0.09193 0.00487 0.74331 0.0
Mg42 Mg 0.03919 0.62257 0.26083 0.0
C43 C 0.06101 0.56408 0.29906 0.0
O44 O 0.02192 0.5831 0.30641 0.0
C45 C 0.07477 0.72702 0.23211 0.0
O46 O 0.01199 0.7006 0.23549 0.0
C47 C 0.00576 0.51831 0.23091 0.0
O48 O 0.06265 0.53305 0.2389 0.0
O49 O 0.97772 0.54789 0.23792 0.0
O50 O 0.08086 0.57807 0.28046 0.0
O51 O 0.99563 0.66301 0.28117 0.0
C52 C 0.93637 0.64311 0.2853 0.0
O53 O 0.8896 0.59016 0.27615 0.0
O54 O 0.10574 0.70422 0.24166 0.0
Mg55 Mg 0.52075 0.05436 0.59182 0.0
C56 C 0.47188 0.09054 0.55471 0.0
O57 O 0.46836 0.03586 0.54864 0.0
C58 C 0.61047 0.07519 0.62663 0.0
O59 O 0.56056 0.01642 0.63001 0.0
C60 C 0.38122 0.98981 0.60649 0.0
O61 O 0.37131 0.9966 0.58678 0.0
O62 O 0.43786 0.00358 0.61256 0.0
O63 O 0.49655 0.11446 0.57252 0.0
O64 O 0.54511 0.9976 0.57077 0.0
C65 C 0.59993 0.03429 0.56229 0.0
O66 O 0.63242 0.09673 0.56745 0.0
O67 O 0.60752 0.1076 0.61142 0.0
Mg68 Mg 0.56625 0.61138 0.9196 0.0
C69 C 0.45466 0.52519 0.89264 0.0
O70 O 0.46966 0.48522 0.90184 0.0
C71 C 0.65299 0.72506 0.94565 0.0
O72 O 0.68945 0.70085 0.93995 0.0
C73 C 0.53469 0.53586 0.96017 0.0
O74 O 0.56805 0.59517 0.96818 0.0
O75 O 0.53151 0.52822 0.9405 0.0
O76 O 0.48641 0.58559 0.89762 0.0
O77 O 0.65047 0.63595 0.90037 0.0
C78 C 0.64728 0.60693 0.8833 0.0
O79 O 0.59307 0.55315 0.87806 0.0
O80 O 0.59463 0.69797 0.9388 0.0
H81 H 0.03666 0.26685 0.14299 0.0
C82 C 0.01175 0.26747 0.12881 0.0
H83 H 0.95468 0.30247 0.11476 0.0
H84 H 0.89026 0.34539 0.20967 0.0
H85 H 0.79177 0.24213 0.2017 0.0
H86 H 0.77988 0.18377 0.16854 0.0
H87 H 0.86684 0.22817 0.14317 0.0
C88 C 0.98126 0.30204 0.12852 0.0
C89 C 0.98434 0.34147 0.14706 0.0
C90 C 0.93238 0.31609 0.16139 0.0
C91 C 0.93883 0.35038 0.18037 0.0
C92 C 0.88746 0.3222 0.19485 0.0
C93 C 0.83074 0.26281 0.1905 0.0
C94 C 0.82406 0.22989 0.17183 0.0
C95 C 0.87426 0.25585 0.15742 0.0
H96 H 0.9398 0.47231 0.20354 0.0
C97 C 0.97997 0.47465 0.21241 0.0
H98 H 0.05077 0.44655 0.21432 0.0
H99 H 0.08935 0.4073 0.12165 0.0
H100 H 0.18629 0.51262 0.12885 0.0
H101 H 0.19723 0.57295 0.1615 0.0
H102 H 0.11143 0.52839 0.18712 0.0
C103 C 0.00955 0.44256 0.20561 0.0
C104 C 0.99687 0.41063 0.18472 0.0
C105 C 0.04716 0.4378 0.16975 0.0
C106 C 0.04088 0.4032 0.15092 0.0
C107 C 0.09196 0.43132 0.13631 0.0
C108 C 0.14775 0.49184 0.14021 0.0
C109 C 0.15392 0.52579 0.15858 0.0
C110 C 0.10438 0.49944 0.17321 0.0
H111 H 0.91166 0.09206 0.48776 0.0
C112 C 0.89409 0.06421 0.47327 0.0
H113 H 0.81072 0.99667 0.45582 0.0
H114 H 0.70864 0.96442 0.55409 0.0
H115 H 0.7609 0.90002 0.55831 0.0
H116 H 0.82262 0.88838 0.52958 0.0
H117 H 0.83294 0.94166 0.49646 0.0
C118 C 0.82978 0.02273 0.47052 0.0
C119 C 0.783 0.01921 0.48646 0.0
C120 C 0.77585 0.98638 0.50548 0.0
C121 C 0.73918 0.99211 0.52191 0.0
C122 C 0.73509 0.96097 0.54101 0.0
C123 C 0.76492 0.92391 0.54364 0.0
C124 C 0.79976 0.91742 0.52747 0.0
C125 C 0.80548 0.94834 0.50859 0.0
H126 H 0.59609 0.95856 0.54074 0.0
C127 C 0.62548 0.00909 0.54602 0.0
H128 H 0.71191 0.10008 0.54218 0.0
H129 H 0.78036 0.08139 0.45107 0.0
H130 H 0.72406 0.14167 0.44625 0.0
H131 H 0.65946 0.15058 0.47457 0.0
H132 H 0.65082 0.09928 0.5079 0.0
C133 C 0.68354 0.04907 0.53727 0.0
C134 C 0.70918 0.03008 0.51915 0.0
C135 C 0.71237 0.05879 0.49958 0.0
C136 C 0.74918 0.05324 0.48321 0.0
C137 C 0.75288 0.08391 0.46402 0.0
C138 C 0.72076 0.11861 0.46103 0.0
C139 C 0.68444 0.12368 0.47698 0.0
C140 C 0.68011 0.09424 0.49606 0.0
H141 H 0.89294 0.95482 0.82323 0.0
C142 C 0.91747 0.9471 0.81026 0.0
H143 H 0.93444 0.87823 0.79473 0.0
H144 H 0.85325 0.71028 0.87875 0.0
H145 H 0.96974 0.75088 0.8783 0.0
H146 H 0.03957 0.82894 0.85161 0.0
H147 H 0.99341 0.86684 0.82515 0.0
C148 C 0.90881 0.88717 0.80705 0.0
C149 C 0.86558 0.83263 0.82108 0.0
C150 C 0.89309 0.81018 0.83618 0.0
C151 C 0.85287 0.76546 0.85165 0.0
C152 C 0.88175 0.74459 0.86675 0.0
C153 C 0.94845 0.76739 0.86664 0.0
C154 C 0.98777 0.81133 0.85161 0.0
C155 C 0.96071 0.83274 0.83653 0.0
H156 H 0.69184 0.6158 0.85255 0.0
C157 C 0.6981 0.64043 0.86745 0.0
H158 H 0.75183 0.72915 0.88445 0.0
H159 H 0.79603 0.85674 0.79209 0.0
H160 H 0.67983 0.81689 0.79247 0.0
H161 H 0.61083 0.74456 0.82041 0.0
H162 H 0.65711 0.71085 0.84785 0.0
C163 C 0.74505 0.70361 0.86971 0.0
C164 C 0.78522 0.74306 0.85192 0.0
C165 C 0.75718 0.76333 0.8362 0.0
C166 C 0.7973 0.80711 0.82055 0.0
C167 C 0.768 0.82519 0.80471 0.0
C168 C 0.70136 0.80242 0.80468 0.0
C169 C 0.6625 0.76155 0.82037 0.0
C170 C 0.68978 0.74225 0.83601 0.0
H171 H 0.02965 0.96458 0.14793 0.0
C172 C 0.07315 0.99448 0.13886 0.0
H173 H 0.17095 0.0197 0.13367 0.0
H174 H 0.15682 0.90879 0.22664 0.0
H175 H 0.22361 0.02555 0.23354 0.0
H176 H 0.2465 0.10524 0.20568 0.0
H177 H 0.20231 0.06857 0.17071 0.0
C178 C 0.12622 0.98944 0.1421 0.0
C179 C 0.12412 0.94206 0.15759 0.0
C180 C 0.15221 0.96413 0.17766 0.0
C181 C 0.13954 0.91809 0.19367 0.0
C182 C 0.1655 0.94155 0.21386 0.0
C183 C 0.20385 0.00845 0.21803 0.0
C184 C 0.21672 0.05334 0.20234 0.0
C185 C 0.19109 0.03172 0.18237 0.0
H186 H 0.15811 0.79898 0.2132 0.0
C187 C 0.10703 0.77981 0.21672 0.0
H188 H 0.02129 0.78175 0.20971 0.0
H189 H 0.07369 0.88391 0.11977 0.0
H190 H 0.01104 0.76707 0.11236 0.0
H191 H 0.98894 0.68712 0.14007 0.0
H192 H 0.02949 0.7235 0.17535 0.0
C193 C 0.07286 0.80242 0.20662 0.0
C194 C 0.09958 0.85016 0.18939 0.0
C195 C 0.07635 0.82817 0.16883 0.0
C196 C 0.0888 0.87416 0.15289 0.0
C197 C 0.06472 0.85088 0.13251 0.0
C198 C 0.029 0.78402 0.12804 0.0
C199 C 0.01657 0.73901 0.14364 0.0
C200 C 0.03985 0.76052 0.16383 0.0
H201 H 0.28568 0.14848 0.45009 0.0
C202 C 0.23888 0.14015 0.45546 0.0
H203 H 0.1776 0.11981 0.48132 0.0
H204 H 0.30282 0.98285 0.53236 0.0
H205 H 0.19019 0.89575 0.52845 0.0
H206 H 0.1126 0.91073 0.50695 0.0
H207 H 0.14697 0.01306 0.48943 0.0
C208 C 0.2242 0.12833 0.47571 0.0
C209 C 0.26936 0.12213 0.4905 0.0
C210 C 0.24841 0.0618 0.50057 0.0
C211 C 0.29354 0.05267 0.51258 0.0
C212 C 0.27107 0.99207 0.52266 0.0
C213 C 0.20642 0.94168 0.52063 0.0
C214 C 0.16273 0.95016 0.50856 0.0
C215 C 0.18318 0.0093 0.49859 0.0
H216 H 0.43191 0.15576 0.54961 0.0
C217 C 0.43738 0.11691 0.5427 0.0
H218 H 0.41131 0.04896 0.51797 0.0
H219 H 0.32127 0.24879 0.47781 0.0
H220 H 0.43412 0.33603 0.48154 0.0
H221 H 0.5149 0.31703 0.49946 0.0
H222 H 0.48304 0.21135 0.51422 0.0
C223 C 0.40759 0.08934 0.52446 0.0
C224 C 0.3598 0.10345 0.51424 0.0
C225 C 0.38005 0.1649 0.50503 0.0
C226 C 0.33426 0.1748 0.49367 0.0
C227 C 0.35477 0.2377 0.48567 0.0
C228 C 0.41926 0.28835 0.48786 0.0
C229 C 0.46467 0.27772 0.49802 0.0
C230 C 0.44562 0.21682 0.50652 0.0
H231 H 0.23882 0.2251 0.80545 0.0
C232 C 0.20773 0.23671 0.79618 0.0
H233 H 0.17938 0.30635 0.79032 0.0
H234 H 0.27191 0.42731 0.88156 0.0
H235 H 0.15509 0.38396 0.88296 0.0
H236 H 0.08334 0.32137 0.85329 0.0
H237 H 0.12781 0.30159 0.82207 0.0
C238 C 0.21191 0.29498 0.79884 0.0
C239 C 0.25615 0.34192 0.81513 0.0
C240 C 0.22942 0.35446 0.83301 0.0
C241 C 0.27074 0.39057 0.85013 0.0
C242 C 0.24267 0.40039 0.86811 0.0
C243 C 0.17574 0.37579 0.86911 0.0
C244 C 0.13534 0.34055 0.8524 0.0
C245 C 0.16153 0.32961 0.83456 0.0
H246 H 0.39632 0.53507 0.8673 0.0
C247 C 0.40685 0.50112 0.87524 0.0
H248 H 0.39197 0.40547 0.87578 0.0
H249 H 0.32433 0.33904 0.78144 0.0
H250 H 0.44164 0.38592 0.77962 0.0
H251 H 0.51296 0.4463 0.80962 0.0
H252 H 0.46748 0.46065 0.84157 0.0
C253 C 0.37977 0.43893 0.86836 0.0
C254 C 0.33854 0.41425 0.84923 0.0
C255 C 0.36583 0.40624 0.83072 0.0
C256 C 0.32467 0.37056 0.81356 0.0
C257 C 0.35331 0.36421 0.79513 0.0
C258 C 0.42056 0.39125 0.79383 0.0
C259 C 0.46073 0.4253 0.81072 0.0
C260 C 0.43398 0.43294 0.82898 0.0
H261 H 0.85815 0.12891 0.73013 0.0
C262 C 0.89661 0.12083 0.72464 0.0
H263 H 0.9377 0.10148 0.69857 0.0
H264 H 0.67617 0.96441 0.64537 0.0
H265 H 0.70448 0.87993 0.64734 0.0
H266 H 0.79782 0.8959 0.66883 0.0
H267 H 0.86392 0.99671 0.68825 0.0
C268 C 0.89955 0.10969 0.70425 0.0
C269 C 0.84778 0.10321 0.68945 0.0
C270 C 0.80926 0.0436 0.67833 0.0
C271 C 0.75432 0.0337 0.66638 0.0
C272 C 0.71743 0.97405 0.65513 0.0
C273 C 0.7333 0.92517 0.65603 0.0
C274 C 0.78591 0.93421 0.66809 0.0
C275 C 0.82354 0.99251 0.67917 0.0
H276 H 0.71574 0.14208 0.63315 0.0
C277 C 0.67171 0.09951 0.63871 0.0
H278 H 0.63046 0.02402 0.6607 0.0
H279 H 0.92128 0.2293 0.70393 0.0
H280 H 0.89214 0.31347 0.70264 0.0
H281 H 0.78963 0.2917 0.68566 0.0
H282 H 0.71687 0.18668 0.66932 0.0
C283 C 0.67444 0.0675 0.65555 0.0
C284 C 0.73693 0.08273 0.66594 0.0
C285 C 0.77702 0.14343 0.67637 0.0
C286 C 0.83386 0.15449 0.68744 0.0
C287 C 0.87565 0.21711 0.69638 0.0
C288 C 0.85981 0.26603 0.69559 0.0
C289 C 0.80227 0.25388 0.68594 0.0
C290 C 0.76111 0.19338 0.67646 0.0
H291 H 0.94068 0.9578 0.03513 0.0
C292 C 0.9256 0.98789 0.04344 0.0
H293 H 0.85285 0.0135 0.04624 0.0
H294 H 0.7581 0.90924 0.95292 0.0
H295 H 0.80458 0.02621 0.94869 0.0
H296 H 0.86034 0.10287 0.97805 0.0
H297 H 0.87022 0.06307 0.01182 0.0
C298 C 0.86787 0.98224 0.03871 0.0
C299 C 0.82526 0.9356 0.02211 0.0
C300 C 0.81824 0.95953 1.00269 0.0
C301 C 0.78573 0.91528 0.98578 0.0
C302 C 0.78175 0.94064 0.96631 0.0
C303 C 0.80829 0.00766 0.96367 0.0
C304 C 0.83971 0.05084 0.9802 0.0
C305 C 0.84501 0.02737 0.9995 0.0
H306 H 0.64523 0.79477 0.96696 0.0
C307 C 0.67732 0.77783 0.96155 0.0
H308 H 0.76805 0.78319 0.96542 0.0
H309 H 0.81911 0.87306 0.05839 0.0
H310 H 0.76897 0.75579 0.06301 0.0
H311 H 0.71383 0.67913 0.0336 0.0
H312 H 0.70821 0.71925 0.99943 0.0
C313 C 0.73682 0.80181 0.97025 0.0
C314 C 0.7598 0.84728 0.98847 0.0
C315 C 0.76264 0.82306 0.00832 0.0
C316 C 0.79501 0.86723 0.0252 0.0
C317 C 0.7964 0.84167 0.04492 0.0
C318 C 0.76746 0.77447 0.04781 0.0
C319 C 0.73639 0.73131 0.03126 0.0
C320 C 0.73376 0.75501 0.01171 0.0
H321 H 0.05492 0.98153 0.35494 0.0
C322 C 0.02723 0.97328 0.36913 0.0
H323 H 0.94922 0.90287 0.38708 0.0
H324 H 0.92255 0.78909 0.2888 0.0
H325 H 0.89388 0.87036 0.27964 0.0
H326 H 0.89291 0.94511 0.30634 0.0
H327 H 0.92169 0.93961 0.34234 0.0
C328 C 0.97658 0.91307 0.37277 0.0
C329 C 0.9611 0.85826 0.35793 0.0
C330 C 0.9411 0.85991 0.33718 0.0
C331 C 0.93956 0.81534 0.32194 0.0
C332 C 0.92319 0.82072 0.3011 0.0
C333 C 0.90669 0.86724 0.29563 0.0
C334 C 0.90629 0.90943 0.31064 0.0
C335 C 0.92328 0.90605 0.3312 0.0
H336 H 0.87004 0.66353 0.30377 0.0
C337 C 0.92078 0.67931 0.30083 0.0
H338 H 0.01923 0.74516 0.30907 0.0
H339 H 0.99127 0.8352 0.39696 0.0
H340 H 0.01261 0.74907 0.40663 0.0
H341 H 0.00735 0.67012 0.38036 0.0
H342 H 0.98083 0.67694 0.34421 0.0
C343 C 0.96854 0.7308 0.31141 0.0
C344 C 0.9561 0.76795 0.32765 0.0
C345 C 0.96998 0.76239 0.34878 0.0
C346 C 0.97241 0.80753 0.36396 0.0
C347 C 0.9884 0.80199 0.38482 0.0
C348 C 1.00074 0.75276 0.39058 0.0
C349 C 0.99783 0.70834 0.37579 0.0
C350 C 0.98279 0.71293 0.3551 0.0
H351 H 0.15517 0.97162 0.71704 0.0
C352 C 0.15063 0.01311 0.7124 0.0
H353 H 0.1751 0.08673 0.69019 0.0
H354 H 0.42633 0.10068 0.65552 0.0
H355 H 0.47116 0.20399 0.67405 0.0
H356 H 0.40208 0.2273 0.69669 0.0
H357 H 0.28748 0.14755 0.70074 0.0
C358 C 0.17763 0.04391 0.69456 0.0
C359 C 0.21927 0.02689 0.68182 0.0
C360 C 0.28667 0.07347 0.67994 0.0
C361 C 0.32687 0.05934 0.66728 0.0
C362 C 0.39357 0.10788 0.66523 0.0
C363 C 0.42007 0.16768 0.67575 0.0
C364 C 0.38116 0.18085 0.68846 0.0
C365 C 0.3153 0.13458 0.69059 0.0
H366 H 0.28673 0.97746 0.61558 0.0
C367 C 0.33101 0.98068 0.62166 0.0
H368 H 0.38729 0.99196 0.64852 0.0
H369 H 0.09123 0.92826 0.68061 0.0
H370 H 0.04745 0.82234 0.66364 0.0
H371 H 0.11902 0.79446 0.64411 0.0
H372 H 0.23469 0.87298 0.64109 0.0
C373 C 0.34197 0.98609 0.64235 0.0
C374 C 0.29992 0.99812 0.65669 0.0
C375 C 0.23301 0.9506 0.65916 0.0
C376 C 0.19231 0.96555 0.67131 0.0
C377 C 0.12492 0.91864 0.67235 0.0
C378 C 0.09903 0.85774 0.66255 0.0
C379 C 0.13928 0.84213 0.65149 0.0
C380 C 0.2055 0.88781 0.64976 0.0
H381 H 0.27163 0.28192 0.05962 0.0
C382 C 0.22946 0.27625 0.05107 0.0
H383 H 0.19609 0.30254 0.02441 0.0
H384 H 0.44578 0.56698 1.00412 0.0
H385 H 0.37668 0.60468 0.01827 0.0
H386 H 0.27414 0.52847 0.0358 0.0
H387 H 0.23989 0.4138 0.0391 0.0
C388 C 0.23791 0.30693 0.03283 0.0
C389 C 0.30376 0.35319 0.02449 0.0
C390 C 0.32407 0.42048 0.02313 0.0
C391 C 0.38399 0.46467 0.01344 0.0
C392 C 0.40161 0.53122 0.01169 0.0
C393 C 0.36222 0.55364 0.01969 0.0
C394 C 0.30445 0.51073 0.02953 0.0
C395 C 0.28531 0.44494 0.03125 0.0
H396 H 0.45211 0.43619 0.9653 0.0
C397 C 0.48859 0.48078 0.97318 0.0
H398 H 0.51956 0.53306 1.00162 0.0
H399 H 0.27865 0.22687 0.02373 0.0
H400 H 0.3507 0.19005 0.01138 0.0
H401 H 0.45828 0.2682 0.99698 0.0
H402 H 0.4939 0.38362 0.99449 0.0
C403 C 0.48415 0.48784 0.9938 0.0
C404 C 0.42414 0.44168 1.00535 0.0
C405 C 0.40531 0.37493 0.00759 0.0
C406 C 0.34443 0.33034 0.01677 0.0
C407 C 0.32523 0.26331 0.01762 0.0
C408 C 0.36602 0.24142 0.01048 0.0
C409 C 0.42651 0.28539 1.00231 0.0
C410 C 0.44619 0.35141 1.00084 0.0
H411 H 0.0891 0.32616 0.39672 0.0
C412 C 0.05646 0.27768 0.39022 0.0
H413 H 0.99489 0.22285 0.36514 0.0
H414 H 0.92635 0.42851 0.33187 0.0
H415 H 0.82065 0.33798 0.34123 0.0
H416 H 0.81098 0.24311 0.35993 0.0
H417 H 0.9069 0.23783 0.36911 0.0
C418 C 0.02705 0.27135 0.37171 0.0
C419 C 0.03387 0.32912 0.36033 0.0
C420 C 0.97725 0.3322 0.35555 0.0
C421 C 0.98298 0.38783 0.34532 0.0
C422 C 0.92529 0.38841 0.34011 0.0
C423 C 0.8641 0.33656 0.34532 0.0
C424 C 0.85865 0.28311 0.3558 0.0
C425 C 0.91429 0.2807 0.36092 0.0
H426 H 0.09362 0.49257 0.30274 0.0
C427 C 0.0721 0.51729 0.31081 0.0
H428 H 0.027 0.52347 0.33813 0.0
H429 H 0.1512 0.33346 0.36286 0.0
H430 H 0.25742 0.42589 0.35481 0.0
H431 H 0.26839 0.52796 0.34125 0.0
H432 H 0.17295 0.5373 0.33503 0.0
C433 C 0.05011 0.49991 0.33031 0.0
C434 C 0.04546 0.44126 0.34037 0.0
C435 C 0.10212 0.43822 0.34512 0.0
C436 C 0.09613 0.38107 0.35435 0.0
C437 C 0.15309 0.37712 0.35716 0.0
C438 C 0.2144 0.42962 0.35239 0.0
C439 C 0.22054 0.48694 0.34465 0.0
C440 C 0.16526 0.49147 0.34101 0.0
loop_
_geom_bond_atom_site_label_1
_geom_bond_atom_site_label_2
_geom_bond_distance
_geom_bond_site_symmetry_2
_ccdc_geom_bond_type
C0 O1 1.306 . S
C0 O3 1.160 . S
O1 C0 1.306 . S
O1 Cd2 2.228 1_455 S
Cd2 O1 2.228 1_655 S
Cd2 O6 2.273 . S
Cd2 O10 2.277 1_655 S
O3 C0 1.160 . S
O3 Cd4 2.203 . S
Cd4 O3 2.203 . S
Cd4 O6 2.411 1_455 S
Cd4 O7 2.333 . S
Cd4 O8 2.352 . S
Cd4 O12 2.277 . S
Cd4 O13 2.356 . S
C5 O10 1.209 . S
C5 O12 1.226 . S
O6 Cd2 2.273 . S
O6 Cd4 2.411 1_655 S
O6 C9 1.320 . S
O7 Cd4 2.333 . S
O7 C9 1.214 1_455 S
O8 Cd4 2.352 . S
O8 C11 1.258 . S
C9 O6 1.320 . S
C9 O7 1.214 1_655 S
O10 Cd2 2.277 1_455 S
O10 C5 1.209 . S
C11 O8 1.258 . S
C11 O13 1.282 . S
O12 Cd4 2.277 . S
O12 C5 1.226 . S
O13 Cd4 2.356 . S
O13 C11 1.282 . S
C14 O15 1.306 . S
C14 O17 1.160 . S
O15 C14 1.306 . S
O15 Cd16 2.228 . S
Cd16 O15 2.228 . S
Cd16 O20 2.273 . S
Cd16 O24 2.277 . S
O17 C14 1.160 . S
O17 Cd18 2.203 . S
Cd18 O17 2.203 . S
Cd18 O20 2.411 . S
Cd18 O21 2.333 1_455 S
Cd18 O22 2.352 1_455 S
Cd18 O26 2.277 1_445 S
Cd18 O27 2.356 1_455 S
C19 O24 1.209 1_565 S
C19 O26 1.226 1_455 S
O20 Cd16 2.273 . S
O20 Cd18 2.411 . S
O20 C23 1.320 . S
O21 Cd18 2.333 1_655 S
O21 C23 1.214 1_655 S
O22 Cd18 2.352 1_655 S
O22 C25 1.258 . S
C23 O20 1.320 . S
C23 O21 1.214 1_455 S
O24 Cd16 2.277 . S
O24 C19 1.209 1_545 S
C25 O22 1.258 . S
C25 O27 1.282 . S
O26 Cd18 2.277 1_665 S
O26 C19 1.226 1_655 S
O27 Cd18 2.356 1_655 S
O27 C25 1.282 . S
C28 O29 1.306 . S
C28 O31 1.160 . S
O29 C28 1.306 . S
O29 Cd30 2.228 . S
Cd30 O29 2.228 . S
Cd30 O34 2.273 1_655 S
Cd30 O38 2.277 . S
O31 C28 1.160 . S
O31 Cd32 2.203 1_655 S
Cd32 O31 2.203 1_455 S
Cd32 O34 2.411 . S
Cd32 O35 2.333 . S
Cd32 O36 2.352 . S
Cd32 O40 2.277 1_445 S
Cd32 O41 2.356 . S
C33 O38 1.209 . S
C33 O40 1.226 1_545 S
O34 Cd30 2.273 1_455 S
O34 Cd32 2.411 . S
O34 C37 1.320 . S
O35 Cd32 2.333 . S
O35 C37 1.214 . S
O36 Cd32 2.352 . S
O36 C39 1.258 . S
C37 O34 1.320 . S
C37 O35 1.214 . S
O38 Cd30 2.277 . S
O38 C33 1.209 . S
C39 O36 1.258 . S
C39 O41 1.282 . S
O40 Cd32 2.277 1_665 S
O40 C33 1.226 1_565 S
O41 Cd32 2.356 . S
O41 C39 1.282 . S
Mg42 O49 2.141 . S
Mg42 O50 2.048 . S
Mg42 O51 2.048 . S
Mg42 O54 2.141 . S
C43 O44 1.313 1_455 S
C43 O50 1.195 . S
O44 C43 1.313 1_655 S
C45 O46 1.245 1_455 S
C45 O54 1.289 . S
O46 C45 1.245 1_655 S
C47 O48 1.245 1_455 S
C47 O49 1.289 . S
O48 C47 1.245 1_655 S
O49 Mg42 2.141 . S
O49 C47 1.289 . S
O50 Mg42 2.048 . S
O50 C43 1.195 . S
O51 Mg42 2.048 . S
O51 C52 1.195 . S
C52 O51 1.195 . S
C52 O53 1.313 1_455 S
O53 C52 1.313 1_655 S
O54 Mg42 2.141 . S
O54 C45 1.289 . S
Mg55 O62 2.141 . S
Mg55 O63 2.048 . S
Mg55 O64 2.048 . S
Mg55 O67 2.141 . S
C56 O57 1.313 . S
C56 O63 1.195 . S
O57 C56 1.313 . S
C58 O59 1.245 . S
C58 O67 1.289 . S
O59 C58 1.245 . S
C60 O61 1.245 . S
C60 O62 1.289 . S
O61 C60 1.245 . S
O62 Mg55 2.141 . S
O62 C60 1.289 . S
O63 Mg55 2.048 . S
O63 C56 1.195 . S
O64 Mg55 2.048 . S
O64 C65 1.195 . S
C65 O64 1.195 . S
C65 O66 1.313 . S
O66 C65 1.313 . S
O67 Mg55 2.141 . S
O67 C58 1.289 . S
Mg68 O75 2.141 . S
Mg68 O76 2.048 . S
Mg68 O77 2.048 . S
Mg68 O80 2.141 . S
C69 O70 1.313 . S
C69 O76 1.195 . S
O70 C69 1.313 . S
C71 O72 1.245 . S
C71 O80 1.289 . S
O72 C71 1.245 . S
C73 O74 1.245 . S
C73 O75 1.289 . S
O74 C73 1.245 . S
O75 Mg68 2.141 . S
O75 C73 1.289 . S
O76 Mg68 2.048 . S
O76 C69 1.195 . S
O77 Mg68 2.048 . S
O77 C78 1.195 . S
C78 O77 1.195 . S
C78 O79 1.313 . S
O79 C78 1.313 . S
O80 Mg68 2.141 . S
O80 C71 1.289 . S
H81 C82 0.951 . S
C82 H81 0.951 . S
C82 C88 1.265 . S
H83 C88 0.950 . S
H84 C92 0.949 . S
H85 C93 0.950 . S
H86 C94 0.951 . S
H87 C95 0.951 . S
C88 C82 1.265 . S
C88 H83 0.950 . S
C88 C89 1.478 . S
C89 C88 1.478 . S
C89 C90 1.397 . S
C89 C106 1.394 . S
C90 C89 1.397 . S
C90 C91 1.438 . S
C90 C95 1.429 1_455 S
C91 C90 1.438 . S
C91 C92 1.428 1_455 S
C91 C104 1.394 . S
C92 H84 0.949 . S
C92 C91 1.428 1_655 S
C92 C93 1.345 . S
C93 H85 0.950 . S
C93 C92 1.345 . S
C93 C94 1.424 . S
C94 H86 0.951 . S
C94 C93 1.424 . S
C94 C95 1.347 . S
C95 H87 0.951 . S
C95 C90 1.429 1_655 S
C95 C94 1.347 . S
H96 C97 0.951 . S
C97 H96 0.951 . S
C97 C103 1.265 . S
H98 C103 0.950 . S
H99 C107 0.949 . S
H100 C108 0.950 . S
H101 C109 0.951 . S
H102 C110 0.951 . S
C103 C97 1.265 . S
C103 H98 0.950 . S
C103 C104 1.478 . S
C104 C91 1.394 . S
C104 C103 1.478 . S
C104 C105 1.397 . S
C105 C104 1.397 . S
C105 C106 1.438 . S
C105 C110 1.429 . S
C106 C89 1.394 . S
C106 C105 1.438 . S
C106 C107 1.428 . S
C107 H99 0.949 . S
C107 C106 1.428 . S
C107 C108 1.345 . S
C108 H100 0.950 . S
C108 C107 1.345 . S
C108 C109 1.424 . S
C109 H101 0.951 . S
C109 C108 1.424 . S
C109 C110 1.347 . S
C110 H102 0.951 . S
C110 C105 1.429 . S
C110 C109 1.347 . S
H111 C112 0.951 . S
C112 H111 0.951 . S
C112 C118 1.265 . S
H113 C118 0.950 . S
H114 C122 0.949 . S
H115 C123 0.950 . S
H116 C124 0.951 . S
H117 C125 0.951 . S
C118 C112 1.265 . S
C118 H113 0.950 . S
C118 C119 1.478 . S
C119 C118 1.478 . S
C119 C120 1.397 . S
C119 C136 1.394 . S
C120 C119 1.397 . S
C120 C121 1.438 . S
C120 C125 1.429 1_545 S
C121 C120 1.438 . S
C121 C122 1.428 1_545 S
C121 C134 1.394 . S
C122 H114 0.949 . S
C122 C121 1.428 1_565 S
C122 C123 1.345 . S
C123 H115 0.950 . S
C123 C122 1.345 . S
C123 C124 1.424 . S
C124 H116 0.951 . S
C124 C123 1.424 . S
C124 C125 1.347 . S
C125 H117 0.951 . S
C125 C120 1.429 1_565 S
C125 C124 1.347 . S
H126 C127 0.951 . S
C127 H126 0.951 . S
C127 C133 1.265 . S
H128 C133 0.950 . S
H129 C137 0.949 . S
H130 C138 0.950 . S
H131 C139 0.951 . S
H132 C140 0.951 . S
C133 C127 1.265 . S
C133 H128 0.950 . S
C133 C134 1.478 . S
C134 C121 1.394 . S
C134 C133 1.478 . S
C134 C135 1.397 . S
C135 C134 1.397 . S
C135 C136 1.438 . S
C135 C140 1.429 . S
C136 C119 1.394 . S
C136 C135 1.438 . S
C136 C137 1.428 . S
C137 H129 0.949 . S
C137 C136 1.428 . S
C137 C138 1.345 . S
C138 H130 0.950 . S
C138 C137 1.345 . S
C138 C139 1.424 . S
C139 H131 0.951 . S
C139 C138 1.424 . S
C139 C140 1.347 . S
C140 H132 0.951 . S
C140 C135 1.429 . S
C140 C139 1.347 . S
H141 C142 0.951 . S
C142 H141 0.951 . S
C142 C148 1.265 . S
H143 C148 0.950 . S
H144 C152 0.949 . S
H145 C153 0.950 . S
H146 C154 0.951 . S
H147 C155 0.951 . S
C148 C142 1.265 . S
C148 H143 0.950 . S
C148 C149 1.478 . S
C149 C148 1.478 . S
C149 C150 1.397 . S
C149 C166 1.394 . S
C150 C149 1.397 . S
C150 C151 1.438 . S
C150 C155 1.429 . S
C151 C150 1.438 . S
C151 C152 1.428 . S
C151 C164 1.394 . S
C152 H144 0.949 . S
C152 C151 1.428 . S
C152 C153 1.345 . S
C153 H145 0.950 . S
C153 C152 1.345 . S
C153 C154 1.424 . S
C154 H146 0.951 . S
C154 C153 1.424 . S
C154 C155 1.347 . S
C155 H147 0.951 . S
C155 C150 1.429 . S
C155 C154 1.347 . S
H156 C157 0.951 . S
C157 H156 0.951 . S
C157 C163 1.265 . S
H158 C163 0.950 . S
H159 C167 0.949 . S
H160 C168 0.950 . S
H161 C169 0.951 . S
H162 C170 0.951 . S
C163 C157 1.265 . S
C163 H158 0.950 . S
C163 C164 1.478 . S
C164 C151 1.394 . S
C164 C163 1.478 . S
C164 C165 1.397 . S
C165 C164 1.397 . S
C165 C166 1.438 . S
C165 C170 1.429 . S
C166 C149 1.394 . S
C166 C165 1.438 . S
C166 C167 1.428 . S
C167 H159 0.949 . S
C167 C166 1.428 . S
C167 C168 1.345 . S
C168 H160 0.950 . S
C168 C167 1.345 . S
C168 C169 1.424 . S
C169 H161 0.951 . S
C169 C168 1.424 . S
C169 C170 1.347 . S
C170 H162 0.951 . S
C170 C165 1.429 . S
C170 C169 1.347 . S
H171 C172 0.951 . S
C172 H171 0.951 . S
C172 C178 1.265 . S
H173 C178 0.950 . S
H174 C182 0.949 . S
H175 C183 0.950 . S
H176 C184 0.951 1_545 S
H177 C185 0.951 1_545 S
C178 C172 1.265 . S
C178 H173 0.950 . S
C178 C179 1.478 . S
C179 C178 1.478 . S
C179 C180 1.397 . S
C179 C196 1.394 . S
C180 C179 1.397 . S
C180 C181 1.438 . S
C180 C185 1.429 . S
C181 C180 1.438 . S
C181 C182 1.428 . S
C181 C194 1.394 . S
C182 H174 0.949 . S
C182 C181 1.428 . S
C182 C183 1.345 . S
C183 H175 0.950 . S
C183 C182 1.345 . S
C183 C184 1.424 . S
C184 H176 0.951 1_565 S
C184 C183 1.424 . S
C184 C185 1.347 . S
C185 H177 0.951 1_565 S
C185 C180 1.429 . S
C185 C184 1.347 . S
H186 C187 0.951 . S
C187 H186 0.951 . S
C187 C193 1.265 . S
H188 C193 0.950 1_655 S
H189 C197 0.949 1_455 S
H190 C198 0.950 . S
H191 C199 0.951 . S
H192 C200 0.951 . S
C193 C187 1.265 . S
C193 H188 0.950 1_455 S
C193 C194 1.478 . S
C194 C181 1.394 . S
C194 C193 1.478 . S
C194 C195 1.397 . S
C195 C194 1.397 . S
C195 C196 1.438 . S
C195 C200 1.429 1_455 S
C196 C179 1.394 . S
C196 C195 1.438 . S
C196 C197 1.428 1_455 S
C197 H189 0.949 1_655 S
C197 C196 1.428 1_655 S
C197 C198 1.345 . S
C198 H190 0.950 . S
C198 C197 1.345 . S
C198 C199 1.424 . S
C199 H191 0.951 . S
C199 C198 1.424 . S
C199 C200 1.347 . S
C200 H192 0.951 . S
C200 C195 1.429 1_655 S
C200 C199 1.347 . S
H201 C202 0.951 . S
C202 H201 0.951 . S
C202 C208 1.265 . S
H203 C208 0.950 . S
H204 C212 0.949 . S
H205 C213 0.950 . S
H206 C214 0.951 . S
H207 C215 0.951 . S
C208 C202 1.265 . S
C208 H203 0.950 . S
C208 C209 1.478 . S
C209 C208 1.478 . S
C209 C210 1.397 . S
C209 C226 1.394 . S
C210 C209 1.397 . S
C210 C211 1.438 . S
C210 C215 1.429 1_545 S
C211 C210 1.438 . S
C211 C212 1.428 1_545 S
C211 C224 1.394 . S
C212 H204 0.949 . S
C212 C211 1.428 1_565 S
C212 C213 1.345 . S
C213 H205 0.950 . S
C213 C212 1.345 . S
C213 C214 1.424 . S
C214 H206 0.951 . S
C214 C213 1.424 . S
C214 C215 1.347 . S
C215 H207 0.951 . S
C215 C210 1.429 1_565 S
C215 C214 1.347 . S
H216 C217 0.951 . S
C217 H216 0.951 . S
C217 C223 1.265 . S
H218 C223 0.950 . S
H219 C227 0.949 . S
H220 C228 0.950 . S
H221 C229 0.951 . S
H222 C230 0.951 . S
C223 C217 1.265 . S
C223 H218 0.950 . S
C223 C224 1.478 . S
C224 C211 1.394 . S
C224 C223 1.478 . S
C224 C225 1.397 . S
C225 C224 1.397 . S
C225 C226 1.438 . S
C225 C230 1.429 . S
C226 C209 1.394 . S
C226 C225 1.438 . S
C226 C227 1.428 . S
C227 H219 0.949 . S
C227 C226 1.428 . S
C227 C228 1.345 . S
C228 H220 0.950 . S
C228 C227 1.345 . S
C228 C229 1.424 . S
C229 H221 0.951 . S
C229 C228 1.424 . S
C229 C230 1.347 . S
C230 H222 0.951 . S
C230 C225 1.429 . S
C230 C229 1.347 . S
H231 C232 0.951 . S
C232 H231 0.951 . S
C232 C238 1.265 . S
H233 C238 0.950 . S
H234 C242 0.949 . S
H235 C243 0.950 . S
H236 C244 0.951 . S
H237 C245 0.951 . S
C238 C232 1.265 . S
C238 H233 0.950 . S
C238 C239 1.478 . S
C239 C238 1.478 . S
C239 C240 1.397 . S
C239 C256 1.394 . S
C240 C239 1.397 . S
C240 C241 1.438 . S
C240 C245 1.429 . S
C241 C240 1.438 . S
C241 C242 1.428 . S
C241 C254 1.394 . S
C242 H234 0.949 . S
C242 C241 1.428 . S
C242 C243 1.345 . S
C243 H235 0.950 . S
C243 C242 1.345 . S
C243 C244 1.424 . S
C244 H236 0.951 . S
C244 C243 1.424 . S
C244 C245 1.347 . S
C245 H237 0.951 . S
C245 C240 1.429 . S
C245 C244 1.347 . S
H246 C247 0.951 . S
C247 H246 0.951 . S
C247 C253 1.265 . S
H248 C253 0.950 . S
H249 C257 0.949 . S
H250 C258 0.950 . S
H251 C259 0.951 . S
H252 C260 0.951 . S
C253 C247 1.265 . S
C253 H248 0.950 . S
C253 C254 1.478 . S
C254 C241 1.394 . S
C254 C253 1.478 . S
C254 C255 1.397 . S
C255 C254 1.397 . S
C255 C256 1.438 . S
C255 C260 1.429 . S
C256 C239 1.394 . S
C256 C255 1.438 . S
C256 C257 1.428 . S
C257 H249 0.949 . S
C257 C256 1.428 . S
C257 C258 1.345 . S
C258 H250 0.950 . S
C258 C257 1.345 . S
C258 C259 1.424 . S
C259 H251 0.951 . S
C259 C258 1.424 . S
C259 C260 1.347 . S
C260 H252 0.951 . S
C260 C255 1.429 . S
C260 C259 1.347 . S
H261 C262 0.951 . S
C262 H261 0.951 . S
C262 C268 1.265 . S
H263 C268 0.950 . S
H264 C272 0.949 . S
H265 C273 0.950 . S
H266 C274 0.951 . S
H267 C275 0.951 . S
C268 C262 1.265 . S
C268 H263 0.950 . S
C268 C269 1.478 . S
C269 C268 1.478 . S
C269 C270 1.397 . S
C269 C286 1.394 . S
C270 C269 1.397 . S
C270 C271 1.438 . S
C270 C275 1.429 1_545 S
C271 C270 1.438 . S
C271 C272 1.428 1_545 S
C271 C284 1.394 . S
C272 H264 0.949 . S
C272 C271 1.428 1_565 S
C272 C273 1.345 . S
C273 H265 0.950 . S
C273 C272 1.345 . S
C273 C274 1.424 . S
C274 H266 0.951 . S
C274 C273 1.424 . S
C274 C275 1.347 . S
C275 H267 0.951 . S
C275 C270 1.429 1_565 S
C275 C274 1.347 . S
H276 C277 0.951 . S
C277 H276 0.951 . S
C277 C283 1.265 . S
H278 C283 0.950 . S
H279 C287 0.949 . S
H280 C288 0.950 . S
H281 C289 0.951 . S
H282 C290 0.951 . S
C283 C277 1.265 . S
C283 H278 0.950 . S
C283 C284 1.478 . S
C284 C271 1.394 . S
C284 C283 1.478 . S
C284 C285 1.397 . S
C285 C284 1.397 . S
C285 C286 1.438 . S
C285 C290 1.429 . S
C286 C269 1.394 . S
C286 C285 1.438 . S
C286 C287 1.428 . S
C287 H279 0.949 . S
C287 C286 1.428 . S
C287 C288 1.345 . S
C288 H280 0.950 . S
C288 C287 1.345 . S
C288 C289 1.424 . S
C289 H281 0.951 . S
C289 C288 1.424 . S
C289 C290 1.347 . S
C290 H282 0.951 . S
C290 C285 1.429 . S
C290 C289 1.347 . S
H291 C292 0.951 . S
C292 H291 0.951 . S
C292 C298 1.265 . S
H293 C298 0.950 . S
H294 C302 0.949 . S
H295 C303 0.950 . S
H296 C304 0.951 . S
H297 C305 0.950 1_544 S
C298 C292 1.265 . S
C298 H293 0.950 . S
C298 C299 1.478 . S
C299 C298 1.478 . S
C299 C300 1.397 1_554 S
C299 C316 1.394 . S
C300 C299 1.397 1_556 S
C300 C301 1.438 . S
C300 C305 1.431 . S
C301 C300 1.438 . S
C301 C302 1.428 . S
C301 C314 1.394 . S
C302 H294 0.949 . S
C302 C301 1.428 . S
C302 C303 1.345 . S
C303 H295 0.950 . S
C303 C302 1.345 . S
C303 C304 1.424 1_565 S
C304 H296 0.951 . S
C304 C303 1.424 1_545 S
C304 C305 1.346 1_545 S
C305 H297 0.950 1_566 S
C305 C300 1.431 . S
C305 C304 1.346 1_565 S
H306 C307 0.951 . S
C307 H306 0.951 . S
C307 C313 1.265 . S
H308 C313 0.950 . S
H309 C317 0.949 . S
H310 C318 0.950 . S
H311 C319 0.951 . S
H312 C320 0.951 . S
C313 C307 1.265 . S
C313 H308 0.950 . S
C313 C314 1.478 . S
C314 C301 1.394 . S
C314 C313 1.478 . S
C314 C315 1.397 1_556 S
C315 C314 1.397 1_554 S
C315 C316 1.438 . S
C315 C320 1.429 . S
C316 C299 1.394 . S
C316 C315 1.438 . S
C316 C317 1.428 . S
C317 H309 0.949 . S
C317 C316 1.428 . S
C317 C318 1.345 . S
C318 H310 0.950 . S
C318 C317 1.345 . S
C318 C319 1.424 . S
C319 H311 0.951 . S
C319 C318 1.424 . S
C319 C320 1.347 . S
C320 H312 0.951 . S
C320 C315 1.429 . S
C320 C319 1.347 . S
H321 C322 0.951 . S
C322 H321 0.951 . S
C322 C328 1.265 . S
H323 C328 0.950 1_655 S
H324 C332 0.949 . S
H325 C333 0.950 . S
H326 C334 0.951 . S
H327 C335 0.951 . S
C328 C322 1.265 . S
C328 H323 0.950 1_455 S
C328 C329 1.478 . S
C329 C328 1.478 . S
C329 C330 1.397 . S
C329 C346 1.394 . S
C330 C329 1.397 . S
C330 C331 1.438 . S
C330 C335 1.429 . S
C331 C330 1.438 . S
C331 C332 1.428 . S
C331 C344 1.394 . S
C332 H324 0.949 . S
C332 C331 1.428 . S
C332 C333 1.345 . S
C333 H325 0.950 . S
C333 C332 1.345 . S
C333 C334 1.424 . S
C334 H326 0.951 . S
C334 C333 1.424 . S
C334 C335 1.347 . S
C335 H327 0.951 . S
C335 C330 1.429 . S
C335 C334 1.347 . S
H336 C337 0.951 . S
C337 H336 0.951 . S
C337 C343 1.265 . S
H338 C343 0.950 . S
H339 C347 0.949 . S
H340 C348 0.950 . S
H341 C349 0.951 . S
H342 C350 0.951 . S
C343 C337 1.265 . S
C343 H338 0.950 . S
C343 C344 1.478 . S
C344 C331 1.394 . S
C344 C343 1.478 . S
C344 C345 1.397 . S
C345 C344 1.397 . S
C345 C346 1.438 . S
C345 C350 1.429 . S
C346 C329 1.394 . S
C346 C345 1.438 . S
C346 C347 1.428 . S
C347 H339 0.949 . S
C347 C346 1.428 . S
C347 C348 1.345 . S
C348 H340 0.950 . S
C348 C347 1.345 . S
C348 C349 1.424 . S
C349 H341 0.951 . S
C349 C348 1.424 . S
C349 C350 1.347 . S
C350 H342 0.951 . S
C350 C345 1.429 . S
C350 C349 1.347 . S
H351 C352 0.951 . S
C352 H351 0.951 . S
C352 C358 1.265 . S
H353 C358 0.950 . S
H354 C362 0.949 . S
H355 C363 0.950 . S
H356 C364 0.951 . S
H357 C365 0.951 . S
C358 C352 1.265 . S
C358 H353 0.950 . S
C358 C359 1.478 . S
C359 C358 1.478 . S
C359 C360 1.397 . S
C359 C376 1.394 . S
C360 C359 1.397 . S
C360 C361 1.438 . S
C360 C365 1.429 . S
C361 C360 1.438 . S
C361 C362 1.428 . S
C361 C374 1.394 . S
C362 H354 0.949 . S
C362 C361 1.428 . S
C362 C363 1.345 . S
C363 H355 0.950 . S
C363 C362 1.345 . S
C363 C364 1.424 . S
C364 H356 0.951 . S
C364 C363 1.424 . S
C364 C365 1.347 . S
C365 H357 0.951 . S
C365 C360 1.429 . S
C365 C364 1.347 . S
H366 C367 0.951 . S
C367 H366 0.951 . S
C367 C373 1.265 . S
H368 C373 0.950 . S
H369 C377 0.949 . S
H370 C378 0.950 . S
H371 C379 0.951 . S
H372 C380 0.951 . S
C373 C367 1.265 . S
C373 H368 0.950 . S
C373 C374 1.478 . S
C374 C361 1.394 . S
C374 C373 1.478 . S
C374 C375 1.397 . S
C375 C374 1.397 . S
C375 C376 1.438 . S
C375 C380 1.429 1_545 S
C376 C359 1.394 . S
C376 C375 1.438 . S
C376 C377 1.428 1_545 S
C377 H369 0.949 . S
C377 C376 1.428 1_565 S
C377 C378 1.345 . S
C378 H370 0.950 . S
C378 C377 1.345 . S
C378 C379 1.424 . S
C379 H371 0.951 . S
C379 C378 1.424 . S
C379 C380 1.347 . S
C380 H372 0.951 . S
C380 C375 1.429 1_565 S
C380 C379 1.347 . S
H381 C382 0.951 . S
C382 H381 0.951 . S
C382 C388 1.265 . S
H383 C388 0.950 . S
H384 C392 0.949 . S
H385 C393 0.950 . S
H386 C394 0.951 . S
H387 C395 0.951 . S
C388 C382 1.265 . S
C388 H383 0.950 . S
C388 C389 1.478 . S
C389 C388 1.478 . S
C389 C390 1.397 . S
C389 C406 1.366 1_554 S
C390 C389 1.397 . S
C390 C391 1.438 . S
C390 C395 1.429 . S
C391 C390 1.438 . S
C391 C392 1.428 . S
C391 C404 1.394 1_554 S
C392 H384 0.949 . S
C392 C391 1.428 . S
C392 C393 1.345 . S
C393 H385 0.950 . S
C393 C392 1.345 . S
C393 C394 1.424 . S
C394 H386 0.951 . S
C394 C393 1.424 . S
C394 C395 1.347 . S
C395 H387 0.951 . S
C395 C390 1.429 . S
C395 C394 1.347 . S
H396 C397 0.951 . S
C397 H396 0.951 . S
C397 C403 1.265 . S
H398 C403 0.950 . S
H399 C407 0.949 1_554 S
H400 C408 0.950 . S
H401 C409 0.951 . S
H402 C410 0.951 . S
C403 C397 1.265 . S
C403 H398 0.950 . S
C403 C404 1.478 . S
C404 C391 1.394 1_556 S
C404 C403 1.478 . S
C404 C405 1.397 . S
C405 C404 1.397 . S
C405 C406 1.461 . S
C405 C410 1.429 . S
C406 C389 1.366 1_556 S
C406 C405 1.461 . S
C406 C407 1.435 . S
C407 H399 0.949 1_556 S
C407 C406 1.435 . S
C407 C408 1.345 . S
C408 H400 0.950 . S
C408 C407 1.345 . S
C408 C409 1.424 . S
C409 H401 0.951 . S
C409 C408 1.424 . S
C409 C410 1.347 . S
C410 H402 0.951 . S
C410 C405 1.429 . S
C410 C409 1.347 . S
H411 C412 0.951 . S
C412 H411 0.951 . S
C412 C418 1.265 . S
H413 C418 0.950 . S
H414 C422 0.949 . S
H415 C423 0.950 . S
H416 C424 0.951 . S
H417 C425 0.951 . S
C418 C412 1.265 . S
C418 H413 0.950 . S
C418 C419 1.478 . S
C419 C418 1.478 . S
C419 C420 1.397 . S
C419 C436 1.394 . S
C420 C419 1.397 . S
C420 C421 1.438 . S
C420 C425 1.429 1_455 S
C421 C420 1.438 . S
C421 C422 1.428 1_455 S
C421 C434 1.394 . S
C422 H414 0.949 . S
C422 C421 1.428 1_655 S
C422 C423 1.345 . S
C423 H415 0.950 . S
C423 C422 1.345 . S
C423 C424 1.424 . S
C424 H416 0.951 . S
C424 C423 1.424 . S
C424 C425 1.347 . S
C425 H417 0.951 . S
C425 C420 1.429 1_655 S
C425 C424 1.347 . S
H426 C427 0.951 . S
C427 H426 0.951 . S
C427 C433 1.265 . S
H428 C433 0.950 . S
H429 C437 0.949 . S
H430 C438 0.950 . S
H431 C439 0.951 . S
H432 C440 0.951 . S
C433 C427 1.265 . S
C433 H428 0.950 . S
C433 C434 1.478 . S
C434 C421 1.394 . S
C434 C433 1.478 . S
C434 C435 1.397 . S
C435 C434 1.397 . S
C435 C436 1.438 . S
C435 C440 1.429 . S
C436 C419 1.394 . S
C436 C435 1.438 . S
C436 C437 1.428 . S
C437 H429 0.949 . S
C437 C436 1.428 . S
C437 C438 1.345 . S
C438 H430 0.950 . S
C438 C437 1.345 . S
C438 C439 1.424 . S
C439 H431 0.951 . S
C439 C438 1.424 . S
C439 C440 1.347 . S
C440 H432 0.951 . S
C440 C435 1.429 . S
C440 C439 1.347 . S
C97 C47 1.389 . S
C82 C0 1.399 . S
C112 C25 1.473 . S
C127 C65 1.461 . S
C142 C33 1.482 1_565 S
C157 C78 1.463 . S
C172 C11 1.360 1_565 S
C187 C45 1.370 . S
C217 C56 1.474 . S
C202 C14 1.464 . S
C232 C37 1.472 . S
C247 C69 1.493 . S
C277 C58 1.395 . S
C262 C28 1.395 . S
C292 C9 1.400 1_565 S
C307 C71 1.433 . S
C337 C52 1.482 . S
C322 C19 1.498 . S
C367 C60 1.392 . S
C352 C39 1.401 . S
C397 C73 1.439 . S
C382 C5 1.436 . S
C412 C23 1.517 . S
C427 C43 1.535 . S
