# Generated by pormake.
# Topology ctn, (3,4)-cn, num edge types: 1
# Building blocks:
#     Node 0, Type 0, BuildingBlock: WUSLED_clean_sbu_0, # of connection points: 3
#     Node 1, Type 0, BuildingBlock: WUSLED_clean_sbu_0, # of connection points: 3
#     Node 2, Type 0, BuildingBlock: WUSLED_clean_sbu_0, # of connection points: 3
#     Node 3, Type 0, BuildingBlock: WUSLED_clean_sbu_0, # of connection points: 3
#     Node 4, Type 0, BuildingBlock: WUSLED_clean_sbu_0, # of connection points: 3
#     Node 5, Type 0, BuildingBlock: WUSLED_clean_sbu_0, # of connection points: 3
#     Node 6, Type 0, BuildingBlock: WUSLED_clean_sbu_0, # of connection points: 3
#     Node 7, Type 0, BuildingBlock: WUSLED_clean_sbu_0, # of connection points: 3
#     Node 8, Type 0, BuildingBlock: WUSLED_clean_sbu_0, # of connection points: 3
#     Node 9, Type 0, BuildingBlock: WUSLED_clean_sbu_0, # of connection points: 3
#     Node 10, Type 0, BuildingBlock: WUSLED_clean_sbu_0, # of connection points: 3
#     Node 11, Type 0, BuildingBlock: WUSLED_clean_sbu_0, # of connection points: 3
#     Node 12, Type 0, BuildingBlock: WUSLED_clean_sbu_0, # of connection points: 3
#     Node 13, Type 0, BuildingBlock: WUSLED_clean_sbu_0, # of connection points: 3
#     Node 14, Type 0, BuildingBlock: WUSLED_clean_sbu_0, # of connection points: 3
#     Node 15, Type 0, BuildingBlock: WUSLED_clean_sbu_0, # of connection points: 3
#     Node 16, Type 1, BuildingBlock: QUQFOY_clean_sbu_1, # of connection points: 4
#     Node 17, Type 1, BuildingBlock: QUQFOY_clean_sbu_1, # of connection points: 4
#     Node 18, Type 1, BuildingBlock: QUQFOY_clean_sbu_1, # of connection points: 4
#     Node 19, Type 1, BuildingBlock: QUQFOY_clean_sbu_1, # of connection points: 4
#     Node 20, Type 1, BuildingBlock: QUQFOY_clean_sbu_1, # of connection points: 4
#     Node 21, Type 1, BuildingBlock: QUQFOY_clean_sbu_1, # of connection points: 4
#     Node 22, Type 1, BuildingBlock: QUQFOY_clean_sbu_1, # of connection points: 4
#     Node 23, Type 1, BuildingBlock: QUQFOY_clean_sbu_1, # of connection points: 4
#     Node 24, Type 1, BuildingBlock: QUQFOY_clean_sbu_1, # of connection points: 4
#     Node 25, Type 1, BuildingBlock: QUQFOY_clean_sbu_1, # of connection points: 4
#     Node 26, Type 1, BuildingBlock: QUQFOY_clean_sbu_1, # of connection points: 4
#     Node 27, Type 1, BuildingBlock: QUQFOY_clean_sbu_1, # of connection points: 4
#     Edge 28, Type (0, 1), BuildingBlock: TEMPAE_clean_linker_10, # of connection points: 2
#     Edge 29, Type (0, 1), BuildingBlock: TEMPAE_clean_linker_10, # of connection points: 2
#     Edge 30, Type (0, 1), BuildingBlock: TEMPAE_clean_linker_10, # of connection points: 2
#     Edge 31, Type (0, 1), BuildingBlock: TEMPAE_clean_linker_10, # of connection points: 2
#     Edge 32, Type (0, 1), BuildingBlock: TEMPAE_clean_linker_10, # of connection points: 2
#     Edge 33, Type (0, 1), BuildingBlock: TEMPAE_clean_linker_10, # of connection points: 2
#     Edge 34, Type (0, 1), BuildingBlock: TEMPAE_clean_linker_10, # of connection points: 2
#     Edge 35, Type (0, 1), BuildingBlock: TEMPAE_clean_linker_10, # of connection points: 2
#     Edge 36, Type (0, 1), BuildingBlock: TEMPAE_clean_linker_10, # of connection points: 2
#     Edge 37, Type (0, 1), BuildingBlock: TEMPAE_clean_linker_10, # of connection points: 2
#     Edge 38, Type (0, 1), BuildingBlock: TEMPAE_clean_linker_10, # of connection points: 2
#     Edge 39, Type (0, 1), BuildingBlock: TEMPAE_clean_linker_10, # of connection points: 2
#     Edge 40, Type (0, 1), BuildingBlock: TEMPAE_clean_linker_10, # of connection points: 2
#     Edge 41, Type (0, 1), BuildingBlock: TEMPAE_clean_linker_10, # of connection points: 2
#     Edge 42, Type (0, 1), BuildingBlock: TEMPAE_clean_linker_10, # of connection points: 2
#     Edge 43, Type (0, 1), BuildingBlock: TEMPAE_clean_linker_10, # of connection points: 2
#     Edge 44, Type (0, 1), BuildingBlock: TEMPAE_clean_linker_10, # of connection points: 2
#     Edge 45, Type (0, 1), BuildingBlock: TEMPAE_clean_linker_10, # of connection points: 2
#     Edge 46, Type (0, 1), BuildingBlock: TEMPAE_clean_linker_10, # of connection points: 2
#     Edge 47, Type (0, 1), BuildingBlock: TEMPAE_clean_linker_10, # of connection points: 2
#     Edge 48, Type (0, 1), BuildingBlock: TEMPAE_clean_linker_10, # of connection points: 2
#     Edge 49, Type (0, 1), BuildingBlock: TEMPAE_clean_linker_10, # of connection points: 2
#     Edge 50, Type (0, 1), BuildingBlock: TEMPAE_clean_linker_10, # of connection points: 2
#     Edge 51, Type (0, 1), BuildingBlock: TEMPAE_clean_linker_10, # of connection points: 2
#     Edge 52, Type (0, 1), BuildingBlock: TEMPAE_clean_linker_10, # of connection points: 2
#     Edge 53, Type (0, 1), BuildingBlock: TEMPAE_clean_linker_10, # of connection points: 2
#     Edge 54, Type (0, 1), BuildingBlock: TEMPAE_clean_linker_10, # of connection points: 2
#     Edge 55, Type (0, 1), BuildingBlock: TEMPAE_clean_linker_10, # of connection points: 2
#     Edge 56, Type (0, 1), BuildingBlock: TEMPAE_clean_linker_10, # of connection points: 2
#     Edge 57, Type (0, 1), BuildingBlock: TEMPAE_clean_linker_10, # of connection points: 2
#     Edge 58, Type (0, 1), BuildingBlock: TEMPAE_clean_linker_10, # of connection points: 2
#     Edge 59, Type (0, 1), BuildingBlock: TEMPAE_clean_linker_10, # of connection points: 2
#     Edge 60, Type (0, 1), BuildingBlock: TEMPAE_clean_linker_10, # of connection points: 2
#     Edge 61, Type (0, 1), BuildingBlock: TEMPAE_clean_linker_10, # of connection points: 2
#     Edge 62, Type (0, 1), BuildingBlock: TEMPAE_clean_linker_10, # of connection points: 2
#     Edge 63, Type (0, 1), BuildingBlock: TEMPAE_clean_linker_10, # of connection points: 2
#     Edge 64, Type (0, 1), BuildingBlock: TEMPAE_clean_linker_10, # of connection points: 2
#     Edge 65, Type (0, 1), BuildingBlock: TEMPAE_clean_linker_10, # of connection points: 2
#     Edge 66, Type (0, 1), BuildingBlock: TEMPAE_clean_linker_10, # of connection points: 2
#     Edge 67, Type (0, 1), BuildingBlock: TEMPAE_clean_linker_10, # of connection points: 2
#     Edge 68, Type (0, 1), BuildingBlock: TEMPAE_clean_linker_10, # of connection points: 2
#     Edge 69, Type (0, 1), BuildingBlock: TEMPAE_clean_linker_10, # of connection points: 2
#     Edge 70, Type (0, 1), BuildingBlock: TEMPAE_clean_linker_10, # of connection points: 2
#     Edge 71, Type (0, 1), BuildingBlock: TEMPAE_clean_linker_10, # of connection points: 2
#     Edge 72, Type (0, 1), BuildingBlock: TEMPAE_clean_linker_10, # of connection points: 2
#     Edge 73, Type (0, 1), BuildingBlock: TEMPAE_clean_linker_10, # of connection points: 2
#     Edge 74, Type (0, 1), BuildingBlock: TEMPAE_clean_linker_10, # of connection points: 2
#     Edge 75, Type (0, 1), BuildingBlock: TEMPAE_clean_linker_10, # of connection points: 2
# Relax obj value: 0.036
# Max RMSD: 0.140
# Mean RMSD: 0.064
data_MOF--net-ctn--node1-WUSLED_clean_sbu_0--node2-QUQFOY_clean_sbu_1--edge1-TEMPAE_clean_linker_10
_symmetry_space_group_name_H-M    P1
_symmetry_Int_Tables_number       1
_symmetry_cell_setting            triclinic
loop_
_symmetry_equiv_pos_as_xyz
'x, y, z'
_cell_length_a     72.042329
_cell_length_b     72.484085
_cell_length_c     72.551555
_cell_angle_alpha  93.348513
_cell_angle_beta   90.035987
_cell_angle_gamma 94.303555
loop_
_atom_site_label
_atom_site_type_symbol
_atom_site_fract_x
_atom_site_fract_y
_atom_site_fract_z
_atom_type_partial_charge
C0 C 0.01175 0.09256 0.10164 0.0
C1 C 0.00513 0.07418 0.10439 0.0
C2 C 0.9898 0.0842 0.1328 0.0
C3 C 0.9942 0.07007 0.11977 0.0
C4 C 0.99674 0.10251 0.1302 0.0
C5 C 0.00752 0.10665 0.11472 0.0
U6 U 0.05127 0.08523 0.0671 0.0
O7 O 0.05114 0.08575 0.03678 0.0
O8 O 0.06973 0.10564 0.05329 0.0
C9 C 0.06291 0.10051 0.03681 0.0
C10 C 0.02254 0.0974 0.08504 0.0
C11 C 0.05728 0.11552 0.02567 0.0
C12 C 0.04028 0.14283 0.02199 0.0
C13 C 0.04556 0.12874 0.03288 0.0
C14 C 0.05826 0.13051 0.99654 0.0
C15 C 0.04654 0.14385 0.00366 0.0
C16 C 0.06359 0.1165 0.00746 0.0
C17 C 0.08384 0.0463 0.0744 0.0
C18 C 0.1007 0.02763 0.05205 0.0
C19 C 0.1108 0.03086 0.08399 0.0
C20 C 0.0963 0.04218 0.08819 0.0
C21 C 0.11307 0.0233 0.06591 0.0
C22 C 0.08626 0.03908 0.05623 0.0
C23 C 0.06809 0.05748 0.07954 0.0
O24 O 0.03969 0.10451 0.08797 0.0
O25 O 0.02102 0.0853 0.07079 0.0
O26 O 0.05334 0.05527 0.06873 0.0
O27 O 0.07245 0.07488 0.08501 0.0
H28 H 0.00827 0.06299 0.09462 0.0
H29 H 0.98928 0.0558 0.12153 0.0
H30 H 0.99349 0.1137 0.13994 0.0
H31 H 0.01243 0.12092 0.11287 0.0
H32 H 0.03106 0.15274 0.02782 0.0
H33 H 0.04043 0.12813 0.04689 0.0
H34 H 0.06348 0.131 0.98257 0.0
H35 H 0.07265 0.10641 1.00167 0.0
H36 H 0.10223 0.02222 0.03795 0.0
H37 H 0.11998 0.02767 0.09501 0.0
H38 H 0.09465 0.04754 0.1023 0.0
H39 H 0.07692 0.04211 0.04529 0.0
C40 C 0.27105 0.75763 0.19158 0.0
C41 C 0.27481 0.77646 0.19709 0.0
C42 C 0.26824 0.78523 0.1659 0.0
C43 C 0.27337 0.79012 0.18438 0.0
C44 C 0.2648 0.76632 0.16045 0.0
C45 C 0.26613 0.75271 0.17316 0.0
U46 U 0.29351 0.73408 0.23134 0.0
O47 O 0.28049 0.72061 0.25496 0.0
O48 O 0.2961 0.70436 0.23464 0.0
C49 C 0.28519 0.70408 0.24915 0.0
C50 C 0.2717 0.74289 0.20473 0.0
C51 C 0.27042 0.68882 0.24895 0.0
C52 C 0.23779 0.67739 0.24941 0.0
C53 C 0.25144 0.69212 0.24857 0.0
C54 C 0.26185 0.65586 0.25046 0.0
C55 C 0.24286 0.65912 0.25048 0.0
C56 C 0.27547 0.67057 0.24977 0.0
C57 C 0.339 0.75402 0.25409 0.0
C58 C 0.34946 0.74998 0.28541 0.0
C59 C 0.37204 0.75691 0.26159 0.0
C60 C 0.3576 0.75728 0.24874 0.0
C61 C 0.36811 0.75341 0.2801 0.0
C62 C 0.33504 0.75017 0.27252 0.0
C63 C 0.324 0.75473 0.24031 0.0
O64 O 0.28502 0.73159 0.20206 0.0
O65 O 0.26913 0.74771 0.22225 0.0
O66 O 0.3075 0.75816 0.24683 0.0
O67 O 0.32334 0.7416 0.22698 0.0
H68 H 0.27869 0.78064 0.21123 0.0
H69 H 0.27597 0.80453 0.18912 0.0
H70 H 0.26121 0.76197 0.14628 0.0
H71 H 0.26325 0.73828 0.16859 0.0
H72 H 0.22326 0.6803 0.24921 0.0
H73 H 0.24715 0.70606 0.24782 0.0
H74 H 0.2662 0.64197 0.25148 0.0
H75 H 0.29002 0.66773 0.25013 0.0
H76 H 0.34604 0.74707 0.29954 0.0
H77 H 0.38626 0.75976 0.25713 0.0
H78 H 0.36097 0.76024 0.23461 0.0
H79 H 0.32082 0.74739 0.27699 0.0
C80 C 0.9493 0.45445 0.01928 0.0
C81 C 0.95927 0.44156 0.0281 0.0
C82 C 0.96004 0.42231 0.99943 0.0
C83 C 0.96454 0.4256 0.01829 0.0
C84 C 0.9501 0.43538 0.99068 0.0
C85 C 0.94477 0.45127 1.00053 0.0
U86 U 0.95484 0.48938 0.06041 0.0
O87 O 0.95545 0.51987 0.06167 0.0
O88 O 0.93408 0.50378 0.07679 0.0
C89 C 0.94012 0.52019 0.07146 0.0
C90 C 0.94397 0.47145 0.02934 0.0
C91 C 0.9258 0.53157 0.06456 0.0
C92 C 0.8985 0.53506 0.04569 0.0
C93 C 0.91221 0.52409 0.05179 0.0
C94 C 0.91202 0.56118 0.0648 0.0
C95 C 0.89823 0.55374 0.05215 0.0
C96 C 0.92564 0.55018 0.07096 0.0
C97 C 0.99124 0.48095 0.09749 0.0
C98 C 0.00946 0.50298 0.11812 0.0
C99 C 0.00531 0.4707 0.12523 0.0
C100 C 0.99457 0.46683 0.10922 0.0
C101 C 0.01306 0.48878 0.12976 0.0
C102 C 0.99859 0.49912 0.10217 0.0
C103 C 0.98082 0.47614 0.08014 0.0
O104 O 0.93547 0.46908 0.04515 0.0
O105 O 0.95687 0.48528 0.0302 0.0
O106 O 0.98441 0.48699 0.06647 0.0
O107 O 0.96301 0.47114 0.08183 0.0
H108 H 0.96298 0.44384 0.04258 0.0
H109 H 0.97199 0.41576 0.02552 0.0
H110 H 0.94666 0.43347 0.97613 0.0
H111 H 0.93722 0.46117 0.99347 0.0
H112 H 0.88823 0.52898 0.03578 0.0
H113 H 0.91218 0.50977 0.04659 0.0
H114 H 0.9121 0.57544 0.07017 0.0
H115 H 0.93601 0.55618 0.08082 0.0
H116 H 0.01504 0.51709 0.12138 0.0
H117 H 0.00795 0.45944 0.13383 0.0
H118 H 0.98909 0.45271 0.10583 0.0
H119 H 0.99614 0.5103 0.09341 0.0
C120 C 0.7138 0.77874 0.19596 0.0
C121 C 0.7199 0.78756 0.18009 0.0
C122 C 0.72464 0.75765 0.16427 0.0
C123 C 0.72517 0.77712 0.16438 0.0
C124 C 0.71886 0.74894 0.18037 0.0
C125 C 0.71345 0.75939 0.19602 0.0
U126 U 0.71838 0.82142 0.2295 0.0
O127 O 0.69697 0.83794 0.24246 0.0
O128 O 0.71588 0.8239 0.25974 0.0
C129 C 0.70122 0.83363 0.25922 0.0
C130 C 0.70769 0.78944 0.21251 0.0
C131 C 0.68542 0.8275 0.27075 0.0
C132 C 0.66181 0.80405 0.27982 0.0
C133 C 0.67686 0.80946 0.26861 0.0
C134 C 0.66378 0.83468 0.2953 0.0
C135 C 0.65511 0.81661 0.29334 0.0
C136 C 0.67878 0.84004 0.28413 0.0
C137 C 0.75709 0.85949 0.22195 0.0
C138 C 0.758 0.8922 0.23192 0.0
C139 C 0.78676 0.87751 0.22639 0.0
C140 C 0.7766 0.86073 0.22157 0.0
C141 C 0.77758 0.89344 0.23158 0.0
C142 C 0.74784 0.87535 0.22725 0.0
C143 C 0.74681 0.84155 0.21675 0.0
O144 O 0.71941 0.79107 0.2265 0.0
O145 O 0.70007 0.80494 0.20953 0.0
O146 O 0.72965 0.84217 0.21073 0.0
O147 O 0.74863 0.82835 0.22813 0.0
H148 H 0.72041 0.80251 0.17974 0.0
H149 H 0.72929 0.78432 0.1522 0.0
H150 H 0.71857 0.73403 0.18093 0.0
H151 H 0.70893 0.75232 0.20818 0.0
H152 H 0.65555 0.79 0.27803 0.0
H153 H 0.68182 0.7996 0.2583 0.0
H154 H 0.65878 0.84482 0.3053 0.0
H155 H 0.68517 0.85405 0.2859 0.0
H156 H 0.75057 0.90421 0.23604 0.0
H157 H 0.80181 0.87808 0.22583 0.0
H158 H 0.784 0.84868 0.2175 0.0
H159 H 0.73278 0.87474 0.2278 0.0
C160 C 0.99842 0.9864 0.44425 0.0
C161 C 0.00692 0.99897 0.43226 0.0
C162 C 0.97802 0.99878 0.4147 0.0
C163 C 0.99683 0.00506 0.4176 0.0
C164 C 0.96959 0.98626 0.42687 0.0
C165 C 0.97971 0.98013 0.4415 0.0
U166 U 0.0408 0.99139 0.47563 0.0
O167 O 0.04338 0.9892 0.50568 0.0
O168 O 0.05793 0.97065 0.48659 0.0
C169 C 0.05343 0.97482 0.50382 0.0
C170 C 0.0089 0.98002 0.45979 0.0
C171 C 0.04761 0.9591 0.51502 0.0
C172 C 0.03167 0.92873 0.51851 0.0
C173 C 0.03653 0.94367 0.50762 0.0
C174 C 0.04859 0.94465 0.54436 0.0
C175 C 0.03767 0.92905 0.53701 0.0
C176 C 0.05352 0.9595 0.53346 0.0
C177 C 0.07779 0.03087 0.4677 0.0
C178 C 0.10846 0.0339 0.48203 0.0
C179 C 0.09754 0.05932 0.46579 0.0
C180 C 0.08081 0.04885 0.4617 0.0
C181 C 0.11162 0.05195 0.47593 0.0
C182 C 0.09165 0.02345 0.47798 0.0
C183 C 0.06009 0.02016 0.46311 0.0
O184 O 0.02467 0.9729 0.4554 0.0
O185 O 0.01028 0.99153 0.47449 0.0
O186 O 0.04689 0.0216 0.47548 0.0
O187 O 0.0614 1.00308 0.45634 0.0
H188 H 0.02136 0.00402 0.43423 0.0
H189 H 0.00384 0.01451 0.40839 0.0
H190 H 0.95507 0.98136 0.42524 0.0
H191 H 0.9729 0.97054 0.45071 0.0
H192 H 0.02306 0.917 0.51252 0.0
H193 H 0.03171 0.94314 0.49344 0.0
H194 H 0.05359 0.94524 0.55848 0.0
H195 H 0.0621 0.97128 0.5394 0.0
H196 H 0.11905 0.02774 0.48971 0.0
H197 H 0.09934 0.07328 0.46117 0.0
H198 H 0.0702 0.05483 0.45386 0.0
H199 H 0.08952 0.00958 0.48279 0.0
C200 C 0.20279 0.78219 0.85149 0.0
C201 C 0.22013 0.78201 0.86028 0.0
C202 C 0.20969 0.80214 0.88568 0.0
C203 C 0.22357 0.79195 0.87721 0.0
C204 C 0.19224 0.80199 0.87694 0.0
C205 C 0.18886 0.79212 0.85998 0.0
U206 U 0.21377 0.74591 0.81336 0.0
O207 O 0.19485 0.72707 0.79597 0.0
O208 O 0.21347 0.74797 0.78317 0.0
C209 C 0.19934 0.73549 0.78084 0.0
C210 C 0.1991 0.77243 0.83336 0.0
C211 C 0.18365 0.74107 0.7699 0.0
C212 C 0.15268 0.75208 0.76785 0.0
C213 C 0.16755 0.74715 0.77847 0.0
C214 C 0.16999 0.74543 0.73995 0.0
C215 C 0.15366 0.75122 0.74843 0.0
C216 C 0.1848 0.74037 0.75059 0.0
C217 C 0.2545 0.71548 0.82046 0.0
C218 C 0.26476 0.69251 0.79768 0.0
C219 C 0.27861 0.69554 0.82825 0.0
C220 C 0.26721 0.70979 0.83318 0.0
C221 C 0.27755 0.68669 0.81045 0.0
C222 C 0.25331 0.70679 0.80266 0.0
C223 C 0.24247 0.73027 0.82626 0.0
O224 O 0.21183 0.77553 0.82071 0.0
O225 O 0.19308 0.75488 0.83369 0.0
O226 O 0.22511 0.7248 0.82984 0.0
O227 O 0.24406 0.74525 0.81682 0.0
H228 H 0.23103 0.7743 0.85398 0.0
H229 H 0.23707 0.79162 0.88371 0.0
H230 H 0.18133 0.80984 0.883 0.0
H231 H 0.17539 0.79242 0.85337 0.0
H232 H 0.14027 0.75623 0.77488 0.0
H233 H 0.16639 0.74793 0.79338 0.0
H234 H 0.1714 0.74489 0.72508 0.0
H235 H 0.19717 0.73587 0.74372 0.0
H236 H 0.26368 0.68611 0.78382 0.0
H237 H 0.28801 0.69123 0.83855 0.0
H238 H 0.26822 0.71627 0.84702 0.0
H239 H 0.24353 0.71102 0.79267 0.0
C240 C 0.95928 0.60262 0.52306 0.0
C241 C 0.97804 0.60835 0.52678 0.0
C242 C 0.96887 0.6365 0.54328 0.0
C243 C 0.98278 0.62511 0.53685 0.0
C244 C 0.95014 0.63084 0.53912 0.0
C245 C 0.94542 0.61405 0.52918 0.0
U246 U 0.96624 0.56424 0.48554 0.0
O247 O 0.96207 0.53397 0.48696 0.0
O248 O 0.94549 0.54822 0.46763 0.0
C249 C 0.94799 0.53261 0.47532 0.0
C250 C 0.95377 0.58472 0.51317 0.0
C251 C 0.931 0.52251 0.48177 0.0
C252 C 0.9027 0.52148 0.5 0.0
C253 C 0.91883 0.53124 0.49395 0.0
C254 C 0.91089 0.49412 0.48194 0.0
C255 C 0.8985 0.5028 0.49404 0.0
C256 C 0.92697 0.50391 0.47585 0.0
C257 C 0.00747 0.56827 0.45252 0.0
C258 C 0.00956 0.54969 0.4237 0.0
C259 C 0.03664 0.56836 0.43579 0.0
C260 C 0.02626 0.57442 0.45094 0.0
C261 C 0.02838 0.55608 0.42187 0.0
C262 C 0.99921 0.55569 0.43893 0.0
C263 C 0.99665 0.57538 0.46823 0.0
O264 O 0.94811 0.58561 0.49605 0.0
O265 O 0.96469 0.57125 0.51534 0.0
O266 O 0.9968 0.56588 0.48311 0.0
O267 O 0.98007 0.58046 0.46416 0.0
H268 H 0.98901 0.59979 0.52211 0.0
H269 H 0.99732 0.62893 0.53993 0.0
H270 H 0.93909 0.63941 0.54352 0.0
H271 H 0.93088 0.60993 0.52633 0.0
H272 H 0.89338 0.52866 0.50914 0.0
H273 H 0.92178 0.54561 0.49871 0.0
H274 H 0.90826 0.47969 0.47731 0.0
H275 H 0.9363 0.49694 0.46656 0.0
H276 H 1.0027 0.54037 0.41318 0.0
H277 H 0.05117 0.5733 0.43501 0.0
H278 H 0.03289 0.58403 0.46137 0.0
H279 H 0.9847 0.55073 0.43996 0.0
C280 C 0.7766 0.79833 0.85127 0.0
C281 C 0.79316 0.79003 0.85466 0.0
C282 C 0.77772 0.77197 0.87833 0.0
C283 C 0.79374 0.77701 0.86814 0.0
C284 C 0.76116 0.7803 0.87477 0.0
C285 C 0.76062 0.79336 0.86138 0.0
U286 U 0.79571 0.82101 0.80837 0.0
O287 O 0.78092 0.82996 0.78425 0.0
O288 O 0.79828 0.85026 0.80159 0.0
C289 C 0.78631 0.84753 0.78783 0.0
C290 C 0.77567 0.81202 0.83716 0.0
C291 C 0.77152 0.86047 0.78772 0.0
C292 C 0.74657 0.8762 0.80292 0.0
C293 C 0.76018 0.86338 0.80317 0.0
C294 C 0.7553 0.883 0.77166 0.0
C295 C 0.74406 0.88628 0.7872 0.0
C296 C 0.7689 0.87024 0.77194 0.0
C297 C 0.83972 0.80347 0.78577 0.0
C298 C 0.85865 0.8196 0.76313 0.0
C299 C 0.86311 0.78752 0.76836 0.0
C300 C 0.84906 0.78749 0.78163 0.0
C301 C 0.86812 0.80359 0.75899 0.0
C302 C 0.8445 0.81953 0.77636 0.0
C303 C 0.8252 0.80307 0.80003 0.0
O304 O 0.78905 0.82542 0.83779 0.0
O305 O 0.77189 0.80509 0.82032 0.0
O306 O 0.80834 0.79734 0.79425 0.0
O307 O 0.82554 0.81758 0.81182 0.0
H308 H 0.80562 0.79359 0.84687 0.0
H309 H 0.80665 0.77071 0.87043 0.0
H310 H 0.74864 0.77689 0.88252 0.0
H311 H 0.74772 0.79962 0.85893 0.0
H312 H 0.7383 0.8785 0.81519 0.0
H313 H 0.762 0.85592 0.81548 0.0
H314 H 0.75356 0.89028 0.75923 0.0
H315 H 0.77747 0.86807 0.75985 0.0
H316 H 0.86208 0.83213 0.75601 0.0
H317 H 0.87027 0.77503 0.76567 0.0
H318 H 0.84556 0.77498 0.78878 0.0
H319 H 0.83735 0.83198 0.77929 0.0
C320 C 0.27731 0.2961 0.35112 0.0
C321 C 0.29382 0.28756 0.35416 0.0
C322 C 0.27858 0.26962 0.37804 0.0
C323 C 0.29447 0.27448 0.36757 0.0
C324 C 0.2621 0.27823 0.37485 0.0
C325 C 0.26149 0.29134 0.36152 0.0
U326 U 0.29643 0.31974 0.30865 0.0
O327 O 0.28155 0.32835 0.28441 0.0
O328 O 0.29802 0.34904 0.30213 0.0
C329 C 0.28631 0.34602 0.28819 0.0
C330 C 0.27626 0.30981 0.33705 0.0
C331 C 0.27112 0.3585 0.28789 0.0
C332 C 0.24641 0.37452 0.30319 0.0
C333 C 0.26014 0.36185 0.30353 0.0
C334 C 0.2542 0.38024 0.27145 0.0
C335 C 0.24341 0.38403 0.28719 0.0
C336 C 0.26793 0.36762 0.27182 0.0
C337 C 0.34166 0.30462 0.28648 0.0
C338 C 0.35169 0.30585 0.25452 0.0
C339 C 0.37455 0.30494 0.27888 0.0
C340 C 0.36032 0.30446 0.29197 0.0
C341 C 0.37039 0.30545 0.25999 0.0
C342 C 0.33746 0.30553 0.26765 0.0
C343 C 0.32692 0.30337 0.30058 0.0
O344 O 0.28924 0.3236 0.33801 0.0
O345 O 0.27301 0.30288 0.32012 0.0
O346 O 0.31028 0.29678 0.29481 0.0
O347 O 0.32654 0.31771 0.3125 0.0
H348 H 0.30615 0.29099 0.34615 0.0
H349 H 0.30732 0.26798 0.36959 0.0
H350 H 0.2497 0.275 0.38283 0.0
H351 H 0.24864 0.29779 0.35934 0.0
H352 H 0.23849 0.37723 0.31561 0.0
H353 H 0.2624 0.3549 0.31607 0.0
H354 H 0.25207 0.38706 0.25881 0.0
H355 H 0.27621 0.36513 0.25959 0.0
H356 H 0.34809 0.30643 0.24008 0.0
H357 H 0.38879 0.30443 0.2835 0.0
H358 H 0.36387 0.30374 0.30642 0.0
H359 H 0.32319 0.30583 0.26303 0.0
C360 C 0.4492 0.95246 0.51881 0.0
C361 C 0.45888 0.93942 0.52774 0.0
C362 C 0.46026 0.92045 0.49895 0.0
C363 C 0.46431 0.92353 0.51792 0.0
C364 C 0.45066 0.93369 0.49008 0.0
C365 C 0.44517 0.94951 0.49994 0.0
U366 U 0.45387 0.98741 0.56004 0.0
O367 O 0.45373 0.01778 0.56162 0.0
O368 O 0.43243 1.00112 0.57629 0.0
C369 C 0.43814 0.01765 0.57106 0.0
C370 C 0.4435 0.96929 0.52891 0.0
C371 C 0.4235 0.02887 0.56429 0.0
C372 C 0.40971 0.04567 0.54027 0.0
C373 C 0.42341 0.03454 0.54608 0.0
C374 C 0.39573 0.0453 0.5706 0.0
C375 C 0.39572 0.0512 0.55248 0.0
C376 C 0.40951 0.03432 0.57645 0.0
C377 C 0.49057 0.97998 0.59719 0.0
C378 C 0.50916 1.00225 0.61727 0.0
C379 C 0.50455 0.97024 0.62521 0.0
C380 C 0.49371 0.96613 0.6093 0.0
C381 C 0.5126 0.9883 0.62925 0.0
C382 C 0.49819 0.99816 0.60142 0.0
C383 C 0.48021 0.97487 0.57985 0.0
O384 O 0.43503 0.96669 0.5447 0.0
O385 O 0.45608 0.98341 0.52982 0.0
O386 O 0.48353 0.98573 0.56614 0.0
O387 O 0.46249 0.96945 0.58152 0.0
H388 H 0.4622 0.94151 0.54232 0.0
H389 H 0.47149 0.91356 0.52525 0.0
H390 H 0.44758 0.93195 0.47544 0.0
H391 H 0.43784 0.95951 0.49279 0.0
H392 H 0.40994 0.0498 0.52616 0.0
H393 H 0.43395 0.03046 0.53635 0.0
H394 H 0.38525 0.04945 0.58038 0.0
H395 H 0.40933 0.03016 0.59056 0.0
H396 H 0.51497 0.01634 0.62016 0.0
H397 H 0.50706 0.95917 0.63409 0.0
H398 H 0.48804 0.952 0.60626 0.0
H399 H 0.49591 0.00915 0.59238 0.0
C400 C 0.21198 0.28035 0.69682 0.0
C401 C 0.2188 0.28922 0.68124 0.0
C402 C 0.22286 0.25931 0.66512 0.0
C403 C 0.2241 0.27881 0.66552 0.0
C404 C 0.21636 0.25053 0.68094 0.0
C405 C 0.21093 0.26095 0.69659 0.0
U406 U 0.21638 0.32306 0.73034 0.0
O407 O 0.19487 0.33945 0.74331 0.0
O408 O 0.21388 0.32552 0.76057 0.0
C409 C 0.19917 0.33516 0.76006 0.0
C410 C 0.20583 0.29103 0.71334 0.0
C411 C 0.18341 0.32898 0.77163 0.0
C412 C 0.16029 0.30528 0.78116 0.0
C413 C 0.17525 0.31076 0.76987 0.0
C414 C 0.1615 0.33621 0.79592 0.0
C415 C 0.15326 0.31795 0.79437 0.0
C416 C 0.17642 0.34163 0.78467 0.0
C417 C 0.25489 0.36129 0.72285 0.0
C418 C 0.25564 0.39372 0.73383 0.0
C419 C 0.28442 0.3797 0.72647 0.0
C420 C 0.27436 0.36289 0.72159 0.0
C421 C 0.27518 0.39532 0.73262 0.0
C422 C 0.24558 0.37682 0.72909 0.0
C423 C 0.24472 0.34333 0.7176 0.0
O424 O 0.21755 0.29273 0.72734 0.0
O425 O 0.19817 0.3065 0.71033 0.0
O426 O 0.22755 0.34389 0.7116 0.0
O427 O 0.2466 0.33012 0.72898 0.0
H428 H 0.21985 0.30421 0.68112 0.0
H429 H 0.2288 0.28607 0.65355 0.0
H430 H 0.21551 0.23557 0.68128 0.0
H431 H 0.20585 0.25384 0.70853 0.0
H432 H 0.15437 0.29109 0.77969 0.0
H433 H 0.18048 0.30079 0.75983 0.0
H434 H 0.15623 0.34643 0.80565 0.0
H435 H 0.18249 0.35579 0.78613 0.0
H436 H 0.24817 0.40547 0.73869 0.0
H437 H 0.29943 0.38056 0.72521 0.0
H438 H 0.2818 0.35109 0.7168 0.0
H439 H 0.23056 0.37591 0.73033 0.0
C440 C 0.77077 0.25907 0.69269 0.0
C441 C 0.77356 0.27796 0.69836 0.0
C442 C 0.76775 0.28658 0.66696 0.0
C443 C 0.77202 0.29158 0.68562 0.0
C444 C 0.76524 0.26763 0.66137 0.0
C445 C 0.76667 0.25406 0.6741 0.0
U446 U 0.79359 0.23603 0.73258 0.0
O447 O 0.78083 0.222 0.75597 0.0
O448 O 0.79709 0.20641 0.73567 0.0
C449 C 0.78606 0.20569 0.75008 0.0
C450 C 0.77169 0.24432 0.70581 0.0
C451 C 0.77162 0.19013 0.74961 0.0
C452 C 0.73918 0.17804 0.74864 0.0
C453 C 0.75261 0.19296 0.74795 0.0
C454 C 0.76355 0.15719 0.75202 0.0
C455 C 0.7445 0.16001 0.75081 0.0
C456 C 0.77695 0.17212 0.75149 0.0
C457 C 0.83812 0.2574 0.75584 0.0
C458 C 0.85561 0.24086 0.7774 0.0
C459 C 0.86309 0.27366 0.77419 0.0
C460 C 0.849 0.27372 0.76093 0.0
C461 C 0.86657 0.25723 0.78257 0.0
C462 C 0.84144 0.24096 0.7642 0.0
C463 C 0.82326 0.25778 0.74198 0.0
O464 O 0.78538 0.23345 0.70323 0.0
O465 O 0.76882 0.24895 0.72332 0.0
O466 O 0.80663 0.26028 0.74867 0.0
O467 O 0.82311 0.2448 0.72853 0.0
H468 H 0.7768 0.28222 0.71263 0.0
H469 H 0.77389 0.30601 0.69046 0.0
H470 H 0.76233 0.26322 0.64707 0.0
H471 H 0.76454 0.23959 0.66941 0.0
H472 H 0.72461 0.18059 0.74747 0.0
H473 H 0.74813 0.20671 0.74635 0.0
H474 H 0.76807 0.1435 0.75388 0.0
H475 H 0.79153 0.16964 0.75282 0.0
H476 H 0.85782 0.22803 0.78374 0.0
H477 H 0.87143 0.28645 0.7777 0.0
H478 H 0.84662 0.28654 0.75463 0.0
H479 H 0.83305 0.22823 0.76053 0.0
C480 C 0.51148 0.59507 0.60034 0.0
C481 C 0.51833 0.58421 0.61384 0.0
C482 C 0.4897 0.58652 0.63149 0.0
C483 C 0.50755 0.58003 0.62932 0.0
C484 C 0.48298 0.59745 0.61792 0.0
C485 C 0.49378 0.60169 0.60251 0.0
U486 U 0.55125 0.58635 0.56668 0.0
O487 O 0.55129 0.58596 0.5363 0.0
O488 O 0.56994 0.60615 0.55237 0.0
C489 C 0.56313 0.60063 0.53598 0.0
C490 C 0.52235 0.59929 0.58374 0.0
C491 C 0.55758 0.6154 0.52449 0.0
C492 C 0.54045 0.6425 0.52016 0.0
C493 C 0.54557 0.62855 0.5313 0.0
C494 C 0.55911 0.63017 0.49524 0.0
C495 C 0.54714 0.64346 0.50198 0.0
C496 C 0.56429 0.6163 0.50641 0.0
C497 C 0.58357 0.54765 0.57531 0.0
C498 C 0.60057 0.52882 0.55323 0.0
C499 C 0.61022 0.53198 0.58531 0.0
C500 C 0.59577 0.54343 0.58928 0.0
C501 C 0.61268 0.52438 0.56727 0.0
C502 C 0.58621 0.5404 0.55718 0.0
C503 C 0.56787 0.55899 0.58015 0.0
O504 O 0.53953 0.60634 0.58661 0.0
O505 O 0.52091 0.58642 0.57019 0.0
O506 O 0.55314 0.55651 0.56932 0.0
O507 O 0.57227 0.5765 0.58514 0.0
H508 H 0.53192 0.57886 0.61232 0.0
H509 H 0.51304 0.57139 0.63941 0.0
H510 H 0.46938 0.60282 0.61927 0.0
H511 H 0.48828 0.61009 0.59222 0.0
H512 H 0.53102 0.65236 0.52569 0.0
H513 H 0.54015 0.628 0.5452 0.0
H514 H 0.56466 0.63063 0.48139 0.0
H515 H 0.57357 0.60626 0.50093 0.0
H516 H 0.60226 0.52338 0.53915 0.0
H517 H 0.61921 0.52872 0.59645 0.0
H518 H 0.59397 0.54883 0.60336 0.0
H519 H 0.57707 0.54353 0.5461 0.0
C520 C 0.50018 0.48557 0.94129 0.0
C521 C 0.49929 0.50462 0.93912 0.0
C522 C 0.47984 0.498 0.91163 0.0
C523 C 0.48915 0.51076 0.9245 0.0
C524 C 0.48097 0.47892 0.91379 0.0
C525 C 0.49098 0.4728 0.9285 0.0
U526 U 0.5428 0.48894 0.97276 0.0
O527 O 0.54556 0.48595 1.00259 0.0
O528 O 0.55918 0.46712 0.98299 0.0
C529 C 0.55487 0.47106 1.00031 0.0
C530 C 0.51077 0.47876 0.95662 0.0
C531 C 0.54873 0.45512 0.01123 0.0
C532 C 0.55612 0.42666 0.02488 0.0
C533 C 0.56106 0.44138 0.0138 0.0
C534 C 0.52632 0.4391 0.031 0.0
C535 C 0.53876 0.42543 0.03375 0.0
C536 C 0.53122 0.45377 0.0198 0.0
C537 C 0.58107 0.52761 0.96546 0.0
C538 C 0.60379 0.54177 0.98784 0.0
C539 C 0.60913 0.54461 0.95513 0.0
C540 C 0.59232 0.53422 0.95117 0.0
C541 C 0.61498 0.54872 0.97353 0.0
C542 C 0.58702 0.53126 0.98384 0.0
C543 C 0.56306 0.51738 0.96082 0.0
O544 O 0.52633 0.4714 0.95191 0.0
O545 O 0.51237 0.48968 0.97176 0.0
O546 O 0.54973 0.51899 0.97305 0.0
O547 O 0.56393 0.50037 0.95373 0.0
H548 H 0.50638 0.51479 0.94873 0.0
H549 H 0.48843 0.52553 0.92344 0.0
H550 H 0.4743 0.46868 0.90399 0.0
H551 H 0.49161 0.45805 0.92983 0.0
H552 H 0.56607 0.41646 0.02686 0.0
H553 H 0.57467 0.44219 0.00743 0.0
H554 H 0.51276 0.4384 0.03747 0.0
H555 H 0.52137 0.46411 0.01802 0.0
H556 H 0.60775 0.54479 1.00216 0.0
H557 H 0.61754 0.54942 0.94376 0.0
H558 H 0.58803 0.53146 0.93689 0.0
H559 H 0.5786 0.52621 0.99512 0.0
C560 C 0.70441 0.28479 0.3512 0.0
C561 C 0.7062 0.2758 0.36771 0.0
C562 C 0.71125 0.3056 0.38499 0.0
C563 C 0.70949 0.28612 0.38445 0.0
C564 C 0.70963 0.31453 0.36844 0.0
C565 C 0.70618 0.30422 0.35174 0.0
U566 U 0.71354 0.24618 0.31452 0.0
O567 O 0.69363 0.22748 0.298 0.0
O568 O 0.71336 0.24665 0.28424 0.0
C569 C 0.69871 0.23472 0.28242 0.0
C570 C 0.7004 0.27432 0.33338 0.0
C571 C 0.68341 0.24031 0.27104 0.0
C572 C 0.66166 0.26277 0.26321 0.0
C573 C 0.67639 0.25778 0.27403 0.0
C574 C 0.66074 0.23281 0.24644 0.0
C575 C 0.65362 0.25032 0.24929 0.0
C576 C 0.6755 0.22789 0.2572 0.0
C577 C 0.75273 0.21431 0.32276 0.0
C578 C 0.76357 0.1917 0.29994 0.0
C579 C 0.7753 0.19303 0.33132 0.0
C580 C 0.76419 0.20757 0.33602 0.0
C581 C 0.77522 0.18494 0.3132 0.0
C582 C 0.75241 0.20627 0.30468 0.0
C583 C 0.74139 0.22979 0.32813 0.0
O584 O 0.71323 0.27631 0.32063 0.0
O585 O 0.6933 0.25713 0.33416 0.0
O586 O 0.72387 0.22523 0.33193 0.0
O587 O 0.74363 0.24436 0.31816 0.0
H588 H 0.70502 0.26081 0.36771 0.0
H589 H 0.71088 0.27887 0.39696 0.0
H590 H 0.71074 0.32952 0.36845 0.0
H591 H 0.70478 0.31144 0.33921 0.0
H592 H 0.65667 0.27641 0.26568 0.0
H593 H 0.68229 0.26755 0.28472 0.0
H594 H 0.65469 0.22274 0.23611 0.0
H595 H 0.68065 0.21429 0.2548 0.0
H596 H 0.76326 0.18589 0.28583 0.0
H597 H 0.7838 0.18798 0.34198 0.0
H598 H 0.76454 0.21356 0.35007 0.0
H599 H 0.74361 0.21131 0.29426 0.0
C600 C 0.45879 0.10167 0.02271 0.0
C601 C 0.46914 0.11591 0.01412 0.0
C602 C 0.46837 0.13582 0.04236 0.0
C603 C 0.47386 0.13287 0.02386 0.0
C604 C 0.45821 0.12135 0.0509 0.0
C605 C 0.45344 0.10447 0.04115 0.0
U606 U 0.46533 0.0643 0.98416 0.0
O607 O 0.46242 0.03393 0.98537 0.0
O608 O 0.4444 0.04771 0.96696 0.0
C609 C 0.44784 0.03217 0.97433 0.0
C610 C 0.4534 0.0838 0.01278 0.0
C611 C 0.43145 0.02149 0.98131 0.0
C612 C 0.40362 0.01957 1.00021 0.0
C613 C 0.41943 0.02974 0.99399 0.0
C614 C 0.41192 0.99272 0.9814 0.0
C615 C 0.39961 1.00096 0.99391 0.0
C616 C 0.42768 1.00292 0.97515 0.0
C617 C 0.50493 0.0703 0.94936 0.0
C618 C 0.51792 0.04568 0.93039 0.0
C619 C 0.52297 0.07755 0.9221 0.0
C620 C 0.51265 0.08327 0.93742 0.0
C621 C 0.52588 0.0587 0.91846 0.0
C622 C 0.50748 0.05142 0.94566 0.0
C623 C 0.49438 0.07679 0.96556 0.0
O624 O 0.44685 0.08465 0.99595 0.0
O625 O 0.46515 0.07092 0.01416 0.0
O626 O 0.49565 0.06743 0.98045 0.0
O627 O 0.47736 0.08111 0.96216 0.0
H628 H 0.47347 0.11395 0.99988 0.0
H629 H 0.48156 0.14375 0.01681 0.0
H630 H 0.45407 0.12299 0.06521 0.0
H631 H 0.44557 0.09357 0.04803 0.0
H632 H 0.39436 0.02641 0.00967 0.0
H633 H 0.42218 0.04408 0.99892 0.0
H634 H 0.40942 0.97835 0.9765 0.0
H635 H 0.43689 0.99632 0.96544 0.0
H636 H 0.52 0.03108 0.92812 0.0
H637 H 0.52856 0.08792 0.91304 0.0
H638 H 0.51071 0.09788 0.93996 0.0
H639 H 0.50153 0.04113 0.95464 0.0
O640 O 0.2485 0.87732 0.0144 0.0
Cd641 Cd 0.26031 0.89125 0.03769 0.0
Cd642 Cd 0.23939 0.92027 0.02352 0.0
O643 O 0.23284 0.89936 0.00338 0.0
O644 O 0.27244 0.87124 0.04988 0.0
O645 O 0.25015 0.88645 0.06315 0.0
C646 C 0.26173 0.87373 0.06385 0.0
C647 C 0.21543 0.93902 0.03286 0.0
C648 C 0.23798 0.88293 1.00214 0.0
C649 C 0.28139 0.92722 0.02816 0.0
O650 O 0.26597 0.93319 0.02364 0.0
O651 O 0.28195 0.91109 0.03407 0.0
O652 O 0.22351 0.94046 0.01713 0.0
O653 O 0.22087 0.92673 0.04345 0.0
O654 O 0.15578 0.53833 0.28276 0.0
Cd655 Cd 0.1409 0.51483 0.29112 0.0
Cd656 Cd 0.11301 0.52913 0.26857 0.0
O657 O 0.13474 0.54885 0.26473 0.0
O658 O 0.15999 0.501 0.30329 0.0
O659 O 0.14467 0.48991 0.27819 0.0
C660 C 0.15709 0.48788 0.29063 0.0
C661 C 0.09447 0.51987 0.24257 0.0
C662 C 0.15093 0.55029 0.27191 0.0
C663 C 0.10481 0.52435 0.30927 0.0
O664 O 0.09949 0.52935 0.29373 0.0
O665 O 0.12067 0.51801 0.31099 0.0
O666 O 0.09335 0.53574 0.25127 0.0
O667 O 0.10628 0.50907 0.24861 0.0
O668 O 0.75896 0.68587 0.99306 0.0
Cd669 Cd 0.74971 0.67022 0.01466 0.0
Cd670 Cd 0.77205 0.64487 0.9957 0.0
O671 O 0.77679 0.66642 0.97836 0.0
O672 O 0.73608 0.68829 0.03024 0.0
O673 O 0.7605 0.67524 0.04043 0.0
C674 C 0.74758 0.68645 0.04348 0.0
C675 C 0.79727 0.63011 0.0068 0.0
C676 C 0.76976 0.68202 0.97975 0.0
C677 C 0.73133 0.63315 1.00009 0.0
O678 O 0.7469 0.62922 0.99328 0.0
O679 O 0.72982 0.64847 0.00924 0.0
O680 O 0.79156 0.62726 0.98996 0.0
O681 O 0.78881 0.64171 0.01739 0.0
O682 O 0.90783 0.03228 0.29104 0.0
Cd683 Cd 0.894 0.03374 0.26619 0.0
Cd684 Cd 0.86637 0.04615 0.29065 0.0
O685 O 0.88648 0.04236 0.31013 0.0
O686 O 0.91366 0.02917 0.24744 0.0
O687 O 0.89958 0.0552 0.24989 0.0
C688 C 0.91174 0.0454 0.24171 0.0
C689 C 0.85064 0.07337 0.29338 0.0
C690 C 0.90243 0.03631 0.30737 0.0
C691 C 0.85672 0.01137 0.26648 0.0
O692 O 0.85164 0.02274 0.27916 0.0
O693 O 0.8728 0.0136 0.25934 0.0
O694 O 0.84737 0.06016 0.30434 0.0
O695 O 0.86309 0.07124 0.28078 0.0
O696 O 0.25882 0.18618 0.49425 0.0
Cd697 Cd 0.24856 0.17131 0.51596 0.0
Cd698 Cd 0.27043 0.14462 0.49793 0.0
O699 O 0.27546 0.16549 0.47978 0.0
O700 O 0.23548 0.19018 0.53108 0.0
O701 O 0.25898 0.17614 0.54187 0.0
C702 C 0.24654 0.18793 0.54457 0.0
C703 C 0.29544 0.12914 0.5085 0.0
C704 C 0.26924 0.18149 0.4809 0.0
C705 C 0.22925 0.1344 0.50238 0.0
O706 O 0.24489 0.12955 0.49653 0.0
O707 O 0.22793 0.15032 0.51041 0.0
O708 O 0.28887 0.12594 0.49199 0.0
O709 O 0.288 0.14153 0.51903 0.0
O710 O 0.40805 0.53073 0.78828 0.0
Cd711 Cd 0.39376 0.53359 0.76398 0.0
Cd712 Cd 0.36772 0.54718 0.78922 0.0
O713 O 0.38864 0.54341 0.80793 0.0
O714 O 0.41229 0.52852 0.74422 0.0
O715 O 0.40014 0.55549 0.74849 0.0
C716 C 0.41125 0.54521 0.73933 0.0
C717 C 0.35265 0.57481 0.79185 0.0
C718 C 0.40377 0.53584 0.80471 0.0
C719 C 0.35594 0.51262 0.76551 0.0
O720 O 0.35196 0.52385 0.77879 0.0
O721 O 0.37154 0.51462 0.75739 0.0
O722 O 0.34968 0.56205 0.80336 0.0
O723 O 0.36449 0.57202 0.7788 0.0
O724 O 0.74924 0.37873 0.51503 0.0
Cd725 Cd 0.7604 0.39259 0.53864 0.0
Cd726 Cd 0.73879 0.42116 0.52488 0.0
O727 O 0.73218 0.40014 0.50485 0.0
O728 O 0.77265 0.37278 0.55102 0.0
O729 O 0.74981 0.3875 0.56386 0.0
C730 C 0.76161 0.37502 0.56478 0.0
C731 C 0.71479 0.43983 0.53432 0.0
C732 C 0.73813 0.38404 0.50314 0.0
C733 C 0.78081 0.42882 0.52928 0.0
O734 O 0.76525 0.4344 0.52463 0.0
O735 O 0.7817 0.41281 0.53537 0.0
O736 O 0.72269 0.44118 0.5185 0.0
O737 O 0.7204 0.42764 0.54493 0.0
O738 O 0.65587 0.03975 0.78223 0.0
Cd739 Cd 0.64058 0.01623 0.79013 0.0
Cd740 Cd 0.61365 0.03091 0.76686 0.0
O741 O 0.63586 0.05 0.7629 0.0
O742 O 0.65925 1.00229 0.8028 0.0
O743 O 0.64471 0.9914 0.7772 0.0
C744 C 0.65675 0.98929 0.78996 0.0
C745 C 0.59516 0.02134 0.7409 0.0
C746 C 0.6517 0.05146 0.77081 0.0
C747 C 0.60437 0.02658 0.80739 0.0
O748 O 0.59985 0.03215 0.79183 0.0
O749 O 0.61972 0.01932 0.8094 0.0
O750 O 0.5944 0.0375 0.7491 0.0
O751 O 0.60664 0.01045 0.74738 0.0
O752 O 0.98898 0.29353 0.92642 0.0
Cd753 Cd 0.99093 0.2687 0.91126 0.0
Cd754 Cd 0.00886 0.29223 0.88621 0.0
O755 O 0.00396 0.31183 0.9072 0.0
O756 O 0.9854 0.24896 0.92899 0.0
O757 O 0.0127 0.25342 0.91544 0.0
C758 C 1.00222 0.24432 0.92678 0.0
C759 C 0.03742 0.2955 0.87067 0.0
C760 C 0.99532 0.30961 0.92228 0.0
C761 C 0.97321 0.2699 0.87377 0.0
O762 O 0.98645 0.28171 0.87012 0.0
O763 O 0.97254 0.26269 0.88936 0.0
O764 O 0.02454 0.30658 0.86854 0.0
O765 O 0.03424 0.28248 0.88193 0.0
O766 O 0.48991 0.79264 0.4243 0.0
Cd767 Cd 0.49239 0.76805 0.40876 0.0
Cd768 Cd 0.51011 0.79233 0.38451 0.0
O769 O 0.50548 0.81144 0.40595 0.0
O770 O 0.48668 0.74803 0.42614 0.0
O771 O 0.51423 0.75293 0.4132 0.0
C772 C 0.5036 0.74358 0.42422 0.0
C773 C 0.53875 0.79528 0.36911 0.0
C774 C 0.49647 0.80883 0.42075 0.0
C775 C 0.4747 0.77017 0.37139 0.0
O776 O 0.48751 0.78264 0.36832 0.0
O777 O 0.47444 0.76204 0.38648 0.0
O778 O 0.52619 0.80676 0.36723 0.0
O779 O 0.5352 0.78204 0.38005 0.0
O780 O 0.98786 0.78319 0.67438 0.0
Cd781 Cd 0.01016 0.77401 0.65938 0.0
Cd782 Cd 0.99283 0.79524 0.63222 0.0
O783 O 0.97454 0.79926 0.65378 0.0
O784 O 0.02372 0.76097 0.67814 0.0
O785 O 0.03649 0.78508 0.66437 0.0
C786 C 0.03795 0.77247 0.67605 0.0
C787 C 1.00217 0.8209 0.61529 0.0
C788 C 0.97494 0.79308 0.66982 0.0
C789 C 0.99721 0.75454 0.62277 0.0
O790 O 0.99137 0.76967 0.61795 0.0
O791 O 0.00508 0.75369 0.63837 0.0
O792 O 0.98572 0.81269 0.61359 0.0
O793 O 0.01346 0.81459 0.62681 0.0
O794 O 0.48827 0.28047 0.17389 0.0
Cd795 Cd 0.51076 0.27198 0.15886 0.0
Cd796 Cd 0.49392 0.29415 0.13218 0.0
O797 O 0.47581 0.29801 0.15401 0.0
O798 O 0.52456 0.25839 0.17698 0.0
O799 O 0.53682 0.28348 0.16449 0.0
C800 C 0.53855 0.27033 0.17549 0.0
C801 C 0.50305 0.31994 0.1153 0.0
C802 C 0.47575 0.29099 0.16969 0.0
C803 C 0.49808 0.25348 0.12185 0.0
O804 O 0.49238 0.2688 0.11738 0.0
O805 O 0.50583 0.25221 0.13742 0.0
O806 O 0.48661 0.3117 0.11372 0.0
O807 O 0.51443 0.31367 0.12677 0.0
C808 C 0.20024 0.8132 0.91752 0.0
C809 C 0.21349 0.81326 0.90336 0.0
C810 C 0.20348 0.82403 0.93407 0.0
C811 C 0.22034 0.83528 0.93647 0.0
C812 C 0.23382 0.83531 0.92227 0.0
C813 C 0.23025 0.82428 0.90591 0.0
C814 C 0.18884 0.8235 0.94895 0.0
C815 C 0.25193 0.84719 0.92425 0.0
C816 C 0.22274 0.87694 0.97102 0.0
C817 C 0.2324 0.87039 0.98582 0.0
C818 C 0.21846 0.86556 0.95501 0.0
C819 C 0.22388 0.84716 0.95376 0.0
C820 C 0.23322 0.84031 0.96881 0.0
C821 C 0.2374 0.852 0.98462 0.0
C822 C 0.20849 0.87339 0.93925 0.0
C823 C 0.23913 0.82072 0.96806 0.0
H824 H 0.18735 0.80455 0.91572 0.0
H825 H 0.24045 0.82457 0.89493 0.0
H826 H 0.19487 0.81916 0.96195 0.0
H827 H 0.18404 0.83755 0.95187 0.0
H828 H 0.17659 0.81383 0.94504 0.0
H829 H 0.26103 0.84551 0.912 0.0
H830 H 0.24908 0.862 0.92627 0.0
H831 H 0.25962 0.84358 0.93664 0.0
H832 H 0.21881 0.8911 0.97178 0.0
H833 H 0.24481 0.84675 0.99598 0.0
H834 H 0.19564 0.86454 0.93557 0.0
H835 H 0.2175 0.87341 0.92685 0.0
H836 H 0.20468 0.88776 0.94262 0.0
H837 H 0.22697 0.81073 0.96488 0.0
H838 H 0.24551 0.81724 0.98124 0.0
H839 H 0.24938 0.81885 0.95682 0.0
C840 C 0.05158 0.56324 0.39702 0.0
C841 C 0.03927 0.55032 0.40533 0.0
C842 C 0.06197 0.55813 0.38144 0.0
C843 C 0.05992 0.53965 0.37383 0.0
C844 C 0.04747 0.52653 0.38206 0.0
C845 C 0.03733 0.532 0.39774 0.0
C846 C 0.07509 0.57255 0.37307 0.0
C847 C 0.04488 0.50671 0.37431 0.0
C848 C 0.07475 0.53268 0.32381 0.0
C849 C 0.09276 0.52681 0.3257 0.0
C850 C 0.06369 0.53634 0.33933 0.0
C851 C 0.07081 0.5342 0.35721 0.0
C852 C 0.08875 0.52779 0.3592 0.0
C853 C 0.09948 0.52413 0.34344 0.0
C854 C 0.04456 0.54299 0.33662 0.0
C855 C 0.09686 0.52538 0.37804 0.0
H856 H 0.05294 0.5775 0.40256 0.0
H857 H 0.02802 0.52186 0.40418 0.0
H858 H 0.08944 0.56794 0.37281 0.0
H859 H 0.07095 0.57427 0.35858 0.0
H860 H 0.07529 0.58625 0.38082 0.0
H861 H 0.03452 0.49825 0.38221 0.0
H862 H 0.04022 0.50634 0.35971 0.0
H863 H 0.05834 0.50023 0.37448 0.0
H864 H 0.06936 0.5347 0.31018 0.0
H865 H 0.11335 0.51959 0.34507 0.0
H866 H 0.04414 0.55736 0.3427 0.0
H867 H 0.03398 0.5342 0.34388 0.0
H868 H 0.04059 0.54281 0.3218 0.0
H869 H 0.09866 0.53903 0.38585 0.0
H870 H 0.11056 0.51931 0.3772 0.0
H871 H 0.08719 0.51631 0.38603 0.0
C872 C 0.76359 0.74439 0.894 0.0
C873 C 0.7782 0.75816 0.89269 0.0
C874 C 0.76339 0.73174 0.90795 0.0
C875 C 0.77814 0.73291 0.92098 0.0
C876 C 0.79312 0.74654 0.91953 0.0
C877 C 0.793 0.75898 0.90537 0.0
C878 C 0.74722 0.71731 0.90891 0.0
C879 C 0.80905 0.74829 0.9332 0.0
C880 C 0.76622 0.71308 0.96722 0.0
C881 C 0.77329 0.69554 0.96527 0.0
C882 C 0.76816 0.72553 0.95312 0.0
C883 C 0.77736 0.72037 0.93659 0.0
C884 C 0.785 0.70291 0.9347 0.0
C885 C 0.78291 0.69072 0.94907 0.0
C886 C 0.75991 0.74406 0.95573 0.0
C887 C 0.79491 0.6969 0.91729 0.0
H888 H 0.75226 0.74349 0.88407 0.0
H889 H 0.80426 0.76969 0.90454 0.0
H890 H 0.75237 0.70326 0.90875 0.0
H891 H 0.73963 0.71952 0.92207 0.0
H892 H 0.73726 0.71775 0.89728 0.0
H893 H 0.82011 0.75899 0.92961 0.0
H894 H 0.8038 0.75203 0.9472 0.0
H895 H 0.81531 0.73482 0.93388 0.0
H896 H 0.75885 0.71701 0.97969 0.0
H897 H 0.78843 0.67723 0.94741 0.0
H898 H 0.74865 0.7449 0.94545 0.0
H899 H 0.77066 0.75544 0.95336 0.0
H900 H 0.75407 0.74638 0.96977 0.0
H901 H 0.785 0.69569 0.90549 0.0
H902 H 0.80098 0.68336 0.91839 0.0
H903 H 0.80621 0.70746 0.91407 0.0
C904 C 0.96941 0.02372 0.39424 0.0
C905 C 0.96727 0.00518 0.39901 0.0
C906 C 0.95938 0.02988 0.37945 0.0
C907 C 0.94683 0.01723 0.36922 0.0
C908 C 0.94457 0.99853 0.37398 0.0
C909 C 0.95484 0.99273 0.38875 0.0
C910 C 0.96219 0.04992 0.37479 0.0
C911 C 0.93133 0.9846 0.36341 0.0
C912 C 0.90762 0.03473 0.34145 0.0
C913 C 0.91438 0.03287 0.32334 0.0
C914 C 0.9182 0.03007 0.35655 0.0
C915 C 0.93601 0.02348 0.35351 0.0
C916 C 0.94317 0.02211 0.33535 0.0
C917 C 0.93226 0.02678 0.32049 0.0
C918 C 0.91006 0.0317 0.3757 0.0
C919 C 0.96216 0.01529 0.33155 0.0
H920 H 0.97878 0.03351 0.40222 0.0
H921 H 0.9533 0.97832 0.39212 0.0
H922 H 0.96684 0.05082 0.36028 0.0
H923 H 0.94881 0.05653 0.37603 0.0
H924 H 0.97264 0.05795 0.38394 0.0
H925 H 0.93102 0.97062 0.36898 0.0
H926 H 0.91704 0.98933 0.36392 0.0
H927 H 0.93543 0.98345 0.34868 0.0
H928 H 0.89384 0.03941 0.34383 0.0
H929 H 0.93767 0.02535 0.30659 0.0
H930 H 0.91977 0.04033 0.38511 0.0
H931 H 0.90815 0.01778 0.38131 0.0
H932 H 0.89642 0.0379 0.37585 0.0
H933 H 0.97286 0.02363 0.34011 0.0
H934 H 0.96612 0.01598 0.31679 0.0
H935 H 0.96236 1.00071 0.33539 0.0
C936 C 0.24306 0.25409 0.63724 0.0
C937 C 0.22788 0.24819 0.64813 0.0
C938 C 0.24733 0.24421 0.62074 0.0
C939 C 0.23626 0.22791 0.61501 0.0
C940 C 0.22123 0.2216 0.62615 0.0
C941 C 0.21717 0.23184 0.64248 0.0
C942 C 0.26341 0.25144 0.6092 0.0
C943 C 0.20911 0.20426 0.62056 0.0
C944 C 0.2328 0.213 0.56399 0.0
C945 C 0.24467 0.1985 0.56253 0.0
C946 C 0.23024 0.22287 0.5809 0.0
C947 C 0.23966 0.21805 0.59685 0.0
C948 C 0.25183 0.20356 0.59546 0.0
C949 C 0.25427 0.194 0.57829 0.0
C950 C 0.21728 0.23834 0.58171 0.0
C951 C 0.26201 0.19793 0.61219 0.0
H952 H 0.25163 0.26651 0.64161 0.0
H953 H 0.20525 0.22727 0.65059 0.0
H954 H 0.27324 0.24054 0.60653 0.0
H955 H 0.25819 0.25513 0.59561 0.0
H956 H 0.27114 0.26387 0.61595 0.0
H957 H 0.19877 0.20053 0.63133 0.0
H958 H 0.20152 0.2063 0.60761 0.0
H959 H 0.21783 0.19244 0.61775 0.0
H960 H 0.2254 0.21666 0.55187 0.0
H961 H 0.26343 0.1828 0.57728 0.0
H962 H 0.22473 0.25139 0.58741 0.0
H963 H 0.20552 0.23497 0.59111 0.0
H964 H 0.21153 0.24079 0.56794 0.0
H965 H 0.2704 0.21005 0.61869 0.0
H966 H 0.27137 0.18674 0.60873 0.0
H967 H 0.25181 0.19304 0.62262 0.0
C968 C 0.48568 0.58238 0.66544 0.0
C969 C 0.47796 0.58162 0.64763 0.0
C970 C 0.4748 0.57741 0.68071 0.0
C971 C 0.45576 0.57142 0.6781 0.0
C972 C 0.44784 0.57082 0.66018 0.0
C973 C 0.45901 0.57596 0.64519 0.0
C974 C 0.48373 0.57836 0.6996 0.0
C975 C 0.42765 0.56434 0.65677 0.0
C976 C 0.43292 0.5399 0.71297 0.0
C977 C 0.42253 0.55212 0.7237 0.0
C978 C 0.44375 0.54602 0.69813 0.0
C979 C 0.44435 0.56488 0.69392 0.0
C980 C 0.43395 0.57733 0.70472 0.0
C981 C 0.4231 0.57079 0.71944 0.0
C982 C 0.45451 0.53225 0.6869 0.0
C983 C 0.43432 0.59756 0.70072 0.0
H984 H 0.50025 0.58696 0.66746 0.0
H985 H 0.453 0.57513 0.63144 0.0
H986 H 0.47587 0.58709 0.70943 0.0
H987 H 0.48328 0.56429 0.70492 0.0
H988 H 0.49847 0.58411 0.69945 0.0
H989 H 0.42344 0.56536 0.64216 0.0
H990 H 0.42516 0.5497 0.66039 0.0
H991 H 0.41857 0.57267 0.66574 0.0
H992 H 0.43255 0.52544 0.71611 0.0
H993 H 0.41516 0.58033 0.72768 0.0
H994 H 0.46959 0.53669 0.6874 0.0
H995 H 0.45008 0.53175 0.67222 0.0
H996 H 0.45251 0.51806 0.69193 0.0
H997 H 0.44883 0.60388 0.70149 0.0
H998 H 0.42565 0.6055 0.71052 0.0
H999 H 0.4292 0.59897 0.68649 0.0
C1000 C 0.75223 0.29844 0.63943 0.0
C1001 C 0.76596 0.30096 0.65328 0.0
C1002 C 0.751 0.31127 0.62579 0.0
C1003 C 0.76367 0.32719 0.62608 0.0
C1004 C 0.77716 0.33017 0.64035 0.0
C1005 C 0.7782 0.317 0.65373 0.0
C1006 C 0.73644 0.30752 0.61078 0.0
C1007 C 0.79086 0.34702 0.6412 0.0
C1008 C 0.77382 0.3484 0.58016 0.0
C1009 C 0.76239 0.36328 0.58082 0.0
C1010 C 0.77447 0.33671 0.59485 0.0
C1011 C 0.76354 0.34002 0.61074 0.0
C1012 C 0.75219 0.35519 0.61166 0.0
C1013 C 0.75167 0.3666 0.59664 0.0
C1014 C 0.78665 0.32062 0.59323 0.0
C1015 C 0.74049 0.35927 0.62845 0.0
H1016 H 0.74244 0.28632 0.63916 0.0
H1017 H 0.78897 0.31903 0.66424 0.0
H1018 H 0.72781 0.31951 0.61012 0.0
H1019 H 0.74333 0.3057 0.59719 0.0
H1020 H 0.72714 0.29491 0.61295 0.0
H1021 H 0.79948 0.34809 0.65398 0.0
H1022 H 0.80027 0.34639 0.62911 0.0
H1023 H 0.7834 0.35981 0.64054 0.0
H1024 H 0.78213 0.34569 0.56799 0.0
H1025 H 0.74286 0.37809 0.5973 0.0
H1026 H 0.77796 0.30739 0.59407 0.0
H1027 H 0.79673 0.32156 0.60487 0.0
H1028 H 0.79451 0.32011 0.58007 0.0
H1029 H 0.73014 0.34743 0.6304 0.0
H1030 H 0.73296 0.37198 0.62732 0.0
H1031 H 0.74941 0.36098 0.641 0.0
C1032 C 0.51969 0.98579 0.66286 0.0
C1033 C 0.52486 0.99247 0.6457 0.0
C1034 C 0.53114 0.98973 0.6785 0.0
C1035 C 0.54826 1.00046 0.67689 0.0
C1036 C 0.55367 0.00702 0.65954 0.0
C1037 C 0.54188 1.00301 0.64418 0.0
C1038 C 0.52478 0.98267 0.69679 0.0
C1039 C 0.57187 0.01838 0.65722 0.0
C1040 C 0.56928 0.02705 0.71951 0.0
C1041 C 0.58311 0.01567 0.72465 0.0
C1042 C 0.55775 0.02214 0.70414 0.0
C1043 C 0.56016 0.00551 0.69351 0.0
C1044 C 0.57405 0.99391 0.69862 0.0
C1045 C 0.58532 0.99909 0.71419 0.0
C1046 C 0.54301 0.03482 0.69925 0.0
C1047 C 0.57711 0.97612 0.68755 0.0
H1048 H 0.50649 0.97776 0.66414 0.0
H1049 H 0.54607 0.00797 0.63089 0.0
H1050 H 0.53543 0.97425 0.70248 0.0
H1051 H 0.52311 0.99453 0.70688 0.0
H1052 H 0.51134 0.97408 0.69562 0.0
H1053 H 0.57435 0.02186 0.64267 0.0
H1054 H 0.57196 0.03148 0.66595 0.0
H1055 H 0.5836 0.01072 0.6619 0.0
H1056 H 0.5674 0.03985 0.72754 0.0
H1057 H 0.59598 0.99024 0.71806 0.0
H1058 H 0.5291 0.02713 0.69895 0.0
H1059 H 0.54561 0.0398 0.68524 0.0
H1060 H 0.54265 0.04705 0.70918 0.0
H1061 H 0.56411 0.96688 0.68703 0.0
H1062 H 0.58841 0.96859 0.6934 0.0
H1063 H 0.58072 0.97916 0.67311 0.0
C1064 C 0.884 0.27166 0.81035 0.0
C1065 C 0.88166 0.25725 0.79659 0.0
C1066 C 0.89865 0.27237 0.82319 0.0
C1067 C 0.91136 0.25836 0.82223 0.0
C1068 C 0.90886 0.24355 0.80863 0.0
C1069 C 0.89402 0.24315 0.79599 0.0
C1070 C 0.90073 0.28832 0.83756 0.0
C1071 C 0.92216 0.2284 0.8071 0.0
C1072 C 0.95924 0.27264 0.84252 0.0
C1073 C 0.95797 0.26543 0.86006 0.0
C1074 C 0.94439 0.26994 0.8299 0.0
C1075 C 0.92777 0.25981 0.8349 0.0
C1076 C 0.92657 0.25198 0.85233 0.0
C1077 C 0.94169 0.25485 0.8647 0.0
C1078 C 0.94628 0.27842 0.8114 0.0
C1079 C 0.90909 0.24108 0.85815 0.0
H1080 H 0.87432 0.28243 0.81107 0.0
H1081 H 0.89238 0.23206 0.7853 0.0
H1082 H 0.90117 0.28301 0.85158 0.0
H1083 H 0.91408 0.29661 0.83551 0.0
H1084 H 0.88919 0.29762 0.83699 0.0
H1085 H 0.91767 0.2173 0.79648 0.0
H1086 H 0.93622 0.23437 0.80346 0.0
H1087 H 0.92341 0.22211 0.82058 0.0
H1088 H 0.97177 0.28074 0.83873 0.0
H1089 H 0.94055 0.2492 0.87819 0.0
H1090 H 0.93616 0.28913 0.81039 0.0
H1091 H 0.94302 0.2677 0.80009 0.0
H1092 H 0.96049 0.28496 0.8092 0.0
H1093 H 0.89747 0.2503 0.8593 0.0
H1094 H 0.9108 0.23487 0.87163 0.0
H1095 H 0.905 0.22984 0.84757 0.0
C1096 C 0.48347 0.89684 0.49157 0.0
C1097 C 0.46604 0.90357 0.48841 0.0
C1098 C 0.48919 0.88115 0.48146 0.0
C1099 C 0.47725 0.87201 0.46775 0.0
C1100 C 0.45959 0.87862 0.46458 0.0
C1101 C 0.45418 0.89424 0.47498 0.0
C1102 C 0.5081 0.87448 0.48528 0.0
C1103 C 0.44646 0.86927 0.45008 0.0
C1104 C 0.49748 0.84309 0.42835 0.0
C1105 C 0.49274 0.82495 0.43346 0.0
C1106 C 0.49284 0.85851 0.43955 0.0
C1107 C 0.48333 0.85578 0.45637 0.0
C1108 C 0.479 0.83754 0.46189 0.0
C1109 C 0.48369 0.82235 0.45035 0.0
C1110 C 0.49765 0.87773 0.43313 0.0
C1111 C 0.46903 0.83407 0.4798 0.0
H1112 H 0.49284 0.90406 0.50174 0.0
H1113 H 0.44056 0.89911 0.47265 0.0
H1114 H 0.50667 0.85969 0.48861 0.0
H1115 H 0.51689 0.87544 0.47278 0.0
H1116 H 0.51541 0.88266 0.49691 0.0
H1117 H 0.43316 0.87605 0.44941 0.0
H1118 H 0.45315 0.86953 0.43631 0.0
H1119 H 0.44328 0.85452 0.45299 0.0
H1120 H 0.50446 0.84529 0.41535 0.0
H1121 H 0.48003 0.80842 0.45448 0.0
H1122 H 0.5059 0.88624 0.44388 0.0
H1123 H 0.48469 0.88468 0.43091 0.0
H1124 H 0.5057 0.87752 0.42008 0.0
H1125 H 0.47665 0.84179 0.49148 0.0
H1126 H 0.4676 0.81912 0.4826 0.0
H1127 H 0.45494 0.83923 0.47935 0.0
C1128 C 0.1218 0.30137 0.79897 0.0
C1129 C 0.13719 0.31241 0.80631 0.0
C1130 C 0.10602 0.29721 0.80978 0.0
C1131 C 0.10556 0.30431 0.82837 0.0
C1132 C 0.12129 0.31494 0.83604 0.0
C1133 C 0.1369 0.3188 0.82495 0.0
C1134 C 0.08955 0.2858 0.8011 0.0
C1135 C 0.12139 0.32276 0.85579 0.0
C1136 C 0.05836 0.31281 0.84912 0.0
C1137 C 0.05507 0.29767 0.8602 0.0
C1138 C 0.07471 0.31509 0.83876 0.0
C1139 C 0.08816 0.30187 0.83937 0.0
C1140 C 0.08498 0.28655 0.85053 0.0
C1141 C 0.06848 0.28465 0.86086 0.0
C1142 C 0.07758 0.33168 0.82713 0.0
C1143 C 0.09897 0.27214 0.85148 0.0
H1144 H 0.1218 0.2965 0.78456 0.0
H1145 H 0.14887 0.32703 0.83085 0.0
H1146 H 0.08511 0.27421 0.80982 0.0
H1147 H 0.07762 0.29454 0.80014 0.0
H1148 H 0.09268 0.28 0.78703 0.0
H1149 H 0.13512 0.32974 0.86001 0.0
H1150 H 0.1107 0.33297 0.85754 0.0
H1151 H 0.11774 0.31159 0.86526 0.0
H1152 H 0.04811 0.32297 0.84852 0.0
H1153 H 0.06603 0.27289 0.86934 0.0
H1154 H 0.07925 0.32703 0.81242 0.0
H1155 H 0.09054 0.34005 0.83147 0.0
H1156 H 0.0658 0.34072 0.8282 0.0
H1157 H 0.10122 0.26571 0.83748 0.0
H1158 H 0.09443 0.26104 0.86079 0.0
H1159 H 0.11258 0.27876 0.85645 0.0
C1160 C 0.53652 0.65384 0.47152 0.0
C1161 C 0.54156 0.65817 0.49005 0.0
C1162 C 0.5309 0.66751 0.46019 0.0
C1163 C 0.53037 0.686 0.46752 0.0
C1164 C 0.53568 0.69052 0.48614 0.0
C1165 C 0.54115 0.67656 0.49718 0.0
C1166 C 0.52521 0.66208 0.44047 0.0
C1167 C 0.53541 0.71008 0.49446 0.0
C1168 C 0.52943 0.72505 0.43457 0.0
C1169 C 0.51052 0.72847 0.43472 0.0
C1170 C 0.5361 0.71122 0.44511 0.0
C1171 C 0.52355 0.70049 0.45595 0.0
C1172 C 0.50441 0.70372 0.45593 0.0
C1173 C 0.49816 0.71768 0.44539 0.0
C1174 C 0.55662 0.70823 0.44481 0.0
C1175 C 0.49054 0.69253 0.4672 0.0
H1176 H 0.5366 0.63964 0.46596 0.0
H1177 H 0.54527 0.68006 0.5114 0.0
H1178 H 0.51039 0.66468 0.43838 0.0
H1179 H 0.53355 0.67071 0.43089 0.0
H1180 H 0.527 0.64725 0.43669 0.0
H1181 H 0.54055 0.71145 0.50895 0.0
H1182 H 0.54415 0.71972 0.48615 0.0
H1183 H 0.52101 0.71454 0.4942 0.0
H1184 H 0.53909 0.73334 0.42642 0.0
H1185 H 0.48351 0.72017 0.44557 0.0
H1186 H 0.55871 0.69366 0.44026 0.0
H1187 H 0.56252 0.71069 0.45895 0.0
H1188 H 0.56452 0.71755 0.43549 0.0
H1189 H 0.49097 0.67755 0.46323 0.0
H1190 H 0.47608 0.69647 0.46536 0.0
H1191 H 0.49425 0.6945 0.48206 0.0
C1192 C 0.8971 0.81835 0.74512 0.0
C1193 C 0.88335 0.80358 0.74515 0.0
C1194 C 0.91211 0.81798 0.73277 0.0
C1195 C 0.91334 0.80251 0.72009 0.0
C1196 C 0.89926 0.78777 0.71976 0.0
C1197 C 0.88447 0.78848 0.7323 0.0
C1198 C 0.92689 0.83392 0.73359 0.0
C1199 C 0.89997 0.7711 0.70635 0.0
C1200 C 0.94424 0.8058 0.67771 0.0
C1201 C 0.95973 0.7967 0.68308 0.0
C1202 C 0.92921 0.80817 0.68974 0.0
C1203 C 0.92968 0.80132 0.7076 0.0
C1204 C 0.94548 0.79258 0.71329 0.0
C1205 C 0.96028 0.79036 0.70098 0.0
C1206 C 0.91262 0.81756 0.68317 0.0
C1207 C 0.94656 0.78517 0.73226 0.0
H1208 H 0.89642 0.82998 0.75513 0.0
H1209 H 0.87373 0.77715 0.73207 0.0
H1210 H 0.94043 0.82894 0.73762 0.0
H1211 H 0.92874 0.83957 0.71978 0.0
H1212 H 0.92345 0.8453 0.74364 0.0
H1213 H 0.88756 0.76115 0.7074 0.0
H1214 H 0.90092 0.77557 0.692 0.0
H1215 H 0.9126 0.76379 0.70903 0.0
H1216 H 0.94366 0.81078 0.66393 0.0
H1217 H 0.97218 0.78337 0.70532 0.0
H1218 H 0.9096 0.82923 0.69301 0.0
H1219 H 0.90013 0.8076 0.68265 0.0
H1220 H 0.9148 0.82294 0.66924 0.0
H1221 H 0.9443 0.79629 0.74302 0.0
H1222 H 0.96019 0.77956 0.7349 0.0
H1223 H 0.93539 0.77398 0.73377 0.0
C1224 C 0.03404 0.89488 0.54154 0.0
C1225 C 0.03269 0.91316 0.54862 0.0
C1226 C 0.0296 0.87978 0.55244 0.0
C1227 C 0.02354 0.88301 0.57084 0.0
C1228 C 0.02213 0.90143 0.57806 0.0
C1229 C 0.02677 0.91627 0.56688 0.0
C1230 C 0.03137 0.86036 0.54427 0.0
C1231 C 0.01554 0.90546 0.59753 0.0
C1232 C 0.99464 0.84419 0.59283 0.0
C1233 C 0.00776 0.83693 0.60416 0.0
C1234 C 0.99959 0.85919 0.58199 0.0
C1235 C 0.01816 0.86712 0.58237 0.0
C1236 C 0.03149 0.85988 0.59378 0.0
C1237 C 0.02613 0.8449 0.60458 0.0
C1238 C 0.98492 0.86655 0.5701 0.0
C1239 C 0.05144 0.86792 0.5945 0.0
H1240 H 0.03883 0.89239 0.52752 0.0
H1241 H 0.02549 0.93034 0.57237 0.0
H1242 H 0.04096 0.8531 0.55282 0.0
H1243 H 0.01763 0.85235 0.5443 0.0
H1244 H 0.03665 0.8602 0.52988 0.0
H1245 H 0.01552 0.92057 0.60116 0.0
H1246 H 1.00123 0.89902 0.5992 0.0
H1247 H 0.02461 0.89928 0.60749 0.0
H1248 H 0.98041 0.83816 0.59242 0.0
H1249 H 0.03636 0.83935 0.61326 0.0
H1250 H 0.9891 0.86548 0.55539 0.0
H1251 H 0.98361 0.88144 0.57393 0.0
H1252 H 0.97107 0.85894 0.57148 0.0
H1253 H 0.05761 0.86699 0.58049 0.0
H1254 H 0.06014 0.86068 0.604 0.0
H1255 H 0.052 0.88282 0.5991 0.0
C1256 C 0.13259 0.74544 0.7207 0.0
C1257 C 0.13756 0.75592 0.73709 0.0
C1258 C 0.11702 0.74918 0.71027 0.0
C1259 C 0.10597 0.76364 0.71643 0.0
C1260 C 0.11105 0.7745 0.73276 0.0
C1261 C 0.12681 0.77058 0.74284 0.0
C1262 C 0.11212 0.7373 0.69291 0.0
C1263 C 0.09958 0.78999 0.73984 0.0
C1264 C 0.07192 0.7811 0.68237 0.0
C1265 C 0.05532 0.77091 0.68667 0.0
C1266 C 0.08852 0.77901 0.69202 0.0
C1267 C 0.08845 0.7666 0.70641 0.0
C1268 C 0.07164 0.75657 0.71102 0.0
C1269 C 0.05534 0.75879 0.70106 0.0
C1270 C 0.1062 0.78984 0.68662 0.0
C1271 C 0.07089 0.74333 0.72638 0.0
H1272 H 0.14059 0.73392 0.71624 0.0
H1273 H 0.13068 0.77898 0.75528 0.0
H1274 H 0.09862 0.72921 0.69475 0.0
H1275 H 0.11044 0.74615 0.68114 0.0
H1276 H 0.12285 0.72748 0.68929 0.0
H1277 H 0.10585 0.79768 0.7523 0.0
H1278 H 0.09802 0.79991 0.72897 0.0
H1279 H 0.08539 0.78424 0.74335 0.0
H1280 H 0.07202 0.79046 0.67125 0.0
H1281 H 0.04256 0.75094 0.70457 0.0
H1282 H 0.11665 0.78014 0.68187 0.0
H1283 H 0.11226 0.79819 0.69876 0.0
H1284 H 0.10386 0.79926 0.67544 0.0
H1285 H 0.08015 0.73204 0.7231 0.0
H1286 H 0.0566 0.73704 0.72863 0.0
H1287 H 0.07602 0.75067 0.73946 0.0
C1288 C 0.96274 0.6591 0.5697 0.0
C1289 C 0.97377 0.65403 0.55456 0.0
C1290 C 0.96703 0.67559 0.58044 0.0
C1291 C 0.98285 0.68728 0.57609 0.0
C1292 C 0.99414 0.68222 0.56093 0.0
C1293 C 0.98944 0.66569 0.55031 0.0
C1294 C 0.95461 0.68051 0.59648 0.0
C1295 C 0.01117 0.69429 0.55591 0.0
C1296 C 0.98356 0.73761 0.59419 0.0
C1297 C 0.99436 0.73757 0.6103 0.0
C1298 C 0.97998 0.72142 0.58275 0.0
C1299 C 0.98749 0.7048 0.58744 0.0
C1300 C 0.99878 0.70476 0.60342 0.0
C1301 C 1.00203 0.72111 0.61468 0.0
C1302 C 0.9678 0.722 0.56588 0.0
C1303 C 0.00715 0.68735 0.6088 0.0
H1304 H 0.95082 0.65003 0.57333 0.0
H1305 H 0.99792 0.66202 0.53852 0.0
H1306 H 0.96277 0.68171 0.60953 0.0
H1307 H 0.94908 0.69418 0.59469 0.0
H1308 H 0.9427 0.67005 0.59789 0.0
H1309 H 0.01867 0.68824 0.54391 0.0
H1310 H 0.00709 0.70818 0.55256 0.0
H1311 H 0.02088 0.69635 0.56785 0.0
H1312 H 0.97756 0.75022 0.59066 0.0
H1313 H 0.01048 0.72094 0.62702 0.0
H1314 H 0.95503 0.71264 0.56726 0.0
H1315 H 0.9752 0.71695 0.55338 0.0
H1316 H 0.96363 0.73617 0.56375 0.0
H1317 H 0.9959 0.67667 0.61183 0.0
H1318 H 0.01635 0.68984 0.62112 0.0
H1319 H 0.01534 0.68159 0.59717 0.0
C1320 C 0.78363 0.9278 0.22943 0.0
C1321 C 0.78846 0.91125 0.23664 0.0
C1322 C 0.79413 0.94462 0.23376 0.0
C1323 C 0.8097 0.94493 0.24574 0.0
C1324 C 0.81448 0.9283 0.25324 0.0
C1325 C 0.80386 0.91166 0.24853 0.0
C1326 C 0.78871 0.96203 0.22536 0.0
C1327 C 0.83083 0.92808 0.26624 0.0
C1328 C 0.84833 0.98363 0.24497 0.0
C1329 C 0.84409 0.99498 0.2605 0.0
C1330 C 0.83699 0.96756 0.23973 0.0
C1331 C 0.82112 0.96259 0.25039 0.0
C1332 C 0.81658 0.97414 0.26589 0.0
C1333 C 0.82806 0.99023 0.2707 0.0
C1334 C 0.84217 0.95571 0.22298 0.0
C1335 C 0.79987 0.96925 0.27768 0.0
H1336 H 0.77185 0.9275 0.2201 0.0
H1337 H 0.80749 0.89895 0.25431 0.0
H1338 H 0.78591 0.97267 0.23641 0.0
H1339 H 0.80038 0.96787 0.217 0.0
H1340 H 0.77617 0.95947 0.21639 0.0
H1341 H 0.8325 0.91405 0.27113 0.0
H1342 H 0.84384 0.93291 0.25924 0.0
H1343 H 0.82907 0.93777 0.27841 0.0
H1344 H 0.86061 0.98722 0.23693 0.0
H1345 H 0.82467 0.99887 0.28275 0.0
H1346 H 0.83024 0.95354 0.21323 0.0
H1347 H 0.8455 0.94187 0.22721 0.0
H1348 H 0.85437 0.962 0.21561 0.0
H1349 H 0.78708 0.96744 0.26905 0.0
H1350 H 0.79789 0.97999 0.28892 0.0
H1351 H 0.80151 0.95586 0.28397 0.0
C1352 C 0.80523 0.16965 0.31554 0.0
C1353 C 0.7871 0.16939 0.30837 0.0
C1354 C 0.81619 0.15459 0.31215 0.0
C1355 C 0.80891 0.13888 0.30123 0.0
C1356 C 0.79086 0.13876 0.29344 0.0
C1357 C 0.78017 0.15399 0.29713 0.0
C1358 C 0.83536 0.15529 0.32071 0.0
C1359 C 0.7826 0.12229 0.2817 0.0
C1360 C 0.84242 0.10408 0.2825 0.0
C1361 C 0.84019 0.09028 0.29527 0.0
C1362 C 0.83227 0.11995 0.28417 0.0
C1363 C 0.81969 0.1221 0.29901 0.0
C1364 C 0.81746 0.10824 0.31196 0.0
C1365 C 0.82768 0.09252 0.30991 0.0
C1366 C 0.83497 0.13439 0.27005 0.0
C1367 C 0.80427 0.11003 0.32804 0.0
H1368 H 0.81086 0.18162 0.32395 0.0
H1369 H 0.76613 0.15357 0.29166 0.0
H1370 H 0.83581 0.14433 0.33072 0.0
H1371 H 0.84587 0.15251 0.30994 0.0
H1372 H 0.83937 0.1689 0.32802 0.0
H1373 H 0.769 0.12491 0.27554 0.0
H1374 H 0.79229 0.11863 0.27041 0.0
H1375 H 0.78054 0.1101 0.29023 0.0
H1376 H 0.85201 0.10244 0.27112 0.0
H1377 H 0.82586 0.08197 0.31988 0.0
H1378 H 0.83987 0.14795 0.27695 0.0
H1379 H 0.8215 0.13626 0.26325 0.0
H1380 H 0.84519 0.13063 0.25927 0.0
H1381 H 0.8083 0.12284 0.33668 0.0
H1382 H 0.80413 0.09802 0.3369 0.0
H1383 H 0.78992 0.11121 0.32291 0.0
C1384 C 0.37189 0.97843 0.98744 0.0
C1385 C 0.38249 0.99027 1.00008 0.0
C1386 C 0.35563 0.96837 0.99294 0.0
C1387 C 0.34973 0.97024 0.01152 0.0
C1388 C 0.36033 0.98215 0.02437 0.0
C1389 C 0.37661 0.99199 0.01851 0.0
C1390 C 0.3447 0.95581 0.97881 0.0
C1391 C 0.35447 0.98452 0.04429 0.0
C1392 C 0.29852 0.95694 0.01976 0.0
C1393 C 0.29897 0.9388 0.02547 0.0
C1394 C 0.31498 0.96754 0.01574 0.0
C1395 C 0.33233 0.95981 0.01736 0.0
C1396 C 0.33295 0.94173 0.02365 0.0
C1397 C 0.31627 0.93147 0.02767 0.0
C1398 C 0.31375 0.98682 0.00922 0.0
C1399 C 0.35118 0.933 0.02554 0.0
H1400 H 0.37614 0.97724 0.97312 0.0
H1401 H 0.38483 1.00092 0.02842 0.0
H1402 H 0.3433 0.94144 0.9834 0.0
H1403 H 0.33045 0.96041 0.97746 0.0
H1404 H 0.35136 0.95565 0.965 0.0
H1405 H 0.36422 0.99435 0.05254 0.0
H1406 H 0.34036 0.98968 0.04508 0.0
H1407 H 0.35368 0.97094 0.05066 0.0
H1408 H 0.28525 0.96279 0.01811 0.0
H1409 H 0.31681 0.91749 0.03209 0.0
H1410 H 0.31872 0.98733 0.99478 0.0
H1411 H 0.32289 0.99694 0.01779 0.0
H1412 H 0.29932 0.99125 0.00981 0.0
H1413 H 0.3577 0.93119 0.01176 0.0
H1414 H 0.34939 0.91927 0.03162 0.0
H1415 H 0.361 0.9422 0.03432 0.0
C1416 C 0.21217 0.39546 0.29562 0.0
C1417 C 0.22955 0.39831 0.28707 0.0
C1418 C 0.19928 0.40911 0.29601 0.0
C1419 C 0.20385 0.42603 0.28765 0.0
C1420 C 0.22124 0.42888 0.27878 0.0
C1421 C 0.23386 0.41503 0.27863 0.0
C1422 C 0.18087 0.40555 0.30559 0.0
C1423 C 0.22671 0.44675 0.26978 0.0
C1424 C 0.16628 0.45775 0.2757 0.0
C1425 C 0.16814 0.47139 0.29026 0.0
C1426 C 0.17751 0.44266 0.27485 0.0
C1427 C 0.1909 0.44116 0.28891 0.0
C1428 C 0.19251 0.45465 0.30385 0.0
C1429 C 0.18115 0.46957 0.30433 0.0
C1430 C 0.17537 0.42855 0.25871 0.0
C1431 C 0.20656 0.45357 0.31914 0.0
H1432 H 0.20862 0.3825 0.30197 0.0
H1433 H 0.24735 0.4175 0.27224 0.0
H1434 H 0.17976 0.41582 0.31741 0.0
H1435 H 0.16923 0.40729 0.29598 0.0
H1436 H 0.17914 0.39141 0.3108 0.0
H1437 H 0.24038 0.44647 0.26275 0.0
H1438 H 0.21601 0.44952 0.2595 0.0
H1439 H 0.22746 0.45848 0.28035 0.0
H1440 H 0.15627 0.45903 0.26478 0.0
H1441 H 0.18266 0.47998 0.31569 0.0
H1442 H 0.17295 0.4144 0.26371 0.0
H1443 H 0.18841 0.42885 0.25056 0.0
H1444 H 0.16369 0.43113 0.24943 0.0
H1445 H 0.20457 0.43997 0.32542 0.0
H1446 H 0.20552 0.46472 0.33019 0.0
H1447 H 0.22085 0.45469 0.31342 0.0
C1448 C 0.13799 0.06309 0.49749 0.0
C1449 C 0.12948 0.06314 0.48009 0.0
C1450 C 0.15456 0.07402 0.50169 0.0
C1451 C 0.16277 0.08536 0.48821 0.0
C1452 C 0.15438 0.08532 0.47056 0.0
C1453 C 0.13791 0.07417 0.46669 0.0
C1454 C 0.16313 0.07363 0.52065 0.0
C1455 C 0.16271 0.09722 0.45579 0.0
C1456 C 0.19463 0.12767 0.50347 0.0
C1457 C 0.2123 0.12158 0.49945 0.0
C1458 C 0.17843 0.11594 0.50009 0.0
C1459 C 0.1799 0.09762 0.49263 0.0
C1460 C 0.19769 0.09126 0.48888 0.0
C1461 C 0.21367 0.10332 0.49226 0.0
C1462 C 0.1597 0.12328 0.50418 0.0
C1463 C 0.19983 0.07177 0.48106 0.0
H1464 H 0.13149 0.05478 0.508 0.0
H1465 H 0.13164 0.07406 0.4531 0.0
H1466 H 0.1778 0.07004 0.51945 0.0
H1467 H 0.16328 0.08758 0.52783 0.0
H1468 H 0.15546 0.0635 0.52932 0.0
H1469 H 0.15458 0.09545 0.44271 0.0
H1470 H 0.16333 0.11203 0.46072 0.0
H1471 H 0.17718 0.09372 0.45287 0.0
H1472 H 0.1934 0.14174 0.50899 0.0
H1473 H 0.22725 0.09844 0.48919 0.0
H1474 H 0.1518 0.11431 0.51377 0.0
H1475 H 0.15142 0.12301 0.49125 0.0
H1476 H 0.16095 0.1377 0.51039 0.0
H1477 H 0.19278 0.0616 0.4901 0.0
H1478 H 0.21466 0.06871 0.47961 0.0
H1479 H 0.19304 0.06967 0.4673 0.0
C1480 C 0.71492 0.14614 0.76412 0.0
C1481 C 0.73027 0.14426 0.75245 0.0
C1482 C 0.70188 0.13111 0.76661 0.0
C1483 C 0.70416 0.11381 0.75708 0.0
C1484 C 0.7194 0.11194 0.74498 0.0
C1485 C 0.73232 0.12716 0.74288 0.0
C1486 C 0.68591 0.13363 0.77975 0.0
C1487 C 0.72218 0.09379 0.73443 0.0
C1488 C 0.68168 0.07053 0.77752 0.0
C1489 C 0.66532 0.06715 0.76695 0.0
C1490 C 0.69445 0.08561 0.77439 0.0
C1491 C 0.69089 0.09755 0.76025 0.0
C1492 C 0.67455 0.09409 0.74935 0.0
C1493 C 0.66193 0.07899 0.75288 0.0
C1494 C 0.71166 0.0889 0.78639 0.0
C1495 C 0.67035 0.10642 0.73403 0.0
H1496 H 0.71339 0.15926 0.77172 0.0
H1497 H 0.74405 0.1257 0.73369 0.0
H1498 H 0.67246 0.12985 0.77254 0.0
H1499 H 0.68679 0.12424 0.79122 0.0
H1500 H 0.68584 0.1481 0.78572 0.0
H1501 H 0.73432 0.09482 0.725 0.0
H1502 H 0.72435 0.08294 0.74422 0.0
H1503 H 0.70955 0.08912 0.72617 0.0
H1504 H 0.68443 0.06151 0.78845 0.0
H1505 H 0.64938 0.07647 0.74458 0.0
H1506 H 0.71182 0.10275 0.79379 0.0
H1507 H 0.72431 0.08882 0.77769 0.0
H1508 H 0.71245 0.07827 0.79673 0.0
H1509 H 0.66904 0.12077 0.7398 0.0
H1510 H 0.65731 0.10156 0.72649 0.0
H1511 H 0.682 0.10696 0.72404 0.0
C1512 C 0.38614 0.07868 0.53628 0.0
C1513 C 0.38122 0.06313 0.54637 0.0
C1514 C 0.3726 0.09008 0.53045 0.0
C1515 C 0.35363 0.08574 0.53465 0.0
C1516 C 0.34858 0.07008 0.54486 0.0
C1517 C 0.36244 0.05902 0.55066 0.0
C1518 C 0.37857 0.10674 0.51973 0.0
C1519 C 0.3285 0.06484 0.54943 0.0
C1520 C 0.31896 0.12282 0.53251 0.0
C1521 C 0.31069 0.11847 0.51513 0.0
C1522 C 0.3331 0.11243 0.53898 0.0
C1523 C 0.33899 0.09724 0.52787 0.0
C1524 C 0.33073 0.09285 0.5103 0.0
C1525 C 0.31677 0.10355 0.50413 0.0
C1526 C 0.34167 0.11764 0.55773 0.0
C1527 C 0.3365 0.07669 0.49808 0.0
H1528 H 0.40066 0.08206 0.53312 0.0
H1529 H 0.35852 0.04692 0.55829 0.0
H1530 H 0.37202 0.10532 0.50583 0.0
H1531 H 0.37378 0.11948 0.52684 0.0
H1532 H 0.39392 0.10853 0.51807 0.0
H1533 H 0.32691 0.05243 0.55775 0.0
H1534 H 0.32243 0.07654 0.55723 0.0
H1535 H 0.32029 0.06195 0.5365 0.0
H1536 H 0.31437 0.13434 0.54109 0.0
H1537 H 0.31043 0.10003 0.4907 0.0
H1538 H 0.35696 0.12037 0.55643 0.0
H1539 H 0.33923 0.10595 0.56685 0.0
H1540 H 0.33589 0.13011 0.56447 0.0
H1541 H 0.35161 0.0785 0.49512 0.0
H1542 H 0.32876 0.07514 0.48476 0.0
H1543 H 0.33405 0.06366 0.5053 0.0
C1544 C 0.62388 0.49522 0.55222 0.0
C1545 C 0.62765 0.51168 0.56317 0.0
C1546 C 0.63785 0.4831 0.5482 0.0
C1547 C 0.65611 0.48759 0.55516 0.0
C1548 C 0.65998 0.50413 0.56632 0.0
C1549 C 0.64569 0.51593 0.57025 0.0
C1550 C 0.63311 0.46554 0.53637 0.0
C1551 C 0.6793 0.50954 0.57383 0.0
C1552 C 0.68966 0.44937 0.55616 0.0
C1553 C 0.69986 0.45202 0.53994 0.0
C1554 C 0.67539 0.46084 0.56133 0.0
C1555 C 0.67132 0.47539 0.55008 0.0
C1556 C 0.68169 0.47821 0.53379 0.0
C1557 C 0.69574 0.46647 0.52889 0.0
C1558 C 0.66456 0.45733 0.57874 0.0
C1559 C 0.67791 0.49362 0.52148 0.0
H1560 H 0.6099 0.49172 0.54694 0.0
H1561 H 0.64873 0.5287 0.57859 0.0
H1562 H 0.64138 0.46575 0.52348 0.0
H1563 H 0.63682 0.45333 0.54375 0.0
H1564 H 0.6181 0.4637 0.53264 0.0
H1565 H 0.6799 0.52257 0.58274 0.0
H1566 H 0.68414 0.49833 0.58198 0.0
H1567 H 0.68917 0.51143 0.56224 0.0
H1568 H 0.69273 0.43824 0.56476 0.0
H1569 H 0.70358 0.4687 0.51637 0.0
H1570 H 0.64956 0.45438 0.57538 0.0
H1571 H 0.66582 0.46988 0.5883 0.0
H1572 H 0.66945 0.4455 0.586 0.0
H1573 H 0.66338 0.49172 0.51626 0.0
H1574 H 0.68746 0.49419 0.50948 0.0
H1575 H 0.67944 0.50717 0.5295 0.0
C1576 C 0.7044 0.31233 0.41852 0.0
C1577 C 0.71472 0.31662 0.40275 0.0
C1578 C 0.70736 0.32285 0.4353 0.0
C1579 C 0.7211 0.3379 0.43636 0.0
C1580 C 0.73166 0.34221 0.42051 0.0
C1581 C 0.72828 0.33158 0.40389 0.0
C1582 C 0.6957 0.31793 0.45185 0.0
C1583 C 0.7466 0.35801 0.42113 0.0
C1584 C 0.71942 0.37645 0.4741 0.0
C1585 C 0.73283 0.37163 0.48665 0.0
C1586 C 0.71513 0.36536 0.4579 0.0
C1587 C 0.72458 0.34913 0.45406 0.0
C1588 C 0.73786 0.344 0.46683 0.0
C1589 C 0.74176 0.35525 0.48298 0.0
C1590 C 0.70074 0.37119 0.44472 0.0
C1591 C 0.74831 0.32687 0.46319 0.0
H1592 H 0.69376 0.3009 0.41766 0.0
H1593 H 0.73644 0.33482 0.39179 0.0
H1594 H 0.70481 0.31463 0.46335 0.0
H1595 H 0.68802 0.32996 0.45676 0.0
H1596 H 0.6855 0.30588 0.44871 0.0
H1597 H 0.75365 0.35948 0.40763 0.0
H1598 H 0.74045 0.37122 0.42521 0.0
H1599 H 0.75722 0.3558 0.4317 0.0
H1600 H 0.71238 0.38902 0.47682 0.0
H1601 H 0.75216 0.35139 0.49255 0.0
H1602 H 0.68986 0.3597 0.44188 0.0
H1603 H 0.70738 0.37432 0.43135 0.0
H1604 H 0.69394 0.38362 0.45018 0.0
H1605 H 0.73838 0.3145 0.46085 0.0
H1606 H 0.75775 0.32446 0.47478 0.0
H1607 H 0.75671 0.32821 0.45046 0.0
C1608 C 0.55342 0.0635 0.89762 0.0
C1609 C 0.5373 0.05274 0.90236 0.0
C1610 C 0.56409 0.0584 0.88224 0.0
C1611 C 0.55867 0.04201 0.87139 0.0
C1612 C 0.54262 0.03089 0.87625 0.0
C1613 C 0.53208 0.03642 0.89162 0.0
C1614 C 0.58109 0.07066 0.8775 0.0
C1615 C 0.53645 0.01327 0.86507 0.0
C1616 C 0.57631 0.03963 0.82203 0.0
C1617 C 0.59196 0.02937 0.82351 0.0
C1618 C 0.56513 0.04349 0.83742 0.0
C1619 C 0.56961 0.03683 0.8547 0.0
C1620 C 0.58504 0.026 0.85619 0.0
C1621 C 0.59607 0.02246 0.8406 0.0
C1622 C 0.54884 0.05516 0.83527 0.0
C1623 C 0.59015 0.0185 0.87435 0.0
H1624 H 0.55778 0.07592 0.90601 0.0
H1625 H 0.51955 0.02812 0.89503 0.0
H1626 H 0.59362 0.06264 0.87739 0.0
H1627 H 0.57954 0.07563 0.86344 0.0
H1628 H 0.58348 0.08289 0.8874 0.0
H1629 H 0.52413 0.00576 0.87113 0.0
H1630 H 0.53292 0.01655 0.85079 0.0
H1631 H 0.54796 0.00392 0.86407 0.0
H1632 H 0.57298 0.04504 0.80891 0.0
H1633 H 0.60807 0.01444 0.84188 0.0
H1634 H 0.55113 0.06828 0.84392 0.0
H1635 H 0.53589 0.0478 0.84017 0.0
H1636 H 0.54674 0.05861 0.82073 0.0
H1637 H 0.59418 0.03016 0.88451 0.0
H1638 H 0.60186 0.0094 0.87297 0.0
H1639 H 0.57795 0.01052 0.88008 0.0
C1640 C 0.26424 0.24232 0.39402 0.0
C1641 C 0.27911 0.25576 0.39236 0.0
C1642 C 0.26398 0.2298 0.40808 0.0
C1643 C 0.27893 0.23073 0.42086 0.0
C1644 C 0.29423 0.24393 0.41898 0.0
C1645 C 0.29415 0.25627 0.40473 0.0
C1646 C 0.24746 0.21586 0.40952 0.0
C1647 C 0.31041 0.24539 0.43234 0.0
C1648 C 0.2669 0.21242 0.46772 0.0
C1649 C 0.27323 0.19454 0.46608 0.0
C1650 C 0.26917 0.22449 0.45331 0.0
C1651 C 0.27795 0.21858 0.43678 0.0
C1652 C 0.28489 0.20078 0.43521 0.0
C1653 C 0.28247 0.18898 0.44989 0.0
C1654 C 0.26165 0.24338 0.45559 0.0
C1655 C 0.29436 0.194 0.41782 0.0
H1656 H 0.25273 0.24164 0.38432 0.0
H1657 H 0.30562 0.26671 0.40362 0.0
H1658 H 0.25219 0.20165 0.40964 0.0
H1659 H 0.24008 0.2186 0.4227 0.0
H1660 H 0.23742 0.21631 0.39795 0.0
H1661 H 0.32179 0.25552 0.42826 0.0
H1662 H 0.30559 0.24977 0.44633 0.0
H1663 H 0.3161 0.23168 0.43331 0.0
H1664 H 0.25984 0.21694 0.48018 0.0
H1665 H 0.28742 0.17522 0.44846 0.0
H1666 H 0.25032 0.24439 0.44541 0.0
H1667 H 0.27274 0.25432 0.45283 0.0
H1668 H 0.25608 0.24626 0.46966 0.0
H1669 H 0.28428 0.19275 0.40617 0.0
H1670 H 0.30005 0.18031 0.41922 0.0
H1671 H 0.30589 0.20413 0.41418 0.0
C1672 C 0.45206 0.49497 0.89035 0.0
C1673 C 0.46897 0.5045 0.89605 0.0
C1674 C 0.44181 0.50072 0.87553 0.0
C1675 C 0.44846 0.51654 0.86627 0.0
C1676 C 0.46538 0.52638 0.87206 0.0
C1677 C 0.47547 0.5202 0.8868 0.0
C1678 C 0.42388 0.48978 0.86973 0.0
C1679 C 0.47288 0.54338 0.86261 0.0
C1680 C 0.4306 0.52036 0.81741 0.0
C1681 C 0.41604 0.53202 0.8203 0.0
C1682 C 0.44145 0.51547 0.83219 0.0
C1683 C 0.43781 0.52255 0.85033 0.0
C1684 C 0.42353 0.53478 0.85328 0.0
C1685 C 0.41275 0.53928 0.83826 0.0
C1686 C 0.45646 0.50228 0.82847 0.0
C1687 C 0.41939 0.54281 0.87238 0.0
H1688 H 0.44671 0.48305 0.89758 0.0
H1689 H 0.48862 0.52753 0.89088 0.0
H1690 H 0.41214 0.49884 0.8708 0.0
H1691 H 0.42476 0.48464 0.85507 0.0
H1692 H 0.42067 0.47773 0.87829 0.0
H1693 H 0.48589 0.54986 0.86919 0.0
H1694 H 0.47576 0.53965 0.8479 0.0
H1695 H 0.46234 0.5538 0.8629 0.0
H1696 H 0.43325 0.51463 0.80361 0.0
H1697 H 0.40161 0.54838 0.84064 0.0
H1698 H 0.45314 0.4894 0.83574 0.0
H1699 H 0.47002 0.50855 0.83392 0.0
H1700 H 0.45798 0.49853 0.81351 0.0
H1701 H 0.41455 0.53152 0.88131 0.0
H1702 H 0.40855 0.55293 0.87222 0.0
H1703 H 0.43223 0.54983 0.87877 0.0
C1704 C 0.71936 0.72974 0.14212 0.0
C1705 C 0.72962 0.74649 0.1473 0.0
C1706 C 0.72333 0.71947 0.12577 0.0
C1707 C 0.73779 0.72617 0.11414 0.0
C1708 C 0.74843 0.74286 0.11941 0.0
C1709 C 0.74428 0.75276 0.13595 0.0
C1710 C 0.71169 0.7017 0.12068 0.0
C1711 C 0.76389 0.75052 0.10735 0.0
C1712 C 0.75599 0.69282 0.07701 0.0
C1713 C 0.74572 0.69687 0.06151 0.0
C1714 C 0.75368 0.70232 0.09424 0.0
C1715 C 0.74095 0.7163 0.09593 0.0
C1716 C 0.73081 0.72065 0.08025 0.0
C1717 C 0.73326 0.71084 0.06329 0.0
C1718 C 0.76463 0.69721 0.11068 0.0
C1719 C 0.71723 0.73557 0.0814 0.0
H1720 H 0.70784 0.72487 0.15059 0.0
H1721 H 0.75251 0.7655 0.13995 0.0
H1722 H 0.70353 0.70333 0.10798 0.0
H1723 H 0.7208 0.69023 0.11764 0.0
H1724 H 0.70189 0.69769 0.13182 0.0
H1725 H 0.77141 0.76322 0.1138 0.0
H1726 H 0.77404 0.73996 0.10442 0.0
H1727 H 0.75807 0.7539 0.0939 0.0
H1728 H 0.76562 0.68203 0.07575 0.0
H1729 H 0.72533 0.71415 0.05137 0.0
H1730 H 0.75495 0.69211 0.12147 0.0
H1731 H 0.77284 0.70962 0.11683 0.0
H1732 H 0.77428 0.68633 0.107 0.0
H1733 H 0.70593 0.73187 0.09121 0.0
H1734 H 0.71087 0.73767 0.0678 0.0
H1735 H 0.72438 0.7489 0.08677 0.0
C1736 C 0.96156 0.0681 0.14659 0.0
C1737 C 0.9779 0.07981 0.14895 0.0
C1738 C 0.95036 0.06348 0.16172 0.0
C1739 C 0.95571 0.07057 0.17971 0.0
C1740 C 0.97207 0.08258 0.18215 0.0
C1741 C 0.98292 0.08713 0.16673 0.0
C1742 C 0.93293 0.05077 0.15849 0.0
C1743 C 0.97837 0.09026 0.20111 0.0
C1744 C 0.91937 0.06864 0.21789 0.0
C1745 C 0.92318 0.05232 0.22618 0.0
C1746 C 0.92991 0.07485 0.20282 0.0
C1747 C 0.94469 0.06459 0.19601 0.0
C1748 C 0.94877 0.04829 0.20454 0.0
C1749 C 0.93793 0.04232 0.21943 0.0
C1750 C 0.92505 0.09224 0.19401 0.0
C1751 C 0.96451 0.03702 0.19783 0.0
H1752 H 0.95747 0.06262 0.13284 0.0
H1753 H 0.9956 0.09607 0.16865 0.0
H1754 H 0.9342 0.03774 0.16554 0.0
H1755 H 0.92073 0.05738 0.16449 0.0
H1756 H 0.9302 0.04722 0.14358 0.0
H1757 H 0.99098 0.10002 0.2006 0.0
H1758 H 0.96708 0.09757 0.20807 0.0
H1759 H 0.9815 0.07872 0.20974 0.0
H1760 H 0.90798 0.07643 0.22301 0.0
H1761 H 0.94106 0.02974 0.2258 0.0
H1762 H 0.92113 0.08892 0.17933 0.0
H1763 H 0.93735 0.10242 0.1942 0.0
H1764 H 0.91336 0.09881 0.20112 0.0
H1765 H 0.9619 0.03178 0.18332 0.0
H1766 H 0.96626 0.02502 0.20635 0.0
H1767 H 0.97777 0.04588 0.19808 0.0
C1768 C 0.25218 0.79765 0.139 0.0
C1769 C 0.26648 0.79967 0.15229 0.0
C1770 C 0.25091 0.81052 0.12541 0.0
C1771 C 0.26414 0.82597 0.12516 0.0
C1772 C 0.27823 0.82846 0.13889 0.0
C1773 C 0.27929 0.81525 0.15223 0.0
C1774 C 0.2357 0.8073 0.11099 0.0
C1775 C 0.29254 0.8448 0.13917 0.0
C1776 C 0.27339 0.84663 0.07883 0.0
C1777 C 0.2626 0.86199 0.07988 0.0
C1778 C 0.27411 0.83494 0.09352 0.0
C1779 C 0.26393 0.83876 0.10981 0.0
C1780 C 0.25324 0.85441 0.11111 0.0
C1781 C 0.25261 0.8658 0.09608 0.0
C1782 C 0.28555 0.81831 0.09148 0.0
C1783 C 0.24236 0.85905 0.12833 0.0
H1784 H 0.24196 0.78589 0.13914 0.0
H1785 H 0.29049 0.81689 0.1623 0.0
H1786 H 0.22755 0.81966 0.11064 0.0
H1787 H 0.24198 0.80514 0.09713 0.0
H1788 H 0.22604 0.79505 0.11355 0.0
H1789 H 0.30162 0.84559 0.15162 0.0
H1790 H 0.30144 0.84374 0.12674 0.0
H1791 H 0.28557 0.85791 0.13875 0.0
H1792 H 0.28113 0.84353 0.06637 0.0
H1793 H 0.2443 0.87767 0.09703 0.0
H1794 H 0.27643 0.80542 0.09271 0.0
H1795 H 0.29607 0.81891 0.10271 0.0
H1796 H 0.29286 0.81742 0.07801 0.0
H1797 H 0.23169 0.8476 0.13071 0.0
H1798 H 0.23531 0.87208 0.12744 0.0
H1799 H 0.25177 0.86047 0.14052 0.0
C1800 C 0.01994 0.48544 0.16327 0.0
C1801 C 0.02513 0.49272 0.14637 0.0
C1802 C 0.03122 0.4891 0.17906 0.0
C1803 C 0.04817 0.50019 0.17789 0.0
C1804 C 0.05359 0.50739 0.16081 0.0
C1805 C 0.04198 0.50363 0.14529 0.0
C1806 C 0.02485 0.48135 0.19706 0.0
C1807 C 0.07162 0.51916 0.15896 0.0
C1808 C 0.06849 0.52575 0.22136 0.0
C1809 C 0.08252 0.51446 0.22618 0.0
C1810 C 0.05712 0.52114 0.20582 0.0
C1811 C 0.0599 0.5049 0.19469 0.0
C1812 C 0.07398 0.49338 0.19949 0.0
C1813 C 0.08509 0.49827 0.21524 0.0
C1814 C 0.04218 0.53372 0.20127 0.0
C1815 C 0.07742 0.47601 0.18789 0.0
H1816 H 0.00686 0.47714 0.16422 0.0
H1817 H 0.04619 0.50906 0.1322 0.0
H1818 H 0.03562 0.47294 0.20253 0.0
H1819 H 0.02292 0.49287 0.20748 0.0
H1820 H 0.01155 0.47258 0.19555 0.0
H1821 H 0.07412 0.52316 0.14457 0.0
H1822 H 0.07143 0.53195 0.1681 0.0
H1823 H 0.08348 0.51154 0.16343 0.0
H1824 H 0.06634 0.53825 0.22977 0.0
H1825 H 0.09591 0.48949 0.21885 0.0
H1826 H 0.02838 0.52579 0.20065 0.0
H1827 H 0.04478 0.5392 0.18747 0.0
H1828 H 0.04154 0.54562 0.21157 0.0
H1829 H 0.06455 0.46658 0.187 0.0
H1830 H 0.08881 0.46847 0.19356 0.0
H1831 H 0.08109 0.47958 0.17362 0.0
C1832 C 0.3996 0.74485 0.28991 0.0
C1833 C 0.38341 0.75389 0.29391 0.0
C1834 C 0.41449 0.74593 0.30254 0.0
C1835 C 0.41324 0.75651 0.31948 0.0
C1836 C 0.39678 0.76539 0.32372 0.0
C1837 C 0.38204 0.76389 0.31093 0.0
C1838 C 0.43169 0.73606 0.29762 0.0
C1839 C 0.39498 0.77698 0.34152 0.0
C1840 C 0.44627 0.75088 0.35944 0.0
C1841 C 0.45952 0.76587 0.35759 0.0
C1842 C 0.43136 0.74736 0.34689 0.0
C1843 C 0.42952 0.75926 0.33229 0.0
C1844 C 0.44298 0.77424 0.33021 0.0
C1845 C 0.45784 0.77729 0.34279 0.0
C1846 C 0.41743 0.7311 0.3494 0.0
C1847 C 0.44145 0.78734 0.31493 0.0
H1848 H 0.40062 0.73693 0.27685 0.0
H1849 H 0.36962 0.77104 0.31401 0.0
H1850 H 0.44371 0.74635 0.29617 0.0
H1851 H 0.43516 0.7271 0.30884 0.0
H1852 H 0.42996 0.72737 0.28452 0.0
H1853 H 0.38098 0.78234 0.34309 0.0
H1854 H 0.39765 0.76871 0.35351 0.0
H1855 H 0.40557 0.78894 0.34197 0.0
H1856 H 0.44749 0.74193 0.37077 0.0
H1857 H 0.46794 0.78895 0.34124 0.0
H1858 H 0.41611 0.72212 0.33648 0.0
H1859 H 0.40351 0.73613 0.3524 0.0
H1860 H 0.42137 0.72259 0.36083 0.0
H1861 H 0.44102 0.77953 0.30131 0.0
H1862 H 0.45325 0.79814 0.31501 0.0
H1863 H 0.42828 0.7943 0.31635 0.0
C1864 C 0.95364 0.39582 0.97583 0.0
C1865 C 0.96575 0.40541 0.98888 0.0
C1866 C 0.95895 0.38012 0.96548 0.0
C1867 C 0.97676 0.37371 0.9683 0.0
C1868 C 0.98898 0.38316 0.98159 0.0
C1869 C 0.98335 0.39891 0.99167 0.0
C1870 C 0.94551 0.37045 0.95143 0.0
C1871 C 0.00806 0.37672 0.98503 0.0
C1872 C 0.98315 0.3238 0.95185 0.0
C1873 C 0.99176 0.32601 0.93467 0.0
C1874 C 0.97861 0.33921 0.96314 0.0
C1875 C 0.98265 0.35729 0.95709 0.0
C1876 C 0.99169 0.35965 0.93998 0.0
C1877 C 0.99619 0.34401 0.92902 0.0
C1878 C 0.96914 0.33612 0.98138 0.0
C1879 C 0.99618 0.37869 0.93301 0.0
H1880 H 0.9399 0.40053 0.97378 0.0
H1881 H 0.99291 0.40634 1.00153 0.0
H1882 H 0.95187 0.37043 0.9375 0.0
H1883 H 0.94248 0.35577 0.9547 0.0
H1884 H 0.93217 0.37716 0.95092 0.0
H1885 H 0.01567 0.38523 0.99626 0.0
H1886 H 0.00686 0.36205 0.98876 0.0
H1887 H 0.01646 0.37739 0.97225 0.0
H1888 H 0.97973 0.30998 0.9564 0.0
H1889 H 1.00282 0.34591 0.91578 0.0
H1890 H 0.95501 0.34123 0.98117 0.0
H1891 H 0.97703 0.34412 0.99273 0.0
H1892 H 0.96784 0.32127 0.98454 0.0
H1893 H 0.98311 0.3855 0.93095 0.0
H1894 H 0.00388 0.37821 0.91975 0.0
H1895 H 0.00465 0.3875 0.94337 0.0
C1896 C 0.62329 0.80068 0.29761 0.0
C1897 C 0.63893 0.81115 0.30517 0.0
C1898 C 0.60741 0.79666 0.30833 0.0
C1899 C 0.60711 0.80334 0.32707 0.0
C1900 C 0.62308 0.81338 0.33495 0.0
C1901 C 0.63878 0.81711 0.32394 0.0
C1902 C 0.59069 0.78587 0.29942 0.0
C1903 C 0.62335 0.82073 0.35486 0.0
C1904 C 0.56019 0.81263 0.34803 0.0
C1905 C 0.55646 0.79726 0.35871 0.0
C1906 C 0.57661 0.81473 0.33774 0.0
C1907 C 0.58966 0.80109 0.33801 0.0
C1908 C 0.58603 0.78554 0.34878 0.0
C1909 C 0.56948 0.78383 0.35905 0.0
C1910 C 0.57997 0.83158 0.32653 0.0
C1911 C 0.59959 0.77068 0.34936 0.0
H1912 H 0.62319 0.79615 0.2831 0.0
H1913 H 0.65092 0.82491 0.33001 0.0
H1914 H 0.58592 0.77416 0.30785 0.0
H1915 H 0.57903 0.79498 0.29869 0.0
H1916 H 0.59368 0.78031 0.28522 0.0
H1917 H 0.63723 0.82724 0.35922 0.0
H1918 H 0.61297 0.83123 0.35687 0.0
H1919 H 0.61937 0.8094 0.36405 0.0
H1920 H 0.55024 0.8231 0.34769 0.0
H1921 H 0.56669 0.77189 0.36722 0.0
H1922 H 0.58154 0.82723 0.31174 0.0
H1923 H 0.59311 0.83951 0.33105 0.0
H1924 H 0.56846 0.84095 0.32785 0.0
H1925 H 0.60168 0.76451 0.33523 0.0
H1926 H 0.59474 0.75946 0.3584 0.0
H1927 H 0.61334 0.77684 0.35445 0.0
C1928 C 0.04062 0.17703 0.99916 0.0
C1929 C 0.04074 0.15865 0.99195 0.0
C1930 C 0.03502 0.19108 0.98829 0.0
C1931 C 0.02926 0.18664 0.96978 0.0
C1932 C 0.02947 0.16814 0.96239 0.0
C1933 C 0.03523 0.15439 0.97353 0.0
C1934 C 0.03512 0.21065 0.99667 0.0
C1935 C 0.02328 0.1628 0.94279 0.0
C1936 C 0.99697 0.21866 0.94825 0.0
C1937 C 0.00921 0.22925 0.93728 0.0
C1938 C 1.0033 0.20468 0.95874 0.0
C1939 C 0.02238 0.20123 0.95838 0.0
C1940 C 0.03481 0.21178 0.94726 0.0
C1941 C 0.02807 0.22563 0.93679 0.0
C1942 C 0.98955 0.19368 0.97031 0.0
C1943 C 0.05527 0.20857 0.94657 0.0
H1944 H 0.04509 0.18047 0.01329 0.0
H1945 H 0.03507 0.14019 0.96792 0.0
H1946 H 0.04379 0.2202 0.98822 0.0
H1947 H 0.02078 0.21528 0.9967 0.0
H1948 H 0.04054 0.21193 0.01106 0.0
H1949 H 0.02478 0.14793 0.93894 0.0
H1950 H 0.00848 0.16563 0.94102 0.0
H1951 H 0.03154 0.1713 0.93304 0.0
H1952 H 0.98236 0.2213 0.9487 0.0
H1953 H 0.03763 0.23376 0.9284 0.0
H1954 H 0.99361 0.1956 0.98509 0.0
H1955 H 0.98969 0.17868 0.96631 0.0
H1956 H 0.97512 0.19783 0.9688 0.0
H1957 H 0.06145 0.21092 0.9606 0.0
H1958 H 0.06309 0.21784 0.93714 0.0
H1959 H 0.05713 0.19398 0.94191 0.0
C1960 C 0.3835 0.29279 0.23029 0.0
C1961 C 0.38548 0.30495 0.24605 0.0
C1962 C 0.39805 0.29132 0.21755 0.0
C1963 C 0.41496 0.30238 0.22055 0.0
C1964 C 0.41686 0.31505 0.23617 0.0
C1965 C 0.40213 0.3161 0.24879 0.0
C1966 C 0.39553 0.27752 0.20116 0.0
C1967 C 0.43457 0.32724 0.23974 0.0
C1968 C 0.4587 0.28452 0.19898 0.0
C1969 C 0.46059 0.29455 0.18302 0.0
C1970 C 0.444 0.28705 0.21133 0.0
C1971 C 0.43092 0.30006 0.20779 0.0
C1972 C 0.43292 0.31049 0.19191 0.0
C1973 C 0.44768 0.30755 0.17966 0.0
C1974 C 0.4423 0.27556 0.22805 0.0
C1975 C 0.41936 0.32462 0.18776 0.0
H1976 H 0.37074 0.28399 0.22822 0.0
H1977 H 0.40365 0.32567 0.26084 0.0
H1978 H 0.39828 0.28456 0.18816 0.0
H1979 H 0.40573 0.26685 0.20197 0.0
H1980 H 0.3813 0.27047 0.20043 0.0
H1981 H 0.43345 0.33708 0.25194 0.0
H1982 H 0.44627 0.31853 0.24207 0.0
H1983 H 0.43812 0.33527 0.2275 0.0
H1984 H 0.46855 0.2744 0.2017 0.0
H1985 H 0.44904 0.31542 0.16742 0.0
H1986 H 0.42883 0.26705 0.22758 0.0
H1987 H 0.4424 0.28474 0.24083 0.0
H1988 H 0.45373 0.26618 0.22894 0.0
H1989 H 0.4052 0.31768 0.18572 0.0
H1990 H 0.42324 0.33208 0.17521 0.0
H1991 H 0.41868 0.33491 0.19963 0.0
C1992 C 0.52562 0.41375 0.0633 0.0
C1993 C 0.5338 0.4101 0.04605 0.0
C1994 C 0.52102 0.39944 0.07512 0.0
C1995 C 0.52456 0.38099 0.06952 0.0
C1996 C 0.53285 0.37722 0.05214 0.0
C1997 C 0.53741 0.39182 0.04065 0.0
C1998 C 0.51232 0.40405 0.09359 0.0
C1999 C 0.53667 0.35772 0.04558 0.0
C2000 C 0.52641 0.34505 0.10567 0.0
C2001 C 0.5086 0.33584 0.10397 0.0
C2002 C 0.53178 0.35986 0.09464 0.0
C2003 C 0.51906 0.36555 0.08158 0.0
C2004 C 0.50105 0.35636 0.07989 0.0
C2005 C 0.49604 0.34167 0.09111 0.0
C2006 C 0.55108 0.36937 0.09689 0.0
C2007 C 0.48709 0.36195 0.06612 0.0
H2008 H 0.52303 0.42788 0.06766 0.0
H2009 H 0.54356 0.38888 0.02726 0.0
H2010 H 0.49832 0.39665 0.09436 0.0
H2011 H 0.52088 0.39929 0.10485 0.0
H2012 H 0.5109 0.41915 0.09608 0.0
H2013 H 0.54352 0.35716 0.03186 0.0
H2014 H 0.54572 0.3517 0.05567 0.0
H2015 H 0.52343 0.34885 0.04463 0.0
H2016 H 0.5362 0.34065 0.11557 0.0
H2017 H 0.48225 0.33465 0.08967 0.0
H2018 H 0.5502 0.38439 0.10032 0.0
H2019 H 0.55878 0.368 0.08371 0.0
H2020 H 0.5592 0.36352 0.10789 0.0
H2021 H 0.48443 0.37673 0.06885 0.0
H2022 H 0.47362 0.35346 0.06658 0.0
H2023 H 0.49277 0.36048 0.05194 0.0
C2024 C 0.63644 0.25003 0.21908 0.0
C2025 C 0.63764 0.25534 0.23799 0.0
C2026 C 0.62091 0.2536 0.2085 0.0
C2027 C 0.60623 0.26285 0.21698 0.0
C2028 C 0.60761 0.26881 0.2359 0.0
C2029 C 0.62325 0.26493 0.24618 0.0
C2030 C 0.61996 0.24698 0.18838 0.0
C2031 C 0.59229 0.27875 0.24544 0.0
C2032 C 0.57061 0.28258 0.18615 0.0
C2033 C 0.55593 0.26871 0.18607 0.0
C2034 C 0.58704 0.28097 0.19626 0.0
C2035 C 0.58887 0.26506 0.20638 0.0
C2036 C 0.5741 0.25103 0.2063 0.0
C2037 C 0.55783 0.25306 0.19623 0.0
C2038 C 0.60243 0.29629 0.19613 0.0
C2039 C 0.57551 0.23379 0.2168 0.0
H2040 H 0.64763 0.24294 0.21252 0.0
H2041 H 0.62391 0.26893 0.26081 0.0
H2042 H 0.60817 0.23634 0.1861 0.0
H2043 H 0.61736 0.25863 0.17969 0.0
H2044 H 0.63295 0.24089 0.18362 0.0
H2045 H 0.59615 0.28382 0.25978 0.0
H2046 H 0.58882 0.29072 0.23759 0.0
H2047 H 0.57951 0.26924 0.24592 0.0
H2048 H 0.56923 0.29474 0.17838 0.0
H2049 H 0.5466 0.24223 0.19623 0.0
H2050 H 0.61534 0.29073 0.1905 0.0
H2051 H 0.60558 0.30186 0.21045 0.0
H2052 H 0.59878 0.30785 0.18775 0.0
H2053 H 0.58761 0.22634 0.2118 0.0
H2054 H 0.56279 0.22416 0.21531 0.0
H2055 H 0.57787 0.23762 0.23169 0.0
C2056 C 0.49078 0.16325 0.05109 0.0
C2057 C 0.47315 0.15386 0.0528 0.0
C2058 C 0.49559 0.17996 0.06139 0.0
C2059 C 0.48251 0.18739 0.07377 0.0
C2060 C 0.46462 0.17813 0.07534 0.0
C2061 C 0.46015 0.16155 0.0648 0.0
C2062 C 0.51477 0.18948 0.05927 0.0
C2063 C 0.45028 0.1856 0.08839 0.0
C2064 C 0.49923 0.21933 0.11476 0.0
C2065 C 0.4951 0.23675 0.10907 0.0
C2066 C 0.49555 0.20322 0.10326 0.0
C2067 C 0.48764 0.20453 0.08555 0.0
C2068 C 0.48389 0.2221 0.07951 0.0
C2069 C 0.48761 0.23799 0.09135 0.0
C2070 C 0.49967 0.18472 0.11024 0.0
C2071 C 0.47562 0.22407 0.06066 0.0
H2072 H 0.50099 0.15734 0.042 0.0
H2073 H 0.44638 0.1546 0.06594 0.0
H2074 H 0.51371 0.20406 0.0558 0.0
H2075 H 0.52249 0.18979 0.07254 0.0
H2076 H 0.52298 0.18242 0.04838 0.0
H2077 H 0.4369 0.1769 0.08776 0.0
H2078 H 0.45566 0.18632 0.10277 0.0
H2079 H 0.44755 0.1999 0.08506 0.0
H2080 H 0.50502 0.21818 0.1284 0.0
H2081 H 0.48445 0.25138 0.08676 0.0
H2082 H 0.50886 0.17748 0.10043 0.0
H2083 H 0.48655 0.17579 0.11119 0.0
H2084 H 0.50648 0.18614 0.12405 0.0
H2085 H 0.48424 0.2175 0.04983 0.0
H2086 H 0.47449 0.23879 0.05763 0.0
H2087 H 0.46152 0.21677 0.05974 0.0
C2088 C 0.28051 0.42984 0.73129 0.0
C2089 C 0.28597 0.41318 0.73772 0.0
C2090 C 0.29101 0.44669 0.7355 0.0
C2091 C 0.30726 0.44689 0.74653 0.0
C2092 C 0.31264 0.43015 0.75332 0.0
C2093 C 0.30198 0.4135 0.74876 0.0
C2094 C 0.28492 0.46422 0.72786 0.0
C2095 C 0.32974 0.4298 0.7653 0.0
C2096 C 0.34579 0.48544 0.74394 0.0
C2097 C 0.34269 0.49656 0.75997 0.0
C2098 C 0.33404 0.46954 0.73913 0.0
C2099 C 0.31891 0.46451 0.75072 0.0
C2100 C 0.31546 0.47587 0.7667 0.0
C2101 C 0.32733 0.4918 0.77109 0.0
C2102 C 0.33807 0.45791 0.72185 0.0
C2103 C 0.29954 0.4709 0.77946 0.0
H2104 H 0.26823 0.42963 0.72261 0.0
H2105 H 0.30612 0.40069 0.75396 0.0
H2106 H 0.28296 0.47475 0.73927 0.0
H2107 H 0.29591 0.47015 0.71875 0.0
H2108 H 0.27174 0.46179 0.71984 0.0
H2109 H 0.33172 0.41573 0.76991 0.0
H2110 H 0.3423 0.43466 0.75759 0.0
H2111 H 0.32872 0.43941 0.77768 0.0
H2112 H 0.35755 0.48905 0.7352 0.0
H2113 H 0.32482 0.50026 0.78352 0.0
H2114 H 0.3255 0.45586 0.71292 0.0
H2115 H 0.34174 0.444 0.72559 0.0
H2116 H 0.3497 0.46429 0.71377 0.0
H2117 H 0.28623 0.4691 0.77164 0.0
H2118 H 0.29824 0.4816 0.7909 0.0
H2119 H 0.30165 0.45749 0.7855 0.0
C2120 C 0.28212 0.65519 0.79542 0.0
C2121 C 0.28947 0.67119 0.80552 0.0
C2122 C 0.29282 0.63994 0.7919 0.0
C2123 C 0.31131 0.64064 0.7987 0.0
C2124 C 0.319 0.65695 0.8084 0.0
C2125 C 0.30803 0.67202 0.81164 0.0
C2126 C 0.28411 0.62282 0.78146 0.0
C2127 C 0.33865 0.65828 0.81588 0.0
C2128 C 0.33089 0.59502 0.80882 0.0
C2129 C 0.34248 0.59191 0.79358 0.0
C2130 C 0.32077 0.61082 0.81063 0.0
C2131 C 0.32215 0.62387 0.79683 0.0
C2132 C 0.33385 0.62088 0.78142 0.0
C2133 C 0.34393 0.60495 0.78 0.0
C2134 C 0.30857 0.61353 0.82735 0.0
C2135 C 0.33562 0.63444 0.76639 0.0
H2136 H 0.26776 0.65432 0.79078 0.0
H2137 H 0.31395 0.68443 0.81915 0.0
H2138 H 0.2932 0.61855 0.76989 0.0
H2139 H 0.28264 0.6112 0.79078 0.0
H2140 H 0.27015 0.625 0.77583 0.0
H2141 H 0.34294 0.6723 0.82216 0.0
H2142 H 0.33982 0.64804 0.82653 0.0
H2143 H 0.34855 0.65487 0.80471 0.0
H2144 H 0.32969 0.58506 0.81941 0.0
H2145 H 0.3528 0.60264 0.76816 0.0
H2146 H 0.29391 0.61428 0.82295 0.0
H2147 H 0.31294 0.62684 0.83502 0.0
H2148 H 0.30913 0.60216 0.83691 0.0
H2149 H 0.32177 0.63576 0.76011 0.0
H2150 H 0.34533 0.63015 0.75534 0.0
H2151 H 0.34065 0.64837 0.77233 0.0
C2152 C 0.87524 0.49456 0.51862 0.0
C2153 C 0.88123 0.49243 0.50026 0.0
C2154 C 0.85896 0.48481 0.52461 0.0
C2155 C 0.84847 0.47258 0.51196 0.0
C2156 C 0.85443 0.47037 0.49343 0.0
C2157 C 0.87068 0.48035 0.4878 0.0
C2158 C 0.85303 0.48756 0.54448 0.0
C2159 C 0.84362 0.45746 0.4795 0.0
C2160 C 0.81565 0.4337 0.52885 0.0
C2161 C 0.7982 0.44066 0.52647 0.0
C2162 C 0.83216 0.44414 0.52466 0.0
C2163 C 0.83123 0.46202 0.51801 0.0
C2164 C 0.81372 0.46941 0.51621 0.0
C2165 C 0.79742 0.45864 0.52041 0.0
C2166 C 0.85057 0.43577 0.52674 0.0
C2167 C 0.81216 0.4885 0.50931 0.0
H2168 H 0.88342 0.50368 0.52841 0.0
H2169 H 0.87502 0.47884 0.47352 0.0
H2170 H 0.83878 0.49239 0.54511 0.0
H2171 H 0.85257 0.47417 0.5512 0.0
H2172 H 0.86258 0.49778 0.55251 0.0
H2173 H 0.85022 0.45718 0.46566 0.0
H2174 H 0.84247 0.44318 0.48433 0.0
H2175 H 0.82926 0.4618 0.47812 0.0
H2176 H 0.81643 0.41985 0.53354 0.0
H2177 H 0.78403 0.46421 0.51861 0.0
H2178 H 0.86025 0.44528 0.53537 0.0
H2179 H 0.85711 0.4338 0.513 0.0
H2180 H 0.84901 0.42216 0.5331 0.0
H2181 H 0.82118 0.4989 0.51766 0.0
H2182 H 0.79764 0.4927 0.50983 0.0
H2183 H 0.81707 0.48879 0.49483 0.0
C2184 C 0.73462 0.91752 0.77928 0.0
C2185 C 0.73015 0.90051 0.78712 0.0
C2186 C 0.72187 0.93125 0.77937 0.0
C2187 C 0.70418 0.92798 0.78755 0.0
C2188 C 0.69948 0.91078 0.79533 0.0
C2189 C 0.71251 0.89726 0.79502 0.0
C2190 C 0.72748 0.94942 0.77099 0.0
C2191 C 0.68077 0.90676 0.80419 0.0
C2192 C 0.68038 0.97086 0.80424 0.0
C2193 C 0.6679 0.97286 0.78975 0.0
C2194 C 0.6919 0.95608 0.80389 0.0
C2195 C 0.691 0.94291 0.78866 0.0
C2196 C 0.67813 0.94457 0.77418 0.0
C2197 C 0.66671 0.95952 0.7749 0.0
C2198 C 0.70538 0.9548 0.81964 0.0
C2199 C 0.67675 0.93081 0.75771 0.0
H2200 H 0.7483 0.92029 0.77339 0.0
H2201 H 0.70884 0.88407 0.8009 0.0
H2202 H 0.71715 0.95231 0.76038 0.0
H2203 H 0.72766 0.9609 0.78182 0.0
H2204 H 0.74144 0.94951 0.7645 0.0
H2205 H 0.67902 0.8925 0.80909 0.0
H2206 H 0.67908 0.91678 0.81612 0.0
H2207 H 0.66945 0.90853 0.79421 0.0
H2208 H 0.68136 0.98104 0.81582 0.0
H2209 H 0.6571 0.96094 0.76365 0.0
H2210 H 0.71988 0.95627 0.81448 0.0
H2211 H 0.70333 0.94101 0.82552 0.0
H2212 H 0.70376 0.96565 0.83087 0.0
H2213 H 0.69008 0.93149 0.75004 0.0
H2214 H 0.66536 0.93345 0.74809 0.0
H2215 H 0.67432 0.91651 0.76232 0.0
C2216 C 0.64436 0.55656 0.99205 0.0
C2217 C 0.63245 0.56056 0.97772 0.0
C2218 C 0.66072 0.56783 0.99625 0.0
C2219 C 0.66537 0.58341 0.9858 0.0
C2220 C 0.65349 0.58745 0.97126 0.0
C2221 C 0.63717 0.57606 0.96746 0.0
C2222 C 0.673 0.5631 0.0119 0.0
C2223 C 0.65797 0.60392 0.95977 0.0
C2224 C 0.69782 0.62332 0.00587 0.0
C2225 C 0.71467 0.61997 0.99702 0.0
C2226 C 0.68178 0.61133 1.00263 0.0
C2227 C 0.68253 0.59564 0.99015 0.0
C2228 C 0.69953 0.59202 0.98137 0.0
C2229 C 0.7154 0.60418 0.98495 0.0
C2230 C 0.66394 0.61559 0.01237 0.0
C2231 C 0.70086 0.57549 0.9679 0.0
H2232 H 0.64098 0.5445 0.9999 0.0
H2233 H 0.62792 0.57947 0.95659 0.0
H2234 H 0.68715 0.56074 0.00668 0.0
H2235 H 0.67448 0.57489 0.0224 0.0
H2236 H 0.6674 0.55055 0.01874 0.0
H2237 H 0.64752 0.6049 0.94867 0.0
H2238 H 0.65856 0.6169 0.96872 0.0
H2239 H 0.67187 0.60299 0.95335 0.0
H2240 H 0.6971 0.63541 0.01529 0.0
H2241 H 0.72833 0.60146 0.97803 0.0
H2242 H 0.65854 0.60353 0.02004 0.0
H2243 H 0.65318 0.61815 1.00208 0.0
H2244 H 0.66585 0.62791 0.02222 0.0
H2245 H 0.69624 0.56255 0.97456 0.0
H2246 H 0.71524 0.57429 0.96267 0.0
H2247 H 0.69146 0.57662 0.95596 0.0
C2248 C 0.21383 0.64521 0.2648 0.0
C2249 C 0.22848 0.64352 0.25224 0.0
C2250 C 0.20079 0.63023 0.26747 0.0
C2251 C 0.20235 0.61317 0.25724 0.0
C2252 C 0.21685 0.61152 0.2442 0.0
C2253 C 0.22978 0.62669 0.24192 0.0
C2254 C 0.18562 0.6325 0.2816 0.0
C2255 C 0.21887 0.59364 0.23289 0.0
C2256 C 0.18114 0.56929 0.27752 0.0
C2257 C 0.16421 0.56619 0.26784 0.0
C2258 C 0.19367 0.58449 0.27416 0.0
C2259 C 0.18926 0.59686 0.2607 0.0
C2260 C 0.17231 0.59373 0.25072 0.0
C2261 C 0.15996 0.57848 0.25446 0.0
C2262 C 0.21156 0.5874 0.28517 0.0
C2263 C 0.1672 0.60654 0.23615 0.0
H2264 H 0.21288 0.65812 0.27296 0.0
H2265 H 0.24096 0.62539 0.23204 0.0
H2266 H 0.17177 0.6289 0.27512 0.0
H2267 H 0.18718 0.62283 0.29272 0.0
H2268 H 0.18592 0.64684 0.28794 0.0
H2269 H 0.23036 0.59489 0.22273 0.0
H2270 H 0.22164 0.58249 0.24213 0.0
H2271 H 0.20571 0.58927 0.22536 0.0
H2272 H 0.18456 0.55992 0.28791 0.0
H2273 H 0.14695 0.5762 0.24686 0.0
H2274 H 0.21221 0.60109 0.29293 0.0
H2275 H 0.22367 0.58748 0.27573 0.0
H2276 H 0.21293 0.5765 0.29511 0.0
H2277 H 0.16632 0.62076 0.24244 0.0
H2278 H 0.15368 0.60196 0.22934 0.0
H2279 H 0.17817 0.60728 0.22545 0.0
C2280 C 0.88825 0.58364 0.04095 0.0
C2281 C 0.88359 0.56541 0.04581 0.0
C2282 C 0.87458 0.59479 0.0349 0.0
C2283 C 0.85576 0.5876 0.03376 0.0
C2284 C 0.85095 0.56926 0.03878 0.0
C2285 C 0.86491 0.55838 0.04468 0.0
C2286 C 0.88031 0.6142 0.02951 0.0
C2287 C 0.83103 0.5611 0.03786 0.0
C2288 C 0.81737 0.62096 0.03257 0.0
C2289 C 0.81273 0.61991 0.01373 0.0
C2290 C 0.83143 0.61063 0.03929 0.0
C2291 C 0.84116 0.59906 0.02686 0.0
C2292 C 0.83673 0.59819 0.0078 0.0
C2293 C 0.82256 0.60856 1.00149 0.0
C2294 C 0.83569 0.61187 0.05972 0.0
C2295 C 0.84684 0.58613 0.99407 0.0
H2296 H 0.90267 0.5891 0.04159 0.0
H2297 H 0.86117 0.54441 0.04865 0.0
H2298 H 0.87677 0.61559 0.0148 0.0
H2299 H 0.87253 0.62437 0.03781 0.0
H2300 H 0.89546 0.61785 0.03151 0.0
H2301 H 0.82953 0.54677 0.04263 0.0
H2302 H 0.82208 0.56989 0.04651 0.0
H2303 H 0.82576 0.56084 0.02347 0.0
H2304 H 0.80982 0.62965 0.04213 0.0
H2305 H 0.81913 0.60768 0.9869 0.0
H2306 H 0.8506 0.61634 0.06213 0.0
H2307 H 0.83312 0.59801 0.06534 0.0
H2308 H 0.8271 0.62174 0.06752 0.0
H2309 H 0.86204 0.58992 0.99489 0.0
H2310 H 0.84211 0.5874 0.97965 0.0
H2311 H 0.8446 0.5714 0.99745 0.0
C2312 C 0.12436 0.99427 0.05065 0.0
C2313 C 0.12811 0.01073 0.06161 0.0
C2314 C 0.13838 0.98221 0.04655 0.0
C2315 C 0.15665 0.98676 0.05344 0.0
C2316 C 0.16051 1.00332 0.06457 0.0
C2317 C 0.14619 0.01506 0.06857 0.0
C2318 C 0.13365 0.96463 0.03474 0.0
C2319 C 0.17984 0.00879 0.07201 0.0
C2320 C 0.19025 0.9486 0.05461 0.0
C2321 C 0.20047 0.95122 0.0384 0.0
C2322 C 0.17594 0.96006 0.05971 0.0
C2323 C 0.17186 0.97455 0.0484 0.0
C2324 C 0.18225 0.97733 0.03212 0.0
C2325 C 0.19635 0.96561 0.02729 0.0
C2326 C 0.16511 0.9566 0.07713 0.0
C2327 C 0.17846 0.99268 0.01974 0.0
H2328 H 0.11036 0.9907 0.04545 0.0
H2329 H 0.14922 0.02784 0.07691 0.0
H2330 H 0.14195 0.9648 0.02187 0.0
H2331 H 0.13732 0.95244 0.04217 0.0
H2332 H 0.11865 0.9628 0.03096 0.0
H2333 H 0.18045 0.02188 0.08083 0.0
H2334 H 0.1847 0.99764 0.08024 0.0
H2335 H 0.1897 0.0106 0.0604 0.0
H2336 H 0.19332 0.93751 0.06326 0.0
H2337 H 0.2042 0.96781 0.01477 0.0
H2338 H 0.15011 0.95365 0.07378 0.0
H2339 H 0.16637 0.96918 0.08666 0.0
H2340 H 0.16999 0.9448 0.08443 0.0
H2341 H 0.16392 0.99076 0.01454 0.0
H2342 H 0.18799 0.9932 0.00772 0.0
H2343 H 0.17999 0.00626 0.02769 0.0
loop_
_geom_bond_atom_site_label_1
_geom_bond_atom_site_label_2
_geom_bond_distance
_geom_bond_site_symmetry_2
_ccdc_geom_bond_type
C0 C1 1.264 . S
C0 C5 1.479 . S
C0 C10 1.465 . S
C1 C0 1.264 . S
C1 C3 1.339 . S
C1 H28 0.931 . S
C2 C3 1.395 . S
C2 C4 1.320 . S
C3 C1 1.339 . S
C3 C2 1.395 . S
C3 H29 0.929 . S
C4 C2 1.320 . S
C4 C5 1.405 . S
C4 H30 0.930 . S
C5 C0 1.479 . S
C5 C4 1.405 . S
C5 H31 0.931 . S
U6 O7 2.454 . S
U6 O8 2.458 . S
U6 C9 2.984 . S
U6 C10 2.847 . S
U6 C23 2.882 . S
U6 O24 2.441 . S
U6 O25 2.420 . S
U6 O26 2.455 . S
U6 O27 2.449 . S
O7 U6 2.454 . S
O7 C9 1.353 . S
O8 U6 2.458 . S
O8 C9 1.286 . S
C9 U6 2.984 . S
C9 O7 1.353 . S
C9 O8 1.286 . S
C9 C11 1.363 . S
C10 C0 1.465 . S
C10 U6 2.847 . S
C10 O24 1.249 . S
C10 O25 1.202 . S
C11 C9 1.363 . S
C11 C13 1.408 . S
C11 C16 1.342 . S
C12 C13 1.310 . S
C12 C15 1.461 . S
C12 H32 0.932 . S
C13 C11 1.408 . S
C13 C12 1.310 . S
C13 H33 0.930 . S
C14 C15 1.474 . S
C14 C16 1.285 . S
C14 H34 0.929 . S
C15 C12 1.461 . S
C15 C14 1.474 . S
C16 C11 1.342 . S
C16 C14 1.285 . S
C16 H35 0.930 . S
C17 C20 1.424 . S
C17 C22 1.245 . S
C17 C23 1.428 . S
C18 C21 1.260 . S
C18 C22 1.477 . S
C18 H36 0.932 . S
C19 C20 1.384 . S
C19 C21 1.479 . S
C19 H37 0.929 . S
C20 C17 1.424 . S
C20 C19 1.384 . S
C20 H38 0.928 . S
C21 C18 1.260 . S
C21 C19 1.479 . S
C22 C17 1.245 . S
C22 C18 1.477 . S
C22 H39 0.932 . S
C23 U6 2.882 . S
C23 C17 1.428 . S
C23 O26 1.301 . S
C23 O27 1.282 . S
O24 U6 2.441 . S
O24 C10 1.249 . S
O25 U6 2.420 . S
O25 C10 1.202 . S
O26 U6 2.455 . S
O26 C23 1.301 . S
O27 U6 2.449 . S
O27 C23 1.282 . S
H28 C1 0.931 . S
H29 C3 0.929 . S
H30 C4 0.930 . S
H31 C5 0.931 . S
H32 C12 0.932 . S
H33 C13 0.930 . S
H34 C14 0.929 . S
H35 C16 0.930 . S
H36 C18 0.932 . S
H37 C19 0.929 . S
H38 C20 0.928 . S
H39 C22 0.932 . S
C40 C41 1.264 . S
C40 C45 1.479 . S
C40 C50 1.465 . S
C41 C40 1.264 . S
C41 C43 1.339 . S
C41 H68 0.931 . S
C42 C43 1.395 . S
C42 C44 1.320 . S
C43 C41 1.339 . S
C43 C42 1.395 . S
C43 H69 0.929 . S
C44 C42 1.320 . S
C44 C45 1.405 . S
C44 H70 0.930 . S
C45 C40 1.479 . S
C45 C44 1.405 . S
C45 H71 0.931 . S
U46 O47 2.454 . S
U46 O48 2.458 . S
U46 C49 2.984 . S
U46 C50 2.847 . S
U46 C63 2.882 . S
U46 O64 2.441 . S
U46 O65 2.420 . S
U46 O66 2.455 . S
U46 O67 2.449 . S
O47 U46 2.454 . S
O47 C49 1.353 . S
O48 U46 2.458 . S
O48 C49 1.286 . S
C49 U46 2.984 . S
C49 O47 1.353 . S
C49 O48 1.286 . S
C49 C51 1.363 . S
C50 C40 1.465 . S
C50 U46 2.847 . S
C50 O64 1.249 . S
C50 O65 1.202 . S
C51 C49 1.363 . S
C51 C53 1.408 . S
C51 C56 1.342 . S
C52 C53 1.310 . S
C52 C55 1.461 . S
C52 H72 0.932 . S
C53 C51 1.408 . S
C53 C52 1.310 . S
C53 H73 0.930 . S
C54 C55 1.474 . S
C54 C56 1.285 . S
C54 H74 0.929 . S
C55 C52 1.461 . S
C55 C54 1.474 . S
C56 C51 1.342 . S
C56 C54 1.285 . S
C56 H75 0.930 . S
C57 C60 1.424 . S
C57 C62 1.245 . S
C57 C63 1.428 . S
C58 C61 1.260 . S
C58 C62 1.477 . S
C58 H76 0.932 . S
C59 C60 1.384 . S
C59 C61 1.479 . S
C59 H77 0.929 . S
C60 C57 1.424 . S
C60 C59 1.384 . S
C60 H78 0.928 . S
C61 C58 1.260 . S
C61 C59 1.479 . S
C62 C57 1.245 . S
C62 C58 1.477 . S
C62 H79 0.932 . S
C63 U46 2.882 . S
C63 C57 1.428 . S
C63 O66 1.301 . S
C63 O67 1.282 . S
O64 U46 2.441 . S
O64 C50 1.249 . S
O65 U46 2.420 . S
O65 C50 1.202 . S
O66 U46 2.455 . S
O66 C63 1.301 . S
O67 U46 2.449 . S
O67 C63 1.282 . S
H68 C41 0.931 . S
H69 C43 0.929 . S
H70 C44 0.930 . S
H71 C45 0.931 . S
H72 C52 0.932 . S
H73 C53 0.930 . S
H74 C54 0.929 . S
H75 C56 0.930 . S
H76 C58 0.932 . S
H77 C59 0.929 . S
H78 C60 0.928 . S
H79 C62 0.932 . S
C80 C81 1.264 . S
C80 C85 1.479 . S
C80 C90 1.465 . S
C81 C80 1.264 . S
C81 C83 1.339 . S
C81 H108 0.931 . S
C82 C83 1.395 . S
C82 C84 1.320 . S
C83 C81 1.339 . S
C83 C82 1.395 . S
C83 H109 0.929 . S
C84 C82 1.320 . S
C84 C85 1.405 . S
C84 H110 0.930 . S
C85 C80 1.479 . S
C85 C84 1.405 . S
C85 H111 0.931 . S
U86 O87 2.454 . S
U86 O88 2.458 . S
U86 C89 2.984 . S
U86 C90 2.847 . S
U86 C103 2.882 . S
U86 O104 2.441 . S
U86 O105 2.420 . S
U86 O106 2.455 . S
U86 O107 2.449 . S
O87 U86 2.454 . S
O87 C89 1.353 . S
O88 U86 2.458 . S
O88 C89 1.286 . S
C89 U86 2.984 . S
C89 O87 1.353 . S
C89 O88 1.286 . S
C89 C91 1.363 . S
C90 C80 1.465 . S
C90 U86 2.847 . S
C90 O104 1.249 . S
C90 O105 1.202 . S
C91 C89 1.363 . S
C91 C93 1.408 . S
C91 C96 1.342 . S
C92 C93 1.310 . S
C92 C95 1.461 . S
C92 H112 0.932 . S
C93 C91 1.408 . S
C93 C92 1.310 . S
C93 H113 0.930 . S
C94 C95 1.474 . S
C94 C96 1.285 . S
C94 H114 0.929 . S
C95 C92 1.461 . S
C95 C94 1.474 . S
C96 C91 1.342 . S
C96 C94 1.285 . S
C96 H115 0.930 . S
C97 C100 1.424 . S
C97 C102 1.245 . S
C97 C103 1.428 . S
C98 C101 1.260 . S
C98 C102 1.477 . S
C98 H116 0.932 . S
C99 C100 1.384 . S
C99 C101 1.479 . S
C99 H117 0.929 . S
C100 C97 1.424 . S
C100 C99 1.384 . S
C100 H118 0.928 . S
C101 C98 1.260 . S
C101 C99 1.479 . S
C102 C97 1.245 . S
C102 C98 1.477 . S
C102 H119 0.932 . S
C103 U86 2.882 . S
C103 C97 1.428 . S
C103 O106 1.301 . S
C103 O107 1.282 . S
O104 U86 2.441 . S
O104 C90 1.249 . S
O105 U86 2.420 . S
O105 C90 1.202 . S
O106 U86 2.455 . S
O106 C103 1.301 . S
O107 U86 2.449 . S
O107 C103 1.282 . S
H108 C81 0.931 . S
H109 C83 0.929 . S
H110 C84 0.930 . S
H111 C85 0.931 . S
H112 C92 0.932 . S
H113 C93 0.930 . S
H114 C94 0.929 . S
H115 C96 0.930 . S
H116 C98 0.932 . S
H117 C99 0.929 . S
H118 C100 0.928 . S
H119 C102 0.932 . S
C120 C121 1.264 . S
C120 C125 1.479 . S
C120 C130 1.465 . S
C121 C120 1.264 . S
C121 C123 1.339 . S
C121 H148 0.931 . S
C122 C123 1.395 . S
C122 C124 1.320 . S
C123 C121 1.339 . S
C123 C122 1.395 . S
C123 H149 0.929 . S
C124 C122 1.320 . S
C124 C125 1.405 . S
C124 H150 0.930 . S
C125 C120 1.479 . S
C125 C124 1.405 . S
C125 H151 0.931 . S
U126 O127 2.454 . S
U126 O128 2.458 . S
U126 C129 2.984 . S
U126 C130 2.847 . S
U126 C143 2.882 . S
U126 O144 2.441 . S
U126 O145 2.420 . S
U126 O146 2.455 . S
U126 O147 2.449 . S
O127 U126 2.454 . S
O127 C129 1.353 . S
O128 U126 2.458 . S
O128 C129 1.286 . S
C129 U126 2.984 . S
C129 O127 1.353 . S
C129 O128 1.286 . S
C129 C131 1.363 . S
C130 C120 1.465 . S
C130 U126 2.847 . S
C130 O144 1.249 . S
C130 O145 1.202 . S
C131 C129 1.363 . S
C131 C133 1.408 . S
C131 C136 1.342 . S
C132 C133 1.310 . S
C132 C135 1.461 . S
C132 H152 0.932 . S
C133 C131 1.408 . S
C133 C132 1.310 . S
C133 H153 0.930 . S
C134 C135 1.474 . S
C134 C136 1.285 . S
C134 H154 0.929 . S
C135 C132 1.461 . S
C135 C134 1.474 . S
C136 C131 1.342 . S
C136 C134 1.285 . S
C136 H155 0.930 . S
C137 C140 1.424 . S
C137 C142 1.245 . S
C137 C143 1.428 . S
C138 C141 1.260 . S
C138 C142 1.477 . S
C138 H156 0.932 . S
C139 C140 1.384 . S
C139 C141 1.479 . S
C139 H157 0.929 . S
C140 C137 1.424 . S
C140 C139 1.384 . S
C140 H158 0.928 . S
C141 C138 1.260 . S
C141 C139 1.479 . S
C142 C137 1.245 . S
C142 C138 1.477 . S
C142 H159 0.932 . S
C143 U126 2.882 . S
C143 C137 1.428 . S
C143 O146 1.301 . S
C143 O147 1.282 . S
O144 U126 2.441 . S
O144 C130 1.249 . S
O145 U126 2.420 . S
O145 C130 1.202 . S
O146 U126 2.455 . S
O146 C143 1.301 . S
O147 U126 2.449 . S
O147 C143 1.282 . S
H148 C121 0.931 . S
H149 C123 0.929 . S
H150 C124 0.930 . S
H151 C125 0.931 . S
H152 C132 0.932 . S
H153 C133 0.930 . S
H154 C134 0.929 . S
H155 C136 0.930 . S
H156 C138 0.932 . S
H157 C139 0.929 . S
H158 C140 0.928 . S
H159 C142 0.932 . S
C160 C161 1.264 . S
C160 C165 1.479 . S
C160 C170 1.465 . S
C161 C160 1.264 . S
C161 C163 1.339 . S
C161 H188 0.931 . S
C162 C163 1.395 . S
C162 C164 1.320 . S
C163 C161 1.339 . S
C163 C162 1.395 . S
C163 H189 0.929 . S
C164 C162 1.320 . S
C164 C165 1.405 . S
C164 H190 0.930 . S
C165 C160 1.479 . S
C165 C164 1.405 . S
C165 H191 0.931 . S
U166 O167 2.454 . S
U166 O168 2.458 . S
U166 C169 2.984 . S
U166 C170 2.847 . S
U166 C183 2.882 . S
U166 O184 2.441 . S
U166 O185 2.420 . S
U166 O186 2.455 . S
U166 O187 2.449 . S
O167 U166 2.454 . S
O167 C169 1.353 . S
O168 U166 2.458 . S
O168 C169 1.286 . S
C169 U166 2.984 . S
C169 O167 1.353 . S
C169 O168 1.286 . S
C169 C171 1.363 . S
C170 C160 1.465 . S
C170 U166 2.847 . S
C170 O184 1.249 . S
C170 O185 1.202 . S
C171 C169 1.363 . S
C171 C173 1.408 . S
C171 C176 1.342 . S
C172 C173 1.310 . S
C172 C175 1.461 . S
C172 H192 0.932 . S
C173 C171 1.408 . S
C173 C172 1.310 . S
C173 H193 0.930 . S
C174 C175 1.474 . S
C174 C176 1.285 . S
C174 H194 0.929 . S
C175 C172 1.461 . S
C175 C174 1.474 . S
C176 C171 1.342 . S
C176 C174 1.285 . S
C176 H195 0.930 . S
C177 C180 1.424 1_565 S
C177 C182 1.245 . S
C177 C183 1.428 . S
C178 C181 1.285 . S
C178 C182 1.459 1_545 S
C178 H196 0.920 1_545 S
C179 C180 1.384 . S
C179 C181 1.479 . S
C179 H197 0.929 . S
C180 C177 1.424 1_545 S
C180 C179 1.384 . S
C180 H198 0.928 . S
C181 C178 1.285 . S
C181 C179 1.479 . S
C182 C177 1.245 . S
C182 C178 1.459 1_565 S
C182 H199 0.932 . S
C183 U166 2.882 . S
C183 C177 1.428 . S
C183 O186 1.301 . S
C183 O187 1.282 . S
O184 U166 2.441 . S
O184 C170 1.249 . S
O185 U166 2.420 . S
O185 C170 1.202 . S
O186 U166 2.455 . S
O186 C183 1.301 . S
O187 U166 2.449 . S
O187 C183 1.282 . S
H188 C161 0.931 . S
H189 C163 0.929 . S
H190 C164 0.930 . S
H191 C165 0.931 . S
H192 C172 0.932 . S
H193 C173 0.930 . S
H194 C174 0.929 . S
H195 C176 0.930 . S
H196 C178 0.920 1_565 S
H197 C179 0.929 . S
H198 C180 0.928 . S
H199 C182 0.932 . S
C200 C201 1.264 . S
C200 C205 1.479 . S
C200 C210 1.465 . S
C201 C200 1.264 . S
C201 C203 1.339 . S
C201 H228 0.931 . S
C202 C203 1.395 . S
C202 C204 1.320 . S
C203 C201 1.339 . S
C203 C202 1.395 . S
C203 H229 0.929 . S
C204 C202 1.320 . S
C204 C205 1.405 . S
C204 H230 0.930 . S
C205 C200 1.479 . S
C205 C204 1.405 . S
C205 H231 0.931 . S
U206 O207 2.454 . S
U206 O208 2.458 . S
U206 C209 2.984 . S
U206 C210 2.847 . S
U206 C223 2.882 . S
U206 O224 2.441 . S
U206 O225 2.420 . S
U206 O226 2.455 . S
U206 O227 2.449 . S
O207 U206 2.454 . S
O207 C209 1.353 . S
O208 U206 2.458 . S
O208 C209 1.286 . S
C209 U206 2.984 . S
C209 O207 1.353 . S
C209 O208 1.286 . S
C209 C211 1.363 . S
C210 C200 1.465 . S
C210 U206 2.847 . S
C210 O224 1.249 . S
C210 O225 1.202 . S
C211 C209 1.363 . S
C211 C213 1.408 . S
C211 C216 1.342 . S
C212 C213 1.310 . S
C212 C215 1.461 . S
C212 H232 0.932 . S
C213 C211 1.408 . S
C213 C212 1.310 . S
C213 H233 0.930 . S
C214 C215 1.474 . S
C214 C216 1.285 . S
C214 H234 0.929 . S
C215 C212 1.461 . S
C215 C214 1.474 . S
C216 C211 1.342 . S
C216 C214 1.285 . S
C216 H235 0.930 . S
C217 C220 1.424 . S
C217 C222 1.245 . S
C217 C223 1.428 . S
C218 C221 1.260 . S
C218 C222 1.477 . S
C218 H236 0.932 . S
C219 C220 1.384 . S
C219 C221 1.479 . S
C219 H237 0.929 . S
C220 C217 1.424 . S
C220 C219 1.384 . S
C220 H238 0.928 . S
C221 C218 1.260 . S
C221 C219 1.479 . S
C222 C217 1.245 . S
C222 C218 1.477 . S
C222 H239 0.932 . S
C223 U206 2.882 . S
C223 C217 1.428 . S
C223 O226 1.301 . S
C223 O227 1.282 . S
O224 U206 2.441 . S
O224 C210 1.249 . S
O225 U206 2.420 . S
O225 C210 1.202 . S
O226 U206 2.455 . S
O226 C223 1.301 . S
O227 U206 2.449 . S
O227 C223 1.282 . S
H228 C201 0.931 . S
H229 C203 0.929 . S
H230 C204 0.930 . S
H231 C205 0.931 . S
H232 C212 0.932 . S
H233 C213 0.930 . S
H234 C214 0.929 . S
H235 C216 0.930 . S
H236 C218 0.932 . S
H237 C219 0.929 . S
H238 C220 0.928 . S
H239 C222 0.932 . S
C240 C241 1.264 . S
C240 C245 1.479 . S
C240 C250 1.465 . S
C241 C240 1.264 . S
C241 C243 1.339 . S
C241 H268 0.931 . S
C242 C243 1.395 . S
C242 C244 1.320 . S
C243 C241 1.339 . S
C243 C242 1.395 . S
C243 H269 0.929 . S
C244 C242 1.320 . S
C244 C245 1.405 . S
C244 H270 0.930 . S
C245 C240 1.479 . S
C245 C244 1.405 . S
C245 H271 0.931 . S
U246 O247 2.454 . S
U246 O248 2.458 . S
U246 C249 2.984 . S
U246 C250 2.847 . S
U246 C263 2.882 . S
U246 O264 2.441 . S
U246 O265 2.420 . S
U246 O266 2.455 . S
U246 O267 2.449 . S
O247 U246 2.454 . S
O247 C249 1.353 . S
O248 U246 2.458 . S
O248 C249 1.286 . S
C249 U246 2.984 . S
C249 O247 1.353 . S
C249 O248 1.286 . S
C249 C251 1.363 . S
C250 C240 1.465 . S
C250 U246 2.847 . S
C250 O264 1.249 . S
C250 O265 1.202 . S
C251 C249 1.363 . S
C251 C253 1.408 . S
C251 C256 1.342 . S
C252 C253 1.310 . S
C252 C255 1.461 . S
C252 H272 0.932 . S
C253 C251 1.408 . S
C253 C252 1.310 . S
C253 H273 0.930 . S
C254 C255 1.474 . S
C254 C256 1.285 . S
C254 H274 0.929 . S
C255 C252 1.461 . S
C255 C254 1.474 . S
C256 C251 1.342 . S
C256 C254 1.285 . S
C256 H275 0.930 . S
C257 C260 1.424 . S
C257 C262 1.245 . S
C257 C263 1.428 . S
C258 C261 1.260 . S
C258 C262 1.477 . S
C258 H276 0.932 . S
C259 C260 1.384 . S
C259 C261 1.479 . S
C259 H277 0.929 . S
C260 C257 1.424 . S
C260 C259 1.384 . S
C260 H278 0.928 . S
C261 C258 1.260 . S
C261 C259 1.479 . S
C262 C257 1.245 . S
C262 C258 1.477 . S
C262 H279 0.932 . S
C263 U246 2.882 . S
C263 C257 1.428 . S
C263 O266 1.301 . S
C263 O267 1.282 . S
O264 U246 2.441 . S
O264 C250 1.249 . S
O265 U246 2.420 . S
O265 C250 1.202 . S
O266 U246 2.455 . S
O266 C263 1.301 . S
O267 U246 2.449 . S
O267 C263 1.282 . S
H268 C241 0.931 . S
H269 C243 0.929 . S
H270 C244 0.930 . S
H271 C245 0.931 . S
H272 C252 0.932 . S
H273 C253 0.930 . S
H274 C254 0.929 . S
H275 C256 0.930 . S
H276 C258 0.932 . S
H277 C259 0.929 . S
H278 C260 0.928 . S
H279 C262 0.932 . S
C280 C281 1.264 . S
C280 C285 1.479 . S
C280 C290 1.465 . S
C281 C280 1.264 . S
C281 C283 1.339 . S
C281 H308 0.931 . S
C282 C283 1.395 . S
C282 C284 1.320 . S
C283 C281 1.339 . S
C283 C282 1.395 . S
C283 H309 0.929 . S
C284 C282 1.320 . S
C284 C285 1.405 . S
C284 H310 0.930 . S
C285 C280 1.479 . S
C285 C284 1.405 . S
C285 H311 0.931 . S
U286 O287 2.454 . S
U286 O288 2.458 . S
U286 C289 2.984 . S
U286 C290 2.847 . S
U286 C303 2.882 . S
U286 O304 2.441 . S
U286 O305 2.420 . S
U286 O306 2.455 . S
U286 O307 2.449 . S
O287 U286 2.454 . S
O287 C289 1.353 . S
O288 U286 2.458 . S
O288 C289 1.286 . S
C289 U286 2.984 . S
C289 O287 1.353 . S
C289 O288 1.286 . S
C289 C291 1.363 . S
C290 C280 1.465 . S
C290 U286 2.847 . S
C290 O304 1.249 . S
C290 O305 1.202 . S
C291 C289 1.363 . S
C291 C293 1.408 . S
C291 C296 1.342 . S
C292 C293 1.310 . S
C292 C295 1.461 . S
C292 H312 0.932 . S
C293 C291 1.408 . S
C293 C292 1.310 . S
C293 H313 0.930 . S
C294 C295 1.474 . S
C294 C296 1.285 . S
C294 H314 0.929 . S
C295 C292 1.461 . S
C295 C294 1.474 . S
C296 C291 1.342 . S
C296 C294 1.285 . S
C296 H315 0.930 . S
C297 C300 1.424 . S
C297 C302 1.245 . S
C297 C303 1.428 . S
C298 C301 1.260 . S
C298 C302 1.477 . S
C298 H316 0.932 . S
C299 C300 1.384 . S
C299 C301 1.479 . S
C299 H317 0.929 . S
C300 C297 1.424 . S
C300 C299 1.384 . S
C300 H318 0.928 . S
C301 C298 1.260 . S
C301 C299 1.479 . S
C302 C297 1.245 . S
C302 C298 1.477 . S
C302 H319 0.932 . S
C303 U286 2.882 . S
C303 C297 1.428 . S
C303 O306 1.301 . S
C303 O307 1.282 . S
O304 U286 2.441 . S
O304 C290 1.249 . S
O305 U286 2.420 . S
O305 C290 1.202 . S
O306 U286 2.455 . S
O306 C303 1.301 . S
O307 U286 2.449 . S
O307 C303 1.282 . S
H308 C281 0.931 . S
H309 C283 0.929 . S
H310 C284 0.930 . S
H311 C285 0.931 . S
H312 C292 0.932 . S
H313 C293 0.930 . S
H314 C294 0.929 . S
H315 C296 0.930 . S
H316 C298 0.932 . S
H317 C299 0.929 . S
H318 C300 0.928 . S
H319 C302 0.932 . S
C320 C321 1.264 . S
C320 C325 1.479 . S
C320 C330 1.465 . S
C321 C320 1.264 . S
C321 C323 1.339 . S
C321 H348 0.931 . S
C322 C323 1.395 . S
C322 C324 1.320 . S
C323 C321 1.339 . S
C323 C322 1.395 . S
C323 H349 0.929 . S
C324 C322 1.320 . S
C324 C325 1.405 . S
C324 H350 0.930 . S
C325 C320 1.479 . S
C325 C324 1.405 . S
C325 H351 0.931 . S
U326 O327 2.454 . S
U326 O328 2.458 . S
U326 C329 2.984 . S
U326 C330 2.847 . S
U326 C343 2.882 . S
U326 O344 2.441 . S
U326 O345 2.420 . S
U326 O346 2.455 . S
U326 O347 2.449 . S
O327 U326 2.454 . S
O327 C329 1.353 . S
O328 U326 2.458 . S
O328 C329 1.286 . S
C329 U326 2.984 . S
C329 O327 1.353 . S
C329 O328 1.286 . S
C329 C331 1.363 . S
C330 C320 1.465 . S
C330 U326 2.847 . S
C330 O344 1.249 . S
C330 O345 1.202 . S
C331 C329 1.363 . S
C331 C333 1.408 . S
C331 C336 1.342 . S
C332 C333 1.310 . S
C332 C335 1.461 . S
C332 H352 0.932 . S
C333 C331 1.408 . S
C333 C332 1.310 . S
C333 H353 0.930 . S
C334 C335 1.474 . S
C334 C336 1.285 . S
C334 H354 0.929 . S
C335 C332 1.461 . S
C335 C334 1.474 . S
C336 C331 1.342 . S
C336 C334 1.285 . S
C336 H355 0.930 . S
C337 C340 1.424 . S
C337 C342 1.245 . S
C337 C343 1.428 . S
C338 C341 1.260 . S
C338 C342 1.477 . S
C338 H356 0.932 . S
C339 C340 1.384 . S
C339 C341 1.479 . S
C339 H357 0.929 . S
C340 C337 1.424 . S
C340 C339 1.384 . S
C340 H358 0.928 . S
C341 C338 1.260 . S
C341 C339 1.479 . S
C342 C337 1.245 . S
C342 C338 1.477 . S
C342 H359 0.932 . S
C343 U326 2.882 . S
C343 C337 1.428 . S
C343 O346 1.301 . S
C343 O347 1.282 . S
O344 U326 2.441 . S
O344 C330 1.249 . S
O345 U326 2.420 . S
O345 C330 1.202 . S
O346 U326 2.455 . S
O346 C343 1.301 . S
O347 U326 2.449 . S
O347 C343 1.282 . S
H348 C321 0.931 . S
H349 C323 0.929 . S
H350 C324 0.930 . S
H351 C325 0.931 . S
H352 C332 0.932 . S
H353 C333 0.930 . S
H354 C334 0.929 . S
H355 C336 0.930 . S
H356 C338 0.932 . S
H357 C339 0.929 . S
H358 C340 0.928 . S
H359 C342 0.932 . S
C360 C361 1.264 . S
C360 C365 1.479 . S
C360 C370 1.465 . S
C361 C360 1.264 . S
C361 C363 1.339 . S
C361 H388 0.931 . S
C362 C363 1.395 . S
C362 C364 1.320 . S
C363 C361 1.339 . S
C363 C362 1.395 . S
C363 H389 0.929 . S
C364 C362 1.320 . S
C364 C365 1.405 . S
C364 H390 0.930 . S
C365 C360 1.479 . S
C365 C364 1.405 . S
C365 H391 0.931 . S
U366 O367 2.454 . S
U366 O368 2.458 . S
U366 C369 2.984 . S
U366 C370 2.847 . S
U366 C383 2.882 . S
U366 O384 2.441 . S
U366 O385 2.420 . S
U366 O386 2.455 . S
U366 O387 2.449 . S
O367 U366 2.454 . S
O367 C369 1.353 . S
O368 U366 2.458 . S
O368 C369 1.286 . S
C369 U366 2.984 . S
C369 O367 1.353 . S
C369 O368 1.286 . S
C369 C371 1.363 . S
C370 C360 1.465 . S
C370 U366 2.847 . S
C370 O384 1.249 . S
C370 O385 1.202 . S
C371 C369 1.363 . S
C371 C373 1.408 . S
C371 C376 1.342 . S
C372 C373 1.310 . S
C372 C375 1.461 . S
C372 H392 0.932 . S
C373 C371 1.408 . S
C373 C372 1.310 . S
C373 H393 0.930 . S
C374 C375 1.474 . S
C374 C376 1.285 . S
C374 H394 0.973 . S
C375 C372 1.461 . S
C375 C374 1.474 . S
C376 C371 1.342 . S
C376 C374 1.285 . S
C376 H395 0.930 . S
C377 C380 1.424 . S
C377 C382 1.245 . S
C377 C383 1.428 . S
C378 C381 1.260 . S
C378 C382 1.477 . S
C378 H396 0.932 . S
C379 C380 1.384 . S
C379 C381 1.479 . S
C379 H397 0.929 . S
C380 C377 1.424 . S
C380 C379 1.384 . S
C380 H398 0.928 . S
C381 C378 1.260 . S
C381 C379 1.479 . S
C382 C377 1.245 . S
C382 C378 1.477 . S
C382 H399 0.932 . S
C383 U366 2.882 . S
C383 C377 1.428 . S
C383 O386 1.301 . S
C383 O387 1.282 . S
O384 U366 2.441 . S
O384 C370 1.249 . S
O385 U366 2.420 . S
O385 C370 1.202 . S
O386 U366 2.455 . S
O386 C383 1.301 . S
O387 U366 2.449 . S
O387 C383 1.282 . S
H388 C361 0.931 . S
H389 C363 0.929 . S
H390 C364 0.930 . S
H391 C365 0.931 . S
H392 C372 0.932 . S
H393 C373 0.930 . S
H394 C374 0.973 . S
H395 C376 0.930 . S
H396 C378 0.932 . S
H397 C379 0.929 . S
H398 C380 0.928 . S
H399 C382 0.932 . S
C400 C401 1.264 . S
C400 C405 1.479 . S
C400 C410 1.465 . S
C401 C400 1.264 . S
C401 C403 1.339 . S
C401 H428 0.931 . S
C402 C403 1.395 . S
C402 C404 1.320 . S
C403 C401 1.339 . S
C403 C402 1.395 . S
C403 H429 0.929 . S
C404 C402 1.320 . S
C404 C405 1.405 . S
C404 H430 0.930 . S
C405 C400 1.479 . S
C405 C404 1.405 . S
C405 H431 0.931 . S
U406 O407 2.454 . S
U406 O408 2.458 . S
U406 C409 2.984 . S
U406 C410 2.847 . S
U406 C423 2.882 . S
U406 O424 2.441 . S
U406 O425 2.420 . S
U406 O426 2.455 . S
U406 O427 2.449 . S
O407 U406 2.454 . S
O407 C409 1.353 . S
O408 U406 2.458 . S
O408 C409 1.286 . S
C409 U406 2.984 . S
C409 O407 1.353 . S
C409 O408 1.286 . S
C409 C411 1.363 . S
C410 C400 1.465 . S
C410 U406 2.847 . S
C410 O424 1.249 . S
C410 O425 1.202 . S
C411 C409 1.363 . S
C411 C413 1.408 . S
C411 C416 1.342 . S
C412 C413 1.310 . S
C412 C415 1.461 . S
C412 H432 0.932 . S
C413 C411 1.408 . S
C413 C412 1.310 . S
C413 H433 0.930 . S
C414 C415 1.474 . S
C414 C416 1.285 . S
C414 H434 0.929 . S
C415 C412 1.461 . S
C415 C414 1.474 . S
C416 C411 1.342 . S
C416 C414 1.285 . S
C416 H435 0.930 . S
C417 C420 1.424 . S
C417 C422 1.245 . S
C417 C423 1.428 . S
C418 C421 1.260 . S
C418 C422 1.477 . S
C418 H436 0.932 . S
C419 C420 1.384 . S
C419 C421 1.479 . S
C419 H437 0.929 . S
C420 C417 1.424 . S
C420 C419 1.384 . S
C420 H438 0.928 . S
C421 C418 1.260 . S
C421 C419 1.479 . S
C422 C417 1.245 . S
C422 C418 1.477 . S
C422 H439 0.932 . S
C423 U406 2.882 . S
C423 C417 1.428 . S
C423 O426 1.301 . S
C423 O427 1.282 . S
O424 U406 2.441 . S
O424 C410 1.249 . S
O425 U406 2.420 . S
O425 C410 1.202 . S
O426 U406 2.455 . S
O426 C423 1.301 . S
O427 U406 2.449 . S
O427 C423 1.282 . S
H428 C401 0.931 . S
H429 C403 0.929 . S
H430 C404 0.930 . S
H431 C405 0.931 . S
H432 C412 0.932 . S
H433 C413 0.930 . S
H434 C414 0.929 . S
H435 C416 0.930 . S
H436 C418 0.932 . S
H437 C419 0.929 . S
H438 C420 0.928 . S
H439 C422 0.932 . S
C440 C441 1.264 . S
C440 C445 1.479 . S
C440 C450 1.465 . S
C441 C440 1.264 . S
C441 C443 1.339 . S
C441 H468 0.931 . S
C442 C443 1.395 . S
C442 C444 1.320 . S
C443 C441 1.339 . S
C443 C442 1.395 . S
C443 H469 0.929 . S
C444 C442 1.320 . S
C444 C445 1.405 . S
C444 H470 0.930 . S
C445 C440 1.479 . S
C445 C444 1.405 . S
C445 H471 0.931 . S
U446 O447 2.454 . S
U446 O448 2.458 . S
U446 C449 2.984 . S
U446 C450 2.847 . S
U446 C463 2.882 . S
U446 O464 2.441 . S
U446 O465 2.420 . S
U446 O466 2.455 . S
U446 O467 2.449 . S
O447 U446 2.454 . S
O447 C449 1.353 . S
O448 U446 2.458 . S
O448 C449 1.286 . S
C449 U446 2.984 . S
C449 O447 1.353 . S
C449 O448 1.286 . S
C449 C451 1.363 . S
C450 C440 1.465 . S
C450 U446 2.847 . S
C450 O464 1.249 . S
C450 O465 1.202 . S
C451 C449 1.363 . S
C451 C453 1.408 . S
C451 C456 1.342 . S
C452 C453 1.310 . S
C452 C455 1.461 . S
C452 H472 0.932 . S
C453 C451 1.408 . S
C453 C452 1.310 . S
C453 H473 0.930 . S
C454 C455 1.474 . S
C454 C456 1.285 . S
C454 H474 0.929 . S
C455 C452 1.461 . S
C455 C454 1.474 . S
C456 C451 1.342 . S
C456 C454 1.285 . S
C456 H475 0.930 . S
C457 C460 1.424 . S
C457 C462 1.245 . S
C457 C463 1.428 . S
C458 C461 1.260 . S
C458 C462 1.477 . S
C458 H476 0.932 . S
C459 C460 1.384 . S
C459 C461 1.479 . S
C459 H477 0.929 . S
C460 C457 1.424 . S
C460 C459 1.384 . S
C460 H478 0.928 . S
C461 C458 1.260 . S
C461 C459 1.479 . S
C462 C457 1.245 . S
C462 C458 1.477 . S
C462 H479 0.932 . S
C463 U446 2.882 . S
C463 C457 1.428 . S
C463 O466 1.301 . S
C463 O467 1.282 . S
O464 U446 2.441 . S
O464 C450 1.249 . S
O465 U446 2.420 . S
O465 C450 1.202 . S
O466 U446 2.455 . S
O466 C463 1.301 . S
O467 U446 2.449 . S
O467 C463 1.282 . S
H468 C441 0.931 . S
H469 C443 0.929 . S
H470 C444 0.930 . S
H471 C445 0.931 . S
H472 C452 0.932 . S
H473 C453 0.930 . S
H474 C454 0.929 . S
H475 C456 0.930 . S
H476 C458 0.932 . S
H477 C459 0.929 . S
H478 C460 0.928 . S
H479 C462 0.932 . S
C480 C481 1.264 . S
C480 C485 1.479 . S
C480 C490 1.465 . S
C481 C480 1.264 . S
C481 C483 1.339 . S
C481 H508 0.931 . S
C482 C483 1.395 . S
C482 C484 1.320 . S
C483 C481 1.339 . S
C483 C482 1.395 . S
C483 H509 0.929 . S
C484 C482 1.320 . S
C484 C485 1.405 . S
C484 H510 0.930 . S
C485 C480 1.479 . S
C485 C484 1.405 . S
C485 H511 0.931 . S
U486 O487 2.454 . S
U486 O488 2.458 . S
U486 C489 2.984 . S
U486 C490 2.847 . S
U486 C503 2.882 . S
U486 O504 2.441 . S
U486 O505 2.420 . S
U486 O506 2.455 . S
U486 O507 2.449 . S
O487 U486 2.454 . S
O487 C489 1.353 . S
O488 U486 2.458 . S
O488 C489 1.286 . S
C489 U486 2.984 . S
C489 O487 1.353 . S
C489 O488 1.286 . S
C489 C491 1.363 . S
C490 C480 1.465 . S
C490 U486 2.847 . S
C490 O504 1.249 . S
C490 O505 1.202 . S
C491 C489 1.363 . S
C491 C493 1.408 . S
C491 C496 1.342 . S
C492 C493 1.310 . S
C492 C495 1.461 . S
C492 H512 0.932 . S
C493 C491 1.408 . S
C493 C492 1.310 . S
C493 H513 0.930 . S
C494 C495 1.474 . S
C494 C496 1.285 . S
C494 H514 0.929 . S
C495 C492 1.461 . S
C495 C494 1.474 . S
C496 C491 1.342 . S
C496 C494 1.285 . S
C496 H515 0.930 . S
C497 C500 1.424 . S
C497 C502 1.245 . S
C497 C503 1.428 . S
C498 C501 1.260 . S
C498 C502 1.477 . S
C498 H516 0.932 . S
C499 C500 1.384 . S
C499 C501 1.479 . S
C499 H517 0.929 . S
C500 C497 1.424 . S
C500 C499 1.384 . S
C500 H518 0.928 . S
C501 C498 1.260 . S
C501 C499 1.479 . S
C502 C497 1.245 . S
C502 C498 1.477 . S
C502 H519 0.932 . S
C503 U486 2.882 . S
C503 C497 1.428 . S
C503 O506 1.301 . S
C503 O507 1.282 . S
O504 U486 2.441 . S
O504 C490 1.249 . S
O505 U486 2.420 . S
O505 C490 1.202 . S
O506 U486 2.455 . S
O506 C503 1.301 . S
O507 U486 2.449 . S
O507 C503 1.282 . S
H508 C481 0.931 . S
H509 C483 0.929 . S
H510 C484 0.930 . S
H511 C485 0.931 . S
H512 C492 0.932 . S
H513 C493 0.930 . S
H514 C494 0.929 . S
H515 C496 0.930 . S
H516 C498 0.932 . S
H517 C499 0.929 . S
H518 C500 0.928 . S
H519 C502 0.932 . S
C520 C521 1.264 . S
C520 C525 1.479 . S
C520 C530 1.465 . S
C521 C520 1.264 . S
C521 C523 1.339 . S
C521 H548 0.931 . S
C522 C523 1.395 . S
C522 C524 1.320 . S
C523 C521 1.339 . S
C523 C522 1.395 . S
C523 H549 0.929 . S
C524 C522 1.320 . S
C524 C525 1.405 . S
C524 H550 0.930 . S
C525 C520 1.479 . S
C525 C524 1.405 . S
C525 H551 0.931 . S
U526 O527 2.454 . S
U526 O528 2.458 . S
U526 C529 2.984 . S
U526 C530 2.847 . S
U526 C543 2.882 . S
U526 O544 2.441 . S
U526 O545 2.420 . S
U526 O546 2.455 . S
U526 O547 2.449 . S
O527 U526 2.454 . S
O527 C529 1.353 . S
O528 U526 2.458 . S
O528 C529 1.286 . S
C529 U526 2.984 . S
C529 O527 1.353 . S
C529 O528 1.286 . S
C529 C531 1.363 . S
C530 C520 1.465 . S
C530 U526 2.847 . S
C530 O544 1.249 . S
C530 O545 1.202 . S
C531 C529 1.363 . S
C531 C533 1.408 . S
C531 C536 1.342 . S
C532 C533 1.310 . S
C532 C535 1.461 . S
C532 H552 0.932 . S
C533 C531 1.408 . S
C533 C532 1.310 . S
C533 H553 0.930 . S
C534 C535 1.474 . S
C534 C536 1.285 . S
C534 H554 0.929 . S
C535 C532 1.461 . S
C535 C534 1.474 . S
C536 C531 1.342 . S
C536 C534 1.285 . S
C536 H555 0.930 . S
C537 C540 1.424 . S
C537 C542 1.245 . S
C537 C543 1.428 . S
C538 C541 1.260 . S
C538 C542 1.477 . S
C538 H556 0.932 . S
C539 C540 1.384 . S
C539 C541 1.479 . S
C539 H557 0.929 . S
C540 C537 1.424 . S
C540 C539 1.384 . S
C540 H558 0.928 . S
C541 C538 1.260 . S
C541 C539 1.479 . S
C542 C537 1.245 . S
C542 C538 1.477 . S
C542 H559 0.932 . S
C543 U526 2.882 . S
C543 C537 1.428 . S
C543 O546 1.301 . S
C543 O547 1.282 . S
O544 U526 2.441 . S
O544 C530 1.249 . S
O545 U526 2.420 . S
O545 C530 1.202 . S
O546 U526 2.455 . S
O546 C543 1.301 . S
O547 U526 2.449 . S
O547 C543 1.282 . S
H548 C521 0.931 . S
H549 C523 0.929 . S
H550 C524 0.930 . S
H551 C525 0.931 . S
H552 C532 0.932 . S
H553 C533 0.930 . S
H554 C534 0.929 . S
H555 C536 0.930 . S
H556 C538 0.932 . S
H557 C539 0.929 . S
H558 C540 0.928 . S
H559 C542 0.932 . S
C560 C561 1.264 . S
C560 C565 1.479 . S
C560 C570 1.465 . S
C561 C560 1.264 . S
C561 C563 1.339 . S
C561 H588 0.931 . S
C562 C563 1.395 . S
C562 C564 1.320 . S
C563 C561 1.339 . S
C563 C562 1.395 . S
C563 H589 0.929 . S
C564 C562 1.320 . S
C564 C565 1.405 . S
C564 H590 0.930 . S
C565 C560 1.479 . S
C565 C564 1.405 . S
C565 H591 0.931 . S
U566 O567 2.454 . S
U566 O568 2.458 . S
U566 C569 2.984 . S
U566 C570 2.847 . S
U566 C583 2.882 . S
U566 O584 2.441 . S
U566 O585 2.420 . S
U566 O586 2.455 . S
U566 O587 2.449 . S
O567 U566 2.454 . S
O567 C569 1.353 . S
O568 U566 2.458 . S
O568 C569 1.286 . S
C569 U566 2.984 . S
C569 O567 1.353 . S
C569 O568 1.286 . S
C569 C571 1.363 . S
C570 C560 1.465 . S
C570 U566 2.847 . S
C570 O584 1.249 . S
C570 O585 1.202 . S
C571 C569 1.363 . S
C571 C573 1.408 . S
C571 C576 1.342 . S
C572 C573 1.310 . S
C572 C575 1.461 . S
C572 H592 0.932 . S
C573 C571 1.408 . S
C573 C572 1.310 . S
C573 H593 0.930 . S
C574 C575 1.474 . S
C574 C576 1.285 . S
C574 H594 0.929 . S
C575 C572 1.461 . S
C575 C574 1.474 . S
C576 C571 1.342 . S
C576 C574 1.285 . S
C576 H595 0.930 . S
C577 C580 1.424 . S
C577 C582 1.245 . S
C577 C583 1.428 . S
C578 C581 1.260 . S
C578 C582 1.477 . S
C578 H596 0.932 . S
C579 C580 1.384 . S
C579 C581 1.479 . S
C579 H597 0.929 . S
C580 C577 1.424 . S
C580 C579 1.384 . S
C580 H598 0.928 . S
C581 C578 1.260 . S
C581 C579 1.479 . S
C582 C577 1.245 . S
C582 C578 1.477 . S
C582 H599 0.932 . S
C583 U566 2.882 . S
C583 C577 1.428 . S
C583 O586 1.301 . S
C583 O587 1.282 . S
O584 U566 2.441 . S
O584 C570 1.249 . S
O585 U566 2.420 . S
O585 C570 1.202 . S
O586 U566 2.455 . S
O586 C583 1.301 . S
O587 U566 2.449 . S
O587 C583 1.282 . S
H588 C561 0.931 . S
H589 C563 0.929 . S
H590 C564 0.930 . S
H591 C565 0.931 . S
H592 C572 0.932 . S
H593 C573 0.930 . S
H594 C574 0.929 . S
H595 C576 0.930 . S
H596 C578 0.932 . S
H597 C579 0.929 . S
H598 C580 0.928 . S
H599 C582 0.932 . S
C600 C601 1.264 . S
C600 C605 1.479 . S
C600 C610 1.465 . S
C601 C600 1.264 . S
C601 C603 1.339 . S
C601 H628 0.931 . S
C602 C603 1.395 . S
C602 C604 1.316 1_556 S
C603 C601 1.339 . S
C603 C602 1.395 . S
C603 H629 0.929 . S
C604 C602 1.316 1_554 S
C604 C605 1.401 1_554 S
C604 H630 0.938 . S
C605 C600 1.479 . S
C605 C604 1.401 1_556 S
C605 H631 0.931 . S
U606 O607 2.454 . S
U606 O608 2.458 . S
U606 C609 2.984 . S
U606 C610 2.847 . S
U606 C623 2.882 . S
U606 O624 2.441 . S
U606 O625 2.420 . S
U606 O626 2.455 . S
U606 O627 2.449 . S
O607 U606 2.454 . S
O607 C609 1.353 . S
O608 U606 2.458 . S
O608 C609 1.286 . S
C609 U606 2.984 . S
C609 O607 1.353 . S
C609 O608 1.286 . S
C609 C611 1.363 . S
C610 C600 1.465 . S
C610 U606 2.847 . S
C610 O624 1.249 . S
C610 O625 1.202 . S
C611 C609 1.363 . S
C611 C613 1.408 . S
C611 C616 1.342 . S
C612 C613 1.310 . S
C612 C615 1.461 . S
C612 H632 0.932 . S
C613 C611 1.408 . S
C613 C612 1.310 . S
C613 H633 0.930 . S
C614 C615 1.474 . S
C614 C616 1.285 . S
C614 H634 0.929 . S
C615 C612 1.461 . S
C615 C614 1.474 . S
C616 C611 1.342 . S
C616 C614 1.285 . S
C616 H635 0.930 . S
C617 C620 1.424 . S
C617 C622 1.245 . S
C617 C623 1.428 . S
C618 C621 1.260 . S
C618 C622 1.477 . S
C618 H636 0.932 . S
C619 C620 1.384 . S
C619 C621 1.479 . S
C619 H637 0.929 . S
C620 C617 1.424 . S
C620 C619 1.384 . S
C620 H638 0.928 . S
C621 C618 1.260 . S
C621 C619 1.479 . S
C622 C617 1.245 . S
C622 C618 1.477 . S
C622 H639 0.932 . S
C623 U606 2.882 . S
C623 C617 1.428 . S
C623 O626 1.301 . S
C623 O627 1.282 . S
O624 U606 2.441 . S
O624 C610 1.249 . S
O625 U606 2.420 . S
O625 C610 1.202 . S
O626 U606 2.455 . S
O626 C623 1.301 . S
O627 U606 2.449 . S
O627 C623 1.282 . S
H628 C601 0.931 . S
H629 C603 0.929 . S
H630 C604 0.938 . S
H631 C605 0.931 . S
H632 C612 0.932 . S
H633 C613 0.930 . S
H634 C614 0.929 . S
H635 C616 0.930 . S
H636 C618 0.932 . S
H637 C619 0.929 . S
H638 C620 0.928 . S
H639 C622 0.932 . S
O640 Cd641 2.223 . S
O640 C648 1.315 . S
Cd641 O640 2.223 . S
Cd641 O644 2.297 . S
Cd641 O645 2.439 . S
Cd641 O651 2.240 . S
Cd642 O643 2.240 . S
Cd642 O650 2.223 . S
Cd642 O652 2.297 . S
Cd642 O653 2.439 . S
O643 Cd642 2.240 . S
O643 C648 1.279 . S
O644 Cd641 2.297 . S
O644 C646 1.247 . S
O645 Cd641 2.439 . S
O645 C646 1.208 . S
C646 O644 1.247 . S
C646 O645 1.208 . S
C647 O652 1.247 . S
C647 O653 1.208 . S
C648 O640 1.315 . S
C648 O643 1.279 . S
C649 O650 1.315 . S
C649 O651 1.279 . S
O650 Cd642 2.223 . S
O650 C649 1.315 . S
O651 Cd641 2.240 . S
O651 C649 1.279 . S
O652 Cd642 2.297 . S
O652 C647 1.247 . S
O653 Cd642 2.439 . S
O653 C647 1.208 . S
O654 Cd655 2.223 . S
O654 C662 1.315 . S
Cd655 O654 2.223 . S
Cd655 O658 2.297 . S
Cd655 O659 2.439 . S
Cd655 O665 2.240 . S
Cd656 O657 2.240 . S
Cd656 O664 2.223 . S
Cd656 O666 2.297 . S
Cd656 O667 2.439 . S
O657 Cd656 2.240 . S
O657 C662 1.279 . S
O658 Cd655 2.297 . S
O658 C660 1.247 . S
O659 Cd655 2.439 . S
O659 C660 1.208 . S
C660 O658 1.247 . S
C660 O659 1.208 . S
C661 O666 1.247 . S
C661 O667 1.208 . S
C662 O654 1.315 . S
C662 O657 1.279 . S
C663 O664 1.315 . S
C663 O665 1.279 . S
O664 Cd656 2.223 . S
O664 C663 1.315 . S
O665 Cd655 2.240 . S
O665 C663 1.279 . S
O666 Cd656 2.297 . S
O666 C661 1.247 . S
O667 Cd656 2.439 . S
O667 C661 1.208 . S
O668 Cd669 2.223 1_556 S
O668 C676 1.315 . S
Cd669 O668 2.223 1_554 S
Cd669 O672 2.297 . S
Cd669 O673 2.439 . S
Cd669 O679 2.240 . S
Cd670 O671 2.240 . S
Cd670 O678 2.223 . S
Cd670 O680 2.297 1_556 S
Cd670 O681 2.439 1_556 S
O671 Cd670 2.240 . S
O671 C676 1.279 . S
O672 Cd669 2.297 . S
O672 C674 1.247 . S
O673 Cd669 2.439 . S
O673 C674 1.208 . S
C674 O672 1.247 . S
C674 O673 1.208 . S
C675 O680 1.247 . S
C675 O681 1.208 . S
C676 O668 1.315 . S
C676 O671 1.279 . S
C677 O678 1.315 . S
C677 O679 1.279 1_556 S
O678 Cd670 2.223 . S
O678 C677 1.315 . S
O679 Cd669 2.240 . S
O679 C677 1.279 1_554 S
O680 Cd670 2.297 1_554 S
O680 C675 1.247 . S
O681 Cd670 2.439 1_554 S
O681 C675 1.208 . S
O682 Cd683 2.223 . S
O682 C690 1.315 . S
Cd683 O682 2.223 . S
Cd683 O686 2.297 . S
Cd683 O687 2.439 . S
Cd683 O693 2.240 . S
Cd684 O685 2.240 . S
Cd684 O692 2.223 . S
Cd684 O694 2.297 . S
Cd684 O695 2.439 . S
O685 Cd684 2.240 . S
O685 C690 1.279 . S
O686 Cd683 2.297 . S
O686 C688 1.247 . S
O687 Cd683 2.439 . S
O687 C688 1.208 . S
C688 O686 1.247 . S
C688 O687 1.208 . S
C689 O694 1.247 . S
C689 O695 1.208 . S
C690 O682 1.315 . S
C690 O685 1.279 . S
C691 O692 1.315 . S
C691 O693 1.279 . S
O692 Cd684 2.223 . S
O692 C691 1.315 . S
O693 Cd683 2.240 . S
O693 C691 1.279 . S
O694 Cd684 2.297 . S
O694 C689 1.247 . S
O695 Cd684 2.439 . S
O695 C689 1.208 . S
O696 Cd697 2.223 . S
O696 C704 1.315 . S
Cd697 O696 2.223 . S
Cd697 O700 2.297 . S
Cd697 O701 2.439 . S
Cd697 O707 2.240 . S
Cd698 O699 2.240 . S
Cd698 O706 2.223 . S
Cd698 O708 2.297 . S
Cd698 O709 2.439 . S
O699 Cd698 2.240 . S
O699 C704 1.279 . S
O700 Cd697 2.297 . S
O700 C702 1.247 . S
O701 Cd697 2.439 . S
O701 C702 1.208 . S
C702 O700 1.247 . S
C702 O701 1.208 . S
C703 O708 1.247 . S
C703 O709 1.208 . S
C704 O696 1.315 . S
C704 O699 1.279 . S
C705 O706 1.315 . S
C705 O707 1.279 . S
O706 Cd698 2.223 . S
O706 C705 1.315 . S
O707 Cd697 2.240 . S
O707 C705 1.279 . S
O708 Cd698 2.297 . S
O708 C703 1.247 . S
O709 Cd698 2.439 . S
O709 C703 1.208 . S
O710 Cd711 2.223 . S
O710 C718 1.315 . S
Cd711 O710 2.223 . S
Cd711 O714 2.297 . S
Cd711 O715 2.439 . S
Cd711 O721 2.240 . S
Cd712 O713 2.240 . S
Cd712 O720 2.223 . S
Cd712 O722 2.297 . S
Cd712 O723 2.439 . S
O713 Cd712 2.240 . S
O713 C718 1.279 . S
O714 Cd711 2.297 . S
O714 C716 1.247 . S
O715 Cd711 2.439 . S
O715 C716 1.208 . S
C716 O714 1.247 . S
C716 O715 1.208 . S
C717 O722 1.247 . S
C717 O723 1.208 . S
C718 O710 1.315 . S
C718 O713 1.279 . S
C719 O720 1.315 . S
C719 O721 1.279 . S
O720 Cd712 2.223 . S
O720 C719 1.315 . S
O721 Cd711 2.240 . S
O721 C719 1.279 . S
O722 Cd712 2.297 . S
O722 C717 1.247 . S
O723 Cd712 2.439 . S
O723 C717 1.208 . S
O724 Cd725 2.223 . S
O724 C732 1.315 . S
Cd725 O724 2.223 . S
Cd725 O728 2.297 . S
Cd725 O729 2.439 . S
Cd725 O735 2.240 . S
Cd726 O727 2.240 . S
Cd726 O734 2.223 . S
Cd726 O736 2.297 . S
Cd726 O737 2.439 . S
O727 Cd726 2.240 . S
O727 C732 1.279 . S
O728 Cd725 2.297 . S
O728 C730 1.247 . S
O729 Cd725 2.439 . S
O729 C730 1.208 . S
C730 O728 1.247 . S
C730 O729 1.208 . S
C731 O736 1.247 . S
C731 O737 1.208 . S
C732 O724 1.315 . S
C732 O727 1.279 . S
C733 O734 1.315 . S
C733 O735 1.279 . S
O734 Cd726 2.223 . S
O734 C733 1.315 . S
O735 Cd725 2.240 . S
O735 C733 1.279 . S
O736 Cd726 2.297 . S
O736 C731 1.247 . S
O737 Cd726 2.439 . S
O737 C731 1.208 . S
O738 Cd739 2.223 1_545 S
O738 C746 1.315 . S
Cd739 O738 2.223 1_565 S
Cd739 O742 2.297 . S
Cd739 O743 2.439 . S
Cd739 O749 2.240 1_565 S
Cd740 O741 2.240 . S
Cd740 O748 2.223 . S
Cd740 O750 2.297 . S
Cd740 O751 2.439 1_545 S
O741 Cd740 2.240 . S
O741 C746 1.279 . S
O742 Cd739 2.297 . S
O742 C744 1.247 . S
O743 Cd739 2.439 . S
O743 C744 1.208 . S
C744 O742 1.247 . S
C744 O743 1.208 . S
C745 O750 1.247 1_565 S
C745 O751 1.208 . S
C746 O738 1.315 . S
C746 O741 1.279 . S
C747 O748 1.315 . S
C747 O749 1.279 . S
O748 Cd740 2.223 . S
O748 C747 1.315 . S
O749 Cd739 2.240 1_545 S
O749 C747 1.279 . S
O750 Cd740 2.297 . S
O750 C745 1.247 1_545 S
O751 Cd740 2.439 1_565 S
O751 C745 1.208 . S
O752 Cd753 2.223 . S
O752 C760 1.315 . S
Cd753 O752 2.223 . S
Cd753 O756 2.297 1_655 S
Cd753 O757 2.439 1_655 S
Cd753 O763 2.240 . S
Cd754 O755 2.240 . S
Cd754 O762 2.223 1_455 S
Cd754 O764 2.297 . S
Cd754 O765 2.439 . S
O755 Cd754 2.240 . S
O755 C760 1.279 1_455 S
O756 Cd753 2.297 1_455 S
O756 C758 1.247 . S
O757 Cd753 2.439 1_455 S
O757 C758 1.208 . S
C758 O756 1.247 . S
C758 O757 1.208 . S
C759 O764 1.247 . S
C759 O765 1.208 . S
C760 O752 1.315 . S
C760 O755 1.279 1_655 S
C761 O762 1.315 . S
C761 O763 1.279 . S
O762 Cd754 2.223 1_655 S
O762 C761 1.315 . S
O763 Cd753 2.240 . S
O763 C761 1.279 . S
O764 Cd754 2.297 . S
O764 C759 1.247 . S
O765 Cd754 2.439 . S
O765 C759 1.208 . S
O766 Cd767 2.223 . S
O766 C774 1.315 . S
Cd767 O766 2.223 . S
Cd767 O770 2.297 . S
Cd767 O771 2.439 . S
Cd767 O777 2.240 . S
Cd768 O769 2.240 . S
Cd768 O776 2.223 . S
Cd768 O778 2.297 . S
Cd768 O779 2.439 . S
O769 Cd768 2.240 . S
O769 C774 1.279 . S
O770 Cd767 2.297 . S
O770 C772 1.247 . S
O771 Cd767 2.439 . S
O771 C772 1.208 . S
C772 O770 1.247 . S
C772 O771 1.208 . S
C773 O778 1.247 . S
C773 O779 1.208 . S
C774 O766 1.315 . S
C774 O769 1.279 . S
C775 O776 1.315 . S
C775 O777 1.279 . S
O776 Cd768 2.223 . S
O776 C775 1.315 . S
O777 Cd767 2.240 . S
O777 C775 1.279 . S
O778 Cd768 2.297 . S
O778 C773 1.247 . S
O779 Cd768 2.439 . S
O779 C773 1.208 . S
O780 Cd781 2.223 1_655 S
O780 C788 1.315 . S
Cd781 O780 2.223 1_455 S
Cd781 O784 2.297 . S
Cd781 O785 2.439 . S
Cd781 O791 2.240 . S
Cd782 O783 2.240 . S
Cd782 O790 2.223 . S
Cd782 O792 2.297 1_655 S
Cd782 O793 2.439 1_655 S
O783 Cd782 2.240 . S
O783 C788 1.279 . S
O784 Cd781 2.297 . S
O784 C786 1.247 . S
O785 Cd781 2.439 . S
O785 C786 1.208 . S
C786 O784 1.247 . S
C786 O785 1.208 . S
C787 O792 1.247 . S
C787 O793 1.208 . S
C788 O780 1.315 . S
C788 O783 1.279 . S
C789 O790 1.315 . S
C789 O791 1.279 1_655 S
O790 Cd782 2.223 . S
O790 C789 1.315 . S
O791 Cd781 2.240 . S
O791 C789 1.279 1_455 S
O792 Cd782 2.297 1_455 S
O792 C787 1.247 . S
O793 Cd782 2.439 1_455 S
O793 C787 1.208 . S
O794 Cd795 2.223 . S
O794 C802 1.315 . S
Cd795 O794 2.223 . S
Cd795 O798 2.297 . S
Cd795 O799 2.439 . S
Cd795 O805 2.240 . S
Cd796 O797 2.240 . S
Cd796 O804 2.223 . S
Cd796 O806 2.297 . S
Cd796 O807 2.439 . S
O797 Cd796 2.240 . S
O797 C802 1.279 . S
O798 Cd795 2.297 . S
O798 C800 1.247 . S
O799 Cd795 2.439 . S
O799 C800 1.208 . S
C800 O798 1.247 . S
C800 O799 1.208 . S
C801 O806 1.247 . S
C801 O807 1.208 . S
C802 O794 1.315 . S
C802 O797 1.279 . S
C803 O804 1.315 . S
C803 O805 1.279 . S
O804 Cd796 2.223 . S
O804 C803 1.315 . S
O805 Cd795 2.240 . S
O805 C803 1.279 . S
O806 Cd796 2.297 . S
O806 C801 1.247 . S
O807 Cd796 2.439 . S
O807 C801 1.208 . S
C808 C809 1.391 . S
C808 C810 1.394 . S
C808 H824 0.931 . S
C809 C808 1.391 . S
C809 C813 1.376 . S
C810 C808 1.394 . S
C810 C811 1.369 . S
C810 C814 1.531 . S
C811 C810 1.369 . S
C811 C812 1.410 . S
C811 C819 1.503 . S
C812 C811 1.410 . S
C812 C813 1.392 . S
C812 C815 1.511 . S
C813 C809 1.376 . S
C813 C812 1.392 . S
C813 H825 0.929 . S
C814 C810 1.531 . S
C814 H826 0.960 . S
C814 H827 0.962 . S
C814 H828 0.960 . S
C815 C812 1.511 . S
C815 H829 0.961 . S
C815 H830 0.961 . S
C815 H831 0.961 . S
C816 C817 1.370 1_556 S
C816 C818 1.363 . S
C816 H832 0.931 . S
C817 C816 1.370 1_554 S
C817 C821 1.408 . S
C818 C816 1.363 . S
C818 C819 1.370 . S
C818 C822 1.524 . S
C819 C811 1.503 . S
C819 C818 1.370 . S
C819 C820 1.403 . S
C820 C819 1.403 . S
C820 C821 1.404 1_556 S
C820 C823 1.539 . S
C821 C817 1.408 . S
C821 C820 1.404 1_554 S
C821 H833 0.930 . S
C822 C818 1.524 . S
C822 H834 0.956 . S
C822 H835 0.961 . S
C822 H836 0.961 . S
C823 C820 1.539 . S
C823 H837 0.958 . S
C823 H838 0.961 . S
C823 H839 0.960 . S
H824 C808 0.931 . S
H825 C813 0.929 . S
H826 C814 0.960 . S
H827 C814 0.962 . S
H828 C814 0.960 . S
H829 C815 0.961 . S
H830 C815 0.961 . S
H831 C815 0.961 . S
H832 C816 0.931 . S
H833 C821 0.930 . S
H834 C822 0.956 . S
H835 C822 0.961 . S
H836 C822 0.961 . S
H837 C823 0.958 . S
H838 C823 0.961 . S
H839 C823 0.960 . S
C840 C841 1.391 1_455 S
C840 C842 1.394 . S
C840 H856 0.931 . S
C841 C840 1.391 1_655 S
C841 C845 1.376 . S
C842 C840 1.394 . S
C842 C843 1.369 . S
C842 C846 1.531 . S
C843 C842 1.369 . S
C843 C844 1.410 . S
C843 C851 1.503 . S
C844 C843 1.410 . S
C844 C845 1.392 1_455 S
C844 C847 1.511 . S
C845 C841 1.376 . S
C845 C844 1.392 1_655 S
C845 H857 0.929 . S
C846 C842 1.531 . S
C846 H858 0.960 . S
C846 H859 0.962 . S
C846 H860 0.960 . S
C847 C844 1.511 . S
C847 H861 0.961 . S
C847 H862 0.961 . S
C847 H863 0.961 . S
C848 C849 1.370 . S
C848 C850 1.363 . S
C848 H864 0.931 . S
C849 C848 1.370 . S
C849 C853 1.408 . S
C850 C848 1.363 . S
C850 C851 1.370 . S
C850 C854 1.524 . S
C851 C843 1.503 . S
C851 C850 1.370 . S
C851 C852 1.403 . S
C852 C851 1.403 . S
C852 C853 1.404 . S
C852 C855 1.539 . S
C853 C849 1.408 . S
C853 C852 1.404 . S
C853 H865 0.930 . S
C854 C850 1.524 . S
C854 H866 0.956 . S
C854 H867 0.961 . S
C854 H868 0.961 . S
C855 C852 1.539 . S
C855 H869 0.958 . S
C855 H870 0.961 . S
C855 H871 0.960 . S
H856 C840 0.931 . S
H857 C845 0.929 . S
H858 C846 0.960 . S
H859 C846 0.962 . S
H860 C846 0.960 . S
H861 C847 0.961 . S
H862 C847 0.961 . S
H863 C847 0.961 . S
H864 C848 0.931 . S
H865 C853 0.930 . S
H866 C854 0.956 . S
H867 C854 0.961 . S
H868 C854 0.961 . S
H869 C855 0.958 . S
H870 C855 0.961 . S
H871 C855 0.960 . S
C872 C873 1.391 . S
C872 C874 1.394 . S
C872 H888 0.931 . S
C873 C872 1.391 . S
C873 C877 1.376 . S
C874 C872 1.394 . S
C874 C875 1.369 . S
C874 C878 1.531 . S
C875 C874 1.369 . S
C875 C876 1.410 . S
C875 C883 1.503 . S
C876 C875 1.410 . S
C876 C877 1.392 . S
C876 C879 1.511 . S
C877 C873 1.376 . S
C877 C876 1.392 . S
C877 H889 0.929 . S
C878 C874 1.531 . S
C878 H890 0.960 . S
C878 H891 0.962 . S
C878 H892 0.960 . S
C879 C876 1.511 . S
C879 H893 0.961 . S
C879 H894 0.961 . S
C879 H895 0.961 . S
C880 C881 1.370 . S
C880 C882 1.363 . S
C880 H896 0.931 . S
C881 C880 1.370 . S
C881 C885 1.408 . S
C882 C880 1.363 . S
C882 C883 1.370 . S
C882 C886 1.524 . S
C883 C875 1.503 . S
C883 C882 1.370 . S
C883 C884 1.403 . S
C884 C883 1.403 . S
C884 C885 1.404 . S
C884 C887 1.539 . S
C885 C881 1.408 . S
C885 C884 1.404 . S
C885 H897 0.930 . S
C886 C882 1.524 . S
C886 H898 0.956 . S
C886 H899 0.961 . S
C886 H900 0.961 . S
C887 C884 1.539 . S
C887 H901 0.958 . S
C887 H902 0.961 . S
C887 H903 0.960 . S
H888 C872 0.931 . S
H889 C877 0.929 . S
H890 C878 0.960 . S
H891 C878 0.962 . S
H892 C878 0.960 . S
H893 C879 0.961 . S
H894 C879 0.961 . S
H895 C879 0.961 . S
H896 C880 0.931 . S
H897 C885 0.930 . S
H898 C886 0.956 . S
H899 C886 0.961 . S
H900 C886 0.961 . S
H901 C887 0.958 . S
H902 C887 0.961 . S
H903 C887 0.960 . S
C904 C905 1.391 1_545 S
C904 C906 1.394 1_455 S
C904 H920 0.931 . S
C905 C904 1.391 1_565 S
C905 C909 1.376 1_455 S
C906 C904 1.394 1_655 S
C906 C907 1.366 . S
C906 C910 1.531 . S
C907 C906 1.366 . S
C907 C908 1.416 1_545 S
C907 C915 1.500 . S
C908 C907 1.416 1_565 S
C908 C909 1.392 . S
C908 C911 1.511 . S
C909 C905 1.376 1_655 S
C909 C908 1.392 . S
C909 H921 0.929 . S
C910 C906 1.531 . S
C910 H922 0.960 . S
C910 H923 0.962 . S
C910 H924 0.960 1_655 S
C911 C908 1.511 . S
C911 H925 0.961 . S
C911 H926 0.961 . S
C911 H927 0.961 . S
C912 C913 1.370 . S
C912 C914 1.363 . S
C912 H928 0.931 . S
C913 C912 1.370 . S
C913 C917 1.408 . S
C914 C912 1.363 . S
C914 C915 1.370 . S
C914 C918 1.524 . S
C915 C907 1.500 . S
C915 C914 1.370 . S
C915 C916 1.403 . S
C916 C915 1.403 . S
C916 C917 1.404 . S
C916 C919 1.539 . S
C917 C913 1.408 . S
C917 C916 1.404 . S
C917 H929 0.930 . S
C918 C914 1.524 . S
C918 H930 0.956 . S
C918 H931 0.961 1_545 S
C918 H932 0.961 . S
C919 C916 1.539 . S
C919 H933 0.958 . S
C919 H934 0.961 . S
C919 H935 0.960 . S
H920 C904 0.931 . S
H921 C909 0.929 . S
H922 C910 0.960 . S
H923 C910 0.962 . S
H924 C910 0.960 1_455 S
H925 C911 0.961 . S
H926 C911 0.961 . S
H927 C911 0.961 . S
H928 C912 0.931 . S
H929 C917 0.930 . S
H930 C918 0.956 . S
H931 C918 0.961 1_565 S
H932 C918 0.961 . S
H933 C919 0.958 . S
H934 C919 0.961 . S
H935 C919 0.960 . S
C936 C937 1.391 . S
C936 C938 1.394 . S
C936 H952 0.931 . S
C937 C936 1.391 . S
C937 C941 1.376 . S
C938 C936 1.394 . S
C938 C939 1.369 . S
C938 C942 1.531 . S
C939 C938 1.369 . S
C939 C940 1.410 . S
C939 C947 1.503 . S
C940 C939 1.410 . S
C940 C941 1.392 . S
C940 C943 1.511 . S
C941 C937 1.376 . S
C941 C940 1.392 . S
C941 H953 0.929 . S
C942 C938 1.531 . S
C942 H954 0.960 . S
C942 H955 0.962 . S
C942 H956 0.960 . S
C943 C940 1.511 . S
C943 H957 0.961 . S
C943 H958 0.961 . S
C943 H959 0.961 . S
C944 C945 1.370 . S
C944 C946 1.363 . S
C944 H960 0.931 . S
C945 C944 1.370 . S
C945 C949 1.408 . S
C946 C944 1.363 . S
C946 C947 1.370 . S
C946 C950 1.524 . S
C947 C939 1.503 . S
C947 C946 1.370 . S
C947 C948 1.403 . S
C948 C947 1.403 . S
C948 C949 1.404 . S
C948 C951 1.539 . S
C949 C945 1.408 . S
C949 C948 1.404 . S
C949 H961 0.930 . S
C950 C946 1.524 . S
C950 H962 0.956 . S
C950 H963 0.961 . S
C950 H964 0.961 . S
C951 C948 1.539 . S
C951 H965 0.958 . S
C951 H966 0.961 . S
C951 H967 0.960 . S
H952 C936 0.931 . S
H953 C941 0.929 . S
H954 C942 0.960 . S
H955 C942 0.962 . S
H956 C942 0.960 . S
H957 C943 0.961 . S
H958 C943 0.961 . S
H959 C943 0.961 . S
H960 C944 0.931 . S
H961 C949 0.930 . S
H962 C950 0.956 . S
H963 C950 0.961 . S
H964 C950 0.961 . S
H965 C951 0.958 . S
H966 C951 0.961 . S
H967 C951 0.960 . S
C968 C969 1.391 . S
C968 C970 1.394 . S
C968 H984 0.931 . S
C969 C968 1.391 . S
C969 C973 1.376 . S
C970 C968 1.394 . S
C970 C971 1.369 . S
C970 C974 1.531 . S
C971 C970 1.369 . S
C971 C972 1.410 . S
C971 C979 1.503 . S
C972 C971 1.410 . S
C972 C973 1.392 . S
C972 C975 1.511 . S
C973 C969 1.376 . S
C973 C972 1.392 . S
C973 H985 0.929 . S
C974 C970 1.531 . S
C974 H986 0.960 . S
C974 H987 0.962 . S
C974 H988 0.960 . S
C975 C972 1.511 . S
C975 H989 0.961 . S
C975 H990 0.961 . S
C975 H991 0.961 . S
C976 C977 1.370 . S
C976 C978 1.363 . S
C976 H992 0.931 . S
C977 C976 1.370 . S
C977 C981 1.408 . S
C978 C976 1.363 . S
C978 C979 1.370 . S
C978 C982 1.524 . S
C979 C971 1.503 . S
C979 C978 1.370 . S
C979 C980 1.403 . S
C980 C979 1.403 . S
C980 C981 1.404 . S
C980 C983 1.539 . S
C981 C977 1.408 . S
C981 C980 1.404 . S
C981 H993 0.930 . S
C982 C978 1.524 . S
C982 H994 0.956 . S
C982 H995 0.961 . S
C982 H996 0.961 . S
C983 C980 1.539 . S
C983 H997 0.958 . S
C983 H998 0.961 . S
C983 H999 0.960 . S
H984 C968 0.931 . S
H985 C973 0.929 . S
H986 C974 0.960 . S
H987 C974 0.962 . S
H988 C974 0.960 . S
H989 C975 0.961 . S
H990 C975 0.961 . S
H991 C975 0.961 . S
H992 C976 0.931 . S
H993 C981 0.930 . S
H994 C982 0.956 . S
H995 C982 0.961 . S
H996 C982 0.961 . S
H997 C983 0.958 . S
H998 C983 0.961 . S
H999 C983 0.960 . S
C1000 C1001 1.391 . S
C1000 C1002 1.394 . S
C1000 H1016 0.931 . S
C1001 C1000 1.391 . S
C1001 C1005 1.376 . S
C1002 C1000 1.394 . S
C1002 C1003 1.369 . S
C1002 C1006 1.531 . S
C1003 C1002 1.369 . S
C1003 C1004 1.410 . S
C1003 C1011 1.503 . S
C1004 C1003 1.410 . S
C1004 C1005 1.392 . S
C1004 C1007 1.511 . S
C1005 C1001 1.376 . S
C1005 C1004 1.392 . S
C1005 H1017 0.929 . S
C1006 C1002 1.531 . S
C1006 H1018 0.960 . S
C1006 H1019 0.962 . S
C1006 H1020 0.960 . S
C1007 C1004 1.511 . S
C1007 H1021 0.961 . S
C1007 H1022 0.961 . S
C1007 H1023 0.961 . S
C1008 C1009 1.370 . S
C1008 C1010 1.363 . S
C1008 H1024 0.931 . S
C1009 C1008 1.370 . S
C1009 C1013 1.408 . S
C1010 C1008 1.363 . S
C1010 C1011 1.370 . S
C1010 C1014 1.524 . S
C1011 C1003 1.503 . S
C1011 C1010 1.370 . S
C1011 C1012 1.403 . S
C1012 C1011 1.403 . S
C1012 C1013 1.404 . S
C1012 C1015 1.539 . S
C1013 C1009 1.408 . S
C1013 C1012 1.404 . S
C1013 H1025 0.930 . S
C1014 C1010 1.524 . S
C1014 H1026 0.956 . S
C1014 H1027 0.961 . S
C1014 H1028 0.961 . S
C1015 C1012 1.539 . S
C1015 H1029 0.958 . S
C1015 H1030 0.961 . S
C1015 H1031 0.960 . S
H1016 C1000 0.931 . S
H1017 C1005 0.929 . S
H1018 C1006 0.960 . S
H1019 C1006 0.962 . S
H1020 C1006 0.960 . S
H1021 C1007 0.961 . S
H1022 C1007 0.961 . S
H1023 C1007 0.961 . S
H1024 C1008 0.931 . S
H1025 C1013 0.930 . S
H1026 C1014 0.956 . S
H1027 C1014 0.961 . S
H1028 C1014 0.961 . S
H1029 C1015 0.958 . S
H1030 C1015 0.961 . S
H1031 C1015 0.960 . S
C1032 C1033 1.391 . S
C1032 C1034 1.394 . S
C1032 H1048 0.931 . S
C1033 C1032 1.391 . S
C1033 C1037 1.376 . S
C1034 C1032 1.394 . S
C1034 C1035 1.369 . S
C1034 C1038 1.531 . S
C1035 C1034 1.369 . S
C1035 C1036 1.410 . S
C1035 C1043 1.503 . S
C1036 C1035 1.410 . S
C1036 C1037 1.392 . S
C1036 C1039 1.511 . S
C1037 C1033 1.376 . S
C1037 C1036 1.392 . S
C1037 H1049 0.929 . S
C1038 C1034 1.531 . S
C1038 H1050 0.960 . S
C1038 H1051 0.962 . S
C1038 H1052 0.960 . S
C1039 C1036 1.511 . S
C1039 H1053 0.990 . S
C1039 H1054 0.961 . S
C1039 H1055 0.961 . S
C1040 C1041 1.370 . S
C1040 C1042 1.363 . S
C1040 H1056 0.931 . S
C1041 C1040 1.370 . S
C1041 C1045 1.408 . S
C1042 C1040 1.363 . S
C1042 C1043 1.370 . S
C1042 C1046 1.524 . S
C1043 C1035 1.503 . S
C1043 C1042 1.370 . S
C1043 C1044 1.403 . S
C1044 C1043 1.403 . S
C1044 C1045 1.404 . S
C1044 C1047 1.539 . S
C1045 C1041 1.408 . S
C1045 C1044 1.404 . S
C1045 H1057 0.930 . S
C1046 C1042 1.524 . S
C1046 H1058 0.956 . S
C1046 H1059 0.961 . S
C1046 H1060 0.961 . S
C1047 C1044 1.539 . S
C1047 H1061 0.958 . S
C1047 H1062 0.961 . S
C1047 H1063 0.960 . S
H1048 C1032 0.931 . S
H1049 C1037 0.929 . S
H1050 C1038 0.960 . S
H1051 C1038 0.962 . S
H1052 C1038 0.960 . S
H1053 C1039 0.990 . S
H1054 C1039 0.961 . S
H1055 C1039 0.961 . S
H1056 C1040 0.931 . S
H1057 C1045 0.930 . S
H1058 C1046 0.956 . S
H1059 C1046 0.961 . S
H1060 C1046 0.961 . S
H1061 C1047 0.958 . S
H1062 C1047 0.961 . S
H1063 C1047 0.960 . S
C1064 C1065 1.391 . S
C1064 C1066 1.394 . S
C1064 H1080 0.931 . S
C1065 C1064 1.391 . S
C1065 C1069 1.376 . S
C1066 C1064 1.394 . S
C1066 C1067 1.369 . S
C1066 C1070 1.531 . S
C1067 C1066 1.369 . S
C1067 C1068 1.410 . S
C1067 C1075 1.503 . S
C1068 C1067 1.410 . S
C1068 C1069 1.392 . S
C1068 C1071 1.511 . S
C1069 C1065 1.376 . S
C1069 C1068 1.392 . S
C1069 H1081 0.929 . S
C1070 C1066 1.531 . S
C1070 H1082 0.960 . S
C1070 H1083 0.962 . S
C1070 H1084 0.960 . S
C1071 C1068 1.511 . S
C1071 H1085 0.961 . S
C1071 H1086 0.961 . S
C1071 H1087 0.961 . S
C1072 C1073 1.370 . S
C1072 C1074 1.363 . S
C1072 H1088 0.931 . S
C1073 C1072 1.370 . S
C1073 C1077 1.408 . S
C1074 C1072 1.363 . S
C1074 C1075 1.370 . S
C1074 C1078 1.524 . S
C1075 C1067 1.503 . S
C1075 C1074 1.370 . S
C1075 C1076 1.403 . S
C1076 C1075 1.403 . S
C1076 C1077 1.404 . S
C1076 C1079 1.539 . S
C1077 C1073 1.408 . S
C1077 C1076 1.404 . S
C1077 H1089 0.930 . S
C1078 C1074 1.524 . S
C1078 H1090 0.956 . S
C1078 H1091 0.961 . S
C1078 H1092 0.961 . S
C1079 C1076 1.539 . S
C1079 H1093 0.958 . S
C1079 H1094 0.961 . S
C1079 H1095 0.960 . S
H1080 C1064 0.931 . S
H1081 C1069 0.929 . S
H1082 C1070 0.960 . S
H1083 C1070 0.962 . S
H1084 C1070 0.960 . S
H1085 C1071 0.961 . S
H1086 C1071 0.961 . S
H1087 C1071 0.961 . S
H1088 C1072 0.931 . S
H1089 C1077 0.930 . S
H1090 C1078 0.956 . S
H1091 C1078 0.961 . S
H1092 C1078 0.961 . S
H1093 C1079 0.958 . S
H1094 C1079 0.961 . S
H1095 C1079 0.960 . S
C1096 C1097 1.391 . S
C1096 C1098 1.394 . S
C1096 H1112 0.931 . S
C1097 C1096 1.391 . S
C1097 C1101 1.376 . S
C1098 C1096 1.394 . S
C1098 C1099 1.369 . S
C1098 C1102 1.531 . S
C1099 C1098 1.369 . S
C1099 C1100 1.410 . S
C1099 C1107 1.503 . S
C1100 C1099 1.410 . S
C1100 C1101 1.392 . S
C1100 C1103 1.511 . S
C1101 C1097 1.376 . S
C1101 C1100 1.392 . S
C1101 H1113 0.929 . S
C1102 C1098 1.531 . S
C1102 H1114 0.960 . S
C1102 H1115 0.962 . S
C1102 H1116 0.960 . S
C1103 C1100 1.511 . S
C1103 H1117 0.961 . S
C1103 H1118 0.961 . S
C1103 H1119 0.961 . S
C1104 C1105 1.370 . S
C1104 C1106 1.363 . S
C1104 H1120 0.931 . S
C1105 C1104 1.370 . S
C1105 C1109 1.408 . S
C1106 C1104 1.363 . S
C1106 C1107 1.370 . S
C1106 C1110 1.524 . S
C1107 C1099 1.503 . S
C1107 C1106 1.370 . S
C1107 C1108 1.403 . S
C1108 C1107 1.403 . S
C1108 C1109 1.404 . S
C1108 C1111 1.539 . S
C1109 C1105 1.408 . S
C1109 C1108 1.404 . S
C1109 H1121 0.930 . S
C1110 C1106 1.524 . S
C1110 H1122 0.956 . S
C1110 H1123 0.961 . S
C1110 H1124 0.961 . S
C1111 C1108 1.539 . S
C1111 H1125 0.958 . S
C1111 H1126 0.961 . S
C1111 H1127 0.960 . S
H1112 C1096 0.931 . S
H1113 C1101 0.929 . S
H1114 C1102 0.960 . S
H1115 C1102 0.962 . S
H1116 C1102 0.960 . S
H1117 C1103 0.961 . S
H1118 C1103 0.961 . S
H1119 C1103 0.961 . S
H1120 C1104 0.931 . S
H1121 C1109 0.930 . S
H1122 C1110 0.956 . S
H1123 C1110 0.961 . S
H1124 C1110 0.961 . S
H1125 C1111 0.958 . S
H1126 C1111 0.961 . S
H1127 C1111 0.960 . S
C1128 C1129 1.391 . S
C1128 C1130 1.394 . S
C1128 H1144 0.931 . S
C1129 C1128 1.391 . S
C1129 C1133 1.376 . S
C1130 C1128 1.394 . S
C1130 C1131 1.369 . S
C1130 C1134 1.531 . S
C1131 C1130 1.369 . S
C1131 C1132 1.410 . S
C1131 C1139 1.503 . S
C1132 C1131 1.410 . S
C1132 C1133 1.392 . S
C1132 C1135 1.511 . S
C1133 C1129 1.376 . S
C1133 C1132 1.392 . S
C1133 H1145 0.929 . S
C1134 C1130 1.531 . S
C1134 H1146 0.960 . S
C1134 H1147 0.962 . S
C1134 H1148 0.960 . S
C1135 C1132 1.511 . S
C1135 H1149 0.961 . S
C1135 H1150 0.961 . S
C1135 H1151 0.961 . S
C1136 C1137 1.370 . S
C1136 C1138 1.363 . S
C1136 H1152 0.931 . S
C1137 C1136 1.370 . S
C1137 C1141 1.408 . S
C1138 C1136 1.363 . S
C1138 C1139 1.370 . S
C1138 C1142 1.524 . S
C1139 C1131 1.503 . S
C1139 C1138 1.370 . S
C1139 C1140 1.403 . S
C1140 C1139 1.403 . S
C1140 C1141 1.404 . S
C1140 C1143 1.539 . S
C1141 C1137 1.408 . S
C1141 C1140 1.404 . S
C1141 H1153 0.930 . S
C1142 C1138 1.524 . S
C1142 H1154 0.956 . S
C1142 H1155 0.961 . S
C1142 H1156 0.961 . S
C1143 C1140 1.539 . S
C1143 H1157 0.958 . S
C1143 H1158 0.961 . S
C1143 H1159 0.960 . S
H1144 C1128 0.931 . S
H1145 C1133 0.929 . S
H1146 C1134 0.960 . S
H1147 C1134 0.962 . S
H1148 C1134 0.960 . S
H1149 C1135 0.961 . S
H1150 C1135 0.961 . S
H1151 C1135 0.961 . S
H1152 C1136 0.931 . S
H1153 C1141 0.930 . S
H1154 C1142 0.956 . S
H1155 C1142 0.961 . S
H1156 C1142 0.961 . S
H1157 C1143 0.958 . S
H1158 C1143 0.961 . S
H1159 C1143 0.960 . S
C1160 C1161 1.391 . S
C1160 C1162 1.394 . S
C1160 H1176 0.931 . S
C1161 C1160 1.391 . S
C1161 C1165 1.376 . S
C1162 C1160 1.394 . S
C1162 C1163 1.369 . S
C1162 C1166 1.531 . S
C1163 C1162 1.369 . S
C1163 C1164 1.410 . S
C1163 C1171 1.503 . S
C1164 C1163 1.410 . S
C1164 C1165 1.392 . S
C1164 C1167 1.511 . S
C1165 C1161 1.376 . S
C1165 C1164 1.392 . S
C1165 H1177 0.929 . S
C1166 C1162 1.531 . S
C1166 H1178 0.960 . S
C1166 H1179 0.962 . S
C1166 H1180 0.960 . S
C1167 C1164 1.511 . S
C1167 H1181 0.961 . S
C1167 H1182 0.961 . S
C1167 H1183 0.961 . S
C1168 C1169 1.370 . S
C1168 C1170 1.363 . S
C1168 H1184 0.931 . S
C1169 C1168 1.370 . S
C1169 C1173 1.408 . S
C1170 C1168 1.363 . S
C1170 C1171 1.370 . S
C1170 C1174 1.524 . S
C1171 C1163 1.503 . S
C1171 C1170 1.370 . S
C1171 C1172 1.403 . S
C1172 C1171 1.403 . S
C1172 C1173 1.404 . S
C1172 C1175 1.539 . S
C1173 C1169 1.408 . S
C1173 C1172 1.404 . S
C1173 H1185 0.930 . S
C1174 C1170 1.524 . S
C1174 H1186 0.956 . S
C1174 H1187 0.961 . S
C1174 H1188 0.961 . S
C1175 C1172 1.539 . S
C1175 H1189 0.958 . S
C1175 H1190 0.961 . S
C1175 H1191 0.960 . S
H1176 C1160 0.931 . S
H1177 C1165 0.929 . S
H1178 C1166 0.960 . S
H1179 C1166 0.962 . S
H1180 C1166 0.960 . S
H1181 C1167 0.961 . S
H1182 C1167 0.961 . S
H1183 C1167 0.961 . S
H1184 C1168 0.931 . S
H1185 C1173 0.930 . S
H1186 C1174 0.956 . S
H1187 C1174 0.961 . S
H1188 C1174 0.961 . S
H1189 C1175 0.958 . S
H1190 C1175 0.961 . S
H1191 C1175 0.960 . S
C1192 C1193 1.391 . S
C1192 C1194 1.394 . S
C1192 H1208 0.931 . S
C1193 C1192 1.391 . S
C1193 C1197 1.376 . S
C1194 C1192 1.394 . S
C1194 C1195 1.369 . S
C1194 C1198 1.531 . S
C1195 C1194 1.369 . S
C1195 C1196 1.410 . S
C1195 C1203 1.503 . S
C1196 C1195 1.410 . S
C1196 C1197 1.392 . S
C1196 C1199 1.511 . S
C1197 C1193 1.376 . S
C1197 C1196 1.392 . S
C1197 H1209 0.929 . S
C1198 C1194 1.531 . S
C1198 H1210 0.960 . S
C1198 H1211 0.962 . S
C1198 H1212 0.960 . S
C1199 C1196 1.511 . S
C1199 H1213 0.961 . S
C1199 H1214 0.961 . S
C1199 H1215 0.961 . S
C1200 C1201 1.370 . S
C1200 C1202 1.363 . S
C1200 H1216 0.931 . S
C1201 C1200 1.370 . S
C1201 C1205 1.408 . S
C1202 C1200 1.363 . S
C1202 C1203 1.370 . S
C1202 C1206 1.524 . S
C1203 C1195 1.503 . S
C1203 C1202 1.370 . S
C1203 C1204 1.403 . S
C1204 C1203 1.403 . S
C1204 C1205 1.404 . S
C1204 C1207 1.539 . S
C1205 C1201 1.408 . S
C1205 C1204 1.404 . S
C1205 H1217 0.930 . S
C1206 C1202 1.524 . S
C1206 H1218 0.956 . S
C1206 H1219 0.961 . S
C1206 H1220 0.961 . S
C1207 C1204 1.539 . S
C1207 H1221 0.958 . S
C1207 H1222 0.961 . S
C1207 H1223 0.960 . S
H1208 C1192 0.931 . S
H1209 C1197 0.929 . S
H1210 C1198 0.960 . S
H1211 C1198 0.962 . S
H1212 C1198 0.960 . S
H1213 C1199 0.961 . S
H1214 C1199 0.961 . S
H1215 C1199 0.961 . S
H1216 C1200 0.931 . S
H1217 C1205 0.930 . S
H1218 C1206 0.956 . S
H1219 C1206 0.961 . S
H1220 C1206 0.961 . S
H1221 C1207 0.958 . S
H1222 C1207 0.961 . S
H1223 C1207 0.960 . S
C1224 C1225 1.391 . S
C1224 C1226 1.394 . S
C1224 H1240 0.931 . S
C1225 C1224 1.391 . S
C1225 C1229 1.376 . S
C1226 C1224 1.394 . S
C1226 C1227 1.369 . S
C1226 C1230 1.531 . S
C1227 C1226 1.369 . S
C1227 C1228 1.410 . S
C1227 C1235 1.503 . S
C1228 C1227 1.410 . S
C1228 C1229 1.392 . S
C1228 C1231 1.511 . S
C1229 C1225 1.376 . S
C1229 C1228 1.392 . S
C1229 H1241 0.929 . S
C1230 C1226 1.531 . S
C1230 H1242 0.960 . S
C1230 H1243 0.962 . S
C1230 H1244 0.960 . S
C1231 C1228 1.511 . S
C1231 H1245 0.961 . S
C1231 H1246 0.961 . S
C1231 H1247 0.961 . S
C1232 C1233 1.370 . S
C1232 C1234 1.363 . S
C1232 H1248 0.931 . S
C1233 C1232 1.370 . S
C1233 C1237 1.408 . S
C1234 C1232 1.363 . S
C1234 C1235 1.370 . S
C1234 C1238 1.524 . S
C1235 C1227 1.503 . S
C1235 C1234 1.370 . S
C1235 C1236 1.403 . S
C1236 C1235 1.403 . S
C1236 C1237 1.404 . S
C1236 C1239 1.539 . S
C1237 C1233 1.408 . S
C1237 C1236 1.404 . S
C1237 H1249 0.930 . S
C1238 C1234 1.524 . S
C1238 H1250 0.956 . S
C1238 H1251 0.961 . S
C1238 H1252 0.921 1_455 S
C1239 C1236 1.539 . S
C1239 H1253 0.958 . S
C1239 H1254 0.961 . S
C1239 H1255 0.960 . S
H1240 C1224 0.931 . S
H1241 C1229 0.929 . S
H1242 C1230 0.960 . S
H1243 C1230 0.962 . S
H1244 C1230 0.960 . S
H1245 C1231 0.961 . S
H1246 C1231 0.961 . S
H1247 C1231 0.961 . S
H1248 C1232 0.931 . S
H1249 C1237 0.930 . S
H1250 C1238 0.956 . S
H1251 C1238 0.961 . S
H1252 C1238 0.921 1_655 S
H1253 C1239 0.958 . S
H1254 C1239 0.961 . S
H1255 C1239 0.960 . S
C1256 C1257 1.391 . S
C1256 C1258 1.394 . S
C1256 H1272 0.931 . S
C1257 C1256 1.391 . S
C1257 C1261 1.376 . S
C1258 C1256 1.394 . S
C1258 C1259 1.369 . S
C1258 C1262 1.531 . S
C1259 C1258 1.369 . S
C1259 C1260 1.410 . S
C1259 C1267 1.503 . S
C1260 C1259 1.410 . S
C1260 C1261 1.392 . S
C1260 C1263 1.511 . S
C1261 C1257 1.376 . S
C1261 C1260 1.392 . S
C1261 H1273 0.929 . S
C1262 C1258 1.531 . S
C1262 H1274 0.960 . S
C1262 H1275 0.962 . S
C1262 H1276 0.960 . S
C1263 C1260 1.511 . S
C1263 H1277 0.961 . S
C1263 H1278 0.961 . S
C1263 H1279 0.961 . S
C1264 C1265 1.370 . S
C1264 C1266 1.363 . S
C1264 H1280 0.931 . S
C1265 C1264 1.370 . S
C1265 C1269 1.408 . S
C1266 C1264 1.363 . S
C1266 C1267 1.370 . S
C1266 C1270 1.524 . S
C1267 C1259 1.503 . S
C1267 C1266 1.370 . S
C1267 C1268 1.403 . S
C1268 C1267 1.403 . S
C1268 C1269 1.404 . S
C1268 C1271 1.539 . S
C1269 C1265 1.408 . S
C1269 C1268 1.404 . S
C1269 H1281 0.930 . S
C1270 C1266 1.524 . S
C1270 H1282 0.956 . S
C1270 H1283 0.961 . S
C1270 H1284 0.961 . S
C1271 C1268 1.539 . S
C1271 H1285 0.958 . S
C1271 H1286 0.961 . S
C1271 H1287 0.960 . S
H1272 C1256 0.931 . S
H1273 C1261 0.929 . S
H1274 C1262 0.960 . S
H1275 C1262 0.962 . S
H1276 C1262 0.960 . S
H1277 C1263 0.961 . S
H1278 C1263 0.961 . S
H1279 C1263 0.961 . S
H1280 C1264 0.931 . S
H1281 C1269 0.930 . S
H1282 C1270 0.956 . S
H1283 C1270 0.961 . S
H1284 C1270 0.961 . S
H1285 C1271 0.958 . S
H1286 C1271 0.961 . S
H1287 C1271 0.960 . S
C1288 C1289 1.391 . S
C1288 C1290 1.394 . S
C1288 H1304 0.931 . S
C1289 C1288 1.391 . S
C1289 C1293 1.376 . S
C1290 C1288 1.394 . S
C1290 C1291 1.369 . S
C1290 C1294 1.531 . S
C1291 C1290 1.369 . S
C1291 C1292 1.410 . S
C1291 C1299 1.503 . S
C1292 C1291 1.410 . S
C1292 C1293 1.392 . S
C1292 C1295 1.511 . S
C1293 C1289 1.376 . S
C1293 C1292 1.392 . S
C1293 H1305 0.929 . S
C1294 C1290 1.531 . S
C1294 H1306 0.960 . S
C1294 H1307 0.962 . S
C1294 H1308 0.960 . S
C1295 C1292 1.511 . S
C1295 H1309 0.961 . S
C1295 H1310 0.961 . S
C1295 H1311 0.908 1_655 S
C1296 C1297 1.370 . S
C1296 C1298 1.363 . S
C1296 H1312 0.931 . S
C1297 C1296 1.370 . S
C1297 C1301 1.408 . S
C1298 C1296 1.363 . S
C1298 C1299 1.370 . S
C1298 C1302 1.524 . S
C1299 C1291 1.503 . S
C1299 C1298 1.370 . S
C1299 C1300 1.403 . S
C1300 C1299 1.403 . S
C1300 C1301 1.404 . S
C1300 C1303 1.546 . S
C1301 C1297 1.408 . S
C1301 C1300 1.404 . S
C1301 H1313 0.930 1_655 S
C1302 C1298 1.524 . S
C1302 H1314 0.956 . S
C1302 H1315 0.961 . S
C1302 H1316 0.961 . S
C1303 C1300 1.546 . S
C1303 H1317 0.961 . S
C1303 H1318 0.952 1_655 S
C1303 H1319 0.960 . S
H1304 C1288 0.931 . S
H1305 C1293 0.929 . S
H1306 C1294 0.960 . S
H1307 C1294 0.962 . S
H1308 C1294 0.960 . S
H1309 C1295 0.961 . S
H1310 C1295 0.961 . S
H1311 C1295 0.908 1_455 S
H1312 C1296 0.931 . S
H1313 C1301 0.930 1_455 S
H1314 C1302 0.956 . S
H1315 C1302 0.961 . S
H1316 C1302 0.961 . S
H1317 C1303 0.961 . S
H1318 C1303 0.952 1_455 S
H1319 C1303 0.960 . S
C1320 C1321 1.391 . S
C1320 C1322 1.394 . S
C1320 H1336 0.931 . S
C1321 C1320 1.391 . S
C1321 C1325 1.376 . S
C1322 C1320 1.394 . S
C1322 C1323 1.369 . S
C1322 C1326 1.531 . S
C1323 C1322 1.369 . S
C1323 C1324 1.410 . S
C1323 C1331 1.503 . S
C1324 C1323 1.410 . S
C1324 C1325 1.392 . S
C1324 C1327 1.511 . S
C1325 C1321 1.376 . S
C1325 C1324 1.392 . S
C1325 H1337 0.929 . S
C1326 C1322 1.531 . S
C1326 H1338 0.960 . S
C1326 H1339 0.962 . S
C1326 H1340 0.960 . S
C1327 C1324 1.511 . S
C1327 H1341 0.961 . S
C1327 H1342 0.961 . S
C1327 H1343 0.961 . S
C1328 C1329 1.370 . S
C1328 C1330 1.363 1_545 S
C1328 H1344 0.931 . S
C1329 C1328 1.370 . S
C1329 C1333 1.408 1_545 S
C1330 C1328 1.363 1_565 S
C1330 C1331 1.370 . S
C1330 C1334 1.524 . S
C1331 C1323 1.503 . S
C1331 C1330 1.370 . S
C1331 C1332 1.403 . S
C1332 C1331 1.403 . S
C1332 C1333 1.404 . S
C1332 C1335 1.539 . S
C1333 C1329 1.408 1_565 S
C1333 C1332 1.404 . S
C1333 H1345 0.930 . S
C1334 C1330 1.524 . S
C1334 H1346 0.956 . S
C1334 H1347 0.961 . S
C1334 H1348 0.961 1_565 S
C1335 C1332 1.539 . S
C1335 H1349 0.958 . S
C1335 H1350 0.961 . S
C1335 H1351 0.960 . S
H1336 C1320 0.931 . S
H1337 C1325 0.929 . S
H1338 C1326 0.960 . S
H1339 C1326 0.962 . S
H1340 C1326 0.960 . S
H1341 C1327 0.961 . S
H1342 C1327 0.961 . S
H1343 C1327 0.961 . S
H1344 C1328 0.931 . S
H1345 C1333 0.930 . S
H1346 C1334 0.956 . S
H1347 C1334 0.961 . S
H1348 C1334 0.961 1_545 S
H1349 C1335 0.958 . S
H1350 C1335 0.961 . S
H1351 C1335 0.960 . S
C1352 C1353 1.391 . S
C1352 C1354 1.394 . S
C1352 H1368 0.931 . S
C1353 C1352 1.391 . S
C1353 C1357 1.376 . S
C1354 C1352 1.394 . S
C1354 C1355 1.369 . S
C1354 C1358 1.531 . S
C1355 C1354 1.369 . S
C1355 C1356 1.410 . S
C1355 C1363 1.503 . S
C1356 C1355 1.410 . S
C1356 C1357 1.392 . S
C1356 C1359 1.511 . S
C1357 C1353 1.376 . S
C1357 C1356 1.392 . S
C1357 H1369 0.929 . S
C1358 C1354 1.531 . S
C1358 H1370 0.960 . S
C1358 H1371 0.962 . S
C1358 H1372 0.960 . S
C1359 C1356 1.511 . S
C1359 H1373 0.961 . S
C1359 H1374 0.961 . S
C1359 H1375 0.961 . S
C1360 C1361 1.370 . S
C1360 C1362 1.363 . S
C1360 H1376 0.931 . S
C1361 C1360 1.370 . S
C1361 C1365 1.408 . S
C1362 C1360 1.363 . S
C1362 C1363 1.370 . S
C1362 C1366 1.524 . S
C1363 C1355 1.503 . S
C1363 C1362 1.370 . S
C1363 C1364 1.403 . S
C1364 C1363 1.403 . S
C1364 C1365 1.404 . S
C1364 C1367 1.539 . S
C1365 C1361 1.408 . S
C1365 C1364 1.404 . S
C1365 H1377 0.930 . S
C1366 C1362 1.524 . S
C1366 H1378 0.956 . S
C1366 H1379 0.961 . S
C1366 H1380 0.961 . S
C1367 C1364 1.539 . S
C1367 H1381 0.958 . S
C1367 H1382 0.961 . S
C1367 H1383 0.960 . S
H1368 C1352 0.931 . S
H1369 C1357 0.929 . S
H1370 C1358 0.960 . S
H1371 C1358 0.962 . S
H1372 C1358 0.960 . S
H1373 C1359 0.961 . S
H1374 C1359 0.961 . S
H1375 C1359 0.961 . S
H1376 C1360 0.931 . S
H1377 C1365 0.930 . S
H1378 C1366 0.956 . S
H1379 C1366 0.961 . S
H1380 C1366 0.961 . S
H1381 C1367 0.958 . S
H1382 C1367 0.961 . S
H1383 C1367 0.960 . S
C1384 C1385 1.391 . S
C1384 C1386 1.394 1_545 S
C1384 H1400 0.931 . S
C1385 C1384 1.391 . S
C1385 C1389 1.376 . S
C1386 C1384 1.394 1_565 S
C1386 C1387 1.369 . S
C1386 C1390 1.531 . S
C1387 C1386 1.369 . S
C1387 C1388 1.415 . S
C1387 C1395 1.537 . S
C1388 C1387 1.415 . S
C1388 C1389 1.381 1_565 S
C1388 C1391 1.517 1_556 S
C1389 C1385 1.376 . S
C1389 C1388 1.381 1_545 S
C1389 H1401 0.929 . S
C1390 C1386 1.531 . S
C1390 H1402 0.960 . S
C1390 H1403 0.962 . S
C1390 H1404 0.960 . S
C1391 C1388 1.517 1_554 S
C1391 H1405 0.961 1_565 S
C1391 H1406 0.961 . S
C1391 H1407 0.961 . S
C1392 C1393 1.370 . S
C1392 C1394 1.363 . S
C1392 H1408 0.931 . S
C1393 C1392 1.370 . S
C1393 C1397 1.408 . S
C1394 C1392 1.363 . S
C1394 C1395 1.333 1_554 S
C1394 C1398 1.524 1_565 S
C1395 C1387 1.537 . S
C1395 C1394 1.333 1_556 S
C1395 C1396 1.410 . S
C1396 C1395 1.410 . S
C1396 C1397 1.404 1_556 S
C1396 C1399 1.539 . S
C1397 C1393 1.408 . S
C1397 C1396 1.404 1_554 S
C1397 H1409 0.930 . S
C1398 C1394 1.524 1_545 S
C1398 H1410 0.956 . S
C1398 H1411 0.961 . S
C1398 H1412 0.961 . S
C1399 C1396 1.539 . S
C1399 H1413 0.958 . S
C1399 H1414 0.961 . S
C1399 H1415 0.960 . S
H1400 C1384 0.931 . S
H1401 C1389 0.929 . S
H1402 C1390 0.960 . S
H1403 C1390 0.962 . S
H1404 C1390 0.960 . S
H1405 C1391 0.961 1_545 S
H1406 C1391 0.961 . S
H1407 C1391 0.961 . S
H1408 C1392 0.931 . S
H1409 C1397 0.930 . S
H1410 C1398 0.956 . S
H1411 C1398 0.961 . S
H1412 C1398 0.961 . S
H1413 C1399 0.958 . S
H1414 C1399 0.961 . S
H1415 C1399 0.960 . S
C1416 C1417 1.391 . S
C1416 C1418 1.394 . S
C1416 H1432 0.931 . S
C1417 C1416 1.391 . S
C1417 C1421 1.376 . S
C1418 C1416 1.394 . S
C1418 C1419 1.369 . S
C1418 C1422 1.531 . S
C1419 C1418 1.369 . S
C1419 C1420 1.410 . S
C1419 C1427 1.503 . S
C1420 C1419 1.410 . S
C1420 C1421 1.392 . S
C1420 C1423 1.511 . S
C1421 C1417 1.376 . S
C1421 C1420 1.392 . S
C1421 H1433 0.929 . S
C1422 C1418 1.531 . S
C1422 H1434 0.960 . S
C1422 H1435 0.962 . S
C1422 H1436 0.960 . S
C1423 C1420 1.511 . S
C1423 H1437 0.961 . S
C1423 H1438 0.961 . S
C1423 H1439 0.961 . S
C1424 C1425 1.370 . S
C1424 C1426 1.363 . S
C1424 H1440 0.931 . S
C1425 C1424 1.370 . S
C1425 C1429 1.408 . S
C1426 C1424 1.363 . S
C1426 C1427 1.370 . S
C1426 C1430 1.524 . S
C1427 C1419 1.503 . S
C1427 C1426 1.370 . S
C1427 C1428 1.403 . S
C1428 C1427 1.403 . S
C1428 C1429 1.404 . S
C1428 C1431 1.539 . S
C1429 C1425 1.408 . S
C1429 C1428 1.404 . S
C1429 H1441 0.930 . S
C1430 C1426 1.524 . S
C1430 H1442 0.956 . S
C1430 H1443 0.961 . S
C1430 H1444 0.961 . S
C1431 C1428 1.539 . S
C1431 H1445 0.958 . S
C1431 H1446 0.961 . S
C1431 H1447 0.960 . S
H1432 C1416 0.931 . S
H1433 C1421 0.929 . S
H1434 C1422 0.960 . S
H1435 C1422 0.962 . S
H1436 C1422 0.960 . S
H1437 C1423 0.961 . S
H1438 C1423 0.961 . S
H1439 C1423 0.961 . S
H1440 C1424 0.931 . S
H1441 C1429 0.930 . S
H1442 C1430 0.956 . S
H1443 C1430 0.961 . S
H1444 C1430 0.961 . S
H1445 C1431 0.958 . S
H1446 C1431 0.961 . S
H1447 C1431 0.960 . S
C1448 C1449 1.391 . S
C1448 C1450 1.394 . S
C1448 H1464 0.931 . S
C1449 C1448 1.391 . S
C1449 C1453 1.376 . S
C1450 C1448 1.394 . S
C1450 C1451 1.369 . S
C1450 C1454 1.531 . S
C1451 C1450 1.369 . S
C1451 C1452 1.410 . S
C1451 C1459 1.503 . S
C1452 C1451 1.410 . S
C1452 C1453 1.392 . S
C1452 C1455 1.511 . S
C1453 C1449 1.376 . S
C1453 C1452 1.392 . S
C1453 H1465 0.929 . S
C1454 C1450 1.531 . S
C1454 H1466 0.960 . S
C1454 H1467 0.962 . S
C1454 H1468 0.960 . S
C1455 C1452 1.511 . S
C1455 H1469 0.961 . S
C1455 H1470 0.961 . S
C1455 H1471 0.961 . S
C1456 C1457 1.370 . S
C1456 C1458 1.363 . S
C1456 H1472 0.931 . S
C1457 C1456 1.370 . S
C1457 C1461 1.408 . S
C1458 C1456 1.363 . S
C1458 C1459 1.370 . S
C1458 C1462 1.524 . S
C1459 C1451 1.503 . S
C1459 C1458 1.370 . S
C1459 C1460 1.403 . S
C1460 C1459 1.403 . S
C1460 C1461 1.404 . S
C1460 C1463 1.539 . S
C1461 C1457 1.408 . S
C1461 C1460 1.404 . S
C1461 H1473 0.930 . S
C1462 C1458 1.524 . S
C1462 H1474 0.956 . S
C1462 H1475 0.961 . S
C1462 H1476 0.961 . S
C1463 C1460 1.539 . S
C1463 H1477 0.958 . S
C1463 H1478 0.961 . S
C1463 H1479 0.960 . S
H1464 C1448 0.931 . S
H1465 C1453 0.929 . S
H1466 C1454 0.960 . S
H1467 C1454 0.962 . S
H1468 C1454 0.960 . S
H1469 C1455 0.961 . S
H1470 C1455 0.961 . S
H1471 C1455 0.961 . S
H1472 C1456 0.931 . S
H1473 C1461 0.930 . S
H1474 C1462 0.956 . S
H1475 C1462 0.961 . S
H1476 C1462 0.961 . S
H1477 C1463 0.958 . S
H1478 C1463 0.961 . S
H1479 C1463 0.960 . S
C1480 C1481 1.391 . S
C1480 C1482 1.394 . S
C1480 H1496 0.931 . S
C1481 C1480 1.391 . S
C1481 C1485 1.376 . S
C1482 C1480 1.394 . S
C1482 C1483 1.369 . S
C1482 C1486 1.531 . S
C1483 C1482 1.369 . S
C1483 C1484 1.410 . S
C1483 C1491 1.503 . S
C1484 C1483 1.410 . S
C1484 C1485 1.392 . S
C1484 C1487 1.511 . S
C1485 C1481 1.376 . S
C1485 C1484 1.392 . S
C1485 H1497 0.929 . S
C1486 C1482 1.531 . S
C1486 H1498 0.960 . S
C1486 H1499 0.962 . S
C1486 H1500 0.960 . S
C1487 C1484 1.511 . S
C1487 H1501 0.961 . S
C1487 H1502 0.961 . S
C1487 H1503 0.961 . S
C1488 C1489 1.370 . S
C1488 C1490 1.363 . S
C1488 H1504 0.931 . S
C1489 C1488 1.370 . S
C1489 C1493 1.408 . S
C1490 C1488 1.363 . S
C1490 C1491 1.370 . S
C1490 C1494 1.524 . S
C1491 C1483 1.503 . S
C1491 C1490 1.370 . S
C1491 C1492 1.403 . S
C1492 C1491 1.403 . S
C1492 C1493 1.404 . S
C1492 C1495 1.539 . S
C1493 C1489 1.408 . S
C1493 C1492 1.404 . S
C1493 H1505 0.930 . S
C1494 C1490 1.524 . S
C1494 H1506 0.956 . S
C1494 H1507 0.961 . S
C1494 H1508 0.961 . S
C1495 C1492 1.539 . S
C1495 H1509 0.958 . S
C1495 H1510 0.961 . S
C1495 H1511 0.960 . S
H1496 C1480 0.931 . S
H1497 C1485 0.929 . S
H1498 C1486 0.960 . S
H1499 C1486 0.962 . S
H1500 C1486 0.960 . S
H1501 C1487 0.961 . S
H1502 C1487 0.961 . S
H1503 C1487 0.961 . S
H1504 C1488 0.931 . S
H1505 C1493 0.930 . S
H1506 C1494 0.956 . S
H1507 C1494 0.961 . S
H1508 C1494 0.961 . S
H1509 C1495 0.958 . S
H1510 C1495 0.961 . S
H1511 C1495 0.960 . S
C1512 C1513 1.391 . S
C1512 C1514 1.394 . S
C1512 H1528 0.931 . S
C1513 C1512 1.391 . S
C1513 C1517 1.376 . S
C1514 C1512 1.394 . S
C1514 C1515 1.369 . S
C1514 C1518 1.531 . S
C1515 C1514 1.369 . S
C1515 C1516 1.410 . S
C1515 C1523 1.503 . S
C1516 C1515 1.410 . S
C1516 C1517 1.392 . S
C1516 C1519 1.511 . S
C1517 C1513 1.376 . S
C1517 C1516 1.392 . S
C1517 H1529 0.929 . S
C1518 C1514 1.531 . S
C1518 H1530 0.960 . S
C1518 H1531 0.962 . S
C1518 H1532 0.960 . S
C1519 C1516 1.511 . S
C1519 H1533 0.961 . S
C1519 H1534 0.961 . S
C1519 H1535 0.961 . S
C1520 C1521 1.370 . S
C1520 C1522 1.363 . S
C1520 H1536 0.931 . S
C1521 C1520 1.370 . S
C1521 C1525 1.408 . S
C1522 C1520 1.363 . S
C1522 C1523 1.370 . S
C1522 C1526 1.524 . S
C1523 C1515 1.503 . S
C1523 C1522 1.370 . S
C1523 C1524 1.403 . S
C1524 C1523 1.403 . S
C1524 C1525 1.404 . S
C1524 C1527 1.539 . S
C1525 C1521 1.408 . S
C1525 C1524 1.404 . S
C1525 H1537 0.930 . S
C1526 C1522 1.524 . S
C1526 H1538 0.956 . S
C1526 H1539 0.961 . S
C1526 H1540 0.961 . S
C1527 C1524 1.539 . S
C1527 H1541 0.958 . S
C1527 H1542 0.961 . S
C1527 H1543 0.960 . S
H1528 C1512 0.931 . S
H1529 C1517 0.929 . S
H1530 C1518 0.960 . S
H1531 C1518 0.962 . S
H1532 C1518 0.960 . S
H1533 C1519 0.961 . S
H1534 C1519 0.961 . S
H1535 C1519 0.961 . S
H1536 C1520 0.931 . S
H1537 C1525 0.930 . S
H1538 C1526 0.956 . S
H1539 C1526 0.961 . S
H1540 C1526 0.961 . S
H1541 C1527 0.958 . S
H1542 C1527 0.961 . S
H1543 C1527 0.960 . S
C1544 C1545 1.391 . S
C1544 C1546 1.394 . S
C1544 H1560 0.931 . S
C1545 C1544 1.391 . S
C1545 C1549 1.376 . S
C1546 C1544 1.394 . S
C1546 C1547 1.369 . S
C1546 C1550 1.531 . S
C1547 C1546 1.369 . S
C1547 C1548 1.410 . S
C1547 C1555 1.503 . S
C1548 C1547 1.410 . S
C1548 C1549 1.392 . S
C1548 C1551 1.511 . S
C1549 C1545 1.376 . S
C1549 C1548 1.392 . S
C1549 H1561 0.929 . S
C1550 C1546 1.531 . S
C1550 H1562 0.960 . S
C1550 H1563 0.962 . S
C1550 H1564 0.960 . S
C1551 C1548 1.511 . S
C1551 H1565 0.961 . S
C1551 H1566 0.961 . S
C1551 H1567 0.961 . S
C1552 C1553 1.370 . S
C1552 C1554 1.363 . S
C1552 H1568 0.931 . S
C1553 C1552 1.370 . S
C1553 C1557 1.408 . S
C1554 C1552 1.363 . S
C1554 C1555 1.370 . S
C1554 C1558 1.524 . S
C1555 C1547 1.503 . S
C1555 C1554 1.370 . S
C1555 C1556 1.403 . S
C1556 C1555 1.403 . S
C1556 C1557 1.404 . S
C1556 C1559 1.539 . S
C1557 C1553 1.408 . S
C1557 C1556 1.404 . S
C1557 H1569 0.930 . S
C1558 C1554 1.524 . S
C1558 H1570 0.956 . S
C1558 H1571 0.961 . S
C1558 H1572 0.961 . S
C1559 C1556 1.539 . S
C1559 H1573 0.958 . S
C1559 H1574 0.961 . S
C1559 H1575 0.960 . S
H1560 C1544 0.931 . S
H1561 C1549 0.929 . S
H1562 C1550 0.960 . S
H1563 C1550 0.962 . S
H1564 C1550 0.960 . S
H1565 C1551 0.961 . S
H1566 C1551 0.961 . S
H1567 C1551 0.961 . S
H1568 C1552 0.931 . S
H1569 C1557 0.930 . S
H1570 C1558 0.956 . S
H1571 C1558 0.961 . S
H1572 C1558 0.961 . S
H1573 C1559 0.958 . S
H1574 C1559 0.961 . S
H1575 C1559 0.960 . S
C1576 C1577 1.391 . S
C1576 C1578 1.394 . S
C1576 H1592 0.931 . S
C1577 C1576 1.391 . S
C1577 C1581 1.376 . S
C1578 C1576 1.394 . S
C1578 C1579 1.369 . S
C1578 C1582 1.531 . S
C1579 C1578 1.369 . S
C1579 C1580 1.410 . S
C1579 C1587 1.503 . S
C1580 C1579 1.410 . S
C1580 C1581 1.392 . S
C1580 C1583 1.511 . S
C1581 C1577 1.376 . S
C1581 C1580 1.392 . S
C1581 H1593 0.929 . S
C1582 C1578 1.531 . S
C1582 H1594 0.960 . S
C1582 H1595 0.962 . S
C1582 H1596 0.960 . S
C1583 C1580 1.511 . S
C1583 H1597 0.961 . S
C1583 H1598 0.961 . S
C1583 H1599 0.961 . S
C1584 C1585 1.370 . S
C1584 C1586 1.363 . S
C1584 H1600 0.931 . S
C1585 C1584 1.370 . S
C1585 C1589 1.408 . S
C1586 C1584 1.363 . S
C1586 C1587 1.370 . S
C1586 C1590 1.524 . S
C1587 C1579 1.503 . S
C1587 C1586 1.370 . S
C1587 C1588 1.403 . S
C1588 C1587 1.403 . S
C1588 C1589 1.404 . S
C1588 C1591 1.539 . S
C1589 C1585 1.408 . S
C1589 C1588 1.404 . S
C1589 H1601 0.930 . S
C1590 C1586 1.524 . S
C1590 H1602 0.956 . S
C1590 H1603 0.961 . S
C1590 H1604 0.961 . S
C1591 C1588 1.539 . S
C1591 H1605 0.958 . S
C1591 H1606 0.961 . S
C1591 H1607 0.960 . S
H1592 C1576 0.931 . S
H1593 C1581 0.929 . S
H1594 C1582 0.960 . S
H1595 C1582 0.962 . S
H1596 C1582 0.960 . S
H1597 C1583 0.961 . S
H1598 C1583 0.961 . S
H1599 C1583 0.961 . S
H1600 C1584 0.931 . S
H1601 C1589 0.930 . S
H1602 C1590 0.956 . S
H1603 C1590 0.961 . S
H1604 C1590 0.961 . S
H1605 C1591 0.958 . S
H1606 C1591 0.961 . S
H1607 C1591 0.960 . S
C1608 C1609 1.391 . S
C1608 C1610 1.394 . S
C1608 H1624 0.931 . S
C1609 C1608 1.391 . S
C1609 C1613 1.376 . S
C1610 C1608 1.394 . S
C1610 C1611 1.369 . S
C1610 C1614 1.531 . S
C1611 C1610 1.369 . S
C1611 C1612 1.410 . S
C1611 C1619 1.503 . S
C1612 C1611 1.410 . S
C1612 C1613 1.392 . S
C1612 C1615 1.511 . S
C1613 C1609 1.376 . S
C1613 C1612 1.392 . S
C1613 H1625 0.929 . S
C1614 C1610 1.531 . S
C1614 H1626 0.960 . S
C1614 H1627 0.962 . S
C1614 H1628 0.960 . S
C1615 C1612 1.511 . S
C1615 H1629 0.961 . S
C1615 H1630 0.961 . S
C1615 H1631 0.961 . S
C1616 C1617 1.370 . S
C1616 C1618 1.363 . S
C1616 H1632 0.931 . S
C1617 C1616 1.370 . S
C1617 C1621 1.408 . S
C1618 C1616 1.363 . S
C1618 C1619 1.370 . S
C1618 C1622 1.524 . S
C1619 C1611 1.503 . S
C1619 C1618 1.370 . S
C1619 C1620 1.403 . S
C1620 C1619 1.403 . S
C1620 C1621 1.404 . S
C1620 C1623 1.539 . S
C1621 C1617 1.408 . S
C1621 C1620 1.404 . S
C1621 H1633 0.930 . S
C1622 C1618 1.524 . S
C1622 H1634 0.956 . S
C1622 H1635 0.961 . S
C1622 H1636 0.961 . S
C1623 C1620 1.539 . S
C1623 H1637 0.958 . S
C1623 H1638 0.961 . S
C1623 H1639 0.960 . S
H1624 C1608 0.931 . S
H1625 C1613 0.929 . S
H1626 C1614 0.960 . S
H1627 C1614 0.962 . S
H1628 C1614 0.960 . S
H1629 C1615 0.961 . S
H1630 C1615 0.961 . S
H1631 C1615 0.961 . S
H1632 C1616 0.931 . S
H1633 C1621 0.930 . S
H1634 C1622 0.956 . S
H1635 C1622 0.961 . S
H1636 C1622 0.961 . S
H1637 C1623 0.958 . S
H1638 C1623 0.961 . S
H1639 C1623 0.960 . S
C1640 C1641 1.391 . S
C1640 C1642 1.394 . S
C1640 H1656 0.931 . S
C1641 C1640 1.391 . S
C1641 C1645 1.376 . S
C1642 C1640 1.394 . S
C1642 C1643 1.369 . S
C1642 C1646 1.531 . S
C1643 C1642 1.369 . S
C1643 C1644 1.410 . S
C1643 C1651 1.503 . S
C1644 C1643 1.410 . S
C1644 C1645 1.392 . S
C1644 C1647 1.511 . S
C1645 C1641 1.376 . S
C1645 C1644 1.392 . S
C1645 H1657 0.929 . S
C1646 C1642 1.531 . S
C1646 H1658 0.960 . S
C1646 H1659 0.962 . S
C1646 H1660 0.960 . S
C1647 C1644 1.511 . S
C1647 H1661 0.961 . S
C1647 H1662 0.961 . S
C1647 H1663 0.961 . S
C1648 C1649 1.370 . S
C1648 C1650 1.363 . S
C1648 H1664 0.931 . S
C1649 C1648 1.370 . S
C1649 C1653 1.408 . S
C1650 C1648 1.363 . S
C1650 C1651 1.370 . S
C1650 C1654 1.524 . S
C1651 C1643 1.503 . S
C1651 C1650 1.370 . S
C1651 C1652 1.403 . S
C1652 C1651 1.403 . S
C1652 C1653 1.404 . S
C1652 C1655 1.539 . S
C1653 C1649 1.408 . S
C1653 C1652 1.404 . S
C1653 H1665 0.930 . S
C1654 C1650 1.524 . S
C1654 H1666 0.956 . S
C1654 H1667 0.961 . S
C1654 H1668 0.961 . S
C1655 C1652 1.539 . S
C1655 H1669 0.958 . S
C1655 H1670 0.961 . S
C1655 H1671 0.960 . S
H1656 C1640 0.931 . S
H1657 C1645 0.929 . S
H1658 C1646 0.960 . S
H1659 C1646 0.962 . S
H1660 C1646 0.960 . S
H1661 C1647 0.961 . S
H1662 C1647 0.961 . S
H1663 C1647 0.961 . S
H1664 C1648 0.931 . S
H1665 C1653 0.930 . S
H1666 C1654 0.956 . S
H1667 C1654 0.961 . S
H1668 C1654 0.961 . S
H1669 C1655 0.958 . S
H1670 C1655 0.961 . S
H1671 C1655 0.960 . S
C1672 C1673 1.391 . S
C1672 C1674 1.394 . S
C1672 H1688 0.931 . S
C1673 C1672 1.391 . S
C1673 C1677 1.376 . S
C1674 C1672 1.394 . S
C1674 C1675 1.369 . S
C1674 C1678 1.531 . S
C1675 C1674 1.369 . S
C1675 C1676 1.410 . S
C1675 C1683 1.503 . S
C1676 C1675 1.410 . S
C1676 C1677 1.392 . S
C1676 C1679 1.511 . S
C1677 C1673 1.376 . S
C1677 C1676 1.392 . S
C1677 H1689 0.929 . S
C1678 C1674 1.531 . S
C1678 H1690 0.960 . S
C1678 H1691 0.962 . S
C1678 H1692 0.960 . S
C1679 C1676 1.511 . S
C1679 H1693 0.961 . S
C1679 H1694 0.961 . S
C1679 H1695 0.961 . S
C1680 C1681 1.370 . S
C1680 C1682 1.363 . S
C1680 H1696 0.931 . S
C1681 C1680 1.370 . S
C1681 C1685 1.408 . S
C1682 C1680 1.363 . S
C1682 C1683 1.370 . S
C1682 C1686 1.524 . S
C1683 C1675 1.503 . S
C1683 C1682 1.370 . S
C1683 C1684 1.403 . S
C1684 C1683 1.403 . S
C1684 C1685 1.404 . S
C1684 C1687 1.539 . S
C1685 C1681 1.408 . S
C1685 C1684 1.404 . S
C1685 H1697 0.930 . S
C1686 C1682 1.524 . S
C1686 H1698 0.956 . S
C1686 H1699 0.961 . S
C1686 H1700 0.961 . S
C1687 C1684 1.539 . S
C1687 H1701 0.958 . S
C1687 H1702 0.961 . S
C1687 H1703 0.960 . S
H1688 C1672 0.931 . S
H1689 C1677 0.929 . S
H1690 C1678 0.960 . S
H1691 C1678 0.962 . S
H1692 C1678 0.960 . S
H1693 C1679 0.961 . S
H1694 C1679 0.961 . S
H1695 C1679 0.961 . S
H1696 C1680 0.931 . S
H1697 C1685 0.930 . S
H1698 C1686 0.956 . S
H1699 C1686 0.961 . S
H1700 C1686 0.961 . S
H1701 C1687 0.958 . S
H1702 C1687 0.961 . S
H1703 C1687 0.960 . S
C1704 C1705 1.391 . S
C1704 C1706 1.394 . S
C1704 H1720 0.931 . S
C1705 C1704 1.391 . S
C1705 C1709 1.376 . S
C1706 C1704 1.394 . S
C1706 C1707 1.369 . S
C1706 C1710 1.531 . S
C1707 C1706 1.369 . S
C1707 C1708 1.410 . S
C1707 C1715 1.503 . S
C1708 C1707 1.410 . S
C1708 C1709 1.392 . S
C1708 C1711 1.511 . S
C1709 C1705 1.376 . S
C1709 C1708 1.392 . S
C1709 H1721 0.929 . S
C1710 C1706 1.531 . S
C1710 H1722 0.960 . S
C1710 H1723 0.962 . S
C1710 H1724 0.960 . S
C1711 C1708 1.511 . S
C1711 H1725 0.961 . S
C1711 H1726 0.961 . S
C1711 H1727 0.961 . S
C1712 C1713 1.370 . S
C1712 C1714 1.363 . S
C1712 H1728 0.931 . S
C1713 C1712 1.370 . S
C1713 C1717 1.408 . S
C1714 C1712 1.363 . S
C1714 C1715 1.370 . S
C1714 C1718 1.524 . S
C1715 C1707 1.503 . S
C1715 C1714 1.370 . S
C1715 C1716 1.403 . S
C1716 C1715 1.403 . S
C1716 C1717 1.404 . S
C1716 C1719 1.539 . S
C1717 C1713 1.408 . S
C1717 C1716 1.404 . S
C1717 H1729 0.930 . S
C1718 C1714 1.524 . S
C1718 H1730 0.956 . S
C1718 H1731 0.961 . S
C1718 H1732 0.961 . S
C1719 C1716 1.539 . S
C1719 H1733 0.958 . S
C1719 H1734 0.961 . S
C1719 H1735 0.960 . S
H1720 C1704 0.931 . S
H1721 C1709 0.929 . S
H1722 C1710 0.960 . S
H1723 C1710 0.962 . S
H1724 C1710 0.960 . S
H1725 C1711 0.961 . S
H1726 C1711 0.961 . S
H1727 C1711 0.961 . S
H1728 C1712 0.931 . S
H1729 C1717 0.930 . S
H1730 C1718 0.956 . S
H1731 C1718 0.961 . S
H1732 C1718 0.961 . S
H1733 C1719 0.958 . S
H1734 C1719 0.961 . S
H1735 C1719 0.960 . S
C1736 C1737 1.391 . S
C1736 C1738 1.394 1_455 S
C1736 H1752 0.931 . S
C1737 C1736 1.391 . S
C1737 C1741 1.376 . S
C1738 C1736 1.394 1_655 S
C1738 C1739 1.369 . S
C1738 C1742 1.531 . S
C1739 C1738 1.369 . S
C1739 C1740 1.410 1_655 S
C1739 C1747 1.503 . S
C1740 C1739 1.410 1_455 S
C1740 C1741 1.392 . S
C1740 C1743 1.511 . S
C1741 C1737 1.376 . S
C1741 C1740 1.392 . S
C1741 H1753 0.929 . S
C1742 C1738 1.531 . S
C1742 H1754 0.960 . S
C1742 H1755 0.962 . S
C1742 H1756 0.960 . S
C1743 C1740 1.511 . S
C1743 H1757 0.961 . S
C1743 H1758 0.961 1_455 S
C1743 H1759 0.961 . S
C1744 C1745 1.370 . S
C1744 C1746 1.363 . S
C1744 H1760 0.931 . S
C1745 C1744 1.370 . S
C1745 C1749 1.408 . S
C1746 C1744 1.363 . S
C1746 C1747 1.370 . S
C1746 C1750 1.524 . S
C1747 C1739 1.503 . S
C1747 C1746 1.370 . S
C1747 C1748 1.403 . S
C1748 C1747 1.403 . S
C1748 C1749 1.404 . S
C1748 C1751 1.539 . S
C1749 C1745 1.408 . S
C1749 C1748 1.404 . S
C1749 H1761 0.930 . S
C1750 C1746 1.524 . S
C1750 H1762 0.956 . S
C1750 H1763 0.961 . S
C1750 H1764 0.961 . S
C1751 C1748 1.539 . S
C1751 H1765 0.958 . S
C1751 H1766 0.961 . S
C1751 H1767 0.960 1_655 S
H1752 C1736 0.931 . S
H1753 C1741 0.929 . S
H1754 C1742 0.960 . S
H1755 C1742 0.962 . S
H1756 C1742 0.960 . S
H1757 C1743 0.961 . S
H1758 C1743 0.961 1_655 S
H1759 C1743 0.961 . S
H1760 C1744 0.931 . S
H1761 C1749 0.930 . S
H1762 C1750 0.956 . S
H1763 C1750 0.961 . S
H1764 C1750 0.961 . S
H1765 C1751 0.958 . S
H1766 C1751 0.961 . S
H1767 C1751 0.960 1_455 S
C1768 C1769 1.391 . S
C1768 C1770 1.394 . S
C1768 H1784 0.931 . S
C1769 C1768 1.391 . S
C1769 C1773 1.376 . S
C1770 C1768 1.394 . S
C1770 C1771 1.369 . S
C1770 C1774 1.531 . S
C1771 C1770 1.369 . S
C1771 C1772 1.410 . S
C1771 C1779 1.503 . S
C1772 C1771 1.410 . S
C1772 C1773 1.392 . S
C1772 C1775 1.511 . S
C1773 C1769 1.376 . S
C1773 C1772 1.392 . S
C1773 H1785 0.929 . S
C1774 C1770 1.531 . S
C1774 H1786 0.960 . S
C1774 H1787 0.962 . S
C1774 H1788 0.960 . S
C1775 C1772 1.511 . S
C1775 H1789 0.961 . S
C1775 H1790 0.961 . S
C1775 H1791 0.961 . S
C1776 C1777 1.370 . S
C1776 C1778 1.363 . S
C1776 H1792 0.931 . S
C1777 C1776 1.370 . S
C1777 C1781 1.408 . S
C1778 C1776 1.363 . S
C1778 C1779 1.370 . S
C1778 C1782 1.524 . S
C1779 C1771 1.503 . S
C1779 C1778 1.370 . S
C1779 C1780 1.403 . S
C1780 C1779 1.403 . S
C1780 C1781 1.404 . S
C1780 C1783 1.539 . S
C1781 C1777 1.408 . S
C1781 C1780 1.404 . S
C1781 H1793 0.930 . S
C1782 C1778 1.524 . S
C1782 H1794 0.956 . S
C1782 H1795 0.961 . S
C1782 H1796 0.961 . S
C1783 C1780 1.539 . S
C1783 H1797 0.958 . S
C1783 H1798 0.961 . S
C1783 H1799 0.960 . S
H1784 C1768 0.931 . S
H1785 C1773 0.929 . S
H1786 C1774 0.960 . S
H1787 C1774 0.962 . S
H1788 C1774 0.960 . S
H1789 C1775 0.961 . S
H1790 C1775 0.961 . S
H1791 C1775 0.961 . S
H1792 C1776 0.931 . S
H1793 C1781 0.930 . S
H1794 C1782 0.956 . S
H1795 C1782 0.961 . S
H1796 C1782 0.961 . S
H1797 C1783 0.958 . S
H1798 C1783 0.961 . S
H1799 C1783 0.960 . S
C1800 C1801 1.391 . S
C1800 C1802 1.394 . S
C1800 H1816 0.931 . S
C1801 C1800 1.391 . S
C1801 C1805 1.376 . S
C1802 C1800 1.394 . S
C1802 C1803 1.369 1_655 S
C1802 C1806 1.531 1_655 S
C1803 C1802 1.369 1_455 S
C1803 C1804 1.410 1_455 S
C1803 C1811 1.503 . S
C1804 C1803 1.410 1_655 S
C1804 C1805 1.392 . S
C1804 C1807 1.511 1_655 S
C1805 C1801 1.376 . S
C1805 C1804 1.392 . S
C1805 H1817 0.929 . S
C1806 C1802 1.531 1_455 S
C1806 H1818 0.960 . S
C1806 H1819 0.962 1_455 S
C1806 H1820 0.953 1_455 S
C1807 C1804 1.511 1_455 S
C1807 H1821 0.957 1_455 S
C1807 H1822 0.961 . S
C1807 H1823 0.961 . S
C1808 C1809 1.370 . S
C1808 C1810 1.363 . S
C1808 H1824 0.931 . S
C1809 C1808 1.370 . S
C1809 C1813 1.408 . S
C1810 C1808 1.363 . S
C1810 C1811 1.370 . S
C1810 C1814 1.527 . S
C1811 C1803 1.503 . S
C1811 C1810 1.370 . S
C1811 C1812 1.403 . S
C1812 C1811 1.403 . S
C1812 C1813 1.404 . S
C1812 C1815 1.539 . S
C1813 C1809 1.408 . S
C1813 C1812 1.404 . S
C1813 H1825 0.930 . S
C1814 C1810 1.527 . S
C1814 H1826 0.954 1_455 S
C1814 H1827 0.959 1_455 S
C1814 H1828 0.961 . S
C1815 C1812 1.539 . S
C1815 H1829 0.958 . S
C1815 H1830 0.961 . S
C1815 H1831 0.960 . S
H1816 C1800 0.931 . S
H1817 C1805 0.929 . S
H1818 C1806 0.960 . S
H1819 C1806 0.962 1_655 S
H1820 C1806 0.953 1_655 S
H1821 C1807 0.957 1_655 S
H1822 C1807 0.961 . S
H1823 C1807 0.961 . S
H1824 C1808 0.931 . S
H1825 C1813 0.930 . S
H1826 C1814 0.954 1_655 S
H1827 C1814 0.959 1_655 S
H1828 C1814 0.961 . S
H1829 C1815 0.958 . S
H1830 C1815 0.961 . S
H1831 C1815 0.960 . S
C1832 C1833 1.391 . S
C1832 C1834 1.394 . S
C1832 H1848 0.931 . S
C1833 C1832 1.391 . S
C1833 C1837 1.376 . S
C1834 C1832 1.394 . S
C1834 C1835 1.369 . S
C1834 C1838 1.531 . S
C1835 C1834 1.369 . S
C1835 C1836 1.410 . S
C1835 C1843 1.503 . S
C1836 C1835 1.410 . S
C1836 C1837 1.392 . S
C1836 C1839 1.511 . S
C1837 C1833 1.376 . S
C1837 C1836 1.392 . S
C1837 H1849 0.929 . S
C1838 C1834 1.531 . S
C1838 H1850 0.960 . S
C1838 H1851 0.962 . S
C1838 H1852 0.960 . S
C1839 C1836 1.511 . S
C1839 H1853 0.961 . S
C1839 H1854 0.961 . S
C1839 H1855 0.961 . S
C1840 C1841 1.370 . S
C1840 C1842 1.363 . S
C1840 H1856 0.931 . S
C1841 C1840 1.370 . S
C1841 C1845 1.408 . S
C1842 C1840 1.363 . S
C1842 C1843 1.370 . S
C1842 C1846 1.524 . S
C1843 C1835 1.503 . S
C1843 C1842 1.370 . S
C1843 C1844 1.403 . S
C1844 C1843 1.403 . S
C1844 C1845 1.404 . S
C1844 C1847 1.539 . S
C1845 C1841 1.408 . S
C1845 C1844 1.404 . S
C1845 H1857 0.930 . S
C1846 C1842 1.524 . S
C1846 H1858 0.956 . S
C1846 H1859 0.961 . S
C1846 H1860 0.961 . S
C1847 C1844 1.539 . S
C1847 H1861 0.958 . S
C1847 H1862 0.961 . S
C1847 H1863 0.960 . S
H1848 C1832 0.931 . S
H1849 C1837 0.929 . S
H1850 C1838 0.960 . S
H1851 C1838 0.962 . S
H1852 C1838 0.960 . S
H1853 C1839 0.961 . S
H1854 C1839 0.961 . S
H1855 C1839 0.961 . S
H1856 C1840 0.931 . S
H1857 C1845 0.930 . S
H1858 C1846 0.956 . S
H1859 C1846 0.961 . S
H1860 C1846 0.961 . S
H1861 C1847 0.958 . S
H1862 C1847 0.961 . S
H1863 C1847 0.960 . S
C1864 C1865 1.391 1_556 S
C1864 C1866 1.394 . S
C1864 H1880 0.931 . S
C1865 C1864 1.391 1_554 S
C1865 C1869 1.376 . S
C1866 C1864 1.394 . S
C1866 C1867 1.369 . S
C1866 C1870 1.531 . S
C1867 C1866 1.369 . S
C1867 C1868 1.410 . S
C1867 C1875 1.503 . S
C1868 C1867 1.410 . S
C1868 C1869 1.392 1_556 S
C1868 C1871 1.511 1_556 S
C1869 C1865 1.376 . S
C1869 C1868 1.392 1_554 S
C1869 H1881 0.929 . S
C1870 C1866 1.531 . S
C1870 H1882 0.960 . S
C1870 H1883 0.962 . S
C1870 H1884 0.960 . S
C1871 C1868 1.511 1_554 S
C1871 H1885 0.961 . S
C1871 H1886 0.961 1_554 S
C1871 H1887 0.951 1_554 S
C1872 C1873 1.370 . S
C1872 C1874 1.363 . S
C1872 H1888 0.931 . S
C1873 C1872 1.370 . S
C1873 C1877 1.408 . S
C1874 C1872 1.363 . S
C1874 C1875 1.370 . S
C1874 C1878 1.524 . S
C1875 C1867 1.503 . S
C1875 C1874 1.370 . S
C1875 C1876 1.403 . S
C1876 C1875 1.403 . S
C1876 C1877 1.404 . S
C1876 C1879 1.539 . S
C1877 C1873 1.408 . S
C1877 C1876 1.404 . S
C1877 H1889 0.930 . S
C1878 C1874 1.524 . S
C1878 H1890 0.956 . S
C1878 H1891 0.961 . S
C1878 H1892 0.961 . S
C1879 C1876 1.539 . S
C1879 H1893 0.958 . S
C1879 H1894 0.961 . S
C1879 H1895 0.960 . S
H1880 C1864 0.931 . S
H1881 C1869 0.929 . S
H1882 C1870 0.960 . S
H1883 C1870 0.962 . S
H1884 C1870 0.960 . S
H1885 C1871 0.961 . S
H1886 C1871 0.961 1_556 S
H1887 C1871 0.951 1_556 S
H1888 C1872 0.931 . S
H1889 C1877 0.930 . S
H1890 C1878 0.956 . S
H1891 C1878 0.961 . S
H1892 C1878 0.961 . S
H1893 C1879 0.958 . S
H1894 C1879 0.961 . S
H1895 C1879 0.960 . S
C1896 C1897 1.391 . S
C1896 C1898 1.394 . S
C1896 H1912 0.931 . S
C1897 C1896 1.391 . S
C1897 C1901 1.376 . S
C1898 C1896 1.394 . S
C1898 C1899 1.369 . S
C1898 C1902 1.531 . S
C1899 C1898 1.369 . S
C1899 C1900 1.410 . S
C1899 C1907 1.503 . S
C1900 C1899 1.410 . S
C1900 C1901 1.392 . S
C1900 C1903 1.511 . S
C1901 C1897 1.376 . S
C1901 C1900 1.392 . S
C1901 H1913 0.929 . S
C1902 C1898 1.531 . S
C1902 H1914 0.960 . S
C1902 H1915 0.962 . S
C1902 H1916 0.960 . S
C1903 C1900 1.511 . S
C1903 H1917 0.961 . S
C1903 H1918 0.961 . S
C1903 H1919 0.961 . S
C1904 C1905 1.370 . S
C1904 C1906 1.363 . S
C1904 H1920 0.931 . S
C1905 C1904 1.370 . S
C1905 C1909 1.408 . S
C1906 C1904 1.363 . S
C1906 C1907 1.370 . S
C1906 C1910 1.524 . S
C1907 C1899 1.503 . S
C1907 C1906 1.370 . S
C1907 C1908 1.403 . S
C1908 C1907 1.403 . S
C1908 C1909 1.404 . S
C1908 C1911 1.539 . S
C1909 C1905 1.408 . S
C1909 C1908 1.404 . S
C1909 H1921 0.930 . S
C1910 C1906 1.524 . S
C1910 H1922 0.956 . S
C1910 H1923 0.961 . S
C1910 H1924 0.961 . S
C1911 C1908 1.539 . S
C1911 H1925 0.958 . S
C1911 H1926 0.961 . S
C1911 H1927 0.960 . S
H1912 C1896 0.931 . S
H1913 C1901 0.929 . S
H1914 C1902 0.960 . S
H1915 C1902 0.962 . S
H1916 C1902 0.960 . S
H1917 C1903 0.961 . S
H1918 C1903 0.961 . S
H1919 C1903 0.961 . S
H1920 C1904 0.931 . S
H1921 C1909 0.930 . S
H1922 C1910 0.956 . S
H1923 C1910 0.961 . S
H1924 C1910 0.961 . S
H1925 C1911 0.958 . S
H1926 C1911 0.961 . S
H1927 C1911 0.960 . S
C1928 C1929 1.391 . S
C1928 C1930 1.394 . S
C1928 H1944 0.931 . S
C1929 C1928 1.391 . S
C1929 C1933 1.376 . S
C1930 C1928 1.394 . S
C1930 C1931 1.369 . S
C1930 C1934 1.531 . S
C1931 C1930 1.369 . S
C1931 C1932 1.410 1_554 S
C1931 C1939 1.503 1_554 S
C1932 C1931 1.410 1_556 S
C1932 C1933 1.396 1_556 S
C1932 C1935 1.507 . S
C1933 C1929 1.376 . S
C1933 C1932 1.396 1_554 S
C1933 H1945 0.929 . S
C1934 C1930 1.531 . S
C1934 H1946 0.960 . S
C1934 H1947 0.962 . S
C1934 H1948 0.960 . S
C1935 C1932 1.507 . S
C1935 H1949 0.961 . S
C1935 H1950 0.961 . S
C1935 H1951 0.961 . S
C1936 C1937 1.370 . S
C1936 C1938 1.363 . S
C1936 H1952 0.931 . S
C1937 C1936 1.370 . S
C1937 C1941 1.408 . S
C1938 C1936 1.363 . S
C1938 C1939 1.370 . S
C1938 C1942 1.524 . S
C1939 C1931 1.503 1_556 S
C1939 C1938 1.370 . S
C1939 C1940 1.403 . S
C1940 C1939 1.403 . S
C1940 C1941 1.404 . S
C1940 C1943 1.539 . S
C1941 C1937 1.408 . S
C1941 C1940 1.404 . S
C1941 H1953 0.930 . S
C1942 C1938 1.524 . S
C1942 H1954 0.956 1_556 S
C1942 H1955 0.961 . S
C1942 H1956 0.961 . S
C1943 C1940 1.539 . S
C1943 H1957 0.958 . S
C1943 H1958 0.961 . S
C1943 H1959 0.960 . S
H1944 C1928 0.931 . S
H1945 C1933 0.929 . S
H1946 C1934 0.960 . S
H1947 C1934 0.962 . S
H1948 C1934 0.960 . S
H1949 C1935 0.961 . S
H1950 C1935 0.961 . S
H1951 C1935 0.961 . S
H1952 C1936 0.931 . S
H1953 C1941 0.930 . S
H1954 C1942 0.956 1_554 S
H1955 C1942 0.961 . S
H1956 C1942 0.961 . S
H1957 C1943 0.958 . S
H1958 C1943 0.961 . S
H1959 C1943 0.960 . S
C1960 C1961 1.391 . S
C1960 C1962 1.394 . S
C1960 H1976 0.931 . S
C1961 C1960 1.391 . S
C1961 C1965 1.376 . S
C1962 C1960 1.394 . S
C1962 C1963 1.369 . S
C1962 C1966 1.531 . S
C1963 C1962 1.369 . S
C1963 C1964 1.410 . S
C1963 C1971 1.503 . S
C1964 C1963 1.410 . S
C1964 C1965 1.392 . S
C1964 C1967 1.511 . S
C1965 C1961 1.376 . S
C1965 C1964 1.392 . S
C1965 H1977 0.929 . S
C1966 C1962 1.531 . S
C1966 H1978 0.960 . S
C1966 H1979 0.962 . S
C1966 H1980 0.960 . S
C1967 C1964 1.511 . S
C1967 H1981 0.961 . S
C1967 H1982 0.961 . S
C1967 H1983 0.961 . S
C1968 C1969 1.370 . S
C1968 C1970 1.363 . S
C1968 H1984 0.931 . S
C1969 C1968 1.370 . S
C1969 C1973 1.408 . S
C1970 C1968 1.363 . S
C1970 C1971 1.370 . S
C1970 C1974 1.524 . S
C1971 C1963 1.503 . S
C1971 C1970 1.370 . S
C1971 C1972 1.403 . S
C1972 C1971 1.403 . S
C1972 C1973 1.404 . S
C1972 C1975 1.539 . S
C1973 C1969 1.408 . S
C1973 C1972 1.404 . S
C1973 H1985 0.930 . S
C1974 C1970 1.524 . S
C1974 H1986 0.956 . S
C1974 H1987 0.961 . S
C1974 H1988 0.961 . S
C1975 C1972 1.539 . S
C1975 H1989 0.958 . S
C1975 H1990 0.961 . S
C1975 H1991 0.960 . S
H1976 C1960 0.931 . S
H1977 C1965 0.929 . S
H1978 C1966 0.960 . S
H1979 C1966 0.962 . S
H1980 C1966 0.960 . S
H1981 C1967 0.961 . S
H1982 C1967 0.961 . S
H1983 C1967 0.961 . S
H1984 C1968 0.931 . S
H1985 C1973 0.930 . S
H1986 C1974 0.956 . S
H1987 C1974 0.961 . S
H1988 C1974 0.961 . S
H1989 C1975 0.958 . S
H1990 C1975 0.961 . S
H1991 C1975 0.960 . S
C1992 C1993 1.391 1_554 S
C1992 C1994 1.394 . S
C1992 H2008 0.931 . S
C1993 C1992 1.391 1_556 S
C1993 C1997 1.376 . S
C1994 C1992 1.394 . S
C1994 C1995 1.369 . S
C1994 C1998 1.531 . S
C1995 C1994 1.369 . S
C1995 C1996 1.410 . S
C1995 C2003 1.503 . S
C1996 C1995 1.410 . S
C1996 C1997 1.392 1_554 S
C1996 C1999 1.511 . S
C1997 C1993 1.376 . S
C1997 C1996 1.392 1_556 S
C1997 H2009 0.929 . S
C1998 C1994 1.531 . S
C1998 H2010 0.960 . S
C1998 H2011 0.962 . S
C1998 H2012 0.960 . S
C1999 C1996 1.511 . S
C1999 H2013 0.961 . S
C1999 H2014 0.961 . S
C1999 H2015 0.961 . S
C2000 C2001 1.370 . S
C2000 C2002 1.363 . S
C2000 H2016 0.931 . S
C2001 C2000 1.370 . S
C2001 C2005 1.408 . S
C2002 C2000 1.363 . S
C2002 C2003 1.370 . S
C2002 C2006 1.524 . S
C2003 C1995 1.503 . S
C2003 C2002 1.370 . S
C2003 C2004 1.403 . S
C2004 C2003 1.403 . S
C2004 C2005 1.404 . S
C2004 C2007 1.539 . S
C2005 C2001 1.408 . S
C2005 C2004 1.404 . S
C2005 H2017 0.930 . S
C2006 C2002 1.524 . S
C2006 H2018 0.956 . S
C2006 H2019 0.961 . S
C2006 H2020 0.961 . S
C2007 C2004 1.539 . S
C2007 H2021 0.958 . S
C2007 H2022 0.961 . S
C2007 H2023 0.960 . S
H2008 C1992 0.931 . S
H2009 C1997 0.929 . S
H2010 C1998 0.960 . S
H2011 C1998 0.962 . S
H2012 C1998 0.960 . S
H2013 C1999 0.961 . S
H2014 C1999 0.961 . S
H2015 C1999 0.961 . S
H2016 C2000 0.931 . S
H2017 C2005 0.930 . S
H2018 C2006 0.956 . S
H2019 C2006 0.961 . S
H2020 C2006 0.961 . S
H2021 C2007 0.958 . S
H2022 C2007 0.961 . S
H2023 C2007 0.960 . S
C2024 C2025 1.391 . S
C2024 C2026 1.394 . S
C2024 H2040 0.931 . S
C2025 C2024 1.391 . S
C2025 C2029 1.376 . S
C2026 C2024 1.394 . S
C2026 C2027 1.369 . S
C2026 C2030 1.531 . S
C2027 C2026 1.369 . S
C2027 C2028 1.410 . S
C2027 C2035 1.503 . S
C2028 C2027 1.410 . S
C2028 C2029 1.392 . S
C2028 C2031 1.511 . S
C2029 C2025 1.376 . S
C2029 C2028 1.392 . S
C2029 H2041 0.929 . S
C2030 C2026 1.531 . S
C2030 H2042 0.960 . S
C2030 H2043 0.962 . S
C2030 H2044 0.960 . S
C2031 C2028 1.511 . S
C2031 H2045 0.961 . S
C2031 H2046 0.961 . S
C2031 H2047 0.961 . S
C2032 C2033 1.370 . S
C2032 C2034 1.363 . S
C2032 H2048 0.931 . S
C2033 C2032 1.370 . S
C2033 C2037 1.408 . S
C2034 C2032 1.363 . S
C2034 C2035 1.370 . S
C2034 C2038 1.524 . S
C2035 C2027 1.503 . S
C2035 C2034 1.370 . S
C2035 C2036 1.403 . S
C2036 C2035 1.403 . S
C2036 C2037 1.404 . S
C2036 C2039 1.539 . S
C2037 C2033 1.408 . S
C2037 C2036 1.404 . S
C2037 H2049 0.930 . S
C2038 C2034 1.524 . S
C2038 H2050 0.956 . S
C2038 H2051 0.961 . S
C2038 H2052 0.961 . S
C2039 C2036 1.539 . S
C2039 H2053 0.958 . S
C2039 H2054 0.961 . S
C2039 H2055 0.960 . S
H2040 C2024 0.931 . S
H2041 C2029 0.929 . S
H2042 C2030 0.960 . S
H2043 C2030 0.962 . S
H2044 C2030 0.960 . S
H2045 C2031 0.961 . S
H2046 C2031 0.961 . S
H2047 C2031 0.961 . S
H2048 C2032 0.931 . S
H2049 C2037 0.930 . S
H2050 C2038 0.956 . S
H2051 C2038 0.961 . S
H2052 C2038 0.961 . S
H2053 C2039 0.958 . S
H2054 C2039 0.961 . S
H2055 C2039 0.960 . S
C2056 C2057 1.391 . S
C2056 C2058 1.394 . S
C2056 H2072 0.931 1_554 S
C2057 C2056 1.391 . S
C2057 C2061 1.376 . S
C2058 C2056 1.394 . S
C2058 C2059 1.369 . S
C2058 C2062 1.531 . S
C2059 C2058 1.369 . S
C2059 C2060 1.410 . S
C2059 C2067 1.503 . S
C2060 C2059 1.410 . S
C2060 C2061 1.392 . S
C2060 C2063 1.511 . S
C2061 C2057 1.376 . S
C2061 C2060 1.392 . S
C2061 H2073 0.929 . S
C2062 C2058 1.531 . S
C2062 H2074 0.960 . S
C2062 H2075 0.962 . S
C2062 H2076 0.960 . S
C2063 C2060 1.511 . S
C2063 H2077 0.961 . S
C2063 H2078 0.961 . S
C2063 H2079 0.961 . S
C2064 C2065 1.370 . S
C2064 C2066 1.363 . S
C2064 H2080 0.931 . S
C2065 C2064 1.370 . S
C2065 C2069 1.408 . S
C2066 C2064 1.363 . S
C2066 C2067 1.370 . S
C2066 C2070 1.524 . S
C2067 C2059 1.503 . S
C2067 C2066 1.370 . S
C2067 C2068 1.403 . S
C2068 C2067 1.403 . S
C2068 C2069 1.404 . S
C2068 C2071 1.539 . S
C2069 C2065 1.408 . S
C2069 C2068 1.404 . S
C2069 H2081 0.930 . S
C2070 C2066 1.524 . S
C2070 H2082 0.956 . S
C2070 H2083 0.961 . S
C2070 H2084 0.961 . S
C2071 C2068 1.539 . S
C2071 H2085 0.958 . S
C2071 H2086 0.961 . S
C2071 H2087 0.960 . S
H2072 C2056 0.931 1_556 S
H2073 C2061 0.929 . S
H2074 C2062 0.960 . S
H2075 C2062 0.962 . S
H2076 C2062 0.960 . S
H2077 C2063 0.961 . S
H2078 C2063 0.961 . S
H2079 C2063 0.961 . S
H2080 C2064 0.931 . S
H2081 C2069 0.930 . S
H2082 C2070 0.956 . S
H2083 C2070 0.961 . S
H2084 C2070 0.961 . S
H2085 C2071 0.958 . S
H2086 C2071 0.961 . S
H2087 C2071 0.960 . S
C2088 C2089 1.391 . S
C2088 C2090 1.394 . S
C2088 H2104 0.931 . S
C2089 C2088 1.391 . S
C2089 C2093 1.376 . S
C2090 C2088 1.394 . S
C2090 C2091 1.369 . S
C2090 C2094 1.531 . S
C2091 C2090 1.369 . S
C2091 C2092 1.410 . S
C2091 C2099 1.503 . S
C2092 C2091 1.410 . S
C2092 C2093 1.392 . S
C2092 C2095 1.511 . S
C2093 C2089 1.376 . S
C2093 C2092 1.392 . S
C2093 H2105 0.929 . S
C2094 C2090 1.531 . S
C2094 H2106 0.960 . S
C2094 H2107 0.962 . S
C2094 H2108 0.960 . S
C2095 C2092 1.511 . S
C2095 H2109 0.961 . S
C2095 H2110 0.961 . S
C2095 H2111 0.961 . S
C2096 C2097 1.370 . S
C2096 C2098 1.363 . S
C2096 H2112 0.931 . S
C2097 C2096 1.370 . S
C2097 C2101 1.408 . S
C2098 C2096 1.363 . S
C2098 C2099 1.370 . S
C2098 C2102 1.524 . S
C2099 C2091 1.503 . S
C2099 C2098 1.370 . S
C2099 C2100 1.403 . S
C2100 C2099 1.403 . S
C2100 C2101 1.404 . S
C2100 C2103 1.539 . S
C2101 C2097 1.408 . S
C2101 C2100 1.404 . S
C2101 H2113 0.930 . S
C2102 C2098 1.524 . S
C2102 H2114 0.956 . S
C2102 H2115 0.961 . S
C2102 H2116 0.961 . S
C2103 C2100 1.539 . S
C2103 H2117 0.958 . S
C2103 H2118 0.961 . S
C2103 H2119 0.960 . S
H2104 C2088 0.931 . S
H2105 C2093 0.929 . S
H2106 C2094 0.960 . S
H2107 C2094 0.962 . S
H2108 C2094 0.960 . S
H2109 C2095 0.961 . S
H2110 C2095 0.961 . S
H2111 C2095 0.961 . S
H2112 C2096 0.931 . S
H2113 C2101 0.930 . S
H2114 C2102 0.956 . S
H2115 C2102 0.961 . S
H2116 C2102 0.961 . S
H2117 C2103 0.958 . S
H2118 C2103 0.961 . S
H2119 C2103 0.960 . S
C2120 C2121 1.391 . S
C2120 C2122 1.394 . S
C2120 H2136 0.931 . S
C2121 C2120 1.391 . S
C2121 C2125 1.376 . S
C2122 C2120 1.394 . S
C2122 C2123 1.369 . S
C2122 C2126 1.531 . S
C2123 C2122 1.369 . S
C2123 C2124 1.410 . S
C2123 C2131 1.503 . S
C2124 C2123 1.410 . S
C2124 C2125 1.392 . S
C2124 C2127 1.511 . S
C2125 C2121 1.376 . S
C2125 C2124 1.392 . S
C2125 H2137 0.929 . S
C2126 C2122 1.531 . S
C2126 H2138 0.960 . S
C2126 H2139 0.962 . S
C2126 H2140 0.960 . S
C2127 C2124 1.511 . S
C2127 H2141 0.961 . S
C2127 H2142 0.961 . S
C2127 H2143 0.961 . S
C2128 C2129 1.370 . S
C2128 C2130 1.363 . S
C2128 H2144 0.931 . S
C2129 C2128 1.370 . S
C2129 C2133 1.408 . S
C2130 C2128 1.363 . S
C2130 C2131 1.370 . S
C2130 C2134 1.524 . S
C2131 C2123 1.503 . S
C2131 C2130 1.370 . S
C2131 C2132 1.403 . S
C2132 C2131 1.403 . S
C2132 C2133 1.404 . S
C2132 C2135 1.539 . S
C2133 C2129 1.408 . S
C2133 C2132 1.404 . S
C2133 H2145 0.930 . S
C2134 C2130 1.524 . S
C2134 H2146 0.956 . S
C2134 H2147 0.961 . S
C2134 H2148 0.961 . S
C2135 C2132 1.539 . S
C2135 H2149 0.958 . S
C2135 H2150 0.961 . S
C2135 H2151 0.960 . S
H2136 C2120 0.931 . S
H2137 C2125 0.929 . S
H2138 C2126 0.960 . S
H2139 C2126 0.962 . S
H2140 C2126 0.960 . S
H2141 C2127 0.961 . S
H2142 C2127 0.961 . S
H2143 C2127 0.961 . S
H2144 C2128 0.931 . S
H2145 C2133 0.930 . S
H2146 C2134 0.956 . S
H2147 C2134 0.961 . S
H2148 C2134 0.961 . S
H2149 C2135 0.958 . S
H2150 C2135 0.961 . S
H2151 C2135 0.960 . S
C2152 C2153 1.391 . S
C2152 C2154 1.394 . S
C2152 H2168 0.931 . S
C2153 C2152 1.391 . S
C2153 C2157 1.376 . S
C2154 C2152 1.394 . S
C2154 C2155 1.369 . S
C2154 C2158 1.531 . S
C2155 C2154 1.369 . S
C2155 C2156 1.410 . S
C2155 C2163 1.503 . S
C2156 C2155 1.410 . S
C2156 C2157 1.392 . S
C2156 C2159 1.511 . S
C2157 C2153 1.376 . S
C2157 C2156 1.392 . S
C2157 H2169 0.929 . S
C2158 C2154 1.531 . S
C2158 H2170 0.960 . S
C2158 H2171 0.962 . S
C2158 H2172 0.960 . S
C2159 C2156 1.511 . S
C2159 H2173 0.961 . S
C2159 H2174 0.961 . S
C2159 H2175 0.961 . S
C2160 C2161 1.370 . S
C2160 C2162 1.363 . S
C2160 H2176 0.931 . S
C2161 C2160 1.370 . S
C2161 C2165 1.408 . S
C2162 C2160 1.363 . S
C2162 C2163 1.370 . S
C2162 C2166 1.524 . S
C2163 C2155 1.503 . S
C2163 C2162 1.370 . S
C2163 C2164 1.403 . S
C2164 C2163 1.403 . S
C2164 C2165 1.404 . S
C2164 C2167 1.539 . S
C2165 C2161 1.408 . S
C2165 C2164 1.404 . S
C2165 H2177 0.930 . S
C2166 C2162 1.524 . S
C2166 H2178 0.956 . S
C2166 H2179 0.961 . S
C2166 H2180 0.961 . S
C2167 C2164 1.539 . S
C2167 H2181 0.958 . S
C2167 H2182 0.961 . S
C2167 H2183 0.960 . S
H2168 C2152 0.931 . S
H2169 C2157 0.929 . S
H2170 C2158 0.960 . S
H2171 C2158 0.962 . S
H2172 C2158 0.960 . S
H2173 C2159 0.961 . S
H2174 C2159 0.961 . S
H2175 C2159 0.961 . S
H2176 C2160 0.931 . S
H2177 C2165 0.930 . S
H2178 C2166 0.956 . S
H2179 C2166 0.961 . S
H2180 C2166 0.961 . S
H2181 C2167 0.958 . S
H2182 C2167 0.961 . S
H2183 C2167 0.960 . S
C2184 C2185 1.391 . S
C2184 C2186 1.394 . S
C2184 H2200 0.931 . S
C2185 C2184 1.391 . S
C2185 C2189 1.376 . S
C2186 C2184 1.394 . S
C2186 C2187 1.369 . S
C2186 C2190 1.531 . S
C2187 C2186 1.369 . S
C2187 C2188 1.410 . S
C2187 C2195 1.503 . S
C2188 C2187 1.410 . S
C2188 C2189 1.392 . S
C2188 C2191 1.511 . S
C2189 C2185 1.376 . S
C2189 C2188 1.392 . S
C2189 H2201 0.929 . S
C2190 C2186 1.531 . S
C2190 H2202 0.960 . S
C2190 H2203 0.962 . S
C2190 H2204 0.960 . S
C2191 C2188 1.511 . S
C2191 H2205 0.961 . S
C2191 H2206 0.961 . S
C2191 H2207 0.961 . S
C2192 C2193 1.370 . S
C2192 C2194 1.363 . S
C2192 H2208 0.931 . S
C2193 C2192 1.370 . S
C2193 C2197 1.408 . S
C2194 C2192 1.363 . S
C2194 C2195 1.370 . S
C2194 C2198 1.524 . S
C2195 C2187 1.503 . S
C2195 C2194 1.370 . S
C2195 C2196 1.403 . S
C2196 C2195 1.403 . S
C2196 C2197 1.404 . S
C2196 C2199 1.539 . S
C2197 C2193 1.408 . S
C2197 C2196 1.404 . S
C2197 H2209 0.930 . S
C2198 C2194 1.524 . S
C2198 H2210 0.956 . S
C2198 H2211 0.961 . S
C2198 H2212 0.961 . S
C2199 C2196 1.539 . S
C2199 H2213 0.958 . S
C2199 H2214 0.961 . S
C2199 H2215 0.960 . S
H2200 C2184 0.931 . S
H2201 C2189 0.929 . S
H2202 C2190 0.960 . S
H2203 C2190 0.962 . S
H2204 C2190 0.960 . S
H2205 C2191 0.961 . S
H2206 C2191 0.961 . S
H2207 C2191 0.961 . S
H2208 C2192 0.931 . S
H2209 C2197 0.930 . S
H2210 C2198 0.956 . S
H2211 C2198 0.961 . S
H2212 C2198 0.961 . S
H2213 C2199 0.958 . S
H2214 C2199 0.961 . S
H2215 C2199 0.960 . S
C2216 C2217 1.391 . S
C2216 C2218 1.394 . S
C2216 H2232 0.931 . S
C2217 C2216 1.391 . S
C2217 C2221 1.376 . S
C2218 C2216 1.394 . S
C2218 C2219 1.369 . S
C2218 C2222 1.531 . S
C2219 C2218 1.369 . S
C2219 C2220 1.410 . S
C2219 C2227 1.503 . S
C2220 C2219 1.410 . S
C2220 C2221 1.392 . S
C2220 C2223 1.511 . S
C2221 C2217 1.376 . S
C2221 C2220 1.392 . S
C2221 H2233 0.929 . S
C2222 C2218 1.531 . S
C2222 H2234 0.960 . S
C2222 H2235 0.962 . S
C2222 H2236 0.960 . S
C2223 C2220 1.511 . S
C2223 H2237 0.961 . S
C2223 H2238 0.961 . S
C2223 H2239 0.961 . S
C2224 C2225 1.370 . S
C2224 C2226 1.363 . S
C2224 H2240 0.931 . S
C2225 C2224 1.370 . S
C2225 C2229 1.408 . S
C2226 C2224 1.363 . S
C2226 C2227 1.370 . S
C2226 C2230 1.524 . S
C2227 C2219 1.503 . S
C2227 C2226 1.370 . S
C2227 C2228 1.403 . S
C2228 C2227 1.403 . S
C2228 C2229 1.404 . S
C2228 C2231 1.539 . S
C2229 C2225 1.408 . S
C2229 C2228 1.404 . S
C2229 H2241 0.930 . S
C2230 C2226 1.524 . S
C2230 H2242 0.956 . S
C2230 H2243 0.961 . S
C2230 H2244 0.954 1_556 S
C2231 C2228 1.539 . S
C2231 H2245 0.958 . S
C2231 H2246 0.961 . S
C2231 H2247 0.960 . S
H2232 C2216 0.931 . S
H2233 C2221 0.929 . S
H2234 C2222 0.960 . S
H2235 C2222 0.962 . S
H2236 C2222 0.960 . S
H2237 C2223 0.961 . S
H2238 C2223 0.961 . S
H2239 C2223 0.961 . S
H2240 C2224 0.931 . S
H2241 C2229 0.930 . S
H2242 C2230 0.956 . S
H2243 C2230 0.961 . S
H2244 C2230 0.954 1_554 S
H2245 C2231 0.958 . S
H2246 C2231 0.961 . S
H2247 C2231 0.960 . S
C2248 C2249 1.391 . S
C2248 C2250 1.394 . S
C2248 H2264 0.931 . S
C2249 C2248 1.391 . S
C2249 C2253 1.376 . S
C2250 C2248 1.394 . S
C2250 C2251 1.369 . S
C2250 C2254 1.531 . S
C2251 C2250 1.369 . S
C2251 C2252 1.410 . S
C2251 C2259 1.503 . S
C2252 C2251 1.410 . S
C2252 C2253 1.392 . S
C2252 C2255 1.511 . S
C2253 C2249 1.376 . S
C2253 C2252 1.392 . S
C2253 H2265 0.929 . S
C2254 C2250 1.531 . S
C2254 H2266 0.960 . S
C2254 H2267 0.962 . S
C2254 H2268 0.960 . S
C2255 C2252 1.511 . S
C2255 H2269 0.961 . S
C2255 H2270 0.961 . S
C2255 H2271 0.961 . S
C2256 C2257 1.370 . S
C2256 C2258 1.363 . S
C2256 H2272 0.931 . S
C2257 C2256 1.370 . S
C2257 C2261 1.408 . S
C2258 C2256 1.363 . S
C2258 C2259 1.370 . S
C2258 C2262 1.524 . S
C2259 C2251 1.503 . S
C2259 C2258 1.370 . S
C2259 C2260 1.403 . S
C2260 C2259 1.403 . S
C2260 C2261 1.404 . S
C2260 C2263 1.539 . S
C2261 C2257 1.408 . S
C2261 C2260 1.404 . S
C2261 H2273 0.930 . S
C2262 C2258 1.524 . S
C2262 H2274 0.956 . S
C2262 H2275 0.961 . S
C2262 H2276 0.961 . S
C2263 C2260 1.539 . S
C2263 H2277 0.958 . S
C2263 H2278 0.961 . S
C2263 H2279 0.960 . S
H2264 C2248 0.931 . S
H2265 C2253 0.929 . S
H2266 C2254 0.960 . S
H2267 C2254 0.962 . S
H2268 C2254 0.960 . S
H2269 C2255 0.961 . S
H2270 C2255 0.961 . S
H2271 C2255 0.961 . S
H2272 C2256 0.931 . S
H2273 C2261 0.930 . S
H2274 C2262 0.956 . S
H2275 C2262 0.961 . S
H2276 C2262 0.961 . S
H2277 C2263 0.958 . S
H2278 C2263 0.961 . S
H2279 C2263 0.960 . S
C2280 C2281 1.391 . S
C2280 C2282 1.394 . S
C2280 H2296 0.931 . S
C2281 C2280 1.391 . S
C2281 C2285 1.376 . S
C2282 C2280 1.394 . S
C2282 C2283 1.369 . S
C2282 C2286 1.531 . S
C2283 C2282 1.369 . S
C2283 C2284 1.410 . S
C2283 C2291 1.503 . S
C2284 C2283 1.410 . S
C2284 C2285 1.392 . S
C2284 C2287 1.511 . S
C2285 C2281 1.376 . S
C2285 C2284 1.392 . S
C2285 H2297 0.929 . S
C2286 C2282 1.531 . S
C2286 H2298 0.960 . S
C2286 H2299 0.962 . S
C2286 H2300 0.960 . S
C2287 C2284 1.511 . S
C2287 H2301 0.961 . S
C2287 H2302 0.961 . S
C2287 H2303 0.961 . S
C2288 C2289 1.370 . S
C2288 C2290 1.363 . S
C2288 H2304 0.931 . S
C2289 C2288 1.370 . S
C2289 C2293 1.408 . S
C2290 C2288 1.363 . S
C2290 C2291 1.370 . S
C2290 C2294 1.524 . S
C2291 C2283 1.503 . S
C2291 C2290 1.370 . S
C2291 C2292 1.403 . S
C2292 C2291 1.403 . S
C2292 C2293 1.404 . S
C2292 C2295 1.539 . S
C2293 C2289 1.408 . S
C2293 C2292 1.404 . S
C2293 H2305 0.930 . S
C2294 C2290 1.524 . S
C2294 H2306 0.956 . S
C2294 H2307 0.961 . S
C2294 H2308 0.961 . S
C2295 C2292 1.539 . S
C2295 H2309 0.958 . S
C2295 H2310 0.961 . S
C2295 H2311 0.960 . S
H2296 C2280 0.931 . S
H2297 C2285 0.929 . S
H2298 C2286 0.960 . S
H2299 C2286 0.962 . S
H2300 C2286 0.960 . S
H2301 C2287 0.961 . S
H2302 C2287 0.961 . S
H2303 C2287 0.961 . S
H2304 C2288 0.931 . S
H2305 C2293 0.930 . S
H2306 C2294 0.956 . S
H2307 C2294 0.961 . S
H2308 C2294 0.961 . S
H2309 C2295 0.958 . S
H2310 C2295 0.961 . S
H2311 C2295 0.960 . S
C2312 C2313 1.391 . S
C2312 C2314 1.394 . S
C2312 H2328 0.931 . S
C2313 C2312 1.391 . S
C2313 C2317 1.376 . S
C2314 C2312 1.394 . S
C2314 C2315 1.369 . S
C2314 C2318 1.531 . S
C2315 C2314 1.369 . S
C2315 C2316 1.410 . S
C2315 C2323 1.503 . S
C2316 C2315 1.410 . S
C2316 C2317 1.392 . S
C2316 C2319 1.511 . S
C2317 C2313 1.376 . S
C2317 C2316 1.392 . S
C2317 H2329 0.929 . S
C2318 C2314 1.531 . S
C2318 H2330 0.960 . S
C2318 H2331 0.962 . S
C2318 H2332 0.960 . S
C2319 C2316 1.511 . S
C2319 H2333 0.961 . S
C2319 H2334 0.961 . S
C2319 H2335 0.961 . S
C2320 C2321 1.370 . S
C2320 C2322 1.363 . S
C2320 H2336 0.931 . S
C2321 C2320 1.370 . S
C2321 C2325 1.408 . S
C2322 C2320 1.363 . S
C2322 C2323 1.370 1_565 S
C2322 C2326 1.524 . S
C2323 C2315 1.503 . S
C2323 C2322 1.370 1_545 S
C2323 C2324 1.403 . S
C2324 C2323 1.403 . S
C2324 C2325 1.404 1_545 S
C2324 C2327 1.539 . S
C2325 C2321 1.408 . S
C2325 C2324 1.404 1_565 S
C2325 H2337 0.930 . S
C2326 C2322 1.524 . S
C2326 H2338 0.978 . S
C2326 H2339 0.961 1_565 S
C2326 H2340 0.961 . S
C2327 C2324 1.539 . S
C2327 H2341 0.958 . S
C2327 H2342 0.961 . S
C2327 H2343 0.960 . S
H2328 C2312 0.931 . S
H2329 C2317 0.929 . S
H2330 C2318 0.960 . S
H2331 C2318 0.962 . S
H2332 C2318 0.960 . S
H2333 C2319 0.961 . S
H2334 C2319 0.961 . S
H2335 C2319 0.961 . S
H2336 C2320 0.931 . S
H2337 C2325 0.930 . S
H2338 C2326 0.978 . S
H2339 C2326 0.961 1_545 S
H2340 C2326 0.961 . S
H2341 C2327 0.958 . S
H2342 C2327 0.961 . S
H2343 C2327 0.960 . S
C817 C648 1.616 . S
C809 C202 1.618 . S
C849 C663 1.802 . S
C841 C261 1.736 . S
C873 C282 1.735 . S
C881 C676 1.734 . S
C913 C690 1.596 . S
C905 C162 1.619 . S
C945 C702 1.644 . S
C937 C402 1.701 . S
C977 C716 1.444 . S
C969 C482 1.364 . S
C1001 C442 1.791 . S
C1009 C730 1.757 . S
C1041 C745 1.593 . S
C1033 C381 1.476 . S
C1065 C461 1.735 . S
C1073 C761 1.733 . S
C1105 C774 1.571 . S
C1097 C362 1.570 . S
C1129 C415 1.571 . S
C1137 C759 1.541 . S
C1169 C772 1.657 . S
C1161 C495 1.584 . S
C1193 C301 1.920 . S
C1201 C788 1.908 . S
C1225 C175 1.672 . S
C1233 C787 1.683 . S
C1257 C215 1.720 . S
C1265 C786 1.672 . S
C1289 C242 1.585 . S
C1297 C789 1.659 . S
C1321 C141 1.750 . S
C1329 C691 1.745 . S
C1353 C581 1.521 . S
C1361 C689 1.506 . S
C1393 C649 1.572 . S
C1385 C615 1.573 . S
C1425 C660 1.759 . S
C1417 C335 1.775 . S
C1449 C181 1.664 . S
C1457 C705 1.709 . S
C1489 C746 1.896 . S
C1481 C455 1.896 . S
C1521 C703 1.593 . S
C1513 C375 1.588 1_545 S
C1553 C731 1.642 . S
C1545 C501 1.574 . S
C1585 C732 1.616 . S
C1577 C562 1.621 . S
C1609 C621 1.733 . S
C1617 C747 1.799 . S
C1641 C322 1.734 . S
C1649 C704 1.734 . S
C1681 C718 1.612 . S
C1673 C522 1.564 . S
C1705 C122 1.705 . S
C1713 C674 1.655 . S
C1745 C688 1.427 . S
C1737 C2 1.356 . S
C1777 C646 1.754 . S
C1769 C42 1.794 . S
C1809 C661 1.597 . S
C1801 C101 1.487 . S
C1833 C61 1.724 . S
C1841 C775 1.725 . S
C1865 C82 1.492 . S
C1873 C760 1.594 . S
C1897 C135 1.571 . S
C1905 C773 1.542 . S
C1929 C15 1.637 . S
C1937 C758 1.667 . S
C1969 C802 1.913 . S
C1961 C341 1.920 . S
C2001 C801 1.672 . S
C1993 C535 1.640 . S
C2033 C800 1.654 . S
C2025 C575 1.725 . S
C2057 C602 1.643 1_554 S
C2065 C803 1.645 . S
C2089 C421 1.748 . S
C2097 C719 1.743 . S
C2129 C717 1.524 . S
C2121 C221 1.530 . S
C2161 C733 1.553 . S
C2153 C255 1.579 . S
C2193 C744 1.772 . S
C2185 C295 1.785 . S
C2217 C541 1.690 . S
C2225 C677 1.714 . S
C2257 C662 1.897 . S
C2249 C55 1.897 . S
C2281 C95 1.537 . S
C2289 C675 1.600 . S
C2321 C647 1.642 . S
C2313 C21 1.577 . S
