# Generated by pormake.
# Topology rtl, (3,6)-cn, num edge types: 1
# Building blocks:
#     Node 0, Type 0, BuildingBlock: WUSLED_clean_sbu_0, # of connection points: 3
#     Node 1, Type 0, BuildingBlock: WUSLED_clean_sbu_0, # of connection points: 3
#     Node 2, Type 0, BuildingBlock: WUSLED_clean_sbu_0, # of connection points: 3
#     Node 3, Type 0, BuildingBlock: WUSLED_clean_sbu_0, # of connection points: 3
#     Node 4, Type 1, BuildingBlock: VOLQOD_clean_sbu_1, # of connection points: 6
#     Node 5, Type 1, BuildingBlock: VOLQOD_clean_sbu_1, # of connection points: 6
#     Edge 6, Type (0, 1), BuildingBlock: CIFDUS_clean_linker_0, # of connection points: 2
#     Edge 7, Type (0, 1), BuildingBlock: CIFDUS_clean_linker_0, # of connection points: 2
#     Edge 8, Type (0, 1), BuildingBlock: CIFDUS_clean_linker_0, # of connection points: 2
#     Edge 9, Type (0, 1), BuildingBlock: CIFDUS_clean_linker_0, # of connection points: 2
#     Edge 10, Type (0, 1), BuildingBlock: CIFDUS_clean_linker_0, # of connection points: 2
#     Edge 11, Type (0, 1), BuildingBlock: CIFDUS_clean_linker_0, # of connection points: 2
#     Edge 12, Type (0, 1), BuildingBlock: CIFDUS_clean_linker_0, # of connection points: 2
#     Edge 13, Type (0, 1), BuildingBlock: CIFDUS_clean_linker_0, # of connection points: 2
#     Edge 14, Type (0, 1), BuildingBlock: CIFDUS_clean_linker_0, # of connection points: 2
#     Edge 15, Type (0, 1), BuildingBlock: CIFDUS_clean_linker_0, # of connection points: 2
#     Edge 16, Type (0, 1), BuildingBlock: CIFDUS_clean_linker_0, # of connection points: 2
#     Edge 17, Type (0, 1), BuildingBlock: CIFDUS_clean_linker_0, # of connection points: 2
# Relax obj value: 0.076
# Max RMSD: 0.155
# Mean RMSD: 0.086
data_MOF--net-rtl--node1-WUSLED_clean_sbu_0--node2-VOLQOD_clean_sbu_1--edge1-CIFDUS_clean_linker_0
_symmetry_space_group_name_H-M    P1
_symmetry_Int_Tables_number       1
_symmetry_cell_setting            triclinic
loop_
_symmetry_equiv_pos_as_xyz
'x, y, z'
_cell_length_a     43.649358
_cell_length_b     37.991962
_cell_length_c     28.011968
_cell_angle_alpha  90.246671
_cell_angle_beta   90.634779
_cell_angle_gamma 90.159119
loop_
_atom_site_label
_atom_site_type_symbol
_atom_site_fract_x
_atom_site_fract_y
_atom_site_fract_z
_atom_type_partial_charge
C0 C 0.14834 0.77967 0.15556 0.0
C1 C 0.1163 0.77702 0.15943 0.0
C2 C 0.11765 0.81391 0.23069 0.0
C3 C 0.10111 0.79384 0.19687 0.0
C4 C 0.14969 0.81581 0.22738 0.0
C5 C 0.16488 0.79869 0.19036 0.0
U6 U 0.16297 0.77272 0.02194 0.0
O7 O 0.20632 0.7732 0.98303 0.0
O8 O 0.17571 0.72741 0.97697 0.0
C9 C 0.2029 0.74061 0.9679 0.0
C10 C 0.16493 0.76427 0.11478 0.0
C11 C 0.22902 0.71731 0.97787 0.0
C12 C 0.26891 0.69617 0.03166 0.0
C13 C 0.24317 0.71713 0.02311 0.0
C14 C 0.26602 0.67443 0.95029 0.0
C15 C 0.28084 0.67476 0.99523 0.0
C16 C 0.2404 0.6956 0.9417 0.0
C17 C 0.1143 0.83153 0.93927 0.0
C18 C 0.11702 0.83274 0.8526 0.0
C19 C 0.09177 0.87994 0.89519 0.0
C20 C 0.09811 0.86327 0.93842 0.0
C21 C 0.10147 0.86514 0.85186 0.0
C22 C 0.12359 0.81613 0.89613 0.0
C23 C 0.12246 0.81635 0.98582 0.0
O24 O 0.14929 0.74334 0.0859 0.0
O25 O 0.18279 0.78634 0.09209 0.0
O26 O 0.14908 0.82649 0.00337 0.0
O27 O 0.11706 0.78255 0.99148 0.0
H28 H 0.10286 0.76259 0.13312 0.0
H29 H 0.07637 0.79214 0.19848 0.0
H30 H 0.16301 0.83079 0.25329 0.0
H31 H 0.18958 0.80094 0.18834 0.0
H32 H 0.27986 0.69741 0.0665 0.0
H33 H 0.23461 0.73366 0.0516 0.0
H34 H 0.27419 0.65778 0.92169 0.0
H35 H 0.22961 0.69522 0.90667 0.0
H36 H 0.12487 0.82086 0.81973 0.0
H37 H 0.07938 0.90461 0.89568 0.0
H38 H 0.09079 0.87551 0.97138 0.0
H39 H 0.13632 0.79169 0.89621 0.0
C40 C 0.65196 0.73147 0.65461 0.0
C41 C 0.61981 0.7326 0.65664 0.0
C42 C 0.62003 0.68999 0.72142 0.0
C43 C 0.60406 0.71225 0.68984 0.0
C44 C 0.65226 0.68942 0.71984 0.0
C45 C 0.66802 0.71005 0.68691 0.0
U46 U 0.6642 0.75072 0.52398 0.0
O47 O 0.67469 0.79977 0.48564 0.0
O48 O 0.70608 0.75477 0.48159 0.0
C49 C 0.70147 0.78815 0.47155 0.0
C50 C 0.66889 0.75053 0.61726 0.0
C51 C 0.72766 0.81204 0.48005 0.0
C52 C 0.77463 0.82793 0.52251 0.0
C53 C 0.74924 0.80571 0.51658 0.0
C54 C 0.75669 0.86371 0.45658 0.0
C55 C 0.77874 0.85705 0.49237 0.0
C56 C 0.73145 0.84134 0.45042 0.0
C57 C 0.61044 0.70028 0.4361 0.0
C58 C 0.61476 0.66392 0.36475 0.0
C59 C 0.56837 0.69705 0.37843 0.0
C60 C 0.58095 0.7103 0.42101 0.0
C61 C 0.5849 0.67317 0.3502 0.0
C62 C 0.62739 0.67732 0.40713 0.0
C63 C 0.62174 0.71091 0.48408 0.0
O64 O 0.68583 0.73057 0.58971 0.0
O65 O 0.65351 0.77462 0.59345 0.0
O66 O 0.61683 0.74367 0.49724 0.0
O67 O 0.6489 0.69925 0.49705 0.0
H68 H 0.6067 0.74876 0.63211 0.0
H69 H 0.57931 0.71388 0.69056 0.0
H70 H 0.66534 0.67227 0.7431 0.0
H71 H 0.69279 0.70858 0.68586 0.0
H72 H 0.79104 0.82238 0.55077 0.0
H73 H 0.74664 0.78344 0.54023 0.0
H74 H 0.75934 0.88574 0.43255 0.0
H75 H 0.71504 0.84668 0.42208 0.0
H76 H 0.62801 0.6452 0.34438 0.0
H77 H 0.54549 0.70513 0.368 0.0
H78 H 0.56727 0.72772 0.4428 0.0
H79 H 0.65007 0.66873 0.41781 0.0
C80 C 0.84142 0.19908 0.15198 0.0
C81 C 0.87343 0.20193 0.15654 0.0
C82 C 0.87239 0.16845 0.23069 0.0
C83 C 0.88873 0.18689 0.19558 0.0
C84 C 0.84035 0.16571 0.22585 0.0
C85 C 0.82507 0.18098 0.18707 0.0
U86 U 0.82727 0.21253 0.01774 0.0
O87 O 0.78362 0.21243 0.9776 0.0
O88 O 0.81286 0.25956 0.97806 0.0
C89 C 0.78624 0.24573 0.96583 0.0
C90 C 0.82447 0.21457 0.11126 0.0
C91 C 0.75911 0.26756 0.97487 0.0
C92 C 0.73108 0.30959 0.02327 0.0
C93 C 0.75711 0.28895 0.01574 0.0
C94 C 0.70857 0.28712 0.94972 0.0
C95 C 0.70651 0.30884 0.99033 0.0
C96 C 0.73466 0.26675 0.94206 0.0
C97 C 0.87858 0.16731 0.92549 0.0
C98 C 0.8703 0.13454 0.85147 0.0
C99 C 0.91528 0.17139 0.86089 0.0
C100 C 0.90583 0.18094 0.90669 0.0
C101 C 0.89787 0.14764 0.83293 0.0
C102 C 0.86075 0.14424 0.89715 0.0
C103 C 0.87002 0.17587 0.97529 0.0
O104 O 0.83889 0.23845 0.08599 0.0
O105 O 0.80866 0.19215 0.08491 0.0
O106 O 0.84437 0.16199 0.9908 0.0
O107 O 0.87394 0.20877 0.98892 0.0
H108 H 0.88668 0.21574 0.13002 0.0
H109 H 0.91335 0.18997 0.1984 0.0
H110 H 0.82702 0.15124 0.25161 0.0
H111 H 0.80038 0.1784 0.18427 0.0
H112 H 0.73 0.32581 0.05509 0.0
H113 H 0.77565 0.28971 0.04178 0.0
H114 H 0.69019 0.2863 0.92344 0.0
H115 H 0.7358 0.25038 0.91035 0.0
H116 H 0.85651 0.11582 0.83133 0.0
H117 H 0.93642 0.18242 0.84756 0.0
H118 H 0.92009 0.19865 0.92772 0.0
H119 H 0.8397 0.13304 0.91051 0.0
C120 C 0.36532 0.29002 0.36552 0.0
C121 C 0.38565 0.31783 0.37538 0.0
C122 C 0.39596 0.32418 0.29059 0.0
C123 C 0.4008 0.33479 0.33827 0.0
C124 C 0.37621 0.2956 0.28101 0.0
C125 C 0.36093 0.27873 0.31824 0.0
U126 U 0.3485 0.28418 0.497 0.0
O127 O 0.30474 0.28384 0.53518 0.0
O128 O 0.33677 0.23974 0.54348 0.0
C129 C 0.30961 0.25255 0.55348 0.0
C130 C 0.34768 0.27408 0.4043 0.0
C131 C 0.28375 0.22781 0.55022 0.0
C132 C 0.25324 0.18403 0.50749 0.0
C133 C 0.27808 0.20749 0.5091 0.0
C134 C 0.23951 0.20143 0.58778 0.0
C135 C 0.23373 0.18062 0.54697 0.0
C136 C 0.26428 0.22471 0.58935 0.0
C137 C 0.39512 0.34294 0.58271 0.0
C138 C 0.38083 0.3769 0.65283 0.0
C139 C 0.43266 0.35512 0.64558 0.0
C140 C 0.42491 0.3397 0.60162 0.0
C141 C 0.41083 0.37443 0.67118 0.0
C142 C 0.37299 0.3612 0.60916 0.0
C143 C 0.38806 0.3287 0.5346 0.0
O144 O 0.36342 0.25417 0.43394 0.0
O145 O 0.32916 0.29592 0.42615 0.0
O146 O 0.36183 0.33835 0.51525 0.0
O147 O 0.39431 0.29524 0.52766 0.0
H148 H 0.38937 0.32683 0.41175 0.0
H149 H 0.4162 0.35636 0.34688 0.0
H150 H 0.37186 0.28699 0.24465 0.0
H151 H 0.34524 0.25734 0.31003 0.0
H152 H 0.24958 0.16822 0.47566 0.0
H153 H 0.29288 0.20967 0.47846 0.0
H154 H 0.22466 0.20002 0.61844 0.0
H155 H 0.26823 0.2404 0.62125 0.0
H156 H 0.36347 0.39133 0.67208 0.0
H157 H 0.45602 0.35304 0.6587 0.0
H158 H 0.44238 0.32584 0.58186 0.0
H159 H 0.34975 0.36398 0.59582 0.0
O160 O 0.94017 0.98489 0.51375 0.0
Zn161 Zn 0.97093 0.02503 0.51462 0.0
O162 O 0.01298 0.0064 0.5112 0.0
Zn163 Zn 0.03686 0.02241 0.56632 0.0
Zn164 Zn 0.01234 0.95459 0.51009 0.0
Zn165 Zn 0.03278 0.02397 0.45387 0.0
O166 O 0.07365 0.05125 0.54781 0.0
O167 O 0.06884 0.05564 0.4692 0.0
O168 O 0.96472 0.05345 0.5757 0.0
O169 O 0.01098 0.05187 0.60933 0.0
O170 O 0.05108 0.98173 0.60604 0.0
O171 O 0.0327 0.93422 0.56931 0.0
O172 O 0.03424 0.93539 0.45205 0.0
O173 O 0.96108 0.0554 0.45684 0.0
O174 O 0.04897 0.98395 0.41473 0.0
O175 O 0.00305 0.05107 0.41309 0.0
C176 C 0.94266 0.95151 0.51075 0.0
C177 C 0.08294 0.06304 0.508 0.0
C178 C 0.04741 0.94851 0.60388 0.0
C179 C 0.98314 0.06175 0.60964 0.0
C180 C 0.04786 0.95054 0.41771 0.0
C181 C 0.97586 0.06224 0.41891 0.0
O182 O 0.96881 0.93679 0.50851 0.0
O183 O 0.57969 0.48731 0.02319 0.0
Zn184 Zn 0.55066 0.52844 0.0205 0.0
O185 O 0.50819 0.51262 0.01274 0.0
Zn186 Zn 0.49206 0.53034 0.95215 0.0
Zn187 Zn 0.50657 0.46081 0.01278 0.0
Zn188 Zn 0.48365 0.53151 0.06512 0.0
O189 O 0.45492 0.56038 0.96225 0.0
O190 O 0.44764 0.56013 0.04054 0.0
O191 O 0.56361 0.55928 0.96598 0.0
O192 O 0.52317 0.55973 0.91736 0.0
O193 O 0.47899 0.4905 0.90924 0.0
O194 O 0.48756 0.44201 0.95129 0.0
O195 O 0.48226 0.44269 0.06919 0.0
O196 O 0.55618 0.55727 0.08022 0.0
O197 O 0.46697 0.49194 0.10456 0.0
O198 O 0.50935 0.56205 0.10961 0.0
C199 C 0.57594 0.45407 0.02102 0.0
C200 C 0.43961 0.56957 0.99863 0.0
C201 C 0.47813 0.45715 0.91337 0.0
C202 C 0.55048 0.56921 0.92755 0.0
C203 C 0.46803 0.45846 0.10255 0.0
C204 C 0.5379 0.56918 0.11146 0.0
O205 O 0.54929 0.44052 0.01701 0.0
H206 H 0.19384 0.16702 0.47321 0.0
H207 H 0.21442 0.13786 0.61884 0.0
H208 H 0.16965 0.0994 0.61969 0.0
H209 H 0.12422 0.0747 0.57982 0.0
H210 H 0.10416 0.1022 0.43342 0.0
H211 H 0.14936 0.14023 0.43205 0.0
C212 C 0.18877 0.15191 0.50493 0.0
C213 C 0.20738 0.15565 0.54603 0.0
C214 C 0.16303 0.12956 0.50513 0.0
C215 C 0.20021 0.13607 0.58697 0.0
C216 C 0.17468 0.1139 0.58745 0.0
C217 C 0.12967 0.08901 0.54757 0.0
C218 C 0.11066 0.0857 0.5069 0.0
C219 C 0.15578 0.11067 0.5469 0.0
C220 C 0.11833 0.10423 0.4653 0.0
C221 C 0.14419 0.12603 0.46447 0.0
H222 H 0.32797 0.6639 0.93407 0.0
H223 H 0.29736 0.63812 0.07573 0.0
H224 H 0.3442 0.60462 0.09009 0.0
H225 H 0.39364 0.58183 0.06193 0.0
H226 H 0.42275 0.60579 0.91882 0.0
H227 H 0.37652 0.64031 0.90545 0.0
C228 C 0.33127 0.65058 0.96789 0.0
C229 C 0.30905 0.65359 0.00369 0.0
C230 C 0.35806 0.63097 0.97571 0.0
C231 C 0.31418 0.6367 0.04767 0.0
C232 C 0.34092 0.61734 0.05586 0.0
C233 C 0.38994 0.59474 0.0279 0.0
C234 C 0.41172 0.59121 0.99151 0.0
C235 C 0.36304 0.61431 0.02014 0.0
C236 C 0.40639 0.60792 0.94748 0.0
C237 C 0.37993 0.62772 0.93974 0.0
H238 H 0.83785 0.83637 0.5042 0.0
H239 H 0.78151 0.92897 0.49095 0.0
H240 H 0.82709 0.96644 0.49621 0.0
H241 H 0.88305 0.9728 0.50336 0.0
H242 H 0.93926 0.87979 0.51533 0.0
H243 H 0.89363 0.84272 0.51218 0.0
C244 C 0.83553 0.86477 0.50301 0.0
C245 C 0.80633 0.87985 0.49728 0.0
C246 C 0.86182 0.88611 0.50572 0.0
C247 C 0.80375 0.91669 0.49496 0.0
C248 C 0.82979 0.93813 0.49812 0.0
C249 C 0.88536 0.94444 0.50546 0.0
C250 C 0.91465 0.92922 0.50956 0.0
C251 C 0.85897 0.92312 0.50325 0.0
C252 C 0.91709 0.89234 0.51202 0.0
C253 C 0.89097 0.87103 0.51027 0.0
H254 H 0.70438 0.37771 0.0172 0.0
H255 H 0.64661 0.28927 0.97982 0.0
H256 H 0.60108 0.32598 0.98795 0.0
H257 H 0.57781 0.38359 0.00295 0.0
H258 H 0.63566 0.47245 0.03882 0.0
H259 H 0.68092 0.43508 0.03457 0.0
C260 C 0.68179 0.3664 0.01143 0.0
C261 C 0.67889 0.33085 0.99779 0.0
C262 C 0.65572 0.38773 0.0158 0.0
C263 C 0.64948 0.31667 0.9898 0.0
C264 C 0.62343 0.33761 0.99462 0.0
C265 C 0.60027 0.39479 0.01021 0.0
C266 C 0.60323 0.43085 0.0211 0.0
C267 C 0.62629 0.37325 0.00714 0.0
C268 C 0.63262 0.44484 0.03019 0.0
C269 C 0.65857 0.42348 0.02776 0.0
H270 H 0.1259 0.88245 0.25332 0.0
H271 H 0.073 0.79094 0.29104 0.0
H272 H 0.04682 0.82491 0.35296 0.0
H273 H 0.03928 0.88086 0.3965 0.0
H274 H 0.0914 0.97253 0.35575 0.0
H275 H 0.11765 0.93822 0.29514 0.0
C276 C 0.10879 0.86991 0.27538 0.0
C277 C 0.10155 0.83424 0.26803 0.0
C278 C 0.09369 0.88964 0.31033 0.0
C279 C 0.07889 0.81843 0.29609 0.0
C280 C 0.06401 0.8378 0.33152 0.0
C281 C 0.05643 0.89327 0.37441 0.0
C282 C 0.06338 0.92921 0.38081 0.0
C283 C 0.07126 0.87345 0.33901 0.0
C284 C 0.08547 0.94497 0.35155 0.0
C285 C 0.10058 0.92536 0.31689 0.0
H286 H 0.63554 0.67311 0.81328 0.0
H287 H 0.56641 0.65416 0.70463 0.0
H288 H 0.53858 0.61604 0.75894 0.0
H289 H 0.53414 0.58726 0.83678 0.0
H290 H 0.60451 0.60395 0.94413 0.0
H291 H 0.63181 0.64313 0.89039 0.0
C292 C 0.61457 0.66038 0.80121 0.0
C293 C 0.60311 0.66677 0.75488 0.0
C294 C 0.59891 0.63789 0.83232 0.0
C295 C 0.57556 0.65038 0.74032 0.0
C296 C 0.55971 0.62828 0.77124 0.0
C297 C 0.55543 0.59947 0.84849 0.0
C298 C 0.56718 0.59263 0.8945 0.0
C299 C 0.57118 0.62182 0.8173 0.0
C300 C 0.59493 0.60859 0.90889 0.0
C301 C 0.61056 0.6311 0.8782 0.0
H302 H 0.92749 0.13465 0.23027 0.0
H303 H 0.85385 0.16421 0.32381 0.0
H304 H 0.87913 0.13409 0.39007 0.0
H305 H 0.92185 0.0985 0.42136 0.0
H306 H 0.99634 0.07123 0.32809 0.0
H307 H 0.97129 0.10195 0.26236 0.0
C308 C 0.91714 0.13505 0.26527 0.0
C309 C 0.88864 0.15157 0.27172 0.0
C310 C 0.93199 0.11808 0.30347 0.0
C311 C 0.87545 0.15118 0.31737 0.0
C312 C 0.89001 0.13414 0.35547 0.0
C313 C 0.93266 0.09935 0.38671 0.0
C314 C 0.96092 0.0824 0.37982 0.0
C315 C 0.91818 0.11726 0.34887 0.0
C316 C 0.97464 0.08403 0.33463 0.0
C317 C 0.96029 0.10155 0.29686 0.0
H318 H 0.44338 0.34991 0.74781 0.0
H319 H 0.39839 0.44256 0.69312 0.0
H320 H 0.4146 0.47595 0.76364 0.0
H321 H 0.44281 0.47946 0.83939 0.0
H322 H 0.48704 0.38689 0.89593 0.0
H323 H 0.46985 0.35282 0.82624 0.0
C324 C 0.43717 0.37741 0.75147 0.0
C325 C 0.41975 0.39377 0.71532 0.0
C326 C 0.44645 0.39645 0.79233 0.0
C327 C 0.41153 0.4293 0.72067 0.0
C328 C 0.42093 0.44845 0.76085 0.0
C329 C 0.44869 0.45181 0.83656 0.0
C330 C 0.46639 0.43583 0.87266 0.0
C331 C 0.43857 0.43238 0.79669 0.0
C332 C 0.47343 0.39985 0.86868 0.0
C333 C 0.46369 0.38037 0.82876 0.0
H334 H 0.61184 0.65801 0.26515 0.0
H335 H 0.52573 0.65014 0.33874 0.0
H336 H 0.50311 0.61916 0.2705 0.0
H337 H 0.50853 0.59129 0.1917 0.0
H338 H 0.59552 0.59679 0.12004 0.0
H339 H 0.61704 0.63111 0.18605 0.0
C340 C 0.58816 0.64939 0.26643 0.0
C341 C 0.57062 0.65641 0.30721 0.0
C342 C 0.57546 0.63085 0.22749 0.0
C343 C 0.53975 0.64561 0.30767 0.0
C344 C 0.52682 0.62756 0.26878 0.0
C345 C 0.53215 0.60015 0.19036 0.0
C346 C 0.55036 0.59126 0.15096 0.0
C347 C 0.54457 0.61965 0.22874 0.0
C348 C 0.58096 0.60299 0.14997 0.0
C349 C 0.59333 0.6227 0.18772 0.0
H350 H 0.95651 0.13181 0.80918 0.0
H351 H 0.86467 0.13466 0.75071 0.0
H352 H 0.88293 0.10963 0.67573 0.0
H353 H 0.9248 0.08449 0.62794 0.0
H354 H 0.01659 0.08313 0.68727 0.0
H355 H 0.99852 0.11073 0.76007 0.0
C356 C 0.9405 0.12766 0.7798 0.0
C357 C 0.90921 0.13504 0.78586 0.0
C358 C 0.95114 0.11343 0.73676 0.0
C359 C 0.88881 0.12875 0.74745 0.0
C360 C 0.89926 0.11458 0.70442 0.0
C361 C 0.9409 0.09051 0.65659 0.0
C362 C 0.972 0.08142 0.65198 0.0
C363 C 0.93034 0.10637 0.69886 0.0
C364 C 0.9925 0.08958 0.68963 0.0
C365 C 0.9822 0.10537 0.73148 0.0
H366 H 0.40042 0.39496 0.28089 0.0
H367 H 0.42401 0.29746 0.21119 0.0
H368 H 0.44808 0.33019 0.1464 0.0
H369 H 0.46297 0.38675 0.11016 0.0
H370 H 0.43884 0.4839 0.181 0.0
H371 H 0.41473 0.451 0.24474 0.0
C372 C 0.41108 0.38084 0.25175 0.0
C373 C 0.4106 0.34383 0.25105 0.0
C374 C 0.42481 0.39977 0.21474 0.0
C375 C 0.42393 0.32596 0.21247 0.0
C376 C 0.4378 0.34466 0.17552 0.0
C377 C 0.45242 0.40074 0.13949 0.0
C378 C 0.45285 0.43783 0.14058 0.0
C379 C 0.43842 0.38161 0.17631 0.0
C380 C 0.43893 0.45542 0.17896 0.0
C381 C 0.42511 0.43663 0.21561 0.0
H382 H 0.07867 0.8393 0.76738 0.0
H383 H 0.11223 0.93432 0.83497 0.0
H384 H 0.10013 0.96788 0.76326 0.0
H385 H 0.07769 0.97102 0.68345 0.0
H386 H 0.04274 0.87682 0.61512 0.0
H387 H 0.05809 0.84213 0.68473 0.0
C388 C 0.08364 0.86726 0.76606 0.0
C389 C 0.09604 0.88438 0.80657 0.0
C390 C 0.07631 0.88657 0.7247 0.0
C391 C 0.10223 0.92067 0.80453 0.0
C392 C 0.09542 0.93985 0.76349 0.0
C393 C 0.07358 0.94285 0.68343 0.0
C394 C 0.0589 0.92667 0.64407 0.0
C395 C 0.08204 0.9232 0.72369 0.0
C396 C 0.05391 0.89006 0.64491 0.0
C397 C 0.06263 0.87018 0.68478 0.0
loop_
_geom_bond_atom_site_label_1
_geom_bond_atom_site_label_2
_geom_bond_distance
_geom_bond_site_symmetry_2
_ccdc_geom_bond_type
C0 C1 1.264 . S
C0 C5 1.479 . S
C0 C10 1.465 . S
C1 C0 1.264 . S
C1 C3 1.339 . S
C1 H28 0.931 . S
C2 C3 1.395 . S
C2 C4 1.320 . S
C3 C1 1.339 . S
C3 C2 1.395 . S
C3 H29 0.929 . S
C4 C2 1.320 . S
C4 C5 1.405 . S
C4 H30 0.930 . S
C5 C0 1.479 . S
C5 C4 1.405 . S
C5 H31 0.931 . S
U6 O7 2.454 . S
U6 O8 2.458 1_554 S
U6 C9 2.984 . S
U6 C10 2.847 . S
U6 C23 2.882 1_554 S
U6 O24 2.441 . S
U6 O25 2.420 . S
U6 O26 2.455 1_554 S
U6 O27 2.449 1_554 S
O7 U6 2.454 . S
O7 C9 1.353 . S
O8 U6 2.458 1_556 S
O8 C9 1.286 1_556 S
C9 U6 2.984 . S
C9 O7 1.353 . S
C9 O8 1.286 1_554 S
C9 C11 1.363 . S
C10 C0 1.465 . S
C10 U6 2.847 . S
C10 O24 1.249 . S
C10 O25 1.202 . S
C11 C9 1.363 . S
C11 C13 1.408 . S
C11 C16 1.342 1_554 S
C12 C13 1.310 . S
C12 C15 1.461 . S
C12 H32 0.932 . S
C13 C11 1.408 . S
C13 C12 1.310 . S
C13 H33 0.930 . S
C14 C15 1.474 1_556 S
C14 C16 1.285 . S
C14 H34 0.929 . S
C15 C12 1.461 . S
C15 C14 1.474 1_554 S
C16 C11 1.342 1_556 S
C16 C14 1.285 . S
C16 H35 0.930 . S
C17 C20 1.424 . S
C17 C22 1.245 . S
C17 C23 1.428 . S
C18 C21 1.260 . S
C18 C22 1.477 . S
C18 H36 0.932 . S
C19 C20 1.384 . S
C19 C21 1.479 . S
C19 H37 0.929 . S
C20 C17 1.424 . S
C20 C19 1.384 . S
C20 H38 0.928 . S
C21 C18 1.260 . S
C21 C19 1.479 . S
C22 C17 1.245 . S
C22 C18 1.477 . S
C22 H39 0.932 . S
C23 U6 2.882 1_556 S
C23 C17 1.428 . S
C23 O26 1.301 . S
C23 O27 1.282 . S
O24 U6 2.441 . S
O24 C10 1.249 . S
O25 U6 2.420 . S
O25 C10 1.202 . S
O26 U6 2.455 1_556 S
O26 C23 1.301 . S
O27 U6 2.449 1_556 S
O27 C23 1.282 . S
H28 C1 0.931 . S
H29 C3 0.929 . S
H30 C4 0.930 . S
H31 C5 0.931 . S
H32 C12 0.932 . S
H33 C13 0.930 . S
H34 C14 0.929 . S
H35 C16 0.930 . S
H36 C18 0.932 . S
H37 C19 0.929 . S
H38 C20 0.928 . S
H39 C22 0.932 . S
C40 C41 1.264 . S
C40 C45 1.479 . S
C40 C50 1.465 . S
C41 C40 1.264 . S
C41 C43 1.339 . S
C41 H68 0.931 . S
C42 C43 1.395 . S
C42 C44 1.320 . S
C43 C41 1.339 . S
C43 C42 1.395 . S
C43 H69 0.929 . S
C44 C42 1.320 . S
C44 C45 1.405 . S
C44 H70 0.930 . S
C45 C40 1.479 . S
C45 C44 1.405 . S
C45 H71 0.931 . S
U46 O47 2.454 . S
U46 O48 2.458 . S
U46 C49 2.984 . S
U46 C50 2.847 . S
U46 C63 2.882 . S
U46 O64 2.441 . S
U46 O65 2.420 . S
U46 O66 2.455 . S
U46 O67 2.449 . S
O47 U46 2.454 . S
O47 C49 1.353 . S
O48 U46 2.458 . S
O48 C49 1.286 . S
C49 U46 2.984 . S
C49 O47 1.353 . S
C49 O48 1.286 . S
C49 C51 1.363 . S
C50 C40 1.465 . S
C50 U46 2.847 . S
C50 O64 1.249 . S
C50 O65 1.202 . S
C51 C49 1.363 . S
C51 C53 1.408 . S
C51 C56 1.342 . S
C52 C53 1.310 . S
C52 C55 1.461 . S
C52 H72 0.932 . S
C53 C51 1.408 . S
C53 C52 1.310 . S
C53 H73 0.930 . S
C54 C55 1.474 . S
C54 C56 1.285 . S
C54 H74 0.929 . S
C55 C52 1.461 . S
C55 C54 1.474 . S
C56 C51 1.342 . S
C56 C54 1.285 . S
C56 H75 0.930 . S
C57 C60 1.424 . S
C57 C62 1.245 . S
C57 C63 1.428 . S
C58 C61 1.260 . S
C58 C62 1.477 . S
C58 H76 0.932 . S
C59 C60 1.384 . S
C59 C61 1.479 . S
C59 H77 0.929 . S
C60 C57 1.424 . S
C60 C59 1.384 . S
C60 H78 0.928 . S
C61 C58 1.260 . S
C61 C59 1.479 . S
C62 C57 1.245 . S
C62 C58 1.477 . S
C62 H79 0.932 . S
C63 U46 2.882 . S
C63 C57 1.428 . S
C63 O66 1.301 . S
C63 O67 1.282 . S
O64 U46 2.441 . S
O64 C50 1.249 . S
O65 U46 2.420 . S
O65 C50 1.202 . S
O66 U46 2.455 . S
O66 C63 1.301 . S
O67 U46 2.449 . S
O67 C63 1.282 . S
H68 C41 0.931 . S
H69 C43 0.929 . S
H70 C44 0.930 . S
H71 C45 0.931 . S
H72 C52 0.932 . S
H73 C53 0.930 . S
H74 C54 0.929 . S
H75 C56 0.930 . S
H76 C58 0.932 . S
H77 C59 0.929 . S
H78 C60 0.928 . S
H79 C62 0.932 . S
C80 C81 1.264 . S
C80 C85 1.479 . S
C80 C90 1.465 . S
C81 C80 1.264 . S
C81 C83 1.339 . S
C81 H108 0.931 . S
C82 C83 1.395 . S
C82 C84 1.320 . S
C83 C81 1.339 . S
C83 C82 1.395 . S
C83 H109 0.929 . S
C84 C82 1.320 . S
C84 C85 1.405 . S
C84 H110 0.930 . S
C85 C80 1.479 . S
C85 C84 1.405 . S
C85 H111 0.931 . S
U86 O87 2.454 . S
U86 O88 2.458 1_554 S
U86 C89 2.984 . S
U86 C90 2.847 . S
U86 C103 2.882 1_554 S
U86 O104 2.441 . S
U86 O105 2.420 . S
U86 O106 2.455 1_554 S
U86 O107 2.449 1_554 S
O87 U86 2.454 . S
O87 C89 1.353 . S
O88 U86 2.458 1_556 S
O88 C89 1.286 1_556 S
C89 U86 2.984 . S
C89 O87 1.353 . S
C89 O88 1.286 1_554 S
C89 C91 1.363 . S
C90 C80 1.465 . S
C90 U86 2.847 . S
C90 O104 1.249 . S
C90 O105 1.202 . S
C91 C89 1.363 . S
C91 C93 1.408 . S
C91 C96 1.342 1_554 S
C92 C93 1.310 . S
C92 C95 1.461 . S
C92 H112 0.932 . S
C93 C91 1.408 . S
C93 C92 1.310 . S
C93 H113 0.930 . S
C94 C95 1.474 1_556 S
C94 C96 1.285 . S
C94 H114 0.929 . S
C95 C92 1.461 . S
C95 C94 1.474 1_554 S
C96 C91 1.342 1_556 S
C96 C94 1.285 . S
C96 H115 0.930 . S
C97 C100 1.424 . S
C97 C102 1.245 . S
C97 C103 1.428 . S
C98 C101 1.260 . S
C98 C102 1.477 . S
C98 H116 0.932 . S
C99 C100 1.384 . S
C99 C101 1.479 . S
C99 H117 0.929 . S
C100 C97 1.424 . S
C100 C99 1.384 . S
C100 H118 0.928 . S
C101 C98 1.260 . S
C101 C99 1.479 . S
C102 C97 1.245 . S
C102 C98 1.477 . S
C102 H119 0.932 . S
C103 U86 2.882 1_556 S
C103 C97 1.428 . S
C103 O106 1.301 . S
C103 O107 1.282 . S
O104 U86 2.441 . S
O104 C90 1.249 . S
O105 U86 2.420 . S
O105 C90 1.202 . S
O106 U86 2.455 1_556 S
O106 C103 1.301 . S
O107 U86 2.449 1_556 S
O107 C103 1.282 . S
H108 C81 0.931 . S
H109 C83 0.929 . S
H110 C84 0.930 . S
H111 C85 0.931 . S
H112 C92 0.932 . S
H113 C93 0.930 . S
H114 C94 0.929 . S
H115 C96 0.930 . S
H116 C98 0.932 . S
H117 C99 0.929 . S
H118 C100 0.928 . S
H119 C102 0.932 . S
C120 C121 1.264 . S
C120 C125 1.479 . S
C120 C130 1.465 . S
C121 C120 1.264 . S
C121 C123 1.339 . S
C121 H148 0.931 . S
C122 C123 1.395 . S
C122 C124 1.320 . S
C123 C121 1.339 . S
C123 C122 1.395 . S
C123 H149 0.929 . S
C124 C122 1.320 . S
C124 C125 1.405 . S
C124 H150 0.930 . S
C125 C120 1.479 . S
C125 C124 1.405 . S
C125 H151 0.931 . S
U126 O127 2.454 . S
U126 O128 2.458 . S
U126 C129 2.984 . S
U126 C130 2.847 . S
U126 C143 2.882 . S
U126 O144 2.441 . S
U126 O145 2.420 . S
U126 O146 2.455 . S
U126 O147 2.449 . S
O127 U126 2.454 . S
O127 C129 1.353 . S
O128 U126 2.458 . S
O128 C129 1.286 . S
C129 U126 2.984 . S
C129 O127 1.353 . S
C129 O128 1.286 . S
C129 C131 1.363 . S
C130 C120 1.465 . S
C130 U126 2.847 . S
C130 O144 1.249 . S
C130 O145 1.202 . S
C131 C129 1.363 . S
C131 C133 1.408 . S
C131 C136 1.342 . S
C132 C133 1.310 . S
C132 C135 1.461 . S
C132 H152 0.932 . S
C133 C131 1.408 . S
C133 C132 1.310 . S
C133 H153 0.930 . S
C134 C135 1.474 . S
C134 C136 1.285 . S
C134 H154 0.929 . S
C135 C132 1.461 . S
C135 C134 1.474 . S
C136 C131 1.342 . S
C136 C134 1.285 . S
C136 H155 0.930 . S
C137 C140 1.424 . S
C137 C142 1.245 . S
C137 C143 1.428 . S
C138 C141 1.260 . S
C138 C142 1.477 . S
C138 H156 0.932 . S
C139 C140 1.384 . S
C139 C141 1.479 . S
C139 H157 0.929 . S
C140 C137 1.424 . S
C140 C139 1.384 . S
C140 H158 0.928 . S
C141 C138 1.260 . S
C141 C139 1.479 . S
C142 C137 1.245 . S
C142 C138 1.477 . S
C142 H159 0.932 . S
C143 U126 2.882 . S
C143 C137 1.428 . S
C143 O146 1.301 . S
C143 O147 1.282 . S
O144 U126 2.441 . S
O144 C130 1.249 . S
O145 U126 2.420 . S
O145 C130 1.202 . S
O146 U126 2.455 . S
O146 C143 1.301 . S
O147 U126 2.449 . S
O147 C143 1.282 . S
H148 C121 0.931 . S
H149 C123 0.929 . S
H150 C124 0.930 . S
H151 C125 0.931 . S
H152 C132 0.932 . S
H153 C133 0.930 . S
H154 C134 0.929 . S
H155 C136 0.930 . S
H156 C138 0.932 . S
H157 C139 0.929 . S
H158 C140 0.928 . S
H159 C142 0.932 . S
O160 Zn161 1.953 1_565 S
O160 C176 1.225 . S
Zn161 O160 1.953 1_545 S
Zn161 O162 1.949 1_655 S
Zn161 O168 1.919 . S
Zn161 O173 1.924 . S
O162 Zn161 1.949 1_455 S
O162 Zn163 1.923 . S
O162 Zn164 1.950 1_445 S
O162 Zn165 1.945 . S
Zn163 O162 1.923 . S
Zn163 O166 1.933 . S
Zn163 O169 1.941 . S
Zn163 O170 1.965 1_545 S
Zn164 O162 1.950 1_665 S
Zn164 O171 1.938 1_655 S
Zn164 O172 1.906 1_655 S
Zn164 O182 1.953 . S
Zn165 O162 1.945 . S
Zn165 O167 1.932 . S
Zn165 O174 1.977 1_545 S
Zn165 O175 1.910 1_455 S
O166 Zn163 1.933 . S
O166 C177 1.226 . S
O167 Zn165 1.932 . S
O167 C177 1.307 . S
O168 Zn161 1.919 . S
O168 C179 1.253 . S
O169 Zn163 1.941 . S
O169 C179 1.283 1_455 S
O170 Zn163 1.965 1_565 S
O170 C178 1.303 . S
O171 Zn164 1.938 1_455 S
O171 C178 1.247 . S
O172 Zn164 1.906 1_455 S
O172 C180 1.304 . S
O173 Zn161 1.924 . S
O173 C181 1.311 . S
O174 Zn165 1.977 1_565 S
O174 C180 1.272 . S
O175 Zn165 1.910 1_655 S
O175 C181 1.231 . S
C176 O160 1.225 . S
C176 O182 1.298 . S
C177 O166 1.226 . S
C177 O167 1.307 . S
C178 O170 1.303 . S
C178 O171 1.247 . S
C179 O168 1.253 . S
C179 O169 1.283 1_655 S
C180 O172 1.304 . S
C180 O174 1.272 . S
C181 O173 1.311 . S
C181 O175 1.231 . S
O182 Zn164 1.953 . S
O182 C176 1.298 . S
O183 Zn184 1.952 1_556 S
O183 C199 1.225 1_556 S
Zn184 O183 1.952 1_554 S
Zn184 O185 1.953 . S
Zn184 O191 1.901 1_554 S
Zn184 O196 1.943 . S
O185 Zn184 1.953 . S
O185 Zn186 1.923 1_554 S
O185 Zn187 1.950 . S
O185 Zn188 1.945 . S
Zn186 O185 1.923 1_556 S
Zn186 O189 1.933 . S
Zn186 O192 1.941 . S
Zn186 O193 1.965 . S
Zn187 O185 1.950 . S
Zn187 O194 1.938 1_554 S
Zn187 O195 1.906 . S
Zn187 O205 1.953 . S
Zn188 O185 1.945 . S
Zn188 O190 1.932 . S
Zn188 O197 1.977 . S
Zn188 O198 1.910 . S
O189 Zn186 1.933 . S
O189 C200 1.226 1_556 S
O190 Zn188 1.932 . S
O190 C200 1.307 . S
O191 Zn184 1.901 1_556 S
O191 C202 1.253 . S
O192 Zn186 1.941 . S
O192 C202 1.283 . S
O193 Zn186 1.965 . S
O193 C201 1.303 . S
O194 Zn187 1.938 1_556 S
O194 C201 1.247 . S
O195 Zn187 1.906 . S
O195 C203 1.304 . S
O196 Zn184 1.943 . S
O196 C204 1.311 . S
O197 Zn188 1.977 . S
O197 C203 1.272 . S
O198 Zn188 1.910 . S
O198 C204 1.231 . S
C199 O183 1.225 1_554 S
C199 O205 1.298 . S
C200 O189 1.226 1_554 S
C200 O190 1.307 . S
C201 O193 1.303 . S
C201 O194 1.247 . S
C202 O191 1.253 . S
C202 O192 1.283 . S
C203 O195 1.304 . S
C203 O197 1.272 . S
C204 O196 1.311 . S
C204 O198 1.231 . S
O205 Zn187 1.953 . S
O205 C199 1.298 . S
H206 C212 0.930 . S
H207 C215 0.930 . S
H208 C216 0.930 . S
H209 C217 0.930 . S
H210 C220 0.930 . S
H211 C221 0.930 . S
C212 H206 0.930 . S
C212 C213 1.355 . S
C212 C214 1.415 . S
C213 C212 1.355 . S
C213 C215 1.419 . S
C214 C212 1.415 . S
C214 C219 1.425 . S
C214 C221 1.409 . S
C215 H207 0.930 . S
C215 C213 1.419 . S
C215 C216 1.362 . S
C216 H208 0.930 . S
C216 C215 1.362 . S
C216 C219 1.409 . S
C217 H209 0.930 . S
C217 C218 1.355 . S
C217 C219 1.415 . S
C218 C217 1.355 . S
C218 C220 1.419 . S
C219 C214 1.425 . S
C219 C216 1.409 . S
C219 C217 1.415 . S
C220 H210 0.930 . S
C220 C218 1.419 . S
C220 C221 1.362 . S
C221 H211 0.930 . S
C221 C214 1.409 . S
C221 C220 1.362 . S
H222 C228 0.930 . S
H223 C231 0.930 . S
H224 C232 0.930 . S
H225 C233 0.930 . S
H226 C236 0.930 . S
H227 C237 0.930 . S
C228 H222 0.930 . S
C228 C229 1.355 1_556 S
C228 C230 1.415 . S
C229 C228 1.355 1_554 S
C229 C231 1.419 . S
C230 C228 1.415 . S
C230 C235 1.425 1_556 S
C230 C237 1.409 . S
C231 H223 0.930 . S
C231 C229 1.419 . S
C231 C232 1.362 . S
C232 H224 0.930 . S
C232 C231 1.362 . S
C232 C235 1.409 . S
C233 H225 0.930 . S
C233 C234 1.355 . S
C233 C235 1.415 . S
C234 C233 1.355 . S
C234 C236 1.419 1_554 S
C235 C230 1.425 1_554 S
C235 C232 1.409 . S
C235 C233 1.415 . S
C236 H226 0.930 . S
C236 C234 1.419 1_556 S
C236 C237 1.362 . S
C237 H227 0.930 . S
C237 C230 1.409 . S
C237 C236 1.362 . S
H238 C244 0.930 . S
H239 C247 0.930 . S
H240 C248 0.930 . S
H241 C249 0.930 . S
H242 C252 0.930 . S
H243 C253 0.930 . S
C244 H238 0.930 . S
C244 C245 1.355 . S
C244 C246 1.415 . S
C245 C244 1.355 . S
C245 C247 1.419 . S
C246 C244 1.415 . S
C246 C251 1.425 . S
C246 C253 1.409 . S
C247 H239 0.930 . S
C247 C245 1.419 . S
C247 C248 1.362 . S
C248 H240 0.930 . S
C248 C247 1.362 . S
C248 C251 1.409 . S
C249 H241 0.930 . S
C249 C250 1.355 . S
C249 C251 1.415 . S
C250 C249 1.355 . S
C250 C252 1.419 . S
C251 C246 1.425 . S
C251 C248 1.409 . S
C251 C249 1.415 . S
C252 H242 0.930 . S
C252 C250 1.419 . S
C252 C253 1.362 . S
C253 H243 0.930 . S
C253 C246 1.409 . S
C253 C252 1.362 . S
H254 C260 0.930 . S
H255 C263 0.930 . S
H256 C264 0.930 . S
H257 C265 0.930 . S
H258 C268 0.930 . S
H259 C269 0.930 . S
C260 H254 0.930 . S
C260 C261 1.355 . S
C260 C262 1.415 . S
C261 C260 1.355 . S
C261 C263 1.419 1_554 S
C262 C260 1.415 . S
C262 C267 1.425 1_554 S
C262 C269 1.409 . S
C263 H255 0.930 . S
C263 C261 1.419 1_556 S
C263 C264 1.362 . S
C264 H256 0.930 . S
C264 C263 1.362 . S
C264 C267 1.409 . S
C265 H257 0.930 . S
C265 C266 1.355 1_556 S
C265 C267 1.415 . S
C266 C265 1.355 1_554 S
C266 C268 1.419 . S
C267 C262 1.425 1_556 S
C267 C264 1.409 . S
C267 C265 1.415 . S
C268 H258 0.930 . S
C268 C266 1.419 . S
C268 C269 1.362 . S
C269 H259 0.930 . S
C269 C262 1.409 . S
C269 C268 1.362 . S
H270 C276 0.930 . S
H271 C279 0.930 . S
H272 C280 0.930 1_655 S
H273 C281 0.930 . S
H274 C284 0.930 . S
H275 C285 0.930 . S
C276 H270 0.930 . S
C276 C277 1.355 . S
C276 C278 1.415 . S
C277 C276 1.355 . S
C277 C279 1.419 . S
C278 C276 1.415 . S
C278 C283 1.425 . S
C278 C285 1.409 . S
C279 H271 0.930 . S
C279 C277 1.419 . S
C279 C280 1.362 . S
C280 H272 0.930 1_455 S
C280 C279 1.362 . S
C280 C283 1.409 . S
C281 H273 0.930 . S
C281 C282 1.355 . S
C281 C283 1.415 . S
C282 C281 1.355 . S
C282 C284 1.419 . S
C283 C278 1.425 . S
C283 C280 1.409 . S
C283 C281 1.415 . S
C284 H274 0.930 . S
C284 C282 1.419 . S
C284 C285 1.362 . S
C285 H275 0.930 . S
C285 C278 1.409 . S
C285 C284 1.362 . S
H286 C292 0.930 . S
H287 C295 0.930 . S
H288 C296 0.930 . S
H289 C297 0.930 . S
H290 C300 0.930 . S
H291 C301 0.930 . S
C292 H286 0.930 . S
C292 C293 1.355 . S
C292 C294 1.415 . S
C293 C292 1.355 . S
C293 C295 1.419 . S
C294 C292 1.415 . S
C294 C299 1.425 . S
C294 C301 1.409 . S
C295 H287 0.930 . S
C295 C293 1.419 . S
C295 C296 1.362 . S
C296 H288 0.930 . S
C296 C295 1.362 . S
C296 C299 1.409 . S
C297 H289 0.930 . S
C297 C298 1.355 . S
C297 C299 1.415 . S
C298 C297 1.355 . S
C298 C300 1.419 . S
C299 C294 1.425 . S
C299 C296 1.409 . S
C299 C297 1.415 . S
C300 H290 0.930 . S
C300 C298 1.419 . S
C300 C301 1.362 . S
C301 H291 0.930 . S
C301 C294 1.409 . S
C301 C300 1.362 . S
H302 C308 0.930 . S
H303 C311 0.930 . S
H304 C312 0.930 . S
H305 C313 0.930 . S
H306 C316 0.930 . S
H307 C317 0.930 . S
C308 H302 0.930 . S
C308 C309 1.355 . S
C308 C310 1.415 . S
C309 C308 1.355 . S
C309 C311 1.419 . S
C310 C308 1.415 . S
C310 C315 1.425 . S
C310 C317 1.409 . S
C311 H303 0.930 . S
C311 C309 1.419 . S
C311 C312 1.362 . S
C312 H304 0.930 . S
C312 C311 1.362 . S
C312 C315 1.409 . S
C313 H305 0.930 . S
C313 C314 1.355 . S
C313 C315 1.415 . S
C314 C313 1.355 . S
C314 C316 1.419 . S
C315 C310 1.425 . S
C315 C312 1.409 . S
C315 C313 1.415 . S
C316 H306 0.930 . S
C316 C314 1.419 . S
C316 C317 1.362 . S
C317 H307 0.930 . S
C317 C310 1.409 . S
C317 C316 1.362 . S
H318 C324 0.930 . S
H319 C327 0.930 . S
H320 C328 0.930 . S
H321 C329 0.930 . S
H322 C332 0.930 . S
H323 C333 0.930 . S
C324 H318 0.930 . S
C324 C325 1.355 . S
C324 C326 1.415 . S
C325 C324 1.355 . S
C325 C327 1.419 . S
C326 C324 1.415 . S
C326 C331 1.425 . S
C326 C333 1.409 . S
C327 H319 0.930 . S
C327 C325 1.419 . S
C327 C328 1.362 . S
C328 H320 0.930 . S
C328 C327 1.362 . S
C328 C331 1.409 . S
C329 H321 0.930 . S
C329 C330 1.355 . S
C329 C331 1.415 . S
C330 C329 1.355 . S
C330 C332 1.419 . S
C331 C326 1.425 . S
C331 C328 1.409 . S
C331 C329 1.415 . S
C332 H322 0.930 . S
C332 C330 1.419 . S
C332 C333 1.362 . S
C333 H323 0.930 . S
C333 C326 1.409 . S
C333 C332 1.362 . S
H334 C340 0.930 . S
H335 C343 0.930 . S
H336 C344 0.930 . S
H337 C345 0.930 . S
H338 C348 0.930 . S
H339 C349 0.930 . S
C340 H334 0.930 . S
C340 C341 1.355 . S
C340 C342 1.415 . S
C341 C340 1.355 . S
C341 C343 1.419 . S
C342 C340 1.415 . S
C342 C347 1.425 . S
C342 C349 1.409 . S
C343 H335 0.930 . S
C343 C341 1.419 . S
C343 C344 1.362 . S
C344 H336 0.930 . S
C344 C343 1.362 . S
C344 C347 1.409 . S
C345 H337 0.930 . S
C345 C346 1.355 . S
C345 C347 1.415 . S
C346 C345 1.355 . S
C346 C348 1.419 . S
C347 C342 1.425 . S
C347 C344 1.409 . S
C347 C345 1.415 . S
C348 H338 0.930 . S
C348 C346 1.419 . S
C348 C349 1.362 . S
C349 H339 0.930 . S
C349 C342 1.409 . S
C349 C348 1.362 . S
H350 C356 0.930 . S
H351 C359 0.930 . S
H352 C360 0.930 . S
H353 C361 0.930 . S
H354 C364 0.930 . S
H355 C365 0.930 . S
C356 H350 0.930 . S
C356 C357 1.355 . S
C356 C358 1.415 . S
C357 C356 1.355 . S
C357 C359 1.419 . S
C358 C356 1.415 . S
C358 C363 1.425 . S
C358 C365 1.409 . S
C359 H351 0.930 . S
C359 C357 1.419 . S
C359 C360 1.362 . S
C360 H352 0.930 . S
C360 C359 1.362 . S
C360 C363 1.409 . S
C361 H353 0.930 . S
C361 C362 1.355 . S
C361 C363 1.415 . S
C362 C361 1.355 . S
C362 C364 1.419 . S
C363 C358 1.425 . S
C363 C360 1.409 . S
C363 C361 1.415 . S
C364 H354 0.930 . S
C364 C362 1.419 . S
C364 C365 1.362 . S
C365 H355 0.930 . S
C365 C358 1.409 . S
C365 C364 1.362 . S
H366 C372 0.930 . S
H367 C375 0.930 . S
H368 C376 0.930 . S
H369 C377 0.930 . S
H370 C380 0.930 . S
H371 C381 0.930 . S
C372 H366 0.930 . S
C372 C373 1.355 . S
C372 C374 1.415 . S
C373 C372 1.355 . S
C373 C375 1.419 . S
C374 C372 1.415 . S
C374 C379 1.425 . S
C374 C381 1.409 . S
C375 H367 0.930 . S
C375 C373 1.419 . S
C375 C376 1.362 . S
C376 H368 0.930 . S
C376 C375 1.362 . S
C376 C379 1.409 . S
C377 H369 0.930 . S
C377 C378 1.355 . S
C377 C379 1.415 . S
C378 C377 1.355 . S
C378 C380 1.419 . S
C379 C374 1.425 . S
C379 C376 1.409 . S
C379 C377 1.415 . S
C380 H370 0.930 . S
C380 C378 1.419 . S
C380 C381 1.362 . S
C381 H371 0.930 . S
C381 C374 1.409 . S
C381 C380 1.362 . S
H382 C388 0.930 . S
H383 C391 0.930 . S
H384 C392 0.930 . S
H385 C393 0.930 . S
H386 C396 0.930 . S
H387 C397 0.930 . S
C388 H382 0.930 . S
C388 C389 1.355 . S
C388 C390 1.415 . S
C389 C388 1.355 . S
C389 C391 1.419 . S
C390 C388 1.415 . S
C390 C395 1.425 . S
C390 C397 1.409 . S
C391 H383 0.930 . S
C391 C389 1.419 . S
C391 C392 1.362 . S
C392 H384 0.930 . S
C392 C391 1.362 . S
C392 C395 1.409 . S
C393 H385 0.930 . S
C393 C394 1.355 . S
C393 C395 1.415 . S
C394 C393 1.355 . S
C394 C396 1.419 . S
C395 C390 1.425 . S
C395 C392 1.409 . S
C395 C393 1.415 . S
C396 H386 0.930 . S
C396 C394 1.419 . S
C396 C397 1.362 . S
C397 H387 0.930 . S
C397 C390 1.409 . S
C397 C396 1.362 . S
C218 C177 1.726 . S
C213 C135 1.700 . S
C229 C15 1.702 . S
C234 C200 1.727 . S
C245 C55 1.718 . S
C250 C176 1.739 . S
C261 C95 1.658 . S
C266 C199 1.707 . S
C282 C180 1.722 . S
C277 C2 1.684 . S
C298 C202 1.703 . S
C293 C42 1.688 . S
C309 C82 1.679 . S
C314 C181 1.690 . S
C325 C141 1.547 . S
C330 C201 1.647 . S
C346 C204 1.708 . S
C341 C61 1.790 . S
C362 C179 1.699 . S
C357 C101 1.677 . S
C378 C203 1.687 . S
C373 C122 1.664 . S
C389 C21 1.576 . S
C394 C178 1.660 . S
