# Generated by pormake.
# Topology gar, (4,6)-cn, num edge types: 1
# Building blocks:
#     Node 0, Type 0, BuildingBlock: UXUYUI_clean_sbu_0, # of connection points: 4
#     Node 1, Type 0, BuildingBlock: UXUYUI_clean_sbu_0, # of connection points: 4
#     Node 2, Type 0, BuildingBlock: UXUYUI_clean_sbu_0, # of connection points: 4
#     Node 3, Type 0, BuildingBlock: UXUYUI_clean_sbu_0, # of connection points: 4
#     Node 4, Type 0, BuildingBlock: UXUYUI_clean_sbu_0, # of connection points: 4
#     Node 5, Type 0, BuildingBlock: UXUYUI_clean_sbu_0, # of connection points: 4
#     Node 6, Type 0, BuildingBlock: UXUYUI_clean_sbu_0, # of connection points: 4
#     Node 7, Type 0, BuildingBlock: UXUYUI_clean_sbu_0, # of connection points: 4
#     Node 8, Type 0, BuildingBlock: UXUYUI_clean_sbu_0, # of connection points: 4
#     Node 9, Type 0, BuildingBlock: UXUYUI_clean_sbu_0, # of connection points: 4
#     Node 10, Type 0, BuildingBlock: UXUYUI_clean_sbu_0, # of connection points: 4
#     Node 11, Type 0, BuildingBlock: UXUYUI_clean_sbu_0, # of connection points: 4
#     Node 12, Type 0, BuildingBlock: UXUYUI_clean_sbu_0, # of connection points: 4
#     Node 13, Type 0, BuildingBlock: UXUYUI_clean_sbu_0, # of connection points: 4
#     Node 14, Type 0, BuildingBlock: UXUYUI_clean_sbu_0, # of connection points: 4
#     Node 15, Type 0, BuildingBlock: UXUYUI_clean_sbu_0, # of connection points: 4
#     Node 16, Type 0, BuildingBlock: UXUYUI_clean_sbu_0, # of connection points: 4
#     Node 17, Type 0, BuildingBlock: UXUYUI_clean_sbu_0, # of connection points: 4
#     Node 18, Type 0, BuildingBlock: UXUYUI_clean_sbu_0, # of connection points: 4
#     Node 19, Type 0, BuildingBlock: UXUYUI_clean_sbu_0, # of connection points: 4
#     Node 20, Type 0, BuildingBlock: UXUYUI_clean_sbu_0, # of connection points: 4
#     Node 21, Type 0, BuildingBlock: UXUYUI_clean_sbu_0, # of connection points: 4
#     Node 22, Type 0, BuildingBlock: UXUYUI_clean_sbu_0, # of connection points: 4
#     Node 23, Type 0, BuildingBlock: UXUYUI_clean_sbu_0, # of connection points: 4
#     Node 24, Type 1, BuildingBlock: BETGAK_clean_sbu_0, # of connection points: 6
#     Node 25, Type 1, BuildingBlock: BETGAK_clean_sbu_0, # of connection points: 6
#     Node 26, Type 1, BuildingBlock: BETGAK_clean_sbu_0, # of connection points: 6
#     Node 27, Type 1, BuildingBlock: BETGAK_clean_sbu_0, # of connection points: 6
#     Node 28, Type 1, BuildingBlock: BETGAK_clean_sbu_0, # of connection points: 6
#     Node 29, Type 1, BuildingBlock: BETGAK_clean_sbu_0, # of connection points: 6
#     Node 30, Type 1, BuildingBlock: BETGAK_clean_sbu_0, # of connection points: 6
#     Node 31, Type 1, BuildingBlock: BETGAK_clean_sbu_0, # of connection points: 6
#     Node 32, Type 1, BuildingBlock: BETGAK_clean_sbu_0, # of connection points: 6
#     Node 33, Type 1, BuildingBlock: BETGAK_clean_sbu_0, # of connection points: 6
#     Node 34, Type 1, BuildingBlock: BETGAK_clean_sbu_0, # of connection points: 6
#     Node 35, Type 1, BuildingBlock: BETGAK_clean_sbu_0, # of connection points: 6
#     Node 36, Type 1, BuildingBlock: BETGAK_clean_sbu_0, # of connection points: 6
#     Node 37, Type 1, BuildingBlock: BETGAK_clean_sbu_0, # of connection points: 6
#     Node 38, Type 1, BuildingBlock: BETGAK_clean_sbu_0, # of connection points: 6
#     Node 39, Type 1, BuildingBlock: BETGAK_clean_sbu_0, # of connection points: 6
#     Edge 40, Type (0, 1), BuildingBlock: KIFKEQ_clean_linker_1, # of connection points: 2
#     Edge 41, Type (0, 1), BuildingBlock: KIFKEQ_clean_linker_1, # of connection points: 2
#     Edge 42, Type (0, 1), BuildingBlock: KIFKEQ_clean_linker_1, # of connection points: 2
#     Edge 43, Type (0, 1), BuildingBlock: KIFKEQ_clean_linker_1, # of connection points: 2
#     Edge 44, Type (0, 1), BuildingBlock: KIFKEQ_clean_linker_1, # of connection points: 2
#     Edge 45, Type (0, 1), BuildingBlock: KIFKEQ_clean_linker_1, # of connection points: 2
#     Edge 46, Type (0, 1), BuildingBlock: KIFKEQ_clean_linker_1, # of connection points: 2
#     Edge 47, Type (0, 1), BuildingBlock: KIFKEQ_clean_linker_1, # of connection points: 2
#     Edge 48, Type (0, 1), BuildingBlock: KIFKEQ_clean_linker_1, # of connection points: 2
#     Edge 49, Type (0, 1), BuildingBlock: KIFKEQ_clean_linker_1, # of connection points: 2
#     Edge 50, Type (0, 1), BuildingBlock: KIFKEQ_clean_linker_1, # of connection points: 2
#     Edge 51, Type (0, 1), BuildingBlock: KIFKEQ_clean_linker_1, # of connection points: 2
#     Edge 52, Type (0, 1), BuildingBlock: KIFKEQ_clean_linker_1, # of connection points: 2
#     Edge 53, Type (0, 1), BuildingBlock: KIFKEQ_clean_linker_1, # of connection points: 2
#     Edge 54, Type (0, 1), BuildingBlock: KIFKEQ_clean_linker_1, # of connection points: 2
#     Edge 55, Type (0, 1), BuildingBlock: KIFKEQ_clean_linker_1, # of connection points: 2
#     Edge 56, Type (0, 1), BuildingBlock: KIFKEQ_clean_linker_1, # of connection points: 2
#     Edge 57, Type (0, 1), BuildingBlock: KIFKEQ_clean_linker_1, # of connection points: 2
#     Edge 58, Type (0, 1), BuildingBlock: KIFKEQ_clean_linker_1, # of connection points: 2
#     Edge 59, Type (0, 1), BuildingBlock: KIFKEQ_clean_linker_1, # of connection points: 2
#     Edge 60, Type (0, 1), BuildingBlock: KIFKEQ_clean_linker_1, # of connection points: 2
#     Edge 61, Type (0, 1), BuildingBlock: KIFKEQ_clean_linker_1, # of connection points: 2
#     Edge 62, Type (0, 1), BuildingBlock: KIFKEQ_clean_linker_1, # of connection points: 2
#     Edge 63, Type (0, 1), BuildingBlock: KIFKEQ_clean_linker_1, # of connection points: 2
#     Edge 64, Type (0, 1), BuildingBlock: KIFKEQ_clean_linker_1, # of connection points: 2
#     Edge 65, Type (0, 1), BuildingBlock: KIFKEQ_clean_linker_1, # of connection points: 2
#     Edge 66, Type (0, 1), BuildingBlock: KIFKEQ_clean_linker_1, # of connection points: 2
#     Edge 67, Type (0, 1), BuildingBlock: KIFKEQ_clean_linker_1, # of connection points: 2
#     Edge 68, Type (0, 1), BuildingBlock: KIFKEQ_clean_linker_1, # of connection points: 2
#     Edge 69, Type (0, 1), BuildingBlock: KIFKEQ_clean_linker_1, # of connection points: 2
#     Edge 70, Type (0, 1), BuildingBlock: KIFKEQ_clean_linker_1, # of connection points: 2
#     Edge 71, Type (0, 1), BuildingBlock: KIFKEQ_clean_linker_1, # of connection points: 2
#     Edge 72, Type (0, 1), BuildingBlock: KIFKEQ_clean_linker_1, # of connection points: 2
#     Edge 73, Type (0, 1), BuildingBlock: KIFKEQ_clean_linker_1, # of connection points: 2
#     Edge 74, Type (0, 1), BuildingBlock: KIFKEQ_clean_linker_1, # of connection points: 2
#     Edge 75, Type (0, 1), BuildingBlock: KIFKEQ_clean_linker_1, # of connection points: 2
#     Edge 76, Type (0, 1), BuildingBlock: KIFKEQ_clean_linker_1, # of connection points: 2
#     Edge 77, Type (0, 1), BuildingBlock: KIFKEQ_clean_linker_1, # of connection points: 2
#     Edge 78, Type (0, 1), BuildingBlock: KIFKEQ_clean_linker_1, # of connection points: 2
#     Edge 79, Type (0, 1), BuildingBlock: KIFKEQ_clean_linker_1, # of connection points: 2
#     Edge 80, Type (0, 1), BuildingBlock: KIFKEQ_clean_linker_1, # of connection points: 2
#     Edge 81, Type (0, 1), BuildingBlock: KIFKEQ_clean_linker_1, # of connection points: 2
#     Edge 82, Type (0, 1), BuildingBlock: KIFKEQ_clean_linker_1, # of connection points: 2
#     Edge 83, Type (0, 1), BuildingBlock: KIFKEQ_clean_linker_1, # of connection points: 2
#     Edge 84, Type (0, 1), BuildingBlock: KIFKEQ_clean_linker_1, # of connection points: 2
#     Edge 85, Type (0, 1), BuildingBlock: KIFKEQ_clean_linker_1, # of connection points: 2
#     Edge 86, Type (0, 1), BuildingBlock: KIFKEQ_clean_linker_1, # of connection points: 2
#     Edge 87, Type (0, 1), BuildingBlock: KIFKEQ_clean_linker_1, # of connection points: 2
#     Edge 88, Type (0, 1), BuildingBlock: KIFKEQ_clean_linker_1, # of connection points: 2
#     Edge 89, Type (0, 1), BuildingBlock: KIFKEQ_clean_linker_1, # of connection points: 2
#     Edge 90, Type (0, 1), BuildingBlock: KIFKEQ_clean_linker_1, # of connection points: 2
#     Edge 91, Type (0, 1), BuildingBlock: KIFKEQ_clean_linker_1, # of connection points: 2
#     Edge 92, Type (0, 1), BuildingBlock: KIFKEQ_clean_linker_1, # of connection points: 2
#     Edge 93, Type (0, 1), BuildingBlock: KIFKEQ_clean_linker_1, # of connection points: 2
#     Edge 94, Type (0, 1), BuildingBlock: KIFKEQ_clean_linker_1, # of connection points: 2
#     Edge 95, Type (0, 1), BuildingBlock: KIFKEQ_clean_linker_1, # of connection points: 2
#     Edge 96, Type (0, 1), BuildingBlock: KIFKEQ_clean_linker_1, # of connection points: 2
#     Edge 97, Type (0, 1), BuildingBlock: KIFKEQ_clean_linker_1, # of connection points: 2
#     Edge 98, Type (0, 1), BuildingBlock: KIFKEQ_clean_linker_1, # of connection points: 2
#     Edge 99, Type (0, 1), BuildingBlock: KIFKEQ_clean_linker_1, # of connection points: 2
#     Edge 100, Type (0, 1), BuildingBlock: KIFKEQ_clean_linker_1, # of connection points: 2
#     Edge 101, Type (0, 1), BuildingBlock: KIFKEQ_clean_linker_1, # of connection points: 2
#     Edge 102, Type (0, 1), BuildingBlock: KIFKEQ_clean_linker_1, # of connection points: 2
#     Edge 103, Type (0, 1), BuildingBlock: KIFKEQ_clean_linker_1, # of connection points: 2
#     Edge 104, Type (0, 1), BuildingBlock: KIFKEQ_clean_linker_1, # of connection points: 2
#     Edge 105, Type (0, 1), BuildingBlock: KIFKEQ_clean_linker_1, # of connection points: 2
#     Edge 106, Type (0, 1), BuildingBlock: KIFKEQ_clean_linker_1, # of connection points: 2
#     Edge 107, Type (0, 1), BuildingBlock: KIFKEQ_clean_linker_1, # of connection points: 2
#     Edge 108, Type (0, 1), BuildingBlock: KIFKEQ_clean_linker_1, # of connection points: 2
#     Edge 109, Type (0, 1), BuildingBlock: KIFKEQ_clean_linker_1, # of connection points: 2
#     Edge 110, Type (0, 1), BuildingBlock: KIFKEQ_clean_linker_1, # of connection points: 2
#     Edge 111, Type (0, 1), BuildingBlock: KIFKEQ_clean_linker_1, # of connection points: 2
#     Edge 112, Type (0, 1), BuildingBlock: KIFKEQ_clean_linker_1, # of connection points: 2
#     Edge 113, Type (0, 1), BuildingBlock: KIFKEQ_clean_linker_1, # of connection points: 2
#     Edge 114, Type (0, 1), BuildingBlock: KIFKEQ_clean_linker_1, # of connection points: 2
#     Edge 115, Type (0, 1), BuildingBlock: KIFKEQ_clean_linker_1, # of connection points: 2
#     Edge 116, Type (0, 1), BuildingBlock: KIFKEQ_clean_linker_1, # of connection points: 2
#     Edge 117, Type (0, 1), BuildingBlock: KIFKEQ_clean_linker_1, # of connection points: 2
#     Edge 118, Type (0, 1), BuildingBlock: KIFKEQ_clean_linker_1, # of connection points: 2
#     Edge 119, Type (0, 1), BuildingBlock: KIFKEQ_clean_linker_1, # of connection points: 2
#     Edge 120, Type (0, 1), BuildingBlock: KIFKEQ_clean_linker_1, # of connection points: 2
#     Edge 121, Type (0, 1), BuildingBlock: KIFKEQ_clean_linker_1, # of connection points: 2
#     Edge 122, Type (0, 1), BuildingBlock: KIFKEQ_clean_linker_1, # of connection points: 2
#     Edge 123, Type (0, 1), BuildingBlock: KIFKEQ_clean_linker_1, # of connection points: 2
#     Edge 124, Type (0, 1), BuildingBlock: KIFKEQ_clean_linker_1, # of connection points: 2
#     Edge 125, Type (0, 1), BuildingBlock: KIFKEQ_clean_linker_1, # of connection points: 2
#     Edge 126, Type (0, 1), BuildingBlock: KIFKEQ_clean_linker_1, # of connection points: 2
#     Edge 127, Type (0, 1), BuildingBlock: KIFKEQ_clean_linker_1, # of connection points: 2
#     Edge 128, Type (0, 1), BuildingBlock: KIFKEQ_clean_linker_1, # of connection points: 2
#     Edge 129, Type (0, 1), BuildingBlock: KIFKEQ_clean_linker_1, # of connection points: 2
#     Edge 130, Type (0, 1), BuildingBlock: KIFKEQ_clean_linker_1, # of connection points: 2
#     Edge 131, Type (0, 1), BuildingBlock: KIFKEQ_clean_linker_1, # of connection points: 2
#     Edge 132, Type (0, 1), BuildingBlock: KIFKEQ_clean_linker_1, # of connection points: 2
#     Edge 133, Type (0, 1), BuildingBlock: KIFKEQ_clean_linker_1, # of connection points: 2
#     Edge 134, Type (0, 1), BuildingBlock: KIFKEQ_clean_linker_1, # of connection points: 2
#     Edge 135, Type (0, 1), BuildingBlock: KIFKEQ_clean_linker_1, # of connection points: 2
# Relax obj value: 0.202
# Max RMSD: 0.287
# Mean RMSD: 0.198
data_MOF--net-gar--node1-UXUYUI_clean_sbu_0--node2-BETGAK_clean_sbu_0--edge1-KIFKEQ_clean_linker_1
_symmetry_space_group_name_H-M    P1
_symmetry_Int_Tables_number       1
_symmetry_cell_setting            triclinic
loop_
_symmetry_equiv_pos_as_xyz
'x, y, z'
_cell_length_a     75.475867
_cell_length_b     70.292627
_cell_length_c     70.640867
_cell_angle_alpha  98.26125
_cell_angle_beta   94.965474
_cell_angle_gamma 102.13381
loop_
_atom_site_label
_atom_site_type_symbol
_atom_site_fract_x
_atom_site_fract_y
_atom_site_fract_z
_atom_type_partial_charge
Li0 Li 0.08074 0.32097 0.3686 0.0
Li1 Li 0.09795 0.34392 0.39708 0.0
Li2 Li 0.11343 0.32436 0.37378 0.0
Li3 Li 0.09324 0.30816 0.3961 0.0
C4 C 0.0982 0.35713 0.35632 0.0
N5 N 0.09381 0.38148 0.32971 0.0
C6 C 0.09149 0.374 0.36146 0.0
C7 C 0.10286 0.35275 0.33773 0.0
C8 C 0.08933 0.3861 0.34777 0.0
C9 C 0.10048 0.36522 0.32446 0.0
C10 C 0.06204 0.32337 0.40756 0.0
C11 C 0.05387 0.32388 0.43985 0.0
N12 N 0.03613 0.32223 0.43295 0.0
C13 C 0.04373 0.32163 0.40077 0.0
C14 C 0.06718 0.32448 0.42724 0.0
C15 C 0.03083 0.32111 0.41384 0.0
C16 C 0.04911 0.29681 0.34928 0.0
N17 N 0.05988 0.31512 0.35035 0.0
C18 C 0.03833 0.32355 0.3282 0.0
C19 C 0.05492 0.32842 0.34001 0.0
C20 C 0.0268 0.30479 0.32701 0.0
C21 C 0.03262 0.29116 0.33736 0.0
H22 H 0.05307 0.2868 0.35822 0.0
H23 H 0.06333 0.34307 0.34149 0.0
C24 C 0.11523 0.38001 0.42161 0.0
N25 N 0.09919 0.36793 0.41296 0.0
C26 C 0.11513 0.39762 0.43361 0.0
C27 C 0.08214 0.38979 0.42727 0.0
C28 C 0.08288 0.37263 0.41526 0.0
C29 C 0.09836 0.40238 0.43668 0.0
H30 H 0.12799 0.37591 0.41926 0.0
H31 H 0.07044 0.36307 0.40767 0.0
C32 C 0.08898 0.28559 0.35254 0.0
N33 N 0.07729 0.25708 0.32013 0.0
C34 C 0.08143 0.26612 0.3544 0.0
C35 C 0.09074 0.29055 0.33423 0.0
C36 C 0.07557 0.25192 0.33783 0.0
C37 C 0.0847 0.27593 0.31801 0.0
C38 C 0.12929 0.33082 0.41804 0.0
C39 C 0.14651 0.32726 0.41537 0.0
C40 C 0.1254 0.3371 0.43659 0.0
C41 C 0.15958 0.32999 0.43136 0.0
C42 C 0.13883 0.33962 0.45222 0.0
N43 N 0.1555 0.33606 0.4493 0.0
C44 C 0.14401 0.34026 0.3565 0.0
C45 C 0.13675 0.30549 0.35495 0.0
C46 C 0.15785 0.33897 0.34485 0.0
N47 N 0.13376 0.32361 0.36103 0.0
C48 C 0.15026 0.30348 0.34316 0.0
C49 C 0.16093 0.32034 0.33784 0.0
H50 H 0.14113 0.35444 0.36155 0.0
H51 H 0.12827 0.29256 0.35882 0.0
C52 C 0.07033 0.27714 0.40745 0.0
N53 N 0.08802 0.2873 0.41002 0.0
C54 C 0.06502 0.26105 0.41672 0.0
C55 C 0.09637 0.26594 0.43081 0.0
C56 C 0.10105 0.28208 0.42135 0.0
C57 C 0.07814 0.25525 0.42852 0.0
H58 H 0.06037 0.28146 0.39799 0.0
H59 H 0.11506 0.29032 0.42291 0.0
O60 O 0.10049 0.34518 0.36957 0.0
O61 O 0.07481 0.32409 0.39493 0.0
O62 O 0.09447 0.29973 0.36861 0.0
O63 O 0.11656 0.32868 0.40245 0.0
H64 H 0.08791 0.37766 0.37581 0.0
H65 H 0.10827 0.3399 0.33358 0.0
H66 H 0.08408 0.39915 0.35152 0.0
H67 H 0.10396 0.36198 0.30999 0.0
H68 H 0.05765 0.32471 0.45512 0.0
H69 H 0.03954 0.32081 0.38557 0.0
H70 H 0.08125 0.32567 0.43269 0.0
H71 H 0.01661 0.31982 0.40879 0.0
H72 H 0.03421 0.33476 0.32093 0.0
H73 H 0.02426 0.27651 0.33682 0.0
H74 H 0.12788 0.40718 0.44065 0.0
H75 H 0.06901 0.3933 0.42911 0.0
H76 H 0.08002 0.26205 0.36849 0.0
H77 H 0.09655 0.30556 0.33258 0.0
H78 H 0.06962 0.2368 0.33904 0.0
H79 H 0.08587 0.27958 0.30374 0.0
H80 H 0.14976 0.32254 0.40107 0.0
H81 H 0.11227 0.34024 0.43888 0.0
H82 H 0.17298 0.32734 0.42951 0.0
H83 H 0.13603 0.3445 0.46666 0.0
H84 H 0.16595 0.35234 0.34132 0.0
H85 H 0.15196 0.28881 0.33786 0.0
H86 H 0.05089 0.25301 0.41439 0.0
H87 H 0.10684 0.26195 0.4399 0.0
Li88 Li 1.00916 0.77849 0.64259 0.0
Li89 Li 0.02094 0.76453 0.66996 0.0
Li90 Li 1.00293 0.74283 0.64121 0.0
Li91 Li 0.98834 0.7622 0.66453 0.0
C92 C 0.03842 0.76112 0.62977 0.0
N93 N 0.06211 0.76022 0.60216 0.0
C94 C 0.05722 0.76489 0.6353 0.0
C95 C 0.03164 0.75687 0.61023 0.0
C96 C 0.06898 0.76438 0.62112 0.0
C97 C 0.04385 0.75648 0.59648 0.0
C98 C 1.01129 0.80155 0.68543 0.0
C99 C 1.01025 0.81408 0.71883 0.0
N100 N 0.01798 0.83255 0.71588 0.0
C101 C 0.01913 0.82067 0.68268 0.0
C102 C 1.00673 0.79822 0.70361 0.0
C103 C 0.02245 0.83614 0.69828 0.0
C104 C 1.00086 0.80617 0.6204 0.0
N105 N 0.01457 0.79953 0.62908 0.0
C106 C 0.03708 0.82408 0.61917 0.0
C107 C 0.03239 0.80819 0.62885 0.0
C108 C 0.02325 0.83129 0.60991 0.0
C109 C 1.00491 0.82219 0.61071 0.0
H110 H 0.98681 0.79908 0.62113 0.0
H111 H 0.04297 0.80277 0.63624 0.0
C112 C 0.04723 0.75218 0.69278 0.0
N113 N 0.04144 0.76818 0.68823 0.0
C114 C 0.06316 0.75467 0.70525 0.0
C115 C 0.06711 0.79004 0.70768 0.0
C116 C 0.05105 0.78686 0.69526 0.0
C117 C 0.07336 0.7738 0.71269 0.0
H118 H 0.03985 0.7375 0.68624 0.0
H119 H 0.04663 0.79929 0.69071 0.0
C120 C 0.97144 0.75039 0.62152 0.0
N121 N 0.94358 0.73184 0.59263 0.0
C122 C 0.95494 0.73987 0.6261 0.0
C123 C 0.97371 0.75169 0.60229 0.0
C124 C 0.94103 0.73055 0.61127 0.0
C125 C 0.95948 0.74213 0.58788 0.0
C126 C 1.00243 0.72921 0.68203 0.0
C127 C 1.00337 0.70958 0.67643 0.0
C128 C 1.00339 0.73678 0.70159 0.0
C129 C 1.00547 0.69791 0.69053 0.0
C130 C 1.00555 0.72466 0.71526 0.0
N131 N 1.00655 0.70564 0.70949 0.0
C132 C 0.01771 0.71224 0.62748 0.0
C133 C 0.98683 0.7072 0.61411 0.0
C134 C 0.01901 0.69421 0.61736 0.0
N135 N 1.00186 0.71841 0.62562 0.0
C136 C 0.98756 0.68906 0.60357 0.0
C137 C 1.00381 0.68241 0.60521 0.0
H138 H 0.02931 0.72128 0.63707 0.0
H139 H 0.97424 0.71208 0.61321 0.0
C140 C 0.96323 0.78046 0.68171 0.0
N141 N 0.9682 0.763 0.67761 0.0
C142 C 0.94966 0.78207 0.69357 0.0
C143 C 0.94618 0.74748 0.69602 0.0
C144 C 0.95994 0.74659 0.68424 0.0
C145 C 0.94115 0.76548 0.70101 0.0
H146 H 0.97018 0.79322 0.67618 0.0
H147 H 0.96431 0.73295 0.6807 0.0
O148 O 0.02679 0.76148 0.64353 0.0
O149 O 1.00806 0.78627 0.67029 0.0
O150 O 0.98512 0.75979 0.63583 0.0
O151 O 1.00059 0.74087 0.66837 0.0
H152 H 0.06264 0.76817 0.6504 0.0
H153 H 0.01711 0.75384 0.60577 0.0
H154 H 0.08357 0.76728 0.62518 0.0
H155 H 0.03882 0.75319 0.58129 0.0
H156 H 1.00679 0.81171 0.73298 0.0
H157 H 0.02268 0.82351 0.66868 0.0
H158 H 1.00042 0.78362 0.70592 0.0
H159 H 0.02857 0.851 0.69639 0.0
H160 H 0.05137 0.83045 0.61874 0.0
H161 H 0.99381 0.82749 0.60408 0.0
H162 H 0.06788 0.74179 0.70833 0.0
H163 H 0.07477 0.805 0.71298 0.0
H164 H 0.95294 0.73882 0.64093 0.0
H165 H 0.98632 0.76001 0.59854 0.0
H166 H 0.92822 0.72227 0.61458 0.0
H167 H 0.96107 0.74292 0.57292 0.0
H168 H 1.00243 0.70337 0.66137 0.0
H169 H 1.00266 0.75188 0.70619 0.0
H170 H 1.00625 0.68271 0.68639 0.0
H171 H 1.00646 0.73039 0.73045 0.0
H172 H 0.03184 0.68966 0.61887 0.0
H173 H 0.9755 0.68022 0.59447 0.0
H174 H 0.94588 0.79611 0.69692 0.0
H175 H 0.9399 0.73442 0.70157 0.0
Li176 Li 0.57993 0.82247 0.86942 0.0
Li177 Li 0.59749 0.84567 0.89775 0.0
Li178 Li 0.61276 0.826 0.87411 0.0
Li179 Li 0.59324 0.81012 0.89687 0.0
C180 C 0.59777 0.85808 0.85609 0.0
N181 N 0.59394 0.88094 0.82793 0.0
C182 C 0.59177 0.87555 0.86034 0.0
C183 C 0.60208 0.8524 0.83758 0.0
C184 C 0.58986 0.88687 0.8459 0.0
C185 C 0.59998 0.86411 0.82352 0.0
C186 C 0.56219 0.82544 0.90902 0.0
C187 C 0.55493 0.82624 0.94165 0.0
N188 N 0.53699 0.82407 0.93519 0.0
C189 C 0.5437 0.82321 0.90269 0.0
C190 C 0.56788 0.82697 0.92863 0.0
C191 C 0.53117 0.82256 0.91615 0.0
C192 C 0.5477 0.7984 0.85048 0.0
N193 N 0.55878 0.81654 0.85145 0.0
C194 C 0.53784 0.8251 0.82872 0.0
C195 C 0.55418 0.82987 0.84092 0.0
C196 C 0.5261 0.80648 0.82745 0.0
C197 C 0.53126 0.79295 0.83839 0.0
H198 H 0.55146 0.78832 0.85946 0.0
H199 H 0.56279 0.84441 0.84237 0.0
C200 C 0.61347 0.88002 0.92531 0.0
N201 N 0.59835 0.86962 0.91344 0.0
C202 C 0.61285 0.89754 0.93712 0.0
C203 C 0.58143 0.89345 0.92353 0.0
C204 C 0.58254 0.87591 0.91234 0.0
C205 C 0.59667 0.90434 0.93616 0.0
H206 H 0.62589 0.87468 0.92568 0.0
H207 H 0.5708 0.86725 0.90268 0.0
C208 C 0.58808 0.78671 0.85376 0.0
N209 N 0.57643 0.75696 0.82233 0.0
C210 C 0.58153 0.76728 0.85646 0.0
C211 C 0.58881 0.791 0.83509 0.0
C212 C 0.57569 0.75245 0.84038 0.0
C213 C 0.5828 0.77576 0.81939 0.0
C214 C 0.62906 0.83089 0.91805 0.0
C215 C 0.64551 0.82567 0.91462 0.0
C216 C 0.62586 0.8368 0.93695 0.0
C217 C 0.65852 0.82645 0.93021 0.0
C218 C 0.63919 0.83734 0.95216 0.0
N219 N 0.65511 0.83222 0.9485 0.0
C220 C 0.64341 0.8417 0.85659 0.0
C221 C 0.63565 0.8069 0.85467 0.0
C222 C 0.6573 0.84029 0.84503 0.0
N223 N 0.6329 0.82509 0.86095 0.0
C224 C 0.6492 0.80478 0.84295 0.0
C225 C 0.66019 0.8216 0.8379 0.0
H226 H 0.64074 0.85594 0.86181 0.0
H227 H 0.62703 0.79399 0.85843 0.0
C228 C 0.57057 0.77916 0.90808 0.0
N229 N 0.58826 0.78931 0.91091 0.0
C230 C 0.56514 0.76294 0.91711 0.0
C231 C 0.59634 0.76774 0.93162 0.0
C232 C 0.60117 0.78397 0.92232 0.0
C233 C 0.5781 0.75704 0.92903 0.0
H234 H 0.56074 0.78354 0.89854 0.0
H235 H 0.6152 0.79212 0.92405 0.0
O236 O 0.59954 0.84675 0.87004 0.0
O237 O 0.57454 0.82578 0.89594 0.0
O238 O 0.59381 0.8014 0.86936 0.0
O239 O 0.61653 0.83092 0.90288 0.0
H240 H 0.58851 0.88028 0.8746 0.0
H241 H 0.60702 0.83912 0.83408 0.0
H242 H 0.58512 0.90035 0.84897 0.0
H243 H 0.60317 0.85983 0.8091 0.0
H244 H 0.55913 0.82734 0.95687 0.0
H245 H 0.53908 0.82197 0.88753 0.0
H246 H 0.5821 0.82848 0.93371 0.0
H247 H 0.5168 0.82084 0.91146 0.0
H248 H 0.53412 0.83619 0.82098 0.0
H249 H 0.52256 0.77848 0.83787 0.0
H250 H 0.62482 0.9057 0.94678 0.0
H251 H 0.5687 0.89826 0.92266 0.0
H252 H 0.58099 0.7637 0.87082 0.0
H253 H 0.59382 0.80593 0.83277 0.0
H254 H 0.57059 0.73734 0.84225 0.0
H255 H 0.5832 0.77888 0.80486 0.0
H256 H 0.64826 0.82122 0.90005 0.0
H257 H 0.61334 0.84118 0.93987 0.0
H258 H 0.67134 0.82253 0.92777 0.0
H259 H 0.63691 0.84195 0.96686 0.0
H260 H 0.66563 0.85364 0.84171 0.0
H261 H 0.65074 0.79007 0.83757 0.0
H262 H 0.55102 0.75486 0.91449 0.0
H263 H 0.6067 0.76367 0.9408 0.0
Li264 Li 0.50888 0.27768 0.14251 0.0
Li265 Li 0.52085 0.26448 0.17025 0.0
Li266 Li 0.50297 0.24228 0.14167 0.0
Li267 Li 0.4882 0.26133 0.16428 0.0
C268 C 0.53794 0.25993 0.12978 0.0
N269 N 0.56078 0.25735 0.1015 0.0
C270 C 0.55674 0.26291 0.13484 0.0
C271 C 0.53071 0.25564 0.11037 0.0
C272 C 0.56807 0.26156 0.12032 0.0
C273 C 0.5425 0.25438 0.09628 0.0
C274 C 0.51086 0.30077 0.18553 0.0
C275 C 0.50936 0.31268 0.21898 0.0
N276 N 0.51783 0.33112 0.21661 0.0
C277 C 0.5194 0.31987 0.18338 0.0
C278 C 0.50565 0.29715 0.20342 0.0
C279 C 0.52287 0.33501 0.19929 0.0
C280 C 0.50125 0.30467 0.11904 0.0
N281 N 0.51455 0.2985 0.12904 0.0
C282 C 0.53763 0.32403 0.12146 0.0
C283 C 0.53242 0.30776 0.13048 0.0
C284 C 0.52424 0.33083 0.11106 0.0
C285 C 0.50584 0.32097 0.10985 0.0
H286 H 0.48713 0.29704 0.11841 0.0
H287 H 0.54258 0.30265 0.13892 0.0
C288 C 0.54676 0.25305 0.19429 0.0
N289 N 0.54137 0.26874 0.18844 0.0
C290 C 0.56282 0.25594 0.20664 0.0
C291 C 0.56769 0.29103 0.20629 0.0
C292 C 0.55149 0.28745 0.194 0.0
C293 C 0.57354 0.27512 0.21263 0.0
H294 H 0.53891 0.23824 0.18886 0.0
H295 H 0.54733 0.29953 0.18838 0.0
C296 C 0.47125 0.24899 0.12157 0.0
N297 N 0.44292 0.23014 0.09329 0.0
C298 C 0.45553 0.23717 0.12641 0.0
C299 C 0.47254 0.25134 0.10238 0.0
C300 C 0.44135 0.22774 0.11189 0.0
C301 C 0.45808 0.24163 0.08829 0.0
C302 C 0.50085 0.22881 0.18263 0.0
C303 C 0.4984 0.20843 0.17714 0.0
C304 C 0.50341 0.23694 0.20219 0.0
C305 C 0.49869 0.19652 0.19133 0.0
C306 C 0.50364 0.22454 0.21595 0.0
N307 N 0.5013 0.20476 0.21028 0.0
C308 C 0.51785 0.21164 0.13158 0.0
C309 C 0.48953 0.20761 0.1123 0.0
C310 C 0.52078 0.19436 0.12152 0.0
N311 N 0.50261 0.21804 0.12665 0.0
C312 C 0.49193 0.19016 0.10177 0.0
C313 C 0.5079 0.18362 0.10617 0.0
H314 H 0.52783 0.22019 0.14327 0.0
H315 H 0.47744 0.21285 0.10876 0.0
C316 C 0.46236 0.27947 0.17862 0.0
N317 N 0.46782 0.26219 0.17665 0.0
C318 C 0.44818 0.28179 0.18936 0.0
C319 C 0.4453 0.24823 0.19534 0.0
C320 C 0.45961 0.2466 0.1845 0.0
C321 C 0.43958 0.26607 0.19796 0.0
H322 H 0.46937 0.29158 0.17223 0.0
H323 H 0.46429 0.23302 0.18252 0.0
O324 O 0.52674 0.26115 0.14388 0.0
O325 O 0.50745 0.28581 0.17008 0.0
O326 O 0.48508 0.25871 0.13559 0.0
O327 O 0.50106 0.24068 0.16886 0.0
H328 H 0.5625 0.26624 0.14985 0.0
H329 H 0.51616 0.25326 0.10627 0.0
H330 H 0.58266 0.26385 0.12402 0.0
H331 H 0.53712 0.25103 0.08118 0.0
H332 H 0.50544 0.31007 0.23292 0.0
H333 H 0.5234 0.32295 0.16958 0.0
H334 H 0.49868 0.28258 0.20524 0.0
H335 H 0.52955 0.34984 0.19785 0.0
H336 H 0.55192 0.33144 0.12292 0.0
H337 H 0.49517 0.32575 0.10181 0.0
H338 H 0.56721 0.24324 0.21076 0.0
H339 H 0.57573 0.306 0.21045 0.0
H340 H 0.4543 0.23527 0.14121 0.0
H341 H 0.48458 0.26056 0.09844 0.0
H342 H 0.42911 0.21852 0.11541 0.0
H343 H 0.45889 0.24326 0.07337 0.0
H344 H 0.49628 0.20185 0.16207 0.0
H345 H 0.50554 0.25266 0.20671 0.0
H346 H 0.49685 0.18073 0.18727 0.0
H347 H 0.50575 0.23066 0.23113 0.0
H348 H 0.53311 0.18957 0.12555 0.0
H349 H 0.48173 0.18224 0.08995 0.0
H350 H 0.44429 0.29586 0.19129 0.0
H351 H 0.43881 0.23572 0.20155 0.0
Li352 Li 0.08309 0.82863 0.11084 0.0
Li353 Li 0.10203 0.81212 0.13502 0.0
Li354 Li 0.08123 0.79256 0.10605 0.0
Li355 Li 0.06667 0.80653 0.13329 0.0
C356 C 0.11153 0.80753 0.0915 0.0
N357 N 0.12693 0.79224 0.0604 0.0
C358 C 0.12753 0.80078 0.09445 0.0
C359 C 0.10344 0.80669 0.07275 0.0
C360 C 0.1351 0.79307 0.07853 0.0
C361 C 0.11141 0.79883 0.05721 0.0
C362 C 0.08687 0.84677 0.15491 0.0
C363 C 0.08323 0.85822 0.18785 0.0
N364 N 0.08811 0.87719 0.18477 0.0
C365 C 0.09182 0.86635 0.15204 0.0
C366 C 0.08254 0.84261 0.17292 0.0
C367 C 0.0924 0.88154 0.16733 0.0
C368 C 0.06449 0.85699 0.09923 0.0
N369 N 0.08083 0.85172 0.09901 0.0
C370 C 0.09186 0.87814 0.08183 0.0
C371 C 0.09441 0.86189 0.09043 0.0
C372 C 0.07509 0.88405 0.08186 0.0
C373 C 0.0613 0.87299 0.0907 0.0
H374 H 0.05378 0.8486 0.10592 0.0
H375 H 0.10728 0.85743 0.09027 0.0
C376 C 0.13024 0.7947 0.14862 0.0
N377 N 0.12492 0.81215 0.15116 0.0
C378 C 0.14614 0.7924 0.15905 0.0
C379 C 0.1512 0.82613 0.1748 0.0
C380 C 0.13511 0.8278 0.16398 0.0
C381 C 0.157 0.80816 0.17255 0.0
H382 H 0.12209 0.78242 0.13833 0.0
H383 H 0.13075 0.84159 0.16593 0.0
C384 C 0.04682 0.80024 0.09124 0.0
N385 N 0.01779 0.78702 0.06246 0.0
C386 C 0.03124 0.78684 0.09431 0.0
C387 C 0.0476 0.80703 0.07361 0.0
C388 C 0.01671 0.78031 0.07955 0.0
C389 C 0.03279 0.80012 0.05922 0.0
C390 C 0.07864 0.77153 0.14159 0.0
C391 C 0.06719 0.75406 0.13155 0.0
C392 C 0.08554 0.77251 0.16079 0.0
C393 C 0.06289 0.73779 0.14092 0.0
C394 C 0.08086 0.75594 0.16967 0.0
N395 N 0.06974 0.73906 0.15963 0.0
C396 C 0.09278 0.75861 0.09188 0.0
C397 C 0.06529 0.76043 0.0741 0.0
C398 C 0.09182 0.73975 0.08176 0.0
N399 N 0.07951 0.76847 0.08814 0.0
C400 C 0.06366 0.74146 0.06381 0.0
C401 C 0.07687 0.73072 0.06784 0.0
H402 H 0.10376 0.76511 0.10334 0.0
H403 H 0.05484 0.76831 0.07124 0.0
C404 C 0.03578 0.8179 0.14759 0.0
N405 N 0.04507 0.80324 0.14699 0.0
C406 C 0.01938 0.81622 0.15583 0.0
C407 C 0.02218 0.78432 0.16275 0.0
C408 C 0.03852 0.7866 0.15435 0.0
C409 C 0.01226 0.79924 0.16362 0.0
H410 H 0.041 0.83084 0.14136 0.0
H411 H 0.0458 0.77493 0.1536 0.0
O412 O 0.10377 0.81485 0.1069 0.0
O413 O 0.08596 0.83178 0.14 0.0
O414 O 0.06111 0.80692 0.10554 0.0
O415 O 0.08306 0.78763 0.13272 0.0
H416 H 0.13399 0.80144 0.10888 0.0
H417 H 0.09107 0.81189 0.07026 0.0
H418 H 0.14745 0.78774 0.08059 0.0
H419 H 0.10524 0.79795 0.04261 0.0
H420 H 0.07987 0.85526 0.20187 0.0
H421 H 0.0952 0.86977 0.13814 0.0
H422 H 0.0786 0.8275 0.1753 0.0
H423 H 0.09622 0.89677 0.16534 0.0
H424 H 0.10307 0.88613 0.07549 0.0
H425 H 0.04799 0.87643 0.09085 0.0
H426 H 0.14996 0.77835 0.1563 0.0
H427 H 0.15882 0.83874 0.18508 0.0
H428 H 0.03042 0.78149 0.1079 0.0
H429 H 0.05953 0.81748 0.07106 0.0
H430 H 1.00458 0.7699 0.08168 0.0
H431 H 0.03322 0.80519 0.04548 0.0
H432 H 0.06155 0.75312 0.11675 0.0
H433 H 0.09434 0.78598 0.16877 0.0
H434 H 0.05406 0.72417 0.13334 0.0
H435 H 0.08605 0.75649 0.18455 0.0
H436 H 0.1022 0.73192 0.08551 0.0
H437 H 0.05198 0.7351 0.05307 0.0
H438 H 0.01221 0.82802 0.15574 0.0
H439 H 0.0175 0.77104 0.16869 0.0
Li440 Li 0.52169 0.79316 0.43418 0.0
Li441 Li 0.50085 0.77447 0.40519 0.0
Li442 Li 0.51857 0.75683 0.42897 0.0
Li443 Li 0.53528 0.77796 0.40646 0.0
C444 C 0.48873 0.77421 0.44792 0.0
N445 N 0.46796 0.7788 0.47787 0.0
C446 C 0.47356 0.78252 0.44569 0.0
C447 C 0.49322 0.768 0.46528 0.0
C448 C 0.46326 0.78477 0.46103 0.0
C449 C 0.48258 0.77053 0.48029 0.0
C450 C 0.51946 0.81188 0.39586 0.0
C451 C 0.52163 0.82248 0.36501 0.0
N452 N 0.5181 0.84003 0.37256 0.0
C453 C 0.51572 0.82995 0.40329 0.0
C454 C 0.52232 0.80802 0.37655 0.0
C455 C 0.51513 0.84401 0.39129 0.0
C456 C 0.54003 0.83179 0.44894 0.0
N457 N 0.52594 0.81751 0.45216 0.0
C458 C 0.51706 0.84061 0.47576 0.0
C459 C 0.5148 0.82146 0.46565 0.0
C460 C 0.53089 0.8559 0.47197 0.0
C461 C 0.54277 0.85113 0.45868 0.0
H462 H 0.54861 0.82835 0.43803 0.0
H463 H 0.50376 0.81006 0.46822 0.0
C464 C 0.46872 0.75966 0.37591 0.0
N465 N 0.47813 0.77509 0.38946 0.0
C466 C 0.45251 0.76094 0.36518 0.0
C467 C 0.45583 0.79389 0.38243 0.0
C468 C 0.47195 0.792 0.39276 0.0
C469 C 0.44573 0.77825 0.36835 0.0
H470 H 0.47373 0.74629 0.37346 0.0
H471 H 0.47954 0.80412 0.40356 0.0
C472 C 0.55406 0.78708 0.44951 0.0
N473 N 0.58004 0.80545 0.48027 0.0
C474 C 0.57142 0.79672 0.44627 0.0
C475 C 0.5499 0.78673 0.46836 0.0
C476 C 0.58439 0.8059 0.46202 0.0
C477 C 0.56321 0.79617 0.48373 0.0
C478 C 0.5182 0.74017 0.38478 0.0
C479 C 0.52476 0.72374 0.38849 0.0
C480 C 0.51478 0.74313 0.3658 0.0
C481 C 0.52795 0.71057 0.37308 0.0
C482 C 0.51812 0.7296 0.35077 0.0
N483 N 0.52459 0.71374 0.35469 0.0
C484 C 0.50512 0.71994 0.44348 0.0
C485 C 0.53708 0.73238 0.44762 0.0
C486 C 0.50725 0.70362 0.45217 0.0
N487 N 0.51996 0.73389 0.44128 0.0
C488 C 0.53983 0.71642 0.45641 0.0
C489 C 0.52485 0.70155 0.45871 0.0
H490 H 0.4916 0.72136 0.43835 0.0
H491 H 0.54873 0.74358 0.44575 0.0
C492 C 0.56522 0.80023 0.39085 0.0
N493 N 0.55668 0.78159 0.39262 0.0
C494 C 0.58151 0.80366 0.38242 0.0
C495 C 0.58013 0.7687 0.37787 0.0
C496 C 0.56391 0.76595 0.38642 0.0
C497 C 0.5893 0.78778 0.37582 0.0
H498 H 0.55963 0.81257 0.39644 0.0
H499 H 0.55732 0.75133 0.38845 0.0
O500 O 0.49894 0.77184 0.43305 0.0
O501 O 0.52092 0.79831 0.40763 0.0
O502 O 0.54129 0.77775 0.43427 0.0
O503 O 0.51479 0.75306 0.39967 0.0
H504 H 0.46983 0.78726 0.43231 0.0
H505 H 0.50479 0.76133 0.46716 0.0
H506 H 0.45153 0.79126 0.45954 0.0
H507 H 0.48594 0.76589 0.49385 0.0
H508 H 0.52397 0.81977 0.35006 0.0
H509 H 0.51332 0.83311 0.41817 0.0
H510 H 0.52526 0.7941 0.37061 0.0
H511 H 0.51233 0.8581 0.39686 0.0
H512 H 0.50779 0.84346 0.48613 0.0
H513 H 0.55351 0.86238 0.45507 0.0
H514 H 0.44522 0.74833 0.35471 0.0
H515 H 0.45149 0.80764 0.38532 0.0
H516 H 0.5749 0.797 0.43176 0.0
H517 H 0.53653 0.7793 0.47109 0.0
H518 H 0.59792 0.81335 0.45974 0.0
H519 H 0.56017 0.79609 0.49841 0.0
H520 H 0.52741 0.72122 0.40312 0.0
H521 H 0.50958 0.75574 0.36272 0.0
H522 H 0.53309 0.69781 0.37573 0.0
H523 H 0.51555 0.73168 0.33599 0.0
H524 H 0.49523 0.69255 0.45337 0.0
H525 H 0.55364 0.71588 0.46146 0.0
H526 H 0.58817 0.81868 0.38155 0.0
H527 H 0.58542 0.75593 0.37291 0.0
Li528 Li 0.58053 0.32798 0.6096 0.0
Li529 Li 0.59899 0.31124 0.63333 0.0
Li530 Li 0.57835 0.29203 0.60437 0.0
Li531 Li 0.56389 0.3058 0.632 0.0
C532 C 0.60918 0.30719 0.59025 0.0
N533 N 0.62577 0.29311 0.55954 0.0
C534 C 0.62569 0.3015 0.59352 0.0
C535 C 0.60115 0.30584 0.57138 0.0
C536 C 0.63386 0.29441 0.5778 0.0
C537 C 0.60973 0.29862 0.55604 0.0
C538 C 0.58622 0.34607 0.65399 0.0
C539 C 0.58495 0.35801 0.68745 0.0
N540 N 0.59147 0.37678 0.68449 0.0
C541 C 0.59293 0.36544 0.65125 0.0
C542 C 0.58221 0.34225 0.67219 0.0
C543 C 0.5955 0.38078 0.66687 0.0
C544 C 0.5651 0.36009 0.60195 0.0
N545 N 0.5789 0.35105 0.59779 0.0
C546 C 0.58824 0.37344 0.57595 0.0
C547 C 0.5904 0.35741 0.58504 0.0
C548 C 0.57411 0.38317 0.57997 0.0
C549 C 0.56249 0.37619 0.59327 0.0
H550 H 0.55602 0.35471 0.61201 0.0
H551 H 0.60115 0.34989 0.58172 0.0
C552 C 0.62722 0.29381 0.64684 0.0
N553 N 0.62171 0.31116 0.64929 0.0
C554 C 0.64331 0.29185 0.65717 0.0
C555 C 0.64802 0.32569 0.67258 0.0
C556 C 0.63176 0.327 0.66195 0.0
C557 C 0.65412 0.30791 0.6703 0.0
H558 H 0.61914 0.2814 0.63666 0.0
H559 H 0.6272 0.34067 0.66381 0.0
C560 C 0.54417 0.30028 0.5897 0.0
N561 N 0.51545 0.28804 0.5605 0.0
C562 C 0.52823 0.28727 0.59245 0.0
C563 C 0.54549 0.30722 0.57218 0.0
C564 C 0.51385 0.28123 0.5775 0.0
C565 C 0.53083 0.30079 0.55756 0.0
C566 C 0.57693 0.27122 0.64066 0.0
C567 C 0.56728 0.2526 0.63116 0.0
C568 C 0.5835 0.27383 0.66018 0.0
C569 C 0.56442 0.23685 0.64138 0.0
C570 C 0.58035 0.2577 0.66989 0.0
N571 N 0.57097 0.2397 0.66037 0.0
C572 C 0.59011 0.25858 0.58996 0.0
C573 C 0.56246 0.26012 0.57231 0.0
C574 C 0.58931 0.23979 0.57981 0.0
N575 N 0.57666 0.26821 0.58634 0.0
C576 C 0.56108 0.24129 0.56183 0.0
C577 C 0.57442 0.23066 0.56582 0.0
H578 H 0.60109 0.26516 0.60141 0.0
H579 H 0.55186 0.26786 0.56958 0.0
C580 C 0.53497 0.31775 0.65077 0.0
N581 N 0.54258 0.30207 0.64599 0.0
C582 C 0.51879 0.31548 0.65949 0.0
C583 C 0.5185 0.28097 0.65831 0.0
C584 C 0.53462 0.28388 0.64955 0.0
C585 C 0.51024 0.29686 0.66337 0.0
H586 H 0.54134 0.33203 0.64758 0.0
H587 H 0.54049 0.27145 0.64522 0.0
O588 O 0.60095 0.31412 0.60546 0.0
O589 O 0.58308 0.33099 0.63873 0.0
O590 O 0.55828 0.30651 0.60423 0.0
O591 O 0.58006 0.28677 0.63087 0.0
H592 H 0.63213 0.30258 0.60804 0.0
H593 H 0.58837 0.31019 0.56862 0.0
H594 H 0.64664 0.28994 0.58011 0.0
H595 H 0.60364 0.2974 0.54136 0.0
H596 H 0.58185 0.35532 0.70162 0.0
H597 H 0.59605 0.3686 0.6372 0.0
H598 H 0.57691 0.3273 0.67446 0.0
H599 H 0.60065 0.39587 0.66497 0.0
H600 H 0.59742 0.37791 0.56563 0.0
H601 H 0.55156 0.38321 0.59717 0.0
H602 H 0.64739 0.27792 0.65458 0.0
H603 H 0.65564 0.33847 0.68265 0.0
H604 H 0.52698 0.28185 0.60598 0.0
H605 H 0.55768 0.31743 0.56988 0.0
H606 H 0.50143 0.27114 0.5794 0.0
H607 H 0.53167 0.30596 0.54389 0.0
H608 H 0.56193 0.25037 0.6161 0.0
H609 H 0.59096 0.28817 0.66772 0.0
H610 H 0.55697 0.22237 0.63422 0.0
H611 H 0.58538 0.25948 0.685 0.0
H612 H 0.59979 0.23213 0.58364 0.0
H613 H 0.54947 0.23496 0.55102 0.0
H614 H 0.51312 0.32825 0.66324 0.0
H615 H 0.51234 0.26627 0.66066 0.0
Li616 Li 0.02035 0.29292 0.9333 0.0
Li617 Li 0.99861 0.27405 0.90425 0.0
Li618 Li 0.01706 0.25634 0.92799 0.0
Li619 Li 0.03343 0.27754 0.90535 0.0
C620 C 0.98694 0.27428 0.94674 0.0
N621 N 0.96535 0.27978 0.97577 0.0
C622 C 0.97196 0.28273 0.94371 0.0
C623 C 0.99083 0.26842 0.96443 0.0
C624 C 0.96123 0.28542 0.9586 0.0
C625 C 0.97979 0.2714 0.97896 0.0
C626 C 0.02009 0.3124 0.89551 0.0
C627 C 0.02527 0.32382 0.86545 0.0
N628 N 0.02382 0.34213 0.8735 0.0
C629 C 0.01847 0.33127 0.90344 0.0
C630 C 0.02333 0.30856 0.87632 0.0
C631 C 0.02044 0.34611 0.89208 0.0
C632 C 0.03983 0.33116 0.9492 0.0
N633 N 0.02502 0.31725 0.95153 0.0
C634 C 0.01595 0.34057 0.97473 0.0
C635 C 0.01343 0.32149 0.96441 0.0
C636 C 0.03047 0.35559 0.97174 0.0
C637 C 0.0428 0.35048 0.95913 0.0
H638 H 0.04879 0.32752 0.93877 0.0
H639 H 1.00183 0.31038 0.96629 0.0
C640 C 0.96237 0.25785 0.88138 0.0
N641 N 0.9752 0.27458 0.88897 0.0
C642 C 0.94573 0.25886 0.87121 0.0
C643 C 0.95557 0.29424 0.87671 0.0
C644 C 0.97192 0.29256 0.88685 0.0
C645 C 0.942 0.27727 0.86862 0.0
H646 H 0.96494 0.24365 0.88335 0.0
H647 H 0.98197 0.3058 0.89316 0.0
C648 C 0.05262 0.2856 0.94844 0.0
N649 N 0.07881 0.302 0.97956 0.0
C650 C 0.07034 0.29442 0.94549 0.0
C651 C 0.04822 0.28506 0.96719 0.0
C652 C 0.0834 0.30261 0.96142 0.0
C653 C 0.06164 0.2935 0.98274 0.0
C654 C 0.01608 0.23978 0.88365 0.0
C655 C 0.02253 0.22323 0.88721 0.0
C656 C 0.01284 0.243 0.86474 0.0
C657 C 0.02584 0.21024 0.87172 0.0
C658 C 0.01631 0.22965 0.84963 0.0
N659 N 0.02269 0.21369 0.8534 0.0
C660 C 1.00412 0.22048 0.94463 0.0
C661 C 0.036 0.23086 0.94465 0.0
C662 C 1.00649 0.20424 0.95336 0.0
N663 N 0.01879 0.23338 0.94036 0.0
C664 C 0.03899 0.21491 0.95338 0.0
C665 C 0.02415 0.20111 0.9578 0.0
H666 H 0.99053 0.2227 0.94117 0.0
H667 H 0.04753 0.24125 0.94121 0.0
C668 C 0.06456 0.29991 0.89141 0.0
N669 N 0.05501 0.2812 0.89157 0.0
C670 C 0.08105 0.30325 0.88331 0.0
C671 C 0.07782 0.26805 0.87577 0.0
C672 C 0.06145 0.2654 0.88405 0.0
C673 C 0.08802 0.28719 0.87538 0.0
H674 H 0.05965 0.31232 0.89808 0.0
H675 H 0.05415 0.25066 0.88484 0.0
O676 O 0.99757 0.27152 0.93236 0.0
O677 O 0.01879 0.29786 0.9066 0.0
O678 O 0.03972 0.27734 0.93301 0.0
O679 O 0.01276 0.25262 0.89864 0.0
H680 H 0.96873 0.28724 0.93005 0.0
H681 H 1.00228 0.26168 0.96692 0.0
H682 H 0.94964 0.29202 0.9565 0.0
H683 H 0.98269 0.26704 0.99277 0.0
H684 H 0.02797 0.32113 0.85062 0.0
H685 H 0.0156 0.33441 0.91815 0.0
H686 H 0.02457 0.29401 0.86997 0.0
H687 H 0.01928 0.3608 0.89805 0.0
H688 H 1.00631 0.34362 0.98461 0.0
H689 H 0.05411 0.36148 0.95613 0.0
H690 H 0.93579 0.24525 0.86569 0.0
H691 H 0.95377 0.3088 0.87505 0.0
H692 H 0.07401 0.29483 0.93107 0.0
H693 H 0.03457 0.27827 0.96969 0.0
H694 H 0.09719 0.30942 0.95936 0.0
H695 H 0.05841 0.29327 0.99734 0.0
H696 H 0.02505 0.22051 0.90178 0.0
H697 H 1.00774 0.2557 0.86179 0.0
H698 H 0.03091 0.19742 0.87425 0.0
H699 H 0.01392 0.23196 0.8349 0.0
H700 H 0.99453 0.19404 0.95624 0.0
H701 H 0.05289 0.21357 0.95675 0.0
H702 H 0.0885 0.31829 0.88376 0.0
H703 H 0.08244 0.25516 0.86974 0.0
Li704 Li 0.44097 0.03333 0.30565 0.0
Li705 Li 0.41781 0.01395 0.28105 0.0
Li706 Li 0.44547 0.03179 0.2722 0.0
Li707 Li 0.42224 0.04909 0.28442 0.0
C708 C 0.45389 0.99842 0.29006 0.0
N709 N 0.47757 0.97375 0.29398 0.0
C710 C 0.4471 0.97848 0.29082 0.0
C711 C 0.47273 1.00585 0.29138 0.0
C712 C 0.4593 0.96625 0.29281 0.0
C713 C 0.48448 0.99312 0.29332 0.0
C714 C 0.40172 0.0242 0.31469 0.0
C715 C 0.37229 0.02124 0.3263 0.0
N716 N 0.37609 1.00741 0.33667 0.0
C717 C 0.40532 1.00992 0.32541 0.0
C718 C 0.38511 0.02997 0.31516 0.0
C719 C 0.3922 1.00165 0.33649 0.0
C720 C 0.45898 0.05406 0.34042 0.0
N721 N 0.45298 0.03566 0.33001 0.0
C722 C 0.46759 0.02147 0.35372 0.0
C723 C 0.45664 0.01942 0.33643 0.0
C724 C 0.47437 0.04034 0.36448 0.0
C725 C 0.46972 0.05677 0.35803 0.0
H726 H 0.45578 0.06661 0.33477 0.0
H727 H 0.45135 1.00495 0.32799 0.0
C728 C 0.40646 0.97779 0.25853 0.0
N729 N 0.40105 0.99033 0.27217 0.0
C730 C 0.39421 0.96082 0.24901 0.0
C731 C 0.37114 0.97019 0.26787 0.0
C732 C 0.38378 0.98697 0.27689 0.0
C733 C 0.37633 0.95697 0.25373 0.0
H734 H 0.42019 0.98121 0.25479 0.0
H735 H 0.37964 0.99744 0.28723 0.0
C736 C 0.46401 0.06944 0.28914 0.0
N737 N 0.49409 0.0971 0.28348 0.0
C738 C 0.46172 0.08511 0.27977 0.0
C739 C 0.48154 0.0679 0.29581 0.0
C740 C 0.47712 0.09895 0.27703 0.0
C741 C 0.49659 0.08199 0.29271 0.0
C742 C 0.40631 0.02176 0.24694 0.0
C743 C 0.40928 1.01186 0.2293 0.0
C744 C 0.38848 0.02206 0.25074 0.0
C745 C 0.39431 1.00216 0.21581 0.0
C746 C 0.37387 1.01203 0.23695 0.0
N747 N 0.37706 1.00237 0.21992 0.0
C748 C 0.45822 1.00905 0.24615 0.0
C749 C 0.47109 0.04263 0.24499 0.0
C750 C 0.46601 1.00286 0.2301 0.0
N751 N 0.46079 0.02854 0.25325 0.0
C752 C 0.47907 0.03706 0.22855 0.0
C753 C 0.47624 0.0169 0.22085 0.0
H754 H 0.44921 0.99826 0.25231 0.0
H755 H 0.47238 0.05807 0.25049 0.0
C756 C 0.40413 0.07901 0.29663 0.0
N757 N 0.41053 0.06924 0.28166 0.0
C758 C 0.39382 0.09275 0.29328 0.0
C759 C 0.397 0.08578 0.2593 0.0
C760 C 0.40741 0.07248 0.26334 0.0
C761 C 0.39004 0.09611 0.27435 0.0
H762 H 0.40679 0.07587 0.31102 0.0
H763 H 0.41266 0.06434 0.25179 0.0
O764 O 0.44202 1.01031 0.2872 0.0
O765 O 0.41432 0.03257 0.30377 0.0
O766 O 0.44912 0.05604 0.29235 0.0
O767 O 0.42074 0.03074 0.26062 0.0
H768 H 0.43256 0.97251 0.28982 0.0
H769 H 0.47818 0.02118 0.2906 0.0
H770 H 0.45422 0.95078 0.29337 0.0
H771 H 0.49908 0.99862 0.29421 0.0
H772 H 0.35933 0.02545 0.32668 0.0
H773 H 0.41801 1.00515 0.32506 0.0
H774 H 0.38207 0.0409 0.30682 0.0
H775 H 0.3948 0.99059 0.34489 0.0
H776 H 0.47089 1.00855 0.35858 0.0
H777 H 0.47486 0.07149 0.36617 0.0
H778 H 0.39866 0.95074 0.23833 0.0
H779 H 0.35758 0.96733 0.27232 0.0
H780 H 0.44821 0.0866 0.27471 0.0
H781 H 0.48348 0.05603 0.30339 0.0
H782 H 0.47558 0.11117 0.2698 0.0
H783 H 0.51026 0.08097 0.29773 0.0
H784 H 0.423 1.01157 0.22611 0.0
H785 H 0.38595 0.02953 0.2644 0.0
H786 H 0.3964 0.99437 0.20212 0.0
H787 H 0.35999 1.01184 0.23982 0.0
H788 H 0.46299 0.98726 0.22426 0.0
H789 H 0.48675 0.04829 0.22155 0.0
H790 H 0.38883 0.10056 0.3053 0.0
H791 H 0.39409 0.08755 0.24446 0.0
Li792 Li 0.28841 0.20941 0.52283 0.0
Li793 Li 0.3021 0.18261 0.50738 0.0
Li794 Li 0.28832 0.2054 0.48704 0.0
Li795 Li 0.26686 0.17956 0.50331 0.0
C796 C 0.32461 0.22641 0.51393 0.0
N797 N 0.35507 0.25645 0.52697 0.0
C798 C 0.33903 0.22309 0.52585 0.0
C799 C 0.32573 0.24492 0.50846 0.0
C800 C 0.35431 0.23849 0.53232 0.0
C801 C 0.34123 0.25995 0.51528 0.0
C802 C 0.28543 0.17266 0.5423 0.0
C803 C 0.27742 0.14414 0.55775 0.0
N804 N 0.28808 0.15426 0.57411 0.0
C805 C 0.29632 0.18279 0.55925 0.0
C806 C 0.2759 0.15319 0.54151 0.0
C807 C 0.29747 0.17323 0.57518 0.0
C808 C 0.27417 0.22344 0.55624 0.0
N809 N 0.28956 0.22668 0.54733 0.0
C810 C 0.30584 0.24846 0.57565 0.0
C811 C 0.30516 0.23925 0.55655 0.0
C812 C 0.29028 0.24489 0.58538 0.0
C813 C 0.27417 0.23257 0.57521 0.0
H814 H 0.26206 0.213 0.5489 0.0
H815 H 0.31734 0.24156 0.5495 0.0
C816 C 0.33244 0.16738 0.4948 0.0
N817 N 0.32229 0.16913 0.50972 0.0
C818 C 0.34775 0.15901 0.49635 0.0
C819 C 0.34208 0.15443 0.52861 0.0
C820 C 0.32689 0.16282 0.52643 0.0
C821 C 0.35287 0.15237 0.51347 0.0
H822 H 0.32873 0.17266 0.48169 0.0
H823 H 0.31902 0.16456 0.5383 0.0
C824 C 0.25987 0.22347 0.5089 0.0
N825 N 0.24466 0.25442 0.52261 0.0
C826 C 0.24206 0.21976 0.5138 0.0
C827 C 0.26992 0.2429 0.51089 0.0
C828 C 0.23462 0.23562 0.52071 0.0
C829 C 0.262 0.25836 0.51789 0.0
C830 C 0.28174 0.16045 0.46828 0.0
C831 C 0.27544 0.1629 0.44979 0.0
C832 C 0.28622 0.1427 0.47116 0.0
C833 C 0.27382 0.14751 0.4344 0.0
C834 C 0.28442 0.12766 0.45539 0.0
N835 N 0.27833 0.13037 0.43749 0.0
C836 C 0.30331 0.21235 0.45209 0.0
C837 C 0.28077 0.23022 0.45916 0.0
C838 C 0.30547 0.22005 0.43495 0.0
N839 N 0.29104 0.2174 0.46379 0.0
C840 C 0.28258 0.23838 0.4422 0.0
C841 C 0.295 0.23329 0.42963 0.0
H842 H 0.3113 0.20207 0.45596 0.0
H843 H 0.27109 0.23409 0.4686 0.0
C844 C 0.23479 0.16468 0.51947 0.0
N845 N 0.24257 0.16243 0.50284 0.0
C846 C 0.21728 0.15367 0.52083 0.0
C847 C 0.2158 0.138 0.48789 0.0
C848 C 0.23341 0.14938 0.48715 0.0
C849 C 0.20739 0.13997 0.50494 0.0
H850 H 0.24219 0.17524 0.53173 0.0
H851 H 0.23974 0.14778 0.47402 0.0
O852 O 0.30965 0.21147 0.50728 0.0
O853 O 0.28411 0.1817 0.52651 0.0
O854 O 0.2674 0.20814 0.50216 0.0
O855 O 0.28412 0.17563 0.48335 0.0
H856 H 0.33839 0.2088 0.53013 0.0
H857 H 0.31479 0.24762 0.49901 0.0
H858 H 0.36556 0.23617 0.54161 0.0
H859 H 0.34227 0.27438 0.51123 0.0
H860 H 0.27014 0.12905 0.55734 0.0
H861 H 0.30403 0.19775 0.56003 0.0
H862 H 0.26748 0.14514 0.52846 0.0
H863 H 0.30589 0.18086 0.58838 0.0
H864 H 0.31854 0.25795 0.58288 0.0
H865 H 0.26192 0.22916 0.58216 0.0
H866 H 0.35537 0.15761 0.48413 0.0
H867 H 0.34551 0.14997 0.54226 0.0
H868 H 0.23408 0.20479 0.51225 0.0
H869 H 0.28371 0.24599 0.50717 0.0
H870 H 0.22085 0.23297 0.52457 0.0
H871 H 0.26964 0.27348 0.51957 0.0
H872 H 0.27192 0.17658 0.44735 0.0
H873 H 0.29117 0.14064 0.4854 0.0
H874 H 0.26903 0.14921 0.42 0.0
H875 H 0.28792 0.11387 0.45737 0.0
H876 H 0.31503 0.2153 0.42579 0.0
H877 H 0.27437 0.24872 0.4391 0.0
H878 H 0.21147 0.15614 0.5342 0.0
H879 H 0.20897 0.12756 0.47528 0.0
Li880 Li 0.18465 0.04395 0.77883 0.0
Li881 Li 0.15765 0.02172 0.79652 0.0
Li882 Li 0.18111 1.00232 0.77551 0.0
Li883 Li 0.15686 0.01932 0.75751 0.0
C884 C 0.19903 0.02961 0.815 0.0
N885 N 0.22518 0.03773 0.84666 0.0
C886 C 0.19573 0.03939 0.83255 0.0
C887 C 0.21559 0.02396 0.8135 0.0
C888 C 0.20914 0.04335 0.84841 0.0
C889 C 0.22866 0.02822 0.82969 0.0
C890 C 0.14425 0.0525 0.77527 0.0
C891 C 0.11242 0.0529 0.76913 0.0
N892 N 0.11722 0.07223 0.76719 0.0
C893 C 0.14889 0.07235 0.77321 0.0
C894 C 0.1259 0.04268 0.77327 0.0
C895 C 0.13501 0.08208 0.76915 0.0
C896 C 0.20233 0.07893 0.76136 0.0
N897 N 0.20044 0.07277 0.77877 0.0
C898 C 0.21692 0.10591 0.79433 0.0
C899 C 0.2076 0.08616 0.79513 0.0
C900 C 0.2193 0.11265 0.77651 0.0
C901 C 0.21167 0.09842 0.75993 0.0
H902 H 0.19627 0.06879 0.7483 0.0
H903 H 0.20597 0.08171 0.80903 0.0
C904 C 0.13627 1.00615 0.82933 0.0
N905 N 0.14394 0.02288 0.82241 0.0
C906 C 0.12769 1.00689 0.84668 0.0
C907 C 0.13459 0.042 0.85026 0.0
C908 C 0.14297 0.04063 0.83281 0.0
C909 C 0.1266 0.02502 0.85791 0.0
H910 H 0.13683 0.99193 0.8215 0.0
H911 H 0.14885 0.05408 0.8277 0.0
C912 C 0.19034 0.01825 0.73877 0.0
N913 N 0.20301 1.01055 0.70359 0.0
C914 C 0.18069 1.00242 0.72489 0.0
C915 C 0.20651 0.03004 0.73487 0.0
C916 C 0.18728 0.99882 0.70714 0.0
C917 C 0.21268 0.02592 0.71698 0.0
C918 C 0.13867 0.98191 0.76617 0.0
C919 C 0.14185 0.96665 0.75284 0.0
C920 C 0.121 0.98155 0.77084 0.0
C921 C 0.1272 0.95128 0.74424 0.0
C922 C 0.10671 0.96592 0.76191 0.0
N923 N 0.11008 0.95125 0.74891 0.0
C924 C 0.19042 0.96277 0.78518 0.0
C925 C 0.2081 0.97541 0.76234 0.0
C926 C 0.19897 0.94625 0.78448 0.0
N927 N 0.19489 0.97737 0.77425 0.0
C928 C 0.21701 0.95915 0.76126 0.0
C929 C 0.21277 0.94379 0.77241 0.0
H930 H 0.18004 0.96374 0.7947 0.0
H931 H 0.2119 0.9865 0.75337 0.0
C932 C 0.14254 0.03767 0.725 0.0
N933 N 0.14158 0.0197 0.73074 0.0
C934 C 0.13361 0.03964 0.70702 0.0
C935 C 0.12272 1.00461 0.70015 0.0
C936 C 0.1317 1.00329 0.71843 0.0
C937 C 0.12343 0.02303 0.69386 0.0
H938 H 0.15056 0.05077 0.7343 0.0
H939 H 0.13086 0.98893 0.72254 0.0
O940 O 0.18592 0.02513 0.79946 0.0
O941 O 0.15761 0.04265 0.77903 0.0
O942 O 0.18409 0.02205 0.75618 0.0
O943 O 0.15284 0.99705 0.77475 0.0
H944 H 0.18295 0.04381 0.83391 0.0
H945 H 0.21827 0.01629 0.8 0.0
H946 H 0.20677 0.05086 0.86211 0.0
H947 H 0.24154 0.02392 0.82877 0.0
H948 H 0.09815 0.04547 0.76745 0.0
H949 H 0.16306 0.08014 0.77471 0.0
H950 H 0.12212 0.0273 0.77475 0.0
H951 H 0.13838 0.09745 0.76753 0.0
H952 H 0.22238 0.11576 0.80773 0.0
H953 H 0.21247 0.10235 0.74573 0.0
H954 H 0.12221 0.99307 0.85133 0.0
H955 H 0.13426 0.05652 0.85754 0.0
H956 H 0.16824 0.99305 0.72778 0.0
H957 H 0.21428 0.04215 0.7456 0.0
H958 H 0.17991 0.98669 0.69621 0.0
H959 H 0.22518 0.03492 0.71375 0.0
H960 H 0.1555 0.9667 0.74917 0.0
H961 H 0.11838 0.99316 0.78129 0.0
H962 H 0.12943 0.93938 0.73387 0.0
H963 H 0.09295 0.96544 0.76536 0.0
H964 H 0.19478 0.93557 0.79374 0.0
H965 H 0.2271 0.95866 0.75134 0.0
H966 H 0.13515 0.05426 0.70332 0.0
H967 H 0.11511 0.99114 0.69108 0.0
Li968 Li 0.29435 0.93888 1.00952 0.0
Li969 Li 0.31167 0.91671 0.02273 0.0
Li970 Li 0.32681 0.94718 0.01413 0.0
Li971 Li 0.31225 0.91962 0.98907 0.0
C972 C 0.317 0.95865 0.04852 0.0
N973 N 0.33247 0.99006 0.07748 0.0
C974 C 0.32473 0.95532 0.06611 0.0
C975 C 0.31685 0.97791 0.04576 0.0
C976 C 0.33253 0.97141 0.08055 0.0
C977 C 0.32484 0.9936 0.06054 0.0
C978 C 0.27845 0.89334 1.00461 0.0
C979 C 0.2687 0.85797 1.00121 0.0
N980 N 0.25381 0.86012 0.01015 0.0
C981 C 0.26297 0.89521 0.0136 0.0
C982 C 0.28126 0.87459 0.99815 0.0
C983 C 0.25069 0.87823 0.0163 0.0
C984 C 0.26573 0.95555 0.99678 0.0
N985 N 0.27407 0.94933 0.01175 0.0
C986 C 0.25477 0.96107 0.0333 0.0
C987 C 0.2689 0.95176 0.0297 0.0
C988 C 0.24593 0.96788 0.01822 0.0
C989 C 0.25143 0.96492 0.99971 0.0
H990 H 0.27039 0.9535 0.98273 0.0
H991 H 0.276 0.94673 0.04129 0.0
C992 C 0.33186 0.90454 0.04939 0.0
N993 N 0.31421 0.90106 0.04153 0.0
C994 C 0.33664 0.89535 0.06442 0.0
C995 C 0.30475 0.87967 0.06384 0.0
C996 C 0.3006 0.88902 0.04843 0.0
C997 C 0.32301 0.88286 0.07186 0.0
H998 H 0.34223 0.91505 0.04443 0.0
H999 H 0.28658 0.88713 0.04249 0.0
C1000 C 0.31946 0.95978 0.9789 0.0
N1001 N 0.33751 0.98406 0.95585 0.0
C1002 C 0.3344 0.95509 0.97045 0.0
C1003 C 0.3137 0.97679 0.97566 0.0
C1004 C 0.34333 0.96754 0.9588 0.0
C1005 C 0.32302 0.9889 0.96398 0.0
C1006 C 0.34473 0.9094 1.00687 0.0
C1007 C 0.36343 0.9174 1.00766 0.0
C1008 C 0.3384 0.88897 1.00498 0.0
C1009 C 0.37551 0.90481 1.00665 0.0
C1010 C 0.35091 0.87687 1.00405 0.0
N1011 N 0.36905 0.88498 1.0049 0.0
C1012 C 0.35842 0.96194 0.03696 0.0
C1013 C 0.35365 0.98318 0.01473 0.0
C1014 C 0.37614 0.97266 0.04265 0.0
N1015 N 0.34792 0.96681 0.02266 0.0
C1016 C 0.37154 0.99408 0.01962 0.0
C1017 C 0.38323 0.98807 0.03296 0.0
H1018 H 0.35336 0.94891 0.04307 0.0
H1019 H 0.34486 0.9871 1.00381 0.0
C1020 C 0.29663 0.89816 0.95335 0.0
N1021 N 0.31276 0.90497 0.96481 0.0
C1022 C 0.29566 0.88535 0.93612 0.0
C1023 C 0.32795 0.88688 0.94291 0.0
C1024 C 0.32836 0.90003 0.95973 0.0
C1025 C 0.31139 0.87916 0.93091 0.0
H1026 H 0.28447 0.90243 0.95782 0.0
H1027 H 0.3411 0.90593 0.96887 0.0
O1028 O 0.30986 0.94313 0.03398 0.0
O1029 O 0.29052 0.90978 1.00171 0.0
O1030 O 0.31064 0.94801 0.99057 0.0
O1031 O 0.33283 0.92164 1.00849 0.0
H1032 H 0.32483 0.9405 0.06854 0.0
H1033 H 0.31092 0.98069 0.0322 0.0
H1034 H 0.33868 0.96907 0.09419 0.0
H1035 H 0.32504 1.00861 0.05854 0.0
H1036 H 0.27076 0.84335 0.99641 0.0
H1037 H 0.26049 0.9096 0.01849 0.0
H1038 H 0.29296 0.87289 0.99081 0.0
H1039 H 0.23869 0.87945 0.0233 0.0
H1040 H 0.25113 0.96337 0.04782 0.0
H1041 H 0.2448 0.96985 0.98771 0.0
H1042 H 0.35077 0.89868 0.07074 0.0
H1043 H 0.2939 0.87036 0.0696 0.0
H1044 H 0.33923 0.94217 0.97311 0.0
H1045 H 0.30223 0.98068 0.98224 0.0
H1046 H 0.35494 0.96415 0.95219 0.0
H1047 H 0.31877 1.00217 0.96141 0.0
H1048 H 0.36857 0.93317 1.00904 0.0
H1049 H 0.32401 0.88256 1.00451 0.0
H1050 H 0.39001 0.9108 1.00729 0.0
H1051 H 0.34621 0.86105 1.00271 0.0
H1052 H 0.38465 0.9679 0.05334 0.0
H1053 H 0.37652 1.00594 0.01185 0.0
H1054 H 0.28269 0.88026 0.9271 0.0
H1055 H 0.3404 0.88247 0.93966 0.0
Li1056 Li 0.29878 0.40206 0.03418 0.0
Li1057 Li 0.31303 0.37954 0.05353 0.0
Li1058 Li 0.33352 0.40545 0.03573 0.0
Li1059 Li 0.31117 0.3749 0.01717 0.0
C1060 C 0.3153 0.42451 0.0705 0.0
N1061 N 0.30902 0.4548 0.09666 0.0
C1062 C 0.30719 0.4204 0.08694 0.0
C1063 C 0.32038 0.444 0.06741 0.0
C1064 C 0.30408 0.43593 0.09998 0.0
C1065 C 0.31704 0.45912 0.08081 0.0
C1066 C 0.27646 0.35781 0.02737 0.0
C1067 C 0.26382 0.32289 0.01796 0.0
N1068 N 0.24703 0.32659 0.01401 0.0
C1069 C 0.25909 0.36128 0.02319 0.0
C1070 C 0.27887 0.33848 0.02478 0.0
C1071 C 0.24437 0.3453 0.01649 0.0
C1072 C 0.27033 0.41508 0.01368 0.0
N1073 N 0.27844 0.41528 0.03173 0.0
C1074 C 0.25637 0.43149 0.04546 0.0
C1075 C 0.27161 0.42314 0.0475 0.0
C1076 C 0.24776 0.43165 0.027 0.0
C1077 C 0.25504 0.42326 0.01098 0.0
H1078 H 0.27551 0.4082 1.0013 0.0
H1079 H 0.27775 0.4227 0.06174 0.0
C1080 C 0.32687 0.3647 0.08688 0.0
N1081 N 0.31152 0.36736 0.07699 0.0
C1082 C 0.32602 0.35698 0.10418 0.0
C1083 C 0.29359 0.3548 0.10096 0.0
C1084 C 0.29503 0.3624 0.08364 0.0
C1085 C 0.30923 0.35203 0.11165 0.0
H1086 H 0.33988 0.36879 0.08148 0.0
H1087 H 0.28296 0.36461 0.07563 0.0
C1088 C 0.31485 0.41434 0.99957 0.0
N1089 N 0.31463 0.43805 0.97161 0.0
C1090 C 0.31633 0.40689 0.98047 0.0
C1091 C 0.3134 0.43388 1.00449 0.0
C1092 C 0.31616 0.4191 0.96654 0.0
C1093 C 0.31327 0.44562 0.99013 0.0
C1094 C 0.3424 0.36237 0.03307 0.0
C1095 C 0.35912 0.36663 0.02569 0.0
C1096 C 0.33539 0.34333 0.03657 0.0
C1097 C 0.3684 0.35159 0.02155 0.0
C1098 C 0.34508 0.3287 0.03222 0.0
N1099 N 0.36123 0.33309 0.02484 0.0
C1100 C 0.37105 0.42473 0.05087 0.0
C1101 C 0.36202 0.43146 0.02016 0.0
C1102 C 0.38884 0.43594 0.05076 0.0
N1103 N 0.35796 0.42265 0.03571 0.0
C1104 C 0.37956 0.44293 0.01952 0.0
C1105 C 0.39349 0.44535 0.03492 0.0
H1106 H 0.36776 0.41741 0.06301 0.0
H1107 H 0.3517 0.42953 1.00805 0.0
C1108 C 0.29167 0.35659 0.98074 0.0
N1109 N 0.30724 0.35742 0.99241 0.0
C1110 C 0.2895 0.3479 0.96128 0.0
C1111 C 0.31901 0.34014 0.9663 0.0
C1112 C 0.32066 0.34908 0.98559 0.0
C1113 C 0.3035 0.33993 0.95367 0.0
H1114 H 0.28132 0.36367 0.98626 0.0
H1115 H 0.33313 0.35023 0.99472 0.0
O1116 O 0.31837 0.4095 0.05756 0.0
O1117 O 0.29096 0.3733 0.03415 0.0
O1118 O 0.31475 0.40252 0.01335 0.0
O1119 O 0.33298 0.3768 0.03686 0.0
H1120 H 0.30322 0.40539 0.08954 0.0
H1121 H 0.32678 0.44738 0.05479 0.0
H1122 H 0.29772 0.43297 0.11272 0.0
H1123 H 0.32084 0.47428 0.0786 0.0
H1124 H 0.26549 0.30785 0.01582 0.0
H1125 H 0.25695 0.37614 0.02526 0.0
H1126 H 0.29222 0.33554 0.02789 0.0
H1127 H 0.23084 0.34776 0.01328 0.0
H1128 H 0.25146 0.43787 0.0583 0.0
H1129 H 0.24877 0.42261 0.99646 0.0
H1130 H 0.33852 0.35535 0.11186 0.0
H1131 H 0.28028 0.351 0.10585 0.0
H1132 H 0.3177 0.39188 0.97644 0.0
H1133 H 0.31228 0.43987 0.01922 0.0
H1134 H 0.31727 0.41352 0.9517 0.0
H1135 H 0.31207 0.46075 0.9937 0.0
H1136 H 0.36473 0.38134 0.02298 0.0
H1137 H 0.32262 0.3399 0.04257 0.0
H1138 H 0.38128 0.35461 0.01569 0.0
H1139 H 0.33977 0.31385 0.03472 0.0
H1140 H 0.39892 0.4368 0.0629 0.0
H1141 H 0.38204 0.44995 1.00704 0.0
H1142 H 0.27721 0.34794 0.95218 0.0
H1143 H 0.33029 0.33446 0.96111 0.0
Li1144 Li 0.78802 0.16582 0.05031 0.0
Li1145 Li 0.80425 0.14505 0.02872 0.0
Li1146 Li 0.78759 0.16784 0.0166 0.0
Li1147 Li 0.77147 0.13756 0.02552 0.0
C1148 C 0.82147 0.19119 0.03496 0.0
N1149 N 0.84644 0.22536 0.03243 0.0
C1150 C 0.83722 0.19018 0.02619 0.0
C1151 C 0.81851 0.20956 0.04266 0.0
C1152 C 0.84967 0.20762 0.02503 0.0
C1153 C 0.83125 0.22667 0.04114 0.0
C1154 C 0.78207 0.1227 0.05887 0.0
C1155 C 0.77558 0.08844 0.06255 0.0
N1156 N 0.76827 0.09314 0.07906 0.0
C1157 C 0.77467 0.12724 0.07598 0.0
C1158 C 0.78273 0.10319 0.0522 0.0
C1159 C 0.7677 0.11207 0.08594 0.0
C1160 C 0.77131 0.18336 0.07912 0.0
N1161 N 0.78773 0.18088 0.07408 0.0
C1162 C 0.80348 0.20359 0.10163 0.0
C1163 C 0.80366 0.19045 0.08494 0.0
C1164 C 0.78672 0.20691 0.10697 0.0
C1165 C 0.77048 0.19648 0.09556 0.0
H1166 H 0.75889 0.17549 0.0701 0.0
H1167 H 0.81648 0.18818 0.08037 0.0
C1168 C 0.83105 0.13434 1.00882 0.0
N1169 N 0.82394 0.13375 0.02577 0.0
C1170 C 0.84528 0.12519 1.00511 0.0
C1171 C 0.84448 0.11502 0.03645 0.0
C1172 C 0.83021 0.12437 0.03954 0.0
C1173 C 0.85213 0.11541 0.01904 0.0
H1174 H 0.82556 0.14188 0.99818 0.0
H1175 H 0.82399 0.12401 0.05275 0.0
C1176 C 0.75482 0.17573 0.02963 0.0
N1177 N 0.73076 0.19984 0.02492 0.0
C1178 C 0.73655 0.1675 0.02242 0.0
C1179 C 0.76084 0.1962 0.0345 0.0
C1180 C 0.7246 0.17994 0.02013 0.0
C1181 C 0.74847 0.20815 0.03199 0.0
C1182 C 0.78557 0.12631 0.98981 0.0
C1183 C 0.7825 0.13028 0.97112 0.0
C1184 C 0.78572 0.10707 0.99261 0.0
C1185 C 0.77934 0.11483 0.95553 0.0
C1186 C 0.78251 0.09202 0.97664 0.0
N1187 N 0.77938 0.09617 0.95859 0.0
C1188 C 0.79782 0.19783 0.99291 0.0
C1189 C 0.76811 0.17693 0.98774 0.0
C1190 C 0.79351 0.2071 0.97751 0.0
N1191 N 0.78502 0.18319 0.99772 0.0
C1192 C 0.76313 0.18594 0.97262 0.0
C1193 C 0.7759 0.20116 0.96738 0.0
H1194 H 0.81137 0.20207 1.00062 0.0
H1195 H 0.75861 0.16454 0.9913 0.0
C1196 C 0.74116 0.10977 0.03219 0.0
N1197 N 0.75016 0.11766 0.01835 0.0
C1198 C 0.72469 0.09607 0.02719 0.0
C1199 C 0.72689 0.09891 0.99371 0.0
C1200 C 0.74325 0.11277 0.99943 0.0
C1201 C 0.71723 0.09066 1.00775 0.0
H1202 H 0.7462 0.11483 0.04718 0.0
H1203 H 0.74994 0.12021 0.9888 0.0
O1204 O 0.80933 0.17425 0.03653 0.0
O1205 O 0.78887 0.13736 0.04891 0.0
O1206 O 0.76669 0.1637 0.03186 0.0
O1207 O 0.78753 0.14108 1.00525 0.0
H1208 H 0.83983 0.17608 0.02038 0.0
H1209 H 0.80656 0.21061 0.04978 0.0
H1210 H 0.86191 0.20706 0.01825 0.0
H1211 H 0.8291 0.241 0.04695 0.0
H1212 H 0.77587 0.07325 0.05748 0.0
H1213 H 0.77417 0.14228 0.08143 0.0
H1214 H 0.78865 0.09945 0.03917 0.0
H1215 H 0.76183 0.11535 0.09913 0.0
H1216 H 0.81629 0.21107 0.11023 0.0
H1217 H 0.7573 0.19874 0.09903 0.0
H1218 H 0.85098 0.12593 0.99161 0.0
H1219 H 0.84931 0.10737 0.0474 0.0
H1220 H 0.73167 0.15166 0.01859 0.0
H1221 H 0.77492 0.20279 0.04009 0.0
H1222 H 0.71043 0.17378 0.01455 0.0
H1223 H 0.75295 0.22403 0.03566 0.0
H1224 H 0.78232 0.14509 0.96869 0.0
H1225 H 0.788 0.10376 1.00696 0.0
H1226 H 0.77678 0.11766 0.941 0.0
H1227 H 0.7824 0.07702 0.97861 0.0
H1228 H 0.80373 0.21863 0.9735 0.0
H1229 H 0.74962 0.1806 0.96467 0.0
H1230 H 0.71733 0.09084 0.03863 0.0
H1231 H 0.72146 0.09542 0.97861 0.0
Li1232 Li 0.18145 0.57183 0.2589 0.0
Li1233 Li 0.15338 0.55196 0.26666 0.0
Li1234 Li 0.17668 0.53634 0.25306 0.0
Li1235 Li 0.15766 0.55281 0.23398 0.0
C1236 C 0.19196 0.55892 0.29284 0.0
N1237 N 0.21958 0.571 0.32324 0.0
C1238 C 0.18801 0.56551 0.31129 0.0
C1239 C 0.20989 0.55817 0.28992 0.0
C1240 C 0.20218 0.57162 0.32646 0.0
C1241 C 0.22368 0.56444 0.30544 0.0
C1242 C 0.14681 0.58746 0.24714 0.0
C1243 C 0.11795 0.59422 0.23629 0.0
N1244 N 0.12649 0.61323 0.23597 0.0
C1245 C 0.15533 0.60703 0.24668 0.0
C1246 C 0.12797 0.58099 0.24199 0.0
C1247 C 0.1448 0.61985 0.24102 0.0
C1248 C 0.21039 0.6013 0.25499 0.0
N1249 N 0.19865 0.59483 0.26733 0.0
C1250 C 0.21386 0.62067 0.29271 0.0
C1251 C 0.19968 0.60438 0.28568 0.0
C1252 C 0.22677 0.62686 0.28052 0.0
C1253 C 0.22482 0.61728 0.26139 0.0
H1254 H 0.20845 0.59417 0.24016 0.0
H1255 H 0.18951 0.59932 0.29479 0.0
C1256 C 0.1319 0.53914 0.29613 0.0
N1257 N 0.1381 0.55352 0.28578 0.0
C1258 C 0.12405 0.54386 0.31289 0.0
C1259 C 0.12911 0.57772 0.30752 0.0
C1260 C 0.13669 0.5724 0.29107 0.0
C1261 C 0.12302 0.56353 0.31892 0.0
H1262 H 0.13394 0.52441 0.29202 0.0
H1263 H 0.1427 0.58379 0.2834 0.0
C1264 C 0.1977 0.55522 0.22343 0.0
N1265 N 0.22505 0.55763 0.19963 0.0
C1266 C 0.19339 0.55319 0.20348 0.0
C1267 C 0.21595 0.55825 0.23123 0.0
C1268 C 0.20739 0.55448 0.19171 0.0
C1269 C 0.22957 0.5595 0.21898 0.0
C1270 C 0.13563 0.51533 0.2502 0.0
C1271 C 0.13866 0.49803 0.25613 0.0
C1272 C 0.11795 0.51852 0.24842 0.0
C1273 C 0.12395 0.48433 0.2605 0.0
C1274 C 0.10361 0.50449 0.25296 0.0
N1275 N 0.10688 0.48782 0.25886 0.0
C1276 C 0.18869 0.50988 0.27171 0.0
C1277 C 0.19814 0.50969 0.24046 0.0
C1278 C 0.19858 0.49606 0.27543 0.0
N1279 N 0.18878 0.51641 0.25457 0.0
C1280 C 0.20831 0.4958 0.24359 0.0
C1281 C 0.2086 0.48895 0.26131 0.0
H1282 H 0.1811 0.51569 0.28258 0.0
H1283 H 0.19788 0.51526 0.22698 0.0
C1284 C 0.14836 0.56821 0.20111 0.0
N1285 N 0.14553 0.55227 0.21019 0.0
C1286 C 0.13821 0.56748 0.18352 0.0
C1287 C 0.12269 0.53399 0.18526 0.0
C1288 C 0.13317 0.53534 0.20268 0.0
C1289 C 0.12517 0.55018 0.17548 0.0
H1290 H 0.15842 0.58142 0.2076 0.0
H1291 H 0.13132 0.52297 0.21034 0.0
O1292 O 0.17831 0.55338 0.27773 0.0
O1293 O 0.15674 0.57508 0.25384 0.0
O1294 O 0.18415 0.55495 0.23518 0.0
O1295 O 0.14978 0.52866 0.24538 0.0
H1296 H 0.17417 0.56611 0.31381 0.0
H1297 H 0.21311 0.5528 0.27584 0.0
H1298 H 0.19936 0.5769 0.34079 0.0
H1299 H 0.23764 0.56407 0.30335 0.0
H1300 H 0.10335 0.58942 0.23224 0.0
H1301 H 0.16986 0.61234 0.25094 0.0
H1302 H 0.12116 0.56597 0.24253 0.0
H1303 H 0.15118 0.63509 0.24074 0.0
H1304 H 0.21468 0.62839 0.30729 0.0
H1305 H 0.23402 0.6225 0.25134 0.0
H1306 H 0.11959 0.5325 0.32141 0.0
H1307 H 0.12931 0.59318 0.31191 0.0
H1308 H 0.17938 0.55076 0.19714 0.0
H1309 H 0.21962 0.5601 0.24659 0.0
H1310 H 0.20423 0.55305 0.17626 0.0
H1311 H 0.24374 0.56208 0.22486 0.0
H1312 H 0.15216 0.49508 0.25715 0.0
H1313 H 0.11534 0.53169 0.24358 0.0
H1314 H 0.1261 0.47088 0.26511 0.0
H1315 H 0.08986 0.50681 0.25174 0.0
H1316 H 0.19874 0.49135 0.28938 0.0
H1317 H 0.21583 0.49049 0.23235 0.0
H1318 H 0.14059 0.58019 0.17626 0.0
H1319 H 0.11255 0.52052 0.17968 0.0
Li1320 Li 0.79926 0.90247 0.53319 0.0
Li1321 Li 0.81296 0.87986 0.55254 0.0
Li1322 Li 0.83388 0.90571 0.53531 0.0
Li1323 Li 0.81181 0.87519 0.51626 0.0
C1324 C 0.8162 0.92515 0.56986 0.0
N1325 N 0.81154 0.95619 0.59623 0.0
C1326 C 0.80804 0.92152 0.5864 0.0
C1327 C 0.82221 0.94454 0.56683 0.0
C1328 C 0.80575 0.93742 0.59953 0.0
C1329 C 0.81967 0.96004 0.58031 0.0
C1330 C 0.77627 0.8584 0.52852 0.0
C1331 C 0.76258 0.82355 0.52121 0.0
N1332 N 0.74575 0.82768 0.51964 0.0
C1333 C 0.75884 0.8623 0.52684 0.0
C1334 C 0.77818 0.83889 0.52574 0.0
C1335 C 0.74358 0.84656 0.52236 0.0
C1336 C 0.77029 0.91515 0.51276 0.0
N1337 N 0.77898 0.91583 0.53067 0.0
C1338 C 0.75748 0.93263 0.54483 0.0
C1339 C 0.77275 0.9243 0.54657 0.0
C1340 C 0.74819 0.93215 0.52654 0.0
C1341 C 0.75494 0.92331 0.51035 0.0
H1342 H 0.77504 0.90787 0.50028 0.0
H1343 H 0.77935 0.92431 0.56071 0.0
C1344 C 0.82586 0.8628 0.58459 0.0
N1345 N 0.81103 0.86757 0.57575 0.0
C1346 C 0.82487 0.85506 0.60184 0.0
C1347 C 0.79335 0.85723 0.60073 0.0
C1348 C 0.79489 0.86471 0.58338 0.0
C1349 C 0.8085 0.85235 0.61035 0.0
H1350 H 0.8386 0.86525 0.57839 0.0
H1351 H 0.78323 0.86858 0.57616 0.0
C1352 C 0.81423 0.91479 0.49908 0.0
N1353 N 0.81083 0.93868 0.47178 0.0
C1354 C 0.81173 0.90688 0.47946 0.0
C1355 C 0.81503 0.93484 0.50482 0.0
C1356 C 0.81008 0.9192 0.46588 0.0
C1357 C 0.81322 0.94667 0.4908 0.0
C1358 C 0.8423 0.8623 0.53214 0.0
C1359 C 0.85939 0.86653 0.52554 0.0
C1360 C 0.8346 0.84305 0.53456 0.0
C1361 C 0.86834 0.85126 0.52104 0.0
C1362 C 0.84396 0.82819 0.52988 0.0
N1363 N 0.86048 0.83256 0.52324 0.0
C1364 C 0.86971 0.93058 0.5515 0.0
C1365 C 0.86342 0.92573 0.51758 0.0
C1366 C 0.88728 0.94201 0.55072 0.0
N1367 N 0.85812 0.92272 0.53506 0.0
C1368 C 0.8808 0.93707 0.51615 0.0
C1369 C 0.89314 0.94551 0.53284 0.0
H1370 H 0.86536 0.92792 0.56528 0.0
H1371 H 0.8542 0.91911 0.50463 0.0
C1372 C 0.79238 0.84987 0.48165 0.0
N1373 N 0.80913 0.8577 0.49183 0.0
C1374 C 0.7908 0.84031 0.46252 0.0
C1375 C 0.82365 0.84678 0.46473 0.0
C1376 C 0.82459 0.85619 0.48374 0.0
C1377 C 0.8066 0.83899 0.45362 0.0
H1378 H 0.78024 0.85183 0.48801 0.0
H1379 H 0.83775 0.86335 0.49163 0.0
O1380 O 0.81845 0.90977 0.55681 0.0
O1381 O 0.79135 0.87369 0.53258 0.0
O1382 O 0.81568 0.90289 0.51255 0.0
O1383 O 0.83327 0.87702 0.53641 0.0
H1384 H 0.80339 0.90661 0.589 0.0
H1385 H 0.82876 0.94757 0.55422 0.0
H1386 H 0.79935 0.93484 0.61234 0.0
H1387 H 0.82417 0.97514 0.57813 0.0
H1388 H 0.76386 0.80837 0.51889 0.0
H1389 H 0.7571 0.87732 0.52898 0.0
H1390 H 0.79155 0.83561 0.52676 0.0
H1391 H 0.73 0.84937 0.52103 0.0
H1392 H 0.75303 0.93942 0.55777 0.0
H1393 H 0.74815 0.92222 0.49596 0.0
H1394 H 0.83697 0.85168 0.6087 0.0
H1395 H 0.78038 0.85517 0.60649 0.0
H1396 H 0.81109 0.89139 0.47474 0.0
H1397 H 0.81684 0.94115 0.51995 0.0
H1398 H 0.80817 0.91329 0.45065 0.0
H1399 H 0.81371 0.9622 0.49503 0.0
H1400 H 0.86559 0.88141 0.52374 0.0
H1401 H 0.8216 0.83965 0.54009 0.0
H1402 H 0.88151 0.85427 0.51577 0.0
H1403 H 0.83812 0.81319 0.53157 0.0
H1404 H 0.89606 0.94825 0.56406 0.0
H1405 H 0.88459 0.93887 0.50197 0.0
H1406 H 0.77732 0.83449 0.45467 0.0
H1407 H 0.83625 0.84665 0.45851 0.0
Li1408 Li 0.94432 0.06643 0.28247 0.0
Li1409 Li 0.91624 0.042 0.26146 0.0
Li1410 Li 0.94253 0.06413 0.24307 0.0
Li1411 Li 0.91915 0.0832 0.26353 0.0
C1412 C 0.95622 0.03271 0.26341 0.0
N1413 N 0.98242 1.01122 0.26872 0.0
C1414 C 0.95272 0.01662 0.27316 0.0
C1415 C 0.973 0.03786 0.25633 0.0
C1416 C 0.96616 1.00593 0.27569 0.0
C1417 C 0.98609 0.02683 0.2592 0.0
C1418 C 0.90758 0.05975 0.29893 0.0
C1419 C 0.88287 0.06261 0.31784 0.0
N1420 N 0.88902 0.05125 0.32981 0.0
C1421 C 0.91342 0.04774 0.31116 0.0
C1422 C 0.89202 0.06699 0.30209 0.0
C1423 C 0.90395 0.04376 0.3268 0.0
C1424 C 0.95463 0.07532 0.32618 0.0
N1425 N 0.96011 0.06744 0.30938 0.0
C1426 C 0.98386 0.05745 0.32897 0.0
C1427 C 0.97479 0.05884 0.31079 0.0
C1428 C 0.97801 0.06474 0.34655 0.0
C1429 C 0.96313 0.07397 0.34462 0.0
H1430 H 0.94318 0.08231 0.32545 0.0
H1431 H 0.97947 0.05259 0.2978 0.0
C1432 C 0.90438 0.99714 0.2504 0.0
N1433 N 0.90039 1.01311 0.26132 0.0
C1434 C 0.89513 0.97738 0.25112 0.0
C1435 C 0.8775 0.99006 0.27433 0.0
C1436 C 0.88702 1.00957 0.27313 0.0
C1437 C 0.8813 0.97317 0.26328 0.0
H1438 H 0.91504 0.99959 0.24113 0.0
H1439 H 0.88374 0.02189 0.28204 0.0
C1440 C 0.96249 0.10371 0.26926 0.0
N1441 N 0.99297 0.13444 0.27823 0.0
C1442 C 0.96062 0.12321 0.27082 0.0
C1443 C 0.97982 0.09979 0.27227 0.0
C1444 C 0.97621 0.13856 0.27534 0.0
C1445 C 0.99508 0.11555 0.27681 0.0
C1446 C 0.90229 0.05983 0.22461 0.0
C1447 C 0.90834 0.06982 0.20982 0.0
C1448 C 0.88403 0.04994 0.22338 0.0
C1449 C 0.89593 0.06971 0.19392 0.0
C1450 C 0.87203 0.05022 0.20725 0.0
N1451 N 0.87819 0.06 0.19298 0.0
C1452 C 0.95157 0.04617 0.20331 0.0
C1453 C 0.96892 0.07838 0.21345 0.0
C1454 C 0.95988 0.04468 0.18583 0.0
N1455 N 0.95599 0.06287 0.21707 0.0
C1456 C 0.97753 0.07749 0.19613 0.0
C1457 C 0.97328 0.06044 0.18152 0.0
H1458 H 0.94144 0.03368 0.20578 0.0
H1459 H 0.97267 0.09177 0.22399 0.0
C1460 C 0.89907 0.11576 0.28089 0.0
N1461 N 0.90563 0.10835 0.2645 0.0
C1462 C 0.89025 0.13206 0.28181 0.0
C1463 C 0.89536 0.13434 0.24935 0.0
C1464 C 0.90378 0.11774 0.24888 0.0
C1465 C 0.88808 0.14206 0.26594 0.0
H1466 H 0.90073 0.10923 0.29368 0.0
H1467 H 0.90892 0.11248 0.23576 0.0
O1468 O 0.94328 0.04333 0.26067 0.0
O1469 O 0.91707 0.06449 0.284 0.0
O1470 O 0.94738 0.08853 0.26505 0.0
O1471 O 0.91425 0.05964 0.24019 0.0
H1472 H 0.9398 1.01248 0.27874 0.0
H1473 H 0.97589 0.0503 0.24876 0.0
H1474 H 0.96367 0.99343 0.2832 0.0
H1475 H 0.99915 0.03067 0.25385 0.0
H1476 H 0.87088 0.06823 0.32053 0.0
H1477 H 0.92521 0.04165 0.30865 0.0
H1478 H 0.88701 0.0758 0.29243 0.0
H1479 H 0.90845 0.0347 0.33654 0.0
H1480 H 0.99511 0.05012 0.32913 0.0
H1481 H 0.95801 0.08025 0.35735 0.0
H1482 H 0.89885 0.96549 0.24197 0.0
H1483 H 0.86741 0.98839 0.2843 0.0
H1484 H 0.94726 0.12645 0.26856 0.0
H1485 H 0.98145 0.08475 0.27123 0.0
H1486 H 0.97499 0.15374 0.27657 0.0
H1487 H 1.00858 0.11277 0.27924 0.0
H1488 H 0.92246 0.07756 0.21062 0.0
H1489 H 0.87919 0.04214 0.23475 0.0
H1490 H 0.9004 0.07735 0.18233 0.0
H1491 H 0.85784 0.04264 0.20608 0.0
H1492 H 0.95579 0.03092 0.17586 0.0
H1493 H 0.98737 0.09047 0.19427 0.0
H1494 H 0.88546 0.13702 0.29525 0.0
H1495 H 0.89433 0.14089 0.23645 0.0
Li1496 Li 0.28819 0.66646 0.54896 0.0
Li1497 Li 0.30488 0.64625 0.52731 0.0
Li1498 Li 0.28659 0.66804 0.51476 0.0
Li1499 Li 0.27219 0.63752 0.52487 0.0
C1500 C 0.3207 0.69247 0.53224 0.0
N1501 N 0.34557 0.72651 0.52916 0.0
C1502 C 0.3362 0.69134 0.52306 0.0
C1503 C 0.31791 0.71089 0.54 0.0
C1504 C 0.34862 0.70872 0.52164 0.0
C1505 C 0.3306 0.72794 0.53821 0.0
C1506 C 0.28386 0.62349 0.55798 0.0
C1507 C 0.28075 0.58983 0.56312 0.0
N1508 N 0.27194 0.59379 0.57872 0.0
C1509 C 0.27487 0.62727 0.57412 0.0
C1510 C 0.28697 0.60468 0.5525 0.0
C1511 C 0.26893 0.61205 0.5844 0.0
C1512 C 0.27156 0.68296 0.57869 0.0
N1513 N 0.28798 0.68174 0.57278 0.0
C1514 C 0.30368 0.70553 0.59964 0.0
C1515 C 0.30391 0.6925 0.58286 0.0
C1516 C 0.28687 0.7075 0.60589 0.0
C1517 C 0.27066 0.69589 0.59525 0.0
H1518 H 0.25912 0.67413 0.57033 0.0
H1519 H 0.31674 0.6912 0.57767 0.0
C1520 C 0.33173 0.63477 0.50718 0.0
N1521 N 0.32524 0.63578 0.52454 0.0
C1522 C 0.34626 0.62585 0.50407 0.0
C1523 C 0.34701 0.61922 0.53682 0.0
C1524 C 0.33249 0.62832 0.53929 0.0
C1525 C 0.35402 0.61789 0.51901 0.0
H1526 H 0.32549 0.64078 0.49573 0.0
H1527 H 0.32678 0.62918 0.55283 0.0
C1528 C 0.25431 0.6752 0.53058 0.0
N1529 N 0.22957 0.69906 0.52932 0.0
C1530 C 0.2356 0.66681 0.52646 0.0
C1531 C 0.26042 0.69572 0.53415 0.0
C1532 C 0.22332 0.67912 0.52585 0.0
C1533 C 0.2477 0.70753 0.53345 0.0
C1534 C 0.28406 0.62584 0.48906 0.0
C1535 C 0.27901 0.62888 0.47042 0.0
C1536 C 0.285 0.60693 0.49234 0.0
C1537 C 0.2748 0.61285 0.45534 0.0
C1538 C 0.28068 0.59128 0.47688 0.0
N1539 N 0.27569 0.59453 0.45886 0.0
C1540 C 0.29469 0.69674 0.48924 0.0
C1541 C 0.26475 0.67684 0.48701 0.0
C1542 C 0.28947 0.70525 0.47357 0.0
N1543 N 0.28227 0.6828 0.49553 0.0
C1544 C 0.2589 0.68511 0.47165 0.0
C1545 C 0.27135 0.69933 0.46465 0.0
H1546 H 0.30865 0.70088 0.49597 0.0
H1547 H 0.2554 0.6652 0.49185 0.0
C1548 C 0.24228 0.60586 0.52905 0.0
N1549 N 0.25059 0.61802 0.51756 0.0
C1550 C 0.2241 0.59587 0.52389 0.0
C1551 C 0.22394 0.61017 0.49471 0.0
C1552 C 0.24202 0.61982 0.50041 0.0
C1553 C 0.2146 0.5988 0.50697 0.0
H1554 H 0.2491 0.60503 0.54283 0.0
H1555 H 0.24873 0.6301 0.4919 0.0
O1556 O 0.30876 0.67557 0.53435 0.0
O1557 O 0.29008 0.63831 0.54798 0.0
O1558 O 0.26652 0.66331 0.53074 0.0
O1559 O 0.28772 0.64131 0.50403 0.0
H1560 H 0.33869 0.67719 0.51719 0.0
H1561 H 0.30618 0.71204 0.54748 0.0
H1562 H 0.3607 0.70807 0.51461 0.0
H1563 H 0.3286 0.74231 0.54412 0.0
H1564 H 0.28297 0.57517 0.55899 0.0
H1565 H 0.2725 0.64179 0.57866 0.0
H1566 H 0.2941 0.60157 0.54019 0.0
H1567 H 0.26192 0.61475 0.59691 0.0
H1568 H 0.31651 0.71392 0.60761 0.0
H1569 H 0.25742 0.69707 0.59944 0.0
H1570 H 0.3514 0.62524 0.4902 0.0
H1571 H 0.35245 0.61296 0.54857 0.0
H1572 H 0.23061 0.65096 0.52374 0.0
H1573 H 0.27483 0.70242 0.53727 0.0
H1574 H 0.20882 0.67282 0.5226 0.0
H1575 H 0.25225 0.72343 0.53612 0.0
H1576 H 0.27824 0.64345 0.46765 0.0
H1577 H 0.28887 0.60437 0.50669 0.0
H1578 H 0.27078 0.61497 0.44085 0.0
H1579 H 0.28124 0.57653 0.47921 0.0
H1580 H 0.29943 0.71612 0.46834 0.0
H1581 H 0.24496 0.67986 0.46482 0.0
H1582 H 0.21716 0.58742 0.53384 0.0
H1583 H 0.21696 0.61277 0.4816 0.0
Li1584 Li 0.41629 0.54148 0.7611 0.0
Li1585 Li 0.44483 0.56606 0.78202 0.0
Li1586 Li 0.4194 0.58278 0.76327 0.0
Li1587 Li 0.44251 0.56368 0.74258 0.0
C1588 C 0.4082 0.56088 0.79913 0.0
N1589 N 0.38978 0.55579 0.83083 0.0
C1590 C 0.4152 0.55218 0.81382 0.0
C1591 C 0.39168 0.56668 0.8004 0.0
C1592 C 0.40572 0.5498 0.82976 0.0
C1593 C 0.38261 0.56407 0.81658 0.0
C1594 C 0.4563 0.53191 0.761 0.0
C1595 C 0.48705 0.52833 0.75796 0.0
N1596 N 0.48272 0.5102 0.7632 0.0
C1597 C 0.45209 0.51318 0.7662 0.0
C1598 C 0.47385 0.53952 0.7567 0.0
C1599 C 0.46567 0.50245 0.76728 0.0
C1600 C 0.39069 0.50066 0.74515 0.0
N1601 N 0.40047 0.51262 0.76135 0.0
C1602 C 0.39164 0.4853 0.77907 0.0
C1603 C 0.40094 0.50496 0.77812 0.0
C1604 C 0.38138 0.47251 0.76262 0.0
C1605 C 0.38117 0.4809 0.74549 0.0
H1606 H 0.3904 0.50627 0.73167 0.0
H1607 H 0.40884 0.51399 0.791 0.0
C1608 C 0.46139 0.5812 0.82439 0.0
N1609 N 0.46081 0.56699 0.80873 0.0
C1610 C 0.47026 0.58049 0.8429 0.0
C1611 C 0.4783 0.55072 0.82951 0.0
C1612 C 0.46932 0.55198 0.81132 0.0
C1613 C 0.47894 0.56495 0.84608 0.0
H1614 H 0.45457 0.59306 0.82278 0.0
H1615 H 0.46885 0.54042 0.79938 0.0
C1616 C 0.40226 0.55953 0.72439 0.0
N1617 N 0.37816 0.55994 0.69282 0.0
C1618 C 0.40827 0.5698 0.70976 0.0
C1619 C 0.38402 0.5495 0.72302 0.0
C1620 C 0.39587 0.5698 0.6939 0.0
C1621 C 0.37203 0.54989 0.70694 0.0
C1622 C 0.46237 0.60373 0.76903 0.0
C1623 C 0.45996 0.62297 0.76964 0.0
C1624 C 0.47982 0.60055 0.77342 0.0
C1625 C 0.47514 0.63878 0.77454 0.0
C1626 C 0.49464 0.61676 0.77827 0.0
N1627 N 0.49202 0.63537 0.77872 0.0
C1628 C 0.39864 0.61485 0.78046 0.0
C1629 C 0.40466 0.61782 0.74897 0.0
C1630 C 0.38986 0.63117 0.78137 0.0
N1631 N 0.40586 0.60793 0.76432 0.0
C1632 C 0.39626 0.63444 0.74944 0.0
C1633 C 0.38836 0.64169 0.76577 0.0
H1634 H 0.39971 0.60785 0.79303 0.0
H1635 H 0.4103 0.61295 0.73605 0.0
C1636 C 0.45073 0.54616 0.70223 0.0
N1637 N 0.4559 0.56239 0.7165 0.0
C1638 C 0.45901 0.5447 0.68472 0.0
C1639 C 0.47817 0.5766 0.69604 0.0
C1640 C 0.46956 0.57747 0.71336 0.0
C1641 C 0.47317 0.56002 0.68091 0.0
H1642 H 0.44001 0.53401 0.70429 0.0
H1643 H 0.47392 0.5905 0.72431 0.0
O1644 O 0.41763 0.56409 0.78377 0.0
O1645 O 0.44333 0.54282 0.76017 0.0
O1646 O 0.41421 0.55918 0.73991 0.0
O1647 O 0.44764 0.5881 0.76457 0.0
H1648 H 0.42776 0.54723 0.81291 0.0
H1649 H 0.38592 0.57312 0.78899 0.0
H1650 H 0.41104 0.54318 0.84128 0.0
H1651 H 0.36987 0.56862 0.81782 0.0
H1652 H 0.50072 0.53406 0.75477 0.0
H1653 H 0.43855 0.50708 0.76953 0.0
H1654 H 0.47725 0.55391 0.75245 0.0
H1655 H 0.46266 0.48798 0.7714 0.0
H1656 H 0.39247 0.48032 0.79284 0.0
H1657 H 0.37397 0.47216 0.73211 0.0
H1658 H 0.47024 0.5922 0.85464 0.0
H1659 H 0.48425 0.53813 0.83051 0.0
H1660 H 0.42237 0.57764 0.71066 0.0
H1661 H 0.3792 0.5415 0.73428 0.0
H1662 H 0.40032 0.57765 0.68243 0.0
H1663 H 0.35787 0.54219 0.70566 0.0
H1664 H 0.44651 0.62566 0.76639 0.0
H1665 H 0.48185 0.58575 0.77326 0.0
H1666 H 0.4735 0.65376 0.77506 0.0
H1667 H 0.50823 0.61454 0.78173 0.0
H1668 H 0.38455 0.63574 0.79461 0.0
H1669 H 0.39576 0.64138 0.73675 0.0
H1670 H 0.45429 0.53129 0.67434 0.0
H1671 H 0.48862 0.58925 0.69461 0.0
Li1672 Li 0.65426 0.05357 0.76493 0.0
Li1673 Li 0.68201 0.07295 0.75546 0.0
Li1674 Li 0.65812 0.0515 0.73166 0.0
Li1675 Li 0.67798 0.03752 0.75327 0.0
C1676 C 0.64656 0.08809 0.74599 0.0
N1677 N 0.62479 0.1145 0.74109 0.0
C1678 C 0.65342 0.10826 0.75248 0.0
C1679 C 0.62863 0.08132 0.737 0.0
C1680 C 0.64219 0.12138 0.74991 0.0
C1681 C 0.61786 0.09493 0.7346 0.0
C1682 C 0.6925 0.06173 0.79195 0.0
C1683 C 0.72382 0.06672 0.80578 0.0
N1684 N 0.71917 0.0734 0.82329 0.0
C1685 C 0.68799 0.06843 0.81013 0.0
C1686 C 0.71051 0.06068 0.78979 0.0
C1687 C 0.70168 0.07433 0.82577 0.0
C1688 C 0.63734 0.04173 0.7966 0.0
N1689 N 0.63852 0.05457 0.78388 0.0
C1690 C 0.62391 0.07552 0.80332 0.0
C1691 C 0.63145 0.0708 0.78662 0.0
C1692 C 0.62349 0.06334 0.81743 0.0
C1693 C 0.62955 0.0457 0.81353 0.0
H1694 H 0.6435 0.02915 0.79423 0.0
H1695 H 0.63294 0.08106 0.77672 0.0
C1696 C 0.70943 0.1039 0.74823 0.0
N1697 N 0.69939 0.09665 0.7617 0.0
C1698 C 0.72489 0.11904 0.75392 0.0
C1699 C 0.71815 0.12022 0.78691 0.0
C1700 C 0.70274 0.10523 0.78051 0.0
C1701 C 0.72975 0.12679 0.77359 0.0
H1702 H 0.70576 0.0976 0.73319 0.0
H1703 H 0.69377 0.10001 0.79066 0.0
C1704 C 0.63639 0.01651 0.75041 0.0
N1705 N 0.60649 0.99088 0.75949 0.0
C1706 C 0.63859 0.99968 0.75789 0.0
C1707 C 0.61899 0.02025 0.74743 0.0
C1708 C 0.6233 0.98691 0.7624 0.0
C1709 C 0.60404 1.00715 0.75218 0.0
C1710 C 0.69905 0.05798 0.72259 0.0
C1711 C 0.6957 0.05959 0.70317 0.0
C1712 C 0.71705 0.06096 0.73111 0.0
C1713 C 0.7104 0.06449 0.6927 0.0
C1714 C 0.73139 0.06595 0.72019 0.0
N1715 N 0.7278 0.0676 0.70137 0.0
C1716 C 0.64795 0.06479 0.69867 0.0
C1717 C 0.63427 0.03139 0.70007 0.0
C1718 C 0.63778 0.06362 0.68106 0.0
N1719 N 0.64588 0.04883 0.70768 0.0
C1720 C 0.62369 0.02959 0.68257 0.0
C1721 C 0.6253 0.04592 0.673 0.0
H1722 H 0.65735 0.07843 0.70534 0.0
H1723 H 0.63298 0.01908 0.70782 0.0
C1724 C 0.6902 1.01171 0.77351 0.0
N1725 N 0.69045 0.01823 0.75636 0.0
C1726 C 0.70043 0.99822 0.77752 0.0
C1727 C 0.71075 0.99835 0.74595 0.0
C1728 C 0.7003 1.0119 0.74257 0.0
C1729 C 0.71092 0.99151 0.76366 0.0
H1730 H 0.68218 0.01721 0.78412 0.0
H1731 H 0.70022 0.01756 0.72913 0.0
O1732 O 0.65706 0.07502 0.74953 0.0
O1733 O 0.67938 0.05674 0.77634 0.0
O1734 O 0.65113 0.02892 0.74548 0.0
O1735 O 0.68474 0.05348 0.73308 0.0
H1736 H 0.66718 0.1137 0.75973 0.0
H1737 H 0.62302 0.06574 0.73211 0.0
H1738 H 0.64727 0.13702 0.75501 0.0
H1739 H 0.60396 0.08991 0.7277 0.0
H1740 H 0.73784 0.06612 0.80427 0.0
H1741 H 0.67411 0.06939 0.81204 0.0
H1742 H 0.71419 0.0553 0.77595 0.0
H1743 H 0.69842 0.07973 0.83987 0.0
H1744 H 0.61989 0.08948 0.80566 0.0
H1745 H 0.62921 0.03565 0.82382 0.0
H1746 H 0.733 0.12449 0.74309 0.0
H1747 H 0.72118 0.12619 0.80214 0.0
H1748 H 0.65193 0.99643 0.76003 0.0
H1749 H 0.61707 0.03315 0.74153 0.0
H1750 H 0.62478 0.9738 0.76817 0.0
H1751 H 0.5905 1.00989 0.75001 0.0
H1752 H 0.68192 0.05698 0.69618 0.0
H1753 H 0.71997 0.05975 0.74604 0.0
H1754 H 0.70797 0.06582 0.67768 0.0
H1755 H 0.74538 0.06854 0.72668 0.0
H1756 H 0.63956 0.07642 0.67393 0.0
H1757 H 0.61402 0.0158 0.67689 0.0
H1758 H 0.7001 0.99303 0.79122 0.0
H1759 H 0.71884 0.99356 0.73504 0.0
Li1760 Li 0.78949 0.71002 0.02238 0.0
Li1761 Li 0.80299 0.68337 1.00674 0.0
Li1762 Li 0.78912 0.70617 0.98662 0.0
Li1763 Li 0.76807 0.68009 1.00313 0.0
C1764 C 0.82501 0.72788 0.01381 0.0
N1765 N 0.8543 0.75912 0.02757 0.0
C1766 C 0.83925 0.72545 0.02659 0.0
C1767 C 0.82574 0.74612 1.00785 0.0
C1768 C 0.85393 0.74144 0.03342 0.0
C1769 C 0.84064 0.76176 0.01504 0.0
C1770 C 0.78709 0.67157 0.04053 0.0
C1771 C 0.78123 0.64042 0.05198 0.0
N1772 N 0.78999 0.64961 0.0696 0.0
C1773 C 0.79601 0.68072 0.05875 0.0
C1774 C 0.77961 0.65127 0.03708 0.0
C1775 C 0.79735 0.66935 0.07326 0.0
C1776 C 0.77483 0.72188 0.0555 0.0
N1777 N 0.79021 0.72678 0.0469 0.0
C1778 C 0.80501 0.74883 0.07568 0.0
C1779 C 0.80507 0.7403 0.05647 0.0
C1780 C 0.78951 0.74345 0.08518 0.0
C1781 C 0.77411 0.73017 0.07454 0.0
H1782 H 0.7633 0.71084 0.04779 0.0
H1783 H 0.81727 0.74392 0.04961 0.0
C1784 C 0.82975 0.66236 0.99313 0.0
N1785 N 0.82303 0.66977 1.00918 0.0
C1786 C 0.84484 0.65365 0.9947 0.0
C1787 C 0.84601 0.66037 0.02927 0.0
C1788 C 0.83093 0.66894 0.02704 0.0
C1789 C 0.8533 0.65257 0.01298 0.0
H1790 H 0.82352 0.6634 0.97905 0.0
H1791 H 0.82584 0.67538 0.03966 0.0
C1792 C 0.76071 0.72387 1.00858 0.0
N1793 N 0.74533 0.75477 0.02204 0.0
C1794 C 0.74313 0.72009 0.01407 0.0
C1795 C 0.77045 0.74334 1.00984 0.0
C1796 C 0.73559 0.73593 0.02084 0.0
C1797 C 0.76246 0.75877 0.01674 0.0
C1798 C 0.78218 0.66049 0.96839 0.0
C1799 C 0.77863 0.6628 0.94921 0.0
C1800 C 0.78339 0.64201 0.97275 0.0
C1801 C 0.77642 0.64651 0.93463 0.0
C1802 C 0.78113 0.62609 0.95775 0.0
N1803 N 0.77773 0.62866 0.93916 0.0
C1804 C 0.80564 0.71604 0.95324 0.0
C1805 C 0.77911 0.72831 0.95717 0.0
C1806 C 0.80766 0.72377 0.93609 0.0
N1807 N 0.79147 0.71829 0.96337 0.0
C1808 C 0.78069 0.73642 0.94014 0.0
C1809 C 0.79508 0.73416 0.92913 0.0
H1810 H 0.81528 0.70794 0.95833 0.0
H1811 H 0.76793 0.72998 0.96539 0.0
C1812 C 0.73666 0.66392 0.02003 0.0
N1813 N 0.7439 0.66292 1.003 0.0
C1814 C 0.71916 0.65279 0.02135 0.0
C1815 C 0.71663 0.63966 0.98754 0.0
C1816 C 0.73424 0.65103 0.98688 0.0
C1817 C 0.7087 0.64038 1.00496 0.0
H1818 H 0.7445 0.6735 0.03269 0.0
H1819 H 0.7401 0.65051 0.97342 0.0
O1820 O 0.81069 0.71232 1.00671 0.0
O1821 O 0.78543 0.68247 0.0262 0.0
O1822 O 0.76832 0.70858 1.00193 0.0
O1823 O 0.78492 0.67641 0.98275 0.0
H1824 H 0.83893 0.7114 0.03126 0.0
H1825 H 0.81498 0.74813 0.9977 0.0
H1826 H 0.86502 0.73981 0.04338 0.0
H1827 H 0.84137 0.77598 0.01061 0.0
H1828 H 0.77551 0.62469 0.04953 0.0
H1829 H 0.80199 0.6964 0.06163 0.0
H1830 H 0.77262 0.644 0.02305 0.0
H1831 H 0.80426 0.67623 0.08742 0.0
H1832 H 0.8173 0.75884 0.08324 0.0
H1833 H 0.76169 0.7258 0.08096 0.0
H1834 H 0.84974 0.64772 0.98167 0.0
H1835 H 0.85216 0.66031 0.04368 0.0
H1836 H 0.73539 0.70509 0.0131 0.0
H1837 H 0.78406 0.74648 1.00563 0.0
H1838 H 0.72199 0.73323 0.02513 0.0
H1839 H 0.76986 0.77392 0.01788 0.0
H1840 H 0.77765 0.67703 0.94563 0.0
H1841 H 0.78621 0.64005 0.98755 0.0
H1842 H 0.7737 0.64809 0.91971 0.0
H1843 H 0.78213 0.6117 0.96087 0.0
H1844 H 0.81883 0.72121 0.92819 0.0
H1845 H 0.77075 0.74451 0.93579 0.0
H1846 H 0.71402 0.65378 0.0352 0.0
H1847 H 0.70922 0.63066 0.97437 0.0
Li1848 Li 0.91743 0.51574 0.78102 0.0
Li1849 Li 0.94078 0.53374 0.80585 0.0
Li1850 Li 0.92299 0.55076 0.78528 0.0
Li1851 Li 0.94547 0.53292 0.77253 0.0
C1852 C 0.90168 0.52477 0.81468 0.0
N1853 N 0.87618 0.50662 0.83604 0.0
C1854 C 0.90514 0.50954 0.82413 0.0
C1855 C 0.88524 0.53074 0.81605 0.0
C1856 C 0.8921 0.5006 0.83492 0.0
C1857 C 0.8725 0.52135 0.82688 0.0
C1858 C 0.95281 0.49892 0.79074 0.0
C1859 C 0.98314 0.49317 0.79563 0.0
N1860 N 0.97583 0.474 0.79672 0.0
C1861 C 0.9456 0.47916 0.7919 0.0
C1862 C 0.97172 0.50601 0.7926 0.0
C1863 C 0.95747 0.46681 0.79496 0.0
C1864 C 0.90608 0.4808 0.75758 0.0
N1865 N 0.9003 0.49274 0.77142 0.0
C1866 C 0.87075 0.47174 0.76674 0.0
C1867 C 0.88294 0.48886 0.77586 0.0
C1868 C 0.87649 0.4588 0.75271 0.0
C1869 C 0.89426 0.46372 0.74779 0.0
H1870 H 0.91985 0.48474 0.75403 0.0
H1871 H 0.8785 0.49899 0.78634 0.0
C1872 C 0.95926 0.5539 0.84038 0.0
N1873 N 0.9527 0.53544 0.83025 0.0
C1874 C 0.9698 0.55655 0.8581 0.0
C1875 C 0.96635 0.52109 0.85453 0.0
C1876 C 0.95567 0.51911 0.83705 0.0
C1877 C 0.97359 0.53999 0.865 0.0
H1878 H 0.95662 0.56653 0.83445 0.0
H1879 H 0.95004 0.50461 0.82881 0.0
C1880 C 0.90647 0.525 0.74739 0.0
N1881 N 0.87689 0.50741 0.72016 0.0
C1882 C 0.90909 0.5151 0.7296 0.0
C1883 C 0.88884 0.52617 0.75126 0.0
C1884 C 0.89395 0.50629 0.71602 0.0
C1885 C 0.87405 0.51709 0.73734 0.0
C1886 C 0.96472 0.56991 0.78959 0.0
C1887 C 0.96246 0.58581 0.78055 0.0
C1888 C 0.98227 0.56785 0.79548 0.0
C1889 C 0.97788 0.5993 0.77731 0.0
C1890 C 0.99734 0.58161 0.7919 0.0
N1891 N 0.99486 0.59692 0.78297 0.0
C1892 C 0.90466 0.57974 0.79805 0.0
C1893 C 0.90953 0.5758 0.76505 0.0
C1894 C 0.89419 0.5934 0.7952 0.0
N1895 N 0.91188 0.57126 0.78299 0.0
C1896 C 0.89903 0.58917 0.76149 0.0
C1897 C 0.89115 0.59796 0.77666 0.0
H1898 H 0.90664 0.57546 0.81206 0.0
H1899 H 0.91545 0.56861 0.75342 0.0
C1900 C 0.95894 0.51025 0.74677 0.0
N1901 N 0.96046 0.5297 0.75329 0.0
C1902 C 0.96659 0.50426 0.73055 0.0
C1903 C 0.97703 0.53854 0.72743 0.0
C1904 C 0.96927 0.54394 0.74408 0.0
C1905 C 0.97553 0.51842 0.72053 0.0
H1906 H 0.95087 0.49921 0.75348 0.0
H1907 H 0.96952 0.55926 0.74903 0.0
O1908 O 0.91427 0.53387 0.80413 0.0
O1909 O 0.9413 0.51091 0.78686 0.0
O1910 O 0.92105 0.53304 0.76117 0.0
O1911 O 0.94982 0.5568 0.79324 0.0
H1912 H 0.91766 0.50455 0.82299 0.0
H1913 H 0.88228 0.54238 0.80866 0.0
H1914 H 0.8946 0.48881 0.84234 0.0
H1915 H 0.85967 0.52576 0.82798 0.0
H1916 H 0.9978 0.49842 0.79699 0.0
H1917 H 0.93098 0.47343 0.79037 0.0
H1918 H 0.9775 0.52116 0.79144 0.0
H1919 H 0.95207 0.45148 0.79586 0.0
H1920 H 0.85727 0.46829 0.77128 0.0
H1921 H 0.89913 0.45416 0.73699 0.0
H1922 H 0.97534 0.57129 0.86605 0.0
H1923 H 0.96911 0.50811 0.85974 0.0
H1924 H 0.92266 0.51406 0.72641 0.0
H1925 H 0.88658 0.53362 0.76506 0.0
H1926 H 0.89575 0.49848 0.70223 0.0
H1927 H 0.86031 0.51763 0.74023 0.0
H1928 H 0.94896 0.58773 0.77611 0.0
H1929 H 0.98422 0.55585 0.80285 0.0
H1930 H 0.97635 0.61168 0.77031 0.0
H1931 H 1.01102 0.58017 0.79631 0.0
H1932 H 0.8881 0.59988 0.80714 0.0
H1933 H 0.89702 0.59256 0.74708 0.0
H1934 H 0.96458 0.48861 0.72527 0.0
H1935 H 0.98363 0.54982 0.71978 0.0
Li1936 Li 0.81443 0.41878 0.5254 0.0
Li1937 Li 0.79632 0.43968 0.51073 0.0
Li1938 Li 0.81362 0.4187 0.49092 0.0
Li1939 Li 0.82906 0.44827 0.51381 0.0
C1940 C 0.7809 0.39395 0.50911 0.0
N1941 N 0.75695 0.36098 0.51632 0.0
C1942 C 0.76567 0.39598 0.51848 0.0
C1943 C 0.78378 0.37513 0.5031 0.0
C1944 C 0.75376 0.37914 0.52206 0.0
C1945 C 0.77158 0.35865 0.50698 0.0
C1946 C 0.81692 0.46153 0.54886 0.0
C1947 C 0.82144 0.49644 0.56003 0.0
N1948 N 0.82623 0.49359 0.57825 0.0
C1949 C 0.82177 0.45891 0.5677 0.0
C1950 C 0.81663 0.4804 0.54496 0.0
C1951 C 0.82646 0.47532 0.58236 0.0
C1952 C 0.83591 0.40854 0.55314 0.0
N1953 N 0.81806 0.40569 0.54611 0.0
C1954 C 0.80878 0.38837 0.5715 0.0
C1955 C 0.80448 0.3961 0.55502 0.0
C1956 C 0.8272 0.39068 0.57876 0.0
C1957 C 0.84082 0.40088 0.56932 0.0
H1958 H 0.84638 0.41711 0.54637 0.0
H1959 H 0.79039 0.39484 0.54966 0.0
C1960 C 0.76831 0.45729 0.49806 0.0
N1961 N 0.77592 0.45015 0.51285 0.0
C1962 C 0.75374 0.46631 0.50072 0.0
C1963 C 0.75521 0.46015 0.53365 0.0
C1964 C 0.76978 0.45141 0.53039 0.0
C1965 C 0.74711 0.46781 0.51873 0.0
H1966 H 0.77373 0.45619 0.48436 0.0
H1967 H 0.77637 0.44575 0.54188 0.0
C1968 C 0.84675 0.41019 0.50792 0.0
N1969 N 0.87083 0.3856 0.50438 0.0
C1970 C 0.86534 0.4181 0.50787 0.0
C1971 C 0.8404 0.3898 0.50628 0.0
C1972 C 0.87731 0.40542 0.50605 0.0
C1973 C 0.85278 0.3776 0.50445 0.0
C1974 C 0.81891 0.46067 0.47975 0.0
C1975 C 0.82981 0.45621 0.46547 0.0
C1976 C 0.81517 0.47943 0.48308 0.0
C1977 C 0.83695 0.47071 0.45484 0.0
C1978 C 0.82259 0.49354 0.47216 0.0
N1979 N 0.83324 0.48892 0.4584 0.0
C1980 C 0.79684 0.39266 0.45787 0.0
C1981 C 0.82922 0.40001 0.46058 0.0
C1982 C 0.79575 0.37979 0.44065 0.0
N1983 N 0.81339 0.40239 0.46739 0.0
C1984 C 0.82877 0.38712 0.44352 0.0
C1985 C 0.81187 0.37689 0.43336 0.0
H1986 H 0.78452 0.39486 0.46374 0.0
H1987 H 0.84218 0.40817 0.46832 0.0
C1988 C 0.85834 0.46658 0.53903 0.0
N1989 N 0.85032 0.46813 0.52153 0.0
C1990 C 0.87563 0.47786 0.54614 0.0
C1991 C 0.87618 0.49227 0.51704 0.0
C1992 C 0.85857 0.48112 0.51076 0.0
C1993 C 0.8852 0.49 0.53458 0.0
H1994 H 0.85175 0.45563 0.54698 0.0
H1995 H 0.85219 0.4819 0.49677 0.0
O1996 O 0.79256 0.41026 0.50526 0.0
O1997 O 0.81296 0.4457 0.53426 0.0
O1998 O 0.83495 0.42248 0.51002 0.0
O1999 O 0.8116 0.44661 0.49012 0.0
H2000 H 0.76307 0.41037 0.52299 0.0
H2001 H 0.79519 0.37324 0.49536 0.0
H2002 H 0.74197 0.38051 0.52939 0.0
H2003 H 0.77368 0.344 0.50249 0.0
H2004 H 0.82143 0.51117 0.55723 0.0
H2005 H 0.82207 0.44438 0.57092 0.0
H2006 H 0.81297 0.48264 0.53043 0.0
H2007 H 0.83034 0.47353 0.597 0.0
H2008 H 0.79783 0.38095 0.5786 0.0
H2009 H 0.85518 0.40286 0.57426 0.0
H2010 H 0.74774 0.47203 0.48889 0.0
H2011 H 0.75061 0.46133 0.54779 0.0
H2012 H 0.87048 0.43389 0.50927 0.0
H2013 H 0.82611 0.3835 0.50658 0.0
H2014 H 0.89174 0.41133 0.506 0.0
H2015 H 0.84806 0.36178 0.50315 0.0
H2016 H 0.83279 0.44175 0.46268 0.0
H2017 H 0.80668 0.48307 0.49403 0.0
H2018 H 0.84546 0.46749 0.44379 0.0
H2019 H 0.8199 0.50815 0.47464 0.0
H2020 H 0.78248 0.37206 0.4332 0.0
H2021 H 0.84146 0.38545 0.43813 0.0
H2022 H 0.88197 0.47585 0.55984 0.0
H2023 H 0.88313 0.50121 0.50747 0.0
Li2024 Li 0.65755 0.52122 0.29587 0.0
Li2025 Li 0.68455 0.54345 0.27822 0.0
Li2026 Li 0.65697 0.51879 0.257 0.0
Li2027 Li 0.68111 0.50187 0.27503 0.0
C2028 C 0.64424 0.55183 0.27392 0.0
N2029 N 0.61731 0.57137 0.26486 0.0
C2030 C 0.64894 0.5716 0.27159 0.0
C2031 C 0.62588 0.54198 0.27163 0.0
C2032 C 0.63511 0.58124 0.26706 0.0
C2033 C 0.61246 0.5521 0.267 0.0
C2034 C 0.6986 0.52964 0.31478 0.0
C2035 C 0.72854 0.53011 0.33005 0.0
N2036 N 0.72409 0.53843 0.34707 0.0
C2037 C 0.69432 0.53827 0.33237 0.0
C2038 C 0.71584 0.52558 0.31354 0.0
C2039 C 0.7074 0.54259 0.34855 0.0
C2040 C 0.64165 0.50747 0.3324 0.0
N2041 N 0.64387 0.52248 0.32172 0.0
C2042 C 0.62912 0.54053 0.34578 0.0
C2043 C 0.63758 0.53884 0.32842 0.0
C2044 C 0.62669 0.52537 0.35728 0.0
C2045 C 0.63327 0.50861 0.34987 0.0
H2046 H 0.64648 0.49438 0.32751 0.0
H2047 H 0.63925 0.55097 0.32039 0.0
C2048 C 0.70249 0.5783 0.2608 0.0
N2049 N 0.70029 0.57223 0.2782 0.0
C2050 C 0.7118 0.59779 0.2594 0.0
C2051 C 0.71636 0.60548 0.29381 0.0
C2052 C 0.7071 0.58571 0.29458 0.0
C2053 C 0.71905 0.61213 0.27601 0.0
H2054 H 0.69669 0.56808 0.24771 0.0
H2055 H 0.7052 0.58133 0.30847 0.0
C2056 C 0.63838 0.4817 0.2656 0.0
N2057 N 0.60919 0.45171 0.24834 0.0
C2058 C 0.64108 0.46652 0.25184 0.0
C2059 C 0.62088 0.48159 0.27067 0.0
C2060 C 0.62614 0.45149 0.24326 0.0
C2061 C 0.60628 0.46631 0.26175 0.0
C2062 C 0.69004 0.51782 0.23805 0.0
C2063 C 0.67995 0.5023 0.2241 0.0
C2064 C 0.70623 0.52942 0.23396 0.0
C2065 C 0.68612 0.49882 0.20612 0.0
C2066 C 0.71198 0.52542 0.21583 0.0
N2067 N 0.70188 0.51035 0.20239 0.0
C2068 C 0.64547 0.53664 0.22316 0.0
C2069 C 0.62971 0.50353 0.21912 0.0
C2070 C 0.63696 0.53873 0.20501 0.0
N2071 N 0.64194 0.51924 0.23018 0.0
C2072 C 0.62095 0.50497 0.20076 0.0
C2073 C 0.62443 0.52279 0.193 0.0
H2074 H 0.65512 0.5492 0.23163 0.0
H2075 H 0.62679 0.48959 0.22428 0.0
C2076 C 0.70331 0.47257 0.29021 0.0
N2077 N 0.69493 0.47704 0.27389 0.0
C2078 C 0.7122 0.45635 0.28978 0.0
C2079 C 0.70387 0.44848 0.25582 0.0
C2080 C 0.69528 0.46497 0.25683 0.0
C2081 C 0.71279 0.44356 0.27241 0.0
H2082 H 0.70315 0.48155 0.30395 0.0
H2083 H 0.68882 0.46798 0.24365 0.0
O2084 O 0.65754 0.54213 0.27836 0.0
O2085 O 0.68581 0.52474 0.29894 0.0
O2086 O 0.65283 0.4965 0.27418 0.0
O2087 O 0.6842 0.52152 0.2557 0.0
H2088 H 0.66311 0.57943 0.27335 0.0
H2089 H 0.62205 0.52666 0.27332 0.0
H2090 H 0.63853 0.59657 0.26529 0.0
H2091 H 0.59819 0.54465 0.26511 0.0
H2092 H 0.74192 0.52697 0.32934 0.0
H2093 H 0.68103 0.54151 0.33354 0.0
H2094 H 0.71932 0.51888 0.29999 0.0
H2095 H 0.70427 0.5492 0.36229 0.0
H2096 H 0.62482 0.55405 0.35025 0.0
H2097 H 0.63186 0.49611 0.35739 0.0
H2098 H 0.71286 0.60166 0.24519 0.0
H2099 H 0.72153 0.61542 0.30723 0.0
H2100 H 0.65457 0.46638 0.24782 0.0
H2101 H 0.61862 0.49314 0.28146 0.0
H2102 H 0.62801 0.43965 0.23256 0.0
H2103 H 0.59265 0.46604 0.26551 0.0
H2104 H 0.66746 0.4931 0.22713 0.0
H2105 H 0.71434 0.54129 0.24472 0.0
H2106 H 0.6784 0.48693 0.19514 0.0
H2107 H 0.72449 0.53427 0.21245 0.0
H2108 H 0.64026 0.55305 0.20064 0.0
H2109 H 0.61175 0.4919 0.19262 0.0
H2110 H 0.71834 0.45374 0.30329 0.0
H2111 H 0.70367 0.4398 0.24182 0.0
La2112 La 0.03221 0.0318 1.00821 0.0
La2113 La 0.06737 0.05303 0.03067 0.0
C2114 C 0.99877 0.0182 0.99738 0.0
C2115 C 0.98276 0.02644 0.99987 0.0
C2116 C 0.96827 0.02168 0.985 0.0
C2117 C 0.95416 0.03166 0.98575 0.0
C2118 C 0.95434 0.04648 1.00146 0.0
C2119 C 0.96878 0.05093 0.01652 0.0
C2120 C 0.98298 0.04112 0.01563 0.0
C2121 C 0.05769 0.0306 0.983 0.0
C2122 C 0.04396 0.07838 0.01113 0.0
C2123 C 0.10085 0.06703 0.04103 0.0
C2124 C 0.11692 0.05903 0.03829 0.0
C2125 C 0.1328 0.06651 0.05124 0.0
C2126 C 0.14727 0.05704 0.05061 0.0
C2127 C 0.14595 0.03995 0.03704 0.0
C2128 C 0.1301 0.03277 0.0238 0.0
C2129 C 0.11565 0.04222 0.02447 0.0
C2130 C 0.04207 0.05403 0.05606 0.0
C2131 C 0.0554 1.0065 0.02803 0.0
O2132 O 1.01003 0.02757 0.98703 0.0
O2133 O 1.00724 0.01429 0.01284 0.0
O2134 O 0.04062 0.02202 0.98001 0.0
O2135 O 0.06036 0.0386 1.00089 0.0
O2136 O 0.03035 0.0626 1.00823 0.0
O2137 O 0.06036 0.07773 0.01869 0.0
O2138 O 0.08984 0.05756 0.05155 0.0
O2139 O 0.0921 0.07064 0.0256 0.0
O2140 O 0.05917 0.06248 0.05899 0.0
O2141 O 0.03923 0.04609 0.03812 0.0
O2142 O 0.06914 0.02217 0.03066 0.0
O2143 O 0.03897 1.00725 0.02062 0.0
H2144 H 0.96821 1.01074 0.97249 0.0
H2145 H 0.94339 0.02815 0.97378 0.0
H2146 H 0.96919 0.0621 0.02893 0.0
H2147 H 0.99436 0.04537 0.02696 0.0
H2148 H 0.13375 0.07925 0.06224 0.0
H2149 H 0.15925 0.06275 0.06109 0.0
H2150 H 0.12883 0.01979 0.01302 0.0
H2151 H 0.10331 0.0361 0.01457 0.0
La2152 La 0.31153 0.79212 0.25495 0.0
La2153 La 0.29228 0.79625 0.28694 0.0
C2154 C 0.33094 0.79512 0.22796 0.0
C2155 C 0.33789 0.81009 0.21661 0.0
C2156 C 0.35443 0.8098 0.20917 0.0
C2157 C 0.36122 0.82358 0.1978 0.0
C2158 C 0.35139 0.83766 0.19367 0.0
C2159 C 0.33563 0.83896 0.20259 0.0
C2160 C 0.32891 0.8252 0.21404 0.0
C2161 C 0.3294 0.78565 0.28672 0.0
C2162 C 0.30735 0.83451 0.27232 0.0
C2163 C 0.28063 0.79829 0.31908 0.0
C2164 C 0.26998 0.78256 0.32781 0.0
C2165 C 0.25372 0.78481 0.33509 0.0
C2166 C 0.24434 0.77044 0.34463 0.0
C2167 C 0.25129 0.7538 0.34726 0.0
C2168 C 0.26676 0.75089 0.33849 0.0
C2169 C 0.27593 0.76505 0.32878 0.0
C2170 C 0.2696 0.78867 0.25416 0.0
C2171 C 0.2909 0.75459 0.26494 0.0
O2172 O 0.33731 0.79984 0.24613 0.0
O2173 O 0.31335 0.7872 0.22518 0.0
O2174 O 0.32664 0.77456 0.27014 0.0
O2175 O 0.32118 0.79954 0.28558 0.0
O2176 O 0.31171 0.82315 0.25785 0.0
O2177 O 0.30046 0.82754 0.28694 0.0
O2178 O 0.27225 0.803 0.30408 0.0
O2179 O 0.29731 0.79685 0.31659 0.0
O2180 O 0.26669 0.78083 0.26939 0.0
O2181 O 0.28543 0.79998 0.25727 0.0
O2182 O 0.29253 0.76522 0.28218 0.0
O2183 O 0.29448 0.76281 0.24978 0.0
H2184 H 0.36181 0.79855 0.21168 0.0
H2185 H 0.37351 0.82248 0.19126 0.0
H2186 H 0.32772 0.84961 0.19956 0.0
H2187 H 0.31638 0.82592 0.22025 0.0
H2188 H 0.24861 0.79794 0.33394 0.0
H2189 H 0.23222 0.77288 0.35083 0.0
H2190 H 0.27267 0.7384 0.34028 0.0
H2191 H 0.28815 0.76258 0.32278 0.0
La2192 La 0.57192 0.04412 0.51834 0.0
La2193 La 0.53016 0.04195 0.51727 0.0
C2194 C 0.60416 0.03976 0.52582 0.0
C2195 C 0.61561 0.02481 0.52328 0.0
C2196 C 0.62698 0.02469 0.50848 0.0
C2197 C 0.63957 1.01255 0.50741 0.0
C2198 C 0.64133 1.00026 0.52121 0.0
C2199 C 0.62953 0.99992 0.53566 0.0
C2200 C 0.61691 1.01204 0.53672 0.0
C2201 C 0.55416 0.04372 0.48479 0.0
C2202 C 0.54295 1.00224 0.5123 0.0
C2203 C 0.49806 0.04653 0.50958 0.0
C2204 C 0.48616 0.0607 0.51414 0.0
C2205 C 0.47275 0.05664 0.52656 0.0
C2206 C 0.4598 0.06821 0.52901 0.0
C2207 C 0.45977 0.08416 0.51901 0.0
C2208 C 0.47365 0.08872 0.50717 0.0
C2209 C 0.48661 0.0771 0.5047 0.0
C2210 C 0.54786 0.04202 0.55061 0.0
C2211 C 0.55927 0.08406 0.52408 0.0
O2212 O 0.59836 0.04603 0.51037 0.0
O2213 O 0.59182 0.03776 0.53782 0.0
O2214 O 0.57121 0.05234 0.48957 0.0
O2215 O 0.54837 0.0345 0.4977 0.0
O2216 O 0.55987 1.01266 0.51821 0.0
O2217 O 0.52938 1.01077 0.5078 0.0
O2218 O 0.50291 0.03726 0.52331 0.0
O2219 O 0.51134 0.05147 0.49916 0.0
O2220 O 0.53081 0.03333 0.54586 0.0
O2221 O 0.5536 0.05145 0.53784 0.0
O2222 O 0.54212 0.07376 0.51978 0.0
O2223 O 0.57329 0.07561 0.52653 0.0
H2224 H 0.62659 0.03452 0.49804 0.0
H2225 H 0.64848 0.01346 0.49619 0.0
H2226 H 0.63022 0.99045 0.54639 0.0
H2227 H 0.60851 1.01177 0.5484 0.0
H2228 H 0.47189 0.04408 0.53399 0.0
H2229 H 0.44957 0.0644 0.53851 0.0
H2230 H 0.47404 0.10076 0.49911 0.0
H2231 H 0.4966 0.08063 0.49487 0.0
La2232 La 0.28027 0.2964 0.76928 0.0
La2233 La 0.31944 0.28992 0.77058 0.0
C2234 C 0.24661 0.29276 0.77314 0.0
C2235 C 0.23322 0.29537 0.78712 0.0
C2236 C 0.22315 0.30994 0.78585 0.0
C2237 C 0.20882 0.31118 0.79701 0.0
C2238 C 0.20399 0.29777 0.80972 0.0
C2239 C 0.21434 0.28341 0.8113 0.0
C2240 C 0.22871 0.28217 0.80011 0.0
C2241 C 0.30587 0.3287 0.76572 0.0
C2242 C 0.30425 0.30114 0.81003 0.0
C2243 C 0.3533 0.29647 0.76738 0.0
C2244 C 0.36655 0.2915 0.75392 0.0
C2245 C 0.37862 0.27967 0.75867 0.0
C2246 C 0.39283 0.27732 0.74754 0.0
C2247 C 0.39551 0.28688 0.73142 0.0
C2248 C 0.38302 0.29817 0.72635 0.0
C2249 C 0.3688 0.30045 0.7374 0.0
C2250 C 0.29506 0.25448 0.76822 0.0
C2251 C 0.29517 0.28469 0.73022 0.0
O2252 O 0.25695 0.30856 0.7688 0.0
O2253 O 0.25545 0.27874 0.77416 0.0
O2254 O 0.28899 0.32392 0.75777 0.0
O2255 O 0.30767 0.31566 0.77629 0.0
O2256 O 0.28832 0.30086 0.80038 0.0
O2257 O 0.31873 0.29838 0.80154 0.0
O2258 O 0.3451 0.28291 0.77666 0.0
O2259 O 0.34232 0.30726 0.76176 0.0
O2260 O 0.31264 0.25704 0.76859 0.0
O2261 O 0.29241 0.2718 0.76855 0.0
O2262 O 0.31163 0.28876 0.73995 0.0
O2263 O 0.28027 0.28417 0.73896 0.0
H2264 H 0.22605 0.32013 0.77578 0.0
H2265 H 0.20141 0.3226 0.7955 0.0
H2266 H 0.21092 0.27262 0.82068 0.0
H2267 H 0.23591 0.27051 0.80126 0.0
H2268 H 0.37741 0.27268 0.77134 0.0
H2269 H 0.4019 0.26822 0.75179 0.0
H2270 H 0.38464 0.306 0.71426 0.0
H2271 H 0.35997 0.30987 0.73332 0.0
La2272 La 0.04808 0.06261 0.52652 0.0
La2273 La 0.05247 0.02447 0.51292 0.0
C2274 C 0.05171 0.09873 0.53891 0.0
C2275 C 0.05353 0.11544 0.52826 0.0
C2276 C 0.04122 0.12785 0.52982 0.0
C2277 C 0.0415 0.14229 0.51807 0.0
C2278 C 0.05412 0.14453 0.50457 0.0
C2279 C 0.06665 0.13231 0.50333 0.0
C2280 C 0.06632 0.1179 0.51499 0.0
C2281 C 0.01755 0.03508 0.52486 0.0
C2282 C 0.03706 0.04865 0.4819 0.0
C2283 C 0.04944 0.98844 0.50039 0.0
C2284 C 0.04931 0.97226 0.5114 0.0
C2285 C 0.05618 0.95593 0.50446 0.0
C2286 C 0.05657 0.94098 0.51551 0.0
C2287 C 0.05003 0.94221 0.53364 0.0
C2288 C 0.0434 0.95879 0.54056 0.0
C2289 C 0.0432 0.9737 0.52963 0.0
C2290 C 0.08284 0.05217 0.51467 0.0
C2291 C 0.06353 0.03836 0.55772 0.0
O2292 O 0.03592 0.0862 0.53525 0.0
O2293 O 0.06526 0.08978 0.53928 0.0
O2294 O 0.01848 0.05239 0.52037 0.0
O2295 O 0.03347 0.03372 0.53084 0.0
O2296 O 0.04343 0.06439 0.4954 0.0
O2297 O 0.03782 0.03101 0.48628 0.0
O2298 O 0.06486 1.0015 0.50263 0.0
O2299 O 0.03552 0.99675 0.50156 0.0
O2300 O 0.08202 0.03509 0.51966 0.0
O2301 O 0.06693 0.05328 0.50844 0.0
O2302 O 0.05816 0.02276 0.54389 0.0
O2303 O 0.06183 0.05589 0.55363 0.0
H2304 H 0.03108 0.12603 0.53978 0.0
H2305 H 0.03159 0.15139 0.51926 0.0
H2306 H 0.07678 0.1339 0.49337 0.0
H2307 H 0.07591 0.10847 0.51335 0.0
H2308 H 0.06131 0.95479 0.49057 0.0
H2309 H 0.06202 0.92853 0.5099 0.0
H2310 H 0.03797 0.96014 0.55426 0.0
H2311 H 0.03819 0.98636 0.53547 0.0
La2312 La 0.31777 0.80783 0.76923 0.0
La2313 La 0.28411 0.77768 0.76846 0.0
C2314 C 0.34909 0.82932 0.77928 0.0
C2315 C 0.36731 0.82497 0.78108 0.0
C2316 C 0.38004 0.83222 0.76904 0.0
C2317 C 0.39696 0.82715 0.76968 0.0
C2318 C 0.40146 0.81487 0.7825 0.0
C2319 C 0.38875 0.80782 0.79469 0.0
C2320 C 0.37182 0.81275 0.79395 0.0
C2321 C 0.30173 0.7914 0.73483 0.0
C2322 C 0.32058 0.76115 0.7696 0.0
C2323 C 0.2529 0.75581 0.75881 0.0
C2324 C 0.23445 0.75946 0.75754 0.0
C2325 C 0.2216 0.74968 0.76811 0.0
C2326 C 0.2042 0.75349 0.76767 0.0
C2327 C 0.19937 0.76707 0.75655 0.0
C2328 C 0.21229 0.77691 0.74602 0.0
C2329 C 0.22971 0.77319 0.74655 0.0
C2330 C 0.30035 0.79407 0.80294 0.0
C2331 C 0.28127 0.82437 0.76815 0.0
O2332 O 0.3408 0.82626 0.76168 0.0
O2333 O 0.33812 0.82282 0.79152 0.0
O2334 O 0.31018 0.80983 0.73909 0.0
O2335 O 0.30356 0.78301 0.74915 0.0
O2336 O 0.32914 0.78034 0.77177 0.0
O2337 O 0.30238 0.75647 0.76678 0.0
O2338 O 0.26149 0.75885 0.77626 0.0
O2339 O 0.26342 0.76288 0.74644 0.0
O2340 O 0.292 0.77565 0.79844 0.0
O2341 O 0.29828 0.80248 0.78866 0.0
O2342 O 0.2727 0.80517 0.76598 0.0
O2343 O 0.29948 0.82904 0.77088 0.0
H2344 H 0.37679 0.84157 0.75894 0.0
H2345 H 0.40643 0.8327 0.76002 0.0
H2346 H 0.39197 0.79869 0.80502 0.0
H2347 H 0.36227 0.80687 0.8034 0.0
H2348 H 0.22509 0.7392 0.77682 0.0
H2349 H 0.19453 0.74584 0.77605 0.0
H2350 H 0.20883 0.7872 0.73708 0.0
H2351 H 0.23941 0.78107 0.73835 0.0
La2352 La 0.5566 0.04519 0.04156 0.0
La2353 La 0.54669 0.04203 0.99957 0.0
C2354 C 0.5544 0.0471 0.07669 0.0
C2355 C 0.54216 0.03266 0.08551 0.0
C2356 C 0.54414 1.01302 0.08414 0.0
C2357 C 0.53165 0.99906 0.09126 0.0
C2358 C 0.51691 1.00443 0.09968 0.0
C2359 C 0.51454 0.02382 0.10033 0.0
C2360 C 0.52709 0.03782 0.09339 0.0
C2361 C 0.56324 0.01408 0.02073 0.0
C2362 C 0.51605 0.02557 0.02118 0.0
C2363 C 0.54922 0.04038 0.96463 0.0
C2364 C 0.56206 0.05493 0.95648 0.0
C2365 C 0.5599 0.07446 0.95736 0.0
C2366 C 0.57252 0.08839 0.95037 0.0
C2367 C 0.58749 0.08306 0.94239 0.0
C2368 C 0.59038 0.064 0.94285 0.0
C2369 C 0.57772 0.05003 0.94973 0.0
C2370 C 0.53971 0.07281 0.02057 0.0
C2371 C 0.5871 0.06247 0.02019 0.0
O2372 O 0.56744 0.0408 0.06848 0.0
O2373 O 0.54622 0.05721 0.06602 0.0
O2374 O 0.57324 0.02354 0.0363 0.0
O2375 O 0.54949 0.02113 0.01783 0.0
O2376 O 0.52692 0.03536 0.03672 0.0
O2377 O 0.52214 0.02238 1.00436 0.0
O2378 O 0.5362 0.04688 0.9727 0.0
O2379 O 0.55676 0.02959 0.97508 0.0
O2380 O 0.52982 0.06343 1.00485 0.0
O2381 O 0.55359 0.06591 0.02323 0.0
O2382 O 0.57636 0.05263 1.0046 0.0
O2383 O 0.58114 0.06499 0.03711 0.0
H2384 H 0.55537 1.00841 0.07767 0.0
H2385 H 0.53382 0.98425 0.09079 0.0
H2386 H 0.50351 0.0285 0.10718 0.0
H2387 H 0.52507 0.05272 0.09424 0.0
H2388 H 0.54829 0.07895 0.96308 0.0
H2389 H 0.56999 0.10297 0.95008 0.0
H2390 H 0.60167 0.05938 0.93649 0.0
H2391 H 0.57999 0.03528 0.94944 0.0
La2392 La 0.30947 0.31564 0.28004 0.0
La2393 La 0.2919 0.27226 0.26429 0.0
C2394 C 0.31887 0.3524 0.28896 0.0
C2395 C 0.30888 0.36776 0.28711 0.0
C2396 C 0.31165 0.384 0.3019 0.0
C2397 C 0.30046 0.39742 0.30151 0.0
C2398 C 0.28641 0.39464 0.2863 0.0
C2399 C 0.28392 0.37849 0.27134 0.0
C2400 C 0.295 0.36507 0.27182 0.0
C2401 C 0.30882 0.29108 0.30526 0.0
C2402 C 0.26617 0.30115 0.27114 0.0
C2403 C 0.28184 0.23588 0.26384 0.0
C2404 C 0.29205 0.22042 0.2603 0.0
C2405 C 0.28392 0.20241 0.24843 0.0
C2406 C 0.29394 0.18793 0.24486 0.0
C2407 C 0.31221 0.19142 0.25312 0.0
C2408 C 0.3203 0.20962 0.26476 0.0
C2409 C 0.31036 0.22396 0.26827 0.0
C2410 C 0.29703 0.29197 0.23475 0.0
C2411 C 0.33452 0.28837 0.26615 0.0
O2412 O 0.31273 0.34076 0.30095 0.0
O2413 O 0.32208 0.3427 0.2728 0.0
O2414 O 0.3223 0.30565 0.30455 0.0
O2415 O 0.29626 0.29075 0.29204 0.0
O2416 O 0.28064 0.31612 0.27443 0.0
O2417 O 0.26739 0.28253 0.26814 0.0
O2418 O 0.27823 0.24431 0.24906 0.0
O2419 O 0.28784 0.24872 0.2796 0.0
O2420 O 0.29015 0.27322 0.23312 0.0
O2421 O 0.30072 0.29848 0.25259 0.0
O2422 O 0.3211 0.273 0.26664 0.0
O2423 O 0.33235 0.30664 0.26863 0.0
H2424 H 0.32211 0.38598 0.31399 0.0
H2425 H 0.30252 0.40967 0.31329 0.0
H2426 H 0.27339 0.37619 0.25928 0.0
H2427 H 0.29243 0.35238 0.26045 0.0
H2428 H 0.26986 0.19955 0.24198 0.0
H2429 H 0.28742 0.17403 0.23576 0.0
H2430 H 0.33421 0.21262 0.27169 0.0
H2431 H 0.31703 0.23776 0.27745 0.0
La2432 La 0.54703 0.56279 0.02889 0.0
La2433 La 0.55331 0.52369 0.01109 0.0
C2434 C 0.54562 0.59841 0.03614 0.0
C2435 C 0.54677 0.61374 0.02395 0.0
C2436 C 0.5356 0.6273 0.02613 0.0
C2437 C 0.53628 0.64159 0.0142 0.0
C2438 C 0.54832 0.64266 1.00002 0.0
C2439 C 0.55925 0.62877 0.99773 0.0
C2440 C 0.55831 0.61432 1.00941 0.0
C2441 C 0.52135 0.53191 0.0331 0.0
C2442 C 0.5377 0.5487 0.98203 0.0
C2443 C 0.54918 0.48709 1.00123 0.0
C2444 C 0.54732 0.47099 0.01248 0.0
C2445 C 0.55832 0.45732 1.00963 0.0
C2446 C 0.55822 0.44313 0.02154 0.0
C2447 C 0.547 0.44232 0.03642 0.0
C2448 C 0.53588 0.45598 0.03913 0.0
C2449 C 0.53614 0.47029 0.02735 0.0
C2450 C 0.58353 0.55126 0.01031 0.0
C2451 C 0.56522 0.53896 0.05702 0.0
O2452 O 0.53112 0.58396 0.03171 0.0
O2453 O 0.56055 0.59209 0.03955 0.0
O2454 O 0.52731 0.54771 0.04585 0.0
O2455 O 0.52959 0.53416 0.01841 0.0
O2456 O 0.53933 0.56276 0.99741 0.0
O2457 O 0.54238 0.53178 0.98397 0.0
O2458 O 0.56507 0.49942 1.00463 0.0
O2459 O 0.53575 0.49616 1.00035 0.0
O2460 O 0.58095 0.53281 1.00312 0.0
O2461 O 0.56887 0.55354 0.01672 0.0
O2462 O 0.5596 0.52353 0.04276 0.0
O2463 O 0.5635 0.55679 0.05401 0.0
H2464 H 0.52629 0.62676 0.03699 0.0
H2465 H 0.52737 0.65176 0.01607 0.0
H2466 H 0.56884 0.62924 0.98717 0.0
H2467 H 0.56665 0.60363 1.00708 0.0
H2468 H 0.56731 0.45793 0.99846 0.0
H2469 H 0.56715 0.43301 0.01929 0.0
H2470 H 0.52689 0.45556 0.05028 0.0
H2471 H 0.52777 0.48094 0.03006 0.0
La2472 La 0.81764 0.30808 0.26914 0.0
La2473 La 0.78383 0.27803 0.2692 0.0
C2474 C 0.849 0.32967 0.27828 0.0
C2475 C 0.86684 0.3249 0.28173 0.0
C2476 C 0.88144 0.33377 0.27264 0.0
C2477 C 0.89824 0.32856 0.27513 0.0
C2478 C 0.90058 0.31455 0.28686 0.0
C2479 C 0.8859 0.30558 0.2958 0.0
C2480 C 0.86914 0.31064 0.2932 0.0
C2481 C 0.80076 0.29166 0.23511 0.0
C2482 C 0.82024 0.26143 0.27005 0.0
C2483 C 0.75251 0.25617 0.26039 0.0
C2484 C 0.73413 0.25998 0.25885 0.0
C2485 C 0.721 0.25011 0.26905 0.0
C2486 C 0.70366 0.25412 0.26839 0.0
C2487 C 0.69919 0.26798 0.25741 0.0
C2488 C 0.71242 0.27789 0.24725 0.0
C2489 C 0.72978 0.27399 0.24802 0.0
C2490 C 0.80068 0.29486 0.30335 0.0
C2491 C 0.78116 0.3246 0.26827 0.0
O2492 O 0.84115 0.32465 0.26047 0.0
O2493 O 0.83763 0.32512 0.2908 0.0
O2494 O 0.80925 0.31009 0.23925 0.0
O2495 O 0.80288 0.28323 0.24938 0.0
O2496 O 0.82885 0.28061 0.27219 0.0
O2497 O 0.80204 0.25678 0.26731 0.0
O2498 O 0.76118 0.25999 0.27785 0.0
O2499 O 0.76297 0.26246 0.24766 0.0
O2500 O 0.79207 0.27648 0.29935 0.0
O2501 O 0.79852 0.30294 0.28888 0.0
O2502 O 0.77256 0.3054 0.26594 0.0
O2503 O 0.79937 0.32928 0.27114 0.0
H2504 H 0.87981 0.34463 0.26358 0.0
H2505 H 0.90947 0.33574 0.26823 0.0
H2506 H 0.8874 0.2946 0.30476 0.0
H2507 H 0.85799 0.30331 0.30012 0.0
H2508 H 0.72421 0.23942 0.27764 0.0
H2509 H 0.69378 0.24642 0.27653 0.0
H2510 H 0.70928 0.2884 0.23841 0.0
H2511 H 0.73973 0.28196 0.24013 0.0
La2512 La 0.05593 0.54287 0.53861 0.0
La2513 La 0.04243 0.54196 0.49809 0.0
C2514 C 0.05698 0.54156 0.57369 0.0
C2515 C 0.04455 0.52768 0.58296 0.0
C2516 C 0.04868 0.50965 0.58592 0.0
C2517 C 0.03655 0.4961 0.5939 0.0
C2518 C 0.0202 0.50047 0.59929 0.0
C2519 C 0.01565 0.51801 0.59536 0.0
C2520 C 0.02772 0.53151 0.58734 0.0
C2521 C 0.06712 0.51806 0.51389 0.0
C2522 C 0.01627 0.51735 0.51991 0.0
C2523 C 0.04237 0.54303 0.46314 0.0
C2524 C 0.05598 0.55663 0.45484 0.0
C2525 C 0.055 0.57649 0.45541 0.0
C2526 C 0.06872 0.58972 0.44902 0.0
C2527 C 0.08357 0.5833 0.44181 0.0
C2528 C 0.08502 0.56374 0.44219 0.0
C2529 C 0.07131 0.55051 0.44853 0.0
C2530 C 0.03141 0.56707 0.52272 0.0
C2531 C 0.08193 0.5678 0.51714 0.0
O2532 O 0.06749 0.53364 0.5627 0.0
O2533 O 0.04979 0.55434 0.5657 0.0
O2534 O 0.07716 0.52838 0.52918 0.0
O2535 O 0.05122 0.52101 0.51328 0.0
O2536 O 0.02742 0.52676 0.53543 0.0
O2537 O 0.02067 0.51852 0.50242 0.0
O2538 O 0.03171 0.5513 0.47363 0.0
O2539 O 0.04856 0.52971 0.47128 0.0
O2540 O 0.02145 0.55713 0.50719 0.0
O2541 O 0.04716 0.56374 0.52339 0.0
O2542 O 0.07111 0.55809 0.50147 0.0
O2543 O 0.07707 0.56689 0.53447 0.0
H2544 H 0.0614 0.5061 0.58232 0.0
H2545 H 0.04035 0.48267 0.59676 0.0
H2546 H 1.00331 0.52201 0.59965 0.0
H2547 H 0.02395 0.54508 0.58489 0.0
H2548 H 0.04356 0.58182 0.46063 0.0
H2549 H 0.06727 0.60469 0.44873 0.0
H2550 H 0.09612 0.55822 0.43634 0.0
H2551 H 0.07264 0.53543 0.44829 0.0
La2552 La 0.78006 0.79609 0.26909 0.0
La2553 La 0.82037 0.78847 0.26974 0.0
C2554 C 0.74632 0.78958 0.27266 0.0
C2555 C 0.73325 0.79428 0.28638 0.0
C2556 C 0.72242 0.80777 0.28309 0.0
C2557 C 0.70834 0.81011 0.29439 0.0
C2558 C 0.70459 0.7989 0.3092 0.0
C2559 C 0.71584 0.78587 0.31282 0.0
C2560 C 0.72991 0.78357 0.30159 0.0
C2561 C 0.80511 0.83044 0.26913 0.0
C2562 C 0.80517 0.8016 0.30918 0.0
C2563 C 0.85444 0.79415 0.26777 0.0
C2564 C 0.86803 0.79246 0.25384 0.0
C2565 C 0.87169 0.7742 0.24623 0.0
C2566 C 0.88612 0.77345 0.23496 0.0
C2567 C 0.89734 0.79093 0.23132 0.0
C2568 C 0.89324 0.80904 0.23842 0.0
C2569 C 0.87882 0.80979 0.2495 0.0
C2570 C 0.79491 0.75413 0.26877 0.0
C2571 C 0.79561 0.78411 0.22973 0.0
O2572 O 0.75448 0.80341 0.26366 0.0
O2573 O 0.75729 0.7786 0.27784 0.0
O2574 O 0.78749 0.82829 0.26848 0.0
O2575 O 0.8075 0.81301 0.26982 0.0
O2576 O 0.78923 0.8018 0.29983 0.0
O2577 O 0.8192 0.79726 0.30063 0.0
O2578 O 0.84464 0.77806 0.2722 0.0
O2579 O 0.84487 0.80746 0.26619 0.0
O2580 O 0.81236 0.75586 0.26845 0.0
O2581 O 0.79294 0.77179 0.2691 0.0
O2582 O 0.81215 0.78641 0.23907 0.0
O2583 O 0.78088 0.78526 0.23855 0.0
H2584 H 0.72447 0.81613 0.27141 0.0
H2585 H 0.7002 0.82053 0.2913 0.0
H2586 H 0.71332 0.77673 0.32384 0.0
H2587 H 0.73775 0.77282 0.30445 0.0
H2588 H 0.86375 0.76055 0.24938 0.0
H2589 H 0.88895 0.75927 0.22976 0.0
H2590 H 0.90142 0.82277 0.23568 0.0
H2591 H 0.87647 0.82408 0.25519 0.0
La2592 La 0.8044 0.28669 0.75187 0.0
La2593 La 0.78827 0.29722 0.78614 0.0
C2594 C 0.81011 0.28373 0.71738 0.0
C2595 C 0.82329 0.2968 0.70816 0.0
C2596 C 0.83498 0.28905 0.69644 0.0
C2597 C 0.84621 0.30124 0.68622 0.0
C2598 C 0.84556 0.32125 0.68727 0.0
C2599 C 0.83513 0.32925 0.70055 0.0
C2600 C 0.82419 0.31718 0.71092 0.0
C2601 C 0.83107 0.29025 0.7804 0.0
C2602 C 0.8116 0.3311 0.77221 0.0
C2603 C 0.76998 0.29744 0.81413 0.0
C2604 C 0.76464 0.2836 0.82712 0.0
C2605 C 0.74729 0.28152 0.83325 0.0
C2606 C 0.74137 0.26727 0.84451 0.0
C2607 C 0.75276 0.25495 0.84961 0.0
C2608 C 0.76984 0.25657 0.84271 0.0
C2609 C 0.77575 0.27083 0.83154 0.0
C2610 C 0.76946 0.30036 0.75368 0.0
C2611 C 0.79168 0.2535 0.77324 0.0
O2612 O 0.81701 0.27396 0.72943 0.0
O2613 O 0.79701 0.29133 0.72401 0.0
O2614 O 0.83218 0.28632 0.76223 0.0
O2615 O 0.8151 0.29285 0.78258 0.0
O2616 O 0.81013 0.31854 0.75614 0.0
O2617 O 0.80602 0.32574 0.78812 0.0
O2618 O 0.76301 0.29053 0.79633 0.0
O2619 O 0.78732 0.30623 0.81565 0.0
O2620 O 0.77406 0.3138 0.76876 0.0
O2621 O 0.77656 0.28599 0.75655 0.0
O2622 O 0.79168 0.26748 0.7878 0.0
O2623 O 0.79267 0.25734 0.75572 0.0
H2624 H 0.83491 0.27346 0.69461 0.0
H2625 H 0.85453 0.29471 0.67659 0.0
H2626 H 0.83409 0.3445 0.70185 0.0
H2627 H 0.81571 0.32375 0.7203 0.0
H2628 H 0.73837 0.29093 0.82936 0.0
H2629 H 0.72814 0.26621 0.84966 0.0
H2630 H 0.77902 0.24747 0.84672 0.0
H2631 H 0.78904 0.27202 0.82654 0.0
La2632 La 0.80887 0.81474 0.77834 0.0
La2633 La 0.79039 0.77189 0.76196 0.0
C2634 C 0.8186 0.85147 0.78751 0.0
C2635 C 0.80866 0.86692 0.78579 0.0
C2636 C 0.81133 0.88296 0.80078 0.0
C2637 C 0.80028 0.89652 0.80042 0.0
C2638 C 0.78647 0.89412 0.78504 0.0
C2639 C 0.78402 0.87813 0.76993 0.0
C2640 C 0.79495 0.86454 0.77037 0.0
C2641 C 0.80856 0.78968 0.80316 0.0
C2642 C 0.76534 0.80119 0.77036 0.0
C2643 C 0.77921 0.73536 0.75994 0.0
C2644 C 0.7898 0.72027 0.76043 0.0
C2645 C 0.7837 0.70182 0.7486 0.0
C2646 C 0.7945 0.68792 0.74826 0.0
C2647 C 0.8114 0.69246 0.75982 0.0
C2648 C 0.81764 0.71111 0.77125 0.0
C2649 C 0.80693 0.72492 0.77155 0.0
C2650 C 0.79454 0.79233 0.73291 0.0
C2651 C 0.83308 0.78693 0.7638 0.0
O2652 O 0.81252 0.83978 0.79948 0.0
O2653 O 0.82174 0.8418 0.7713 0.0
O2654 O 0.82201 0.80426 0.80231 0.0
O2655 O 0.79581 0.78964 0.79024 0.0
O2656 O 0.78007 0.81585 0.77416 0.0
O2657 O 0.76611 0.78252 0.76606 0.0
O2658 O 0.78037 0.74405 0.74483 0.0
O2659 O 0.78102 0.74799 0.77588 0.0
O2660 O 0.78693 0.77378 0.73111 0.0
O2661 O 0.79902 0.79847 0.75073 0.0
O2662 O 0.81947 0.7719 0.76477 0.0
O2663 O 0.83121 0.8053 0.76606 0.0
H2664 H 0.82161 0.88469 0.81298 0.0
H2665 H 0.80228 0.90861 0.81235 0.0
H2666 H 0.77366 0.87609 0.75775 0.0
H2667 H 0.79244 0.85199 0.75885 0.0
H2668 H 0.77066 0.69822 0.73965 0.0
H2669 H 0.78952 0.67355 0.73937 0.0
H2670 H 0.83078 0.71496 0.78003 0.0
H2671 H 0.81209 0.73923 0.78049 0.0
La2672 La 0.53293 0.53208 0.50749 0.0
La2673 La 0.56808 0.55333 0.53069 0.0
C2674 C 0.49947 0.51833 0.49678 0.0
C2675 C 0.48346 0.52634 0.50012 0.0
C2676 C 0.46808 0.52088 0.48627 0.0
C2677 C 0.45373 0.53046 0.48799 0.0
C2678 C 0.45461 0.54551 0.50368 0.0
C2679 C 0.46994 0.55074 0.51768 0.0
C2680 C 0.48436 0.54135 0.51581 0.0
C2681 C 0.55892 0.53211 0.48273 0.0
C2682 C 0.54455 0.57881 0.51159 0.0
C2683 C 0.60158 0.56689 0.54138 0.0
C2684 C 0.6175 0.55843 0.53902 0.0
C2685 C 0.63233 0.56374 0.55352 0.0
C2686 C 0.64645 0.55375 0.55282 0.0
C2687 C 0.64589 0.53832 0.53756 0.0
C2688 C 0.63107 0.53325 0.5229 0.0
C2689 C 0.61692 0.54314 0.52372 0.0
C2690 C 0.54242 0.55372 0.55567 0.0
C2691 C 0.5564 0.50655 0.52679 0.0
O2692 O 0.51053 0.52829 0.48663 0.0
O2693 O 0.5082 0.51388 0.51179 0.0
O2694 O 0.54174 0.5241 0.47894 0.0
O2695 O 0.56108 0.53944 0.50079 0.0
O2696 O 0.53103 0.56291 0.50825 0.0
O2697 O 0.56095 0.57824 0.51926 0.0
O2698 O 0.5903 0.5579 0.55194 0.0
O2699 O 0.5931 0.57052 0.52578 0.0
O2700 O 0.5595 0.56232 0.55886 0.0
O2701 O 0.53977 0.54602 0.53763 0.0
O2702 O 0.56975 0.52259 0.53082 0.0
O2703 O 0.54021 0.50693 0.51837 0.0
H2704 H 0.46741 0.50961 0.47386 0.0
H2705 H 0.442 0.52619 0.47706 0.0
H2706 H 0.47102 0.56252 0.52973 0.0
H2707 H 0.49644 0.54623 0.52624 0.0
H2708 H 0.6327 0.57519 0.56569 0.0
H2709 H 0.65756 0.55777 0.56446 0.0
H2710 H 0.63037 0.5216 0.51084 0.0
H2711 H 0.60529 0.53855 0.51269 0.0
La2712 La 0.07192 0.54388 0.01865 0.0
La2713 La 0.03028 0.54188 0.01822 0.0
C2714 C 0.10477 0.54038 0.0228 0.0
C2715 C 0.11633 0.52556 0.02089 0.0
C2716 C 0.12754 0.52527 1.006 0.0
C2717 C 0.14018 0.51325 1.00501 0.0
C2718 C 0.14214 0.5012 0.01899 0.0
C2719 C 0.13048 0.50099 0.03357 0.0
C2720 C 0.11779 0.51307 0.03456 0.0
C2721 C 0.05344 0.54451 0.98573 0.0
C2722 C 0.04327 0.50215 0.01321 0.0
C2723 C 0.99819 0.5464 0.0101 0.0
C2724 C 0.98635 0.56074 0.01417 0.0
C2725 C 0.97533 0.55959 0.02926 0.0
C2726 C 0.96246 0.57132 0.03153 0.0
C2727 C 0.96013 0.58448 0.01872 0.0
C2728 C 0.97156 0.58603 1.004 0.0
C2729 C 0.98441 0.5743 1.00172 0.0
C2730 C 0.04757 0.54065 0.05132 0.0
C2731 C 0.05952 0.58383 0.02526 0.0
O2732 O 0.09648 0.54347 1.00687 0.0
O2733 O 0.09457 0.54096 0.03687 0.0
O2734 O 0.07013 0.55418 0.99086 0.0
O2735 O 0.04812 0.53452 0.99826 0.0
O2736 O 0.06016 0.51255 0.01927 0.0
O2737 O 0.02969 0.5107 1.00872 0.0
O2738 O 1.00296 0.53738 0.02406 0.0
O2739 O 1.01155 0.55111 0.99974 0.0
O2740 O 0.03018 0.53369 0.04688 0.0
O2741 O 0.05386 0.5504 0.03889 0.0
O2742 O 0.04242 0.57358 0.02017 0.0
O2743 O 0.0733 0.57513 0.02819 0.0
H2744 H 0.12688 0.53479 0.9953 0.0
H2745 H 0.14861 0.51361 0.99336 0.0
H2746 H 0.13163 0.49205 0.04469 0.0
H2747 H 0.10949 0.513 0.04633 0.0
H2748 H 0.97628 0.54923 0.03906 0.0
H2749 H 0.95416 0.56987 0.04323 0.0
H2750 H 0.97009 0.59575 0.99367 0.0
H2751 H 0.99243 0.57541 0.98976 0.0
H2752 H 1.00492 0.18261 0.98429 0.0
H2753 H 0.05024 0.17939 0.95151 0.0
H2754 H 1.00961 0.15384 0.99807 0.0
H2755 H 0.05507 0.15098 0.96556 0.0
H2756 H 0.06972 0.11123 1.00751 0.0
H2757 H 0.06508 0.14101 0.99575 0.0
H2758 H 1.00677 0.11804 0.98887 0.0
H2759 H 1.0114 0.08819 1.00068 0.0
C2760 C 0.01581 0.17577 0.97988 0.0
C2761 C 0.02713 0.18354 0.96665 0.0
C2762 C 0.01854 0.15923 0.98787 0.0
C2763 C 0.03275 0.14996 0.983 0.0
C2764 C 0.04416 0.15782 0.96994 0.0
C2765 C 0.04137 0.17425 0.96186 0.0
C2766 C 0.05587 0.11253 1.00365 0.0
C2767 C 0.04095 0.09715 1.00506 0.0
C2768 C 0.05321 0.12963 0.99673 0.0
C2769 C 0.03553 0.13202 0.9912 0.0
C2770 C 0.02058 0.11686 0.99309 0.0
C2771 C 0.02325 0.09964 0.99979 0.0
H2772 H 0.16322 0.77489 0.18612 0.0
H2773 H 0.18973 0.83553 0.1857 0.0
H2774 H 0.19046 0.77011 0.20373 0.0
H2775 H 0.21685 0.83105 0.2045 0.0
H2776 H 0.2696 0.81258 0.22597 0.0
H2777 H 0.24312 0.81746 0.20599 0.0
H2778 H 0.20745 0.77616 0.23343 0.0
H2779 H 0.23369 0.77081 0.25246 0.0
C2780 C 0.17484 0.7873 0.18971 0.0
C2781 C 0.17399 0.80562 0.18418 0.0
C2782 C 0.19057 0.78462 0.20022 0.0
C2783 C 0.20617 0.80018 0.2059 0.0
C2784 C 0.20537 0.81854 0.20037 0.0
C2785 C 0.18958 0.82122 0.18974 0.0
C2786 C 0.25609 0.80437 0.22749 0.0
C2787 C 0.25391 0.79117 0.2408 0.0
C2788 C 0.24079 0.80731 0.21615 0.0
C2789 C 0.22282 0.79718 0.21781 0.0
C2790 C 0.22085 0.78399 0.23116 0.0
C2791 C 0.23605 0.78097 0.2423 0.0
H2792 H 0.5618 0.88509 0.48458 0.0
H2793 H 0.50294 0.87435 0.47902 0.0
H2794 H 0.56383 0.91995 0.49565 0.0
H2795 H 0.50496 0.909 0.49123 0.0
H2796 H 0.51527 0.97549 0.48886 0.0
H2797 H 0.51198 0.93992 0.48097 0.0
H2798 H 0.56004 0.94408 0.52076 0.0
H2799 H 0.56371 0.97971 0.52797 0.0
C2800 C 0.54928 0.89011 0.48589 0.0
C2801 C 0.53221 0.87685 0.48075 0.0
C2802 C 0.55043 0.91013 0.49251 0.0
C2803 C 0.53455 0.91743 0.49431 0.0
C2804 C 0.51749 0.90403 0.48976 0.0
C2805 C 0.51634 0.88404 0.48302 0.0
C2806 C 0.52502 0.96877 0.49604 0.0
C2807 C 0.53983 0.98044 0.5089 0.0
C2808 C 0.5231 0.94832 0.4916 0.0
C2809 C 0.53582 0.93902 0.5001 0.0
C2810 C 0.55022 0.9507 0.51356 0.0
C2811 C 0.55226 0.97115 0.5178 0.0
H2812 H 0.50006 0.27368 0.69061 0.0
H2813 H 0.48074 0.31344 0.65688 0.0
H2814 H 0.472 0.26936 0.7058 0.0
H2815 H 0.45293 0.30962 0.67254 0.0
H2816 H 0.39768 0.28575 0.6924 0.0
H2817 H 0.42463 0.28699 0.67546 0.0
H2818 H 0.45732 0.28748 0.72885 0.0
H2819 H 0.43052 0.28644 0.74582 0.0
C2820 C 0.48982 0.28146 0.68634 0.0
C2821 C 0.49284 0.29401 0.67253 0.0
C2822 C 0.47375 0.27913 0.69524 0.0
C2823 C 0.46011 0.28921 0.69056 0.0
C2824 C 0.46298 0.30148 0.67647 0.0
C2825 C 0.4791 0.30388 0.66764 0.0
C2826 C 0.41061 0.28619 0.7006 0.0
C2827 C 0.41176 0.28607 0.72061 0.0
C2828 C 0.42612 0.28691 0.69083 0.0
C2829 C 0.44329 0.28744 0.70072 0.0
C2830 C 0.44435 0.28682 0.72062 0.0
C2831 C 0.42887 0.28618 0.7304 0.0
H2832 H 1.00606 0.83606 0.57583 0.0
H2833 H 0.05115 0.86425 0.61973 0.0
H2834 H 0.01399 0.86304 0.55797 0.0
H2835 H 0.05987 0.89059 0.60114 0.0
H2836 H 0.05654 0.94496 0.57285 0.0
H2837 H 0.05044 0.91835 0.59155 0.0
H2838 H 0.03652 0.87586 0.53884 0.0
H2839 H 0.0413 0.90254 0.52015 0.0
C2840 C 0.01766 0.84802 0.58169 0.0
C2841 C 0.02798 0.84795 0.5992 0.0
C2842 C 0.02241 0.86333 0.57127 0.0
C2843 C 0.03772 0.87884 0.57798 0.0
C2844 C 0.04795 0.87891 0.59559 0.0
C2845 C 0.04308 0.86367 0.60613 0.0
C2846 C 0.05209 0.92994 0.56524 0.0
C2847 C 0.04911 0.92591 0.54498 0.0
C2848 C 0.04882 0.91466 0.57598 0.0
C2849 C 0.04274 0.89498 0.56669 0.0
C2850 C 0.04077 0.8909 0.54645 0.0
C2851 C 0.04382 0.90618 0.53571 0.0
H2852 H 0.51723 0.81508 0.79179 0.0
H2853 H 0.49372 0.78839 0.83801 0.0
H2854 H 0.48663 0.8134 0.77624 0.0
H2855 H 0.46329 0.78651 0.82237 0.0
H2856 H 0.40967 0.77951 0.78681 0.0
H2857 H 0.44 0.77311 0.79345 0.0
H2858 H 0.46445 0.83305 0.78776 0.0
H2859 H 0.43433 0.83957 0.78153 0.0
C2860 C 0.50554 0.80856 0.79844 0.0
C2861 C 0.50785 0.80211 0.81623 0.0
C2862 C 0.48808 0.80754 0.78952 0.0
C2863 C 0.47266 0.79997 0.7982 0.0
C2864 C 0.47495 0.7922 0.81525 0.0
C2865 C 0.49239 0.79329 0.82421 0.0
C2866 C 0.42155 0.79126 0.78685 0.0
C2867 C 0.41964 0.81012 0.78388 0.0
C2868 C 0.43885 0.78755 0.79053 0.0
C2869 C 0.45451 0.80258 0.79112 0.0
C2870 C 0.45261 0.82109 0.78708 0.0
C2871 C 0.43534 0.82484 0.78354 0.0
H2872 H 0.48476 0.14766 0.09292 0.0
H2873 H 0.53976 0.18093 0.09233 0.0
H2874 H 0.49183 0.11917 0.07326 0.0
H2875 H 0.54677 0.15272 0.07284 0.0
H2876 H 0.55945 0.0941 0.05364 0.0
H2877 H 0.55064 0.11945 0.07588 0.0
H2878 H 0.49923 0.11044 0.03998 0.0
H2879 H 0.50785 0.08472 0.01806 0.0
C2880 C 0.4983 0.14886 0.08854 0.0
C2881 C 0.51178 0.16635 0.09425 0.0
C2882 C 0.50235 0.13261 0.07737 0.0
C2883 C 0.51991 0.13372 0.07177 0.0
C2884 C 0.53326 0.1513 0.07737 0.0
C2885 C 0.52924 0.16745 0.08848 0.0
C2886 C 0.54624 0.09749 0.05063 0.0
C2887 C 0.53439 0.08773 0.03414 0.0
C2888 C 0.54122 0.11197 0.06328 0.0
C2889 C 0.52432 0.11696 0.05953 0.0
C2890 C 0.51226 0.10675 0.04328 0.0
C2891 C 0.51727 0.09223 0.03066 0.0
H2892 H 0.16991 0.3409 0.30851 0.0
H2893 H 0.1839 0.29523 0.33798 0.0
H2894 H 0.19325 0.33702 0.2871 0.0
H2895 H 0.20644 0.29092 0.3162 0.0
H2896 H 0.23362 0.2744 0.26647 0.0
H2897 H 0.20577 0.27975 0.279 0.0
H2898 H 0.22959 0.34218 0.29395 0.0
H2899 H 0.25769 0.33699 0.28151 0.0
C2900 C 0.17794 0.33009 0.31044 0.0
C2901 C 0.17503 0.31831 0.3249 0.0
C2902 C 0.19111 0.32778 0.2981 0.0
C2903 C 0.20128 0.31346 0.29987 0.0
C2904 C 0.19839 0.30173 0.31428 0.0
C2905 C 0.18549 0.30421 0.32674 0.0
C2906 C 0.23283 0.28937 0.27194 0.0
C2907 C 0.24806 0.3052 0.27355 0.0
C2908 C 0.21687 0.29238 0.27908 0.0
C2909 C 0.21582 0.31127 0.28773 0.0
C2910 C 0.23019 0.32746 0.28736 0.0
C2911 C 0.24628 0.32445 0.28032 0.0
H2912 H 0.96238 0.0345 0.14555 0.0
H2913 H 1.00608 0.08337 0.17247 0.0
H2914 H 0.97723 0.03236 0.11626 0.0
H2915 H 0.02025 0.08196 0.14312 0.0
H2916 H 0.053 0.07044 0.09364 0.0
H2917 H 0.03724 0.07128 0.12179 0.0
H2918 H 0.98731 0.03887 0.08704 0.0
H2919 H 1.00385 0.03732 0.05835 0.0
C2920 C 0.97515 0.04491 0.14558 0.0
C2921 C 0.98259 0.05914 0.1624 0.0
C2922 C 0.98377 0.04378 0.12823 0.0
C2923 C 1.00049 0.05679 0.12638 0.0
C2924 C 1.00778 0.0711 0.14315 0.0
C2925 C 0.99924 0.07217 0.16045 0.0
C2926 C 0.03859 0.06344 0.09163 0.0
C2927 C 0.03007 0.05398 0.07297 0.0
C2928 C 0.02924 0.0641 0.10825 0.0
C2929 C 1.0104 0.05551 0.10764 0.0
C2930 C 1.0017 0.04581 0.08889 0.0
C2931 C 1.01126 0.04501 0.07204 0.0
H2932 H 0.28806 0.70065 0.43223 0.0
H2933 H 0.24113 0.71374 0.45777 0.0
H2934 H 0.27691 0.71001 0.40221 0.0
H2935 H 0.22984 0.72296 0.42764 0.0
H2936 H 0.24077 0.76669 0.38184 0.0
H2937 H 0.24165 0.75087 0.40999 0.0
H2938 H 0.25001 0.69841 0.37536 0.0
H2939 H 0.24848 0.71401 0.3467 0.0
C2940 C 0.27544 0.70568 0.43141 0.0
C2941 C 0.26548 0.70665 0.44723 0.0
C2942 C 0.26887 0.71064 0.41418 0.0
C2943 C 0.25233 0.7168 0.41257 0.0
C2944 C 0.24252 0.71806 0.42851 0.0
C2945 C 0.24901 0.71291 0.44569 0.0
C2946 C 0.24186 0.75144 0.37989 0.0
C2947 C 0.24511 0.74183 0.36208 0.0
C2948 C 0.24248 0.74242 0.39614 0.0
C2949 C 0.24645 0.72371 0.39486 0.0
C2950 C 0.24739 0.71309 0.3767 0.0
C2951 C 0.24651 0.72202 0.36036 0.0
H2952 H 0.6079 0.0737 0.66278 0.0
H2953 H 0.61612 0.01538 0.64282 0.0
H2954 H 0.58878 0.07202 0.63269 0.0
H2955 H 0.59635 0.01355 0.61298 0.0
H2956 H 0.54147 0.01549 0.57498 0.0
H2957 H 0.56042 0.01558 0.60508 0.0
H2958 H 0.5975 0.06847 0.59616 0.0
H2959 H 0.57885 0.06826 0.56612 0.0
C2960 C 0.60569 0.06059 0.65194 0.0
C2961 C 0.61357 0.04472 0.65499 0.0
C2962 C 0.59469 0.05961 0.63488 0.0
C2963 C 0.59125 0.04267 0.62081 0.0
C2964 C 0.59881 0.02665 0.62388 0.0
C2965 C 0.61002 0.02771 0.64087 0.0
C2966 C 0.55367 0.02707 0.57956 0.0
C2967 C 0.55881 0.04189 0.56851 0.0
C2968 C 0.56447 0.02706 0.59656 0.0
C2969 C 0.58021 0.04207 0.60268 0.0
C2970 C 0.5853 0.05686 0.59161 0.0
C2971 C 0.57471 0.0567 0.57452 0.0
H2972 H 0.29114 0.35651 0.92375 0.0
H2973 H 0.31438 0.30768 0.93553 0.0
H2974 H 0.29176 0.34658 0.88935 0.0
H2975 H 0.31544 0.29805 0.90107 0.0
H2976 H 0.29643 0.276 0.83554 0.0
H2977 H 0.29579 0.28461 0.87036 0.0
H2978 H 0.31442 0.34628 0.86663 0.0
H2979 H 0.31485 0.3375 0.83184 0.0
C2980 C 0.29621 0.34352 0.91902 0.0
C2981 C 0.3027 0.33291 0.93251 0.0
C2982 C 0.2968 0.33798 0.89927 0.0
C2983 C 0.30383 0.32162 0.89239 0.0
C2984 C 0.30989 0.31069 0.90581 0.0
C2985 C 0.3094 0.3163 0.92561 0.0
C2986 C 0.30065 0.29133 0.84232 0.0
C2987 C 0.30593 0.30609 0.8312 0.0
C2988 C 0.30029 0.29629 0.86222 0.0
C2989 C 0.30497 0.31617 0.87134 0.0
C2990 C 0.31049 0.33087 0.86009 0.0
C2991 C 0.31095 0.32587 0.84023 0.0
H2992 H 0.96213 0.05792 0.38005 0.0
H2993 H 0.01472 0.06631 0.35919 0.0
H2994 H 0.97618 0.05393 0.41144 0.0
H2995 H 0.0288 0.06274 0.39079 0.0
H2996 H 0.04884 0.07698 0.45906 0.0
H2997 H 0.03548 0.08053 0.42703 0.0
H2998 H 0.99237 0.02956 0.42708 0.0
H2999 H 1.00628 0.02544 0.45862 0.0
C3000 C 0.97672 0.05909 0.38202 0.0
C3001 C 0.98702 0.06251 0.36648 0.0
C3002 C 0.98485 0.05663 0.40023 0.0
C3003 C 1.00384 0.05795 0.40415 0.0
C3004 C 0.01421 0.06166 0.38875 0.0
C3005 C 1.00601 0.06362 0.37036 0.0
C3006 C 0.03659 0.06639 0.45224 0.0
C3007 C 0.02888 0.0508 0.46179 0.0
C3008 C 0.02886 0.06841 0.43367 0.0
C3009 C 0.01261 0.05542 0.424 0.0
C3010 C 1.00477 0.04001 0.43373 0.0
C3011 C 0.01287 0.03756 0.45196 0.0
H3012 H 0.2639 0.70192 0.63343 0.0
H3013 H 0.30831 0.74455 0.61819 0.0
H3014 H 0.26383 0.72399 0.66321 0.0
H3015 H 0.30901 0.76608 0.64862 0.0
H3016 H 0.30027 0.80615 0.70109 0.0
H3017 H 0.29356 0.78705 0.66841 0.0
H3018 H 0.28432 0.73299 0.69231 0.0
H3019 H 0.29046 0.75192 0.72453 0.0
C3020 C 0.27354 0.71608 0.63634 0.0
C3021 C 0.28624 0.72139 0.62354 0.0
C3022 C 0.27361 0.72864 0.6535 0.0
C3023 C 0.28653 0.74668 0.65835 0.0
C3024 C 0.29878 0.75235 0.64523 0.0
C3025 C 0.29859 0.73986 0.62795 0.0
C3026 C 0.29649 0.79019 0.69922 0.0
C3027 C 0.29592 0.78047 0.71522 0.0
C3028 C 0.29275 0.77928 0.68059 0.0
C3029 C 0.28844 0.75852 0.67779 0.0
C3030 C 0.28727 0.74894 0.69392 0.0
C3031 C 0.29091 0.7598 0.71242 0.0
H3032 H 0.63814 0.05741 0.85241 0.0
H3033 H 0.59916 0.08624 0.82657 0.0
H3034 H 0.63275 0.0714 0.88395 0.0
H3035 H 0.59616 0.10293 0.8579 0.0
H3036 H 0.57121 0.09724 0.91395 0.0
H3037 H 0.58214 0.09803 0.88334 0.0
H3038 H 0.6361 0.09658 0.90881 0.0
H3039 H 0.62424 0.09387 0.93957 0.0
C3040 C 0.62846 0.06679 0.85339 0.0
C3041 C 0.61906 0.07057 0.8368 0.0
C3042 C 0.62585 0.07549 0.87161 0.0
C3043 C 0.61423 0.08875 0.87374 0.0
C3044 C 0.60505 0.09268 0.85708 0.0
C3045 C 0.60699 0.08326 0.83894 0.0
C3046 C 0.58563 0.09802 0.91329 0.0
C3047 C 0.59669 0.09456 0.92881 0.0
C3048 C 0.59202 0.09841 0.89549 0.0
C3049 C 0.60981 0.09606 0.89318 0.0
C3050 C 0.62197 0.09706 0.90979 0.0
C3051 C 0.61535 0.09597 0.92753 0.0
H3052 H 0.2884 0.36031 0.14082 0.0
H3053 H 0.32746 0.3257 0.12524 0.0
H3054 H 0.28653 0.34722 0.17111 0.0
H3055 H 0.32572 0.31285 0.1555 0.0
H3056 H 0.29952 0.27524 0.19854 0.0
H3057 H 0.30295 0.29033 0.16978 0.0
H3058 H 0.30499 0.34731 0.20329 0.0
H3059 H 0.30178 0.33196 0.23251 0.0
C3060 C 0.29659 0.34991 0.14379 0.0
C3061 C 0.30809 0.34412 0.13039 0.0
C3062 C 0.29566 0.34256 0.16131 0.0
C3063 C 0.306 0.32897 0.1659 0.0
C3064 C 0.31747 0.3232 0.15252 0.0
C3065 C 0.31857 0.33071 0.13514 0.0
C3066 C 0.30087 0.29104 0.1999 0.0
C3067 C 0.30046 0.30238 0.21792 0.0
C3068 C 0.30291 0.29974 0.18334 0.0
C3069 C 0.3043 0.3201 0.18406 0.0
C3070 C 0.30388 0.33156 0.20212 0.0
C3071 C 0.30219 0.32283 0.21891 0.0
H3072 H 0.21836 0.95859 0.04015 0.0
H3073 H 0.24088 1.00114 1.00508 0.0
H3074 H 0.19487 0.97672 0.04726 0.0
H3075 H 0.21691 0.01873 0.01146 0.0
H3076 H 0.18243 0.05617 0.04046 0.0
H3077 H 0.20715 0.03886 0.03799 0.0
H3078 H 0.16796 0.98295 0.0296 0.0
H3079 H 0.14333 1.00026 0.03293 0.0
C3080 C 0.21827 0.97182 0.03397 0.0
C3081 C 0.23138 0.97846 0.02202 0.0
C3082 C 0.20476 0.98208 0.03792 0.0
C3083 C 0.20412 0.99912 0.02993 0.0
C3084 C 0.21725 1.00577 0.01801 0.0
C3085 C 0.23078 0.99555 0.01412 0.0
C3086 C 0.17916 0.0402 0.03842 0.0
C3087 C 0.16099 0.02954 0.03665 0.0
C3088 C 0.19326 0.03031 0.03681 0.0
C3089 C 0.18941 1.00959 0.03338 0.0
C3090 C 0.17131 0.99894 0.03232 0.0
C3091 C 0.15721 1.00883 0.03397 0.0
H3092 H 0.68239 0.64923 0.02784 0.0
H3093 H 0.69182 0.60354 0.98466 0.0
H3094 H 0.65253 0.62882 0.03033 0.0
H3095 H 0.66169 0.58392 0.9861 0.0
H3096 H 0.61575 0.54239 1.00432 0.0
H3097 H 0.64517 0.56397 1.00415 0.0
H3098 H 0.62181 0.61474 0.01736 0.0
H3099 H 0.59217 0.59255 0.01875 0.0
C3100 C 0.67819 0.63487 0.01882 0.0
C3101 C 0.68987 0.62818 1.00609 0.0
C3102 C 0.66081 0.6232 0.02007 0.0
C3103 C 0.65443 0.60444 1.00858 0.0
C3104 C 0.66601 0.59798 0.99561 0.0
C3105 C 0.68338 0.60952 0.99449 0.0
C3106 C 0.61679 0.55817 1.00723 0.0
C3107 C 0.60139 0.56567 0.01121 0.0
C3108 C 0.63379 0.57068 1.00693 0.0
C3109 C 0.63611 0.59134 0.01019 0.0
C3110 C 0.62076 0.59897 0.01473 0.0
C3111 C 0.60365 0.58627 0.01537 0.0
H3112 H 0.70622 0.40751 0.24601 0.0
H3113 H 0.74209 0.43764 0.29708 0.0
H3114 H 0.72147 0.3799 0.24494 0.0
H3115 H 0.75718 0.41006 0.29606 0.0
H3116 H 0.79359 0.3651 0.2815 0.0
H3117 H 0.77768 0.39207 0.28242 0.0
H3118 H 0.72799 0.35079 0.25658 0.0
H3119 H 0.74403 0.32361 0.25593 0.0
C3120 C 0.71737 0.40857 0.2571 0.0
C3121 C 0.72248 0.42566 0.27166 0.0
C3122 C 0.72621 0.39227 0.25656 0.0
C3123 C 0.74102 0.39198 0.27035 0.0
C3124 C 0.74616 0.40909 0.28484 0.0
C3125 C 0.73716 0.42522 0.28555 0.0
C3126 C 0.77924 0.36151 0.27597 0.0
C3127 C 0.7705 0.34152 0.26862 0.0
C3128 C 0.76988 0.37731 0.27661 0.0
C3129 C 0.75109 0.3744 0.26964 0.0
C3130 C 0.74234 0.35437 0.26208 0.0
C3131 C 0.75167 0.33845 0.26177 0.0
H3132 H 0.90691 0.52454 0.52831 0.0
H3133 H 0.90894 0.46993 0.54913 0.0
H3134 H 0.93971 0.53036 0.52619 0.0
H3135 H 0.94147 0.47618 0.54757 0.0
H3136 H 1.00378 0.504 0.55156 0.0
H3137 H 0.97239 0.49967 0.55926 0.0
H3138 H 0.95493 0.50935 0.50224 0.0
H3139 H 0.98622 0.51379 0.49456 0.0
C3140 C 0.91437 0.51408 0.53288 0.0
C3141 C 0.90525 0.49664 0.53856 0.0
C3142 C 0.93306 0.51738 0.53164 0.0
C3143 C 0.94283 0.50343 0.53632 0.0
C3144 C 0.93414 0.48709 0.54387 0.0
C3145 C 0.91548 0.48365 0.5449 0.0
C3146 C 0.99313 0.50476 0.54057 0.0
C3147 C 0.99734 0.50928 0.52252 0.0
C3148 C 0.97528 0.50245 0.54502 0.0
C3149 C 0.96152 0.5048 0.5315 0.0
C3150 C 0.96551 0.50804 0.51304 0.0
C3151 C 0.98331 0.51014 0.50852 0.0
H3152 H 0.39461 0.12141 0.24838 0.0
H3153 H 0.3595 0.10194 0.2904 0.0
H3154 H 0.37453 0.1422 0.2393 0.0
H3155 H 0.3402 0.12404 0.28241 0.0
H3156 H 0.29999 0.15239 0.2548 0.0
H3157 H 0.31849 0.12821 0.25764 0.0
H3158 H 0.36662 0.17174 0.25159 0.0
H3159 H 0.34795 0.19535 0.24735 0.0
C3160 C 0.38262 0.1216 0.25572 0.0
C3161 C 0.37857 0.10992 0.27001 0.0
C3162 C 0.37122 0.1337 0.25065 0.0
C3163 C 0.35571 0.13468 0.26003 0.0
C3164 C 0.35184 0.12328 0.2746 0.0
C3165 C 0.3631 0.11092 0.27947 0.0
C3166 C 0.31442 0.15655 0.25342 0.0
C3167 C 0.3226 0.17581 0.25113 0.0
C3168 C 0.32506 0.14282 0.25539 0.0
C3169 C 0.34406 0.1482 0.25528 0.0
C3170 C 0.35202 0.16708 0.2517 0.0
C3171 C 0.34136 0.18068 0.24947 0.0
H3172 H 0.38575 0.16188 0.49867 0.0
H3173 H 0.35733 0.12222 0.53317 0.0
H3174 H 0.41157 0.14624 0.50104 0.0
H3175 H 0.38351 0.10744 0.53651 0.0
H3176 H 0.42325 0.06899 0.51935 0.0
H3177 H 0.39838 0.08597 0.51907 0.0
H3178 H 0.43686 0.14132 0.52056 0.0
H3179 H 0.46184 0.12412 0.52052 0.0
C3180 C 0.38494 0.14985 0.50679 0.0
C3181 C 0.36919 0.14331 0.51555 0.0
C3182 C 0.39997 0.14103 0.50841 0.0
C3183 C 0.39978 0.12539 0.5189 0.0
C3184 C 0.38419 0.11915 0.528 0.0
C3185 C 0.36915 0.12789 0.5263 0.0
C3186 C 0.42651 0.08483 0.5199 0.0
C3187 C 0.44468 0.0951 0.51996 0.0
C3188 C 0.41215 0.09465 0.51976 0.0
C3189 C 0.41541 0.11515 0.51978 0.0
C3190 C 0.43364 0.12551 0.52018 0.0
C3191 C 0.44804 0.11563 0.52021 0.0
H3192 H 0.72161 0.648 0.30096 0.0
H3193 H 0.73997 0.62589 0.24781 0.0
H3194 H 0.73797 0.68148 0.29874 0.0
H3195 H 0.75584 0.65919 0.24536 0.0
H3196 H 0.79926 0.7175 0.2547 0.0
H3197 H 0.78121 0.68493 0.25632 0.0
H3198 H 0.74197 0.71148 0.2848 0.0
H3199 H 0.76054 0.74446 0.28338 0.0
C3200 C 0.72911 0.65005 0.28875 0.0
C3201 C 0.72918 0.63349 0.27465 0.0
C3202 C 0.73847 0.66961 0.28735 0.0
C3203 C 0.74866 0.67377 0.27188 0.0
C3204 C 0.7486 0.6572 0.25776 0.0
C3205 C 0.73914 0.63774 0.25906 0.0
C3206 C 0.78665 0.7166 0.26111 0.0
C3207 C 0.7815 0.7342 0.26849 0.0
C3208 C 0.77607 0.69758 0.262 0.0
C3209 C 0.75967 0.69481 0.27061 0.0
C3210 C 0.75439 0.71245 0.27805 0.0
C3211 C 0.765 0.73166 0.27695 0.0
H3212 H 0.88799 0.42453 0.74915 0.0
H3213 H 0.83954 0.44789 0.74259 0.0
H3214 H 0.86933 0.39294 0.75235 0.0
H3215 H 0.82092 0.41634 0.74692 0.0
H3216 H 0.79598 0.34934 0.74719 0.0
H3217 H 0.81058 0.37981 0.73674 0.0
H3218 H 0.85466 0.38884 0.78284 0.0
H3219 H 0.84011 0.358 0.79297 0.0
C3220 C 0.87331 0.42274 0.7476 0.0
C3221 C 0.86519 0.43882 0.74638 0.0
C3222 C 0.86269 0.40475 0.74982 0.0
C3223 C 0.84397 0.4028 0.75092 0.0
C3224 C 0.83547 0.41781 0.7466 0.0
C3225 C 0.84608 0.43578 0.74413 0.0
C3226 C 0.80853 0.35827 0.75537 0.0
C3227 C 0.81717 0.35167 0.77072 0.0
C3228 C 0.81687 0.3755 0.74934 0.0
C3229 C 0.83392 0.3861 0.75862 0.0
C3230 C 0.84171 0.38041 0.77515 0.0
C3231 C 0.83331 0.36314 0.7812 0.0
H3232 H 0.08929 0.89813 0.05027 0.0
H3233 H 0.05385 0.9103 0.09316 0.0
H3234 H 0.08471 0.92699 0.03659 0.0
H3235 H 0.0488 0.93855 0.07894 0.0
H3236 H 0.02963 0.97604 0.03626 0.0
H3237 H 0.03419 0.94634 0.04834 0.0
H3238 H 0.09214 0.96451 0.04612 0.0
H3239 H 0.08762 0.99449 0.03428 0.0
C3240 C 0.08061 0.9069 0.05693 0.0
C3241 C 0.07202 0.90161 0.073 0.0
C3242 C 0.07792 0.92347 0.04896 0.0
C3243 C 0.06636 0.93516 0.05661 0.0
C3244 C 0.05761 0.92979 0.07248 0.0
C3245 C 0.06048 0.91342 0.08061 0.0
C3246 C 0.04336 0.9737 0.0382 0.0
C3247 C 0.05826 0.98778 0.03429 0.0
C3248 C 0.04598 0.95668 0.04527 0.0
C3249 C 0.06355 0.95299 0.04832 0.0
C3250 C 0.07841 0.96678 0.04388 0.0
C3251 C 0.07583 0.98404 0.03716 0.0
H3252 H 0.92117 0.25136 0.83751 0.0
H3253 H 0.92234 0.30668 0.87379 0.0
H3254 H 0.89364 0.25418 0.81867 0.0
H3255 H 0.89506 0.30986 0.85424 0.0
H3256 H 0.83561 0.30039 0.82093 0.0
H3257 H 0.86138 0.29716 0.8435 0.0
H3258 H 0.88626 0.27363 0.79537 0.0
H3259 H 0.86113 0.2768 0.77339 0.0
C3260 C 0.91558 0.26411 0.84168 0.0
C3261 C 0.9244 0.2788 0.85734 0.0
C3262 C 0.89975 0.26586 0.83061 0.0
C3263 C 0.89201 0.2824 0.83464 0.0
C3264 C 0.90044 0.29686 0.85062 0.0
C3265 C 0.91635 0.29513 0.86172 0.0
C3266 C 0.8466 0.29452 0.81527 0.0
C3267 C 0.84614 0.28886 0.79523 0.0
C3268 C 0.86145 0.29271 0.82819 0.0
C3269 C 0.87601 0.28488 0.82141 0.0
C3270 C 0.87533 0.27933 0.80138 0.0
C3271 C 0.86082 0.28134 0.78865 0.0
H3272 H 0.5429 0.20188 0.55777 0.0
H3273 H 0.60076 0.21169 0.55352 0.0
H3274 H 0.53938 0.16702 0.54578 0.0
H3275 H 0.59748 0.17648 0.5427 0.0
H3276 H 0.58354 0.11257 0.51107 0.0
H3277 H 0.58682 0.1484 0.51869 0.0
H3278 H 0.54539 0.1394 0.55723 0.0
H3279 H 0.54145 0.1039 0.54854 0.0
C3280 C 0.55488 0.19665 0.55409 0.0
C3281 C 0.57214 0.20965 0.55673 0.0
C3282 C 0.55292 0.17652 0.54751 0.0
C3283 C 0.56819 0.16872 0.54359 0.0
C3284 C 0.58537 0.18185 0.5455 0.0
C3285 C 0.5873 0.20206 0.55194 0.0
C3286 C 0.57519 0.11842 0.52113 0.0
C3287 C 0.56218 0.10563 0.52915 0.0
C3288 C 0.57708 0.13891 0.52558 0.0
C3289 C 0.56625 0.14694 0.53847 0.0
C3290 C 0.55358 0.1339 0.54679 0.0
C3291 C 0.55141 0.11353 0.54198 0.0
H3292 H 0.60125 0.81415 0.35179 0.0
H3293 H 0.61755 0.76896 0.38012 0.0
H3294 H 0.62961 0.81891 0.33711 0.0
H3295 H 0.64554 0.7732 0.36488 0.0
H3296 H 0.70171 0.79659 0.34754 0.0
H3297 H 0.67468 0.79531 0.36434 0.0
H3298 H 0.64368 0.80199 0.31238 0.0
H3299 H 0.67057 0.80308 0.29554 0.0
C3300 C 0.61088 0.80527 0.35498 0.0
C3301 C 0.60692 0.79105 0.3671 0.0
C3302 C 0.62711 0.80786 0.34637 0.0
C3303 C 0.63993 0.79638 0.34967 0.0
C3304 C 0.63613 0.78245 0.36208 0.0
C3305 C 0.61989 0.77982 0.37064 0.0
C3306 C 0.68913 0.79774 0.33964 0.0
C3307 C 0.68845 0.79983 0.32006 0.0
C3308 C 0.67358 0.797 0.34931 0.0
C3309 C 0.65686 0.79842 0.33974 0.0
C3310 C 0.65631 0.80109 0.32034 0.0
C3311 C 0.67183 0.80176 0.31065 0.0
H3312 H 0.04867 0.24649 0.44811 0.0
H3313 H 0.09551 0.22523 0.43085 0.0
H3314 H 0.04025 0.21842 0.4649 0.0
H3315 H 0.08729 0.19741 0.44789 0.0
H3316 H 0.05887 0.14092 0.46638 0.0
H3317 H 0.06283 0.16689 0.44659 0.0
H3318 H 0.05403 0.20827 0.49432 0.0
H3319 H 0.05035 0.18244 0.51424 0.0
C3320 C 0.05708 0.23574 0.44782 0.0
C3321 C 0.07281 0.23806 0.43831 0.0
C3322 C 0.05233 0.21978 0.4575 0.0
C3323 C 0.06313 0.20579 0.4577 0.0
C3324 C 0.07862 0.20788 0.44782 0.0
C3325 C 0.08345 0.22391 0.43827 0.0
C3326 C 0.05779 0.15557 0.47265 0.0
C3327 C 0.05456 0.15971 0.49196 0.0
C3328 C 0.06001 0.17039 0.4613 0.0
C3329 C 0.05889 0.1896 0.46899 0.0
C3330 C 0.05481 0.19353 0.48798 0.0
C3331 C 0.05269 0.17874 0.49938 0.0
H3332 H 0.58197 0.25908 0.24419 0.0
H3333 H 0.60567 0.29767 0.20615 0.0
H3334 H 0.61247 0.26011 0.25964 0.0
H3335 H 0.63606 0.2986 0.22143 0.0
H3336 H 0.68899 0.30313 0.25758 0.0
H3337 H 0.65809 0.30799 0.25097 0.0
H3338 H 0.63654 0.24529 0.24663 0.0
H3339 H 0.66724 0.24041 0.25302 0.0
C3340 C 0.5937 0.26798 0.23935 0.0
C3341 C 0.59154 0.27816 0.22392 0.0
C3342 C 0.6111 0.26858 0.24817 0.0
C3343 C 0.62659 0.27931 0.24162 0.0
C3344 C 0.62435 0.29043 0.22694 0.0
C3345 C 0.60696 0.28987 0.21817 0.0
C3346 C 0.67761 0.29043 0.25534 0.0
C3347 C 0.68051 0.27137 0.25568 0.0
C3348 C 0.65997 0.29323 0.25164 0.0
C3349 C 0.64496 0.27702 0.24831 0.0
C3350 C 0.64782 0.2581 0.2495 0.0
C3351 C 0.66542 0.2553 0.25313 0.0
H3352 H 0.58756 0.93672 0.92517 0.0
H3353 H 0.60173 0.91178 0.97521 0.0
H3354 H 0.58044 0.96442 0.94596 0.0
H3355 H 0.59442 0.9394 0.99608 0.0
H3356 H 0.55265 0.97481 0.01958 0.0
H3357 H 0.56319 0.94897 0.99938 0.0
H3358 H 0.59627 0.99344 0.97301 0.0
H3359 H 0.58582 0.01909 0.99328 0.0
C3360 C 0.58941 0.93742 0.94066 0.0
C3361 C 0.59514 0.9223 0.94872 0.0
C3362 C 0.58538 0.95319 0.9525 0.0
C3363 C 0.58674 0.95383 0.97253 0.0
C3364 C 0.59312 0.93905 0.98063 0.0
C3365 C 0.59744 0.92344 0.96878 0.0
C3366 C 0.56205 0.9789 1.00932 0.0
C3367 C 0.56831 0.9987 1.00765 0.0
C3368 C 0.56821 0.96426 0.99798 0.0
C3369 C 0.58059 0.96933 0.98479 0.0
C3370 C 0.58667 0.98921 0.98304 0.0
C3371 C 0.58067 1.00382 0.99454 0.0
H3372 H 0.90788 0.74068 0.69869 0.0
H3373 H 0.94272 0.79362 0.73221 0.0
H3374 H 0.88333 0.74488 0.71798 0.0
H3375 H 0.91833 0.79764 0.75192 0.0
H3376 H 0.86244 0.81364 0.75686 0.0
H3377 H 0.89011 0.80717 0.74518 0.0
H3378 H 0.87198 0.74539 0.74898 0.0
H3379 H 0.84375 0.75178 0.76018 0.0
C3380 C 0.91036 0.75297 0.71048 0.0
C3381 C 0.92701 0.76698 0.71386 0.0
C3382 C 0.89638 0.75532 0.72161 0.0
C3383 C 0.89888 0.77165 0.73641 0.0
C3384 C 0.91591 0.78509 0.7404 0.0
C3385 C 0.92983 0.78283 0.72915 0.0
C3386 C 0.86439 0.79869 0.75548 0.0
C3387 C 0.85078 0.78316 0.75916 0.0
C3388 C 0.88038 0.79502 0.74893 0.0
C3389 C 0.88319 0.77575 0.74608 0.0
C3390 C 0.87003 0.76035 0.75078 0.0
C3391 C 0.85391 0.76401 0.75723 0.0
H3392 H 0.09974 0.99678 0.87066 0.0
H3393 H 0.13182 0.05588 0.89006 0.0
H3394 H 0.08561 0.99819 0.90026 0.0
H3395 H 0.11709 0.05754 0.91959 0.0
H3396 H 0.09433 0.0518 0.97978 0.0
H3397 H 0.11096 0.05074 0.95106 0.0
H3398 H 0.06493 1.00795 0.91884 0.0
H3399 H 0.04892 1.0088 0.947 0.0
C3400 C 0.10401 1.01022 0.88109 0.0
C3401 C 0.11736 0.02615 0.87706 0.0
C3402 C 0.0955 1.01116 0.89843 0.0
C3403 C 0.09968 0.02811 0.91314 0.0
C3404 C 0.11316 0.04402 0.90923 0.0
C3405 C 0.12164 0.0431 0.89179 0.0
C3406 C 0.08781 0.04198 0.96666 0.0
C3407 C 0.06998 0.03027 0.96637 0.0
C3408 C 0.0974 0.04144 0.94982 0.0
C3409 C 0.08976 0.02908 0.93183 0.0
C3410 C 0.072 0.01745 0.93189 0.0
C3411 C 0.06254 0.01806 0.94845 0.0
H3412 H 0.85506 0.40645 0.60798 0.0
H3413 H 0.81104 0.35523 0.5878 0.0
H3414 H 0.8655 0.39033 0.63378 0.0
H3415 H 0.82068 0.33981 0.61422 0.0
H3416 H 0.84597 0.30668 0.64936 0.0
H3417 H 0.8454 0.32497 0.62306 0.0
H3418 H 0.85697 0.3796 0.66345 0.0
H3419 H 0.85923 0.36137 0.69003 0.0
C3420 C 0.84759 0.39178 0.60907 0.0
C3421 C 0.83237 0.38197 0.59567 0.0
C3422 C 0.85351 0.38265 0.62393 0.0
C3423 C 0.84421 0.36362 0.62571 0.0
C3424 C 0.82853 0.35422 0.61282 0.0
C3425 C 0.82275 0.36323 0.59789 0.0
C3426 C 0.84936 0.32262 0.6528 0.0
C3427 C 0.85196 0.33248 0.67196 0.0
C3428 C 0.84864 0.3331 0.63762 0.0
C3429 C 0.8502 0.35357 0.64127 0.0
C3430 C 0.85533 0.36375 0.66021 0.0
C3431 C 0.85646 0.35326 0.67546 0.0
H3432 H 0.50728 0.03111 0.36736 0.0
H3433 H 0.4692 0.05491 0.40065 0.0
H3434 H 0.52775 0.03364 0.39697 0.0
H3435 H 0.48951 0.05703 0.43036 0.0
H3436 H 0.5193 0.02386 0.47323 0.0
H3437 H 0.50024 0.02537 0.44406 0.0
H3438 H 0.54539 0.06484 0.42636 0.0
H3439 H 0.56443 0.06405 0.45611 0.0
C3440 C 0.50345 0.03698 0.38106 0.0
C3441 C 0.48686 0.04283 0.38203 0.0
C3442 C 0.5151 0.03852 0.39783 0.0
C3443 C 0.51005 0.04557 0.41566 0.0
C3444 C 0.49354 0.05161 0.41661 0.0
C3445 C 0.48204 0.05043 0.39979 0.0
C3446 C 0.52508 0.03309 0.46326 0.0
C3447 C 0.54316 0.04413 0.46693 0.0
C3448 C 0.51421 0.03392 0.44667 0.0
C3449 C 0.52145 0.04539 0.43334 0.0
C3450 C 0.53966 0.05603 0.43668 0.0
C3451 C 0.55046 0.05554 0.45354 0.0
H3452 H 0.80603 0.78002 0.10641 0.0
H3453 H 0.77351 0.72309 0.11199 0.0
H3454 H 0.80681 0.79104 0.14098 0.0
H3455 H 0.77395 0.73431 0.14625 0.0
H3456 H 0.76477 0.7668 0.20437 0.0
H3457 H 0.76262 0.75818 0.16925 0.0
H3458 H 0.82029 0.7832 0.17163 0.0
H3459 H 0.82247 0.79176 0.20654 0.0
C3460 C 0.79905 0.76983 0.11492 0.0
C3461 C 0.78962 0.75066 0.10622 0.0
C3462 C 0.79945 0.77619 0.13475 0.0
C3463 C 0.79033 0.7636 0.14638 0.0
C3464 C 0.78081 0.74453 0.13768 0.0
C3465 C 0.78053 0.73812 0.11794 0.0
C3466 C 0.77694 0.7706 0.19737 0.0
C3467 C 0.7938 0.77985 0.20831 0.0
C3468 C 0.77574 0.76556 0.17727 0.0
C3469 C 0.7913 0.76994 0.16762 0.0
C3470 C 0.80801 0.77973 0.17854 0.0
C3471 C 0.80927 0.7845 0.19861 0.0
H3472 H 0.11644 0.99685 0.65858 0.0
H3473 H 0.10849 0.05378 0.68291 0.0
H3474 H 0.10247 1.00037 0.62726 0.0
H3475 H 0.09416 0.05721 0.65177 0.0
H3476 H 0.0793 0.06723 0.58971 0.0
H3477 H 0.0931 0.06363 0.62118 0.0
H3478 H 0.07981 1.00036 0.60393 0.0
H3479 H 0.06663 1.00419 0.57232 0.0
C3480 C 0.11157 1.01012 0.6575 0.0
C3481 C 0.114 0.02499 0.67396 0.0
C3482 C 0.10334 1.0122 0.63915 0.0
C3483 C 0.09684 0.02922 0.63608 0.0
C3484 C 0.09909 0.04396 0.65267 0.0
C3485 C 0.10745 0.04194 0.67095 0.0
C3486 C 0.07925 0.05249 0.59255 0.0
C3487 C 0.07162 0.03609 0.57792 0.0
C3488 C 0.08721 0.05032 0.61097 0.0
C3489 C 0.08797 0.03159 0.61598 0.0
C3490 C 0.08014 0.01518 0.60127 0.0
C3491 C 0.07228 0.01738 0.58282 0.0
H3492 H 0.83075 0.34814 0.42523 0.0
H3493 H 0.79119 0.37641 0.39987 0.0
H3494 H 0.82998 0.32737 0.39396 0.0
H3495 H 0.79041 0.35574 0.36883 0.0
H3496 H 0.81067 0.33455 0.31332 0.0
H3497 H 0.81463 0.35378 0.3455 0.0
H3498 H 0.8055 0.30013 0.36989 0.0
H3499 H 0.80148 0.28065 0.33741 0.0
C3500 C 0.82191 0.34986 0.41297 0.0
C3501 C 0.81104 0.36383 0.41485 0.0
C3502 C 0.82141 0.33796 0.39521 0.0
C3503 C 0.81025 0.34014 0.37908 0.0
C3504 C 0.79927 0.35397 0.38105 0.0
C3505 C 0.7996 0.36565 0.3988 0.0
C3506 C 0.80981 0.32682 0.32554 0.0
C3507 C 0.80562 0.30613 0.32294 0.0
C3508 C 0.81197 0.33784 0.34392 0.0
C3509 C 0.81012 0.32837 0.36004 0.0
C3510 C 0.80698 0.3077 0.3576 0.0
C3511 C 0.80466 0.29661 0.3391 0.0
H3512 H 0.49194 0.98593 0.21095 0.0
H3513 H 0.47171 0.0322 0.18814 0.0
H3514 H 0.4963 0.97173 0.17852 0.0
H3515 H 0.4768 0.01864 0.156 0.0
H3516 H 0.47991 0.9951 0.10023 0.0
H3517 H 0.46624 0.99046 0.12976 0.0
H3518 H 0.51724 0.98188 0.156 0.0
H3519 H 0.53056 0.98594 0.12657 0.0
C3520 C 0.48858 0.99312 0.19898 0.0
C3521 C 0.48161 1.0102 0.20197 0.0
C3522 C 0.49093 0.98492 0.18047 0.0
C3523 C 0.48642 0.99374 0.16468 0.0
C3524 C 0.47979 1.01108 0.16779 0.0
C3525 C 0.47738 0.0192 0.18626 0.0
C3526 C 0.48778 0.99107 0.11197 0.0
C3527 C 0.50645 0.99172 0.11156 0.0
C3528 C 0.48004 0.98858 0.12889 0.0
C3529 C 0.49103 0.9869 0.1454 0.0
C3530 C 0.50853 0.98351 0.14361 0.0
C3531 C 0.51619 0.9858 0.12664 0.0
H3532 H 0.82649 0.74843 0.91332 0.0
H3533 H 0.76783 0.73866 0.9023 0.0
H3534 H 0.82945 0.76011 0.88291 0.0
H3535 H 0.77084 0.75201 0.8726 0.0
H3536 H 0.77942 0.76212 0.8114 0.0
H3537 H 0.77631 0.74819 0.84099 0.0
H3538 H 0.82895 0.7849 0.86585 0.0
H3539 H 0.83252 0.79735 0.83584 0.0
C3540 C 0.81414 0.74876 0.90449 0.0
C3541 C 0.79689 0.74234 0.91054 0.0
C3542 C 0.81586 0.75588 0.88699 0.0
C3543 C 0.80041 0.75724 0.87491 0.0
C3544 C 0.78315 0.75102 0.88108 0.0
C3545 C 0.78142 0.74362 0.89848 0.0
C3546 C 0.79049 0.76683 0.82303 0.0
C3547 C 0.80637 0.78058 0.82097 0.0
C3548 C 0.7886 0.75909 0.84028 0.0
C3549 C 0.80238 0.76521 0.85619 0.0
C3550 C 0.81816 0.77921 0.85403 0.0
C3551 C 0.82017 0.78656 0.83671 0.0
H3552 H 0.88239 0.11741 0.04372 0.0
H3553 H 0.85602 0.09187 0.98622 0.0
H3554 H 0.90754 0.10136 0.03787 0.0
H3555 H 0.88143 0.07617 0.98022 0.0
H3556 H 0.91785 0.0316 0.99078 0.0
H3557 H 0.89336 0.04917 0.99348 0.0
H3558 H 0.93289 0.10331 0.01664 0.0
H3559 H 0.9575 0.0859 0.01355 0.0
C3560 C 0.88201 0.10835 0.02985 0.0
C3561 C 0.86731 0.10578 0.01544 0.0
C3562 C 0.89646 0.09939 0.02643 0.0
C3563 C 0.89639 0.08765 1.00858 0.0
C3564 C 0.88172 0.08511 0.99413 0.0
C3565 C 0.86729 0.09416 0.99752 0.0
C3566 C 0.92135 0.04732 0.99613 0.0
C3567 C 0.93958 0.05733 1.00215 0.0
C3568 C 0.90734 0.05734 0.99767 0.0
C3569 C 0.91131 0.07751 1.00539 0.0
C3570 C 0.92952 0.08767 0.01092 0.0
C3571 C 0.94355 0.07769 1.00924 0.0
H3572 H 0.41864 0.46692 0.06541 0.0
H3573 H 0.41224 0.45175 1.00336 0.0
H3574 H 0.44925 0.48577 0.06487 0.0
H3575 H 0.44231 0.47217 1.00267 0.0
H3576 H 0.50332 0.49919 1.00631 0.0
H3577 H 0.47347 0.47772 1.00687 0.0
H3578 H 0.46731 0.51392 0.05973 0.0
H3579 H 0.49756 0.53411 0.0598 0.0
C3580 C 0.42364 0.46753 0.05156 0.0
C3581 C 0.41256 0.45752 0.03445 0.0
C3582 C 0.44132 0.47882 0.05121 0.0
C3583 C 0.44866 0.48096 0.0337 0.0
C3584 C 0.43758 0.47093 0.01656 0.0
C3585 C 0.41997 0.45936 0.01694 0.0
C3586 C 0.49573 0.50229 0.01823 0.0
C3587 C 0.50314 0.51827 0.03316 0.0
C3588 C 0.47833 0.49009 0.01845 0.0
C3589 C 0.46755 0.49373 0.03341 0.0
C3590 C 0.47504 0.50997 0.04818 0.0
C3591 C 0.49252 0.52181 0.04815 0.0
H3592 H 0.39528 0.67571 0.74778 0.0
H3593 H 0.35911 0.64978 0.78566 0.0
H3594 H 0.38027 0.70358 0.74906 0.0
H3595 H 0.34407 0.6775 0.78682 0.0
H3596 H 0.30781 0.72128 0.77197 0.0
H3597 H 0.32364 0.69422 0.77136 0.0
H3598 H 0.37398 0.73414 0.76602 0.0
H3599 H 0.35805 0.76143 0.76699 0.0
C3600 C 0.38409 0.67566 0.75639 0.0
C3601 C 0.37881 0.65969 0.76656 0.0
C3602 C 0.37539 0.69208 0.75726 0.0
C3603 C 0.3605 0.69355 0.76803 0.0
C3604 C 0.35518 0.67752 0.77811 0.0
C3605 C 0.3641 0.66133 0.77755 0.0
C3606 C 0.3223 0.72456 0.77075 0.0
C3607 C 0.33125 0.74422 0.76957 0.0
C3608 C 0.33159 0.70872 0.77047 0.0
C3609 C 0.35052 0.7112 0.76861 0.0
C3610 C 0.35951 0.73089 0.76731 0.0
C3611 C 0.35024 0.74688 0.76797 0.0
H3612 H 0.19246 0.5631 0.50852 0.0
H3613 H 0.19186 0.62263 0.49994 0.0
H3614 H 0.15932 0.55621 0.5092 0.0
H3615 H 0.15891 0.61571 0.50056 0.0
H3616 H 0.09598 0.58519 0.48796 0.0
H3617 H 0.12821 0.59202 0.48235 0.0
H3618 H 0.14257 0.57266 0.53579 0.0
H3619 H 0.11074 0.56634 0.5416 0.0
C3620 C 0.18517 0.57451 0.50641 0.0
C3621 C 0.19457 0.59331 0.5041 0.0
C3622 C 0.16635 0.57062 0.50682 0.0
C3623 C 0.15679 0.58553 0.50502 0.0
C3624 C 0.16603 0.60398 0.50172 0.0
C3625 C 0.18482 0.60787 0.50132 0.0
C3626 C 0.10617 0.58289 0.49865 0.0
C3627 C 0.10108 0.57558 0.51531 0.0
C3628 C 0.12445 0.58661 0.49538 0.0
C3629 C 0.13762 0.58248 0.5085 0.0
C3630 C 0.13254 0.57567 0.52538 0.0
C3631 C 0.11442 0.57242 0.52885 0.0
H3632 H 0.7333 0.99306 0.79638 0.0
H3633 H 0.71323 0.95824 0.74012 0.0
H3634 H 0.75096 0.96899 0.80353 0.0
H3635 H 0.73118 0.93442 0.74712 0.0
H3636 H 0.74971 0.88622 0.77459 0.0
H3637 H 0.73096 0.91001 0.77043 0.0
H3638 H 0.77801 0.95788 0.79034 0.0
H3639 H 0.79689 0.93416 0.79415 0.0
C3640 C 0.73266 0.98022 0.7856 0.0
C3641 C 0.72193 0.97737 0.76774 0.0
C3642 C 0.74281 0.96659 0.78964 0.0
C3643 C 0.74225 0.94991 0.7759 0.0
C3644 C 0.73158 0.94709 0.75802 0.0
C3645 C 0.72152 0.96077 0.75394 0.0
C3646 C 0.75604 0.90183 0.77805 0.0
C3647 C 0.77478 0.9084 0.78445 0.0
C3648 C 0.74532 0.91537 0.77572 0.0
C3649 C 0.75316 0.93566 0.77993 0.0
C3650 C 0.77169 0.94226 0.78714 0.0
C3651 C 0.78245 0.92872 0.78934 0.0
H3652 H 0.73757 0.9527 0.49865 0.0
H3653 H 0.72066 0.93059 0.54973 0.0
H3654 H 0.71125 0.96777 0.49656 0.0
H3655 H 0.69442 0.94551 0.54761 0.0
H3656 H 0.6627 0.99431 0.55229 0.0
H3657 H 0.6874 0.97705 0.55263 0.0
H3658 H 0.67857 0.96295 0.49051 0.0
H3659 H 0.65377 0.98042 0.49018 0.0
C3660 C 0.72817 0.95084 0.50933 0.0
C3661 C 0.73152 0.9406 0.52453 0.0
C3662 C 0.71299 0.95949 0.50812 0.0
C3663 C 0.70069 0.95815 0.52205 0.0
C3664 C 0.70377 0.94737 0.53687 0.0
C3665 C 0.71891 0.93878 0.5381 0.0
C3666 C 0.66577 0.98729 0.53867 0.0
C3667 C 0.65605 0.98878 0.52122 0.0
C3668 C 0.68003 0.97733 0.53886 0.0
C3669 C 0.6851 0.96844 0.5216 0.0
C3670 C 0.67531 0.96979 0.50411 0.0
C3671 C 0.66102 0.97982 0.50392 0.0
H3672 H 0.35047 0.44854 0.73918 0.0
H3673 H 0.38828 0.44621 0.78769 0.0
H3674 H 0.33421 0.41512 0.74018 0.0
H3675 H 0.37142 0.41284 0.7892 0.0
H3676 H 0.34333 0.34488 0.77983 0.0
H3677 H 0.36168 0.37817 0.77905 0.0
H3678 H 0.31383 0.3939 0.75371 0.0
H3679 H 0.29609 0.36088 0.75378 0.0
C3680 C 0.35552 0.4411 0.75016 0.0
C3681 C 0.37106 0.45099 0.76336 0.0
C3682 C 0.34581 0.42158 0.75094 0.0
C3683 C 0.35092 0.41053 0.76499 0.0
C3684 C 0.36665 0.42024 0.77803 0.0
C3685 C 0.37638 0.43986 0.77728 0.0
C3686 C 0.33672 0.35539 0.77399 0.0
C3687 C 0.31798 0.34955 0.76662 0.0
C3688 C 0.34733 0.37481 0.77362 0.0
C3689 C 0.33971 0.38944 0.766 0.0
C3690 C 0.32085 0.38352 0.75917 0.0
C3691 C 0.31041 0.36424 0.75937 0.0
H3692 H 0.26314 0.63175 0.27903 0.0
H3693 H 0.22106 0.66275 0.29322 0.0
H3694 H 0.28281 0.6626 0.27401 0.0
H3695 H 0.24072 0.69348 0.28834 0.0
H3696 H 0.26161 0.72927 0.24442 0.0
H3697 H 0.24883 0.69659 0.25196 0.0
H3698 H 0.29742 0.7008 0.29092 0.0
H3699 H 0.31007 0.73352 0.28347 0.0
C3700 C 0.25855 0.64537 0.28199 0.0
C3701 C 0.24065 0.6451 0.28615 0.0
C3702 C 0.26965 0.66283 0.27895 0.0
C3703 C 0.26277 0.67988 0.28011 0.0
C3704 C 0.24591 0.68015 0.28692 0.0
C3705 C 0.23486 0.66275 0.29004 0.0
C3706 C 0.26978 0.72272 0.25387 0.0
C3707 C 0.28658 0.73349 0.26354 0.0
C3708 C 0.26247 0.70434 0.25839 0.0
C3709 C 0.27209 0.69682 0.27241 0.0
C3710 C 0.28984 0.70662 0.28027 0.0
C3711 C 0.29704 0.7251 0.27593 0.0
H3712 H 0.55281 0.68202 0.45535 0.0
H3713 H 0.50338 0.68084 0.48219 0.0
H3714 H 0.55749 0.6536 0.46944 0.0
H3715 H 0.50798 0.6521 0.49606 0.0
H3716 H 0.51211 0.58724 0.49844 0.0
H3717 H 0.5074 0.61707 0.48674 0.0
H3718 H 0.56513 0.64296 0.49975 0.0
H3719 H 0.56988 0.61311 0.51128 0.0
C3720 C 0.543 0.67591 0.46442 0.0
C3721 C 0.52768 0.68396 0.46754 0.0
C3722 C 0.5457 0.65949 0.47253 0.0
C3723 C 0.53314 0.65043 0.48395 0.0
C3724 C 0.51783 0.65845 0.48713 0.0
C3725 C 0.51517 0.67498 0.4791 0.0
C3726 C 0.52381 0.59933 0.49895 0.0
C3727 C 0.5414 0.59762 0.5058 0.0
C3728 C 0.52108 0.61654 0.4923 0.0
C3729 C 0.53588 0.6325 0.49214 0.0
C3730 C 0.55342 0.63092 0.49935 0.0
C3731 C 0.55612 0.61379 0.50613 0.0
H3732 H 0.6866 0.33569 0.67985 0.0
H3733 H 0.66171 0.27599 0.68566 0.0
H3734 H 0.7148 0.33304 0.69761 0.0
H3735 H 0.68993 0.27338 0.70371 0.0
H3736 H 0.74854 0.26988 0.72568 0.0
H3737 H 0.72132 0.27111 0.70436 0.0
H3738 H 0.72764 0.33253 0.72858 0.0
H3739 H 0.7547 0.33139 0.74896 0.0
C3740 C 0.68702 0.32203 0.68507 0.0
C3741 C 0.67162 0.30615 0.6813 0.0
C3742 C 0.70332 0.32046 0.69533 0.0
C3743 C 0.70487 0.303 0.70239 0.0
C3744 C 0.68954 0.287 0.69839 0.0
C3745 C 0.67323 0.28854 0.68802 0.0
C3746 C 0.7442 0.28366 0.72616 0.0
C3747 C 0.75389 0.30052 0.73907 0.0
C3748 C 0.72846 0.28437 0.71407 0.0
C3749 C 0.72205 0.30197 0.71457 0.0
C3750 C 0.73209 0.31878 0.7273 0.0
C3751 C 0.74768 0.31808 0.73921 0.0
H3752 H 1.00276 0.37466 0.97797 0.0
H3753 H 0.06159 0.38441 0.98527 0.0
H3754 H 1.00507 0.40923 0.99042 0.0
H3755 H 0.06393 0.41931 0.9965 0.0
H3756 H 0.06378 0.47931 0.02886 0.0
H3757 H 0.06007 0.44367 0.02123 0.0
H3758 H 0.01259 0.44018 0.98084 0.0
H3759 H 0.01589 0.47568 0.98919 0.0
C3760 C 0.01622 0.3841 0.98239 0.0
C3761 C 0.03199 0.37661 0.98055 0.0
C3762 C 0.01755 0.4041 0.98926 0.0
C3763 C 0.03469 0.41727 0.99433 0.0
C3764 C 0.05046 0.40968 0.99294 0.0
C3765 C 0.04913 0.38964 0.98621 0.0
C3766 C 0.05245 0.47087 0.01848 0.0
C3767 C 0.04015 0.48033 1.00958 0.0
C3768 C 0.05039 0.45042 0.01399 0.0
C3769 C 0.03612 0.4389 1.00026 0.0
C3770 C 0.02359 0.4484 0.9917 0.0
C3771 C 0.02551 0.46882 0.99641 0.0
H3772 H 0.99948 0.82836 0.18481 0.0
H3773 H 0.98525 0.7657 0.1634 0.0
H3774 H 0.97157 0.82554 0.19979 0.0
H3775 H 0.95772 0.76265 0.17953 0.0
H3776 H 0.90083 0.76751 0.1975 0.0
H3777 H 0.92796 0.76891 0.18051 0.0
H3778 H 0.95868 0.81467 0.22609 0.0
H3779 H 0.9316 0.81366 0.24245 0.0
C3780 C 0.99041 0.81393 0.18322 0.0
C3781 C 0.99485 0.79729 0.17281 0.0
C3782 C 0.97442 0.81223 0.19215 0.0
C3783 C 0.96231 0.7938 0.19123 0.0
C3784 C 0.96656 0.77714 0.18058 0.0
C3785 C 0.98257 0.77886 0.17151 0.0
C3786 C 0.91343 0.77781 0.20384 0.0
C3787 C 0.91395 0.79069 0.2212 0.0
C3788 C 0.92905 0.7786 0.19414 0.0
C3789 C 0.94563 0.79215 0.20167 0.0
C3790 C 0.94615 0.80448 0.21939 0.0
C3791 C 0.93057 0.80384 0.22889 0.0
H3792 H 0.55221 0.33872 0.08941 0.0
H3793 H 0.50812 0.36208 0.11154 0.0
H3794 H 0.56039 0.36709 0.07303 0.0
H3795 H 0.51607 0.39023 0.09484 0.0
H3796 H 0.54518 0.4462 0.07529 0.0
H3797 H 0.54158 0.42002 0.09489 0.0
H3798 H 0.54443 0.37776 0.04507 0.0
H3799 H 0.54758 0.40367 0.02538 0.0
C3800 C 0.54438 0.35001 0.09088 0.0
C3801 C 0.52947 0.34821 0.10161 0.0
C3802 C 0.549 0.36614 0.08145 0.0
C3803 C 0.53885 0.38077 0.08271 0.0
C3804 C 0.52422 0.37922 0.09382 0.0
C3805 C 0.51953 0.36303 0.10315 0.0
C3806 C 0.545 0.4313 0.06852 0.0
C3807 C 0.54648 0.42694 0.04874 0.0
C3808 C 0.54302 0.41639 0.07975 0.0
C3809 C 0.54267 0.39693 0.07143 0.0
C3810 C 0.54487 0.39271 0.05187 0.0
C3811 C 0.54669 0.40756 0.04061 0.0
H3812 H 0.9959 0.28408 0.33847 0.0
H3813 H 0.01487 0.31609 0.29343 0.0
H3814 H 0.96463 0.28199 0.32578 0.0
H3815 H 0.98339 0.3153 0.28164 0.0
H3816 H 0.9229 0.30435 0.26062 0.0
H3817 H 0.95297 0.29711 0.26742 0.0
H3818 H 0.94844 0.30789 0.32848 0.0
H3819 H 0.91849 0.31454 0.3216 0.0
C3820 C 0.99346 0.29029 0.32559 0.0
C3821 C 1.00795 0.30052 0.31713 0.0
C3822 C 0.97548 0.28934 0.31849 0.0
C3823 C 0.9716 0.29892 0.30304 0.0
C3824 C 0.98597 0.30781 0.29361 0.0
C3825 C 1.00401 0.3085 0.30054 0.0
C3826 C 0.92842 0.30504 0.27544 0.0
C3827 C 0.9185 0.30989 0.29062 0.0
C3828 C 0.94554 0.30089 0.27933 0.0
C3829 C 0.95295 0.30171 0.29845 0.0
C3830 C 0.9429 0.30656 0.31356 0.0
C3831 C 0.92581 0.31052 0.30967 0.0
H3832 H 0.0188 0.65397 0.61819 0.0
H3833 H 0.99202 0.66822 0.56725 0.0
H3834 H 0.02384 0.62417 0.59917 0.0
H3835 H 0.99716 0.6385 0.54818 0.0
H3836 H 0.9981 0.57593 0.52209 0.0
H3837 H 0.98929 0.60217 0.54323 0.0
H3838 H 0.04366 0.61836 0.5742 0.0
H3839 H 0.05234 0.592 0.55323 0.0
C3840 C 0.01395 0.65066 0.60293 0.0
C3841 C 1.00518 0.66343 0.59411 0.0
C3842 C 0.01683 0.63365 0.59207 0.0
C3843 C 1.01103 0.62913 0.57219 0.0
C3844 C 1.00161 0.64151 0.56353 0.0
C3845 C 0.99868 0.65851 0.57441 0.0
C3846 C 1.00808 0.58505 0.53352 0.0
C3847 C 0.02589 0.5821 0.53606 0.0
C3848 C 1.00307 0.60006 0.54555 0.0
C3849 C 0.0158 0.61229 0.56032 0.0
C3850 C 0.03349 0.60898 0.5631 0.0
C3851 C 0.0385 0.59399 0.55106 0.0
H3852 H 0.68267 0.79593 0.83812 0.0
H3853 H 0.67016 0.84252 0.80906 0.0
H3854 H 0.70549 0.79149 0.81672 0.0
H3855 H 0.69376 0.83848 0.78807 0.0
H3856 H 0.75762 0.83722 0.78185 0.0
H3857 H 0.72991 0.84281 0.79498 0.0
H3858 H 0.70513 0.78063 0.7796 0.0
H3859 H 0.73256 0.77489 0.76639 0.0
C3860 C 0.68465 0.8051 0.82706 0.0
C3861 C 0.67449 0.81948 0.82521 0.0
C3862 C 0.69772 0.80255 0.81482 0.0
C3863 C 0.70111 0.81448 0.80065 0.0
C3864 C 0.69126 0.82909 0.7989 0.0
C3865 C 0.67792 0.83148 0.811 0.0
C3866 C 0.74608 0.82482 0.78075 0.0
C3867 C 0.74746 0.80553 0.77355 0.0
C3868 C 0.73023 0.82806 0.7882 0.0
C3869 C 0.71567 0.81206 0.78858 0.0
C3870 C 0.71636 0.79312 0.77968 0.0
C3871 C 0.73209 0.78989 0.77212 0.0
H3872 H 0.50673 0.58189 0.67238 0.0
H3873 H 0.46158 0.53517 0.64438 0.0
H3874 H 0.52096 0.58051 0.64311 0.0
H3875 H 0.47648 0.533 0.61512 0.0
H3876 H 0.50387 0.5378 0.55758 0.0
H3877 H 0.48721 0.53938 0.58618 0.0
H3878 H 0.53748 0.56977 0.62149 0.0
H3879 H 0.55335 0.56898 0.59346 0.0
C3880 C 0.49958 0.57117 0.66015 0.0
C3881 C 0.48251 0.55873 0.66178 0.0
C3882 C 0.50815 0.5701 0.64287 0.0
C3883 C 0.50049 0.55636 0.62579 0.0
C3884 C 0.48335 0.54396 0.62733 0.0
C3885 C 0.47468 0.5451 0.64466 0.0
C3886 C 0.51134 0.54506 0.57138 0.0
C3887 C 0.53029 0.5535 0.57248 0.0
C3888 C 0.5017 0.54588 0.58819 0.0
C3889 C 0.51046 0.55504 0.60708 0.0
C3890 C 0.52943 0.56306 0.60786 0.0
C3891 C 0.53885 0.5624 0.59129 0.0
H3892 H 0.79435 0.20487 0.93638 0.0
H3893 H 0.74591 0.21558 0.96033 0.0
H3894 H 0.78382 0.21472 0.90639 0.0
H3895 H 0.73508 0.22491 0.93018 0.0
H3896 H 0.74098 0.26647 0.88349 0.0
H3897 H 0.74414 0.25188 0.9123 0.0
H3898 H 0.75905 0.20224 0.87912 0.0
H3899 H 0.75603 0.21706 0.85009 0.0
C3900 C 0.78156 0.20957 0.93523 0.0
C3901 C 0.77089 0.20958 0.95048 0.0
C3902 C 0.77536 0.21478 0.91801 0.0
C3903 C 0.75844 0.2201 0.91591 0.0
C3904 C 0.74808 0.22071 0.93143 0.0
C3905 C 0.75427 0.21547 0.94862 0.0
C3906 C 0.74415 0.25203 0.88216 0.0
C3907 C 0.7486 0.243 0.86473 0.0
C3908 C 0.74605 0.24373 0.89869 0.0
C3909 C 0.75231 0.22624 0.89792 0.0
C3910 C 0.75468 0.21604 0.88007 0.0
C3911 C 0.75282 0.22439 0.86351 0.0
H3912 H 0.10908 0.57831 0.16327 0.0
H3913 H 0.11603 0.51898 0.14625 0.0
H3914 H 0.08973 0.57543 0.13308 0.0
H3915 H 0.09563 0.51552 0.11693 0.0
H3916 H 0.07525 0.52293 0.05735 0.0
H3917 H 0.09501 0.52644 0.08728 0.0
H3918 H 0.06008 0.55908 0.1171 0.0
H3919 H 0.0415 0.55715 0.08639 0.0
C3920 C 0.10649 0.56469 0.15306 0.0
C3921 C 0.114 0.54885 0.15705 0.0
C3922 C 0.09517 0.56291 0.13595 0.0
C3923 C 0.09109 0.54521 0.1227 0.0
C3924 C 0.0987 0.52944 0.12673 0.0
C3925 C 0.11019 0.53132 0.14364 0.0
C3926 C 0.0723 0.5314 0.07022 0.0
C3927 C 0.05762 0.54057 0.0697 0.0
C3928 C 0.08325 0.53299 0.08745 0.0
C3929 C 0.0792 0.54323 0.10454 0.0
C3930 C 0.0638 0.55154 0.10408 0.0
C3931 C 0.05307 0.55025 0.08668 0.0
H3932 H 0.78212 0.84275 0.42399 0.0
H3933 H 0.82869 0.81756 0.43522 0.0
H3934 H 0.78177 0.83249 0.38969 0.0
H3935 H 0.82924 0.80859 0.40075 0.0
H3936 H 0.8174 0.78174 0.33644 0.0
H3937 H 0.8167 0.78884 0.37132 0.0
H3938 H 0.79701 0.84125 0.36431 0.0
H3939 H 0.79662 0.83325 0.32961 0.0
C3940 C 0.79224 0.83489 0.41921 0.0
C3941 C 0.8055 0.83115 0.43256 0.0
C3942 C 0.79228 0.8293 0.39937 0.0
C3943 C 0.80574 0.82003 0.39217 0.0
C3944 C 0.81862 0.81565 0.40556 0.0
C3945 C 0.81845 0.82105 0.42543 0.0
C3946 C 0.8131 0.79484 0.34251 0.0
C3947 C 0.80709 0.80697 0.33041 0.0
C3948 C 0.81269 0.79897 0.36252 0.0
C3949 C 0.80658 0.81556 0.37086 0.0
C3950 C 0.80124 0.82801 0.35858 0.0
C3951 C 0.80124 0.82361 0.33865 0.0
H3952 H 0.47252 0.58024 0.8834 0.0
H3953 H 0.50701 0.54592 0.85568 0.0
H3954 H 0.4866 0.577 0.91481 0.0
H3955 H 0.52088 0.54254 0.88704 0.0
H3956 H 0.53291 0.52403 0.94641 0.0
H3957 H 0.51952 0.52817 0.91494 0.0
H3958 H 0.51096 0.58471 0.93995 0.0
H3959 H 0.52423 0.58038 0.9715 0.0
C3960 C 0.48319 0.57211 0.88373 0.0
C3961 C 0.48819 0.56334 0.86619 0.0
C3962 C 0.49141 0.5702 0.90212 0.0
C3963 C 0.50512 0.55933 0.90418 0.0
C3964 C 0.51024 0.55071 0.88668 0.0
C3965 C 0.50208 0.55269 0.86831 0.0
C3966 C 0.52827 0.53744 0.94533 0.0
C3967 C 0.52987 0.55178 0.96204 0.0
C3968 C 0.52054 0.53993 0.92697 0.0
C3969 C 0.51382 0.55686 0.92419 0.0
C3970 C 0.51553 0.57126 0.94095 0.0
C3971 C 0.52337 0.56882 0.95932 0.0
H3972 H 0.76226 0.20297 0.13322 0.0
H3973 H 0.80982 0.24286 0.12008 0.0
H3974 H 0.76216 0.22544 0.16275 0.0
H3975 H 0.81033 0.2648 0.15023 0.0
H3976 H 0.80076 0.30633 0.20132 0.0
H3977 H 0.79454 0.28714 0.16868 0.0
H3978 H 0.78231 0.23327 0.19265 0.0
H3979 H 0.78823 0.25228 0.22486 0.0
C3980 C 0.77258 0.21662 0.13652 0.0
C3981 C 0.78616 0.22105 0.12442 0.0
C3982 C 0.77261 0.22941 0.15352 0.0
C3983 C 0.78631 0.24678 0.15884 0.0
C3984 C 0.79949 0.25159 0.14641 0.0
C3985 C 0.79939 0.23887 0.12932 0.0
C3986 C 0.79642 0.29041 0.19948 0.0
C3987 C 0.79496 0.28074 0.21551 0.0
C3988 C 0.79295 0.27945 0.18088 0.0
C3989 C 0.78794 0.25873 0.17815 0.0
C3990 C 0.78583 0.24922 0.19425 0.0
C3991 C 0.7893 0.26012 0.21273 0.0
H3992 H 0.13149 0.55133 0.35288 0.0
H3993 H 0.10366 0.59148 0.32817 0.0
H3994 H 0.12645 0.56545 0.38477 0.0
H3995 H 0.10068 0.60729 0.36008 0.0
H3996 H 0.07091 0.60105 0.41388 0.0
H3997 H 0.08333 0.60149 0.38391 0.0
H3998 H 0.13387 0.59175 0.41041 0.0
H3999 H 0.12064 0.59014 0.44061 0.0
C4000 C 0.12428 0.56315 0.35426 0.0
C4001 C 0.11794 0.57026 0.33801 0.0
C4002 C 0.12192 0.57175 0.37262 0.0
C4003 C 0.11354 0.58791 0.37513 0.0
C4004 C 0.10715 0.59488 0.35879 0.0
C4005 C 0.10894 0.58586 0.34046 0.0
C4006 C 0.08502 0.60006 0.41369 0.0
C4007 C 0.09453 0.5946 0.42922 0.0
C4008 C 0.09223 0.60022 0.3963 0.0
C4009 C 0.10925 0.59549 0.39445 0.0
C4010 C 0.12029 0.59435 0.41117 0.0
C4011 C 0.11288 0.59378 0.42854 0.0
H4012 H 0.7914 0.86457 0.64138 0.0
H4013 H 0.82286 0.82246 0.62199 0.0
H4014 H 0.78919 0.85155 0.67169 0.0
H4015 H 0.82078 0.80963 0.65224 0.0
H4016 H 0.79212 0.7753 0.69588 0.0
H4017 H 0.79616 0.79051 0.66735 0.0
H4018 H 0.80821 0.8482 0.70257 0.0
H4019 H 0.80429 0.83268 0.73163 0.0
C4020 C 0.79785 0.85254 0.64354 0.0
C4021 C 0.80728 0.84458 0.62909 0.0
C4022 C 0.79675 0.84522 0.66105 0.0
C4023 C 0.80482 0.82953 0.66452 0.0
C4024 C 0.8143 0.82165 0.6501 0.0
C4025 C 0.8156 0.82911 0.63274 0.0
C4026 C 0.79573 0.79126 0.69768 0.0
C4027 C 0.7979 0.80276 0.71612 0.0
C4028 C 0.79815 0.8 0.68123 0.0
C4029 C 0.80261 0.82061 0.68253 0.0
C4030 C 0.80472 0.83226 0.701 0.0
C4031 C 0.80257 0.82342 0.71767 0.0
H4032 H 0.74351 0.50299 0.50912 0.0
H4033 H 0.71714 0.45516 0.53633 0.0
H4034 H 0.71892 0.51983 0.51525 0.0
H4035 H 0.69271 0.47224 0.5429 0.0
H4036 H 0.64278 0.49863 0.52752 0.0
H4037 H 0.66742 0.48133 0.52389 0.0
H4038 H 0.70708 0.53631 0.54319 0.0
H4039 H 0.68251 0.55375 0.54607 0.0
C4040 C 0.7324 0.49608 0.51635 0.0
C4041 C 0.73211 0.47779 0.52219 0.0
C4042 C 0.71848 0.5058 0.52007 0.0
C4043 C 0.70401 0.49735 0.52963 0.0
C4044 C 0.70368 0.47901 0.53542 0.0
C4045 C 0.71767 0.46933 0.53178 0.0
C4046 C 0.65677 0.50702 0.5309 0.0
C4047 C 0.66074 0.52758 0.53683 0.0
C4048 C 0.67084 0.49709 0.52905 0.0
C4049 C 0.68911 0.50754 0.53311 0.0
C4050 C 0.69308 0.52797 0.53969 0.0
C4051 C 0.67903 0.5379 0.54152 0.0
H4052 H 0.19446 0.12455 0.53616 0.0
H4053 H 0.17739 0.12767 0.47696 0.0
H4054 H 0.16429 0.10529 0.53875 0.0
H4055 H 0.14728 0.10753 0.47933 0.0
H4056 H 0.08914 0.08395 0.49505 0.0
H4057 H 0.11863 0.10597 0.4929 0.0
H4058 H 0.1458 0.07321 0.52869 0.0
H4059 H 0.11654 0.05187 0.53118 0.0
C4060 C 0.1843 0.12123 0.52365 0.0
C4061 C 0.18862 0.12783 0.50633 0.0
C4062 C 0.16692 0.10988 0.52508 0.0
C4063 C 0.15315 0.10458 0.50923 0.0
C4064 C 0.15736 0.11135 0.49194 0.0
C4065 C 0.17481 0.12273 0.4905 0.0
C4066 C 0.10142 0.0817 0.50265 0.0
C4067 C 0.10042 0.06623 0.51342 0.0
C4068 C 0.1184 0.09418 0.50126 0.0
C4069 C 0.13481 0.09156 0.51067 0.0
C4070 C 0.13361 0.07607 0.52148 0.0
C4071 C 0.11675 0.06365 0.5228 0.0
H4072 H 0.24674 0.93956 0.75983 0.0
H4073 H 0.20168 0.90568 0.78282 0.0
H4074 H 0.26171 0.91201 0.75829 0.0
H4075 H 0.21695 0.87823 0.78176 0.0
H4076 H 0.24326 0.82343 0.76715 0.0
H4077 H 0.22723 0.85055 0.76796 0.0
H4078 H 0.27869 0.89196 0.77068 0.0
H4079 H 0.29447 0.86498 0.76975 0.0
C4080 C 0.23974 0.92635 0.7646 0.0
C4081 C 0.22248 0.92582 0.7715 0.0
C4082 C 0.24868 0.91016 0.76391 0.0
C4083 C 0.2411 0.89201 0.76997 0.0
C4084 C 0.22376 0.89136 0.77672 0.0
C4085 C 0.21485 0.90763 0.77753 0.0
C4086 C 0.25129 0.83828 0.76788 0.0
C4087 C 0.27058 0.84132 0.76833 0.0
C4088 C 0.24194 0.85422 0.76847 0.0
C4089 C 0.25116 0.87434 0.76937 0.0
C4090 C 0.27045 0.8772 0.76972 0.0
C4091 C 0.27976 0.86136 0.76929 0.0
H4092 H 0.40294 0.02574 0.03379 0.0
H4093 H 0.40819 0.9655 0.03302 0.0
H4094 H 0.43538 0.03546 0.02994 0.0
H4095 H 0.44039 0.97536 0.02989 0.0
H4096 H 0.49024 0.99546 0.99941 0.0
H4097 H 0.45757 0.98738 1.00282 0.0
H4098 H 0.46574 0.03674 0.04932 0.0
H4099 H 0.49812 0.04477 0.04597 0.0
C4100 C 0.41106 0.01471 0.03311 0.0
C4101 C 0.40311 0.99494 0.03381 0.0
C4102 C 0.42951 0.02024 0.03093 0.0
C4103 C 0.44011 1.00602 0.02934 0.0
C4104 C 0.43233 0.98645 0.03074 0.0
C4105 C 0.41399 0.98094 0.03292 0.0
C4106 C 0.48495 1.0045 0.01029 0.0
C4107 C 0.49656 0.02041 0.02267 0.0
C4108 C 0.46641 0.99992 0.01227 0.0
C4109 C 0.45936 1.01145 0.02641 0.0
C4110 C 0.47092 0.02772 0.03832 0.0
C4111 C 0.48942 0.03211 0.03654 0.0
H4112 H 0.86264 0.5922 0.74865 0.0
H4113 H 0.89399 0.63453 0.79652 0.0
H4114 H 0.84287 0.61488 0.74333 0.0
H4115 H 0.87465 0.65739 0.79098 0.0
H4116 H 0.824 0.68126 0.79221 0.0
H4117 H 0.84332 0.65799 0.79527 0.0
H4118 H 0.84282 0.64717 0.73336 0.0
H4119 H 0.82293 0.67035 0.73034 0.0
C4120 C 0.86537 0.60647 0.75785 0.0
C4121 C 0.87963 0.61172 0.77307 0.0
C4122 C 0.85416 0.61942 0.75477 0.0
C4123 C 0.8572 0.63778 0.76684 0.0
C4124 C 0.87181 0.64315 0.78172 0.0
C4125 C 0.88286 0.63015 0.7849 0.0
C4126 C 0.82803 0.67387 0.77928 0.0
C4127 C 0.82221 0.67757 0.76108 0.0
C4128 C 0.83913 0.66066 0.78102 0.0
C4129 C 0.84476 0.65105 0.76457 0.0
C4130 C 0.83858 0.65437 0.74624 0.0
C4131 C 0.82728 0.66756 0.7445 0.0
H4132 H 0.86199 0.62998 0.03975 0.0
H4133 H 0.88194 0.65475 0.99106 0.0
H4134 H 0.88833 0.61521 0.04295 0.0
H4135 H 0.90784 0.63928 0.99374 0.0
H4136 H 0.96094 0.62252 0.01245 0.0
H4137 H 0.93602 0.63972 0.01233 0.0
H4138 H 0.90043 0.58905 0.02757 0.0
H4139 H 0.92528 0.57192 0.02772 0.0
C4140 C 0.87199 0.63237 0.02973 0.0
C4141 C 0.86963 0.64356 0.01506 0.0
C4142 C 0.88707 0.62366 0.03144 0.0
C4143 C 0.90032 0.62587 0.01856 0.0
C4144 C 0.8981 0.63732 1.00408 0.0
C4145 C 0.88302 0.64601 1.00235 0.0
C4146 C 0.94779 0.615 0.01574 0.0
C4147 C 0.94523 0.5957 0.01999 0.0
C4148 C 0.93344 0.6249 0.01565 0.0
C4149 C 0.91603 0.61582 0.01979 0.0
C4150 C 0.91362 0.59672 0.02454 0.0
C4151 C 0.92796 0.58683 0.02464 0.0
H4152 H 0.23962 0.12639 0.74786 0.0
H4153 H 0.22264 0.14851 0.80181 0.0
H4154 H 0.25564 0.15963 0.74536 0.0
H4155 H 0.23911 0.18194 0.79947 0.0
H4156 H 0.26115 0.24491 0.78326 0.0
H4157 H 0.2427 0.21197 0.78522 0.0
H4158 H 0.28155 0.18514 0.75631 0.0
H4159 H 0.29966 0.21771 0.75445 0.0
C4160 C 0.23912 0.13822 0.75929 0.0
C4161 C 0.2295 0.13398 0.77511 0.0
C4162 C 0.24867 0.15765 0.75793 0.0
C4163 C 0.24915 0.17419 0.77223 0.0
C4164 C 0.23929 0.17007 0.78795 0.0
C4165 C 0.22986 0.15054 0.78941 0.0
C4166 C 0.26559 0.23202 0.77697 0.0
C4167 C 0.282 0.23444 0.76834 0.0
C4168 C 0.25504 0.21286 0.77832 0.0
C4169 C 0.26022 0.19518 0.77086 0.0
C4170 C 0.27652 0.19784 0.76206 0.0
C4171 C 0.28712 0.21684 0.76101 0.0
H4172 H 0.34036 0.94984 0.23975 0.0
H4173 H 0.38421 0.92118 0.25298 0.0
H4174 H 0.31806 0.92034 0.24372 0.0
H4175 H 0.362 0.89178 0.25647 0.0
H4176 H 0.32782 0.86541 0.2973 0.0
H4177 H 0.34248 0.89619 0.28725 0.0
H4178 H 0.30755 0.87968 0.23302 0.0
H4179 H 0.29286 0.84896 0.24314 0.0
C4180 C 0.34512 0.9369 0.24257 0.0
C4181 C 0.36386 0.93784 0.24675 0.0
C4182 C 0.33244 0.9202 0.24495 0.0
C4183 C 0.33862 0.90453 0.25127 0.0
C4184 C 0.35718 0.9042 0.2522 0.0
C4185 C 0.36982 0.92084 0.24987 0.0
C4186 C 0.32264 0.86896 0.28376 0.0
C4187 C 0.30956 0.8551 0.27081 0.0
C4188 C 0.33113 0.88627 0.27788 0.0
C4189 C 0.32637 0.88961 0.25916 0.0
C4190 C 0.31145 0.87708 0.24738 0.0
C4191 C 0.30303 0.85973 0.25322 0.0
H4192 H 0.54201 0.39375 0.56876 0.0
H4193 H 0.60042 0.41225 0.56963 0.0
H4194 H 0.53808 0.42277 0.55534 0.0
H4195 H 0.59642 0.44055 0.55502 0.0
H4196 H 0.58562 0.50125 0.54974 0.0
H4197 H 0.58974 0.47147 0.56154 0.0
H4198 H 0.53862 0.43909 0.52873 0.0
H4199 H 0.53418 0.46922 0.51758 0.0
C4200 C 0.55407 0.40394 0.56608 0.0
C4201 C 0.57158 0.40053 0.57058 0.0
C4202 C 0.55177 0.42055 0.55804 0.0
C4203 C 0.56691 0.43431 0.55405 0.0
C4204 C 0.58438 0.43064 0.55814 0.0
C4205 C 0.58668 0.41411 0.56631 0.0
C4206 C 0.57528 0.48777 0.54492 0.0
C4207 C 0.55953 0.48778 0.5327 0.0
C4208 C 0.5777 0.47053 0.55164 0.0
C4209 C 0.56454 0.45261 0.54622 0.0
C4210 C 0.54896 0.45255 0.53361 0.0
C4211 C 0.54645 0.46987 0.52704 0.0
H4212 H 0.43296 0.76386 0.33011 0.0
H4213 H 0.41893 0.79692 0.38077 0.0
H4214 H 0.40495 0.76646 0.3119 0.0
H4215 H 0.39076 0.79948 0.36249 0.0
H4216 H 0.34881 0.8147 0.3169 0.0
H4217 H 0.37682 0.81362 0.33704 0.0
H4218 H 0.37302 0.75397 0.30872 0.0
H4219 H 0.34564 0.75522 0.28877 0.0
C4220 C 0.42384 0.77152 0.33749 0.0
C4221 C 0.42837 0.78003 0.35708 0.0
C4222 C 0.40766 0.77305 0.32698 0.0
C4223 C 0.39529 0.78306 0.33565 0.0
C4224 C 0.39991 0.79182 0.35517 0.0
C4225 C 0.41616 0.79032 0.3657 0.0
C4226 C 0.3539 0.80132 0.31521 0.0
C4227 C 0.34498 0.7851 0.30111 0.0
C4228 C 0.36999 0.80067 0.32673 0.0
C4229 C 0.37756 0.7838 0.32437 0.0
C4230 C 0.36809 0.76743 0.31073 0.0
C4231 C 0.35217 0.76809 0.29935 0.0
H4232 H 0.10234 0.71224 0.05269 0.0
H4233 H 0.04584 0.70162 0.06299 0.0
H4234 H 0.09861 0.67717 0.04019 0.0
H4235 H 0.04217 0.66664 0.05106 0.0
H4236 H 0.03598 0.60669 0.01609 0.0
H4237 H 0.04051 0.64233 0.02379 0.0
H4238 H 0.09489 0.64626 0.05127 0.0
H4239 H 0.09055 0.61056 0.04295 0.0
C4240 C 0.08912 0.7024 0.05225 0.0
C4241 C 0.07438 0.70971 0.05879 0.0
C4242 C 0.08699 0.68228 0.04517 0.0
C4243 C 0.0701 0.66895 0.04464 0.0
C4244 C 0.0553 0.67641 0.05087 0.0
C4245 C 0.05739 0.69652 0.05776 0.0
C4246 C 0.04896 0.61514 0.02368 0.0
C4247 C 0.06285 0.6057 0.02906 0.0
C4248 C 0.05153 0.63563 0.0282 0.0
C4249 C 0.068 0.64728 0.03837 0.0
C4250 C 0.08209 0.63787 0.04326 0.0
C4251 C 0.07957 0.61734 0.0386 0.0
H4252 H 0.10213 0.3157 0.85426 0.0
H4253 H 0.11461 0.26585 0.87757 0.0
H4254 H 0.13075 0.32013 0.84004 0.0
H4255 H 0.14278 0.26977 0.8627 0.0
H4256 H 0.19991 0.29101 0.8468 0.0
H4257 H 0.1729 0.29004 0.86364 0.0
H4258 H 0.14414 0.30453 0.81409 0.0
H4259 H 0.17103 0.30546 0.79729 0.0
C4260 C 0.11097 0.30571 0.85645 0.0
C4261 C 0.10584 0.2903 0.867 0.0
C4262 C 0.12735 0.30813 0.84808 0.0
C4263 C 0.13915 0.29525 0.85005 0.0
C4264 C 0.1342 0.28011 0.86095 0.0
C4265 C 0.11783 0.27768 0.86928 0.0
C4266 C 0.18782 0.29392 0.83944 0.0
C4267 C 0.18776 0.2982 0.82056 0.0
C4268 C 0.17227 0.29337 0.84913 0.0
C4269 C 0.15618 0.29708 0.84025 0.0
C4270 C 0.15628 0.30184 0.82156 0.0
C4271 C 0.1718 0.30237 0.81188 0.0
H4272 H 0.59557 0.72709 0.93171 0.0
H4273 H 0.54806 0.74784 0.94763 0.0
H4274 H 0.58647 0.69856 0.94769 0.0
H4275 H 0.53884 0.71915 0.96334 0.0
H4276 H 0.54681 0.68113 0.01136 0.0
H4277 H 0.55237 0.70803 0.99294 0.0
H4278 H 0.56043 0.66782 0.9439 0.0
H4279 H 0.55413 0.64059 0.962 0.0
C4280 C 0.58321 0.72555 0.93864 0.0
C4281 C 0.57256 0.73969 0.93854 0.0
C4282 C 0.5779 0.70914 0.94757 0.0
C4283 C 0.56195 0.7067 0.95667 0.0
C4284 C 0.55125 0.72077 0.95648 0.0
C4285 C 0.55647 0.73709 0.94742 0.0
C4286 C 0.5493 0.67785 0.99651 0.0
C4287 C 0.55014 0.65868 0.98823 0.0
C4288 C 0.55257 0.6933 0.986 0.0
C4289 C 0.55695 0.68997 0.96709 0.0
C4290 C 0.55732 0.67078 0.95858 0.0
C4291 C 0.5538 0.65524 0.96899 0.0
H4292 H 0.08186 0.75588 0.74288 0.0
H4293 H 0.10524 0.79771 0.7076 0.0
H4294 H 0.11237 0.75686 0.75827 0.0
H4295 H 0.13566 0.79844 0.72262 0.0
H4296 H 0.18877 0.80202 0.75746 0.0
H4297 H 0.1577 0.80657 0.75134 0.0
H4298 H 0.13687 0.74357 0.7457 0.0
H4299 H 0.16774 0.7391 0.7519 0.0
C4300 C 0.09353 0.76546 0.73864 0.0
C4301 C 0.09129 0.77661 0.72402 0.0
C4302 C 0.11094 0.76601 0.74739 0.0
C4303 C 0.12639 0.77759 0.74152 0.0
C4304 C 0.12402 0.78959 0.72765 0.0
C4305 C 0.10661 0.78914 0.71901 0.0
C4306 C 0.17749 0.78921 0.75509 0.0
C4307 C 0.18062 0.7702 0.75504 0.0
C4308 C 0.15975 0.79181 0.75163 0.0
C4309 C 0.14488 0.77543 0.74803 0.0
C4310 C 0.14801 0.75653 0.74879 0.0
C4311 C 0.1657 0.75395 0.75228 0.0
H4312 H 0.1136 0.44053 0.43416 0.0
H4313 H 0.08025 0.40417 0.46789 0.0
H4314 H 0.10697 0.47015 0.45256 0.0
H4315 H 0.07372 0.43356 0.48625 0.0
H4316 H 0.04523 0.48493 0.49268 0.0
H4317 H 0.05495 0.45745 0.47439 0.0
H4318 H 0.11125 0.48918 0.48825 0.0
H4319 H 0.10151 0.51659 0.50687 0.0
C4320 C 0.10525 0.43901 0.44582 0.0
C4321 C 0.09731 0.42027 0.44967 0.0
C4322 C 0.10141 0.45583 0.45623 0.0
C4323 C 0.0896 0.45396 0.4705 0.0
C4324 C 0.08255 0.43527 0.47501 0.0
C4325 C 0.08637 0.41854 0.46466 0.0
C4326 C 0.05964 0.48607 0.49161 0.0
C4327 C 0.07269 0.50262 0.50123 0.0
C4328 C 0.0652 0.47038 0.4813 0.0
C4329 C 0.08384 0.47122 0.48019 0.0
C4330 C 0.09682 0.48824 0.489 0.0
C4331 C 0.09128 0.50378 0.49964 0.0
H4332 H 0.43423 0.25392 0.23252 0.0
H4333 H 0.41164 0.28355 0.1899 0.0
H4334 H 0.41008 0.2591 0.25243 0.0
H4335 H 0.38802 0.28913 0.21001 0.0
H4336 H 0.36321 0.31589 0.25914 0.0
H4337 H 0.39005 0.30995 0.24487 0.0
H4338 H 0.37292 0.24776 0.24681 0.0
H4339 H 0.34571 0.25351 0.26108 0.0
C4340 C 0.42405 0.26139 0.22737 0.0
C4341 C 0.4248 0.26845 0.20975 0.0
C4342 C 0.41039 0.2644 0.23878 0.0
C4343 C 0.39751 0.27469 0.23274 0.0
C4344 C 0.3981 0.28147 0.21504 0.0
C4345 C 0.41158 0.27831 0.20359 0.0
C4346 C 0.36524 0.30096 0.25691 0.0
C4347 C 0.35216 0.28508 0.26088 0.0
C4348 C 0.3806 0.29763 0.24873 0.0
C4349 C 0.38324 0.27842 0.2446 0.0
C4350 C 0.37102 0.26269 0.24993 0.0
C4351 C 0.35547 0.26599 0.25797 0.0
H4352 H 0.60218 0.5486 0.36981 0.0
H4353 H 0.62976 0.50609 0.38974 0.0
H4354 H 0.58831 0.55164 0.39956 0.0
H4355 H 0.61534 0.50873 0.41941 0.0
H4356 H 0.59487 0.52564 0.47951 0.0
H4357 H 0.61118 0.52434 0.45071 0.0
H4358 H 0.56657 0.53981 0.41866 0.0
H4359 H 0.55072 0.54123 0.44719 0.0
C4360 C 0.60552 0.53981 0.38039 0.0
C4361 C 0.61756 0.52705 0.37647 0.0
C4362 C 0.59717 0.54142 0.39781 0.0
C4363 C 0.60025 0.53046 0.41272 0.0
C4364 C 0.61236 0.51776 0.40891 0.0
C4365 C 0.62065 0.51605 0.39139 0.0
C4366 C 0.58876 0.52941 0.46655 0.0
C4367 C 0.57142 0.53423 0.46643 0.0
C4368 C 0.59807 0.52828 0.4496 0.0
C4369 C 0.59064 0.53202 0.43156 0.0
C4370 C 0.57342 0.53709 0.43176 0.0
C4371 C 0.56413 0.53795 0.44849 0.0
H4372 H 0.34991 0.86339 0.07709 0.0
H4373 H 0.30811 0.88556 0.10542 0.0
H4374 H 0.36222 0.85579 0.10746 0.0
H4375 H 0.31995 0.87731 0.13571 0.0
H4376 H 0.35156 0.87609 0.19047 0.0
H4377 H 0.34703 0.88825 0.16006 0.0
H4378 H 0.35308 0.83283 0.12887 0.0
H4379 H 0.35783 0.82095 0.15888 0.0
C4380 C 0.34323 0.86631 0.08982 0.0
C4381 C 0.32811 0.87497 0.08908 0.0
C4382 C 0.35029 0.86207 0.10715 0.0
C4383 C 0.34226 0.86636 0.12396 0.0
C4384 C 0.32669 0.87437 0.12304 0.0
C4385 C 0.31966 0.87865 0.10569 0.0
C4386 C 0.35252 0.86687 0.1771 0.0
C4387 C 0.3548 0.84754 0.17695 0.0
C4388 C 0.34978 0.8737 0.15976 0.0
C4389 C 0.34924 0.86124 0.14218 0.0
C4390 C 0.35348 0.84277 0.14221 0.0
C4391 C 0.35631 0.836 0.15946 0.0
H4392 H 0.96533 0.54805 0.90126 0.0
H4393 H 1.00864 0.53706 0.86815 0.0
H4394 H 0.98538 0.55047 0.93121 0.0
H4395 H 0.02882 0.53974 0.89802 0.0
H4396 H 0.06216 0.56719 0.95831 0.0
H4397 H 0.0428 0.56755 0.92866 0.0
H4398 H 1.00022 0.52308 0.9441 0.0
H4399 H 0.01956 0.52231 0.97329 0.0
C4400 C 0.97921 0.54638 0.90054 0.0
C4401 C 0.98568 0.54241 0.88277 0.0
C4402 C 0.99058 0.54772 0.91749 0.0
C4403 C 1.00853 0.54536 0.91669 0.0
C4404 C 0.01507 0.54181 0.89884 0.0
C4405 C 1.00361 0.54019 0.8819 0.0
C4406 C 0.04867 0.55752 0.95527 0.0
C4407 C 0.04218 0.54489 0.96802 0.0
C4408 C 0.03768 0.55774 0.93844 0.0
C4409 C 0.02009 0.5455 0.93443 0.0
C4410 C 0.01367 0.53285 0.94717 0.0
C4411 C 0.02472 0.53241 0.96377 0.0
H4412 H 0.31692 0.24519 0.61424 0.0
H4413 H 0.26548 0.26179 0.60407 0.0
H4414 H 0.31763 0.25561 0.64869 0.0
H4415 H 0.26637 0.27286 0.63865 0.0
H4416 H 0.2645 0.26992 0.70364 0.0
H4417 H 0.26328 0.26155 0.66864 0.0
H4418 H 0.32179 0.28275 0.67331 0.0
H4419 H 0.32305 0.2904 0.70801 0.0
C4420 C 0.30591 0.25144 0.61934 0.0
C4421 C 0.29118 0.25269 0.60635 0.0
C4422 C 0.30631 0.25748 0.63918 0.0
C4423 C 0.29207 0.26518 0.64666 0.0
C4424 C 0.27745 0.26672 0.63358 0.0
C4425 C 0.27697 0.26047 0.6137 0.0
C4426 C 0.27708 0.27281 0.69716 0.0
C4427 C 0.29387 0.28059 0.70876 0.0
C4428 C 0.27639 0.26812 0.67703 0.0
C4429 C 0.29247 0.27121 0.66799 0.0
C4430 C 0.30915 0.27962 0.67964 0.0
C4431 C 0.30985 0.28415 0.69966 0.0
H4432 H 0.59201 0.50013 0.17034 0.0
H4433 H 0.63584 0.55006 0.16839 0.0
H4434 H 0.57818 0.5035 0.13879 0.0
H4435 H 0.62173 0.55361 0.13726 0.0
H4436 H 0.58439 0.56732 0.0877 0.0
H4437 H 0.59787 0.56333 0.11924 0.0
H4438 H 0.57856 0.50026 0.10415 0.0
H4439 H 0.56517 0.50433 0.07245 0.0
C4440 C 0.59895 0.51182 0.16341 0.0
C4441 C 0.6154 0.52479 0.17285 0.0
C4442 C 0.59082 0.51379 0.14496 0.0
C4443 C 0.59849 0.52896 0.13485 0.0
C4444 C 0.61488 0.54189 0.14425 0.0
C4445 C 0.6231 0.53982 0.16255 0.0
C4446 C 0.58295 0.55253 0.09096 0.0
C4447 C 0.57351 0.53623 0.07697 0.0
C4448 C 0.59089 0.55017 0.10929 0.0
C4449 C 0.58966 0.53139 0.11488 0.0
C4450 C 0.57996 0.51507 0.10095 0.0
C4451 C 0.57225 0.51742 0.08247 0.0
H4452 H 0.2832 0.84789 0.91521 0.0
H4453 H 0.33762 0.87733 0.90646 0.0
H4454 H 0.28095 0.82552 0.8849 0.0
H4455 H 0.33556 0.85397 0.87685 0.0
H4456 H 0.32326 0.79108 0.83373 0.0
H4457 H 0.32682 0.81031 0.86649 0.0
H4458 H 0.28482 0.83941 0.84843 0.0
H4459 H 0.28175 0.82087 0.81581 0.0
C4460 C 0.2947 0.8496 0.90695 0.0
C4461 C 0.3105 0.86465 0.91321 0.0
C4462 C 0.29346 0.8366 0.88979 0.0
C4463 C 0.30815 0.8381 0.87886 0.0
C4464 C 0.32421 0.85249 0.88534 0.0
C4465 C 0.32534 0.86579 0.90229 0.0
C4466 C 0.31485 0.80159 0.83694 0.0
C4467 C 0.30232 0.80471 0.82254 0.0
C4468 C 0.31687 0.81249 0.85548 0.0
C4469 C 0.30597 0.82609 0.85972 0.0
C4470 C 0.29322 0.82885 0.84536 0.0
C4471 C 0.29154 0.81838 0.82681 0.0
H4472 H 0.99463 0.49011 0.71297 0.0
H4473 H 0.96897 0.53073 0.6864 0.0
H4474 H 1.00082 0.47548 0.68153 0.0
H4475 H 0.97595 0.51683 0.65506 0.0
H4476 H 0.98315 0.48951 0.59998 0.0
H4477 H 0.96925 0.48768 0.62982 0.0
H4478 H 0.02141 0.48659 0.6597 0.0
H4479 H 0.03503 0.48816 0.63028 0.0
C4480 C 0.99046 0.49597 0.70036 0.0
C4481 C 0.98147 0.5116 0.70201 0.0
C4482 C 0.99389 0.48754 0.68241 0.0
C4483 C 0.98858 0.49475 0.66581 0.0
C4484 C 0.97974 0.51056 0.66753 0.0
C4485 C 0.97619 0.5189 0.68549 0.0
C4486 C 0.99136 0.48791 0.61277 0.0
C4487 C 1.01028 0.48977 0.61305 0.0
C4488 C 0.98347 0.48703 0.62984 0.0
C4489 C 0.99447 0.4879 0.64718 0.0
C4490 C 0.01259 0.48612 0.64662 0.0
C4491 C 0.02043 0.48693 0.62961 0.0
H4492 H 0.26853 0.24282 0.40542 0.0
H4493 H 0.32592 0.2426 0.41144 0.0
H4494 H 0.27178 0.25634 0.37576 0.0
H4495 H 0.32888 0.25477 0.38116 0.0
H4496 H 0.33385 0.29559 0.33658 0.0
H4497 H 0.33038 0.2821 0.36617 0.0
H4498 H 0.2755 0.25045 0.34301 0.0
H4499 H 0.27879 0.265 0.31368 0.0
C4500 C 0.28188 0.24562 0.40051 0.0
C4501 C 0.29694 0.24152 0.41112 0.0
C4502 C 0.28369 0.25313 0.38318 0.0
C4503 C 0.3006 0.25671 0.37573 0.0
C4504 C 0.31564 0.25255 0.38634 0.0
C4505 C 0.31387 0.24521 0.40372 0.0
C4506 C 0.32105 0.28568 0.33774 0.0
C4507 C 0.30665 0.2813 0.32262 0.0
C4508 C 0.31907 0.27776 0.35477 0.0
C4509 C 0.30266 0.26497 0.35724 0.0
C4510 C 0.28829 0.26041 0.34194 0.0
C4511 C 0.29023 0.26854 0.32493 0.0
H4512 H 0.35749 0.59192 0.48763 0.0
H4513 H 0.38482 0.62173 0.54362 0.0
H4514 H 0.3821 0.57467 0.48334 0.0
H4515 H 0.40943 0.60459 0.53931 0.0
H4516 H 0.43738 0.55301 0.53514 0.0
H4517 H 0.41318 0.57099 0.53825 0.0
H4518 H 0.41458 0.5802 0.47913 0.0
H4519 H 0.4386 0.56181 0.47597 0.0
C4520 C 0.36887 0.59495 0.4989 0.0
C4521 C 0.36923 0.60805 0.51601 0.0
C4522 C 0.38294 0.5851 0.49644 0.0
C4523 C 0.3976 0.58819 0.51106 0.0
C4524 C 0.39812 0.60162 0.52797 0.0
C4525 C 0.38406 0.61143 0.53044 0.0
C4526 C 0.4325 0.55893 0.52285 0.0
C4527 C 0.43975 0.55605 0.50533 0.0
C4528 C 0.41874 0.56928 0.52464 0.0
C4529 C 0.41208 0.57708 0.50896 0.0
C4530 C 0.41931 0.57413 0.49137 0.0
C4531 C 0.43301 0.56365 0.48956 0.0
H4532 H 0.90308 0.97095 0.50732 0.0
H4533 H 0.92594 0.94845 0.55529 0.0
H4534 H 0.93298 0.9908 0.50485 0.0
H4535 H 0.95583 0.96926 0.55352 0.0
H4536 H 1.01147 0.99802 0.53564 0.0
H4537 H 0.98204 0.9757 0.53703 0.0
H4538 H 0.95418 0.01917 0.5193 0.0
H4539 H 0.98333 0.04072 0.51713 0.0
C4540 C 0.91446 0.97014 0.51737 0.0
C4541 C 0.91182 0.95793 0.53153 0.0
C4542 C 0.93173 0.98187 0.51614 0.0
C4543 C 0.94709 0.982 0.5291 0.0
C4544 C 0.94452 0.96961 0.54314 0.0
C4545 C 0.9272 0.9578 0.54434 0.0
C4546 C 0.99904 1.00267 0.53192 0.0
C4547 C 0.99987 0.02115 0.52617 0.0
C4548 C 0.98207 0.98993 0.53286 0.0
C4549 C 0.96543 0.99539 0.52818 0.0
C4550 C 0.96645 0.01402 0.5226 0.0
C4551 C 0.98331 0.02657 0.52152 0.0
H4552 H 0.8594 0.15051 0.28655 0.0
H4553 H 0.89436 0.1756 0.24725 0.0
H4554 H 0.8443 0.17819 0.28775 0.0
H4555 H 0.87934 0.20347 0.2486 0.0
H4556 H 0.85758 0.2616 0.26682 0.0
H4557 H 0.87349 0.23429 0.26574 0.0
H4558 H 0.82342 0.1946 0.27227 0.0
H4559 H 0.80758 0.22167 0.27295 0.0
C4560 C 0.86411 0.16187 0.27814 0.0
C4561 C 0.8785 0.16001 0.26674 0.0
C4562 C 0.85515 0.17803 0.27872 0.0
C4563 C 0.86014 0.19383 0.26827 0.0
C4564 C 0.87473 0.19215 0.25709 0.0
C4565 C 0.88343 0.17574 0.25618 0.0
C4566 C 0.84982 0.2471 0.26804 0.0
C4567 C 0.8309 0.2445 0.26999 0.0
C4568 C 0.85908 0.23109 0.26731 0.0
C4569 C 0.85016 0.21148 0.26891 0.0
C4570 C 0.83131 0.20905 0.27113 0.0
C4571 C 0.82201 0.2249 0.27146 0.0
H4572 H 0.70004 0.05927 0.02306 0.0
H4573 H 0.69106 0.0972 0.98181 0.0
H4574 H 0.66757 0.05061 0.02499 0.0
H4575 H 0.65843 0.08697 0.98223 0.0
H4576 H 0.60993 0.0955 0.01355 0.0
H4577 H 0.64126 0.09786 1.00603 0.0
H4578 H 0.63731 0.03713 0.01386 0.0
H4579 H 0.60683 0.03571 0.02299 0.0
C4580 C 0.69105 0.06514 0.01384 0.0
C4581 C 0.69812 0.07954 1.00296 0.0
C4582 C 0.67238 0.06005 0.0148 0.0
C4583 C 0.66051 0.06882 1.00436 0.0
C4584 C 0.66738 0.08072 0.99111 0.0
C4585 C 0.68609 0.08623 0.99056 0.0
C4586 C 0.61615 0.08301 0.01417 0.0
C4587 C 0.60647 0.06561 0.01911 0.0
C4588 C 0.63381 0.08408 1.0094 0.0
C4589 C 0.64166 0.06751 1.00899 0.0
C4590 C 0.63179 0.05019 0.01419 0.0
C4591 C 0.6144 0.04937 0.01944 0.0
H4592 H 0.19851 0.4567 0.27828 0.0
H4593 H 0.24347 0.48959 0.25388 0.0
H4594 H 0.21737 0.43451 0.28726 0.0
H4595 H 0.26208 0.4668 0.26199 0.0
H4596 H 0.29635 0.43475 0.29466 0.0
H4597 H 0.27701 0.45791 0.29037 0.0
H4598 H 0.23053 0.40908 0.27121 0.0
H4599 H 0.2496 0.386 0.27656 0.0
C4600 C 0.21242 0.4591 0.27479 0.0
C4601 C 0.2196 0.47481 0.26544 0.0
C4602 C 0.22315 0.44636 0.2798 0.0
C4603 C 0.24118 0.44905 0.27541 0.0
C4604 C 0.2483 0.46462 0.26584 0.0
C4605 C 0.23759 0.47744 0.26091 0.0
C4606 C 0.28192 0.42902 0.28997 0.0
C4607 C 0.27448 0.40864 0.28568 0.0
C4608 C 0.27093 0.44224 0.28728 0.0
C4609 C 0.25238 0.43524 0.28017 0.0
C4610 C 0.24478 0.41487 0.27676 0.0
C4611 C 0.25572 0.40168 0.27959 0.0
H4612 H 0.21933 0.43027 0.04914 0.0
H4613 H 0.23868 0.45291 0.99919 0.0
H4614 H 0.19362 0.44601 0.04626 0.0
H4615 H 0.21251 0.46792 0.9958 0.0
H4616 H 0.17716 0.51271 0.0103 0.0
H4617 H 0.20151 0.49496 0.011 0.0
H4618 H 0.16525 0.44588 0.0281 0.0
H4619 H 0.14078 0.46378 0.02747 0.0
C4620 C 0.21814 0.43858 0.03751 0.0
C4621 C 0.23134 0.44043 0.02455 0.0
C4622 C 0.20317 0.44742 0.03569 0.0
C4623 C 0.20089 0.45841 0.02085 0.0
C4624 C 0.21387 0.45987 1.00761 0.0
C4625 C 0.22884 0.45102 1.00943 0.0
C4626 C 0.17422 0.49801 0.01395 0.0
C4627 C 0.15687 0.48976 0.01883 0.0
C4628 C 0.18827 0.48777 0.01434 0.0
C4629 C 0.1855 0.46889 0.01962 0.0
C4630 C 0.16807 0.4605 0.02427 0.0
C4631 C 0.15399 0.47078 0.0239 0.0
H4632 H 0.89205 0.93686 0.25526 0.0
H4633 H 0.84647 0.95946 0.27398 0.0
H4634 H 0.87536 0.90332 0.25653 0.0
H4635 H 0.83031 0.92634 0.27605 0.0
H4636 H 0.7954 0.86399 0.26182 0.0
H4637 H 0.81339 0.89643 0.26038 0.0
H4638 H 0.86275 0.87656 0.27282 0.0
H4639 H 0.84431 0.84347 0.27415 0.0
C4640 C 0.8785 0.93496 0.25963 0.0
C4641 C 0.87099 0.95174 0.26439 0.0
C4642 C 0.86884 0.91536 0.2606 0.0
C4643 C 0.85103 0.91129 0.26626 0.0
C4644 C 0.84367 0.92809 0.2712 0.0
C4645 C 0.85329 0.9476 0.27028 0.0
C4646 C 0.81011 0.86625 0.26427 0.0
C4647 C 0.81802 0.85037 0.26796 0.0
C4648 C 0.82065 0.88533 0.2636 0.0
C4649 C 0.83995 0.89002 0.26667 0.0
C4650 C 0.84805 0.87407 0.27018 0.0
C4651 C 0.83735 0.85476 0.27091 0.0
H4652 H 0.76328 0.12883 0.76123 0.0
H4653 H 0.73378 0.15973 0.80039 0.0
H4654 H 0.78845 0.15796 0.76649 0.0
H4655 H 0.75874 0.18837 0.80583 0.0
H4656 H 0.79559 0.24155 0.8081 0.0
H4657 H 0.79038 0.20764 0.81397 0.0
H4658 H 0.78358 0.18694 0.75253 0.0
H4659 H 0.78904 0.22064 0.74671 0.0
C4660 C 0.7624 0.14165 0.77132 0.0
C4661 C 0.74641 0.14233 0.77996 0.0
C4662 C 0.77687 0.15815 0.77452 0.0
C4663 C 0.77543 0.17545 0.78634 0.0
C4664 C 0.76038 0.17519 0.79677 0.0
C4665 C 0.74592 0.15879 0.79352 0.0
C4666 C 0.79329 0.22973 0.79589 0.0
C4667 C 0.7917 0.23355 0.77691 0.0
C4668 C 0.79065 0.21039 0.79928 0.0
C4669 C 0.78615 0.19472 0.78372 0.0
C4670 C 0.787 0.19871 0.76485 0.0
C4671 C 0.78973 0.21803 0.76147 0.0
loop_
_geom_bond_atom_site_label_1
_geom_bond_atom_site_label_2
_geom_bond_distance
_geom_bond_site_symmetry_2
_ccdc_geom_bond_type
Li0 N17 1.990 . S
Li0 O60 1.956 . S
Li0 O61 1.970 . S
Li0 O62 1.961 . S
Li1 N25 1.990 . S
Li1 O60 1.970 . S
Li1 O61 1.956 . S
Li1 O63 1.961 . S
Li2 N47 1.990 . S
Li2 O60 1.961 . S
Li2 O62 1.956 . S
Li2 O63 1.970 . S
Li3 N53 1.990 . S
Li3 O61 1.961 . S
Li3 O62 1.970 . S
Li3 O63 1.956 . S
C4 C6 1.348 . S
C4 C7 1.356 . S
C4 O60 1.325 . S
N5 C8 1.314 . S
N5 C9 1.279 . S
C6 C4 1.348 . S
C6 C8 1.353 . S
C6 H64 0.929 . S
C7 C4 1.356 . S
C7 C9 1.358 . S
C7 H65 0.930 . S
C8 N5 1.314 . S
C8 C6 1.353 . S
C8 H66 0.930 . S
C9 N5 1.279 . S
C9 C7 1.358 . S
C9 H67 0.930 . S
C10 C13 1.348 . S
C10 C14 1.356 . S
C10 O61 1.325 . S
C11 N12 1.279 . S
C11 C14 1.358 . S
C11 H68 0.930 . S
N12 C11 1.279 . S
N12 C15 1.314 . S
C13 C10 1.348 . S
C13 C15 1.353 . S
C13 H69 0.929 . S
C14 C10 1.356 . S
C14 C11 1.358 . S
C14 H70 0.930 . S
C15 N12 1.314 . S
C15 C13 1.353 . S
C15 H71 0.930 . S
C16 N17 1.314 . S
C16 C21 1.353 . S
C16 H22 0.930 . S
N17 Li0 1.990 . S
N17 C16 1.314 . S
N17 C19 1.279 . S
C18 C19 1.358 . S
C18 C20 1.356 . S
C18 H72 0.930 . S
C19 N17 1.279 . S
C19 C18 1.358 . S
C19 H23 0.930 . S
C20 C18 1.356 . S
C20 C21 1.348 . S
C21 C16 1.353 . S
C21 C20 1.348 . S
C21 H73 0.946 . S
H22 C16 0.930 . S
H23 C19 0.930 . S
C24 N25 1.314 . S
C24 C26 1.353 . S
C24 H30 0.930 . S
N25 Li1 1.990 . S
N25 C24 1.314 . S
N25 C28 1.279 . S
C26 C24 1.353 . S
C26 C29 1.348 . S
C26 H74 0.929 . S
C27 C28 1.358 . S
C27 C29 1.356 . S
C27 H75 0.930 . S
C28 N25 1.279 . S
C28 C27 1.358 . S
C28 H31 0.930 . S
C29 C26 1.348 . S
C29 C27 1.356 . S
H30 C24 0.930 . S
H31 C28 0.930 . S
C32 C34 1.348 . S
C32 C35 1.356 . S
C32 O62 1.325 . S
N33 C36 1.314 . S
N33 C37 1.279 . S
C34 C32 1.348 . S
C34 C36 1.353 . S
C34 H76 0.929 . S
C35 C32 1.356 . S
C35 C37 1.358 . S
C35 H77 0.930 . S
C36 N33 1.314 . S
C36 C34 1.353 . S
C36 H78 0.930 . S
C37 N33 1.279 . S
C37 C35 1.358 . S
C37 H79 0.930 . S
C38 C39 1.348 . S
C38 C40 1.356 . S
C38 O63 1.325 . S
C39 C38 1.348 . S
C39 C41 1.353 . S
C39 H80 0.929 . S
C40 C38 1.356 . S
C40 C42 1.358 . S
C40 H81 0.930 . S
C41 C39 1.353 . S
C41 N43 1.314 . S
C41 H82 0.930 . S
C42 C40 1.358 . S
C42 N43 1.279 . S
C42 H83 0.930 . S
N43 C41 1.314 . S
N43 C42 1.279 . S
C44 C46 1.353 . S
C44 N47 1.314 . S
C44 H50 0.930 . S
C45 N47 1.279 . S
C45 C48 1.358 . S
C45 H51 0.930 . S
C46 C44 1.353 . S
C46 C49 1.348 . S
C46 H84 0.929 . S
N47 Li2 1.990 . S
N47 C44 1.314 . S
N47 C45 1.279 . S
C48 C45 1.358 . S
C48 C49 1.356 . S
C48 H85 0.930 . S
C49 C46 1.348 . S
C49 C48 1.356 . S
H50 C44 0.930 . S
H51 C45 0.930 . S
C52 N53 1.314 . S
C52 C54 1.353 . S
C52 H58 0.930 . S
N53 Li3 1.990 . S
N53 C52 1.314 . S
N53 C56 1.279 . S
C54 C52 1.353 . S
C54 C57 1.348 . S
C54 H86 0.929 . S
C55 C56 1.358 . S
C55 C57 1.356 . S
C55 H87 0.930 . S
C56 N53 1.279 . S
C56 C55 1.358 . S
C56 H59 0.930 . S
C57 C54 1.348 . S
C57 C55 1.356 . S
H58 C52 0.930 . S
H59 C56 0.930 . S
O60 Li0 1.956 . S
O60 Li1 1.970 . S
O60 Li2 1.961 . S
O60 C4 1.325 . S
O61 Li0 1.970 . S
O61 Li1 1.956 . S
O61 Li3 1.961 . S
O61 C10 1.325 . S
O62 Li0 1.961 . S
O62 Li2 1.956 . S
O62 Li3 1.970 . S
O62 C32 1.325 . S
O63 Li1 1.961 . S
O63 Li2 1.970 . S
O63 Li3 1.956 . S
O63 C38 1.325 . S
H64 C6 0.929 . S
H65 C7 0.930 . S
H66 C8 0.930 . S
H67 C9 0.930 . S
H68 C11 0.930 . S
H69 C13 0.929 . S
H70 C14 0.930 . S
H71 C15 0.930 . S
H72 C18 0.930 . S
H73 C21 0.946 . S
H74 C26 0.929 . S
H75 C27 0.930 . S
H76 C34 0.929 . S
H77 C35 0.930 . S
H78 C36 0.930 . S
H79 C37 0.930 . S
H80 C39 0.929 . S
H81 C40 0.930 . S
H82 C41 0.930 . S
H83 C42 0.930 . S
H84 C46 0.929 . S
H85 C48 0.930 . S
H86 C54 0.929 . S
H87 C55 0.930 . S
Li88 N105 1.990 . S
Li88 O148 1.956 . S
Li88 O149 1.970 . S
Li88 O150 1.961 1_455 S
Li89 N113 1.990 . S
Li89 O148 1.970 . S
Li89 O149 1.956 . S
Li89 O151 1.932 1_455 S
Li90 N135 1.990 . S
Li90 O148 1.961 1_655 S
Li90 O150 1.956 . S
Li90 O151 1.971 . S
Li91 N141 1.990 . S
Li91 O149 1.961 1_655 S
Li91 O150 1.970 . S
Li91 O151 1.996 . S
C92 C94 1.348 . S
C92 C95 1.356 . S
C92 O148 1.325 . S
N93 C96 1.314 . S
N93 C97 1.279 . S
C94 C92 1.348 . S
C94 C96 1.353 . S
C94 H152 0.929 . S
C95 C92 1.356 . S
C95 C97 1.358 . S
C95 H153 0.930 . S
C96 N93 1.314 . S
C96 C94 1.353 . S
C96 H154 0.930 . S
C97 N93 1.279 . S
C97 C95 1.358 . S
C97 H155 0.930 . S
C98 C101 1.348 . S
C98 C102 1.356 . S
C98 O149 1.325 . S
C99 N100 1.279 . S
C99 C102 1.358 . S
C99 H156 0.930 . S
N100 C99 1.279 . S
N100 C103 1.314 . S
C101 C98 1.348 . S
C101 C103 1.353 . S
C101 H157 0.929 . S
C102 C98 1.356 . S
C102 C99 1.358 . S
C102 H158 0.934 . S
C103 N100 1.314 . S
C103 C101 1.353 . S
C103 H159 0.930 . S
C104 N105 1.314 1_655 S
C104 C109 1.353 . S
C104 H110 0.930 . S
N105 Li88 1.990 . S
N105 C104 1.314 1_455 S
N105 C107 1.279 . S
C106 C107 1.358 . S
C106 C108 1.356 . S
C106 H160 0.930 . S
C107 N105 1.279 . S
C107 C106 1.358 . S
C107 H111 0.930 . S
C108 C106 1.356 . S
C108 C109 1.348 1_455 S
C109 C104 1.353 . S
C109 C108 1.348 1_655 S
C109 H161 0.929 . S
H110 C104 0.930 . S
H111 C107 0.930 . S
C112 N113 1.314 . S
C112 C114 1.353 . S
C112 H118 0.930 . S
N113 Li89 1.990 . S
N113 C112 1.314 . S
N113 C116 1.279 . S
C114 C112 1.353 . S
C114 C117 1.348 . S
C114 H162 0.929 . S
C115 C116 1.358 . S
C115 C117 1.356 . S
C115 H163 0.930 . S
C116 N113 1.279 . S
C116 C115 1.358 . S
C116 H119 0.930 . S
C117 C114 1.348 . S
C117 C115 1.356 . S
H118 C112 0.930 . S
H119 C116 0.930 . S
C120 C122 1.348 . S
C120 C123 1.356 . S
C120 O150 1.325 . S
N121 C124 1.314 . S
N121 C125 1.279 . S
C122 C120 1.348 . S
C122 C124 1.353 . S
C122 H164 0.929 . S
C123 C120 1.356 . S
C123 C125 1.358 . S
C123 H165 0.930 . S
C124 N121 1.314 . S
C124 C122 1.353 . S
C124 H166 0.930 . S
C125 N121 1.279 . S
C125 C123 1.358 . S
C125 H167 0.930 . S
C126 C127 1.348 . S
C126 C128 1.356 1_655 S
C126 O151 1.324 . S
C127 C126 1.348 . S
C127 C129 1.353 . S
C127 H168 0.929 . S
C128 C126 1.356 1_455 S
C128 C130 1.357 . S
C128 H169 0.930 . S
C129 C127 1.353 . S
C129 N131 1.314 . S
C129 H170 0.930 . S
C130 C128 1.357 . S
C130 N131 1.273 1_455 S
C130 H171 0.944 . S
N131 C129 1.314 . S
N131 C130 1.273 1_655 S
C132 C134 1.353 . S
C132 N135 1.314 1_455 S
C132 H138 0.930 . S
C133 N135 1.279 . S
C133 C136 1.358 . S
C133 H139 0.930 . S
C134 C132 1.353 . S
C134 C137 1.348 1_455 S
C134 H172 0.929 . S
N135 Li90 1.990 . S
N135 C132 1.314 1_655 S
N135 C133 1.279 . S
C136 C133 1.358 . S
C136 C137 1.356 . S
C136 H173 0.930 . S
C137 C134 1.348 1_655 S
C137 C136 1.356 . S
H138 C132 0.930 . S
H139 C133 0.930 . S
C140 N141 1.314 . S
C140 C142 1.353 . S
C140 H146 0.930 . S
N141 Li91 1.990 . S
N141 C140 1.314 . S
N141 C144 1.279 . S
C142 C140 1.353 . S
C142 C145 1.348 . S
C142 H174 0.929 . S
C143 C144 1.358 . S
C143 C145 1.356 . S
C143 H175 0.930 . S
C144 N141 1.279 . S
C144 C143 1.358 . S
C144 H147 0.930 . S
C145 C142 1.348 . S
C145 C143 1.356 . S
H146 C140 0.930 . S
H147 C144 0.930 . S
O148 Li88 1.956 . S
O148 Li89 1.970 . S
O148 Li90 1.961 1_455 S
O148 C92 1.325 . S
O149 Li88 1.970 . S
O149 Li89 1.956 . S
O149 Li91 1.961 1_455 S
O149 C98 1.325 . S
O150 Li88 1.961 1_655 S
O150 Li90 1.956 . S
O150 Li91 1.970 . S
O150 C120 1.325 . S
O151 Li89 1.932 1_655 S
O151 Li90 1.971 . S
O151 Li91 1.996 . S
O151 C126 1.324 . S
H152 C94 0.929 . S
H153 C95 0.930 . S
H154 C96 0.930 . S
H155 C97 0.930 . S
H156 C99 0.930 . S
H157 C101 0.929 . S
H158 C102 0.934 . S
H159 C103 0.930 . S
H160 C106 0.930 . S
H161 C109 0.929 . S
H162 C114 0.929 . S
H163 C115 0.930 . S
H164 C122 0.929 . S
H165 C123 0.930 . S
H166 C124 0.930 . S
H167 C125 0.930 . S
H168 C127 0.929 . S
H169 C128 0.930 . S
H170 C129 0.930 . S
H171 C130 0.944 . S
H172 C134 0.929 . S
H173 C136 0.930 . S
H174 C142 0.929 . S
H175 C143 0.930 . S
Li176 N193 1.990 . S
Li176 O236 1.956 . S
Li176 O237 1.970 . S
Li176 O238 1.961 . S
Li177 N201 1.990 . S
Li177 O236 1.970 . S
Li177 O237 1.956 . S
Li177 O239 1.961 . S
Li178 N223 1.990 . S
Li178 O236 1.961 . S
Li178 O238 1.956 . S
Li178 O239 1.970 . S
Li179 N229 1.990 . S
Li179 O237 1.961 . S
Li179 O238 1.970 . S
Li179 O239 1.956 . S
C180 C182 1.348 . S
C180 C183 1.356 . S
C180 O236 1.325 . S
N181 C184 1.314 . S
N181 C185 1.279 . S
C182 C180 1.348 . S
C182 C184 1.353 . S
C182 H240 0.929 . S
C183 C180 1.356 . S
C183 C185 1.358 . S
C183 H241 0.930 . S
C184 N181 1.314 . S
C184 C182 1.353 . S
C184 H242 0.930 . S
C185 N181 1.279 . S
C185 C183 1.358 . S
C185 H243 0.930 . S
C186 C189 1.348 . S
C186 C190 1.356 . S
C186 O237 1.325 . S
C187 N188 1.279 . S
C187 C190 1.358 . S
C187 H244 0.930 . S
N188 C187 1.279 . S
N188 C191 1.314 . S
C189 C186 1.348 . S
C189 C191 1.353 . S
C189 H245 0.929 . S
C190 C186 1.356 . S
C190 C187 1.358 . S
C190 H246 0.930 . S
C191 N188 1.314 . S
C191 C189 1.353 . S
C191 H247 0.930 . S
C192 N193 1.314 . S
C192 C197 1.353 . S
C192 H198 0.930 . S
N193 Li176 1.990 . S
N193 C192 1.314 . S
N193 C195 1.279 . S
C194 C195 1.358 . S
C194 C196 1.356 . S
C194 H248 0.930 . S
C195 N193 1.279 . S
C195 C194 1.358 . S
C195 H199 0.930 . S
C196 C194 1.356 . S
C196 C197 1.348 . S
C197 C192 1.353 . S
C197 C196 1.348 . S
C197 H249 0.929 . S
H198 C192 0.930 . S
H199 C195 0.930 . S
C200 N201 1.314 . S
C200 C202 1.353 . S
C200 H206 0.930 . S
N201 Li177 1.990 . S
N201 C200 1.314 . S
N201 C204 1.279 . S
C202 C200 1.353 . S
C202 C205 1.348 . S
C202 H250 0.929 . S
C203 C204 1.358 . S
C203 C205 1.356 . S
C203 H251 0.930 . S
C204 N201 1.279 . S
C204 C203 1.358 . S
C204 H207 0.930 . S
C205 C202 1.348 . S
C205 C203 1.356 . S
H206 C200 0.930 . S
H207 C204 0.930 . S
C208 C210 1.348 . S
C208 C211 1.356 . S
C208 O238 1.325 . S
N209 C212 1.314 . S
N209 C213 1.279 . S
C210 C208 1.348 . S
C210 C212 1.353 . S
C210 H252 0.929 . S
C211 C208 1.356 . S
C211 C213 1.358 . S
C211 H253 0.930 . S
C212 N209 1.314 . S
C212 C210 1.353 . S
C212 H254 0.930 . S
C213 N209 1.279 . S
C213 C211 1.358 . S
C213 H255 0.930 . S
C214 C215 1.348 . S
C214 C216 1.356 . S
C214 O239 1.325 . S
C215 C214 1.348 . S
C215 C217 1.353 . S
C215 H256 0.929 . S
C216 C214 1.356 . S
C216 C218 1.358 . S
C216 H257 0.930 . S
C217 C215 1.353 . S
C217 N219 1.314 . S
C217 H258 0.930 . S
C218 C216 1.358 . S
C218 N219 1.279 . S
C218 H259 0.930 . S
N219 C217 1.314 . S
N219 C218 1.279 . S
C220 C222 1.353 . S
C220 N223 1.314 . S
C220 H226 0.930 . S
C221 N223 1.279 . S
C221 C224 1.358 . S
C221 H227 0.930 . S
C222 C220 1.353 . S
C222 C225 1.348 . S
C222 H260 0.929 . S
N223 Li178 1.990 . S
N223 C220 1.314 . S
N223 C221 1.279 . S
C224 C221 1.358 . S
C224 C225 1.356 . S
C224 H261 0.930 . S
C225 C222 1.348 . S
C225 C224 1.356 . S
H226 C220 0.930 . S
H227 C221 0.930 . S
C228 N229 1.314 . S
C228 C230 1.353 . S
C228 H234 0.930 . S
N229 Li179 1.990 . S
N229 C228 1.314 . S
N229 C232 1.279 . S
C230 C228 1.353 . S
C230 C233 1.348 . S
C230 H262 0.929 . S
C231 C232 1.358 . S
C231 C233 1.356 . S
C231 H263 0.930 . S
C232 N229 1.279 . S
C232 C231 1.358 . S
C232 H235 0.930 . S
C233 C230 1.348 . S
C233 C231 1.356 . S
H234 C228 0.930 . S
H235 C232 0.930 . S
O236 Li176 1.956 . S
O236 Li177 1.970 . S
O236 Li178 1.961 . S
O236 C180 1.325 . S
O237 Li176 1.970 . S
O237 Li177 1.956 . S
O237 Li179 1.961 . S
O237 C186 1.325 . S
O238 Li176 1.961 . S
O238 Li178 1.956 . S
O238 Li179 1.970 . S
O238 C208 1.325 . S
O239 Li177 1.961 . S
O239 Li178 1.970 . S
O239 Li179 1.956 . S
O239 C214 1.325 . S
H240 C182 0.929 . S
H241 C183 0.930 . S
H242 C184 0.930 . S
H243 C185 0.930 . S
H244 C187 0.930 . S
H245 C189 0.929 . S
H246 C190 0.930 . S
H247 C191 0.930 . S
H248 C194 0.930 . S
H249 C197 0.929 . S
H250 C202 0.929 . S
H251 C203 0.930 . S
H252 C210 0.929 . S
H253 C211 0.930 . S
H254 C212 0.930 . S
H255 C213 0.930 . S
H256 C215 0.929 . S
H257 C216 0.930 . S
H258 C217 0.930 . S
H259 C218 0.930 . S
H260 C222 0.929 . S
H261 C224 0.930 . S
H262 C230 0.929 . S
H263 C231 0.930 . S
Li264 N281 1.990 . S
Li264 O324 1.956 . S
Li264 O325 1.970 . S
Li264 O326 1.961 . S
Li265 N289 1.990 . S
Li265 O324 1.970 . S
Li265 O325 1.956 . S
Li265 O327 1.961 . S
Li266 N311 1.990 . S
Li266 O324 1.961 . S
Li266 O326 1.956 . S
Li266 O327 1.970 . S
Li267 N317 1.990 . S
Li267 O325 1.961 . S
Li267 O326 1.970 . S
Li267 O327 1.956 . S
C268 C270 1.348 . S
C268 C271 1.356 . S
C268 O324 1.325 . S
N269 C272 1.314 . S
N269 C273 1.279 . S
C270 C268 1.348 . S
C270 C272 1.353 . S
C270 H328 0.929 . S
C271 C268 1.356 . S
C271 C273 1.358 . S
C271 H329 0.930 . S
C272 N269 1.314 . S
C272 C270 1.353 . S
C272 H330 0.930 . S
C273 N269 1.279 . S
C273 C271 1.358 . S
C273 H331 0.930 . S
C274 C277 1.348 . S
C274 C278 1.356 . S
C274 O325 1.325 . S
C275 N276 1.279 . S
C275 C278 1.358 . S
C275 H332 0.930 . S
N276 C275 1.279 . S
N276 C279 1.314 . S
C277 C274 1.348 . S
C277 C279 1.353 . S
C277 H333 0.929 . S
C278 C274 1.356 . S
C278 C275 1.358 . S
C278 H334 0.930 . S
C279 N276 1.314 . S
C279 C277 1.353 . S
C279 H335 0.930 . S
C280 N281 1.314 . S
C280 C285 1.353 . S
C280 H286 0.930 . S
N281 Li264 1.990 . S
N281 C280 1.314 . S
N281 C283 1.279 . S
C282 C283 1.358 . S
C282 C284 1.356 . S
C282 H336 0.930 . S
C283 N281 1.279 . S
C283 C282 1.358 . S
C283 H287 0.930 . S
C284 C282 1.356 . S
C284 C285 1.348 . S
C285 C280 1.353 . S
C285 C284 1.348 . S
C285 H337 0.929 . S
H286 C280 0.930 . S
H287 C283 0.930 . S
C288 N289 1.314 . S
C288 C290 1.353 . S
C288 H294 0.930 . S
N289 Li265 1.990 . S
N289 C288 1.314 . S
N289 C292 1.279 . S
C290 C288 1.353 . S
C290 C293 1.348 . S
C290 H338 0.929 . S
C291 C292 1.358 . S
C291 C293 1.356 . S
C291 H339 0.930 . S
C292 N289 1.279 . S
C292 C291 1.358 . S
C292 H295 0.930 . S
C293 C290 1.348 . S
C293 C291 1.356 . S
H294 C288 0.930 . S
H295 C292 0.930 . S
C296 C298 1.348 . S
C296 C299 1.356 . S
C296 O326 1.325 . S
N297 C300 1.314 . S
N297 C301 1.279 . S
C298 C296 1.348 . S
C298 C300 1.353 . S
C298 H340 0.929 . S
C299 C296 1.356 . S
C299 C301 1.358 . S
C299 H341 0.930 . S
C300 N297 1.314 . S
C300 C298 1.353 . S
C300 H342 0.930 . S
C301 N297 1.279 . S
C301 C299 1.358 . S
C301 H343 0.930 . S
C302 C303 1.348 . S
C302 C304 1.356 . S
C302 O327 1.325 . S
C303 C302 1.348 . S
C303 C305 1.353 . S
C303 H344 0.929 . S
C304 C302 1.356 . S
C304 C306 1.358 . S
C304 H345 0.930 . S
C305 C303 1.353 . S
C305 N307 1.314 . S
C305 H346 0.930 . S
C306 C304 1.358 . S
C306 N307 1.279 . S
C306 H347 0.930 . S
N307 C305 1.314 . S
N307 C306 1.279 . S
C308 C310 1.353 . S
C308 N311 1.314 . S
C308 H314 0.930 . S
C309 N311 1.279 . S
C309 C312 1.358 . S
C309 H315 0.930 . S
C310 C308 1.353 . S
C310 C313 1.348 . S
C310 H348 0.929 . S
N311 Li266 1.990 . S
N311 C308 1.314 . S
N311 C309 1.279 . S
C312 C309 1.358 . S
C312 C313 1.356 . S
C312 H349 0.930 . S
C313 C310 1.348 . S
C313 C312 1.356 . S
H314 C308 0.930 . S
H315 C309 0.930 . S
C316 N317 1.314 . S
C316 C318 1.353 . S
C316 H322 0.930 . S
N317 Li267 1.990 . S
N317 C316 1.314 . S
N317 C320 1.279 . S
C318 C316 1.353 . S
C318 C321 1.348 . S
C318 H350 0.929 . S
C319 C320 1.358 . S
C319 C321 1.356 . S
C319 H351 0.930 . S
C320 N317 1.279 . S
C320 C319 1.358 . S
C320 H323 0.930 . S
C321 C318 1.348 . S
C321 C319 1.356 . S
H322 C316 0.930 . S
H323 C320 0.930 . S
O324 Li264 1.956 . S
O324 Li265 1.970 . S
O324 Li266 1.961 . S
O324 C268 1.325 . S
O325 Li264 1.970 . S
O325 Li265 1.956 . S
O325 Li267 1.961 . S
O325 C274 1.325 . S
O326 Li264 1.961 . S
O326 Li266 1.956 . S
O326 Li267 1.970 . S
O326 C296 1.325 . S
O327 Li265 1.961 . S
O327 Li266 1.970 . S
O327 Li267 1.956 . S
O327 C302 1.325 . S
H328 C270 0.929 . S
H329 C271 0.930 . S
H330 C272 0.930 . S
H331 C273 0.930 . S
H332 C275 0.930 . S
H333 C277 0.929 . S
H334 C278 0.930 . S
H335 C279 0.930 . S
H336 C282 0.930 . S
H337 C285 0.929 . S
H338 C290 0.929 . S
H339 C291 0.930 . S
H340 C298 0.929 . S
H341 C299 0.930 . S
H342 C300 0.930 . S
H343 C301 0.930 . S
H344 C303 0.929 . S
H345 C304 0.930 . S
H346 C305 0.930 . S
H347 C306 0.930 . S
H348 C310 0.929 . S
H349 C312 0.930 . S
H350 C318 0.929 . S
H351 C319 0.930 . S
Li352 N369 1.990 . S
Li352 O412 1.956 . S
Li352 O413 1.970 . S
Li352 O414 1.961 . S
Li353 N377 1.990 . S
Li353 O412 1.970 . S
Li353 O413 1.956 . S
Li353 O415 1.961 . S
Li354 N399 1.990 . S
Li354 O412 1.961 . S
Li354 O414 1.956 . S
Li354 O415 1.970 . S
Li355 N405 1.990 . S
Li355 O413 1.961 . S
Li355 O414 1.970 . S
Li355 O415 1.956 . S
C356 C358 1.348 . S
C356 C359 1.356 . S
C356 O412 1.325 . S
N357 C360 1.314 . S
N357 C361 1.279 . S
C358 C356 1.348 . S
C358 C360 1.353 . S
C358 H416 0.929 . S
C359 C356 1.356 . S
C359 C361 1.358 . S
C359 H417 0.930 . S
C360 N357 1.314 . S
C360 C358 1.353 . S
C360 H418 0.930 . S
C361 N357 1.279 . S
C361 C359 1.358 . S
C361 H419 0.930 . S
C362 C365 1.348 . S
C362 C366 1.356 . S
C362 O413 1.325 . S
C363 N364 1.279 . S
C363 C366 1.358 . S
C363 H420 0.930 . S
N364 C363 1.279 . S
N364 C367 1.314 . S
C365 C362 1.348 . S
C365 C367 1.353 . S
C365 H421 0.929 . S
C366 C362 1.356 . S
C366 C363 1.358 . S
C366 H422 0.930 . S
C367 N364 1.314 . S
C367 C365 1.353 . S
C367 H423 0.930 . S
C368 N369 1.314 . S
C368 C373 1.353 . S
C368 H374 0.930 . S
N369 Li352 1.990 . S
N369 C368 1.314 . S
N369 C371 1.279 . S
C370 C371 1.358 . S
C370 C372 1.356 . S
C370 H424 0.930 . S
C371 N369 1.279 . S
C371 C370 1.358 . S
C371 H375 0.930 . S
C372 C370 1.356 . S
C372 C373 1.348 . S
C373 C368 1.353 . S
C373 C372 1.348 . S
C373 H425 0.929 . S
H374 C368 0.930 . S
H375 C371 0.930 . S
C376 N377 1.314 . S
C376 C378 1.353 . S
C376 H382 0.930 . S
N377 Li353 1.990 . S
N377 C376 1.314 . S
N377 C380 1.279 . S
C378 C376 1.353 . S
C378 C381 1.348 . S
C378 H426 0.929 . S
C379 C380 1.358 . S
C379 C381 1.356 . S
C379 H427 0.930 . S
C380 N377 1.279 . S
C380 C379 1.358 . S
C380 H383 0.930 . S
C381 C378 1.348 . S
C381 C379 1.356 . S
H382 C376 0.930 . S
H383 C380 0.930 . S
C384 C386 1.348 . S
C384 C387 1.356 . S
C384 O414 1.325 . S
N385 C388 1.314 . S
N385 C389 1.279 1_655 S
C386 C384 1.348 . S
C386 C388 1.353 1_455 S
C386 H428 0.929 . S
C387 C384 1.356 . S
C387 C389 1.358 . S
C387 H429 0.930 . S
C388 N385 1.314 . S
C388 C386 1.353 1_655 S
C388 H430 0.930 . S
C389 N385 1.279 1_455 S
C389 C387 1.358 . S
C389 H431 0.930 . S
C390 C391 1.348 . S
C390 C392 1.356 . S
C390 O415 1.325 . S
C391 C390 1.348 . S
C391 C393 1.353 . S
C391 H432 0.929 . S
C392 C390 1.356 . S
C392 C394 1.358 . S
C392 H433 0.930 . S
C393 C391 1.353 . S
C393 N395 1.314 . S
C393 H434 0.930 . S
C394 C392 1.358 . S
C394 N395 1.279 . S
C394 H435 0.930 . S
N395 C393 1.314 . S
N395 C394 1.279 . S
C396 C398 1.353 . S
C396 N399 1.314 . S
C396 H402 0.930 . S
C397 N399 1.279 . S
C397 C400 1.358 . S
C397 H403 0.930 . S
C398 C396 1.353 . S
C398 C401 1.348 . S
C398 H436 0.929 . S
N399 Li354 1.990 . S
N399 C396 1.314 . S
N399 C397 1.279 . S
C400 C397 1.358 . S
C400 C401 1.356 . S
C400 H437 0.930 . S
C401 C398 1.348 . S
C401 C400 1.356 . S
H402 C396 0.930 . S
H403 C397 0.930 . S
C404 N405 1.314 . S
C404 C406 1.353 . S
C404 H410 0.930 . S
N405 Li355 1.990 . S
N405 C404 1.314 . S
N405 C408 1.279 . S
C406 C404 1.353 . S
C406 C409 1.348 1_455 S
C406 H438 0.908 1_455 S
C407 C408 1.358 . S
C407 C409 1.356 1_455 S
C407 H439 0.934 . S
C408 N405 1.279 . S
C408 C407 1.358 . S
C408 H411 0.930 . S
C409 C406 1.348 1_655 S
C409 C407 1.356 1_655 S
H410 C404 0.930 . S
H411 C408 0.930 . S
O412 Li352 1.956 . S
O412 Li353 1.970 . S
O412 Li354 1.961 . S
O412 C356 1.325 . S
O413 Li352 1.970 . S
O413 Li353 1.956 . S
O413 Li355 1.961 . S
O413 C362 1.325 . S
O414 Li352 1.961 . S
O414 Li354 1.956 . S
O414 Li355 1.970 . S
O414 C384 1.325 . S
O415 Li353 1.961 . S
O415 Li354 1.970 . S
O415 Li355 1.956 . S
O415 C390 1.325 . S
H416 C358 0.929 . S
H417 C359 0.930 . S
H418 C360 0.930 . S
H419 C361 0.930 . S
H420 C363 0.930 . S
H421 C365 0.929 . S
H422 C366 0.930 . S
H423 C367 0.930 . S
H424 C370 0.930 . S
H425 C373 0.929 . S
H426 C378 0.929 . S
H427 C379 0.930 . S
H428 C386 0.929 . S
H429 C387 0.930 . S
H430 C388 0.930 . S
H431 C389 0.930 . S
H432 C391 0.929 . S
H433 C392 0.930 . S
H434 C393 0.930 . S
H435 C394 0.930 . S
H436 C398 0.929 . S
H437 C400 0.930 . S
H438 C406 0.908 1_655 S
H439 C407 0.934 . S
Li440 N457 1.990 . S
Li440 O500 1.956 . S
Li440 O501 1.970 . S
Li440 O502 1.961 . S
Li441 N465 1.990 . S
Li441 O500 1.970 . S
Li441 O501 1.956 . S
Li441 O503 1.961 . S
Li442 N487 1.990 . S
Li442 O500 1.961 . S
Li442 O502 1.956 . S
Li442 O503 1.970 . S
Li443 N493 1.990 . S
Li443 O501 1.961 . S
Li443 O502 1.970 . S
Li443 O503 1.956 . S
C444 C446 1.348 . S
C444 C447 1.356 . S
C444 O500 1.325 . S
N445 C448 1.314 . S
N445 C449 1.279 . S
C446 C444 1.348 . S
C446 C448 1.353 . S
C446 H504 0.929 . S
C447 C444 1.356 . S
C447 C449 1.358 . S
C447 H505 0.930 . S
C448 N445 1.314 . S
C448 C446 1.353 . S
C448 H506 0.930 . S
C449 N445 1.279 . S
C449 C447 1.358 . S
C449 H507 0.930 . S
C450 C453 1.348 . S
C450 C454 1.356 . S
C450 O501 1.325 . S
C451 N452 1.279 . S
C451 C454 1.358 . S
C451 H508 0.930 . S
N452 C451 1.279 . S
N452 C455 1.314 . S
C453 C450 1.348 . S
C453 C455 1.353 . S
C453 H509 0.929 . S
C454 C450 1.356 . S
C454 C451 1.358 . S
C454 H510 0.930 . S
C455 N452 1.314 . S
C455 C453 1.353 . S
C455 H511 0.930 . S
C456 N457 1.314 . S
C456 C461 1.353 . S
C456 H462 0.930 . S
N457 Li440 1.990 . S
N457 C456 1.314 . S
N457 C459 1.279 . S
C458 C459 1.358 . S
C458 C460 1.356 . S
C458 H512 0.930 . S
C459 N457 1.279 . S
C459 C458 1.358 . S
C459 H463 0.930 . S
C460 C458 1.356 . S
C460 C461 1.348 . S
C461 C456 1.353 . S
C461 C460 1.348 . S
C461 H513 0.929 . S
H462 C456 0.930 . S
H463 C459 0.930 . S
C464 N465 1.314 . S
C464 C466 1.353 . S
C464 H470 0.930 . S
N465 Li441 1.990 . S
N465 C464 1.314 . S
N465 C468 1.279 . S
C466 C464 1.353 . S
C466 C469 1.348 . S
C466 H514 0.929 . S
C467 C468 1.358 . S
C467 C469 1.356 . S
C467 H515 0.930 . S
C468 N465 1.279 . S
C468 C467 1.358 . S
C468 H471 0.930 . S
C469 C466 1.348 . S
C469 C467 1.356 . S
H470 C464 0.930 . S
H471 C468 0.930 . S
C472 C474 1.348 . S
C472 C475 1.356 . S
C472 O502 1.325 . S
N473 C476 1.314 . S
N473 C477 1.279 . S
C474 C472 1.348 . S
C474 C476 1.353 . S
C474 H516 0.929 . S
C475 C472 1.356 . S
C475 C477 1.358 . S
C475 H517 0.930 . S
C476 N473 1.314 . S
C476 C474 1.353 . S
C476 H518 0.930 . S
C477 N473 1.279 . S
C477 C475 1.358 . S
C477 H519 0.930 . S
C478 C479 1.348 . S
C478 C480 1.356 . S
C478 O503 1.325 . S
C479 C478 1.348 . S
C479 C481 1.353 . S
C479 H520 0.929 . S
C480 C478 1.356 . S
C480 C482 1.358 . S
C480 H521 0.930 . S
C481 C479 1.353 . S
C481 N483 1.314 . S
C481 H522 0.930 . S
C482 C480 1.358 . S
C482 N483 1.279 . S
C482 H523 0.930 . S
N483 C481 1.314 . S
N483 C482 1.279 . S
C484 C486 1.353 . S
C484 N487 1.314 . S
C484 H490 0.930 . S
C485 N487 1.279 . S
C485 C488 1.358 . S
C485 H491 0.930 . S
C486 C484 1.353 . S
C486 C489 1.348 . S
C486 H524 0.929 . S
N487 Li442 1.990 . S
N487 C484 1.314 . S
N487 C485 1.279 . S
C488 C485 1.358 . S
C488 C489 1.356 . S
C488 H525 0.930 . S
C489 C486 1.348 . S
C489 C488 1.356 . S
H490 C484 0.930 . S
H491 C485 0.930 . S
C492 N493 1.314 . S
C492 C494 1.353 . S
C492 H498 0.930 . S
N493 Li443 1.990 . S
N493 C492 1.314 . S
N493 C496 1.279 . S
C494 C492 1.353 . S
C494 C497 1.348 . S
C494 H526 0.929 . S
C495 C496 1.358 . S
C495 C497 1.356 . S
C495 H527 0.930 . S
C496 N493 1.279 . S
C496 C495 1.358 . S
C496 H499 0.930 . S
C497 C494 1.348 . S
C497 C495 1.356 . S
H498 C492 0.930 . S
H499 C496 0.930 . S
O500 Li440 1.956 . S
O500 Li441 1.970 . S
O500 Li442 1.961 . S
O500 C444 1.325 . S
O501 Li440 1.970 . S
O501 Li441 1.956 . S
O501 Li443 1.961 . S
O501 C450 1.325 . S
O502 Li440 1.961 . S
O502 Li442 1.956 . S
O502 Li443 1.970 . S
O502 C472 1.325 . S
O503 Li441 1.961 . S
O503 Li442 1.970 . S
O503 Li443 1.956 . S
O503 C478 1.325 . S
H504 C446 0.929 . S
H505 C447 0.930 . S
H506 C448 0.930 . S
H507 C449 0.930 . S
H508 C451 0.930 . S
H509 C453 0.929 . S
H510 C454 0.930 . S
H511 C455 0.930 . S
H512 C458 0.930 . S
H513 C461 0.929 . S
H514 C466 0.929 . S
H515 C467 0.930 . S
H516 C474 0.929 . S
H517 C475 0.930 . S
H518 C476 0.930 . S
H519 C477 0.930 . S
H520 C479 0.929 . S
H521 C480 0.930 . S
H522 C481 0.930 . S
H523 C482 0.930 . S
H524 C486 0.929 . S
H525 C488 0.930 . S
H526 C494 0.929 . S
H527 C495 0.930 . S
Li528 N545 1.990 . S
Li528 O588 1.956 . S
Li528 O589 1.970 . S
Li528 O590 1.961 . S
Li529 N553 1.990 . S
Li529 O588 1.970 . S
Li529 O589 1.956 . S
Li529 O591 1.961 . S
Li530 N575 1.990 . S
Li530 O588 1.961 . S
Li530 O590 1.956 . S
Li530 O591 1.970 . S
Li531 N581 1.990 . S
Li531 O589 1.961 . S
Li531 O590 1.970 . S
Li531 O591 1.956 . S
C532 C534 1.348 . S
C532 C535 1.356 . S
C532 O588 1.325 . S
N533 C536 1.314 . S
N533 C537 1.279 . S
C534 C532 1.348 . S
C534 C536 1.353 . S
C534 H592 0.929 . S
C535 C532 1.356 . S
C535 C537 1.358 . S
C535 H593 0.930 . S
C536 N533 1.314 . S
C536 C534 1.353 . S
C536 H594 0.930 . S
C537 N533 1.279 . S
C537 C535 1.358 . S
C537 H595 0.930 . S
C538 C541 1.348 . S
C538 C542 1.356 . S
C538 O589 1.325 . S
C539 N540 1.279 . S
C539 C542 1.358 . S
C539 H596 0.930 . S
N540 C539 1.279 . S
N540 C543 1.314 . S
C541 C538 1.348 . S
C541 C543 1.353 . S
C541 H597 0.929 . S
C542 C538 1.356 . S
C542 C539 1.358 . S
C542 H598 0.930 . S
C543 N540 1.314 . S
C543 C541 1.353 . S
C543 H599 0.930 . S
C544 N545 1.314 . S
C544 C549 1.353 . S
C544 H550 0.930 . S
N545 Li528 1.990 . S
N545 C544 1.314 . S
N545 C547 1.279 . S
C546 C547 1.358 . S
C546 C548 1.356 . S
C546 H600 0.930 . S
C547 N545 1.279 . S
C547 C546 1.358 . S
C547 H551 0.930 . S
C548 C546 1.356 . S
C548 C549 1.348 . S
C549 C544 1.353 . S
C549 C548 1.348 . S
C549 H601 0.929 . S
H550 C544 0.930 . S
H551 C547 0.930 . S
C552 N553 1.314 . S
C552 C554 1.353 . S
C552 H558 0.930 . S
N553 Li529 1.990 . S
N553 C552 1.314 . S
N553 C556 1.279 . S
C554 C552 1.353 . S
C554 C557 1.348 . S
C554 H602 0.929 . S
C555 C556 1.358 . S
C555 C557 1.356 . S
C555 H603 0.930 . S
C556 N553 1.279 . S
C556 C555 1.358 . S
C556 H559 0.930 . S
C557 C554 1.348 . S
C557 C555 1.356 . S
H558 C552 0.930 . S
H559 C556 0.930 . S
C560 C562 1.348 . S
C560 C563 1.356 . S
C560 O590 1.325 . S
N561 C564 1.314 . S
N561 C565 1.279 . S
C562 C560 1.348 . S
C562 C564 1.353 . S
C562 H604 0.929 . S
C563 C560 1.356 . S
C563 C565 1.358 . S
C563 H605 0.930 . S
C564 N561 1.314 . S
C564 C562 1.353 . S
C564 H606 0.930 . S
C565 N561 1.279 . S
C565 C563 1.358 . S
C565 H607 0.930 . S
C566 C567 1.348 . S
C566 C568 1.356 . S
C566 O591 1.325 . S
C567 C566 1.348 . S
C567 C569 1.353 . S
C567 H608 0.929 . S
C568 C566 1.356 . S
C568 C570 1.358 . S
C568 H609 0.930 . S
C569 C567 1.353 . S
C569 N571 1.314 . S
C569 H610 0.930 . S
C570 C568 1.358 . S
C570 N571 1.279 . S
C570 H611 0.930 . S
N571 C569 1.314 . S
N571 C570 1.279 . S
C572 C574 1.353 . S
C572 N575 1.314 . S
C572 H578 0.930 . S
C573 N575 1.279 . S
C573 C576 1.358 . S
C573 H579 0.930 . S
C574 C572 1.353 . S
C574 C577 1.348 . S
C574 H612 0.929 . S
N575 Li530 1.990 . S
N575 C572 1.314 . S
N575 C573 1.279 . S
C576 C573 1.358 . S
C576 C577 1.356 . S
C576 H613 0.930 . S
C577 C574 1.348 . S
C577 C576 1.356 . S
H578 C572 0.930 . S
H579 C573 0.930 . S
C580 N581 1.314 . S
C580 C582 1.353 . S
C580 H586 0.930 . S
N581 Li531 1.990 . S
N581 C580 1.314 . S
N581 C584 1.279 . S
C582 C580 1.353 . S
C582 C585 1.348 . S
C582 H614 0.929 . S
C583 C584 1.358 . S
C583 C585 1.356 . S
C583 H615 0.930 . S
C584 N581 1.279 . S
C584 C583 1.358 . S
C584 H587 0.930 . S
C585 C582 1.348 . S
C585 C583 1.356 . S
H586 C580 0.930 . S
H587 C584 0.930 . S
O588 Li528 1.956 . S
O588 Li529 1.970 . S
O588 Li530 1.961 . S
O588 C532 1.325 . S
O589 Li528 1.970 . S
O589 Li529 1.956 . S
O589 Li531 1.961 . S
O589 C538 1.325 . S
O590 Li528 1.961 . S
O590 Li530 1.956 . S
O590 Li531 1.970 . S
O590 C560 1.325 . S
O591 Li529 1.961 . S
O591 Li530 1.970 . S
O591 Li531 1.956 . S
O591 C566 1.325 . S
H592 C534 0.929 . S
H593 C535 0.930 . S
H594 C536 0.930 . S
H595 C537 0.930 . S
H596 C539 0.930 . S
H597 C541 0.929 . S
H598 C542 0.930 . S
H599 C543 0.930 . S
H600 C546 0.930 . S
H601 C549 0.929 . S
H602 C554 0.929 . S
H603 C555 0.930 . S
H604 C562 0.929 . S
H605 C563 0.930 . S
H606 C564 0.930 . S
H607 C565 0.930 . S
H608 C567 0.929 . S
H609 C568 0.930 . S
H610 C569 0.930 . S
H611 C570 0.930 . S
H612 C574 0.929 . S
H613 C576 0.930 . S
H614 C582 0.929 . S
H615 C583 0.930 . S
Li616 N633 1.990 . S
Li616 O676 1.956 1_455 S
Li616 O677 1.970 . S
Li616 O678 1.961 . S
Li617 N641 1.990 . S
Li617 O676 1.970 . S
Li617 O677 1.956 1_655 S
Li617 O679 1.961 1_655 S
Li618 N663 1.990 . S
Li618 O676 1.961 1_455 S
Li618 O678 1.956 . S
Li618 O679 1.970 . S
Li619 N669 1.990 . S
Li619 O677 1.961 . S
Li619 O678 1.970 . S
Li619 O679 1.956 . S
C620 C622 1.348 . S
C620 C623 1.356 . S
C620 O676 1.325 . S
N621 C624 1.314 . S
N621 C625 1.279 . S
C622 C620 1.348 . S
C622 C624 1.353 . S
C622 H680 0.929 . S
C623 C620 1.356 . S
C623 C625 1.358 . S
C623 H681 0.930 . S
C624 N621 1.314 . S
C624 C622 1.353 . S
C624 H682 0.930 . S
C625 N621 1.279 . S
C625 C623 1.358 . S
C625 H683 0.930 . S
C626 C629 1.348 . S
C626 C630 1.356 . S
C626 O677 1.325 . S
C627 N628 1.279 . S
C627 C630 1.358 . S
C627 H684 0.930 . S
N628 C627 1.279 . S
N628 C631 1.314 . S
C629 C626 1.348 . S
C629 C631 1.353 . S
C629 H685 0.929 . S
C630 C626 1.356 . S
C630 C627 1.358 . S
C630 H686 0.930 . S
C631 N628 1.314 . S
C631 C629 1.353 . S
C631 H687 0.930 . S
C632 N633 1.314 . S
C632 C637 1.353 . S
C632 H638 0.930 . S
N633 Li616 1.990 . S
N633 C632 1.314 . S
N633 C635 1.279 . S
C634 C635 1.358 . S
C634 C636 1.356 . S
C634 H688 0.979 . S
C635 N633 1.279 . S
C635 C634 1.358 . S
C635 H639 0.930 1_455 S
C636 C634 1.356 . S
C636 C637 1.348 . S
C637 C632 1.353 . S
C637 C636 1.348 . S
C637 H689 0.929 . S
H638 C632 0.930 . S
H639 C635 0.930 1_655 S
C640 N641 1.314 . S
C640 C642 1.353 . S
C640 H646 0.930 . S
N641 Li617 1.990 . S
N641 C640 1.314 . S
N641 C644 1.279 . S
C642 C640 1.353 . S
C642 C645 1.348 . S
C642 H690 0.929 . S
C643 C644 1.358 . S
C643 C645 1.356 . S
C643 H691 0.930 . S
C644 N641 1.279 . S
C644 C643 1.358 . S
C644 H647 0.930 . S
C645 C642 1.348 . S
C645 C643 1.356 . S
H646 C640 0.930 . S
H647 C644 0.930 . S
C648 C650 1.348 . S
C648 C651 1.356 . S
C648 O678 1.325 . S
N649 C652 1.314 . S
N649 C653 1.279 . S
C650 C648 1.348 . S
C650 C652 1.353 . S
C650 H692 0.929 . S
C651 C648 1.356 . S
C651 C653 1.358 . S
C651 H693 0.930 . S
C652 N649 1.314 . S
C652 C650 1.353 . S
C652 H694 0.930 . S
C653 N649 1.279 . S
C653 C651 1.358 . S
C653 H695 0.930 . S
C654 C655 1.348 . S
C654 C656 1.356 . S
C654 O679 1.325 . S
C655 C654 1.348 . S
C655 C657 1.353 . S
C655 H696 0.929 . S
C656 C654 1.356 . S
C656 C658 1.358 . S
C656 H697 0.930 . S
C657 C655 1.353 . S
C657 N659 1.314 . S
C657 H698 0.930 . S
C658 C656 1.358 . S
C658 N659 1.279 . S
C658 H699 0.930 1_455 S
N659 C657 1.314 . S
N659 C658 1.279 . S
C660 C662 1.353 . S
C660 N663 1.314 1_655 S
C660 H666 0.930 . S
C661 N663 1.279 . S
C661 C664 1.358 . S
C661 H667 0.930 . S
C662 C660 1.353 . S
C662 C665 1.348 1_655 S
C662 H700 0.929 . S
N663 Li618 1.990 . S
N663 C660 1.314 1_455 S
N663 C661 1.279 . S
C664 C661 1.358 . S
C664 C665 1.356 . S
C664 H701 0.930 . S
C665 C662 1.348 1_455 S
C665 C664 1.356 . S
H666 C660 0.930 . S
H667 C661 0.930 . S
C668 N669 1.314 . S
C668 C670 1.353 . S
C668 H674 0.930 . S
N669 Li619 1.990 . S
N669 C668 1.314 . S
N669 C672 1.279 . S
C670 C668 1.353 . S
C670 C673 1.348 . S
C670 H702 0.929 . S
C671 C672 1.358 . S
C671 C673 1.356 . S
C671 H703 0.930 . S
C672 N669 1.279 . S
C672 C671 1.358 . S
C672 H675 0.930 . S
C673 C670 1.348 . S
C673 C671 1.356 . S
H674 C668 0.930 . S
H675 C672 0.930 . S
O676 Li616 1.956 1_655 S
O676 Li617 1.970 . S
O676 Li618 1.961 1_655 S
O676 C620 1.325 . S
O677 Li616 1.970 . S
O677 Li617 1.956 1_455 S
O677 Li619 1.961 . S
O677 C626 1.325 . S
O678 Li616 1.961 . S
O678 Li618 1.956 . S
O678 Li619 1.970 . S
O678 C648 1.325 . S
O679 Li617 1.961 1_455 S
O679 Li618 1.970 . S
O679 Li619 1.956 . S
O679 C654 1.325 . S
H680 C622 0.929 . S
H681 C623 0.930 . S
H682 C624 0.930 . S
H683 C625 0.930 . S
H684 C627 0.930 . S
H685 C629 0.929 . S
H686 C630 0.930 . S
H687 C631 0.930 . S
H688 C634 0.979 . S
H689 C637 0.929 . S
H690 C642 0.929 . S
H691 C643 0.930 . S
H692 C650 0.929 . S
H693 C651 0.930 . S
H694 C652 0.930 . S
H695 C653 0.930 . S
H696 C655 0.929 . S
H697 C656 0.930 . S
H698 C657 0.930 . S
H699 C658 0.930 1_655 S
H700 C662 0.929 . S
H701 C664 0.930 . S
H702 C670 0.929 . S
H703 C671 0.930 . S
Li704 N721 1.990 . S
Li704 O764 1.956 1_545 S
Li704 O765 1.970 . S
Li704 O766 1.961 . S
Li705 N729 1.990 . S
Li705 O764 1.970 . S
Li705 O765 1.956 1_565 S
Li705 O767 1.961 . S
Li706 N751 1.990 . S
Li706 O764 1.961 1_545 S
Li706 O766 1.956 . S
Li706 O767 1.970 1_545 S
Li707 N757 1.990 . S
Li707 O765 1.961 . S
Li707 O766 1.970 . S
Li707 O767 1.956 1_545 S
C708 C710 1.348 . S
C708 C711 1.356 . S
C708 O764 1.325 . S
N709 C712 1.314 . S
N709 C713 1.279 . S
C710 C708 1.348 . S
C710 C712 1.353 . S
C710 H768 0.929 . S
C711 C708 1.356 . S
C711 C713 1.358 . S
C711 H769 0.930 . S
C712 N709 1.314 . S
C712 C710 1.353 . S
C712 H770 0.930 . S
C713 N709 1.279 . S
C713 C711 1.358 . S
C713 H771 0.930 . S
C714 C717 1.336 1_545 S
C714 C718 1.356 . S
C714 O765 1.325 . S
C715 N716 1.281 . S
C715 C718 1.358 . S
C715 H772 0.930 . S
N716 C715 1.281 . S
N716 C719 1.312 1_545 S
C717 C714 1.336 1_565 S
C717 C719 1.353 . S
C717 H773 0.942 . S
C718 C714 1.356 . S
C718 C715 1.358 . S
C718 H774 0.930 . S
C719 N716 1.312 1_565 S
C719 C717 1.353 . S
C719 H775 0.930 . S
C720 N721 1.314 . S
C720 C725 1.353 . S
C720 H726 0.930 . S
N721 Li704 1.990 . S
N721 C720 1.314 . S
N721 C723 1.279 1_545 S
C722 C723 1.367 1_545 S
C722 C724 1.397 . S
C722 H776 0.881 1_545 S
C723 N721 1.279 1_565 S
C723 C722 1.367 1_565 S
C723 H727 0.930 . S
C724 C722 1.397 . S
C724 C725 1.348 . S
C725 C720 1.353 . S
C725 C724 1.348 . S
C725 H777 0.929 . S
H726 C720 0.930 . S
H727 C723 0.930 . S
C728 N729 1.314 . S
C728 C730 1.353 . S
C728 H734 0.930 . S
N729 Li705 1.990 . S
N729 C728 1.314 . S
N729 C732 1.279 . S
C730 C728 1.353 . S
C730 C733 1.348 . S
C730 H778 0.929 . S
C731 C732 1.358 . S
C731 C733 1.356 . S
C731 H779 0.930 . S
C732 N729 1.279 . S
C732 C731 1.358 . S
C732 H735 0.930 . S
C733 C730 1.348 . S
C733 C731 1.356 . S
H734 C728 0.930 . S
H735 C732 0.930 . S
C736 C738 1.348 . S
C736 C739 1.356 . S
C736 O766 1.325 . S
N737 C740 1.314 . S
N737 C741 1.279 . S
C738 C736 1.348 . S
C738 C740 1.353 . S
C738 H780 0.929 . S
C739 C736 1.356 . S
C739 C741 1.358 . S
C739 H781 0.930 . S
C740 N737 1.314 . S
C740 C738 1.353 . S
C740 H782 0.930 . S
C741 N737 1.279 . S
C741 C739 1.358 . S
C741 H783 0.930 . S
C742 C743 1.328 1_565 S
C742 C744 1.356 . S
C742 O767 1.325 . S
C743 C742 1.328 1_545 S
C743 C745 1.362 1_545 S
C743 H784 0.944 . S
C744 C742 1.356 . S
C744 C746 1.358 . S
C744 H785 0.930 . S
C745 C743 1.362 1_565 S
C745 N747 1.314 . S
C745 H786 0.918 1_565 S
C746 C744 1.358 . S
C746 N747 1.279 . S
C746 H787 0.930 . S
N747 C745 1.314 . S
N747 C746 1.279 . S
C748 C750 1.353 . S
C748 N751 1.314 1_565 S
C748 H754 0.930 . S
C749 N751 1.279 . S
C749 C752 1.358 . S
C749 H755 0.930 . S
C750 C748 1.353 . S
C750 C753 1.348 1_565 S
C750 H788 0.929 . S
N751 Li706 1.990 . S
N751 C748 1.314 1_545 S
N751 C749 1.279 . S
C752 C749 1.358 . S
C752 C753 1.356 . S
C752 H789 0.930 . S
C753 C750 1.348 1_545 S
C753 C752 1.356 . S
H754 C748 0.930 . S
H755 C749 0.930 . S
C756 N757 1.314 . S
C756 C758 1.353 . S
C756 H762 0.930 . S
N757 Li707 1.990 . S
N757 C756 1.314 . S
N757 C760 1.279 . S
C758 C756 1.353 . S
C758 C761 1.348 . S
C758 H790 0.929 . S
C759 C760 1.358 . S
C759 C761 1.356 . S
C759 H791 0.930 . S
C760 N757 1.279 . S
C760 C759 1.358 . S
C760 H763 0.930 . S
C761 C758 1.348 . S
C761 C759 1.356 . S
H762 C756 0.930 . S
H763 C760 0.930 . S
O764 Li704 1.956 1_565 S
O764 Li705 1.970 . S
O764 Li706 1.961 1_565 S
O764 C708 1.325 . S
O765 Li704 1.970 . S
O765 Li705 1.956 1_545 S
O765 Li707 1.961 . S
O765 C714 1.325 . S
O766 Li704 1.961 . S
O766 Li706 1.956 . S
O766 Li707 1.970 . S
O766 C736 1.325 . S
O767 Li705 1.961 . S
O767 Li706 1.970 1_565 S
O767 Li707 1.956 1_565 S
O767 C742 1.325 . S
H768 C710 0.929 . S
H769 C711 0.930 . S
H770 C712 0.930 . S
H771 C713 0.930 . S
H772 C715 0.930 . S
H773 C717 0.942 . S
H774 C718 0.930 . S
H775 C719 0.930 . S
H776 C722 0.881 1_565 S
H777 C725 0.929 . S
H778 C730 0.929 . S
H779 C731 0.930 . S
H780 C738 0.929 . S
H781 C739 0.930 . S
H782 C740 0.930 . S
H783 C741 0.930 . S
H784 C743 0.944 . S
H785 C744 0.930 . S
H786 C745 0.918 1_545 S
H787 C746 0.930 . S
H788 C750 0.929 . S
H789 C752 0.930 . S
H790 C758 0.929 . S
H791 C759 0.930 . S
Li792 N809 1.990 . S
Li792 O852 1.956 . S
Li792 O853 1.970 . S
Li792 O854 1.961 . S
Li793 N817 1.990 . S
Li793 O852 1.970 . S
Li793 O853 1.956 . S
Li793 O855 1.961 . S
Li794 N839 1.990 . S
Li794 O852 1.961 . S
Li794 O854 1.956 . S
Li794 O855 1.970 . S
Li795 N845 1.990 . S
Li795 O853 1.961 . S
Li795 O854 1.970 . S
Li795 O855 1.956 . S
C796 C798 1.348 . S
C796 C799 1.356 . S
C796 O852 1.325 . S
N797 C800 1.314 . S
N797 C801 1.279 . S
C798 C796 1.348 . S
C798 C800 1.353 . S
C798 H856 0.929 . S
C799 C796 1.356 . S
C799 C801 1.358 . S
C799 H857 0.930 . S
C800 N797 1.314 . S
C800 C798 1.353 . S
C800 H858 0.930 . S
C801 N797 1.279 . S
C801 C799 1.358 . S
C801 H859 0.930 . S
C802 C805 1.348 . S
C802 C806 1.356 . S
C802 O853 1.325 . S
C803 N804 1.279 . S
C803 C806 1.358 . S
C803 H860 0.930 . S
N804 C803 1.279 . S
N804 C807 1.314 . S
C805 C802 1.348 . S
C805 C807 1.353 . S
C805 H861 0.929 . S
C806 C802 1.356 . S
C806 C803 1.358 . S
C806 H862 0.930 . S
C807 N804 1.314 . S
C807 C805 1.353 . S
C807 H863 0.930 . S
C808 N809 1.314 . S
C808 C813 1.353 . S
C808 H814 0.930 . S
N809 Li792 1.990 . S
N809 C808 1.314 . S
N809 C811 1.279 . S
C810 C811 1.358 . S
C810 C812 1.356 . S
C810 H864 0.930 . S
C811 N809 1.279 . S
C811 C810 1.358 . S
C811 H815 0.930 . S
C812 C810 1.356 . S
C812 C813 1.348 . S
C813 C808 1.353 . S
C813 C812 1.348 . S
C813 H865 0.929 . S
H814 C808 0.930 . S
H815 C811 0.930 . S
C816 N817 1.314 . S
C816 C818 1.353 . S
C816 H822 0.930 . S
N817 Li793 1.990 . S
N817 C816 1.314 . S
N817 C820 1.279 . S
C818 C816 1.353 . S
C818 C821 1.348 . S
C818 H866 0.929 . S
C819 C820 1.358 . S
C819 C821 1.356 . S
C819 H867 0.930 . S
C820 N817 1.279 . S
C820 C819 1.358 . S
C820 H823 0.930 . S
C821 C818 1.348 . S
C821 C819 1.356 . S
H822 C816 0.930 . S
H823 C820 0.930 . S
C824 C826 1.348 . S
C824 C827 1.356 . S
C824 O854 1.325 . S
N825 C828 1.314 . S
N825 C829 1.279 . S
C826 C824 1.348 . S
C826 C828 1.353 . S
C826 H868 0.929 . S
C827 C824 1.356 . S
C827 C829 1.358 . S
C827 H869 0.930 . S
C828 N825 1.314 . S
C828 C826 1.353 . S
C828 H870 0.930 . S
C829 N825 1.279 . S
C829 C827 1.358 . S
C829 H871 0.930 . S
C830 C831 1.348 . S
C830 C832 1.356 . S
C830 O855 1.325 . S
C831 C830 1.348 . S
C831 C833 1.353 . S
C831 H872 0.929 . S
C832 C830 1.356 . S
C832 C834 1.358 . S
C832 H873 0.930 . S
C833 C831 1.353 . S
C833 N835 1.314 . S
C833 H874 0.930 . S
C834 C832 1.358 . S
C834 N835 1.279 . S
C834 H875 0.930 . S
N835 C833 1.314 . S
N835 C834 1.279 . S
C836 C838 1.353 . S
C836 N839 1.314 . S
C836 H842 0.930 . S
C837 N839 1.279 . S
C837 C840 1.358 . S
C837 H843 0.930 . S
C838 C836 1.353 . S
C838 C841 1.348 . S
C838 H876 0.929 . S
N839 Li794 1.990 . S
N839 C836 1.314 . S
N839 C837 1.279 . S
C840 C837 1.358 . S
C840 C841 1.356 . S
C840 H877 0.930 . S
C841 C838 1.348 . S
C841 C840 1.356 . S
H842 C836 0.930 . S
H843 C837 0.930 . S
C844 N845 1.314 . S
C844 C846 1.353 . S
C844 H850 0.930 . S
N845 Li795 1.990 . S
N845 C844 1.314 . S
N845 C848 1.279 . S
C846 C844 1.353 . S
C846 C849 1.348 . S
C846 H878 0.929 . S
C847 C848 1.358 . S
C847 C849 1.356 . S
C847 H879 0.930 . S
C848 N845 1.279 . S
C848 C847 1.358 . S
C848 H851 0.930 . S
C849 C846 1.348 . S
C849 C847 1.356 . S
H850 C844 0.930 . S
H851 C848 0.930 . S
O852 Li792 1.956 . S
O852 Li793 1.970 . S
O852 Li794 1.961 . S
O852 C796 1.325 . S
O853 Li792 1.970 . S
O853 Li793 1.956 . S
O853 Li795 1.961 . S
O853 C802 1.325 . S
O854 Li792 1.961 . S
O854 Li794 1.956 . S
O854 Li795 1.970 . S
O854 C824 1.325 . S
O855 Li793 1.961 . S
O855 Li794 1.970 . S
O855 Li795 1.956 . S
O855 C830 1.325 . S
H856 C798 0.929 . S
H857 C799 0.930 . S
H858 C800 0.930 . S
H859 C801 0.930 . S
H860 C803 0.930 . S
H861 C805 0.929 . S
H862 C806 0.930 . S
H863 C807 0.930 . S
H864 C810 0.930 . S
H865 C813 0.929 . S
H866 C818 0.929 . S
H867 C819 0.930 . S
H868 C826 0.929 . S
H869 C827 0.930 . S
H870 C828 0.930 . S
H871 C829 0.930 . S
H872 C831 0.929 . S
H873 C832 0.930 . S
H874 C833 0.930 . S
H875 C834 0.930 . S
H876 C838 0.929 . S
H877 C840 0.930 . S
H878 C846 0.929 . S
H879 C847 0.930 . S
Li880 N897 1.990 . S
Li880 O940 1.956 . S
Li880 O941 1.970 . S
Li880 O942 1.961 . S
Li881 N905 1.990 . S
Li881 O940 1.963 . S
Li881 O941 2.006 . S
Li881 O943 1.916 1_545 S
Li882 N927 1.990 . S
Li882 O940 1.961 1_565 S
Li882 O942 1.956 1_565 S
Li882 O943 1.970 . S
Li883 N933 1.990 . S
Li883 O941 1.961 1_565 S
Li883 O942 1.970 1_565 S
Li883 O943 1.956 . S
C884 C886 1.348 . S
C884 C887 1.356 . S
C884 O940 1.325 . S
N885 C888 1.314 . S
N885 C889 1.279 . S
C886 C884 1.348 . S
C886 C888 1.353 . S
C886 H944 0.929 . S
C887 C884 1.356 . S
C887 C889 1.358 . S
C887 H945 0.930 . S
C888 N885 1.314 . S
C888 C886 1.353 . S
C888 H946 0.930 . S
C889 N885 1.279 . S
C889 C887 1.358 . S
C889 H947 0.930 . S
C890 C893 1.348 . S
C890 C894 1.356 . S
C890 O941 1.325 . S
C891 N892 1.279 . S
C891 C894 1.358 . S
C891 H948 0.930 . S
N892 C891 1.279 . S
N892 C895 1.314 . S
C893 C890 1.348 . S
C893 C895 1.353 . S
C893 H949 0.929 . S
C894 C890 1.356 . S
C894 C891 1.358 . S
C894 H950 0.930 . S
C895 N892 1.314 . S
C895 C893 1.353 . S
C895 H951 0.930 . S
C896 N897 1.314 . S
C896 C901 1.353 . S
C896 H902 0.930 . S
N897 Li880 1.990 . S
N897 C896 1.314 . S
N897 C899 1.279 . S
C898 C899 1.358 . S
C898 C900 1.356 . S
C898 H952 0.930 . S
C899 N897 1.279 . S
C899 C898 1.358 . S
C899 H903 0.930 . S
C900 C898 1.356 . S
C900 C901 1.348 . S
C901 C896 1.353 . S
C901 C900 1.348 . S
C901 H953 0.929 . S
H902 C896 0.930 . S
H903 C899 0.930 . S
C904 N905 1.282 1_565 S
C904 C906 1.353 . S
C904 H910 0.930 . S
N905 Li881 1.990 . S
N905 C904 1.282 1_545 S
N905 C908 1.311 . S
C906 C904 1.353 . S
C906 C909 1.363 . S
C906 H954 0.929 . S
C907 C908 1.358 . S
C907 C909 1.341 1_545 S
C907 H955 0.930 . S
C908 N905 1.311 . S
C908 C907 1.358 . S
C908 H911 0.930 . S
C909 C906 1.363 . S
C909 C907 1.341 1_565 S
H910 C904 0.930 . S
H911 C908 0.930 . S
C912 C914 1.348 1_545 S
C912 C915 1.356 . S
C912 O942 1.325 . S
N913 C916 1.308 1_545 S
N913 C917 1.290 . S
C914 C912 1.348 1_565 S
C914 C916 1.353 . S
C914 H956 0.929 . S
C915 C912 1.356 . S
C915 C917 1.358 . S
C915 H957 0.930 . S
C916 N913 1.308 1_565 S
C916 C914 1.353 . S
C916 H958 0.930 . S
C917 N913 1.290 . S
C917 C915 1.358 . S
C917 H959 0.930 . S
C918 C919 1.348 . S
C918 C920 1.356 . S
C918 O943 1.325 . S
C919 C918 1.348 . S
C919 C921 1.353 . S
C919 H960 0.929 . S
C920 C918 1.356 . S
C920 C922 1.358 . S
C920 H961 0.930 . S
C921 C919 1.353 . S
C921 N923 1.314 . S
C921 H962 0.930 . S
C922 C920 1.358 . S
C922 N923 1.279 . S
C922 H963 0.930 . S
N923 C921 1.314 . S
N923 C922 1.279 . S
C924 C926 1.353 . S
C924 N927 1.314 . S
C924 H930 0.930 . S
C925 N927 1.279 . S
C925 C928 1.358 . S
C925 H931 0.930 . S
C926 C924 1.353 . S
C926 C929 1.348 . S
C926 H964 0.929 . S
N927 Li882 1.990 . S
N927 C924 1.314 . S
N927 C925 1.279 . S
C928 C925 1.358 . S
C928 C929 1.356 . S
C928 H965 0.930 . S
C929 C926 1.348 . S
C929 C928 1.356 . S
H930 C924 0.930 . S
H931 C925 0.930 . S
C932 N933 1.314 1_545 S
C932 C934 1.353 . S
C932 H938 0.930 . S
N933 Li883 1.990 . S
N933 C932 1.314 1_565 S
N933 C936 1.279 . S
C934 C932 1.353 . S
C934 C937 1.348 1_545 S
C934 H966 0.929 . S
C935 C936 1.358 . S
C935 C937 1.356 . S
C935 H967 0.930 . S
C936 N933 1.279 . S
C936 C935 1.358 . S
C936 H939 0.930 . S
C937 C934 1.348 1_565 S
C937 C935 1.356 . S
H938 C932 0.930 . S
H939 C936 0.930 . S
O940 Li880 1.956 . S
O940 Li881 1.963 . S
O940 Li882 1.961 1_545 S
O940 C884 1.325 . S
O941 Li880 1.970 . S
O941 Li881 2.006 . S
O941 Li883 1.961 1_545 S
O941 C890 1.325 . S
O942 Li880 1.961 . S
O942 Li882 1.956 1_545 S
O942 Li883 1.970 1_545 S
O942 C912 1.325 . S
O943 Li881 1.916 1_565 S
O943 Li882 1.970 . S
O943 Li883 1.956 . S
O943 C918 1.325 . S
H944 C886 0.929 . S
H945 C887 0.930 . S
H946 C888 0.930 . S
H947 C889 0.930 . S
H948 C891 0.930 . S
H949 C893 0.929 . S
H950 C894 0.930 . S
H951 C895 0.930 . S
H952 C898 0.930 . S
H953 C901 0.929 . S
H954 C906 0.929 . S
H955 C907 0.930 . S
H956 C914 0.929 . S
H957 C915 0.930 . S
H958 C916 0.930 . S
H959 C917 0.930 . S
H960 C919 0.929 . S
H961 C920 0.930 . S
H962 C921 0.930 . S
H963 C922 0.930 . S
H964 C926 0.929 . S
H965 C928 0.930 . S
H966 C934 0.929 . S
H967 C935 0.930 . S
Li968 N985 1.990 . S
Li968 O1028 1.956 . S
Li968 O1029 1.970 . S
Li968 O1030 1.961 1_554 S
Li969 N993 1.990 . S
Li969 O1028 1.970 . S
Li969 O1029 1.956 . S
Li969 O1031 1.961 . S
Li970 N1015 1.990 . S
Li970 O1028 1.961 . S
Li970 O1030 1.956 1_554 S
Li970 O1031 1.970 . S
Li971 N1021 1.990 . S
Li971 O1029 1.961 1_556 S
Li971 O1030 1.970 . S
Li971 O1031 1.956 1_556 S
C972 C974 1.348 . S
C972 C975 1.356 . S
C972 O1028 1.325 . S
N973 C976 1.314 . S
N973 C977 1.279 . S
C974 C972 1.348 . S
C974 C976 1.353 . S
C974 H1032 0.929 . S
C975 C972 1.356 . S
C975 C977 1.358 . S
C975 H1033 0.930 . S
C976 N973 1.314 . S
C976 C974 1.353 . S
C976 H1034 0.930 . S
C977 N973 1.279 . S
C977 C975 1.358 . S
C977 H1035 0.930 . S
C978 C981 1.348 . S
C978 C982 1.356 1_554 S
C978 O1029 1.325 . S
C979 N980 1.279 1_556 S
C979 C982 1.358 . S
C979 H1036 0.930 . S
N980 C979 1.279 1_554 S
N980 C983 1.314 . S
C981 C978 1.348 . S
C981 C983 1.353 . S
C981 H1037 0.929 . S
C982 C978 1.356 1_556 S
C982 C979 1.358 . S
C982 H1038 0.930 . S
C983 N980 1.314 . S
C983 C981 1.353 . S
C983 H1039 0.930 . S
C984 N985 1.314 1_556 S
C984 C989 1.353 . S
C984 H990 0.930 . S
N985 Li968 1.990 . S
N985 C984 1.314 1_554 S
N985 C987 1.279 . S
C986 C987 1.358 . S
C986 C988 1.356 . S
C986 H1040 0.930 . S
C987 N985 1.279 . S
C987 C986 1.358 . S
C987 H991 0.930 . S
C988 C986 1.356 . S
C988 C989 1.348 1_554 S
C989 C984 1.353 . S
C989 C988 1.348 1_556 S
C989 H1041 0.929 . S
H990 C984 0.930 . S
H991 C987 0.930 . S
C992 N993 1.314 . S
C992 C994 1.353 . S
C992 H998 0.930 . S
N993 Li969 1.990 . S
N993 C992 1.314 . S
N993 C996 1.279 . S
C994 C992 1.353 . S
C994 C997 1.348 . S
C994 H1042 0.929 . S
C995 C996 1.358 . S
C995 C997 1.356 . S
C995 H1043 0.930 . S
C996 N993 1.279 . S
C996 C995 1.358 . S
C996 H999 0.930 . S
C997 C994 1.348 . S
C997 C995 1.356 . S
H998 C992 0.930 . S
H999 C996 0.930 . S
C1000 C1002 1.348 . S
C1000 C1003 1.356 . S
C1000 O1030 1.325 . S
N1001 C1004 1.314 . S
N1001 C1005 1.279 . S
C1002 C1000 1.348 . S
C1002 C1004 1.353 . S
C1002 H1044 0.929 . S
C1003 C1000 1.356 . S
C1003 C1005 1.358 . S
C1003 H1045 0.930 . S
C1004 N1001 1.314 . S
C1004 C1002 1.353 . S
C1004 H1046 0.930 . S
C1005 N1001 1.279 . S
C1005 C1003 1.358 . S
C1005 H1047 0.930 . S
C1006 C1007 1.348 . S
C1006 C1008 1.356 . S
C1006 O1031 1.325 . S
C1007 C1006 1.348 . S
C1007 C1009 1.353 . S
C1007 H1048 0.929 . S
C1008 C1006 1.356 . S
C1008 C1010 1.358 . S
C1008 H1049 0.930 . S
C1009 C1007 1.353 . S
C1009 N1011 1.314 . S
C1009 H1050 0.930 . S
C1010 C1008 1.358 . S
C1010 N1011 1.279 . S
C1010 H1051 0.930 . S
N1011 C1009 1.314 . S
N1011 C1010 1.279 . S
C1012 C1014 1.353 . S
C1012 N1015 1.314 . S
C1012 H1018 0.930 . S
C1013 N1015 1.279 . S
C1013 C1016 1.358 . S
C1013 H1019 0.930 1_554 S
C1014 C1012 1.353 . S
C1014 C1017 1.348 . S
C1014 H1052 0.929 . S
N1015 Li970 1.990 . S
N1015 C1012 1.314 . S
N1015 C1013 1.279 . S
C1016 C1013 1.358 . S
C1016 C1017 1.356 . S
C1016 H1053 0.930 1_554 S
C1017 C1014 1.348 . S
C1017 C1016 1.356 . S
H1018 C1012 0.930 . S
H1019 C1013 0.930 1_556 S
C1020 N1021 1.314 . S
C1020 C1022 1.353 . S
C1020 H1026 0.930 . S
N1021 Li971 1.990 . S
N1021 C1020 1.314 . S
N1021 C1024 1.279 . S
C1022 C1020 1.353 . S
C1022 C1025 1.348 . S
C1022 H1054 0.929 . S
C1023 C1024 1.358 . S
C1023 C1025 1.356 . S
C1023 H1055 0.930 . S
C1024 N1021 1.279 . S
C1024 C1023 1.358 . S
C1024 H1027 0.930 . S
C1025 C1022 1.348 . S
C1025 C1023 1.356 . S
H1026 C1020 0.930 . S
H1027 C1024 0.930 . S
O1028 Li968 1.956 . S
O1028 Li969 1.970 . S
O1028 Li970 1.961 . S
O1028 C972 1.325 . S
O1029 Li968 1.970 . S
O1029 Li969 1.956 . S
O1029 Li971 1.961 1_554 S
O1029 C978 1.325 . S
O1030 Li968 1.961 1_556 S
O1030 Li970 1.956 1_556 S
O1030 Li971 1.970 . S
O1030 C1000 1.325 . S
O1031 Li969 1.961 . S
O1031 Li970 1.970 . S
O1031 Li971 1.956 1_554 S
O1031 C1006 1.325 . S
H1032 C974 0.929 . S
H1033 C975 0.930 . S
H1034 C976 0.930 . S
H1035 C977 0.930 . S
H1036 C979 0.930 . S
H1037 C981 0.929 . S
H1038 C982 0.930 . S
H1039 C983 0.930 . S
H1040 C986 0.930 . S
H1041 C989 0.929 . S
H1042 C994 0.929 . S
H1043 C995 0.930 . S
H1044 C1002 0.929 . S
H1045 C1003 0.930 . S
H1046 C1004 0.930 . S
H1047 C1005 0.930 . S
H1048 C1007 0.929 . S
H1049 C1008 0.930 . S
H1050 C1009 0.930 . S
H1051 C1010 0.930 . S
H1052 C1014 0.929 . S
H1053 C1016 0.930 1_556 S
H1054 C1022 0.929 . S
H1055 C1023 0.930 . S
Li1056 N1073 1.990 . S
Li1056 O1116 1.956 . S
Li1056 O1117 1.970 . S
Li1056 O1118 1.961 1_554 S
Li1057 N1081 1.990 . S
Li1057 O1116 1.970 . S
Li1057 O1117 1.956 . S
Li1057 O1119 1.961 . S
Li1058 N1103 1.990 . S
Li1058 O1116 1.961 . S
Li1058 O1118 1.956 1_554 S
Li1058 O1119 1.970 . S
Li1059 N1109 1.990 . S
Li1059 O1117 1.961 1_556 S
Li1059 O1118 1.970 . S
Li1059 O1119 1.956 1_556 S
C1060 C1062 1.348 . S
C1060 C1063 1.356 . S
C1060 O1116 1.325 . S
N1061 C1064 1.314 . S
N1061 C1065 1.279 . S
C1062 C1060 1.348 . S
C1062 C1064 1.353 . S
C1062 H1120 0.929 . S
C1063 C1060 1.356 . S
C1063 C1065 1.358 . S
C1063 H1121 0.930 . S
C1064 N1061 1.314 . S
C1064 C1062 1.353 . S
C1064 H1122 0.930 . S
C1065 N1061 1.279 . S
C1065 C1063 1.358 . S
C1065 H1123 0.930 . S
C1066 C1069 1.348 . S
C1066 C1070 1.356 . S
C1066 O1117 1.325 . S
C1067 N1068 1.279 . S
C1067 C1070 1.358 . S
C1067 H1124 0.930 1_554 S
N1068 C1067 1.279 . S
N1068 C1071 1.314 . S
C1069 C1066 1.348 . S
C1069 C1071 1.353 . S
C1069 H1125 0.929 . S
C1070 C1066 1.356 . S
C1070 C1067 1.358 . S
C1070 H1126 0.937 . S
C1071 N1068 1.314 . S
C1071 C1069 1.353 . S
C1071 H1127 0.930 . S
C1072 N1073 1.337 . S
C1072 C1077 1.350 1_554 S
C1072 H1078 0.907 1_554 S
N1073 Li1056 1.990 . S
N1073 C1072 1.337 . S
N1073 C1075 1.279 . S
C1074 C1075 1.358 . S
C1074 C1076 1.356 . S
C1074 H1128 0.930 . S
C1075 N1073 1.279 . S
C1075 C1074 1.358 . S
C1075 H1079 0.930 . S
C1076 C1074 1.356 . S
C1076 C1077 1.320 1_554 S
C1077 C1072 1.350 1_556 S
C1077 C1076 1.320 1_556 S
C1077 H1129 0.960 . S
H1078 C1072 0.907 1_556 S
H1079 C1075 0.930 . S
C1080 N1081 1.314 . S
C1080 C1082 1.353 . S
C1080 H1086 0.930 . S
N1081 Li1057 1.990 . S
N1081 C1080 1.314 . S
N1081 C1084 1.279 . S
C1082 C1080 1.353 . S
C1082 C1085 1.348 . S
C1082 H1130 0.929 . S
C1083 C1084 1.358 . S
C1083 C1085 1.356 . S
C1083 H1131 0.930 . S
C1084 N1081 1.279 . S
C1084 C1083 1.358 . S
C1084 H1087 0.930 . S
C1085 C1082 1.348 . S
C1085 C1083 1.356 . S
H1086 C1080 0.930 . S
H1087 C1084 0.930 . S
C1088 C1090 1.348 . S
C1088 C1091 1.356 . S
C1088 O1118 1.325 . S
N1089 C1092 1.314 . S
N1089 C1093 1.279 . S
C1090 C1088 1.348 . S
C1090 C1092 1.353 . S
C1090 H1132 0.929 . S
C1091 C1088 1.356 . S
C1091 C1093 1.358 . S
C1091 H1133 0.930 . S
C1092 N1089 1.314 . S
C1092 C1090 1.353 . S
C1092 H1134 0.930 . S
C1093 N1089 1.279 . S
C1093 C1091 1.358 . S
C1093 H1135 0.930 . S
C1094 C1095 1.348 . S
C1094 C1096 1.356 . S
C1094 O1119 1.325 . S
C1095 C1094 1.348 . S
C1095 C1097 1.353 . S
C1095 H1136 0.929 . S
C1096 C1094 1.356 . S
C1096 C1098 1.358 . S
C1096 H1137 0.930 . S
C1097 C1095 1.353 . S
C1097 N1099 1.314 . S
C1097 H1138 0.930 . S
C1098 C1096 1.358 . S
C1098 N1099 1.279 . S
C1098 H1139 0.930 . S
N1099 C1097 1.314 . S
N1099 C1098 1.279 . S
C1100 C1102 1.353 . S
C1100 N1103 1.314 . S
C1100 H1106 0.930 . S
C1101 N1103 1.279 . S
C1101 C1104 1.358 . S
C1101 H1107 0.930 1_554 S
C1102 C1100 1.353 . S
C1102 C1105 1.348 . S
C1102 H1140 0.929 . S
N1103 Li1058 1.990 . S
N1103 C1100 1.314 . S
N1103 C1101 1.279 . S
C1104 C1101 1.358 . S
C1104 C1105 1.356 . S
C1104 H1141 0.930 1_554 S
C1105 C1102 1.348 . S
C1105 C1104 1.356 . S
H1106 C1100 0.930 . S
H1107 C1101 0.930 1_556 S
C1108 N1109 1.314 . S
C1108 C1110 1.353 . S
C1108 H1114 0.930 . S
N1109 Li1059 1.990 . S
N1109 C1108 1.314 . S
N1109 C1112 1.279 . S
C1110 C1108 1.353 . S
C1110 C1113 1.348 . S
C1110 H1142 0.929 . S
C1111 C1112 1.358 . S
C1111 C1113 1.356 . S
C1111 H1143 0.930 . S
C1112 N1109 1.279 . S
C1112 C1111 1.358 . S
C1112 H1115 0.930 . S
C1113 C1110 1.348 . S
C1113 C1111 1.356 . S
H1114 C1108 0.930 . S
H1115 C1112 0.930 . S
O1116 Li1056 1.956 . S
O1116 Li1057 1.970 . S
O1116 Li1058 1.961 . S
O1116 C1060 1.325 . S
O1117 Li1056 1.970 . S
O1117 Li1057 1.956 . S
O1117 Li1059 1.961 1_554 S
O1117 C1066 1.325 . S
O1118 Li1056 1.961 1_556 S
O1118 Li1058 1.956 1_556 S
O1118 Li1059 1.970 . S
O1118 C1088 1.325 . S
O1119 Li1057 1.961 . S
O1119 Li1058 1.970 . S
O1119 Li1059 1.956 1_554 S
O1119 C1094 1.325 . S
H1120 C1062 0.929 . S
H1121 C1063 0.930 . S
H1122 C1064 0.930 . S
H1123 C1065 0.930 . S
H1124 C1067 0.930 1_556 S
H1125 C1069 0.929 . S
H1126 C1070 0.937 . S
H1127 C1071 0.930 . S
H1128 C1074 0.930 . S
H1129 C1077 0.960 . S
H1130 C1082 0.929 . S
H1131 C1083 0.930 . S
H1132 C1090 0.929 . S
H1133 C1091 0.930 . S
H1134 C1092 0.930 . S
H1135 C1093 0.930 . S
H1136 C1095 0.929 . S
H1137 C1096 0.930 . S
H1138 C1097 0.930 . S
H1139 C1098 0.930 . S
H1140 C1102 0.929 . S
H1141 C1104 0.930 1_556 S
H1142 C1110 0.929 . S
H1143 C1111 0.930 . S
Li1144 N1161 1.990 . S
Li1144 O1204 1.956 . S
Li1144 O1205 1.970 . S
Li1144 O1206 1.961 . S
Li1145 N1169 1.990 . S
Li1145 O1204 1.970 . S
Li1145 O1205 1.956 . S
Li1145 O1207 1.961 1_554 S
Li1146 N1191 1.990 . S
Li1146 O1204 1.961 1_556 S
Li1146 O1206 1.956 1_556 S
Li1146 O1207 1.970 . S
Li1147 N1197 1.990 . S
Li1147 O1205 1.961 . S
Li1147 O1206 1.970 . S
Li1147 O1207 1.956 1_554 S
C1148 C1150 1.348 . S
C1148 C1151 1.356 . S
C1148 O1204 1.325 . S
N1149 C1152 1.314 . S
N1149 C1153 1.279 . S
C1150 C1148 1.348 . S
C1150 C1152 1.353 . S
C1150 H1208 0.929 . S
C1151 C1148 1.356 . S
C1151 C1153 1.358 . S
C1151 H1209 0.930 . S
C1152 N1149 1.314 . S
C1152 C1150 1.353 . S
C1152 H1210 0.930 . S
C1153 N1149 1.279 . S
C1153 C1151 1.358 . S
C1153 H1211 0.930 . S
C1154 C1157 1.348 . S
C1154 C1158 1.356 . S
C1154 O1205 1.325 . S
C1155 N1156 1.279 . S
C1155 C1158 1.358 . S
C1155 H1212 0.930 . S
N1156 C1155 1.279 . S
N1156 C1159 1.314 . S
C1157 C1154 1.348 . S
C1157 C1159 1.353 . S
C1157 H1213 0.929 . S
C1158 C1154 1.356 . S
C1158 C1155 1.358 . S
C1158 H1214 0.930 . S
C1159 N1156 1.314 . S
C1159 C1157 1.353 . S
C1159 H1215 0.930 . S
C1160 N1161 1.314 . S
C1160 C1165 1.353 . S
C1160 H1166 0.930 . S
N1161 Li1144 1.990 . S
N1161 C1160 1.314 . S
N1161 C1163 1.279 . S
C1162 C1163 1.358 . S
C1162 C1164 1.356 . S
C1162 H1216 0.930 . S
C1163 N1161 1.279 . S
C1163 C1162 1.358 . S
C1163 H1167 0.930 . S
C1164 C1162 1.356 . S
C1164 C1165 1.348 . S
C1165 C1160 1.353 . S
C1165 C1164 1.348 . S
C1165 H1217 0.929 . S
H1166 C1160 0.930 . S
H1167 C1163 0.930 . S
C1168 N1169 1.314 1_556 S
C1168 C1170 1.353 . S
C1168 H1174 0.930 . S
N1169 Li1145 1.990 . S
N1169 C1168 1.314 1_554 S
N1169 C1172 1.279 . S
C1170 C1168 1.353 . S
C1170 C1173 1.348 1_556 S
C1170 H1218 0.929 . S
C1171 C1172 1.358 . S
C1171 C1173 1.356 . S
C1171 H1219 0.930 . S
C1172 N1169 1.279 . S
C1172 C1171 1.358 . S
C1172 H1175 0.930 . S
C1173 C1170 1.348 1_554 S
C1173 C1171 1.356 . S
H1174 C1168 0.930 . S
H1175 C1172 0.930 . S
C1176 C1178 1.348 . S
C1176 C1179 1.356 . S
C1176 O1206 1.325 . S
N1177 C1180 1.314 . S
N1177 C1181 1.279 . S
C1178 C1176 1.348 . S
C1178 C1180 1.353 . S
C1178 H1220 0.929 1_554 S
C1179 C1176 1.356 . S
C1179 C1181 1.358 . S
C1179 H1221 0.930 . S
C1180 N1177 1.314 . S
C1180 C1178 1.353 . S
C1180 H1222 0.929 1_554 S
C1181 N1177 1.279 . S
C1181 C1179 1.358 . S
C1181 H1223 0.930 . S
C1182 C1183 1.348 . S
C1182 C1184 1.356 . S
C1182 O1207 1.325 . S
C1183 C1182 1.348 . S
C1183 C1185 1.353 . S
C1183 H1224 0.929 . S
C1184 C1182 1.356 . S
C1184 C1186 1.358 . S
C1184 H1225 0.930 . S
C1185 C1183 1.353 . S
C1185 N1187 1.314 . S
C1185 H1226 0.930 . S
C1186 C1184 1.358 . S
C1186 N1187 1.279 . S
C1186 H1227 0.930 . S
N1187 C1185 1.314 . S
N1187 C1186 1.279 . S
C1188 C1190 1.353 . S
C1188 N1191 1.314 . S
C1188 H1194 0.930 . S
C1189 N1191 1.279 . S
C1189 C1192 1.358 . S
C1189 H1195 0.930 . S
C1190 C1188 1.353 . S
C1190 C1193 1.348 . S
C1190 H1228 0.929 . S
N1191 Li1146 1.990 . S
N1191 C1188 1.314 . S
N1191 C1189 1.279 . S
C1192 C1189 1.358 . S
C1192 C1193 1.356 . S
C1192 H1229 0.930 . S
C1193 C1190 1.348 . S
C1193 C1192 1.356 . S
H1194 C1188 0.930 . S
H1195 C1189 0.930 . S
C1196 N1197 1.314 . S
C1196 C1198 1.353 . S
C1196 H1202 0.930 . S
N1197 Li1147 1.990 . S
N1197 C1196 1.314 . S
N1197 C1200 1.279 1_554 S
C1198 C1196 1.353 . S
C1198 C1201 1.333 1_554 S
C1198 H1230 0.929 . S
C1199 C1200 1.358 . S
C1199 C1201 1.372 . S
C1199 H1231 0.930 . S
C1200 N1197 1.279 1_556 S
C1200 C1199 1.358 . S
C1200 H1203 0.930 . S
C1201 C1198 1.333 1_556 S
C1201 C1199 1.372 . S
H1202 C1196 0.930 . S
H1203 C1200 0.930 . S
O1204 Li1144 1.956 . S
O1204 Li1145 1.970 . S
O1204 Li1146 1.961 1_554 S
O1204 C1148 1.325 . S
O1205 Li1144 1.970 . S
O1205 Li1145 1.956 . S
O1205 Li1147 1.961 . S
O1205 C1154 1.325 . S
O1206 Li1144 1.961 . S
O1206 Li1146 1.956 1_554 S
O1206 Li1147 1.970 . S
O1206 C1176 1.325 . S
O1207 Li1145 1.961 1_556 S
O1207 Li1146 1.970 . S
O1207 Li1147 1.956 1_556 S
O1207 C1182 1.325 . S
H1208 C1150 0.929 . S
H1209 C1151 0.930 . S
H1210 C1152 0.930 . S
H1211 C1153 0.930 . S
H1212 C1155 0.930 . S
H1213 C1157 0.929 . S
H1214 C1158 0.930 . S
H1215 C1159 0.930 . S
H1216 C1162 0.930 . S
H1217 C1165 0.929 . S
H1218 C1170 0.929 . S
H1219 C1171 0.930 . S
H1220 C1178 0.929 1_556 S
H1221 C1179 0.930 . S
H1222 C1180 0.929 1_556 S
H1223 C1181 0.930 . S
H1224 C1183 0.929 . S
H1225 C1184 0.930 . S
H1226 C1185 0.930 . S
H1227 C1186 0.930 . S
H1228 C1190 0.929 . S
H1229 C1192 0.930 . S
H1230 C1198 0.929 . S
H1231 C1199 0.930 . S
Li1232 N1249 1.990 . S
Li1232 O1292 1.956 . S
Li1232 O1293 1.970 . S
Li1232 O1294 1.961 . S
Li1233 N1257 1.990 . S
Li1233 O1292 1.970 . S
Li1233 O1293 1.956 . S
Li1233 O1295 1.961 . S
Li1234 N1279 1.990 . S
Li1234 O1292 1.961 . S
Li1234 O1294 1.956 . S
Li1234 O1295 1.970 . S
Li1235 N1285 1.990 . S
Li1235 O1293 1.961 . S
Li1235 O1294 1.970 . S
Li1235 O1295 1.956 . S
C1236 C1238 1.348 . S
C1236 C1239 1.356 . S
C1236 O1292 1.325 . S
N1237 C1240 1.314 . S
N1237 C1241 1.279 . S
C1238 C1236 1.348 . S
C1238 C1240 1.353 . S
C1238 H1296 0.929 . S
C1239 C1236 1.356 . S
C1239 C1241 1.358 . S
C1239 H1297 0.930 . S
C1240 N1237 1.314 . S
C1240 C1238 1.353 . S
C1240 H1298 0.930 . S
C1241 N1237 1.279 . S
C1241 C1239 1.358 . S
C1241 H1299 0.930 . S
C1242 C1245 1.348 . S
C1242 C1246 1.356 . S
C1242 O1293 1.325 . S
C1243 N1244 1.279 . S
C1243 C1246 1.358 . S
C1243 H1300 0.930 . S
N1244 C1243 1.279 . S
N1244 C1247 1.314 . S
C1245 C1242 1.348 . S
C1245 C1247 1.353 . S
C1245 H1301 0.929 . S
C1246 C1242 1.356 . S
C1246 C1243 1.358 . S
C1246 H1302 0.930 . S
C1247 N1244 1.314 . S
C1247 C1245 1.353 . S
C1247 H1303 0.930 . S
C1248 N1249 1.314 . S
C1248 C1253 1.353 . S
C1248 H1254 0.930 . S
N1249 Li1232 1.990 . S
N1249 C1248 1.314 . S
N1249 C1251 1.279 . S
C1250 C1251 1.358 . S
C1250 C1252 1.356 . S
C1250 H1304 0.930 . S
C1251 N1249 1.279 . S
C1251 C1250 1.358 . S
C1251 H1255 0.930 . S
C1252 C1250 1.356 . S
C1252 C1253 1.348 . S
C1253 C1248 1.353 . S
C1253 C1252 1.348 . S
C1253 H1305 0.929 . S
H1254 C1248 0.930 . S
H1255 C1251 0.930 . S
C1256 N1257 1.314 . S
C1256 C1258 1.353 . S
C1256 H1262 0.930 . S
N1257 Li1233 1.990 . S
N1257 C1256 1.314 . S
N1257 C1260 1.279 . S
C1258 C1256 1.353 . S
C1258 C1261 1.348 . S
C1258 H1306 0.929 . S
C1259 C1260 1.358 . S
C1259 C1261 1.356 . S
C1259 H1307 0.930 . S
C1260 N1257 1.279 . S
C1260 C1259 1.358 . S
C1260 H1263 0.930 . S
C1261 C1258 1.348 . S
C1261 C1259 1.356 . S
H1262 C1256 0.930 . S
H1263 C1260 0.930 . S
C1264 C1266 1.348 . S
C1264 C1267 1.356 . S
C1264 O1294 1.325 . S
N1265 C1268 1.314 . S
N1265 C1269 1.279 . S
C1266 C1264 1.348 . S
C1266 C1268 1.353 . S
C1266 H1308 0.929 . S
C1267 C1264 1.356 . S
C1267 C1269 1.358 . S
C1267 H1309 0.930 . S
C1268 N1265 1.314 . S
C1268 C1266 1.353 . S
C1268 H1310 0.930 . S
C1269 N1265 1.279 . S
C1269 C1267 1.358 . S
C1269 H1311 0.930 . S
C1270 C1271 1.348 . S
C1270 C1272 1.356 . S
C1270 O1295 1.325 . S
C1271 C1270 1.348 . S
C1271 C1273 1.353 . S
C1271 H1312 0.929 . S
C1272 C1270 1.356 . S
C1272 C1274 1.358 . S
C1272 H1313 0.930 . S
C1273 C1271 1.353 . S
C1273 N1275 1.314 . S
C1273 H1314 0.930 . S
C1274 C1272 1.358 . S
C1274 N1275 1.279 . S
C1274 H1315 0.930 . S
N1275 C1273 1.314 . S
N1275 C1274 1.279 . S
C1276 C1278 1.353 . S
C1276 N1279 1.314 . S
C1276 H1282 0.930 . S
C1277 N1279 1.279 . S
C1277 C1280 1.358 . S
C1277 H1283 0.930 . S
C1278 C1276 1.353 . S
C1278 C1281 1.348 . S
C1278 H1316 0.929 . S
N1279 Li1234 1.990 . S
N1279 C1276 1.314 . S
N1279 C1277 1.279 . S
C1280 C1277 1.358 . S
C1280 C1281 1.356 . S
C1280 H1317 0.930 . S
C1281 C1278 1.348 . S
C1281 C1280 1.356 . S
H1282 C1276 0.930 . S
H1283 C1277 0.930 . S
C1284 N1285 1.314 . S
C1284 C1286 1.353 . S
C1284 H1290 0.930 . S
N1285 Li1235 1.990 . S
N1285 C1284 1.314 . S
N1285 C1288 1.279 . S
C1286 C1284 1.353 . S
C1286 C1289 1.348 . S
C1286 H1318 0.929 . S
C1287 C1288 1.358 . S
C1287 C1289 1.356 . S
C1287 H1319 0.930 . S
C1288 N1285 1.279 . S
C1288 C1287 1.358 . S
C1288 H1291 0.930 . S
C1289 C1286 1.348 . S
C1289 C1287 1.356 . S
H1290 C1284 0.930 . S
H1291 C1288 0.930 . S
O1292 Li1232 1.956 . S
O1292 Li1233 1.970 . S
O1292 Li1234 1.961 . S
O1292 C1236 1.325 . S
O1293 Li1232 1.970 . S
O1293 Li1233 1.956 . S
O1293 Li1235 1.961 . S
O1293 C1242 1.325 . S
O1294 Li1232 1.961 . S
O1294 Li1234 1.956 . S
O1294 Li1235 1.970 . S
O1294 C1264 1.325 . S
O1295 Li1233 1.961 . S
O1295 Li1234 1.970 . S
O1295 Li1235 1.956 . S
O1295 C1270 1.325 . S
H1296 C1238 0.929 . S
H1297 C1239 0.930 . S
H1298 C1240 0.930 . S
H1299 C1241 0.930 . S
H1300 C1243 0.930 . S
H1301 C1245 0.929 . S
H1302 C1246 0.930 . S
H1303 C1247 0.930 . S
H1304 C1250 0.930 . S
H1305 C1253 0.929 . S
H1306 C1258 0.929 . S
H1307 C1259 0.930 . S
H1308 C1266 0.929 . S
H1309 C1267 0.930 . S
H1310 C1268 0.930 . S
H1311 C1269 0.930 . S
H1312 C1271 0.929 . S
H1313 C1272 0.930 . S
H1314 C1273 0.930 . S
H1315 C1274 0.930 . S
H1316 C1278 0.929 . S
H1317 C1280 0.930 . S
H1318 C1286 0.929 . S
H1319 C1287 0.930 . S
Li1320 N1337 1.990 . S
Li1320 O1380 1.956 . S
Li1320 O1381 1.970 . S
Li1320 O1382 1.961 . S
Li1321 N1345 1.990 . S
Li1321 O1380 1.970 . S
Li1321 O1381 1.956 . S
Li1321 O1383 1.961 . S
Li1322 N1367 1.990 . S
Li1322 O1380 1.961 . S
Li1322 O1382 1.956 . S
Li1322 O1383 1.970 . S
Li1323 N1373 1.990 . S
Li1323 O1381 1.961 . S
Li1323 O1382 1.970 . S
Li1323 O1383 1.956 . S
C1324 C1326 1.348 . S
C1324 C1327 1.356 . S
C1324 O1380 1.325 . S
N1325 C1328 1.314 . S
N1325 C1329 1.279 . S
C1326 C1324 1.348 . S
C1326 C1328 1.353 . S
C1326 H1384 0.929 . S
C1327 C1324 1.356 . S
C1327 C1329 1.358 . S
C1327 H1385 0.930 . S
C1328 N1325 1.314 . S
C1328 C1326 1.353 . S
C1328 H1386 0.930 . S
C1329 N1325 1.279 . S
C1329 C1327 1.358 . S
C1329 H1387 0.930 . S
C1330 C1333 1.348 . S
C1330 C1334 1.356 . S
C1330 O1381 1.325 . S
C1331 N1332 1.279 . S
C1331 C1334 1.358 . S
C1331 H1388 0.930 . S
N1332 C1331 1.279 . S
N1332 C1335 1.314 . S
C1333 C1330 1.348 . S
C1333 C1335 1.353 . S
C1333 H1389 0.929 . S
C1334 C1330 1.356 . S
C1334 C1331 1.358 . S
C1334 H1390 0.930 . S
C1335 N1332 1.314 . S
C1335 C1333 1.353 . S
C1335 H1391 0.930 . S
C1336 N1337 1.314 . S
C1336 C1341 1.353 . S
C1336 H1342 0.930 . S
N1337 Li1320 1.990 . S
N1337 C1336 1.314 . S
N1337 C1339 1.279 . S
C1338 C1339 1.358 . S
C1338 C1340 1.356 . S
C1338 H1392 0.930 . S
C1339 N1337 1.279 . S
C1339 C1338 1.358 . S
C1339 H1343 0.930 . S
C1340 C1338 1.356 . S
C1340 C1341 1.348 . S
C1341 C1336 1.353 . S
C1341 C1340 1.348 . S
C1341 H1393 0.929 . S
H1342 C1336 0.930 . S
H1343 C1339 0.930 . S
C1344 N1345 1.314 . S
C1344 C1346 1.353 . S
C1344 H1350 0.930 . S
N1345 Li1321 1.990 . S
N1345 C1344 1.314 . S
N1345 C1348 1.279 . S
C1346 C1344 1.353 . S
C1346 C1349 1.348 . S
C1346 H1394 0.929 . S
C1347 C1348 1.358 . S
C1347 C1349 1.356 . S
C1347 H1395 0.930 . S
C1348 N1345 1.279 . S
C1348 C1347 1.358 . S
C1348 H1351 0.930 . S
C1349 C1346 1.348 . S
C1349 C1347 1.356 . S
H1350 C1344 0.930 . S
H1351 C1348 0.930 . S
C1352 C1354 1.348 . S
C1352 C1355 1.356 . S
C1352 O1382 1.325 . S
N1353 C1356 1.314 . S
N1353 C1357 1.279 . S
C1354 C1352 1.348 . S
C1354 C1356 1.353 . S
C1354 H1396 0.929 . S
C1355 C1352 1.356 . S
C1355 C1357 1.358 . S
C1355 H1397 0.930 . S
C1356 N1353 1.314 . S
C1356 C1354 1.353 . S
C1356 H1398 0.930 . S
C1357 N1353 1.279 . S
C1357 C1355 1.358 . S
C1357 H1399 0.930 . S
C1358 C1359 1.348 . S
C1358 C1360 1.356 . S
C1358 O1383 1.325 . S
C1359 C1358 1.348 . S
C1359 C1361 1.353 . S
C1359 H1400 0.929 . S
C1360 C1358 1.356 . S
C1360 C1362 1.358 . S
C1360 H1401 0.930 . S
C1361 C1359 1.353 . S
C1361 N1363 1.314 . S
C1361 H1402 0.930 . S
C1362 C1360 1.358 . S
C1362 N1363 1.279 . S
C1362 H1403 0.930 . S
N1363 C1361 1.314 . S
N1363 C1362 1.279 . S
C1364 C1366 1.353 . S
C1364 N1367 1.314 . S
C1364 H1370 0.930 . S
C1365 N1367 1.279 . S
C1365 C1368 1.358 . S
C1365 H1371 0.930 . S
C1366 C1364 1.353 . S
C1366 C1369 1.348 . S
C1366 H1404 0.929 . S
N1367 Li1322 1.990 . S
N1367 C1364 1.314 . S
N1367 C1365 1.279 . S
C1368 C1365 1.358 . S
C1368 C1369 1.356 . S
C1368 H1405 0.930 . S
C1369 C1366 1.348 . S
C1369 C1368 1.356 . S
H1370 C1364 0.930 . S
H1371 C1365 0.930 . S
C1372 N1373 1.314 . S
C1372 C1374 1.353 . S
C1372 H1378 0.930 . S
N1373 Li1323 1.990 . S
N1373 C1372 1.314 . S
N1373 C1376 1.279 . S
C1374 C1372 1.353 . S
C1374 C1377 1.348 . S
C1374 H1406 0.929 . S
C1375 C1376 1.358 . S
C1375 C1377 1.356 . S
C1375 H1407 0.930 . S
C1376 N1373 1.279 . S
C1376 C1375 1.358 . S
C1376 H1379 0.930 . S
C1377 C1374 1.348 . S
C1377 C1375 1.356 . S
H1378 C1372 0.930 . S
H1379 C1376 0.930 . S
O1380 Li1320 1.956 . S
O1380 Li1321 1.970 . S
O1380 Li1322 1.961 . S
O1380 C1324 1.325 . S
O1381 Li1320 1.970 . S
O1381 Li1321 1.956 . S
O1381 Li1323 1.961 . S
O1381 C1330 1.325 . S
O1382 Li1320 1.961 . S
O1382 Li1322 1.956 . S
O1382 Li1323 1.970 . S
O1382 C1352 1.325 . S
O1383 Li1321 1.961 . S
O1383 Li1322 1.970 . S
O1383 Li1323 1.956 . S
O1383 C1358 1.325 . S
H1384 C1326 0.929 . S
H1385 C1327 0.930 . S
H1386 C1328 0.930 . S
H1387 C1329 0.930 . S
H1388 C1331 0.930 . S
H1389 C1333 0.929 . S
H1390 C1334 0.930 . S
H1391 C1335 0.930 . S
H1392 C1338 0.930 . S
H1393 C1341 0.929 . S
H1394 C1346 0.929 . S
H1395 C1347 0.930 . S
H1396 C1354 0.929 . S
H1397 C1355 0.930 . S
H1398 C1356 0.930 . S
H1399 C1357 0.930 . S
H1400 C1359 0.929 . S
H1401 C1360 0.930 . S
H1402 C1361 0.930 . S
H1403 C1362 0.930 . S
H1404 C1366 0.929 . S
H1405 C1368 0.930 . S
H1406 C1374 0.929 . S
H1407 C1375 0.930 . S
Li1408 N1425 1.990 . S
Li1408 O1468 1.956 . S
Li1408 O1469 1.970 . S
Li1408 O1470 1.961 . S
Li1409 N1433 1.990 . S
Li1409 O1468 1.970 . S
Li1409 O1469 1.956 . S
Li1409 O1471 1.961 . S
Li1410 N1455 1.990 . S
Li1410 O1468 1.961 . S
Li1410 O1470 1.956 . S
Li1410 O1471 1.970 . S
Li1411 N1461 1.990 . S
Li1411 O1469 1.961 . S
Li1411 O1470 1.970 . S
Li1411 O1471 1.956 . S
C1412 C1414 1.348 . S
C1412 C1415 1.356 . S
C1412 O1468 1.325 . S
N1413 C1416 1.314 . S
N1413 C1417 1.279 1_565 S
C1414 C1412 1.348 . S
C1414 C1416 1.353 1_545 S
C1414 H1472 0.929 . S
C1415 C1412 1.356 . S
C1415 C1417 1.358 . S
C1415 H1473 0.930 . S
C1416 N1413 1.314 . S
C1416 C1414 1.353 1_565 S
C1416 H1474 0.930 . S
C1417 N1413 1.279 1_545 S
C1417 C1415 1.358 . S
C1417 H1475 0.930 . S
C1418 C1421 1.348 . S
C1418 C1422 1.356 . S
C1418 O1469 1.325 . S
C1419 N1420 1.279 . S
C1419 C1422 1.358 . S
C1419 H1476 0.930 . S
N1420 C1419 1.279 . S
N1420 C1423 1.314 . S
C1421 C1418 1.348 . S
C1421 C1423 1.353 . S
C1421 H1477 0.929 . S
C1422 C1418 1.356 . S
C1422 C1419 1.358 . S
C1422 H1478 0.930 . S
C1423 N1420 1.314 . S
C1423 C1421 1.353 . S
C1423 H1479 0.930 . S
C1424 N1425 1.314 . S
C1424 C1429 1.353 . S
C1424 H1430 0.930 . S
N1425 Li1408 1.990 . S
N1425 C1424 1.314 . S
N1425 C1427 1.279 . S
C1426 C1427 1.358 . S
C1426 C1428 1.356 . S
C1426 H1480 0.930 . S
C1427 N1425 1.279 . S
C1427 C1426 1.358 . S
C1427 H1431 0.930 . S
C1428 C1426 1.356 . S
C1428 C1429 1.348 . S
C1429 C1424 1.353 . S
C1429 C1428 1.348 . S
C1429 H1481 0.929 . S
H1430 C1424 0.930 . S
H1431 C1427 0.930 . S
C1432 N1433 1.299 1_565 S
C1432 C1434 1.378 . S
C1432 H1438 0.920 1_565 S
N1433 Li1409 1.990 . S
N1433 C1432 1.299 1_545 S
N1433 C1436 1.279 . S
C1434 C1432 1.378 . S
C1434 C1437 1.348 . S
C1434 H1482 0.929 . S
C1435 C1436 1.358 1_565 S
C1435 C1437 1.356 . S
C1435 H1483 0.930 . S
C1436 N1433 1.279 . S
C1436 C1435 1.358 1_545 S
C1436 H1439 0.930 . S
C1437 C1434 1.348 . S
C1437 C1435 1.356 . S
H1438 C1432 0.920 1_545 S
H1439 C1436 0.930 . S
C1440 C1442 1.348 . S
C1440 C1443 1.356 . S
C1440 O1470 1.325 . S
N1441 C1444 1.314 . S
N1441 C1445 1.279 . S
C1442 C1440 1.348 . S
C1442 C1444 1.353 . S
C1442 H1484 0.929 . S
C1443 C1440 1.356 . S
C1443 C1445 1.358 . S
C1443 H1485 0.930 . S
C1444 N1441 1.314 . S
C1444 C1442 1.353 . S
C1444 H1486 0.930 . S
C1445 N1441 1.279 . S
C1445 C1443 1.358 . S
C1445 H1487 0.967 . S
C1446 C1447 1.348 . S
C1446 C1448 1.356 . S
C1446 O1471 1.325 . S
C1447 C1446 1.348 . S
C1447 C1449 1.353 . S
C1447 H1488 0.929 . S
C1448 C1446 1.356 . S
C1448 C1450 1.358 . S
C1448 H1489 0.930 . S
C1449 C1447 1.353 . S
C1449 N1451 1.314 . S
C1449 H1490 0.930 . S
C1450 C1448 1.358 . S
C1450 N1451 1.279 . S
C1450 H1491 0.930 . S
N1451 C1449 1.314 . S
N1451 C1450 1.279 . S
C1452 C1454 1.353 . S
C1452 N1455 1.314 . S
C1452 H1458 0.930 . S
C1453 N1455 1.279 . S
C1453 C1456 1.358 . S
C1453 H1459 0.930 . S
C1454 C1452 1.353 . S
C1454 C1457 1.348 . S
C1454 H1492 0.929 . S
N1455 Li1410 1.990 . S
N1455 C1452 1.314 . S
N1455 C1453 1.279 . S
C1456 C1453 1.358 . S
C1456 C1457 1.356 . S
C1456 H1493 0.930 . S
C1457 C1454 1.348 . S
C1457 C1456 1.356 . S
H1458 C1452 0.930 . S
H1459 C1453 0.930 . S
C1460 N1461 1.314 . S
C1460 C1462 1.353 . S
C1460 H1466 0.930 . S
N1461 Li1411 1.990 . S
N1461 C1460 1.314 . S
N1461 C1464 1.279 . S
C1462 C1460 1.353 . S
C1462 C1465 1.348 . S
C1462 H1494 0.929 . S
C1463 C1464 1.358 . S
C1463 C1465 1.356 . S
C1463 H1495 0.930 . S
C1464 N1461 1.279 . S
C1464 C1463 1.358 . S
C1464 H1467 0.930 . S
C1465 C1462 1.348 . S
C1465 C1463 1.356 . S
H1466 C1460 0.930 . S
H1467 C1464 0.930 . S
O1468 Li1408 1.956 . S
O1468 Li1409 1.970 . S
O1468 Li1410 1.961 . S
O1468 C1412 1.325 . S
O1469 Li1408 1.970 . S
O1469 Li1409 1.956 . S
O1469 Li1411 1.961 . S
O1469 C1418 1.325 . S
O1470 Li1408 1.961 . S
O1470 Li1410 1.956 . S
O1470 Li1411 1.970 . S
O1470 C1440 1.325 . S
O1471 Li1409 1.961 . S
O1471 Li1410 1.970 . S
O1471 Li1411 1.956 . S
O1471 C1446 1.325 . S
H1472 C1414 0.929 . S
H1473 C1415 0.930 . S
H1474 C1416 0.930 . S
H1475 C1417 0.930 . S
H1476 C1419 0.930 . S
H1477 C1421 0.929 . S
H1478 C1422 0.930 . S
H1479 C1423 0.930 . S
H1480 C1426 0.930 . S
H1481 C1429 0.929 . S
H1482 C1434 0.929 . S
H1483 C1435 0.930 . S
H1484 C1442 0.929 . S
H1485 C1443 0.930 . S
H1486 C1444 0.930 . S
H1487 C1445 0.967 . S
H1488 C1447 0.929 . S
H1489 C1448 0.930 . S
H1490 C1449 0.930 . S
H1491 C1450 0.930 . S
H1492 C1454 0.929 . S
H1493 C1456 0.930 . S
H1494 C1462 0.929 . S
H1495 C1463 0.930 . S
Li1496 N1513 1.990 . S
Li1496 O1556 1.956 . S
Li1496 O1557 1.970 . S
Li1496 O1558 1.961 . S
Li1497 N1521 1.990 . S
Li1497 O1556 1.970 . S
Li1497 O1557 1.956 . S
Li1497 O1559 1.961 . S
Li1498 N1543 1.990 . S
Li1498 O1556 1.961 . S
Li1498 O1558 1.956 . S
Li1498 O1559 1.970 . S
Li1499 N1549 1.990 . S
Li1499 O1557 1.961 . S
Li1499 O1558 1.970 . S
Li1499 O1559 1.956 . S
C1500 C1502 1.348 . S
C1500 C1503 1.356 . S
C1500 O1556 1.325 . S
N1501 C1504 1.314 . S
N1501 C1505 1.279 . S
C1502 C1500 1.348 . S
C1502 C1504 1.353 . S
C1502 H1560 0.929 . S
C1503 C1500 1.356 . S
C1503 C1505 1.358 . S
C1503 H1561 0.930 . S
C1504 N1501 1.314 . S
C1504 C1502 1.353 . S
C1504 H1562 0.930 . S
C1505 N1501 1.279 . S
C1505 C1503 1.358 . S
C1505 H1563 0.930 . S
C1506 C1509 1.348 . S
C1506 C1510 1.356 . S
C1506 O1557 1.325 . S
C1507 N1508 1.279 . S
C1507 C1510 1.358 . S
C1507 H1564 0.930 . S
N1508 C1507 1.279 . S
N1508 C1511 1.314 . S
C1509 C1506 1.348 . S
C1509 C1511 1.353 . S
C1509 H1565 0.929 . S
C1510 C1506 1.356 . S
C1510 C1507 1.358 . S
C1510 H1566 0.930 . S
C1511 N1508 1.314 . S
C1511 C1509 1.353 . S
C1511 H1567 0.930 . S
C1512 N1513 1.314 . S
C1512 C1517 1.353 . S
C1512 H1518 0.930 . S
N1513 Li1496 1.990 . S
N1513 C1512 1.314 . S
N1513 C1515 1.279 . S
C1514 C1515 1.358 . S
C1514 C1516 1.356 . S
C1514 H1568 0.930 . S
C1515 N1513 1.279 . S
C1515 C1514 1.358 . S
C1515 H1519 0.930 . S
C1516 C1514 1.356 . S
C1516 C1517 1.348 . S
C1517 C1512 1.353 . S
C1517 C1516 1.348 . S
C1517 H1569 0.929 . S
H1518 C1512 0.930 . S
H1519 C1515 0.930 . S
C1520 N1521 1.314 . S
C1520 C1522 1.353 . S
C1520 H1526 0.930 . S
N1521 Li1497 1.990 . S
N1521 C1520 1.314 . S
N1521 C1524 1.279 . S
C1522 C1520 1.353 . S
C1522 C1525 1.348 . S
C1522 H1570 0.929 . S
C1523 C1524 1.358 . S
C1523 C1525 1.356 . S
C1523 H1571 0.930 . S
C1524 N1521 1.279 . S
C1524 C1523 1.358 . S
C1524 H1527 0.930 . S
C1525 C1522 1.348 . S
C1525 C1523 1.356 . S
H1526 C1520 0.930 . S
H1527 C1524 0.930 . S
C1528 C1530 1.348 . S
C1528 C1531 1.356 . S
C1528 O1558 1.325 . S
N1529 C1532 1.314 . S
N1529 C1533 1.279 . S
C1530 C1528 1.348 . S
C1530 C1532 1.353 . S
C1530 H1572 0.929 . S
C1531 C1528 1.356 . S
C1531 C1533 1.358 . S
C1531 H1573 0.930 . S
C1532 N1529 1.314 . S
C1532 C1530 1.353 . S
C1532 H1574 0.930 . S
C1533 N1529 1.279 . S
C1533 C1531 1.358 . S
C1533 H1575 0.930 . S
C1534 C1535 1.348 . S
C1534 C1536 1.356 . S
C1534 O1559 1.325 . S
C1535 C1534 1.348 . S
C1535 C1537 1.353 . S
C1535 H1576 0.929 . S
C1536 C1534 1.356 . S
C1536 C1538 1.358 . S
C1536 H1577 0.930 . S
C1537 C1535 1.353 . S
C1537 N1539 1.314 . S
C1537 H1578 0.930 . S
C1538 C1536 1.358 . S
C1538 N1539 1.279 . S
C1538 H1579 0.930 . S
N1539 C1537 1.314 . S
N1539 C1538 1.279 . S
C1540 C1542 1.353 . S
C1540 N1543 1.314 . S
C1540 H1546 0.930 . S
C1541 N1543 1.279 . S
C1541 C1544 1.358 . S
C1541 H1547 0.930 . S
C1542 C1540 1.353 . S
C1542 C1545 1.348 . S
C1542 H1580 0.929 . S
N1543 Li1498 1.990 . S
N1543 C1540 1.314 . S
N1543 C1541 1.279 . S
C1544 C1541 1.358 . S
C1544 C1545 1.356 . S
C1544 H1581 0.930 . S
C1545 C1542 1.348 . S
C1545 C1544 1.356 . S
H1546 C1540 0.930 . S
H1547 C1541 0.930 . S
C1548 N1549 1.314 . S
C1548 C1550 1.353 . S
C1548 H1554 0.930 . S
N1549 Li1499 1.990 . S
N1549 C1548 1.314 . S
N1549 C1552 1.279 . S
C1550 C1548 1.353 . S
C1550 C1553 1.348 . S
C1550 H1582 0.929 . S
C1551 C1552 1.358 . S
C1551 C1553 1.356 . S
C1551 H1583 0.930 . S
C1552 N1549 1.279 . S
C1552 C1551 1.358 . S
C1552 H1555 0.930 . S
C1553 C1550 1.348 . S
C1553 C1551 1.356 . S
H1554 C1548 0.930 . S
H1555 C1552 0.930 . S
O1556 Li1496 1.956 . S
O1556 Li1497 1.970 . S
O1556 Li1498 1.961 . S
O1556 C1500 1.325 . S
O1557 Li1496 1.970 . S
O1557 Li1497 1.956 . S
O1557 Li1499 1.961 . S
O1557 C1506 1.325 . S
O1558 Li1496 1.961 . S
O1558 Li1498 1.956 . S
O1558 Li1499 1.970 . S
O1558 C1528 1.325 . S
O1559 Li1497 1.961 . S
O1559 Li1498 1.970 . S
O1559 Li1499 1.956 . S
O1559 C1534 1.325 . S
H1560 C1502 0.929 . S
H1561 C1503 0.930 . S
H1562 C1504 0.930 . S
H1563 C1505 0.930 . S
H1564 C1507 0.930 . S
H1565 C1509 0.929 . S
H1566 C1510 0.930 . S
H1567 C1511 0.930 . S
H1568 C1514 0.930 . S
H1569 C1517 0.929 . S
H1570 C1522 0.929 . S
H1571 C1523 0.930 . S
H1572 C1530 0.929 . S
H1573 C1531 0.930 . S
H1574 C1532 0.930 . S
H1575 C1533 0.930 . S
H1576 C1535 0.929 . S
H1577 C1536 0.930 . S
H1578 C1537 0.930 . S
H1579 C1538 0.930 . S
H1580 C1542 0.929 . S
H1581 C1544 0.930 . S
H1582 C1550 0.929 . S
H1583 C1551 0.930 . S
Li1584 N1601 1.990 . S
Li1584 O1644 1.956 . S
Li1584 O1645 1.970 . S
Li1584 O1646 1.961 . S
Li1585 N1609 1.990 . S
Li1585 O1644 1.970 . S
Li1585 O1645 1.956 . S
Li1585 O1647 1.961 . S
Li1586 N1631 1.990 . S
Li1586 O1644 1.961 . S
Li1586 O1646 1.956 . S
Li1586 O1647 1.970 . S
Li1587 N1637 1.990 . S
Li1587 O1645 1.961 . S
Li1587 O1646 1.970 . S
Li1587 O1647 1.956 . S
C1588 C1590 1.348 . S
C1588 C1591 1.356 . S
C1588 O1644 1.325 . S
N1589 C1592 1.314 . S
N1589 C1593 1.279 . S
C1590 C1588 1.348 . S
C1590 C1592 1.353 . S
C1590 H1648 0.929 . S
C1591 C1588 1.356 . S
C1591 C1593 1.358 . S
C1591 H1649 0.930 . S
C1592 N1589 1.314 . S
C1592 C1590 1.353 . S
C1592 H1650 0.930 . S
C1593 N1589 1.279 . S
C1593 C1591 1.358 . S
C1593 H1651 0.930 . S
C1594 C1597 1.348 . S
C1594 C1598 1.356 . S
C1594 O1645 1.325 . S
C1595 N1596 1.279 . S
C1595 C1598 1.358 . S
C1595 H1652 0.930 . S
N1596 C1595 1.279 . S
N1596 C1599 1.314 . S
C1597 C1594 1.348 . S
C1597 C1599 1.353 . S
C1597 H1653 0.929 . S
C1598 C1594 1.356 . S
C1598 C1595 1.358 . S
C1598 H1654 0.930 . S
C1599 N1596 1.314 . S
C1599 C1597 1.353 . S
C1599 H1655 0.930 . S
C1600 N1601 1.314 . S
C1600 C1605 1.353 . S
C1600 H1606 0.930 . S
N1601 Li1584 1.990 . S
N1601 C1600 1.314 . S
N1601 C1603 1.279 . S
C1602 C1603 1.358 . S
C1602 C1604 1.356 . S
C1602 H1656 0.930 . S
C1603 N1601 1.279 . S
C1603 C1602 1.358 . S
C1603 H1607 0.930 . S
C1604 C1602 1.356 . S
C1604 C1605 1.348 . S
C1605 C1600 1.353 . S
C1605 C1604 1.348 . S
C1605 H1657 0.929 . S
H1606 C1600 0.930 . S
H1607 C1603 0.930 . S
C1608 N1609 1.314 . S
C1608 C1610 1.353 . S
C1608 H1614 0.930 . S
N1609 Li1585 1.990 . S
N1609 C1608 1.314 . S
N1609 C1612 1.279 . S
C1610 C1608 1.353 . S
C1610 C1613 1.348 . S
C1610 H1658 0.929 . S
C1611 C1612 1.358 . S
C1611 C1613 1.356 . S
C1611 H1659 0.930 . S
C1612 N1609 1.279 . S
C1612 C1611 1.358 . S
C1612 H1615 0.930 . S
C1613 C1610 1.348 . S
C1613 C1611 1.356 . S
H1614 C1608 0.930 . S
H1615 C1612 0.930 . S
C1616 C1618 1.348 . S
C1616 C1619 1.356 . S
C1616 O1646 1.325 . S
N1617 C1620 1.314 . S
N1617 C1621 1.279 . S
C1618 C1616 1.348 . S
C1618 C1620 1.353 . S
C1618 H1660 0.929 . S
C1619 C1616 1.356 . S
C1619 C1621 1.358 . S
C1619 H1661 0.930 . S
C1620 N1617 1.314 . S
C1620 C1618 1.353 . S
C1620 H1662 0.930 . S
C1621 N1617 1.279 . S
C1621 C1619 1.358 . S
C1621 H1663 0.930 . S
C1622 C1623 1.348 . S
C1622 C1624 1.356 . S
C1622 O1647 1.325 . S
C1623 C1622 1.348 . S
C1623 C1625 1.353 . S
C1623 H1664 0.929 . S
C1624 C1622 1.356 . S
C1624 C1626 1.358 . S
C1624 H1665 0.930 . S
C1625 C1623 1.353 . S
C1625 N1627 1.314 . S
C1625 H1666 0.930 . S
C1626 C1624 1.358 . S
C1626 N1627 1.279 . S
C1626 H1667 0.930 . S
N1627 C1625 1.314 . S
N1627 C1626 1.279 . S
C1628 C1630 1.353 . S
C1628 N1631 1.314 . S
C1628 H1634 0.930 . S
C1629 N1631 1.279 . S
C1629 C1632 1.358 . S
C1629 H1635 0.930 . S
C1630 C1628 1.353 . S
C1630 C1633 1.348 . S
C1630 H1668 0.929 . S
N1631 Li1586 1.990 . S
N1631 C1628 1.314 . S
N1631 C1629 1.279 . S
C1632 C1629 1.358 . S
C1632 C1633 1.356 . S
C1632 H1669 0.930 . S
C1633 C1630 1.348 . S
C1633 C1632 1.356 . S
H1634 C1628 0.930 . S
H1635 C1629 0.930 . S
C1636 N1637 1.314 . S
C1636 C1638 1.353 . S
C1636 H1642 0.930 . S
N1637 Li1587 1.990 . S
N1637 C1636 1.314 . S
N1637 C1640 1.279 . S
C1638 C1636 1.353 . S
C1638 C1641 1.348 . S
C1638 H1670 0.929 . S
C1639 C1640 1.358 . S
C1639 C1641 1.356 . S
C1639 H1671 0.930 . S
C1640 N1637 1.279 . S
C1640 C1639 1.358 . S
C1640 H1643 0.930 . S
C1641 C1638 1.348 . S
C1641 C1639 1.356 . S
H1642 C1636 0.930 . S
H1643 C1640 0.930 . S
O1644 Li1584 1.956 . S
O1644 Li1585 1.970 . S
O1644 Li1586 1.961 . S
O1644 C1588 1.325 . S
O1645 Li1584 1.970 . S
O1645 Li1585 1.956 . S
O1645 Li1587 1.961 . S
O1645 C1594 1.325 . S
O1646 Li1584 1.961 . S
O1646 Li1586 1.956 . S
O1646 Li1587 1.970 . S
O1646 C1616 1.325 . S
O1647 Li1585 1.961 . S
O1647 Li1586 1.970 . S
O1647 Li1587 1.956 . S
O1647 C1622 1.325 . S
H1648 C1590 0.929 . S
H1649 C1591 0.930 . S
H1650 C1592 0.930 . S
H1651 C1593 0.930 . S
H1652 C1595 0.930 . S
H1653 C1597 0.929 . S
H1654 C1598 0.930 . S
H1655 C1599 0.930 . S
H1656 C1602 0.930 . S
H1657 C1605 0.929 . S
H1658 C1610 0.929 . S
H1659 C1611 0.930 . S
H1660 C1618 0.929 . S
H1661 C1619 0.930 . S
H1662 C1620 0.930 . S
H1663 C1621 0.930 . S
H1664 C1623 0.929 . S
H1665 C1624 0.930 . S
H1666 C1625 0.930 . S
H1667 C1626 0.930 . S
H1668 C1630 0.929 . S
H1669 C1632 0.930 . S
H1670 C1638 0.929 . S
H1671 C1639 0.930 . S
Li1672 N1689 1.990 . S
Li1672 O1732 1.956 . S
Li1672 O1733 1.970 . S
Li1672 O1734 1.961 . S
Li1673 N1697 1.990 . S
Li1673 O1732 1.970 . S
Li1673 O1733 1.956 . S
Li1673 O1735 1.961 . S
Li1674 N1719 1.990 . S
Li1674 O1732 1.961 . S
Li1674 O1734 1.956 . S
Li1674 O1735 1.970 . S
Li1675 N1725 1.990 . S
Li1675 O1733 1.961 . S
Li1675 O1734 1.970 . S
Li1675 O1735 1.956 . S
C1676 C1678 1.348 . S
C1676 C1679 1.356 . S
C1676 O1732 1.325 . S
N1677 C1680 1.314 . S
N1677 C1681 1.279 . S
C1678 C1676 1.348 . S
C1678 C1680 1.353 . S
C1678 H1736 0.929 . S
C1679 C1676 1.356 . S
C1679 C1681 1.358 . S
C1679 H1737 0.930 . S
C1680 N1677 1.314 . S
C1680 C1678 1.353 . S
C1680 H1738 0.930 . S
C1681 N1677 1.279 . S
C1681 C1679 1.358 . S
C1681 H1739 0.930 . S
C1682 C1685 1.348 . S
C1682 C1686 1.356 . S
C1682 O1733 1.325 . S
C1683 N1684 1.279 . S
C1683 C1686 1.358 . S
C1683 H1740 0.930 . S
N1684 C1683 1.279 . S
N1684 C1687 1.314 . S
C1685 C1682 1.348 . S
C1685 C1687 1.353 . S
C1685 H1741 0.929 . S
C1686 C1682 1.356 . S
C1686 C1683 1.358 . S
C1686 H1742 0.930 . S
C1687 N1684 1.314 . S
C1687 C1685 1.353 . S
C1687 H1743 0.930 . S
C1688 N1689 1.314 . S
C1688 C1693 1.353 . S
C1688 H1694 0.930 . S
N1689 Li1672 1.990 . S
N1689 C1688 1.314 . S
N1689 C1691 1.279 . S
C1690 C1691 1.358 . S
C1690 C1692 1.356 . S
C1690 H1744 0.930 . S
C1691 N1689 1.279 . S
C1691 C1690 1.358 . S
C1691 H1695 0.930 . S
C1692 C1690 1.356 . S
C1692 C1693 1.348 . S
C1693 C1688 1.353 . S
C1693 C1692 1.348 . S
C1693 H1745 0.929 . S
H1694 C1688 0.930 . S
H1695 C1691 0.930 . S
C1696 N1697 1.314 . S
C1696 C1698 1.353 . S
C1696 H1702 0.930 . S
N1697 Li1673 1.990 . S
N1697 C1696 1.314 . S
N1697 C1700 1.279 . S
C1698 C1696 1.353 . S
C1698 C1701 1.348 . S
C1698 H1746 0.929 . S
C1699 C1700 1.358 . S
C1699 C1701 1.356 . S
C1699 H1747 0.930 . S
C1700 N1697 1.279 . S
C1700 C1699 1.358 . S
C1700 H1703 0.930 . S
C1701 C1698 1.348 . S
C1701 C1699 1.356 . S
H1702 C1696 0.930 . S
H1703 C1700 0.930 . S
C1704 C1706 1.348 1_545 S
C1704 C1707 1.356 . S
C1704 O1734 1.325 . S
N1705 C1708 1.314 . S
N1705 C1709 1.279 . S
C1706 C1704 1.348 1_565 S
C1706 C1708 1.353 . S
C1706 H1748 0.929 . S
C1707 C1704 1.356 . S
C1707 C1709 1.358 1_545 S
C1707 H1749 0.930 . S
C1708 N1705 1.314 . S
C1708 C1706 1.353 . S
C1708 H1750 0.930 . S
C1709 N1705 1.279 . S
C1709 C1707 1.358 1_565 S
C1709 H1751 0.930 . S
C1710 C1711 1.348 . S
C1710 C1712 1.356 . S
C1710 O1735 1.325 . S
C1711 C1710 1.348 . S
C1711 C1713 1.353 . S
C1711 H1752 0.929 . S
C1712 C1710 1.356 . S
C1712 C1714 1.358 . S
C1712 H1753 0.930 . S
C1713 C1711 1.353 . S
C1713 N1715 1.314 . S
C1713 H1754 0.930 . S
C1714 C1712 1.358 . S
C1714 N1715 1.279 . S
C1714 H1755 0.930 . S
N1715 C1713 1.314 . S
N1715 C1714 1.279 . S
C1716 C1718 1.353 . S
C1716 N1719 1.314 . S
C1716 H1722 0.930 . S
C1717 N1719 1.279 . S
C1717 C1720 1.358 . S
C1717 H1723 0.930 . S
C1718 C1716 1.353 . S
C1718 C1721 1.348 . S
C1718 H1756 0.929 . S
N1719 Li1674 1.990 . S
N1719 C1716 1.314 . S
N1719 C1717 1.279 . S
C1720 C1717 1.358 . S
C1720 C1721 1.356 . S
C1720 H1757 0.930 . S
C1721 C1718 1.348 . S
C1721 C1720 1.356 . S
H1722 C1716 0.930 . S
H1723 C1717 0.930 . S
C1724 N1725 1.314 . S
C1724 C1726 1.353 1_545 S
C1724 H1730 0.930 . S
N1725 Li1675 1.990 . S
N1725 C1724 1.314 . S
N1725 C1728 1.279 . S
C1726 C1724 1.353 1_565 S
C1726 C1729 1.348 . S
C1726 H1758 0.929 . S
C1727 C1728 1.358 1_565 S
C1727 C1729 1.356 . S
C1727 H1759 0.930 . S
C1728 N1725 1.279 . S
C1728 C1727 1.358 1_545 S
C1728 H1731 0.930 . S
C1729 C1726 1.348 . S
C1729 C1727 1.356 . S
H1730 C1724 0.930 . S
H1731 C1728 0.930 . S
O1732 Li1672 1.956 . S
O1732 Li1673 1.970 . S
O1732 Li1674 1.961 . S
O1732 C1676 1.325 . S
O1733 Li1672 1.970 . S
O1733 Li1673 1.956 . S
O1733 Li1675 1.961 . S
O1733 C1682 1.325 . S
O1734 Li1672 1.961 . S
O1734 Li1674 1.956 . S
O1734 Li1675 1.970 . S
O1734 C1704 1.325 . S
O1735 Li1673 1.961 . S
O1735 Li1674 1.970 . S
O1735 Li1675 1.956 . S
O1735 C1710 1.325 . S
H1736 C1678 0.929 . S
H1737 C1679 0.930 . S
H1738 C1680 0.930 . S
H1739 C1681 0.930 . S
H1740 C1683 0.930 . S
H1741 C1685 0.929 . S
H1742 C1686 0.930 . S
H1743 C1687 0.930 . S
H1744 C1690 0.930 . S
H1745 C1693 0.929 . S
H1746 C1698 0.929 . S
H1747 C1699 0.930 . S
H1748 C1706 0.929 . S
H1749 C1707 0.930 . S
H1750 C1708 0.930 . S
H1751 C1709 0.930 . S
H1752 C1711 0.929 . S
H1753 C1712 0.930 . S
H1754 C1713 0.930 . S
H1755 C1714 0.930 . S
H1756 C1718 0.929 . S
H1757 C1720 0.930 . S
H1758 C1726 0.929 . S
H1759 C1727 0.930 . S
Li1760 N1777 1.990 . S
Li1760 O1820 1.956 . S
Li1760 O1821 1.970 . S
Li1760 O1822 1.961 . S
Li1761 N1785 1.990 . S
Li1761 O1820 1.970 . S
Li1761 O1821 1.956 . S
Li1761 O1823 1.961 1_554 S
Li1762 N1807 1.990 . S
Li1762 O1820 1.961 1_556 S
Li1762 O1822 1.956 1_556 S
Li1762 O1823 1.970 . S
Li1763 N1813 1.990 1_554 S
Li1763 O1821 1.961 . S
Li1763 O1822 1.970 . S
Li1763 O1823 1.956 1_554 S
C1764 C1766 1.348 . S
C1764 C1767 1.356 . S
C1764 O1820 1.325 . S
N1765 C1768 1.314 . S
N1765 C1769 1.279 . S
C1766 C1764 1.348 . S
C1766 C1768 1.353 . S
C1766 H1824 0.929 . S
C1767 C1764 1.356 . S
C1767 C1769 1.358 . S
C1767 H1825 0.930 . S
C1768 N1765 1.314 . S
C1768 C1766 1.353 . S
C1768 H1826 0.930 . S
C1769 N1765 1.279 . S
C1769 C1767 1.358 . S
C1769 H1827 0.930 . S
C1770 C1773 1.348 . S
C1770 C1774 1.356 . S
C1770 O1821 1.325 . S
C1771 N1772 1.279 . S
C1771 C1774 1.358 . S
C1771 H1828 0.930 . S
N1772 C1771 1.279 . S
N1772 C1775 1.314 . S
C1773 C1770 1.348 . S
C1773 C1775 1.353 . S
C1773 H1829 0.929 . S
C1774 C1770 1.356 . S
C1774 C1771 1.358 . S
C1774 H1830 0.930 . S
C1775 N1772 1.314 . S
C1775 C1773 1.353 . S
C1775 H1831 0.930 . S
C1776 N1777 1.314 . S
C1776 C1781 1.353 . S
C1776 H1782 0.930 . S
N1777 Li1760 1.990 . S
N1777 C1776 1.314 . S
N1777 C1779 1.279 . S
C1778 C1779 1.358 . S
C1778 C1780 1.356 . S
C1778 H1832 0.930 . S
C1779 N1777 1.279 . S
C1779 C1778 1.358 . S
C1779 H1783 0.930 . S
C1780 C1778 1.356 . S
C1780 C1781 1.348 . S
C1781 C1776 1.353 . S
C1781 C1780 1.348 . S
C1781 H1833 0.929 . S
H1782 C1776 0.930 . S
H1783 C1779 0.930 . S
C1784 N1785 1.314 1_556 S
C1784 C1786 1.353 . S
C1784 H1790 0.930 . S
N1785 Li1761 1.990 . S
N1785 C1784 1.314 1_554 S
N1785 C1788 1.279 . S
C1786 C1784 1.353 . S
C1786 C1789 1.348 1_556 S
C1786 H1834 0.929 . S
C1787 C1788 1.358 . S
C1787 C1789 1.356 . S
C1787 H1835 0.930 . S
C1788 N1785 1.279 . S
C1788 C1787 1.358 . S
C1788 H1791 0.930 . S
C1789 C1786 1.348 1_554 S
C1789 C1787 1.356 . S
H1790 C1784 0.930 . S
H1791 C1788 0.930 . S
C1792 C1794 1.340 1_554 S
C1792 C1795 1.356 . S
C1792 O1822 1.325 . S
N1793 C1796 1.315 1_554 S
N1793 C1797 1.279 . S
C1794 C1792 1.340 1_556 S
C1794 C1796 1.354 . S
C1794 H1836 0.938 . S
C1795 C1792 1.356 . S
C1795 C1797 1.358 . S
C1795 H1837 0.930 . S
C1796 N1793 1.315 1_556 S
C1796 C1794 1.354 . S
C1796 H1838 0.929 . S
C1797 N1793 1.279 . S
C1797 C1795 1.358 . S
C1797 H1839 0.930 . S
C1798 C1799 1.348 . S
C1798 C1800 1.356 . S
C1798 O1823 1.325 . S
C1799 C1798 1.348 . S
C1799 C1801 1.353 . S
C1799 H1840 0.929 . S
C1800 C1798 1.356 . S
C1800 C1802 1.358 . S
C1800 H1841 0.930 . S
C1801 C1799 1.353 . S
C1801 N1803 1.314 . S
C1801 H1842 0.930 . S
C1802 C1800 1.358 . S
C1802 N1803 1.279 . S
C1802 H1843 0.930 . S
N1803 C1801 1.314 . S
N1803 C1802 1.279 . S
C1804 C1806 1.353 . S
C1804 N1807 1.314 . S
C1804 H1810 0.930 . S
C1805 N1807 1.279 . S
C1805 C1808 1.358 . S
C1805 H1811 0.930 . S
C1806 C1804 1.353 . S
C1806 C1809 1.348 . S
C1806 H1844 0.929 . S
N1807 Li1762 1.990 . S
N1807 C1804 1.314 . S
N1807 C1805 1.279 . S
C1808 C1805 1.358 . S
C1808 C1809 1.356 . S
C1808 H1845 0.930 . S
C1809 C1806 1.348 . S
C1809 C1808 1.356 . S
H1810 C1804 0.930 . S
H1811 C1805 0.930 . S
C1812 N1813 1.314 1_554 S
C1812 C1814 1.353 . S
C1812 H1818 0.930 . S
N1813 Li1763 1.990 1_556 S
N1813 C1812 1.314 1_556 S
N1813 C1816 1.279 . S
C1814 C1812 1.353 . S
C1814 C1817 1.348 1_554 S
C1814 H1846 0.929 . S
C1815 C1816 1.358 . S
C1815 C1817 1.356 . S
C1815 H1847 0.930 . S
C1816 N1813 1.279 . S
C1816 C1815 1.358 . S
C1816 H1819 0.930 . S
C1817 C1814 1.348 1_556 S
C1817 C1815 1.356 . S
H1818 C1812 0.930 . S
H1819 C1816 0.930 . S
O1820 Li1760 1.956 . S
O1820 Li1761 1.970 . S
O1820 Li1762 1.961 1_554 S
O1820 C1764 1.325 . S
O1821 Li1760 1.970 . S
O1821 Li1761 1.956 . S
O1821 Li1763 1.961 . S
O1821 C1770 1.325 . S
O1822 Li1760 1.961 . S
O1822 Li1762 1.956 1_554 S
O1822 Li1763 1.970 . S
O1822 C1792 1.325 . S
O1823 Li1761 1.961 1_556 S
O1823 Li1762 1.970 . S
O1823 Li1763 1.956 1_556 S
O1823 C1798 1.325 . S
H1824 C1766 0.929 . S
H1825 C1767 0.930 . S
H1826 C1768 0.930 . S
H1827 C1769 0.930 . S
H1828 C1771 0.930 . S
H1829 C1773 0.929 . S
H1830 C1774 0.930 . S
H1831 C1775 0.930 . S
H1832 C1778 0.930 . S
H1833 C1781 0.929 . S
H1834 C1786 0.929 . S
H1835 C1787 0.930 . S
H1836 C1794 0.938 . S
H1837 C1795 0.930 . S
H1838 C1796 0.929 . S
H1839 C1797 0.930 . S
H1840 C1799 0.929 . S
H1841 C1800 0.930 . S
H1842 C1801 0.930 . S
H1843 C1802 0.930 . S
H1844 C1806 0.929 . S
H1845 C1808 0.930 . S
H1846 C1814 0.929 . S
H1847 C1815 0.930 . S
Li1848 N1865 1.990 . S
Li1848 O1908 1.956 . S
Li1848 O1909 1.970 . S
Li1848 O1910 1.961 . S
Li1849 N1873 1.990 . S
Li1849 O1908 1.970 . S
Li1849 O1909 1.956 . S
Li1849 O1911 1.961 . S
Li1850 N1895 1.990 . S
Li1850 O1908 1.961 . S
Li1850 O1910 1.956 . S
Li1850 O1911 1.970 . S
Li1851 N1901 1.990 . S
Li1851 O1909 1.961 . S
Li1851 O1910 1.970 . S
Li1851 O1911 1.956 . S
C1852 C1854 1.348 . S
C1852 C1855 1.356 . S
C1852 O1908 1.325 . S
N1853 C1856 1.314 . S
N1853 C1857 1.279 . S
C1854 C1852 1.348 . S
C1854 C1856 1.353 . S
C1854 H1912 0.929 . S
C1855 C1852 1.356 . S
C1855 C1857 1.358 . S
C1855 H1913 0.930 . S
C1856 N1853 1.314 . S
C1856 C1854 1.353 . S
C1856 H1914 0.930 . S
C1857 N1853 1.279 . S
C1857 C1855 1.358 . S
C1857 H1915 0.930 . S
C1858 C1861 1.348 . S
C1858 C1862 1.356 . S
C1858 O1909 1.325 . S
C1859 N1860 1.279 . S
C1859 C1862 1.358 . S
C1859 H1916 0.930 . S
N1860 C1859 1.279 . S
N1860 C1863 1.314 . S
C1861 C1858 1.348 . S
C1861 C1863 1.353 . S
C1861 H1917 0.929 . S
C1862 C1858 1.356 . S
C1862 C1859 1.358 . S
C1862 H1918 0.930 . S
C1863 N1860 1.314 . S
C1863 C1861 1.353 . S
C1863 H1919 0.930 . S
C1864 N1865 1.314 . S
C1864 C1869 1.353 . S
C1864 H1870 0.930 . S
N1865 Li1848 1.990 . S
N1865 C1864 1.314 . S
N1865 C1867 1.279 . S
C1866 C1867 1.358 . S
C1866 C1868 1.356 . S
C1866 H1920 0.930 . S
C1867 N1865 1.279 . S
C1867 C1866 1.358 . S
C1867 H1871 0.930 . S
C1868 C1866 1.356 . S
C1868 C1869 1.348 . S
C1869 C1864 1.353 . S
C1869 C1868 1.348 . S
C1869 H1921 0.929 . S
H1870 C1864 0.930 . S
H1871 C1867 0.930 . S
C1872 N1873 1.314 . S
C1872 C1874 1.353 . S
C1872 H1878 0.930 . S
N1873 Li1849 1.990 . S
N1873 C1872 1.314 . S
N1873 C1876 1.279 . S
C1874 C1872 1.353 . S
C1874 C1877 1.348 . S
C1874 H1922 0.929 . S
C1875 C1876 1.358 . S
C1875 C1877 1.356 . S
C1875 H1923 0.930 . S
C1876 N1873 1.279 . S
C1876 C1875 1.358 . S
C1876 H1879 0.930 . S
C1877 C1874 1.348 . S
C1877 C1875 1.356 . S
H1878 C1872 0.930 . S
H1879 C1876 0.930 . S
C1880 C1882 1.348 . S
C1880 C1883 1.356 . S
C1880 O1910 1.325 . S
N1881 C1884 1.314 . S
N1881 C1885 1.279 . S
C1882 C1880 1.348 . S
C1882 C1884 1.353 . S
C1882 H1924 0.929 . S
C1883 C1880 1.356 . S
C1883 C1885 1.358 . S
C1883 H1925 0.930 . S
C1884 N1881 1.314 . S
C1884 C1882 1.353 . S
C1884 H1926 0.930 . S
C1885 N1881 1.279 . S
C1885 C1883 1.358 . S
C1885 H1927 0.930 . S
C1886 C1887 1.348 . S
C1886 C1888 1.356 . S
C1886 O1911 1.325 . S
C1887 C1886 1.348 . S
C1887 C1889 1.353 . S
C1887 H1928 0.929 . S
C1888 C1886 1.356 . S
C1888 C1890 1.358 . S
C1888 H1929 0.930 . S
C1889 C1887 1.353 . S
C1889 N1891 1.314 . S
C1889 H1930 0.930 . S
C1890 C1888 1.358 . S
C1890 N1891 1.279 . S
C1890 H1931 0.930 . S
N1891 C1889 1.314 . S
N1891 C1890 1.279 . S
C1892 C1894 1.353 . S
C1892 N1895 1.314 . S
C1892 H1898 0.930 . S
C1893 N1895 1.279 . S
C1893 C1896 1.358 . S
C1893 H1899 0.930 . S
C1894 C1892 1.353 . S
C1894 C1897 1.348 . S
C1894 H1932 0.929 . S
N1895 Li1850 1.990 . S
N1895 C1892 1.314 . S
N1895 C1893 1.279 . S
C1896 C1893 1.358 . S
C1896 C1897 1.356 . S
C1896 H1933 0.930 . S
C1897 C1894 1.348 . S
C1897 C1896 1.356 . S
H1898 C1892 0.930 . S
H1899 C1893 0.930 . S
C1900 N1901 1.314 . S
C1900 C1902 1.353 . S
C1900 H1906 0.930 . S
N1901 Li1851 1.990 . S
N1901 C1900 1.314 . S
N1901 C1904 1.279 . S
C1902 C1900 1.353 . S
C1902 C1905 1.348 . S
C1902 H1934 0.929 . S
C1903 C1904 1.358 . S
C1903 C1905 1.356 . S
C1903 H1935 0.930 . S
C1904 N1901 1.279 . S
C1904 C1903 1.358 . S
C1904 H1907 0.930 . S
C1905 C1902 1.348 . S
C1905 C1903 1.356 . S
H1906 C1900 0.930 . S
H1907 C1904 0.930 . S
O1908 Li1848 1.956 . S
O1908 Li1849 1.970 . S
O1908 Li1850 1.961 . S
O1908 C1852 1.325 . S
O1909 Li1848 1.970 . S
O1909 Li1849 1.956 . S
O1909 Li1851 1.961 . S
O1909 C1858 1.325 . S
O1910 Li1848 1.961 . S
O1910 Li1850 1.956 . S
O1910 Li1851 1.970 . S
O1910 C1880 1.325 . S
O1911 Li1849 1.961 . S
O1911 Li1850 1.970 . S
O1911 Li1851 1.956 . S
O1911 C1886 1.325 . S
H1912 C1854 0.929 . S
H1913 C1855 0.930 . S
H1914 C1856 0.930 . S
H1915 C1857 0.930 . S
H1916 C1859 0.930 . S
H1917 C1861 0.929 . S
H1918 C1862 0.930 . S
H1919 C1863 0.930 . S
H1920 C1866 0.930 . S
H1921 C1869 0.929 . S
H1922 C1874 0.929 . S
H1923 C1875 0.930 . S
H1924 C1882 0.929 . S
H1925 C1883 0.930 . S
H1926 C1884 0.930 . S
H1927 C1885 0.930 . S
H1928 C1887 0.929 . S
H1929 C1888 0.930 . S
H1930 C1889 0.930 . S
H1931 C1890 0.930 . S
H1932 C1894 0.929 . S
H1933 C1896 0.930 . S
H1934 C1902 0.929 . S
H1935 C1903 0.930 . S
Li1936 N1953 1.990 . S
Li1936 O1996 1.956 . S
Li1936 O1997 1.970 . S
Li1936 O1998 1.961 . S
Li1937 N1961 1.990 . S
Li1937 O1996 1.970 . S
Li1937 O1997 1.956 . S
Li1937 O1999 1.961 . S
Li1938 N1983 1.990 . S
Li1938 O1996 1.961 . S
Li1938 O1998 1.956 . S
Li1938 O1999 1.970 . S
Li1939 N1989 1.990 . S
Li1939 O1997 1.961 . S
Li1939 O1998 1.970 . S
Li1939 O1999 1.956 . S
C1940 C1942 1.348 . S
C1940 C1943 1.356 . S
C1940 O1996 1.325 . S
N1941 C1944 1.314 . S
N1941 C1945 1.279 . S
C1942 C1940 1.348 . S
C1942 C1944 1.353 . S
C1942 H2000 0.929 . S
C1943 C1940 1.356 . S
C1943 C1945 1.358 . S
C1943 H2001 0.930 . S
C1944 N1941 1.314 . S
C1944 C1942 1.353 . S
C1944 H2002 0.930 . S
C1945 N1941 1.279 . S
C1945 C1943 1.358 . S
C1945 H2003 0.930 . S
C1946 C1949 1.348 . S
C1946 C1950 1.356 . S
C1946 O1997 1.325 . S
C1947 N1948 1.279 . S
C1947 C1950 1.358 . S
C1947 H2004 0.930 . S
N1948 C1947 1.279 . S
N1948 C1951 1.314 . S
C1949 C1946 1.348 . S
C1949 C1951 1.353 . S
C1949 H2005 0.929 . S
C1950 C1946 1.356 . S
C1950 C1947 1.358 . S
C1950 H2006 0.930 . S
C1951 N1948 1.314 . S
C1951 C1949 1.353 . S
C1951 H2007 0.930 . S
C1952 N1953 1.314 . S
C1952 C1957 1.353 . S
C1952 H1958 0.930 . S
N1953 Li1936 1.990 . S
N1953 C1952 1.314 . S
N1953 C1955 1.279 . S
C1954 C1955 1.358 . S
C1954 C1956 1.356 . S
C1954 H2008 0.930 . S
C1955 N1953 1.279 . S
C1955 C1954 1.358 . S
C1955 H1959 0.930 . S
C1956 C1954 1.356 . S
C1956 C1957 1.348 . S
C1957 C1952 1.353 . S
C1957 C1956 1.348 . S
C1957 H2009 0.929 . S
H1958 C1952 0.930 . S
H1959 C1955 0.930 . S
C1960 N1961 1.314 . S
C1960 C1962 1.353 . S
C1960 H1966 0.930 . S
N1961 Li1937 1.990 . S
N1961 C1960 1.314 . S
N1961 C1964 1.279 . S
C1962 C1960 1.353 . S
C1962 C1965 1.348 . S
C1962 H2010 0.929 . S
C1963 C1964 1.358 . S
C1963 C1965 1.356 . S
C1963 H2011 0.930 . S
C1964 N1961 1.279 . S
C1964 C1963 1.358 . S
C1964 H1967 0.930 . S
C1965 C1962 1.348 . S
C1965 C1963 1.356 . S
H1966 C1960 0.930 . S
H1967 C1964 0.930 . S
C1968 C1970 1.348 . S
C1968 C1971 1.356 . S
C1968 O1998 1.325 . S
N1969 C1972 1.314 . S
N1969 C1973 1.279 . S
C1970 C1968 1.348 . S
C1970 C1972 1.353 . S
C1970 H2012 0.929 . S
C1971 C1968 1.356 . S
C1971 C1973 1.358 . S
C1971 H2013 0.930 . S
C1972 N1969 1.314 . S
C1972 C1970 1.353 . S
C1972 H2014 0.930 . S
C1973 N1969 1.279 . S
C1973 C1971 1.358 . S
C1973 H2015 0.930 . S
C1974 C1975 1.348 . S
C1974 C1976 1.356 . S
C1974 O1999 1.325 . S
C1975 C1974 1.348 . S
C1975 C1977 1.353 . S
C1975 H2016 0.929 . S
C1976 C1974 1.356 . S
C1976 C1978 1.358 . S
C1976 H2017 0.930 . S
C1977 C1975 1.353 . S
C1977 N1979 1.314 . S
C1977 H2018 0.930 . S
C1978 C1976 1.358 . S
C1978 N1979 1.279 . S
C1978 H2019 0.930 . S
N1979 C1977 1.314 . S
N1979 C1978 1.279 . S
C1980 C1982 1.353 . S
C1980 N1983 1.314 . S
C1980 H1986 0.930 . S
C1981 N1983 1.279 . S
C1981 C1984 1.358 . S
C1981 H1987 0.930 . S
C1982 C1980 1.353 . S
C1982 C1985 1.348 . S
C1982 H2020 0.929 . S
N1983 Li1938 1.990 . S
N1983 C1980 1.314 . S
N1983 C1981 1.279 . S
C1984 C1981 1.358 . S
C1984 C1985 1.356 . S
C1984 H2021 0.930 . S
C1985 C1982 1.348 . S
C1985 C1984 1.356 . S
H1986 C1980 0.930 . S
H1987 C1981 0.930 . S
C1988 N1989 1.314 . S
C1988 C1990 1.353 . S
C1988 H1994 0.930 . S
N1989 Li1939 1.990 . S
N1989 C1988 1.314 . S
N1989 C1992 1.279 . S
C1990 C1988 1.353 . S
C1990 C1993 1.348 . S
C1990 H2022 0.929 . S
C1991 C1992 1.358 . S
C1991 C1993 1.356 . S
C1991 H2023 0.930 . S
C1992 N1989 1.279 . S
C1992 C1991 1.358 . S
C1992 H1995 0.930 . S
C1993 C1990 1.348 . S
C1993 C1991 1.356 . S
H1994 C1988 0.930 . S
H1995 C1992 0.930 . S
O1996 Li1936 1.956 . S
O1996 Li1937 1.970 . S
O1996 Li1938 1.961 . S
O1996 C1940 1.325 . S
O1997 Li1936 1.970 . S
O1997 Li1937 1.956 . S
O1997 Li1939 1.961 . S
O1997 C1946 1.325 . S
O1998 Li1936 1.961 . S
O1998 Li1938 1.956 . S
O1998 Li1939 1.970 . S
O1998 C1968 1.325 . S
O1999 Li1937 1.961 . S
O1999 Li1938 1.970 . S
O1999 Li1939 1.956 . S
O1999 C1974 1.325 . S
H2000 C1942 0.929 . S
H2001 C1943 0.930 . S
H2002 C1944 0.930 . S
H2003 C1945 0.930 . S
H2004 C1947 0.930 . S
H2005 C1949 0.929 . S
H2006 C1950 0.930 . S
H2007 C1951 0.930 . S
H2008 C1954 0.930 . S
H2009 C1957 0.929 . S
H2010 C1962 0.929 . S
H2011 C1963 0.930 . S
H2012 C1970 0.929 . S
H2013 C1971 0.930 . S
H2014 C1972 0.930 . S
H2015 C1973 0.930 . S
H2016 C1975 0.929 . S
H2017 C1976 0.930 . S
H2018 C1977 0.930 . S
H2019 C1978 0.930 . S
H2020 C1982 0.929 . S
H2021 C1984 0.930 . S
H2022 C1990 0.929 . S
H2023 C1991 0.930 . S
Li2024 N2041 1.990 . S
Li2024 O2084 1.956 . S
Li2024 O2085 1.970 . S
Li2024 O2086 1.961 . S
Li2025 N2049 1.990 . S
Li2025 O2084 1.970 . S
Li2025 O2085 1.956 . S
Li2025 O2087 1.961 . S
Li2026 N2071 1.990 . S
Li2026 O2084 1.961 . S
Li2026 O2086 1.956 . S
Li2026 O2087 1.970 . S
Li2027 N2077 1.990 . S
Li2027 O2085 1.961 . S
Li2027 O2086 1.970 . S
Li2027 O2087 1.956 . S
C2028 C2030 1.348 . S
C2028 C2031 1.356 . S
C2028 O2084 1.325 . S
N2029 C2032 1.314 . S
N2029 C2033 1.279 . S
C2030 C2028 1.348 . S
C2030 C2032 1.353 . S
C2030 H2088 0.929 . S
C2031 C2028 1.356 . S
C2031 C2033 1.358 . S
C2031 H2089 0.930 . S
C2032 N2029 1.314 . S
C2032 C2030 1.353 . S
C2032 H2090 0.930 . S
C2033 N2029 1.279 . S
C2033 C2031 1.358 . S
C2033 H2091 0.930 . S
C2034 C2037 1.348 . S
C2034 C2038 1.356 . S
C2034 O2085 1.325 . S
C2035 N2036 1.279 . S
C2035 C2038 1.358 . S
C2035 H2092 0.930 . S
N2036 C2035 1.279 . S
N2036 C2039 1.314 . S
C2037 C2034 1.348 . S
C2037 C2039 1.353 . S
C2037 H2093 0.929 . S
C2038 C2034 1.356 . S
C2038 C2035 1.358 . S
C2038 H2094 0.930 . S
C2039 N2036 1.314 . S
C2039 C2037 1.353 . S
C2039 H2095 0.930 . S
C2040 N2041 1.314 . S
C2040 C2045 1.353 . S
C2040 H2046 0.930 . S
N2041 Li2024 1.990 . S
N2041 C2040 1.314 . S
N2041 C2043 1.279 . S
C2042 C2043 1.358 . S
C2042 C2044 1.356 . S
C2042 H2096 0.930 . S
C2043 N2041 1.279 . S
C2043 C2042 1.358 . S
C2043 H2047 0.930 . S
C2044 C2042 1.356 . S
C2044 C2045 1.348 . S
C2045 C2040 1.353 . S
C2045 C2044 1.348 . S
C2045 H2097 0.929 . S
H2046 C2040 0.930 . S
H2047 C2043 0.930 . S
C2048 N2049 1.314 . S
C2048 C2050 1.353 . S
C2048 H2054 0.930 . S
N2049 Li2025 1.990 . S
N2049 C2048 1.314 . S
N2049 C2052 1.279 . S
C2050 C2048 1.353 . S
C2050 C2053 1.348 . S
C2050 H2098 0.929 . S
C2051 C2052 1.358 . S
C2051 C2053 1.356 . S
C2051 H2099 0.930 . S
C2052 N2049 1.279 . S
C2052 C2051 1.358 . S
C2052 H2055 0.930 . S
C2053 C2050 1.348 . S
C2053 C2051 1.356 . S
H2054 C2048 0.930 . S
H2055 C2052 0.930 . S
C2056 C2058 1.348 . S
C2056 C2059 1.356 . S
C2056 O2086 1.325 . S
N2057 C2060 1.314 . S
N2057 C2061 1.279 . S
C2058 C2056 1.348 . S
C2058 C2060 1.353 . S
C2058 H2100 0.929 . S
C2059 C2056 1.356 . S
C2059 C2061 1.358 . S
C2059 H2101 0.930 . S
C2060 N2057 1.314 . S
C2060 C2058 1.353 . S
C2060 H2102 0.930 . S
C2061 N2057 1.279 . S
C2061 C2059 1.358 . S
C2061 H2103 0.930 . S
C2062 C2063 1.348 . S
C2062 C2064 1.356 . S
C2062 O2087 1.325 . S
C2063 C2062 1.348 . S
C2063 C2065 1.353 . S
C2063 H2104 0.929 . S
C2064 C2062 1.356 . S
C2064 C2066 1.358 . S
C2064 H2105 0.930 . S
C2065 C2063 1.353 . S
C2065 N2067 1.314 . S
C2065 H2106 0.930 . S
C2066 C2064 1.358 . S
C2066 N2067 1.279 . S
C2066 H2107 0.930 . S
N2067 C2065 1.314 . S
N2067 C2066 1.279 . S
C2068 C2070 1.353 . S
C2068 N2071 1.314 . S
C2068 H2074 0.930 . S
C2069 N2071 1.279 . S
C2069 C2072 1.358 . S
C2069 H2075 0.930 . S
C2070 C2068 1.353 . S
C2070 C2073 1.348 . S
C2070 H2108 0.929 . S
N2071 Li2026 1.990 . S
N2071 C2068 1.314 . S
N2071 C2069 1.279 . S
C2072 C2069 1.358 . S
C2072 C2073 1.356 . S
C2072 H2109 0.930 . S
C2073 C2070 1.348 . S
C2073 C2072 1.356 . S
H2074 C2068 0.930 . S
H2075 C2069 0.930 . S
C2076 N2077 1.314 . S
C2076 C2078 1.353 . S
C2076 H2082 0.930 . S
N2077 Li2027 1.990 . S
N2077 C2076 1.314 . S
N2077 C2080 1.279 . S
C2078 C2076 1.353 . S
C2078 C2081 1.348 . S
C2078 H2110 0.929 . S
C2079 C2080 1.358 . S
C2079 C2081 1.356 . S
C2079 H2111 0.930 . S
C2080 N2077 1.279 . S
C2080 C2079 1.358 . S
C2080 H2083 0.930 . S
C2081 C2078 1.348 . S
C2081 C2079 1.356 . S
H2082 C2076 0.930 . S
H2083 C2080 0.930 . S
O2084 Li2024 1.956 . S
O2084 Li2025 1.970 . S
O2084 Li2026 1.961 . S
O2084 C2028 1.325 . S
O2085 Li2024 1.970 . S
O2085 Li2025 1.956 . S
O2085 Li2027 1.961 . S
O2085 C2034 1.325 . S
O2086 Li2024 1.961 . S
O2086 Li2026 1.956 . S
O2086 Li2027 1.970 . S
O2086 C2056 1.325 . S
O2087 Li2025 1.961 . S
O2087 Li2026 1.970 . S
O2087 Li2027 1.956 . S
O2087 C2062 1.325 . S
H2088 C2030 0.929 . S
H2089 C2031 0.930 . S
H2090 C2032 0.930 . S
H2091 C2033 0.930 . S
H2092 C2035 0.930 . S
H2093 C2037 0.929 . S
H2094 C2038 0.930 . S
H2095 C2039 0.930 . S
H2096 C2042 0.930 . S
H2097 C2045 0.929 . S
H2098 C2050 0.929 . S
H2099 C2051 0.930 . S
H2100 C2058 0.929 . S
H2101 C2059 0.930 . S
H2102 C2060 0.930 . S
H2103 C2061 0.930 . S
H2104 C2063 0.929 . S
H2105 C2064 0.930 . S
H2106 C2065 0.930 . S
H2107 C2066 0.930 . S
H2108 C2070 0.929 . S
H2109 C2072 0.930 . S
H2110 C2078 0.929 . S
H2111 C2079 0.930 . S
La2112 C2114 2.928 1_455 S
La2112 O2132 2.521 1_455 S
La2112 O2133 2.628 1_456 S
La2112 O2134 2.554 . S
La2112 O2135 2.757 . S
La2112 O2136 2.470 . S
La2112 O2141 2.482 1_556 S
La2112 O2143 2.503 1_546 S
La2113 C2123 2.928 . S
La2113 O2135 2.482 1_554 S
La2113 O2137 2.503 . S
La2113 O2138 2.521 . S
La2113 O2139 2.628 . S
La2113 O2140 2.554 . S
La2113 O2141 2.757 . S
La2113 O2142 2.470 . S
C2114 La2112 2.928 1_655 S
C2114 C2115 1.503 . S
C2114 O2132 1.261 . S
C2114 O2133 1.243 1_556 S
C2115 C2114 1.503 . S
C2115 C2116 1.394 . S
C2115 C2120 1.379 . S
C2116 C2115 1.394 . S
C2116 C2117 1.380 . S
C2116 H2144 0.930 . S
C2117 C2116 1.380 . S
C2117 C2118 1.376 . S
C2117 H2145 0.930 . S
C2118 C2117 1.376 . S
C2118 C2119 1.370 . S
C2119 C2118 1.370 . S
C2119 C2120 1.398 . S
C2119 H2146 0.929 1_556 S
C2120 C2115 1.379 . S
C2120 C2119 1.398 . S
C2120 H2147 0.922 1_556 S
C2121 O2134 1.240 . S
C2121 O2135 1.289 . S
C2122 O2136 1.258 1_554 S
C2122 O2137 1.256 . S
C2123 La2113 2.928 . S
C2123 C2124 1.503 . S
C2123 O2138 1.261 . S
C2123 O2139 1.243 . S
C2124 C2123 1.503 . S
C2124 C2125 1.394 . S
C2124 C2129 1.373 . S
C2125 C2124 1.394 . S
C2125 C2126 1.380 . S
C2125 H2148 0.930 . S
C2126 C2125 1.380 . S
C2126 C2127 1.381 1_545 S
C2126 H2149 0.930 . S
C2127 C2126 1.381 1_565 S
C2127 C2128 1.370 . S
C2128 C2127 1.370 . S
C2128 C2129 1.396 1_565 S
C2128 H2150 0.929 . S
C2129 C2124 1.373 . S
C2129 C2128 1.396 1_545 S
C2129 H2151 0.929 1_545 S
C2130 O2140 1.240 . S
C2130 O2141 1.289 . S
C2131 O2142 1.258 1_565 S
C2131 O2143 1.256 . S
O2132 La2112 2.521 1_655 S
O2132 C2114 1.261 . S
O2133 La2112 2.628 1_654 S
O2133 C2114 1.243 1_554 S
O2134 La2112 2.554 . S
O2134 C2121 1.240 . S
O2135 La2112 2.757 . S
O2135 La2113 2.482 1_556 S
O2135 C2121 1.289 . S
O2136 La2112 2.470 . S
O2136 C2122 1.258 1_556 S
O2137 La2113 2.503 . S
O2137 C2122 1.256 . S
O2138 La2113 2.521 . S
O2138 C2123 1.261 . S
O2139 La2113 2.628 . S
O2139 C2123 1.243 . S
O2140 La2113 2.554 . S
O2140 C2130 1.240 . S
O2141 La2112 2.482 1_554 S
O2141 La2113 2.757 . S
O2141 C2130 1.289 . S
O2142 La2113 2.470 . S
O2142 C2131 1.258 1_545 S
O2143 La2112 2.503 1_564 S
O2143 C2131 1.256 . S
H2144 C2116 0.930 . S
H2145 C2117 0.930 . S
H2146 C2119 0.929 1_554 S
H2147 C2120 0.922 1_554 S
H2148 C2125 0.930 . S
H2149 C2126 0.930 . S
H2150 C2128 0.929 . S
H2151 C2129 0.929 1_565 S
La2152 C2154 2.928 . S
La2152 O2172 2.521 . S
La2152 O2173 2.628 . S
La2152 O2174 2.554 . S
La2152 O2175 2.757 . S
La2152 O2176 2.470 . S
La2152 O2181 2.482 . S
La2152 O2183 2.503 . S
La2153 C2163 2.928 . S
La2153 O2175 2.482 . S
La2153 O2177 2.503 . S
La2153 O2178 2.521 . S
La2153 O2179 2.628 . S
La2153 O2180 2.554 . S
La2153 O2181 2.757 . S
La2153 O2182 2.470 . S
C2154 La2152 2.928 . S
C2154 C2155 1.503 . S
C2154 O2172 1.261 . S
C2154 O2173 1.243 . S
C2155 C2154 1.503 . S
C2155 C2156 1.394 . S
C2155 C2160 1.373 . S
C2156 C2155 1.394 . S
C2156 C2157 1.380 . S
C2156 H2184 0.930 . S
C2157 C2156 1.380 . S
C2157 C2158 1.376 . S
C2157 H2185 0.930 . S
C2158 C2157 1.376 . S
C2158 C2159 1.370 . S
C2159 C2158 1.370 . S
C2159 C2160 1.396 . S
C2159 H2186 0.929 . S
C2160 C2155 1.373 . S
C2160 C2159 1.396 . S
C2160 H2187 0.929 . S
C2161 O2174 1.240 . S
C2161 O2175 1.289 . S
C2162 O2176 1.258 . S
C2162 O2177 1.256 . S
C2163 La2153 2.928 . S
C2163 C2164 1.503 . S
C2163 O2178 1.261 . S
C2163 O2179 1.243 . S
C2164 C2163 1.503 . S
C2164 C2165 1.394 . S
C2164 C2169 1.373 . S
C2165 C2164 1.394 . S
C2165 C2166 1.380 . S
C2165 H2188 0.930 . S
C2166 C2165 1.380 . S
C2166 C2167 1.376 . S
C2166 H2189 0.930 . S
C2167 C2166 1.376 . S
C2167 C2168 1.370 . S
C2168 C2167 1.370 . S
C2168 C2169 1.396 . S
C2168 H2190 0.929 . S
C2169 C2164 1.373 . S
C2169 C2168 1.396 . S
C2169 H2191 0.929 . S
C2170 O2180 1.240 . S
C2170 O2181 1.289 . S
C2171 O2182 1.258 . S
C2171 O2183 1.256 . S
O2172 La2152 2.521 . S
O2172 C2154 1.261 . S
O2173 La2152 2.628 . S
O2173 C2154 1.243 . S
O2174 La2152 2.554 . S
O2174 C2161 1.240 . S
O2175 La2152 2.757 . S
O2175 La2153 2.482 . S
O2175 C2161 1.289 . S
O2176 La2152 2.470 . S
O2176 C2162 1.258 . S
O2177 La2153 2.503 . S
O2177 C2162 1.256 . S
O2178 La2153 2.521 . S
O2178 C2163 1.261 . S
O2179 La2153 2.628 . S
O2179 C2163 1.243 . S
O2180 La2153 2.554 . S
O2180 C2170 1.240 . S
O2181 La2152 2.482 . S
O2181 La2153 2.757 . S
O2181 C2170 1.289 . S
O2182 La2153 2.470 . S
O2182 C2171 1.258 . S
O2183 La2152 2.503 . S
O2183 C2171 1.256 . S
H2184 C2156 0.930 . S
H2185 C2157 0.930 . S
H2186 C2159 0.929 . S
H2187 C2160 0.929 . S
H2188 C2165 0.930 . S
H2189 C2166 0.930 . S
H2190 C2168 0.929 . S
H2191 C2169 0.929 . S
La2192 C2194 2.928 . S
La2192 O2212 2.521 . S
La2192 O2213 2.628 . S
La2192 O2214 2.554 . S
La2192 O2215 2.757 . S
La2192 O2216 2.459 1_545 S
La2192 O2221 2.482 . S
La2192 O2223 2.503 . S
La2193 C2203 2.928 . S
La2193 O2215 2.482 . S
La2193 O2217 2.503 1_545 S
La2193 O2218 2.521 . S
La2193 O2219 2.628 . S
La2193 O2220 2.554 . S
La2193 O2221 2.757 . S
La2193 O2222 2.470 . S
C2194 La2192 2.928 . S
C2194 C2195 1.503 1_545 S
C2194 O2212 1.261 . S
C2194 O2213 1.243 . S
C2195 C2194 1.503 1_565 S
C2195 C2196 1.394 . S
C2195 C2200 1.373 . S
C2196 C2195 1.394 . S
C2196 C2197 1.380 . S
C2196 H2224 0.930 1_565 S
C2197 C2196 1.380 . S
C2197 C2198 1.376 . S
C2197 H2225 0.930 . S
C2198 C2197 1.376 . S
C2198 C2199 1.370 . S
C2199 C2198 1.370 . S
C2199 C2200 1.396 . S
C2199 H2226 0.929 . S
C2200 C2195 1.373 . S
C2200 C2199 1.396 . S
C2200 H2227 0.929 . S
C2201 O2214 1.240 . S
C2201 O2215 1.289 . S
C2202 O2216 1.265 . S
C2202 O2217 1.256 . S
C2203 La2193 2.928 . S
C2203 C2204 1.503 . S
C2203 O2218 1.261 . S
C2203 O2219 1.243 . S
C2204 C2203 1.503 . S
C2204 C2205 1.394 . S
C2204 C2209 1.373 . S
C2205 C2204 1.394 . S
C2205 C2206 1.380 . S
C2205 H2228 0.930 . S
C2206 C2205 1.380 . S
C2206 C2207 1.376 . S
C2206 H2229 0.930 . S
C2207 C2206 1.376 . S
C2207 C2208 1.370 . S
C2208 C2207 1.370 . S
C2208 C2209 1.396 . S
C2208 H2230 0.929 . S
C2209 C2204 1.373 . S
C2209 C2208 1.396 . S
C2209 H2231 0.929 . S
C2210 O2220 1.240 . S
C2210 O2221 1.289 . S
C2211 O2222 1.258 . S
C2211 O2223 1.256 . S
O2212 La2192 2.521 . S
O2212 C2194 1.261 . S
O2213 La2192 2.628 . S
O2213 C2194 1.243 . S
O2214 La2192 2.554 . S
O2214 C2201 1.240 . S
O2215 La2192 2.757 . S
O2215 La2193 2.482 . S
O2215 C2201 1.289 . S
O2216 La2192 2.459 1_565 S
O2216 C2202 1.265 . S
O2217 La2193 2.503 1_565 S
O2217 C2202 1.256 . S
O2218 La2193 2.521 . S
O2218 C2203 1.261 . S
O2219 La2193 2.628 . S
O2219 C2203 1.243 . S
O2220 La2193 2.554 . S
O2220 C2210 1.240 . S
O2221 La2192 2.482 . S
O2221 La2193 2.757 . S
O2221 C2210 1.289 . S
O2222 La2193 2.470 . S
O2222 C2211 1.258 . S
O2223 La2192 2.503 . S
O2223 C2211 1.256 . S
H2224 C2196 0.930 1_545 S
H2225 C2197 0.930 . S
H2226 C2199 0.929 . S
H2227 C2200 0.929 . S
H2228 C2205 0.930 . S
H2229 C2206 0.930 . S
H2230 C2208 0.929 . S
H2231 C2209 0.929 . S
La2232 C2234 2.928 . S
La2232 O2252 2.521 . S
La2232 O2253 2.628 . S
La2232 O2254 2.554 . S
La2232 O2255 2.757 . S
La2232 O2256 2.470 . S
La2232 O2261 2.482 . S
La2232 O2263 2.503 . S
La2233 C2243 2.928 . S
La2233 O2255 2.482 . S
La2233 O2257 2.503 . S
La2233 O2258 2.521 . S
La2233 O2259 2.628 . S
La2233 O2260 2.554 . S
La2233 O2261 2.757 . S
La2233 O2262 2.470 . S
C2234 La2232 2.928 . S
C2234 C2235 1.503 . S
C2234 O2252 1.261 . S
C2234 O2253 1.243 . S
C2235 C2234 1.503 . S
C2235 C2236 1.394 . S
C2235 C2240 1.373 . S
C2236 C2235 1.394 . S
C2236 C2237 1.380 . S
C2236 H2264 0.930 . S
C2237 C2236 1.380 . S
C2237 C2238 1.376 . S
C2237 H2265 0.930 . S
C2238 C2237 1.376 . S
C2238 C2239 1.370 . S
C2239 C2238 1.370 . S
C2239 C2240 1.396 . S
C2239 H2266 0.929 . S
C2240 C2235 1.373 . S
C2240 C2239 1.396 . S
C2240 H2267 0.929 . S
C2241 O2254 1.240 . S
C2241 O2255 1.289 . S
C2242 O2256 1.258 . S
C2242 O2257 1.256 . S
C2243 La2233 2.928 . S
C2243 C2244 1.503 . S
C2243 O2258 1.261 . S
C2243 O2259 1.243 . S
C2244 C2243 1.503 . S
C2244 C2245 1.394 . S
C2244 C2249 1.373 . S
C2245 C2244 1.394 . S
C2245 C2246 1.380 . S
C2245 H2268 0.930 . S
C2246 C2245 1.380 . S
C2246 C2247 1.376 . S
C2246 H2269 0.930 . S
C2247 C2246 1.376 . S
C2247 C2248 1.370 . S
C2248 C2247 1.370 . S
C2248 C2249 1.396 . S
C2248 H2270 0.929 . S
C2249 C2244 1.373 . S
C2249 C2248 1.396 . S
C2249 H2271 0.929 . S
C2250 O2260 1.240 . S
C2250 O2261 1.289 . S
C2251 O2262 1.258 . S
C2251 O2263 1.256 . S
O2252 La2232 2.521 . S
O2252 C2234 1.261 . S
O2253 La2232 2.628 . S
O2253 C2234 1.243 . S
O2254 La2232 2.554 . S
O2254 C2241 1.240 . S
O2255 La2232 2.757 . S
O2255 La2233 2.482 . S
O2255 C2241 1.289 . S
O2256 La2232 2.470 . S
O2256 C2242 1.258 . S
O2257 La2233 2.503 . S
O2257 C2242 1.256 . S
O2258 La2233 2.521 . S
O2258 C2243 1.261 . S
O2259 La2233 2.628 . S
O2259 C2243 1.243 . S
O2260 La2233 2.554 . S
O2260 C2250 1.240 . S
O2261 La2232 2.482 . S
O2261 La2233 2.757 . S
O2261 C2250 1.289 . S
O2262 La2233 2.470 . S
O2262 C2251 1.258 . S
O2263 La2232 2.503 . S
O2263 C2251 1.256 . S
H2264 C2236 0.930 . S
H2265 C2237 0.930 . S
H2266 C2239 0.929 . S
H2267 C2240 0.929 . S
H2268 C2245 0.930 . S
H2269 C2246 0.930 . S
H2270 C2248 0.929 . S
H2271 C2249 0.929 . S
La2272 C2274 2.928 . S
La2272 O2292 2.521 . S
La2272 O2293 2.628 . S
La2272 O2294 2.554 . S
La2272 O2295 2.757 . S
La2272 O2296 2.470 . S
La2272 O2301 2.482 . S
La2272 O2303 2.503 . S
La2273 C2283 2.928 1_545 S
La2273 O2295 2.482 . S
La2273 O2297 2.503 . S
La2273 O2298 2.521 1_545 S
La2273 O2299 2.628 1_545 S
La2273 O2300 2.554 . S
La2273 O2301 2.757 . S
La2273 O2302 2.470 . S
C2274 La2272 2.928 . S
C2274 C2275 1.503 . S
C2274 O2292 1.261 . S
C2274 O2293 1.243 . S
C2275 C2274 1.503 . S
C2275 C2276 1.394 . S
C2275 C2280 1.373 . S
C2276 C2275 1.394 . S
C2276 C2277 1.380 . S
C2276 H2304 0.930 . S
C2277 C2276 1.380 . S
C2277 C2278 1.376 . S
C2277 H2305 0.874 1_455 S
C2278 C2277 1.376 . S
C2278 C2279 1.370 . S
C2279 C2278 1.370 . S
C2279 C2280 1.396 . S
C2279 H2306 0.929 . S
C2280 C2275 1.373 . S
C2280 C2279 1.396 . S
C2280 H2307 0.929 . S
C2281 O2294 1.240 . S
C2281 O2295 1.289 . S
C2282 O2296 1.258 . S
C2282 O2297 1.256 . S
C2283 La2273 2.928 1_565 S
C2283 C2284 1.503 . S
C2283 O2298 1.261 . S
C2283 O2299 1.243 . S
C2284 C2283 1.503 . S
C2284 C2285 1.394 . S
C2284 C2289 1.373 . S
C2285 C2284 1.394 . S
C2285 C2286 1.380 . S
C2285 H2308 0.930 . S
C2286 C2285 1.380 . S
C2286 C2287 1.376 . S
C2286 H2309 0.930 . S
C2287 C2286 1.376 . S
C2287 C2288 1.370 . S
C2288 C2287 1.370 . S
C2288 C2289 1.396 . S
C2288 H2310 0.929 . S
C2289 C2284 1.373 . S
C2289 C2288 1.396 . S
C2289 H2311 0.929 . S
C2290 O2300 1.240 . S
C2290 O2301 1.289 . S
C2291 O2302 1.258 . S
C2291 O2303 1.256 . S
O2292 La2272 2.521 . S
O2292 C2274 1.261 . S
O2293 La2272 2.628 . S
O2293 C2274 1.243 . S
O2294 La2272 2.554 . S
O2294 C2281 1.240 . S
O2295 La2272 2.757 . S
O2295 La2273 2.482 . S
O2295 C2281 1.289 . S
O2296 La2272 2.470 . S
O2296 C2282 1.258 . S
O2297 La2273 2.503 . S
O2297 C2282 1.256 . S
O2298 La2273 2.521 1_565 S
O2298 C2283 1.261 . S
O2299 La2273 2.628 1_565 S
O2299 C2283 1.243 . S
O2300 La2273 2.554 . S
O2300 C2290 1.240 . S
O2301 La2272 2.482 . S
O2301 La2273 2.757 . S
O2301 C2290 1.289 . S
O2302 La2273 2.470 . S
O2302 C2291 1.258 . S
O2303 La2272 2.503 . S
O2303 C2291 1.256 . S
H2304 C2276 0.930 . S
H2305 C2277 0.874 1_655 S
H2306 C2279 0.929 . S
H2307 C2280 0.929 . S
H2308 C2285 0.930 . S
H2309 C2286 0.930 . S
H2310 C2288 0.929 . S
H2311 C2289 0.929 . S
La2312 C2314 2.928 . S
La2312 O2332 2.521 . S
La2312 O2333 2.628 . S
La2312 O2334 2.554 . S
La2312 O2335 2.757 . S
La2312 O2336 2.470 . S
La2312 O2341 2.482 . S
La2312 O2343 2.503 . S
La2313 C2323 2.928 . S
La2313 O2335 2.482 . S
La2313 O2337 2.503 . S
La2313 O2338 2.521 . S
La2313 O2339 2.628 . S
La2313 O2340 2.554 . S
La2313 O2341 2.757 . S
La2313 O2342 2.470 . S
C2314 La2312 2.928 . S
C2314 C2315 1.503 . S
C2314 O2332 1.261 . S
C2314 O2333 1.243 . S
C2315 C2314 1.503 . S
C2315 C2316 1.394 . S
C2315 C2320 1.373 . S
C2316 C2315 1.394 . S
C2316 C2317 1.380 . S
C2316 H2344 0.930 . S
C2317 C2316 1.380 . S
C2317 C2318 1.376 . S
C2317 H2345 0.930 . S
C2318 C2317 1.376 . S
C2318 C2319 1.370 . S
C2319 C2318 1.370 . S
C2319 C2320 1.396 . S
C2319 H2346 0.929 . S
C2320 C2315 1.373 . S
C2320 C2319 1.396 . S
C2320 H2347 0.929 . S
C2321 O2334 1.240 . S
C2321 O2335 1.289 . S
C2322 O2336 1.258 . S
C2322 O2337 1.256 . S
C2323 La2313 2.928 . S
C2323 C2324 1.503 . S
C2323 O2338 1.261 . S
C2323 O2339 1.243 . S
C2324 C2323 1.503 . S
C2324 C2325 1.394 . S
C2324 C2329 1.373 . S
C2325 C2324 1.394 . S
C2325 C2326 1.380 . S
C2325 H2348 0.930 . S
C2326 C2325 1.380 . S
C2326 C2327 1.376 . S
C2326 H2349 0.930 . S
C2327 C2326 1.376 . S
C2327 C2328 1.370 . S
C2328 C2327 1.370 . S
C2328 C2329 1.396 . S
C2328 H2350 0.929 . S
C2329 C2324 1.373 . S
C2329 C2328 1.396 . S
C2329 H2351 0.929 . S
C2330 O2340 1.240 . S
C2330 O2341 1.289 . S
C2331 O2342 1.258 . S
C2331 O2343 1.256 . S
O2332 La2312 2.521 . S
O2332 C2314 1.261 . S
O2333 La2312 2.628 . S
O2333 C2314 1.243 . S
O2334 La2312 2.554 . S
O2334 C2321 1.240 . S
O2335 La2312 2.757 . S
O2335 La2313 2.482 . S
O2335 C2321 1.289 . S
O2336 La2312 2.470 . S
O2336 C2322 1.258 . S
O2337 La2313 2.503 . S
O2337 C2322 1.256 . S
O2338 La2313 2.521 . S
O2338 C2323 1.261 . S
O2339 La2313 2.628 . S
O2339 C2323 1.243 . S
O2340 La2313 2.554 . S
O2340 C2330 1.240 . S
O2341 La2312 2.482 . S
O2341 La2313 2.757 . S
O2341 C2330 1.289 . S
O2342 La2313 2.470 . S
O2342 C2331 1.258 . S
O2343 La2312 2.503 . S
O2343 C2331 1.256 . S
H2344 C2316 0.930 . S
H2345 C2317 0.930 . S
H2346 C2319 0.929 . S
H2347 C2320 0.929 . S
H2348 C2325 0.930 . S
H2349 C2326 0.930 . S
H2350 C2328 0.929 . S
H2351 C2329 0.929 . S
La2352 C2354 2.928 . S
La2352 O2372 2.521 . S
La2352 O2373 2.628 . S
La2352 O2374 2.554 1_545 S
La2352 O2375 2.757 1_554 S
La2352 O2376 2.470 . S
La2352 O2381 2.482 . S
La2352 O2383 2.503 . S
La2353 C2363 2.928 . S
La2353 O2375 2.482 . S
La2353 O2377 2.503 . S
La2353 O2378 2.521 . S
La2353 O2379 2.628 . S
La2353 O2380 2.554 1_556 S
La2353 O2381 2.757 1_556 S
La2353 O2382 2.470 . S
C2354 La2352 2.928 . S
C2354 C2355 1.503 . S
C2354 O2372 1.261 . S
C2354 O2373 1.243 . S
C2355 C2354 1.503 . S
C2355 C2356 1.394 1_545 S
C2355 C2360 1.373 . S
C2356 C2355 1.394 1_565 S
C2356 C2357 1.380 . S
C2356 H2384 0.930 . S
C2357 C2356 1.380 . S
C2357 C2358 1.376 . S
C2357 H2385 0.930 . S
C2358 C2357 1.376 . S
C2358 C2359 1.370 1_565 S
C2359 C2358 1.370 1_545 S
C2359 C2360 1.396 . S
C2359 H2386 0.929 . S
C2360 C2355 1.373 . S
C2360 C2359 1.396 . S
C2360 H2387 0.929 . S
C2361 O2374 1.267 . S
C2361 O2375 1.281 1_564 S
C2362 O2376 1.258 . S
C2362 O2377 1.256 1_554 S
C2363 La2353 2.928 . S
C2363 C2364 1.503 . S
C2363 O2378 1.261 . S
C2363 O2379 1.243 . S
C2364 C2363 1.503 . S
C2364 C2365 1.394 . S
C2364 C2369 1.373 . S
C2365 C2364 1.394 . S
C2365 C2366 1.380 . S
C2365 H2388 0.930 . S
C2366 C2365 1.380 . S
C2366 C2367 1.376 . S
C2366 H2389 0.930 . S
C2367 C2366 1.376 . S
C2367 C2368 1.370 . S
C2368 C2367 1.370 . S
C2368 C2369 1.396 . S
C2368 H2390 0.929 . S
C2369 C2364 1.373 . S
C2369 C2368 1.396 . S
C2369 H2391 0.929 . S
C2370 O2380 1.240 . S
C2370 O2381 1.289 . S
C2371 O2382 1.258 1_554 S
C2371 O2383 1.256 . S
O2372 La2352 2.521 . S
O2372 C2354 1.261 . S
O2373 La2352 2.628 . S
O2373 C2354 1.243 . S
O2374 La2352 2.554 1_565 S
O2374 C2361 1.267 . S
O2375 La2352 2.757 1_556 S
O2375 La2353 2.482 . S
O2375 C2361 1.281 1_546 S
O2376 La2352 2.470 . S
O2376 C2362 1.258 . S
O2377 La2353 2.503 . S
O2377 C2362 1.256 1_556 S
O2378 La2353 2.521 . S
O2378 C2363 1.261 . S
O2379 La2353 2.628 . S
O2379 C2363 1.243 . S
O2380 La2353 2.554 1_554 S
O2380 C2370 1.240 . S
O2381 La2352 2.482 . S
O2381 La2353 2.757 1_554 S
O2381 C2370 1.289 . S
O2382 La2353 2.470 . S
O2382 C2371 1.258 1_556 S
O2383 La2352 2.503 . S
O2383 C2371 1.256 . S
H2384 C2356 0.930 . S
H2385 C2357 0.930 . S
H2386 C2359 0.929 . S
H2387 C2360 0.929 . S
H2388 C2365 0.930 . S
H2389 C2366 0.930 . S
H2390 C2368 0.929 . S
H2391 C2369 0.929 . S
La2392 C2394 2.928 . S
La2392 O2412 2.521 . S
La2392 O2413 2.628 . S
La2392 O2414 2.554 . S
La2392 O2415 2.757 . S
La2392 O2416 2.470 . S
La2392 O2421 2.482 . S
La2392 O2423 2.503 . S
La2393 C2403 2.928 . S
La2393 O2415 2.482 . S
La2393 O2417 2.503 . S
La2393 O2418 2.521 . S
La2393 O2419 2.628 . S
La2393 O2420 2.554 . S
La2393 O2421 2.757 . S
La2393 O2422 2.470 . S
C2394 La2392 2.928 . S
C2394 C2395 1.503 . S
C2394 O2412 1.261 . S
C2394 O2413 1.243 . S
C2395 C2394 1.503 . S
C2395 C2396 1.394 . S
C2395 C2400 1.373 . S
C2396 C2395 1.394 . S
C2396 C2397 1.380 . S
C2396 H2424 0.930 . S
C2397 C2396 1.380 . S
C2397 C2398 1.376 . S
C2397 H2425 0.930 . S
C2398 C2397 1.376 . S
C2398 C2399 1.370 . S
C2399 C2398 1.370 . S
C2399 C2400 1.396 . S
C2399 H2426 0.929 . S
C2400 C2395 1.373 . S
C2400 C2399 1.396 . S
C2400 H2427 0.929 . S
C2401 O2414 1.240 . S
C2401 O2415 1.289 . S
C2402 O2416 1.258 . S
C2402 O2417 1.256 . S
C2403 La2393 2.928 . S
C2403 C2404 1.503 . S
C2403 O2418 1.261 . S
C2403 O2419 1.243 . S
C2404 C2403 1.503 . S
C2404 C2405 1.394 . S
C2404 C2409 1.373 . S
C2405 C2404 1.394 . S
C2405 C2406 1.380 . S
C2405 H2428 0.930 . S
C2406 C2405 1.380 . S
C2406 C2407 1.376 . S
C2406 H2429 0.930 . S
C2407 C2406 1.376 . S
C2407 C2408 1.370 . S
C2408 C2407 1.370 . S
C2408 C2409 1.396 . S
C2408 H2430 0.929 . S
C2409 C2404 1.373 . S
C2409 C2408 1.396 . S
C2409 H2431 0.929 . S
C2410 O2420 1.240 . S
C2410 O2421 1.289 . S
C2411 O2422 1.258 . S
C2411 O2423 1.256 . S
O2412 La2392 2.521 . S
O2412 C2394 1.261 . S
O2413 La2392 2.628 . S
O2413 C2394 1.243 . S
O2414 La2392 2.554 . S
O2414 C2401 1.240 . S
O2415 La2392 2.757 . S
O2415 La2393 2.482 . S
O2415 C2401 1.289 . S
O2416 La2392 2.470 . S
O2416 C2402 1.258 . S
O2417 La2393 2.503 . S
O2417 C2402 1.256 . S
O2418 La2393 2.521 . S
O2418 C2403 1.261 . S
O2419 La2393 2.628 . S
O2419 C2403 1.243 . S
O2420 La2393 2.554 . S
O2420 C2410 1.240 . S
O2421 La2392 2.482 . S
O2421 La2393 2.757 . S
O2421 C2410 1.289 . S
O2422 La2393 2.470 . S
O2422 C2411 1.258 . S
O2423 La2392 2.503 . S
O2423 C2411 1.256 . S
H2424 C2396 0.930 . S
H2425 C2397 0.930 . S
H2426 C2399 0.929 . S
H2427 C2400 0.929 . S
H2428 C2405 0.930 . S
H2429 C2406 0.930 . S
H2430 C2408 0.929 . S
H2431 C2409 0.929 . S
La2432 C2434 2.891 1_554 S
La2432 O2452 2.521 . S
La2432 O2453 2.628 1_554 S
La2432 O2454 2.554 . S
La2432 O2455 2.757 . S
La2432 O2456 2.470 1_554 S
La2432 O2461 2.482 . S
La2432 O2463 2.503 . S
La2433 C2443 2.928 . S
La2433 O2455 2.482 . S
La2433 O2457 2.503 1_554 S
La2433 O2458 2.521 . S
La2433 O2459 2.628 . S
La2433 O2460 2.554 . S
La2433 O2461 2.757 . S
La2433 O2462 2.470 . S
C2434 La2432 2.891 1_556 S
C2434 C2435 1.541 . S
C2434 O2452 1.216 1_556 S
C2434 O2453 1.254 . S
C2435 C2434 1.541 . S
C2435 C2436 1.394 . S
C2435 C2440 1.373 . S
C2436 C2435 1.394 . S
C2436 C2437 1.380 . S
C2436 H2464 0.902 1_556 S
C2437 C2436 1.380 . S
C2437 C2438 1.376 . S
C2437 H2465 0.930 . S
C2438 C2437 1.376 . S
C2438 C2439 1.370 . S
C2439 C2438 1.370 . S
C2439 C2440 1.396 . S
C2439 H2466 0.929 . S
C2440 C2435 1.373 . S
C2440 C2439 1.396 . S
C2440 H2467 0.929 . S
C2441 O2454 1.240 . S
C2441 O2455 1.289 . S
C2442 O2456 1.258 . S
C2442 O2457 1.256 . S
C2443 La2433 2.928 . S
C2443 C2444 1.503 . S
C2443 O2458 1.261 . S
C2443 O2459 1.243 . S
C2444 C2443 1.503 . S
C2444 C2445 1.394 . S
C2444 C2449 1.373 . S
C2445 C2444 1.394 . S
C2445 C2446 1.380 . S
C2445 H2468 0.930 . S
C2446 C2445 1.380 . S
C2446 C2447 1.376 . S
C2446 H2469 0.930 . S
C2447 C2446 1.376 . S
C2447 C2448 1.370 . S
C2448 C2447 1.370 . S
C2448 C2449 1.396 . S
C2448 H2470 0.929 . S
C2449 C2444 1.373 . S
C2449 C2448 1.396 . S
C2449 H2471 0.929 . S
C2450 O2460 1.240 . S
C2450 O2461 1.289 . S
C2451 O2462 1.258 . S
C2451 O2463 1.256 . S
O2452 La2432 2.521 . S
O2452 C2434 1.216 1_554 S
O2453 La2432 2.628 1_556 S
O2453 C2434 1.254 . S
O2454 La2432 2.554 . S
O2454 C2441 1.240 . S
O2455 La2432 2.757 . S
O2455 La2433 2.482 . S
O2455 C2441 1.289 . S
O2456 La2432 2.470 1_556 S
O2456 C2442 1.258 . S
O2457 La2433 2.503 1_556 S
O2457 C2442 1.256 . S
O2458 La2433 2.521 . S
O2458 C2443 1.261 . S
O2459 La2433 2.628 . S
O2459 C2443 1.243 . S
O2460 La2433 2.554 . S
O2460 C2450 1.240 . S
O2461 La2432 2.482 . S
O2461 La2433 2.757 . S
O2461 C2450 1.289 . S
O2462 La2433 2.470 . S
O2462 C2451 1.258 . S
O2463 La2432 2.503 . S
O2463 C2451 1.256 . S
H2464 C2436 0.902 1_554 S
H2465 C2437 0.930 . S
H2466 C2439 0.929 . S
H2467 C2440 0.929 . S
H2468 C2445 0.930 . S
H2469 C2446 0.930 . S
H2470 C2448 0.929 . S
H2471 C2449 0.929 . S
La2472 C2474 2.928 . S
La2472 O2492 2.521 . S
La2472 O2493 2.628 . S
La2472 O2494 2.554 . S
La2472 O2495 2.757 . S
La2472 O2496 2.470 . S
La2472 O2501 2.482 . S
La2472 O2503 2.503 . S
La2473 C2483 2.928 . S
La2473 O2495 2.482 . S
La2473 O2497 2.503 . S
La2473 O2498 2.521 . S
La2473 O2499 2.628 . S
La2473 O2500 2.554 . S
La2473 O2501 2.757 . S
La2473 O2502 2.470 . S
C2474 La2472 2.928 . S
C2474 C2475 1.503 . S
C2474 O2492 1.261 . S
C2474 O2493 1.243 . S
C2475 C2474 1.503 . S
C2475 C2476 1.394 . S
C2475 C2480 1.373 . S
C2476 C2475 1.394 . S
C2476 C2477 1.380 . S
C2476 H2504 0.930 . S
C2477 C2476 1.380 . S
C2477 C2478 1.376 . S
C2477 H2505 0.930 . S
C2478 C2477 1.376 . S
C2478 C2479 1.370 . S
C2479 C2478 1.370 . S
C2479 C2480 1.396 . S
C2479 H2506 0.929 . S
C2480 C2475 1.373 . S
C2480 C2479 1.396 . S
C2480 H2507 0.929 . S
C2481 O2494 1.240 . S
C2481 O2495 1.289 . S
C2482 O2496 1.258 . S
C2482 O2497 1.256 . S
C2483 La2473 2.928 . S
C2483 C2484 1.503 . S
C2483 O2498 1.261 . S
C2483 O2499 1.243 . S
C2484 C2483 1.503 . S
C2484 C2485 1.394 . S
C2484 C2489 1.373 . S
C2485 C2484 1.394 . S
C2485 C2486 1.380 . S
C2485 H2508 0.930 . S
C2486 C2485 1.380 . S
C2486 C2487 1.376 . S
C2486 H2509 0.930 . S
C2487 C2486 1.376 . S
C2487 C2488 1.370 . S
C2488 C2487 1.370 . S
C2488 C2489 1.396 . S
C2488 H2510 0.929 . S
C2489 C2484 1.373 . S
C2489 C2488 1.396 . S
C2489 H2511 0.929 . S
C2490 O2500 1.240 . S
C2490 O2501 1.289 . S
C2491 O2502 1.258 . S
C2491 O2503 1.256 . S
O2492 La2472 2.521 . S
O2492 C2474 1.261 . S
O2493 La2472 2.628 . S
O2493 C2474 1.243 . S
O2494 La2472 2.554 . S
O2494 C2481 1.240 . S
O2495 La2472 2.757 . S
O2495 La2473 2.482 . S
O2495 C2481 1.289 . S
O2496 La2472 2.470 . S
O2496 C2482 1.258 . S
O2497 La2473 2.503 . S
O2497 C2482 1.256 . S
O2498 La2473 2.521 . S
O2498 C2483 1.261 . S
O2499 La2473 2.628 . S
O2499 C2483 1.243 . S
O2500 La2473 2.554 . S
O2500 C2490 1.240 . S
O2501 La2472 2.482 . S
O2501 La2473 2.757 . S
O2501 C2490 1.289 . S
O2502 La2473 2.470 . S
O2502 C2491 1.258 . S
O2503 La2472 2.503 . S
O2503 C2491 1.256 . S
H2504 C2476 0.930 . S
H2505 C2477 0.930 . S
H2506 C2479 0.929 . S
H2507 C2480 0.929 . S
H2508 C2485 0.930 . S
H2509 C2486 0.930 . S
H2510 C2488 0.929 . S
H2511 C2489 0.929 . S
La2512 C2514 2.928 . S
La2512 O2532 2.521 . S
La2512 O2533 2.628 . S
La2512 O2534 2.554 . S
La2512 O2535 2.757 . S
La2512 O2536 2.470 . S
La2512 O2541 2.482 . S
La2512 O2543 2.503 . S
La2513 C2523 2.928 . S
La2513 O2535 2.482 . S
La2513 O2537 2.503 . S
La2513 O2538 2.521 . S
La2513 O2539 2.628 . S
La2513 O2540 2.554 . S
La2513 O2541 2.757 . S
La2513 O2542 2.470 . S
C2514 La2512 2.928 . S
C2514 C2515 1.503 . S
C2514 O2532 1.261 . S
C2514 O2533 1.243 . S
C2515 C2514 1.503 . S
C2515 C2516 1.394 . S
C2515 C2520 1.335 1_455 S
C2516 C2515 1.394 . S
C2516 C2517 1.380 . S
C2516 H2544 0.930 . S
C2517 C2516 1.380 . S
C2517 C2518 1.376 1_455 S
C2517 H2545 0.930 . S
C2518 C2517 1.376 1_655 S
C2518 C2519 1.370 . S
C2519 C2518 1.370 . S
C2519 C2520 1.421 . S
C2519 H2546 0.929 . S
C2520 C2515 1.335 1_655 S
C2520 C2519 1.421 . S
C2520 H2547 0.944 . S
C2521 O2534 1.240 . S
C2521 O2535 1.289 . S
C2522 O2536 1.258 . S
C2522 O2537 1.256 . S
C2523 La2513 2.928 . S
C2523 C2524 1.503 . S
C2523 O2538 1.261 . S
C2523 O2539 1.243 . S
C2524 C2523 1.503 . S
C2524 C2525 1.394 . S
C2524 C2529 1.373 . S
C2525 C2524 1.394 . S
C2525 C2526 1.380 . S
C2525 H2548 0.930 . S
C2526 C2525 1.380 . S
C2526 C2527 1.376 . S
C2526 H2549 0.930 . S
C2527 C2526 1.376 . S
C2527 C2528 1.370 . S
C2528 C2527 1.370 . S
C2528 C2529 1.396 . S
C2528 H2550 0.929 . S
C2529 C2524 1.373 . S
C2529 C2528 1.396 . S
C2529 H2551 0.929 . S
C2530 O2540 1.240 . S
C2530 O2541 1.289 . S
C2531 O2542 1.258 . S
C2531 O2543 1.256 . S
O2532 La2512 2.521 . S
O2532 C2514 1.261 . S
O2533 La2512 2.628 . S
O2533 C2514 1.243 . S
O2534 La2512 2.554 . S
O2534 C2521 1.240 . S
O2535 La2512 2.757 . S
O2535 La2513 2.482 . S
O2535 C2521 1.289 . S
O2536 La2512 2.470 . S
O2536 C2522 1.258 . S
O2537 La2513 2.503 . S
O2537 C2522 1.256 . S
O2538 La2513 2.521 . S
O2538 C2523 1.261 . S
O2539 La2513 2.628 . S
O2539 C2523 1.243 . S
O2540 La2513 2.554 . S
O2540 C2530 1.240 . S
O2541 La2512 2.482 . S
O2541 La2513 2.757 . S
O2541 C2530 1.289 . S
O2542 La2513 2.470 . S
O2542 C2531 1.258 . S
O2543 La2512 2.503 . S
O2543 C2531 1.256 . S
H2544 C2516 0.930 . S
H2545 C2517 0.930 . S
H2546 C2519 0.929 . S
H2547 C2520 0.944 . S
H2548 C2525 0.930 . S
H2549 C2526 0.930 . S
H2550 C2528 0.929 . S
H2551 C2529 0.929 . S
La2552 C2554 2.928 . S
La2552 O2572 2.521 . S
La2552 O2573 2.628 . S
La2552 O2574 2.554 . S
La2552 O2575 2.757 . S
La2552 O2576 2.470 . S
La2552 O2581 2.482 . S
La2552 O2583 2.503 . S
La2553 C2563 2.928 . S
La2553 O2575 2.482 . S
La2553 O2577 2.503 . S
La2553 O2578 2.521 . S
La2553 O2579 2.628 . S
La2553 O2580 2.554 . S
La2553 O2581 2.757 . S
La2553 O2582 2.470 . S
C2554 La2552 2.928 . S
C2554 C2555 1.503 . S
C2554 O2572 1.261 . S
C2554 O2573 1.243 . S
C2555 C2554 1.503 . S
C2555 C2556 1.394 . S
C2555 C2560 1.373 . S
C2556 C2555 1.394 . S
C2556 C2557 1.380 . S
C2556 H2584 0.930 . S
C2557 C2556 1.380 . S
C2557 C2558 1.376 . S
C2557 H2585 0.930 . S
C2558 C2557 1.376 . S
C2558 C2559 1.370 . S
C2559 C2558 1.370 . S
C2559 C2560 1.396 . S
C2559 H2586 0.929 . S
C2560 C2555 1.373 . S
C2560 C2559 1.396 . S
C2560 H2587 0.929 . S
C2561 O2574 1.240 . S
C2561 O2575 1.289 . S
C2562 O2576 1.258 . S
C2562 O2577 1.256 . S
C2563 La2553 2.928 . S
C2563 C2564 1.503 . S
C2563 O2578 1.261 . S
C2563 O2579 1.243 . S
C2564 C2563 1.503 . S
C2564 C2565 1.394 . S
C2564 C2569 1.373 . S
C2565 C2564 1.394 . S
C2565 C2566 1.380 . S
C2565 H2588 0.930 . S
C2566 C2565 1.380 . S
C2566 C2567 1.376 . S
C2566 H2589 0.930 . S
C2567 C2566 1.376 . S
C2567 C2568 1.370 . S
C2568 C2567 1.370 . S
C2568 C2569 1.396 . S
C2568 H2590 0.929 . S
C2569 C2564 1.373 . S
C2569 C2568 1.396 . S
C2569 H2591 0.929 . S
C2570 O2580 1.240 . S
C2570 O2581 1.289 . S
C2571 O2582 1.258 . S
C2571 O2583 1.256 . S
O2572 La2552 2.521 . S
O2572 C2554 1.261 . S
O2573 La2552 2.628 . S
O2573 C2554 1.243 . S
O2574 La2552 2.554 . S
O2574 C2561 1.240 . S
O2575 La2552 2.757 . S
O2575 La2553 2.482 . S
O2575 C2561 1.289 . S
O2576 La2552 2.470 . S
O2576 C2562 1.258 . S
O2577 La2553 2.503 . S
O2577 C2562 1.256 . S
O2578 La2553 2.521 . S
O2578 C2563 1.261 . S
O2579 La2553 2.628 . S
O2579 C2563 1.243 . S
O2580 La2553 2.554 . S
O2580 C2570 1.240 . S
O2581 La2552 2.482 . S
O2581 La2553 2.757 . S
O2581 C2570 1.289 . S
O2582 La2553 2.470 . S
O2582 C2571 1.258 . S
O2583 La2552 2.503 . S
O2583 C2571 1.256 . S
H2584 C2556 0.930 . S
H2585 C2557 0.930 . S
H2586 C2559 0.929 . S
H2587 C2560 0.929 . S
H2588 C2565 0.930 . S
H2589 C2566 0.930 . S
H2590 C2568 0.929 . S
H2591 C2569 0.929 . S
La2592 C2594 2.928 . S
La2592 O2612 2.521 . S
La2592 O2613 2.628 . S
La2592 O2614 2.554 . S
La2592 O2615 2.757 . S
La2592 O2616 2.470 . S
La2592 O2621 2.482 . S
La2592 O2623 2.503 . S
La2593 C2603 2.928 . S
La2593 O2615 2.482 . S
La2593 O2617 2.503 . S
La2593 O2618 2.521 . S
La2593 O2619 2.628 . S
La2593 O2620 2.554 . S
La2593 O2621 2.757 . S
La2593 O2622 2.470 . S
C2594 La2592 2.928 . S
C2594 C2595 1.503 . S
C2594 O2612 1.261 . S
C2594 O2613 1.243 . S
C2595 C2594 1.503 . S
C2595 C2596 1.394 . S
C2595 C2600 1.373 . S
C2596 C2595 1.394 . S
C2596 C2597 1.380 . S
C2596 H2624 0.930 . S
C2597 C2596 1.380 . S
C2597 C2598 1.376 . S
C2597 H2625 0.930 . S
C2598 C2597 1.376 . S
C2598 C2599 1.370 . S
C2599 C2598 1.370 . S
C2599 C2600 1.396 . S
C2599 H2626 0.929 . S
C2600 C2595 1.373 . S
C2600 C2599 1.396 . S
C2600 H2627 0.929 . S
C2601 O2614 1.240 . S
C2601 O2615 1.289 . S
C2602 O2616 1.258 . S
C2602 O2617 1.256 . S
C2603 La2593 2.928 . S
C2603 C2604 1.503 . S
C2603 O2618 1.261 . S
C2603 O2619 1.243 . S
C2604 C2603 1.503 . S
C2604 C2605 1.394 . S
C2604 C2609 1.373 . S
C2605 C2604 1.394 . S
C2605 C2606 1.380 . S
C2605 H2628 0.930 . S
C2606 C2605 1.380 . S
C2606 C2607 1.376 . S
C2606 H2629 0.930 . S
C2607 C2606 1.376 . S
C2607 C2608 1.370 . S
C2608 C2607 1.370 . S
C2608 C2609 1.396 . S
C2608 H2630 0.929 . S
C2609 C2604 1.373 . S
C2609 C2608 1.396 . S
C2609 H2631 0.929 . S
C2610 O2620 1.240 . S
C2610 O2621 1.289 . S
C2611 O2622 1.258 . S
C2611 O2623 1.256 . S
O2612 La2592 2.521 . S
O2612 C2594 1.261 . S
O2613 La2592 2.628 . S
O2613 C2594 1.243 . S
O2614 La2592 2.554 . S
O2614 C2601 1.240 . S
O2615 La2592 2.757 . S
O2615 La2593 2.482 . S
O2615 C2601 1.289 . S
O2616 La2592 2.470 . S
O2616 C2602 1.258 . S
O2617 La2593 2.503 . S
O2617 C2602 1.256 . S
O2618 La2593 2.521 . S
O2618 C2603 1.261 . S
O2619 La2593 2.628 . S
O2619 C2603 1.243 . S
O2620 La2593 2.554 . S
O2620 C2610 1.240 . S
O2621 La2592 2.482 . S
O2621 La2593 2.757 . S
O2621 C2610 1.289 . S
O2622 La2593 2.470 . S
O2622 C2611 1.258 . S
O2623 La2592 2.503 . S
O2623 C2611 1.256 . S
H2624 C2596 0.930 . S
H2625 C2597 0.930 . S
H2626 C2599 0.929 . S
H2627 C2600 0.929 . S
H2628 C2605 0.930 . S
H2629 C2606 0.930 . S
H2630 C2608 0.929 . S
H2631 C2609 0.929 . S
La2632 C2634 2.928 . S
La2632 O2652 2.521 . S
La2632 O2653 2.628 . S
La2632 O2654 2.554 . S
La2632 O2655 2.757 . S
La2632 O2656 2.470 . S
La2632 O2661 2.482 . S
La2632 O2663 2.503 . S
La2633 C2643 2.928 . S
La2633 O2655 2.482 . S
La2633 O2657 2.503 . S
La2633 O2658 2.521 . S
La2633 O2659 2.628 . S
La2633 O2660 2.554 . S
La2633 O2661 2.757 . S
La2633 O2662 2.470 . S
C2634 La2632 2.928 . S
C2634 C2635 1.503 . S
C2634 O2652 1.261 . S
C2634 O2653 1.243 . S
C2635 C2634 1.503 . S
C2635 C2636 1.394 . S
C2635 C2640 1.373 . S
C2636 C2635 1.394 . S
C2636 C2637 1.380 . S
C2636 H2664 0.930 . S
C2637 C2636 1.380 . S
C2637 C2638 1.376 . S
C2637 H2665 0.930 . S
C2638 C2637 1.376 . S
C2638 C2639 1.370 . S
C2639 C2638 1.370 . S
C2639 C2640 1.396 . S
C2639 H2666 0.929 . S
C2640 C2635 1.373 . S
C2640 C2639 1.396 . S
C2640 H2667 0.929 . S
C2641 O2654 1.240 . S
C2641 O2655 1.289 . S
C2642 O2656 1.258 . S
C2642 O2657 1.256 . S
C2643 La2633 2.928 . S
C2643 C2644 1.503 . S
C2643 O2658 1.261 . S
C2643 O2659 1.243 . S
C2644 C2643 1.503 . S
C2644 C2645 1.394 . S
C2644 C2649 1.373 . S
C2645 C2644 1.394 . S
C2645 C2646 1.380 . S
C2645 H2668 0.930 . S
C2646 C2645 1.380 . S
C2646 C2647 1.376 . S
C2646 H2669 0.930 . S
C2647 C2646 1.376 . S
C2647 C2648 1.370 . S
C2648 C2647 1.370 . S
C2648 C2649 1.396 . S
C2648 H2670 0.929 . S
C2649 C2644 1.373 . S
C2649 C2648 1.396 . S
C2649 H2671 0.929 . S
C2650 O2660 1.240 . S
C2650 O2661 1.289 . S
C2651 O2662 1.258 . S
C2651 O2663 1.256 . S
O2652 La2632 2.521 . S
O2652 C2634 1.261 . S
O2653 La2632 2.628 . S
O2653 C2634 1.243 . S
O2654 La2632 2.554 . S
O2654 C2641 1.240 . S
O2655 La2632 2.757 . S
O2655 La2633 2.482 . S
O2655 C2641 1.289 . S
O2656 La2632 2.470 . S
O2656 C2642 1.258 . S
O2657 La2633 2.503 . S
O2657 C2642 1.256 . S
O2658 La2633 2.521 . S
O2658 C2643 1.261 . S
O2659 La2633 2.628 . S
O2659 C2643 1.243 . S
O2660 La2633 2.554 . S
O2660 C2650 1.240 . S
O2661 La2632 2.482 . S
O2661 La2633 2.757 . S
O2661 C2650 1.289 . S
O2662 La2633 2.470 . S
O2662 C2651 1.258 . S
O2663 La2632 2.503 . S
O2663 C2651 1.256 . S
H2664 C2636 0.930 . S
H2665 C2637 0.930 . S
H2666 C2639 0.929 . S
H2667 C2640 0.929 . S
H2668 C2645 0.930 . S
H2669 C2646 0.930 . S
H2670 C2648 0.929 . S
H2671 C2649 0.929 . S
La2672 C2674 2.928 . S
La2672 O2692 2.521 . S
La2672 O2693 2.628 . S
La2672 O2694 2.554 . S
La2672 O2695 2.757 . S
La2672 O2696 2.470 . S
La2672 O2701 2.482 . S
La2672 O2703 2.503 . S
La2673 C2683 2.928 . S
La2673 O2695 2.482 . S
La2673 O2697 2.503 . S
La2673 O2698 2.521 . S
La2673 O2699 2.628 . S
La2673 O2700 2.554 . S
La2673 O2701 2.757 . S
La2673 O2702 2.470 . S
C2674 La2672 2.928 . S
C2674 C2675 1.503 . S
C2674 O2692 1.261 . S
C2674 O2693 1.243 . S
C2675 C2674 1.503 . S
C2675 C2676 1.394 . S
C2675 C2680 1.373 . S
C2676 C2675 1.394 . S
C2676 C2677 1.380 . S
C2676 H2704 0.930 . S
C2677 C2676 1.380 . S
C2677 C2678 1.376 . S
C2677 H2705 0.930 . S
C2678 C2677 1.376 . S
C2678 C2679 1.370 . S
C2679 C2678 1.370 . S
C2679 C2680 1.396 . S
C2679 H2706 0.929 . S
C2680 C2675 1.373 . S
C2680 C2679 1.396 . S
C2680 H2707 0.929 . S
C2681 O2694 1.240 . S
C2681 O2695 1.289 . S
C2682 O2696 1.258 . S
C2682 O2697 1.256 . S
C2683 La2673 2.928 . S
C2683 C2684 1.503 . S
C2683 O2698 1.261 . S
C2683 O2699 1.243 . S
C2684 C2683 1.503 . S
C2684 C2685 1.394 . S
C2684 C2689 1.373 . S
C2685 C2684 1.394 . S
C2685 C2686 1.380 . S
C2685 H2708 0.930 . S
C2686 C2685 1.380 . S
C2686 C2687 1.376 . S
C2686 H2709 0.930 . S
C2687 C2686 1.376 . S
C2687 C2688 1.370 . S
C2688 C2687 1.370 . S
C2688 C2689 1.396 . S
C2688 H2710 0.929 . S
C2689 C2684 1.373 . S
C2689 C2688 1.396 . S
C2689 H2711 0.929 . S
C2690 O2700 1.240 . S
C2690 O2701 1.289 . S
C2691 O2702 1.258 . S
C2691 O2703 1.256 . S
O2692 La2672 2.521 . S
O2692 C2674 1.261 . S
O2693 La2672 2.628 . S
O2693 C2674 1.243 . S
O2694 La2672 2.554 . S
O2694 C2681 1.240 . S
O2695 La2672 2.757 . S
O2695 La2673 2.482 . S
O2695 C2681 1.289 . S
O2696 La2672 2.470 . S
O2696 C2682 1.258 . S
O2697 La2673 2.503 . S
O2697 C2682 1.256 . S
O2698 La2673 2.521 . S
O2698 C2683 1.261 . S
O2699 La2673 2.628 . S
O2699 C2683 1.243 . S
O2700 La2673 2.554 . S
O2700 C2690 1.240 . S
O2701 La2672 2.482 . S
O2701 La2673 2.757 . S
O2701 C2690 1.289 . S
O2702 La2673 2.470 . S
O2702 C2691 1.258 . S
O2703 La2672 2.503 . S
O2703 C2691 1.256 . S
H2704 C2676 0.930 . S
H2705 C2677 0.930 . S
H2706 C2679 0.929 . S
H2707 C2680 0.929 . S
H2708 C2685 0.930 . S
H2709 C2686 0.930 . S
H2710 C2688 0.929 . S
H2711 C2689 0.929 . S
La2712 C2714 2.928 1_554 S
La2712 O2732 2.521 1_554 S
La2712 O2733 2.628 . S
La2712 O2734 2.554 1_554 S
La2712 O2735 2.757 1_554 S
La2712 O2736 2.470 1_554 S
La2712 O2741 2.482 . S
La2712 O2743 2.503 . S
La2713 C2723 2.928 1_455 S
La2713 O2735 2.482 1_554 S
La2713 O2737 2.503 . S
La2713 O2738 2.521 1_455 S
La2713 O2739 2.628 1_455 S
La2713 O2740 2.554 . S
La2713 O2741 2.757 . S
La2713 O2742 2.470 . S
C2714 La2712 2.928 1_556 S
C2714 C2715 1.503 . S
C2714 O2732 1.261 . S
C2714 O2733 1.243 1_556 S
C2715 C2714 1.503 . S
C2715 C2716 1.394 . S
C2715 C2720 1.373 1_556 S
C2716 C2715 1.394 . S
C2716 C2717 1.380 . S
C2716 H2744 0.930 . S
C2717 C2716 1.380 . S
C2717 C2718 1.376 . S
C2717 H2745 0.930 . S
C2718 C2717 1.376 . S
C2718 C2719 1.350 1_556 S
C2719 C2718 1.350 1_554 S
C2719 C2720 1.399 . S
C2719 H2746 0.946 . S
C2720 C2715 1.373 1_554 S
C2720 C2719 1.399 . S
C2720 H2747 0.929 . S
C2721 O2734 1.240 . S
C2721 O2735 1.289 . S
C2722 O2736 1.245 1_554 S
C2722 O2737 1.265 . S
C2723 La2713 2.928 1_655 S
C2723 C2724 1.503 . S
C2723 O2738 1.261 . S
C2723 O2739 1.243 . S
C2724 C2723 1.503 . S
C2724 C2725 1.394 . S
C2724 C2729 1.373 . S
C2725 C2724 1.394 . S
C2725 C2726 1.380 . S
C2725 H2748 0.930 . S
C2726 C2725 1.380 . S
C2726 C2727 1.376 . S
C2726 H2749 0.930 . S
C2727 C2726 1.376 . S
C2727 C2728 1.370 . S
C2728 C2727 1.370 . S
C2728 C2729 1.396 . S
C2728 H2750 0.929 . S
C2729 C2724 1.373 . S
C2729 C2728 1.396 . S
C2729 H2751 0.929 . S
C2730 O2740 1.240 . S
C2730 O2741 1.289 . S
C2731 O2742 1.258 . S
C2731 O2743 1.256 . S
O2732 La2712 2.521 1_556 S
O2732 C2714 1.261 . S
O2733 La2712 2.628 . S
O2733 C2714 1.243 1_554 S
O2734 La2712 2.554 1_556 S
O2734 C2721 1.240 . S
O2735 La2712 2.757 1_556 S
O2735 La2713 2.482 1_556 S
O2735 C2721 1.289 . S
O2736 La2712 2.470 1_556 S
O2736 C2722 1.245 1_556 S
O2737 La2713 2.503 . S
O2737 C2722 1.265 . S
O2738 La2713 2.521 1_655 S
O2738 C2723 1.261 . S
O2739 La2713 2.628 1_655 S
O2739 C2723 1.243 . S
O2740 La2713 2.554 . S
O2740 C2730 1.240 . S
O2741 La2712 2.482 . S
O2741 La2713 2.757 . S
O2741 C2730 1.289 . S
O2742 La2713 2.470 . S
O2742 C2731 1.258 . S
O2743 La2712 2.503 . S
O2743 C2731 1.256 . S
H2744 C2716 0.930 . S
H2745 C2717 0.930 . S
H2746 C2719 0.946 . S
H2747 C2720 0.929 . S
H2748 C2725 0.930 . S
H2749 C2726 0.930 . S
H2750 C2728 0.929 . S
H2751 C2729 0.929 . S
H2752 C2760 0.950 1_655 S
H2753 C2765 0.950 . S
H2754 C2762 0.950 1_554 S
H2755 C2764 0.950 . S
H2756 C2766 0.950 . S
H2757 C2768 0.950 . S
H2758 C2770 0.950 . S
H2759 C2771 0.950 . S
C2760 H2752 0.950 1_455 S
C2760 C2761 1.386 . S
C2760 C2762 1.391 . S
C2761 C2760 1.386 . S
C2761 C2765 1.393 . S
C2762 H2754 0.950 1_556 S
C2762 C2760 1.391 . S
C2762 C2763 1.400 . S
C2763 C2762 1.400 . S
C2763 C2764 1.398 . S
C2763 C2769 1.491 . S
C2764 H2755 0.950 . S
C2764 C2763 1.398 . S
C2764 C2765 1.391 . S
C2765 H2753 0.950 . S
C2765 C2761 1.393 . S
C2765 C2764 1.391 . S
C2766 H2756 0.950 . S
C2766 C2767 1.412 . S
C2766 C2768 1.391 . S
C2767 C2766 1.412 . S
C2767 C2771 1.378 1_556 S
C2768 H2757 0.950 . S
C2768 C2766 1.391 . S
C2768 C2769 1.400 . S
C2769 C2763 1.491 . S
C2769 C2768 1.400 . S
C2769 C2770 1.398 1_556 S
C2770 H2758 0.950 . S
C2770 C2769 1.398 1_554 S
C2770 C2771 1.391 . S
C2771 H2759 0.950 . S
C2771 C2767 1.378 1_554 S
C2771 C2770 1.391 . S
H2772 C2780 0.950 . S
H2773 C2785 0.950 . S
H2774 C2782 0.950 . S
H2775 C2784 0.950 . S
H2776 C2786 0.950 . S
H2777 C2788 0.950 . S
H2778 C2790 0.950 . S
H2779 C2791 0.950 . S
C2780 H2772 0.950 . S
C2780 C2781 1.386 . S
C2780 C2782 1.391 . S
C2781 C2780 1.386 . S
C2781 C2785 1.393 . S
C2782 H2774 0.950 . S
C2782 C2780 1.391 . S
C2782 C2783 1.400 . S
C2783 C2782 1.400 . S
C2783 C2784 1.398 . S
C2783 C2789 1.491 . S
C2784 H2775 0.950 . S
C2784 C2783 1.398 . S
C2784 C2785 1.391 . S
C2785 H2773 0.950 . S
C2785 C2781 1.393 . S
C2785 C2784 1.391 . S
C2786 H2776 0.950 . S
C2786 C2787 1.386 . S
C2786 C2788 1.391 . S
C2787 C2786 1.386 . S
C2787 C2791 1.393 . S
C2788 H2777 0.950 . S
C2788 C2786 1.391 . S
C2788 C2789 1.400 . S
C2789 C2783 1.491 . S
C2789 C2788 1.400 . S
C2789 C2790 1.398 . S
C2790 H2778 0.950 . S
C2790 C2789 1.398 . S
C2790 C2791 1.391 . S
C2791 H2779 0.950 . S
C2791 C2787 1.393 . S
C2791 C2790 1.391 . S
H2792 C2800 0.950 . S
H2793 C2805 0.950 . S
H2794 C2802 0.950 . S
H2795 C2804 0.950 . S
H2796 C2806 0.950 . S
H2797 C2808 0.950 . S
H2798 C2810 0.950 . S
H2799 C2811 0.950 . S
C2800 H2792 0.950 . S
C2800 C2801 1.386 . S
C2800 C2802 1.391 . S
C2801 C2800 1.386 . S
C2801 C2805 1.393 . S
C2802 H2794 0.950 . S
C2802 C2800 1.391 . S
C2802 C2803 1.400 . S
C2803 C2802 1.400 . S
C2803 C2804 1.398 . S
C2803 C2809 1.491 . S
C2804 H2795 0.950 . S
C2804 C2803 1.398 . S
C2804 C2805 1.391 . S
C2805 H2793 0.950 . S
C2805 C2801 1.393 . S
C2805 C2804 1.391 . S
C2806 H2796 0.950 . S
C2806 C2807 1.386 . S
C2806 C2808 1.391 . S
C2807 C2806 1.386 . S
C2807 C2811 1.393 . S
C2808 H2797 0.950 . S
C2808 C2806 1.391 . S
C2808 C2809 1.400 . S
C2809 C2803 1.491 . S
C2809 C2808 1.400 . S
C2809 C2810 1.398 . S
C2810 H2798 0.950 . S
C2810 C2809 1.398 . S
C2810 C2811 1.391 . S
C2811 H2799 0.950 . S
C2811 C2807 1.393 . S
C2811 C2810 1.391 . S
H2812 C2820 0.950 . S
H2813 C2825 0.950 . S
H2814 C2822 0.950 . S
H2815 C2824 0.950 . S
H2816 C2826 0.950 . S
H2817 C2828 0.950 . S
H2818 C2830 0.950 . S
H2819 C2831 0.950 . S
C2820 H2812 0.950 . S
C2820 C2821 1.386 . S
C2820 C2822 1.391 . S
C2821 C2820 1.386 . S
C2821 C2825 1.393 . S
C2822 H2814 0.950 . S
C2822 C2820 1.391 . S
C2822 C2823 1.400 . S
C2823 C2822 1.400 . S
C2823 C2824 1.398 . S
C2823 C2829 1.491 . S
C2824 H2815 0.950 . S
C2824 C2823 1.398 . S
C2824 C2825 1.391 . S
C2825 H2813 0.950 . S
C2825 C2821 1.393 . S
C2825 C2824 1.391 . S
C2826 H2816 0.950 . S
C2826 C2827 1.386 . S
C2826 C2828 1.391 . S
C2827 C2826 1.386 . S
C2827 C2831 1.393 . S
C2828 H2817 0.950 . S
C2828 C2826 1.391 . S
C2828 C2829 1.400 . S
C2829 C2823 1.491 . S
C2829 C2828 1.400 . S
C2829 C2830 1.398 . S
C2830 H2818 0.950 . S
C2830 C2829 1.398 . S
C2830 C2831 1.391 . S
C2831 H2819 0.950 . S
C2831 C2827 1.393 . S
C2831 C2830 1.391 . S
H2832 C2840 0.950 1_655 S
H2833 C2845 0.950 . S
H2834 C2842 0.950 . S
H2835 C2844 0.950 . S
H2836 C2846 0.950 . S
H2837 C2848 0.950 . S
H2838 C2850 0.950 . S
H2839 C2851 0.950 . S
C2840 H2832 0.950 1_455 S
C2840 C2841 1.386 . S
C2840 C2842 1.391 . S
C2841 C2840 1.386 . S
C2841 C2845 1.393 . S
C2842 H2834 0.950 . S
C2842 C2840 1.391 . S
C2842 C2843 1.400 . S
C2843 C2842 1.400 . S
C2843 C2844 1.398 . S
C2843 C2849 1.491 . S
C2844 H2835 0.950 . S
C2844 C2843 1.398 . S
C2844 C2845 1.391 . S
C2845 H2833 0.950 . S
C2845 C2841 1.393 . S
C2845 C2844 1.391 . S
C2846 H2836 0.950 . S
C2846 C2847 1.386 . S
C2846 C2848 1.391 . S
C2847 C2846 1.386 . S
C2847 C2851 1.393 . S
C2848 H2837 0.950 . S
C2848 C2846 1.391 . S
C2848 C2849 1.400 . S
C2849 C2843 1.491 . S
C2849 C2848 1.400 . S
C2849 C2850 1.398 . S
C2850 H2838 0.950 . S
C2850 C2849 1.398 . S
C2850 C2851 1.391 . S
C2851 H2839 0.950 . S
C2851 C2847 1.393 . S
C2851 C2850 1.391 . S
H2852 C2860 0.950 . S
H2853 C2865 0.950 . S
H2854 C2862 0.950 . S
H2855 C2864 0.950 . S
H2856 C2866 0.950 . S
H2857 C2868 0.950 . S
H2858 C2870 0.950 . S
H2859 C2871 0.950 . S
C2860 H2852 0.950 . S
C2860 C2861 1.386 . S
C2860 C2862 1.391 . S
C2861 C2860 1.386 . S
C2861 C2865 1.393 . S
C2862 H2854 0.950 . S
C2862 C2860 1.391 . S
C2862 C2863 1.400 . S
C2863 C2862 1.400 . S
C2863 C2864 1.398 . S
C2863 C2869 1.491 . S
C2864 H2855 0.950 . S
C2864 C2863 1.398 . S
C2864 C2865 1.391 . S
C2865 H2853 0.950 . S
C2865 C2861 1.393 . S
C2865 C2864 1.391 . S
C2866 H2856 0.950 . S
C2866 C2867 1.386 . S
C2866 C2868 1.391 . S
C2867 C2866 1.386 . S
C2867 C2871 1.393 . S
C2868 H2857 0.950 . S
C2868 C2866 1.391 . S
C2868 C2869 1.400 . S
C2869 C2863 1.491 . S
C2869 C2868 1.400 . S
C2869 C2870 1.398 . S
C2870 H2858 0.950 . S
C2870 C2869 1.398 . S
C2870 C2871 1.391 . S
C2871 H2859 0.950 . S
C2871 C2867 1.393 . S
C2871 C2870 1.391 . S
H2872 C2880 0.950 . S
H2873 C2885 0.950 . S
H2874 C2882 0.950 . S
H2875 C2884 0.950 . S
H2876 C2886 0.950 . S
H2877 C2888 0.950 . S
H2878 C2890 0.950 . S
H2879 C2891 0.950 . S
C2880 H2872 0.950 . S
C2880 C2881 1.386 . S
C2880 C2882 1.391 . S
C2881 C2880 1.386 . S
C2881 C2885 1.393 . S
C2882 H2874 0.950 . S
C2882 C2880 1.391 . S
C2882 C2883 1.400 . S
C2883 C2882 1.400 . S
C2883 C2884 1.398 . S
C2883 C2889 1.491 . S
C2884 H2875 0.950 . S
C2884 C2883 1.398 . S
C2884 C2885 1.391 . S
C2885 H2873 0.950 . S
C2885 C2881 1.393 . S
C2885 C2884 1.391 . S
C2886 H2876 0.950 . S
C2886 C2887 1.386 . S
C2886 C2888 1.391 . S
C2887 C2886 1.386 . S
C2887 C2891 1.393 . S
C2888 H2877 0.950 . S
C2888 C2886 1.391 . S
C2888 C2889 1.400 . S
C2889 C2883 1.491 . S
C2889 C2888 1.400 . S
C2889 C2890 1.398 . S
C2890 H2878 0.950 . S
C2890 C2889 1.398 . S
C2890 C2891 1.391 . S
C2891 H2879 0.950 . S
C2891 C2887 1.393 . S
C2891 C2890 1.391 . S
H2892 C2900 0.950 . S
H2893 C2905 0.950 . S
H2894 C2902 0.950 . S
H2895 C2904 0.950 . S
H2896 C2906 0.950 . S
H2897 C2908 0.950 . S
H2898 C2910 0.950 . S
H2899 C2911 0.950 . S
C2900 H2892 0.950 . S
C2900 C2901 1.386 . S
C2900 C2902 1.391 . S
C2901 C2900 1.386 . S
C2901 C2905 1.393 . S
C2902 H2894 0.950 . S
C2902 C2900 1.391 . S
C2902 C2903 1.400 . S
C2903 C2902 1.400 . S
C2903 C2904 1.398 . S
C2903 C2909 1.491 . S
C2904 H2895 0.950 . S
C2904 C2903 1.398 . S
C2904 C2905 1.391 . S
C2905 H2893 0.950 . S
C2905 C2901 1.393 . S
C2905 C2904 1.391 . S
C2906 H2896 0.950 . S
C2906 C2907 1.386 . S
C2906 C2908 1.391 . S
C2907 C2906 1.386 . S
C2907 C2911 1.393 . S
C2908 H2897 0.950 . S
C2908 C2906 1.391 . S
C2908 C2909 1.400 . S
C2909 C2903 1.491 . S
C2909 C2908 1.400 . S
C2909 C2910 1.398 . S
C2910 H2898 0.950 . S
C2910 C2909 1.398 . S
C2910 C2911 1.391 . S
C2911 H2899 0.950 . S
C2911 C2907 1.393 . S
C2911 C2910 1.391 . S
H2912 C2920 0.950 . S
H2913 C2925 0.950 . S
H2914 C2922 0.950 . S
H2915 C2924 0.950 . S
H2916 C2926 0.950 . S
H2917 C2928 0.950 . S
H2918 C2930 0.950 . S
H2919 C2931 0.950 1_655 S
C2920 H2912 0.950 . S
C2920 C2921 1.386 . S
C2920 C2922 1.391 . S
C2921 C2920 1.386 . S
C2921 C2925 1.393 1_655 S
C2922 H2914 0.950 . S
C2922 C2920 1.391 . S
C2922 C2923 1.400 1_655 S
C2923 C2922 1.400 1_455 S
C2923 C2924 1.398 . S
C2923 C2929 1.491 . S
C2924 H2915 0.950 . S
C2924 C2923 1.398 . S
C2924 C2925 1.391 . S
C2925 H2913 0.950 . S
C2925 C2921 1.393 1_455 S
C2925 C2924 1.391 . S
C2926 H2916 0.950 . S
C2926 C2927 1.386 . S
C2926 C2928 1.391 . S
C2927 C2926 1.386 . S
C2927 C2931 1.393 . S
C2928 H2917 0.950 . S
C2928 C2926 1.391 . S
C2928 C2929 1.400 . S
C2929 C2923 1.491 . S
C2929 C2928 1.400 . S
C2929 C2930 1.398 1_455 S
C2930 H2918 0.950 . S
C2930 C2929 1.398 1_655 S
C2930 C2931 1.391 1_655 S
C2931 H2919 0.950 1_455 S
C2931 C2927 1.393 . S
C2931 C2930 1.391 1_455 S
H2932 C2940 0.950 . S
H2933 C2945 0.950 . S
H2934 C2942 0.950 . S
H2935 C2944 0.950 . S
H2936 C2946 0.950 . S
H2937 C2948 0.950 . S
H2938 C2950 0.950 . S
H2939 C2951 0.950 . S
C2940 H2932 0.950 . S
C2940 C2941 1.386 . S
C2940 C2942 1.391 . S
C2941 C2940 1.386 . S
C2941 C2945 1.393 . S
C2942 H2934 0.950 . S
C2942 C2940 1.391 . S
C2942 C2943 1.400 . S
C2943 C2942 1.400 . S
C2943 C2944 1.398 . S
C2943 C2949 1.491 . S
C2944 H2935 0.950 . S
C2944 C2943 1.398 . S
C2944 C2945 1.391 . S
C2945 H2933 0.950 . S
C2945 C2941 1.393 . S
C2945 C2944 1.391 . S
C2946 H2936 0.950 . S
C2946 C2947 1.386 . S
C2946 C2948 1.391 . S
C2947 C2946 1.386 . S
C2947 C2951 1.393 . S
C2948 H2937 0.950 . S
C2948 C2946 1.391 . S
C2948 C2949 1.400 . S
C2949 C2943 1.491 . S
C2949 C2948 1.400 . S
C2949 C2950 1.398 . S
C2950 H2938 0.950 . S
C2950 C2949 1.398 . S
C2950 C2951 1.391 . S
C2951 H2939 0.950 . S
C2951 C2947 1.393 . S
C2951 C2950 1.391 . S
H2952 C2960 0.950 . S
H2953 C2965 0.950 . S
H2954 C2962 0.950 . S
H2955 C2964 0.950 . S
H2956 C2966 0.950 . S
H2957 C2968 0.950 . S
H2958 C2970 0.950 . S
H2959 C2971 0.950 . S
C2960 H2952 0.950 . S
C2960 C2961 1.386 . S
C2960 C2962 1.391 . S
C2961 C2960 1.386 . S
C2961 C2965 1.393 . S
C2962 H2954 0.950 . S
C2962 C2960 1.391 . S
C2962 C2963 1.400 . S
C2963 C2962 1.400 . S
C2963 C2964 1.398 . S
C2963 C2969 1.491 . S
C2964 H2955 0.950 . S
C2964 C2963 1.398 . S
C2964 C2965 1.391 . S
C2965 H2953 0.950 . S
C2965 C2961 1.393 . S
C2965 C2964 1.391 . S
C2966 H2956 0.950 . S
C2966 C2967 1.386 . S
C2966 C2968 1.391 . S
C2967 C2966 1.386 . S
C2967 C2971 1.393 . S
C2968 H2957 0.950 . S
C2968 C2966 1.391 . S
C2968 C2969 1.400 . S
C2969 C2963 1.491 . S
C2969 C2968 1.400 . S
C2969 C2970 1.398 . S
C2970 H2958 0.950 . S
C2970 C2969 1.398 . S
C2970 C2971 1.391 . S
C2971 H2959 0.950 . S
C2971 C2967 1.393 . S
C2971 C2970 1.391 . S
H2972 C2980 0.950 . S
H2973 C2985 0.950 . S
H2974 C2982 0.950 . S
H2975 C2984 0.950 . S
H2976 C2986 0.950 . S
H2977 C2988 0.950 . S
H2978 C2990 0.950 . S
H2979 C2991 0.950 . S
C2980 H2972 0.950 . S
C2980 C2981 1.386 . S
C2980 C2982 1.391 . S
C2981 C2980 1.386 . S
C2981 C2985 1.393 . S
C2982 H2974 0.950 . S
C2982 C2980 1.391 . S
C2982 C2983 1.400 . S
C2983 C2982 1.400 . S
C2983 C2984 1.398 . S
C2983 C2989 1.491 . S
C2984 H2975 0.950 . S
C2984 C2983 1.398 . S
C2984 C2985 1.391 . S
C2985 H2973 0.950 . S
C2985 C2981 1.393 . S
C2985 C2984 1.391 . S
C2986 H2976 0.950 . S
C2986 C2987 1.386 . S
C2986 C2988 1.391 . S
C2987 C2986 1.386 . S
C2987 C2991 1.393 . S
C2988 H2977 0.950 . S
C2988 C2986 1.391 . S
C2988 C2989 1.400 . S
C2989 C2983 1.491 . S
C2989 C2988 1.400 . S
C2989 C2990 1.398 . S
C2990 H2978 0.950 . S
C2990 C2989 1.398 . S
C2990 C2991 1.391 . S
C2991 H2979 0.950 . S
C2991 C2987 1.393 . S
C2991 C2990 1.391 . S
H2992 C3000 0.950 . S
H2993 C3005 0.950 . S
H2994 C3002 0.950 . S
H2995 C3004 0.950 . S
H2996 C3006 0.950 . S
H2997 C3008 0.950 . S
H2998 C3010 0.950 . S
H2999 C3011 0.950 1_655 S
C3000 H2992 0.950 . S
C3000 C3001 1.386 . S
C3000 C3002 1.391 . S
C3001 C3000 1.386 . S
C3001 C3005 1.393 1_655 S
C3002 H2994 0.950 . S
C3002 C3000 1.391 . S
C3002 C3003 1.400 1_655 S
C3003 C3002 1.400 1_455 S
C3003 C3004 1.398 . S
C3003 C3009 1.491 . S
C3004 H2995 0.950 . S
C3004 C3003 1.398 . S
C3004 C3005 1.391 . S
C3005 H2993 0.950 . S
C3005 C3001 1.393 1_455 S
C3005 C3004 1.391 . S
C3006 H2996 0.950 . S
C3006 C3007 1.386 . S
C3006 C3008 1.391 . S
C3007 C3006 1.386 . S
C3007 C3011 1.393 . S
C3008 H2997 0.950 . S
C3008 C3006 1.391 . S
C3008 C3009 1.400 . S
C3009 C3003 1.491 . S
C3009 C3008 1.400 . S
C3009 C3010 1.398 1_455 S
C3010 H2998 0.950 . S
C3010 C3009 1.398 1_655 S
C3010 C3011 1.391 1_655 S
C3011 H2999 0.950 1_455 S
C3011 C3007 1.393 . S
C3011 C3010 1.391 1_455 S
H3012 C3020 0.950 . S
H3013 C3025 0.950 . S
H3014 C3022 0.950 . S
H3015 C3024 0.950 . S
H3016 C3026 0.950 . S
H3017 C3028 0.950 . S
H3018 C3030 0.950 . S
H3019 C3031 0.950 . S
C3020 H3012 0.950 . S
C3020 C3021 1.386 . S
C3020 C3022 1.391 . S
C3021 C3020 1.386 . S
C3021 C3025 1.393 . S
C3022 H3014 0.950 . S
C3022 C3020 1.391 . S
C3022 C3023 1.400 . S
C3023 C3022 1.400 . S
C3023 C3024 1.398 . S
C3023 C3029 1.491 . S
C3024 H3015 0.950 . S
C3024 C3023 1.398 . S
C3024 C3025 1.391 . S
C3025 H3013 0.950 . S
C3025 C3021 1.393 . S
C3025 C3024 1.391 . S
C3026 H3016 0.950 . S
C3026 C3027 1.386 . S
C3026 C3028 1.391 . S
C3027 C3026 1.386 . S
C3027 C3031 1.393 . S
C3028 H3017 0.950 . S
C3028 C3026 1.391 . S
C3028 C3029 1.400 . S
C3029 C3023 1.491 . S
C3029 C3028 1.400 . S
C3029 C3030 1.398 . S
C3030 H3018 0.950 . S
C3030 C3029 1.398 . S
C3030 C3031 1.391 . S
C3031 H3019 0.950 . S
C3031 C3027 1.393 . S
C3031 C3030 1.391 . S
H3032 C3040 0.950 . S
H3033 C3045 0.950 . S
H3034 C3042 0.950 . S
H3035 C3044 0.950 . S
H3036 C3046 0.950 . S
H3037 C3048 0.950 . S
H3038 C3050 0.950 . S
H3039 C3051 0.950 . S
C3040 H3032 0.950 . S
C3040 C3041 1.386 . S
C3040 C3042 1.391 . S
C3041 C3040 1.386 . S
C3041 C3045 1.393 . S
C3042 H3034 0.950 . S
C3042 C3040 1.391 . S
C3042 C3043 1.400 . S
C3043 C3042 1.400 . S
C3043 C3044 1.398 . S
C3043 C3049 1.491 . S
C3044 H3035 0.950 . S
C3044 C3043 1.398 . S
C3044 C3045 1.391 . S
C3045 H3033 0.950 . S
C3045 C3041 1.393 . S
C3045 C3044 1.391 . S
C3046 H3036 0.950 . S
C3046 C3047 1.386 . S
C3046 C3048 1.391 . S
C3047 C3046 1.386 . S
C3047 C3051 1.393 . S
C3048 H3037 0.950 . S
C3048 C3046 1.391 . S
C3048 C3049 1.400 . S
C3049 C3043 1.491 . S
C3049 C3048 1.400 . S
C3049 C3050 1.398 . S
C3050 H3038 0.950 . S
C3050 C3049 1.398 . S
C3050 C3051 1.391 . S
C3051 H3039 0.950 . S
C3051 C3047 1.393 . S
C3051 C3050 1.391 . S
H3052 C3060 0.950 . S
H3053 C3065 0.950 . S
H3054 C3062 0.950 . S
H3055 C3064 0.950 . S
H3056 C3066 0.950 . S
H3057 C3068 0.950 . S
H3058 C3070 0.950 . S
H3059 C3071 0.950 . S
C3060 H3052 0.950 . S
C3060 C3061 1.386 . S
C3060 C3062 1.391 . S
C3061 C3060 1.386 . S
C3061 C3065 1.393 . S
C3062 H3054 0.950 . S
C3062 C3060 1.391 . S
C3062 C3063 1.400 . S
C3063 C3062 1.400 . S
C3063 C3064 1.398 . S
C3063 C3069 1.491 . S
C3064 H3055 0.950 . S
C3064 C3063 1.398 . S
C3064 C3065 1.391 . S
C3065 H3053 0.950 . S
C3065 C3061 1.393 . S
C3065 C3064 1.391 . S
C3066 H3056 0.950 . S
C3066 C3067 1.386 . S
C3066 C3068 1.391 . S
C3067 C3066 1.386 . S
C3067 C3071 1.393 . S
C3068 H3057 0.950 . S
C3068 C3066 1.391 . S
C3068 C3069 1.400 . S
C3069 C3063 1.491 . S
C3069 C3068 1.400 . S
C3069 C3070 1.398 . S
C3070 H3058 0.950 . S
C3070 C3069 1.398 . S
C3070 C3071 1.391 . S
C3071 H3059 0.950 . S
C3071 C3067 1.393 . S
C3071 C3070 1.391 . S
H3072 C3080 0.950 . S
H3073 C3085 0.950 . S
H3074 C3082 0.950 . S
H3075 C3084 0.950 1_545 S
H3076 C3086 0.950 . S
H3077 C3088 0.950 . S
H3078 C3090 0.950 . S
H3079 C3091 0.950 . S
C3080 H3072 0.950 . S
C3080 C3081 1.386 . S
C3080 C3082 1.391 . S
C3081 C3080 1.386 . S
C3081 C3085 1.393 . S
C3082 H3074 0.950 . S
C3082 C3080 1.391 . S
C3082 C3083 1.400 . S
C3083 C3082 1.400 . S
C3083 C3084 1.398 . S
C3083 C3089 1.491 . S
C3084 H3075 0.950 1_565 S
C3084 C3083 1.398 . S
C3084 C3085 1.391 . S
C3085 H3073 0.950 . S
C3085 C3081 1.393 . S
C3085 C3084 1.391 . S
C3086 H3076 0.950 . S
C3086 C3087 1.386 1_545 S
C3086 C3088 1.391 . S
C3087 C3086 1.386 1_565 S
C3087 C3091 1.393 . S
C3088 H3077 0.950 . S
C3088 C3086 1.391 . S
C3088 C3089 1.400 1_545 S
C3089 C3083 1.491 . S
C3089 C3088 1.400 1_565 S
C3089 C3090 1.398 . S
C3090 H3078 0.950 . S
C3090 C3089 1.398 . S
C3090 C3091 1.391 . S
C3091 H3079 0.950 . S
C3091 C3087 1.393 . S
C3091 C3090 1.391 . S
H3092 C3100 0.950 . S
H3093 C3105 0.950 . S
H3094 C3102 0.950 . S
H3095 C3104 0.950 . S
H3096 C3106 0.950 . S
H3097 C3108 0.948 1_556 S
H3098 C3110 0.950 . S
H3099 C3111 0.950 . S
C3100 H3092 0.950 . S
C3100 C3101 1.386 . S
C3100 C3102 1.391 . S
C3101 C3100 1.386 . S
C3101 C3105 1.393 . S
C3102 H3094 0.950 . S
C3102 C3100 1.391 . S
C3102 C3103 1.400 . S
C3103 C3102 1.400 . S
C3103 C3104 1.398 . S
C3103 C3109 1.486 1_556 S
C3104 H3095 0.950 . S
C3104 C3103 1.398 . S
C3104 C3105 1.391 . S
C3105 H3093 0.950 . S
C3105 C3101 1.393 . S
C3105 C3104 1.391 . S
C3106 H3096 0.950 . S
C3106 C3107 1.386 . S
C3106 C3108 1.402 . S
C3107 C3106 1.386 . S
C3107 C3111 1.393 . S
C3108 H3097 0.948 1_554 S
C3108 C3106 1.402 . S
C3108 C3109 1.396 . S
C3109 C3103 1.486 1_554 S
C3109 C3108 1.396 . S
C3109 C3110 1.400 . S
C3110 H3098 0.950 . S
C3110 C3109 1.400 . S
C3110 C3111 1.391 . S
C3111 H3099 0.950 . S
C3111 C3107 1.393 . S
C3111 C3110 1.391 . S
H3112 C3120 0.950 . S
H3113 C3125 0.950 . S
H3114 C3122 0.950 . S
H3115 C3124 0.950 . S
H3116 C3126 0.950 . S
H3117 C3128 0.950 . S
H3118 C3130 0.950 . S
H3119 C3131 0.950 . S
C3120 H3112 0.950 . S
C3120 C3121 1.386 . S
C3120 C3122 1.391 . S
C3121 C3120 1.386 . S
C3121 C3125 1.393 . S
C3122 H3114 0.950 . S
C3122 C3120 1.391 . S
C3122 C3123 1.400 . S
C3123 C3122 1.400 . S
C3123 C3124 1.398 . S
C3123 C3129 1.491 . S
C3124 H3115 0.950 . S
C3124 C3123 1.398 . S
C3124 C3125 1.391 . S
C3125 H3113 0.950 . S
C3125 C3121 1.393 . S
C3125 C3124 1.391 . S
C3126 H3116 0.950 . S
C3126 C3127 1.386 . S
C3126 C3128 1.391 . S
C3127 C3126 1.386 . S
C3127 C3131 1.393 . S
C3128 H3117 0.950 . S
C3128 C3126 1.391 . S
C3128 C3129 1.400 . S
C3129 C3123 1.491 . S
C3129 C3128 1.400 . S
C3129 C3130 1.398 . S
C3130 H3118 0.950 . S
C3130 C3129 1.398 . S
C3130 C3131 1.391 . S
C3131 H3119 0.950 . S
C3131 C3127 1.393 . S
C3131 C3130 1.391 . S
H3132 C3140 0.950 . S
H3133 C3145 0.950 . S
H3134 C3142 0.950 . S
H3135 C3144 0.950 . S
H3136 C3146 0.950 . S
H3137 C3148 0.950 . S
H3138 C3150 0.950 . S
H3139 C3151 0.950 . S
C3140 H3132 0.950 . S
C3140 C3141 1.386 . S
C3140 C3142 1.391 . S
C3141 C3140 1.386 . S
C3141 C3145 1.393 . S
C3142 H3134 0.950 . S
C3142 C3140 1.391 . S
C3142 C3143 1.400 . S
C3143 C3142 1.400 . S
C3143 C3144 1.398 . S
C3143 C3149 1.491 . S
C3144 H3135 0.950 . S
C3144 C3143 1.398 . S
C3144 C3145 1.391 . S
C3145 H3133 0.950 . S
C3145 C3141 1.393 . S
C3145 C3144 1.391 . S
C3146 H3136 0.950 . S
C3146 C3147 1.386 . S
C3146 C3148 1.391 . S
C3147 C3146 1.386 . S
C3147 C3151 1.393 . S
C3148 H3137 0.950 . S
C3148 C3146 1.391 . S
C3148 C3149 1.400 . S
C3149 C3143 1.491 . S
C3149 C3148 1.400 . S
C3149 C3150 1.398 . S
C3150 H3138 0.950 . S
C3150 C3149 1.398 . S
C3150 C3151 1.391 . S
C3151 H3139 0.950 . S
C3151 C3147 1.393 . S
C3151 C3150 1.391 . S
H3152 C3160 0.950 . S
H3153 C3165 0.950 . S
H3154 C3162 0.950 . S
H3155 C3164 0.950 . S
H3156 C3166 0.950 . S
H3157 C3168 0.950 . S
H3158 C3170 0.950 . S
H3159 C3171 0.950 . S
C3160 H3152 0.950 . S
C3160 C3161 1.386 . S
C3160 C3162 1.391 . S
C3161 C3160 1.386 . S
C3161 C3165 1.393 . S
C3162 H3154 0.950 . S
C3162 C3160 1.391 . S
C3162 C3163 1.400 . S
C3163 C3162 1.400 . S
C3163 C3164 1.398 . S
C3163 C3169 1.491 . S
C3164 H3155 0.950 . S
C3164 C3163 1.398 . S
C3164 C3165 1.391 . S
C3165 H3153 0.950 . S
C3165 C3161 1.393 . S
C3165 C3164 1.391 . S
C3166 H3156 0.950 . S
C3166 C3167 1.386 . S
C3166 C3168 1.391 . S
C3167 C3166 1.386 . S
C3167 C3171 1.393 . S
C3168 H3157 0.950 . S
C3168 C3166 1.391 . S
C3168 C3169 1.400 . S
C3169 C3163 1.491 . S
C3169 C3168 1.400 . S
C3169 C3170 1.398 . S
C3170 H3158 0.950 . S
C3170 C3169 1.398 . S
C3170 C3171 1.391 . S
C3171 H3159 0.950 . S
C3171 C3167 1.393 . S
C3171 C3170 1.391 . S
H3172 C3180 0.950 . S
H3173 C3185 0.950 . S
H3174 C3182 0.950 . S
H3175 C3184 0.950 . S
H3176 C3186 0.950 . S
H3177 C3188 0.950 . S
H3178 C3190 0.950 . S
H3179 C3191 0.950 . S
C3180 H3172 0.950 . S
C3180 C3181 1.386 . S
C3180 C3182 1.391 . S
C3181 C3180 1.386 . S
C3181 C3185 1.393 . S
C3182 H3174 0.950 . S
C3182 C3180 1.391 . S
C3182 C3183 1.400 . S
C3183 C3182 1.400 . S
C3183 C3184 1.398 . S
C3183 C3189 1.491 . S
C3184 H3175 0.950 . S
C3184 C3183 1.398 . S
C3184 C3185 1.391 . S
C3185 H3173 0.950 . S
C3185 C3181 1.393 . S
C3185 C3184 1.391 . S
C3186 H3176 0.950 . S
C3186 C3187 1.386 . S
C3186 C3188 1.391 . S
C3187 C3186 1.386 . S
C3187 C3191 1.393 . S
C3188 H3177 0.950 . S
C3188 C3186 1.391 . S
C3188 C3189 1.400 . S
C3189 C3183 1.491 . S
C3189 C3188 1.400 . S
C3189 C3190 1.398 . S
C3190 H3178 0.950 . S
C3190 C3189 1.398 . S
C3190 C3191 1.391 . S
C3191 H3179 0.950 . S
C3191 C3187 1.393 . S
C3191 C3190 1.391 . S
H3192 C3200 0.950 . S
H3193 C3205 0.950 . S
H3194 C3202 0.950 . S
H3195 C3204 0.950 . S
H3196 C3206 0.950 . S
H3197 C3208 0.950 . S
H3198 C3210 0.950 . S
H3199 C3211 0.950 . S
C3200 H3192 0.950 . S
C3200 C3201 1.386 . S
C3200 C3202 1.391 . S
C3201 C3200 1.386 . S
C3201 C3205 1.393 . S
C3202 H3194 0.950 . S
C3202 C3200 1.391 . S
C3202 C3203 1.400 . S
C3203 C3202 1.400 . S
C3203 C3204 1.398 . S
C3203 C3209 1.491 . S
C3204 H3195 0.950 . S
C3204 C3203 1.398 . S
C3204 C3205 1.391 . S
C3205 H3193 0.950 . S
C3205 C3201 1.393 . S
C3205 C3204 1.391 . S
C3206 H3196 0.950 . S
C3206 C3207 1.386 . S
C3206 C3208 1.391 . S
C3207 C3206 1.386 . S
C3207 C3211 1.393 . S
C3208 H3197 0.950 . S
C3208 C3206 1.391 . S
C3208 C3209 1.400 . S
C3209 C3203 1.491 . S
C3209 C3208 1.400 . S
C3209 C3210 1.398 . S
C3210 H3198 0.950 . S
C3210 C3209 1.398 . S
C3210 C3211 1.391 . S
C3211 H3199 0.950 . S
C3211 C3207 1.393 . S
C3211 C3210 1.391 . S
H3212 C3220 0.950 . S
H3213 C3225 0.950 . S
H3214 C3222 0.950 . S
H3215 C3224 0.950 . S
H3216 C3226 0.950 . S
H3217 C3228 0.950 . S
H3218 C3230 0.950 . S
H3219 C3231 0.950 . S
C3220 H3212 0.950 . S
C3220 C3221 1.386 . S
C3220 C3222 1.391 . S
C3221 C3220 1.386 . S
C3221 C3225 1.393 . S
C3222 H3214 0.950 . S
C3222 C3220 1.391 . S
C3222 C3223 1.400 . S
C3223 C3222 1.400 . S
C3223 C3224 1.398 . S
C3223 C3229 1.491 . S
C3224 H3215 0.950 . S
C3224 C3223 1.398 . S
C3224 C3225 1.391 . S
C3225 H3213 0.950 . S
C3225 C3221 1.393 . S
C3225 C3224 1.391 . S
C3226 H3216 0.950 . S
C3226 C3227 1.386 . S
C3226 C3228 1.391 . S
C3227 C3226 1.386 . S
C3227 C3231 1.393 . S
C3228 H3217 0.950 . S
C3228 C3226 1.391 . S
C3228 C3229 1.400 . S
C3229 C3223 1.491 . S
C3229 C3228 1.400 . S
C3229 C3230 1.398 . S
C3230 H3218 0.950 . S
C3230 C3229 1.398 . S
C3230 C3231 1.391 . S
C3231 H3219 0.950 . S
C3231 C3227 1.393 . S
C3231 C3230 1.391 . S
H3232 C3240 0.950 . S
H3233 C3245 0.950 . S
H3234 C3242 0.950 . S
H3235 C3244 0.950 . S
H3236 C3246 0.950 . S
H3237 C3248 0.950 . S
H3238 C3250 0.950 . S
H3239 C3251 0.950 1_556 S
C3240 H3232 0.950 . S
C3240 C3241 1.386 . S
C3240 C3242 1.391 . S
C3241 C3240 1.386 . S
C3241 C3245 1.393 . S
C3242 H3234 0.950 . S
C3242 C3240 1.391 . S
C3242 C3243 1.400 . S
C3243 C3242 1.400 . S
C3243 C3244 1.398 . S
C3243 C3249 1.491 . S
C3244 H3235 0.950 . S
C3244 C3243 1.398 . S
C3244 C3245 1.391 . S
C3245 H3233 0.950 . S
C3245 C3241 1.393 . S
C3245 C3244 1.391 . S
C3246 H3236 0.950 . S
C3246 C3247 1.386 . S
C3246 C3248 1.391 . S
C3247 C3246 1.386 . S
C3247 C3251 1.393 . S
C3248 H3237 0.950 . S
C3248 C3246 1.391 . S
C3248 C3249 1.400 . S
C3249 C3243 1.491 . S
C3249 C3248 1.400 . S
C3249 C3250 1.398 . S
C3250 H3238 0.950 . S
C3250 C3249 1.398 . S
C3250 C3251 1.391 . S
C3251 H3239 0.950 1_554 S
C3251 C3247 1.393 . S
C3251 C3250 1.391 . S
H3252 C3260 0.950 . S
H3253 C3265 0.950 . S
H3254 C3262 0.950 . S
H3255 C3264 0.950 . S
H3256 C3266 0.950 . S
H3257 C3268 0.950 . S
H3258 C3270 0.950 . S
H3259 C3271 0.950 . S
C3260 H3252 0.950 . S
C3260 C3261 1.386 . S
C3260 C3262 1.391 . S
C3261 C3260 1.386 . S
C3261 C3265 1.393 . S
C3262 H3254 0.950 . S
C3262 C3260 1.391 . S
C3262 C3263 1.400 . S
C3263 C3262 1.400 . S
C3263 C3264 1.398 . S
C3263 C3269 1.491 . S
C3264 H3255 0.950 . S
C3264 C3263 1.398 . S
C3264 C3265 1.391 . S
C3265 H3253 0.950 . S
C3265 C3261 1.393 . S
C3265 C3264 1.391 . S
C3266 H3256 0.950 . S
C3266 C3267 1.386 . S
C3266 C3268 1.391 . S
C3267 C3266 1.386 . S
C3267 C3271 1.393 . S
C3268 H3257 0.950 . S
C3268 C3266 1.391 . S
C3268 C3269 1.400 . S
C3269 C3263 1.491 . S
C3269 C3268 1.400 . S
C3269 C3270 1.398 . S
C3270 H3258 0.950 . S
C3270 C3269 1.398 . S
C3270 C3271 1.391 . S
C3271 H3259 0.950 . S
C3271 C3267 1.393 . S
C3271 C3270 1.391 . S
H3272 C3280 0.950 . S
H3273 C3285 0.950 . S
H3274 C3282 0.950 . S
H3275 C3284 0.950 . S
H3276 C3286 0.950 . S
H3277 C3288 0.950 . S
H3278 C3290 0.950 . S
H3279 C3291 0.950 . S
C3280 H3272 0.950 . S
C3280 C3281 1.386 . S
C3280 C3282 1.391 . S
C3281 C3280 1.386 . S
C3281 C3285 1.393 . S
C3282 H3274 0.950 . S
C3282 C3280 1.391 . S
C3282 C3283 1.400 . S
C3283 C3282 1.400 . S
C3283 C3284 1.398 . S
C3283 C3289 1.491 . S
C3284 H3275 0.950 . S
C3284 C3283 1.398 . S
C3284 C3285 1.391 . S
C3285 H3273 0.950 . S
C3285 C3281 1.393 . S
C3285 C3284 1.391 . S
C3286 H3276 0.950 . S
C3286 C3287 1.386 . S
C3286 C3288 1.391 . S
C3287 C3286 1.386 . S
C3287 C3291 1.393 . S
C3288 H3277 0.950 . S
C3288 C3286 1.391 . S
C3288 C3289 1.400 . S
C3289 C3283 1.491 . S
C3289 C3288 1.400 . S
C3289 C3290 1.398 . S
C3290 H3278 0.950 . S
C3290 C3289 1.398 . S
C3290 C3291 1.391 . S
C3291 H3279 0.950 . S
C3291 C3287 1.393 . S
C3291 C3290 1.391 . S
H3292 C3300 0.950 . S
H3293 C3305 0.950 . S
H3294 C3302 0.950 . S
H3295 C3304 0.950 . S
H3296 C3306 0.950 . S
H3297 C3308 0.950 . S
H3298 C3310 0.950 . S
H3299 C3311 0.950 . S
C3300 H3292 0.950 . S
C3300 C3301 1.386 . S
C3300 C3302 1.391 . S
C3301 C3300 1.386 . S
C3301 C3305 1.393 . S
C3302 H3294 0.950 . S
C3302 C3300 1.391 . S
C3302 C3303 1.400 . S
C3303 C3302 1.400 . S
C3303 C3304 1.398 . S
C3303 C3309 1.491 . S
C3304 H3295 0.950 . S
C3304 C3303 1.398 . S
C3304 C3305 1.391 . S
C3305 H3293 0.950 . S
C3305 C3301 1.393 . S
C3305 C3304 1.391 . S
C3306 H3296 0.950 . S
C3306 C3307 1.386 . S
C3306 C3308 1.391 . S
C3307 C3306 1.386 . S
C3307 C3311 1.393 . S
C3308 H3297 0.950 . S
C3308 C3306 1.391 . S
C3308 C3309 1.400 . S
C3309 C3303 1.491 . S
C3309 C3308 1.400 . S
C3309 C3310 1.398 . S
C3310 H3298 0.950 . S
C3310 C3309 1.398 . S
C3310 C3311 1.391 . S
C3311 H3299 0.950 . S
C3311 C3307 1.393 . S
C3311 C3310 1.391 . S
H3312 C3320 0.950 . S
H3313 C3325 0.950 . S
H3314 C3322 0.950 . S
H3315 C3324 0.950 . S
H3316 C3326 0.950 . S
H3317 C3328 0.950 . S
H3318 C3330 0.950 . S
H3319 C3331 0.950 . S
C3320 H3312 0.950 . S
C3320 C3321 1.386 . S
C3320 C3322 1.391 . S
C3321 C3320 1.386 . S
C3321 C3325 1.393 . S
C3322 H3314 0.950 . S
C3322 C3320 1.391 . S
C3322 C3323 1.400 . S
C3323 C3322 1.400 . S
C3323 C3324 1.398 . S
C3323 C3329 1.491 . S
C3324 H3315 0.950 . S
C3324 C3323 1.398 . S
C3324 C3325 1.391 . S
C3325 H3313 0.950 . S
C3325 C3321 1.393 . S
C3325 C3324 1.391 . S
C3326 H3316 0.950 . S
C3326 C3327 1.386 . S
C3326 C3328 1.391 . S
C3327 C3326 1.386 . S
C3327 C3331 1.393 . S
C3328 H3317 0.950 . S
C3328 C3326 1.391 . S
C3328 C3329 1.400 . S
C3329 C3323 1.491 . S
C3329 C3328 1.400 . S
C3329 C3330 1.398 . S
C3330 H3318 0.950 . S
C3330 C3329 1.398 . S
C3330 C3331 1.391 . S
C3331 H3319 0.950 . S
C3331 C3327 1.393 . S
C3331 C3330 1.391 . S
H3332 C3340 0.950 . S
H3333 C3345 0.950 . S
H3334 C3342 0.950 . S
H3335 C3344 0.950 . S
H3336 C3346 0.950 . S
H3337 C3348 0.950 . S
H3338 C3350 0.950 . S
H3339 C3351 0.950 . S
C3340 H3332 0.950 . S
C3340 C3341 1.386 . S
C3340 C3342 1.391 . S
C3341 C3340 1.386 . S
C3341 C3345 1.393 . S
C3342 H3334 0.950 . S
C3342 C3340 1.391 . S
C3342 C3343 1.400 . S
C3343 C3342 1.400 . S
C3343 C3344 1.398 . S
C3343 C3349 1.491 . S
C3344 H3335 0.950 . S
C3344 C3343 1.398 . S
C3344 C3345 1.391 . S
C3345 H3333 0.950 . S
C3345 C3341 1.393 . S
C3345 C3344 1.391 . S
C3346 H3336 0.950 . S
C3346 C3347 1.386 . S
C3346 C3348 1.391 . S
C3347 C3346 1.386 . S
C3347 C3351 1.393 . S
C3348 H3337 0.950 . S
C3348 C3346 1.391 . S
C3348 C3349 1.400 . S
C3349 C3343 1.491 . S
C3349 C3348 1.400 . S
C3349 C3350 1.398 . S
C3350 H3338 0.950 . S
C3350 C3349 1.398 . S
C3350 C3351 1.391 . S
C3351 H3339 0.950 . S
C3351 C3347 1.393 . S
C3351 C3350 1.391 . S
H3352 C3360 0.950 . S
H3353 C3365 0.950 . S
H3354 C3362 0.950 . S
H3355 C3364 0.950 . S
H3356 C3366 0.950 1_554 S
H3357 C3368 0.950 . S
H3358 C3370 0.950 . S
H3359 C3371 0.950 . S
C3360 H3352 0.950 . S
C3360 C3361 1.386 . S
C3360 C3362 1.391 . S
C3361 C3360 1.386 . S
C3361 C3365 1.393 . S
C3362 H3354 0.950 . S
C3362 C3360 1.391 . S
C3362 C3363 1.400 . S
C3363 C3362 1.400 . S
C3363 C3364 1.398 . S
C3363 C3369 1.491 . S
C3364 H3355 0.950 . S
C3364 C3363 1.398 . S
C3364 C3365 1.391 . S
C3365 H3353 0.950 . S
C3365 C3361 1.393 . S
C3365 C3364 1.391 . S
C3366 H3356 0.950 1_556 S
C3366 C3367 1.386 . S
C3366 C3368 1.391 . S
C3367 C3366 1.386 . S
C3367 C3371 1.393 . S
C3368 H3357 0.950 . S
C3368 C3366 1.391 . S
C3368 C3369 1.400 . S
C3369 C3363 1.491 . S
C3369 C3368 1.400 . S
C3369 C3370 1.398 . S
C3370 H3358 0.950 . S
C3370 C3369 1.398 . S
C3370 C3371 1.391 . S
C3371 H3359 0.950 . S
C3371 C3367 1.393 . S
C3371 C3370 1.391 . S
H3372 C3380 0.950 . S
H3373 C3385 0.950 . S
H3374 C3382 0.950 . S
H3375 C3384 0.950 . S
H3376 C3386 0.950 . S
H3377 C3388 0.950 . S
H3378 C3390 0.950 . S
H3379 C3391 0.950 . S
C3380 H3372 0.950 . S
C3380 C3381 1.386 . S
C3380 C3382 1.391 . S
C3381 C3380 1.386 . S
C3381 C3385 1.393 . S
C3382 H3374 0.950 . S
C3382 C3380 1.391 . S
C3382 C3383 1.400 . S
C3383 C3382 1.400 . S
C3383 C3384 1.398 . S
C3383 C3389 1.491 . S
C3384 H3375 0.950 . S
C3384 C3383 1.398 . S
C3384 C3385 1.391 . S
C3385 H3373 0.950 . S
C3385 C3381 1.393 . S
C3385 C3384 1.391 . S
C3386 H3376 0.950 . S
C3386 C3387 1.386 . S
C3386 C3388 1.391 . S
C3387 C3386 1.386 . S
C3387 C3391 1.393 . S
C3388 H3377 0.950 . S
C3388 C3386 1.391 . S
C3388 C3389 1.400 . S
C3389 C3383 1.491 . S
C3389 C3388 1.400 . S
C3389 C3390 1.398 . S
C3390 H3378 0.950 . S
C3390 C3389 1.398 . S
C3390 C3391 1.391 . S
C3391 H3379 0.950 . S
C3391 C3387 1.393 . S
C3391 C3390 1.391 . S
H3392 C3400 0.950 . S
H3393 C3405 0.950 . S
H3394 C3402 0.950 . S
H3395 C3404 0.950 . S
H3396 C3406 0.950 . S
H3397 C3408 0.950 . S
H3398 C3410 0.950 . S
H3399 C3411 0.959 . S
C3400 H3392 0.950 . S
C3400 C3401 1.386 1_565 S
C3400 C3402 1.391 . S
C3401 C3400 1.386 1_545 S
C3401 C3405 1.393 . S
C3402 H3394 0.950 . S
C3402 C3400 1.391 . S
C3402 C3403 1.400 1_565 S
C3403 C3402 1.400 1_545 S
C3403 C3404 1.398 . S
C3403 C3409 1.491 . S
C3404 H3395 0.950 . S
C3404 C3403 1.398 . S
C3404 C3405 1.391 . S
C3405 H3393 0.950 . S
C3405 C3401 1.393 . S
C3405 C3404 1.391 . S
C3406 H3396 0.950 . S
C3406 C3407 1.386 . S
C3406 C3408 1.391 . S
C3407 C3406 1.386 . S
C3407 C3411 1.382 1_545 S
C3408 H3397 0.950 . S
C3408 C3406 1.391 . S
C3408 C3409 1.400 . S
C3409 C3403 1.491 . S
C3409 C3408 1.400 . S
C3409 C3410 1.398 1_545 S
C3410 H3398 0.950 . S
C3410 C3409 1.398 1_565 S
C3410 C3411 1.392 . S
C3411 H3399 0.959 . S
C3411 C3407 1.382 1_565 S
C3411 C3410 1.392 . S
H3412 C3420 0.950 . S
H3413 C3425 0.950 . S
H3414 C3422 0.950 . S
H3415 C3424 0.950 . S
H3416 C3426 0.950 . S
H3417 C3428 0.950 . S
H3418 C3430 0.950 . S
H3419 C3431 0.950 . S
C3420 H3412 0.950 . S
C3420 C3421 1.386 . S
C3420 C3422 1.391 . S
C3421 C3420 1.386 . S
C3421 C3425 1.393 . S
C3422 H3414 0.950 . S
C3422 C3420 1.391 . S
C3422 C3423 1.400 . S
C3423 C3422 1.400 . S
C3423 C3424 1.398 . S
C3423 C3429 1.491 . S
C3424 H3415 0.950 . S
C3424 C3423 1.398 . S
C3424 C3425 1.391 . S
C3425 H3413 0.950 . S
C3425 C3421 1.393 . S
C3425 C3424 1.391 . S
C3426 H3416 0.950 . S
C3426 C3427 1.386 . S
C3426 C3428 1.391 . S
C3427 C3426 1.386 . S
C3427 C3431 1.393 . S
C3428 H3417 0.950 . S
C3428 C3426 1.391 . S
C3428 C3429 1.400 . S
C3429 C3423 1.491 . S
C3429 C3428 1.400 . S
C3429 C3430 1.398 . S
C3430 H3418 0.950 . S
C3430 C3429 1.398 . S
C3430 C3431 1.391 . S
C3431 H3419 0.950 . S
C3431 C3427 1.393 . S
C3431 C3430 1.391 . S
H3432 C3440 0.950 . S
H3433 C3445 0.950 . S
H3434 C3442 0.950 . S
H3435 C3444 0.950 . S
H3436 C3446 0.950 . S
H3437 C3448 0.950 . S
H3438 C3450 0.950 . S
H3439 C3451 0.950 . S
C3440 H3432 0.950 . S
C3440 C3441 1.386 . S
C3440 C3442 1.391 . S
C3441 C3440 1.386 . S
C3441 C3445 1.393 . S
C3442 H3434 0.950 . S
C3442 C3440 1.391 . S
C3442 C3443 1.400 . S
C3443 C3442 1.400 . S
C3443 C3444 1.398 . S
C3443 C3449 1.491 . S
C3444 H3435 0.950 . S
C3444 C3443 1.398 . S
C3444 C3445 1.391 . S
C3445 H3433 0.950 . S
C3445 C3441 1.393 . S
C3445 C3444 1.391 . S
C3446 H3436 0.950 . S
C3446 C3447 1.386 . S
C3446 C3448 1.391 . S
C3447 C3446 1.386 . S
C3447 C3451 1.393 . S
C3448 H3437 0.950 . S
C3448 C3446 1.391 . S
C3448 C3449 1.400 . S
C3449 C3443 1.491 . S
C3449 C3448 1.400 . S
C3449 C3450 1.398 . S
C3450 H3438 0.950 . S
C3450 C3449 1.398 . S
C3450 C3451 1.391 . S
C3451 H3439 0.950 . S
C3451 C3447 1.393 . S
C3451 C3450 1.391 . S
H3452 C3460 0.950 . S
H3453 C3465 0.950 . S
H3454 C3462 0.950 . S
H3455 C3464 0.950 . S
H3456 C3466 0.950 . S
H3457 C3468 0.950 . S
H3458 C3470 0.950 . S
H3459 C3471 0.950 . S
C3460 H3452 0.950 . S
C3460 C3461 1.386 . S
C3460 C3462 1.391 . S
C3461 C3460 1.386 . S
C3461 C3465 1.393 . S
C3462 H3454 0.950 . S
C3462 C3460 1.391 . S
C3462 C3463 1.400 . S
C3463 C3462 1.400 . S
C3463 C3464 1.398 . S
C3463 C3469 1.491 . S
C3464 H3455 0.950 . S
C3464 C3463 1.398 . S
C3464 C3465 1.391 . S
C3465 H3453 0.950 . S
C3465 C3461 1.393 . S
C3465 C3464 1.391 . S
C3466 H3456 0.950 . S
C3466 C3467 1.386 . S
C3466 C3468 1.391 . S
C3467 C3466 1.386 . S
C3467 C3471 1.393 . S
C3468 H3457 0.950 . S
C3468 C3466 1.391 . S
C3468 C3469 1.400 . S
C3469 C3463 1.491 . S
C3469 C3468 1.400 . S
C3469 C3470 1.398 . S
C3470 H3458 0.950 . S
C3470 C3469 1.398 . S
C3470 C3471 1.391 . S
C3471 H3459 0.950 . S
C3471 C3467 1.393 . S
C3471 C3470 1.391 . S
H3472 C3480 0.950 . S
H3473 C3485 0.950 . S
H3474 C3482 0.950 . S
H3475 C3484 0.950 . S
H3476 C3486 0.950 . S
H3477 C3488 0.950 . S
H3478 C3490 0.950 . S
H3479 C3491 0.950 1_565 S
C3480 H3472 0.950 . S
C3480 C3481 1.386 . S
C3480 C3482 1.391 . S
C3481 C3480 1.386 . S
C3481 C3485 1.393 1_565 S
C3482 H3474 0.950 . S
C3482 C3480 1.391 . S
C3482 C3483 1.400 1_565 S
C3483 C3482 1.400 1_545 S
C3483 C3484 1.398 . S
C3483 C3489 1.491 . S
C3484 H3475 0.950 . S
C3484 C3483 1.398 . S
C3484 C3485 1.391 . S
C3485 H3473 0.950 . S
C3485 C3481 1.393 1_545 S
C3485 C3484 1.391 . S
C3486 H3476 0.950 . S
C3486 C3487 1.386 . S
C3486 C3488 1.391 . S
C3487 C3486 1.386 . S
C3487 C3491 1.393 . S
C3488 H3477 0.950 . S
C3488 C3486 1.391 . S
C3488 C3489 1.400 . S
C3489 C3483 1.491 . S
C3489 C3488 1.400 . S
C3489 C3490 1.398 1_545 S
C3490 H3478 0.950 . S
C3490 C3489 1.398 1_565 S
C3490 C3491 1.391 1_565 S
C3491 H3479 0.950 1_545 S
C3491 C3487 1.393 . S
C3491 C3490 1.391 1_545 S
H3492 C3500 0.950 . S
H3493 C3505 0.950 . S
H3494 C3502 0.950 . S
H3495 C3504 0.950 . S
H3496 C3506 0.950 . S
H3497 C3508 0.950 . S
H3498 C3510 0.950 . S
H3499 C3511 0.950 . S
C3500 H3492 0.950 . S
C3500 C3501 1.386 . S
C3500 C3502 1.391 . S
C3501 C3500 1.386 . S
C3501 C3505 1.393 . S
C3502 H3494 0.950 . S
C3502 C3500 1.391 . S
C3502 C3503 1.400 . S
C3503 C3502 1.400 . S
C3503 C3504 1.398 . S
C3503 C3509 1.491 . S
C3504 H3495 0.950 . S
C3504 C3503 1.398 . S
C3504 C3505 1.391 . S
C3505 H3493 0.950 . S
C3505 C3501 1.393 . S
C3505 C3504 1.391 . S
C3506 H3496 0.950 . S
C3506 C3507 1.386 . S
C3506 C3508 1.391 . S
C3507 C3506 1.386 . S
C3507 C3511 1.393 . S
C3508 H3497 0.950 . S
C3508 C3506 1.391 . S
C3508 C3509 1.400 . S
C3509 C3503 1.491 . S
C3509 C3508 1.400 . S
C3509 C3510 1.398 . S
C3510 H3498 0.950 . S
C3510 C3509 1.398 . S
C3510 C3511 1.391 . S
C3511 H3499 0.950 . S
C3511 C3507 1.393 . S
C3511 C3510 1.391 . S
H3512 C3520 0.927 1_565 S
H3513 C3525 0.950 . S
H3514 C3522 0.950 . S
H3515 C3524 0.950 . S
H3516 C3526 0.950 . S
H3517 C3528 0.956 . S
H3518 C3530 0.950 . S
H3519 C3531 0.950 . S
C3520 H3512 0.927 1_545 S
C3520 C3521 1.396 . S
C3520 C3522 1.389 1_545 S
C3521 C3520 1.396 . S
C3521 C3525 1.393 . S
C3522 H3514 0.950 . S
C3522 C3520 1.389 1_565 S
C3522 C3523 1.400 . S
C3523 C3522 1.400 . S
C3523 C3524 1.398 1_565 S
C3523 C3529 1.491 . S
C3524 H3515 0.950 . S
C3524 C3523 1.398 1_545 S
C3524 C3525 1.391 . S
C3525 H3513 0.950 . S
C3525 C3521 1.393 . S
C3525 C3524 1.391 . S
C3526 H3516 0.950 . S
C3526 C3527 1.386 . S
C3526 C3528 1.391 . S
C3527 C3526 1.386 . S
C3527 C3531 1.393 . S
C3528 H3517 0.956 . S
C3528 C3526 1.391 . S
C3528 C3529 1.400 . S
C3529 C3523 1.491 . S
C3529 C3528 1.400 . S
C3529 C3530 1.398 . S
C3530 H3518 0.950 . S
C3530 C3529 1.398 . S
C3530 C3531 1.391 . S
C3531 H3519 0.950 . S
C3531 C3527 1.393 . S
C3531 C3530 1.391 . S
H3532 C3540 0.950 . S
H3533 C3545 0.950 . S
H3534 C3542 0.950 . S
H3535 C3544 0.950 . S
H3536 C3546 0.950 . S
H3537 C3548 0.950 . S
H3538 C3550 0.950 . S
H3539 C3551 0.950 . S
C3540 H3532 0.950 . S
C3540 C3541 1.386 . S
C3540 C3542 1.391 . S
C3541 C3540 1.386 . S
C3541 C3545 1.393 . S
C3542 H3534 0.950 . S
C3542 C3540 1.391 . S
C3542 C3543 1.400 . S
C3543 C3542 1.400 . S
C3543 C3544 1.398 . S
C3543 C3549 1.491 . S
C3544 H3535 0.950 . S
C3544 C3543 1.398 . S
C3544 C3545 1.391 . S
C3545 H3533 0.950 . S
C3545 C3541 1.393 . S
C3545 C3544 1.391 . S
C3546 H3536 0.950 . S
C3546 C3547 1.386 . S
C3546 C3548 1.391 . S
C3547 C3546 1.386 . S
C3547 C3551 1.393 . S
C3548 H3537 0.950 . S
C3548 C3546 1.391 . S
C3548 C3549 1.400 . S
C3549 C3543 1.491 . S
C3549 C3548 1.400 . S
C3549 C3550 1.398 . S
C3550 H3538 0.950 . S
C3550 C3549 1.398 . S
C3550 C3551 1.391 . S
C3551 H3539 0.950 . S
C3551 C3547 1.393 . S
C3551 C3550 1.391 . S
H3552 C3560 0.950 . S
H3553 C3565 0.950 . S
H3554 C3562 0.950 . S
H3555 C3564 0.950 . S
H3556 C3566 0.950 . S
H3557 C3568 0.950 . S
H3558 C3570 0.954 . S
H3559 C3571 0.950 1_554 S
C3560 H3552 0.950 . S
C3560 C3561 1.386 . S
C3560 C3562 1.391 . S
C3561 C3560 1.386 . S
C3561 C3565 1.393 1_554 S
C3562 H3554 0.950 . S
C3562 C3560 1.391 . S
C3562 C3563 1.400 1_554 S
C3563 C3562 1.400 1_556 S
C3563 C3564 1.398 . S
C3563 C3569 1.491 . S
C3564 H3555 0.950 . S
C3564 C3563 1.398 . S
C3564 C3565 1.391 . S
C3565 H3553 0.950 . S
C3565 C3561 1.393 1_556 S
C3565 C3564 1.391 . S
C3566 H3556 0.950 . S
C3566 C3567 1.386 . S
C3566 C3568 1.391 . S
C3567 C3566 1.386 . S
C3567 C3571 1.393 . S
C3568 H3557 0.950 . S
C3568 C3566 1.391 . S
C3568 C3569 1.400 . S
C3569 C3563 1.491 . S
C3569 C3568 1.400 . S
C3569 C3570 1.396 1_556 S
C3570 H3558 0.954 . S
C3570 C3569 1.396 1_554 S
C3570 C3571 1.389 1_554 S
C3571 H3559 0.950 1_556 S
C3571 C3567 1.393 . S
C3571 C3570 1.389 1_556 S
H3572 C3580 0.950 . S
H3573 C3585 0.950 1_556 S
H3574 C3582 0.950 . S
H3575 C3584 0.950 1_556 S
H3576 C3586 0.950 1_556 S
H3577 C3588 0.950 1_556 S
H3578 C3590 0.950 . S
H3579 C3591 0.950 . S
C3580 H3572 0.950 . S
C3580 C3581 1.386 . S
C3580 C3582 1.391 . S
C3581 C3580 1.386 . S
C3581 C3585 1.393 . S
C3582 H3574 0.950 . S
C3582 C3580 1.391 . S
C3582 C3583 1.400 . S
C3583 C3582 1.400 . S
C3583 C3584 1.398 . S
C3583 C3589 1.491 . S
C3584 H3575 0.950 1_554 S
C3584 C3583 1.398 . S
C3584 C3585 1.391 . S
C3585 H3573 0.950 1_554 S
C3585 C3581 1.393 . S
C3585 C3584 1.391 . S
C3586 H3576 0.950 1_554 S
C3586 C3587 1.386 . S
C3586 C3588 1.391 . S
C3587 C3586 1.386 . S
C3587 C3591 1.393 . S
C3588 H3577 0.950 1_554 S
C3588 C3586 1.391 . S
C3588 C3589 1.400 . S
C3589 C3583 1.491 . S
C3589 C3588 1.400 . S
C3589 C3590 1.398 . S
C3590 H3578 0.950 . S
C3590 C3589 1.398 . S
C3590 C3591 1.391 . S
C3591 H3579 0.950 . S
C3591 C3587 1.393 . S
C3591 C3590 1.391 . S
H3592 C3600 0.950 . S
H3593 C3605 0.950 . S
H3594 C3602 0.950 . S
H3595 C3604 0.950 . S
H3596 C3606 0.950 . S
H3597 C3608 0.950 . S
H3598 C3610 0.950 . S
H3599 C3611 0.950 . S
C3600 H3592 0.950 . S
C3600 C3601 1.386 . S
C3600 C3602 1.391 . S
C3601 C3600 1.386 . S
C3601 C3605 1.393 . S
C3602 H3594 0.950 . S
C3602 C3600 1.391 . S
C3602 C3603 1.400 . S
C3603 C3602 1.400 . S
C3603 C3604 1.398 . S
C3603 C3609 1.491 . S
C3604 H3595 0.950 . S
C3604 C3603 1.398 . S
C3604 C3605 1.391 . S
C3605 H3593 0.950 . S
C3605 C3601 1.393 . S
C3605 C3604 1.391 . S
C3606 H3596 0.950 . S
C3606 C3607 1.386 . S
C3606 C3608 1.391 . S
C3607 C3606 1.386 . S
C3607 C3611 1.393 . S
C3608 H3597 0.950 . S
C3608 C3606 1.391 . S
C3608 C3609 1.400 . S
C3609 C3603 1.491 . S
C3609 C3608 1.400 . S
C3609 C3610 1.398 . S
C3610 H3598 0.950 . S
C3610 C3609 1.398 . S
C3610 C3611 1.391 . S
C3611 H3599 0.950 . S
C3611 C3607 1.393 . S
C3611 C3610 1.391 . S
H3612 C3620 0.950 . S
H3613 C3625 0.950 . S
H3614 C3622 0.950 . S
H3615 C3624 0.950 . S
H3616 C3626 0.950 . S
H3617 C3628 0.950 . S
H3618 C3630 0.950 . S
H3619 C3631 0.950 . S
C3620 H3612 0.950 . S
C3620 C3621 1.386 . S
C3620 C3622 1.391 . S
C3621 C3620 1.386 . S
C3621 C3625 1.393 . S
C3622 H3614 0.950 . S
C3622 C3620 1.391 . S
C3622 C3623 1.400 . S
C3623 C3622 1.400 . S
C3623 C3624 1.398 . S
C3623 C3629 1.491 . S
C3624 H3615 0.950 . S
C3624 C3623 1.398 . S
C3624 C3625 1.391 . S
C3625 H3613 0.950 . S
C3625 C3621 1.393 . S
C3625 C3624 1.391 . S
C3626 H3616 0.950 . S
C3626 C3627 1.386 . S
C3626 C3628 1.391 . S
C3627 C3626 1.386 . S
C3627 C3631 1.393 . S
C3628 H3617 0.950 . S
C3628 C3626 1.391 . S
C3628 C3629 1.400 . S
C3629 C3623 1.491 . S
C3629 C3628 1.400 . S
C3629 C3630 1.398 . S
C3630 H3618 0.950 . S
C3630 C3629 1.398 . S
C3630 C3631 1.391 . S
C3631 H3619 0.950 . S
C3631 C3627 1.393 . S
C3631 C3630 1.391 . S
H3632 C3640 0.950 . S
H3633 C3645 0.950 . S
H3634 C3642 0.950 . S
H3635 C3644 0.950 . S
H3636 C3646 0.950 . S
H3637 C3648 0.950 . S
H3638 C3650 0.950 . S
H3639 C3651 0.950 . S
C3640 H3632 0.950 . S
C3640 C3641 1.386 . S
C3640 C3642 1.391 . S
C3641 C3640 1.386 . S
C3641 C3645 1.393 . S
C3642 H3634 0.950 . S
C3642 C3640 1.391 . S
C3642 C3643 1.400 . S
C3643 C3642 1.400 . S
C3643 C3644 1.398 . S
C3643 C3649 1.491 . S
C3644 H3635 0.950 . S
C3644 C3643 1.398 . S
C3644 C3645 1.391 . S
C3645 H3633 0.950 . S
C3645 C3641 1.393 . S
C3645 C3644 1.391 . S
C3646 H3636 0.950 . S
C3646 C3647 1.386 . S
C3646 C3648 1.391 . S
C3647 C3646 1.386 . S
C3647 C3651 1.393 . S
C3648 H3637 0.950 . S
C3648 C3646 1.391 . S
C3648 C3649 1.400 . S
C3649 C3643 1.491 . S
C3649 C3648 1.400 . S
C3649 C3650 1.398 . S
C3650 H3638 0.950 . S
C3650 C3649 1.398 . S
C3650 C3651 1.391 . S
C3651 H3639 0.950 . S
C3651 C3647 1.393 . S
C3651 C3650 1.391 . S
H3652 C3660 0.950 . S
H3653 C3665 0.950 . S
H3654 C3662 0.950 . S
H3655 C3664 0.950 . S
H3656 C3666 0.950 . S
H3657 C3668 0.950 . S
H3658 C3670 0.950 . S
H3659 C3671 0.950 . S
C3660 H3652 0.950 . S
C3660 C3661 1.386 . S
C3660 C3662 1.391 . S
C3661 C3660 1.386 . S
C3661 C3665 1.393 . S
C3662 H3654 0.950 . S
C3662 C3660 1.391 . S
C3662 C3663 1.400 . S
C3663 C3662 1.400 . S
C3663 C3664 1.398 . S
C3663 C3669 1.491 . S
C3664 H3655 0.950 . S
C3664 C3663 1.398 . S
C3664 C3665 1.391 . S
C3665 H3653 0.950 . S
C3665 C3661 1.393 . S
C3665 C3664 1.391 . S
C3666 H3656 0.950 . S
C3666 C3667 1.386 . S
C3666 C3668 1.391 . S
C3667 C3666 1.386 . S
C3667 C3671 1.393 . S
C3668 H3657 0.950 . S
C3668 C3666 1.391 . S
C3668 C3669 1.400 . S
C3669 C3663 1.491 . S
C3669 C3668 1.400 . S
C3669 C3670 1.398 . S
C3670 H3658 0.950 . S
C3670 C3669 1.398 . S
C3670 C3671 1.391 . S
C3671 H3659 0.950 . S
C3671 C3667 1.393 . S
C3671 C3670 1.391 . S
H3672 C3680 0.950 . S
H3673 C3685 0.950 . S
H3674 C3682 0.950 . S
H3675 C3684 0.950 . S
H3676 C3686 0.950 . S
H3677 C3688 0.950 . S
H3678 C3690 0.950 . S
H3679 C3691 0.950 . S
C3680 H3672 0.950 . S
C3680 C3681 1.386 . S
C3680 C3682 1.391 . S
C3681 C3680 1.386 . S
C3681 C3685 1.393 . S
C3682 H3674 0.950 . S
C3682 C3680 1.391 . S
C3682 C3683 1.400 . S
C3683 C3682 1.400 . S
C3683 C3684 1.398 . S
C3683 C3689 1.491 . S
C3684 H3675 0.950 . S
C3684 C3683 1.398 . S
C3684 C3685 1.391 . S
C3685 H3673 0.950 . S
C3685 C3681 1.393 . S
C3685 C3684 1.391 . S
C3686 H3676 0.950 . S
C3686 C3687 1.386 . S
C3686 C3688 1.391 . S
C3687 C3686 1.386 . S
C3687 C3691 1.393 . S
C3688 H3677 0.950 . S
C3688 C3686 1.391 . S
C3688 C3689 1.400 . S
C3689 C3683 1.491 . S
C3689 C3688 1.400 . S
C3689 C3690 1.398 . S
C3690 H3678 0.950 . S
C3690 C3689 1.398 . S
C3690 C3691 1.391 . S
C3691 H3679 0.950 . S
C3691 C3687 1.393 . S
C3691 C3690 1.391 . S
H3692 C3700 0.950 . S
H3693 C3705 0.950 . S
H3694 C3702 0.950 . S
H3695 C3704 0.950 . S
H3696 C3706 0.950 . S
H3697 C3708 0.950 . S
H3698 C3710 0.950 . S
H3699 C3711 0.950 . S
C3700 H3692 0.950 . S
C3700 C3701 1.386 . S
C3700 C3702 1.391 . S
C3701 C3700 1.386 . S
C3701 C3705 1.393 . S
C3702 H3694 0.950 . S
C3702 C3700 1.391 . S
C3702 C3703 1.400 . S
C3703 C3702 1.400 . S
C3703 C3704 1.398 . S
C3703 C3709 1.491 . S
C3704 H3695 0.950 . S
C3704 C3703 1.398 . S
C3704 C3705 1.391 . S
C3705 H3693 0.950 . S
C3705 C3701 1.393 . S
C3705 C3704 1.391 . S
C3706 H3696 0.950 . S
C3706 C3707 1.386 . S
C3706 C3708 1.391 . S
C3707 C3706 1.386 . S
C3707 C3711 1.393 . S
C3708 H3697 0.950 . S
C3708 C3706 1.391 . S
C3708 C3709 1.400 . S
C3709 C3703 1.491 . S
C3709 C3708 1.400 . S
C3709 C3710 1.398 . S
C3710 H3698 0.950 . S
C3710 C3709 1.398 . S
C3710 C3711 1.391 . S
C3711 H3699 0.950 . S
C3711 C3707 1.393 . S
C3711 C3710 1.391 . S
H3712 C3720 0.950 . S
H3713 C3725 0.950 . S
H3714 C3722 0.950 . S
H3715 C3724 0.950 . S
H3716 C3726 0.950 . S
H3717 C3728 0.950 . S
H3718 C3730 0.950 . S
H3719 C3731 0.950 . S
C3720 H3712 0.950 . S
C3720 C3721 1.386 . S
C3720 C3722 1.391 . S
C3721 C3720 1.386 . S
C3721 C3725 1.393 . S
C3722 H3714 0.950 . S
C3722 C3720 1.391 . S
C3722 C3723 1.400 . S
C3723 C3722 1.400 . S
C3723 C3724 1.398 . S
C3723 C3729 1.491 . S
C3724 H3715 0.950 . S
C3724 C3723 1.398 . S
C3724 C3725 1.391 . S
C3725 H3713 0.950 . S
C3725 C3721 1.393 . S
C3725 C3724 1.391 . S
C3726 H3716 0.950 . S
C3726 C3727 1.386 . S
C3726 C3728 1.391 . S
C3727 C3726 1.386 . S
C3727 C3731 1.393 . S
C3728 H3717 0.950 . S
C3728 C3726 1.391 . S
C3728 C3729 1.400 . S
C3729 C3723 1.491 . S
C3729 C3728 1.400 . S
C3729 C3730 1.398 . S
C3730 H3718 0.950 . S
C3730 C3729 1.398 . S
C3730 C3731 1.391 . S
C3731 H3719 0.950 . S
C3731 C3727 1.393 . S
C3731 C3730 1.391 . S
H3732 C3740 0.950 . S
H3733 C3745 0.950 . S
H3734 C3742 0.950 . S
H3735 C3744 0.950 . S
H3736 C3746 0.950 . S
H3737 C3748 0.950 . S
H3738 C3750 0.950 . S
H3739 C3751 0.950 . S
C3740 H3732 0.950 . S
C3740 C3741 1.386 . S
C3740 C3742 1.391 . S
C3741 C3740 1.386 . S
C3741 C3745 1.393 . S
C3742 H3734 0.950 . S
C3742 C3740 1.391 . S
C3742 C3743 1.400 . S
C3743 C3742 1.400 . S
C3743 C3744 1.398 . S
C3743 C3749 1.491 . S
C3744 H3735 0.950 . S
C3744 C3743 1.398 . S
C3744 C3745 1.391 . S
C3745 H3733 0.950 . S
C3745 C3741 1.393 . S
C3745 C3744 1.391 . S
C3746 H3736 0.950 . S
C3746 C3747 1.386 . S
C3746 C3748 1.391 . S
C3747 C3746 1.386 . S
C3747 C3751 1.393 . S
C3748 H3737 0.950 . S
C3748 C3746 1.391 . S
C3748 C3749 1.400 . S
C3749 C3743 1.491 . S
C3749 C3748 1.400 . S
C3749 C3750 1.398 . S
C3750 H3738 0.950 . S
C3750 C3749 1.398 . S
C3750 C3751 1.391 . S
C3751 H3739 0.950 . S
C3751 C3747 1.393 . S
C3751 C3750 1.391 . S
H3752 C3760 0.950 . S
H3753 C3765 0.950 1_554 S
H3754 C3762 0.950 . S
H3755 C3764 0.937 1_554 S
H3756 C3766 0.950 . S
H3757 C3768 0.950 . S
H3758 C3770 0.950 . S
H3759 C3771 0.950 . S
C3760 H3752 0.950 . S
C3760 C3761 1.386 . S
C3760 C3762 1.391 . S
C3761 C3760 1.386 . S
C3761 C3765 1.393 . S
C3762 H3754 0.950 . S
C3762 C3760 1.391 . S
C3762 C3763 1.400 . S
C3763 C3762 1.400 . S
C3763 C3764 1.411 . S
C3763 C3769 1.491 . S
C3764 H3755 0.937 1_556 S
C3764 C3763 1.411 . S
C3764 C3765 1.391 . S
C3765 H3753 0.950 1_556 S
C3765 C3761 1.393 . S
C3765 C3764 1.391 . S
C3766 H3756 0.950 . S
C3766 C3767 1.379 1_554 S
C3766 C3768 1.391 . S
C3767 C3766 1.379 1_556 S
C3767 C3771 1.400 . S
C3768 H3757 0.950 . S
C3768 C3766 1.391 . S
C3768 C3769 1.400 1_554 S
C3769 C3763 1.491 . S
C3769 C3768 1.400 1_556 S
C3769 C3770 1.398 . S
C3770 H3758 0.950 . S
C3770 C3769 1.398 . S
C3770 C3771 1.391 . S
C3771 H3759 0.950 . S
C3771 C3767 1.400 . S
C3771 C3770 1.391 . S
H3772 C3780 0.950 . S
H3773 C3785 0.950 . S
H3774 C3782 0.950 . S
H3775 C3784 0.950 . S
H3776 C3786 0.950 . S
H3777 C3788 0.950 . S
H3778 C3790 0.950 . S
H3779 C3791 0.950 . S
C3780 H3772 0.950 . S
C3780 C3781 1.386 . S
C3780 C3782 1.391 . S
C3781 C3780 1.386 . S
C3781 C3785 1.393 . S
C3782 H3774 0.950 . S
C3782 C3780 1.391 . S
C3782 C3783 1.400 . S
C3783 C3782 1.400 . S
C3783 C3784 1.398 . S
C3783 C3789 1.491 . S
C3784 H3775 0.950 . S
C3784 C3783 1.398 . S
C3784 C3785 1.391 . S
C3785 H3773 0.950 . S
C3785 C3781 1.393 . S
C3785 C3784 1.391 . S
C3786 H3776 0.950 . S
C3786 C3787 1.386 . S
C3786 C3788 1.391 . S
C3787 C3786 1.386 . S
C3787 C3791 1.393 . S
C3788 H3777 0.950 . S
C3788 C3786 1.391 . S
C3788 C3789 1.400 . S
C3789 C3783 1.491 . S
C3789 C3788 1.400 . S
C3789 C3790 1.398 . S
C3790 H3778 0.950 . S
C3790 C3789 1.398 . S
C3790 C3791 1.391 . S
C3791 H3779 0.950 . S
C3791 C3787 1.393 . S
C3791 C3790 1.391 . S
H3792 C3800 0.950 . S
H3793 C3805 0.950 . S
H3794 C3802 0.950 . S
H3795 C3804 0.950 . S
H3796 C3806 0.950 . S
H3797 C3808 0.950 . S
H3798 C3810 0.950 . S
H3799 C3811 0.950 . S
C3800 H3792 0.950 . S
C3800 C3801 1.386 . S
C3800 C3802 1.391 . S
C3801 C3800 1.386 . S
C3801 C3805 1.393 . S
C3802 H3794 0.950 . S
C3802 C3800 1.391 . S
C3802 C3803 1.400 . S
C3803 C3802 1.400 . S
C3803 C3804 1.398 . S
C3803 C3809 1.491 . S
C3804 H3795 0.950 . S
C3804 C3803 1.398 . S
C3804 C3805 1.391 . S
C3805 H3793 0.950 . S
C3805 C3801 1.393 . S
C3805 C3804 1.391 . S
C3806 H3796 0.950 . S
C3806 C3807 1.386 . S
C3806 C3808 1.391 . S
C3807 C3806 1.386 . S
C3807 C3811 1.393 . S
C3808 H3797 0.950 . S
C3808 C3806 1.391 . S
C3808 C3809 1.400 . S
C3809 C3803 1.491 . S
C3809 C3808 1.400 . S
C3809 C3810 1.398 . S
C3810 H3798 0.950 . S
C3810 C3809 1.398 . S
C3810 C3811 1.391 . S
C3811 H3799 0.950 . S
C3811 C3807 1.393 . S
C3811 C3810 1.391 . S
H3812 C3820 0.950 . S
H3813 C3825 0.950 1_455 S
H3814 C3822 0.950 . S
H3815 C3824 0.950 . S
H3816 C3826 0.950 . S
H3817 C3828 0.950 . S
H3818 C3830 0.950 . S
H3819 C3831 0.950 . S
C3820 H3812 0.950 . S
C3820 C3821 1.371 1_655 S
C3820 C3822 1.391 . S
C3821 C3820 1.371 1_455 S
C3821 C3825 1.388 1_455 S
C3822 H3814 0.950 . S
C3822 C3820 1.391 . S
C3822 C3823 1.400 . S
C3823 C3822 1.400 . S
C3823 C3824 1.398 . S
C3823 C3829 1.491 . S
C3824 H3815 0.950 . S
C3824 C3823 1.398 . S
C3824 C3825 1.391 . S
C3825 H3813 0.950 1_655 S
C3825 C3821 1.388 1_655 S
C3825 C3824 1.391 . S
C3826 H3816 0.950 . S
C3826 C3827 1.386 . S
C3826 C3828 1.391 . S
C3827 C3826 1.386 . S
C3827 C3831 1.393 . S
C3828 H3817 0.950 . S
C3828 C3826 1.391 . S
C3828 C3829 1.400 . S
C3829 C3823 1.491 . S
C3829 C3828 1.400 . S
C3829 C3830 1.398 . S
C3830 H3818 0.950 . S
C3830 C3829 1.398 . S
C3830 C3831 1.391 . S
C3831 H3819 0.950 . S
C3831 C3827 1.393 . S
C3831 C3830 1.391 . S
H3832 C3840 0.950 . S
H3833 C3845 0.950 . S
H3834 C3842 0.950 . S
H3835 C3844 0.950 . S
H3836 C3846 0.950 . S
H3837 C3848 0.950 1_655 S
H3838 C3850 0.950 . S
H3839 C3851 0.950 . S
C3840 H3832 0.950 . S
C3840 C3841 1.386 1_455 S
C3840 C3842 1.391 . S
C3841 C3840 1.386 1_655 S
C3841 C3845 1.393 . S
C3842 H3834 0.950 . S
C3842 C3840 1.391 . S
C3842 C3843 1.400 . S
C3843 C3842 1.400 . S
C3843 C3844 1.398 1_455 S
C3843 C3849 1.491 . S
C3844 H3835 0.950 . S
C3844 C3843 1.398 1_655 S
C3844 C3845 1.391 . S
C3845 H3833 0.950 . S
C3845 C3841 1.393 . S
C3845 C3844 1.391 . S
C3846 H3836 0.950 . S
C3846 C3847 1.386 . S
C3846 C3848 1.391 . S
C3847 C3846 1.386 . S
C3847 C3851 1.393 . S
C3848 H3837 0.950 1_455 S
C3848 C3846 1.391 . S
C3848 C3849 1.400 . S
C3849 C3843 1.491 . S
C3849 C3848 1.400 . S
C3849 C3850 1.398 . S
C3850 H3838 0.950 . S
C3850 C3849 1.398 . S
C3850 C3851 1.391 . S
C3851 H3839 0.950 . S
C3851 C3847 1.393 . S
C3851 C3850 1.391 . S
H3852 C3860 0.950 . S
H3853 C3865 0.950 . S
H3854 C3862 0.950 . S
H3855 C3864 0.950 . S
H3856 C3866 0.950 . S
H3857 C3868 0.950 . S
H3858 C3870 0.950 . S
H3859 C3871 0.950 . S
C3860 H3852 0.950 . S
C3860 C3861 1.386 . S
C3860 C3862 1.391 . S
C3861 C3860 1.386 . S
C3861 C3865 1.393 . S
C3862 H3854 0.950 . S
C3862 C3860 1.391 . S
C3862 C3863 1.400 . S
C3863 C3862 1.400 . S
C3863 C3864 1.398 . S
C3863 C3869 1.491 . S
C3864 H3855 0.950 . S
C3864 C3863 1.398 . S
C3864 C3865 1.391 . S
C3865 H3853 0.950 . S
C3865 C3861 1.393 . S
C3865 C3864 1.391 . S
C3866 H3856 0.950 . S
C3866 C3867 1.386 . S
C3866 C3868 1.391 . S
C3867 C3866 1.386 . S
C3867 C3871 1.393 . S
C3868 H3857 0.950 . S
C3868 C3866 1.391 . S
C3868 C3869 1.400 . S
C3869 C3863 1.491 . S
C3869 C3868 1.400 . S
C3869 C3870 1.398 . S
C3870 H3858 0.950 . S
C3870 C3869 1.398 . S
C3870 C3871 1.391 . S
C3871 H3859 0.950 . S
C3871 C3867 1.393 . S
C3871 C3870 1.391 . S
H3872 C3880 0.950 . S
H3873 C3885 0.950 . S
H3874 C3882 0.950 . S
H3875 C3884 0.950 . S
H3876 C3886 0.950 . S
H3877 C3888 0.950 . S
H3878 C3890 0.950 . S
H3879 C3891 0.950 . S
C3880 H3872 0.950 . S
C3880 C3881 1.386 . S
C3880 C3882 1.391 . S
C3881 C3880 1.386 . S
C3881 C3885 1.393 . S
C3882 H3874 0.950 . S
C3882 C3880 1.391 . S
C3882 C3883 1.400 . S
C3883 C3882 1.400 . S
C3883 C3884 1.398 . S
C3883 C3889 1.491 . S
C3884 H3875 0.950 . S
C3884 C3883 1.398 . S
C3884 C3885 1.391 . S
C3885 H3873 0.950 . S
C3885 C3881 1.393 . S
C3885 C3884 1.391 . S
C3886 H3876 0.950 . S
C3886 C3887 1.386 . S
C3886 C3888 1.391 . S
C3887 C3886 1.386 . S
C3887 C3891 1.393 . S
C3888 H3877 0.950 . S
C3888 C3886 1.391 . S
C3888 C3889 1.400 . S
C3889 C3883 1.491 . S
C3889 C3888 1.400 . S
C3889 C3890 1.398 . S
C3890 H3878 0.950 . S
C3890 C3889 1.398 . S
C3890 C3891 1.391 . S
C3891 H3879 0.950 . S
C3891 C3887 1.393 . S
C3891 C3890 1.391 . S
H3892 C3900 0.950 . S
H3893 C3905 0.950 . S
H3894 C3902 0.950 . S
H3895 C3904 0.950 . S
H3896 C3906 0.950 . S
H3897 C3908 0.950 . S
H3898 C3910 0.950 . S
H3899 C3911 0.950 . S
C3900 H3892 0.950 . S
C3900 C3901 1.386 . S
C3900 C3902 1.391 . S
C3901 C3900 1.386 . S
C3901 C3905 1.393 . S
C3902 H3894 0.950 . S
C3902 C3900 1.391 . S
C3902 C3903 1.400 . S
C3903 C3902 1.400 . S
C3903 C3904 1.398 . S
C3903 C3909 1.491 . S
C3904 H3895 0.950 . S
C3904 C3903 1.398 . S
C3904 C3905 1.391 . S
C3905 H3893 0.950 . S
C3905 C3901 1.393 . S
C3905 C3904 1.391 . S
C3906 H3896 0.950 . S
C3906 C3907 1.386 . S
C3906 C3908 1.391 . S
C3907 C3906 1.386 . S
C3907 C3911 1.393 . S
C3908 H3897 0.950 . S
C3908 C3906 1.391 . S
C3908 C3909 1.400 . S
C3909 C3903 1.491 . S
C3909 C3908 1.400 . S
C3909 C3910 1.398 . S
C3910 H3898 0.950 . S
C3910 C3909 1.398 . S
C3910 C3911 1.391 . S
C3911 H3899 0.950 . S
C3911 C3907 1.393 . S
C3911 C3910 1.391 . S
H3912 C3920 0.950 . S
H3913 C3925 0.950 . S
H3914 C3922 0.950 . S
H3915 C3924 0.950 . S
H3916 C3926 0.950 . S
H3917 C3928 0.950 . S
H3918 C3930 0.950 . S
H3919 C3931 0.950 . S
C3920 H3912 0.950 . S
C3920 C3921 1.386 . S
C3920 C3922 1.391 . S
C3921 C3920 1.386 . S
C3921 C3925 1.393 . S
C3922 H3914 0.950 . S
C3922 C3920 1.391 . S
C3922 C3923 1.400 . S
C3923 C3922 1.400 . S
C3923 C3924 1.398 . S
C3923 C3929 1.491 . S
C3924 H3915 0.950 . S
C3924 C3923 1.398 . S
C3924 C3925 1.391 . S
C3925 H3913 0.950 . S
C3925 C3921 1.393 . S
C3925 C3924 1.391 . S
C3926 H3916 0.950 . S
C3926 C3927 1.386 . S
C3926 C3928 1.391 . S
C3927 C3926 1.386 . S
C3927 C3931 1.393 . S
C3928 H3917 0.950 . S
C3928 C3926 1.391 . S
C3928 C3929 1.400 . S
C3929 C3923 1.491 . S
C3929 C3928 1.400 . S
C3929 C3930 1.398 . S
C3930 H3918 0.950 . S
C3930 C3929 1.398 . S
C3930 C3931 1.391 . S
C3931 H3919 0.950 . S
C3931 C3927 1.393 . S
C3931 C3930 1.391 . S
H3932 C3940 0.950 . S
H3933 C3945 0.950 . S
H3934 C3942 0.950 . S
H3935 C3944 0.950 . S
H3936 C3946 0.950 . S
H3937 C3948 0.950 . S
H3938 C3950 0.950 . S
H3939 C3951 0.950 . S
C3940 H3932 0.950 . S
C3940 C3941 1.386 . S
C3940 C3942 1.391 . S
C3941 C3940 1.386 . S
C3941 C3945 1.393 . S
C3942 H3934 0.950 . S
C3942 C3940 1.391 . S
C3942 C3943 1.400 . S
C3943 C3942 1.400 . S
C3943 C3944 1.398 . S
C3943 C3949 1.491 . S
C3944 H3935 0.950 . S
C3944 C3943 1.398 . S
C3944 C3945 1.391 . S
C3945 H3933 0.950 . S
C3945 C3941 1.393 . S
C3945 C3944 1.391 . S
C3946 H3936 0.950 . S
C3946 C3947 1.386 . S
C3946 C3948 1.391 . S
C3947 C3946 1.386 . S
C3947 C3951 1.393 . S
C3948 H3937 0.950 . S
C3948 C3946 1.391 . S
C3948 C3949 1.400 . S
C3949 C3943 1.491 . S
C3949 C3948 1.400 . S
C3949 C3950 1.398 . S
C3950 H3938 0.950 . S
C3950 C3949 1.398 . S
C3950 C3951 1.391 . S
C3951 H3939 0.950 . S
C3951 C3947 1.393 . S
C3951 C3950 1.391 . S
H3952 C3960 0.950 . S
H3953 C3965 0.950 . S
H3954 C3962 0.950 . S
H3955 C3964 0.950 . S
H3956 C3966 0.950 . S
H3957 C3968 0.950 . S
H3958 C3970 0.950 . S
H3959 C3971 0.950 . S
C3960 H3952 0.950 . S
C3960 C3961 1.386 . S
C3960 C3962 1.391 . S
C3961 C3960 1.386 . S
C3961 C3965 1.393 . S
C3962 H3954 0.950 . S
C3962 C3960 1.391 . S
C3962 C3963 1.400 . S
C3963 C3962 1.400 . S
C3963 C3964 1.398 . S
C3963 C3969 1.491 . S
C3964 H3955 0.950 . S
C3964 C3963 1.398 . S
C3964 C3965 1.391 . S
C3965 H3953 0.950 . S
C3965 C3961 1.393 . S
C3965 C3964 1.391 . S
C3966 H3956 0.950 . S
C3966 C3967 1.386 . S
C3966 C3968 1.391 . S
C3967 C3966 1.386 . S
C3967 C3971 1.393 . S
C3968 H3957 0.950 . S
C3968 C3966 1.391 . S
C3968 C3969 1.400 . S
C3969 C3963 1.491 . S
C3969 C3968 1.400 . S
C3969 C3970 1.398 . S
C3970 H3958 0.950 . S
C3970 C3969 1.398 . S
C3970 C3971 1.391 . S
C3971 H3959 0.950 . S
C3971 C3967 1.393 . S
C3971 C3970 1.391 . S
H3972 C3980 0.950 . S
H3973 C3985 0.950 . S
H3974 C3982 0.950 . S
H3975 C3984 0.950 . S
H3976 C3986 0.950 . S
H3977 C3988 0.950 . S
H3978 C3990 0.950 . S
H3979 C3991 0.950 . S
C3980 H3972 0.950 . S
C3980 C3981 1.386 . S
C3980 C3982 1.391 . S
C3981 C3980 1.386 . S
C3981 C3985 1.393 . S
C3982 H3974 0.950 . S
C3982 C3980 1.391 . S
C3982 C3983 1.400 . S
C3983 C3982 1.400 . S
C3983 C3984 1.398 . S
C3983 C3989 1.491 . S
C3984 H3975 0.950 . S
C3984 C3983 1.398 . S
C3984 C3985 1.391 . S
C3985 H3973 0.950 . S
C3985 C3981 1.393 . S
C3985 C3984 1.391 . S
C3986 H3976 0.950 . S
C3986 C3987 1.386 . S
C3986 C3988 1.391 . S
C3987 C3986 1.386 . S
C3987 C3991 1.393 . S
C3988 H3977 0.950 . S
C3988 C3986 1.391 . S
C3988 C3989 1.400 . S
C3989 C3983 1.491 . S
C3989 C3988 1.400 . S
C3989 C3990 1.398 . S
C3990 H3978 0.950 . S
C3990 C3989 1.398 . S
C3990 C3991 1.391 . S
C3991 H3979 0.950 . S
C3991 C3987 1.393 . S
C3991 C3990 1.391 . S
H3992 C4000 0.950 . S
H3993 C4005 0.950 . S
H3994 C4002 0.950 . S
H3995 C4004 0.950 . S
H3996 C4006 0.950 . S
H3997 C4008 0.950 . S
H3998 C4010 0.950 . S
H3999 C4011 0.950 . S
C4000 H3992 0.950 . S
C4000 C4001 1.386 . S
C4000 C4002 1.391 . S
C4001 C4000 1.386 . S
C4001 C4005 1.393 . S
C4002 H3994 0.950 . S
C4002 C4000 1.391 . S
C4002 C4003 1.400 . S
C4003 C4002 1.400 . S
C4003 C4004 1.398 . S
C4003 C4009 1.491 . S
C4004 H3995 0.950 . S
C4004 C4003 1.398 . S
C4004 C4005 1.391 . S
C4005 H3993 0.950 . S
C4005 C4001 1.393 . S
C4005 C4004 1.391 . S
C4006 H3996 0.950 . S
C4006 C4007 1.386 . S
C4006 C4008 1.391 . S
C4007 C4006 1.386 . S
C4007 C4011 1.393 . S
C4008 H3997 0.950 . S
C4008 C4006 1.391 . S
C4008 C4009 1.400 . S
C4009 C4003 1.491 . S
C4009 C4008 1.400 . S
C4009 C4010 1.398 . S
C4010 H3998 0.950 . S
C4010 C4009 1.398 . S
C4010 C4011 1.391 . S
C4011 H3999 0.950 . S
C4011 C4007 1.393 . S
C4011 C4010 1.391 . S
H4012 C4020 0.950 . S
H4013 C4025 0.950 . S
H4014 C4022 0.950 . S
H4015 C4024 0.950 . S
H4016 C4026 0.950 . S
H4017 C4028 0.950 . S
H4018 C4030 0.950 . S
H4019 C4031 0.950 . S
C4020 H4012 0.950 . S
C4020 C4021 1.386 . S
C4020 C4022 1.391 . S
C4021 C4020 1.386 . S
C4021 C4025 1.393 . S
C4022 H4014 0.950 . S
C4022 C4020 1.391 . S
C4022 C4023 1.400 . S
C4023 C4022 1.400 . S
C4023 C4024 1.398 . S
C4023 C4029 1.491 . S
C4024 H4015 0.950 . S
C4024 C4023 1.398 . S
C4024 C4025 1.391 . S
C4025 H4013 0.950 . S
C4025 C4021 1.393 . S
C4025 C4024 1.391 . S
C4026 H4016 0.950 . S
C4026 C4027 1.386 . S
C4026 C4028 1.391 . S
C4027 C4026 1.386 . S
C4027 C4031 1.393 . S
C4028 H4017 0.950 . S
C4028 C4026 1.391 . S
C4028 C4029 1.400 . S
C4029 C4023 1.491 . S
C4029 C4028 1.400 . S
C4029 C4030 1.398 . S
C4030 H4018 0.950 . S
C4030 C4029 1.398 . S
C4030 C4031 1.391 . S
C4031 H4019 0.950 . S
C4031 C4027 1.393 . S
C4031 C4030 1.391 . S
H4032 C4040 0.950 . S
H4033 C4045 0.950 . S
H4034 C4042 0.950 . S
H4035 C4044 0.950 . S
H4036 C4046 0.950 . S
H4037 C4048 0.950 . S
H4038 C4050 0.950 . S
H4039 C4051 0.950 . S
C4040 H4032 0.950 . S
C4040 C4041 1.386 . S
C4040 C4042 1.391 . S
C4041 C4040 1.386 . S
C4041 C4045 1.393 . S
C4042 H4034 0.950 . S
C4042 C4040 1.391 . S
C4042 C4043 1.400 . S
C4043 C4042 1.400 . S
C4043 C4044 1.398 . S
C4043 C4049 1.491 . S
C4044 H4035 0.950 . S
C4044 C4043 1.398 . S
C4044 C4045 1.391 . S
C4045 H4033 0.950 . S
C4045 C4041 1.393 . S
C4045 C4044 1.391 . S
C4046 H4036 0.950 . S
C4046 C4047 1.386 . S
C4046 C4048 1.391 . S
C4047 C4046 1.386 . S
C4047 C4051 1.393 . S
C4048 H4037 0.950 . S
C4048 C4046 1.391 . S
C4048 C4049 1.400 . S
C4049 C4043 1.491 . S
C4049 C4048 1.400 . S
C4049 C4050 1.398 . S
C4050 H4038 0.950 . S
C4050 C4049 1.398 . S
C4050 C4051 1.391 . S
C4051 H4039 0.950 . S
C4051 C4047 1.393 . S
C4051 C4050 1.391 . S
H4052 C4060 0.950 . S
H4053 C4065 0.950 . S
H4054 C4062 0.950 . S
H4055 C4064 0.950 . S
H4056 C4066 0.950 . S
H4057 C4068 0.950 . S
H4058 C4070 0.950 . S
H4059 C4071 0.950 . S
C4060 H4052 0.950 . S
C4060 C4061 1.386 . S
C4060 C4062 1.391 . S
C4061 C4060 1.386 . S
C4061 C4065 1.393 . S
C4062 H4054 0.950 . S
C4062 C4060 1.391 . S
C4062 C4063 1.400 . S
C4063 C4062 1.400 . S
C4063 C4064 1.398 . S
C4063 C4069 1.491 . S
C4064 H4055 0.950 . S
C4064 C4063 1.398 . S
C4064 C4065 1.391 . S
C4065 H4053 0.950 . S
C4065 C4061 1.393 . S
C4065 C4064 1.391 . S
C4066 H4056 0.950 . S
C4066 C4067 1.386 . S
C4066 C4068 1.391 . S
C4067 C4066 1.386 . S
C4067 C4071 1.393 . S
C4068 H4057 0.950 . S
C4068 C4066 1.391 . S
C4068 C4069 1.400 . S
C4069 C4063 1.491 . S
C4069 C4068 1.400 . S
C4069 C4070 1.398 . S
C4070 H4058 0.950 . S
C4070 C4069 1.398 . S
C4070 C4071 1.391 . S
C4071 H4059 0.950 . S
C4071 C4067 1.393 . S
C4071 C4070 1.391 . S
H4072 C4080 0.950 . S
H4073 C4085 0.950 . S
H4074 C4082 0.950 . S
H4075 C4084 0.950 . S
H4076 C4086 0.950 . S
H4077 C4088 0.950 . S
H4078 C4090 0.950 . S
H4079 C4091 0.950 . S
C4080 H4072 0.950 . S
C4080 C4081 1.386 . S
C4080 C4082 1.391 . S
C4081 C4080 1.386 . S
C4081 C4085 1.393 . S
C4082 H4074 0.950 . S
C4082 C4080 1.391 . S
C4082 C4083 1.400 . S
C4083 C4082 1.400 . S
C4083 C4084 1.398 . S
C4083 C4089 1.491 . S
C4084 H4075 0.950 . S
C4084 C4083 1.398 . S
C4084 C4085 1.391 . S
C4085 H4073 0.950 . S
C4085 C4081 1.393 . S
C4085 C4084 1.391 . S
C4086 H4076 0.950 . S
C4086 C4087 1.386 . S
C4086 C4088 1.391 . S
C4087 C4086 1.386 . S
C4087 C4091 1.393 . S
C4088 H4077 0.950 . S
C4088 C4086 1.391 . S
C4088 C4089 1.400 . S
C4089 C4083 1.491 . S
C4089 C4088 1.400 . S
C4089 C4090 1.398 . S
C4090 H4078 0.950 . S
C4090 C4089 1.398 . S
C4090 C4091 1.391 . S
C4091 H4079 0.950 . S
C4091 C4087 1.393 . S
C4091 C4090 1.391 . S
H4092 C4100 0.950 . S
H4093 C4105 0.950 . S
H4094 C4102 0.950 . S
H4095 C4104 0.950 . S
H4096 C4106 0.950 1_556 S
H4097 C4108 0.951 1_556 S
H4098 C4110 0.950 . S
H4099 C4111 0.950 . S
C4100 H4092 0.950 . S
C4100 C4101 1.386 1_545 S
C4100 C4102 1.391 . S
C4101 C4100 1.386 1_565 S
C4101 C4105 1.393 . S
C4102 H4094 0.950 . S
C4102 C4100 1.391 . S
C4102 C4103 1.400 1_545 S
C4103 C4102 1.400 1_565 S
C4103 C4104 1.398 . S
C4103 C4109 1.490 1_565 S
C4104 H4095 0.950 . S
C4104 C4103 1.398 . S
C4104 C4105 1.391 . S
C4105 H4093 0.950 . S
C4105 C4101 1.393 . S
C4105 C4104 1.391 . S
C4106 H4096 0.950 1_554 S
C4106 C4107 1.386 1_565 S
C4106 C4108 1.391 . S
C4107 C4106 1.386 1_545 S
C4107 C4111 1.393 . S
C4108 H4097 0.951 1_554 S
C4108 C4106 1.391 . S
C4108 C4109 1.399 1_565 S
C4109 C4103 1.490 1_545 S
C4109 C4108 1.399 1_545 S
C4109 C4110 1.400 . S
C4110 H4098 0.950 . S
C4110 C4109 1.400 . S
C4110 C4111 1.391 . S
C4111 H4099 0.950 . S
C4111 C4107 1.393 . S
C4111 C4110 1.391 . S
H4112 C4120 0.950 . S
H4113 C4125 0.950 . S
H4114 C4122 0.950 . S
H4115 C4124 0.950 . S
H4116 C4126 0.950 . S
H4117 C4128 0.950 . S
H4118 C4130 0.950 . S
H4119 C4131 0.950 . S
C4120 H4112 0.950 . S
C4120 C4121 1.386 . S
C4120 C4122 1.391 . S
C4121 C4120 1.386 . S
C4121 C4125 1.393 . S
C4122 H4114 0.950 . S
C4122 C4120 1.391 . S
C4122 C4123 1.400 . S
C4123 C4122 1.400 . S
C4123 C4124 1.398 . S
C4123 C4129 1.491 . S
C4124 H4115 0.950 . S
C4124 C4123 1.398 . S
C4124 C4125 1.391 . S
C4125 H4113 0.950 . S
C4125 C4121 1.393 . S
C4125 C4124 1.391 . S
C4126 H4116 0.950 . S
C4126 C4127 1.386 . S
C4126 C4128 1.391 . S
C4127 C4126 1.386 . S
C4127 C4131 1.393 . S
C4128 H4117 0.950 . S
C4128 C4126 1.391 . S
C4128 C4129 1.400 . S
C4129 C4123 1.491 . S
C4129 C4128 1.400 . S
C4129 C4130 1.398 . S
C4130 H4118 0.950 . S
C4130 C4129 1.398 . S
C4130 C4131 1.391 . S
C4131 H4119 0.950 . S
C4131 C4127 1.393 . S
C4131 C4130 1.391 . S
H4132 C4140 0.950 . S
H4133 C4145 0.950 . S
H4134 C4142 0.950 . S
H4135 C4144 0.950 1_556 S
H4136 C4146 0.950 . S
H4137 C4148 0.950 . S
H4138 C4150 0.950 . S
H4139 C4151 0.950 . S
C4140 H4132 0.950 . S
C4140 C4141 1.386 . S
C4140 C4142 1.391 . S
C4141 C4140 1.386 . S
C4141 C4145 1.393 1_554 S
C4142 H4134 0.950 . S
C4142 C4140 1.391 . S
C4142 C4143 1.400 . S
C4143 C4142 1.400 . S
C4143 C4144 1.398 . S
C4143 C4149 1.491 . S
C4144 H4135 0.950 1_554 S
C4144 C4143 1.398 . S
C4144 C4145 1.391 1_554 S
C4145 H4133 0.950 . S
C4145 C4141 1.393 1_556 S
C4145 C4144 1.391 1_556 S
C4146 H4136 0.950 . S
C4146 C4147 1.386 . S
C4146 C4148 1.391 . S
C4147 C4146 1.386 . S
C4147 C4151 1.393 . S
C4148 H4137 0.950 . S
C4148 C4146 1.391 . S
C4148 C4149 1.400 . S
C4149 C4143 1.491 . S
C4149 C4148 1.400 . S
C4149 C4150 1.398 . S
C4150 H4138 0.950 . S
C4150 C4149 1.398 . S
C4150 C4151 1.391 . S
C4151 H4139 0.950 . S
C4151 C4147 1.393 . S
C4151 C4150 1.391 . S
H4152 C4160 0.950 . S
H4153 C4165 0.950 . S
H4154 C4162 0.950 . S
H4155 C4164 0.950 . S
H4156 C4166 0.950 . S
H4157 C4168 0.950 . S
H4158 C4170 0.950 . S
H4159 C4171 0.950 . S
C4160 H4152 0.950 . S
C4160 C4161 1.386 . S
C4160 C4162 1.391 . S
C4161 C4160 1.386 . S
C4161 C4165 1.393 . S
C4162 H4154 0.950 . S
C4162 C4160 1.391 . S
C4162 C4163 1.400 . S
C4163 C4162 1.400 . S
C4163 C4164 1.398 . S
C4163 C4169 1.491 . S
C4164 H4155 0.950 . S
C4164 C4163 1.398 . S
C4164 C4165 1.391 . S
C4165 H4153 0.950 . S
C4165 C4161 1.393 . S
C4165 C4164 1.391 . S
C4166 H4156 0.950 . S
C4166 C4167 1.386 . S
C4166 C4168 1.391 . S
C4167 C4166 1.386 . S
C4167 C4171 1.393 . S
C4168 H4157 0.950 . S
C4168 C4166 1.391 . S
C4168 C4169 1.400 . S
C4169 C4163 1.491 . S
C4169 C4168 1.400 . S
C4169 C4170 1.398 . S
C4170 H4158 0.950 . S
C4170 C4169 1.398 . S
C4170 C4171 1.391 . S
C4171 H4159 0.950 . S
C4171 C4167 1.393 . S
C4171 C4170 1.391 . S
H4172 C4180 0.950 . S
H4173 C4185 0.950 . S
H4174 C4182 0.950 . S
H4175 C4184 0.950 . S
H4176 C4186 0.950 . S
H4177 C4188 0.950 . S
H4178 C4190 0.950 . S
H4179 C4191 0.950 . S
C4180 H4172 0.950 . S
C4180 C4181 1.386 . S
C4180 C4182 1.391 . S
C4181 C4180 1.386 . S
C4181 C4185 1.393 . S
C4182 H4174 0.950 . S
C4182 C4180 1.391 . S
C4182 C4183 1.400 . S
C4183 C4182 1.400 . S
C4183 C4184 1.398 . S
C4183 C4189 1.491 . S
C4184 H4175 0.950 . S
C4184 C4183 1.398 . S
C4184 C4185 1.391 . S
C4185 H4173 0.950 . S
C4185 C4181 1.393 . S
C4185 C4184 1.391 . S
C4186 H4176 0.950 . S
C4186 C4187 1.386 . S
C4186 C4188 1.391 . S
C4187 C4186 1.386 . S
C4187 C4191 1.393 . S
C4188 H4177 0.950 . S
C4188 C4186 1.391 . S
C4188 C4189 1.400 . S
C4189 C4183 1.491 . S
C4189 C4188 1.400 . S
C4189 C4190 1.398 . S
C4190 H4178 0.950 . S
C4190 C4189 1.398 . S
C4190 C4191 1.391 . S
C4191 H4179 0.950 . S
C4191 C4187 1.393 . S
C4191 C4190 1.391 . S
H4192 C4200 0.950 . S
H4193 C4205 0.950 . S
H4194 C4202 0.950 . S
H4195 C4204 0.950 . S
H4196 C4206 0.950 . S
H4197 C4208 0.950 . S
H4198 C4210 0.950 . S
H4199 C4211 0.950 . S
C4200 H4192 0.950 . S
C4200 C4201 1.386 . S
C4200 C4202 1.391 . S
C4201 C4200 1.386 . S
C4201 C4205 1.393 . S
C4202 H4194 0.950 . S
C4202 C4200 1.391 . S
C4202 C4203 1.400 . S
C4203 C4202 1.400 . S
C4203 C4204 1.398 . S
C4203 C4209 1.491 . S
C4204 H4195 0.950 . S
C4204 C4203 1.398 . S
C4204 C4205 1.391 . S
C4205 H4193 0.950 . S
C4205 C4201 1.393 . S
C4205 C4204 1.391 . S
C4206 H4196 0.950 . S
C4206 C4207 1.386 . S
C4206 C4208 1.391 . S
C4207 C4206 1.386 . S
C4207 C4211 1.393 . S
C4208 H4197 0.950 . S
C4208 C4206 1.391 . S
C4208 C4209 1.400 . S
C4209 C4203 1.491 . S
C4209 C4208 1.400 . S
C4209 C4210 1.398 . S
C4210 H4198 0.950 . S
C4210 C4209 1.398 . S
C4210 C4211 1.391 . S
C4211 H4199 0.950 . S
C4211 C4207 1.393 . S
C4211 C4210 1.391 . S
H4212 C4220 0.950 . S
H4213 C4225 0.950 . S
H4214 C4222 0.950 . S
H4215 C4224 0.950 . S
H4216 C4226 0.950 . S
H4217 C4228 0.950 . S
H4218 C4230 0.950 . S
H4219 C4231 0.950 . S
C4220 H4212 0.950 . S
C4220 C4221 1.386 . S
C4220 C4222 1.391 . S
C4221 C4220 1.386 . S
C4221 C4225 1.393 . S
C4222 H4214 0.950 . S
C4222 C4220 1.391 . S
C4222 C4223 1.400 . S
C4223 C4222 1.400 . S
C4223 C4224 1.398 . S
C4223 C4229 1.491 . S
C4224 H4215 0.950 . S
C4224 C4223 1.398 . S
C4224 C4225 1.391 . S
C4225 H4213 0.950 . S
C4225 C4221 1.393 . S
C4225 C4224 1.391 . S
C4226 H4216 0.950 . S
C4226 C4227 1.386 . S
C4226 C4228 1.391 . S
C4227 C4226 1.386 . S
C4227 C4231 1.393 . S
C4228 H4217 0.950 . S
C4228 C4226 1.391 . S
C4228 C4229 1.400 . S
C4229 C4223 1.491 . S
C4229 C4228 1.400 . S
C4229 C4230 1.398 . S
C4230 H4218 0.950 . S
C4230 C4229 1.398 . S
C4230 C4231 1.391 . S
C4231 H4219 0.950 . S
C4231 C4227 1.393 . S
C4231 C4230 1.391 . S
H4232 C4240 0.950 . S
H4233 C4245 0.950 . S
H4234 C4242 0.950 . S
H4235 C4244 0.950 . S
H4236 C4246 0.950 . S
H4237 C4248 0.950 . S
H4238 C4250 0.950 . S
H4239 C4251 0.950 . S
C4240 H4232 0.950 . S
C4240 C4241 1.386 . S
C4240 C4242 1.391 . S
C4241 C4240 1.386 . S
C4241 C4245 1.393 . S
C4242 H4234 0.950 . S
C4242 C4240 1.391 . S
C4242 C4243 1.400 . S
C4243 C4242 1.400 . S
C4243 C4244 1.398 . S
C4243 C4249 1.491 . S
C4244 H4235 0.950 . S
C4244 C4243 1.398 . S
C4244 C4245 1.391 . S
C4245 H4233 0.950 . S
C4245 C4241 1.393 . S
C4245 C4244 1.391 . S
C4246 H4236 0.950 . S
C4246 C4247 1.386 . S
C4246 C4248 1.391 . S
C4247 C4246 1.386 . S
C4247 C4251 1.393 . S
C4248 H4237 0.950 . S
C4248 C4246 1.391 . S
C4248 C4249 1.400 . S
C4249 C4243 1.491 . S
C4249 C4248 1.400 . S
C4249 C4250 1.398 . S
C4250 H4238 0.950 . S
C4250 C4249 1.398 . S
C4250 C4251 1.391 . S
C4251 H4239 0.950 . S
C4251 C4247 1.393 . S
C4251 C4250 1.391 . S
H4252 C4260 0.950 . S
H4253 C4265 0.950 . S
H4254 C4262 0.950 . S
H4255 C4264 0.950 . S
H4256 C4266 0.950 . S
H4257 C4268 0.950 . S
H4258 C4270 0.950 . S
H4259 C4271 0.950 . S
C4260 H4252 0.950 . S
C4260 C4261 1.386 . S
C4260 C4262 1.391 . S
C4261 C4260 1.386 . S
C4261 C4265 1.393 . S
C4262 H4254 0.950 . S
C4262 C4260 1.391 . S
C4262 C4263 1.400 . S
C4263 C4262 1.400 . S
C4263 C4264 1.398 . S
C4263 C4269 1.491 . S
C4264 H4255 0.950 . S
C4264 C4263 1.398 . S
C4264 C4265 1.391 . S
C4265 H4253 0.950 . S
C4265 C4261 1.393 . S
C4265 C4264 1.391 . S
C4266 H4256 0.950 . S
C4266 C4267 1.386 . S
C4266 C4268 1.391 . S
C4267 C4266 1.386 . S
C4267 C4271 1.393 . S
C4268 H4257 0.950 . S
C4268 C4266 1.391 . S
C4268 C4269 1.400 . S
C4269 C4263 1.491 . S
C4269 C4268 1.400 . S
C4269 C4270 1.398 . S
C4270 H4258 0.950 . S
C4270 C4269 1.398 . S
C4270 C4271 1.391 . S
C4271 H4259 0.950 . S
C4271 C4267 1.393 . S
C4271 C4270 1.391 . S
H4272 C4280 0.950 . S
H4273 C4285 0.950 . S
H4274 C4282 0.950 . S
H4275 C4284 0.950 . S
H4276 C4286 0.950 . S
H4277 C4288 0.950 . S
H4278 C4290 0.950 . S
H4279 C4291 0.950 . S
C4280 H4272 0.950 . S
C4280 C4281 1.386 . S
C4280 C4282 1.391 . S
C4281 C4280 1.386 . S
C4281 C4285 1.393 . S
C4282 H4274 0.950 . S
C4282 C4280 1.391 . S
C4282 C4283 1.400 . S
C4283 C4282 1.400 . S
C4283 C4284 1.398 . S
C4283 C4289 1.491 . S
C4284 H4275 0.950 . S
C4284 C4283 1.398 . S
C4284 C4285 1.391 . S
C4285 H4273 0.950 . S
C4285 C4281 1.393 . S
C4285 C4284 1.391 . S
C4286 H4276 0.950 . S
C4286 C4287 1.386 . S
C4286 C4288 1.391 . S
C4287 C4286 1.386 . S
C4287 C4291 1.393 . S
C4288 H4277 0.950 . S
C4288 C4286 1.391 . S
C4288 C4289 1.400 . S
C4289 C4283 1.491 . S
C4289 C4288 1.400 . S
C4289 C4290 1.398 . S
C4290 H4278 0.950 . S
C4290 C4289 1.398 . S
C4290 C4291 1.391 . S
C4291 H4279 0.950 . S
C4291 C4287 1.393 . S
C4291 C4290 1.391 . S
H4292 C4300 0.950 . S
H4293 C4305 0.950 . S
H4294 C4302 0.950 . S
H4295 C4304 0.950 . S
H4296 C4306 0.950 . S
H4297 C4308 0.950 . S
H4298 C4310 0.950 . S
H4299 C4311 0.950 . S
C4300 H4292 0.950 . S
C4300 C4301 1.386 . S
C4300 C4302 1.391 . S
C4301 C4300 1.386 . S
C4301 C4305 1.393 . S
C4302 H4294 0.950 . S
C4302 C4300 1.391 . S
C4302 C4303 1.400 . S
C4303 C4302 1.400 . S
C4303 C4304 1.398 . S
C4303 C4309 1.491 . S
C4304 H4295 0.950 . S
C4304 C4303 1.398 . S
C4304 C4305 1.391 . S
C4305 H4293 0.950 . S
C4305 C4301 1.393 . S
C4305 C4304 1.391 . S
C4306 H4296 0.950 . S
C4306 C4307 1.386 . S
C4306 C4308 1.391 . S
C4307 C4306 1.386 . S
C4307 C4311 1.393 . S
C4308 H4297 0.950 . S
C4308 C4306 1.391 . S
C4308 C4309 1.400 . S
C4309 C4303 1.491 . S
C4309 C4308 1.400 . S
C4309 C4310 1.398 . S
C4310 H4298 0.950 . S
C4310 C4309 1.398 . S
C4310 C4311 1.391 . S
C4311 H4299 0.950 . S
C4311 C4307 1.393 . S
C4311 C4310 1.391 . S
H4312 C4320 0.950 . S
H4313 C4325 0.950 . S
H4314 C4322 0.950 . S
H4315 C4324 0.950 . S
H4316 C4326 0.950 . S
H4317 C4328 0.950 . S
H4318 C4330 0.950 . S
H4319 C4331 0.950 . S
C4320 H4312 0.950 . S
C4320 C4321 1.386 . S
C4320 C4322 1.391 . S
C4321 C4320 1.386 . S
C4321 C4325 1.393 . S
C4322 H4314 0.950 . S
C4322 C4320 1.391 . S
C4322 C4323 1.400 . S
C4323 C4322 1.400 . S
C4323 C4324 1.398 . S
C4323 C4329 1.491 . S
C4324 H4315 0.950 . S
C4324 C4323 1.398 . S
C4324 C4325 1.391 . S
C4325 H4313 0.950 . S
C4325 C4321 1.393 . S
C4325 C4324 1.391 . S
C4326 H4316 0.950 . S
C4326 C4327 1.386 . S
C4326 C4328 1.391 . S
C4327 C4326 1.386 . S
C4327 C4331 1.393 . S
C4328 H4317 0.950 . S
C4328 C4326 1.391 . S
C4328 C4329 1.400 . S
C4329 C4323 1.491 . S
C4329 C4328 1.400 . S
C4329 C4330 1.398 . S
C4330 H4318 0.950 . S
C4330 C4329 1.398 . S
C4330 C4331 1.391 . S
C4331 H4319 0.950 . S
C4331 C4327 1.393 . S
C4331 C4330 1.391 . S
H4332 C4340 0.950 . S
H4333 C4345 0.950 . S
H4334 C4342 0.950 . S
H4335 C4344 0.950 . S
H4336 C4346 0.950 . S
H4337 C4348 0.950 . S
H4338 C4350 0.950 . S
H4339 C4351 0.950 . S
C4340 H4332 0.950 . S
C4340 C4341 1.386 . S
C4340 C4342 1.391 . S
C4341 C4340 1.386 . S
C4341 C4345 1.393 . S
C4342 H4334 0.950 . S
C4342 C4340 1.391 . S
C4342 C4343 1.400 . S
C4343 C4342 1.400 . S
C4343 C4344 1.398 . S
C4343 C4349 1.491 . S
C4344 H4335 0.950 . S
C4344 C4343 1.398 . S
C4344 C4345 1.391 . S
C4345 H4333 0.950 . S
C4345 C4341 1.393 . S
C4345 C4344 1.391 . S
C4346 H4336 0.950 . S
C4346 C4347 1.386 . S
C4346 C4348 1.391 . S
C4347 C4346 1.386 . S
C4347 C4351 1.393 . S
C4348 H4337 0.950 . S
C4348 C4346 1.391 . S
C4348 C4349 1.400 . S
C4349 C4343 1.491 . S
C4349 C4348 1.400 . S
C4349 C4350 1.398 . S
C4350 H4338 0.950 . S
C4350 C4349 1.398 . S
C4350 C4351 1.391 . S
C4351 H4339 0.950 . S
C4351 C4347 1.393 . S
C4351 C4350 1.391 . S
H4352 C4360 0.950 . S
H4353 C4365 0.950 . S
H4354 C4362 0.950 . S
H4355 C4364 0.950 . S
H4356 C4366 0.950 . S
H4357 C4368 0.950 . S
H4358 C4370 0.950 . S
H4359 C4371 0.950 . S
C4360 H4352 0.950 . S
C4360 C4361 1.386 . S
C4360 C4362 1.391 . S
C4361 C4360 1.386 . S
C4361 C4365 1.393 . S
C4362 H4354 0.950 . S
C4362 C4360 1.391 . S
C4362 C4363 1.400 . S
C4363 C4362 1.400 . S
C4363 C4364 1.398 . S
C4363 C4369 1.491 . S
C4364 H4355 0.950 . S
C4364 C4363 1.398 . S
C4364 C4365 1.391 . S
C4365 H4353 0.950 . S
C4365 C4361 1.393 . S
C4365 C4364 1.391 . S
C4366 H4356 0.950 . S
C4366 C4367 1.386 . S
C4366 C4368 1.391 . S
C4367 C4366 1.386 . S
C4367 C4371 1.393 . S
C4368 H4357 0.950 . S
C4368 C4366 1.391 . S
C4368 C4369 1.400 . S
C4369 C4363 1.491 . S
C4369 C4368 1.400 . S
C4369 C4370 1.398 . S
C4370 H4358 0.950 . S
C4370 C4369 1.398 . S
C4370 C4371 1.391 . S
C4371 H4359 0.950 . S
C4371 C4367 1.393 . S
C4371 C4370 1.391 . S
H4372 C4380 0.950 . S
H4373 C4385 0.950 . S
H4374 C4382 0.950 . S
H4375 C4384 0.950 . S
H4376 C4386 0.950 . S
H4377 C4388 0.950 . S
H4378 C4390 0.950 . S
H4379 C4391 0.950 . S
C4380 H4372 0.950 . S
C4380 C4381 1.386 . S
C4380 C4382 1.391 . S
C4381 C4380 1.386 . S
C4381 C4385 1.393 . S
C4382 H4374 0.950 . S
C4382 C4380 1.391 . S
C4382 C4383 1.400 . S
C4383 C4382 1.400 . S
C4383 C4384 1.398 . S
C4383 C4389 1.491 . S
C4384 H4375 0.950 . S
C4384 C4383 1.398 . S
C4384 C4385 1.391 . S
C4385 H4373 0.950 . S
C4385 C4381 1.393 . S
C4385 C4384 1.391 . S
C4386 H4376 0.950 . S
C4386 C4387 1.386 . S
C4386 C4388 1.391 . S
C4387 C4386 1.386 . S
C4387 C4391 1.393 . S
C4388 H4377 0.950 . S
C4388 C4386 1.391 . S
C4388 C4389 1.400 . S
C4389 C4383 1.491 . S
C4389 C4388 1.400 . S
C4389 C4390 1.398 . S
C4390 H4378 0.950 . S
C4390 C4389 1.398 . S
C4390 C4391 1.391 . S
C4391 H4379 0.950 . S
C4391 C4387 1.393 . S
C4391 C4390 1.391 . S
H4392 C4400 0.950 . S
H4393 C4405 0.950 1_455 S
H4394 C4402 0.950 . S
H4395 C4404 0.950 . S
H4396 C4406 0.950 . S
H4397 C4408 0.950 . S
H4398 C4410 0.950 . S
H4399 C4411 0.950 1_655 S
C4400 H4392 0.950 . S
C4400 C4401 1.386 . S
C4400 C4402 1.391 . S
C4401 C4400 1.386 . S
C4401 C4405 1.393 . S
C4402 H4394 0.950 . S
C4402 C4400 1.391 . S
C4402 C4403 1.400 . S
C4403 C4402 1.400 . S
C4403 C4404 1.398 1_655 S
C4403 C4409 1.491 1_655 S
C4404 H4395 0.950 . S
C4404 C4403 1.398 1_455 S
C4404 C4405 1.391 1_455 S
C4405 H4393 0.950 1_655 S
C4405 C4401 1.393 . S
C4405 C4404 1.391 1_655 S
C4406 H4396 0.950 . S
C4406 C4407 1.386 . S
C4406 C4408 1.391 . S
C4407 C4406 1.386 . S
C4407 C4411 1.393 . S
C4408 H4397 0.950 . S
C4408 C4406 1.391 . S
C4408 C4409 1.400 . S
C4409 C4403 1.491 1_455 S
C4409 C4408 1.400 . S
C4409 C4410 1.398 1_455 S
C4410 H4398 0.950 . S
C4410 C4409 1.398 1_655 S
C4410 C4411 1.391 1_655 S
C4411 H4399 0.950 1_455 S
C4411 C4407 1.393 . S
C4411 C4410 1.391 1_455 S
H4412 C4420 0.950 . S
H4413 C4425 0.950 . S
H4414 C4422 0.950 . S
H4415 C4424 0.950 . S
H4416 C4426 0.950 . S
H4417 C4428 0.950 . S
H4418 C4430 0.950 . S
H4419 C4431 0.950 . S
C4420 H4412 0.950 . S
C4420 C4421 1.386 . S
C4420 C4422 1.391 . S
C4421 C4420 1.386 . S
C4421 C4425 1.393 . S
C4422 H4414 0.950 . S
C4422 C4420 1.391 . S
C4422 C4423 1.400 . S
C4423 C4422 1.400 . S
C4423 C4424 1.398 . S
C4423 C4429 1.491 . S
C4424 H4415 0.950 . S
C4424 C4423 1.398 . S
C4424 C4425 1.391 . S
C4425 H4413 0.950 . S
C4425 C4421 1.393 . S
C4425 C4424 1.391 . S
C4426 H4416 0.950 . S
C4426 C4427 1.386 . S
C4426 C4428 1.391 . S
C4427 C4426 1.386 . S
C4427 C4431 1.393 . S
C4428 H4417 0.950 . S
C4428 C4426 1.391 . S
C4428 C4429 1.400 . S
C4429 C4423 1.491 . S
C4429 C4428 1.400 . S
C4429 C4430 1.398 . S
C4430 H4418 0.950 . S
C4430 C4429 1.398 . S
C4430 C4431 1.391 . S
C4431 H4419 0.950 . S
C4431 C4427 1.393 . S
C4431 C4430 1.391 . S
H4432 C4440 0.950 . S
H4433 C4445 0.950 . S
H4434 C4442 0.950 . S
H4435 C4444 0.950 . S
H4436 C4446 0.950 . S
H4437 C4448 0.950 . S
H4438 C4450 0.950 . S
H4439 C4451 0.950 . S
C4440 H4432 0.950 . S
C4440 C4441 1.386 . S
C4440 C4442 1.391 . S
C4441 C4440 1.386 . S
C4441 C4445 1.393 . S
C4442 H4434 0.950 . S
C4442 C4440 1.391 . S
C4442 C4443 1.400 . S
C4443 C4442 1.400 . S
C4443 C4444 1.398 . S
C4443 C4449 1.491 . S
C4444 H4435 0.950 . S
C4444 C4443 1.398 . S
C4444 C4445 1.391 . S
C4445 H4433 0.950 . S
C4445 C4441 1.393 . S
C4445 C4444 1.391 . S
C4446 H4436 0.950 . S
C4446 C4447 1.386 . S
C4446 C4448 1.391 . S
C4447 C4446 1.386 . S
C4447 C4451 1.393 . S
C4448 H4437 0.950 . S
C4448 C4446 1.391 . S
C4448 C4449 1.400 . S
C4449 C4443 1.491 . S
C4449 C4448 1.400 . S
C4449 C4450 1.398 . S
C4450 H4438 0.950 . S
C4450 C4449 1.398 . S
C4450 C4451 1.391 . S
C4451 H4439 0.950 . S
C4451 C4447 1.393 . S
C4451 C4450 1.391 . S
H4452 C4460 0.950 . S
H4453 C4465 0.950 . S
H4454 C4462 0.950 . S
H4455 C4464 0.950 . S
H4456 C4466 0.950 . S
H4457 C4468 0.950 . S
H4458 C4470 0.950 . S
H4459 C4471 0.950 . S
C4460 H4452 0.950 . S
C4460 C4461 1.386 . S
C4460 C4462 1.391 . S
C4461 C4460 1.386 . S
C4461 C4465 1.393 . S
C4462 H4454 0.950 . S
C4462 C4460 1.391 . S
C4462 C4463 1.400 . S
C4463 C4462 1.400 . S
C4463 C4464 1.398 . S
C4463 C4469 1.491 . S
C4464 H4455 0.950 . S
C4464 C4463 1.398 . S
C4464 C4465 1.391 . S
C4465 H4453 0.950 . S
C4465 C4461 1.393 . S
C4465 C4464 1.391 . S
C4466 H4456 0.950 . S
C4466 C4467 1.386 . S
C4466 C4468 1.391 . S
C4467 C4466 1.386 . S
C4467 C4471 1.393 . S
C4468 H4457 0.950 . S
C4468 C4466 1.391 . S
C4468 C4469 1.400 . S
C4469 C4463 1.491 . S
C4469 C4468 1.400 . S
C4469 C4470 1.398 . S
C4470 H4458 0.950 . S
C4470 C4469 1.398 . S
C4470 C4471 1.391 . S
C4471 H4459 0.950 . S
C4471 C4467 1.393 . S
C4471 C4470 1.391 . S
H4472 C4480 0.950 . S
H4473 C4485 0.950 . S
H4474 C4482 0.950 . S
H4475 C4484 0.950 . S
H4476 C4486 0.950 . S
H4477 C4488 0.950 . S
H4478 C4490 0.950 1_455 S
H4479 C4491 0.950 . S
C4480 H4472 0.950 . S
C4480 C4481 1.386 . S
C4480 C4482 1.391 . S
C4481 C4480 1.386 . S
C4481 C4485 1.393 . S
C4482 H4474 0.950 . S
C4482 C4480 1.391 . S
C4482 C4483 1.400 . S
C4483 C4482 1.400 . S
C4483 C4484 1.398 . S
C4483 C4489 1.491 . S
C4484 H4475 0.950 . S
C4484 C4483 1.398 . S
C4484 C4485 1.391 . S
C4485 H4473 0.950 . S
C4485 C4481 1.393 . S
C4485 C4484 1.391 . S
C4486 H4476 0.950 . S
C4486 C4487 1.386 . S
C4486 C4488 1.391 . S
C4487 C4486 1.386 . S
C4487 C4491 1.393 1_655 S
C4488 H4477 0.950 . S
C4488 C4486 1.391 . S
C4488 C4489 1.400 . S
C4489 C4483 1.491 . S
C4489 C4488 1.400 . S
C4489 C4490 1.398 . S
C4490 H4478 0.950 1_655 S
C4490 C4489 1.398 . S
C4490 C4491 1.391 1_655 S
C4491 H4479 0.950 . S
C4491 C4487 1.393 1_455 S
C4491 C4490 1.391 1_455 S
H4492 C4500 0.950 . S
H4493 C4505 0.950 . S
H4494 C4502 0.950 . S
H4495 C4504 0.950 . S
H4496 C4506 0.950 . S
H4497 C4508 0.950 . S
H4498 C4510 0.950 . S
H4499 C4511 0.950 . S
C4500 H4492 0.950 . S
C4500 C4501 1.386 . S
C4500 C4502 1.391 . S
C4501 C4500 1.386 . S
C4501 C4505 1.393 . S
C4502 H4494 0.950 . S
C4502 C4500 1.391 . S
C4502 C4503 1.400 . S
C4503 C4502 1.400 . S
C4503 C4504 1.398 . S
C4503 C4509 1.491 . S
C4504 H4495 0.950 . S
C4504 C4503 1.398 . S
C4504 C4505 1.391 . S
C4505 H4493 0.950 . S
C4505 C4501 1.393 . S
C4505 C4504 1.391 . S
C4506 H4496 0.950 . S
C4506 C4507 1.386 . S
C4506 C4508 1.391 . S
C4507 C4506 1.386 . S
C4507 C4511 1.393 . S
C4508 H4497 0.950 . S
C4508 C4506 1.391 . S
C4508 C4509 1.400 . S
C4509 C4503 1.491 . S
C4509 C4508 1.400 . S
C4509 C4510 1.398 . S
C4510 H4498 0.950 . S
C4510 C4509 1.398 . S
C4510 C4511 1.391 . S
C4511 H4499 0.950 . S
C4511 C4507 1.393 . S
C4511 C4510 1.391 . S
H4512 C4520 0.950 . S
H4513 C4525 0.950 . S
H4514 C4522 0.950 . S
H4515 C4524 0.950 . S
H4516 C4526 0.950 . S
H4517 C4528 0.950 . S
H4518 C4530 0.950 . S
H4519 C4531 0.950 . S
C4520 H4512 0.950 . S
C4520 C4521 1.386 . S
C4520 C4522 1.391 . S
C4521 C4520 1.386 . S
C4521 C4525 1.393 . S
C4522 H4514 0.950 . S
C4522 C4520 1.391 . S
C4522 C4523 1.400 . S
C4523 C4522 1.400 . S
C4523 C4524 1.398 . S
C4523 C4529 1.491 . S
C4524 H4515 0.950 . S
C4524 C4523 1.398 . S
C4524 C4525 1.391 . S
C4525 H4513 0.950 . S
C4525 C4521 1.393 . S
C4525 C4524 1.391 . S
C4526 H4516 0.950 . S
C4526 C4527 1.386 . S
C4526 C4528 1.391 . S
C4527 C4526 1.386 . S
C4527 C4531 1.393 . S
C4528 H4517 0.950 . S
C4528 C4526 1.391 . S
C4528 C4529 1.400 . S
C4529 C4523 1.491 . S
C4529 C4528 1.400 . S
C4529 C4530 1.398 . S
C4530 H4518 0.950 . S
C4530 C4529 1.398 . S
C4530 C4531 1.391 . S
C4531 H4519 0.950 . S
C4531 C4527 1.393 . S
C4531 C4530 1.391 . S
H4532 C4540 0.950 . S
H4533 C4545 0.950 . S
H4534 C4542 0.950 . S
H4535 C4544 0.950 . S
H4536 C4546 0.950 . S
H4537 C4548 0.950 . S
H4538 C4550 0.950 . S
H4539 C4551 0.950 . S
C4540 H4532 0.950 . S
C4540 C4541 1.386 . S
C4540 C4542 1.391 . S
C4541 C4540 1.386 . S
C4541 C4545 1.393 . S
C4542 H4534 0.950 . S
C4542 C4540 1.391 . S
C4542 C4543 1.400 . S
C4543 C4542 1.400 . S
C4543 C4544 1.398 . S
C4543 C4549 1.491 . S
C4544 H4535 0.950 . S
C4544 C4543 1.398 . S
C4544 C4545 1.391 . S
C4545 H4533 0.950 . S
C4545 C4541 1.393 . S
C4545 C4544 1.391 . S
C4546 H4536 0.950 . S
C4546 C4547 1.386 1_565 S
C4546 C4548 1.391 . S
C4547 C4546 1.386 1_545 S
C4547 C4551 1.393 . S
C4548 H4537 0.950 . S
C4548 C4546 1.391 . S
C4548 C4549 1.400 . S
C4549 C4543 1.491 . S
C4549 C4548 1.400 . S
C4549 C4550 1.398 . S
C4550 H4538 0.950 . S
C4550 C4549 1.398 . S
C4550 C4551 1.391 1_565 S
C4551 H4539 0.950 . S
C4551 C4547 1.393 . S
C4551 C4550 1.391 1_545 S
H4552 C4560 0.950 . S
H4553 C4565 0.950 . S
H4554 C4562 0.950 . S
H4555 C4564 0.950 . S
H4556 C4566 0.950 . S
H4557 C4568 0.950 . S
H4558 C4570 0.950 . S
H4559 C4571 0.950 . S
C4560 H4552 0.950 . S
C4560 C4561 1.386 . S
C4560 C4562 1.391 . S
C4561 C4560 1.386 . S
C4561 C4565 1.393 . S
C4562 H4554 0.950 . S
C4562 C4560 1.391 . S
C4562 C4563 1.400 . S
C4563 C4562 1.400 . S
C4563 C4564 1.398 . S
C4563 C4569 1.491 . S
C4564 H4555 0.950 . S
C4564 C4563 1.398 . S
C4564 C4565 1.391 . S
C4565 H4553 0.950 . S
C4565 C4561 1.393 . S
C4565 C4564 1.391 . S
C4566 H4556 0.950 . S
C4566 C4567 1.386 . S
C4566 C4568 1.391 . S
C4567 C4566 1.386 . S
C4567 C4571 1.393 . S
C4568 H4557 0.950 . S
C4568 C4566 1.391 . S
C4568 C4569 1.400 . S
C4569 C4563 1.491 . S
C4569 C4568 1.400 . S
C4569 C4570 1.398 . S
C4570 H4558 0.950 . S
C4570 C4569 1.398 . S
C4570 C4571 1.391 . S
C4571 H4559 0.950 . S
C4571 C4567 1.393 . S
C4571 C4570 1.391 . S
H4572 C4580 0.950 . S
H4573 C4585 0.950 . S
H4574 C4582 0.950 . S
H4575 C4584 0.950 . S
H4576 C4586 0.950 . S
H4577 C4588 0.950 1_556 S
H4578 C4590 0.950 . S
H4579 C4591 0.950 . S
C4580 H4572 0.950 . S
C4580 C4581 1.386 1_554 S
C4580 C4582 1.391 . S
C4581 C4580 1.386 1_556 S
C4581 C4585 1.393 . S
C4582 H4574 0.950 . S
C4582 C4580 1.391 . S
C4582 C4583 1.400 . S
C4583 C4582 1.400 . S
C4583 C4584 1.398 1_554 S
C4583 C4589 1.491 . S
C4584 H4575 0.950 . S
C4584 C4583 1.398 1_556 S
C4584 C4585 1.391 . S
C4585 H4573 0.950 . S
C4585 C4581 1.393 . S
C4585 C4584 1.391 . S
C4586 H4576 0.950 . S
C4586 C4587 1.386 . S
C4586 C4588 1.391 . S
C4587 C4586 1.386 . S
C4587 C4591 1.393 . S
C4588 H4577 0.950 1_554 S
C4588 C4586 1.391 . S
C4588 C4589 1.400 . S
C4589 C4583 1.491 . S
C4589 C4588 1.400 . S
C4589 C4590 1.398 . S
C4590 H4578 0.950 . S
C4590 C4589 1.398 . S
C4590 C4591 1.391 . S
C4591 H4579 0.950 . S
C4591 C4587 1.393 . S
C4591 C4590 1.391 . S
H4592 C4600 0.950 . S
H4593 C4605 0.950 . S
H4594 C4602 0.950 . S
H4595 C4604 0.950 . S
H4596 C4606 0.950 . S
H4597 C4608 0.950 . S
H4598 C4610 0.950 . S
H4599 C4611 0.950 . S
C4600 H4592 0.950 . S
C4600 C4601 1.386 . S
C4600 C4602 1.391 . S
C4601 C4600 1.386 . S
C4601 C4605 1.393 . S
C4602 H4594 0.950 . S
C4602 C4600 1.391 . S
C4602 C4603 1.400 . S
C4603 C4602 1.400 . S
C4603 C4604 1.398 . S
C4603 C4609 1.491 . S
C4604 H4595 0.950 . S
C4604 C4603 1.398 . S
C4604 C4605 1.391 . S
C4605 H4593 0.950 . S
C4605 C4601 1.393 . S
C4605 C4604 1.391 . S
C4606 H4596 0.950 . S
C4606 C4607 1.386 . S
C4606 C4608 1.391 . S
C4607 C4606 1.386 . S
C4607 C4611 1.393 . S
C4608 H4597 0.950 . S
C4608 C4606 1.391 . S
C4608 C4609 1.400 . S
C4609 C4603 1.491 . S
C4609 C4608 1.400 . S
C4609 C4610 1.398 . S
C4610 H4598 0.950 . S
C4610 C4609 1.398 . S
C4610 C4611 1.391 . S
C4611 H4599 0.950 . S
C4611 C4607 1.393 . S
C4611 C4610 1.391 . S
H4612 C4620 0.950 . S
H4613 C4625 0.950 . S
H4614 C4622 0.950 . S
H4615 C4624 0.933 1_556 S
H4616 C4626 0.950 . S
H4617 C4628 0.950 . S
H4618 C4630 0.925 1_554 S
H4619 C4631 0.950 . S
C4620 H4612 0.950 . S
C4620 C4621 1.386 . S
C4620 C4622 1.391 . S
C4621 C4620 1.386 . S
C4621 C4625 1.393 . S
C4622 H4614 0.950 . S
C4622 C4620 1.391 . S
C4622 C4623 1.400 . S
C4623 C4622 1.400 . S
C4623 C4624 1.407 . S
C4623 C4629 1.491 1_554 S
C4624 H4615 0.933 1_554 S
C4624 C4623 1.407 . S
C4624 C4625 1.401 . S
C4625 H4613 0.950 . S
C4625 C4621 1.393 . S
C4625 C4624 1.401 . S
C4626 H4616 0.950 . S
C4626 C4627 1.386 . S
C4626 C4628 1.391 . S
C4627 C4626 1.386 . S
C4627 C4631 1.393 . S
C4628 H4617 0.950 . S
C4628 C4626 1.391 . S
C4628 C4629 1.400 . S
C4629 C4623 1.491 1_556 S
C4629 C4628 1.400 . S
C4629 C4630 1.398 . S
C4630 H4618 0.925 1_556 S
C4630 C4629 1.398 . S
C4630 C4631 1.391 . S
C4631 H4619 0.950 . S
C4631 C4627 1.393 . S
C4631 C4630 1.391 . S
H4632 C4640 0.950 . S
H4633 C4645 0.950 . S
H4634 C4642 0.950 . S
H4635 C4644 0.950 . S
H4636 C4646 0.950 . S
H4637 C4648 0.950 . S
H4638 C4650 0.950 . S
H4639 C4651 0.950 . S
C4640 H4632 0.950 . S
C4640 C4641 1.386 . S
C4640 C4642 1.391 . S
C4641 C4640 1.386 . S
C4641 C4645 1.393 . S
C4642 H4634 0.950 . S
C4642 C4640 1.391 . S
C4642 C4643 1.400 . S
C4643 C4642 1.400 . S
C4643 C4644 1.398 . S
C4643 C4649 1.491 . S
C4644 H4635 0.950 . S
C4644 C4643 1.398 . S
C4644 C4645 1.391 . S
C4645 H4633 0.950 . S
C4645 C4641 1.393 . S
C4645 C4644 1.391 . S
C4646 H4636 0.950 . S
C4646 C4647 1.386 . S
C4646 C4648 1.391 . S
C4647 C4646 1.386 . S
C4647 C4651 1.393 . S
C4648 H4637 0.950 . S
C4648 C4646 1.391 . S
C4648 C4649 1.400 . S
C4649 C4643 1.491 . S
C4649 C4648 1.400 . S
C4649 C4650 1.398 . S
C4650 H4638 0.950 . S
C4650 C4649 1.398 . S
C4650 C4651 1.391 . S
C4651 H4639 0.950 . S
C4651 C4647 1.393 . S
C4651 C4650 1.391 . S
H4652 C4660 0.950 . S
H4653 C4665 0.950 . S
H4654 C4662 0.950 . S
H4655 C4664 0.950 . S
H4656 C4666 0.950 . S
H4657 C4668 0.950 . S
H4658 C4670 0.950 . S
H4659 C4671 0.950 . S
C4660 H4652 0.950 . S
C4660 C4661 1.386 . S
C4660 C4662 1.391 . S
C4661 C4660 1.386 . S
C4661 C4665 1.393 . S
C4662 H4654 0.950 . S
C4662 C4660 1.391 . S
C4662 C4663 1.400 . S
C4663 C4662 1.400 . S
C4663 C4664 1.398 . S
C4663 C4669 1.491 . S
C4664 H4655 0.950 . S
C4664 C4663 1.398 . S
C4664 C4665 1.391 . S
C4665 H4653 0.950 . S
C4665 C4661 1.393 . S
C4665 C4664 1.391 . S
C4666 H4656 0.950 . S
C4666 C4667 1.386 . S
C4666 C4668 1.391 . S
C4667 C4666 1.386 . S
C4667 C4671 1.393 . S
C4668 H4657 0.950 . S
C4668 C4666 1.391 . S
C4668 C4669 1.400 . S
C4669 C4663 1.491 . S
C4669 C4668 1.400 . S
C4669 C4670 1.398 . S
C4670 H4658 0.950 . S
C4670 C4669 1.398 . S
C4670 C4671 1.391 . S
C4671 H4659 0.950 . S
C4671 C4667 1.393 . S
C4671 C4670 1.391 . S
C2761 C665 2.223 . S
C2767 C2122 2.226 1_556 S
C2781 C381 2.030 . S
C2787 C2170 2.021 . S
C2801 C460 1.085 . S
C2807 C2202 1.120 . S
C2827 C2247 1.374 . S
C2821 C585 1.383 . S
C2841 C108 1.257 . S
C2847 C2287 1.231 . S
C2867 C2318 0.238 . S
C2861 C196 0.356 . S
C2887 C2370 1.278 . S
C2881 C313 1.259 . S
C2901 C49 1.688 . S
C2907 C2402 1.666 . S
C2927 C2130 2.405 . S
C2921 C1457 2.432 . S
C2941 C1545 0.262 . S
C2947 C2167 0.401 . S
C2967 C2210 1.294 . S
C2961 C1721 1.322 . S
C2987 C2242 1.363 . S
C2981 C1113 1.318 . S
C3001 C1428 1.849 . S
C3007 C2282 1.881 . S
C3027 C2321 1.427 . S
C3021 C1516 1.445 . S
C3047 C2367 0.317 . S
C3041 C1692 0.205 . S
C3067 C2410 2.022 . S
C3061 C1085 2.047 . S
C3087 C2127 1.435 . S
C3081 C988 1.467 . S
C3101 C1817 1.940 . S
C3107 C2450 1.925 . S
C3127 C2491 2.501 . S
C3121 C2081 2.581 . S
C3147 C2522 0.553 1_655 S
C3141 C1993 0.608 . S
C3161 C761 1.367 . S
C3167 C2407 1.332 . S
C3181 C821 1.497 . S
C3187 C2207 1.469 . S
C3201 C2053 2.281 . S
C3207 C2570 2.247 . S
C3227 C2602 0.376 . S
C3221 C1868 0.296 . S
C3247 C2131 2.226 . S
C3241 C372 2.223 . S
C3267 C2601 2.019 . S
C3261 C645 2.026 . S
C3281 C577 1.104 . S
C3287 C2211 1.098 . S
C3301 C497 1.371 . S
C3307 C2558 1.352 . S
C3327 C2278 1.205 . S
C3321 C57 1.243 . S
C3341 C293 0.269 . S
C3347 C2487 0.251 . S
C3367 C2361 1.241 1_556 S
C3361 C205 1.239 . S
C3387 C2651 1.641 . S
C3381 C145 1.704 . S
C3407 C2121 2.400 . S
C3401 C909 2.426 1_545 S
C3427 C2598 0.453 . S
C3421 C1956 0.289 . S
C3441 C724 1.323 . S
C3447 C2201 1.299 . S
C3461 C1780 1.317 . S
C3467 C2571 1.357 . S
C3481 C937 1.861 . S
C3487 C2291 1.872 . S
C3507 C2490 1.426 . S
C3501 C1985 1.446 . S
C3521 C753 0.166 . S
C3527 C2358 0.310 . S
C3541 C1809 2.036 . S
C3547 C2641 2.005 . S
C3561 C1173 1.478 . S
C3567 C2118 1.452 . S
C3581 C1105 1.932 . S
C3587 C2441 1.916 . S
C3601 C1633 2.578 . S
C3607 C2322 2.507 . S
C3621 C1553 0.573 . S
C3627 C2531 0.559 . S
C3647 C2638 1.334 . S
C3641 C1729 1.367 . S
C3661 C1340 1.507 . S
C3667 C2198 1.479 . S
C3687 C2241 2.235 . S
C3681 C1604 2.273 . S
C3707 C2171 0.408 . S
C3701 C1252 0.276 . S
C3721 C489 2.227 . S
C3727 C2682 2.225 . S
C3747 C2610 2.030 . S
C3741 C557 2.029 . S
C3761 C636 1.109 . S
C3767 C2722 1.115 1_556 S
C3781 C409 1.378 . S
C3787 C2567 1.368 . S
C3801 C284 1.260 . S
C3807 C2447 1.228 . S
C3827 C2478 0.232 . S
C3821 C20 0.309 . S
C3847 C2530 1.272 . S
C3841 C137 1.268 . S
C3867 C2642 1.644 . S
C3861 C225 1.695 . S
C3887 C2690 2.406 . S
C3881 C1641 2.430 . S
C3901 C1193 0.255 . S
C3907 C2607 0.388 . S
C3927 C2730 1.297 . S
C3921 C1289 1.322 . S
C3947 C2562 1.365 . S
C3941 C1377 1.313 . S
C3967 C2442 1.887 . S
C3961 C1613 1.845 . S
C3981 C1164 1.443 . S
C3987 C2481 1.422 . S
C4007 C2527 0.314 . S
C4001 C1261 0.199 . S
C4021 C1349 2.044 . S
C4027 C2650 2.018 . S
C4047 C2687 1.459 . S
C4041 C1965 1.475 . S
C4061 C849 1.935 . S
C4067 C2290 1.917 . S
C4087 C2331 2.511 . S
C4081 C929 2.582 . S
C4107 C2362 0.561 . S
C4101 C1017 0.581 . S
C4127 C2647 1.346 . S
C4121 C1897 1.377 . S
C4141 C1789 1.512 . S
C4147 C2727 1.490 . S
C4167 C2250 2.235 . S
C4161 C900 2.274 . S
C4187 C2162 0.412 . S
C4181 C733 0.308 . S
C4201 C548 2.219 . S
C4207 C2691 2.232 . S
C4227 C2161 2.022 . S
C4221 C469 2.029 . S
C4241 C401 1.078 . S
C4247 C2731 1.114 . S
C4261 C673 1.371 . S
C4267 C2238 1.352 . S
C4281 C233 1.257 . S
C4287 C2438 1.218 . S
C4307 C2327 0.253 . S
C4301 C117 0.269 . S
C4321 C29 1.238 . S
C4327 C2521 1.256 . S
C4341 C321 1.689 . S
C4347 C2411 1.646 . S
C4367 C2681 2.408 . S
C4361 C2044 2.430 . S
C4381 C997 0.243 . S
C4387 C2158 0.378 . S
C4407 C2721 1.306 . S
C4401 C1877 1.321 . S
C4421 C812 1.330 . S
C4427 C2251 1.350 . S
C4441 C2073 1.850 . S
C4447 C2451 1.876 . S
C4467 C2330 1.410 . S
C4461 C1025 1.440 . S
C4481 C1905 0.203 . S
C4487 C2518 0.322 . S
C4507 C2401 2.020 . S
C4501 C841 2.046 . S
C4527 C2678 1.446 . S
C4521 C1525 1.465 . S
C4547 C2281 1.924 1_655 S
C4541 C1369 1.935 . S
C4561 C1465 2.579 . S
C4567 C2482 2.493 . S
C4587 C2371 0.565 . S
C4581 C1201 0.552 . S
C4601 C1281 1.385 . S
C4607 C2398 1.355 . S
C4621 C1076 1.513 . S
C4627 C2718 1.490 . S
C4647 C2561 2.240 . S
C4641 C1437 2.271 . S
C4667 C2611 0.431 . S
C4661 C1701 0.275 . S
