# Generated by pormake.
# Topology anh, (6,3)-cn, num edge types: 1
# Building blocks:
#     Node 0, Type 0, BuildingBlock: BETGAK_clean_sbu_0, # of connection points: 6
#     Node 1, Type 0, BuildingBlock: BETGAK_clean_sbu_0, # of connection points: 6
#     Node 2, Type 0, BuildingBlock: BETGAK_clean_sbu_0, # of connection points: 6
#     Node 3, Type 1, BuildingBlock: WUSLED_clean_sbu_0, # of connection points: 3
#     Node 4, Type 1, BuildingBlock: WUSLED_clean_sbu_0, # of connection points: 3
#     Node 5, Type 1, BuildingBlock: WUSLED_clean_sbu_0, # of connection points: 3
#     Node 6, Type 1, BuildingBlock: WUSLED_clean_sbu_0, # of connection points: 3
#     Node 7, Type 1, BuildingBlock: WUSLED_clean_sbu_0, # of connection points: 3
#     Node 8, Type 1, BuildingBlock: WUSLED_clean_sbu_0, # of connection points: 3
#     Edge 9, Type (0, 1), BuildingBlock: TEMPAE_clean_linker_10, # of connection points: 2
#     Edge 10, Type (0, 1), BuildingBlock: TEMPAE_clean_linker_10, # of connection points: 2
#     Edge 11, Type (0, 1), BuildingBlock: TEMPAE_clean_linker_10, # of connection points: 2
#     Edge 12, Type (0, 1), BuildingBlock: TEMPAE_clean_linker_10, # of connection points: 2
#     Edge 13, Type (0, 1), BuildingBlock: TEMPAE_clean_linker_10, # of connection points: 2
#     Edge 14, Type (0, 1), BuildingBlock: TEMPAE_clean_linker_10, # of connection points: 2
#     Edge 15, Type (0, 1), BuildingBlock: TEMPAE_clean_linker_10, # of connection points: 2
#     Edge 16, Type (0, 1), BuildingBlock: TEMPAE_clean_linker_10, # of connection points: 2
#     Edge 17, Type (0, 1), BuildingBlock: TEMPAE_clean_linker_10, # of connection points: 2
#     Edge 18, Type (0, 1), BuildingBlock: TEMPAE_clean_linker_10, # of connection points: 2
#     Edge 19, Type (0, 1), BuildingBlock: TEMPAE_clean_linker_10, # of connection points: 2
#     Edge 20, Type (0, 1), BuildingBlock: TEMPAE_clean_linker_10, # of connection points: 2
#     Edge 21, Type (0, 1), BuildingBlock: TEMPAE_clean_linker_10, # of connection points: 2
#     Edge 22, Type (0, 1), BuildingBlock: TEMPAE_clean_linker_10, # of connection points: 2
#     Edge 23, Type (0, 1), BuildingBlock: TEMPAE_clean_linker_10, # of connection points: 2
#     Edge 24, Type (0, 1), BuildingBlock: TEMPAE_clean_linker_10, # of connection points: 2
#     Edge 25, Type (0, 1), BuildingBlock: TEMPAE_clean_linker_10, # of connection points: 2
#     Edge 26, Type (0, 1), BuildingBlock: TEMPAE_clean_linker_10, # of connection points: 2
# Relax obj value: 0.170
# Max RMSD: 0.199
# Mean RMSD: 0.148
data_MOF--net-anh--node1-BETGAK_clean_sbu_0--node2-WUSLED_clean_sbu_0--edge1-TEMPAE_clean_linker_10
_symmetry_space_group_name_H-M    P1
_symmetry_Int_Tables_number       1
_symmetry_cell_setting            triclinic
loop_
_symmetry_equiv_pos_as_xyz
'x, y, z'
_cell_length_a     41.292921
_cell_length_b     46.799653
_cell_length_c     70.065404
_cell_angle_alpha  91.96712
_cell_angle_beta   89.721052
_cell_angle_gamma 128.38184
loop_
_atom_site_label
_atom_site_type_symbol
_atom_site_fract_x
_atom_site_fract_y
_atom_site_fract_z
_atom_type_partial_charge
La0 La 0.08326 0.49897 0.17471 0.0
La1 La 1.04437 0.53191 0.17536 0.0
C2 C 0.13206 0.4857 0.17035 0.0
C3 C 0.17663 0.51302 0.17293 0.0
C4 C 0.19477 0.5274 0.19122 0.0
C5 C 0.23751 0.55172 0.19333 0.0
C6 C 0.26195 0.55896 0.17737 0.0
C7 C 0.24381 0.55154 0.15904 0.0
C8 C 0.20125 0.52779 0.15686 0.0
C9 C 0.05918 0.50283 0.20898 0.0
C10 C 0.13928 0.58633 0.17464 0.0
C11 C 1.00987 0.55441 0.19154 0.0
C12 C 0.9657 0.5356 0.19183 0.0
C13 C 0.94812 0.54228 0.17745 0.0
C14 C 0.90624 0.51768 0.17368 0.0
C15 C 0.88118 0.48623 0.18438 0.0
C16 C 0.8981 0.48076 0.19967 0.0
C17 C 0.94026 0.50553 0.2035 0.0
C18 C 0.05022 0.52179 0.13813 0.0
C19 C 0.98838 0.44546 0.1705 0.0
O20 O 0.11069 0.47754 0.18583 0.0
O21 O 0.11623 0.49052 0.15588 0.0
O22 O 0.05281 0.47402 0.2016 0.0
O23 O 0.07774 0.52773 0.19691 0.0
O24 O 0.13828 0.55764 0.17617 0.0
O25 O 0.10536 0.58277 0.17369 0.0
O26 O 1.02679 0.56521 0.17477 0.0
O27 O 1.02139 0.53789 0.20041 0.0
O28 O 1.03201 0.53422 0.14539 0.0
O29 O 0.06262 0.51323 0.15183 0.0
O30 O 0.98973 0.47365 0.17579 0.0
O31 O 1.02233 0.44975 0.16664 0.0
H32 H 0.17631 0.51864 0.20394 0.0
H33 H 0.25092 0.55989 0.20763 0.0
H34 H 0.26142 0.55891 0.14615 0.0
H35 H 0.18775 0.51934 0.14256 0.0
H36 H 0.96701 0.56541 0.16841 0.0
H37 H 0.89344 0.52351 0.16241 0.0
H38 H 0.87886 0.45733 0.20848 0.0
H39 H 0.95308 0.50003 0.21491 0.0
La40 La 0.58091 1.00656 0.49466 0.0
La41 La 0.53558 0.03486 0.49427 0.0
C42 C 0.6044 0.96924 0.50097 0.0
C43 C 0.5855 0.93007 0.49961 0.0
C44 C 0.58497 0.91366 0.48228 0.0
C45 C 0.5714 0.87785 0.48161 0.0
C46 C 0.55864 0.85782 0.4983 0.0
C47 C 0.55701 0.87365 0.51536 0.0
C48 C 0.57025 0.90931 0.51599 0.0
C49 C 0.57201 0.02242 0.46007 0.0
C50 C 0.48185 0.95109 0.49239 0.0
C51 C 0.51412 0.0732 0.48672 0.0
C52 C 0.53189 0.11178 0.49053 0.0
C53 C 0.52375 0.12247 0.50771 0.0
C54 C 0.53594 0.15762 0.51031 0.0
C55 C 0.55655 0.18276 0.49583 0.0
C56 C 0.56741 0.17318 0.47923 0.0
C57 C 0.55497 0.13783 0.47654 0.0
C58 C 0.5415 0.01702 0.52857 0.0
C59 C 0.63472 0.09048 0.4985 0.0
O60 O 0.61023 0.98511 0.48494 0.0
O61 O 0.59088 0.97958 0.51426 0.0
O62 O 0.60449 0.02725 0.46643 0.0
O63 O 0.54482 1.00738 0.47275 0.0
O64 O 0.51665 0.95671 0.49652 0.0
O65 O 0.48199 0.97843 0.48811 0.0
O66 O 0.50093 0.05241 0.50144 0.0
O67 O 0.53392 0.0671 0.47485 0.0
O68 O 0.50988 0.01334 0.52192 0.0
O69 O 0.57013 0.03283 0.51649 0.0
O70 O 0.59981 0.0853 0.49561 0.0
O71 O 0.63524 0.06284 0.50041 0.0
H72 H 0.59622 0.92879 0.46932 0.0
H73 H 0.57216 0.8663 0.46811 0.0
H74 H 0.54775 0.85936 0.52857 0.0
H75 H 0.5701 0.92109 0.52954 0.0
H76 H 0.50645 0.1033 0.51886 0.0
H77 H 0.52752 0.16467 0.52327 0.0
H78 H 0.58322 0.19224 0.46789 0.0
H79 H 0.56194 0.13049 0.4632 0.0
La80 La 0.61755 0.57859 0.84308 0.0
La81 La 0.56324 0.49839 0.84312 0.0
C82 C 0.64627 0.64306 0.83645 0.0
C83 C 0.63035 0.66423 0.83822 0.0
C84 C 0.64139 0.68798 0.85418 0.0
C85 C 0.62875 0.70972 0.85538 0.0
C86 C 0.60486 0.70844 0.8406 0.0
C87 C 0.59263 0.68373 0.82497 0.0
C88 C 0.60525 0.662 0.82378 0.0
C89 C 0.60512 0.5516 0.87643 0.0
C90 C 0.51565 0.53287 0.84677 0.0
C91 C 0.53431 0.43371 0.84972 0.0
C92 C 0.54842 0.41102 0.84782 0.0
C93 C 0.53737 0.3881 0.83147 0.0
C94 C 0.54657 0.36384 0.83038 0.0
C95 C 0.5671 0.3619 0.84557 0.0
C96 C 0.57967 0.38564 0.86161 0.0
C97 C 0.57036 0.4099 0.86276 0.0
C98 C 0.57371 0.52528 0.80948 0.0
C99 C 0.66539 0.54444 0.84314 0.0
O100 O 0.65291 0.6336 0.85241 0.0
O101 O 0.62947 0.61676 0.82323 0.0
O102 O 0.63991 0.5817 0.87167 0.0
O103 O 0.5785 0.53939 0.86334 0.0
O104 O 0.5533 0.56396 0.84311 0.0
O105 O 0.51254 0.50289 0.8493 0.0
O106 O 0.52707 0.44319 0.83392 0.0
O107 O 0.55263 0.46036 0.86276 0.0
O108 O 0.53933 0.49587 0.81514 0.0
O109 O 0.60179 0.53757 0.82203 0.0
O110 O 0.62709 0.51293 0.84473 0.0
O111 O 0.66945 0.57483 0.84057 0.0
H112 H 0.6605 0.69028 0.86565 0.0
H113 H 0.63819 0.72792 0.86779 0.0
H114 H 0.57462 0.68218 0.81321 0.0
H115 H 0.59603 0.64405 0.81129 0.0
H116 H 0.52043 0.38804 0.81969 0.0
H117 H 0.53648 0.34572 0.81788 0.0
H118 H 0.59533 0.38447 0.87355 0.0
H119 H 0.57929 0.427 0.8756 0.0
C120 C 0.64706 0.11766 0.19259 0.0
C121 C 0.66559 0.14382 0.2078 0.0
C122 C 0.72128 0.18908 0.187 0.0
C123 C 0.70233 0.1793 0.20499 0.0
C124 C 0.70217 0.16269 0.17189 0.0
C125 C 0.66559 0.12756 0.17467 0.0
U126 U 0.5551 0.02792 0.21761 0.0
O127 O 0.49103 0.9902 0.2059 0.0
O128 O 0.52957 0.97245 0.20687 0.0
C129 C 0.4946 0.96484 0.20119 0.0
C130 C 0.60861 0.07982 0.19448 0.0
C131 C 0.45739 0.9264 0.19786 0.0
C132 C 0.41119 0.87614 0.17487 0.0
C133 C 0.44568 0.91248 0.17891 0.0
C134 C 0.39886 0.86695 0.20873 0.0
C135 C 0.38734 0.85304 0.18973 0.0
C136 C 0.43381 0.90334 0.21279 0.0
C137 C 0.55975 0.03681 0.27544 0.0
C138 C 0.5289 0.99926 0.30332 0.0
C139 C 0.58089 0.0646 0.30759 0.0
C140 C 0.58401 0.06764 0.28777 0.0
C141 C 0.55392 0.03032 0.31589 0.0
C142 C 0.53168 1.0025 0.28332 0.0
C143 C 0.5666 0.04239 0.25466 0.0
O144 O 0.61227 0.05601 0.20107 0.0
O145 O 0.57548 0.07512 0.20052 0.0
O146 O 0.54343 0.04661 0.24433 0.0
O147 O 0.58136 0.02823 0.24506 0.0
H148 H 0.65185 0.13683 0.22176 0.0
H149 H 0.7163 0.19888 0.21698 0.0
H150 H 0.71534 0.1693 0.1578 0.0
H151 H 0.65168 0.10793 0.16269 0.0
H152 H 0.40294 0.86613 0.16013 0.0
H153 H 0.46343 0.92979 0.16715 0.0
H154 H 0.38104 0.84951 0.22042 0.0
H155 H 0.4424 0.9134 0.2275 0.0
H156 H 0.50783 0.97222 0.30881 0.0
H157 H 0.5998 0.08956 0.31628 0.0
H158 H 0.60589 0.09445 0.28203 0.0
H159 H 0.51249 0.97827 0.27407 0.0
C160 C 0.54803 0.58603 0.53845 0.0
C161 C 0.54772 0.60788 0.55262 0.0
C162 C 0.55007 0.64486 0.52799 0.0
C163 C 0.54883 0.63724 0.5474 0.0
C164 C 0.55065 0.62293 0.51404 0.0
C165 C 0.54959 0.59389 0.51923 0.0
U166 U 0.55106 0.52212 0.5714 0.0
O167 O 0.58926 0.50452 0.56795 0.0
O168 O 0.52135 0.46377 0.56583 0.0
C169 C 0.55712 0.47005 0.56519 0.0
C170 C 0.54827 0.5556 0.54285 0.0
C171 C 0.56214 0.44764 0.55219 0.0
C172 C 0.54491 0.40793 0.52406 0.0
C173 C 0.54244 0.43315 0.53414 0.0
C174 C 0.5886 0.41382 0.5494 0.0
C175 C 0.5668 0.39696 0.53205 0.0
C176 C 0.58591 0.43839 0.55935 0.0
C177 C 0.55726 0.53922 0.6271 0.0
C178 C 0.56165 0.50886 0.65344 0.0
C179 C 0.56757 0.56316 0.65968 0.0
C180 C 0.56267 0.5651 0.64025 0.0
C181 C 0.56747 0.5353 0.66661 0.0
C182 C 0.55675 0.51089 0.63374 0.0
C183 C 0.55293 0.54389 0.60677 0.0
O184 O 0.58284 0.56464 0.5502 0.0
O185 O 0.515 0.52699 0.55056 0.0
O186 O 0.51848 0.51768 0.59759 0.0
O187 O 0.586 0.55886 0.59637 0.0
H188 H 0.5467 0.60232 0.56758 0.0
H189 H 0.54816 0.65362 0.55846 0.0
H190 H 0.55233 0.62844 0.49903 0.0
H191 H 0.55027 0.57758 0.50813 0.0
H192 H 0.52822 0.39583 0.51058 0.0
H193 H 0.5243 0.44033 0.5282 0.0
H194 H 0.60692 0.40713 0.55572 0.0
H195 H 0.60151 0.44935 0.57316 0.0
H196 H 0.56151 0.48707 0.65833 0.0
H197 H 0.57104 0.58348 0.66936 0.0
H198 H 0.5631 0.5871 0.63544 0.0
H199 H 0.55277 0.49064 0.62379 0.0
C200 C 0.9915 0.53629 0.86973 0.0
C201 C 0.96337 0.52928 0.88422 0.0
C202 C 0.9206 0.53822 0.863 0.0
C203 C 0.92943 0.5303 0.881 0.0
C204 C 0.94898 0.54491 0.84859 0.0
C205 C 0.98279 0.54401 0.85185 0.0
U206 U 0.08475 0.53226 0.89078 0.0
O207 O 0.10678 0.5033 0.87634 0.0
O208 O 0.14905 0.56214 0.87937 0.0
C209 C 0.14447 0.53295 0.87307 0.0
C210 C 1.02888 0.5352 0.87205 0.0
C211 C 0.18251 0.53263 0.87112 0.0
C212 C 0.22964 0.52898 0.84994 0.0
C213 C 0.19477 0.52859 0.85284 0.0
C214 C 0.24308 0.53745 0.88354 0.0
C215 C 0.25553 0.53341 0.86514 0.0
C216 C 0.20807 0.53715 0.88642 0.0
C217 C 0.08022 0.52726 0.95013 0.0
C218 C 0.11293 0.53241 0.98079 0.0
C219 C 1.04613 0.51854 0.98077 0.0
C220 C 0.04668 0.51985 0.9606 0.0
C221 C 0.07928 0.52492 0.9913 0.0
C222 C 0.11329 0.53339 0.96056 0.0
C223 C 0.08047 0.52882 0.92857 0.0
O224 O 0.06571 0.56385 0.87828 0.0
O225 O 1.02312 0.50499 0.87587 0.0
O226 O 0.05981 0.49964 0.91705 0.0
O227 O 0.10377 0.55971 0.91973 0.0
H228 H 0.96751 0.52295 0.89828 0.0
H229 H 0.91015 0.52483 0.89303 0.0
H230 H 0.94543 0.55084 0.83435 0.0
H231 H 1.00248 0.54937 0.83996 0.0
H232 H 0.23636 0.52622 0.83538 0.0
H233 H 0.1772 0.52533 0.84036 0.0
H234 H 0.26024 0.54063 0.89612 0.0
H235 H 0.20106 0.5405 0.90084 0.0
H236 H 0.13887 0.5371 0.98823 0.0
H237 H 1.01984 0.51306 0.98821 0.0
H238 H 1.0208 0.51527 0.95316 0.0
H239 H 0.13951 0.53889 0.95306 0.0
C240 C 0.95016 0.42879 0.4779 0.0
C241 C 0.92496 0.40526 0.46249 0.0
C242 C 0.88071 0.3556 0.48433 0.0
C243 C 0.8905 0.36896 0.46568 0.0
C244 C 0.90587 0.37977 0.49965 0.0
C245 C 0.94013 0.41577 0.49644 0.0
U246 U 1.04175 0.52056 0.45358 0.0
O247 O 0.06852 0.57503 0.46664 0.0
O248 O 0.1049 0.55522 0.466 0.0
C249 C 0.10279 0.58095 0.47194 0.0
C250 C 0.98759 0.46681 0.4756 0.0
C251 C 0.14143 0.61883 0.47426 0.0
C252 C 0.18689 0.67263 0.49537 0.0
C253 C 0.15003 0.63724 0.49205 0.0
C254 C 0.20773 0.67165 0.46318 0.0
C255 C 0.21635 0.69058 0.48096 0.0
C256 C 0.17063 0.63619 0.45985 0.0
C257 C 1.03631 0.5133 0.3951 0.0
C258 C 0.06795 0.54628 0.36583 0.0
C259 C 1.01114 0.48159 0.36383 0.0
C260 C 1.00893 0.48135 0.38381 0.0
C261 C 1.04092 0.51393 0.35445 0.0
C262 C 0.06575 0.54595 0.38595 0.0
C263 C 1.03313 0.51087 0.41623 0.0
O264 O 1.02088 0.47203 0.46939 0.0
O265 O 0.98324 0.49039 0.46929 0.0
O266 O 1.01846 0.52473 0.42623 0.0
O267 O 0.05455 0.50428 0.42625 0.0
H268 H 0.93216 0.41478 0.44806 0.0
H269 H 0.87211 0.35118 0.45349 0.0
H270 H 0.89906 0.37099 0.51422 0.0
H271 H 0.95907 0.43355 0.50856 0.0
H272 H 0.19181 0.68607 0.50916 0.0
H273 H 0.12812 0.62412 0.50349 0.0
H274 H 0.22984 0.68402 0.45181 0.0
H275 H 0.16492 0.62229 0.44612 0.0
H276 H 0.09143 0.5717 0.3592 0.0
H277 H 0.98924 0.4563 0.35571 0.0
H278 H 0.98572 0.45588 0.3905 0.0
H279 H 0.08723 0.57102 0.39433 0.0
C280 C 0.55222 0.94621 0.80197 0.0
C281 C 0.54572 0.92042 0.78824 0.0
C282 C 0.55956 0.89223 0.81239 0.0
C283 C 0.54928 0.89362 0.79341 0.0
C284 C 0.56582 0.91821 0.82596 0.0
C285 C 0.56206 0.94465 0.82082 0.0
U286 U 0.54856 1.00916 0.76823 0.0
O287 O 0.51951 0.03547 0.77353 0.0
O288 O 0.58691 0.06908 0.77068 0.0
C289 C 0.55513 0.06855 0.7737 0.0
C290 C 0.55089 0.97612 0.79731 0.0
C291 C 0.56147 0.09731 0.78682 0.0
C292 C 0.55175 0.12003 0.81654 0.0
C293 C 0.54824 0.09196 0.80586 0.0
C294 C 0.58323 0.15892 0.78957 0.0
C295 C 0.56808 0.15349 0.8082 0.0
C296 C 0.57977 0.13129 0.77907 0.0
C297 C 0.54607 0.9906 0.71242 0.0
C298 C 0.54101 0.01766 0.6845 0.0
C299 C 0.5574 0.97641 0.68053 0.0
C300 C 0.5552 0.97222 0.70024 0.0
C301 C 0.54991 0.99881 0.67219 0.0
C302 C 0.53917 0.01364 0.70446 0.0
C303 C 0.54473 0.98467 0.73317 0.0
O304 O 0.584 1.00438 0.78939 0.0
O305 O 0.5163 0.96716 0.78994 0.0
O306 O 0.51186 0.97478 0.74265 0.0
O307 O 0.57936 1.00727 0.74304 0.0
H308 H 0.53821 0.92114 0.77356 0.0
H309 H 0.54378 0.87393 0.78256 0.0
H310 H 0.57462 0.91877 0.84058 0.0
H311 H 0.56752 0.96442 0.83162 0.0
H312 H 0.54012 0.11502 0.83093 0.0
H313 H 0.53433 0.06602 0.81226 0.0
H314 H 0.59694 0.18451 0.7828 0.0
H315 H 0.59044 0.13621 0.7645 0.0
H316 H 0.53482 0.03505 0.67875 0.0
H317 H 0.56552 0.96219 0.67187 0.0
H318 H 0.56092 0.95451 0.70603 0.0
H319 H 0.53226 0.02831 0.71359 0.0
C320 C 0.58932 0.47678 0.1397 0.0
C321 C 0.61436 0.47751 0.1258 0.0
C322 C 0.66156 0.4895 0.15066 0.0
C323 C 0.65051 0.48383 0.1313 0.0
C324 C 0.63775 0.49071 0.16444 0.0
C325 C 0.60142 0.4843 0.15894 0.0
U326 U 0.52913 0.46816 0.09878 0.0
O327 O 0.46289 0.43737 0.09262 0.0
O328 O 0.505 0.49763 0.09324 0.0
C329 C 0.46686 0.46752 0.09451 0.0
C330 C 0.55222 0.47072 0.13358 0.0
C331 C 0.44627 0.46886 0.11087 0.0
C332 C 0.43754 0.46554 0.14525 0.0
C333 C 0.45291 0.46054 0.12889 0.0
C334 C 0.4104 0.48854 0.12564 0.0
C335 C 0.41571 0.47898 0.1435 0.0
C336 C 0.42563 0.48345 0.10933 0.0
C337 C 0.56933 0.47838 0.05036 0.0
C338 C 0.5333 0.48252 0.0248 0.0
C339 C 0.5967 0.4909 0.01875 0.0
C340 C 0.59972 0.48569 0.03783 0.0
C341 C 0.56321 0.48879 0.01212 0.0
C342 C 0.53629 0.47718 0.04394 0.0
C343 C 0.57333 0.47424 0.07038 0.0
O344 O 0.56011 0.4992 0.12545 0.0
O345 O 0.52562 0.43965 0.12392 0.0
O346 O 0.54284 0.4424 0.07701 0.0
O347 O 0.58366 0.50229 0.08124 0.0
H348 H 0.60537 0.47231 0.11081 0.0
H349 H 0.66844 0.48208 0.12067 0.0
H350 H 0.64591 0.49425 0.17949 0.0
H351 H 0.58241 0.48434 0.16963 0.0
H352 H 0.44216 0.45861 0.15904 0.0
H353 H 0.47022 0.45043 0.13031 0.0
H354 H 0.39393 0.49957 0.12436 0.0
H355 H 0.42181 0.49128 0.09566 0.0
H356 H 0.50744 0.48102 0.01985 0.0
H357 H 0.62042 0.49643 1.0091 0.0
H358 H 0.62571 0.4874 0.0428 0.0
H359 H 0.51298 0.47212 0.05373 0.0
C360 C 0.29399 0.53516 0.19323 0.0
C361 C 0.29656 0.55747 0.17928 0.0
C362 C 0.31338 0.51944 0.1908 0.0
C363 C 0.33567 0.5261 0.1741 0.0
C364 C 0.34074 0.55019 0.16052 0.0
C365 C 0.32312 0.56736 0.16392 0.0
C366 C 0.30794 0.49393 0.2055 0.0
C367 C 0.36102 0.55495 0.1416 0.0
C368 C 0.41749 0.51496 0.1699 0.0
C369 C 0.39555 0.48164 0.15961 0.0
C370 C 0.39719 0.52867 0.17602 0.0
C371 C 0.35489 0.50866 0.17115 0.0
C372 C 0.33199 0.47313 0.16261 0.0
C373 C 0.35254 0.45901 0.15818 0.0
C374 C 0.42178 0.56631 0.18553 0.0
C375 C 0.28727 0.45141 0.15625 0.0
H376 H 0.27385 0.52693 0.20527 0.0
H377 H 0.32655 0.5855 0.15342 0.0
H378 H 0.2926 0.46637 0.19884 0.0
H379 H 0.33866 0.5039 0.21099 0.0
H380 H 0.28917 0.49135 0.21772 0.0
H381 H 0.36472 0.57647 0.13317 0.0
H382 H 0.39175 0.56179 0.1437 0.0
H383 H 0.3416 0.52881 0.13305 0.0
H384 H 0.45092 0.53216 0.17096 0.0
H385 H 0.33622 0.43301 0.1503 0.0
H386 H 0.40519 0.56619 0.19809 0.0
H387 H 0.42531 0.58573 0.17538 0.0
H388 H 0.45305 0.57647 0.19022 0.0
H389 H 0.26702 0.43536 0.16826 0.0
H390 H 0.27946 0.43185 0.1442 0.0
H391 H 0.27992 0.46927 0.15162 0.0
C392 C 0.67542 0.15541 0.51005 0.0
C393 C 0.67356 0.12845 0.49947 0.0
C394 C 0.71015 0.19241 0.50941 0.0
C395 C 0.74302 0.20292 0.49716 0.0
C396 C 0.74153 0.17558 0.48671 0.0
C397 C 0.70715 0.13858 0.48829 0.0
C398 C 0.7109 0.22025 0.52138 0.0
C399 C 0.77579 0.18544 0.47348 0.0
C400 C 0.80779 0.29833 0.47736 0.0
C401 C 0.84499 0.31662 0.48789 0.0
C402 C 0.77435 0.26159 0.48041 0.0
C403 C 0.77784 0.24246 0.49444 0.0
C404 C 0.81493 0.26087 0.50539 0.0
C405 C 0.84798 0.29753 0.50195 0.0
C406 C 0.73536 0.24304 0.46841 0.0
C407 C 0.81959 0.24205 0.52095 0.0
H408 H 0.64943 0.14752 0.51875 0.0
H409 H 0.70555 0.11774 0.47998 0.0
H410 H 0.74159 0.24031 0.52847 0.0
H411 H 0.70521 0.23549 0.51208 0.0
H412 H 0.68691 0.20732 0.5325 0.0
H413 H 0.76741 0.16168 0.46443 0.0
H414 H 0.78364 0.2074 0.46401 0.0
H415 H 0.80395 0.19592 0.48203 0.0
H416 H 0.80463 0.31283 0.46676 0.0
H417 H 0.87651 0.31108 0.51015 0.0
H418 H 0.7088 0.23336 0.47773 0.0
H419 H 0.72853 0.21874 0.46062 0.0
H420 H 0.73771 0.26143 0.45788 0.0
H421 H 0.79917 0.23711 0.53292 0.0
H422 H 0.85186 0.25855 0.5266 0.0
H423 H 0.80991 0.21511 0.51566 0.0
C424 C 0.55712 0.72339 0.83351 0.0
C425 C 0.59529 0.73452 0.8406 0.0
C426 C 0.54991 0.74872 0.8309 0.0
C427 C 0.58161 0.78623 0.8354 0.0
C428 C 0.61915 0.79729 0.84381 0.0
C429 C 0.62552 0.77137 0.84631 0.0
C430 C 0.50897 0.7355 0.82246 0.0
C431 C 0.65302 0.8367 0.84972 0.0
C432 C 0.5827 0.85389 0.80588 0.0
C433 C 0.5646 0.86453 0.81816 0.0
C434 C 0.58876 0.82885 0.81146 0.0
C435 C 0.57668 0.81401 0.82983 0.0
C436 C 0.55898 0.82499 0.84241 0.0
C437 C 0.55265 0.84959 0.83635 0.0
C438 C 0.60839 0.81835 0.79771 0.0
C439 C 0.54578 0.81032 0.86218 0.0
H440 H 0.53308 0.69488 0.82956 0.0
H441 H 0.65505 0.78037 0.85192 0.0
H442 H 0.49651 0.74729 0.83071 0.0
H443 H 0.51347 0.74473 0.80762 0.0
H444 H 0.48571 0.70528 0.82216 0.0
H445 H 0.68119 0.84124 0.85513 0.0
H446 H 0.66151 0.85443 0.83748 0.0
H447 H 0.64175 0.84542 0.86113 0.0
H448 H 0.59285 0.8656 0.79197 0.0
H449 H 0.53791 0.85687 0.84592 0.0
H450 H 0.58682 0.78849 0.79448 0.0
H451 H 0.63673 0.82483 0.80433 0.0
H452 H 0.61674 0.83268 0.78408 0.0
H453 H 0.51466 0.78334 0.86121 0.0
H454 H 0.54402 0.82869 0.87179 0.0
H455 H 0.56722 0.80655 0.86875 0.0
C456 C 0.82214 0.45689 0.16237 0.0
C457 C 0.83673 0.46332 0.18122 0.0
C458 C 0.79019 0.45807 0.15813 0.0
C459 C 0.77023 0.46154 0.17339 0.0
C460 C 0.77945 0.46022 0.19255 0.0
C461 C 0.81313 0.46113 0.19632 0.0
C462 C 0.78225 0.46118 0.13754 0.0
C463 C 0.75669 0.46175 0.20898 0.0
C464 C 0.73064 0.51282 0.16225 0.0
C465 C 0.69018 0.48367 0.15683 0.0
C466 C 0.75728 0.50601 0.1684 0.0
C467 C 0.74203 0.4693 0.16917 0.0
C468 C 0.70071 0.44 0.16422 0.0
C469 C 0.67526 0.44764 0.15778 0.0
C470 C 0.80166 0.53781 0.17354 0.0
C471 C 0.68378 0.40073 0.16512 0.0
H472 H 0.84037 0.4577 0.15087 0.0
H473 H 0.82417 0.46524 0.21094 0.0
H474 H 0.74873 0.44246 0.13399 0.0
H475 H 0.7935 0.48938 0.13534 0.0
H476 H 0.7983 0.4552 0.1274 0.0
H477 H 0.76859 0.46133 0.22307 0.0
H478 H 0.75944 0.48686 0.2086 0.0
H479 H 0.72333 0.43817 0.20764 0.0
H480 H 0.74132 0.54056 0.16145 0.0
H481 H 0.64351 0.42546 0.15353 0.0
H482 H 0.82263 0.53783 0.16356 0.0
H483 H 0.80959 0.5352 0.18814 0.0
H484 H 0.80774 0.56446 0.17294 0.0
H485 H 0.69548 0.3939 0.15296 0.0
H486 H 0.64948 0.38159 0.16435 0.0
H487 H 0.69422 0.39631 0.17847 0.0
C488 C 0.4047 0.90613 0.49584 0.0
C489 C 0.44252 0.91316 0.49246 0.0
C490 C 0.36755 0.87008 0.49616 0.0
C491 C 0.36812 0.84036 0.49261 0.0
C492 C 0.40645 0.84743 0.48963 0.0
C493 C 0.44308 0.88362 0.48975 0.0
C494 C 0.32777 0.8638 0.50047 0.0
C495 C 0.40873 0.81687 0.48539 0.0
C496 C 0.27531 0.7419 0.50233 0.0
C497 C 0.25525 0.72905 0.48427 0.0
C498 C 0.31141 0.77823 0.50546 0.0
C499 C 0.3286 0.80222 0.4901 0.0
C500 C 0.30864 0.78945 0.47192 0.0
C501 C 0.27214 0.75342 0.46932 0.0
C502 C 0.33123 0.79089 0.52517 0.0
C503 C 0.3256 0.81401 0.45513 0.0
H504 H 0.40419 0.92882 0.49846 0.0
H505 H 0.4722 0.88879 0.48723 0.0
H506 H 0.3038 0.84541 0.48935 0.0
H507 H 0.31591 0.85022 0.51428 0.0
H508 H 0.33195 0.88967 0.50142 0.0
H509 H 0.44101 0.82649 0.48591 0.0
H510 H 0.3903 0.7949 0.49567 0.0
H511 H 0.39542 0.80476 0.47091 0.0
H512 H 0.26311 0.7235 0.51403 0.0
H513 H 0.25657 0.74451 0.45548 0.0
H514 H 0.33457 0.81544 0.53004 0.0
H515 H 0.36272 0.79883 0.5248 0.0
H516 H 0.31303 0.76951 0.53581 0.0
H517 H 0.32171 0.83528 0.45747 0.0
H518 H 0.30967 0.79876 0.44147 0.0
H519 H 0.35914 0.82809 0.45374 0.0
C520 C 0.60769 0.33884 0.83965 0.0
C521 C 0.57114 0.33244 0.84531 0.0
C522 C 0.60941 0.30973 0.83715 0.0
C523 C 0.5737 0.27345 0.84026 0.0
C524 C 0.53774 0.26748 0.84724 0.0
C525 C 0.53684 0.29696 0.84955 0.0
C526 C 0.64862 0.31753 0.83003 0.0
C527 C 0.49952 0.22962 0.85145 0.0
C528 C 0.55474 0.19864 0.8067 0.0
C529 C 0.56695 0.18211 0.81765 0.0
C530 C 0.55724 0.22826 0.81393 0.0
C531 C 0.57128 0.24159 0.83296 0.0
C532 C 0.58187 0.22403 0.84455 0.0
C533 C 0.57981 0.19459 0.83673 0.0
C534 C 0.54525 0.24562 0.80098 0.0
C535 C 0.5967 0.23695 0.86497 0.0
H536 H 0.63434 0.36634 0.83647 0.0
H537 H 0.50874 0.29214 0.85413 0.0
H538 H 0.65595 0.30209 0.83806 0.0
H539 H 0.64429 0.30847 0.81477 0.0
H540 H 0.67535 0.34705 0.83134 0.0
H541 H 0.47418 0.22953 0.85694 0.0
H542 H 0.4882 0.21171 0.83832 0.0
H543 H 0.50714 0.21763 0.86219 0.0
H544 H 0.54358 0.1886 0.79215 0.0
H545 H 0.58934 0.18209 0.84536 0.0
H546 H 0.57178 0.27491 0.79959 0.0
H547 H 0.5195 0.24408 0.80725 0.0
H548 H 0.53545 0.23229 0.78647 0.0
H549 H 0.63014 0.26049 0.86513 0.0
H550 H 0.59245 0.2152 0.8734 0.0
H551 H 0.58035 0.24613 0.87208 0.0
C552 C 0.52255 0.79525 0.51085 0.0
C553 C 0.55158 0.82251 0.49858 0.0
C554 C 0.52105 0.76501 0.51396 0.0
C555 C 0.54865 0.76152 0.5043 0.0
C556 C 0.57563 0.78724 0.4907 0.0
C557 C 0.57703 0.81759 0.48811 0.0
C558 C 0.49142 0.73783 0.52838 0.0
C559 C 0.60389 0.78329 0.47933 0.0
C560 C 0.57667 0.70993 0.53083 0.0
C561 C 0.5502 0.67509 0.52195 0.0
C562 C 0.57758 0.7387 0.52467 0.0
C563 C 0.55101 0.73229 0.50946 0.0
C564 C 0.52496 0.69741 0.50017 0.0
C565 C 0.52466 0.66922 0.50662 0.0
C566 C 0.6067 0.77592 0.53454 0.0
C567 C 0.49621 0.68914 0.48384 0.0
H568 H 0.50185 0.79814 0.51856 0.0
H569 H 0.59962 0.83835 0.47858 0.0
H570 H 0.47395 0.70957 0.52228 0.0
H571 H 0.50913 0.74028 0.54106 0.0
H572 H 0.46907 0.74221 0.53317 0.0
H573 H 0.62383 0.8062 0.46966 0.0
H574 H 0.62392 0.7819 0.48908 0.0
H575 H 0.58516 0.75739 0.47058 0.0
H576 H 0.59702 0.71481 0.54243 0.0
H577 H 0.50387 0.64227 0.49978 0.0
H578 H 0.58863 0.78301 0.542 0.0
H579 H 0.62589 0.79696 0.52387 0.0
H580 H 0.62753 0.77718 0.54513 0.0
H581 H 0.46663 0.68089 0.48973 0.0
H582 H 0.48925 0.66627 0.47442 0.0
H583 H 0.50917 0.71319 0.47504 0.0
C584 C 0.70073 0.51302 0.84087 0.0
C585 C 0.70399 0.54482 0.84454 0.0
C586 C 0.73514 0.51224 0.84257 0.0
C587 C 0.77549 0.54356 0.84904 0.0
C588 C 0.77909 0.57588 0.85263 0.0
C589 C 0.74445 0.57624 0.85014 0.0
C590 C 0.72808 0.47732 0.83712 0.0
C591 C 0.8202 0.61086 0.85902 0.0
C592 C 0.85273 0.52999 0.87312 0.0
C593 C 0.88315 0.53954 0.85928 0.0
C594 C 0.81894 0.53127 0.87001 0.0
C595 C 0.81287 0.54228 0.85241 0.0
C596 C 0.84312 0.5519 0.83831 0.0
C597 C 0.87667 0.55039 0.84178 0.0
C598 C 0.78928 0.52081 0.88596 0.0
C599 C 0.83976 0.5631 0.81896 0.0
H600 H 0.67079 0.48821 0.83632 0.0
H601 H 0.74912 0.60145 0.85307 0.0
H602 H 0.75234 0.48289 0.82723 0.0
H603 H 0.73032 0.4656 0.85006 0.0
H604 H 0.69732 0.45671 0.83015 0.0
H605 H 0.81713 0.63138 0.86495 0.0
H606 H 0.83522 0.60577 0.86998 0.0
H607 H 0.8409 0.62256 0.8466 0.0
H608 H 0.85482 0.52113 0.88677 0.0
H609 H 0.89801 0.55806 0.83036 0.0
H610 H 0.75772 0.49667 0.88131 0.0
H611 H 0.78802 0.54344 0.88939 0.0
H612 H 0.79805 0.51429 0.89911 0.0
H613 H 0.81654 0.53823 0.81008 0.0
H614 H 0.86965 0.57865 0.81145 0.0
H615 H 0.82931 0.57993 0.82008 0.0
C616 C 0.18861 0.6457 0.1592 0.0
C617 C 0.17859 0.62405 0.17494 0.0
C618 C 0.2217 0.68344 0.16013 0.0
C619 C 0.24503 0.70014 0.17738 0.0
C620 C 0.23444 0.67831 0.19342 0.0
C621 C 0.20163 0.6405 0.19196 0.0
C622 C 0.23148 0.70513 0.14257 0.0
C623 C 0.25694 0.69522 0.21237 0.0
C624 C 0.35573 0.78916 0.17813 0.0
C625 C 0.3507 0.81444 0.18539 0.0
C626 C 0.32146 0.75215 0.17489 0.0
C627 C 0.2811 0.74014 0.17877 0.0
C628 C 0.27581 0.76611 0.18513 0.0
C629 C 0.31071 0.80286 0.18855 0.0
C630 C 0.32848 0.72561 0.16779 0.0
C631 C 0.23333 0.75516 0.18831 0.0
H632 H 0.17001 0.63311 0.14619 0.0
H633 H 0.19277 0.62407 0.20438 0.0
H634 H 0.24016 0.73234 0.14631 0.0
H635 H 0.25814 0.70948 0.13538 0.0
H636 H 0.20498 0.69062 0.13223 0.0
H637 H 0.24579 0.67457 0.22336 0.0
H638 H 0.2906 0.71028 0.21061 0.0
H639 H 0.25259 0.71525 0.21764 0.0
H640 H 0.38664 0.79822 0.17545 0.0
H641 H 0.30679 0.82264 0.19369 0.0
H642 H 0.3094 0.71053 0.15471 0.0
H643 H 0.31859 0.70519 0.17875 0.0
H644 H 0.36139 0.73938 0.16454 0.0
H645 H 0.21598 0.74593 0.17449 0.0
H646 H 0.23459 0.77803 0.1945 0.0
H647 H 0.21569 0.73196 0.19797 0.0
C648 C 0.52442 0.21295 0.49783 0.0
C649 C 0.56047 0.21629 0.49699 0.0
C650 C 0.52622 0.24367 0.50046 0.0
C651 C 0.56515 0.27863 0.50253 0.0
C652 C 0.60186 0.28232 0.50085 0.0
C653 C 0.59907 0.25094 0.49793 0.0
C654 C 0.48637 0.23848 0.50184 0.0
C655 C 0.64392 0.31897 0.50358 0.0
C656 C 0.56774 0.36169 0.50397 0.0
C657 C 0.5651 0.36628 0.52368 0.0
C658 C 0.56828 0.33345 0.49673 0.0
C659 C 0.56688 0.30992 0.50955 0.0
C660 C 0.56417 0.31452 0.52937 0.0
C661 C 0.56215 0.34181 0.53606 0.0
C662 C 0.5701 0.32859 0.47545 0.0
C663 C 0.56232 0.29008 0.54367 0.0
H664 H 0.49463 0.18601 0.4968 0.0
H665 H 0.6269 0.25332 0.49726 0.0
H666 H 0.48424 0.24804 0.51615 0.0
H667 H 0.48576 0.25508 0.49114 0.0
H668 H 0.45872 0.2095 0.49945 0.0
H669 H 0.669 0.31823 0.49863 0.0
H670 H 0.64568 0.34017 0.49585 0.0
H671 H 0.64936 0.32727 0.51899 0.0
H672 H 0.56991 0.38033 0.49427 0.0
H673 H 0.55832 0.34399 0.55122 0.0
H674 H 0.54248 0.30104 0.47047 0.0
H675 H 0.59758 0.33042 0.47203 0.0
H676 H 0.57148 0.34932 0.46737 0.0
H677 H 0.53075 0.26354 0.54345 0.0
H678 H 0.56955 0.30221 0.55845 0.0
H679 H 0.58425 0.28459 0.54011 0.0
C680 C 0.4376 0.50222 0.85482 0.0
C681 C 0.47709 0.53261 0.84864 0.0
C682 C 0.40269 0.50235 0.857 0.0
C683 C 0.40501 0.53339 0.85276 0.0
C684 C 0.44454 0.56383 0.84607 0.0
C685 C 0.47912 0.5632 0.84433 0.0
C686 C 0.36265 0.46856 0.86392 0.0
C687 C 0.45091 0.59795 0.84087 0.0
C688 C 0.30093 0.52142 0.8444 0.0
C689 C 0.29431 0.53384 0.86179 0.0
C690 C 0.33584 0.52156 0.84126 0.0
C691 C 0.36708 0.53419 0.85569 0.0
C692 C 0.3612 0.54744 0.87308 0.0
C693 C 0.32597 0.54689 0.87587 0.0
C694 C 0.33936 0.50819 0.82209 0.0
C695 C 0.39203 0.56197 0.88935 0.0
H696 H 0.43381 0.47792 0.85823 0.0
H697 H 0.50828 0.58727 0.83945 0.0
H698 H 0.35075 0.47577 0.87582 0.0
H699 H 0.33918 0.45572 0.85215 0.0
H700 H 0.36607 0.44824 0.86884 0.0
H701 H 0.47961 0.61648 0.8327 0.0
H702 H 0.42427 0.59109 0.83226 0.0
H703 H 0.45314 0.61281 0.85412 0.0
H704 H 0.27837 0.51089 0.83291 0.0
H705 H 0.32381 0.55735 0.88941 0.0
H706 H 0.33692 0.48345 0.82382 0.0
H707 H 0.37008 0.52923 0.81601 0.0
H708 H 0.31502 0.5015 0.81175 0.0
H709 H 0.38375 0.53878 0.89786 0.0
H710 H 0.39182 0.58126 0.89893 0.0
H711 H 0.42388 0.57609 0.88418 0.0
C712 C 0.91798 0.392 0.15779 0.0
C713 C 0.94933 0.40767 0.1718 0.0
C714 C 0.88158 0.35556 0.15888 0.0
C715 C 0.87588 0.33469 0.17467 0.0
C716 C 0.90797 0.35046 0.18867 0.0
C717 C 0.94437 0.38653 0.18695 0.0
C718 C 0.84905 0.33965 0.14325 0.0
C719 C 0.90395 0.32918 0.20548 0.0
C720 C 0.76671 0.25778 0.19087 0.0
C721 C 0.76087 0.2264 0.18383 0.0
C722 C 0.80349 0.29298 0.18757 0.0
C723 C 0.83574 0.2972 0.17721 0.0
C724 C 0.83004 0.26558 0.17009 0.0
C725 C 0.7927 0.23073 0.17336 0.0
C726 C 0.80805 0.32582 0.19534 0.0
C727 C 0.86315 0.26841 0.15885 0.0
H728 H 0.92213 0.4081 0.14587 0.0
H729 H 0.96893 0.39847 0.19763 0.0
H730 H 0.83689 0.31148 0.13903 0.0
H731 H 0.82277 0.33825 0.14858 0.0
H732 H 0.86121 0.3564 0.13038 0.0
H733 H 0.92997 0.34626 0.21597 0.0
H734 H 0.87456 0.31749 0.21291 0.0
H735 H 0.90314 0.30604 0.20035 0.0
H736 H 0.74218 0.25483 0.19873 0.0
H737 H 0.78865 0.20671 0.16791 0.0
H738 H 0.81518 0.34415 0.18361 0.0
H739 H 0.83432 0.34154 0.20578 0.0
H740 H 0.77973 0.31817 0.2025 0.0
H741 H 0.86582 0.27968 0.14474 0.0
H742 H 0.85621 0.24149 0.15647 0.0
H743 H 0.89362 0.28731 0.16629 0.0
C744 C 1.04303 0.53432 0.10423 0.0
C745 C 0.05742 0.5214 0.11683 0.0
C746 C 0.04948 0.53571 0.08428 0.0
C747 C 0.07051 0.52334 0.07607 0.0
C748 C 0.08561 0.51053 0.08872 0.0
C749 C 0.07911 0.50986 0.1088 0.0
C750 C 1.03314 0.55021 0.07194 0.0
C751 C 0.10932 0.49802 0.08109 0.0
C752 C 1.04471 0.49362 0.02242 0.0
C753 C 0.07853 0.52379 0.01304 0.0
C754 C 1.04285 0.49251 0.04268 0.0
C755 C 0.07494 0.52273 0.05432 0.0
C756 C 0.10947 0.55314 0.04489 0.0
C757 C 0.11104 0.55311 0.02458 0.0
C758 C 1.00612 0.45885 0.0517 0.0
C759 C 0.14419 0.58657 0.05622 0.0
H760 H 1.02654 0.54368 0.11001 0.0
H761 H 0.09109 0.50033 0.1182 0.0
H762 H 0.05695 0.56996 0.06184 0.0
H763 H 1.00619 0.52733 0.06334 0.0
H764 H 1.02326 0.56387 0.08054 0.0
H765 H 0.11297 0.4833 0.09187 0.0
H766 H 0.09373 0.47996 0.06812 0.0
H767 H 0.14053 0.52212 0.07695 0.0
H768 H 1.01956 0.47054 0.01385 0.0
H769 H 0.13729 0.57675 0.01768 0.0
H770 H 0.98866 0.46577 0.05993 0.0
H771 H 1.01677 0.44847 0.0619 0.0
H772 H 0.98489 0.43675 0.04094 0.0
H773 H 0.13343 0.60177 0.06187 0.0
H774 H 0.17169 0.60511 0.04735 0.0
H775 H 0.15352 0.57888 0.06862 0.0
C776 C 0.57621 1.00502 0.42663 0.0
C777 C 0.5631 0.01968 0.43929 0.0
C778 C 0.57063 1.00397 0.40676 0.0
C779 C 0.55309 0.01943 0.39919 0.0
C780 C 0.53933 0.03393 0.41197 0.0
C781 C 0.54368 0.03313 0.43188 0.0
C782 C 0.58485 0.98733 0.39389 0.0
C783 C 0.52104 0.0512 0.40464 0.0
C784 C 0.58778 0.05399 0.34891 0.0
C785 C 0.55287 0.02745 0.33739 0.0
C786 C 0.58741 0.05245 0.36894 0.0
C787 C 0.55203 0.02269 0.37799 0.0
C788 C 0.51685 0.99547 0.36665 0.0
C789 C 0.51743 0.99845 0.34663 0.0
C790 C 0.62523 0.08275 0.38045 0.0
C791 C 0.47905 0.96243 0.37556 0.0
H792 H 0.59092 0.99426 0.43229 0.0
H793 H 0.53342 0.04439 0.44155 0.0
H794 H 0.56242 0.97087 0.38193 0.0
H795 H 0.61487 1.0094 0.38765 0.0
H796 H 0.5891 0.96967 0.40181 0.0
H797 H 0.51556 0.06432 0.41632 0.0
H798 H 0.54189 0.07205 0.39416 0.0
H799 H 0.4912 0.03012 0.39712 0.0
H800 H 0.61609 0.07602 0.34239 0.0
H801 H 0.48987 0.97784 0.3383 0.0
H802 H 0.63919 0.07192 0.38769 0.0
H803 H 0.61642 0.09387 0.39173 0.0
H804 H 0.64904 0.10545 0.37146 0.0
H805 H 0.48624 0.94449 0.38029 0.0
H806 H 0.45226 0.94644 0.3654 0.0
H807 H 0.47009 0.97043 0.38838 0.0
C808 C 0.60796 0.53258 0.77876 0.0
C809 C 0.58032 0.53428 0.78929 0.0
C810 C 0.60793 0.5333 0.75872 0.0
C811 C 0.58059 0.53704 0.7492 0.0
C812 C 0.55439 0.54096 0.76003 0.0
C813 C 0.554 0.53877 0.77995 0.0
C814 C 0.63605 0.52873 0.74771 0.0
C815 C 0.52524 0.54565 0.75059 0.0
C816 C 0.60228 0.56738 0.69801 0.0
C817 C 0.57321 0.53458 0.68757 0.0
C818 C 0.60502 0.56852 0.718 0.0
C819 C 0.57863 0.53594 0.72792 0.0
C820 C 0.54995 0.50248 0.71751 0.0
C821 C 0.54772 0.50216 0.69743 0.0
C822 C 0.63528 0.60483 0.72856 0.0
C823 C 0.52147 0.46705 0.72758 0.0
H824 H 0.62778 0.5285 0.7861 0.0
H825 H 0.53242 0.53974 0.78824 0.0
H826 H 0.61795 0.50609 0.7368 0.0
H827 H 0.65908 0.55394 0.74004 0.0
H828 H 0.65279 0.52298 0.75714 0.0
H829 H 0.51283 0.55493 0.76101 0.0
H830 H 0.54088 0.56563 0.73915 0.0
H831 H 0.49887 0.51916 0.7439 0.0
H832 H 0.62257 0.59248 0.6905 0.0
H833 H 0.52507 0.47674 0.68953 0.0
H834 H 0.65738 0.6043 0.73715 0.0
H835 H 0.61855 0.6101 0.73864 0.0
H836 H 0.65303 0.62782 0.71874 0.0
H837 H 0.53971 0.45901 0.73324 0.0
H838 H 0.49672 0.44462 0.71788 0.0
H839 H 0.50681 0.4702 0.73991 0.0
C840 C 0.51174 0.99904 0.56091 0.0
C841 C 0.5457 0.0127 0.54912 0.0
C842 C 0.51438 0.99658 0.58065 0.0
C843 C 0.55194 1.00781 0.58903 0.0
C844 C 0.58605 0.02033 0.57711 0.0
C845 C 0.58259 0.02276 0.55726 0.0
C846 C 0.4771 0.98299 0.5926 0.0
C847 C 0.62595 0.03071 0.58529 0.0
C848 C 0.56585 0.03452 0.64228 0.0
C849 C 0.55127 1.00179 0.6508 0.0
C850 C 0.56754 0.0372 0.62223 0.0
C851 C 0.55499 1.00669 0.61028 0.0
C852 C 0.54128 0.97395 0.61875 0.0
C853 C 0.53877 0.97169 0.63874 0.0
C854 C 0.58211 0.07256 0.61377 0.0
C855 C 0.52776 0.94065 0.60676 0.0
H856 H 0.48292 0.99079 0.55473 0.0
H857 H 0.60875 0.03281 0.54819 0.0
H858 H 0.47005 0.96117 0.60192 0.0
H859 H 0.48382 1.00572 0.60202 0.0
H860 H 0.44916 0.97214 0.58371 0.0
H861 H 0.65087 0.04355 0.57462 0.0
H862 H 0.63654 0.04981 0.59786 0.0
H863 H 0.62072 1.0059 0.59025 0.0
H864 H 0.57621 0.05821 0.65126 0.0
H865 H 0.52628 0.94583 0.64486 0.0
H866 H 0.5568 0.06795 0.60502 0.0
H867 H 0.60827 0.08241 0.60414 0.0
H868 H 0.59215 0.09422 0.6249 0.0
H869 H 0.49575 0.92642 0.6013 0.0
H870 H 0.52811 0.92115 0.61518 0.0
H871 H 0.54788 0.94825 0.59426 0.0
C872 C 0.55476 0.51021 0.90038 0.0
C873 C 0.59581 0.5375 0.89549 0.0
C874 C 0.54496 0.4987 0.91908 0.0
C875 C 0.57713 0.51493 0.93292 0.0
C876 C 0.61884 0.54129 0.92782 0.0
C877 C 0.62771 0.55239 0.90903 0.0
C878 C 0.50024 0.47032 0.92415 0.0
C879 C 0.65398 0.55776 0.94218 0.0
C880 C 0.55855 0.51919 0.98516 0.0
C881 C 0.55949 0.49185 0.99174 0.0
C882 C 0.56247 0.52603 0.96568 0.0
C883 C 0.5674 0.50493 0.9529 0.0
C884 C 0.56612 0.47608 0.95947 0.0
C885 C 0.56156 0.46957 0.97888 0.0
C886 C 0.56384 0.55706 0.95889 0.0
C887 C 0.57094 0.45284 0.9462 0.0
H888 H 0.5302 0.49861 0.88973 0.0
H889 H 0.65949 0.57304 0.905 0.0
H890 H 0.49632 0.44882 0.93263 0.0
H891 H 0.49013 0.48341 0.9331 0.0
H892 H 0.47967 0.45722 0.91127 0.0
H893 H 0.68441 0.57953 0.93608 0.0
H894 H 0.64904 0.56946 0.95483 0.0
H895 H 0.65502 0.53611 0.94724 0.0
H896 H 0.55695 0.53631 0.99529 0.0
H897 H 0.56142 0.44801 0.98421 0.0
H898 H 0.54101 0.54726 0.94705 0.0
H899 H 0.59484 0.57854 0.9532 0.0
H900 H 0.55736 0.56955 0.9705 0.0
H901 H 0.54203 0.43369 0.93764 0.0
H902 H 0.57728 0.43659 0.95415 0.0
H903 H 0.59638 0.46985 0.9361 0.0
C904 C 1.01844 0.49023 0.23868 0.0
C905 C 0.05691 0.50804 0.22998 0.0
C906 C 1.01523 0.49157 0.25876 0.0
C907 C 0.05129 0.51039 0.27063 0.0
C908 C 0.0902 0.52803 0.26184 0.0
C909 C 0.09256 0.52695 0.2417 0.0
C910 C 0.97314 0.47271 0.26727 0.0
C911 C 0.12926 0.54659 0.27376 0.0
C912 C 0.05076 0.54138 0.32219 0.0
C913 C 1.04389 0.51336 0.33298 0.0
C914 C 0.05274 0.54051 0.30202 0.0
C915 C 0.04839 0.51121 0.29218 0.0
C916 C 1.0418 0.48301 0.30305 0.0
C917 C 1.03929 0.48428 0.32313 0.0
C918 C 0.05935 0.571 0.29119 0.0
C919 C 1.03682 0.45101 0.29354 0.0
H920 H 0.99071 0.47499 0.22972 0.0
H921 H 0.12224 0.53979 0.23511 0.0
H922 H 0.96753 0.45334 0.27804 0.0
H923 H 0.97181 0.49324 0.27475 0.0
H924 H 0.94791 0.45756 0.25627 0.0
H925 H 0.1574 0.56241 0.26498 0.0
H926 H 0.13149 0.56521 0.2849 0.0
H927 H 0.12851 0.52563 0.2812 0.0
H928 H 0.05384 0.56377 0.32949 0.0
H929 H 1.0343 0.46254 0.33119 0.0
H930 H 1.03352 0.55966 0.28076 0.0
H931 H 0.08821 0.58495 0.28297 0.0
H932 H 0.06146 0.59152 0.30078 0.0
H933 H 1.0051 0.43153 0.28735 0.0
H934 H 1.04149 0.43627 0.30385 0.0
H935 H 0.05886 0.45986 0.28175 0.0
loop_
_geom_bond_atom_site_label_1
_geom_bond_atom_site_label_2
_geom_bond_distance
_geom_bond_site_symmetry_2
_ccdc_geom_bond_type
La0 C2 2.928 . S
La0 O20 2.521 . S
La0 O21 2.628 . S
La0 O22 2.554 . S
La0 O23 2.757 . S
La0 O24 2.470 . S
La0 O29 2.482 . S
La0 O31 2.503 1_455 S
La1 C11 2.928 . S
La1 O23 2.482 1_655 S
La1 O25 2.503 1_655 S
La1 O26 2.521 . S
La1 O27 2.628 . S
La1 O28 2.554 . S
La1 O29 2.757 1_655 S
La1 O30 2.470 . S
C2 La0 2.928 . S
C2 C3 1.503 . S
C2 O20 1.261 . S
C2 O21 1.243 . S
C3 C2 1.503 . S
C3 C4 1.394 . S
C3 C8 1.373 . S
C4 C3 1.394 . S
C4 C5 1.380 . S
C4 H32 0.930 . S
C5 C4 1.380 . S
C5 C6 1.376 . S
C5 H33 0.930 . S
C6 C5 1.376 . S
C6 C7 1.370 . S
C7 C6 1.370 . S
C7 C8 1.396 . S
C7 H34 0.929 . S
C8 C3 1.373 . S
C8 C7 1.396 . S
C8 H35 0.929 . S
C9 O22 1.240 . S
C9 O23 1.289 . S
C10 O24 1.258 . S
C10 O25 1.256 . S
C11 La1 2.928 . S
C11 C12 1.503 . S
C11 O26 1.261 . S
C11 O27 1.243 . S
C12 C11 1.503 . S
C12 C13 1.394 . S
C12 C17 1.373 . S
C13 C12 1.394 . S
C13 C14 1.380 . S
C13 H36 0.930 . S
C14 C13 1.380 . S
C14 C15 1.376 . S
C14 H37 0.930 . S
C15 C14 1.376 . S
C15 C16 1.370 . S
C16 C15 1.370 . S
C16 C17 1.396 . S
C16 H38 0.929 . S
C17 C12 1.373 . S
C17 C16 1.396 . S
C17 H39 0.929 . S
C18 O28 1.240 1_455 S
C18 O29 1.289 . S
C19 O30 1.258 . S
C19 O31 1.256 . S
O20 La0 2.521 . S
O20 C2 1.261 . S
O21 La0 2.628 . S
O21 C2 1.243 . S
O22 La0 2.554 . S
O22 C9 1.240 . S
O23 La0 2.757 . S
O23 La1 2.482 1_455 S
O23 C9 1.289 . S
O24 La0 2.470 . S
O24 C10 1.258 . S
O25 La1 2.503 1_455 S
O25 C10 1.256 . S
O26 La1 2.521 . S
O26 C11 1.261 . S
O27 La1 2.628 . S
O27 C11 1.243 . S
O28 La1 2.554 . S
O28 C18 1.240 1_655 S
O29 La0 2.482 . S
O29 La1 2.757 1_455 S
O29 C18 1.289 . S
O30 La1 2.470 . S
O30 C19 1.258 . S
O31 La0 2.503 1_655 S
O31 C19 1.256 . S
H32 C4 0.930 . S
H33 C5 0.930 . S
H34 C7 0.929 . S
H35 C8 0.929 . S
H36 C13 0.930 . S
H37 C14 0.930 . S
H38 C16 0.929 . S
H39 C17 0.929 . S
La40 C42 2.928 . S
La40 O60 2.521 . S
La40 O61 2.628 . S
La40 O62 2.554 . S
La40 O63 2.757 1_565 S
La40 O64 2.470 . S
La40 O69 2.482 . S
La40 O71 2.503 1_565 S
La41 C51 2.928 . S
La41 O63 2.482 . S
La41 O65 2.503 1_545 S
La41 O66 2.521 . S
La41 O67 2.628 . S
La41 O68 2.554 . S
La41 O69 2.757 1_545 S
La41 O70 2.470 . S
C42 La40 2.928 . S
C42 C43 1.503 . S
C42 O60 1.261 . S
C42 O61 1.243 . S
C43 C42 1.503 . S
C43 C44 1.394 . S
C43 C48 1.373 . S
C44 C43 1.394 . S
C44 C45 1.380 . S
C44 H72 0.930 . S
C45 C44 1.380 . S
C45 C46 1.376 . S
C45 H73 0.930 . S
C46 C45 1.376 . S
C46 C47 1.370 . S
C47 C46 1.370 . S
C47 C48 1.396 . S
C47 H74 0.929 . S
C48 C43 1.373 . S
C48 C47 1.396 . S
C48 H75 0.929 . S
C49 O62 1.240 1_545 S
C49 O63 1.289 . S
C50 O64 1.258 . S
C50 O65 1.256 . S
C51 La41 2.928 . S
C51 C52 1.503 . S
C51 O66 1.261 . S
C51 O67 1.243 . S
C52 C51 1.503 . S
C52 C53 1.394 . S
C52 C57 1.373 . S
C53 C52 1.394 . S
C53 C54 1.380 . S
C53 H76 0.930 . S
C54 C53 1.380 . S
C54 C55 1.376 . S
C54 H77 0.930 . S
C55 C54 1.376 . S
C55 C56 1.370 . S
C56 C55 1.370 . S
C56 C57 1.396 . S
C56 H78 0.929 . S
C57 C52 1.373 . S
C57 C56 1.396 . S
C57 H79 0.929 . S
C58 O68 1.240 . S
C58 O69 1.289 1_545 S
C59 O70 1.258 . S
C59 O71 1.256 . S
O60 La40 2.521 . S
O60 C42 1.261 . S
O61 La40 2.628 . S
O61 C42 1.243 . S
O62 La40 2.554 . S
O62 C49 1.240 1_565 S
O63 La40 2.757 1_545 S
O63 La41 2.482 . S
O63 C49 1.289 . S
O64 La40 2.470 . S
O64 C50 1.258 . S
O65 La41 2.503 1_565 S
O65 C50 1.256 . S
O66 La41 2.521 . S
O66 C51 1.261 . S
O67 La41 2.628 . S
O67 C51 1.243 . S
O68 La41 2.554 . S
O68 C58 1.240 . S
O69 La40 2.482 . S
O69 La41 2.757 1_565 S
O69 C58 1.289 1_565 S
O70 La41 2.470 . S
O70 C59 1.258 . S
O71 La40 2.503 1_545 S
O71 C59 1.256 . S
H72 C44 0.930 . S
H73 C45 0.930 . S
H74 C47 0.929 . S
H75 C48 0.929 . S
H76 C53 0.930 . S
H77 C54 0.930 . S
H78 C56 0.929 . S
H79 C57 0.929 . S
La80 C82 2.928 . S
La80 O100 2.521 . S
La80 O101 2.628 . S
La80 O102 2.554 . S
La80 O103 2.757 . S
La80 O104 2.470 . S
La80 O109 2.482 . S
La80 O111 2.503 . S
La81 C91 2.928 . S
La81 O103 2.482 . S
La81 O105 2.503 . S
La81 O106 2.521 . S
La81 O107 2.628 . S
La81 O108 2.554 . S
La81 O109 2.757 . S
La81 O110 2.470 . S
C82 La80 2.928 . S
C82 C83 1.503 . S
C82 O100 1.261 . S
C82 O101 1.243 . S
C83 C82 1.503 . S
C83 C84 1.394 . S
C83 C88 1.373 . S
C84 C83 1.394 . S
C84 C85 1.380 . S
C84 H112 0.930 . S
C85 C84 1.380 . S
C85 C86 1.376 . S
C85 H113 0.930 . S
C86 C85 1.376 . S
C86 C87 1.370 . S
C87 C86 1.370 . S
C87 C88 1.396 . S
C87 H114 0.929 . S
C88 C83 1.373 . S
C88 C87 1.396 . S
C88 H115 0.929 . S
C89 O102 1.240 . S
C89 O103 1.289 . S
C90 O104 1.258 . S
C90 O105 1.256 . S
C91 La81 2.928 . S
C91 C92 1.503 . S
C91 O106 1.261 . S
C91 O107 1.243 . S
C92 C91 1.503 . S
C92 C93 1.394 . S
C92 C97 1.373 . S
C93 C92 1.394 . S
C93 C94 1.380 . S
C93 H116 0.930 . S
C94 C93 1.380 . S
C94 C95 1.376 . S
C94 H117 0.930 . S
C95 C94 1.376 . S
C95 C96 1.370 . S
C96 C95 1.370 . S
C96 C97 1.396 . S
C96 H118 0.929 . S
C97 C92 1.373 . S
C97 C96 1.396 . S
C97 H119 0.929 . S
C98 O108 1.240 . S
C98 O109 1.289 . S
C99 O110 1.258 . S
C99 O111 1.256 . S
O100 La80 2.521 . S
O100 C82 1.261 . S
O101 La80 2.628 . S
O101 C82 1.243 . S
O102 La80 2.554 . S
O102 C89 1.240 . S
O103 La80 2.757 . S
O103 La81 2.482 . S
O103 C89 1.289 . S
O104 La80 2.470 . S
O104 C90 1.258 . S
O105 La81 2.503 . S
O105 C90 1.256 . S
O106 La81 2.521 . S
O106 C91 1.261 . S
O107 La81 2.628 . S
O107 C91 1.243 . S
O108 La81 2.554 . S
O108 C98 1.240 . S
O109 La80 2.482 . S
O109 La81 2.757 . S
O109 C98 1.289 . S
O110 La81 2.470 . S
O110 C99 1.258 . S
O111 La80 2.503 . S
O111 C99 1.256 . S
H112 C84 0.930 . S
H113 C85 0.930 . S
H114 C87 0.929 . S
H115 C88 0.929 . S
H116 C93 0.930 . S
H117 C94 0.930 . S
H118 C96 0.929 . S
H119 C97 0.929 . S
C120 C121 1.264 . S
C120 C125 1.479 . S
C120 C130 1.465 . S
C121 C120 1.264 . S
C121 C123 1.339 . S
C121 H148 0.931 . S
C122 C123 1.395 . S
C122 C124 1.320 . S
C123 C121 1.339 . S
C123 C122 1.395 . S
C123 H149 0.929 . S
C124 C122 1.320 . S
C124 C125 1.405 . S
C124 H150 0.930 . S
C125 C120 1.479 . S
C125 C124 1.405 . S
C125 H151 0.931 . S
U126 O127 2.454 1_545 S
U126 O128 2.458 1_545 S
U126 C129 2.984 1_545 S
U126 C130 2.847 . S
U126 C143 2.882 . S
U126 O144 2.441 . S
U126 O145 2.420 . S
U126 O146 2.455 1_545 S
U126 O147 2.449 . S
O127 U126 2.454 1_565 S
O127 C129 1.353 . S
O128 U126 2.458 1_565 S
O128 C129 1.286 . S
C129 U126 2.984 1_565 S
C129 O127 1.353 . S
C129 O128 1.286 . S
C129 C131 1.363 . S
C130 C120 1.465 . S
C130 U126 2.847 . S
C130 O144 1.249 . S
C130 O145 1.202 . S
C131 C129 1.363 . S
C131 C133 1.408 . S
C131 C136 1.342 . S
C132 C133 1.310 . S
C132 C135 1.461 . S
C132 H152 0.932 . S
C133 C131 1.408 . S
C133 C132 1.310 . S
C133 H153 0.930 . S
C134 C135 1.474 . S
C134 C136 1.285 . S
C134 H154 0.929 . S
C135 C132 1.461 . S
C135 C134 1.474 . S
C136 C131 1.342 . S
C136 C134 1.285 . S
C136 H155 0.930 . S
C137 C140 1.424 . S
C137 C142 1.245 1_545 S
C137 C143 1.428 . S
C138 C141 1.260 1_565 S
C138 C142 1.477 . S
C138 H156 0.932 . S
C139 C140 1.384 . S
C139 C141 1.479 . S
C139 H157 0.929 . S
C140 C137 1.424 . S
C140 C139 1.384 . S
C140 H158 0.928 . S
C141 C138 1.260 1_545 S
C141 C139 1.479 . S
C142 C137 1.245 1_565 S
C142 C138 1.477 . S
C142 H159 0.932 . S
C143 U126 2.882 . S
C143 C137 1.428 . S
C143 O146 1.301 1_545 S
C143 O147 1.282 . S
O144 U126 2.441 . S
O144 C130 1.249 . S
O145 U126 2.420 . S
O145 C130 1.202 . S
O146 U126 2.455 1_565 S
O146 C143 1.301 1_565 S
O147 U126 2.449 . S
O147 C143 1.282 . S
H148 C121 0.931 . S
H149 C123 0.929 . S
H150 C124 0.930 . S
H151 C125 0.931 . S
H152 C132 0.932 . S
H153 C133 0.930 . S
H154 C134 0.929 . S
H155 C136 0.930 . S
H156 C138 0.932 . S
H157 C139 0.929 . S
H158 C140 0.928 . S
H159 C142 0.932 . S
C160 C161 1.264 . S
C160 C165 1.479 . S
C160 C170 1.465 . S
C161 C160 1.264 . S
C161 C163 1.339 . S
C161 H188 0.931 . S
C162 C163 1.395 . S
C162 C164 1.320 . S
C163 C161 1.339 . S
C163 C162 1.395 . S
C163 H189 0.929 . S
C164 C162 1.320 . S
C164 C165 1.405 . S
C164 H190 0.930 . S
C165 C160 1.479 . S
C165 C164 1.405 . S
C165 H191 0.931 . S
U166 O167 2.454 . S
U166 O168 2.458 . S
U166 C169 2.984 . S
U166 C170 2.847 . S
U166 C183 2.882 . S
U166 O184 2.441 . S
U166 O185 2.420 . S
U166 O186 2.455 . S
U166 O187 2.449 . S
O167 U166 2.454 . S
O167 C169 1.353 . S
O168 U166 2.458 . S
O168 C169 1.286 . S
C169 U166 2.984 . S
C169 O167 1.353 . S
C169 O168 1.286 . S
C169 C171 1.363 . S
C170 C160 1.465 . S
C170 U166 2.847 . S
C170 O184 1.249 . S
C170 O185 1.202 . S
C171 C169 1.363 . S
C171 C173 1.408 . S
C171 C176 1.342 . S
C172 C173 1.310 . S
C172 C175 1.461 . S
C172 H192 0.932 . S
C173 C171 1.408 . S
C173 C172 1.310 . S
C173 H193 0.930 . S
C174 C175 1.474 . S
C174 C176 1.285 . S
C174 H194 0.929 . S
C175 C172 1.461 . S
C175 C174 1.474 . S
C176 C171 1.342 . S
C176 C174 1.285 . S
C176 H195 0.930 . S
C177 C180 1.424 . S
C177 C182 1.245 . S
C177 C183 1.428 . S
C178 C181 1.260 . S
C178 C182 1.477 . S
C178 H196 0.932 . S
C179 C180 1.384 . S
C179 C181 1.479 . S
C179 H197 0.929 . S
C180 C177 1.424 . S
C180 C179 1.384 . S
C180 H198 0.928 . S
C181 C178 1.260 . S
C181 C179 1.479 . S
C182 C177 1.245 . S
C182 C178 1.477 . S
C182 H199 0.932 . S
C183 U166 2.882 . S
C183 C177 1.428 . S
C183 O186 1.301 . S
C183 O187 1.282 . S
O184 U166 2.441 . S
O184 C170 1.249 . S
O185 U166 2.420 . S
O185 C170 1.202 . S
O186 U166 2.455 . S
O186 C183 1.301 . S
O187 U166 2.449 . S
O187 C183 1.282 . S
H188 C161 0.931 . S
H189 C163 0.929 . S
H190 C164 0.930 . S
H191 C165 0.931 . S
H192 C172 0.932 . S
H193 C173 0.930 . S
H194 C174 0.929 . S
H195 C176 0.930 . S
H196 C178 0.932 . S
H197 C179 0.929 . S
H198 C180 0.928 . S
H199 C182 0.932 . S
C200 C201 1.264 . S
C200 C205 1.479 . S
C200 C210 1.465 . S
C201 C200 1.264 . S
C201 C203 1.339 . S
C201 H228 0.931 . S
C202 C203 1.395 . S
C202 C204 1.320 . S
C203 C201 1.339 . S
C203 C202 1.395 . S
C203 H229 0.929 . S
C204 C202 1.320 . S
C204 C205 1.405 . S
C204 H230 0.930 . S
C205 C200 1.479 . S
C205 C204 1.405 . S
C205 H231 0.931 . S
U206 O207 2.454 . S
U206 O208 2.458 . S
U206 C209 2.984 . S
U206 C210 2.847 1_455 S
U206 C223 2.882 . S
U206 O224 2.441 . S
U206 O225 2.420 1_455 S
U206 O226 2.455 . S
U206 O227 2.449 1_455 S
O207 U206 2.454 . S
O207 C209 1.353 . S
O208 U206 2.458 . S
O208 C209 1.286 . S
C209 U206 2.984 . S
C209 O207 1.353 . S
C209 O208 1.286 . S
C209 C211 1.363 . S
C210 C200 1.465 . S
C210 U206 2.847 1_655 S
C210 O224 1.249 1_655 S
C210 O225 1.202 . S
C211 C209 1.363 . S
C211 C213 1.408 . S
C211 C216 1.342 . S
C212 C213 1.310 . S
C212 C215 1.461 . S
C212 H232 0.932 . S
C213 C211 1.408 . S
C213 C212 1.310 . S
C213 H233 0.930 . S
C214 C215 1.474 . S
C214 C216 1.285 . S
C214 H234 0.929 . S
C215 C212 1.461 . S
C215 C214 1.474 . S
C216 C211 1.342 . S
C216 C214 1.285 . S
C216 H235 0.930 . S
C217 C220 1.424 . S
C217 C222 1.245 . S
C217 C223 1.428 . S
C218 C221 1.260 . S
C218 C222 1.477 . S
C218 H236 0.932 . S
C219 C220 1.385 . S
C219 C221 1.489 . S
C219 H237 0.917 1_455 S
C220 C217 1.424 . S
C220 C219 1.385 . S
C220 H238 0.928 1_455 S
C221 C218 1.260 . S
C221 C219 1.489 . S
C222 C217 1.245 . S
C222 C218 1.477 . S
C222 H239 0.932 . S
C223 U206 2.882 . S
C223 C217 1.428 . S
C223 O226 1.301 . S
C223 O227 1.282 1_455 S
O224 U206 2.441 . S
O224 C210 1.249 1_455 S
O225 U206 2.420 1_655 S
O225 C210 1.202 . S
O226 U206 2.455 . S
O226 C223 1.301 . S
O227 U206 2.449 1_655 S
O227 C223 1.282 1_655 S
H228 C201 0.931 . S
H229 C203 0.929 . S
H230 C204 0.930 . S
H231 C205 0.931 . S
H232 C212 0.932 . S
H233 C213 0.930 . S
H234 C214 0.929 . S
H235 C216 0.930 . S
H236 C218 0.932 . S
H237 C219 0.917 1_655 S
H238 C220 0.928 1_655 S
H239 C222 0.932 . S
C240 C241 1.264 . S
C240 C245 1.479 . S
C240 C250 1.465 . S
C241 C240 1.264 . S
C241 C243 1.339 . S
C241 H268 0.931 . S
C242 C243 1.395 . S
C242 C244 1.320 . S
C243 C241 1.339 . S
C243 C242 1.395 . S
C243 H269 0.929 . S
C244 C242 1.320 . S
C244 C245 1.405 . S
C244 H270 0.930 . S
C245 C240 1.479 . S
C245 C244 1.405 . S
C245 H271 0.931 . S
U246 O247 2.454 1_655 S
U246 O248 2.458 1_655 S
U246 C249 2.984 1_655 S
U246 C250 2.847 . S
U246 C263 2.882 . S
U246 O264 2.441 . S
U246 O265 2.420 . S
U246 O266 2.455 1_655 S
U246 O267 2.449 . S
O247 U246 2.454 1_455 S
O247 C249 1.353 . S
O248 U246 2.458 1_455 S
O248 C249 1.286 . S
C249 U246 2.984 1_455 S
C249 O247 1.353 . S
C249 O248 1.286 . S
C249 C251 1.363 . S
C250 C240 1.465 . S
C250 U246 2.847 . S
C250 O264 1.249 . S
C250 O265 1.202 . S
C251 C249 1.363 . S
C251 C253 1.408 . S
C251 C256 1.342 . S
C252 C253 1.310 . S
C252 C255 1.461 . S
C252 H272 0.932 . S
C253 C251 1.408 . S
C253 C252 1.310 . S
C253 H273 0.930 . S
C254 C255 1.474 . S
C254 C256 1.285 . S
C254 H274 0.929 . S
C255 C252 1.461 . S
C255 C254 1.474 . S
C256 C251 1.342 . S
C256 C254 1.285 . S
C256 H275 0.930 . S
C257 C260 1.424 . S
C257 C262 1.245 1_655 S
C257 C263 1.428 . S
C258 C261 1.260 1_455 S
C258 C262 1.477 . S
C258 H276 0.932 . S
C259 C260 1.384 . S
C259 C261 1.479 . S
C259 H277 0.929 . S
C260 C257 1.424 . S
C260 C259 1.384 . S
C260 H278 0.928 . S
C261 C258 1.260 1_655 S
C261 C259 1.479 . S
C262 C257 1.245 1_455 S
C262 C258 1.477 . S
C262 H279 0.932 . S
C263 U246 2.882 . S
C263 C257 1.428 . S
C263 O266 1.301 1_655 S
C263 O267 1.282 . S
O264 U246 2.441 . S
O264 C250 1.249 . S
O265 U246 2.420 . S
O265 C250 1.202 . S
O266 U246 2.455 1_455 S
O266 C263 1.301 1_455 S
O267 U246 2.449 . S
O267 C263 1.282 . S
H268 C241 0.931 . S
H269 C243 0.929 . S
H270 C244 0.930 . S
H271 C245 0.931 . S
H272 C252 0.932 . S
H273 C253 0.930 . S
H274 C254 0.929 . S
H275 C256 0.930 . S
H276 C258 0.932 . S
H277 C259 0.929 . S
H278 C260 0.928 . S
H279 C262 0.932 . S
C280 C281 1.264 . S
C280 C285 1.479 . S
C280 C290 1.465 . S
C281 C280 1.264 . S
C281 C283 1.339 . S
C281 H308 0.931 . S
C282 C283 1.395 . S
C282 C284 1.320 . S
C283 C281 1.339 . S
C283 C282 1.395 . S
C283 H309 0.929 . S
C284 C282 1.320 . S
C284 C285 1.405 . S
C284 H310 0.930 . S
C285 C280 1.479 . S
C285 C284 1.405 . S
C285 H311 0.931 . S
U286 O287 2.454 1_565 S
U286 O288 2.458 1_565 S
U286 C289 2.984 1_565 S
U286 C290 2.847 . S
U286 C303 2.882 . S
U286 O304 2.441 . S
U286 O305 2.420 . S
U286 O306 2.455 1_565 S
U286 O307 2.449 . S
O287 U286 2.454 1_545 S
O287 C289 1.353 . S
O288 U286 2.458 1_545 S
O288 C289 1.286 . S
C289 U286 2.984 1_545 S
C289 O287 1.353 . S
C289 O288 1.286 . S
C289 C291 1.363 . S
C290 C280 1.465 . S
C290 U286 2.847 . S
C290 O304 1.249 . S
C290 O305 1.202 . S
C291 C289 1.363 . S
C291 C293 1.408 . S
C291 C296 1.342 . S
C292 C293 1.310 . S
C292 C295 1.461 . S
C292 H312 0.932 . S
C293 C291 1.408 . S
C293 C292 1.310 . S
C293 H313 0.930 . S
C294 C295 1.474 . S
C294 C296 1.285 . S
C294 H314 0.929 . S
C295 C292 1.461 . S
C295 C294 1.474 . S
C296 C291 1.342 . S
C296 C294 1.285 . S
C296 H315 0.930 . S
C297 C300 1.424 . S
C297 C302 1.245 1_565 S
C297 C303 1.428 . S
C298 C301 1.260 1_545 S
C298 C302 1.477 . S
C298 H316 0.932 . S
C299 C300 1.384 . S
C299 C301 1.479 . S
C299 H317 0.929 . S
C300 C297 1.424 . S
C300 C299 1.384 . S
C300 H318 0.928 . S
C301 C298 1.260 1_565 S
C301 C299 1.479 . S
C302 C297 1.245 1_545 S
C302 C298 1.477 . S
C302 H319 0.932 . S
C303 U286 2.882 . S
C303 C297 1.428 . S
C303 O306 1.301 1_565 S
C303 O307 1.282 . S
O304 U286 2.441 . S
O304 C290 1.249 . S
O305 U286 2.420 . S
O305 C290 1.202 . S
O306 U286 2.455 1_545 S
O306 C303 1.301 1_545 S
O307 U286 2.449 . S
O307 C303 1.282 . S
H308 C281 0.931 . S
H309 C283 0.929 . S
H310 C284 0.930 . S
H311 C285 0.931 . S
H312 C292 0.932 . S
H313 C293 0.930 . S
H314 C294 0.929 . S
H315 C296 0.930 . S
H316 C298 0.932 . S
H317 C299 0.929 . S
H318 C300 0.928 . S
H319 C302 0.932 . S
C320 C321 1.264 . S
C320 C325 1.479 . S
C320 C330 1.465 . S
C321 C320 1.264 . S
C321 C323 1.339 . S
C321 H348 0.931 . S
C322 C323 1.395 . S
C322 C324 1.320 . S
C323 C321 1.339 . S
C323 C322 1.395 . S
C323 H349 0.929 . S
C324 C322 1.320 . S
C324 C325 1.405 . S
C324 H350 0.930 . S
C325 C320 1.479 . S
C325 C324 1.405 . S
C325 H351 0.931 . S
U326 O327 2.454 . S
U326 O328 2.458 . S
U326 C329 2.984 . S
U326 C330 2.847 . S
U326 C343 2.882 . S
U326 O344 2.441 . S
U326 O345 2.420 . S
U326 O346 2.455 . S
U326 O347 2.449 . S
O327 U326 2.454 . S
O327 C329 1.353 . S
O328 U326 2.458 . S
O328 C329 1.286 . S
C329 U326 2.984 . S
C329 O327 1.353 . S
C329 O328 1.286 . S
C329 C331 1.363 . S
C330 C320 1.465 . S
C330 U326 2.847 . S
C330 O344 1.249 . S
C330 O345 1.202 . S
C331 C329 1.363 . S
C331 C333 1.408 . S
C331 C336 1.342 . S
C332 C333 1.310 . S
C332 C335 1.461 . S
C332 H352 0.932 . S
C333 C331 1.408 . S
C333 C332 1.310 . S
C333 H353 0.930 . S
C334 C335 1.474 . S
C334 C336 1.285 . S
C334 H354 0.929 . S
C335 C332 1.461 . S
C335 C334 1.474 . S
C336 C331 1.342 . S
C336 C334 1.285 . S
C336 H355 0.930 . S
C337 C340 1.424 . S
C337 C342 1.245 . S
C337 C343 1.428 . S
C338 C341 1.260 1_554 S
C338 C342 1.477 . S
C338 H356 0.936 1_554 S
C339 C340 1.384 . S
C339 C341 1.479 1_554 S
C339 H357 0.929 . S
C340 C337 1.424 . S
C340 C339 1.384 . S
C340 H358 0.928 . S
C341 C338 1.260 1_556 S
C341 C339 1.479 1_556 S
C342 C337 1.245 . S
C342 C338 1.477 . S
C342 H359 0.932 . S
C343 U326 2.882 . S
C343 C337 1.428 . S
C343 O346 1.301 . S
C343 O347 1.282 . S
O344 U326 2.441 . S
O344 C330 1.249 . S
O345 U326 2.420 . S
O345 C330 1.202 . S
O346 U326 2.455 . S
O346 C343 1.301 . S
O347 U326 2.449 . S
O347 C343 1.282 . S
H348 C321 0.931 . S
H349 C323 0.929 . S
H350 C324 0.930 . S
H351 C325 0.931 . S
H352 C332 0.932 . S
H353 C333 0.930 . S
H354 C334 0.929 . S
H355 C336 0.930 . S
H356 C338 0.936 1_556 S
H357 C339 0.929 . S
H358 C340 0.928 . S
H359 C342 0.932 . S
C360 C361 1.391 . S
C360 C362 1.394 . S
C360 H376 0.931 . S
C361 C360 1.391 . S
C361 C365 1.376 . S
C362 C360 1.394 . S
C362 C363 1.369 . S
C362 C366 1.531 . S
C363 C362 1.369 . S
C363 C364 1.410 . S
C363 C371 1.503 . S
C364 C363 1.410 . S
C364 C365 1.392 . S
C364 C367 1.511 . S
C365 C361 1.376 . S
C365 C364 1.392 . S
C365 H377 0.929 . S
C366 C362 1.531 . S
C366 H378 0.960 . S
C366 H379 0.962 . S
C366 H380 0.960 . S
C367 C364 1.511 . S
C367 H381 0.961 . S
C367 H382 0.961 . S
C367 H383 0.961 . S
C368 C369 1.370 . S
C368 C370 1.363 . S
C368 H384 0.931 . S
C369 C368 1.370 . S
C369 C373 1.408 . S
C370 C368 1.363 . S
C370 C371 1.370 . S
C370 C374 1.524 . S
C371 C363 1.503 . S
C371 C370 1.370 . S
C371 C372 1.403 . S
C372 C371 1.403 . S
C372 C373 1.404 . S
C372 C375 1.539 . S
C373 C369 1.408 . S
C373 C372 1.404 . S
C373 H385 0.930 . S
C374 C370 1.524 . S
C374 H386 0.956 . S
C374 H387 0.961 . S
C374 H388 0.961 . S
C375 C372 1.539 . S
C375 H389 0.958 . S
C375 H390 0.961 . S
C375 H391 0.960 . S
H376 C360 0.931 . S
H377 C365 0.929 . S
H378 C366 0.960 . S
H379 C366 0.962 . S
H380 C366 0.960 . S
H381 C367 0.961 . S
H382 C367 0.961 . S
H383 C367 0.961 . S
H384 C368 0.931 . S
H385 C373 0.930 . S
H386 C374 0.956 . S
H387 C374 0.961 . S
H388 C374 0.961 . S
H389 C375 0.958 . S
H390 C375 0.961 . S
H391 C375 0.960 . S
C392 C393 1.391 . S
C392 C394 1.394 . S
C392 H408 0.931 . S
C393 C392 1.391 . S
C393 C397 1.376 . S
C394 C392 1.394 . S
C394 C395 1.369 . S
C394 C398 1.531 . S
C395 C394 1.369 . S
C395 C396 1.410 . S
C395 C403 1.503 . S
C396 C395 1.410 . S
C396 C397 1.392 . S
C396 C399 1.511 . S
C397 C393 1.376 . S
C397 C396 1.392 . S
C397 H409 0.929 . S
C398 C394 1.531 . S
C398 H410 0.960 . S
C398 H411 0.962 . S
C398 H412 0.960 . S
C399 C396 1.511 . S
C399 H413 0.961 . S
C399 H414 0.961 . S
C399 H415 0.961 . S
C400 C401 1.370 . S
C400 C402 1.363 . S
C400 H416 0.931 . S
C401 C400 1.370 . S
C401 C405 1.408 . S
C402 C400 1.363 . S
C402 C403 1.370 . S
C402 C406 1.524 . S
C403 C395 1.503 . S
C403 C402 1.370 . S
C403 C404 1.403 . S
C404 C403 1.403 . S
C404 C405 1.404 . S
C404 C407 1.539 . S
C405 C401 1.408 . S
C405 C404 1.404 . S
C405 H417 0.930 . S
C406 C402 1.524 . S
C406 H418 0.956 . S
C406 H419 0.961 . S
C406 H420 0.961 . S
C407 C404 1.539 . S
C407 H421 0.958 . S
C407 H422 0.961 . S
C407 H423 0.960 . S
H408 C392 0.931 . S
H409 C397 0.929 . S
H410 C398 0.960 . S
H411 C398 0.962 . S
H412 C398 0.960 . S
H413 C399 0.961 . S
H414 C399 0.961 . S
H415 C399 0.961 . S
H416 C400 0.931 . S
H417 C405 0.930 . S
H418 C406 0.956 . S
H419 C406 0.961 . S
H420 C406 0.961 . S
H421 C407 0.958 . S
H422 C407 0.961 . S
H423 C407 0.960 . S
C424 C425 1.391 . S
C424 C426 1.394 . S
C424 H440 0.931 . S
C425 C424 1.391 . S
C425 C429 1.376 . S
C426 C424 1.394 . S
C426 C427 1.369 . S
C426 C430 1.531 . S
C427 C426 1.369 . S
C427 C428 1.410 . S
C427 C435 1.503 . S
C428 C427 1.410 . S
C428 C429 1.392 . S
C428 C431 1.511 . S
C429 C425 1.376 . S
C429 C428 1.392 . S
C429 H441 0.929 . S
C430 C426 1.531 . S
C430 H442 0.960 . S
C430 H443 0.962 . S
C430 H444 0.960 . S
C431 C428 1.511 . S
C431 H445 0.961 . S
C431 H446 0.961 . S
C431 H447 0.961 . S
C432 C433 1.370 . S
C432 C434 1.363 . S
C432 H448 0.931 . S
C433 C432 1.370 . S
C433 C437 1.408 . S
C434 C432 1.363 . S
C434 C435 1.370 . S
C434 C438 1.524 . S
C435 C427 1.503 . S
C435 C434 1.370 . S
C435 C436 1.403 . S
C436 C435 1.403 . S
C436 C437 1.404 . S
C436 C439 1.539 . S
C437 C433 1.408 . S
C437 C436 1.404 . S
C437 H449 0.930 . S
C438 C434 1.524 . S
C438 H450 0.956 . S
C438 H451 0.961 . S
C438 H452 0.961 . S
C439 C436 1.539 . S
C439 H453 0.958 . S
C439 H454 0.961 . S
C439 H455 0.960 . S
H440 C424 0.931 . S
H441 C429 0.929 . S
H442 C430 0.960 . S
H443 C430 0.962 . S
H444 C430 0.960 . S
H445 C431 0.961 . S
H446 C431 0.961 . S
H447 C431 0.961 . S
H448 C432 0.931 . S
H449 C437 0.930 . S
H450 C438 0.956 . S
H451 C438 0.961 . S
H452 C438 0.961 . S
H453 C439 0.958 . S
H454 C439 0.961 . S
H455 C439 0.960 . S
C456 C457 1.391 . S
C456 C458 1.394 . S
C456 H472 0.931 . S
C457 C456 1.391 . S
C457 C461 1.376 . S
C458 C456 1.394 . S
C458 C459 1.369 . S
C458 C462 1.531 . S
C459 C458 1.369 . S
C459 C460 1.410 . S
C459 C467 1.503 . S
C460 C459 1.410 . S
C460 C461 1.392 . S
C460 C463 1.511 . S
C461 C457 1.376 . S
C461 C460 1.392 . S
C461 H473 0.929 . S
C462 C458 1.531 . S
C462 H474 0.960 . S
C462 H475 0.962 . S
C462 H476 0.960 . S
C463 C460 1.511 . S
C463 H477 0.961 . S
C463 H478 0.961 . S
C463 H479 0.961 . S
C464 C465 1.370 . S
C464 C466 1.363 . S
C464 H480 0.931 . S
C465 C464 1.370 . S
C465 C469 1.408 . S
C466 C464 1.363 . S
C466 C467 1.370 . S
C466 C470 1.524 . S
C467 C459 1.503 . S
C467 C466 1.370 . S
C467 C468 1.403 . S
C468 C467 1.403 . S
C468 C469 1.404 . S
C468 C471 1.539 . S
C469 C465 1.408 . S
C469 C468 1.404 . S
C469 H481 0.930 . S
C470 C466 1.524 . S
C470 H482 0.956 . S
C470 H483 0.961 . S
C470 H484 0.961 . S
C471 C468 1.539 . S
C471 H485 0.958 . S
C471 H486 0.961 . S
C471 H487 0.960 . S
H472 C456 0.931 . S
H473 C461 0.929 . S
H474 C462 0.960 . S
H475 C462 0.962 . S
H476 C462 0.960 . S
H477 C463 0.961 . S
H478 C463 0.961 . S
H479 C463 0.961 . S
H480 C464 0.931 . S
H481 C469 0.930 . S
H482 C470 0.956 . S
H483 C470 0.961 . S
H484 C470 0.961 . S
H485 C471 0.958 . S
H486 C471 0.961 . S
H487 C471 0.960 . S
C488 C489 1.391 . S
C488 C490 1.394 . S
C488 H504 0.931 . S
C489 C488 1.391 . S
C489 C493 1.376 . S
C490 C488 1.394 . S
C490 C491 1.369 . S
C490 C494 1.531 . S
C491 C490 1.369 . S
C491 C492 1.410 . S
C491 C499 1.503 . S
C492 C491 1.410 . S
C492 C493 1.392 . S
C492 C495 1.511 . S
C493 C489 1.376 . S
C493 C492 1.392 . S
C493 H505 0.929 . S
C494 C490 1.531 . S
C494 H506 0.960 . S
C494 H507 0.962 . S
C494 H508 0.960 . S
C495 C492 1.511 . S
C495 H509 0.961 . S
C495 H510 0.961 . S
C495 H511 0.961 . S
C496 C497 1.370 . S
C496 C498 1.363 . S
C496 H512 0.931 . S
C497 C496 1.370 . S
C497 C501 1.408 . S
C498 C496 1.363 . S
C498 C499 1.370 . S
C498 C502 1.524 . S
C499 C491 1.503 . S
C499 C498 1.370 . S
C499 C500 1.403 . S
C500 C499 1.403 . S
C500 C501 1.404 . S
C500 C503 1.539 . S
C501 C497 1.408 . S
C501 C500 1.404 . S
C501 H513 0.930 . S
C502 C498 1.524 . S
C502 H514 0.956 . S
C502 H515 0.961 . S
C502 H516 0.961 . S
C503 C500 1.539 . S
C503 H517 0.958 . S
C503 H518 0.961 . S
C503 H519 0.960 . S
H504 C488 0.931 . S
H505 C493 0.929 . S
H506 C494 0.960 . S
H507 C494 0.962 . S
H508 C494 0.960 . S
H509 C495 0.961 . S
H510 C495 0.961 . S
H511 C495 0.961 . S
H512 C496 0.931 . S
H513 C501 0.930 . S
H514 C502 0.956 . S
H515 C502 0.961 . S
H516 C502 0.961 . S
H517 C503 0.958 . S
H518 C503 0.961 . S
H519 C503 0.960 . S
C520 C521 1.391 . S
C520 C522 1.394 . S
C520 H536 0.931 . S
C521 C520 1.391 . S
C521 C525 1.376 . S
C522 C520 1.394 . S
C522 C523 1.369 . S
C522 C526 1.531 . S
C523 C522 1.369 . S
C523 C524 1.410 . S
C523 C531 1.503 . S
C524 C523 1.410 . S
C524 C525 1.392 . S
C524 C527 1.511 . S
C525 C521 1.376 . S
C525 C524 1.392 . S
C525 H537 0.929 . S
C526 C522 1.531 . S
C526 H538 0.960 . S
C526 H539 0.962 . S
C526 H540 0.960 . S
C527 C524 1.511 . S
C527 H541 0.961 . S
C527 H542 0.961 . S
C527 H543 0.961 . S
C528 C529 1.370 . S
C528 C530 1.363 . S
C528 H544 0.931 . S
C529 C528 1.370 . S
C529 C533 1.408 . S
C530 C528 1.363 . S
C530 C531 1.370 . S
C530 C534 1.524 . S
C531 C523 1.503 . S
C531 C530 1.370 . S
C531 C532 1.403 . S
C532 C531 1.403 . S
C532 C533 1.404 . S
C532 C535 1.539 . S
C533 C529 1.408 . S
C533 C532 1.404 . S
C533 H545 0.930 . S
C534 C530 1.524 . S
C534 H546 0.956 . S
C534 H547 0.961 . S
C534 H548 0.961 . S
C535 C532 1.539 . S
C535 H549 0.958 . S
C535 H550 0.961 . S
C535 H551 0.960 . S
H536 C520 0.931 . S
H537 C525 0.929 . S
H538 C526 0.960 . S
H539 C526 0.962 . S
H540 C526 0.960 . S
H541 C527 0.961 . S
H542 C527 0.961 . S
H543 C527 0.961 . S
H544 C528 0.931 . S
H545 C533 0.930 . S
H546 C534 0.956 . S
H547 C534 0.961 . S
H548 C534 0.961 . S
H549 C535 0.958 . S
H550 C535 0.961 . S
H551 C535 0.960 . S
C552 C553 1.391 . S
C552 C554 1.394 . S
C552 H568 0.931 . S
C553 C552 1.391 . S
C553 C557 1.376 . S
C554 C552 1.394 . S
C554 C555 1.369 . S
C554 C558 1.531 . S
C555 C554 1.369 . S
C555 C556 1.410 . S
C555 C563 1.503 . S
C556 C555 1.410 . S
C556 C557 1.392 . S
C556 C559 1.511 . S
C557 C553 1.376 . S
C557 C556 1.392 . S
C557 H569 0.929 . S
C558 C554 1.531 . S
C558 H570 0.960 . S
C558 H571 0.962 . S
C558 H572 0.960 . S
C559 C556 1.511 . S
C559 H573 0.961 . S
C559 H574 0.961 . S
C559 H575 0.961 . S
C560 C561 1.370 . S
C560 C562 1.363 . S
C560 H576 0.931 . S
C561 C560 1.370 . S
C561 C565 1.408 . S
C562 C560 1.363 . S
C562 C563 1.370 . S
C562 C566 1.524 . S
C563 C555 1.503 . S
C563 C562 1.370 . S
C563 C564 1.403 . S
C564 C563 1.403 . S
C564 C565 1.404 . S
C564 C567 1.539 . S
C565 C561 1.408 . S
C565 C564 1.404 . S
C565 H577 0.930 . S
C566 C562 1.524 . S
C566 H578 0.956 . S
C566 H579 0.961 . S
C566 H580 0.961 . S
C567 C564 1.539 . S
C567 H581 0.958 . S
C567 H582 0.961 . S
C567 H583 0.960 . S
H568 C552 0.931 . S
H569 C557 0.929 . S
H570 C558 0.960 . S
H571 C558 0.962 . S
H572 C558 0.960 . S
H573 C559 0.961 . S
H574 C559 0.961 . S
H575 C559 0.961 . S
H576 C560 0.931 . S
H577 C565 0.930 . S
H578 C566 0.956 . S
H579 C566 0.961 . S
H580 C566 0.961 . S
H581 C567 0.958 . S
H582 C567 0.961 . S
H583 C567 0.960 . S
C584 C585 1.391 . S
C584 C586 1.394 . S
C584 H600 0.931 . S
C585 C584 1.391 . S
C585 C589 1.376 . S
C586 C584 1.394 . S
C586 C587 1.369 . S
C586 C590 1.531 . S
C587 C586 1.369 . S
C587 C588 1.410 . S
C587 C595 1.503 . S
C588 C587 1.410 . S
C588 C589 1.392 . S
C588 C591 1.511 . S
C589 C585 1.376 . S
C589 C588 1.392 . S
C589 H601 0.929 . S
C590 C586 1.531 . S
C590 H602 0.960 . S
C590 H603 0.962 . S
C590 H604 0.960 . S
C591 C588 1.511 . S
C591 H605 0.961 . S
C591 H606 0.961 . S
C591 H607 0.961 . S
C592 C593 1.370 . S
C592 C594 1.363 . S
C592 H608 0.931 . S
C593 C592 1.370 . S
C593 C597 1.408 . S
C594 C592 1.363 . S
C594 C595 1.370 . S
C594 C598 1.524 . S
C595 C587 1.503 . S
C595 C594 1.370 . S
C595 C596 1.403 . S
C596 C595 1.403 . S
C596 C597 1.404 . S
C596 C599 1.539 . S
C597 C593 1.408 . S
C597 C596 1.404 . S
C597 H609 0.930 . S
C598 C594 1.524 . S
C598 H610 0.956 . S
C598 H611 0.961 . S
C598 H612 0.961 . S
C599 C596 1.539 . S
C599 H613 0.958 . S
C599 H614 0.961 . S
C599 H615 0.960 . S
H600 C584 0.931 . S
H601 C589 0.929 . S
H602 C590 0.960 . S
H603 C590 0.962 . S
H604 C590 0.960 . S
H605 C591 0.961 . S
H606 C591 0.961 . S
H607 C591 0.961 . S
H608 C592 0.931 . S
H609 C597 0.930 . S
H610 C598 0.956 . S
H611 C598 0.961 . S
H612 C598 0.961 . S
H613 C599 0.958 . S
H614 C599 0.961 . S
H615 C599 0.960 . S
C616 C617 1.391 . S
C616 C618 1.394 . S
C616 H632 0.931 . S
C617 C616 1.391 . S
C617 C621 1.376 . S
C618 C616 1.394 . S
C618 C619 1.369 . S
C618 C622 1.531 . S
C619 C618 1.369 . S
C619 C620 1.410 . S
C619 C627 1.503 . S
C620 C619 1.410 . S
C620 C621 1.392 . S
C620 C623 1.511 . S
C621 C617 1.376 . S
C621 C620 1.392 . S
C621 H633 0.929 . S
C622 C618 1.531 . S
C622 H634 0.960 . S
C622 H635 0.962 . S
C622 H636 0.960 . S
C623 C620 1.511 . S
C623 H637 0.961 . S
C623 H638 0.961 . S
C623 H639 0.961 . S
C624 C625 1.370 . S
C624 C626 1.363 . S
C624 H640 0.931 . S
C625 C624 1.370 . S
C625 C629 1.408 . S
C626 C624 1.363 . S
C626 C627 1.370 . S
C626 C630 1.524 . S
C627 C619 1.503 . S
C627 C626 1.370 . S
C627 C628 1.403 . S
C628 C627 1.403 . S
C628 C629 1.404 . S
C628 C631 1.539 . S
C629 C625 1.408 . S
C629 C628 1.404 . S
C629 H641 0.930 . S
C630 C626 1.524 . S
C630 H642 0.956 . S
C630 H643 0.961 . S
C630 H644 0.961 . S
C631 C628 1.539 . S
C631 H645 0.958 . S
C631 H646 0.961 . S
C631 H647 0.960 . S
H632 C616 0.931 . S
H633 C621 0.929 . S
H634 C622 0.960 . S
H635 C622 0.962 . S
H636 C622 0.960 . S
H637 C623 0.961 . S
H638 C623 0.961 . S
H639 C623 0.961 . S
H640 C624 0.931 . S
H641 C629 0.930 . S
H642 C630 0.956 . S
H643 C630 0.961 . S
H644 C630 0.961 . S
H645 C631 0.958 . S
H646 C631 0.961 . S
H647 C631 0.960 . S
C648 C649 1.391 . S
C648 C650 1.394 . S
C648 H664 0.931 . S
C649 C648 1.391 . S
C649 C653 1.376 . S
C650 C648 1.394 . S
C650 C651 1.369 . S
C650 C654 1.531 . S
C651 C650 1.369 . S
C651 C652 1.410 . S
C651 C659 1.503 . S
C652 C651 1.410 . S
C652 C653 1.392 . S
C652 C655 1.511 . S
C653 C649 1.376 . S
C653 C652 1.392 . S
C653 H665 0.929 . S
C654 C650 1.531 . S
C654 H666 0.960 . S
C654 H667 0.962 . S
C654 H668 0.960 . S
C655 C652 1.511 . S
C655 H669 0.961 . S
C655 H670 0.961 . S
C655 H671 0.961 . S
C656 C657 1.370 . S
C656 C658 1.363 . S
C656 H672 0.931 . S
C657 C656 1.370 . S
C657 C661 1.408 . S
C658 C656 1.363 . S
C658 C659 1.370 . S
C658 C662 1.524 . S
C659 C651 1.503 . S
C659 C658 1.370 . S
C659 C660 1.403 . S
C660 C659 1.403 . S
C660 C661 1.404 . S
C660 C663 1.539 . S
C661 C657 1.408 . S
C661 C660 1.404 . S
C661 H673 0.930 . S
C662 C658 1.524 . S
C662 H674 0.956 . S
C662 H675 0.961 . S
C662 H676 0.961 . S
C663 C660 1.539 . S
C663 H677 0.958 . S
C663 H678 0.961 . S
C663 H679 0.960 . S
H664 C648 0.931 . S
H665 C653 0.929 . S
H666 C654 0.960 . S
H667 C654 0.962 . S
H668 C654 0.960 . S
H669 C655 0.961 . S
H670 C655 0.961 . S
H671 C655 0.961 . S
H672 C656 0.931 . S
H673 C661 0.930 . S
H674 C662 0.956 . S
H675 C662 0.961 . S
H676 C662 0.961 . S
H677 C663 0.958 . S
H678 C663 0.961 . S
H679 C663 0.960 . S
C680 C681 1.391 . S
C680 C682 1.394 . S
C680 H696 0.931 . S
C681 C680 1.391 . S
C681 C685 1.376 . S
C682 C680 1.394 . S
C682 C683 1.369 . S
C682 C686 1.531 . S
C683 C682 1.369 . S
C683 C684 1.410 . S
C683 C691 1.503 . S
C684 C683 1.410 . S
C684 C685 1.392 . S
C684 C687 1.511 . S
C685 C681 1.376 . S
C685 C684 1.392 . S
C685 H697 0.929 . S
C686 C682 1.531 . S
C686 H698 0.960 . S
C686 H699 0.962 . S
C686 H700 0.960 . S
C687 C684 1.511 . S
C687 H701 0.961 . S
C687 H702 0.961 . S
C687 H703 0.961 . S
C688 C689 1.370 . S
C688 C690 1.363 . S
C688 H704 0.931 . S
C689 C688 1.370 . S
C689 C693 1.408 . S
C690 C688 1.363 . S
C690 C691 1.370 . S
C690 C694 1.524 . S
C691 C683 1.503 . S
C691 C690 1.370 . S
C691 C692 1.403 . S
C692 C691 1.403 . S
C692 C693 1.404 . S
C692 C695 1.539 . S
C693 C689 1.408 . S
C693 C692 1.404 . S
C693 H705 0.930 . S
C694 C690 1.524 . S
C694 H706 0.956 . S
C694 H707 0.961 . S
C694 H708 0.961 . S
C695 C692 1.539 . S
C695 H709 0.958 . S
C695 H710 0.961 . S
C695 H711 0.960 . S
H696 C680 0.931 . S
H697 C685 0.929 . S
H698 C686 0.960 . S
H699 C686 0.962 . S
H700 C686 0.960 . S
H701 C687 0.961 . S
H702 C687 0.961 . S
H703 C687 0.961 . S
H704 C688 0.931 . S
H705 C693 0.930 . S
H706 C694 0.956 . S
H707 C694 0.961 . S
H708 C694 0.961 . S
H709 C695 0.958 . S
H710 C695 0.961 . S
H711 C695 0.960 . S
C712 C713 1.391 . S
C712 C714 1.394 . S
C712 H728 0.931 . S
C713 C712 1.391 . S
C713 C717 1.376 . S
C714 C712 1.394 . S
C714 C715 1.369 . S
C714 C718 1.531 . S
C715 C714 1.369 . S
C715 C716 1.410 . S
C715 C723 1.503 . S
C716 C715 1.410 . S
C716 C717 1.392 . S
C716 C719 1.511 . S
C717 C713 1.376 . S
C717 C716 1.392 . S
C717 H729 0.929 . S
C718 C714 1.531 . S
C718 H730 0.960 . S
C718 H731 0.962 . S
C718 H732 0.960 . S
C719 C716 1.511 . S
C719 H733 0.961 . S
C719 H734 0.961 . S
C719 H735 0.961 . S
C720 C721 1.370 . S
C720 C722 1.363 . S
C720 H736 0.931 . S
C721 C720 1.370 . S
C721 C725 1.408 . S
C722 C720 1.363 . S
C722 C723 1.370 . S
C722 C726 1.524 . S
C723 C715 1.503 . S
C723 C722 1.370 . S
C723 C724 1.403 . S
C724 C723 1.403 . S
C724 C725 1.404 . S
C724 C727 1.539 . S
C725 C721 1.408 . S
C725 C724 1.404 . S
C725 H737 0.930 . S
C726 C722 1.524 . S
C726 H738 0.956 . S
C726 H739 0.961 . S
C726 H740 0.961 . S
C727 C724 1.539 . S
C727 H741 0.958 . S
C727 H742 0.961 . S
C727 H743 0.960 . S
H728 C712 0.931 . S
H729 C717 0.929 . S
H730 C718 0.960 . S
H731 C718 0.962 . S
H732 C718 0.960 . S
H733 C719 0.961 . S
H734 C719 0.961 . S
H735 C719 0.961 . S
H736 C720 0.931 . S
H737 C725 0.930 . S
H738 C726 0.956 . S
H739 C726 0.961 . S
H740 C726 0.961 . S
H741 C727 0.958 . S
H742 C727 0.961 . S
H743 C727 0.960 . S
C744 C745 1.391 . S
C744 C746 1.394 . S
C744 H760 0.931 1_455 S
C745 C744 1.391 . S
C745 C749 1.376 . S
C746 C744 1.394 . S
C746 C747 1.369 . S
C746 C750 1.531 1_455 S
C747 C746 1.369 . S
C747 C748 1.410 . S
C747 C755 1.503 . S
C748 C747 1.410 . S
C748 C749 1.392 . S
C748 C751 1.511 . S
C749 C745 1.376 . S
C749 C748 1.392 . S
C749 H761 0.929 . S
C750 C746 1.531 1_655 S
C750 H762 0.960 1_655 S
C750 H763 0.962 . S
C750 H764 0.960 . S
C751 C748 1.511 . S
C751 H765 0.961 . S
C751 H766 0.961 . S
C751 H767 0.961 . S
C752 C753 1.370 . S
C752 C754 1.363 . S
C752 H768 0.931 1_455 S
C753 C752 1.370 . S
C753 C757 1.408 . S
C754 C752 1.363 . S
C754 C755 1.370 . S
C754 C758 1.524 1_455 S
C755 C747 1.503 . S
C755 C754 1.370 . S
C755 C756 1.403 . S
C756 C755 1.403 . S
C756 C757 1.404 . S
C756 C759 1.539 . S
C757 C753 1.408 . S
C757 C756 1.404 . S
C757 H769 0.930 . S
C758 C754 1.524 1_655 S
C758 H770 0.956 . S
C758 H771 0.961 . S
C758 H772 0.961 . S
C759 C756 1.539 . S
C759 H773 0.958 . S
C759 H774 0.961 . S
C759 H775 0.960 . S
H760 C744 0.931 1_655 S
H761 C749 0.929 . S
H762 C750 0.960 1_455 S
H763 C750 0.962 . S
H764 C750 0.960 . S
H765 C751 0.961 . S
H766 C751 0.961 . S
H767 C751 0.961 . S
H768 C752 0.931 1_655 S
H769 C757 0.930 . S
H770 C758 0.956 . S
H771 C758 0.961 . S
H772 C758 0.961 . S
H773 C759 0.958 . S
H774 C759 0.961 . S
H775 C759 0.960 . S
C776 C777 1.391 1_565 S
C776 C778 1.394 . S
C776 H792 0.931 . S
C777 C776 1.391 1_545 S
C777 C781 1.376 . S
C778 C776 1.394 . S
C778 C779 1.369 1_565 S
C778 C782 1.531 . S
C779 C778 1.369 1_545 S
C779 C780 1.410 . S
C779 C787 1.503 . S
C780 C779 1.410 . S
C780 C781 1.392 . S
C780 C783 1.511 . S
C781 C777 1.376 . S
C781 C780 1.392 . S
C781 H793 0.929 . S
C782 C778 1.531 . S
C782 H794 0.960 . S
C782 H795 0.962 . S
C782 H796 0.960 . S
C783 C780 1.511 . S
C783 H797 0.961 . S
C783 H798 0.961 . S
C783 H799 0.961 . S
C784 C785 1.370 . S
C784 C786 1.363 . S
C784 H800 0.931 . S
C785 C784 1.370 . S
C785 C789 1.408 1_545 S
C786 C784 1.363 . S
C786 C787 1.370 . S
C786 C790 1.524 . S
C787 C779 1.503 . S
C787 C786 1.370 . S
C787 C788 1.403 1_545 S
C788 C787 1.403 1_565 S
C788 C789 1.404 . S
C788 C791 1.539 . S
C789 C785 1.408 1_565 S
C789 C788 1.404 . S
C789 H801 0.930 . S
C790 C786 1.524 . S
C790 H802 0.956 . S
C790 H803 0.961 . S
C790 H804 0.961 . S
C791 C788 1.539 . S
C791 H805 0.958 . S
C791 H806 0.961 . S
C791 H807 0.960 . S
H792 C776 0.931 . S
H793 C781 0.929 . S
H794 C782 0.960 . S
H795 C782 0.962 . S
H796 C782 0.960 . S
H797 C783 0.961 . S
H798 C783 0.961 . S
H799 C783 0.961 . S
H800 C784 0.931 . S
H801 C789 0.930 . S
H802 C790 0.956 . S
H803 C790 0.961 . S
H804 C790 0.961 . S
H805 C791 0.958 . S
H806 C791 0.961 . S
H807 C791 0.960 . S
C808 C809 1.391 . S
C808 C810 1.394 . S
C808 H824 0.931 . S
C809 C808 1.391 . S
C809 C813 1.376 . S
C810 C808 1.394 . S
C810 C811 1.369 . S
C810 C814 1.531 . S
C811 C810 1.369 . S
C811 C812 1.410 . S
C811 C819 1.503 . S
C812 C811 1.410 . S
C812 C813 1.392 . S
C812 C815 1.511 . S
C813 C809 1.376 . S
C813 C812 1.392 . S
C813 H825 0.929 . S
C814 C810 1.531 . S
C814 H826 0.960 . S
C814 H827 0.962 . S
C814 H828 0.960 . S
C815 C812 1.511 . S
C815 H829 0.961 . S
C815 H830 0.961 . S
C815 H831 0.961 . S
C816 C817 1.370 . S
C816 C818 1.363 . S
C816 H832 0.931 . S
C817 C816 1.370 . S
C817 C821 1.408 . S
C818 C816 1.363 . S
C818 C819 1.370 . S
C818 C822 1.524 . S
C819 C811 1.503 . S
C819 C818 1.370 . S
C819 C820 1.403 . S
C820 C819 1.403 . S
C820 C821 1.404 . S
C820 C823 1.539 . S
C821 C817 1.408 . S
C821 C820 1.404 . S
C821 H833 0.930 . S
C822 C818 1.524 . S
C822 H834 0.956 . S
C822 H835 0.961 . S
C822 H836 0.961 . S
C823 C820 1.539 . S
C823 H837 0.958 . S
C823 H838 0.961 . S
C823 H839 0.960 . S
H824 C808 0.931 . S
H825 C813 0.929 . S
H826 C814 0.960 . S
H827 C814 0.962 . S
H828 C814 0.960 . S
H829 C815 0.961 . S
H830 C815 0.961 . S
H831 C815 0.961 . S
H832 C816 0.931 . S
H833 C821 0.930 . S
H834 C822 0.956 . S
H835 C822 0.961 . S
H836 C822 0.961 . S
H837 C823 0.958 . S
H838 C823 0.961 . S
H839 C823 0.960 . S
C840 C841 1.391 1_565 S
C840 C842 1.394 . S
C840 H856 0.931 . S
C841 C840 1.391 1_545 S
C841 C845 1.376 . S
C842 C840 1.394 . S
C842 C843 1.369 . S
C842 C846 1.531 . S
C843 C842 1.369 . S
C843 C844 1.410 1_565 S
C843 C851 1.503 . S
C844 C843 1.410 1_545 S
C844 C845 1.392 . S
C844 C847 1.511 . S
C845 C841 1.376 . S
C845 C844 1.392 . S
C845 H857 0.929 . S
C846 C842 1.531 . S
C846 H858 0.960 . S
C846 H859 0.962 . S
C846 H860 0.960 . S
C847 C844 1.511 . S
C847 H861 0.961 . S
C847 H862 0.961 . S
C847 H863 0.961 1_545 S
C848 C849 1.370 1_545 S
C848 C850 1.363 . S
C848 H864 0.931 . S
C849 C848 1.370 1_565 S
C849 C853 1.408 . S
C850 C848 1.363 . S
C850 C851 1.370 1_545 S
C850 C854 1.524 . S
C851 C843 1.503 . S
C851 C850 1.370 1_565 S
C851 C852 1.403 . S
C852 C851 1.403 . S
C852 C853 1.404 . S
C852 C855 1.539 . S
C853 C849 1.408 . S
C853 C852 1.404 . S
C853 H865 0.930 . S
C854 C850 1.524 . S
C854 H866 0.956 . S
C854 H867 0.961 . S
C854 H868 0.961 . S
C855 C852 1.539 . S
C855 H869 0.958 . S
C855 H870 0.961 . S
C855 H871 0.960 . S
H856 C840 0.931 . S
H857 C845 0.929 . S
H858 C846 0.960 . S
H859 C846 0.962 . S
H860 C846 0.960 . S
H861 C847 0.961 . S
H862 C847 0.961 . S
H863 C847 0.961 1_565 S
H864 C848 0.931 . S
H865 C853 0.930 . S
H866 C854 0.956 . S
H867 C854 0.961 . S
H868 C854 0.961 . S
H869 C855 0.958 . S
H870 C855 0.961 . S
H871 C855 0.960 . S
C872 C873 1.391 . S
C872 C874 1.394 . S
C872 H888 0.931 . S
C873 C872 1.391 . S
C873 C877 1.376 . S
C874 C872 1.394 . S
C874 C875 1.369 . S
C874 C878 1.531 . S
C875 C874 1.369 . S
C875 C876 1.410 . S
C875 C883 1.503 . S
C876 C875 1.410 . S
C876 C877 1.392 . S
C876 C879 1.511 . S
C877 C873 1.376 . S
C877 C876 1.392 . S
C877 H889 0.929 . S
C878 C874 1.531 . S
C878 H890 0.960 . S
C878 H891 0.962 . S
C878 H892 0.960 . S
C879 C876 1.511 . S
C879 H893 0.961 . S
C879 H894 0.961 . S
C879 H895 0.961 . S
C880 C881 1.370 . S
C880 C882 1.363 . S
C880 H896 0.931 . S
C881 C880 1.370 . S
C881 C885 1.408 . S
C882 C880 1.363 . S
C882 C883 1.370 . S
C882 C886 1.524 . S
C883 C875 1.503 . S
C883 C882 1.370 . S
C883 C884 1.403 . S
C884 C883 1.403 . S
C884 C885 1.404 . S
C884 C887 1.539 . S
C885 C881 1.408 . S
C885 C884 1.404 . S
C885 H897 0.930 . S
C886 C882 1.524 . S
C886 H898 0.956 . S
C886 H899 0.961 . S
C886 H900 0.961 . S
C887 C884 1.539 . S
C887 H901 0.958 . S
C887 H902 0.961 . S
C887 H903 0.960 . S
H888 C872 0.931 . S
H889 C877 0.929 . S
H890 C878 0.960 . S
H891 C878 0.962 . S
H892 C878 0.960 . S
H893 C879 0.961 . S
H894 C879 0.961 . S
H895 C879 0.961 . S
H896 C880 0.931 . S
H897 C885 0.930 . S
H898 C886 0.956 . S
H899 C886 0.961 . S
H900 C886 0.961 . S
H901 C887 0.958 . S
H902 C887 0.961 . S
H903 C887 0.960 . S
C904 C905 1.391 1_655 S
C904 C906 1.394 . S
C904 H920 0.931 . S
C905 C904 1.391 1_455 S
C905 C909 1.376 . S
C906 C904 1.394 . S
C906 C907 1.369 1_655 S
C906 C910 1.531 . S
C907 C906 1.369 1_455 S
C907 C908 1.410 . S
C907 C915 1.503 1_455 S
C908 C907 1.410 . S
C908 C909 1.392 . S
C908 C911 1.511 . S
C909 C905 1.376 . S
C909 C908 1.392 . S
C909 H921 0.929 . S
C910 C906 1.531 . S
C910 H922 0.960 . S
C910 H923 0.962 . S
C910 H924 0.960 . S
C911 C908 1.511 . S
C911 H925 0.961 . S
C911 H926 0.961 . S
C911 H927 0.961 . S
C912 C913 1.370 1_455 S
C912 C914 1.363 . S
C912 H928 0.931 . S
C913 C912 1.370 1_655 S
C913 C917 1.408 . S
C914 C912 1.363 . S
C914 C915 1.373 1_455 S
C914 C918 1.524 . S
C915 C907 1.503 1_655 S
C915 C914 1.373 1_655 S
C915 C916 1.401 . S
C916 C915 1.401 . S
C916 C917 1.404 . S
C916 C919 1.539 . S
C917 C913 1.408 . S
C917 C916 1.404 . S
C917 H929 0.930 . S
C918 C914 1.524 . S
C918 H930 0.956 1_455 S
C918 H931 0.961 . S
C918 H932 0.961 . S
C919 C916 1.539 . S
C919 H933 0.958 . S
C919 H934 0.970 . S
C919 H935 0.960 1_655 S
H920 C904 0.931 . S
H921 C909 0.929 . S
H922 C910 0.960 . S
H923 C910 0.962 . S
H924 C910 0.960 . S
H925 C911 0.961 . S
H926 C911 0.961 . S
H927 C911 0.961 . S
H928 C912 0.931 . S
H929 C917 0.930 . S
H930 C918 0.956 1_655 S
H931 C918 0.961 . S
H932 C918 0.961 . S
H933 C919 0.958 . S
H934 C919 0.970 . S
H935 C919 0.960 1_455 S
C361 C6 0.479 . S
C369 C335 0.551 . S
C393 C59 1.941 . S
C401 C242 1.950 . S
C425 C86 1.215 . S
C433 C282 1.215 . S
C457 C15 0.416 . S
C465 C322 0.262 . S
C497 C255 2.051 . S
C489 C50 2.102 . S
C529 C295 1.322 . S
C521 C95 1.332 . S
C553 C46 1.200 . S
C561 C162 1.178 . S
C585 C99 3.153 . S
C593 C202 3.144 . S
C617 C10 2.121 . S
C625 C135 2.092 . S
C657 C175 1.292 . S
C649 C55 1.276 . S
C689 C215 3.039 . S
C681 C90 3.072 . S
C713 C19 1.932 . S
C721 C122 1.947 . S
C753 C221 1.761 1_554 S
C745 C18 1.690 . S
C777 C49 1.343 . S
C785 C141 1.376 . S
C809 C98 1.419 . S
C817 C181 1.499 . S
C849 C301 1.490 . S
C841 C58 1.458 . S
C881 C341 1.106 . S
C873 C89 1.117 . S
C905 C9 1.301 . S
C913 C261 1.373 . S
