# Generated by pormake.
# Topology anh, (6,3)-cn, num edge types: 1
# Building blocks:
#     Node 0, Type 0, BuildingBlock: GEDQOX_clean_sbu_0, # of connection points: 6
#     Node 1, Type 0, BuildingBlock: GEDQOX_clean_sbu_0, # of connection points: 6
#     Node 2, Type 0, BuildingBlock: GEDQOX_clean_sbu_0, # of connection points: 6
#     Node 3, Type 1, BuildingBlock: OLANEW_clean_sbu_2, # of connection points: 3
#     Node 4, Type 1, BuildingBlock: OLANEW_clean_sbu_2, # of connection points: 3
#     Node 5, Type 1, BuildingBlock: OLANEW_clean_sbu_2, # of connection points: 3
#     Node 6, Type 1, BuildingBlock: OLANEW_clean_sbu_2, # of connection points: 3
#     Node 7, Type 1, BuildingBlock: OLANEW_clean_sbu_2, # of connection points: 3
#     Node 8, Type 1, BuildingBlock: OLANEW_clean_sbu_2, # of connection points: 3
#     Edge 9, Type (0, 1), BuildingBlock: CIFDUS_clean_linker_0, # of connection points: 2
#     Edge 10, Type (0, 1), BuildingBlock: CIFDUS_clean_linker_0, # of connection points: 2
#     Edge 11, Type (0, 1), BuildingBlock: CIFDUS_clean_linker_0, # of connection points: 2
#     Edge 12, Type (0, 1), BuildingBlock: CIFDUS_clean_linker_0, # of connection points: 2
#     Edge 13, Type (0, 1), BuildingBlock: CIFDUS_clean_linker_0, # of connection points: 2
#     Edge 14, Type (0, 1), BuildingBlock: CIFDUS_clean_linker_0, # of connection points: 2
#     Edge 15, Type (0, 1), BuildingBlock: CIFDUS_clean_linker_0, # of connection points: 2
#     Edge 16, Type (0, 1), BuildingBlock: CIFDUS_clean_linker_0, # of connection points: 2
#     Edge 17, Type (0, 1), BuildingBlock: CIFDUS_clean_linker_0, # of connection points: 2
#     Edge 18, Type (0, 1), BuildingBlock: CIFDUS_clean_linker_0, # of connection points: 2
#     Edge 19, Type (0, 1), BuildingBlock: CIFDUS_clean_linker_0, # of connection points: 2
#     Edge 20, Type (0, 1), BuildingBlock: CIFDUS_clean_linker_0, # of connection points: 2
#     Edge 21, Type (0, 1), BuildingBlock: CIFDUS_clean_linker_0, # of connection points: 2
#     Edge 22, Type (0, 1), BuildingBlock: CIFDUS_clean_linker_0, # of connection points: 2
#     Edge 23, Type (0, 1), BuildingBlock: CIFDUS_clean_linker_0, # of connection points: 2
#     Edge 24, Type (0, 1), BuildingBlock: CIFDUS_clean_linker_0, # of connection points: 2
#     Edge 25, Type (0, 1), BuildingBlock: CIFDUS_clean_linker_0, # of connection points: 2
#     Edge 26, Type (0, 1), BuildingBlock: CIFDUS_clean_linker_0, # of connection points: 2
# Relax obj value: 0.157
# Max RMSD: 0.180
# Mean RMSD: 0.119
data_MOF--net-anh--node1-GEDQOX_clean_sbu_0--node2-OLANEW_clean_sbu_2--edge1-CIFDUS_clean_linker_0
_symmetry_space_group_name_H-M    P1
_symmetry_Int_Tables_number       1
_symmetry_cell_setting            triclinic
loop_
_symmetry_equiv_pos_as_xyz
'x, y, z'
_cell_length_a     33.658418
_cell_length_b     29.985968
_cell_length_c     44.506116
_cell_angle_alpha  92.549532
_cell_angle_beta   90.185363
_cell_angle_gamma 107.51468
loop_
_atom_site_label
_atom_site_type_symbol
_atom_site_fract_x
_atom_site_fract_y
_atom_site_fract_z
_atom_type_partial_charge
Nd0 Nd 0.04572 0.55077 0.15993 0.0
Nd1 Nd 0.01722 0.44725 0.16083 0.0
C2 C 0.08584 0.64055 0.15476 0.0
C3 C 0.12964 0.67013 0.1572 0.0
C4 C 0.16197 0.65598 0.14384 0.0
C5 C 0.20341 0.68416 0.14737 0.0
C6 C 0.21324 0.72687 0.16438 0.0
C7 C 0.18076 0.74038 0.1781 0.0
C8 C 0.13944 0.71234 0.17448 0.0
C9 C 0.02164 0.51691 0.21511 0.0
C10 C 0.1164 0.492 0.15786 0.0
C11 C 0.97703 0.35904 0.17114 0.0
C12 C 0.93336 0.32868 0.17092 0.0
C13 C 0.90234 0.34141 0.18715 0.0
C14 C 0.86145 0.31127 0.18706 0.0
C15 C 0.85074 0.26795 0.17064 0.0
C16 C 0.88165 0.25621 0.15365 0.0
C17 C 0.92249 0.28615 0.1539 0.0
C18 C 0.03918 0.48062 0.10555 0.0
C19 C 0.94633 0.50361 0.15159 0.0
O20 O 0.07515 0.61061 0.13165 0.0
O21 O 0.06934 0.62314 0.17978 0.0
O22 O 1.01048 0.55017 0.20349 0.0
O23 O 0.04477 0.50167 0.19773 0.0
O24 O 0.10784 0.53143 0.15283 0.0
O25 O 0.08675 0.45469 0.16606 0.0
O26 O 0.98883 0.39193 0.19255 0.0
O27 O 0.99219 0.37283 0.14499 0.0
O28 O 0.04786 0.44454 0.11543 0.0
O29 O 0.01766 0.49646 0.12381 0.0
O30 O 0.95475 0.46556 0.16007 0.0
O31 O 0.97705 0.54202 0.14641 0.0
H32 H 0.15529 0.62318 0.13073 0.0
H33 H 0.22766 0.67281 0.13645 0.0
H34 H 0.18731 0.77249 0.19192 0.0
H35 H 0.11508 0.72349 0.18543 0.0
H36 H 0.90972 0.37432 0.20019 0.0
H37 H 0.83856 0.32134 0.20055 0.0
H38 H 0.87437 0.22364 0.14024 0.0
H39 H 0.94575 0.2759 0.14089 0.0
Nd40 Nd 0.46883 0.99953 0.515 0.0
Nd41 Nd 0.56127 0.03044 0.50724 0.0
C42 C 0.39115 0.9551 0.52921 0.0
C43 C 0.36054 0.9082 0.52354 0.0
C44 C 0.36062 0.87061 0.54135 0.0
C45 C 0.3306 0.82696 0.53659 0.0
C46 C 0.29971 0.81998 0.51403 0.0
C47 C 0.30002 0.85741 0.49599 0.0
C48 C 0.32995 0.90103 0.50077 0.0
C49 C 0.49449 0.0156 0.45669 0.0
C50 C 0.51895 0.92082 0.50375 0.0
C51 C 0.63861 0.07575 0.49313 0.0
C52 C 0.66625 0.12466 0.49581 0.0
C53 C 0.661 0.15911 0.47707 0.0
C54 C 0.68887 0.20448 0.47897 0.0
C55 C 0.72254 0.21634 0.49965 0.0
C56 C 0.72668 0.18231 0.51915 0.0
C57 C 0.69905 0.13698 0.51712 0.0
C58 C 0.53743 0.00712 0.56441 0.0
C59 C 0.51114 0.10798 0.52046 0.0
O60 O 0.42333 0.95777 0.54654 0.0
O61 O 0.4008 0.98215 0.50639 0.0
O62 O 0.46428 0.02889 0.46817 0.0
O63 O 0.50903 0.99443 0.47543 0.0
O64 O 0.48649 0.9312 0.51522 0.0
O65 O 0.55143 0.95355 0.49407 0.0
O66 O 0.60735 0.06604 0.47384 0.0
O67 O 0.62879 0.05441 0.51826 0.0
O68 O 0.56775 0.99659 0.551 0.0
O69 O 0.52149 0.03124 0.54827 0.0
O70 O 0.54266 0.09862 0.50689 0.0
O71 O 0.48004 0.07497 0.53106 0.0
H72 H 0.38355 0.87495 0.55924 0.0
H73 H 0.33102 0.79903 0.55109 0.0
H74 H 0.27709 0.85301 0.47809 0.0
H75 H 0.32893 0.92927 0.48672 0.0
H76 H 0.63591 0.15088 0.46048 0.0
H77 H 0.68495 0.22968 0.46343 0.0
H78 H 0.7518 0.19048 0.53571 0.0
H79 H 0.70376 0.11129 0.53198 0.0
Nd80 Nd 0.47969 0.49515 0.83547 0.0
Nd81 Nd 0.57197 0.54057 0.84042 0.0
C82 C 0.40702 0.47415 0.80814 0.0
C83 C 0.37565 0.49864 0.81013 0.0
C84 C 0.34937 0.49721 0.78545 0.0
C85 C 0.32082 0.52264 0.7869 0.0
C86 C 0.31866 0.54976 0.81298 0.0
C87 C 0.34614 0.55268 0.83719 0.0
C88 C 0.37483 0.52758 0.83566 0.0
C89 C 0.49535 0.51599 0.89596 0.0
C90 C 0.51772 0.61016 0.84346 0.0
C91 C 0.65325 0.56544 0.84783 0.0
C92 C 0.68559 0.54402 0.83913 0.0
C93 C 0.68214 0.49769 0.84592 0.0
C94 C 0.71602 0.48061 0.84178 0.0
C95 C 0.75336 0.50959 0.83071 0.0
C96 C 0.75512 0.55378 0.8207 0.0
C97 C 0.7213 0.57096 0.82491 0.0
C98 C 0.53907 0.52676 0.78317 0.0
C99 C 0.53499 0.42446 0.83883 0.0
O100 O 0.44151 0.49843 0.79584 0.0
O101 O 0.41313 0.45342 0.83237 0.0
O102 O 0.4586 0.49623 0.88426 0.0
O103 O 0.52308 0.5249 0.87595 0.0
O104 O 0.48779 0.57394 0.83206 0.0
O105 O 0.55279 0.6052 0.85363 0.0
O106 O 0.62737 0.54522 0.86858 0.0
O107 O 0.63516 0.57945 0.82574 0.0
O108 O 0.56478 0.56614 0.79314 0.0
O109 O 0.53113 0.49754 0.8034 0.0
O110 O 0.56784 0.46225 0.84089 0.0
O111 O 0.49673 0.4271 0.83615 0.0
H112 H 0.35055 0.476 0.76531 0.0
H113 H 0.29902 0.5193 0.76835 0.0
H114 H 0.34414 0.57272 0.85769 0.0
H115 H 0.39592 0.53019 0.85455 0.0
H116 H 0.65441 0.47576 0.8562 0.0
H117 H 0.71448 0.44666 0.85002 0.0
H118 H 0.784 0.57671 0.81246 0.0
H119 H 0.72407 0.60637 0.81888 0.0
O120 O 0.52696 0.0608 0.26199 0.0
Cd121 Cd 0.53589 0.0561 0.20748 0.0
O122 O 0.5257 0.98805 0.26882 0.0
Cd123 Cd 0.51319 0.96266 0.22202 0.0
O124 O 0.45973 0.91361 0.19812 0.0
C125 C 0.42887 0.92868 0.19359 0.0
O126 O 0.43274 0.97275 0.20091 0.0
C127 C 0.52644 0.02833 0.27957 0.0
C128 C 0.61252 0.11862 0.19218 0.0
O129 O 0.57958 0.13161 0.19356 0.0
O130 O 0.60906 0.076 0.1976 0.0
O131 O 0.52687 0.46994 0.59546 0.0
Cd132 Cd 0.53109 0.46609 0.54067 0.0
O133 O 0.50351 0.52787 0.58576 0.0
Cd134 Cd 0.48074 0.58709 0.59418 0.0
O135 O 0.47002 0.64714 0.57482 0.0
C136 C 0.49532 0.66648 0.55475 0.0
O137 O 0.52634 0.65005 0.54781 0.0
C138 C 0.51436 0.50369 0.60502 0.0
C139 C 0.52076 0.37454 0.5221 0.0
O140 O 0.55589 0.40115 0.53235 0.0
O141 O 0.4903 0.39151 0.51962 0.0
O142 O 0.02318 0.56051 0.92042 0.0
Cd143 Cd 0.01829 0.5724 0.86637 0.0
O144 O 0.05895 0.50909 0.92301 0.0
Cd145 Cd 0.04633 0.47489 0.87865 0.0
O146 O 0.99187 0.45277 0.8496 0.0
C147 C 0.96134 0.44969 0.86678 0.0
O148 O 0.96823 0.45374 0.89602 0.0
C149 C 0.04298 0.5386 0.93556 0.0
C150 C 0.09343 0.56887 0.84376 0.0
O151 O 0.09062 0.60755 0.8555 0.0
O152 O 0.06026 0.53435 0.8401 0.0
O153 O 0.04214 0.49876 0.41142 0.0
Cd154 Cd 0.03868 0.51368 0.46565 0.0
O155 O 0.98646 0.52016 0.40179 0.0
Cd156 Cd 0.96536 0.5191 0.44803 0.0
O157 O 0.91746 0.47012 0.47319 0.0
C158 C 0.92524 0.43224 0.47826 0.0
O159 O 0.96182 0.42828 0.47081 0.0
C160 C 0.0172 0.50723 0.39257 0.0
C161 C 0.09888 0.59813 0.48221 0.0
O162 O 0.10734 0.55922 0.48237 0.0
O163 O 0.06171 0.59692 0.47484 0.0
O164 O 0.51455 0.97364 0.75343 0.0
Cd165 Cd 0.51976 0.96393 0.80771 0.0
O166 O 0.49616 0.03836 0.75743 0.0
Cd167 Cd 0.50057 0.05395 0.8058 0.0
O168 O 0.50065 0.11962 0.82922 0.0
C169 C 0.52813 0.15639 0.82131 0.0
O170 O 0.55645 0.15206 0.80208 0.0
C171 C 0.50377 0.00599 0.74126 0.0
C172 C 0.52904 0.87674 0.82076 0.0
O173 O 0.49289 0.88207 0.81765 0.0
O174 O 0.56089 0.91255 0.81763 0.0
O175 O 0.57912 0.5116 0.08142 0.0
Cd176 Cd 0.62592 0.51856 0.12777 0.0
O177 O 0.51524 0.51544 0.09167 0.0
Cd178 Cd 0.44679 0.51554 0.09313 0.0
O179 O 0.38398 0.52274 0.10982 0.0
C180 C 0.34773 0.49307 0.10531 0.0
O181 O 0.34486 0.45451 0.08908 0.0
C182 C 0.54254 0.51111 0.07242 0.0
C183 C 0.71337 0.52439 0.12748 0.0
O184 O 0.68481 0.4848 0.12746 0.0
O185 O 0.7011 0.56084 0.12601 0.0
H186 H 0.19699 0.55384 0.16515 0.0
H187 H 0.12817 0.41731 0.12743 0.0
H188 H 0.19209 0.4064 0.10746 0.0
H189 H 0.26759 0.43474 0.10021 0.0
H190 H 0.33901 0.5688 0.13993 0.0
H191 H 0.2749 0.58093 0.15988 0.0
C192 C 0.19614 0.52154 0.15283 0.0
C193 C 0.15745 0.48618 0.1482 0.0
C194 C 0.23377 0.51486 0.14176 0.0
C195 C 0.15723 0.44474 0.13197 0.0
C196 C 0.19392 0.43854 0.12031 0.0
C197 C 0.26944 0.46674 0.11324 0.0
C198 C 0.30864 0.50093 0.11816 0.0
C199 C 0.23241 0.47322 0.12503 0.0
C200 C 0.30965 0.54188 0.13539 0.0
C201 C 0.27279 0.54885 0.14689 0.0
H202 H 0.806 0.23319 0.50453 0.0
H203 H 0.71259 0.30325 0.49305 0.0
H204 H 0.76731 0.37763 0.48783 0.0
H205 H 0.84189 0.4214 0.48323 0.0
H206 H 0.93418 0.34957 0.49454 0.0
H207 H 0.87955 0.27748 0.50395 0.0
C208 C 0.79745 0.26484 0.50158 0.0
C209 C 0.75521 0.26253 0.49917 0.0
C210 C 0.82892 0.30722 0.49853 0.0
C211 C 0.74488 0.30388 0.49463 0.0
C212 C 0.77615 0.34646 0.49177 0.0
C213 C 0.85006 0.39015 0.48822 0.0
C214 C 0.89211 0.39085 0.48799 0.0
C215 C 0.81833 0.34838 0.49318 0.0
C216 C 0.90212 0.35001 0.49441 0.0
C217 C 0.87088 0.30867 0.49973 0.0
H218 H 0.57863 0.69438 0.84688 0.0
H219 H 0.44557 0.63223 0.8363 0.0
H220 H 0.43727 0.7092 0.82936 0.0
H221 H 0.46787 0.79367 0.82399 0.0
H222 H 0.6011 0.85585 0.83271 0.0
H223 H 0.60917 0.77952 0.84264 0.0
C224 C 0.54777 0.69776 0.84344 0.0
C225 C 0.51278 0.65753 0.84216 0.0
C226 C 0.54324 0.74214 0.83886 0.0
C227 C 0.47306 0.66253 0.83733 0.0
C228 C 0.46827 0.70657 0.8333 0.0
C229 C 0.49869 0.79063 0.82818 0.0
C230 C 0.53381 0.83052 0.82751 0.0
C231 C 0.50316 0.74653 0.83361 0.0
C232 C 0.5735 0.82578 0.83297 0.0
C233 C 0.57816 0.7821 0.8387 0.0
H234 H 0.91141 0.5753 0.14277 0.0
H235 H 0.87874 0.42554 0.15002 0.0
H236 H 0.80547 0.41851 0.14258 0.0
H237 H 0.74938 0.45413 0.13429 0.0
H238 H 0.78068 0.6038 0.12817 0.0
H239 H 0.8546 0.61126 0.13486 0.0
C240 C 0.88832 0.54112 0.14266 0.0
C241 C 0.90128 0.50109 0.14696 0.0
C242 C 0.84542 0.5371 0.13853 0.0
C243 C 0.87035 0.4572 0.14689 0.0
C244 C 0.82808 0.453 0.14256 0.0
C245 C 0.7723 0.48843 0.13422 0.0
C246 C 0.75895 0.52826 0.13043 0.0
C247 C 0.8151 0.49261 0.13836 0.0
C248 C 0.78958 0.57234 0.13076 0.0
C249 C 0.83211 0.5767 0.13468 0.0
H250 H 0.21706 0.80508 0.50336 0.0
H251 H 0.30811 0.73193 0.5153 0.0
H252 H 0.25374 0.65686 0.50789 0.0
H253 H 0.18067 0.61208 0.49649 0.0
H254 H 0.09019 0.68578 0.48348 0.0
H255 H 0.14416 0.76053 0.49255 0.0
C256 C 0.22513 0.77274 0.50405 0.0
C257 C 0.26668 0.77422 0.50971 0.0
C258 C 0.19382 0.72977 0.49955 0.0
C259 C 0.27635 0.73187 0.51121 0.0
C260 C 0.24531 0.68892 0.50683 0.0
C261 C 0.17269 0.64447 0.49577 0.0
C262 C 0.1314 0.64325 0.48925 0.0
C263 C 0.20397 0.68745 0.50083 0.0
C264 C 0.12167 0.68562 0.48843 0.0
C265 C 0.15254 0.72843 0.49357 0.0
H266 H 0.48107 0.34109 0.85368 0.0
H267 H 0.60402 0.40336 0.81917 0.0
H268 H 0.61354 0.32604 0.81195 0.0
H269 H 0.58562 0.24048 0.81311 0.0
H270 H 0.46361 0.17811 0.84922 0.0
H271 H 0.45534 0.25569 0.85855 0.0
C272 C 0.51003 0.33769 0.84477 0.0
C273 C 0.54168 0.37786 0.83685 0.0
C274 C 0.51551 0.29312 0.84101 0.0
C275 C 0.57923 0.37302 0.8256 0.0
C276 C 0.58465 0.32879 0.82135 0.0
C277 C 0.55736 0.24384 0.82329 0.0
C278 C 0.52517 0.20347 0.83023 0.0
C279 C 0.55283 0.28856 0.82867 0.0
C280 C 0.4889 0.20855 0.84363 0.0
C281 C 0.48404 0.25292 0.84886 0.0
H282 H 0.45447 0.84592 0.51622 0.0
H283 H 0.58461 0.88611 0.49322 0.0
H284 H 0.58743 0.80771 0.50382 0.0
H285 H 0.55496 0.73158 0.52588 0.0
H286 H 0.42618 0.69507 0.5522 0.0
H287 H 0.42078 0.76852 0.53395 0.0
C288 C 0.48343 0.83752 0.51316 0.0
C289 C 0.51947 0.87195 0.50446 0.0
C290 C 0.48514 0.79325 0.52025 0.0
C291 C 0.55648 0.86021 0.50008 0.0
C292 C 0.55816 0.81553 0.50632 0.0
C293 C 0.5256 0.7395 0.52724 0.0
C294 C 0.49119 0.70843 0.54076 0.0
C295 C 0.52303 0.78235 0.51742 0.0
C296 C 0.45328 0.71889 0.54232 0.0
C297 C 0.45013 0.76076 0.53184 0.0
H298 H 0.79832 0.45996 0.80018 0.0
H299 H 0.79432 0.54164 0.88172 0.0
H300 H 0.8577 0.5286 0.9005 0.0
H301 H 0.91337 0.49426 0.89417 0.0
H302 H 0.92269 0.41597 0.81231 0.0
H303 H 0.85778 0.4269 0.79302 0.0
C304 C 0.8117 0.47474 0.82194 0.0
C305 C 0.79223 0.5015 0.83979 0.0
C306 C 0.84853 0.4674 0.83252 0.0
C307 C 0.80928 0.5209 0.86788 0.0
C308 C 0.84527 0.5134 0.8786 0.0
C309 C 0.90096 0.47901 0.87225 0.0
C310 C 0.92197 0.4536 0.85486 0.0
C311 C 0.86491 0.48654 0.86124 0.0
C312 C 0.90646 0.4353 0.82612 0.0
C313 C 0.86957 0.44166 0.81513 0.0
H314 H 0.24103 0.82134 0.16164 0.0
H315 H 0.28391 0.70156 0.17453 0.0
H316 H 0.35526 0.75314 0.18236 0.0
H317 H 0.40472 0.8329 0.1885 0.0
H318 H 0.36019 0.95206 0.1771 0.0
H319 H 0.29028 0.90006 0.16593 0.0
C320 C 0.26592 0.80647 0.16633 0.0
C321 C 0.25701 0.75769 0.16777 0.0
C322 C 0.30663 0.83627 0.17115 0.0
C323 C 0.28988 0.73897 0.17315 0.0
C324 C 0.33067 0.76848 0.17779 0.0
C325 C 0.37983 0.84746 0.18322 0.0
C326 C 0.38774 0.8964 0.18375 0.0
C327 C 0.33934 0.81727 0.17718 0.0
C328 C 0.35503 0.91462 0.17697 0.0
C329 C 0.31496 0.88489 0.17062 0.0
H330 H 0.49234 0.16364 0.48043 0.0
H331 H 0.53283 0.15994 0.57195 0.0
H332 H 0.53977 0.24326 0.5804 0.0
H333 H 0.53653 0.31723 0.56111 0.0
H334 H 0.49069 0.32083 0.47108 0.0
H335 H 0.48353 0.23718 0.46227 0.0
C336 C 0.50242 0.18137 0.50217 0.0
C337 C 0.51245 0.15668 0.52557 0.0
C338 C 0.50556 0.22887 0.50691 0.0
C339 C 0.52517 0.17899 0.55379 0.0
C340 C 0.52918 0.22637 0.55854 0.0
C341 C 0.52498 0.29948 0.5396 0.0
C342 C 0.51471 0.32454 0.51657 0.0
C343 C 0.51991 0.25167 0.53518 0.0
C344 C 0.49892 0.30168 0.48895 0.0
C345 C 0.49489 0.25412 0.48398 0.0
H346 H 0.25275 0.50307 0.84214 0.0
H347 H 0.30222 0.62833 0.79372 0.0
H348 H 0.23629 0.64746 0.80003 0.0
H349 H 0.16317 0.6256 0.81822 0.0
H350 H 0.11455 0.49498 0.86178 0.0
H351 H 0.18148 0.48079 0.85883 0.0
C352 C 0.249 0.53474 0.83324 0.0
C353 C 0.28157 0.56458 0.81782 0.0
C354 C 0.21116 0.54421 0.83598 0.0
C355 C 0.27703 0.60527 0.80588 0.0
C356 C 0.2395 0.61597 0.8094 0.0
C357 C 0.16749 0.59406 0.82681 0.0
C358 C 0.13401 0.56108 0.83987 0.0
C359 C 0.20609 0.58527 0.82414 0.0
C360 C 0.13961 0.52039 0.85114 0.0
C361 C 0.17798 0.51233 0.84965 0.0
H362 H 0.77552 0.28592 0.17104 0.0
H363 H 0.83032 0.17321 0.17467 0.0
H364 H 0.76161 0.11719 0.17976 0.0
H365 H 0.6864 0.10028 0.18585 0.0
H366 H 0.63098 0.21252 0.18364 0.0
H367 H 0.69939 0.26846 0.17564 0.0
C368 C 0.77245 0.24914 0.17307 0.0
C369 C 0.80824 0.23398 0.17246 0.0
C370 C 0.7327 0.21693 0.17644 0.0
C371 C 0.80345 0.18597 0.17462 0.0
C372 C 0.76412 0.15383 0.17779 0.0
C373 C 0.68919 0.13694 0.18349 0.0
C374 C 0.65359 0.15214 0.18553 0.0
C375 C 0.7286 0.16895 0.17906 0.0
C376 C 0.65785 0.19979 0.18224 0.0
C377 C 0.697 0.23187 0.17771 0.0
H378 H 1.00311 0.5327 0.07295 0.0
H379 H 0.10217 0.46891 0.07209 0.0
H380 H 0.11692 0.48907 0.01992 0.0
H381 H 0.09518 0.51434 0.9731 0.0
H382 H 0.99305 0.57344 0.97228 0.0
H383 H 0.98636 0.56641 0.0267 0.0
C384 C 0.02825 0.5239 0.06134 0.0
C385 C 0.05098 0.49853 0.07579 0.0
C386 C 0.03572 0.53439 0.0311 0.0
C387 C 0.08375 0.48756 0.06094 0.0
C388 C 0.09223 0.49914 0.03123 0.0
C389 C 0.0718 0.52629 0.98487 0.0
C390 C 0.04413 0.54346 0.96868 0.0
C391 C 0.06736 0.52086 0.0158 0.0
C392 C 0.01458 0.55977 0.98427 0.0
C393 C 1.01055 0.55549 0.01534 0.0
H394 H 0.49261 0.07868 0.41485 0.0
H395 H 0.51601 0.94673 0.42652 0.0
H396 H 0.52942 0.93982 0.37301 0.0
H397 H 0.53288 0.96998 0.32283 0.0
H398 H 0.51305 0.10367 0.31041 0.0
H399 H 0.50094 0.11179 0.36427 0.0
C400 C 0.50063 0.04854 0.4055 0.0
C401 C 0.50295 0.01306 0.42436 0.0
C402 C 0.50933 0.0453 0.3747 0.0
C403 C 0.51404 0.97446 0.41233 0.0
C404 C 0.52171 0.97046 0.38176 0.0
C405 C 0.52615 0.00108 0.33185 0.0
C406 C 0.52347 0.03589 0.31252 0.0
C407 C 0.51929 0.00554 0.36273 0.0
C408 C 0.51518 0.0762 0.32475 0.0
C409 C 0.50803 0.08079 0.35555 0.0
H410 H 0.54702 0.58702 0.73834 0.0
H411 H 0.50372 0.44029 0.7565 0.0
H412 H 0.49008 0.4201 0.70282 0.0
H413 H 0.49539 0.44402 0.65034 0.0
H414 H 0.53654 0.59079 0.63235 0.0
H415 H 0.54576 0.61123 0.68625 0.0
C416 C 0.53429 0.55068 0.73051 0.0
C417 C 0.52696 0.51515 0.7512 0.0
C418 C 0.5262 0.53938 0.69966 0.0
C419 C 0.5099 0.46823 0.74091 0.0
C420 C 0.50218 0.45666 0.71024 0.0
C421 C 0.50588 0.48045 0.65834 0.0
C422 C 0.51511 0.51587 0.63753 0.0
C423 C 0.51097 0.49189 0.68936 0.0
C424 C 0.52852 0.56296 0.64801 0.0
C425 C 0.53419 0.57464 0.67881 0.0
H426 H 0.49993 0.05254 0.60432 0.0
H427 H 0.5536 0.93905 0.59531 0.0
H428 H 0.54488 0.92587 0.64893 0.0
H429 H 0.5272 0.95049 0.69906 0.0
H430 H 0.47647 0.06648 0.7087 0.0
H431 H 0.47882 0.07469 0.65446 0.0
C432 C 0.50915 0.02461 0.61413 0.0
C433 C 0.52761 0.99702 0.59608 0.0
C434 C 0.50499 0.01793 0.64519 0.0
C435 C 0.53967 0.96103 0.60894 0.0
C436 C 0.53472 0.95346 0.63958 0.0
C437 C 0.51625 0.97725 0.6893 0.0
C438 C 0.50195 0.00793 0.70805 0.0
C439 C 0.51826 0.98234 0.65806 0.0
C440 C 0.48789 0.04246 0.6949 0.0
C441 C 0.4892 0.04725 0.66382 0.0
H442 H 0.54413 0.48072 0.93069 0.0
H443 H 0.46043 0.56452 0.935 0.0
H444 H 0.46523 0.56912 0.99015 0.0
H445 H 0.49284 0.54807 0.03772 0.0
H446 H 0.57419 0.46107 0.03244 0.0
H447 H 0.5697 0.45771 0.97775 0.0
C448 C 0.52756 0.5006 0.94379 0.0
C449 C 0.50276 0.5232 0.9289 0.0
C450 C 0.52925 0.50156 0.97553 0.0
C451 C 0.48028 0.54751 0.94607 0.0
C452 C 0.48274 0.54979 0.9776 0.0
C453 C 0.50905 0.5279 0.02457 0.0
C454 C 0.53388 0.50495 0.03934 0.0
C455 C 0.5068 0.52652 0.99271 0.0
C456 C 0.55503 0.47934 0.02179 0.0
C457 C 0.55268 0.47752 0.9904 0.0
H458 H 0.07283 0.4981 0.25727 0.0
H459 H 0.94973 0.50987 0.24292 0.0
H460 H 0.93634 0.50446 0.29667 0.0
H461 H 0.96198 0.50488 0.34788 0.0
H462 H 0.08608 0.49675 0.36373 0.0
H463 H 0.09689 0.49244 0.30941 0.0
C464 C 0.04284 0.49835 0.26599 0.0
C465 C 0.01224 0.50439 0.2464 0.0
C466 C 0.03589 0.4969 0.29719 0.0
C467 C 0.97367 0.50536 0.25777 0.0
C468 C 0.9661 0.50253 0.28846 0.0
C469 C 0.9914 0.50203 0.33952 0.0
C470 C 0.02338 0.50188 0.35983 0.0
C471 C 0.99743 0.49985 0.30844 0.0
C472 C 0.06103 0.49732 0.34856 0.0
C473 C 0.06723 0.49482 0.31749 0.0
loop_
_geom_bond_atom_site_label_1
_geom_bond_atom_site_label_2
_geom_bond_distance
_geom_bond_site_symmetry_2
_ccdc_geom_bond_type
Nd0 C2 2.836 . S
Nd0 O20 2.500 . S
Nd0 O21 2.492 . S
Nd0 O22 2.487 . S
Nd0 O23 2.682 . S
Nd0 O24 2.410 . S
Nd0 O29 2.414 . S
Nd0 O31 2.424 1_455 S
Nd1 C11 2.836 . S
Nd1 O23 2.414 1_655 S
Nd1 O25 2.424 1_655 S
Nd1 O26 2.500 . S
Nd1 O27 2.492 . S
Nd1 O28 2.487 . S
Nd1 O29 2.682 1_655 S
Nd1 O30 2.410 . S
C2 Nd0 2.836 . S
C2 C3 1.498 . S
C2 O20 1.258 . S
C2 O21 1.239 . S
C3 C2 1.498 . S
C3 C4 1.366 . S
C3 C8 1.407 . S
C4 C3 1.366 . S
C4 C5 1.392 . S
C4 H32 0.930 . S
C5 C4 1.392 . S
C5 C6 1.398 . S
C5 H33 0.929 . S
C6 C5 1.398 . S
C6 C7 1.352 . S
C7 C6 1.352 . S
C7 C8 1.384 . S
C7 H34 0.930 . S
C8 C3 1.407 . S
C8 C7 1.384 . S
C8 H35 0.929 . S
C9 O22 1.241 . S
C9 O23 1.273 . S
C10 O24 1.251 . S
C10 O25 1.268 . S
C11 Nd1 2.836 . S
C11 C12 1.498 . S
C11 O26 1.258 . S
C11 O27 1.239 . S
C12 C11 1.498 . S
C12 C13 1.366 . S
C12 C17 1.407 . S
C13 C12 1.366 . S
C13 C14 1.392 . S
C13 H36 0.930 . S
C14 C13 1.392 . S
C14 C15 1.398 . S
C14 H37 0.929 . S
C15 C14 1.398 . S
C15 C16 1.352 . S
C16 C15 1.352 . S
C16 C17 1.384 . S
C16 H38 0.930 . S
C17 C12 1.407 . S
C17 C16 1.384 . S
C17 H39 0.929 . S
C18 O28 1.241 1_455 S
C18 O29 1.273 . S
C19 O30 1.251 . S
C19 O31 1.268 . S
O20 Nd0 2.500 . S
O20 C2 1.258 . S
O21 Nd0 2.492 . S
O21 C2 1.239 . S
O22 Nd0 2.487 . S
O22 C9 1.241 . S
O23 Nd0 2.682 . S
O23 Nd1 2.414 1_455 S
O23 C9 1.273 . S
O24 Nd0 2.410 . S
O24 C10 1.251 . S
O25 Nd1 2.424 1_455 S
O25 C10 1.268 . S
O26 Nd1 2.500 . S
O26 C11 1.258 . S
O27 Nd1 2.492 . S
O27 C11 1.239 . S
O28 Nd1 2.487 . S
O28 C18 1.241 1_655 S
O29 Nd0 2.414 . S
O29 Nd1 2.682 1_455 S
O29 C18 1.273 . S
O30 Nd1 2.410 . S
O30 C19 1.251 . S
O31 Nd0 2.424 1_655 S
O31 C19 1.268 . S
H32 C4 0.930 . S
H33 C5 0.929 . S
H34 C7 0.930 . S
H35 C8 0.929 . S
H36 C13 0.930 . S
H37 C14 0.929 . S
H38 C16 0.930 . S
H39 C17 0.929 . S
Nd40 C42 2.842 . S
Nd40 O60 2.505 . S
Nd40 O61 2.496 . S
Nd40 O62 2.487 . S
Nd40 O63 2.681 1_565 S
Nd40 O64 2.417 . S
Nd40 O69 2.415 1_565 S
Nd40 O71 2.416 1_565 S
Nd41 C51 2.836 . S
Nd41 O63 2.414 . S
Nd41 O65 2.424 1_545 S
Nd41 O66 2.500 . S
Nd41 O67 2.492 . S
Nd41 O68 2.487 . S
Nd41 O69 2.682 . S
Nd41 O70 2.410 . S
C42 Nd40 2.842 . S
C42 C43 1.498 . S
C42 O60 1.258 . S
C42 O61 1.239 . S
C43 C42 1.498 . S
C43 C44 1.366 . S
C43 C48 1.407 . S
C44 C43 1.366 . S
C44 C45 1.392 . S
C44 H72 0.930 . S
C45 C44 1.392 . S
C45 C46 1.398 . S
C45 H73 0.929 . S
C46 C45 1.398 . S
C46 C47 1.352 . S
C47 C46 1.352 . S
C47 C48 1.384 . S
C47 H74 0.930 . S
C48 C43 1.407 . S
C48 C47 1.384 . S
C48 H75 0.929 . S
C49 O62 1.241 1_545 S
C49 O63 1.273 . S
C50 O64 1.251 . S
C50 O65 1.268 . S
C51 Nd41 2.836 . S
C51 C52 1.498 . S
C51 O66 1.258 . S
C51 O67 1.239 . S
C52 C51 1.498 . S
C52 C53 1.366 . S
C52 C57 1.407 . S
C53 C52 1.366 . S
C53 C54 1.392 . S
C53 H76 0.930 . S
C54 C53 1.392 . S
C54 C55 1.398 . S
C54 H77 0.929 . S
C55 C54 1.398 . S
C55 C56 1.352 . S
C56 C55 1.352 . S
C56 C57 1.384 . S
C56 H78 0.930 . S
C57 C52 1.407 . S
C57 C56 1.384 . S
C57 H79 0.929 . S
C58 O68 1.241 . S
C58 O69 1.273 . S
C59 O70 1.251 . S
C59 O71 1.268 . S
O60 Nd40 2.505 . S
O60 C42 1.258 . S
O61 Nd40 2.496 . S
O61 C42 1.239 . S
O62 Nd40 2.487 . S
O62 C49 1.241 1_565 S
O63 Nd40 2.681 1_545 S
O63 Nd41 2.414 . S
O63 C49 1.273 . S
O64 Nd40 2.417 . S
O64 C50 1.251 . S
O65 Nd41 2.424 1_565 S
O65 C50 1.268 . S
O66 Nd41 2.500 . S
O66 C51 1.258 . S
O67 Nd41 2.492 . S
O67 C51 1.239 . S
O68 Nd41 2.487 . S
O68 C58 1.241 . S
O69 Nd40 2.415 1_545 S
O69 Nd41 2.682 . S
O69 C58 1.273 . S
O70 Nd41 2.410 . S
O70 C59 1.251 . S
O71 Nd40 2.416 1_545 S
O71 C59 1.268 . S
H72 C44 0.930 . S
H73 C45 0.929 . S
H74 C47 0.930 . S
H75 C48 0.929 . S
H76 C53 0.930 . S
H77 C54 0.929 . S
H78 C56 0.930 . S
H79 C57 0.929 . S
Nd80 C82 2.836 . S
Nd80 O100 2.500 . S
Nd80 O101 2.492 . S
Nd80 O102 2.487 . S
Nd80 O103 2.682 . S
Nd80 O104 2.410 . S
Nd80 O109 2.414 . S
Nd80 O111 2.424 . S
Nd81 C91 2.836 . S
Nd81 O103 2.414 . S
Nd81 O105 2.424 . S
Nd81 O106 2.500 . S
Nd81 O107 2.492 . S
Nd81 O108 2.487 . S
Nd81 O109 2.682 . S
Nd81 O110 2.410 . S
C82 Nd80 2.836 . S
C82 C83 1.498 . S
C82 O100 1.258 . S
C82 O101 1.239 . S
C83 C82 1.498 . S
C83 C84 1.366 . S
C83 C88 1.407 . S
C84 C83 1.366 . S
C84 C85 1.392 . S
C84 H112 0.930 . S
C85 C84 1.392 . S
C85 C86 1.398 . S
C85 H113 0.929 . S
C86 C85 1.398 . S
C86 C87 1.352 . S
C87 C86 1.352 . S
C87 C88 1.384 . S
C87 H114 0.930 . S
C88 C83 1.407 . S
C88 C87 1.384 . S
C88 H115 0.929 . S
C89 O102 1.241 . S
C89 O103 1.273 . S
C90 O104 1.251 . S
C90 O105 1.268 . S
C91 Nd81 2.836 . S
C91 C92 1.498 . S
C91 O106 1.258 . S
C91 O107 1.239 . S
C92 C91 1.498 . S
C92 C93 1.366 . S
C92 C97 1.407 . S
C93 C92 1.366 . S
C93 C94 1.392 . S
C93 H116 0.930 . S
C94 C93 1.392 . S
C94 C95 1.398 . S
C94 H117 0.929 . S
C95 C94 1.398 . S
C95 C96 1.352 . S
C96 C95 1.352 . S
C96 C97 1.384 . S
C96 H118 0.930 . S
C97 C92 1.407 . S
C97 C96 1.384 . S
C97 H119 0.929 . S
C98 O108 1.241 . S
C98 O109 1.273 . S
C99 O110 1.251 . S
C99 O111 1.268 . S
O100 Nd80 2.500 . S
O100 C82 1.258 . S
O101 Nd80 2.492 . S
O101 C82 1.239 . S
O102 Nd80 2.487 . S
O102 C89 1.241 . S
O103 Nd80 2.682 . S
O103 Nd81 2.414 . S
O103 C89 1.273 . S
O104 Nd80 2.410 . S
O104 C90 1.251 . S
O105 Nd81 2.424 . S
O105 C90 1.268 . S
O106 Nd81 2.500 . S
O106 C91 1.258 . S
O107 Nd81 2.492 . S
O107 C91 1.239 . S
O108 Nd81 2.487 . S
O108 C98 1.241 . S
O109 Nd80 2.414 . S
O109 Nd81 2.682 . S
O109 C98 1.273 . S
O110 Nd81 2.410 . S
O110 C99 1.251 . S
O111 Nd80 2.424 . S
O111 C99 1.268 . S
H112 C84 0.930 . S
H113 C85 0.929 . S
H114 C87 0.930 . S
H115 C88 0.929 . S
H116 C93 0.930 . S
H117 C94 0.929 . S
H118 C96 0.930 . S
H119 C97 0.929 . S
O120 Cd121 2.300 . S
O120 C127 1.275 . S
Cd121 O120 2.300 . S
Cd121 O129 2.381 . S
Cd121 O130 2.378 . S
O122 Cd123 2.385 . S
O122 C127 1.255 1_565 S
Cd123 O122 2.385 . S
Cd123 O124 2.317 . S
O124 Cd123 2.317 . S
O124 C125 1.232 . S
C125 O124 1.232 . S
C125 O126 1.218 . S
O126 C125 1.218 . S
C127 O120 1.275 . S
C127 O122 1.255 1_545 S
C128 O129 1.258 . S
C128 O130 1.256 . S
O129 Cd121 2.381 . S
O129 C128 1.258 . S
O130 Cd121 2.378 . S
O130 C128 1.256 . S
O131 Cd132 2.300 . S
O131 C138 1.275 . S
Cd132 O131 2.300 . S
Cd132 O140 2.381 . S
Cd132 O141 2.378 . S
O133 Cd134 2.385 . S
O133 C138 1.255 . S
Cd134 O133 2.385 . S
Cd134 O135 2.317 . S
O135 Cd134 2.317 . S
O135 C136 1.232 . S
C136 O135 1.232 . S
C136 O137 1.218 . S
O137 C136 1.218 . S
C138 O131 1.275 . S
C138 O133 1.255 . S
C139 O140 1.258 . S
C139 O141 1.256 . S
O140 Cd132 2.381 . S
O140 C139 1.258 . S
O141 Cd132 2.378 . S
O141 C139 1.256 . S
O142 Cd143 2.300 . S
O142 C149 1.275 . S
Cd143 O142 2.300 . S
Cd143 O151 2.381 . S
Cd143 O152 2.378 . S
O144 Cd145 2.385 1_455 S
O144 C149 1.255 . S
Cd145 O144 2.385 1_655 S
Cd145 O146 2.317 . S
O146 Cd145 2.317 . S
O146 C147 1.232 . S
C147 O146 1.232 . S
C147 O148 1.218 . S
O148 C147 1.218 . S
C149 O142 1.275 . S
C149 O144 1.255 . S
C150 O151 1.258 . S
C150 O152 1.256 . S
O151 Cd143 2.381 . S
O151 C150 1.258 . S
O152 Cd143 2.378 . S
O152 C150 1.256 . S
O153 Cd154 2.300 . S
O153 C160 1.275 1_455 S
Cd154 O153 2.300 . S
Cd154 O162 2.381 . S
Cd154 O163 2.378 . S
O155 Cd156 2.385 . S
O155 C160 1.255 . S
Cd156 O155 2.385 . S
Cd156 O157 2.317 . S
O157 Cd156 2.317 . S
O157 C158 1.232 . S
C158 O157 1.232 . S
C158 O159 1.218 . S
O159 C158 1.218 . S
C160 O153 1.275 1_655 S
C160 O155 1.255 . S
C161 O162 1.258 . S
C161 O163 1.256 . S
O162 Cd154 2.381 . S
O162 C161 1.258 . S
O163 Cd154 2.378 . S
O163 C161 1.256 . S
O164 Cd165 2.300 . S
O164 C171 1.275 1_565 S
Cd165 O164 2.300 . S
Cd165 O173 2.381 . S
Cd165 O174 2.378 . S
O166 Cd167 2.385 . S
O166 C171 1.255 . S
Cd167 O166 2.385 . S
Cd167 O168 2.317 . S
O168 Cd167 2.317 . S
O168 C169 1.232 . S
C169 O168 1.232 . S
C169 O170 1.218 . S
O170 C169 1.218 . S
C171 O164 1.275 1_545 S
C171 O166 1.255 . S
C172 O173 1.258 . S
C172 O174 1.256 . S
O173 Cd165 2.381 . S
O173 C172 1.258 . S
O174 Cd165 2.378 . S
O174 C172 1.256 . S
O175 Cd176 2.300 . S
O175 C182 1.275 . S
Cd176 O175 2.300 . S
Cd176 O184 2.381 . S
Cd176 O185 2.378 . S
O177 Cd178 2.385 . S
O177 C182 1.255 . S
Cd178 O177 2.385 . S
Cd178 O179 2.317 . S
O179 Cd178 2.317 . S
O179 C180 1.232 . S
C180 O179 1.232 . S
C180 O181 1.218 . S
O181 C180 1.218 . S
C182 O175 1.275 . S
C182 O177 1.255 . S
C183 O184 1.258 . S
C183 O185 1.256 . S
O184 Cd176 2.381 . S
O184 C183 1.258 . S
O185 Cd176 2.378 . S
O185 C183 1.256 . S
H186 C192 0.930 . S
H187 C195 0.930 . S
H188 C196 0.930 . S
H189 C197 0.930 . S
H190 C200 0.930 . S
H191 C201 0.930 . S
C192 H186 0.930 . S
C192 C193 1.355 . S
C192 C194 1.415 . S
C193 C192 1.355 . S
C193 C195 1.419 . S
C194 C192 1.415 . S
C194 C199 1.425 . S
C194 C201 1.409 . S
C195 H187 0.930 . S
C195 C193 1.419 . S
C195 C196 1.362 . S
C196 H188 0.930 . S
C196 C195 1.362 . S
C196 C199 1.409 . S
C197 H189 0.930 . S
C197 C198 1.355 . S
C197 C199 1.415 . S
C198 C197 1.355 . S
C198 C200 1.419 . S
C199 C194 1.425 . S
C199 C196 1.409 . S
C199 C197 1.415 . S
C200 H190 0.930 . S
C200 C198 1.419 . S
C200 C201 1.362 . S
C201 H191 0.930 . S
C201 C194 1.409 . S
C201 C200 1.362 . S
H202 C208 0.930 . S
H203 C211 0.930 . S
H204 C212 0.930 . S
H205 C213 0.930 . S
H206 C216 0.930 . S
H207 C217 0.930 . S
C208 H202 0.930 . S
C208 C209 1.355 . S
C208 C210 1.415 . S
C209 C208 1.355 . S
C209 C211 1.419 . S
C210 C208 1.415 . S
C210 C215 1.425 . S
C210 C217 1.409 . S
C211 H203 0.930 . S
C211 C209 1.419 . S
C211 C212 1.362 . S
C212 H204 0.930 . S
C212 C211 1.362 . S
C212 C215 1.409 . S
C213 H205 0.930 . S
C213 C214 1.355 . S
C213 C215 1.415 . S
C214 C213 1.355 . S
C214 C216 1.419 . S
C215 C210 1.425 . S
C215 C212 1.409 . S
C215 C213 1.415 . S
C216 H206 0.930 . S
C216 C214 1.419 . S
C216 C217 1.362 . S
C217 H207 0.930 . S
C217 C210 1.409 . S
C217 C216 1.362 . S
H218 C224 0.930 . S
H219 C227 0.930 . S
H220 C228 0.930 . S
H221 C229 0.930 . S
H222 C232 0.930 . S
H223 C233 0.930 . S
C224 H218 0.930 . S
C224 C225 1.355 . S
C224 C226 1.415 . S
C225 C224 1.355 . S
C225 C227 1.419 . S
C226 C224 1.415 . S
C226 C231 1.425 . S
C226 C233 1.409 . S
C227 H219 0.930 . S
C227 C225 1.419 . S
C227 C228 1.362 . S
C228 H220 0.930 . S
C228 C227 1.362 . S
C228 C231 1.409 . S
C229 H221 0.930 . S
C229 C230 1.355 . S
C229 C231 1.415 . S
C230 C229 1.355 . S
C230 C232 1.419 . S
C231 C226 1.425 . S
C231 C228 1.409 . S
C231 C229 1.415 . S
C232 H222 0.930 . S
C232 C230 1.419 . S
C232 C233 1.362 . S
C233 H223 0.930 . S
C233 C226 1.409 . S
C233 C232 1.362 . S
H234 C240 0.930 . S
H235 C243 0.930 . S
H236 C244 0.930 . S
H237 C245 0.930 . S
H238 C248 0.930 . S
H239 C249 0.930 . S
C240 H234 0.930 . S
C240 C241 1.355 . S
C240 C242 1.415 . S
C241 C240 1.355 . S
C241 C243 1.419 . S
C242 C240 1.415 . S
C242 C247 1.425 . S
C242 C249 1.409 . S
C243 H235 0.930 . S
C243 C241 1.419 . S
C243 C244 1.362 . S
C244 H236 0.930 . S
C244 C243 1.362 . S
C244 C247 1.409 . S
C245 H237 0.930 . S
C245 C246 1.355 . S
C245 C247 1.415 . S
C246 C245 1.355 . S
C246 C248 1.419 . S
C247 C242 1.425 . S
C247 C244 1.409 . S
C247 C245 1.415 . S
C248 H238 0.930 . S
C248 C246 1.419 . S
C248 C249 1.362 . S
C249 H239 0.930 . S
C249 C242 1.409 . S
C249 C248 1.362 . S
H250 C256 0.930 . S
H251 C259 0.930 . S
H252 C260 0.930 . S
H253 C261 0.930 . S
H254 C264 0.930 . S
H255 C265 0.930 . S
C256 H250 0.930 . S
C256 C257 1.355 . S
C256 C258 1.415 . S
C257 C256 1.355 . S
C257 C259 1.419 . S
C258 C256 1.415 . S
C258 C263 1.425 . S
C258 C265 1.409 . S
C259 H251 0.930 . S
C259 C257 1.419 . S
C259 C260 1.362 . S
C260 H252 0.930 . S
C260 C259 1.362 . S
C260 C263 1.409 . S
C261 H253 0.930 . S
C261 C262 1.355 . S
C261 C263 1.415 . S
C262 C261 1.355 . S
C262 C264 1.419 . S
C263 C258 1.425 . S
C263 C260 1.409 . S
C263 C261 1.415 . S
C264 H254 0.930 . S
C264 C262 1.419 . S
C264 C265 1.362 . S
C265 H255 0.930 . S
C265 C258 1.409 . S
C265 C264 1.362 . S
H266 C272 0.930 . S
H267 C275 0.930 . S
H268 C276 0.930 . S
H269 C277 0.930 . S
H270 C280 0.930 . S
H271 C281 0.930 . S
C272 H266 0.930 . S
C272 C273 1.355 . S
C272 C274 1.415 . S
C273 C272 1.355 . S
C273 C275 1.419 . S
C274 C272 1.415 . S
C274 C279 1.425 . S
C274 C281 1.409 . S
C275 H267 0.930 . S
C275 C273 1.419 . S
C275 C276 1.362 . S
C276 H268 0.930 . S
C276 C275 1.362 . S
C276 C279 1.409 . S
C277 H269 0.930 . S
C277 C278 1.355 . S
C277 C279 1.415 . S
C278 C277 1.355 . S
C278 C280 1.419 . S
C279 C274 1.425 . S
C279 C276 1.409 . S
C279 C277 1.415 . S
C280 H270 0.930 . S
C280 C278 1.419 . S
C280 C281 1.362 . S
C281 H271 0.930 . S
C281 C274 1.409 . S
C281 C280 1.362 . S
H282 C288 0.930 . S
H283 C291 0.930 . S
H284 C292 0.930 . S
H285 C293 0.930 . S
H286 C296 0.930 . S
H287 C297 0.930 . S
C288 H282 0.930 . S
C288 C289 1.355 . S
C288 C290 1.415 . S
C289 C288 1.355 . S
C289 C291 1.419 . S
C290 C288 1.415 . S
C290 C295 1.425 . S
C290 C297 1.409 . S
C291 H283 0.930 . S
C291 C289 1.419 . S
C291 C292 1.362 . S
C292 H284 0.930 . S
C292 C291 1.362 . S
C292 C295 1.409 . S
C293 H285 0.930 . S
C293 C294 1.355 . S
C293 C295 1.415 . S
C294 C293 1.355 . S
C294 C296 1.419 . S
C295 C290 1.425 . S
C295 C292 1.409 . S
C295 C293 1.415 . S
C296 H286 0.930 . S
C296 C294 1.419 . S
C296 C297 1.362 . S
C297 H287 0.930 . S
C297 C290 1.409 . S
C297 C296 1.362 . S
H298 C304 0.930 . S
H299 C307 0.930 . S
H300 C308 0.930 . S
H301 C309 0.930 . S
H302 C312 0.930 . S
H303 C313 0.930 . S
C304 H298 0.930 . S
C304 C305 1.355 . S
C304 C306 1.415 . S
C305 C304 1.355 . S
C305 C307 1.419 . S
C306 C304 1.415 . S
C306 C311 1.425 . S
C306 C313 1.409 . S
C307 H299 0.930 . S
C307 C305 1.419 . S
C307 C308 1.362 . S
C308 H300 0.930 . S
C308 C307 1.362 . S
C308 C311 1.409 . S
C309 H301 0.930 . S
C309 C310 1.355 . S
C309 C311 1.415 . S
C310 C309 1.355 . S
C310 C312 1.419 . S
C311 C306 1.425 . S
C311 C308 1.409 . S
C311 C309 1.415 . S
C312 H302 0.930 . S
C312 C310 1.419 . S
C312 C313 1.362 . S
C313 H303 0.930 . S
C313 C306 1.409 . S
C313 C312 1.362 . S
H314 C320 0.930 . S
H315 C323 0.930 . S
H316 C324 0.930 . S
H317 C325 0.930 . S
H318 C328 0.930 . S
H319 C329 0.930 . S
C320 H314 0.930 . S
C320 C321 1.355 . S
C320 C322 1.415 . S
C321 C320 1.355 . S
C321 C323 1.419 . S
C322 C320 1.415 . S
C322 C327 1.425 . S
C322 C329 1.409 . S
C323 H315 0.930 . S
C323 C321 1.419 . S
C323 C324 1.362 . S
C324 H316 0.930 . S
C324 C323 1.362 . S
C324 C327 1.409 . S
C325 H317 0.930 . S
C325 C326 1.355 . S
C325 C327 1.415 . S
C326 C325 1.355 . S
C326 C328 1.419 . S
C327 C322 1.425 . S
C327 C324 1.409 . S
C327 C325 1.415 . S
C328 H318 0.930 . S
C328 C326 1.419 . S
C328 C329 1.362 . S
C329 H319 0.930 . S
C329 C322 1.409 . S
C329 C328 1.362 . S
H330 C336 0.930 . S
H331 C339 0.930 . S
H332 C340 0.930 . S
H333 C341 0.930 . S
H334 C344 0.930 . S
H335 C345 0.930 . S
C336 H330 0.930 . S
C336 C337 1.355 . S
C336 C338 1.415 . S
C337 C336 1.355 . S
C337 C339 1.419 . S
C338 C336 1.415 . S
C338 C343 1.425 . S
C338 C345 1.409 . S
C339 H331 0.930 . S
C339 C337 1.419 . S
C339 C340 1.362 . S
C340 H332 0.930 . S
C340 C339 1.362 . S
C340 C343 1.409 . S
C341 H333 0.930 . S
C341 C342 1.355 . S
C341 C343 1.415 . S
C342 C341 1.355 . S
C342 C344 1.419 . S
C343 C338 1.425 . S
C343 C340 1.409 . S
C343 C341 1.415 . S
C344 H334 0.930 . S
C344 C342 1.419 . S
C344 C345 1.362 . S
C345 H335 0.930 . S
C345 C338 1.409 . S
C345 C344 1.362 . S
H346 C352 0.930 . S
H347 C355 0.930 . S
H348 C356 0.930 . S
H349 C357 0.930 . S
H350 C360 0.930 . S
H351 C361 0.930 . S
C352 H346 0.930 . S
C352 C353 1.355 . S
C352 C354 1.415 . S
C353 C352 1.355 . S
C353 C355 1.419 . S
C354 C352 1.415 . S
C354 C359 1.425 . S
C354 C361 1.409 . S
C355 H347 0.930 . S
C355 C353 1.419 . S
C355 C356 1.362 . S
C356 H348 0.930 . S
C356 C355 1.362 . S
C356 C359 1.409 . S
C357 H349 0.930 . S
C357 C358 1.355 . S
C357 C359 1.415 . S
C358 C357 1.355 . S
C358 C360 1.419 . S
C359 C354 1.425 . S
C359 C356 1.409 . S
C359 C357 1.415 . S
C360 H350 0.930 . S
C360 C358 1.419 . S
C360 C361 1.362 . S
C361 H351 0.930 . S
C361 C354 1.409 . S
C361 C360 1.362 . S
H362 C368 0.930 . S
H363 C371 0.930 . S
H364 C372 0.930 . S
H365 C373 0.930 . S
H366 C376 0.930 . S
H367 C377 0.930 . S
C368 H362 0.930 . S
C368 C369 1.355 . S
C368 C370 1.415 . S
C369 C368 1.355 . S
C369 C371 1.419 . S
C370 C368 1.415 . S
C370 C375 1.425 . S
C370 C377 1.409 . S
C371 H363 0.930 . S
C371 C369 1.419 . S
C371 C372 1.362 . S
C372 H364 0.930 . S
C372 C371 1.362 . S
C372 C375 1.409 . S
C373 H365 0.930 . S
C373 C374 1.355 . S
C373 C375 1.415 . S
C374 C373 1.355 . S
C374 C376 1.419 . S
C375 C370 1.425 . S
C375 C372 1.409 . S
C375 C373 1.415 . S
C376 H366 0.930 . S
C376 C374 1.419 . S
C376 C377 1.362 . S
C377 H367 0.930 . S
C377 C370 1.409 . S
C377 C376 1.362 . S
H378 C384 0.930 . S
H379 C387 0.930 . S
H380 C388 0.930 . S
H381 C389 0.930 . S
H382 C392 0.930 . S
H383 C393 0.930 . S
C384 H378 0.930 . S
C384 C385 1.355 1_655 S
C384 C386 1.415 1_655 S
C385 C384 1.355 1_455 S
C385 C387 1.419 . S
C386 C384 1.415 1_455 S
C386 C391 1.425 . S
C386 C393 1.409 1_455 S
C387 H379 0.930 . S
C387 C385 1.419 . S
C387 C388 1.362 . S
C388 H380 0.930 . S
C388 C387 1.362 . S
C388 C391 1.409 . S
C389 H381 0.930 . S
C389 C390 1.355 . S
C389 C391 1.415 1_556 S
C390 C389 1.355 . S
C390 C392 1.419 1_455 S
C391 C386 1.425 . S
C391 C388 1.409 . S
C391 C389 1.415 1_554 S
C392 H382 0.930 . S
C392 C390 1.419 1_655 S
C392 C393 1.362 1_556 S
C393 H383 0.930 . S
C393 C386 1.409 1_655 S
C393 C392 1.362 1_554 S
H394 C400 0.930 . S
H395 C403 0.930 . S
H396 C404 0.930 . S
H397 C405 0.930 . S
H398 C408 0.930 . S
H399 C409 0.930 . S
C400 H394 0.930 . S
C400 C401 1.355 . S
C400 C402 1.415 . S
C401 C400 1.355 . S
C401 C403 1.419 1_545 S
C402 C400 1.415 . S
C402 C407 1.425 . S
C402 C409 1.409 . S
C403 H395 0.930 . S
C403 C401 1.419 1_565 S
C403 C404 1.362 . S
C404 H396 0.930 . S
C404 C403 1.362 . S
C404 C407 1.410 1_565 S
C405 H397 0.930 . S
C405 C406 1.355 1_565 S
C405 C407 1.415 1_565 S
C406 C405 1.355 1_545 S
C406 C408 1.419 . S
C407 C402 1.425 . S
C407 C404 1.410 1_545 S
C407 C405 1.415 1_545 S
C408 H398 0.930 . S
C408 C406 1.419 . S
C408 C409 1.362 . S
C409 H399 0.930 . S
C409 C402 1.409 . S
C409 C408 1.362 . S
H410 C416 0.930 . S
H411 C419 0.930 . S
H412 C420 0.930 . S
H413 C421 0.930 . S
H414 C424 0.930 . S
H415 C425 0.930 . S
C416 H410 0.930 . S
C416 C417 1.355 . S
C416 C418 1.415 . S
C417 C416 1.355 . S
C417 C419 1.419 . S
C418 C416 1.415 . S
C418 C423 1.425 . S
C418 C425 1.409 . S
C419 H411 0.930 . S
C419 C417 1.419 . S
C419 C420 1.362 . S
C420 H412 0.930 . S
C420 C419 1.362 . S
C420 C423 1.409 . S
C421 H413 0.930 . S
C421 C422 1.355 . S
C421 C423 1.415 . S
C422 C421 1.355 . S
C422 C424 1.419 . S
C423 C418 1.425 . S
C423 C420 1.409 . S
C423 C421 1.415 . S
C424 H414 0.930 . S
C424 C422 1.419 . S
C424 C425 1.362 . S
C425 H415 0.930 . S
C425 C418 1.409 . S
C425 C424 1.362 . S
H426 C432 0.930 . S
H427 C435 0.930 . S
H428 C436 0.930 . S
H429 C437 0.930 . S
H430 C440 0.930 . S
H431 C441 0.930 . S
C432 H426 0.930 . S
C432 C433 1.355 . S
C432 C434 1.415 . S
C433 C432 1.355 . S
C433 C435 1.419 1_545 S
C434 C432 1.415 . S
C434 C439 1.417 1_545 S
C434 C441 1.409 . S
C435 H427 0.930 . S
C435 C433 1.419 1_565 S
C435 C436 1.362 . S
C436 H428 0.930 . S
C436 C435 1.362 . S
C436 C439 1.415 . S
C437 H429 0.930 . S
C437 C438 1.355 1_565 S
C437 C439 1.417 . S
C438 C437 1.355 1_545 S
C438 C440 1.419 . S
C439 C434 1.417 1_565 S
C439 C436 1.415 . S
C439 C437 1.417 . S
C440 H430 0.930 . S
C440 C438 1.419 . S
C440 C441 1.362 . S
C441 H431 0.930 . S
C441 C434 1.409 . S
C441 C440 1.362 . S
H442 C448 0.930 . S
H443 C451 0.930 . S
H444 C452 0.930 . S
H445 C453 0.930 . S
H446 C456 0.930 . S
H447 C457 0.930 . S
C448 H442 0.930 . S
C448 C449 1.355 . S
C448 C450 1.415 . S
C449 C448 1.355 . S
C449 C451 1.419 . S
C450 C448 1.415 . S
C450 C455 1.425 . S
C450 C457 1.409 . S
C451 H443 0.930 . S
C451 C449 1.419 . S
C451 C452 1.362 . S
C452 H444 0.930 . S
C452 C451 1.362 . S
C452 C455 1.409 . S
C453 H445 0.930 . S
C453 C454 1.355 . S
C453 C455 1.415 1_554 S
C454 C453 1.355 . S
C454 C456 1.419 . S
C455 C450 1.425 . S
C455 C452 1.409 . S
C455 C453 1.415 1_556 S
C456 H446 0.930 . S
C456 C454 1.419 . S
C456 C457 1.362 1_554 S
C457 H447 0.930 . S
C457 C450 1.409 . S
C457 C456 1.362 1_556 S
H458 C464 0.930 . S
H459 C467 0.930 . S
H460 C468 0.930 . S
H461 C469 0.930 . S
H462 C472 0.930 . S
H463 C473 0.930 . S
C464 H458 0.930 . S
C464 C465 1.355 . S
C464 C466 1.415 . S
C465 C464 1.355 . S
C465 C467 1.419 1_455 S
C466 C464 1.415 . S
C466 C471 1.425 1_455 S
C466 C473 1.409 . S
C467 H459 0.930 . S
C467 C465 1.419 1_655 S
C467 C468 1.362 . S
C468 H460 0.930 . S
C468 C467 1.362 . S
C468 C471 1.409 . S
C469 H461 0.930 . S
C469 C470 1.355 . S
C469 C471 1.415 . S
C470 C469 1.355 . S
C470 C472 1.419 1_655 S
C471 C466 1.425 1_655 S
C471 C468 1.409 . S
C471 C469 1.415 . S
C472 H462 0.930 . S
C472 C470 1.419 1_455 S
C472 C473 1.362 . S
C473 H463 0.930 . S
C473 C466 1.409 . S
C473 C472 1.362 . S
C193 C10 3.265 . S
C198 C180 2.920 . S
C209 C55 1.369 . S
C214 C158 1.233 . S
C225 C90 1.829 . S
C230 C172 1.766 . S
C241 C19 2.919 . S
C246 C183 2.836 . S
C262 C161 1.102 . S
C257 C46 1.152 . S
C278 C169 1.838 . S
C273 C99 2.129 . S
C289 C50 2.023 . S
C294 C136 1.702 . S
C305 C95 0.682 . S
C310 C147 0.697 . S
C321 C6 1.395 . S
C326 C125 1.277 . S
C342 C139 1.854 . S
C337 C59 1.897 . S
C358 C150 0.228 . S
C353 C86 0.572 . S
C369 C15 1.139 . S
C374 C128 1.159 . S
C390 C149 1.215 . S
C385 C18 1.233 . S
C401 C49 1.421 . S
C406 C127 1.414 . S
C417 C98 1.453 . S
C422 C138 1.416 . S
C438 C171 1.422 . S
C433 C58 1.371 . S
C454 C182 1.641 . S
C449 C89 1.636 . S
C465 C9 1.520 . S
C470 C160 1.451 . S
