# Generated by pormake.
# Topology ssb, (4,4)-cn, num edge types: 1
# Building blocks:
#     Node 0, Type 0, BuildingBlock: NAWXER_clean_sbu_0, # of connection points: 4
#     Node 1, Type 0, BuildingBlock: NAWXER_clean_sbu_0, # of connection points: 4
#     Node 2, Type 0, BuildingBlock: NAWXER_clean_sbu_0, # of connection points: 4
#     Node 3, Type 0, BuildingBlock: NAWXER_clean_sbu_0, # of connection points: 4
#     Node 4, Type 0, BuildingBlock: NAWXER_clean_sbu_0, # of connection points: 4
#     Node 5, Type 0, BuildingBlock: NAWXER_clean_sbu_0, # of connection points: 4
#     Node 6, Type 0, BuildingBlock: NAWXER_clean_sbu_0, # of connection points: 4
#     Node 7, Type 0, BuildingBlock: NAWXER_clean_sbu_0, # of connection points: 4
#     Node 8, Type 1, BuildingBlock: NAWXER_clean_sbu_0, # of connection points: 4
#     Node 9, Type 1, BuildingBlock: NAWXER_clean_sbu_0, # of connection points: 4
#     Node 10, Type 1, BuildingBlock: NAWXER_clean_sbu_0, # of connection points: 4
#     Node 11, Type 1, BuildingBlock: NAWXER_clean_sbu_0, # of connection points: 4
#     Node 12, Type 1, BuildingBlock: NAWXER_clean_sbu_0, # of connection points: 4
#     Node 13, Type 1, BuildingBlock: NAWXER_clean_sbu_0, # of connection points: 4
#     Node 14, Type 1, BuildingBlock: NAWXER_clean_sbu_0, # of connection points: 4
#     Node 15, Type 1, BuildingBlock: NAWXER_clean_sbu_0, # of connection points: 4
#     Edge 16, Type (0, 1), BuildingBlock: OJICUG_clean_linker_0, # of connection points: 2
#     Edge 17, Type (0, 1), BuildingBlock: OJICUG_clean_linker_0, # of connection points: 2
#     Edge 18, Type (0, 1), BuildingBlock: OJICUG_clean_linker_0, # of connection points: 2
#     Edge 19, Type (0, 1), BuildingBlock: OJICUG_clean_linker_0, # of connection points: 2
#     Edge 20, Type (0, 1), BuildingBlock: OJICUG_clean_linker_0, # of connection points: 2
#     Edge 21, Type (0, 1), BuildingBlock: OJICUG_clean_linker_0, # of connection points: 2
#     Edge 22, Type (0, 1), BuildingBlock: OJICUG_clean_linker_0, # of connection points: 2
#     Edge 23, Type (0, 1), BuildingBlock: OJICUG_clean_linker_0, # of connection points: 2
#     Edge 24, Type (0, 1), BuildingBlock: OJICUG_clean_linker_0, # of connection points: 2
#     Edge 25, Type (0, 1), BuildingBlock: OJICUG_clean_linker_0, # of connection points: 2
#     Edge 26, Type (0, 1), BuildingBlock: OJICUG_clean_linker_0, # of connection points: 2
#     Edge 27, Type (0, 1), BuildingBlock: OJICUG_clean_linker_0, # of connection points: 2
#     Edge 28, Type (0, 1), BuildingBlock: OJICUG_clean_linker_0, # of connection points: 2
#     Edge 29, Type (0, 1), BuildingBlock: OJICUG_clean_linker_0, # of connection points: 2
#     Edge 30, Type (0, 1), BuildingBlock: OJICUG_clean_linker_0, # of connection points: 2
#     Edge 31, Type (0, 1), BuildingBlock: OJICUG_clean_linker_0, # of connection points: 2
#     Edge 32, Type (0, 1), BuildingBlock: OJICUG_clean_linker_0, # of connection points: 2
#     Edge 33, Type (0, 1), BuildingBlock: OJICUG_clean_linker_0, # of connection points: 2
#     Edge 34, Type (0, 1), BuildingBlock: OJICUG_clean_linker_0, # of connection points: 2
#     Edge 35, Type (0, 1), BuildingBlock: OJICUG_clean_linker_0, # of connection points: 2
#     Edge 36, Type (0, 1), BuildingBlock: OJICUG_clean_linker_0, # of connection points: 2
#     Edge 37, Type (0, 1), BuildingBlock: OJICUG_clean_linker_0, # of connection points: 2
#     Edge 38, Type (0, 1), BuildingBlock: OJICUG_clean_linker_0, # of connection points: 2
#     Edge 39, Type (0, 1), BuildingBlock: OJICUG_clean_linker_0, # of connection points: 2
#     Edge 40, Type (0, 1), BuildingBlock: OJICUG_clean_linker_0, # of connection points: 2
#     Edge 41, Type (0, 1), BuildingBlock: OJICUG_clean_linker_0, # of connection points: 2
#     Edge 42, Type (0, 1), BuildingBlock: OJICUG_clean_linker_0, # of connection points: 2
#     Edge 43, Type (0, 1), BuildingBlock: OJICUG_clean_linker_0, # of connection points: 2
#     Edge 44, Type (0, 1), BuildingBlock: OJICUG_clean_linker_0, # of connection points: 2
#     Edge 45, Type (0, 1), BuildingBlock: OJICUG_clean_linker_0, # of connection points: 2
#     Edge 46, Type (0, 1), BuildingBlock: OJICUG_clean_linker_0, # of connection points: 2
#     Edge 47, Type (0, 1), BuildingBlock: OJICUG_clean_linker_0, # of connection points: 2
# Relax obj value: 0.002
# Max RMSD: 0.009
# Mean RMSD: 0.008
data_MOF--net-ssb--node1-NAWXER_clean_sbu_0--node2-NAWXER_clean_sbu_0--edge1-OJICUG_clean_linker_0
_symmetry_space_group_name_H-M    P1
_symmetry_Int_Tables_number       1
_symmetry_cell_setting            triclinic
loop_
_symmetry_equiv_pos_as_xyz
'x, y, z'
_cell_length_a     31.716234
_cell_length_b     31.782664
_cell_length_c     27.150986
_cell_angle_alpha  91.204143
_cell_angle_beta   91.416314
_cell_angle_gamma 89.59057
loop_
_atom_site_label
_atom_site_type_symbol
_atom_site_fract_x
_atom_site_fract_y
_atom_site_fract_z
_atom_type_partial_charge
C0 C 0.23914 0.28752 0.35321 0.0
C1 C 0.35863 0.2534 0.2454 0.0
O2 O 0.23151 0.26461 0.31499 0.0
Zn3 Zn 0.25932 0.23932 0.25234 0.0
O4 O 0.27566 0.30351 0.36024 0.0
Zn5 Zn 0.30249 0.27729 0.30145 0.0
O6 O 0.27538 0.31016 0.24319 0.0
O7 O 0.23144 0.27082 0.19824 0.0
O8 O 0.36212 0.27824 0.28293 0.0
O9 O 0.32258 0.23892 0.2322 0.0
O10 O 0.2538 0.17944 0.26759 0.0
O11 O 0.29811 0.21358 0.31813 0.0
C12 C 0.24971 0.30598 0.20653 0.0
C13 C 0.27999 0.1795 0.30419 0.0
C14 C 0.68224 0.28752 0.26181 0.0
C15 C 0.82016 0.31249 0.33843 0.0
O16 O 0.68945 0.31138 0.2993 0.0
Zn17 Zn 0.74941 0.29928 0.30278 0.0
O18 O 0.71198 0.26552 0.24288 0.0
Zn19 Zn 0.7789 0.25784 0.25025 0.0
O20 O 0.78596 0.19847 0.26473 0.0
O21 O 0.75279 0.23401 0.32313 0.0
O22 O 0.82128 0.28634 0.30199 0.0
O23 O 0.78517 0.32869 0.3508 0.0
O24 O 0.76334 0.32708 0.23463 0.0
O25 O 0.79465 0.28021 0.1866 0.0
C26 C 0.7678 0.19916 0.306 0.0
C27 C 0.77874 0.31678 0.19299 0.0
C28 C 0.78339 0.68201 0.20883 0.0
C29 C 0.73715 0.79263 0.32706 0.0
O30 O 0.7567 0.67818 0.24274 0.0
Zn31 Zn 0.76168 0.73395 0.27405 0.0
O32 O 0.80284 0.71698 0.20516 0.0
Zn33 Zn 0.80433 0.77764 0.24109 0.0
O34 O 0.86157 0.78074 0.27172 0.0
O35 O 0.8233 0.73309 0.30726 0.0
O36 O 0.76622 0.80322 0.29803 0.0
O37 O 0.72588 0.75422 0.32852 0.0
O38 O 0.73449 0.77291 0.21865 0.0
O39 O 0.7819 0.81495 0.18806 0.0
C40 C 0.85845 0.75224 0.30376 0.0
C41 C 0.74367 0.80281 0.19007 0.0
C42 C 0.21675 0.72868 0.20489 0.0
C43 C 0.25167 0.86411 0.28272 0.0
O44 O 0.20389 0.76453 0.19074 0.0
Zn45 Zn 0.23996 0.79897 0.23472 0.0
O46 O 0.24644 0.7266 0.23759 0.0
Zn47 Zn 0.28397 0.76792 0.28254 0.0
O48 O 0.26893 0.74961 0.34742 0.0
O49 O 0.21774 0.78129 0.30493 0.0
O50 O 0.27631 0.83418 0.29646 0.0
O51 O 0.22717 0.85868 0.24528 0.0
O52 O 0.30312 0.79368 0.20592 0.0
O53 O 0.34074 0.75893 0.26125 0.0
C54 C 0.2316 0.76462 0.34464 0.0
C55 C 0.33826 0.77668 0.21987 0.0
C56 C 0.36203 0.76415 0.80248 0.0
C57 C 0.24038 0.70543 0.70479 0.0
O58 O 0.32572 0.77866 0.81381 0.0
Zn59 Zn 0.26099 0.77162 0.79287 0.0
O60 O 0.3649 0.73638 0.76803 0.0
Zn61 Zn 0.30441 0.73338 0.75002 0.0
O62 O 0.29371 0.79502 0.72324 0.0
O63 O 0.2471 0.8278 0.76967 0.0
O64 O 0.27896 0.69682 0.69671 0.0
O65 O 0.23153 0.73236 0.7387 0.0
O66 O 0.23793 0.7483 0.85247 0.0
O67 O 0.28202 0.70513 0.81452 0.0
C68 C 0.27176 0.8279 0.73334 0.0
C69 C 0.25745 0.71313 0.85026 0.0
C70 C 0.23507 0.21113 0.73959 0.0
C71 C 0.20839 0.32808 0.85467 0.0
O72 O 0.2144 0.21042 0.77904 0.0
Zn73 Zn 0.22757 0.26699 0.80427 0.0
O74 O 0.25734 0.24357 0.73082 0.0
Zn75 Zn 0.26879 0.30469 0.76382 0.0
O76 O 0.32721 0.30804 0.78382 0.0
O77 O 0.29194 0.26744 0.83285 0.0
O78 O 0.23627 0.3362 0.82288 0.0
O79 O 0.19565 0.29045 0.85901 0.0
O80 O 0.19949 0.30517 0.74746 0.0
O81 O 0.24968 0.34054 0.71119 0.0
C82 C 0.32653 0.28532 0.82159 0.0
C83 C 0.21083 0.33226 0.71618 0.0
C84 C 0.7227 0.19533 0.68289 0.0
C85 C 0.78207 0.31331 0.78288 0.0
O86 O 0.7154 0.2342 0.67573 0.0
Zn87 Zn 0.75049 0.25677 0.73074 0.0
O88 O 0.74812 0.18469 0.71792 0.0
Zn89 Zn 0.78622 0.21184 0.77545 0.0
O90 O 0.75837 0.18997 0.83459 0.0
O91 O 0.71949 0.23577 0.79346 0.0
O92 O 0.79449 0.27673 0.79623 0.0
O93 O 0.75559 0.31657 0.74696 0.0
O94 O 0.81248 0.24532 0.70816 0.0
O95 O 0.84441 0.19779 0.75426 0.0
C96 C 0.72428 0.21126 0.82998 0.0
C97 C 0.84534 0.22363 0.71896 0.0
C98 C 0.84864 0.74787 0.73046 0.0
C99 C 0.72755 0.76791 0.83471 0.0
O100 O 0.81388 0.73546 0.70991 0.0
Zn101 Zn 0.74772 0.73628 0.72557 0.0
O102 O 0.84868 0.76489 0.77328 0.0
Zn103 Zn 0.78865 0.76272 0.78169 0.0
O104 O 0.77664 0.69647 0.78575 0.0
O105 O 0.73221 0.67718 0.72522 0.0
O106 O 0.76466 0.78147 0.84366 0.0
O107 O 0.71781 0.75291 0.79196 0.0
O108 O 0.72412 0.7739 0.67662 0.0
O109 O 0.76831 0.80673 0.7279 0.0
C110 C 0.75379 0.66834 0.76386 0.0
C111 C 0.7442 0.807 0.68943 0.0
C112 C 0.98197 0.26816 0.5934 0.0
C113 C 0.09162 0.29051 0.47326 0.0
O114 O 0.98458 0.30682 0.58078 0.0
Zn115 Zn 0.02015 0.34399 0.53021 0.0
O116 O 1.0054 0.24078 0.57284 0.0
Zn117 Zn 0.03386 0.27879 0.52958 0.0
O118 O 0.07037 0.31764 0.57971 0.0
O119 O 0.04848 0.3839 0.57349 0.0
O120 O 0.07781 0.25613 0.48947 0.0
O121 O 0.07258 0.32512 0.48421 0.0
O122 O 0.9774 0.36603 0.48633 0.0
O123 O 0.98559 0.29729 0.47785 0.0
C124 C 0.07327 0.35665 0.59207 0.0
C125 C 0.96681 0.3315 0.46553 0.0
C126 C 0.68369 0.06005 0.54888 0.0
C127 C 0.68668 0.93969 0.43193 0.0
O128 O 0.72044 0.04588 0.53903 0.0
Zn129 Zn 0.75003 0.99997 0.49348 0.0
O130 O 0.65112 0.04382 0.52788 0.0
Zn131 Zn 0.6815 1.002 0.48745 0.0
O132 O 0.70722 0.96093 0.54156 0.0
O133 O 0.77684 0.96431 0.5433 0.0
O134 O 0.65348 0.95982 0.44396 0.0
O135 O 0.72289 0.95257 0.44709 0.0
O136 O 0.78158 0.03483 0.44825 0.0
O137 O 0.71269 0.04262 0.43916 0.0
C138 C 0.74294 0.94861 0.5591 0.0
C139 C 0.75007 0.05295 0.42761 0.0
C140 C 0.98846 0.74782 0.59957 0.0
C141 C 0.10313 0.76244 0.48579 0.0
O142 O 1.00765 0.78169 0.59048 0.0
Zn143 Zn 0.04381 0.75901 0.53976 0.0
O144 O 0.99756 0.71383 0.57581 0.0
Zn145 Zn 0.03897 0.69251 0.52028 0.0
O146 O 0.07673 0.65231 0.5553 0.0
O147 O 0.08428 0.71837 0.58098 0.0
O148 O 0.08705 0.72572 0.4862 0.0
O149 O 0.08667 0.79284 0.51008 0.0
O150 O 1.00216 0.74665 0.47826 0.0
O151 O 1.00004 0.6782 0.46431 0.0
C152 C 0.0951 0.67964 0.58332 0.0
C153 C 0.98798 0.71517 0.45288 0.0
C154 C 0.2254 0.07795 0.59001 0.0
C155 C 0.2285 0.96721 0.45702 0.0
O156 O 0.2615 0.06368 0.57781 0.0
Zn157 Zn 0.2896 0.01773 0.53257 0.0
O158 O 0.19212 0.06174 0.57041 0.0
Zn159 Zn 0.2198 0.0191 0.52679 0.0
O160 O 0.24479 0.9766 0.57874 0.0
O161 O 0.31443 0.9781 0.57932 0.0
O162 O 0.19381 0.98179 0.47365 0.0
O163 O 0.26311 0.97771 0.4786 0.0
O164 O 0.32084 0.0524 0.48692 0.0
O165 O 0.25146 0.05726 0.47765 0.0
C166 C 0.28035 0.96365 0.59603 0.0
C167 C 0.28834 0.06638 0.46361 0.0
C168 C 0.4822 0.7744 0.09161 0.0
C169 C 0.60054 0.75821 0.97901 0.0
O170 O 0.49249 0.80847 0.07066 0.0
Zn171 Zn 0.53729 0.82929 0.01931 0.0
O172 O 0.50279 0.7407 0.08257 0.0
Zn173 Zn 0.54185 0.76234 0.03485 0.0
O174 O 0.58288 0.80117 0.07808 0.0
O175 O 0.57583 0.86769 0.05699 0.0
O176 O 0.58452 0.72775 1.00189 0.0
O177 O 0.58489 0.7952 0.98269 0.0
O178 O 0.5009 0.84532 0.96259 0.0
O179 O 0.50275 0.77667 0.97296 0.0
C180 C 0.59434 0.83954 0.08262 0.0
C181 C 0.48977 0.80839 0.94853 0.0
C182 C 0.17209 0.57519 0.10599 0.0
C183 C 0.16471 0.46891 0.97333 0.0
O184 O 0.2078 0.56077 0.09254 0.0
Zn185 Zn 0.23296 0.51806 0.04056 0.0
O186 O 0.13821 0.56092 0.08607 0.0
Zn187 Zn 0.16523 0.52151 0.03992 0.0
O188 O 0.19237 0.47234 0.08438 0.0
O189 O 0.26162 0.47676 0.07999 0.0
O190 O 0.13271 0.48631 0.99282 0.0
O191 O 0.20197 0.47911 0.98765 0.0
O192 O 0.26455 0.55513 1.0002 0.0
O193 O 0.19577 0.5659 0.9939 0.0
C194 C 0.22929 0.45814 0.09545 0.0
C195 C 0.23339 0.57585 0.98261 0.0
C196 C 0.58653 0.21719 0.9672 0.0
C197 C 0.47535 0.22574 0.09103 0.0
O198 O 0.57294 0.25427 0.97766 0.0
Zn199 Zn 0.5274 0.28537 0.02105 0.0
O200 O 0.56931 0.18563 0.98644 0.0
Zn201 Zn 0.52686 0.21682 0.02541 0.0
O202 O 0.4822 0.24158 0.97361 0.0
O203 O 0.48869 0.31067 0.97295 0.0
O204 O 0.48958 0.1911 0.07316 0.0
O205 O 0.48596 0.26064 0.07263 0.0
O206 O 0.56169 0.31793 0.06965 0.0
O207 O 0.56494 0.24903 0.07852 0.0
C208 C 0.47046 0.27734 0.95696 0.0
C209 C 0.57452 0.2861 0.09388 0.0
C210 C 0.80283 0.55524 0.05348 0.0
C211 C 0.81546 0.44926 0.91719 0.0
O212 O 0.83747 0.54381 0.03422 0.0
Zn213 Zn 0.81507 0.50207 0.98492 0.0
O214 O 0.76824 0.53978 0.03637 0.0
Zn215 Zn 0.7456 0.49673 0.98209 0.0
O216 O 0.72137 0.45332 0.02319 0.0
O217 O 0.79103 0.45466 0.02868 0.0
O218 O 0.77838 0.45847 0.93134 0.0
O219 O 0.84764 0.46598 0.93887 0.0
O220 O 0.78376 0.53929 0.9324 0.0
O221 O 0.71462 0.53209 0.93381 0.0
C222 C 0.75607 0.43843 0.0404 0.0
C223 C 0.74712 0.54777 0.9145 0.0
C224 C 0.18965 0.3279 0.40847 0.0
C225 C 0.20573 0.28965 0.39006 0.0
H226 H 0.14008 0.35838 0.44875 0.0
C227 C 0.18496 0.25207 0.40055 0.0
H228 H 0.20472 0.3573 0.40016 0.0
C229 C 0.14824 0.25254 0.42766 0.0
C230 C 0.1309 0.29072 0.44464 0.0
H231 H 0.19662 0.22212 0.38648 0.0
H232 H 0.13297 0.2229 0.43437 0.0
C233 C 0.15234 0.32845 0.43548 0.0
C234 C 0.79458 0.12862 0.335 0.0
C235 C 0.76336 0.16035 0.3347 0.0
H236 H 0.81562 0.06985 0.36569 0.0
C237 C 0.72798 0.15577 0.36406 0.0
H238 H 0.82235 0.13155 0.31292 0.0
C239 C 0.72371 0.12039 0.39303 0.0
C240 C 0.75522 0.08903 0.39449 0.0
H241 H 0.7034 0.17962 0.36457 0.0
H242 H 0.696 0.11816 0.41536 0.0
C243 C 0.79086 0.0935 0.36529 0.0
C244 C 0.89574 0.70195 0.36105 0.0
C245 C 0.89409 0.74151 0.33841 0.0
H246 H 0.92701 0.66214 0.41387 0.0
C247 C 0.92522 0.77115 0.35167 0.0
H248 H 0.87235 0.67826 0.35161 0.0
C249 C 0.95601 0.76214 0.38813 0.0
C250 C 0.95717 0.72289 0.41146 0.0
H251 H 0.92487 0.8019 0.33521 0.0
H252 H 0.97876 0.78622 0.39845 0.0
C253 C 0.92717 0.69257 0.39665 0.0
C254 C 0.27936 0.91056 0.34958 0.0
C255 C 0.2451 0.89872 0.31913 0.0
H256 H 0.30087 0.93952 0.41633 0.0
C257 C 0.20416 0.91123 0.33294 0.0
H258 H 0.31113 0.90092 0.34047 0.0
C259 C 0.19776 0.93334 0.37783 0.0
C260 C 0.23225 0.94311 0.40949 0.0
H261 H 0.17695 0.9015 0.31077 0.0
H262 H 0.16602 0.94188 0.38814 0.0
C263 C 0.2731 0.93215 0.39386 0.0
C264 C 0.16418 0.68706 0.6958 0.0
C265 C 0.20461 0.68667 0.67541 0.0
H266 H 0.09746 0.68348 0.68235 0.0
C267 C 0.20846 0.67374 0.62584 0.0
H268 H 0.15999 0.69639 0.73399 0.0
C269 C 0.17214 0.66558 0.59629 0.0
C270 C 0.13162 0.66983 0.61602 0.0
H271 H 0.23905 0.67327 0.60897 0.0
H272 H 0.17559 0.65984 0.55712 0.0
C273 C 0.12822 0.679 0.66645 0.0
C274 C 0.19743 0.14829 0.70033 0.0
C275 C 0.23166 0.17647 0.70195 0.0
H276 H 0.16758 0.09551 0.66268 0.0
C277 C 0.26179 0.17299 0.66507 0.0
H278 H 0.17333 0.1505 0.72785 0.0
C279 C 0.25852 0.14176 0.62829 0.0
C280 C 0.22464 0.11338 0.6266 0.0
H281 H 0.28835 0.19424 0.66482 0.0
H282 H 0.28291 0.13968 0.60107 0.0
C283 C 0.19375 0.11722 0.66269 0.0
C284 C 0.91246 0.2027 0.67547 0.0
C285 C 0.88429 0.23363 0.69266 0.0
H286 H 0.9656 0.18918 0.62978 0.0
C287 C 0.89079 0.27577 0.68026 0.0
H288 H 0.90804 0.16998 0.68431 0.0
C289 C 0.92334 0.28677 0.64965 0.0
C290 C 0.95033 0.2559 0.63 0.0
H291 H 0.86985 0.30043 0.69341 0.0
H292 H 0.92644 0.31954 0.64025 0.0
C293 C 0.94517 0.21374 0.64407 0.0
C294 C 0.77702 0.87288 0.65913 0.0
C295 C 0.74298 0.84454 0.6581 0.0
H296 H 0.80427 0.92776 0.62797 0.0
C297 C 0.7091 0.85125 0.62505 0.0
H298 H 0.80386 0.86821 0.68391 0.0
C299 C 0.70912 0.88558 0.5938 0.0
C300 C 0.74343 0.91352 0.59408 0.0
H301 H 0.68259 0.82993 0.62327 0.0
H302 H 0.68251 0.88965 0.56851 0.0
C303 C 0.77747 0.9068 0.62698 0.0
C304 C 0.89175 0.71362 0.66579 0.0
C305 C 0.88737 0.74555 0.70173 0.0
H306 H 0.92728 0.68922 0.60582 0.0
C307 C 0.91769 0.77757 0.70569 0.0
H308 H 0.86873 0.68866 0.66192 0.0
C309 C 0.9509 0.77852 0.67265 0.0
C310 C 0.95467 0.74695 0.63597 0.0
H311 H 0.91465 0.80284 0.7328 0.0
H312 H 0.97332 0.80406 0.67551 0.0
C313 C 0.92525 0.71406 0.63362 0.0
C314 C 0.24262 0.89459 0.69783 0.0
C315 C 0.27551 0.86507 0.70183 0.0
H316 H 0.21843 0.94879 0.66088 0.0
C317 C 0.31161 0.87008 0.67332 0.0
H318 H 0.2145 0.8916 0.71929 0.0
C319 C 0.31424 0.90321 0.64041 0.0
C320 C 0.28044 0.93149 0.63466 0.0
H321 H 0.3377 0.84798 0.67595 0.0
H322 H 0.34196 0.9057 0.61815 0.0
C323 C 0.24489 0.92721 0.66423 0.0
C324 C 0.18379 0.361 0.63677 0.0
C325 C 0.17776 0.35272 0.68654 0.0
H326 H 0.15322 0.37001 0.5665 0.0
C327 C 0.13745 0.35774 0.70638 0.0
H328 H 0.21462 0.35732 0.62086 0.0
C329 C 0.10269 0.3656 0.67564 0.0
C330 C 0.10808 0.36863 0.62497 0.0
H331 H 0.13232 0.35213 0.74501 0.0
H332 H 0.07135 0.36478 0.69064 0.0
C333 C 0.14884 0.36861 0.6059 0.0
C334 C 0.70698 0.11954 0.66599 0.0
C335 C 0.70385 0.16156 0.65085 0.0
H336 H 0.7018 0.05439 0.64532 0.0
C337 C 0.68615 0.16973 0.60392 0.0
H338 H 0.71996 0.11198 0.70204 0.0
C339 C 0.67508 0.13626 0.57152 0.0
C340 C 0.6812 0.09438 0.5859 0.0
H341 H 0.68332 0.20171 0.59118 0.0
H342 H 0.66474 0.14305 0.53418 0.0
C343 C 0.69605 0.08642 0.6338 0.0
C344 C 0.89322 0.29213 0.36412 0.0
C345 C 0.85912 0.32044 0.36789 0.0
H346 H 0.95388 0.27344 0.3923 0.0
C347 C 0.86207 0.35444 0.40167 0.0
H348 H 0.89193 0.26554 0.33852 0.0
C349 C 0.89813 0.35935 0.43198 0.0
C350 C 0.93127 0.32981 0.42962 0.0
H351 H 0.83632 0.37678 0.40522 0.0
H352 H 0.89929 0.38519 0.45861 0.0
C353 C 0.92871 0.29654 0.39499 0.0
C354 C 0.70265 0.82493 0.40202 0.0
C355 C 0.71423 0.82715 0.35261 0.0
H356 H 0.6838 0.86015 0.46645 0.0
C357 C 0.70795 0.86525 0.32775 0.0
H358 H 0.70733 0.79608 0.42202 0.0
C359 C 0.69379 0.90133 0.35263 0.0
C360 C 0.68548 0.90011 0.40289 0.0
H361 H 0.71619 0.86776 0.28942 0.0
H362 H 0.69255 0.93092 0.3335 0.0
C363 C 0.68883 0.86143 0.42718 0.0
C364 C 0.17749 0.80218 0.39297 0.0
C365 C 0.20435 0.76701 0.38729 0.0
H366 H 0.12445 0.8289 0.43014 0.0
C367 C 0.20183 0.73357 0.41958 0.0
H368 H 0.17948 0.82868 0.36872 0.0
C369 C 0.17007 0.73359 0.45416 0.0
C370 C 0.14123 0.76742 0.45734 0.0
H371 H 0.22241 0.70638 0.41596 0.0
H372 H 0.16681 0.70626 0.47694 0.0
C373 C 0.1463 0.80259 0.42819 0.0
C374 C 0.25426 0.11466 0.34325 0.0
C375 C 0.28686 0.14299 0.33599 0.0
H376 H 0.22953 0.06811 0.38973 0.0
C377 C 0.32329 0.14152 0.36696 0.0
H378 H 0.22593 0.11511 0.32013 0.0
C379 C 0.32535 0.11493 0.40732 0.0
C380 C 0.29084 0.08969 0.41739 0.0
H381 H 0.34918 0.16292 0.36177 0.0
H382 H 0.35261 0.11606 0.43214 0.0
C383 C 0.2562 0.08832 0.38368 0.0
C384 C 0.70091 0.78618 0.91868 0.0
C385 C 0.69711 0.76305 0.87436 0.0
H386 H 0.67279 0.80173 0.98764 0.0
C387 C 0.66445 0.73328 0.86843 0.0
H388 H 0.72603 0.80878 0.92455 0.0
C389 C 0.6349 0.72828 0.90509 0.0
C390 C 0.63732 0.75332 0.94792 0.0
H391 H 0.66123 0.71423 0.83501 0.0
H392 H 0.60875 0.70697 0.89856 0.0
C393 C 0.67089 0.78168 0.95493 0.0
C394 C 0.2144 0.67692 0.91303 0.0
C395 C 0.252 0.68033 0.88733 0.0
H396 H 0.17874 0.64062 0.96278 0.0
C397 C 0.28395 0.64994 0.89451 0.0
H398 H 0.18921 0.69974 0.90801 0.0
C399 C 0.27822 0.61643 0.92604 0.0
C400 C 0.24009 0.61209 0.95043 0.0
H401 H 0.31341 0.65186 0.87534 0.0
H402 H 0.30331 0.59341 0.93043 0.0
C403 C 0.20834 0.64287 0.94397 0.0
C404 C 0.39503 0.31419 0.8555 0.0
C405 C 0.36449 0.2822 0.85439 0.0
H406 H 0.45208 0.33829 0.88944 0.0
C407 C 0.36957 0.2485 0.88662 0.0
H408 H 0.39181 0.34081 0.83139 0.0
C409 C 0.40443 0.24673 0.91914 0.0
C410 C 0.4345 0.27915 0.92106 0.0
H411 H 0.34657 0.22346 0.88672 0.0
H412 H 0.40734 0.22032 0.94361 0.0
C413 C 0.42941 0.31295 0.88892 0.0
C414 C 0.82848 0.3464 0.84921 0.0
C415 C 0.79764 0.35081 0.81118 0.0
H416 H 0.85967 0.37515 0.91249 0.0
C417 C 0.77996 0.39071 0.80315 0.0
H418 H 0.84319 0.31616 0.85604 0.0
C419 C 0.78992 0.42439 0.83514 0.0
C420 C 0.81802 0.41903 0.87552 0.0
H421 H 0.75653 0.39538 0.77404 0.0
H422 H 0.77329 0.45401 0.83043 0.0
C423 C 0.8386 0.38028 0.88114 0.0
C424 C 0.63513 0.32869 0.20677 0.0
C425 C 0.64354 0.29106 0.23176 0.0
H426 H 0.60749 0.35689 0.14205 0.0
C427 C 0.62491 0.25376 0.2145 0.0
H428 H 0.64988 0.35776 0.21923 0.0
C429 C 0.60139 0.25312 0.17069 0.0
C430 C 0.5963 0.28974 0.14263 0.0
H431 H 0.63157 0.22433 0.23271 0.0
H432 H 0.58889 0.22312 0.15779 0.0
C433 C 0.61168 0.32805 0.1622 0.0
C434 C 0.76135 0.61496 0.16501 0.0
C435 C 0.79074 0.64747 0.17194 0.0
H436 H 0.7422 0.56078 0.12228 0.0
C437 C 0.82609 0.64788 0.14136 0.0
H438 H 0.73381 0.61359 0.18772 0.0
C439 C 0.83133 0.61705 0.10404 0.0
C440 C 0.80086 0.58567 0.09586 0.0
H441 H 0.8495 0.67241 0.14583 0.0
H442 H 0.85833 0.6187 0.08052 0.0
C443 C 0.76615 0.58475 0.12725 0.0
C444 C 0.37905 0.80636 0.15056 0.0
C445 C 0.37534 0.77638 0.18743 0.0
H446 H 0.41596 0.82957 0.09208 0.0
C447 C 0.40717 0.74554 0.1926 0.0
H448 H 0.35513 0.83051 0.14562 0.0
C449 C 0.44166 0.74442 0.16123 0.0
C450 C 0.44561 0.77475 0.12477 0.0
H451 H 0.40512 0.72179 0.22046 0.0
H452 H 0.46547 0.72013 0.1659 0.0
C453 C 0.414 0.80585 0.12 0.0
C454 C 0.27789 0.37063 0.17029 0.0
C455 C 0.24401 0.34265 0.1744 0.0
H456 H 0.29983 0.42873 0.14246 0.0
C457 C 0.20515 0.35247 0.15155 0.0
H458 H 0.30837 0.36379 0.18734 0.0
C459 C 0.20006 0.39041 0.1264 0.0
C460 C 0.23397 0.41865 0.12309 0.0
H461 H 0.17851 0.33161 0.15446 0.0
H462 H 0.16967 0.39753 0.10939 0.0
C463 C 0.27304 0.40796 0.1447 0.0
C464 C 0.42643 0.27091 0.20598 0.0
C465 C 0.39429 0.24215 0.21374 0.0
H466 H 0.47736 0.28786 0.16057 0.0
C467 C 0.39252 0.20466 0.18487 0.0
H468 H 0.42851 0.29994 0.22752 0.0
C469 C 0.42046 0.19756 0.14645 0.0
C470 C 0.45014 0.22818 0.13595 0.0
H471 H 0.36812 0.18168 0.1905 0.0
H472 H 0.41716 0.16955 0.1233 0.0
C473 C 0.45396 0.26409 0.16724 0.0
C474 C 0.73791 0.37472 0.1531 0.0
C475 C 0.77193 0.34589 0.1517 0.0
H476 H 0.70506 0.42562 0.11787 0.0
C477 C 0.79786 0.34509 0.11068 0.0
H478 H 0.71701 0.37577 0.18401 0.0
C479 C 0.79127 0.37418 0.07321 0.0
C480 C 0.75788 0.40363 0.07539 0.0
H481 H 0.82396 0.32302 0.10837 0.0
H482 H 0.81287 0.37429 0.0429 0.0
C483 C 0.73061 0.40294 0.11502 0.0
C484 C 0.70954 0.83925 0.11651 0.0
C485 C 0.70773 0.8245 0.16483 0.0
H486 H 0.67357 0.85783 0.05214 0.0
C487 C 0.66868 0.82579 0.18849 0.0
H488 H 0.7391 0.83871 0.09738 0.0
C489 C 0.63165 0.83692 0.16302 0.0
C490 C 0.63262 0.84757 0.11333 0.0
H491 H 0.66624 0.8154 0.22608 0.0
H492 H 0.60175 0.83345 0.18095 0.0
C493 C 0.67209 0.85062 0.09086 0.0
C494 C 0.21366 0.65027 0.20207 0.0
C495 C 0.19855 0.68898 0.18434 0.0
H496 H 0.21579 0.58343 0.1916 0.0
C497 C 0.16772 0.68873 0.14615 0.0
H498 H 0.2369 0.64908 0.23193 0.0
C499 C 0.15482 0.65056 0.12375 0.0
C500 C 0.17274 0.61232 0.13918 0.0
H501 H 0.15515 0.71798 0.132 0.0
H502 H 0.13361 0.65124 0.09187 0.0
C503 C 0.20112 0.61248 0.17953 0.0
C504 C 0.3983 0.81813 0.8568 0.0
C505 C 0.3991 0.77838 0.8327 0.0
H506 H 0.42688 0.85938 0.91158 0.0
C507 C 0.4328 0.75091 0.84299 0.0
H508 H 0.37272 0.84008 0.84947 0.0
C509 C 0.4633 0.76173 0.87921 0.0
C510 C 0.46126 0.80059 0.90515 0.0
H511 H 0.4342 0.72008 0.82531 0.0
H512 H 0.48781 0.73901 0.88809 0.0
C513 C 0.42933 0.82933 0.89227 0.0
C514 C 0.19422 0.40475 0.86456 0.0
C515 C 0.18922 0.36377 0.88211 0.0
H516 H 0.18812 0.47079 0.8795 0.0
C517 C 0.16683 0.35823 0.92549 0.0
H518 H 0.21037 0.41018 0.8306 0.0
C519 C 0.15323 0.39342 0.95308 0.0
C520 C 0.16142 0.43429 0.93712 0.0
H521 H 0.16209 0.32703 0.93955 0.0
H522 H 0.13969 0.38875 0.98879 0.0
C523 C 0.1806 0.43957 0.89186 0.0
C524 C 0.68388 0.17735 0.89884 0.0
C525 C 0.69002 0.21072 0.86648 0.0
H526 H 0.64546 0.15241 0.95586 0.0
C527 C 0.66156 0.24483 0.86748 0.0
H528 H 0.70513 0.15053 0.89879 0.0
C529 C 0.62816 0.24597 0.89968 0.0
C530 C 0.62156 0.2129 0.93197 0.0
H531 H 0.66515 0.27127 0.84341 0.0
H532 H 0.6073 0.27312 0.89906 0.0
C533 C 0.64958 0.17826 0.93111 0.0
C534 C 0.78417 0.60658 0.80463 0.0
C535 C 0.74812 0.62895 0.79001 0.0
H536 H 0.81172 0.56315 0.85453 0.0
C537 C 0.70962 0.62099 0.81275 0.0
H538 H 0.81428 0.61278 0.78826 0.0
C539 C 0.70809 0.59314 0.85223 0.0
C540 C 0.74516 0.57319 0.86928 0.0
H541 H 0.6816 0.63887 0.80277 0.0
H542 H 0.67871 0.58915 0.87103 0.0
C543 C 0.78266 0.57878 0.8434 0.0
loop_
_geom_bond_atom_site_label_1
_geom_bond_atom_site_label_2
_geom_bond_distance
_geom_bond_site_symmetry_2
_ccdc_geom_bond_type
C0 O2 1.247 . S
C0 O4 1.258 . S
C1 O8 1.247 . S
C1 O9 1.258 . S
O2 C0 1.247 . S
O2 Zn3 2.028 . S
Zn3 O2 2.028 . S
Zn3 O7 2.035 . S
Zn3 O9 2.035 . S
Zn3 O10 2.028 . S
O4 C0 1.258 . S
O4 Zn5 2.035 . S
Zn5 O4 2.035 . S
Zn5 O6 2.028 . S
Zn5 O8 2.028 . S
Zn5 O11 2.035 . S
O6 Zn5 2.028 . S
O6 C12 1.247 . S
O7 Zn3 2.035 . S
O7 C12 1.258 . S
O8 C1 1.247 . S
O8 Zn5 2.028 . S
O9 C1 1.258 . S
O9 Zn3 2.035 . S
O10 Zn3 2.028 . S
O10 C13 1.247 . S
O11 Zn5 2.035 . S
O11 C13 1.258 . S
C12 O6 1.247 . S
C12 O7 1.258 . S
C13 O10 1.247 . S
C13 O11 1.258 . S
C14 O16 1.247 . S
C14 O18 1.258 . S
C15 O22 1.247 . S
C15 O23 1.258 . S
O16 C14 1.247 . S
O16 Zn17 2.028 . S
Zn17 O16 2.028 . S
Zn17 O21 2.035 . S
Zn17 O23 2.035 . S
Zn17 O24 2.028 . S
O18 C14 1.258 . S
O18 Zn19 2.035 . S
Zn19 O18 2.035 . S
Zn19 O20 2.028 . S
Zn19 O22 2.028 . S
Zn19 O25 2.035 . S
O20 Zn19 2.028 . S
O20 C26 1.247 . S
O21 Zn17 2.035 . S
O21 C26 1.258 . S
O22 C15 1.247 . S
O22 Zn19 2.028 . S
O23 C15 1.258 . S
O23 Zn17 2.035 . S
O24 Zn17 2.028 . S
O24 C27 1.247 . S
O25 Zn19 2.035 . S
O25 C27 1.258 . S
C26 O20 1.247 . S
C26 O21 1.258 . S
C27 O24 1.247 . S
C27 O25 1.258 . S
C28 O30 1.247 . S
C28 O32 1.258 . S
C29 O36 1.247 . S
C29 O37 1.258 . S
O30 C28 1.247 . S
O30 Zn31 2.028 . S
Zn31 O30 2.028 . S
Zn31 O35 2.035 . S
Zn31 O37 2.035 . S
Zn31 O38 2.028 . S
O32 C28 1.258 . S
O32 Zn33 2.035 . S
Zn33 O32 2.035 . S
Zn33 O34 2.028 . S
Zn33 O36 2.028 . S
Zn33 O39 2.035 . S
O34 Zn33 2.028 . S
O34 C40 1.247 . S
O35 Zn31 2.035 . S
O35 C40 1.258 . S
O36 C29 1.247 . S
O36 Zn33 2.028 . S
O37 C29 1.258 . S
O37 Zn31 2.035 . S
O38 Zn31 2.028 . S
O38 C41 1.247 . S
O39 Zn33 2.035 . S
O39 C41 1.258 . S
C40 O34 1.247 . S
C40 O35 1.258 . S
C41 O38 1.247 . S
C41 O39 1.258 . S
C42 O44 1.247 . S
C42 O46 1.258 . S
C43 O50 1.247 . S
C43 O51 1.258 . S
O44 C42 1.247 . S
O44 Zn45 2.028 . S
Zn45 O44 2.028 . S
Zn45 O49 2.035 . S
Zn45 O51 2.035 . S
Zn45 O52 2.028 . S
O46 C42 1.258 . S
O46 Zn47 2.035 . S
Zn47 O46 2.035 . S
Zn47 O48 2.028 . S
Zn47 O50 2.028 . S
Zn47 O53 2.035 . S
O48 Zn47 2.028 . S
O48 C54 1.247 . S
O49 Zn45 2.035 . S
O49 C54 1.258 . S
O50 C43 1.247 . S
O50 Zn47 2.028 . S
O51 C43 1.258 . S
O51 Zn45 2.035 . S
O52 Zn45 2.028 . S
O52 C55 1.247 . S
O53 Zn47 2.035 . S
O53 C55 1.258 . S
C54 O48 1.247 . S
C54 O49 1.258 . S
C55 O52 1.247 . S
C55 O53 1.258 . S
C56 O58 1.247 . S
C56 O60 1.258 . S
C57 O64 1.247 . S
C57 O65 1.258 . S
O58 C56 1.247 . S
O58 Zn59 2.028 . S
Zn59 O58 2.028 . S
Zn59 O63 2.035 . S
Zn59 O65 2.035 . S
Zn59 O66 2.028 . S
O60 C56 1.258 . S
O60 Zn61 2.035 . S
Zn61 O60 2.035 . S
Zn61 O62 2.028 . S
Zn61 O64 2.028 . S
Zn61 O67 2.035 . S
O62 Zn61 2.028 . S
O62 C68 1.247 . S
O63 Zn59 2.035 . S
O63 C68 1.258 . S
O64 C57 1.247 . S
O64 Zn61 2.028 . S
O65 C57 1.258 . S
O65 Zn59 2.035 . S
O66 Zn59 2.028 . S
O66 C69 1.247 . S
O67 Zn61 2.035 . S
O67 C69 1.258 . S
C68 O62 1.247 . S
C68 O63 1.258 . S
C69 O66 1.247 . S
C69 O67 1.258 . S
C70 O72 1.247 . S
C70 O74 1.258 . S
C71 O78 1.247 . S
C71 O79 1.258 . S
O72 C70 1.247 . S
O72 Zn73 2.028 . S
Zn73 O72 2.028 . S
Zn73 O77 2.035 . S
Zn73 O79 2.035 . S
Zn73 O80 2.028 . S
O74 C70 1.258 . S
O74 Zn75 2.035 . S
Zn75 O74 2.035 . S
Zn75 O76 2.028 . S
Zn75 O78 2.028 . S
Zn75 O81 2.035 . S
O76 Zn75 2.028 . S
O76 C82 1.247 . S
O77 Zn73 2.035 . S
O77 C82 1.258 . S
O78 C71 1.247 . S
O78 Zn75 2.028 . S
O79 C71 1.258 . S
O79 Zn73 2.035 . S
O80 Zn73 2.028 . S
O80 C83 1.247 . S
O81 Zn75 2.035 . S
O81 C83 1.258 . S
C82 O76 1.247 . S
C82 O77 1.258 . S
C83 O80 1.247 . S
C83 O81 1.258 . S
C84 O86 1.247 . S
C84 O88 1.258 . S
C85 O92 1.247 . S
C85 O93 1.258 . S
O86 C84 1.247 . S
O86 Zn87 2.028 . S
Zn87 O86 2.028 . S
Zn87 O91 2.035 . S
Zn87 O93 2.035 . S
Zn87 O94 2.028 . S
O88 C84 1.258 . S
O88 Zn89 2.035 . S
Zn89 O88 2.035 . S
Zn89 O90 2.028 . S
Zn89 O92 2.028 . S
Zn89 O95 2.035 . S
O90 Zn89 2.028 . S
O90 C96 1.247 . S
O91 Zn87 2.035 . S
O91 C96 1.258 . S
O92 C85 1.247 . S
O92 Zn89 2.028 . S
O93 C85 1.258 . S
O93 Zn87 2.035 . S
O94 Zn87 2.028 . S
O94 C97 1.247 . S
O95 Zn89 2.035 . S
O95 C97 1.258 . S
C96 O90 1.247 . S
C96 O91 1.258 . S
C97 O94 1.247 . S
C97 O95 1.258 . S
C98 O100 1.247 . S
C98 O102 1.258 . S
C99 O106 1.247 . S
C99 O107 1.258 . S
O100 C98 1.247 . S
O100 Zn101 2.028 . S
Zn101 O100 2.028 . S
Zn101 O105 2.035 . S
Zn101 O107 2.035 . S
Zn101 O108 2.028 . S
O102 C98 1.258 . S
O102 Zn103 2.035 . S
Zn103 O102 2.035 . S
Zn103 O104 2.028 . S
Zn103 O106 2.028 . S
Zn103 O109 2.035 . S
O104 Zn103 2.028 . S
O104 C110 1.247 . S
O105 Zn101 2.035 . S
O105 C110 1.258 . S
O106 C99 1.247 . S
O106 Zn103 2.028 . S
O107 C99 1.258 . S
O107 Zn101 2.035 . S
O108 Zn101 2.028 . S
O108 C111 1.247 . S
O109 Zn103 2.035 . S
O109 C111 1.258 . S
C110 O104 1.247 . S
C110 O105 1.258 . S
C111 O108 1.247 . S
C111 O109 1.258 . S
C112 O114 1.247 . S
C112 O116 1.258 . S
C113 O120 1.247 . S
C113 O121 1.258 . S
O114 C112 1.247 . S
O114 Zn115 2.031 . S
Zn115 O114 2.031 . S
Zn115 O119 2.032 1_655 S
Zn115 O121 2.032 1_655 S
Zn115 O122 2.031 . S
O116 C112 1.258 . S
O116 Zn117 2.028 1_655 S
Zn117 O116 2.028 1_455 S
Zn117 O118 2.035 . S
Zn117 O120 2.035 . S
Zn117 O123 2.028 1_455 S
O118 Zn117 2.035 . S
O118 C124 1.247 . S
O119 Zn115 2.032 1_455 S
O119 C124 1.258 . S
O120 C113 1.247 . S
O120 Zn117 2.035 . S
O121 C113 1.258 . S
O121 Zn115 2.032 1_455 S
O122 Zn115 2.031 . S
O122 C125 1.247 . S
O123 Zn117 2.028 1_655 S
O123 C125 1.258 . S
C124 O118 1.247 . S
C124 O119 1.258 . S
C125 O122 1.247 . S
C125 O123 1.258 . S
C126 O128 1.247 . S
C126 O130 1.258 . S
C127 O134 1.247 . S
C127 O135 1.258 . S
O128 C126 1.247 . S
O128 Zn129 2.035 . S
Zn129 O128 2.035 . S
Zn129 O133 2.028 1_545 S
Zn129 O135 2.028 1_545 S
Zn129 O136 2.035 . S
O130 C126 1.258 . S
O130 Zn131 2.032 1_545 S
Zn131 O130 2.032 1_565 S
Zn131 O132 2.031 . S
Zn131 O134 2.031 . S
Zn131 O137 2.032 1_565 S
O132 Zn131 2.031 . S
O132 C138 1.247 . S
O133 Zn129 2.028 1_565 S
O133 C138 1.258 . S
O134 C127 1.247 . S
O134 Zn131 2.031 . S
O135 C127 1.258 . S
O135 Zn129 2.028 1_565 S
O136 Zn129 2.035 . S
O136 C139 1.247 . S
O137 Zn131 2.032 1_545 S
O137 C139 1.258 . S
C138 O132 1.247 . S
C138 O133 1.258 . S
C139 O136 1.247 . S
C139 O137 1.258 . S
C140 O142 1.247 . S
C140 O144 1.258 . S
C141 O148 1.247 . S
C141 O149 1.258 . S
O142 C140 1.247 . S
O142 Zn143 2.031 . S
Zn143 O142 2.031 . S
Zn143 O147 2.032 1_655 S
Zn143 O149 2.032 1_655 S
Zn143 O150 2.031 . S
O144 C140 1.258 . S
O144 Zn145 2.028 1_655 S
Zn145 O144 2.028 1_455 S
Zn145 O146 2.035 . S
Zn145 O148 2.035 . S
Zn145 O151 2.028 1_455 S
O146 Zn145 2.035 . S
O146 C152 1.247 . S
O147 Zn143 2.032 1_455 S
O147 C152 1.258 . S
O148 C141 1.247 . S
O148 Zn145 2.035 . S
O149 C141 1.258 . S
O149 Zn143 2.032 1_455 S
O150 Zn143 2.031 . S
O150 C153 1.247 . S
O151 Zn145 2.028 1_655 S
O151 C153 1.258 . S
C152 O146 1.247 . S
C152 O147 1.258 . S
C153 O150 1.247 . S
C153 O151 1.258 . S
C154 O156 1.247 . S
C154 O158 1.258 . S
C155 O162 1.247 . S
C155 O163 1.258 . S
O156 C154 1.247 . S
O156 Zn157 2.035 . S
Zn157 O156 2.035 . S
Zn157 O161 2.028 1_545 S
Zn157 O163 2.028 1_545 S
Zn157 O164 2.035 . S
O158 C154 1.258 . S
O158 Zn159 2.032 1_545 S
Zn159 O158 2.032 1_565 S
Zn159 O160 2.031 . S
Zn159 O162 2.031 . S
Zn159 O165 2.032 1_565 S
O160 Zn159 2.031 . S
O160 C166 1.247 . S
O161 Zn157 2.028 1_565 S
O161 C166 1.258 . S
O162 C155 1.247 . S
O162 Zn159 2.031 . S
O163 C155 1.258 . S
O163 Zn157 2.028 1_565 S
O164 Zn157 2.035 . S
O164 C167 1.247 . S
O165 Zn159 2.032 1_545 S
O165 C167 1.258 . S
C166 O160 1.247 . S
C166 O161 1.258 . S
C167 O164 1.247 . S
C167 O165 1.258 . S
C168 O170 1.247 . S
C168 O172 1.258 . S
C169 O176 1.247 . S
C169 O177 1.258 . S
O170 C168 1.247 . S
O170 Zn171 2.028 . S
Zn171 O170 2.028 . S
Zn171 O175 2.035 . S
Zn171 O177 2.035 1_554 S
Zn171 O178 2.028 1_554 S
O172 C168 1.258 . S
O172 Zn173 2.035 . S
Zn173 O172 2.035 . S
Zn173 O174 2.028 . S
Zn173 O176 2.028 1_554 S
Zn173 O179 2.035 1_554 S
O174 Zn173 2.028 . S
O174 C180 1.247 . S
O175 Zn171 2.035 . S
O175 C180 1.258 . S
O176 C169 1.247 . S
O176 Zn173 2.028 1_556 S
O177 C169 1.258 . S
O177 Zn171 2.035 1_556 S
O178 Zn171 2.028 1_556 S
O178 C181 1.247 . S
O179 Zn173 2.035 1_556 S
O179 C181 1.258 . S
C180 O174 1.247 . S
C180 O175 1.258 . S
C181 O178 1.247 . S
C181 O179 1.258 . S
C182 O184 1.247 . S
C182 O186 1.258 . S
C183 O190 1.247 . S
C183 O191 1.258 . S
O184 C182 1.247 . S
O184 Zn185 2.028 . S
Zn185 O184 2.028 . S
Zn185 O189 2.035 . S
Zn185 O191 2.035 1_554 S
Zn185 O192 2.028 1_554 S
O186 C182 1.258 . S
O186 Zn187 2.035 . S
Zn187 O186 2.035 . S
Zn187 O188 2.028 . S
Zn187 O190 2.028 1_554 S
Zn187 O193 2.035 1_554 S
O188 Zn187 2.028 . S
O188 C194 1.247 . S
O189 Zn185 2.035 . S
O189 C194 1.258 . S
O190 C183 1.247 . S
O190 Zn187 2.028 1_556 S
O191 C183 1.258 . S
O191 Zn185 2.035 1_556 S
O192 Zn185 2.028 1_556 S
O192 C195 1.247 . S
O193 Zn187 2.035 1_556 S
O193 C195 1.258 . S
C194 O188 1.247 . S
C194 O189 1.258 . S
C195 O192 1.247 . S
C195 O193 1.258 . S
C196 O198 1.247 . S
C196 O200 1.258 . S
C197 O204 1.247 . S
C197 O205 1.258 . S
O198 C196 1.247 . S
O198 Zn199 2.028 1_556 S
Zn199 O198 2.028 1_554 S
Zn199 O203 2.035 1_554 S
Zn199 O205 2.035 . S
Zn199 O206 2.028 . S
O200 C196 1.258 . S
O200 Zn201 2.035 1_556 S
Zn201 O200 2.035 1_554 S
Zn201 O202 2.028 1_554 S
Zn201 O204 2.028 . S
Zn201 O207 2.035 . S
O202 Zn201 2.028 1_556 S
O202 C208 1.247 . S
O203 Zn199 2.035 1_556 S
O203 C208 1.258 . S
O204 C197 1.247 . S
O204 Zn201 2.028 . S
O205 C197 1.258 . S
O205 Zn199 2.035 . S
O206 Zn199 2.028 . S
O206 C209 1.247 . S
O207 Zn201 2.035 . S
O207 C209 1.258 . S
C208 O202 1.247 . S
C208 O203 1.258 . S
C209 O206 1.247 . S
C209 O207 1.258 . S
C210 O212 1.247 . S
C210 O214 1.258 . S
C211 O218 1.247 . S
C211 O219 1.258 . S
O212 C210 1.247 . S
O212 Zn213 2.028 . S
Zn213 O212 2.028 . S
Zn213 O217 2.035 . S
Zn213 O219 2.035 1_554 S
Zn213 O220 2.028 1_554 S
O214 C210 1.258 . S
O214 Zn215 2.035 . S
Zn215 O214 2.035 . S
Zn215 O216 2.028 . S
Zn215 O218 2.028 1_554 S
Zn215 O221 2.035 1_554 S
O216 Zn215 2.028 . S
O216 C222 1.247 . S
O217 Zn213 2.035 . S
O217 C222 1.258 . S
O218 C211 1.247 . S
O218 Zn215 2.028 1_556 S
O219 C211 1.258 . S
O219 Zn213 2.035 1_556 S
O220 Zn213 2.028 1_556 S
O220 C223 1.247 . S
O221 Zn215 2.035 1_556 S
O221 C223 1.258 . S
C222 O216 1.247 . S
C222 O217 1.258 . S
C223 O220 1.247 . S
C223 O221 1.258 . S
C224 C225 1.387 . S
C224 H228 0.950 . S
C224 C233 1.390 . S
C225 C224 1.387 . S
C225 C227 1.387 . S
H226 C233 0.950 . S
C227 C225 1.387 . S
C227 C229 1.390 . S
C227 H231 0.950 . S
H228 C224 0.950 . S
C229 C227 1.390 . S
C229 C230 1.387 . S
C229 H232 0.950 . S
C230 C229 1.387 . S
C230 C233 1.387 . S
H231 C227 0.950 . S
H232 C229 0.950 . S
C233 C224 1.390 . S
C233 H226 0.950 . S
C233 C230 1.387 . S
C234 C235 1.387 . S
C234 H238 0.950 . S
C234 C243 1.390 . S
C235 C234 1.387 . S
C235 C237 1.387 . S
H236 C243 0.950 . S
C237 C235 1.387 . S
C237 C239 1.390 . S
C237 H241 0.950 . S
H238 C234 0.950 . S
C239 C237 1.390 . S
C239 C240 1.387 . S
C239 H242 0.950 . S
C240 C239 1.387 . S
C240 C243 1.387 . S
H241 C237 0.950 . S
H242 C239 0.950 . S
C243 C234 1.390 . S
C243 H236 0.950 . S
C243 C240 1.387 . S
C244 C245 1.387 . S
C244 H248 0.950 . S
C244 C253 1.390 . S
C245 C244 1.387 . S
C245 C247 1.387 . S
H246 C253 0.950 . S
C247 C245 1.387 . S
C247 C249 1.390 . S
C247 H251 0.950 . S
H248 C244 0.950 . S
C249 C247 1.390 . S
C249 C250 1.387 . S
C249 H252 0.950 . S
C250 C249 1.387 . S
C250 C253 1.387 . S
H251 C247 0.950 . S
H252 C249 0.950 . S
C253 C244 1.390 . S
C253 H246 0.950 . S
C253 C250 1.387 . S
C254 C255 1.387 . S
C254 H258 0.950 . S
C254 C263 1.390 . S
C255 C254 1.387 . S
C255 C257 1.387 . S
H256 C263 0.950 . S
C257 C255 1.387 . S
C257 C259 1.390 . S
C257 H261 0.950 . S
H258 C254 0.950 . S
C259 C257 1.390 . S
C259 C260 1.387 . S
C259 H262 0.950 . S
C260 C259 1.387 . S
C260 C263 1.387 . S
H261 C257 0.950 . S
H262 C259 0.950 . S
C263 C254 1.390 . S
C263 H256 0.950 . S
C263 C260 1.387 . S
C264 C265 1.387 . S
C264 H268 0.950 . S
C264 C273 1.390 . S
C265 C264 1.387 . S
C265 C267 1.387 . S
H266 C273 0.950 . S
C267 C265 1.387 . S
C267 C269 1.390 . S
C267 H271 0.950 . S
H268 C264 0.950 . S
C269 C267 1.390 . S
C269 C270 1.387 . S
C269 H272 0.950 . S
C270 C269 1.387 . S
C270 C273 1.387 . S
H271 C267 0.950 . S
H272 C269 0.950 . S
C273 C264 1.390 . S
C273 H266 0.950 . S
C273 C270 1.387 . S
C274 C275 1.387 . S
C274 H278 0.950 . S
C274 C283 1.390 . S
C275 C274 1.387 . S
C275 C277 1.387 . S
H276 C283 0.950 . S
C277 C275 1.387 . S
C277 C279 1.390 . S
C277 H281 0.950 . S
H278 C274 0.950 . S
C279 C277 1.390 . S
C279 C280 1.387 . S
C279 H282 0.950 . S
C280 C279 1.387 . S
C280 C283 1.387 . S
H281 C277 0.950 . S
H282 C279 0.950 . S
C283 C274 1.390 . S
C283 H276 0.950 . S
C283 C280 1.387 . S
C284 C285 1.387 . S
C284 H288 0.950 . S
C284 C293 1.390 . S
C285 C284 1.387 . S
C285 C287 1.387 . S
H286 C293 0.950 . S
C287 C285 1.387 . S
C287 C289 1.390 . S
C287 H291 0.950 . S
H288 C284 0.950 . S
C289 C287 1.390 . S
C289 C290 1.387 . S
C289 H292 0.950 . S
C290 C289 1.387 . S
C290 C293 1.387 . S
H291 C287 0.950 . S
H292 C289 0.950 . S
C293 C284 1.390 . S
C293 H286 0.950 . S
C293 C290 1.387 . S
C294 C295 1.387 . S
C294 H298 0.950 . S
C294 C303 1.390 . S
C295 C294 1.387 . S
C295 C297 1.387 . S
H296 C303 0.950 . S
C297 C295 1.387 . S
C297 C299 1.390 . S
C297 H301 0.950 . S
H298 C294 0.950 . S
C299 C297 1.390 . S
C299 C300 1.387 . S
C299 H302 0.950 . S
C300 C299 1.387 . S
C300 C303 1.387 . S
H301 C297 0.950 . S
H302 C299 0.950 . S
C303 C294 1.390 . S
C303 H296 0.950 . S
C303 C300 1.387 . S
C304 C305 1.387 . S
C304 H308 0.950 . S
C304 C313 1.390 . S
C305 C304 1.387 . S
C305 C307 1.387 . S
H306 C313 0.950 . S
C307 C305 1.387 . S
C307 C309 1.390 . S
C307 H311 0.950 . S
H308 C304 0.950 . S
C309 C307 1.390 . S
C309 C310 1.387 . S
C309 H312 0.950 . S
C310 C309 1.387 . S
C310 C313 1.387 . S
H311 C307 0.950 . S
H312 C309 0.950 . S
C313 C304 1.390 . S
C313 H306 0.950 . S
C313 C310 1.387 . S
C314 C315 1.387 . S
C314 H318 0.950 . S
C314 C323 1.390 . S
C315 C314 1.387 . S
C315 C317 1.387 . S
H316 C323 0.950 . S
C317 C315 1.387 . S
C317 C319 1.390 . S
C317 H321 0.950 . S
H318 C314 0.950 . S
C319 C317 1.390 . S
C319 C320 1.387 . S
C319 H322 0.950 . S
C320 C319 1.387 . S
C320 C323 1.387 . S
H321 C317 0.950 . S
H322 C319 0.950 . S
C323 C314 1.390 . S
C323 H316 0.950 . S
C323 C320 1.387 . S
C324 C325 1.387 . S
C324 H328 0.950 . S
C324 C333 1.390 . S
C325 C324 1.387 . S
C325 C327 1.387 . S
H326 C333 0.950 . S
C327 C325 1.387 . S
C327 C329 1.390 . S
C327 H331 0.950 . S
H328 C324 0.950 . S
C329 C327 1.390 . S
C329 C330 1.387 . S
C329 H332 0.950 . S
C330 C329 1.387 . S
C330 C333 1.387 . S
H331 C327 0.950 . S
H332 C329 0.950 . S
C333 C324 1.390 . S
C333 H326 0.950 . S
C333 C330 1.387 . S
C334 C335 1.387 . S
C334 H338 0.950 . S
C334 C343 1.390 . S
C335 C334 1.387 . S
C335 C337 1.387 . S
H336 C343 0.950 . S
C337 C335 1.387 . S
C337 C339 1.390 . S
C337 H341 0.950 . S
H338 C334 0.950 . S
C339 C337 1.390 . S
C339 C340 1.387 . S
C339 H342 0.950 . S
C340 C339 1.387 . S
C340 C343 1.387 . S
H341 C337 0.950 . S
H342 C339 0.950 . S
C343 C334 1.390 . S
C343 H336 0.950 . S
C343 C340 1.387 . S
C344 C345 1.387 . S
C344 H348 0.950 . S
C344 C353 1.390 . S
C345 C344 1.387 . S
C345 C347 1.387 . S
H346 C353 0.950 . S
C347 C345 1.387 . S
C347 C349 1.390 . S
C347 H351 0.950 . S
H348 C344 0.950 . S
C349 C347 1.390 . S
C349 C350 1.387 . S
C349 H352 0.950 . S
C350 C349 1.387 . S
C350 C353 1.387 . S
H351 C347 0.950 . S
H352 C349 0.950 . S
C353 C344 1.390 . S
C353 H346 0.950 . S
C353 C350 1.387 . S
C354 C355 1.387 . S
C354 H358 0.950 . S
C354 C363 1.390 . S
C355 C354 1.387 . S
C355 C357 1.387 . S
H356 C363 0.950 . S
C357 C355 1.387 . S
C357 C359 1.390 . S
C357 H361 0.950 . S
H358 C354 0.950 . S
C359 C357 1.390 . S
C359 C360 1.387 . S
C359 H362 0.950 . S
C360 C359 1.387 . S
C360 C363 1.387 . S
H361 C357 0.950 . S
H362 C359 0.950 . S
C363 C354 1.390 . S
C363 H356 0.950 . S
C363 C360 1.387 . S
C364 C365 1.387 . S
C364 H368 0.950 . S
C364 C373 1.390 . S
C365 C364 1.387 . S
C365 C367 1.387 . S
H366 C373 0.950 . S
C367 C365 1.387 . S
C367 C369 1.390 . S
C367 H371 0.950 . S
H368 C364 0.950 . S
C369 C367 1.390 . S
C369 C370 1.387 . S
C369 H372 0.950 . S
C370 C369 1.387 . S
C370 C373 1.387 . S
H371 C367 0.950 . S
H372 C369 0.950 . S
C373 C364 1.390 . S
C373 H366 0.950 . S
C373 C370 1.387 . S
C374 C375 1.387 . S
C374 H378 0.950 . S
C374 C383 1.390 . S
C375 C374 1.387 . S
C375 C377 1.387 . S
H376 C383 0.950 . S
C377 C375 1.387 . S
C377 C379 1.390 . S
C377 H381 0.950 . S
H378 C374 0.950 . S
C379 C377 1.390 . S
C379 C380 1.387 . S
C379 H382 0.950 . S
C380 C379 1.387 . S
C380 C383 1.387 . S
H381 C377 0.950 . S
H382 C379 0.950 . S
C383 C374 1.390 . S
C383 H376 0.950 . S
C383 C380 1.387 . S
C384 C385 1.387 . S
C384 H388 0.950 . S
C384 C393 1.390 . S
C385 C384 1.387 . S
C385 C387 1.387 . S
H386 C393 0.950 . S
C387 C385 1.387 . S
C387 C389 1.390 . S
C387 H391 0.950 . S
H388 C384 0.950 . S
C389 C387 1.390 . S
C389 C390 1.387 . S
C389 H392 0.950 . S
C390 C389 1.387 . S
C390 C393 1.387 . S
H391 C387 0.950 . S
H392 C389 0.950 . S
C393 C384 1.390 . S
C393 H386 0.950 . S
C393 C390 1.387 . S
C394 C395 1.387 . S
C394 H398 0.950 . S
C394 C403 1.390 . S
C395 C394 1.387 . S
C395 C397 1.387 . S
H396 C403 0.950 . S
C397 C395 1.387 . S
C397 C399 1.390 . S
C397 H401 0.950 . S
H398 C394 0.950 . S
C399 C397 1.390 . S
C399 C400 1.387 . S
C399 H402 0.950 . S
C400 C399 1.387 . S
C400 C403 1.387 . S
H401 C397 0.950 . S
H402 C399 0.950 . S
C403 C394 1.390 . S
C403 H396 0.950 . S
C403 C400 1.387 . S
C404 C405 1.387 . S
C404 H408 0.950 . S
C404 C413 1.390 . S
C405 C404 1.387 . S
C405 C407 1.387 . S
H406 C413 0.950 . S
C407 C405 1.387 . S
C407 C409 1.390 . S
C407 H411 0.950 . S
H408 C404 0.950 . S
C409 C407 1.390 . S
C409 C410 1.387 . S
C409 H412 0.950 . S
C410 C409 1.387 . S
C410 C413 1.387 . S
H411 C407 0.950 . S
H412 C409 0.950 . S
C413 C404 1.390 . S
C413 H406 0.950 . S
C413 C410 1.387 . S
C414 C415 1.387 . S
C414 H418 0.950 . S
C414 C423 1.390 . S
C415 C414 1.387 . S
C415 C417 1.387 . S
H416 C423 0.950 . S
C417 C415 1.387 . S
C417 C419 1.390 . S
C417 H421 0.950 . S
H418 C414 0.950 . S
C419 C417 1.390 . S
C419 C420 1.387 . S
C419 H422 0.950 . S
C420 C419 1.387 . S
C420 C423 1.387 . S
H421 C417 0.950 . S
H422 C419 0.950 . S
C423 C414 1.390 . S
C423 H416 0.950 . S
C423 C420 1.387 . S
C424 C425 1.387 . S
C424 H428 0.950 . S
C424 C433 1.390 . S
C425 C424 1.387 . S
C425 C427 1.387 . S
H426 C433 0.950 . S
C427 C425 1.387 . S
C427 C429 1.390 . S
C427 H431 0.950 . S
H428 C424 0.950 . S
C429 C427 1.390 . S
C429 C430 1.387 . S
C429 H432 0.950 . S
C430 C429 1.387 . S
C430 C433 1.387 . S
H431 C427 0.950 . S
H432 C429 0.950 . S
C433 C424 1.390 . S
C433 H426 0.950 . S
C433 C430 1.387 . S
C434 C435 1.387 . S
C434 H438 0.950 . S
C434 C443 1.390 . S
C435 C434 1.387 . S
C435 C437 1.387 . S
H436 C443 0.950 . S
C437 C435 1.387 . S
C437 C439 1.390 . S
C437 H441 0.950 . S
H438 C434 0.950 . S
C439 C437 1.390 . S
C439 C440 1.387 . S
C439 H442 0.950 . S
C440 C439 1.387 . S
C440 C443 1.387 . S
H441 C437 0.950 . S
H442 C439 0.950 . S
C443 C434 1.390 . S
C443 H436 0.950 . S
C443 C440 1.387 . S
C444 C445 1.387 . S
C444 H448 0.950 . S
C444 C453 1.390 . S
C445 C444 1.387 . S
C445 C447 1.387 . S
H446 C453 0.950 . S
C447 C445 1.387 . S
C447 C449 1.390 . S
C447 H451 0.950 . S
H448 C444 0.950 . S
C449 C447 1.390 . S
C449 C450 1.387 . S
C449 H452 0.950 . S
C450 C449 1.387 . S
C450 C453 1.387 . S
H451 C447 0.950 . S
H452 C449 0.950 . S
C453 C444 1.390 . S
C453 H446 0.950 . S
C453 C450 1.387 . S
C454 C455 1.387 . S
C454 H458 0.950 . S
C454 C463 1.390 . S
C455 C454 1.387 . S
C455 C457 1.387 . S
H456 C463 0.950 . S
C457 C455 1.387 . S
C457 C459 1.390 . S
C457 H461 0.950 . S
H458 C454 0.950 . S
C459 C457 1.390 . S
C459 C460 1.387 . S
C459 H462 0.950 . S
C460 C459 1.387 . S
C460 C463 1.387 . S
H461 C457 0.950 . S
H462 C459 0.950 . S
C463 C454 1.390 . S
C463 H456 0.950 . S
C463 C460 1.387 . S
C464 C465 1.387 . S
C464 H468 0.950 . S
C464 C473 1.390 . S
C465 C464 1.387 . S
C465 C467 1.387 . S
H466 C473 0.950 . S
C467 C465 1.387 . S
C467 C469 1.390 . S
C467 H471 0.950 . S
H468 C464 0.950 . S
C469 C467 1.390 . S
C469 C470 1.387 . S
C469 H472 0.950 . S
C470 C469 1.387 . S
C470 C473 1.387 . S
H471 C467 0.950 . S
H472 C469 0.950 . S
C473 C464 1.390 . S
C473 H466 0.950 . S
C473 C470 1.387 . S
C474 C475 1.387 . S
C474 H478 0.950 . S
C474 C483 1.390 . S
C475 C474 1.387 . S
C475 C477 1.387 . S
H476 C483 0.950 . S
C477 C475 1.387 . S
C477 C479 1.390 . S
C477 H481 0.950 . S
H478 C474 0.950 . S
C479 C477 1.390 . S
C479 C480 1.387 . S
C479 H482 0.950 . S
C480 C479 1.387 . S
C480 C483 1.387 . S
H481 C477 0.950 . S
H482 C479 0.950 . S
C483 C474 1.390 . S
C483 H476 0.950 . S
C483 C480 1.387 . S
C484 C485 1.387 . S
C484 H488 0.950 . S
C484 C493 1.390 . S
C485 C484 1.387 . S
C485 C487 1.387 . S
H486 C493 0.950 . S
C487 C485 1.387 . S
C487 C489 1.390 . S
C487 H491 0.950 . S
H488 C484 0.950 . S
C489 C487 1.390 . S
C489 C490 1.387 . S
C489 H492 0.950 . S
C490 C489 1.387 . S
C490 C493 1.387 . S
H491 C487 0.950 . S
H492 C489 0.950 . S
C493 C484 1.390 . S
C493 H486 0.950 . S
C493 C490 1.387 . S
C494 C495 1.387 . S
C494 H498 0.950 . S
C494 C503 1.390 . S
C495 C494 1.387 . S
C495 C497 1.387 . S
H496 C503 0.950 . S
C497 C495 1.387 . S
C497 C499 1.390 . S
C497 H501 0.950 . S
H498 C494 0.950 . S
C499 C497 1.390 . S
C499 C500 1.387 . S
C499 H502 0.950 . S
C500 C499 1.387 . S
C500 C503 1.387 . S
H501 C497 0.950 . S
H502 C499 0.950 . S
C503 C494 1.390 . S
C503 H496 0.950 . S
C503 C500 1.387 . S
C504 C505 1.387 . S
C504 H508 0.950 . S
C504 C513 1.390 . S
C505 C504 1.387 . S
C505 C507 1.387 . S
H506 C513 0.950 . S
C507 C505 1.387 . S
C507 C509 1.390 . S
C507 H511 0.950 . S
H508 C504 0.950 . S
C509 C507 1.390 . S
C509 C510 1.387 . S
C509 H512 0.950 . S
C510 C509 1.387 . S
C510 C513 1.387 . S
H511 C507 0.950 . S
H512 C509 0.950 . S
C513 C504 1.390 . S
C513 H506 0.950 . S
C513 C510 1.387 . S
C514 C515 1.387 . S
C514 H518 0.950 . S
C514 C523 1.390 . S
C515 C514 1.387 . S
C515 C517 1.387 . S
H516 C523 0.950 . S
C517 C515 1.387 . S
C517 C519 1.390 . S
C517 H521 0.950 . S
H518 C514 0.950 . S
C519 C517 1.390 . S
C519 C520 1.387 . S
C519 H522 0.950 . S
C520 C519 1.387 . S
C520 C523 1.387 . S
H521 C517 0.950 . S
H522 C519 0.950 . S
C523 C514 1.390 . S
C523 H516 0.950 . S
C523 C520 1.387 . S
C524 C525 1.387 . S
C524 H528 0.950 . S
C524 C533 1.390 . S
C525 C524 1.387 . S
C525 C527 1.387 . S
H526 C533 0.950 . S
C527 C525 1.387 . S
C527 C529 1.390 . S
C527 H531 0.950 . S
H528 C524 0.950 . S
C529 C527 1.390 . S
C529 C530 1.387 . S
C529 H532 0.950 . S
C530 C529 1.387 . S
C530 C533 1.387 . S
H531 C527 0.950 . S
H532 C529 0.950 . S
C533 C524 1.390 . S
C533 H526 0.950 . S
C533 C530 1.387 . S
C534 C535 1.387 . S
C534 H538 0.950 . S
C534 C543 1.390 . S
C535 C534 1.387 . S
C535 C537 1.387 . S
H536 C543 0.950 . S
C537 C535 1.387 . S
C537 C539 1.390 . S
C537 H541 0.950 . S
H538 C534 0.950 . S
C539 C537 1.390 . S
C539 C540 1.387 . S
C539 H542 0.950 . S
C540 C539 1.387 . S
C540 C543 1.387 . S
H541 C537 0.950 . S
H542 C539 0.950 . S
C543 C534 1.390 . S
C543 H536 0.950 . S
C543 C540 1.387 . S
C230 C113 1.545 . S
C225 C0 1.556 . S
C240 C139 1.545 . S
C235 C26 1.556 . S
C250 C153 1.546 . S
C245 C40 1.560 . S
C260 C155 1.546 . S
C255 C43 1.560 . S
C265 C57 1.558 . S
C270 C152 1.546 . S
C280 C154 1.546 . S
C275 C70 1.556 . S
C290 C112 1.548 . S
C285 C97 1.559 . S
C300 C138 1.547 . S
C295 C111 1.558 . S
C310 C140 1.546 . S
C305 C98 1.559 . S
C320 C166 1.545 . S
C315 C68 1.559 . S
C330 C124 1.546 . S
C325 C83 1.556 . S
C340 C126 1.546 . S
C335 C84 1.557 . S
C350 C125 1.547 . S
C345 C15 1.560 . S
C360 C127 1.546 . S
C355 C29 1.559 . S
C370 C141 1.546 . S
C365 C54 1.556 . S
C380 C167 1.548 . S
C375 C13 1.557 . S
C390 C169 1.545 . S
C385 C99 1.559 . S
C395 C69 1.557 . S
C400 C195 1.546 . S
C405 C82 1.557 . S
C410 C208 1.548 . S
C415 C85 1.558 . S
C420 C211 1.548 . S
C425 C14 1.558 . S
C430 C209 1.545 . S
C435 C28 1.557 . S
C440 C210 1.545 . S
C445 C55 1.558 . S
C450 C168 1.545 . S
C460 C194 1.548 . S
C455 C12 1.557 . S
C470 C197 1.547 . S
C465 C1 1.557 . S
C475 C27 1.559 . S
C480 C222 1.545 . S
C485 C41 1.558 . S
C490 C180 1.544 . S
C495 C42 1.558 . S
C500 C182 1.544 . S
C510 C181 1.547 . S
C505 C56 1.559 . S
C520 C183 1.546 . S
C515 C71 1.559 . S
C525 C96 1.557 . S
C530 C196 1.546 . S
C540 C223 1.546 . S
C535 C110 1.558 . S
