# Generated by pormake.
# Topology gar, (4,6)-cn, num edge types: 1
# Building blocks:
#     Node 0, Type 0, BuildingBlock: QUQFOY_clean_sbu_3, # of connection points: 4
#     Node 1, Type 0, BuildingBlock: QUQFOY_clean_sbu_3, # of connection points: 4
#     Node 2, Type 0, BuildingBlock: QUQFOY_clean_sbu_3, # of connection points: 4
#     Node 3, Type 0, BuildingBlock: QUQFOY_clean_sbu_3, # of connection points: 4
#     Node 4, Type 0, BuildingBlock: QUQFOY_clean_sbu_3, # of connection points: 4
#     Node 5, Type 0, BuildingBlock: QUQFOY_clean_sbu_3, # of connection points: 4
#     Node 6, Type 0, BuildingBlock: QUQFOY_clean_sbu_3, # of connection points: 4
#     Node 7, Type 0, BuildingBlock: QUQFOY_clean_sbu_3, # of connection points: 4
#     Node 8, Type 0, BuildingBlock: QUQFOY_clean_sbu_3, # of connection points: 4
#     Node 9, Type 0, BuildingBlock: QUQFOY_clean_sbu_3, # of connection points: 4
#     Node 10, Type 0, BuildingBlock: QUQFOY_clean_sbu_3, # of connection points: 4
#     Node 11, Type 0, BuildingBlock: QUQFOY_clean_sbu_3, # of connection points: 4
#     Node 12, Type 0, BuildingBlock: QUQFOY_clean_sbu_3, # of connection points: 4
#     Node 13, Type 0, BuildingBlock: QUQFOY_clean_sbu_3, # of connection points: 4
#     Node 14, Type 0, BuildingBlock: QUQFOY_clean_sbu_3, # of connection points: 4
#     Node 15, Type 0, BuildingBlock: QUQFOY_clean_sbu_3, # of connection points: 4
#     Node 16, Type 0, BuildingBlock: QUQFOY_clean_sbu_3, # of connection points: 4
#     Node 17, Type 0, BuildingBlock: QUQFOY_clean_sbu_3, # of connection points: 4
#     Node 18, Type 0, BuildingBlock: QUQFOY_clean_sbu_3, # of connection points: 4
#     Node 19, Type 0, BuildingBlock: QUQFOY_clean_sbu_3, # of connection points: 4
#     Node 20, Type 0, BuildingBlock: QUQFOY_clean_sbu_3, # of connection points: 4
#     Node 21, Type 0, BuildingBlock: QUQFOY_clean_sbu_3, # of connection points: 4
#     Node 22, Type 0, BuildingBlock: QUQFOY_clean_sbu_3, # of connection points: 4
#     Node 23, Type 0, BuildingBlock: QUQFOY_clean_sbu_3, # of connection points: 4
#     Node 24, Type 1, BuildingBlock: PAMTOO_clean_sbu_0, # of connection points: 6
#     Node 25, Type 1, BuildingBlock: PAMTOO_clean_sbu_0, # of connection points: 6
#     Node 26, Type 1, BuildingBlock: PAMTOO_clean_sbu_0, # of connection points: 6
#     Node 27, Type 1, BuildingBlock: PAMTOO_clean_sbu_0, # of connection points: 6
#     Node 28, Type 1, BuildingBlock: PAMTOO_clean_sbu_0, # of connection points: 6
#     Node 29, Type 1, BuildingBlock: PAMTOO_clean_sbu_0, # of connection points: 6
#     Node 30, Type 1, BuildingBlock: PAMTOO_clean_sbu_0, # of connection points: 6
#     Node 31, Type 1, BuildingBlock: PAMTOO_clean_sbu_0, # of connection points: 6
#     Node 32, Type 1, BuildingBlock: PAMTOO_clean_sbu_0, # of connection points: 6
#     Node 33, Type 1, BuildingBlock: PAMTOO_clean_sbu_0, # of connection points: 6
#     Node 34, Type 1, BuildingBlock: PAMTOO_clean_sbu_0, # of connection points: 6
#     Node 35, Type 1, BuildingBlock: PAMTOO_clean_sbu_0, # of connection points: 6
#     Node 36, Type 1, BuildingBlock: PAMTOO_clean_sbu_0, # of connection points: 6
#     Node 37, Type 1, BuildingBlock: PAMTOO_clean_sbu_0, # of connection points: 6
#     Node 38, Type 1, BuildingBlock: PAMTOO_clean_sbu_0, # of connection points: 6
#     Node 39, Type 1, BuildingBlock: PAMTOO_clean_sbu_0, # of connection points: 6
#     Edge 40, Type (0, 1), BuildingBlock: KIFKEQ_clean_linker_1, # of connection points: 2
#     Edge 41, Type (0, 1), BuildingBlock: KIFKEQ_clean_linker_1, # of connection points: 2
#     Edge 42, Type (0, 1), BuildingBlock: KIFKEQ_clean_linker_1, # of connection points: 2
#     Edge 43, Type (0, 1), BuildingBlock: KIFKEQ_clean_linker_1, # of connection points: 2
#     Edge 44, Type (0, 1), BuildingBlock: KIFKEQ_clean_linker_1, # of connection points: 2
#     Edge 45, Type (0, 1), BuildingBlock: KIFKEQ_clean_linker_1, # of connection points: 2
#     Edge 46, Type (0, 1), BuildingBlock: KIFKEQ_clean_linker_1, # of connection points: 2
#     Edge 47, Type (0, 1), BuildingBlock: KIFKEQ_clean_linker_1, # of connection points: 2
#     Edge 48, Type (0, 1), BuildingBlock: KIFKEQ_clean_linker_1, # of connection points: 2
#     Edge 49, Type (0, 1), BuildingBlock: KIFKEQ_clean_linker_1, # of connection points: 2
#     Edge 50, Type (0, 1), BuildingBlock: KIFKEQ_clean_linker_1, # of connection points: 2
#     Edge 51, Type (0, 1), BuildingBlock: KIFKEQ_clean_linker_1, # of connection points: 2
#     Edge 52, Type (0, 1), BuildingBlock: KIFKEQ_clean_linker_1, # of connection points: 2
#     Edge 53, Type (0, 1), BuildingBlock: KIFKEQ_clean_linker_1, # of connection points: 2
#     Edge 54, Type (0, 1), BuildingBlock: KIFKEQ_clean_linker_1, # of connection points: 2
#     Edge 55, Type (0, 1), BuildingBlock: KIFKEQ_clean_linker_1, # of connection points: 2
#     Edge 56, Type (0, 1), BuildingBlock: KIFKEQ_clean_linker_1, # of connection points: 2
#     Edge 57, Type (0, 1), BuildingBlock: KIFKEQ_clean_linker_1, # of connection points: 2
#     Edge 58, Type (0, 1), BuildingBlock: KIFKEQ_clean_linker_1, # of connection points: 2
#     Edge 59, Type (0, 1), BuildingBlock: KIFKEQ_clean_linker_1, # of connection points: 2
#     Edge 60, Type (0, 1), BuildingBlock: KIFKEQ_clean_linker_1, # of connection points: 2
#     Edge 61, Type (0, 1), BuildingBlock: KIFKEQ_clean_linker_1, # of connection points: 2
#     Edge 62, Type (0, 1), BuildingBlock: KIFKEQ_clean_linker_1, # of connection points: 2
#     Edge 63, Type (0, 1), BuildingBlock: KIFKEQ_clean_linker_1, # of connection points: 2
#     Edge 64, Type (0, 1), BuildingBlock: KIFKEQ_clean_linker_1, # of connection points: 2
#     Edge 65, Type (0, 1), BuildingBlock: KIFKEQ_clean_linker_1, # of connection points: 2
#     Edge 66, Type (0, 1), BuildingBlock: KIFKEQ_clean_linker_1, # of connection points: 2
#     Edge 67, Type (0, 1), BuildingBlock: KIFKEQ_clean_linker_1, # of connection points: 2
#     Edge 68, Type (0, 1), BuildingBlock: KIFKEQ_clean_linker_1, # of connection points: 2
#     Edge 69, Type (0, 1), BuildingBlock: KIFKEQ_clean_linker_1, # of connection points: 2
#     Edge 70, Type (0, 1), BuildingBlock: KIFKEQ_clean_linker_1, # of connection points: 2
#     Edge 71, Type (0, 1), BuildingBlock: KIFKEQ_clean_linker_1, # of connection points: 2
#     Edge 72, Type (0, 1), BuildingBlock: KIFKEQ_clean_linker_1, # of connection points: 2
#     Edge 73, Type (0, 1), BuildingBlock: KIFKEQ_clean_linker_1, # of connection points: 2
#     Edge 74, Type (0, 1), BuildingBlock: KIFKEQ_clean_linker_1, # of connection points: 2
#     Edge 75, Type (0, 1), BuildingBlock: KIFKEQ_clean_linker_1, # of connection points: 2
#     Edge 76, Type (0, 1), BuildingBlock: KIFKEQ_clean_linker_1, # of connection points: 2
#     Edge 77, Type (0, 1), BuildingBlock: KIFKEQ_clean_linker_1, # of connection points: 2
#     Edge 78, Type (0, 1), BuildingBlock: KIFKEQ_clean_linker_1, # of connection points: 2
#     Edge 79, Type (0, 1), BuildingBlock: KIFKEQ_clean_linker_1, # of connection points: 2
#     Edge 80, Type (0, 1), BuildingBlock: KIFKEQ_clean_linker_1, # of connection points: 2
#     Edge 81, Type (0, 1), BuildingBlock: KIFKEQ_clean_linker_1, # of connection points: 2
#     Edge 82, Type (0, 1), BuildingBlock: KIFKEQ_clean_linker_1, # of connection points: 2
#     Edge 83, Type (0, 1), BuildingBlock: KIFKEQ_clean_linker_1, # of connection points: 2
#     Edge 84, Type (0, 1), BuildingBlock: KIFKEQ_clean_linker_1, # of connection points: 2
#     Edge 85, Type (0, 1), BuildingBlock: KIFKEQ_clean_linker_1, # of connection points: 2
#     Edge 86, Type (0, 1), BuildingBlock: KIFKEQ_clean_linker_1, # of connection points: 2
#     Edge 87, Type (0, 1), BuildingBlock: KIFKEQ_clean_linker_1, # of connection points: 2
#     Edge 88, Type (0, 1), BuildingBlock: KIFKEQ_clean_linker_1, # of connection points: 2
#     Edge 89, Type (0, 1), BuildingBlock: KIFKEQ_clean_linker_1, # of connection points: 2
#     Edge 90, Type (0, 1), BuildingBlock: KIFKEQ_clean_linker_1, # of connection points: 2
#     Edge 91, Type (0, 1), BuildingBlock: KIFKEQ_clean_linker_1, # of connection points: 2
#     Edge 92, Type (0, 1), BuildingBlock: KIFKEQ_clean_linker_1, # of connection points: 2
#     Edge 93, Type (0, 1), BuildingBlock: KIFKEQ_clean_linker_1, # of connection points: 2
#     Edge 94, Type (0, 1), BuildingBlock: KIFKEQ_clean_linker_1, # of connection points: 2
#     Edge 95, Type (0, 1), BuildingBlock: KIFKEQ_clean_linker_1, # of connection points: 2
#     Edge 96, Type (0, 1), BuildingBlock: KIFKEQ_clean_linker_1, # of connection points: 2
#     Edge 97, Type (0, 1), BuildingBlock: KIFKEQ_clean_linker_1, # of connection points: 2
#     Edge 98, Type (0, 1), BuildingBlock: KIFKEQ_clean_linker_1, # of connection points: 2
#     Edge 99, Type (0, 1), BuildingBlock: KIFKEQ_clean_linker_1, # of connection points: 2
#     Edge 100, Type (0, 1), BuildingBlock: KIFKEQ_clean_linker_1, # of connection points: 2
#     Edge 101, Type (0, 1), BuildingBlock: KIFKEQ_clean_linker_1, # of connection points: 2
#     Edge 102, Type (0, 1), BuildingBlock: KIFKEQ_clean_linker_1, # of connection points: 2
#     Edge 103, Type (0, 1), BuildingBlock: KIFKEQ_clean_linker_1, # of connection points: 2
#     Edge 104, Type (0, 1), BuildingBlock: KIFKEQ_clean_linker_1, # of connection points: 2
#     Edge 105, Type (0, 1), BuildingBlock: KIFKEQ_clean_linker_1, # of connection points: 2
#     Edge 106, Type (0, 1), BuildingBlock: KIFKEQ_clean_linker_1, # of connection points: 2
#     Edge 107, Type (0, 1), BuildingBlock: KIFKEQ_clean_linker_1, # of connection points: 2
#     Edge 108, Type (0, 1), BuildingBlock: KIFKEQ_clean_linker_1, # of connection points: 2
#     Edge 109, Type (0, 1), BuildingBlock: KIFKEQ_clean_linker_1, # of connection points: 2
#     Edge 110, Type (0, 1), BuildingBlock: KIFKEQ_clean_linker_1, # of connection points: 2
#     Edge 111, Type (0, 1), BuildingBlock: KIFKEQ_clean_linker_1, # of connection points: 2
#     Edge 112, Type (0, 1), BuildingBlock: KIFKEQ_clean_linker_1, # of connection points: 2
#     Edge 113, Type (0, 1), BuildingBlock: KIFKEQ_clean_linker_1, # of connection points: 2
#     Edge 114, Type (0, 1), BuildingBlock: KIFKEQ_clean_linker_1, # of connection points: 2
#     Edge 115, Type (0, 1), BuildingBlock: KIFKEQ_clean_linker_1, # of connection points: 2
#     Edge 116, Type (0, 1), BuildingBlock: KIFKEQ_clean_linker_1, # of connection points: 2
#     Edge 117, Type (0, 1), BuildingBlock: KIFKEQ_clean_linker_1, # of connection points: 2
#     Edge 118, Type (0, 1), BuildingBlock: KIFKEQ_clean_linker_1, # of connection points: 2
#     Edge 119, Type (0, 1), BuildingBlock: KIFKEQ_clean_linker_1, # of connection points: 2
#     Edge 120, Type (0, 1), BuildingBlock: KIFKEQ_clean_linker_1, # of connection points: 2
#     Edge 121, Type (0, 1), BuildingBlock: KIFKEQ_clean_linker_1, # of connection points: 2
#     Edge 122, Type (0, 1), BuildingBlock: KIFKEQ_clean_linker_1, # of connection points: 2
#     Edge 123, Type (0, 1), BuildingBlock: KIFKEQ_clean_linker_1, # of connection points: 2
#     Edge 124, Type (0, 1), BuildingBlock: KIFKEQ_clean_linker_1, # of connection points: 2
#     Edge 125, Type (0, 1), BuildingBlock: KIFKEQ_clean_linker_1, # of connection points: 2
#     Edge 126, Type (0, 1), BuildingBlock: KIFKEQ_clean_linker_1, # of connection points: 2
#     Edge 127, Type (0, 1), BuildingBlock: KIFKEQ_clean_linker_1, # of connection points: 2
#     Edge 128, Type (0, 1), BuildingBlock: KIFKEQ_clean_linker_1, # of connection points: 2
#     Edge 129, Type (0, 1), BuildingBlock: KIFKEQ_clean_linker_1, # of connection points: 2
#     Edge 130, Type (0, 1), BuildingBlock: KIFKEQ_clean_linker_1, # of connection points: 2
#     Edge 131, Type (0, 1), BuildingBlock: KIFKEQ_clean_linker_1, # of connection points: 2
#     Edge 132, Type (0, 1), BuildingBlock: KIFKEQ_clean_linker_1, # of connection points: 2
#     Edge 133, Type (0, 1), BuildingBlock: KIFKEQ_clean_linker_1, # of connection points: 2
#     Edge 134, Type (0, 1), BuildingBlock: KIFKEQ_clean_linker_1, # of connection points: 2
#     Edge 135, Type (0, 1), BuildingBlock: KIFKEQ_clean_linker_1, # of connection points: 2
# Relax obj value: 0.141
# Max RMSD: 0.269
# Mean RMSD: 0.154
data_MOF--net-gar--node1-QUQFOY_clean_sbu_3--node2-PAMTOO_clean_sbu_0--edge1-KIFKEQ_clean_linker_1
_symmetry_space_group_name_H-M    P1
_symmetry_Int_Tables_number       1
_symmetry_cell_setting            triclinic
loop_
_symmetry_equiv_pos_as_xyz
'x, y, z'
_cell_length_a     60.875529
_cell_length_b     61.724787
_cell_length_c     59.42877
_cell_angle_alpha  96.785608
_cell_angle_beta   95.471294
_cell_angle_gamma 104.83093
loop_
_atom_site_label
_atom_site_type_symbol
_atom_site_fract_x
_atom_site_fract_y
_atom_site_fract_z
_atom_type_partial_charge
C0 C 0.00702 0.32517 0.32817 0.0
O1 O 0.01983 0.33528 0.31485 0.0
Cd2 Cd 0.06051 0.34983 0.3286 0.0
O3 O 0.01624 0.32007 0.34634 0.0
Cd4 Cd 0.05724 0.32277 0.36429 0.0
C5 C 0.06194 0.37897 0.381 0.0
O6 O 0.08139 0.32087 0.33147 0.0
O7 O 0.09937 0.33007 0.36569 0.0
O8 O 0.04327 0.2824 0.369 0.0
C9 C 0.1002 0.32453 0.34461 0.0
O10 O 0.06437 0.38085 0.36023 0.0
C11 C 0.04947 0.28544 0.39043 0.0
O12 O 0.05882 0.35956 0.38745 0.0
O13 O 0.0591 0.30573 0.39968 0.0
C14 C 0.97309 0.75279 0.72082 0.0
O15 O 0.98246 0.74026 0.73163 0.0
Cd16 Cd 0.01849 0.73367 0.72167 0.0
O17 O 0.98299 0.76181 0.70482 0.0
Cd18 Cd 0.02048 0.76098 0.68743 0.0
C19 C 0.01031 0.70409 0.66895 0.0
O20 O 0.05121 0.7665 0.72172 0.0
O21 O 0.05968 0.75645 0.68848 0.0
O22 O 0.02637 0.8012 0.68164 0.0
C23 C 0.06651 0.76311 0.70956 0.0
O24 O 0.01432 0.7029 0.69011 0.0
C25 C 0.0252 0.79753 0.66002 0.0
O26 O 0.0093 0.72296 0.66277 0.0
O27 O 0.02181 0.77702 0.65115 0.0
C28 C 0.50243 0.82579 0.83036 0.0
O29 O 0.51585 0.8389 0.81964 0.0
Cd30 Cd 0.55667 0.85149 0.83193 0.0
O31 O 0.51091 0.81777 0.84699 0.0
Cd32 Cd 0.5518 0.82223 0.86672 0.0
C33 C 0.55593 0.87862 0.88443 0.0
O34 O 0.57549 0.82082 0.83378 0.0
O35 O 0.59429 0.83084 0.86749 0.0
O36 O 0.53868 0.78188 0.87222 0.0
C37 C 0.59465 0.8249 0.84639 0.0
O38 O 0.56042 0.88145 0.86434 0.0
C39 C 0.54543 0.78531 0.89357 0.0
O40 O 0.55157 0.85874 0.88993 0.0
O41 O 0.55492 0.80575 0.90239 0.0
C42 C 0.48008 0.25818 0.22286 0.0
O43 O 0.4887 0.24452 0.23266 0.0
Cd44 Cd 0.52418 0.23725 0.22239 0.0
O45 O 0.49023 0.26776 0.20729 0.0
Cd46 Cd 0.52656 0.26531 0.18873 0.0
C47 C 0.51259 0.20846 0.16914 0.0
O48 O 0.55717 0.26992 0.22259 0.0
O49 O 0.56513 0.25872 0.18948 0.0
O50 O 0.53294 0.30553 0.18282 0.0
C51 C 0.57219 0.2658 0.21046 0.0
O52 O 0.51761 0.2068 0.19003 0.0
C53 C 0.53221 0.30174 0.16125 0.0
O54 O 0.51234 0.22774 0.1636 0.0
O55 O 0.52892 0.28121 0.15253 0.0
C56 C 0.04235 0.79864 0.15311 0.0
O57 O 0.05673 0.79033 0.16351 0.0
Cd58 Cd 0.09411 0.79045 0.15541 0.0
O59 O 0.04736 0.80882 0.13593 0.0
Cd60 Cd 0.0817 0.81877 0.11345 0.0
C61 C 0.07838 0.7608 0.10028 0.0
O62 O 0.11003 0.82734 0.14759 0.0
O63 O 0.12442 0.82256 0.11661 0.0
O64 O 0.07142 0.85569 0.11365 0.0
C65 C 0.12777 0.82718 0.13825 0.0
O66 O 0.08755 0.7629 0.12089 0.0
C67 C 0.07542 0.85942 0.09368 0.0
O68 O 0.0723 0.77736 0.09264 0.0
O69 O 0.08207 0.84413 0.08205 0.0
C70 C 0.45996 0.77093 0.40161 0.0
O71 O 0.47399 0.78099 0.38926 0.0
Cd72 Cd 0.51367 0.79736 0.39909 0.0
O73 O 0.46693 0.76675 0.42134 0.0
Cd74 Cd 0.50668 0.77126 0.44491 0.0
C75 C 0.51321 0.82984 0.45181 0.0
O76 O 0.52643 0.76755 0.41165 0.0
O77 O 0.54908 0.78244 0.44248 0.0
O78 O 0.49463 0.72954 0.44704 0.0
C79 C 0.54682 0.77494 0.42135 0.0
O80 O 0.5158 0.82706 0.43073 0.0
C81 C 0.50373 0.73013 0.46732 0.0
O82 O 0.50893 0.81262 0.46261 0.0
O83 O 0.51284 0.74995 0.47833 0.0
C84 C 0.53988 0.29673 0.65023 0.0
O85 O 0.55268 0.28716 0.66125 0.0
Cd86 Cd 0.59005 0.2853 0.65533 0.0
O87 O 0.5466 0.30719 0.63367 0.0
Cd88 Cd 0.58137 0.31677 0.61174 0.0
C89 C 0.575 0.25758 0.59888 0.0
O90 O 0.60614 0.32207 0.64748 0.0
O91 O 0.62506 0.32534 0.61909 0.0
O92 O 0.56661 0.3513 0.61055 0.0
C93 C 0.62545 0.32509 0.64045 0.0
O94 O 0.58105 0.25851 0.62016 0.0
C95 C 0.57335 0.35692 0.59196 0.0
O96 O 0.57301 0.27543 0.59049 0.0
O97 O 0.58379 0.34395 0.58186 0.0
C98 C 0.96265 0.2802 0.90599 0.0
O99 O 0.97703 0.29248 0.89545 0.0
Cd100 Cd 0.01705 0.30633 0.90367 0.0
O101 O 0.96923 0.27222 0.92373 0.0
Cd102 Cd 0.00902 0.27471 0.94669 0.0
C103 C 0.01529 0.33371 0.95812 0.0
O104 O 0.02822 0.27449 0.91298 0.0
O105 O 0.05142 0.28492 0.94407 0.0
O106 O 0.9988 0.23257 0.9468 0.0
C107 C 0.04871 0.28012 0.92246 0.0
O108 O 0.01832 0.33346 0.93719 0.0
C109 C 0.00692 0.23266 0.96734 0.0
O110 O 0.01133 0.31524 0.96699 0.0
O111 O 0.01447 0.25223 0.97929 0.0
C112 C 0.44014 0.06183 0.3361 0.0
O113 O 0.4501 0.05605 0.31945 0.0
Cd114 Cd 0.4335 0.04282 0.28081 0.0
O115 O 0.4191 0.06179 0.33314 0.0
Cd116 Cd 0.38729 0.05396 0.30143 0.0
C117 C 0.38886 0.99913 0.29124 0.0
O118 O 0.41062 0.06738 0.27349 0.0
O119 O 0.3763 0.04886 0.25955 0.0
O120 O 0.37491 0.08653 0.31619 0.0
C121 C 0.39624 0.05898 0.25588 0.0
O122 O 0.4073 0.00571 0.28244 0.0
C123 C 0.35428 0.07549 0.31661 0.0
O124 O 0.37916 0.0133 0.30045 0.0
O125 O 0.34915 0.05418 0.31048 0.0
C126 C 0.31117 0.15989 0.53878 0.0
O127 O 0.29431 0.14929 0.54779 0.0
Cd128 Cd 0.25662 0.15347 0.54548 0.0
O129 O 0.30931 0.17552 0.52697 0.0
Cd130 Cd 0.27798 0.19388 0.51571 0.0
C131 C 0.27016 0.20925 0.57145 0.0
O132 O 0.24877 0.15847 0.50721 0.0
O133 O 0.23554 0.18755 0.50876 0.0
O134 O 0.28714 0.19328 0.47645 0.0
C135 C 0.23153 0.16616 0.50469 0.0
O136 O 0.2602 0.18831 0.57077 0.0
C137 C 0.28987 0.21419 0.47547 0.0
O138 O 0.27993 0.21641 0.55456 0.0
O139 O 0.28826 0.22639 0.49374 0.0
C140 C 0.09651 0.05647 0.82464 0.0
O141 O 0.08589 0.06768 0.81325 0.0
Cd142 Cd 0.09311 0.07698 0.77597 0.0
O143 O 0.11215 0.04898 0.8163 0.0
Cd144 Cd 0.13005 0.05122 0.77986 0.0
C145 C 0.14875 0.10843 0.78803 0.0
O146 O 0.09627 0.04498 0.75036 0.0
O147 O 0.12957 0.05831 0.74028 0.0
O148 O 0.13497 0.01271 0.77884 0.0
C149 C 0.10815 0.05065 0.73448 0.0
O150 O 0.1281 0.10797 0.78137 0.0
C151 C 0.15651 0.01885 0.7786 0.0
O152 O 0.15405 0.0902 0.79095 0.0
O153 O 0.16559 0.03989 0.77925 0.0
C154 C 0.29764 0.95435 -0.00221 0.0
O155 O 0.2838 0.96479 0.99002 0.0
Cd156 Cd 0.24349 0.9491 0.98986 0.0
O157 O 0.29019 0.93584 0.00553 0.0
Cd158 Cd 0.25432 0.90977 0.01239 0.0
C159 C 0.23533 0.89871 0.95581 0.0
O160 O 0.2413 0.94068 0.02881 0.0
O161 O 0.21663 0.90785 0.02554 0.0
O162 O 0.27896 0.90347 0.04391 0.0
C163 C 0.22269 0.92873 0.03373 0.0
O164 O 0.23271 0.91859 0.95687 0.0
C165 C 0.27211 0.88201 0.03975 0.0
O166 O 0.24309 0.89206 0.97352 0.0
O167 O 0.25636 0.8734 0.02314 0.0
C168 C 0.34114 0.4278 0.04388 0.0
O169 O 0.33075 0.43842 0.03147 0.0
Cd170 Cd 0.29282 0.42509 0.0131 0.0
O171 O 0.33095 0.40861 0.04926 0.0
Cd172 Cd 0.29052 0.38265 0.04541 0.0
C173 C 0.29472 0.37129 0.98817 0.0
O174 O 0.27559 0.41437 0.04511 0.0
O175 O 0.24887 0.3833 0.03972 0.0
O176 O 0.2989 0.38345 0.08646 0.0
C177 C 0.25443 0.40477 0.04185 0.0
O178 O 0.29476 0.39185 0.98744 0.0
C179 C 0.29058 0.36246 0.08689 0.0
O180 O 0.29301 0.36284 0.00679 0.0
O181 O 0.28274 0.35012 0.06764 0.0
C182 C 0.80364 0.10335 0.05461 0.0
O183 O 0.79103 0.09617 0.06946 0.0
Cd184 Cd 0.76214 0.11184 0.08259 0.0
O185 O 0.80218 0.12096 0.04592 0.0
Cd186 Cd 0.77823 0.14786 0.04938 0.0
C187 C 0.79241 0.16579 0.10593 0.0
O188 O 0.74394 0.11739 0.04722 0.0
O189 O 0.73894 0.15067 0.05366 0.0
O190 O 0.78028 0.15265 0.00929 0.0
C191 C 0.73017 0.12946 0.04923 0.0
O192 O 0.78008 0.1466 0.10894 0.0
C193 C 0.78493 0.17412 0.0131 0.0
O194 O 0.79582 0.17002 0.08596 0.0
O195 O 0.78742 0.1832 0.03379 0.0
C196 C 0.12799 0.55764 0.27904 0.0
O197 O 0.11432 0.55797 0.26159 0.0
Cd198 Cd 0.11863 0.54609 0.223 0.0
O199 O 0.14493 0.54925 0.27716 0.0
Cd200 Cd 0.16332 0.53087 0.24806 0.0
C201 C 0.17335 0.58136 0.22747 0.0
O202 O 0.12808 0.51133 0.22558 0.0
O203 O 0.15735 0.5081 0.20956 0.0
O204 O 0.17242 0.50724 0.27552 0.0
C205 C 0.1357 0.50367 0.2082 0.0
O206 O 0.15225 0.57679 0.21936 0.0
C207 C 0.19345 0.51136 0.27264 0.0
O208 O 0.18093 0.56772 0.23846 0.0
O209 O 0.20021 0.52442 0.25822 0.0
C210 C 0.83461 0.93184 0.54456 0.0
O211 O 0.82378 0.94335 0.53385 0.0
Cd212 Cd 0.78594 0.92959 0.51544 0.0
O213 O 0.82474 0.91197 0.5485 0.0
Cd214 Cd 0.78461 0.88586 0.54505 0.0
C215 C 0.78978 0.87705 0.48811 0.0
O216 O 0.76818 0.91677 0.5464 0.0
O217 O 0.74284 0.88496 0.53676 0.0
O218 O 0.79486 0.8865 0.58593 0.0
C219 C 0.74731 0.90638 0.54097 0.0
O220 O 0.78878 0.89748 0.48847 0.0
C221 C 0.78536 0.86578 0.58657 0.0
O222 O 0.78861 0.8677 0.50624 0.0
O223 O 0.77597 0.85369 0.56753 0.0
C224 C 0.98318 0.03357 0.30729 0.0
O225 O 0.99212 0.02269 0.29293 0.0
Cd226 Cd 0.98075 0.01518 0.25223 0.0
O227 O 0.96731 0.04231 0.30044 0.0
Cd228 Cd 0.94534 0.04382 0.26269 0.0
C229 C 0.92537 0.98603 0.25375 0.0
O230 O 0.9768 0.04939 0.2386 0.0
O231 O 0.94264 0.04266 0.22095 0.0
O232 O 0.94131 0.08186 0.27647 0.0
C233 C 0.96399 0.04741 0.2199 0.0
O234 O 0.94494 0.98529 0.24836 0.0
C235 C 0.91956 0.07611 0.27202 0.0
O236 O 0.9215 0.00491 0.26042 0.0
O237 O 0.91013 0.05559 0.2635 0.0
C238 C 0.32928 0.62564 0.54239 0.0
O239 O 0.32484 0.61595 0.55972 0.0
Cd240 Cd 0.29354 0.61999 0.57994 0.0
O241 O 0.3181 0.63913 0.53609 0.0
Cd242 Cd 0.28773 0.65424 0.5505 0.0
C243 C 0.31069 0.67461 0.60464 0.0
O244 O 0.26023 0.61798 0.55333 0.0
O245 O 0.25238 0.64868 0.56719 0.0
O246 O 0.27573 0.65669 0.51099 0.0
C247 C 0.24571 0.62744 0.56101 0.0
O248 O 0.30491 0.65404 0.60791 0.0
C249 C 0.27642 0.67754 0.51442 0.0
O250 O 0.30871 0.67958 0.58454 0.0
O251 O 0.28258 0.6877 0.53476 0.0
C252 C 0.48145 0.53695 0.81239 0.0
O253 O 0.49173 0.52761 0.79814 0.0
Cd254 Cd 0.47901 0.51936 0.75763 0.0
O255 O 0.46447 0.54409 0.80534 0.0
Cd256 Cd 0.44308 0.54615 0.76756 0.0
C257 C 0.42368 0.48886 0.75863 0.0
O258 O 0.47436 0.55298 0.74316 0.0
O259 O 0.43988 0.54268 0.72571 0.0
O260 O 0.43923 0.58416 0.78162 0.0
C261 C 0.46115 0.54936 0.72445 0.0
O262 O 0.44343 0.48869 0.75332 0.0
C263 C 0.41753 0.57864 0.77679 0.0
O264 O 0.41941 0.50745 0.76561 0.0
O265 O 0.40802 0.55827 0.76783 0.0
C266 C 0.62224 0.04822 0.77588 0.0
O267 O 0.61174 0.05032 0.75708 0.0
Cd268 Cd 0.62326 0.04395 0.72024 0.0
O269 O 0.6403 0.04132 0.77642 0.0
Cd270 Cd 0.66499 0.02946 0.74951 0.0
C271 C 0.67553 0.0826 0.73508 0.0
O272 O 0.63415 0.00963 0.72111 0.0
O273 O 0.66692 0.01437 0.70925 0.0
O274 O 0.67401 1.00223 0.77292 0.0
C275 C 0.64534 0.00647 0.70481 0.0
O276 O 0.65624 0.07727 0.72247 0.0
C277 C 0.69559 0.01037 0.7741 0.0
O278 O 0.68151 0.06861 0.74677 0.0
O279 O 0.70262 0.02715 0.76371 0.0
C280 C 0.81057 0.66802 0.03645 0.0
O281 O 0.79332 0.65596 0.0438 0.0
Cd282 Cd 0.75526 0.65883 0.04041 0.0
O283 O 0.80883 0.68451 0.02582 0.0
Cd284 Cd 0.77696 0.70241 0.01438 0.0
C285 C 0.76705 0.71346 0.0699 0.0
O286 O 0.74926 0.66604 0.00269 0.0
O287 O 0.7345 0.694 0.00501 0.0
O288 O 0.79466 0.70827 0.97911 0.0
C289 C 0.73146 0.67282 5e-05 0.0
O290 O 0.75764 0.69223 0.06744 0.0
C291 C 0.79029 0.72702 0.97708 0.0
O292 O 0.77727 0.72236 0.05401 0.0
O293 O 0.78096 0.73515 0.99309 0.0
C294 C 0.95946 0.56066 0.83122 0.0
O295 O 0.96794 0.55203 0.81483 0.0
Cd296 Cd 0.9492 0.53651 0.77721 0.0
O297 O 0.9389 0.56219 0.8286 0.0
Cd298 Cd 0.90631 0.55267 0.79774 0.0
C299 C 0.90359 0.49699 0.79218 0.0
O300 O 0.92785 0.56164 0.76699 0.0
O301 O 0.89305 0.542 0.7566 0.0
O302 O 0.89616 0.58762 0.80712 0.0
C303 C 0.91223 0.5516 0.75079 0.0
O304 O 0.92141 0.5015 0.78204 0.0
C305 C 0.87526 0.57821 0.80842 0.0
O306 O 0.89562 0.51269 0.8011 0.0
O307 O 0.86918 0.55671 0.80629 0.0
C308 C 0.81279 0.46054 0.49045 0.0
O309 O 0.79931 0.47095 0.48186 0.0
Cd310 Cd 0.75879 0.45823 0.48345 0.0
O311 O 0.80511 0.44338 0.5002 0.0
Cd312 Cd 0.76986 0.41968 0.51067 0.0
C313 C 0.74698 0.40442 0.45495 0.0
O314 O 0.75782 0.45258 0.523 0.0
O315 O 0.73448 0.42075 0.5269 0.0
O316 O 0.79462 0.41485 0.54309 0.0
C317 C 0.73975 0.44223 0.5303 0.0
O318 O 0.74568 0.42457 0.45414 0.0
C319 C 0.78772 0.39336 0.53971 0.0
O320 O 0.75517 0.39901 0.47324 0.0
O321 O 0.77211 0.38422 0.52309 0.0
C322 C 0.59876 0.55673 0.32962 0.0
O323 O 0.58811 0.56748 0.31763 0.0
Cd324 Cd 0.59614 0.57738 0.28061 0.0
O325 O 0.61489 0.54956 0.32192 0.0
Cd326 Cd 0.63336 0.55135 0.28561 0.0
C327 C 0.65195 0.60872 0.29267 0.0
O328 O 0.60011 0.54582 0.25525 0.0
O329 O 0.63403 0.55678 0.24563 0.0
O330 O 0.63763 0.51249 0.28276 0.0
C331 C 0.61258 0.55048 0.23955 0.0
O332 O 0.63123 0.60805 0.28607 0.0
C333 C 0.65941 0.51854 0.28526 0.0
O334 O 0.65745 0.59064 0.29588 0.0
O335 O 0.66893 0.53971 0.28844 0.0
Dy336 Dy 0.06855 0.05971 0.03918 0.0
Dy337 Dy 0.01884 0.03032 0.01369 0.0
C338 C 0.06016 0.04372 0.98593 0.0
O339 O 0.05182 0.08738 0.03234 0.0
O340 O 0.01984 0.06628 0.00802 0.0
O341 O 0.1051 0.06944 0.03892 0.0
O342 O 0.09048 0.08243 0.06776 0.0
O343 O 0.01144 0.04507 0.04746 0.0
O344 O 0.04715 0.05046 0.06692 0.0
O345 O 0.0315 0.00615 0.03368 0.0
O346 O 0.06992 0.02306 0.03744 0.0
O347 O 0.99016 1.0006 0.00956 0.0
O348 O 0.99184 0.0243 0.98537 0.0
C349 C 0.03349 0.08608 0.01791 0.0
O350 O 0.06836 0.06137 0.0018 0.0
O351 O 0.04452 0.02625 0.9901 0.0
C352 C 0.12364 0.06983 0.07499 0.0
C353 C 0.1477 0.04017 0.09085 0.0
C354 C 0.15841 0.05773 0.07913 0.0
C355 C 0.14647 0.07246 0.07133 0.0
C356 C 0.11367 0.05389 0.08867 0.0
C357 C 0.1257 0.03931 0.09672 0.0
C358 C 0.10902 0.07929 0.06012 0.0
C359 C 0.02518 0.04867 0.06676 0.0
C360 C 0.05275 0.00537 0.03869 0.0
C361 C 0.95622 0.00925 -0.00297 0.0
C362 C 0.91474 0.01912 0.00443 0.0
C363 C 0.93202 0.02186 0.02279 0.0
C364 C 0.95255 0.01703 0.01911 0.0
C365 C 0.93883 0.00577 0.97869 0.0
C366 C 0.91815 0.0107 0.98236 0.0
C367 C 0.97901 0.00718 0.99307 0.0
H368 H 0.17523 0.05887 0.07405 0.0
H369 H 0.15434 0.08448 0.0606 0.0
H370 H 0.09596 0.05141 0.0916 0.0
H371 H 0.11713 0.02633 0.10612 0.0
H372 H 0.93016 0.0288 0.0399 0.0
H373 H 0.96588 0.02017 0.03346 0.0
H374 H 0.94152 0.99997 0.96151 0.0
H375 H 0.90506 0.00839 0.96793 0.0
Dy376 Dy 0.3034 0.78252 0.25153 0.0
Dy377 Dy 0.274 0.79208 0.29327 0.0
C378 C 0.30955 0.83253 0.27553 0.0
O379 O 0.32665 0.78668 0.28419 0.0
O380 O 0.29968 0.77515 0.30764 0.0
O381 O 0.33501 0.78852 0.23672 0.0
O382 O 0.30529 0.76178 0.22029 0.0
O383 O 0.25634 0.75763 0.27432 0.0
O384 O 0.28804 0.74938 0.26239 0.0
O385 O 0.2584 0.80569 0.26437 0.0
O386 O 0.2703 0.78653 0.23429 0.0
O387 O 0.24193 0.78786 0.30722 0.0
O388 O 0.27359 0.80765 0.32766 0.0
C389 C 0.32095 0.77907 0.30314 0.0
O390 O 0.30822 0.81971 0.25596 0.0
O391 O 0.30102 0.82423 0.29316 0.0
C392 C 0.32881 0.78166 0.19626 0.0
C393 C 0.32763 0.79656 0.1534 0.0
C394 C 0.33584 0.81223 0.17346 0.0
C395 C 0.33633 0.80487 0.19473 0.0
C396 C 0.32199 0.7659 0.17616 0.0
C397 C 0.32127 0.7733 0.15486 0.0
C398 C 0.32588 0.7738 0.21846 0.0
C399 C 0.26669 0.74289 0.26605 0.0
C400 C 0.25684 0.79843 0.24238 0.0
C401 C 0.24716 0.78418 0.34622 0.0
C402 C 0.2464 0.75953 0.38314 0.0
C403 C 0.24357 0.74843 0.36058 0.0
C404 C 0.24412 0.76066 0.3423 0.0
C405 C 0.24872 0.79515 0.36858 0.0
C406 C 0.24831 0.78291 0.38695 0.0
C407 C 0.25199 0.79758 0.3276 0.0
H408 H 0.34053 0.83029 0.17283 0.0
H409 H 0.3416 0.81744 0.20994 0.0
H410 H 0.3162 0.74792 0.17699 0.0
H411 H 0.31495 0.76091 0.1396 0.0
H412 H 0.24167 0.73038 0.35709 0.0
H413 H 0.24313 0.75186 0.32518 0.0
H414 H 0.25136 0.81333 0.37191 0.0
H415 H 0.25071 0.79195 0.40415 0.0
Dy416 Dy 0.51777 0.03946 0.53689 0.0
Dy417 Dy 0.5657 0.04845 0.51425 0.0
C418 C 0.52076 0.0537 0.48714 0.0
O419 O 0.5223 0.00438 0.52864 0.0
O420 O 0.54559 0.01225 0.50082 0.0
O421 O 0.48144 0.0238 0.53489 0.0
O422 O 0.49952 0.04747 0.56476 0.0
O423 O 0.57049 0.02993 0.54323 0.0
O424 O 0.54501 0.04023 0.5652 0.0
O425 O 0.56747 0.08217 0.5351 0.0
O426 O 0.52899 0.07698 0.53612 0.0
O427 O 0.60265 0.06028 0.51869 0.0
O428 O 0.58396 0.04538 0.48514 0.0
C429 C 0.53232 0.99748 0.51152 0.0
O430 O 0.509 0.04005 0.4997 0.0
O431 O 0.54294 0.06236 0.49213 0.0
C432 C 0.46324 0.05016 0.55088 0.0
C433 C 0.43438 0.07917 0.54806 0.0
C434 C 0.45024 0.0786 0.53243 0.0
C435 C 0.46461 0.06429 0.5339 0.0
C436 C 0.4473 0.05044 0.56632 0.0
C437 C 0.43296 0.06482 0.56492 0.0
C438 C 0.4796 0.0365 0.55342 0.0
C439 C 0.56275 0.03217 0.56287 0.0
C440 C 0.54993 0.09044 0.53862 0.0
C441 C 0.61737 0.03476 0.49662 0.0
C442 C 0.64329 1.00317 0.50055 0.0
C443 C 0.65422 0.02638 0.50137 0.0
C444 C 0.64135 0.04203 0.49943 0.0
C445 C 0.60641 0.01158 0.49527 0.0
C446 C 0.61922 0.99593 0.49706 0.0
C447 C 0.60384 0.05138 0.49794 0.0
H448 H 0.45192 0.0896 0.51942 0.0
H449 H 0.47707 0.06453 0.52201 0.0
H450 H 0.44615 0.03977 0.57962 0.0
H451 H 0.42071 0.06466 0.57702 0.0
H452 H 0.67273 0.0326 0.5044 0.0
H453 H 0.6501 0.05989 0.50092 0.0
H454 H 0.58791 0.00561 0.49348 0.0
H455 H 0.61022 0.97819 0.49604 0.0
Dy456 Dy 0.31272 0.28958 0.78031 0.0
Dy457 Dy 0.26524 0.30682 0.77718 0.0
C458 C 0.31358 0.34037 0.77396 0.0
O459 O 0.30591 0.29358 0.81679 0.0
O460 O 0.281 0.31612 0.81378 0.0
O461 O 0.3491 0.2955 0.79107 0.0
O462 O 0.32999 0.26447 0.76934 0.0
O463 O 0.25744 0.27536 0.79302 0.0
O464 O 0.28333 0.25854 0.77806 0.0
O465 O 0.2657 0.28765 0.74275 0.0
O466 O 0.30452 0.2944 0.74412 0.0
O467 O 0.22879 0.29916 0.76638 0.0
O468 O 0.24742 0.33248 0.78417 0.0
C469 C 0.29425 0.30681 0.82604 0.0
O470 O 0.32299 0.32724 0.78515 0.0
O471 O 0.29181 0.33395 0.76545 0.0
C472 C 0.36785 0.2811 0.76193 0.0
C473 C 0.40185 0.28802 0.73214 0.0
C474 C 0.37863 0.27841 0.72343 0.0
C475 C 0.36181 0.27507 0.73813 0.0
C476 C 0.39101 0.29087 0.77065 0.0
C477 C 0.40783 0.29438 0.75592 0.0
C478 C 0.35026 0.27757 0.77775 0.0
C479 C 0.26442 0.25732 0.78741 0.0
C480 C 0.28398 0.28824 0.73244 0.0
C481 C 0.20997 0.31673 0.79287 0.0
C482 C 0.1762 0.31086 0.82291 0.0
C483 C 0.17002 0.30939 0.7992 0.0
C484 C 0.18674 0.3123 0.78436 0.0
C485 C 0.21627 0.3183 0.81649 0.0
C486 C 0.19959 0.31546 0.83136 0.0
C487 C 0.2273 0.31841 0.77691 0.0
H488 H 0.37343 0.27354 0.7052 0.0
H489 H 0.34408 0.26772 0.7308 0.0
H490 H 0.39611 0.29572 0.7889 0.0
H491 H 0.42559 0.30159 0.7632 0.0
H492 H 0.1522 0.30549 0.79198 0.0
H493 H 0.18149 0.31075 0.76617 0.0
H494 H 0.2341 0.32159 0.82345 0.0
H495 H 0.20505 0.317 0.8495 0.0
Dy496 Dy 0.04317 0.0157 0.521 0.0
Dy497 Dy 0.02746 0.06397 0.52555 0.0
C498 C 0.99355 0.01783 0.53408 0.0
O499 O 0.03807 0.02339 0.48514 0.0
O500 O 0.01259 0.04466 0.49085 0.0
O501 O 0.03693 0.98001 0.50792 0.0
O502 O 0.06769 0.99766 0.53097 0.0
O503 O 0.05819 0.06915 0.5074 0.0
O504 O 0.07486 0.04445 0.52344 0.0
O505 O 0.0468 0.06311 0.55956 0.0
O506 O 0.04006 0.02462 0.55769 0.0
O507 O 0.03692 0.1001 0.53656 0.0
O508 O 1.00308 0.0833 0.5186 0.0
C509 C 0.02245 0.03289 0.47715 0.0
O510 O 0.00557 0.0064 0.52279 0.0
O511 O 1.00043 0.03995 0.54002 0.0
C512 C 0.05051 0.95959 0.53507 0.0
C513 C 0.04367 0.92427 0.56234 0.0
C514 C 0.04377 0.9464 0.57155 0.0
C515 C 0.04704 0.96383 0.55805 0.0
C516 C 0.05021 0.93754 0.52575 0.0
C517 C 0.04678 0.92005 0.5392 0.0
C518 C 0.05468 0.97803 0.52085 0.0
C519 C 0.07638 0.06254 0.51341 0.0
C520 C 0.04616 0.04501 0.56949 0.0
C521 C 0.02039 0.12046 0.51163 0.0
C522 C 0.02575 0.1556 0.48419 0.0
C523 C 0.03884 0.1398 0.48216 0.0
C524 C 0.03614 0.1224 0.49569 0.0
C525 C 0.00712 0.13593 0.51355 0.0
C526 C 0.00973 0.15328 0.49998 0.0
C527 C 0.01791 0.10268 0.52656 0.0
H528 H 0.04111 0.95022 0.58918 0.0
H529 H 0.04699 0.98066 0.56562 0.0
H530 H 0.05283 0.93387 0.50807 0.0
H531 H 0.04701 0.9033 0.53157 0.0
H532 H 0.05153 0.14112 0.47044 0.0
H533 H 0.04655 0.11061 0.49388 0.0
H534 H 0.99477 0.13466 0.52565 0.0
H535 H 0.99904 0.1648 0.50178 0.0
Dy536 Dy 0.28718 0.81959 0.76826 0.0
Dy537 Dy 0.27901 0.77109 0.78835 0.0
C538 C 0.27082 0.81414 0.81718 0.0
O539 O 0.32252 0.81484 0.77534 0.0
O540 O 0.31504 0.7916 0.80267 0.0
O541 O 0.30275 0.85577 0.77258 0.0
O542 O 0.28 0.83881 0.74178 0.0
O543 O 0.29852 0.76853 0.75894 0.0
O544 O 0.28656 0.79349 0.73855 0.0
O545 O 0.24554 0.76928 0.76691 0.0
O546 O 0.24923 0.80734 0.76874 0.0
O547 O 0.26651 0.73466 0.78223 0.0
O548 O 0.28344 0.75175 0.81575 0.0
C549 C 0.32973 0.80499 0.79199 0.0
O550 O 0.28513 0.82659 0.80557 0.0
O551 O 0.26322 0.7921 0.81139 0.0
C552 C 0.27737 0.8748 0.75705 0.0
C553 C 0.25139 0.90644 0.76275 0.0
C554 C 0.24236 0.88389 0.76614 0.0
C555 C 0.25528 0.86826 0.76343 0.0
C556 C 0.28654 0.89729 0.75378 0.0
C557 C 0.27368 0.91302 0.75667 0.0
C558 C 0.29083 0.85822 0.75409 0.0
C559 C 0.29579 0.77659 0.7398 0.0
C560 C 0.23643 0.78629 0.76469 0.0
C561 C 0.29131 0.71753 0.80182 0.0
C562 C 0.32055 0.68856 0.80028 0.0
C563 C 0.32256 0.7056 0.78621 0.0
C564 C 0.30818 0.71998 0.78706 0.0
C565 C 0.28932 0.70078 0.81606 0.0
C566 C 0.30383 0.68644 0.81535 0.0
C567 C 0.27586 0.73241 0.80222 0.0
H568 H 0.2254 0.87838 0.77115 0.0
H569 H 0.24799 0.85103 0.7663 0.0
H570 H 0.3036 0.90265 0.74895 0.0
H571 H 0.28102 0.93024 0.7538 0.0
H572 H 0.33492 0.70758 0.77414 0.0
H573 H 0.31008 0.73287 0.77597 0.0
H574 H 0.27652 0.69876 0.8277 0.0
H575 H 0.30201 0.67377 0.82668 0.0
Dy576 Dy 0.51198 0.05367 0.00039 0.0
Dy577 Dy 0.51664 0.02382 0.04142 0.0
C578 C 0.5238 0.00599 0.99061 0.0
O579 O 0.47838 0.02818 -0.00217 0.0
O580 O 0.48016 0.02462 0.03557 0.0
O581 O 0.50039 0.05588 0.96549 0.0
O582 O 0.51759 0.08637 0.98907 0.0
O583 O 0.52008 0.05919 0.05824 0.0
O584 O 0.49948 0.07081 0.03015 0.0
O585 O 0.55232 0.036 0.03348 0.0
O586 O 0.54755 0.06713 0.01813 0.0
O587 O 0.53168 0.01984 0.07458 0.0
O588 O 0.50412 0.99276 0.05513 0.0
C589 C 0.4683 0.02221 0.01545 0.0
O590 O 0.52842 0.02702 0.98628 0.0
O591 O 0.5147 1.0005 0.00902 0.0
C592 C 0.52649 0.08405 0.95153 0.0
C593 C 0.55568 0.08807 0.9176 0.0
C594 C 0.56394 0.08599 0.9399 0.0
C595 C 0.54941 0.08386 0.95671 0.0
C596 C 0.51854 0.08754 0.92974 0.0
C597 C 0.53308 0.08959 0.91285 0.0
C598 C 0.51032 0.07755 0.96779 0.0
C599 C 0.5088 0.0733 0.05152 0.0
C600 C 0.56076 0.05586 0.02728 0.0
C601 C 0.50165 1.00262 0.09357 0.0
C602 C 0.47334 0.00625 0.12763 0.0
C603 C 0.4737 0.01929 0.10982 0.0
C604 C 0.48778 0.01756 0.09306 0.0
C605 C 0.50143 0.98944 0.11122 0.0
C606 C 0.4874 0.99136 0.12833 0.0
C607 C 0.5158 1.00123 0.07519 0.0
H608 H 0.58134 0.08501 0.94408 0.0
H609 H 0.55577 0.08097 0.97344 0.0
H610 H 0.50082 0.08749 0.92547 0.0
H611 H 0.52618 0.09092 0.89573 0.0
H612 H 0.46352 0.03131 0.10915 0.0
H613 H 0.48797 0.02809 0.07972 0.0
H614 H 0.51208 0.97784 0.11181 0.0
H615 H 0.48746 0.98124 0.14202 0.0
Dy616 Dy 0.27571 0.26566 0.27064 0.0
Dy617 Dy 0.30289 0.31651 0.29496 0.0
C618 C 0.29509 0.27441 0.32356 0.0
O619 O 0.25223 0.27882 0.29255 0.0
O620 O 0.2655 0.31586 0.28878 0.0
O621 O 0.24341 0.23999 0.26077 0.0
O622 O 0.27497 0.233 0.25259 0.0
O623 O 0.30052 0.31841 0.25757 0.0
O624 O 0.27085 0.28699 0.24351 0.0
O625 O 0.33118 0.29979 0.28945 0.0
O626 O 0.3113 0.27179 0.2604 0.0
O627 O 0.32659 0.34934 0.29534 0.0
O628 O 0.30908 0.34213 0.32461 0.0
C629 C 0.24905 0.29915 0.29331 0.0
O630 O 0.29144 0.26027 0.30443 0.0
O631 O 0.29658 0.29599 0.3235 0.0
C632 C 0.24845 0.20391 0.26478 0.0
C633 C 0.25163 0.16748 0.28809 0.0
C634 C 0.24793 0.18716 0.29977 0.0
C635 C 0.24658 0.20532 0.28825 0.0
C636 C 0.24999 0.18361 0.25269 0.0
C637 C 0.2516 0.16554 0.26422 0.0
C638 C 0.25334 0.22448 0.25395 0.0
C639 C 0.28515 0.30616 0.24078 0.0
C640 C 0.33085 0.28418 0.27215 0.0
C641 C 0.31206 0.37744 0.31353 0.0
C642 C 0.28953 0.41184 0.31468 0.0
C643 C 0.28264 0.39311 0.29725 0.0
C644 C 0.29378 0.37605 0.29671 0.0
C645 C 0.31954 0.39641 0.33058 0.0
C646 C 0.3084 0.41367 0.33107 0.0
C647 C 0.32114 0.35777 0.31449 0.0
H648 H 0.24749 0.1891 0.31806 0.0
H649 H 0.24558 0.22096 0.29799 0.0
H650 H 0.25171 0.18233 0.23463 0.0
H651 H 0.25473 0.15085 0.25462 0.0
H652 H 0.26842 0.3915 0.28416 0.0
H653 H 0.28767 0.36142 0.2835 0.0
H654 H 0.33347 0.39754 0.34383 0.0
H655 H 0.31399 0.42798 0.34466 0.0
Dy656 Dy 0.54835 0.51902 0.02385 0.0
Dy657 Dy 0.53187 0.56706 0.03135 0.0
C658 C 0.49905 0.51996 0.03945 0.0
O659 O 0.54108 0.52715 0.98852 0.0
O660 O 0.51649 0.54901 0.99633 0.0
O661 O 0.54167 0.48359 0.00965 0.0
O662 O 0.57341 0.5008 0.03136 0.0
O663 O 0.56192 0.57327 0.01215 0.0
O664 O 0.5797 0.54784 0.02513 0.0
O665 O 0.5511 0.56541 0.0652 0.0
O666 O 0.54816 0.5272 0.06124 0.0
O667 O 0.54113 0.60305 0.04317 0.0
O668 O 0.50709 0.58628 0.02561 0.0
C669 C 0.5256 0.53733 0.98172 0.0
O670 O 0.51123 0.50904 0.02781 0.0
O671 O 0.50525 0.5421 0.04538 0.0
C672 C 0.55645 0.46278 0.03543 0.0
C673 C 0.55038 0.42733 0.06254 0.0
C674 C 0.55461 0.42363 0.03967 0.0
C675 C 0.55765 0.44118 0.0263 0.0
C676 C 0.5519 0.46652 0.05809 0.0
C677 C 0.54902 0.44906 0.07152 0.0
C678 C 0.55997 0.48132 0.02139 0.0
C679 C 0.58035 0.56638 0.01613 0.0
C680 C 0.55297 0.54715 0.07384 0.0
C681 C 0.52429 0.62341 0.01823 0.0
C682 C 0.52835 0.65781 0.9899 0.0
C683 C 0.54559 0.64653 0.99274 0.0
C684 C 0.54354 0.62947 0.00664 0.0
C685 C 0.50697 0.63448 0.01531 0.0
C686 C 0.50893 0.65144 0.00126 0.0
C687 C 0.52207 0.60565 0.0333 0.0
H688 H 0.55538 0.40709 0.03196 0.0
H689 H 0.56096 0.43787 0.00881 0.0
H690 H 0.55075 0.48302 0.06548 0.0
H691 H 0.54611 0.45277 0.08907 0.0
H692 H 0.56062 0.65074 0.98401 0.0
H693 H 0.55707 0.62107 0.00836 0.0
H694 H 0.49195 0.63008 0.02401 0.0
H695 H 0.49542 0.65987 -0.00036 0.0
Dy696 Dy 0.79286 0.32072 0.27076 0.0
Dy697 Dy 0.78394 0.27078 0.28943 0.0
C698 C 0.77352 0.31292 0.3176 0.0
O699 O 0.82582 0.3206 0.29199 0.0
O700 O 0.82153 0.2824 0.28711 0.0
O701 O 0.80715 0.35681 0.27964 0.0
O702 O 0.78945 0.34274 0.24556 0.0
O703 O 0.78896 0.26401 0.25306 0.0
O704 O 0.80489 0.29967 0.24401 0.0
O705 O 0.74815 0.27304 0.27841 0.0
O706 O 0.75596 0.30284 0.25754 0.0
O707 O 0.7683 0.23477 0.28652 0.0
O708 O 0.79271 0.25229 0.31605 0.0
C709 C 0.83467 0.30322 0.29218 0.0
O710 O 0.77135 0.32138 0.29868 0.0
O711 O 0.78356 0.29663 0.31903 0.0
C712 C 0.78341 0.37687 0.26278 0.0
C713 C 0.75543 0.40698 0.267 0.0
C714 C 0.75618 0.39184 0.28283 0.0
C715 C 0.7699 0.37689 0.28067 0.0
C716 C 0.7827 0.39181 0.24688 0.0
C717 C 0.76882 0.4067 0.24893 0.0
C718 C 0.79785 0.36104 0.26049 0.0
C719 C 0.79971 0.27746 0.23971 0.0
C720 C 0.74138 0.286 0.26457 0.0
C721 C 0.79454 0.21599 0.30109 0.0
C722 C 0.8221 0.18563 0.29594 0.0
C723 C 0.82188 0.20151 0.2808 0.0
C724 C 0.80831 0.21657 0.28342 0.0
C725 C 0.79453 0.20016 0.31615 0.0
C726 C 0.80817 0.1851 0.31361 0.0
C727 C 0.78124 0.23269 0.30452 0.0
H728 H 0.74642 0.39173 0.29715 0.0
H729 H 0.77003 0.36543 0.29311 0.0
H730 H 0.79281 0.3919 0.23283 0.0
H731 H 0.76842 0.41781 0.23619 0.0
H732 H 0.83209 0.20223 0.2668 0.0
H733 H 0.80866 0.2288 0.27173 0.0
H734 H 0.78421 0.19964 0.33006 0.0
H735 H 0.80813 0.17334 0.32577 0.0
Dy736 Dy 0.02963 0.55707 0.5031 0.0
Dy737 Dy 0.0305 0.52363 0.54144 0.0
C738 C 0.03802 0.50861 0.49 0.0
O739 O 0.99508 0.53253 0.49771 0.0
O740 O 0.99426 0.52473 0.53429 0.0
O741 O 0.0211 0.56291 0.46867 0.0
O742 O 0.03683 0.59125 0.4954 0.0
O743 O 0.03238 0.55789 0.56076 0.0
O744 O 0.01442 0.57148 0.53225 0.0
O745 O 0.06672 0.53508 0.53496 0.0
O746 O 0.06439 0.56846 0.52319 0.0
O747 O 0.04203 0.51696 0.57484 0.0
O748 O 0.01927 0.49001 0.55024 0.0
C749 C 0.98371 0.52477 0.51401 0.0
O750 O 0.04482 0.5301 0.48743 0.0
O751 O 0.02737 0.5026 0.50739 0.0
C752 C 0.048 0.59347 0.45892 0.0
C753 C 0.07909 0.60264 0.42713 0.0
C754 C 0.08637 0.59807 0.44878 0.0
C755 C 0.07088 0.59337 0.46453 0.0
C756 C 0.04105 0.59958 0.43803 0.0
C757 C 0.05651 0.60417 0.42221 0.0
C758 C 0.03086 0.58462 0.47352 0.0
C759 C 0.02176 0.57254 0.55397 0.0
C760 C 0.07648 0.55558 0.53114 0.0
C761 C 0.01223 0.49192 0.58823 0.0
C762 C 0.98376 0.49044 0.62281 0.0
C763 C 0.97708 0.49633 0.60161 0.0
C764 C 0.9912 0.49709 0.58455 0.0
C765 C 0.01849 0.48475 0.60879 0.0
C766 C 0.00427 0.48392 0.626 0.0
C767 C 0.02833 0.49649 0.57152 0.0
H768 H 0.10372 0.59699 0.4531 0.0
H769 H 0.07649 0.58858 0.48062 0.0
H770 H 0.02339 0.59959 0.43346 0.0
H771 H 0.05029 0.60734 0.40555 0.0
H772 H 0.96169 0.50188 0.59865 0.0
H773 H 0.98618 0.50282 0.56885 0.0
H774 H 0.03473 0.48074 0.61188 0.0
H775 H 0.00975 0.47911 0.64211 0.0
Dy776 Dy 0.8132 0.79101 0.28199 0.0
Dy777 Dy 0.76557 0.80779 0.27838 0.0
C778 C 0.81287 0.83925 0.26989 0.0
O779 O 0.81215 0.80977 0.31664 0.0
O780 O 0.77327 0.80356 0.31473 0.0
O781 O 0.84983 0.80056 0.29186 0.0
O782 O 0.83259 0.7666 0.27487 0.0
O783 O 0.75482 0.7707 0.27977 0.0
O784 O 0.78818 0.76356 0.29503 0.0
O785 O 0.77245 0.80112 0.24201 0.0
O786 O 0.79362 0.77583 0.24761 0.0
O787 O 0.73016 0.80354 0.26501 0.0
O788 O 0.74812 0.83251 0.29015 0.0
C789 C 0.79365 0.80913 0.32665 0.0
O790 O 0.81868 0.82075 0.26331 0.0
O791 O 0.79521 0.83854 0.28106 0.0
C792 C 0.86957 0.78332 0.26582 0.0
C793 C 0.90305 0.78651 0.23549 0.0
C794 C 0.88789 0.80032 0.23501 0.0
C795 C 0.87124 0.79866 0.24996 0.0
C796 C 0.8846 0.76953 0.26635 0.0
C797 C 0.90115 0.77108 0.25136 0.0
C798 C 0.85225 0.78149 0.28182 0.0
C799 C 0.76577 0.75777 0.2896 0.0
C800 C 0.78147 0.78499 0.23401 0.0
C801 C 0.70966 0.81553 0.29356 0.0
C802 C 0.67481 0.80687 0.32221 0.0
C803 C 0.692 0.79533 0.32284 0.0
C804 C 0.70927 0.79968 0.30873 0.0
C805 C 0.69262 0.82706 0.29277 0.0
C806 C 0.67536 0.8228 0.30696 0.0
C807 C 0.7283 0.82056 0.27928 0.0
H808 H 0.88871 0.81221 0.22289 0.0
H809 H 0.85969 0.80938 0.24914 0.0
H810 H 0.88361 0.7576 0.27846 0.0
H811 H 0.91272 0.76042 0.25246 0.0
H812 H 0.69201 0.78274 0.33408 0.0
H813 H 0.72241 0.79075 0.30971 0.0
H814 H 0.69278 0.83952 0.28134 0.0
H815 H 0.66266 0.83227 0.30622 0.0
Dy816 Dy 0.80395 0.28477 0.7527 0.0
Dy817 Dy 0.77596 0.29446 0.79544 0.0
C818 C 0.81114 0.33448 0.77717 0.0
O819 O 0.82774 0.28891 0.78508 0.0
O820 O 0.80118 0.27645 0.80849 0.0
O821 O 0.83589 0.29038 0.73857 0.0
O822 O 0.80542 0.26608 0.72002 0.0
O823 O 0.75802 0.25966 0.77774 0.0
O824 O 0.78829 0.25112 0.76224 0.0
O825 O 0.7594 0.30796 0.7669 0.0
O826 O 0.77018 0.2882 0.73651 0.0
O827 O 0.74494 0.29006 0.81135 0.0
O828 O 0.7772 0.31094 0.82982 0.0
C829 C 0.82241 0.28085 0.80392 0.0
O830 O 0.80819 0.32186 0.75722 0.0
O831 O 0.80379 0.32596 0.79514 0.0
C832 C 0.83078 0.2873 0.69834 0.0
C833 C 0.83299 0.30581 0.6574 0.0
C834 C 0.83839 0.32008 0.67853 0.0
C835 C 0.83716 0.31091 0.69884 0.0
C836 C 0.82654 0.27304 0.67731 0.0
C837 C 0.82753 0.28222 0.65695 0.0
C838 C 0.82655 0.27739 0.71931 0.0
C839 C 0.76769 0.24493 0.7681 0.0
C840 C 0.75707 0.30037 0.74488 0.0
C841 C 0.75359 0.28671 0.85007 0.0
C842 C 0.75781 0.26248 0.88671 0.0
C843 C 0.75421 0.25147 0.86407 0.0
C844 C 0.75225 0.26351 0.84591 0.0
C845 C 0.75621 0.29756 0.87262 0.0
C846 C 0.75833 0.28553 0.89085 0.0
C847 C 0.75611 0.30014 0.83124 0.0
H848 H 0.84229 0.33831 0.67933 0.0
H849 H 0.84033 0.32231 0.71484 0.0
H850 H 0.82157 0.25479 0.67662 0.0
H851 H 0.82334 0.27091 0.64083 0.0
H852 H 0.75407 0.23382 0.86035 0.0
H853 H 0.75078 0.25489 0.82863 0.0
H854 H 0.75763 0.31553 0.87613 0.0
H855 H 0.76091 0.29435 0.90817 0.0
Dy856 Dy 0.76925 0.76764 0.76936 0.0
Dy857 Dy 0.79898 0.81778 0.79275 0.0
C858 C 0.7907 0.77792 0.82162 0.0
O859 O 0.74258 0.78675 0.77336 0.0
O860 O 0.76323 0.81424 0.80237 0.0
O861 O 0.7462 0.73567 0.77319 0.0
O862 O 0.7569 0.7412 0.74027 0.0
O863 O 0.78236 0.82282 0.75908 0.0
O864 O 0.77699 0.78698 0.74036 0.0
O865 O 0.82368 0.80383 0.77356 0.0
O866 O 0.80621 0.76591 0.77137 0.0
O867 O 0.82015 0.85141 0.79116 0.0
O868 O 0.81239 0.84128 0.82378 0.0
C869 C 0.7434 0.80266 0.79052 0.0
O870 O 0.77199 0.76874 0.80733 0.0
O871 O 0.80696 0.79394 0.81596 0.0
C872 C 0.75467 0.70554 0.75169 0.0
C873 C 0.77213 0.66867 0.75915 0.0
C874 C 0.78604 0.68807 0.75233 0.0
C875 C 0.77742 0.70633 0.74869 0.0
C876 C 0.74034 0.6858 0.75732 0.0
C877 C 0.74901 0.66744 0.76104 0.0
C878 C 0.74718 0.72634 0.75265 0.0
C879 C 0.77891 0.80857 0.73999 0.0
C880 C 0.82422 0.78255 0.76934 0.0
C881 C 0.81287 0.87844 0.8184 0.0
C882 C 0.79595 0.91682 0.82314 0.0
C883 C 0.7818 0.89536 0.82492 0.0
C884 C 0.79016 0.87635 0.82248 0.0
C885 C 0.82738 0.89991 0.81758 0.0
C886 C 0.81897 0.91901 0.81992 0.0
C887 C 0.82065 0.85807 0.8129 0.0
H888 H 0.80404 0.68976 0.75115 0.0
H889 H 0.78895 0.72152 0.74473 0.0
H890 H 0.7228 0.68503 0.75994 0.0
H891 H 0.73788 0.65264 0.76613 0.0
H892 H 0.76388 0.89302 0.82693 0.0
H893 H 0.77858 0.85989 0.82291 0.0
H894 H 0.84494 0.90177 0.81434 0.0
H895 H 0.83026 0.93537 0.81855 0.0
Dy896 Dy 0.56094 0.55681 0.54174 0.0
Dy897 Dy 0.51027 0.52808 0.51707 0.0
C898 C 0.5519 0.54125 0.48768 0.0
O899 O 0.54857 0.58294 0.52471 0.0
O900 O 0.50998 0.56505 0.51867 0.0
O901 O 0.59729 0.57195 0.54248 0.0
O902 O 0.5814 0.57501 0.57324 0.0
O903 O 0.50976 0.52773 0.55449 0.0
O904 O 0.53545 0.56202 0.56524 0.0
O905 O 0.5272 0.50041 0.52374 0.0
O906 O 0.55834 0.52119 0.54928 0.0
O907 O 0.4738 0.51833 0.51771 0.0
O908 O 0.48804 0.50568 0.48844 0.0
C909 C 0.52721 0.58329 0.51903 0.0
O910 O 0.56652 0.54411 0.50624 0.0
O911 O 0.53008 0.53899 0.48888 0.0
C912 C 0.6169 0.56651 0.57619 0.0
C913 C 0.64606 0.53981 0.58777 0.0
C914 C 0.65468 0.56027 0.57935 0.0
C915 C 0.64014 0.57352 0.57354 0.0
C916 C 0.60876 0.54713 0.58647 0.0
C917 C 0.62325 0.53393 0.59228 0.0
C918 C 0.60058 0.5768 0.56469 0.0
C919 C 0.51888 0.54559 0.56984 0.0
C920 C 0.5449 0.50151 0.53895 0.0
C921 C 0.45457 0.51782 0.48203 0.0
C922 C 0.4273 0.54582 0.46915 0.0
C923 C 0.41729 0.52487 0.47607 0.0
C924 C 0.4309 0.511 0.48257 0.0
C925 C 0.46413 0.53729 0.47246 0.0
C926 C 0.45054 0.55115 0.46594 0.0
C927 C 0.46958 0.50847 0.4965 0.0
H928 H 0.67215 0.5651 0.57547 0.0
H929 H 0.64666 0.58831 0.56548 0.0
H930 H 0.59083 0.5413 0.58864 0.0
H931 H 0.61625 0.51835 0.59892 0.0
H932 H 0.39947 0.52034 0.47889 0.0
H933 H 0.42331 0.49615 0.49012 0.0
H934 H 0.48245 0.54295 0.47206 0.0
H935 H 0.45864 0.56708 0.46046 0.0
Dy936 Dy 0.0145 0.54245 0.03698 0.0
Dy937 Dy 0.06693 0.54993 0.02342 0.0
C938 C 0.02671 0.55679 0.98871 0.0
O939 O 0.01441 0.50858 0.01756 0.0
O940 O 0.05308 0.51235 0.02303 0.0
O941 O 0.97778 0.53083 0.02828 0.0
O942 O 0.99263 0.54709 0.06272 0.0
O943 O 0.06807 0.55134 0.061 0.0
O944 O 0.0332 0.52722 0.06213 0.0
O945 O 0.0629 0.58532 0.02814 0.0
O946 O 0.03318 0.57917 0.04987 0.0
O947 O 0.10358 0.56287 0.03316 0.0
O948 O 0.09005 0.5431 -9e-05 0.0
C949 C 0.03189 0.49959 0.01735 0.0
O950 O 0.01426 0.5582 0.00533 0.0
O951 O 0.04557 0.55028 0.99105 0.0
C952 C 0.95982 0.55608 0.04686 0.0
C953 C 0.93348 0.58756 0.04578 0.0
C954 C 0.95046 0.58783 0.0313 0.0
C955 C 0.96362 0.57232 0.03194 0.0
C956 C 0.94291 0.55573 0.06132 0.0
C957 C 0.92986 0.57135 0.06082 0.0
C958 C 0.97407 0.54016 0.04794 0.0
C959 C 0.05469 0.53608 0.07071 0.0
C960 C 0.04968 0.59307 0.04152 0.0
C961 C 0.12274 0.53668 0.01891 0.0
C962 C 0.14993 0.5067 0.02534 0.0
C963 C 0.12686 0.50079 0.02906 0.0
C964 C 0.11344 0.51574 0.02604 0.0
C965 C 0.14577 0.54274 0.01531 0.0
C966 C 0.15933 0.52789 0.0186 0.0
C967 C 0.10819 0.55186 0.0149 0.0
H968 H 0.9538 0.60024 0.01972 0.0
H969 H 0.97684 0.57308 0.02084 0.0
H970 H 0.93985 0.54342 0.07303 0.0
H971 H 0.91672 0.57057 0.072 0.0
H972 H 0.11926 0.48472 0.03454 0.0
H973 H 0.09575 0.5109 0.02916 0.0
H974 H 0.15321 0.55884 0.00983 0.0
H975 H 0.17705 0.53279 0.01549 0.0
H976 H 0.02537 0.22704 0.01007 0.0
H977 H 0.99369 0.18905 0.9443 0.0
H978 H 0.03078 0.19234 0.02303 0.0
H979 H 0.99957 0.15458 0.95688 0.0
H980 H 0.05894 0.13058 0.03194 0.0
H981 H 0.05185 0.16519 0.02066 0.0
H982 H 0.98923 0.1256 0.97898 0.0
H983 H 0.9967 0.09101 0.98981 0.0
C984 C 0.01943 0.21129 -0.00164 0.0
C985 C 0.00894 0.21109 0.9761 0.0
C986 C 0.02275 0.19125 0.00574 0.0
C987 C 0.01574 0.1702 0.99114 0.0
C988 C 0.00498 0.17008 0.96896 0.0
C989 C 1.00165 0.19006 0.96163 0.0
C990 C 0.04358 0.12918 0.02043 0.0
C991 C 0.02848 0.10767 0.01186 0.0
C992 C 0.03939 0.14923 0.01399 0.0
C993 C 0.0199 0.14865 -0.00129 0.0
C994 C 0.00466 0.1271 0.99041 0.0
C995 C 0.00888 0.10707 -0.00319 0.0
H996 H 0.15914 0.80448 0.12561 0.0
H997 H 0.14394 0.846 0.18239 0.0
H998 H 0.19057 0.79788 0.1501 0.0
H999 H 0.17616 0.84083 0.20659 0.0
H1000 H 0.21734 0.80829 0.25242 0.0
H1001 H 0.18764 0.81587 0.22687 0.0
H1002 H 0.22666 0.80913 0.17054 0.0
H1003 H 0.25578 0.8001 0.19617 0.0
C1004 C 0.1629 0.81268 0.14322 0.0
C1005 C 0.14897 0.82572 0.15205 0.0
C1006 C 0.18105 0.80895 0.15736 0.0
C1007 C 0.18606 0.81851 0.18068 0.0
C1008 C 0.17265 0.83247 0.18907 0.0
C1009 C 0.15425 0.83574 0.17508 0.0
C1010 C 0.21963 0.80846 0.23458 0.0
C1011 C 0.23903 0.8036 0.22643 0.0
C1012 C 0.20258 0.81304 0.21981 0.0
C1013 C 0.20453 0.81346 0.19638 0.0
C1014 C 0.22412 0.8087 0.18827 0.0
C1015 C 0.24099 0.80364 0.20304 0.0
H1016 H 0.51497 0.84802 0.49789 0.0
H1017 H 0.51494 0.86645 0.43002 0.0
H1018 H 0.51947 0.88799 0.51362 0.0
H1019 H 0.51888 0.90532 0.44536 0.0
H1020 H 0.55092 0.97722 0.47735 0.0
H1021 H 0.54668 0.93725 0.46545 0.0
H1022 H 0.502 0.92024 0.51666 0.0
H1023 H 0.50687 0.96073 0.52915 0.0
C1024 C 0.5158 0.8604 0.48631 0.0
C1025 C 0.51486 0.85372 0.46262 0.0
C1026 C 0.51831 0.88338 0.49531 0.0
C1027 C 0.52 0.90027 0.48088 0.0
C1028 C 0.51838 0.89326 0.45725 0.0
C1029 C 0.51594 0.87062 0.44838 0.0
C1030 C 0.54019 0.96511 0.48621 0.0
C1031 C 0.52914 0.97252 0.50418 0.0
C1032 C 0.53761 0.94195 0.47924 0.0
C1033 C 0.52371 0.92513 0.4898 0.0
C1034 C 0.51293 0.9325 0.5081 0.0
C1035 C 0.51558 0.95582 0.51515 0.0
H1036 H 0.51544 0.32867 0.65032 0.0
H1037 H 0.51292 0.26193 0.66693 0.0
H1038 H 0.47995 0.32758 0.66742 0.0
H1039 H 0.47772 0.26073 0.68357 0.0
H1040 H 0.40552 0.25725 0.69664 0.0
H1041 H 0.43648 0.26002 0.67296 0.0
H1042 H 0.4702 0.32705 0.70892 0.0
H1043 H 0.43904 0.3244 0.73255 0.0
C1044 C 0.50707 0.31364 0.65717 0.0
C1045 C 0.51696 0.29542 0.65736 0.0
C1046 C 0.48691 0.31307 0.6671 0.0
C1047 C 0.47607 0.29407 0.67685 0.0
C1048 C 0.4855 0.27552 0.67603 0.0
C1049 C 0.50574 0.27626 0.66658 0.0
C1050 C 0.41931 0.27275 0.69925 0.0
C1051 C 0.41988 0.29055 0.7166 0.0
C1052 C 0.43711 0.27428 0.68576 0.0
C1053 C 0.45581 0.29373 0.68912 0.0
C1054 C 0.45594 0.31193 0.70581 0.0
C1055 C 0.43823 0.3103 0.7195 0.0
H1056 H 0.02884 0.84244 0.67389 0.0
H1057 H 0.02726 0.79485 0.61398 0.0
H1058 H 0.03263 0.87285 0.65055 0.0
H1059 H 0.0318 0.82529 0.59074 0.0
H1060 H 0.01762 0.88014 0.551 0.0
H1061 H 0.0128 0.84989 0.57453 0.0
H1062 H 0.05831 0.8961 0.63002 0.0
H1063 H 0.06275 0.92639 0.60657 0.0
C1064 C 0.02943 0.83848 0.65574 0.0
C1065 C 0.0277 0.81616 0.64584 0.0
C1066 C 0.03176 0.85598 0.64233 0.0
C1067 C 0.03255 0.85168 0.61864 0.0
C1068 C 0.03088 0.82931 0.6088 0.0
C1069 C 0.02843 0.81181 0.62219 0.0
C1070 C 0.02669 0.88381 0.56819 0.0
C1071 C 0.04058 0.90575 0.57684 0.0
C1072 C 0.02397 0.86642 0.58172 0.0
C1073 C 0.03519 0.87038 0.60428 0.0
C1074 C 0.04906 0.89238 0.61292 0.0
C1075 C 0.05165 0.9098 0.59943 0.0
H1076 H 0.47983 0.84854 0.80373 0.0
H1077 H 0.46707 0.79377 0.84377 0.0
H1078 H 0.43905 0.84385 0.79542 0.0
H1079 H 0.42578 0.78807 0.83439 0.0
H1080 H 0.35251 0.79579 0.8306 0.0
H1081 H 0.3935 0.80029 0.83988 0.0
H1082 H 0.40492 0.82373 0.77513 0.0
H1083 H 0.36429 0.8204 0.76664 0.0
C1084 C 0.46829 0.83515 0.81049 0.0
C1085 C 0.47698 0.82148 0.82438 0.0
C1086 C 0.44463 0.83232 0.80555 0.0
C1087 C 0.42857 0.81541 0.81397 0.0
C1088 C 0.4373 0.80154 0.82776 0.0
C1089 C 0.46111 0.80464 0.83301 0.0
C1090 C 0.36383 0.80208 0.81843 0.0
C1091 C 0.35496 0.80798 0.79796 0.0
C1092 C 0.38748 0.80447 0.82365 0.0
C1093 C 0.40306 0.81251 0.80841 0.0
C1094 C 0.39395 0.81807 0.78777 0.0
C1095 C 0.37042 0.81603 0.78275 0.0
H1096 H 0.51032 0.20672 0.12242 0.0
H1097 H 0.50635 0.16416 0.17538 0.0
H1098 H 0.50799 0.17402 0.09389 0.0
H1099 H 0.50327 0.13144 0.14692 0.0
H1100 H 0.52742 0.08408 0.09647 0.0
H1101 H 0.52659 0.11615 0.1239 0.0
H1102 H 0.4855 0.13852 0.0729 0.0
H1103 H 0.48695 0.10657 0.04505 0.0
C1104 C 0.50857 0.19033 0.12796 0.0
C1105 C 0.50869 0.1882 0.15129 0.0
C1106 C 0.50715 0.17149 0.11154 0.0
C1107 C 0.50569 0.14995 0.11798 0.0
C1108 C 0.50494 0.14775 0.14124 0.0
C1109 C 0.50652 0.16656 0.15763 0.0
C1110 C 0.51812 0.09575 0.09101 0.0
C1111 C 0.50727 0.09263 0.06842 0.0
C1112 C 0.5175 0.11417 0.1069 0.0
C1113 C 0.50587 0.13006 0.10083 0.0
C1114 C 0.49485 0.12687 0.07824 0.0
C1115 C 0.49555 0.10841 0.06226 0.0
H1116 H 0.13671 0.31623 0.36935 0.0
H1117 H 0.11308 0.32497 0.30113 0.0
H1118 H 0.17196 0.31023 0.35647 0.0
H1119 H 0.14891 0.31962 0.28837 0.0
H1120 H 0.23007 0.33433 0.28579 0.0
H1121 H 0.194 0.34038 0.29706 0.0
H1122 H 0.18245 0.27959 0.32835 0.0
H1123 H 0.21797 0.27315 0.31657 0.0
C1124 C 0.13904 0.317 0.35159 0.0
C1125 C 0.12186 0.32107 0.33632 0.0
C1126 C 0.15931 0.31347 0.34418 0.0
C1127 C 0.16342 0.31443 0.32135 0.0
C1128 C 0.14643 0.31886 0.30609 0.0
C1129 C 0.12581 0.32182 0.31339 0.0
C1130 C 0.2198 0.32218 0.29498 0.0
C1131 C 0.22707 0.30319 0.30017 0.0
C1132 C 0.19903 0.32562 0.30136 0.0
C1133 C 0.1852 0.31049 0.31366 0.0
C1134 C 0.19261 0.29166 0.319 0.0
C1135 C 0.21302 0.28793 0.31215 0.0
H1136 H 0.00656 0.04544 0.21012 0.0
H1137 H 0.94212 0.05249 0.17934 0.0
H1138 H 0.02087 0.04592 0.17324 0.0
H1139 H 0.95671 0.05421 0.14265 0.0
H1140 H 0.98055 0.03337 0.07487 0.0
H1141 H 0.96598 0.03331 0.11165 0.0
H1142 H 0.03417 0.06768 0.14571 0.0
H1143 H 0.04877 0.06659 0.10906 0.0
C1144 C 0.99556 0.04742 0.19551 0.0
C1145 C 0.97319 0.04889 0.19768 0.0
C1146 C 1.00381 0.04785 0.17429 0.0
C1147 C 0.99004 0.05013 0.15469 0.0
C1148 C 0.96775 0.05196 0.15708 0.0
C1149 C 0.9594 0.05118 0.17822 0.0
C1150 C 0.99239 0.04097 0.09022 0.0
C1151 C 0.01585 0.04988 0.08897 0.0
C1152 C 0.98402 0.04106 0.11141 0.0
C1153 C 0.99883 0.05041 0.13193 0.0
C1154 C 0.02223 0.05981 0.1305 0.0
C1155 C 0.03062 0.05937 0.10938 0.0
H1156 H 0.27559 0.72182 0.51672 0.0
H1157 H 0.26373 0.65987 0.46948 0.0
H1158 H 0.26697 0.74148 0.48504 0.0
H1159 H 0.25485 0.67943 0.43799 0.0
H1160 H 0.27133 0.72899 0.38653 0.0
H1161 H 0.27722 0.70902 0.41847 0.0
H1162 H 0.23473 0.74239 0.45605 0.0
H1163 H 0.22862 0.7624 0.4238 0.0
C1164 C 0.27102 0.71239 0.49962 0.0
C1165 C 0.27049 0.68936 0.49554 0.0
C1166 C 0.26594 0.7236 0.48153 0.0
C1167 C 0.26033 0.71199 0.45908 0.0
C1168 C 0.25942 0.68887 0.4551 0.0
C1169 C 0.26443 0.67766 0.47314 0.0
C1170 C 0.26289 0.7318 0.40142 0.0
C1171 C 0.24928 0.74707 0.40255 0.0
C1172 C 0.26633 0.7204 0.41974 0.0
C1173 C 0.25631 0.72405 0.43967 0.0
C1174 C 0.24279 0.7394 0.44093 0.0
C1175 C 0.23928 0.75081 0.42251 0.0
H1176 H 0.66399 0.01689 0.66602 0.0
H1177 H 0.60009 0.98742 0.69062 0.0
H1178 H 0.64292 0.01957 0.62993 0.0
H1179 H 0.57905 0.98969 0.65439 0.0
H1180 H 0.55301 0.03469 0.60698 0.0
H1181 H 0.57265 0.02313 0.63924 0.0
H1182 H 0.61729 1.00052 0.59503 0.0
H1183 H 0.59803 0.01242 0.56288 0.0
C1184 C 0.64551 0.01028 0.66343 0.0
C1185 C 0.63363 1.0023 0.68123 0.0
C1186 C 0.63342 0.01183 0.64276 0.0
C1187 C 0.6093 0.0053 0.63958 0.0
C1188 C 0.5976 0.99538 0.65662 0.0
C1189 C 0.60965 0.9939 0.67726 0.0
C1190 C 0.56694 0.02717 0.60413 0.0
C1191 C 0.57405 0.02465 0.58243 0.0
C1192 C 0.57806 0.02035 0.62255 0.0
C1193 C 0.59646 0.01082 0.61961 0.0
C1194 C 0.6033 0.00796 0.59784 0.0
C1195 C 0.59221 0.01479 0.57943 0.0
H1196 H 0.27141 0.32734 0.97026 0.0
H1197 H 0.32352 0.38503 0.9576 0.0
H1198 H 0.27229 0.30769 0.93191 0.0
H1199 H 0.32491 0.36527 0.91987 0.0
H1200 H 0.3319 0.31587 0.85845 0.0
H1201 H 0.3338 0.32801 0.89972 0.0
H1202 H 0.26078 0.31971 0.8914 0.0
H1203 H 0.25901 0.30817 0.85033 0.0
C1204 C 0.28343 0.33554 0.95953 0.0
C1205 C 0.29733 0.3577 0.96682 0.0
C1206 C 0.28388 0.32438 0.93762 0.0
C1207 C 0.29873 0.33496 0.92296 0.0
C1208 C 0.31348 0.35661 0.93084 0.0
C1209 C 0.31258 0.36795 0.95239 0.0
C1210 C 0.31626 0.31633 0.86557 0.0
C1211 C 0.29536 0.31135 0.85121 0.0
C1212 C 0.31733 0.32329 0.88911 0.0
C1213 C 0.29741 0.32474 0.89875 0.0
C1214 C 0.27636 0.31856 0.88451 0.0
C1215 C 0.27539 0.31217 0.86098 0.0
H1216 H 0.97413 0.0607 0.3434 0.0
H1217 H 0.0078 0.00818 0.3276 0.0
H1218 H 0.98423 0.06067 0.3841 0.0
H1219 H 0.01689 0.00727 0.36807 0.0
H1220 H 0.04757 0.02382 0.44302 0.0
H1221 H 0.03925 0.02523 0.40235 0.0
H1222 H 0.97524 0.04013 0.41396 0.0
H1223 H 0.98418 0.03978 0.45463 0.0
C1224 C 0.98364 0.04911 0.3486 0.0
C1225 C 0.99018 0.03451 0.33216 0.0
C1226 C 0.98928 0.04891 0.37201 0.0
C1227 C 1.00132 0.03384 0.37963 0.0
C1228 C 0.00799 0.0194 0.36308 0.0
C1229 C 1.00265 0.01984 0.33974 0.0
C1230 C 0.03165 0.02723 0.43682 0.0
C1231 C 0.01656 0.03168 0.4521 0.0
C1232 C 0.02681 0.02801 0.41342 0.0
C1233 C 0.00656 0.03293 0.40462 0.0
C1234 C 0.99126 0.03684 0.41997 0.0
C1235 C 0.99627 0.0364 0.44336 0.0
H1236 H 0.31783 0.72028 0.60451 0.0
H1237 H 0.31606 0.67005 0.64972 0.0
H1238 H 0.31968 0.7489 0.63722 0.0
H1239 H 0.31728 0.69832 0.68209 0.0
H1240 H 0.2818 0.7769 0.6947 0.0
H1241 H 0.29148 0.75532 0.66172 0.0
H1242 H 0.33813 0.73234 0.70657 0.0
H1243 H 0.32788 0.75319 0.73941 0.0
C1244 C 0.31828 0.71543 0.62144 0.0
C1245 C 0.3165 0.69281 0.62449 0.0
C1246 C 0.31915 0.73179 0.64014 0.0
C1247 C 0.31833 0.72584 0.6622 0.0
C1248 C 0.31816 0.70358 0.66537 0.0
C1249 C 0.31731 0.68728 0.64675 0.0
C1250 C 0.29435 0.76748 0.6974 0.0
C1251 C 0.3037 0.7663 0.71958 0.0
C1252 C 0.30004 0.75525 0.67854 0.0
C1253 C 0.31538 0.74188 0.68157 0.0
C1254 C 0.32589 0.74205 0.7037 0.0
C1255 C 0.32 0.754 0.7225 0.0
H1256 H 0.58327 0.06131 0.78106 0.0
H1257 H 0.64286 0.05105 0.81949 0.0
H1258 H 0.57019 0.07366 0.8165 0.0
H1259 H 0.62993 0.06392 0.85499 0.0
H1260 H 0.58062 0.05775 0.91042 0.0
H1261 H 0.59885 0.04992 0.87693 0.0
H1262 H 0.57975 0.10475 0.84836 0.0
H1263 H 0.56129 0.11253 0.88202 0.0
C1264 C 0.59363 0.06177 0.79706 0.0
C1265 C 0.61405 0.05508 0.79746 0.0
C1266 C 0.58625 0.06908 0.81736 0.0
C1267 C 0.59914 0.06993 0.83849 0.0
C1268 C 0.61958 0.06329 0.83893 0.0
C1269 C 0.62695 0.0559 0.81861 0.0
C1270 C 0.58082 0.06853 0.89729 0.0
C1271 C 0.56949 0.08573 0.89878 0.0
C1272 C 0.59125 0.06401 0.87807 0.0
C1273 C 0.59055 0.0766 0.85996 0.0
C1274 C 0.58018 0.09452 0.86192 0.0
C1275 C 0.56969 0.09902 0.88116 0.0
H1276 H 0.30124 0.38654 0.1297 0.0
H1277 H 0.2769 0.31795 0.09426 0.0
H1278 H 0.29859 0.37265 0.1661 0.0
H1279 H 0.27501 0.3038 0.13105 0.0
H1280 H 0.25446 0.28815 0.20166 0.0
H1281 H 0.25519 0.30109 0.16428 0.0
H1282 H 0.31701 0.35399 0.19081 0.0
H1283 H 0.31582 0.34168 0.22797 0.0
C1284 C 0.29554 0.36841 0.12967 0.0
C1285 C 0.28944 0.35337 0.10899 0.0
C1286 C 0.29412 0.36039 0.15065 0.0
C1287 C 0.28678 0.33702 0.15171 0.0
C1288 C 0.28053 0.32191 0.13099 0.0
C1289 C 0.28179 0.33 0.10987 0.0
C1290 C 0.26811 0.30263 0.19951 0.0
C1291 C 0.28496 0.31394 0.21797 0.0
C1292 C 0.26865 0.30995 0.17799 0.0
C1293 C 0.2861 0.32872 0.1744 0.0
C1294 C 0.30299 0.33982 0.1929 0.0
C1295 C 0.30237 0.33264 0.21432 0.0
H1296 H 0.23877 0.95468 0.07456 0.0
H1297 H 0.1772 0.92616 0.02695 0.0
H1298 H 0.21908 0.97735 0.09721 0.0
H1299 H 0.15775 0.95009 0.04837 0.0
H1300 H 0.12516 0.99496 0.0855 0.0
H1301 H 0.14178 0.96339 0.07922 0.0
H1302 H 0.20958 0.01017 0.09218 0.0
H1303 H 0.193 0.04135 0.10051 0.0
C1304 C 0.22086 0.95318 0.06914 0.0
C1305 C 0.20945 0.93902 0.049 0.0
C1306 C 0.20961 0.96627 0.08198 0.0
C1307 C 0.18696 0.96611 0.07439 0.0
C1308 C 0.1751 0.95063 0.05497 0.0
C1309 C 0.18622 0.93699 0.04252 0.0
C1310 C 0.14365 0.99845 0.08804 0.0
C1311 C 0.15776 0.02085 0.09302 0.0
C1312 C 0.15319 0.98029 0.084 0.0
C1313 C 0.17702 0.98414 0.08443 0.0
C1314 C 0.19115 0.00632 0.09164 0.0
C1315 C 0.18162 0.02439 0.09612 0.0
H1316 H 0.69044 0.68236 0.00441 0.0
H1317 H 0.72074 0.62674 0.99151 0.0
H1318 H 0.65371 0.65553 0.00613 0.0
H1319 H 0.68389 0.59987 0.99267 0.0
H1320 H 0.62379 0.5629 0.02822 0.0
H1321 H 0.65983 0.58808 0.02154 0.0
H1322 H 0.62232 0.62628 0.98438 0.0
H1323 H 0.58643 0.60153 0.99146 0.0
C1324 C 0.68915 0.66439 0.00152 0.0
C1325 C 0.70851 0.65668 -0.00201 0.0
C1326 C 0.66808 0.64898 0.00244 0.0
C1327 C 0.6659 0.62553 -0.00028 0.0
C1328 C 0.68508 0.61782 0.99525 0.0
C1329 C 0.70615 0.63322 0.99441 0.0
C1330 C 0.62325 0.57656 0.01846 0.0
C1331 C 0.60225 0.58032 0.01058 0.0
C1332 C 0.6439 0.59094 0.01453 0.0
C1333 C 0.64397 0.6093 0.00253 0.0
C1334 C 0.62291 0.61258 0.99404 0.0
C1335 C 0.60232 0.59829 -0.00196 0.0
H1336 H 0.64408 0.47269 0.2718 0.0
H1337 H 0.70579 0.5267 0.29502 0.0
H1338 H 0.66694 0.44568 0.26705 0.0
H1339 H 0.72861 0.49966 0.29111 0.0
H1340 H 0.76514 0.45104 0.25867 0.0
H1341 H 0.7416 0.47731 0.26291 0.0
H1342 H 0.68986 0.42627 0.28674 0.0
H1343 H 0.71276 0.39953 0.2811 0.0
C1344 C 0.66251 0.47874 0.27615 0.0
C1345 C 0.67312 0.50185 0.28372 0.0
C1346 C 0.67565 0.46324 0.27353 0.0
C1347 C 0.69971 0.47043 0.27858 0.0
C1348 C 0.71021 0.49352 0.28659 0.0
C1349 C 0.69709 0.50903 0.28902 0.0
C1350 C 0.74859 0.44526 0.26447 0.0
C1351 C 0.74092 0.42308 0.26951 0.0
C1352 C 0.7352 0.46049 0.26726 0.0
C1353 C 0.71382 0.45404 0.27533 0.0
C1354 C 0.7061 0.43182 0.28028 0.0
C1355 C 0.71942 0.41654 0.27734 0.0
H1356 H 0.83657 0.49874 0.47485 0.0
H1357 H 0.84567 0.4417 0.50692 0.0
H1358 H 0.87819 0.51455 0.4794 0.0
H1359 H 0.88694 0.4574 0.51122 0.0
H1360 H 0.95461 0.50716 0.54346 0.0
H1361 H 0.91331 0.49142 0.53576 0.0
H1362 H 0.9143 0.50654 0.46667 0.0
H1363 H 0.95582 0.52246 0.47434 0.0
C1364 C 0.8474 0.48945 0.48258 0.0
C1365 C 0.83781 0.4691 0.49075 0.0
C1366 C 0.87119 0.49847 0.48513 0.0
C1367 C 0.88569 0.48732 0.49594 0.0
C1368 C 0.87611 0.46655 0.50323 0.0
C1369 C 0.85245 0.45753 0.50064 0.0
C1370 C 0.94612 0.50713 0.52661 0.0
C1371 C 0.95855 0.51589 0.50947 0.0
C1372 C 0.92245 0.49804 0.52218 0.0
C1373 C 0.91069 0.49759 0.50055 0.0
C1374 C 0.92298 0.50676 0.48351 0.0
C1375 C 0.94674 0.51578 0.48791 0.0
H1376 H 0.36032 0.1208 0.32793 0.0
H1377 H 0.30831 0.05673 0.31632 0.0
H1378 H 0.33089 0.14073 0.32844 0.0
H1379 H 0.27859 0.07679 0.31756 0.0
H1380 H 0.24221 0.12133 0.27604 0.0
H1381 H 0.26447 0.09722 0.29041 0.0
H1382 H 0.30039 0.15157 0.34435 0.0
H1383 H 0.27943 0.1762 0.32901 0.0
C1384 C 0.34258 0.11096 0.32612 0.0
C1385 C 0.33662 0.08722 0.32163 0.0
C1386 C 0.32562 0.12241 0.32664 0.0
C1387 C 0.30228 0.11037 0.32282 0.0
C1388 C 0.29638 0.08656 0.32018 0.0
C1389 C 0.31341 0.07508 0.31956 0.0
C1390 C 0.25461 0.12804 0.29117 0.0
C1391 C 0.25948 0.15093 0.30086 0.0
C1392 C 0.2672 0.11409 0.29965 0.0
C1393 C 0.28468 0.12266 0.3182 0.0
C1394 C 0.28748 0.14465 0.32964 0.0
C1395 C 0.27516 0.1587 0.32097 0.0
H1396 H 0.34653 0.16669 0.51243 0.0
H1397 H 0.32416 0.13676 0.57134 0.0
H1398 H 0.37943 0.15055 0.51505 0.0
H1399 H 0.35641 0.12057 0.57371 0.0
H1400 H 0.42409 0.10564 0.58348 0.0
H1401 H 0.39769 0.12936 0.58198 0.0
H1402 H 0.38455 0.11177 0.50849 0.0
H1403 H 0.41112 0.08813 0.51 0.0
C1404 C 0.34881 0.15699 0.5261 0.0
C1405 C 0.33267 0.15288 0.54157 0.0
C1406 C 0.36752 0.14761 0.5275 0.0
C1407 C 0.37051 0.13423 0.54456 0.0
C1408 C 0.35484 0.131 0.56053 0.0
C1409 C 0.33619 0.14017 0.55905 0.0
C1410 C 0.41557 0.10685 0.56701 0.0
C1411 C 0.41944 0.09475 0.5469 0.0
C1412 C 0.40052 0.1205 0.56613 0.0
C1413 C 0.38887 0.12232 0.54512 0.0
C1414 C 0.39343 0.11095 0.52491 0.0
C1415 C 0.40858 0.09732 0.52579 0.0
H1416 H 0.6467 0.64859 0.28109 0.0
H1417 H 0.69763 0.61848 0.30988 0.0
H1418 H 0.67565 0.68406 0.28315 0.0
H1419 H 0.72681 0.65467 0.31277 0.0
H1420 H 0.77517 0.7164 0.28644 0.0
H1421 H 0.74852 0.67998 0.28974 0.0
H1422 H 0.6985 0.71493 0.30917 0.0
H1423 H 0.72452 0.75072 0.30469 0.0
C1424 C 0.66405 0.64962 0.28822 0.0
C1425 C 0.66978 0.63065 0.2954 0.0
C1426 C 0.68072 0.67011 0.28956 0.0
C1427 C 0.70361 0.6724 0.29839 0.0
C1428 C 0.70939 0.65348 0.30574 0.0
C1429 C 0.69264 0.63279 0.30422 0.0
C1430 C 0.75856 0.71616 0.29168 0.0
C1431 C 0.75169 0.73622 0.29492 0.0
C1432 C 0.74331 0.69536 0.29365 0.0
C1433 C 0.72113 0.69443 0.29924 0.0
C1434 C 0.7151 0.71485 0.30408 0.0
C1435 C 0.73007 0.73542 0.30167 0.0
H1436 H 0.91417 0.4591 0.773 0.0
H1437 H 0.86445 0.48076 0.81103 0.0
H1438 H 0.89173 0.41986 0.77007 0.0
H1439 H 0.84189 0.44148 0.80775 0.0
H1440 H 0.8202 0.36596 0.81562 0.0
H1441 H 0.84329 0.40517 0.8205 0.0
H1442 H 0.85435 0.39674 0.74963 0.0
H1443 H 0.83158 0.35743 0.74475 0.0
C1444 C 0.89854 0.45551 0.78086 0.0
C1445 C 0.89105 0.47309 0.79216 0.0
C1446 C 0.88561 0.43304 0.77901 0.0
C1447 C 0.86497 0.42767 0.78848 0.0
C1448 C 0.85781 0.44513 0.8004 0.0
C1449 C 0.87072 0.46763 0.80221 0.0
C1450 C 0.82749 0.37247 0.80105 0.0
C1451 C 0.82411 0.35856 0.77981 0.0
C1452 C 0.84064 0.39495 0.80385 0.0
C1453 C 0.85071 0.40394 0.78549 0.0
C1454 C 0.84709 0.39014 0.76418 0.0
C1455 C 0.83389 0.36767 0.76135 0.0
H1456 H 0.05163 0.88859 0.11051 0.0
H1457 H 0.09289 0.87899 0.05707 0.0
H1458 H 0.04705 0.92332 0.09721 0.0
H1459 H 0.08863 0.91421 0.04392 0.0
H1460 H 0.09338 0.9924 0.04369 0.0
H1461 H 0.09929 0.95741 0.05603 0.0
H1462 H 0.02767 0.93512 0.06386 0.0
H1463 H 0.02168 0.96957 0.05126 0.0
C1464 C 0.05977 0.89384 0.09588 0.0
C1465 C 0.07254 0.88067 0.08487 0.0
C1466 C 0.05707 0.91386 0.08817 0.0
C1467 C 0.06739 0.92181 0.06937 0.0
C1468 C 0.08048 0.90884 0.0585 0.0
C1469 C 0.08281 0.88848 0.06596 0.0
C1470 C 0.07885 0.98001 0.04794 0.0
C1471 C 0.05699 0.98405 0.0463 0.0
C1472 C 0.08224 0.95982 0.05497 0.0
C1473 C 0.064 0.94322 0.06109 0.0
C1474 C 0.04224 0.94742 0.05956 0.0
C1475 C 0.03878 0.96729 0.05216 0.0
H1476 H 0.92682 0.24123 0.89229 0.0
H1477 H 0.94388 0.31419 0.89998 0.0
H1478 H 0.89022 0.2392 0.86905 0.0
H1479 H 0.90797 0.31218 0.87692 0.0
H1480 H 0.86852 0.29678 0.80407 0.0
H1481 H 0.89933 0.2944 0.8321 0.0
H1482 H 0.85002 0.25599 0.86992 0.0
H1483 H 0.81868 0.25866 0.84183 0.0
C1484 C 0.92238 0.25676 0.88978 0.0
C1485 C 0.93817 0.27787 0.898 0.0
C1486 C 0.90155 0.25562 0.87637 0.0
C1487 C 0.89643 0.27557 0.87092 0.0
C1488 C 0.91153 0.29655 0.88061 0.0
C1489 C 0.93204 0.29767 0.89396 0.0
C1490 C 0.86407 0.28768 0.81822 0.0
C1491 C 0.84101 0.27802 0.82066 0.0
C1492 C 0.8818 0.28636 0.83433 0.0
C1493 C 0.8771 0.27507 0.85325 0.0
C1494 C 0.85414 0.26472 0.85547 0.0
C1495 C 0.83623 0.26636 0.83943 0.0
H1496 H 0.59273 0.24161 0.56084 0.0
H1497 H 0.54386 0.22076 0.60724 0.0
H1498 H 0.58669 0.20159 0.54435 0.0
H1499 H 0.53784 0.18129 0.59113 0.0
H1500 H 0.51739 0.11271 0.54766 0.0
H1501 H 0.52212 0.15301 0.55842 0.0
H1502 H 0.59475 0.16623 0.555 0.0
H1503 H 0.58995 0.12555 0.54384 0.0
C1504 C 0.58022 0.22857 0.56705 0.0
C1505 C 0.56843 0.23446 0.58506 0.0
C1506 C 0.577 0.20558 0.55787 0.0
C1507 C 0.56174 0.18794 0.56633 0.0
C1508 C 0.54947 0.19414 0.58381 0.0
C1509 C 0.55289 0.2169 0.59308 0.0
C1510 C 0.53444 0.12408 0.54912 0.0
C1511 C 0.55331 0.11556 0.545 0.0
C1512 C 0.53717 0.14737 0.55541 0.0
C1513 C 0.55886 0.16317 0.5578 0.0
C1514 C 0.57772 0.15476 0.55319 0.0
C1515 C 0.575 0.13132 0.54695 0.0
H1516 H 0.59181 0.79863 0.43544 0.0
H1517 H 0.54586 0.75964 0.37631 0.0
H1518 H 0.62295 0.80657 0.41191 0.0
H1519 H 0.57694 0.76696 0.35302 0.0
H1520 H 0.62924 0.80447 0.31197 0.0
H1521 H 0.59923 0.79709 0.33651 0.0
H1522 H 0.64818 0.79022 0.39097 0.0
H1523 H 0.67851 0.7988 0.36678 0.0
C1524 C 0.58842 0.79156 0.41749 0.0
C1525 C 0.56631 0.77862 0.40773 0.0
C1526 C 0.60629 0.79603 0.40399 0.0
C1527 C 0.60247 0.78758 0.38045 0.0
C1528 C 0.58045 0.77418 0.37092 0.0
C1529 C 0.56263 0.76982 0.38435 0.0
C1530 C 0.63373 0.80169 0.32927 0.0
C1531 C 0.65639 0.80225 0.33731 0.0
C1532 C 0.6164 0.79713 0.34329 0.0
C1533 C 0.62117 0.79288 0.36574 0.0
C1534 C 0.64386 0.79358 0.37386 0.0
C1535 C 0.66123 0.79822 0.35985 0.0
H1536 H 0.0636 0.28688 0.43583 0.0
H1537 H 0.02713 0.24068 0.37578 0.0
H1538 H 0.05811 0.25562 0.45806 0.0
H1539 H 0.02102 0.20944 0.39815 0.0
H1540 H 0.03404 0.15477 0.43938 0.0
H1541 H 0.04013 0.18589 0.41696 0.0
H1542 H 0.02979 0.23034 0.47441 0.0
H1543 H 0.0249 0.19959 0.49716 0.0
C1544 C 0.05427 0.27006 0.42738 0.0
C1545 C 0.04581 0.26633 0.40399 0.0
C1546 C 0.05098 0.2521 0.44019 0.0
C1547 C 0.03904 0.22989 0.43 0.0
C1548 C 0.03057 0.22619 0.40657 0.0
C1549 C 0.03394 0.24416 0.39374 0.0
C1550 C 0.03331 0.17123 0.44735 0.0
C1551 C 0.02898 0.17455 0.47018 0.0
C1552 C 0.03652 0.18907 0.43435 0.0
C1553 C 0.03545 0.21075 0.44378 0.0
C1554 C 0.03104 0.21402 0.46658 0.0
C1555 C 0.0279 0.19622 0.47958 0.0
H1556 H 0.59817 0.29391 0.24863 0.0
H1557 H 0.6015 0.24297 0.19371 0.0
H1558 H 0.63881 0.29869 0.26245 0.0
H1559 H 0.64167 0.24719 0.20797 0.0
H1560 H 0.70648 0.24639 0.25847 0.0
H1561 H 0.66544 0.24112 0.24645 0.0
H1562 H 0.67819 0.3127 0.24379 0.0
H1563 H 0.71922 0.31789 0.255 0.0
C1564 C 0.60745 0.28356 0.23967 0.0
C1565 C 0.59651 0.26809 0.22001 0.0
C1566 C 0.63076 0.28636 0.24753 0.0
C1567 C 0.64352 0.27328 0.23634 0.0
C1568 C 0.63237 0.25743 0.21707 0.0
C1569 C 0.60933 0.25509 0.20886 0.0
C1570 C 0.70055 0.261 0.25528 0.0
C1571 C 0.71626 0.28253 0.25753 0.0
C1572 C 0.67703 0.25797 0.24837 0.0
C1573 C 0.66848 0.27651 0.24422 0.0
C1574 C 0.68413 0.29809 0.24697 0.0
C1575 C 0.7077 0.30102 0.25323 0.0
H1576 H 0.55183 0.88075 0.9303 0.0
H1577 H 0.55491 0.92093 0.87538 0.0
H1578 H 0.54572 0.91187 0.95599 0.0
H1579 H 0.54776 0.95164 0.90066 0.0
H1580 H 0.55094 0.01077 0.95594 0.0
H1581 H 0.56078 0.98098 0.93137 0.0
H1582 H 0.51816 0.93039 0.96465 0.0
H1583 H 0.50924 0.96011 0.98967 0.0
C1584 C 0.55123 0.89623 0.92368 0.0
C1585 C 0.55388 0.89821 0.9007 0.0
C1586 C 0.54747 0.91411 0.9384 0.0
C1587 C 0.54594 0.93444 0.93053 0.0
C1588 C 0.54909 0.93653 0.90762 0.0
C1589 C 0.55311 0.91876 0.893 0.0
C1590 C 0.54369 0.99327 0.95799 0.0
C1591 C 0.52932 0.98793 0.97488 0.0
C1592 C 0.54926 0.97608 0.94379 0.0
C1593 C 0.54042 0.95302 0.9459 0.0
C1594 C 0.52584 0.94781 0.96269 0.0
C1595 C 0.52051 0.96496 0.977 0.0
H1596 H 0.94565 0.73231 0.75078 0.0
H1597 H 0.94957 0.78231 0.70529 0.0
H1598 H 0.91007 0.73889 0.76182 0.0
H1599 H 0.91375 0.78883 0.71625 0.0
H1600 H 0.86279 0.81255 0.75957 0.0
H1601 H 0.89762 0.80515 0.74744 0.0
H1602 H 0.86977 0.73384 0.7496 0.0
H1603 H 0.83479 0.74131 0.76196 0.0
C1604 C 0.93893 0.7447 0.74301 0.0
C1605 C 0.95079 0.75677 0.72708 0.0
C1606 C 0.91828 0.74838 0.74928 0.0
C1607 C 0.9087 0.76444 0.74004 0.0
C1608 C 0.92053 0.7765 0.72404 0.0
C1609 C 0.94113 0.77266 0.7176 0.0
C1610 C 0.86397 0.79523 0.75752 0.0
C1611 C 0.84572 0.77758 0.76193 0.0
C1612 C 0.88405 0.79095 0.75032 0.0
C1613 C 0.88682 0.76885 0.74738 0.0
C1614 C 0.86858 0.75115 0.75184 0.0
C1615 C 0.84836 0.75542 0.75888 0.0
H1616 H 0.07382 0.07974 0.85158 0.0
H1617 H 0.10744 0.02598 0.85107 0.0
H1618 H 0.06622 0.07578 0.8906 0.0
H1619 H 0.0994 0.02182 0.8903 0.0
H1620 H 0.05322 0.00846 0.95082 0.0
H1621 H 0.06279 0.01054 0.9118 0.0
H1622 H 0.09192 0.08276 0.92942 0.0
H1623 H 0.08274 0.08076 0.96831 0.0
C1624 C 0.07947 0.06695 0.85972 0.0
C1625 C 0.09128 0.05319 0.84815 0.0
C1626 C 0.07521 0.06479 0.88215 0.0
C1627 C 0.08231 0.04857 0.89353 0.0
C1628 C 0.09369 0.03443 0.8819 0.0
C1629 C 0.09835 0.03687 0.8595 0.0
C1630 C 0.06185 0.02474 0.94641 0.0
C1631 C 0.06716 0.04445 0.96269 0.0
C1632 C 0.0674 0.02589 0.92411 0.0
C1633 C 0.07797 0.04683 0.91756 0.0
C1634 C 0.0836 0.06643 0.93394 0.0
C1635 C 0.07843 0.06523 0.95626 0.0
H1636 H 0.81527 0.40801 0.5804 0.0
H1637 H 0.78206 0.34775 0.53214 0.0
H1638 H 0.82934 0.38505 0.60586 0.0
H1639 H 0.7969 0.32479 0.5572 0.0
H1640 H 0.79697 0.29236 0.62371 0.0
H1641 H 0.78871 0.31257 0.5927 0.0
H1642 H 0.85459 0.36183 0.61221 0.0
H1643 H 0.8625 0.34176 0.64379 0.0
C1644 C 0.81126 0.38987 0.57511 0.0
C1645 C 0.79734 0.37961 0.55446 0.0
C1646 C 0.81953 0.37672 0.58958 0.0
C1647 C 0.81424 0.35306 0.58357 0.0
C1648 C 0.80099 0.34293 0.56249 0.0
C1649 C 0.79251 0.35606 0.54813 0.0
C1650 C 0.80993 0.30715 0.62098 0.0
C1651 C 0.8303 0.31561 0.63617 0.0
C1652 C 0.80523 0.31876 0.60318 0.0
C1653 C 0.8209 0.33897 0.60012 0.0
C1654 C 0.84197 0.34657 0.61443 0.0
C1655 C 0.84657 0.33506 0.63239 0.0
H1656 H 0.42355 0.06954 0.3767 0.0
H1657 H 0.48528 0.06496 0.3482 0.0
H1658 H 0.44332 0.07221 0.41505 0.0
H1659 H 0.50469 0.06708 0.38628 0.0
H1660 H 0.47543 0.03739 0.47013 0.0
H1661 H 0.4563 0.04435 0.43497 0.0
H1662 H 0.51957 0.08999 0.42324 0.0
H1663 H 0.53893 0.08261 0.45814 0.0
C1664 C 0.44139 0.06942 0.37861 0.0
C1665 C 0.45276 0.06673 0.35939 0.0
C1666 C 0.45265 0.07082 0.40055 0.0
C1667 C 0.47546 0.06962 0.40364 0.0
C1668 C 0.48718 0.06826 0.3845 0.0
C1669 C 0.47596 0.06686 0.36263 0.0
C1670 C 0.48525 0.04901 0.46013 0.0
C1671 C 0.50879 0.05914 0.4667 0.0
C1672 C 0.47421 0.0532 0.44011 0.0
C1673 C 0.48647 0.06765 0.42631 0.0
C1674 C 0.50978 0.07852 0.43338 0.0
C1675 C 0.52084 0.07428 0.45337 0.0
H1676 H 0.7907 0.75814 0.08688 0.0
H1677 H 0.74287 0.69944 0.1041 0.0
H1678 H 0.79305 0.77774 0.12602 0.0
H1679 H 0.74549 0.71877 0.14256 0.0
H1680 H 0.78613 0.74488 0.21392 0.0
H1681 H 0.78169 0.7304 0.17346 0.0
H1682 H 0.76548 0.79111 0.15664 0.0
H1683 H 0.76971 0.80581 0.1977 0.0
C1684 C 0.78048 0.74954 0.09878 0.0
C1685 C 0.76688 0.72705 0.09234 0.0
C1686 C 0.78179 0.76078 0.12113 0.0
C1687 C 0.76965 0.74963 0.13736 0.0
C1688 C 0.75526 0.72767 0.13052 0.0
C1689 C 0.75382 0.71659 0.10838 0.0
C1690 C 0.7816 0.75525 0.20172 0.0
C1691 C 0.77814 0.77648 0.20911 0.0
C1692 C 0.77903 0.7469 0.1785 0.0
C1693 C 0.7732 0.7596 0.16191 0.0
C1694 C 0.77007 0.78103 0.16911 0.0
C1695 C 0.7723 0.78932 0.19256 0.0
H1696 H 0.06345 0.03169 0.71518 0.0
H1697 H 0.12919 0.06978 0.70038 0.0
H1698 H 0.04673 0.03168 0.67599 0.0
H1699 H 0.11253 0.06978 0.66145 0.0
H1700 H 0.07057 0.08303 0.59913 0.0
H1701 H 0.08416 0.08539 0.63973 0.0
H1702 H 0.05074 0.01423 0.63683 0.0
H1703 H 0.03717 0.01184 0.5965 0.0
C1704 C 0.0743 0.0401 0.70361 0.0
C1705 C 0.09766 0.05064 0.71088 0.0
C1706 C 0.06475 0.04006 0.68117 0.0
C1707 C 0.07829 0.05081 0.66564 0.0
C1708 C 0.10156 0.06162 0.67306 0.0
C1709 C 0.11114 0.06143 0.69534 0.0
C1710 C 0.06592 0.06798 0.60723 0.0
C1711 C 0.05291 0.04724 0.59451 0.0
C1712 C 0.07381 0.06928 0.63044 0.0
C1713 C 0.06858 0.04997 0.64148 0.0
C1714 C 0.05491 0.02946 0.62892 0.0
C1715 C 0.04727 0.02808 0.60572 0.0
H1716 H 0.74076 0.35875 0.45147 0.0
H1717 H 0.74339 0.41279 0.41086 0.0
H1718 H 0.74189 0.33303 0.41748 0.0
H1719 H 0.74526 0.38735 0.37708 0.0
H1720 H 0.78475 0.3107 0.36281 0.0
H1721 H 0.7723 0.33002 0.39543 0.0
H1722 H 0.72816 0.35472 0.34941 0.0
H1723 H 0.7412 0.33612 0.31696 0.0
C1724 C 0.74116 0.36503 0.4352 0.0
C1725 C 0.74231 0.38787 0.43386 0.0
C1726 C 0.742 0.35033 0.41577 0.0
C1727 C 0.74413 0.35823 0.39467 0.0
C1728 C 0.74347 0.38063 0.39303 0.0
C1729 C 0.74244 0.39528 0.41243 0.0
C1730 C 0.7722 0.32004 0.35973 0.0
C1731 C 0.76427 0.32225 0.33742 0.0
C1732 C 0.7649 0.33098 0.37839 0.0
C1733 C 0.74934 0.34408 0.37501 0.0
C1734 C 0.74049 0.34517 0.35261 0.0
C1735 C 0.74796 0.33448 0.33403 0.0
H1736 H 0.37359 0.02711 0.21934 0.0
H1737 H 0.43811 0.07707 0.2437 0.0
H1738 H 0.39084 0.01181 0.18781 0.0
H1739 H 0.45516 0.06196 0.21214 0.0
H1740 H 0.48657 0.01319 0.17354 0.0
H1741 H 0.46585 0.02592 0.20341 0.0
H1742 H 0.40832 0.02106 0.15273 0.0
H1743 H 0.42883 0.00778 0.12295 0.0
C1744 C 0.39126 0.03519 0.21764 0.0
C1745 C 0.40459 0.05315 0.2341 0.0
C1746 C 0.40114 0.02634 0.19967 0.0
C1747 C 0.42447 0.03535 0.19792 0.0
C1748 C 0.43731 0.05427 0.21349 0.0
C1749 C 0.42746 0.0631 0.23137 0.0
C1750 C 0.46928 0.01427 0.16891 0.0
C1751 C 0.45934 0.00971 0.14599 0.0
C1752 C 0.45756 0.02186 0.18591 0.0
C1753 C 0.43569 0.02493 0.18026 0.0
C1754 C 0.42517 0.01893 0.15753 0.0
C1755 C 0.43692 0.01141 0.14053 0.0
H1756 H 0.81763 0.71921 0.94465 0.0
H1757 H 0.77018 0.75814 0.96137 0.0
H1758 H 0.81952 0.73308 0.90769 0.0
H1759 H 0.77169 0.7715 0.92424 0.0
H1760 H 0.75565 0.75818 0.8441 0.0
H1761 H 0.75774 0.74823 0.88264 0.0
H1762 H 0.83148 0.77246 0.89055 0.0
H1763 H 0.82944 0.78305 0.85195 0.0
C1764 C 0.80784 0.73095 0.94057 0.0
C1765 C 0.79375 0.73757 0.95598 0.0
C1766 C 0.80897 0.7389 0.91943 0.0
C1767 C 0.79565 0.75325 0.91304 0.0
C1768 C 0.78204 0.76035 0.92867 0.0
C1769 C 0.78129 0.7528 0.94999 0.0
C1770 C 0.77235 0.76139 0.85398 0.0
C1771 C 0.79239 0.77139 0.8449 0.0
C1772 C 0.77351 0.75583 0.87614 0.0
C1773 C 0.79476 0.75966 0.88964 0.0
C1774 C 0.81488 0.76932 0.8805 0.0
C1775 C 0.81369 0.7754 0.85845 0.0
H1776 H 0.83983 0.11661 0.03072 0.0
H1777 H 0.80084 0.0594 0.05858 0.0
H1778 H 0.86405 0.09366 0.01613 0.0
H1779 H 0.8242 0.03626 0.04317 0.0
H1780 H 0.8943 0.04388 0.9783 0.0
H1781 H 0.86509 0.06256 0.98846 0.0
H1782 H 0.86159 0.0326 0.0507 0.0
H1783 H 0.88957 0.0129 0.03981 0.0
C1784 C 0.83638 0.09912 0.0336 0.0
C1785 C 0.81868 0.08989 0.04603 0.0
C1786 C 0.85005 0.08588 0.02503 0.0
C1787 C 0.84603 0.0631 0.02846 0.0
C1788 C 0.82803 0.05384 0.04056 0.0
C1789 C 0.81464 0.06713 0.0494 0.0
C1790 C 0.88671 0.04073 0.99377 0.0
C1791 C 0.89434 0.02711 0.00838 0.0
C1792 C 0.87028 0.05174 -0.00022 0.0
C1793 C 0.86131 0.04939 0.02057 0.0
C1794 C 0.86802 0.03471 0.0345 0.0
C1795 C 0.88423 0.02357 0.02838 0.0
H1796 H 0.36024 0.46768 0.07112 0.0
H1797 H 0.37666 0.412 0.03186 0.0
H1798 H 0.40026 0.48968 0.07561 0.0
H1799 H 0.41644 0.4343 0.03488 0.0
H1800 H 0.48897 0.47618 0.04714 0.0
H1801 H 0.45247 0.45273 0.05463 0.0
H1802 H 0.42339 0.50957 0.05191 0.0
H1803 H 0.46031 0.53321 0.04574 0.0
C1804 C 0.37266 0.46002 0.06393 0.0
C1805 C 0.36563 0.43819 0.05135 0.0
C1806 C 0.39551 0.47272 0.06615 0.0
C1807 C 0.41163 0.46406 0.05519 0.0
C1808 C 0.4047 0.44155 0.04379 0.0
C1809 C 0.3819 0.42867 0.04203 0.0
C1810 C 0.47478 0.48367 0.0484 0.0
C1811 C 0.47736 0.50645 0.04566 0.0
C1812 C 0.45381 0.4702 0.0526 0.0
C1813 C 0.43477 0.47907 0.0537 0.0
C1814 C 0.43766 0.50213 0.05162 0.0
C1815 C 0.4588 0.51573 0.04788 0.0
H1816 H 0.43204 0.62205 0.79985 0.0
H1817 H 0.37192 0.57224 0.76365 0.0
H1818 H 0.40906 0.64865 0.80722 0.0
H1819 H 0.34916 0.59893 0.77027 0.0
H1820 H 0.30893 0.64302 0.80294 0.0
H1821 H 0.3328 0.61701 0.79907 0.0
H1822 H 0.38948 0.67192 0.78876 0.0
H1823 H 0.36602 0.69821 0.79403 0.0
C1824 C 0.41395 0.61682 0.79337 0.0
C1825 C 0.40381 0.59502 0.78121 0.0
C1826 C 0.40077 0.63211 0.79748 0.0
C1827 C 0.37718 0.62598 0.78941 0.0
C1828 C 0.36714 0.60415 0.77716 0.0
C1829 C 0.38026 0.58887 0.7732 0.0
C1830 C 0.3266 0.64968 0.80028 0.0
C1831 C 0.33546 0.67277 0.79874 0.0
C1832 C 0.34024 0.63466 0.79771 0.0
C1833 C 0.36307 0.64226 0.79337 0.0
C1834 C 0.37206 0.66544 0.79226 0.0
C1835 C 0.35846 0.68049 0.79497 0.0
H1836 H 0.22484 0.5831 0.54345 0.0
H1837 H 0.21182 0.6438 0.57698 0.0
H1838 H 0.18371 0.56444 0.53767 0.0
H1839 H 0.17094 0.62509 0.57144 0.0
H1840 H 0.10195 0.59762 0.52645 0.0
H1841 H 0.14306 0.61349 0.53607 0.0
H1842 H 0.14916 0.55066 0.55772 0.0
H1843 H 0.10776 0.5345 0.54789 0.0
C1844 C 0.21325 0.5923 0.54993 0.0
C1845 C 0.22148 0.61499 0.56039 0.0
C1846 C 0.18975 0.5816 0.54668 0.0
C1847 C 0.17418 0.59346 0.55381 0.0
C1848 C 0.18257 0.61572 0.56538 0.0
C1849 C 0.20598 0.62638 0.56864 0.0
C1850 C 0.11197 0.58712 0.53327 0.0
C1851 C 0.10156 0.56482 0.53651 0.0
C1852 C 0.13552 0.59629 0.53893 0.0
C1853 C 0.14922 0.58338 0.54789 0.0
C1854 C 0.13895 0.56095 0.55081 0.0
C1855 C 0.11528 0.55176 0.54523 0.0
H1856 H 0.74218 0.02588 0.78102 0.0
H1857 H 0.68588 0.97238 0.79469 0.0
H1858 H 0.76936 0.00767 0.79815 0.0
H1859 H 0.71305 0.95392 0.81135 0.0
H1860 H 0.76585 0.92949 0.84989 0.0
H1861 H 0.74325 0.95598 0.84244 0.0
H1862 H 0.77992 0.97326 0.78543 0.0
H1863 H 0.80241 0.94697 0.79289 0.0
C1864 C 0.73561 0.01032 0.78784 0.0
C1865 C 0.71191 1.00039 0.78628 0.0
C1866 C 0.75118 0.99989 0.79761 0.0
C1867 C 0.74336 0.97932 0.80598 0.0
C1868 C 0.71964 0.96992 0.80532 0.0
C1869 C 0.70406 0.98038 0.79559 0.0
C1870 C 0.76931 0.93929 0.83604 0.0
C1871 C 0.78573 0.93603 0.82184 0.0
C1872 C 0.75636 0.95438 0.83175 0.0
C1873 C 0.75962 0.96648 0.81319 0.0
C1874 C 0.77715 0.96437 0.80001 0.0
C1875 C 0.79009 0.94931 0.80431 0.0
H1876 H 0.75578 0.95182 0.54232 0.0
H1877 H 0.70095 0.88979 0.5264 0.0
H1878 H 0.72944 0.9733 0.531 0.0
H1879 H 0.6743 0.91168 0.51502 0.0
H1880 H 0.63364 0.96772 0.52513 0.0
H1881 H 0.6573 0.94248 0.53369 0.0
H1882 H 0.70763 0.97657 0.494 0.0
H1883 H 0.68384 1.00152 0.48497 0.0
C1884 C 0.73804 0.94273 0.53645 0.0
C1885 C 0.73047 0.91904 0.53516 0.0
C1886 C 0.723 0.95508 0.5298 0.0
C1887 C 0.69992 0.94413 0.52185 0.0
C1888 C 0.69206 0.92051 0.52107 0.0
C1889 C 0.70727 0.90801 0.52755 0.0
C1890 C 0.64951 0.96955 0.51781 0.0
C1891 C 0.65691 0.98678 0.50446 0.0
C1892 C 0.66305 0.95509 0.52276 0.0
C1893 C 0.68434 0.95769 0.51465 0.0
C1894 C 0.69142 0.97442 0.50075 0.0
C1895 C 0.67784 0.98876 0.49566 0.0
H1896 H 0.42718 0.44597 0.74587 0.0
H1897 H 0.37992 0.48254 0.76953 0.0
H1898 H 0.39927 0.41027 0.7476 0.0
H1899 H 0.35209 0.44668 0.77151 0.0
H1900 H 0.35974 0.35623 0.7857 0.0
H1901 H 0.38479 0.3919 0.77981 0.0
H1902 H 0.32677 0.41065 0.74836 0.0
H1903 H 0.30128 0.37462 0.75446 0.0
C1904 C 0.4108 0.44643 0.7513 0.0
C1905 C 0.40592 0.46716 0.7578 0.0
C1906 C 0.39483 0.42595 0.75237 0.0
C1907 C 0.37359 0.42569 0.75994 0.0
C1908 C 0.36827 0.44635 0.76551 0.0
C1909 C 0.38429 0.46688 0.76449 0.0
C1910 C 0.35217 0.36788 0.77755 0.0
C1911 C 0.32843 0.36252 0.77056 0.0
C1912 C 0.36663 0.3883 0.77399 0.0
C1913 C 0.35781 0.40399 0.7634 0.0
C1914 C 0.33404 0.39887 0.75662 0.0
C1915 C 0.31948 0.37824 0.76006 0.0
H1916 H 0.16174 0.6181 0.21339 0.0
H1917 H 0.21928 0.59662 0.24208 0.0
H1918 H 0.1851 0.65734 0.22071 0.0
H1919 H 0.24236 0.63579 0.24973 0.0
H1920 H 0.22176 0.72321 0.26961 0.0
H1921 H 0.20007 0.68397 0.2565 0.0
H1922 H 0.26048 0.66924 0.23314 0.0
H1923 H 0.28232 0.70834 0.24656 0.0
C1924 C 0.17947 0.62166 0.22084 0.0
C1925 C 0.18856 0.60425 0.2274 0.0
C1926 C 0.19276 0.64416 0.22525 0.0
C1927 C 0.2154 0.64965 0.23617 0.0
C1928 C 0.22497 0.63209 0.24126 0.0
C1929 C 0.21169 0.60963 0.23692 0.0
C1930 C 0.23045 0.71159 0.26176 0.0
C1931 C 0.25378 0.71888 0.25921 0.0
C1932 C 0.21796 0.68918 0.25402 0.0
C1933 C 0.22854 0.6736 0.24359 0.0
C1934 C 0.2519 0.68084 0.2412 0.0
C1935 C 0.26439 0.70325 0.24892 0.0
H1936 H 0.4827 0.68583 0.44841 0.0
H1937 H 0.52835 0.72546 0.50726 0.0
H1938 H 0.48741 0.65103 0.4615 0.0
H1939 H 0.53302 0.69061 0.5205 0.0
H1940 H 0.5575 0.62568 0.52301 0.0
H1941 H 0.55076 0.66043 0.51183 0.0
H1942 H 0.4797 0.62529 0.48927 0.0
H1943 H 0.48655 0.59035 0.50038 0.0
C1944 C 0.49357 0.68718 0.46433 0.0
C1945 C 0.50508 0.70871 0.47672 0.0
C1946 C 0.49623 0.66707 0.47192 0.0
C1947 C 0.51073 0.66766 0.49212 0.0
C1948 C 0.52194 0.68922 0.50472 0.0
C1949 C 0.5191 0.70934 0.49721 0.0
C1950 C 0.54037 0.62526 0.51575 0.0
C1951 C 0.52261 0.60491 0.5127 0.0
C1952 C 0.53644 0.6454 0.50943 0.0
C1953 C 0.51462 0.64604 0.49958 0.0
C1954 C 0.49682 0.62567 0.49655 0.0
C1955 C 0.50071 0.60554 0.50309 0.0
H1956 H 0.62858 0.3205 0.68566 0.0
H1957 H 0.66866 0.32553 0.62945 0.0
H1958 H 0.66061 0.31533 0.71009 0.0
H1959 H 0.7012 0.32088 0.6542 0.0
H1960 H 0.74523 0.28636 0.69851 0.0
H1961 H 0.71458 0.29347 0.67329 0.0
H1962 H 0.69747 0.33363 0.73012 0.0
H1963 H 0.72765 0.32607 0.75536 0.0
C1964 C 0.64436 0.32077 0.67854 0.0
C1965 C 0.64594 0.32347 0.6555 0.0
C1966 C 0.66289 0.31791 0.69266 0.0
C1967 C 0.68373 0.31771 0.6843 0.0
C1968 C 0.68542 0.32066 0.66127 0.0
C1969 C 0.66679 0.32352 0.64708 0.0
C1970 C 0.73498 0.29676 0.70565 0.0
C1971 C 0.73896 0.30549 0.72912 0.0
C1972 C 0.71742 0.30098 0.69109 0.0
C1973 C 0.70329 0.31407 0.69953 0.0
C1974 C 0.7076 0.32313 0.72294 0.0
C1975 C 0.7251 0.31889 0.73747 0.0
H1976 H 0.03574 0.3554 0.0018 0.0
H1977 H 0.99391 0.36316 0.94217 0.0
H1978 H 0.03867 0.39481 0.01828 0.0
H1979 H 0.99666 0.40194 0.95835 0.0
H1980 H 0.99174 0.46719 -0.00105 0.0
H1981 H 0.9859 0.42646 0.9879 0.0
H1982 H 0.05719 0.43379 0.01081 0.0
H1983 H 0.06301 0.47441 0.02193 0.0
C1984 C 0.02675 0.36528 0.99246 0.0
C1985 C 0.01451 0.356 0.97069 0.0
C1986 C 0.02862 0.38799 0.00175 0.0
C1987 C 0.01793 0.40181 0.98968 0.0
C1988 C 0.00494 0.39201 0.96838 0.0
C1989 C 1.00342 0.36965 0.95903 0.0
C1990 C 0.00617 0.46016 0.00175 0.0
C1991 C 0.0279 0.47438 0.0112 0.0
C1992 C 1.00284 0.4367 0.99534 0.0
C1993 C 0.02106 0.42658 -0.00164 0.0
C1994 C 0.04264 0.44073 0.00839 0.0
C1995 C 0.04602 0.4642 0.01459 0.0
H1996 H 0.02363 0.76975 0.18151 0.0
H1997 H 0.01004 0.8222 0.14465 0.0
H1998 H 0.98863 0.76698 0.19845 0.0
H1999 H 0.9743 0.81917 0.16169 0.0
H2000 H 0.93061 0.8249 0.22315 0.0
H2001 H 0.96217 0.82752 0.20011 0.0
H2002 H 0.94739 0.75455 0.18907 0.0
H2003 H 0.91602 0.75194 0.21205 0.0
C2004 C 0.01306 0.78063 0.17683 0.0
C2005 C 0.01979 0.79629 0.16172 0.0
C2006 C 0.99278 0.77888 0.18646 0.0
C2007 C 0.97851 0.79276 0.1814 0.0
C2008 C 0.98497 0.8083 0.16605 0.0
C2009 C 0.00535 0.80993 0.15617 0.0
C2010 C 0.93387 0.8094 0.21549 0.0
C2011 C 0.92097 0.78821 0.21977 0.0
C2012 C 0.95195 0.81092 0.20223 0.0
C2013 C 0.95753 0.79127 0.19294 0.0
C2014 C 0.94391 0.77007 0.19636 0.0
C2015 C 0.92593 0.76856 0.2096 0.0
H2016 H 0.53571 0.29878 0.1155 0.0
H2017 H 0.53493 0.34655 0.1745 0.0
H2018 H 0.53999 0.32895 0.09181 0.0
H2019 H 0.53931 0.37678 0.15077 0.0
H2020 H 0.52142 0.41833 0.09521 0.0
H2021 H 0.5174 0.38846 0.11918 0.0
H2022 H 0.56854 0.36389 0.08655 0.0
H2023 H 0.57302 0.39403 0.06291 0.0
C2024 C 0.53649 0.31573 0.12344 0.0
C2025 C 0.53497 0.32022 0.14692 0.0
C2026 C 0.53906 0.33307 0.10986 0.0
C2027 C 0.54001 0.35532 0.11936 0.0
C2028 C 0.53841 0.3598 0.14284 0.0
C2029 C 0.53603 0.34249 0.15647 0.0
C2030 C 0.53205 0.40677 0.09328 0.0
C2031 C 0.54758 0.40875 0.07702 0.0
C2032 C 0.52968 0.38958 0.10704 0.0
C2033 C 0.54263 0.37375 0.10481 0.0
C2034 C 0.55806 0.3756 0.08851 0.0
C2035 C 0.56057 0.39289 0.07488 0.0
H2036 H 0.97527 0.32264 0.35848 0.0
H2037 H 0.9809 0.31807 0.28636 0.0
H2038 H 0.93387 0.31816 0.3501 0.0
H2039 H 0.93947 0.31274 0.27803 0.0
H2040 H 0.86029 0.27542 0.27701 0.0
H2041 H 0.90157 0.28045 0.28573 0.0
H2042 H 0.90795 0.34347 0.32904 0.0
H2043 H 0.86657 0.33889 0.31965 0.0
C2044 C 0.96767 0.32037 0.34084 0.0
C2045 C 0.9815 0.32063 0.3231 0.0
C2046 C 0.94397 0.31799 0.33606 0.0
C2047 C 0.93335 0.31516 0.31339 0.0
C2048 C 0.94708 0.31487 0.29566 0.0
C2049 C 0.97084 0.3179 0.30045 0.0
C2050 C 0.87044 0.29042 0.28835 0.0
C2051 C 0.86001 0.30677 0.29759 0.0
C2052 C 0.89414 0.2933 0.2933 0.0
C2053 C 0.90807 0.31231 0.30814 0.0
C2054 C 0.89767 0.32858 0.31763 0.0
C2055 C 0.874 0.32601 0.31216 0.0
H2056 H 0.01028 0.70201 0.62242 0.0
H2057 H 0.00769 0.66048 0.67618 0.0
H2058 H 0.01217 0.6701 0.59496 0.0
H2059 H 0.00883 0.62838 0.64869 0.0
H2060 H 0.03822 0.58339 0.59977 0.0
H2061 H 0.03406 0.61446 0.62692 0.0
H2062 H 0.9928 0.63421 0.57396 0.0
H2063 H 0.99759 0.60359 0.54669 0.0
C2064 C 0.00971 0.68597 0.62834 0.0
C2065 C 0.00888 0.68395 0.65161 0.0
C2066 C 0.01073 0.66755 0.61253 0.0
C2067 C 0.01083 0.64649 0.61947 0.0
C2068 C 0.0093 0.64434 0.64265 0.0
C2069 C 0.00842 0.66278 0.65846 0.0
C2070 C 0.02819 0.5943 0.59391 0.0
C2071 C 0.01831 0.5909 0.57094 0.0
C2072 C 0.02566 0.61212 0.60957 0.0
C2073 C 0.01306 0.62706 0.6028 0.0
C2074 C 1.00294 0.62342 0.57986 0.0
C2075 C 0.00557 0.60567 0.56418 0.0
H2076 H 0.63716 0.83124 0.87045 0.0
H2077 H 0.60155 0.81236 0.80182 0.0
H2078 H 0.67216 0.82625 0.85659 0.0
H2079 H 0.63686 0.80787 0.78769 0.0
H2080 H 0.73803 0.8349 0.82431 0.0
H2081 H 0.70274 0.84088 0.83667 0.0
H2082 H 0.66321 0.78552 0.78554 0.0
H2083 H 0.69862 0.77999 0.77278 0.0
C2084 C 0.63678 0.82618 0.85231 0.0
C2085 C 0.6163 0.82226 0.83734 0.0
C2086 C 0.65707 0.82344 0.84425 0.0
C2087 C 0.65777 0.8167 0.82085 0.0
C2088 C 0.63723 0.8128 0.80584 0.0
C2089 C 0.61687 0.81553 0.81394 0.0
C2090 C 0.72185 0.82404 0.81555 0.0
C2091 C 0.72146 0.80692 0.79745 0.0
C2092 C 0.70142 0.82736 0.82282 0.0
C2093 C 0.67972 0.81363 0.81236 0.0
C2094 C 0.67935 0.79671 0.794 0.0
C2095 C 0.69981 0.79343 0.78669 0.0
H2096 H 0.50591 0.56114 0.71584 0.0
H2097 H 0.43622 0.53987 0.68208 0.0
H2098 H 0.51998 0.56096 0.67861 0.0
H2099 H 0.45022 0.53996 0.64504 0.0
H2100 H 0.53591 0.57836 0.60733 0.0
H2101 H 0.52221 0.58033 0.64467 0.0
H2102 H 0.46942 0.51792 0.62118 0.0
H2103 H 0.48286 0.51609 0.58388 0.0
C2104 C 0.4936 0.55659 0.70051 0.0
C2105 C 0.46994 0.55042 0.70198 0.0
C2106 C 0.50166 0.55658 0.67915 0.0
C2107 C 0.48624 0.55031 0.65878 0.0
C2108 C 0.4626 0.54452 0.66033 0.0
C2109 C 0.45456 0.5446 0.68162 0.0
C2110 C 0.52132 0.5651 0.6101 0.0
C2111 C 0.51046 0.5471 0.59252 0.0
C2112 C 0.51356 0.56616 0.63158 0.0
C2113 C 0.49467 0.54931 0.63597 0.0
C2114 C 0.48381 0.53137 0.61834 0.0
C2115 C 0.49162 0.53025 0.59695 0.0
H2116 H 0.7786 0.1593 0.96717 0.0
H2117 H 0.79112 0.21975 0.01668 0.0
H2118 H 0.77368 0.18122 0.93641 0.0
H2119 H 0.78563 0.24149 0.98605 0.0
H2120 H 0.79152 0.27731 0.92303 0.0
H2121 H 0.80095 0.25625 0.95312 0.0
H2122 H 0.74438 0.19881 0.92317 0.0
H2123 H 0.73516 0.21982 0.893 0.0
C2124 C 0.78055 0.1773 0.97146 0.0
C2125 C 0.7851 0.18778 0.99433 0.0
C2126 C 0.77753 0.18981 0.95387 0.0
C2127 C 0.77895 0.21301 0.95883 0.0
C2128 C 0.78456 0.22368 0.98164 0.0
C2129 C 0.78764 0.21119 -0.00079 0.0
C2130 C 0.78096 0.26028 0.92308 0.0
C2131 C 0.76256 0.25021 0.90575 0.0
C2132 C 0.78641 0.24819 0.94023 0.0
C2133 C 0.77352 0.22581 0.94043 0.0
C2134 C 0.75495 0.21586 0.92322 0.0
C2135 C 0.74956 0.22792 0.90604 0.0
H2136 H 0.08965 0.49765 0.20015 0.0
H2137 H 0.14913 0.49784 0.16574 0.0
H2138 H 0.06824 0.50051 0.16449 0.0
H2139 H 0.12741 0.50011 0.12983 0.0
H2140 H 0.09905 0.54941 0.09056 0.0
H2141 H 0.11664 0.53408 0.12094 0.0
H2142 H 0.05152 0.48669 0.12441 0.0
H2143 H 0.0336 0.50236 0.0939 0.0
C2144 C 0.09792 0.49752 0.18479 0.0
C2145 C 0.12126 0.49821 0.18584 0.0
C2146 C 0.08558 0.49904 0.16432 0.0
C2147 C 0.09637 0.50114 0.14454 0.0
C2148 C 0.11889 0.4991 0.14501 0.0
C2149 C 0.13126 0.49764 0.16553 0.0
C2150 C 0.08838 0.53575 0.09776 0.0
C2151 C 0.06486 0.52726 0.08997 0.0
C2152 C 0.09858 0.5267 0.11496 0.0
C2153 C 0.08554 0.50893 0.12481 0.0
C2154 C 0.06198 0.50037 0.11707 0.0
C2155 C 0.05173 0.50942 0.09972 0.0
H2156 H 0.77658 0.83102 0.47277 0.0
H2157 H 0.81016 0.89542 0.45354 0.0
H2158 H 0.77948 0.81197 0.43483 0.0
H2159 H 0.8133 0.87652 0.41615 0.0
H2160 H 0.83126 0.8344 0.35643 0.0
H2161 H 0.83247 0.84856 0.39696 0.0
H2162 H 0.76113 0.81284 0.39418 0.0
H2163 H 0.75981 0.79886 0.35379 0.0
C2164 C 0.78483 0.84104 0.46061 0.0
C2165 C 0.79297 0.86474 0.46612 0.0
C2166 C 0.78643 0.83017 0.43889 0.0
C2167 C 0.79668 0.84275 0.42251 0.0
C2168 C 0.80554 0.8663 0.42842 0.0
C2169 C 0.80355 0.87715 0.44983 0.0
C2170 C 0.81594 0.82929 0.36455 0.0
C2171 C 0.79541 0.81565 0.3518 0.0
C2172 C 0.81661 0.83747 0.38774 0.0
C2173 C 0.79687 0.83186 0.39877 0.0
C2174 C 0.77667 0.81732 0.38627 0.0
C2175 C 0.7759 0.80945 0.36305 0.0
H2176 H 0.52056 0.52997 0.83343 0.0
H2177 H 0.45802 0.54638 0.84784 0.0
H2178 H 0.5312 0.53012 0.874 0.0
H2179 H 0.46814 0.54562 0.88832 0.0
H2180 H 0.50245 0.56409 0.96179 0.0
H2181 H 0.49255 0.56476 0.92142 0.0
H2182 H 0.52288 0.50976 0.90466 0.0
H2183 H 0.53366 0.50976 0.94531 0.0
C2184 C 0.50903 0.53358 0.84526 0.0
C2185 C 0.48845 0.53824 0.83731 0.0
C2186 C 0.51505 0.53345 0.86858 0.0
C2187 C 0.50053 0.53775 0.88464 0.0
C2188 C 0.48 0.54257 0.87664 0.0
C2189 C 0.47411 0.54294 0.85334 0.0
C2190 C 0.50694 0.55202 0.94954 0.0
C2191 C 0.51881 0.53679 0.95688 0.0
C2192 C 0.50113 0.55235 0.92626 0.0
C2193 C 0.50679 0.53729 0.90955 0.0
C2194 C 0.51853 0.5219 0.91692 0.0
C2195 C 0.52458 0.52175 0.94028 0.0
H2196 H 0.79176 0.16198 0.15106 0.0
H2197 H 0.812 0.21091 0.10532 0.0
H2198 H 0.80014 0.19243 0.18297 0.0
H2199 H 0.82078 0.24156 0.13758 0.0
H2200 H 0.79162 0.283 0.19508 0.0
H2201 H 0.79639 0.25778 0.1619 0.0
H2202 H 0.82968 0.2223 0.20696 0.0
H2203 H 0.82422 0.24702 0.23985 0.0
C2204 C 0.79844 0.17922 0.14788 0.0
C2205 C 0.80098 0.18402 0.12563 0.0
C2206 C 0.80344 0.19671 0.16623 0.0
C2207 C 0.81109 0.21943 0.16277 0.0
C2208 C 0.81472 0.22422 0.14069 0.0
C2209 C 0.8098 0.20665 0.12228 0.0
C2210 C 0.80049 0.27018 0.19768 0.0
C2211 C 0.80717 0.26648 0.21979 0.0
C2212 C 0.8033 0.2558 0.17877 0.0
C2213 C 0.81301 0.23778 0.1819 0.0
C2214 C 0.82165 0.23567 0.20406 0.0
C2215 C 0.81857 0.24978 0.22284 0.0
H2216 H 0.15507 0.56241 0.31975 0.0
H2217 H 0.09347 0.57623 0.2896 0.0
H2218 H 0.14906 0.57882 0.35728 0.0
H2219 H 0.0873 0.59213 0.32707 0.0
H2220 H 0.0855 0.63024 0.39405 0.0
H2221 H 0.10197 0.62335 0.35883 0.0
H2222 H 0.12088 0.56639 0.38288 0.0
H2223 H 0.10457 0.57322 0.41779 0.0
C2224 C 0.14028 0.56895 0.32111 0.0
C2225 C 0.1246 0.5678 0.30174 0.0
C2226 C 0.13689 0.57839 0.34258 0.0
C2227 C 0.11778 0.58683 0.34508 0.0
C2228 C 0.10243 0.58616 0.32563 0.0
C2229 C 0.10582 0.57677 0.30419 0.0
C2230 C 0.09363 0.61657 0.39195 0.0
C2231 C 0.09353 0.60213 0.40854 0.0
C2232 C 0.10299 0.61261 0.37183 0.0
C2233 C 0.11238 0.59413 0.368 0.0
C2234 C 0.11396 0.58088 0.38541 0.0
C2235 C 0.10462 0.58484 0.40548 0.0
H2236 H 0.76087 0.82414 0.59492 0.0
H2237 H 0.80767 0.88715 0.6285 0.0
H2238 H 0.75787 0.81056 0.63177 0.0
H2239 H 0.80533 0.8734 0.66515 0.0
H2240 H 0.78041 0.85164 0.73084 0.0
H2241 H 0.78117 0.86506 0.69379 0.0
H2242 H 0.77798 0.79776 0.66112 0.0
H2243 H 0.77644 0.78429 0.69783 0.0
C2244 C 0.77073 0.835 0.61013 0.0
C2245 C 0.78452 0.85673 0.6087 0.0
C2246 C 0.76907 0.8272 0.63132 0.0
C2247 C 0.78129 0.84087 0.65164 0.0
C2248 C 0.79529 0.86251 0.65006 0.0
C2249 C 0.79682 0.87033 0.62894 0.0
C2250 C 0.77969 0.83969 0.71573 0.0
C2251 C 0.77834 0.81687 0.71743 0.0
C2252 C 0.78031 0.84741 0.69444 0.0
C2253 C 0.77973 0.83256 0.6743 0.0
C2254 C 0.77811 0.80969 0.67607 0.0
C2255 C 0.77735 0.80196 0.69727 0.0
H2256 H 0.7474 0.48785 0.53845 0.0
H2257 H 0.7022 0.42544 0.55145 0.0
H2258 H 0.72538 0.50936 0.55877 0.0
H2259 H 0.68025 0.44722 0.57246 0.0
H2260 H 0.63113 0.49505 0.57068 0.0
H2261 H 0.65454 0.46956 0.56187 0.0
H2262 H 0.71491 0.52092 0.59549 0.0
H2263 H 0.69133 0.54673 0.60399 0.0
C2264 C 0.73287 0.47872 0.54589 0.0
C2265 C 0.72639 0.45495 0.54319 0.0
C2266 C 0.72041 0.4911 0.55783 0.0
C2267 C 0.7012 0.48001 0.56744 0.0
C2268 C 0.69494 0.45621 0.56516 0.0
C2269 C 0.70744 0.44376 0.55311 0.0
C2270 C 0.64928 0.50065 0.57693 0.0
C2271 C 0.6595 0.52298 0.58778 0.0
C2272 C 0.66272 0.486 0.57186 0.0
C2273 C 0.68662 0.49338 0.57761 0.0
C2274 C 0.69656 0.51498 0.59038 0.0
C2275 C 0.68312 0.52971 0.59532 0.0
H2276 H 0.19122 0.17743 0.50882 0.0
H2277 H 0.21916 0.12015 0.49594 0.0
H2278 H 0.15349 0.15159 0.50923 0.0
H2279 H 0.18147 0.09438 0.49585 0.0
H2280 H 0.11887 0.05809 0.52795 0.0
H2281 H 0.15599 0.08299 0.52379 0.0
H2282 H 0.12203 0.12326 0.48559 0.0
H2283 H 0.08501 0.09873 0.49011 0.0
C2284 C 0.18923 0.15934 0.50573 0.0
C2285 C 0.20817 0.15083 0.50252 0.0
C2286 C 0.16761 0.14452 0.5059 0.0
C2287 C 0.16453 0.12091 0.50276 0.0
C2288 C 0.18336 0.11246 0.49875 0.0
C2289 C 0.20492 0.12724 0.49865 0.0
C2290 C 0.11933 0.07215 0.51852 0.0
C2291 C 0.09898 0.07647 0.50949 0.0
C2292 C 0.14061 0.08638 0.51604 0.0
C2293 C 0.14196 0.10518 0.50443 0.0
C2294 C 0.12159 0.10916 0.49495 0.0
C2295 C 0.10035 0.09498 0.49745 0.0
H2296 H 0.20163 0.02699 0.77267 0.0
H2297 H 0.14284 0.97344 0.78107 0.0
H2298 H 0.22435 0.99988 0.76895 0.0
H2299 H 0.1658 0.94634 0.77813 0.0
H2300 H 0.20629 0.90011 0.74669 0.0
H2301 H 0.18343 0.92713 0.75099 0.0
H2302 H 0.24217 0.97697 0.78979 0.0
H2303 H 0.2651 0.95002 0.785 0.0
C2304 C 0.19361 0.00944 0.77395 0.0
C2305 C 0.17041 1.00236 0.77714 0.0
C2306 C 0.20669 0.99389 0.77195 0.0
C2307 C 0.19697 0.97087 0.77325 0.0
C2308 C 0.17379 0.96385 0.77668 0.0
C2309 C 0.16065 0.9794 0.77852 0.0
C2310 C 0.21426 0.91681 0.75624 0.0
C2311 C 0.2375 0.92295 0.76547 0.0
C2312 C 0.20114 0.93229 0.75878 0.0
C2313 C 0.2109 0.95427 0.77077 0.0
C2314 C 0.23415 0.96034 0.78012 0.0
C2315 C 0.24732 0.9449 0.77741 0.0
H2316 H 0.33156 0.93788 0.01643 0.0
H2317 H 0.3203 0.99291 0.98217 0.0
H2318 H 0.37271 0.95467 0.02032 0.0
H2319 H 0.36168 0.00981 0.98633 0.0
H2320 H 0.44188 0.00531 0.04732 0.0
H2321 H 0.40047 0.98915 0.04237 0.0
H2322 H 0.39656 1.00156 0.97226 0.0
H2323 H 0.43796 0.01795 0.97718 0.0
C2324 C 0.33784 0.95353 0.00966 0.0
C2325 C 0.32263 0.9641 -0.00097 0.0
C2326 C 0.36143 0.96321 0.01205 0.0
C2327 C 0.37034 0.98361 0.00379 0.0
C2328 C 0.35523 0.99399 0.99274 0.0
C2329 C 0.33156 0.98436 0.99044 0.0
C2330 C 0.4322 0.00466 0.03087 0.0
C2331 C 0.44319 0.01285 0.01262 0.0
C2332 C 0.40852 0.9953 0.02801 0.0
C2333 C 0.39536 0.99404 0.0069 0.0
C2334 C 0.40629 1.00249 0.98876 0.0
C2335 C 0.43 0.01175 0.99157 0.0
H2336 H 0.8288 0.56256 0.80775 0.0
H2337 H 0.88316 0.62349 0.80784 0.0
H2338 H 0.80039 0.58272 0.79722 0.0
H2339 H 0.8548 0.64323 0.79706 0.0
H2340 H 0.80311 0.65096 0.73855 0.0
H2341 H 0.82651 0.6286 0.75495 0.0
H2342 H 0.78844 0.624 0.81261 0.0
H2343 H 0.76537 0.64719 0.79669 0.0
C2344 C 0.83465 0.58036 0.80617 0.0
C2345 C 0.85821 0.59137 0.80825 0.0
C2346 C 0.81841 0.5918 0.80012 0.0
C2347 C 0.82562 0.61424 0.79596 0.0
C2348 C 0.84899 0.62577 0.79993 0.0
C2349 C 0.86517 0.61449 0.80619 0.0
C2350 C 0.79956 0.64504 0.75461 0.0
C2351 C 0.78266 0.65112 0.7665 0.0
C2352 C 0.81292 0.63228 0.76395 0.0
C2353 C 0.80938 0.62508 0.78514 0.0
C2354 C 0.7914 0.62955 0.79627 0.0
C2355 C 0.77816 0.64262 0.78705 0.0
H2356 H 0.8474 0.67734 0.01206 0.0
H2357 H 0.82288 0.64391 0.0683 0.0
H2358 H 0.88077 0.66188 0.01514 0.0
H2359 H 0.8555 0.62833 0.07107 0.0
H2360 H 0.92205 0.61222 0.08186 0.0
H2361 H 0.89621 0.63655 0.08084 0.0
H2362 H 0.88689 0.62393 0.00701 0.0
H2363 H 0.91307 0.59987 0.00809 0.0
C2364 C 0.84932 0.66705 0.02528 0.0
C2365 C 0.83242 0.66171 0.03981 0.0
C2366 C 0.86829 0.65804 0.02693 0.0
C2367 C 0.87078 0.6438 0.04331 0.0
C2368 C 0.85437 0.63944 0.05845 0.0
C2369 C 0.83549 0.64825 0.05672 0.0
C2370 C 0.91456 0.61475 0.06542 0.0
C2371 C 0.91933 0.60388 0.04506 0.0
C2372 C 0.8998 0.62872 0.06482 0.0
C2373 C 0.88928 0.63202 0.04384 0.0
C2374 C 0.89488 0.62197 0.02345 0.0
C2375 C 0.90979 0.60809 0.02406 0.0
H2376 H 0.14307 0.15053 0.78553 0.0
H2377 H 0.19535 0.11563 0.79715 0.0
H2378 H 0.17252 0.18594 0.78767 0.0
H2379 H 0.22497 0.1514 0.79968 0.0
H2380 H 0.2676 0.21479 0.77125 0.0
H2381 H 0.24068 0.17851 0.77391 0.0
H2382 H 0.20166 0.21353 0.81463 0.0
H2383 H 0.22812 0.24961 0.81167 0.0
C2384 C 0.16085 0.15044 0.7888 0.0
C2385 C 0.16681 0.1302 0.79114 0.0
C2386 C 0.17776 0.17081 0.79017 0.0
C2387 C 0.2011 0.17151 0.7939 0.0
C2388 C 0.20714 0.15136 0.79659 0.0
C2389 C 0.19016 0.13092 0.7953 0.0
C2390 C 0.25342 0.2147 0.78098 0.0
C2391 C 0.24985 0.23512 0.79097 0.0
C2392 C 0.23805 0.19391 0.78259 0.0
C2393 C 0.21887 0.19318 0.79425 0.0
C2394 C 0.21598 0.21355 0.80512 0.0
C2395 C 0.23124 0.23424 0.80347 0.0
H2396 H 0.40364 0.96382 0.2719 0.0
H2397 H 0.34942 0.97893 0.30761 0.0
H2398 H 0.38481 0.92345 0.26852 0.0
H2399 H 0.33048 0.93864 0.30383 0.0
H2400 H 0.31577 0.86427 0.31338 0.0
H2401 H 0.33575 0.90436 0.31781 0.0
H2402 H 0.34977 0.89627 0.24785 0.0
H2403 H 0.33014 0.85601 0.24345 0.0
C2404 C 0.38775 0.95856 0.27906 0.0
C2405 C 0.37802 0.97462 0.29001 0.0
C2406 C 0.37689 0.93544 0.27698 0.0
C2407 C 0.35614 0.92791 0.28583 0.0
C2408 C 0.34659 0.94393 0.29705 0.0
C2409 C 0.35741 0.96703 0.29912 0.0
C2410 C 0.3231 0.871 0.29891 0.0
C2411 C 0.32135 0.85693 0.27805 0.0
C2412 C 0.33446 0.894 0.30145 0.0
C2413 C 0.34432 0.90344 0.28318 0.0
C2414 C 0.34259 0.8894 0.26232 0.0
C2415 C 0.3312 0.86637 0.25976 0.0
H2416 H 0.59752 0.38322 0.56295 0.0
H2417 H 0.53981 0.37807 0.6007 0.0
H2418 H 0.5913 0.41784 0.54988 0.0
H2419 H 0.53312 0.41206 0.587 0.0
H2420 H 0.51448 0.45922 0.53572 0.0
H2421 H 0.52137 0.42465 0.54788 0.0
H2422 H 0.59264 0.45969 0.56866 0.0
H2423 H 0.58562 0.49454 0.5572 0.0
C2424 C 0.58338 0.38929 0.56831 0.0
C2425 C 0.56919 0.37764 0.58293 0.0
C2426 C 0.57987 0.40927 0.56089 0.0
C2427 C 0.56164 0.4179 0.56728 0.0
C2428 C 0.54724 0.40598 0.58156 0.0
C2429 C 0.55113 0.38644 0.58948 0.0
C2430 C 0.53167 0.45962 0.54279 0.0
C2431 C 0.54944 0.4799 0.54537 0.0
C2432 C 0.53561 0.43974 0.5499 0.0
C2433 C 0.5576 0.43918 0.55929 0.0
C2434 C 0.57551 0.45931 0.56141 0.0
C2435 C 0.57144 0.47938 0.55488 0.0
H2436 H 0.44071 0.74393 0.36203 0.0
H2437 H 0.42473 0.78541 0.41832 0.0
H2438 H 0.40464 0.74281 0.33968 0.0
H2439 H 0.38851 0.78478 0.39568 0.0
H2440 H 0.31881 0.76946 0.34736 0.0
H2441 H 0.34953 0.76327 0.37373 0.0
H2442 H 0.39482 0.77331 0.32198 0.0
H2443 H 0.36455 0.77931 0.29593 0.0
C2444 C 0.42904 0.75217 0.3699 0.0
C2445 C 0.43543 0.76455 0.39199 0.0
C2446 C 0.40849 0.75181 0.35698 0.0
C2447 C 0.39386 0.76414 0.36563 0.0
C2448 C 0.39933 0.77506 0.38847 0.0
C2449 C 0.41999 0.7753 0.40153 0.0
C2450 C 0.33532 0.77021 0.34162 0.0
C2451 C 0.33912 0.77485 0.31943 0.0
C2452 C 0.35294 0.76675 0.35677 0.0
C2453 C 0.37463 0.76752 0.34994 0.0
C2454 C 0.37826 0.77211 0.32775 0.0
C2455 C 0.36086 0.77575 0.31279 0.0
H2456 H 0.03955 0.7344 0.07195 0.0
H2457 H 0.10827 0.73505 0.09808 0.0
H2458 H 0.03197 0.69416 0.05569 0.0
H2459 H 0.10094 0.69536 0.08182 0.0
H2460 H 0.08678 0.62747 0.03574 0.0
H2461 H 0.09328 0.66833 0.04616 0.0
H2462 H 0.02759 0.65702 0.07105 0.0
H2463 H 0.02108 0.61608 0.0607 0.0
C2464 C 0.05323 0.72618 0.07365 0.0
C2465 C 0.07461 0.73809 0.08612 0.0
C2466 C 0.04882 0.70301 0.06461 0.0
C2467 C 0.06581 0.6913 0.06745 0.0
C2468 C 0.08746 0.70365 0.07902 0.0
C2469 C 0.09169 0.72652 0.08836 0.0
C2470 C 0.07365 0.63362 0.04337 0.0
C2471 C 0.05347 0.61825 0.04751 0.0
C2472 C 0.07741 0.65715 0.04942 0.0
C2473 C 0.06099 0.66619 0.05951 0.0
C2474 C 0.04056 0.65084 0.06313 0.0
C2475 C 0.03693 0.62726 0.05737 0.0
H2476 H 0.04617 0.2772 0.87618 0.0
H2477 H 0.09499 0.29321 0.93748 0.0
H2478 H 0.07742 0.28516 0.85314 0.0
H2479 H 0.12648 0.3014 0.91424 0.0
H2480 H 0.17474 0.28861 0.86044 0.0
H2481 H 0.14477 0.28181 0.88532 0.0
H2482 H 0.10697 0.318 0.84581 0.0
H2483 H 0.13699 0.32509 0.82115 0.0
C2484 C 0.0636 0.28244 0.88478 0.0
C2485 C 0.06807 0.28462 0.90871 0.0
C2486 C 0.08154 0.28716 0.87154 0.0
C2487 C 0.10446 0.29408 0.88183 0.0
C2488 C 0.109 0.29598 0.90577 0.0
C2489 C 0.09098 0.29139 0.91909 0.0
C2490 C 0.16021 0.29541 0.85723 0.0
C2491 C 0.15829 0.30731 0.83864 0.0
C2492 C 0.14301 0.29148 0.8715 0.0
C2493 C 0.1234 0.29923 0.86748 0.0
C2494 C 0.12165 0.31144 0.84915 0.0
C2495 C 0.13887 0.31546 0.83496 0.0
H2496 H 0.56212 0.78748 0.93843 0.0
H2497 H 0.52239 0.74046 0.88032 0.0
H2498 H 0.55785 0.7567 0.96134 0.0
H2499 H 0.51821 0.70959 0.90325 0.0
H2500 H 0.49549 0.66553 0.95921 0.0
H2501 H 0.49937 0.69613 0.93599 0.0
H2502 H 0.57066 0.72234 0.96422 0.0
H2503 H 0.56667 0.69205 0.98773 0.0
C2504 C 0.55247 0.77057 0.93052 0.0
C2505 C 0.54261 0.76648 0.9075 0.0
C2506 C 0.55014 0.75287 0.94364 0.0
C2507 C 0.53773 0.73061 0.93416 0.0
C2508 C 0.52771 0.72655 0.91118 0.0
C2509 C 0.5302 0.74424 0.89799 0.0
C2510 C 0.51196 0.6779 0.96056 0.0
C2511 C 0.53075 0.67629 0.97539 0.0
C2512 C 0.51425 0.69533 0.94708 0.0
C2513 C 0.53533 0.71176 0.94822 0.0
C2514 C 0.55411 0.71014 0.96304 0.0
C2515 C 0.55188 0.69261 0.97637 0.0
H2516 H 0.09867 0.74717 0.68893 0.0
H2517 H 0.09009 0.78522 0.75165 0.0
H2518 H 0.13876 0.75188 0.70323 0.0
H2519 H 0.13058 0.79018 0.76595 0.0
H2520 H 0.21055 0.81664 0.76905 0.0
H2521 H 0.16963 0.81045 0.75725 0.0
H2522 H 0.16353 0.74023 0.73293 0.0
H2523 H 0.20459 0.74636 0.74496 0.0
C2524 C 0.1053 0.75654 0.70584 0.0
C2525 C 0.09098 0.76584 0.71908 0.0
C2526 C 0.12836 0.75912 0.71411 0.0
C2527 C 0.13808 0.77139 0.7358 0.0
C2528 C 0.12379 0.78073 0.74911 0.0
C2529 C 0.10052 0.77781 0.74096 0.0
C2530 C 0.20055 0.79981 0.76126 0.0
C2531 C 0.21109 0.78202 0.75792 0.0
C2532 C 0.17694 0.79624 0.75462 0.0
C2533 C 0.1631 0.77484 0.74407 0.0
C2534 C 0.1736 0.75699 0.74082 0.0
C2535 C 0.19719 0.76048 0.74782 0.0
H2536 H 0.06045 0.3822 0.42728 0.0
H2537 H 0.06134 0.42139 0.37165 0.0
H2538 H 0.05633 0.41406 0.45329 0.0
H2539 H 0.05643 0.45305 0.3975 0.0
H2540 H 0.06461 0.513 0.45471 0.0
H2541 H 0.07242 0.48266 0.42891 0.0
H2542 H 0.02838 0.43283 0.46181 0.0
H2543 H 0.02123 0.46286 0.48775 0.0
C2544 C 0.05981 0.39762 0.42056 0.0
C2545 C 0.06115 0.39908 0.39727 0.0
C2546 C 0.05724 0.41592 0.43549 0.0
C2547 C 0.05572 0.43622 0.42758 0.0
C2548 C 0.05771 0.43788 0.40438 0.0
C2549 C 0.06044 0.41961 0.38947 0.0
C2550 C 0.05661 0.49556 0.45639 0.0
C2551 C 0.04236 0.49048 0.47344 0.0
C2552 C 0.06102 0.4781 0.44153 0.0
C2553 C 0.05123 0.45511 0.44328 0.0
C2554 C 0.03674 0.45019 0.46016 0.0
C2555 C 0.03246 0.46754 0.47501 0.0
H2556 H 0.46256 0.29475 0.21718 0.0
H2557 H 0.44768 0.23134 0.24397 0.0
H2558 H 0.42707 0.30156 0.22932 0.0
H2559 H 0.41217 0.23787 0.25549 0.0
H2560 H 0.33788 0.24634 0.24794 0.0
H2561 H 0.37358 0.24058 0.23592 0.0
H2562 H 0.40977 0.3085 0.26759 0.0
H2563 H 0.37407 0.31412 0.28015 0.0
C2564 C 0.45172 0.2822 0.22552 0.0
C2565 C 0.45815 0.26248 0.22955 0.0
C2566 C 0.4314 0.28617 0.2326 0.0
C2567 C 0.41663 0.27026 0.24341 0.0
C2568 C 0.42295 0.25045 0.24713 0.0
C2569 C 0.44345 0.24674 0.24056 0.0
C2570 C 0.35343 0.26007 0.25245 0.0
C2571 C 0.35296 0.28068 0.26517 0.0
C2572 C 0.37397 0.25673 0.24557 0.0
C2573 C 0.39467 0.27407 0.2507 0.0
C2574 C 0.39419 0.29481 0.26318 0.0
C2575 C 0.37371 0.29797 0.27054 0.0
H2576 H 0.56444 0.56879 0.35 0.0
H2577 H 0.61914 0.53706 0.36225 0.0
H2578 H 0.55444 0.56424 0.38802 0.0
H2579 H 0.60875 0.53214 0.40056 0.0
H2580 H 0.59621 0.55085 0.47668 0.0
H2581 H 0.60825 0.55359 0.43863 0.0
H2582 H 0.53728 0.53446 0.40872 0.0
H2583 H 0.52535 0.5321 0.4463 0.0
C2584 C 0.5743 0.56069 0.36073 0.0
C2585 C 0.59257 0.5532 0.35288 0.0
C2586 C 0.56845 0.55796 0.3826 0.0
C2587 C 0.58064 0.54764 0.39739 0.0
C2588 C 0.59907 0.54028 0.38969 0.0
C2589 C 0.60492 0.54296 0.36766 0.0
C2590 C 0.58321 0.5471 0.46195 0.0
C2591 C 0.5598 0.54148 0.46469 0.0
C2592 C 0.59011 0.54859 0.44011 0.0
C2593 C 0.57375 0.54453 0.42056 0.0
C2594 C 0.5504 0.53821 0.42335 0.0
C2595 C 0.54355 0.53674 0.44502 0.0
H2596 H 0.26403 0.83595 0.03239 0.0
H2597 H 0.30339 0.8961 0.07793 0.0
H2598 H 0.28068 0.81259 0.0556 0.0
H2599 H 0.31945 0.87284 0.1014 0.0
H2600 H 0.35574 0.82961 0.13456 0.0
H2601 H 0.34457 0.84848 0.10321 0.0
H2602 H 0.27691 0.80166 0.09294 0.0
H2603 H 0.28828 0.78263 0.12379 0.0
C2604 C 0.27621 0.84416 0.04736 0.0
C2605 C 0.28229 0.86781 0.05348 0.0
C2606 C 0.28574 0.8308 0.06062 0.0
C2607 C 0.30143 0.84086 0.08029 0.0
C2608 C 0.30777 0.86457 0.08611 0.0
C2609 C 0.29836 0.8779 0.0728 0.0
C2610 C 0.33868 0.8231 0.12518 0.0
C2611 C 0.32281 0.80482 0.13165 0.0
C2612 C 0.33223 0.83393 0.10735 0.0
C2613 C 0.30974 0.8268 0.09587 0.0
C2614 C 0.29443 0.80746 0.10129 0.0
C2615 C 0.30094 0.79654 0.11898 0.0
H2616 H 0.95021 0.58464 0.86923 0.0
H2617 H 0.99886 0.55013 0.84505 0.0
H2618 H 0.96929 0.58949 0.90819 0.0
H2619 H 0.01713 0.55396 0.88382 0.0
H2620 H 0.98373 0.5581 0.97288 0.0
H2621 H 0.97014 0.56448 0.93517 0.0
H2622 H 0.039 0.57627 0.91716 0.0
H2623 H 0.05235 0.56873 0.95466 0.0
C2624 C 0.96509 0.57829 0.87221 0.0
C2625 C 0.97284 0.56673 0.85415 0.0
C2626 C 0.97594 0.58094 0.89453 0.0
C2627 C 0.99453 0.5718 0.89921 0.0
C2628 C 1.00306 0.56145 0.8809 0.0
C2629 C 0.99243 0.5591 0.8586 0.0
C2630 C 0.996 0.56223 0.96092 0.0
C2631 C 0.01901 0.56255 0.96653 0.0
C2632 C 0.98826 0.56614 0.93935 0.0
C2633 C 1.00346 0.5708 0.92305 0.0
C2634 C 0.02675 0.57226 0.92914 0.0
C2635 C 0.03441 0.56797 0.95061 0.0
H2636 H 0.29988 0.2515 0.58777 0.0
H2637 H 0.24193 0.20163 0.60405 0.0
H2638 H 0.3027 0.27402 0.62542 0.0
H2639 H 0.24492 0.22363 0.64128 0.0
H2640 H 0.24442 0.27308 0.70214 0.0
H2641 H 0.24034 0.25781 0.66173 0.0
H2642 H 0.31385 0.27077 0.66545 0.0
H2643 H 0.31799 0.28651 0.70569 0.0
C2644 C 0.28758 0.2455 0.59919 0.0
C2645 C 0.27078 0.22468 0.59289 0.0
C2646 C 0.28929 0.25829 0.62083 0.0
C2647 C 0.27405 0.25065 0.63648 0.0
C2648 C 0.25677 0.23028 0.62969 0.0
C2649 C 0.25519 0.21751 0.6083 0.0
C2650 C 0.25974 0.27293 0.69431 0.0
C2651 C 0.28151 0.28083 0.70732 0.0
C2652 C 0.2574 0.26408 0.67111 0.0
C2653 C 0.27675 0.26283 0.6603 0.0
C2654 C 0.29857 0.27162 0.67309 0.0
C2655 C 0.30092 0.2805 0.69628 0.0
H2656 H 0.56916 0.55163 0.22293 0.0
H2657 H 0.63444 0.54883 0.20184 0.0
H2658 H 0.55429 0.55217 0.18309 0.0
H2659 H 0.61949 0.54893 0.16228 0.0
H2660 H 0.57362 0.51862 0.09339 0.0
H2661 H 0.58711 0.51991 0.13352 0.0
H2662 H 0.56433 0.57973 0.15077 0.0
H2663 H 0.55096 0.57872 0.11012 0.0
C2664 C 0.58026 0.55101 0.20981 0.0
C2665 C 0.60294 0.55009 0.21553 0.0
C2666 C 0.57182 0.55151 0.18708 0.0
C2667 C 0.58575 0.55061 0.16962 0.0
C2668 C 0.60834 0.54956 0.17537 0.0
C2669 C 0.61689 0.54951 0.19804 0.0
C2670 C 0.57138 0.53207 0.10565 0.0
C2671 C 0.56118 0.54858 0.0985 0.0
C2672 C 0.57922 0.53283 0.12866 0.0
C2673 C 0.57677 0.54989 0.14527 0.0
C2674 C 0.56632 0.56631 0.13831 0.0
C2675 C 0.55882 0.56582 0.11507 0.0
H2676 H 0.23435 0.85411 0.9485 0.0
H2677 H 0.23084 0.91052 0.91288 0.0
H2678 H 0.23929 0.83271 0.91331 0.0
H2679 H 0.23521 0.88872 0.87732 0.0
H2680 H 0.23893 0.79487 0.84365 0.0
H2681 H 0.22427 0.81401 0.87477 0.0
H2682 H 0.26868 0.8782 0.8652 0.0
H2683 H 0.28293 0.85927 0.83389 0.0
C2684 C 0.23402 0.86174 0.933 0.0
C2685 C 0.23261 0.88418 0.93356 0.0
C2686 C 0.23673 0.84938 0.91276 0.0
C2687 C 0.23804 0.85916 0.8926 0.0
C2688 C 0.23474 0.88092 0.89273 0.0
C2689 C 0.23201 0.89332 0.91303 0.0
C2690 C 0.24555 0.81307 0.84819 0.0
C2691 C 0.26228 0.8255 0.83643 0.0
C2692 C 0.23711 0.82403 0.86598 0.0
C2693 C 0.24522 0.84763 0.87238 0.0
C2694 C 0.26174 0.86006 0.86042 0.0
C2695 C 0.27014 0.84913 0.84265 0.0
H2696 H 0.89022 0.51335 0.72088 0.0
H2697 H 0.94924 0.57166 0.7315 0.0
H2698 H 0.90628 0.49585 0.68982 0.0
H2699 H 0.96491 0.55458 0.69996 0.0
H2700 H 1.00174 0.50917 0.66663 0.0
H2701 H 0.98197 0.52333 0.69619 0.0
H2702 H 0.91758 0.49729 0.6519 0.0
H2703 H 0.93723 0.4818 0.62269 0.0
C2704 C 0.90627 0.52274 0.71609 0.0
C2705 C 0.91866 0.54375 0.7287 0.0
C2706 C 0.9155 0.51266 0.69837 0.0
C2707 C 0.93714 0.52358 0.69291 0.0
C2708 C 0.94855 0.54543 0.70432 0.0
C2709 C 0.93946 0.55536 0.72214 0.0
C2710 C 0.98327 0.50574 0.66342 0.0
C2711 C 0.97109 0.49456 0.6422 0.0
C2712 C 0.972 0.51429 0.6802 0.0
C2713 C 0.94835 0.51206 0.67605 0.0
C2714 C 0.93586 0.49946 0.6555 0.0
C2715 C 0.94713 0.49069 0.63876 0.0
H2716 H 0.28063 0.19042 0.43248 0.0
H2717 H 0.30606 0.2585 0.46881 0.0
H2718 H 0.28272 0.20486 0.39629 0.0
H2719 H 0.3097 0.2731 0.43256 0.0
H2720 H 0.28994 0.29525 0.36509 0.0
H2721 H 0.28979 0.28094 0.40134 0.0
H2722 H 0.30382 0.22007 0.36934 0.0
H2723 H 0.30248 0.23399 0.33267 0.0
C2724 C 0.28712 0.20852 0.43273 0.0
C2725 C 0.29312 0.22331 0.45358 0.0
C2726 C 0.28849 0.21686 0.41185 0.0
C2727 C 0.29636 0.24029 0.41113 0.0
C2728 C 0.30302 0.25502 0.43214 0.0
C2729 C 0.30116 0.24666 0.45305 0.0
C2730 C 0.29308 0.27883 0.36578 0.0
C2731 C 0.29626 0.26581 0.3459 0.0
C2732 C 0.29319 0.27062 0.38675 0.0
C2733 C 0.2969 0.24926 0.38867 0.0
C2734 C 0.30047 0.23639 0.36874 0.0
C2735 C 0.29991 0.24445 0.34762 0.0
H2736 H 0.32998 0.62568 0.49659 0.0
H2737 H 0.3668 0.61244 0.55697 0.0
H2738 H 0.35572 0.61155 0.47293 0.0
H2739 H 0.39276 0.59899 0.53346 0.0
H2740 H 0.44453 0.58912 0.49047 0.0
H2741 H 0.42255 0.61437 0.50462 0.0
H2742 H 0.36048 0.56828 0.46778 0.0
H2743 H 0.38253 0.54278 0.45339 0.0
C2744 C 0.34389 0.62026 0.50483 0.0
C2745 C 0.34641 0.62 0.52857 0.0
C2746 C 0.35851 0.61219 0.49131 0.0
C2747 C 0.37619 0.6044 0.50147 0.0
C2748 C 0.37938 0.60521 0.52531 0.0
C2749 C 0.36448 0.61274 0.53872 0.0
C2750 C 0.42638 0.5848 0.48443 0.0
C2751 C 0.4152 0.5638 0.471 0.0
C2752 C 0.4138 0.59923 0.49272 0.0
C2753 C 0.38989 0.59304 0.48749 0.0
C2754 C 0.37896 0.57338 0.47197 0.0
C2755 C 0.39154 0.55877 0.46384 0.0
H2756 H 0.86871 0.91378 0.53247 0.0
H2757 H 0.8557 0.97248 0.56977 0.0
H2758 H 0.90878 0.93449 0.53367 0.0
H2759 H 0.89605 0.99288 0.5726 0.0
H2760 H 0.95567 0.03259 0.5399 0.0
H2761 H 0.9186 0.01054 0.54741 0.0
H2762 H 0.94556 0.95247 0.55154 0.0
H2763 H 0.9822 0.97431 0.54261 0.0
C2764 C 0.87476 0.93082 0.54182 0.0
C2765 C 0.85933 0.94165 0.55099 0.0
C2766 C 0.89774 0.94277 0.54254 0.0
C2767 C 0.90569 0.96563 0.55284 0.0
C2768 C 0.89046 0.97561 0.56385 0.0
C2769 C 0.86743 0.96386 0.56258 0.0
C2770 C 0.95364 0.01515 0.54256 0.0
C2771 C 0.97164 0.00506 0.54039 0.0
C2772 C 0.93244 1.00249 0.54711 0.0
C2773 C 0.92893 0.97958 0.55011 0.0
C2774 C 0.94738 0.96986 0.54886 0.0
C2775 C 0.96842 0.98239 0.54382 0.0
H2776 H 0.87336 0.0684 0.26158 0.0
H2777 H 0.93432 0.12068 0.29193 0.0
H2778 H 0.85035 0.09495 0.26774 0.0
H2779 H 0.91114 0.14722 0.29871 0.0
H2780 H 0.86577 0.19447 0.2843 0.0
H2781 H 0.88933 0.16826 0.27877 0.0
H2782 H 0.83592 0.11494 0.29726 0.0
H2783 H 0.81192 0.14084 0.30166 0.0
C2784 C 0.88185 0.08555 0.26973 0.0
C2785 C 0.9057 0.09241 0.27626 0.0
C2786 C 0.86861 0.10076 0.27341 0.0
C2787 C 0.87882 0.12325 0.28381 0.0
C2788 C 0.90271 0.13012 0.2904 0.0
C2789 C 0.916 0.11487 0.28664 0.0
C2790 C 0.85894 0.17709 0.28695 0.0
C2791 C 0.83684 0.16978 0.29331 0.0
C2792 C 0.8726 0.16212 0.28408 0.0
C2793 C 0.86457 0.13943 0.28753 0.0
C2794 C 0.84258 0.1322 0.29415 0.0
C2795 C 0.8289 0.14715 0.29696 0.0
H2796 H 0.69622 0.15061 0.05445 0.0
H2797 H 0.70828 0.08462 0.03991 0.0
H2798 H 0.65501 0.13266 0.05055 0.0
H2799 H 0.66732 0.06685 0.03554 0.0
H2800 H 0.58391 0.09449 0.01282 0.0
H2801 H 0.62483 0.11246 0.01945 0.0
H2802 H 0.635 0.05955 0.0575 0.0
H2803 H 0.5939 0.04116 0.05046 0.0
C2804 C 0.69005 0.13228 0.05043 0.0
C2805 C 0.70539 0.11898 0.04743 0.0
C2806 C 0.66653 0.12205 0.04811 0.0
C2807 C 0.658 0.09836 0.04272 0.0
C2808 C 0.67341 0.08511 0.04001 0.0
C2809 C 0.69687 0.0953 0.04235 0.0
C2810 C 0.59482 0.08663 0.02261 0.0
C2811 C 0.58567 0.06636 0.03111 0.0
C2812 C 0.61826 0.09707 0.02656 0.0
C2813 C 0.63306 0.08749 0.03912 0.0
C2814 C 0.62397 0.0672 0.04759 0.0
C2815 C 0.60047 0.0567 0.04359 0.0
H2816 H 0.18454 0.48435 0.30574 0.0
H2817 H 0.23789 0.51428 0.26682 0.0
H2818 H 0.20932 0.46346 0.32259 0.0
H2819 H 0.26234 0.49299 0.28311 0.0
H2820 H 0.3063 0.45799 0.3205 0.0
H2821 H 0.28419 0.48566 0.31646 0.0
H2822 H 0.22138 0.43148 0.30612 0.0
H2823 H 0.24336 0.40423 0.31092 0.0
C2824 C 0.20162 0.48662 0.30095 0.0
C2825 C 0.20917 0.50065 0.28471 0.0
C2826 C 0.21579 0.47465 0.31057 0.0
C2827 C 0.23771 0.47643 0.30403 0.0
C2828 C 0.24567 0.49144 0.28873 0.0
C2829 C 0.23155 0.50347 0.2792 0.0
C2830 C 0.28775 0.45219 0.31794 0.0
C2831 C 0.2765 0.42901 0.31562 0.0
C2832 C 0.27512 0.46794 0.31546 0.0
C2833 C 0.25106 0.46072 0.31075 0.0
C2834 C 0.23985 0.43767 0.30994 0.0
C2835 C 0.25244 0.422 0.31238 0.0
H2836 H 0.20766 0.39185 0.04216 0.0
H2837 H 0.2638 0.44823 0.03395 0.0
H2838 H 0.18133 0.41585 0.03897 0.0
H2839 H 0.23776 0.47167 0.02995 0.0
H2840 H 0.19282 0.51617 0.04858 0.0
H2841 H 0.21676 0.49045 0.05304 0.0
H2842 H 0.16321 0.43558 0.01315 0.0
H2843 H 0.139 0.46135 0.00933 0.0
C2844 C 0.21429 0.40924 0.03945 0.0
C2845 C 0.23779 0.41821 0.03852 0.0
C2846 C 0.19925 0.42297 0.03755 0.0
C2847 C 0.20748 0.44583 0.03454 0.0
C2848 C 0.23089 0.4544 0.03292 0.0
C2849 C 0.24583 0.44085 0.03504 0.0
C2850 C 0.18621 0.49862 0.04075 0.0
C2851 C 0.16416 0.4908 0.02845 0.0
C2852 C 0.19992 0.48386 0.04324 0.0
C2853 C 0.19204 0.46096 0.0332 0.0
C2854 C 0.16975 0.45302 0.02127 0.0
C2855 C 0.15592 0.46779 0.019 0.0
H2856 H 0.87996 0.98054 0.25837 0.0
H2857 H 0.93021 0.94305 0.24891 0.0
H2858 H 0.85104 0.94534 0.25996 0.0
H2859 H 0.90171 0.90815 0.25139 0.0
H2860 H 0.81465 0.882 0.29011 0.0
H2861 H 0.84071 0.91762 0.28449 0.0
H2862 H 0.86837 0.88137 0.23244 0.0
H2863 H 0.84307 0.84583 0.23877 0.0
C2864 C 0.88484 0.9648 0.25661 0.0
C2865 C 0.9074 0.96462 0.25349 0.0
C2866 C 0.86829 0.94462 0.25768 0.0
C2867 C 0.87398 0.92384 0.25584 0.0
C2868 C 0.89652 0.92371 0.25244 0.0
C2869 C 0.91296 0.9438 0.25115 0.0
C2870 C 0.82619 0.88171 0.27736 0.0
C2871 C 0.82698 0.8611 0.26507 0.0
C2872 C 0.84107 0.90215 0.27403 0.0
C2873 C 0.85686 0.90241 0.25815 0.0
C2874 C 0.85688 0.88181 0.24521 0.0
C2875 C 0.84225 0.86141 0.24874 0.0
H2876 H 0.67598 0.11469 0.70674 0.0
H2877 H 0.70827 0.10343 0.77075 0.0
H2878 H 0.69911 0.15439 0.71402 0.0
H2879 H 0.73066 0.14298 0.77805 0.0
H2880 H 0.73388 0.22226 0.7903 0.0
H2881 H 0.71198 0.18235 0.78094 0.0
H2882 H 0.74973 0.17401 0.72415 0.0
H2883 H 0.77214 0.21373 0.73377 0.0
C2884 C 0.68804 0.12063 0.72222 0.0
C2885 C 0.69036 0.10598 0.73815 0.0
C2886 C 0.7012 0.14322 0.72633 0.0
C2887 C 0.71639 0.15146 0.74661 0.0
C2888 C 0.71892 0.13685 0.76235 0.0
C2889 C 0.7062 0.11424 0.75807 0.0
C2890 C 0.73752 0.21189 0.77587 0.0
C2891 C 0.75474 0.22094 0.76283 0.0
C2892 C 0.72503 0.18918 0.77055 0.0
C2893 C 0.72925 0.17544 0.75181 0.0
C2894 C 0.74623 0.18449 0.73859 0.0
C2895 C 0.75908 0.20706 0.74421 0.0
loop_
_geom_bond_atom_site_label_1
_geom_bond_atom_site_label_2
_geom_bond_distance
_geom_bond_site_symmetry_2
_ccdc_geom_bond_type
C0 O1 1.306 1_655 S
C0 O3 1.160 1_655 S
O1 C0 1.306 1_455 S
O1 Cd2 2.228 . S
Cd2 O1 2.228 . S
Cd2 O6 2.273 . S
Cd2 O10 2.277 . S
O3 C0 1.160 1_455 S
O3 Cd4 2.203 . S
Cd4 O3 2.203 . S
Cd4 O6 2.411 . S
Cd4 O7 2.333 . S
Cd4 O8 2.352 . S
Cd4 O12 2.277 . S
Cd4 O13 2.356 . S
C5 O10 1.209 . S
C5 O12 1.226 . S
O6 Cd2 2.273 . S
O6 Cd4 2.411 . S
O6 C9 1.320 . S
O7 Cd4 2.333 . S
O7 C9 1.214 . S
O8 Cd4 2.352 . S
O8 C11 1.258 . S
C9 O6 1.320 . S
C9 O7 1.214 . S
O10 Cd2 2.277 . S
O10 C5 1.209 . S
C11 O8 1.258 . S
C11 O13 1.282 . S
O12 Cd4 2.277 . S
O12 C5 1.226 . S
O13 Cd4 2.356 . S
O13 C11 1.282 . S
C14 O15 1.320 . S
C14 O17 1.160 . S
O15 C14 1.320 . S
O15 Cd16 2.208 1_655 S
Cd16 O15 2.208 1_455 S
Cd16 O20 2.273 . S
Cd16 O24 2.277 . S
O17 C14 1.160 . S
O17 Cd18 2.203 1_655 S
Cd18 O17 2.203 1_455 S
Cd18 O20 2.411 . S
Cd18 O21 2.333 . S
Cd18 O22 2.352 . S
Cd18 O26 2.277 . S
Cd18 O27 2.356 . S
C19 O24 1.209 . S
C19 O26 1.226 . S
O20 Cd16 2.273 . S
O20 Cd18 2.411 . S
O20 C23 1.320 . S
O21 Cd18 2.333 . S
O21 C23 1.214 . S
O22 Cd18 2.352 . S
O22 C25 1.258 . S
C23 O20 1.320 . S
C23 O21 1.214 . S
O24 Cd16 2.277 . S
O24 C19 1.209 . S
C25 O22 1.258 . S
C25 O27 1.282 . S
O26 Cd18 2.277 . S
O26 C19 1.226 . S
O27 Cd18 2.356 . S
O27 C25 1.282 . S
C28 O29 1.306 . S
C28 O31 1.160 . S
O29 C28 1.306 . S
O29 Cd30 2.228 . S
Cd30 O29 2.228 . S
Cd30 O34 2.273 . S
Cd30 O38 2.277 . S
O31 C28 1.160 . S
O31 Cd32 2.203 . S
Cd32 O31 2.203 . S
Cd32 O34 2.411 . S
Cd32 O35 2.333 . S
Cd32 O36 2.352 . S
Cd32 O40 2.277 . S
Cd32 O41 2.356 . S
C33 O38 1.209 . S
C33 O40 1.226 . S
O34 Cd30 2.273 . S
O34 Cd32 2.411 . S
O34 C37 1.320 . S
O35 Cd32 2.333 . S
O35 C37 1.214 . S
O36 Cd32 2.352 . S
O36 C39 1.258 . S
C37 O34 1.320 . S
C37 O35 1.214 . S
O38 Cd30 2.277 . S
O38 C33 1.209 . S
C39 O36 1.258 . S
C39 O41 1.282 . S
O40 Cd32 2.277 . S
O40 C33 1.226 . S
O41 Cd32 2.356 . S
O41 C39 1.282 . S
C42 O43 1.306 . S
C42 O45 1.160 . S
O43 C42 1.306 . S
O43 Cd44 2.228 . S
Cd44 O43 2.228 . S
Cd44 O48 2.273 . S
Cd44 O52 2.277 . S
O45 C42 1.160 . S
O45 Cd46 2.203 . S
Cd46 O45 2.203 . S
Cd46 O48 2.411 . S
Cd46 O49 2.333 . S
Cd46 O50 2.352 . S
Cd46 O54 2.277 . S
Cd46 O55 2.356 . S
C47 O52 1.209 . S
C47 O54 1.226 . S
O48 Cd44 2.273 . S
O48 Cd46 2.411 . S
O48 C51 1.320 . S
O49 Cd46 2.333 . S
O49 C51 1.214 . S
O50 Cd46 2.352 . S
O50 C53 1.258 . S
C51 O48 1.320 . S
C51 O49 1.214 . S
O52 Cd44 2.277 . S
O52 C47 1.209 . S
C53 O50 1.258 . S
C53 O55 1.282 . S
O54 Cd46 2.277 . S
O54 C47 1.226 . S
O55 Cd46 2.356 . S
O55 C53 1.282 . S
C56 O57 1.306 . S
C56 O59 1.160 . S
O57 C56 1.306 . S
O57 Cd58 2.228 . S
Cd58 O57 2.228 . S
Cd58 O62 2.273 . S
Cd58 O66 2.277 . S
O59 C56 1.160 . S
O59 Cd60 2.203 . S
Cd60 O59 2.203 . S
Cd60 O62 2.411 . S
Cd60 O63 2.333 . S
Cd60 O64 2.352 . S
Cd60 O68 2.277 . S
Cd60 O69 2.356 . S
C61 O66 1.209 . S
C61 O68 1.226 . S
O62 Cd58 2.273 . S
O62 Cd60 2.411 . S
O62 C65 1.320 . S
O63 Cd60 2.333 . S
O63 C65 1.214 . S
O64 Cd60 2.352 . S
O64 C67 1.258 . S
C65 O62 1.320 . S
C65 O63 1.214 . S
O66 Cd58 2.277 . S
O66 C61 1.209 . S
C67 O64 1.258 . S
C67 O69 1.282 . S
O68 Cd60 2.277 . S
O68 C61 1.226 . S
O69 Cd60 2.356 . S
O69 C67 1.282 . S
C70 O71 1.306 . S
C70 O73 1.160 . S
O71 C70 1.306 . S
O71 Cd72 2.228 . S
Cd72 O71 2.228 . S
Cd72 O76 2.273 . S
Cd72 O80 2.277 . S
O73 C70 1.160 . S
O73 Cd74 2.203 . S
Cd74 O73 2.203 . S
Cd74 O76 2.411 . S
Cd74 O77 2.333 . S
Cd74 O78 2.352 . S
Cd74 O82 2.277 . S
Cd74 O83 2.356 . S
C75 O80 1.209 . S
C75 O82 1.226 . S
O76 Cd72 2.273 . S
O76 Cd74 2.411 . S
O76 C79 1.320 . S
O77 Cd74 2.333 . S
O77 C79 1.214 . S
O78 Cd74 2.352 . S
O78 C81 1.258 . S
C79 O76 1.320 . S
C79 O77 1.214 . S
O80 Cd72 2.277 . S
O80 C75 1.209 . S
C81 O78 1.258 . S
C81 O83 1.282 . S
O82 Cd74 2.277 . S
O82 C75 1.226 . S
O83 Cd74 2.356 . S
O83 C81 1.282 . S
C84 O85 1.306 . S
C84 O87 1.160 . S
O85 C84 1.306 . S
O85 Cd86 2.228 . S
Cd86 O85 2.228 . S
Cd86 O90 2.273 . S
Cd86 O94 2.277 . S
O87 C84 1.160 . S
O87 Cd88 2.203 . S
Cd88 O87 2.203 . S
Cd88 O90 2.411 . S
Cd88 O91 2.333 . S
Cd88 O92 2.352 . S
Cd88 O96 2.277 . S
Cd88 O97 2.356 . S
C89 O94 1.209 . S
C89 O96 1.226 . S
O90 Cd86 2.273 . S
O90 Cd88 2.411 . S
O90 C93 1.320 . S
O91 Cd88 2.333 . S
O91 C93 1.214 . S
O92 Cd88 2.352 . S
O92 C95 1.258 . S
C93 O90 1.320 . S
C93 O91 1.214 . S
O94 Cd86 2.277 . S
O94 C89 1.209 . S
C95 O92 1.258 . S
C95 O97 1.282 . S
O96 Cd88 2.277 . S
O96 C89 1.226 . S
O97 Cd88 2.356 . S
O97 C95 1.282 . S
C98 O99 1.306 . S
C98 O101 1.160 . S
O99 C98 1.306 . S
O99 Cd100 2.228 1_655 S
Cd100 O99 2.228 1_455 S
Cd100 O104 2.273 . S
Cd100 O108 2.277 . S
O101 C98 1.160 . S
O101 Cd102 2.203 1_655 S
Cd102 O101 2.203 1_455 S
Cd102 O104 2.411 . S
Cd102 O105 2.333 . S
Cd102 O106 2.352 1_455 S
Cd102 O110 2.277 . S
Cd102 O111 2.356 . S
C103 O108 1.209 . S
C103 O110 1.226 . S
O104 Cd100 2.273 . S
O104 Cd102 2.411 . S
O104 C107 1.320 . S
O105 Cd102 2.333 . S
O105 C107 1.214 . S
O106 Cd102 2.352 1_655 S
O106 C109 1.258 . S
C107 O104 1.320 . S
C107 O105 1.214 . S
O108 Cd100 2.277 . S
O108 C103 1.209 . S
C109 O106 1.258 . S
C109 O111 1.282 1_655 S
O110 Cd102 2.277 . S
O110 C103 1.226 . S
O111 Cd102 2.356 . S
O111 C109 1.282 1_455 S
C112 O113 1.306 1_545 S
C112 O115 1.160 . S
O113 C112 1.306 1_565 S
O113 Cd114 2.228 . S
Cd114 O113 2.228 . S
Cd114 O118 2.273 1_565 S
Cd114 O122 2.277 . S
O115 C112 1.160 . S
O115 Cd116 2.203 . S
Cd116 O115 2.203 . S
Cd116 O118 2.411 . S
Cd116 O119 2.331 . S
Cd116 O120 2.352 . S
Cd116 O124 2.277 1_545 S
Cd116 O125 2.356 . S
C117 O122 1.209 . S
C117 O124 1.226 . S
O118 Cd114 2.273 1_545 S
O118 Cd116 2.411 . S
O118 C121 1.320 . S
O119 Cd116 2.331 . S
O119 C121 1.204 . S
O120 Cd116 2.352 . S
O120 C123 1.258 . S
C121 O118 1.320 . S
C121 O119 1.204 . S
O122 Cd114 2.277 . S
O122 C117 1.209 . S
C123 O120 1.258 . S
C123 O125 1.282 . S
O124 Cd116 2.277 1_565 S
O124 C117 1.226 . S
O125 Cd116 2.356 . S
O125 C123 1.282 . S
C126 O127 1.306 . S
C126 O129 1.160 . S
O127 C126 1.306 . S
O127 Cd128 2.228 . S
Cd128 O127 2.228 . S
Cd128 O132 2.273 . S
Cd128 O136 2.277 . S
O129 C126 1.160 . S
O129 Cd130 2.203 . S
Cd130 O129 2.203 . S
Cd130 O132 2.411 . S
Cd130 O133 2.333 . S
Cd130 O134 2.352 . S
Cd130 O138 2.277 . S
Cd130 O139 2.356 . S
C131 O136 1.209 . S
C131 O138 1.226 . S
O132 Cd128 2.273 . S
O132 Cd130 2.411 . S
O132 C135 1.320 . S
O133 Cd130 2.333 . S
O133 C135 1.214 . S
O134 Cd130 2.352 . S
O134 C137 1.258 . S
C135 O132 1.320 . S
C135 O133 1.214 . S
O136 Cd128 2.277 . S
O136 C131 1.209 . S
C137 O134 1.258 . S
C137 O139 1.282 . S
O138 Cd130 2.277 . S
O138 C131 1.226 . S
O139 Cd130 2.356 . S
O139 C137 1.282 . S
C140 O141 1.306 . S
C140 O143 1.160 . S
O141 C140 1.306 . S
O141 Cd142 2.228 . S
Cd142 O141 2.228 . S
Cd142 O146 2.273 . S
Cd142 O150 2.277 . S
O143 C140 1.160 . S
O143 Cd144 2.203 . S
Cd144 O143 2.203 . S
Cd144 O146 2.411 . S
Cd144 O147 2.333 . S
Cd144 O148 2.352 . S
Cd144 O152 2.277 . S
Cd144 O153 2.356 . S
C145 O150 1.209 . S
C145 O152 1.226 . S
O146 Cd142 2.273 . S
O146 Cd144 2.411 . S
O146 C149 1.320 . S
O147 Cd144 2.333 . S
O147 C149 1.214 . S
O148 Cd144 2.352 . S
O148 C151 1.258 . S
C149 O146 1.320 . S
C149 O147 1.214 . S
O150 Cd142 2.277 . S
O150 C145 1.209 . S
C151 O148 1.258 . S
C151 O153 1.282 . S
O152 Cd144 2.277 . S
O152 C145 1.226 . S
O153 Cd144 2.356 . S
O153 C151 1.282 . S
C154 O155 1.306 1_554 S
C154 O157 1.160 . S
O155 C154 1.306 1_556 S
O155 Cd156 2.228 . S
Cd156 O155 2.228 . S
Cd156 O160 2.271 1_556 S
Cd156 O164 2.277 . S
O157 C154 1.160 . S
O157 Cd158 2.203 . S
Cd158 O157 2.203 . S
Cd158 O160 2.411 . S
Cd158 O161 2.332 . S
Cd158 O162 2.352 . S
Cd158 O166 2.277 1_554 S
Cd158 O167 2.356 . S
C159 O164 1.209 . S
C159 O166 1.226 . S
O160 Cd156 2.271 1_554 S
O160 Cd158 2.411 . S
O160 C163 1.323 1_554 S
O161 Cd158 2.332 . S
O161 C163 1.205 1_554 S
O162 Cd158 2.352 . S
O162 C165 1.258 . S
C163 O160 1.323 1_556 S
C163 O161 1.205 1_556 S
O164 Cd156 2.277 . S
O164 C159 1.209 . S
C165 O162 1.258 . S
C165 O167 1.282 . S
O166 Cd158 2.277 1_556 S
O166 C159 1.226 . S
O167 Cd158 2.356 . S
O167 C165 1.282 . S
C168 O169 1.306 . S
C168 O171 1.160 . S
O169 C168 1.306 . S
O169 Cd170 2.228 . S
Cd170 O169 2.228 . S
Cd170 O174 2.273 . S
Cd170 O178 2.277 1_554 S
O171 C168 1.160 . S
O171 Cd172 2.203 . S
Cd172 O171 2.203 . S
Cd172 O174 2.411 . S
Cd172 O175 2.333 . S
Cd172 O176 2.352 . S
Cd172 O180 2.277 . S
Cd172 O181 2.356 . S
C173 O178 1.209 . S
C173 O180 1.226 1_556 S
O174 Cd170 2.273 . S
O174 Cd172 2.411 . S
O174 C177 1.320 . S
O175 Cd172 2.333 . S
O175 C177 1.214 . S
O176 Cd172 2.352 . S
O176 C179 1.258 . S
C177 O174 1.320 . S
C177 O175 1.214 . S
O178 Cd170 2.277 1_556 S
O178 C173 1.209 . S
C179 O176 1.258 . S
C179 O181 1.282 . S
O180 Cd172 2.277 . S
O180 C173 1.226 1_554 S
O181 Cd172 2.356 . S
O181 C179 1.282 . S
C182 O183 1.306 . S
C182 O185 1.160 . S
O183 C182 1.306 . S
O183 Cd184 2.228 . S
Cd184 O183 2.228 . S
Cd184 O188 2.273 . S
Cd184 O192 2.277 . S
O185 C182 1.160 . S
O185 Cd186 2.203 . S
Cd186 O185 2.203 . S
Cd186 O188 2.411 . S
Cd186 O189 2.333 . S
Cd186 O190 2.352 . S
Cd186 O194 2.277 . S
Cd186 O195 2.356 . S
C187 O192 1.209 . S
C187 O194 1.226 . S
O188 Cd184 2.273 . S
O188 Cd186 2.411 . S
O188 C191 1.320 . S
O189 Cd186 2.333 . S
O189 C191 1.214 . S
O190 Cd186 2.352 . S
O190 C193 1.258 . S
C191 O188 1.320 . S
C191 O189 1.214 . S
O192 Cd184 2.277 . S
O192 C187 1.209 . S
C193 O190 1.258 . S
C193 O195 1.282 . S
O194 Cd186 2.277 . S
O194 C187 1.226 . S
O195 Cd186 2.356 . S
O195 C193 1.282 . S
C196 O197 1.306 . S
C196 O199 1.160 . S
O197 C196 1.306 . S
O197 Cd198 2.228 . S
Cd198 O197 2.228 . S
Cd198 O202 2.273 . S
Cd198 O206 2.277 . S
O199 C196 1.160 . S
O199 Cd200 2.203 . S
Cd200 O199 2.203 . S
Cd200 O202 2.411 . S
Cd200 O203 2.333 . S
Cd200 O204 2.352 . S
Cd200 O208 2.277 . S
Cd200 O209 2.356 . S
C201 O206 1.209 . S
C201 O208 1.226 . S
O202 Cd198 2.273 . S
O202 Cd200 2.411 . S
O202 C205 1.320 . S
O203 Cd200 2.333 . S
O203 C205 1.214 . S
O204 Cd200 2.352 . S
O204 C207 1.258 . S
C205 O202 1.320 . S
C205 O203 1.214 . S
O206 Cd198 2.277 . S
O206 C201 1.209 . S
C207 O204 1.258 . S
C207 O209 1.282 . S
O208 Cd200 2.277 . S
O208 C201 1.226 . S
O209 Cd200 2.356 . S
O209 C207 1.282 . S
C210 O211 1.306 . S
C210 O213 1.160 . S
O211 C210 1.306 . S
O211 Cd212 2.228 . S
Cd212 O211 2.228 . S
Cd212 O216 2.273 . S
Cd212 O220 2.277 . S
O213 C210 1.160 . S
O213 Cd214 2.203 . S
Cd214 O213 2.203 . S
Cd214 O216 2.411 . S
Cd214 O217 2.333 . S
Cd214 O218 2.352 . S
Cd214 O222 2.277 . S
Cd214 O223 2.356 . S
C215 O220 1.209 . S
C215 O222 1.226 . S
O216 Cd212 2.273 . S
O216 Cd214 2.411 . S
O216 C219 1.320 . S
O217 Cd214 2.333 . S
O217 C219 1.214 . S
O218 Cd214 2.352 . S
O218 C221 1.258 . S
C219 O216 1.320 . S
C219 O217 1.214 . S
O220 Cd212 2.277 . S
O220 C215 1.209 . S
C221 O218 1.258 . S
C221 O223 1.282 . S
O222 Cd214 2.277 . S
O222 C215 1.226 . S
O223 Cd214 2.356 . S
O223 C221 1.282 . S
C224 O225 1.306 . S
C224 O227 1.160 . S
O225 C224 1.306 . S
O225 Cd226 2.228 . S
Cd226 O225 2.228 . S
Cd226 O230 2.273 . S
Cd226 O234 2.277 1_545 S
O227 C224 1.160 . S
O227 Cd228 2.203 . S
Cd228 O227 2.203 . S
Cd228 O230 2.411 . S
Cd228 O231 2.333 . S
Cd228 O232 2.352 . S
Cd228 O236 2.277 1_545 S
Cd228 O237 2.356 . S
C229 O234 1.209 . S
C229 O236 1.226 . S
O230 Cd226 2.273 . S
O230 Cd228 2.411 . S
O230 C233 1.320 . S
O231 Cd228 2.333 . S
O231 C233 1.214 . S
O232 Cd228 2.352 . S
O232 C235 1.258 . S
C233 O230 1.320 . S
C233 O231 1.214 . S
O234 Cd226 2.277 1_565 S
O234 C229 1.209 . S
C235 O232 1.258 . S
C235 O237 1.282 . S
O236 Cd228 2.277 1_565 S
O236 C229 1.226 . S
O237 Cd228 2.356 . S
O237 C235 1.282 . S
C238 O239 1.306 . S
C238 O241 1.160 . S
O239 C238 1.306 . S
O239 Cd240 2.228 . S
Cd240 O239 2.228 . S
Cd240 O244 2.273 . S
Cd240 O248 2.277 . S
O241 C238 1.160 . S
O241 Cd242 2.203 . S
Cd242 O241 2.203 . S
Cd242 O244 2.411 . S
Cd242 O245 2.333 . S
Cd242 O246 2.352 . S
Cd242 O250 2.277 . S
Cd242 O251 2.356 . S
C243 O248 1.209 . S
C243 O250 1.226 . S
O244 Cd240 2.273 . S
O244 Cd242 2.411 . S
O244 C247 1.320 . S
O245 Cd242 2.333 . S
O245 C247 1.214 . S
O246 Cd242 2.352 . S
O246 C249 1.258 . S
C247 O244 1.320 . S
C247 O245 1.214 . S
O248 Cd240 2.277 . S
O248 C243 1.209 . S
C249 O246 1.258 . S
C249 O251 1.282 . S
O250 Cd242 2.277 . S
O250 C243 1.226 . S
O251 Cd242 2.356 . S
O251 C249 1.282 . S
C252 O253 1.306 . S
C252 O255 1.160 . S
O253 C252 1.306 . S
O253 Cd254 2.228 . S
Cd254 O253 2.228 . S
Cd254 O258 2.273 . S
Cd254 O262 2.277 . S
O255 C252 1.160 . S
O255 Cd256 2.203 . S
Cd256 O255 2.203 . S
Cd256 O258 2.411 . S
Cd256 O259 2.333 . S
Cd256 O260 2.352 . S
Cd256 O264 2.277 . S
Cd256 O265 2.356 . S
C257 O262 1.209 . S
C257 O264 1.226 . S
O258 Cd254 2.273 . S
O258 Cd256 2.411 . S
O258 C261 1.320 . S
O259 Cd256 2.333 . S
O259 C261 1.214 . S
O260 Cd256 2.352 . S
O260 C263 1.258 . S
C261 O258 1.320 . S
C261 O259 1.214 . S
O262 Cd254 2.277 . S
O262 C257 1.209 . S
C263 O260 1.258 . S
C263 O265 1.282 . S
O264 Cd256 2.277 . S
O264 C257 1.226 . S
O265 Cd256 2.356 . S
O265 C263 1.282 . S
C266 O267 1.306 . S
C266 O269 1.160 . S
O267 C266 1.306 . S
O267 Cd268 2.228 . S
Cd268 O267 2.228 . S
Cd268 O272 2.273 . S
Cd268 O276 2.277 . S
O269 C266 1.160 . S
O269 Cd270 2.203 . S
Cd270 O269 2.203 . S
Cd270 O272 2.411 . S
Cd270 O273 2.333 . S
Cd270 O274 2.352 . S
Cd270 O278 2.277 . S
Cd270 O279 2.356 . S
C271 O276 1.209 . S
C271 O278 1.226 . S
O272 Cd268 2.273 . S
O272 Cd270 2.411 . S
O272 C275 1.320 . S
O273 Cd270 2.333 . S
O273 C275 1.214 . S
O274 Cd270 2.352 . S
O274 C277 1.258 . S
C275 O272 1.320 . S
C275 O273 1.214 . S
O276 Cd268 2.277 . S
O276 C271 1.209 . S
C277 O274 1.258 . S
C277 O279 1.282 . S
O278 Cd270 2.277 . S
O278 C271 1.226 . S
O279 Cd270 2.356 . S
O279 C277 1.282 . S
C280 O281 1.306 . S
C280 O283 1.160 . S
O281 C280 1.306 . S
O281 Cd282 2.228 . S
Cd282 O281 2.228 . S
Cd282 O286 2.273 . S
Cd282 O290 2.277 . S
O283 C280 1.160 . S
O283 Cd284 2.203 . S
Cd284 O283 2.203 . S
Cd284 O286 2.411 . S
Cd284 O287 2.333 . S
Cd284 O288 2.352 1_554 S
Cd284 O292 2.277 . S
Cd284 O293 2.357 . S
C285 O290 1.209 . S
C285 O292 1.226 . S
O286 Cd282 2.273 . S
O286 Cd284 2.411 . S
O286 C289 1.320 . S
O287 Cd284 2.333 . S
O287 C289 1.214 . S
O288 Cd284 2.352 1_556 S
O288 C291 1.258 . S
C289 O286 1.320 . S
C289 O287 1.214 . S
O290 Cd282 2.277 . S
O290 C285 1.209 . S
C291 O288 1.258 . S
C291 O293 1.281 1_556 S
O292 Cd284 2.277 . S
O292 C285 1.226 . S
O293 Cd284 2.357 . S
O293 C291 1.281 1_554 S
C294 O295 1.306 . S
C294 O297 1.160 . S
O295 C294 1.306 . S
O295 Cd296 2.228 . S
Cd296 O295 2.228 . S
Cd296 O300 2.273 . S
Cd296 O304 2.277 . S
O297 C294 1.160 . S
O297 Cd298 2.203 . S
Cd298 O297 2.203 . S
Cd298 O300 2.411 . S
Cd298 O301 2.333 . S
Cd298 O302 2.352 . S
Cd298 O306 2.277 . S
Cd298 O307 2.356 . S
C299 O304 1.209 . S
C299 O306 1.226 . S
O300 Cd296 2.273 . S
O300 Cd298 2.411 . S
O300 C303 1.320 . S
O301 Cd298 2.333 . S
O301 C303 1.214 . S
O302 Cd298 2.352 . S
O302 C305 1.258 . S
C303 O300 1.320 . S
C303 O301 1.214 . S
O304 Cd296 2.277 . S
O304 C299 1.209 . S
C305 O302 1.258 . S
C305 O307 1.282 . S
O306 Cd298 2.277 . S
O306 C299 1.226 . S
O307 Cd298 2.356 . S
O307 C305 1.282 . S
C308 O309 1.306 . S
C308 O311 1.160 . S
O309 C308 1.306 . S
O309 Cd310 2.228 . S
Cd310 O309 2.228 . S
Cd310 O314 2.273 . S
Cd310 O318 2.277 . S
O311 C308 1.160 . S
O311 Cd312 2.203 . S
Cd312 O311 2.203 . S
Cd312 O314 2.411 . S
Cd312 O315 2.333 . S
Cd312 O316 2.352 . S
Cd312 O320 2.277 . S
Cd312 O321 2.356 . S
C313 O318 1.209 . S
C313 O320 1.226 . S
O314 Cd310 2.273 . S
O314 Cd312 2.411 . S
O314 C317 1.320 . S
O315 Cd312 2.333 . S
O315 C317 1.214 . S
O316 Cd312 2.352 . S
O316 C319 1.258 . S
C317 O314 1.320 . S
C317 O315 1.214 . S
O318 Cd310 2.277 . S
O318 C313 1.209 . S
C319 O316 1.258 . S
C319 O321 1.282 . S
O320 Cd312 2.277 . S
O320 C313 1.226 . S
O321 Cd312 2.356 . S
O321 C319 1.282 . S
C322 O323 1.306 . S
C322 O325 1.160 . S
O323 C322 1.306 . S
O323 Cd324 2.228 . S
Cd324 O323 2.228 . S
Cd324 O328 2.273 . S
Cd324 O332 2.277 . S
O325 C322 1.160 . S
O325 Cd326 2.203 . S
Cd326 O325 2.203 . S
Cd326 O328 2.411 . S
Cd326 O329 2.333 . S
Cd326 O330 2.352 . S
Cd326 O334 2.277 . S
Cd326 O335 2.356 . S
C327 O332 1.209 . S
C327 O334 1.226 . S
O328 Cd324 2.273 . S
O328 Cd326 2.411 . S
O328 C331 1.320 . S
O329 Cd326 2.333 . S
O329 C331 1.214 . S
O330 Cd326 2.352 . S
O330 C333 1.258 . S
C331 O328 1.320 . S
C331 O329 1.214 . S
O332 Cd324 2.277 . S
O332 C327 1.209 . S
C333 O330 1.258 . S
C333 O335 1.282 . S
O334 Cd326 2.277 . S
O334 C327 1.226 . S
O335 Cd326 2.356 . S
O335 C333 1.282 . S
Dy336 O339 2.307 . S
Dy336 O341 2.395 . S
Dy336 O342 2.379 . S
Dy336 O344 2.339 . S
Dy336 O346 2.298 . S
Dy336 O350 2.275 . S
Dy336 C358 2.738 . S
Dy337 O340 2.293 1_655 S
Dy337 O343 2.262 1_655 S
Dy337 O345 2.291 1_645 S
Dy337 O347 2.424 . S
Dy337 O348 2.394 1_554 S
Dy337 O351 2.323 1_654 S
Dy337 C367 2.770 . S
C338 O350 1.254 1_556 S
C338 O351 1.257 . S
O339 Dy336 2.307 . S
O339 C349 1.266 . S
O340 Dy337 2.293 1_455 S
O340 C349 1.236 . S
O341 Dy336 2.395 . S
O341 C358 1.255 . S
O342 Dy336 2.379 . S
O342 C358 1.249 . S
O343 Dy337 2.262 1_455 S
O343 C359 1.254 . S
O344 Dy336 2.339 . S
O344 C359 1.257 . S
O345 Dy337 2.291 1_465 S
O345 C360 1.264 . S
O346 Dy336 2.298 . S
O346 C360 1.236 1_545 S
O347 Dy337 2.424 . S
O347 C367 1.255 . S
O348 Dy337 2.394 1_556 S
O348 C367 1.229 1_556 S
C349 O339 1.266 . S
C349 O340 1.236 . S
O350 Dy336 2.275 . S
O350 C338 1.254 1_554 S
O351 Dy337 2.323 1_456 S
O351 C338 1.257 . S
C352 C355 1.344 . S
C352 C356 1.328 . S
C352 C358 1.516 . S
C353 C354 1.304 . S
C353 C357 1.323 . S
C354 C353 1.304 . S
C354 C355 1.371 . S
C354 H368 0.930 1_545 S
C355 C352 1.344 . S
C355 C354 1.371 . S
C355 H369 0.931 . S
C356 C352 1.328 . S
C356 C357 1.433 . S
C356 H370 0.931 . S
C357 C353 1.323 . S
C357 C356 1.433 . S
C357 H371 0.933 . S
C358 Dy336 2.738 . S
C358 O341 1.255 . S
C358 O342 1.249 . S
C358 C352 1.516 . S
C359 O343 1.254 . S
C359 O344 1.257 . S
C360 O345 1.264 . S
C360 O346 1.236 1_565 S
C361 C364 1.344 . S
C361 C365 1.328 1_554 S
C361 C367 1.516 . S
C362 C363 1.304 . S
C362 C366 1.323 1_554 S
C363 C362 1.304 . S
C363 C364 1.371 . S
C363 H372 0.930 . S
C364 C361 1.344 . S
C364 C363 1.371 . S
C364 H373 0.931 . S
C365 C361 1.328 1_556 S
C365 C366 1.433 . S
C365 H374 0.931 . S
C366 C362 1.323 1_556 S
C366 C365 1.433 . S
C366 H375 0.933 . S
C367 Dy337 2.770 . S
C367 O347 1.255 . S
C367 O348 1.229 1_554 S
C367 C361 1.516 . S
H368 C354 0.930 1_565 S
H369 C355 0.931 . S
H370 C356 0.931 . S
H371 C357 0.933 . S
H372 C363 0.930 . S
H373 C364 0.931 . S
H374 C365 0.931 . S
H375 C366 0.933 . S
Dy376 O379 2.307 . S
Dy376 O381 2.395 . S
Dy376 O382 2.379 . S
Dy376 O384 2.339 . S
Dy376 O386 2.298 . S
Dy376 O390 2.275 . S
Dy376 C398 2.738 . S
Dy377 O380 2.298 . S
Dy377 O383 2.275 . S
Dy377 O385 2.307 . S
Dy377 O387 2.395 . S
Dy377 O388 2.379 . S
Dy377 O391 2.339 . S
Dy377 C407 2.738 . S
C378 O390 1.254 . S
C378 O391 1.257 . S
O379 Dy376 2.307 . S
O379 C389 1.266 . S
O380 Dy377 2.298 . S
O380 C389 1.236 . S
O381 Dy376 2.395 . S
O381 C398 1.255 . S
O382 Dy376 2.379 . S
O382 C398 1.249 . S
O383 Dy377 2.275 . S
O383 C399 1.254 . S
O384 Dy376 2.339 . S
O384 C399 1.257 . S
O385 Dy377 2.307 . S
O385 C400 1.266 . S
O386 Dy376 2.298 . S
O386 C400 1.236 . S
O387 Dy377 2.395 . S
O387 C407 1.255 . S
O388 Dy377 2.379 . S
O388 C407 1.249 . S
C389 O379 1.266 . S
C389 O380 1.236 . S
O390 Dy376 2.275 . S
O390 C378 1.254 . S
O391 Dy377 2.339 . S
O391 C378 1.257 . S
C392 C395 1.344 . S
C392 C396 1.328 . S
C392 C398 1.516 . S
C393 C394 1.304 . S
C393 C397 1.323 . S
C394 C393 1.304 . S
C394 C395 1.371 . S
C394 H408 0.930 . S
C395 C392 1.344 . S
C395 C394 1.371 . S
C395 H409 0.931 . S
C396 C392 1.328 . S
C396 C397 1.433 . S
C396 H410 0.931 . S
C397 C393 1.323 . S
C397 C396 1.433 . S
C397 H411 0.933 . S
C398 Dy376 2.738 . S
C398 O381 1.255 . S
C398 O382 1.249 . S
C398 C392 1.516 . S
C399 O383 1.254 . S
C399 O384 1.257 . S
C400 O385 1.266 . S
C400 O386 1.236 . S
C401 C404 1.344 . S
C401 C405 1.328 . S
C401 C407 1.516 . S
C402 C403 1.304 . S
C402 C406 1.323 . S
C403 C402 1.304 . S
C403 C404 1.371 . S
C403 H412 0.930 . S
C404 C401 1.344 . S
C404 C403 1.371 . S
C404 H413 0.931 . S
C405 C401 1.328 . S
C405 C406 1.433 . S
C405 H414 0.931 . S
C406 C402 1.323 . S
C406 C405 1.433 . S
C406 H415 0.933 . S
C407 Dy377 2.738 . S
C407 O387 1.255 . S
C407 O388 1.249 . S
C407 C401 1.516 . S
H408 C394 0.930 . S
H409 C395 0.931 . S
H410 C396 0.931 . S
H411 C397 0.933 . S
H412 C403 0.930 . S
H413 C404 0.931 . S
H414 C405 0.931 . S
H415 C406 0.933 . S
Dy416 O419 2.307 . S
Dy416 O421 2.395 . S
Dy416 O422 2.379 . S
Dy416 O424 2.339 . S
Dy416 O426 2.298 . S
Dy416 O430 2.275 . S
Dy416 C438 2.738 . S
Dy417 O420 2.298 . S
Dy417 O423 2.275 . S
Dy417 O425 2.307 . S
Dy417 O427 2.395 . S
Dy417 O428 2.379 . S
Dy417 O431 2.339 . S
Dy417 C447 2.738 . S
C418 O430 1.254 . S
C418 O431 1.257 . S
O419 Dy416 2.307 . S
O419 C429 1.266 1_545 S
O420 Dy417 2.298 . S
O420 C429 1.236 1_545 S
O421 Dy416 2.395 . S
O421 C438 1.255 . S
O422 Dy416 2.379 . S
O422 C438 1.249 . S
O423 Dy417 2.275 . S
O423 C439 1.254 . S
O424 Dy416 2.339 . S
O424 C439 1.257 . S
O425 Dy417 2.307 . S
O425 C440 1.266 . S
O426 Dy416 2.298 . S
O426 C440 1.236 . S
O427 Dy417 2.395 . S
O427 C447 1.255 . S
O428 Dy417 2.379 . S
O428 C447 1.249 . S
C429 O419 1.266 1_565 S
C429 O420 1.236 1_565 S
O430 Dy416 2.275 . S
O430 C418 1.254 . S
O431 Dy417 2.339 . S
O431 C418 1.257 . S
C432 C435 1.344 . S
C432 C436 1.328 . S
C432 C438 1.516 . S
C433 C434 1.304 . S
C433 C437 1.323 . S
C434 C433 1.304 . S
C434 C435 1.371 . S
C434 H448 0.930 . S
C435 C432 1.344 . S
C435 C434 1.371 . S
C435 H449 0.931 . S
C436 C432 1.328 . S
C436 C437 1.433 . S
C436 H450 0.931 . S
C437 C433 1.323 . S
C437 C436 1.433 . S
C437 H451 0.933 . S
C438 Dy416 2.738 . S
C438 O421 1.255 . S
C438 O422 1.249 . S
C438 C432 1.516 . S
C439 O423 1.254 . S
C439 O424 1.257 . S
C440 O425 1.266 . S
C440 O426 1.236 . S
C441 C444 1.344 1_545 S
C441 C445 1.329 . S
C441 C447 1.516 . S
C442 C443 1.304 . S
C442 C446 1.323 . S
C443 C442 1.304 . S
C443 C444 1.371 . S
C443 H452 0.930 . S
C444 C441 1.344 1_565 S
C444 C443 1.371 . S
C444 H453 0.931 . S
C445 C441 1.329 . S
C445 C446 1.424 1_545 S
C445 H454 0.939 . S
C446 C442 1.323 . S
C446 C445 1.424 1_565 S
C446 H455 0.933 . S
C447 Dy417 2.738 . S
C447 O427 1.255 . S
C447 O428 1.249 . S
C447 C441 1.516 . S
H448 C434 0.930 . S
H449 C435 0.931 . S
H450 C436 0.931 . S
H451 C437 0.933 . S
H452 C443 0.930 . S
H453 C444 0.931 . S
H454 C445 0.939 . S
H455 C446 0.933 . S
Dy456 O459 2.307 . S
Dy456 O461 2.395 . S
Dy456 O462 2.379 . S
Dy456 O464 2.339 . S
Dy456 O466 2.298 . S
Dy456 O470 2.275 . S
Dy456 C478 2.738 . S
Dy457 O460 2.298 . S
Dy457 O463 2.275 . S
Dy457 O465 2.307 . S
Dy457 O467 2.395 . S
Dy457 O468 2.379 . S
Dy457 O471 2.339 . S
Dy457 C487 2.738 . S
C458 O470 1.254 . S
C458 O471 1.257 . S
O459 Dy456 2.307 . S
O459 C469 1.266 . S
O460 Dy457 2.298 . S
O460 C469 1.236 . S
O461 Dy456 2.395 . S
O461 C478 1.255 . S
O462 Dy456 2.379 . S
O462 C478 1.249 . S
O463 Dy457 2.275 . S
O463 C479 1.254 . S
O464 Dy456 2.339 . S
O464 C479 1.257 . S
O465 Dy457 2.307 . S
O465 C480 1.266 . S
O466 Dy456 2.298 . S
O466 C480 1.236 . S
O467 Dy457 2.395 . S
O467 C487 1.255 . S
O468 Dy457 2.379 . S
O468 C487 1.249 . S
C469 O459 1.266 . S
C469 O460 1.236 . S
O470 Dy456 2.275 . S
O470 C458 1.254 . S
O471 Dy457 2.339 . S
O471 C458 1.257 . S
C472 C475 1.344 . S
C472 C476 1.328 . S
C472 C478 1.516 . S
C473 C474 1.304 . S
C473 C477 1.323 . S
C474 C473 1.304 . S
C474 C475 1.371 . S
C474 H488 0.930 . S
C475 C472 1.344 . S
C475 C474 1.371 . S
C475 H489 0.931 . S
C476 C472 1.328 . S
C476 C477 1.433 . S
C476 H490 0.931 . S
C477 C473 1.323 . S
C477 C476 1.433 . S
C477 H491 0.933 . S
C478 Dy456 2.738 . S
C478 O461 1.255 . S
C478 O462 1.249 . S
C478 C472 1.516 . S
C479 O463 1.254 . S
C479 O464 1.257 . S
C480 O465 1.266 . S
C480 O466 1.236 . S
C481 C484 1.344 . S
C481 C485 1.328 . S
C481 C487 1.516 . S
C482 C483 1.304 . S
C482 C486 1.323 . S
C483 C482 1.304 . S
C483 C484 1.371 . S
C483 H492 0.930 . S
C484 C481 1.344 . S
C484 C483 1.371 . S
C484 H493 0.931 . S
C485 C481 1.328 . S
C485 C486 1.433 . S
C485 H494 0.931 . S
C486 C482 1.323 . S
C486 C485 1.433 . S
C486 H495 0.933 . S
C487 Dy457 2.738 . S
C487 O467 1.255 . S
C487 O468 1.249 . S
C487 C481 1.516 . S
H488 C474 0.930 . S
H489 C475 0.931 . S
H490 C476 0.931 . S
H491 C477 0.933 . S
H492 C483 0.930 . S
H493 C484 0.931 . S
H494 C485 0.931 . S
H495 C486 0.933 . S
Dy496 O499 2.307 . S
Dy496 O501 2.395 1_545 S
Dy496 O502 2.379 1_545 S
Dy496 O504 2.339 . S
Dy496 O506 2.298 . S
Dy496 O510 2.275 . S
Dy496 C518 2.738 1_545 S
Dy497 O500 2.298 . S
Dy497 O503 2.275 . S
Dy497 O505 2.307 . S
Dy497 O507 2.395 . S
Dy497 O508 2.379 . S
Dy497 O511 2.339 1_455 S
Dy497 C527 2.738 . S
C498 O510 1.254 1_655 S
C498 O511 1.257 . S
O499 Dy496 2.307 . S
O499 C509 1.266 . S
O500 Dy497 2.298 . S
O500 C509 1.236 . S
O501 Dy496 2.395 1_565 S
O501 C518 1.255 . S
O502 Dy496 2.379 1_565 S
O502 C518 1.249 . S
O503 Dy497 2.275 . S
O503 C519 1.254 . S
O504 Dy496 2.339 . S
O504 C519 1.257 . S
O505 Dy497 2.307 . S
O505 C520 1.266 . S
O506 Dy496 2.298 . S
O506 C520 1.236 . S
O507 Dy497 2.395 . S
O507 C527 1.255 . S
O508 Dy497 2.379 . S
O508 C527 1.249 . S
C509 O499 1.266 . S
C509 O500 1.236 . S
O510 Dy496 2.275 . S
O510 C498 1.254 1_455 S
O511 Dy497 2.339 1_655 S
O511 C498 1.257 . S
C512 C515 1.344 . S
C512 C516 1.328 . S
C512 C518 1.516 . S
C513 C514 1.304 . S
C513 C517 1.323 . S
C514 C513 1.304 . S
C514 C515 1.371 . S
C514 H528 0.930 . S
C515 C512 1.344 . S
C515 C514 1.371 . S
C515 H529 0.931 . S
C516 C512 1.328 . S
C516 C517 1.433 . S
C516 H530 0.931 . S
C517 C513 1.323 . S
C517 C516 1.433 . S
C517 H531 0.933 . S
C518 Dy496 2.738 1_565 S
C518 O501 1.255 . S
C518 O502 1.249 . S
C518 C512 1.516 . S
C519 O503 1.254 . S
C519 O504 1.257 . S
C520 O505 1.266 . S
C520 O506 1.236 . S
C521 C524 1.344 . S
C521 C525 1.328 1_455 S
C521 C527 1.516 . S
C522 C523 1.304 . S
C522 C526 1.323 1_455 S
C523 C522 1.304 . S
C523 C524 1.371 . S
C523 H532 0.930 . S
C524 C521 1.344 . S
C524 C523 1.371 . S
C524 H533 0.931 . S
C525 C521 1.328 1_655 S
C525 C526 1.433 . S
C525 H534 0.931 . S
C526 C522 1.323 1_655 S
C526 C525 1.433 . S
C526 H535 0.933 . S
C527 Dy497 2.738 . S
C527 O507 1.255 . S
C527 O508 1.249 . S
C527 C521 1.516 . S
H528 C514 0.930 . S
H529 C515 0.931 . S
H530 C516 0.931 . S
H531 C517 0.933 . S
H532 C523 0.930 . S
H533 C524 0.931 . S
H534 C525 0.931 . S
H535 C526 0.933 . S
Dy536 O539 2.307 . S
Dy536 O541 2.395 . S
Dy536 O542 2.379 . S
Dy536 O544 2.339 . S
Dy536 O546 2.298 . S
Dy536 O550 2.275 . S
Dy536 C558 2.738 . S
Dy537 O540 2.298 . S
Dy537 O543 2.275 . S
Dy537 O545 2.307 . S
Dy537 O547 2.395 . S
Dy537 O548 2.379 . S
Dy537 O551 2.339 . S
Dy537 C567 2.738 . S
C538 O550 1.254 . S
C538 O551 1.257 . S
O539 Dy536 2.307 . S
O539 C549 1.266 . S
O540 Dy537 2.298 . S
O540 C549 1.236 . S
O541 Dy536 2.395 . S
O541 C558 1.255 . S
O542 Dy536 2.379 . S
O542 C558 1.249 . S
O543 Dy537 2.275 . S
O543 C559 1.254 . S
O544 Dy536 2.339 . S
O544 C559 1.257 . S
O545 Dy537 2.307 . S
O545 C560 1.266 . S
O546 Dy536 2.298 . S
O546 C560 1.236 . S
O547 Dy537 2.395 . S
O547 C567 1.255 . S
O548 Dy537 2.379 . S
O548 C567 1.249 . S
C549 O539 1.266 . S
C549 O540 1.236 . S
O550 Dy536 2.275 . S
O550 C538 1.254 . S
O551 Dy537 2.339 . S
O551 C538 1.257 . S
C552 C555 1.344 . S
C552 C556 1.328 . S
C552 C558 1.516 . S
C553 C554 1.304 . S
C553 C557 1.323 . S
C554 C553 1.304 . S
C554 C555 1.371 . S
C554 H568 0.930 . S
C555 C552 1.344 . S
C555 C554 1.371 . S
C555 H569 0.931 . S
C556 C552 1.328 . S
C556 C557 1.433 . S
C556 H570 0.931 . S
C557 C553 1.323 . S
C557 C556 1.433 . S
C557 H571 0.933 . S
C558 Dy536 2.738 . S
C558 O541 1.255 . S
C558 O542 1.249 . S
C558 C552 1.516 . S
C559 O543 1.254 . S
C559 O544 1.257 . S
C560 O545 1.266 . S
C560 O546 1.236 . S
C561 C564 1.344 . S
C561 C565 1.328 . S
C561 C567 1.516 . S
C562 C563 1.304 . S
C562 C566 1.323 . S
C563 C562 1.304 . S
C563 C564 1.371 . S
C563 H572 0.930 . S
C564 C561 1.344 . S
C564 C563 1.371 . S
C564 H573 0.931 . S
C565 C561 1.328 . S
C565 C566 1.433 . S
C565 H574 0.931 . S
C566 C562 1.323 . S
C566 C565 1.433 . S
C566 H575 0.933 . S
C567 Dy537 2.738 . S
C567 O547 1.255 . S
C567 O548 1.249 . S
C567 C561 1.516 . S
H568 C554 0.930 . S
H569 C555 0.931 . S
H570 C556 0.931 . S
H571 C557 0.933 . S
H572 C563 0.930 . S
H573 C564 0.931 . S
H574 C565 0.931 . S
H575 C566 0.933 . S
Dy576 O579 2.331 . S
Dy576 O581 2.354 1_554 S
Dy576 O582 2.342 1_554 S
Dy576 O584 2.366 . S
Dy576 O586 2.317 . S
Dy576 O590 2.296 . S
Dy576 C598 2.694 1_554 S
Dy577 O580 2.298 . S
Dy577 O583 2.275 . S
Dy577 O585 2.307 . S
Dy577 O587 2.395 . S
Dy577 O588 2.416 . S
Dy577 O591 2.339 1_545 S
Dy577 C607 2.738 . S
C578 O590 1.254 . S
C578 O591 1.257 1_545 S
O579 Dy576 2.331 . S
O579 C589 1.266 . S
O580 Dy577 2.298 . S
O580 C589 1.236 . S
O581 Dy576 2.354 1_556 S
O581 C598 1.255 . S
O582 Dy576 2.342 1_556 S
O582 C598 1.249 . S
O583 Dy577 2.275 . S
O583 C599 1.254 . S
O584 Dy576 2.366 . S
O584 C599 1.257 . S
O585 Dy577 2.307 . S
O585 C600 1.266 . S
O586 Dy576 2.317 . S
O586 C600 1.236 . S
O587 Dy577 2.395 . S
O587 C607 1.255 . S
O588 Dy577 2.416 . S
O588 C607 1.289 . S
C589 O579 1.266 . S
C589 O580 1.236 . S
O590 Dy576 2.296 . S
O590 C578 1.254 . S
O591 Dy577 2.339 1_565 S
O591 C578 1.257 1_565 S
C592 C595 1.344 . S
C592 C596 1.328 . S
C592 C598 1.516 . S
C593 C594 1.304 . S
C593 C597 1.323 . S
C594 C593 1.304 . S
C594 C595 1.371 . S
C594 H608 0.930 . S
C595 C592 1.344 . S
C595 C594 1.371 . S
C595 H609 0.931 . S
C596 C592 1.328 . S
C596 C597 1.433 . S
C596 H610 0.931 . S
C597 C593 1.323 . S
C597 C596 1.433 . S
C597 H611 0.933 . S
C598 Dy576 2.694 1_556 S
C598 O581 1.255 . S
C598 O582 1.249 . S
C598 C592 1.516 . S
C599 O583 1.254 . S
C599 O584 1.257 . S
C600 O585 1.266 . S
C600 O586 1.236 . S
C601 C604 1.344 . S
C601 C605 1.328 1_545 S
C601 C607 1.516 . S
C602 C603 1.304 1_565 S
C602 C606 1.323 . S
C603 C602 1.304 1_545 S
C603 C604 1.371 . S
C603 H612 0.930 . S
C604 C601 1.344 . S
C604 C603 1.371 . S
C604 H613 0.931 . S
C605 C601 1.328 1_565 S
C605 C606 1.433 . S
C605 H614 0.931 . S
C606 C602 1.323 . S
C606 C605 1.433 . S
C606 H615 0.933 . S
C607 Dy577 2.738 . S
C607 O587 1.255 . S
C607 O588 1.289 . S
C607 C601 1.516 . S
H608 C594 0.930 . S
H609 C595 0.931 . S
H610 C596 0.931 . S
H611 C597 0.933 . S
H612 C603 0.930 . S
H613 C604 0.931 . S
H614 C605 0.931 . S
H615 C606 0.933 . S
Dy616 O619 2.307 . S
Dy616 O621 2.395 . S
Dy616 O622 2.379 . S
Dy616 O624 2.339 . S
Dy616 O626 2.298 . S
Dy616 O630 2.275 . S
Dy616 C638 2.738 . S
Dy617 O620 2.298 . S
Dy617 O623 2.275 . S
Dy617 O625 2.307 . S
Dy617 O627 2.395 . S
Dy617 O628 2.379 . S
Dy617 O631 2.339 . S
Dy617 C647 2.738 . S
C618 O630 1.254 . S
C618 O631 1.257 . S
O619 Dy616 2.307 . S
O619 C629 1.266 . S
O620 Dy617 2.298 . S
O620 C629 1.236 . S
O621 Dy616 2.395 . S
O621 C638 1.255 . S
O622 Dy616 2.379 . S
O622 C638 1.249 . S
O623 Dy617 2.275 . S
O623 C639 1.254 . S
O624 Dy616 2.339 . S
O624 C639 1.257 . S
O625 Dy617 2.307 . S
O625 C640 1.266 . S
O626 Dy616 2.298 . S
O626 C640 1.236 . S
O627 Dy617 2.395 . S
O627 C647 1.255 . S
O628 Dy617 2.379 . S
O628 C647 1.249 . S
C629 O619 1.266 . S
C629 O620 1.236 . S
O630 Dy616 2.275 . S
O630 C618 1.254 . S
O631 Dy617 2.339 . S
O631 C618 1.257 . S
C632 C635 1.344 . S
C632 C636 1.328 . S
C632 C638 1.516 . S
C633 C634 1.304 . S
C633 C637 1.323 . S
C634 C633 1.304 . S
C634 C635 1.371 . S
C634 H648 0.930 . S
C635 C632 1.344 . S
C635 C634 1.371 . S
C635 H649 0.931 . S
C636 C632 1.328 . S
C636 C637 1.433 . S
C636 H650 0.931 . S
C637 C633 1.323 . S
C637 C636 1.433 . S
C637 H651 0.933 . S
C638 Dy616 2.738 . S
C638 O621 1.255 . S
C638 O622 1.249 . S
C638 C632 1.516 . S
C639 O623 1.254 . S
C639 O624 1.257 . S
C640 O625 1.266 . S
C640 O626 1.236 . S
C641 C644 1.344 . S
C641 C645 1.328 . S
C641 C647 1.516 . S
C642 C643 1.304 . S
C642 C646 1.323 . S
C643 C642 1.304 . S
C643 C644 1.371 . S
C643 H652 0.930 . S
C644 C641 1.344 . S
C644 C643 1.371 . S
C644 H653 0.931 . S
C645 C641 1.328 . S
C645 C646 1.433 . S
C645 H654 0.931 . S
C646 C642 1.323 . S
C646 C645 1.433 . S
C646 H655 0.933 . S
C647 Dy617 2.738 . S
C647 O627 1.255 . S
C647 O628 1.249 . S
C647 C641 1.516 . S
H648 C634 0.930 . S
H649 C635 0.931 . S
H650 C636 0.931 . S
H651 C637 0.933 . S
H652 C643 0.930 . S
H653 C644 0.931 . S
H654 C645 0.931 . S
H655 C646 0.933 . S
Dy656 O659 2.307 1_554 S
Dy656 O661 2.395 . S
Dy656 O662 2.379 . S
Dy656 O664 2.339 . S
Dy656 O666 2.298 . S
Dy656 O670 2.275 . S
Dy656 C678 2.738 . S
Dy657 O660 2.298 1_554 S
Dy657 O663 2.275 . S
Dy657 O665 2.307 . S
Dy657 O667 2.395 . S
Dy657 O668 2.379 . S
Dy657 O671 2.339 . S
Dy657 C687 2.738 . S
C658 O670 1.254 . S
C658 O671 1.257 . S
O659 Dy656 2.307 1_556 S
O659 C669 1.266 . S
O660 Dy657 2.298 1_556 S
O660 C669 1.236 . S
O661 Dy656 2.395 . S
O661 C678 1.255 . S
O662 Dy656 2.379 . S
O662 C678 1.249 . S
O663 Dy657 2.275 . S
O663 C679 1.254 . S
O664 Dy656 2.339 . S
O664 C679 1.257 . S
O665 Dy657 2.307 . S
O665 C680 1.266 . S
O666 Dy656 2.298 . S
O666 C680 1.236 . S
O667 Dy657 2.395 . S
O667 C687 1.255 . S
O668 Dy657 2.379 . S
O668 C687 1.249 . S
C669 O659 1.266 . S
C669 O660 1.236 . S
O670 Dy656 2.275 . S
O670 C658 1.254 . S
O671 Dy657 2.339 . S
O671 C658 1.257 . S
C672 C675 1.344 . S
C672 C676 1.328 . S
C672 C678 1.516 . S
C673 C674 1.304 . S
C673 C677 1.323 . S
C674 C673 1.304 . S
C674 C675 1.371 . S
C674 H688 0.930 . S
C675 C672 1.344 . S
C675 C674 1.371 . S
C675 H689 0.931 . S
C676 C672 1.328 . S
C676 C677 1.433 . S
C676 H690 0.931 . S
C677 C673 1.323 . S
C677 C676 1.433 . S
C677 H691 0.933 . S
C678 Dy656 2.738 . S
C678 O661 1.255 . S
C678 O662 1.249 . S
C678 C672 1.516 . S
C679 O663 1.254 . S
C679 O664 1.257 . S
C680 O665 1.266 . S
C680 O666 1.236 . S
C681 C684 1.344 . S
C681 C685 1.328 . S
C681 C687 1.516 1_556 S
C682 C683 1.304 . S
C682 C686 1.323 . S
C683 C682 1.304 . S
C683 C684 1.371 . S
C683 H692 0.930 . S
C684 C681 1.344 . S
C684 C683 1.371 . S
C684 H693 0.931 . S
C685 C681 1.328 . S
C685 C686 1.433 . S
C685 H694 0.931 1_556 S
C686 C682 1.323 . S
C686 C685 1.433 . S
C686 H695 0.933 . S
C687 Dy657 2.738 . S
C687 O667 1.255 . S
C687 O668 1.249 . S
C687 C681 1.516 1_554 S
H688 C674 0.930 . S
H689 C675 0.931 . S
H690 C676 0.931 . S
H691 C677 0.933 . S
H692 C683 0.930 . S
H693 C684 0.931 . S
H694 C685 0.931 1_554 S
H695 C686 0.933 . S
Dy696 O699 2.307 . S
Dy696 O701 2.395 . S
Dy696 O702 2.379 . S
Dy696 O704 2.339 . S
Dy696 O706 2.298 . S
Dy696 O710 2.275 . S
Dy696 C718 2.738 . S
Dy697 O700 2.298 . S
Dy697 O703 2.275 . S
Dy697 O705 2.307 . S
Dy697 O707 2.395 . S
Dy697 O708 2.379 . S
Dy697 O711 2.339 . S
Dy697 C727 2.738 . S
C698 O710 1.254 . S
C698 O711 1.257 . S
O699 Dy696 2.307 . S
O699 C709 1.266 . S
O700 Dy697 2.298 . S
O700 C709 1.236 . S
O701 Dy696 2.395 . S
O701 C718 1.255 . S
O702 Dy696 2.379 . S
O702 C718 1.249 . S
O703 Dy697 2.275 . S
O703 C719 1.254 . S
O704 Dy696 2.339 . S
O704 C719 1.257 . S
O705 Dy697 2.307 . S
O705 C720 1.266 . S
O706 Dy696 2.298 . S
O706 C720 1.236 . S
O707 Dy697 2.395 . S
O707 C727 1.255 . S
O708 Dy697 2.379 . S
O708 C727 1.249 . S
C709 O699 1.266 . S
C709 O700 1.236 . S
O710 Dy696 2.275 . S
O710 C698 1.254 . S
O711 Dy697 2.339 . S
O711 C698 1.257 . S
C712 C715 1.344 . S
C712 C716 1.328 . S
C712 C718 1.516 . S
C713 C714 1.304 . S
C713 C717 1.323 . S
C714 C713 1.304 . S
C714 C715 1.371 . S
C714 H728 0.930 . S
C715 C712 1.344 . S
C715 C714 1.371 . S
C715 H729 0.931 . S
C716 C712 1.328 . S
C716 C717 1.433 . S
C716 H730 0.931 . S
C717 C713 1.323 . S
C717 C716 1.433 . S
C717 H731 0.933 . S
C718 Dy696 2.738 . S
C718 O701 1.255 . S
C718 O702 1.249 . S
C718 C712 1.516 . S
C719 O703 1.254 . S
C719 O704 1.257 . S
C720 O705 1.266 . S
C720 O706 1.236 . S
C721 C724 1.344 . S
C721 C725 1.328 . S
C721 C727 1.516 . S
C722 C723 1.304 . S
C722 C726 1.323 . S
C723 C722 1.304 . S
C723 C724 1.371 . S
C723 H732 0.930 . S
C724 C721 1.344 . S
C724 C723 1.371 . S
C724 H733 0.931 . S
C725 C721 1.328 . S
C725 C726 1.433 . S
C725 H734 0.931 . S
C726 C722 1.323 . S
C726 C725 1.433 . S
C726 H735 0.933 . S
C727 Dy697 2.738 . S
C727 O707 1.255 . S
C727 O708 1.249 . S
C727 C721 1.516 . S
H728 C714 0.930 . S
H729 C715 0.931 . S
H730 C716 0.931 . S
H731 C717 0.933 . S
H732 C723 0.930 . S
H733 C724 0.931 . S
H734 C725 0.931 . S
H735 C726 0.933 . S
Dy736 O739 2.307 1_455 S
Dy736 O741 2.395 . S
Dy736 O742 2.379 . S
Dy736 O744 2.339 . S
Dy736 O746 2.298 . S
Dy736 O750 2.275 . S
Dy736 C758 2.738 . S
Dy737 O740 2.298 1_455 S
Dy737 O743 2.275 . S
Dy737 O745 2.307 . S
Dy737 O747 2.395 . S
Dy737 O748 2.379 . S
Dy737 O751 2.339 . S
Dy737 C767 2.738 . S
C738 O750 1.254 . S
C738 O751 1.257 . S
O739 Dy736 2.307 1_655 S
O739 C749 1.266 . S
O740 Dy737 2.298 1_655 S
O740 C749 1.236 . S
O741 Dy736 2.395 . S
O741 C758 1.255 . S
O742 Dy736 2.379 . S
O742 C758 1.249 . S
O743 Dy737 2.275 . S
O743 C759 1.254 . S
O744 Dy736 2.339 . S
O744 C759 1.257 . S
O745 Dy737 2.307 . S
O745 C760 1.266 . S
O746 Dy736 2.298 . S
O746 C760 1.236 . S
O747 Dy737 2.395 . S
O747 C767 1.255 . S
O748 Dy737 2.379 . S
O748 C767 1.249 . S
C749 O739 1.266 . S
C749 O740 1.236 . S
O750 Dy736 2.275 . S
O750 C738 1.254 . S
O751 Dy737 2.339 . S
O751 C738 1.257 . S
C752 C755 1.344 . S
C752 C756 1.328 . S
C752 C758 1.516 . S
C753 C754 1.304 . S
C753 C757 1.323 . S
C754 C753 1.304 . S
C754 C755 1.371 . S
C754 H768 0.930 . S
C755 C752 1.344 . S
C755 C754 1.371 . S
C755 H769 0.931 . S
C756 C752 1.328 . S
C756 C757 1.433 . S
C756 H770 0.931 . S
C757 C753 1.323 . S
C757 C756 1.433 . S
C757 H771 0.933 . S
C758 Dy736 2.738 . S
C758 O741 1.255 . S
C758 O742 1.249 . S
C758 C752 1.516 . S
C759 O743 1.254 . S
C759 O744 1.257 . S
C760 O745 1.266 . S
C760 O746 1.236 . S
C761 C764 1.344 . S
C761 C765 1.328 . S
C761 C767 1.516 1_655 S
C762 C763 1.304 . S
C762 C766 1.323 . S
C763 C762 1.304 . S
C763 C764 1.371 . S
C763 H772 0.930 . S
C764 C761 1.344 . S
C764 C763 1.371 . S
C764 H773 0.931 . S
C765 C761 1.328 . S
C765 C766 1.433 . S
C765 H774 0.896 1_655 S
C766 C762 1.323 . S
C766 C765 1.433 . S
C766 H775 0.933 . S
C767 Dy737 2.738 . S
C767 O747 1.255 . S
C767 O748 1.249 . S
C767 C761 1.516 1_455 S
H768 C754 0.930 . S
H769 C755 0.931 . S
H770 C756 0.931 . S
H771 C757 0.933 . S
H772 C763 0.930 . S
H773 C764 0.931 . S
H774 C765 0.896 1_455 S
H775 C766 0.933 . S
Dy776 O779 2.307 . S
Dy776 O781 2.395 . S
Dy776 O782 2.379 . S
Dy776 O784 2.339 . S
Dy776 O786 2.298 . S
Dy776 O790 2.275 . S
Dy776 C798 2.738 . S
Dy777 O780 2.298 . S
Dy777 O783 2.275 . S
Dy777 O785 2.307 . S
Dy777 O787 2.395 . S
Dy777 O788 2.379 . S
Dy777 O791 2.339 . S
Dy777 C807 2.738 . S
C778 O790 1.254 . S
C778 O791 1.257 . S
O779 Dy776 2.307 . S
O779 C789 1.266 . S
O780 Dy777 2.298 . S
O780 C789 1.236 . S
O781 Dy776 2.395 . S
O781 C798 1.255 . S
O782 Dy776 2.379 . S
O782 C798 1.249 . S
O783 Dy777 2.275 . S
O783 C799 1.254 . S
O784 Dy776 2.339 . S
O784 C799 1.257 . S
O785 Dy777 2.307 . S
O785 C800 1.266 . S
O786 Dy776 2.298 . S
O786 C800 1.236 . S
O787 Dy777 2.395 . S
O787 C807 1.255 . S
O788 Dy777 2.379 . S
O788 C807 1.249 . S
C789 O779 1.266 . S
C789 O780 1.236 . S
O790 Dy776 2.275 . S
O790 C778 1.254 . S
O791 Dy777 2.339 . S
O791 C778 1.257 . S
C792 C795 1.344 . S
C792 C796 1.328 . S
C792 C798 1.516 . S
C793 C794 1.304 . S
C793 C797 1.323 . S
C794 C793 1.304 . S
C794 C795 1.371 . S
C794 H808 0.930 . S
C795 C792 1.344 . S
C795 C794 1.371 . S
C795 H809 0.931 . S
C796 C792 1.328 . S
C796 C797 1.433 . S
C796 H810 0.931 . S
C797 C793 1.323 . S
C797 C796 1.433 . S
C797 H811 0.933 . S
C798 Dy776 2.738 . S
C798 O781 1.255 . S
C798 O782 1.249 . S
C798 C792 1.516 . S
C799 O783 1.254 . S
C799 O784 1.257 . S
C800 O785 1.266 . S
C800 O786 1.236 . S
C801 C804 1.344 . S
C801 C805 1.328 . S
C801 C807 1.516 . S
C802 C803 1.304 . S
C802 C806 1.323 . S
C803 C802 1.304 . S
C803 C804 1.371 . S
C803 H812 0.930 . S
C804 C801 1.344 . S
C804 C803 1.371 . S
C804 H813 0.931 . S
C805 C801 1.328 . S
C805 C806 1.433 . S
C805 H814 0.931 . S
C806 C802 1.323 . S
C806 C805 1.433 . S
C806 H815 0.933 . S
C807 Dy777 2.738 . S
C807 O787 1.255 . S
C807 O788 1.249 . S
C807 C801 1.516 . S
H808 C794 0.930 . S
H809 C795 0.931 . S
H810 C796 0.931 . S
H811 C797 0.933 . S
H812 C803 0.930 . S
H813 C804 0.931 . S
H814 C805 0.931 . S
H815 C806 0.933 . S
Dy816 O819 2.307 . S
Dy816 O821 2.395 . S
Dy816 O822 2.379 . S
Dy816 O824 2.339 . S
Dy816 O826 2.298 . S
Dy816 O830 2.275 . S
Dy816 C838 2.738 . S
Dy817 O820 2.298 . S
Dy817 O823 2.275 . S
Dy817 O825 2.307 . S
Dy817 O827 2.395 . S
Dy817 O828 2.379 . S
Dy817 O831 2.339 . S
Dy817 C847 2.738 . S
C818 O830 1.254 . S
C818 O831 1.257 . S
O819 Dy816 2.307 . S
O819 C829 1.266 . S
O820 Dy817 2.298 . S
O820 C829 1.236 . S
O821 Dy816 2.395 . S
O821 C838 1.255 . S
O822 Dy816 2.379 . S
O822 C838 1.249 . S
O823 Dy817 2.275 . S
O823 C839 1.254 . S
O824 Dy816 2.339 . S
O824 C839 1.257 . S
O825 Dy817 2.307 . S
O825 C840 1.266 . S
O826 Dy816 2.298 . S
O826 C840 1.236 . S
O827 Dy817 2.395 . S
O827 C847 1.255 . S
O828 Dy817 2.379 . S
O828 C847 1.249 . S
C829 O819 1.266 . S
C829 O820 1.236 . S
O830 Dy816 2.275 . S
O830 C818 1.254 . S
O831 Dy817 2.339 . S
O831 C818 1.257 . S
C832 C835 1.344 . S
C832 C836 1.328 . S
C832 C838 1.516 . S
C833 C834 1.304 . S
C833 C837 1.323 . S
C834 C833 1.304 . S
C834 C835 1.371 . S
C834 H848 0.930 . S
C835 C832 1.344 . S
C835 C834 1.371 . S
C835 H849 0.931 . S
C836 C832 1.328 . S
C836 C837 1.433 . S
C836 H850 0.931 . S
C837 C833 1.323 . S
C837 C836 1.433 . S
C837 H851 0.933 . S
C838 Dy816 2.738 . S
C838 O821 1.255 . S
C838 O822 1.249 . S
C838 C832 1.516 . S
C839 O823 1.254 . S
C839 O824 1.257 . S
C840 O825 1.266 . S
C840 O826 1.236 . S
C841 C844 1.344 . S
C841 C845 1.328 . S
C841 C847 1.516 . S
C842 C843 1.304 . S
C842 C846 1.323 . S
C843 C842 1.304 . S
C843 C844 1.371 . S
C843 H852 0.930 . S
C844 C841 1.344 . S
C844 C843 1.371 . S
C844 H853 0.931 . S
C845 C841 1.328 . S
C845 C846 1.433 . S
C845 H854 0.931 . S
C846 C842 1.323 . S
C846 C845 1.433 . S
C846 H855 0.933 . S
C847 Dy817 2.738 . S
C847 O827 1.255 . S
C847 O828 1.249 . S
C847 C841 1.516 . S
H848 C834 0.930 . S
H849 C835 0.931 . S
H850 C836 0.931 . S
H851 C837 0.933 . S
H852 C843 0.930 . S
H853 C844 0.931 . S
H854 C845 0.931 . S
H855 C846 0.933 . S
Dy856 O859 2.307 . S
Dy856 O861 2.395 . S
Dy856 O862 2.379 . S
Dy856 O864 2.339 . S
Dy856 O866 2.298 . S
Dy856 O870 2.275 . S
Dy856 C878 2.738 . S
Dy857 O860 2.298 . S
Dy857 O863 2.275 . S
Dy857 O865 2.307 . S
Dy857 O867 2.395 . S
Dy857 O868 2.379 . S
Dy857 O871 2.339 . S
Dy857 C887 2.738 . S
C858 O870 1.254 . S
C858 O871 1.257 . S
O859 Dy856 2.307 . S
O859 C869 1.266 . S
O860 Dy857 2.298 . S
O860 C869 1.236 . S
O861 Dy856 2.395 . S
O861 C878 1.255 . S
O862 Dy856 2.379 . S
O862 C878 1.249 . S
O863 Dy857 2.275 . S
O863 C879 1.254 . S
O864 Dy856 2.339 . S
O864 C879 1.257 . S
O865 Dy857 2.307 . S
O865 C880 1.266 . S
O866 Dy856 2.298 . S
O866 C880 1.236 . S
O867 Dy857 2.395 . S
O867 C887 1.255 . S
O868 Dy857 2.379 . S
O868 C887 1.249 . S
C869 O859 1.266 . S
C869 O860 1.236 . S
O870 Dy856 2.275 . S
O870 C858 1.254 . S
O871 Dy857 2.339 . S
O871 C858 1.257 . S
C872 C875 1.344 . S
C872 C876 1.328 . S
C872 C878 1.516 . S
C873 C874 1.304 . S
C873 C877 1.323 . S
C874 C873 1.304 . S
C874 C875 1.371 . S
C874 H888 0.930 . S
C875 C872 1.344 . S
C875 C874 1.371 . S
C875 H889 0.931 . S
C876 C872 1.328 . S
C876 C877 1.433 . S
C876 H890 0.931 . S
C877 C873 1.323 . S
C877 C876 1.433 . S
C877 H891 0.933 . S
C878 Dy856 2.738 . S
C878 O861 1.255 . S
C878 O862 1.249 . S
C878 C872 1.516 . S
C879 O863 1.254 . S
C879 O864 1.257 . S
C880 O865 1.266 . S
C880 O866 1.236 . S
C881 C884 1.344 . S
C881 C885 1.328 . S
C881 C887 1.516 . S
C882 C883 1.304 . S
C882 C886 1.323 . S
C883 C882 1.304 . S
C883 C884 1.371 . S
C883 H892 0.930 . S
C884 C881 1.344 . S
C884 C883 1.371 . S
C884 H893 0.931 . S
C885 C881 1.328 . S
C885 C886 1.433 . S
C885 H894 0.931 . S
C886 C882 1.323 . S
C886 C885 1.433 . S
C886 H895 0.933 . S
C887 Dy857 2.738 . S
C887 O867 1.255 . S
C887 O868 1.249 . S
C887 C881 1.516 . S
H888 C874 0.930 . S
H889 C875 0.931 . S
H890 C876 0.931 . S
H891 C877 0.933 . S
H892 C883 0.930 . S
H893 C884 0.931 . S
H894 C885 0.931 . S
H895 C886 0.933 . S
Dy896 O899 2.307 . S
Dy896 O901 2.395 . S
Dy896 O902 2.379 . S
Dy896 O904 2.339 . S
Dy896 O906 2.298 . S
Dy896 O910 2.275 . S
Dy896 C918 2.738 . S
Dy897 O900 2.298 . S
Dy897 O903 2.275 . S
Dy897 O905 2.307 . S
Dy897 O907 2.395 . S
Dy897 O908 2.379 . S
Dy897 O911 2.339 . S
Dy897 C927 2.738 . S
C898 O910 1.254 . S
C898 O911 1.257 . S
O899 Dy896 2.307 . S
O899 C909 1.266 . S
O900 Dy897 2.298 . S
O900 C909 1.236 . S
O901 Dy896 2.395 . S
O901 C918 1.255 . S
O902 Dy896 2.379 . S
O902 C918 1.249 . S
O903 Dy897 2.275 . S
O903 C919 1.254 . S
O904 Dy896 2.339 . S
O904 C919 1.257 . S
O905 Dy897 2.307 . S
O905 C920 1.266 . S
O906 Dy896 2.298 . S
O906 C920 1.236 . S
O907 Dy897 2.395 . S
O907 C927 1.255 . S
O908 Dy897 2.379 . S
O908 C927 1.249 . S
C909 O899 1.266 . S
C909 O900 1.236 . S
O910 Dy896 2.275 . S
O910 C898 1.254 . S
O911 Dy897 2.339 . S
O911 C898 1.257 . S
C912 C915 1.344 . S
C912 C916 1.328 . S
C912 C918 1.516 . S
C913 C914 1.304 . S
C913 C917 1.323 . S
C914 C913 1.304 . S
C914 C915 1.371 . S
C914 H928 0.930 . S
C915 C912 1.344 . S
C915 C914 1.371 . S
C915 H929 0.931 . S
C916 C912 1.328 . S
C916 C917 1.433 . S
C916 H930 0.931 . S
C917 C913 1.323 . S
C917 C916 1.433 . S
C917 H931 0.933 . S
C918 Dy896 2.738 . S
C918 O901 1.255 . S
C918 O902 1.249 . S
C918 C912 1.516 . S
C919 O903 1.254 . S
C919 O904 1.257 . S
C920 O905 1.266 . S
C920 O906 1.236 . S
C921 C924 1.344 . S
C921 C925 1.328 . S
C921 C927 1.516 . S
C922 C923 1.304 . S
C922 C926 1.323 . S
C923 C922 1.304 . S
C923 C924 1.371 . S
C923 H932 0.930 . S
C924 C921 1.344 . S
C924 C923 1.371 . S
C924 H933 0.931 . S
C925 C921 1.328 . S
C925 C926 1.433 . S
C925 H934 0.931 . S
C926 C922 1.323 . S
C926 C925 1.433 . S
C926 H935 0.933 . S
C927 Dy897 2.738 . S
C927 O907 1.255 . S
C927 O908 1.249 . S
C927 C921 1.516 . S
H928 C914 0.930 . S
H929 C915 0.931 . S
H930 C916 0.931 . S
H931 C917 0.933 . S
H932 C923 0.930 . S
H933 C924 0.931 . S
H934 C925 0.931 . S
H935 C926 0.933 . S
Dy936 O939 2.307 . S
Dy936 O941 2.395 1_455 S
Dy936 O942 2.379 1_455 S
Dy936 O944 2.339 . S
Dy936 O946 2.298 . S
Dy936 O950 2.275 . S
Dy936 C958 2.738 1_455 S
Dy937 O940 2.298 . S
Dy937 O943 2.275 . S
Dy937 O945 2.307 . S
Dy937 O947 2.395 . S
Dy937 O948 2.379 1_554 S
Dy937 O951 2.339 1_554 S
Dy937 C967 2.738 . S
C938 O950 1.254 1_556 S
C938 O951 1.257 . S
O939 Dy936 2.307 . S
O939 C949 1.266 . S
O940 Dy937 2.298 . S
O940 C949 1.236 . S
O941 Dy936 2.395 1_655 S
O941 C958 1.255 . S
O942 Dy936 2.379 1_655 S
O942 C958 1.249 . S
O943 Dy937 2.275 . S
O943 C959 1.254 . S
O944 Dy936 2.339 . S
O944 C959 1.257 . S
O945 Dy937 2.307 . S
O945 C960 1.266 . S
O946 Dy936 2.298 . S
O946 C960 1.236 . S
O947 Dy937 2.395 . S
O947 C967 1.255 . S
O948 Dy937 2.379 1_556 S
O948 C967 1.249 1_556 S
C949 O939 1.266 . S
C949 O940 1.236 . S
O950 Dy936 2.275 . S
O950 C938 1.254 1_554 S
O951 Dy937 2.339 1_556 S
O951 C938 1.257 . S
C952 C955 1.344 . S
C952 C956 1.328 . S
C952 C958 1.516 . S
C953 C954 1.304 . S
C953 C957 1.323 . S
C954 C953 1.304 . S
C954 C955 1.371 . S
C954 H968 0.930 . S
C955 C952 1.344 . S
C955 C954 1.371 . S
C955 H969 0.931 . S
C956 C952 1.328 . S
C956 C957 1.433 . S
C956 H970 0.931 . S
C957 C953 1.323 . S
C957 C956 1.433 . S
C957 H971 0.933 . S
C958 Dy936 2.738 1_655 S
C958 O941 1.255 . S
C958 O942 1.249 . S
C958 C952 1.516 . S
C959 O943 1.254 . S
C959 O944 1.257 . S
C960 O945 1.266 . S
C960 O946 1.236 . S
C961 C964 1.344 . S
C961 C965 1.328 1_554 S
C961 C967 1.516 . S
C962 C963 1.304 . S
C962 C966 1.323 1_554 S
C963 C962 1.304 . S
C963 C964 1.371 . S
C963 H972 0.930 . S
C964 C961 1.344 . S
C964 C963 1.371 . S
C964 H973 0.931 . S
C965 C961 1.328 1_556 S
C965 C966 1.433 . S
C965 H974 0.931 . S
C966 C962 1.323 1_556 S
C966 C965 1.433 . S
C966 H975 0.933 . S
C967 Dy937 2.738 . S
C967 O947 1.255 . S
C967 O948 1.249 1_554 S
C967 C961 1.516 . S
H968 C954 0.930 . S
H969 C955 0.931 . S
H970 C956 0.931 . S
H971 C957 0.933 . S
H972 C963 0.930 . S
H973 C964 0.931 . S
H974 C965 0.931 . S
H975 C966 0.933 . S
H976 C984 0.954 . S
H977 C989 0.950 . S
H978 C986 0.950 . S
H979 C988 0.950 . S
H980 C990 0.950 . S
H981 C992 0.950 . S
H982 C994 0.898 1_655 S
H983 C995 0.950 1_655 S
C984 H976 0.954 . S
C984 C985 1.370 1_655 S
C984 C986 1.391 1_556 S
C985 C984 1.370 1_455 S
C985 C989 1.421 . S
C986 H978 0.950 . S
C986 C984 1.391 1_554 S
C986 C987 1.400 1_655 S
C987 C986 1.400 1_455 S
C987 C988 1.398 1_554 S
C987 C993 1.491 . S
C988 H979 0.950 . S
C988 C987 1.398 1_556 S
C988 C989 1.391 . S
C989 H977 0.950 . S
C989 C985 1.421 . S
C989 C988 1.391 . S
C990 H980 0.950 . S
C990 C991 1.386 . S
C990 C992 1.391 . S
C991 C990 1.386 . S
C991 C995 1.393 . S
C992 H981 0.950 . S
C992 C990 1.391 . S
C992 C993 1.400 . S
C993 C987 1.491 . S
C993 C992 1.400 . S
C993 C994 1.428 . S
C994 H982 0.898 1_455 S
C994 C993 1.428 . S
C994 C995 1.413 . S
C995 H983 0.950 1_455 S
C995 C991 1.393 . S
C995 C994 1.413 . S
H996 C1004 0.950 . S
H997 C1009 0.950 . S
H998 C1006 0.950 . S
H999 C1008 0.950 . S
H1000 C1010 0.950 . S
H1001 C1012 0.950 . S
H1002 C1014 0.950 . S
H1003 C1015 0.950 . S
C1004 H996 0.950 . S
C1004 C1005 1.386 . S
C1004 C1006 1.391 . S
C1005 C1004 1.386 . S
C1005 C1009 1.393 . S
C1006 H998 0.950 . S
C1006 C1004 1.391 . S
C1006 C1007 1.400 . S
C1007 C1006 1.400 . S
C1007 C1008 1.398 . S
C1007 C1013 1.491 . S
C1008 H999 0.950 . S
C1008 C1007 1.398 . S
C1008 C1009 1.391 . S
C1009 H997 0.950 . S
C1009 C1005 1.393 . S
C1009 C1008 1.391 . S
C1010 H1000 0.950 . S
C1010 C1011 1.386 . S
C1010 C1012 1.391 . S
C1011 C1010 1.386 . S
C1011 C1015 1.393 . S
C1012 H1001 0.950 . S
C1012 C1010 1.391 . S
C1012 C1013 1.400 . S
C1013 C1007 1.491 . S
C1013 C1012 1.400 . S
C1013 C1014 1.398 . S
C1014 H1002 0.950 . S
C1014 C1013 1.398 . S
C1014 C1015 1.391 . S
C1015 H1003 0.950 . S
C1015 C1011 1.393 . S
C1015 C1014 1.391 . S
H1016 C1024 0.950 . S
H1017 C1029 0.950 . S
H1018 C1026 0.950 . S
H1019 C1028 0.950 . S
H1020 C1030 0.950 . S
H1021 C1032 0.950 . S
H1022 C1034 0.950 . S
H1023 C1035 0.950 . S
C1024 H1016 0.950 . S
C1024 C1025 1.386 . S
C1024 C1026 1.391 . S
C1025 C1024 1.386 . S
C1025 C1029 1.393 . S
C1026 H1018 0.950 . S
C1026 C1024 1.391 . S
C1026 C1027 1.400 . S
C1027 C1026 1.400 . S
C1027 C1028 1.398 . S
C1027 C1033 1.491 . S
C1028 H1019 0.950 . S
C1028 C1027 1.398 . S
C1028 C1029 1.391 . S
C1029 H1017 0.950 . S
C1029 C1025 1.393 . S
C1029 C1028 1.391 . S
C1030 H1020 0.950 . S
C1030 C1031 1.386 . S
C1030 C1032 1.391 . S
C1031 C1030 1.386 . S
C1031 C1035 1.393 . S
C1032 H1021 0.950 . S
C1032 C1030 1.391 . S
C1032 C1033 1.400 . S
C1033 C1027 1.491 . S
C1033 C1032 1.400 . S
C1033 C1034 1.398 . S
C1034 H1022 0.950 . S
C1034 C1033 1.398 . S
C1034 C1035 1.391 . S
C1035 H1023 0.950 . S
C1035 C1031 1.393 . S
C1035 C1034 1.391 . S
H1036 C1044 0.950 . S
H1037 C1049 0.950 . S
H1038 C1046 0.950 . S
H1039 C1048 0.950 . S
H1040 C1050 0.950 . S
H1041 C1052 0.950 . S
H1042 C1054 0.950 . S
H1043 C1055 0.950 . S
C1044 H1036 0.950 . S
C1044 C1045 1.386 . S
C1044 C1046 1.391 . S
C1045 C1044 1.386 . S
C1045 C1049 1.393 . S
C1046 H1038 0.950 . S
C1046 C1044 1.391 . S
C1046 C1047 1.400 . S
C1047 C1046 1.400 . S
C1047 C1048 1.398 . S
C1047 C1053 1.491 . S
C1048 H1039 0.950 . S
C1048 C1047 1.398 . S
C1048 C1049 1.391 . S
C1049 H1037 0.950 . S
C1049 C1045 1.393 . S
C1049 C1048 1.391 . S
C1050 H1040 0.950 . S
C1050 C1051 1.386 . S
C1050 C1052 1.391 . S
C1051 C1050 1.386 . S
C1051 C1055 1.393 . S
C1052 H1041 0.950 . S
C1052 C1050 1.391 . S
C1052 C1053 1.400 . S
C1053 C1047 1.491 . S
C1053 C1052 1.400 . S
C1053 C1054 1.398 . S
C1054 H1042 0.950 . S
C1054 C1053 1.398 . S
C1054 C1055 1.391 . S
C1055 H1043 0.950 . S
C1055 C1051 1.393 . S
C1055 C1054 1.391 . S
H1056 C1064 0.950 . S
H1057 C1069 0.950 . S
H1058 C1066 0.950 . S
H1059 C1068 0.950 . S
H1060 C1070 0.950 . S
H1061 C1072 0.950 . S
H1062 C1074 0.950 . S
H1063 C1075 0.950 . S
C1064 H1056 0.950 . S
C1064 C1065 1.386 . S
C1064 C1066 1.391 . S
C1065 C1064 1.386 . S
C1065 C1069 1.393 . S
C1066 H1058 0.950 . S
C1066 C1064 1.391 . S
C1066 C1067 1.400 . S
C1067 C1066 1.400 . S
C1067 C1068 1.398 . S
C1067 C1073 1.491 . S
C1068 H1059 0.950 . S
C1068 C1067 1.398 . S
C1068 C1069 1.391 . S
C1069 H1057 0.950 . S
C1069 C1065 1.393 . S
C1069 C1068 1.391 . S
C1070 H1060 0.950 . S
C1070 C1071 1.386 . S
C1070 C1072 1.391 . S
C1071 C1070 1.386 . S
C1071 C1075 1.393 . S
C1072 H1061 0.950 . S
C1072 C1070 1.391 . S
C1072 C1073 1.400 . S
C1073 C1067 1.491 . S
C1073 C1072 1.400 . S
C1073 C1074 1.398 . S
C1074 H1062 0.950 . S
C1074 C1073 1.398 . S
C1074 C1075 1.391 . S
C1075 H1063 0.950 . S
C1075 C1071 1.393 . S
C1075 C1074 1.391 . S
H1076 C1084 0.950 . S
H1077 C1089 0.950 . S
H1078 C1086 0.950 . S
H1079 C1088 0.950 . S
H1080 C1090 0.950 . S
H1081 C1092 0.950 . S
H1082 C1094 0.950 . S
H1083 C1095 0.950 . S
C1084 H1076 0.950 . S
C1084 C1085 1.386 . S
C1084 C1086 1.391 . S
C1085 C1084 1.386 . S
C1085 C1089 1.393 . S
C1086 H1078 0.950 . S
C1086 C1084 1.391 . S
C1086 C1087 1.400 . S
C1087 C1086 1.400 . S
C1087 C1088 1.398 . S
C1087 C1093 1.491 . S
C1088 H1079 0.950 . S
C1088 C1087 1.398 . S
C1088 C1089 1.391 . S
C1089 H1077 0.950 . S
C1089 C1085 1.393 . S
C1089 C1088 1.391 . S
C1090 H1080 0.950 . S
C1090 C1091 1.386 . S
C1090 C1092 1.391 . S
C1091 C1090 1.386 . S
C1091 C1095 1.393 . S
C1092 H1081 0.950 . S
C1092 C1090 1.391 . S
C1092 C1093 1.400 . S
C1093 C1087 1.491 . S
C1093 C1092 1.400 . S
C1093 C1094 1.398 . S
C1094 H1082 0.950 . S
C1094 C1093 1.398 . S
C1094 C1095 1.391 . S
C1095 H1083 0.950 . S
C1095 C1091 1.393 . S
C1095 C1094 1.391 . S
H1096 C1104 0.950 . S
H1097 C1109 0.950 . S
H1098 C1106 0.950 . S
H1099 C1108 0.950 . S
H1100 C1110 0.950 . S
H1101 C1112 0.950 . S
H1102 C1114 0.950 . S
H1103 C1115 0.950 . S
C1104 H1096 0.950 . S
C1104 C1105 1.386 . S
C1104 C1106 1.391 . S
C1105 C1104 1.386 . S
C1105 C1109 1.393 . S
C1106 H1098 0.950 . S
C1106 C1104 1.391 . S
C1106 C1107 1.400 . S
C1107 C1106 1.400 . S
C1107 C1108 1.398 . S
C1107 C1113 1.491 . S
C1108 H1099 0.950 . S
C1108 C1107 1.398 . S
C1108 C1109 1.391 . S
C1109 H1097 0.950 . S
C1109 C1105 1.393 . S
C1109 C1108 1.391 . S
C1110 H1100 0.950 . S
C1110 C1111 1.386 . S
C1110 C1112 1.391 . S
C1111 C1110 1.386 . S
C1111 C1115 1.393 . S
C1112 H1101 0.950 . S
C1112 C1110 1.391 . S
C1112 C1113 1.400 . S
C1113 C1107 1.491 . S
C1113 C1112 1.400 . S
C1113 C1114 1.398 . S
C1114 H1102 0.950 . S
C1114 C1113 1.398 . S
C1114 C1115 1.391 . S
C1115 H1103 0.950 . S
C1115 C1111 1.393 . S
C1115 C1114 1.391 . S
H1116 C1124 0.950 . S
H1117 C1129 0.950 . S
H1118 C1126 0.950 . S
H1119 C1128 0.950 . S
H1120 C1130 0.950 . S
H1121 C1132 0.950 . S
H1122 C1134 0.950 . S
H1123 C1135 0.950 . S
C1124 H1116 0.950 . S
C1124 C1125 1.386 . S
C1124 C1126 1.391 . S
C1125 C1124 1.386 . S
C1125 C1129 1.393 . S
C1126 H1118 0.950 . S
C1126 C1124 1.391 . S
C1126 C1127 1.400 . S
C1127 C1126 1.400 . S
C1127 C1128 1.398 . S
C1127 C1133 1.491 . S
C1128 H1119 0.950 . S
C1128 C1127 1.398 . S
C1128 C1129 1.391 . S
C1129 H1117 0.950 . S
C1129 C1125 1.393 . S
C1129 C1128 1.391 . S
C1130 H1120 0.950 . S
C1130 C1131 1.386 . S
C1130 C1132 1.391 . S
C1131 C1130 1.386 . S
C1131 C1135 1.393 . S
C1132 H1121 0.950 . S
C1132 C1130 1.391 . S
C1132 C1133 1.400 . S
C1133 C1127 1.491 . S
C1133 C1132 1.400 . S
C1133 C1134 1.398 . S
C1134 H1122 0.950 . S
C1134 C1133 1.398 . S
C1134 C1135 1.391 . S
C1135 H1123 0.950 . S
C1135 C1131 1.393 . S
C1135 C1134 1.391 . S
H1136 C1144 0.950 . S
H1137 C1149 0.950 1_565 S
H1138 C1146 0.950 . S
H1139 C1148 0.950 . S
H1140 C1150 0.950 . S
H1141 C1152 0.950 1_655 S
H1142 C1154 0.959 . S
H1143 C1155 0.950 . S
C1144 H1136 0.950 . S
C1144 C1145 1.386 . S
C1144 C1146 1.391 . S
C1145 C1144 1.386 . S
C1145 C1149 1.393 . S
C1146 H1138 0.950 . S
C1146 C1144 1.391 . S
C1146 C1147 1.400 . S
C1147 C1146 1.400 . S
C1147 C1148 1.398 . S
C1147 C1153 1.491 . S
C1148 H1139 0.950 . S
C1148 C1147 1.398 . S
C1148 C1149 1.391 . S
C1149 H1137 0.950 1_545 S
C1149 C1145 1.393 . S
C1149 C1148 1.391 . S
C1150 H1140 0.950 . S
C1150 C1151 1.386 . S
C1150 C1152 1.413 . S
C1151 C1150 1.386 . S
C1151 C1155 1.393 . S
C1152 H1141 0.950 1_455 S
C1152 C1150 1.413 . S
C1152 C1153 1.381 1_455 S
C1153 C1147 1.491 . S
C1153 C1152 1.381 1_655 S
C1153 C1154 1.398 1_655 S
C1154 H1142 0.959 . S
C1154 C1153 1.398 1_455 S
C1154 C1155 1.391 . S
C1155 H1143 0.950 . S
C1155 C1151 1.393 . S
C1155 C1154 1.391 . S
H1156 C1164 0.950 . S
H1157 C1169 0.950 . S
H1158 C1166 0.950 . S
H1159 C1168 0.950 . S
H1160 C1170 0.950 . S
H1161 C1172 0.950 . S
H1162 C1174 0.950 . S
H1163 C1175 0.950 . S
C1164 H1156 0.950 . S
C1164 C1165 1.386 . S
C1164 C1166 1.391 . S
C1165 C1164 1.386 . S
C1165 C1169 1.393 . S
C1166 H1158 0.950 . S
C1166 C1164 1.391 . S
C1166 C1167 1.400 . S
C1167 C1166 1.400 . S
C1167 C1168 1.398 . S
C1167 C1173 1.491 . S
C1168 H1159 0.950 . S
C1168 C1167 1.398 . S
C1168 C1169 1.391 . S
C1169 H1157 0.950 . S
C1169 C1165 1.393 . S
C1169 C1168 1.391 . S
C1170 H1160 0.950 . S
C1170 C1171 1.386 . S
C1170 C1172 1.391 . S
C1171 C1170 1.386 . S
C1171 C1175 1.393 . S
C1172 H1161 0.950 . S
C1172 C1170 1.391 . S
C1172 C1173 1.400 . S
C1173 C1167 1.491 . S
C1173 C1172 1.400 . S
C1173 C1174 1.398 . S
C1174 H1162 0.950 . S
C1174 C1173 1.398 . S
C1174 C1175 1.391 . S
C1175 H1163 0.950 . S
C1175 C1171 1.393 . S
C1175 C1174 1.391 . S
H1176 C1184 0.950 . S
H1177 C1189 0.950 . S
H1178 C1186 0.950 . S
H1179 C1188 0.950 . S
H1180 C1190 0.950 . S
H1181 C1192 0.950 . S
H1182 C1194 0.950 . S
H1183 C1195 0.950 . S
C1184 H1176 0.950 . S
C1184 C1185 1.386 . S
C1184 C1186 1.391 . S
C1185 C1184 1.386 . S
C1185 C1189 1.393 . S
C1186 H1178 0.950 . S
C1186 C1184 1.391 . S
C1186 C1187 1.400 . S
C1187 C1186 1.400 . S
C1187 C1188 1.398 . S
C1187 C1193 1.491 . S
C1188 H1179 0.950 . S
C1188 C1187 1.398 . S
C1188 C1189 1.391 . S
C1189 H1177 0.950 . S
C1189 C1185 1.393 . S
C1189 C1188 1.391 . S
C1190 H1180 0.950 . S
C1190 C1191 1.386 . S
C1190 C1192 1.391 . S
C1191 C1190 1.386 . S
C1191 C1195 1.393 . S
C1192 H1181 0.950 . S
C1192 C1190 1.391 . S
C1192 C1193 1.400 . S
C1193 C1187 1.491 . S
C1193 C1192 1.400 . S
C1193 C1194 1.398 . S
C1194 H1182 0.950 . S
C1194 C1193 1.398 . S
C1194 C1195 1.391 . S
C1195 H1183 0.950 . S
C1195 C1191 1.393 . S
C1195 C1194 1.391 . S
H1196 C1204 0.950 . S
H1197 C1209 0.950 . S
H1198 C1206 0.950 . S
H1199 C1208 0.950 . S
H1200 C1210 0.950 . S
H1201 C1212 0.950 . S
H1202 C1214 0.950 . S
H1203 C1215 0.950 . S
C1204 H1196 0.950 . S
C1204 C1205 1.386 . S
C1204 C1206 1.391 . S
C1205 C1204 1.386 . S
C1205 C1209 1.393 . S
C1206 H1198 0.950 . S
C1206 C1204 1.391 . S
C1206 C1207 1.400 . S
C1207 C1206 1.400 . S
C1207 C1208 1.398 . S
C1207 C1213 1.491 . S
C1208 H1199 0.950 . S
C1208 C1207 1.398 . S
C1208 C1209 1.391 . S
C1209 H1197 0.950 . S
C1209 C1205 1.393 . S
C1209 C1208 1.391 . S
C1210 H1200 0.950 . S
C1210 C1211 1.386 . S
C1210 C1212 1.391 . S
C1211 C1210 1.386 . S
C1211 C1215 1.393 . S
C1212 H1201 0.950 . S
C1212 C1210 1.391 . S
C1212 C1213 1.400 . S
C1213 C1207 1.491 . S
C1213 C1212 1.400 . S
C1213 C1214 1.398 . S
C1214 H1202 0.950 . S
C1214 C1213 1.398 . S
C1214 C1215 1.391 . S
C1215 H1203 0.950 . S
C1215 C1211 1.393 . S
C1215 C1214 1.391 . S
H1216 C1224 0.950 . S
H1217 C1229 0.950 1_455 S
H1218 C1226 0.950 . S
H1219 C1228 0.950 . S
H1220 C1230 0.950 . S
H1221 C1232 0.950 . S
H1222 C1234 0.950 . S
H1223 C1235 0.950 . S
C1224 H1216 0.950 . S
C1224 C1225 1.386 . S
C1224 C1226 1.391 . S
C1225 C1224 1.386 . S
C1225 C1229 1.393 . S
C1226 H1218 0.950 . S
C1226 C1224 1.391 . S
C1226 C1227 1.400 . S
C1227 C1226 1.400 . S
C1227 C1228 1.398 1_655 S
C1227 C1233 1.486 1_655 S
C1228 H1219 0.950 . S
C1228 C1227 1.398 1_455 S
C1228 C1229 1.391 1_455 S
C1229 H1217 0.950 1_655 S
C1229 C1225 1.393 . S
C1229 C1228 1.391 1_655 S
C1230 H1220 0.950 . S
C1230 C1231 1.386 . S
C1230 C1232 1.391 . S
C1231 C1230 1.386 . S
C1231 C1235 1.393 1_455 S
C1232 H1221 0.950 . S
C1232 C1230 1.391 . S
C1232 C1233 1.414 . S
C1233 C1227 1.486 1_455 S
C1233 C1232 1.414 . S
C1233 C1234 1.389 1_455 S
C1234 H1222 0.950 . S
C1234 C1233 1.389 1_655 S
C1234 C1235 1.391 . S
C1235 H1223 0.950 . S
C1235 C1231 1.393 1_655 S
C1235 C1234 1.391 . S
H1236 C1244 0.950 . S
H1237 C1249 0.950 . S
H1238 C1246 0.950 . S
H1239 C1248 0.950 . S
H1240 C1250 0.950 . S
H1241 C1252 0.950 . S
H1242 C1254 0.950 . S
H1243 C1255 0.950 . S
C1244 H1236 0.950 . S
C1244 C1245 1.386 . S
C1244 C1246 1.391 . S
C1245 C1244 1.386 . S
C1245 C1249 1.393 . S
C1246 H1238 0.950 . S
C1246 C1244 1.391 . S
C1246 C1247 1.400 . S
C1247 C1246 1.400 . S
C1247 C1248 1.398 . S
C1247 C1253 1.491 . S
C1248 H1239 0.950 . S
C1248 C1247 1.398 . S
C1248 C1249 1.391 . S
C1249 H1237 0.950 . S
C1249 C1245 1.393 . S
C1249 C1248 1.391 . S
C1250 H1240 0.950 . S
C1250 C1251 1.386 . S
C1250 C1252 1.391 . S
C1251 C1250 1.386 . S
C1251 C1255 1.393 . S
C1252 H1241 0.950 . S
C1252 C1250 1.391 . S
C1252 C1253 1.400 . S
C1253 C1247 1.491 . S
C1253 C1252 1.400 . S
C1253 C1254 1.398 . S
C1254 H1242 0.950 . S
C1254 C1253 1.398 . S
C1254 C1255 1.391 . S
C1255 H1243 0.950 . S
C1255 C1251 1.393 . S
C1255 C1254 1.391 . S
H1256 C1264 0.950 . S
H1257 C1269 0.950 . S
H1258 C1266 0.950 . S
H1259 C1268 0.950 . S
H1260 C1270 0.950 . S
H1261 C1272 0.950 . S
H1262 C1274 0.950 . S
H1263 C1275 0.950 . S
C1264 H1256 0.950 . S
C1264 C1265 1.386 . S
C1264 C1266 1.391 . S
C1265 C1264 1.386 . S
C1265 C1269 1.393 . S
C1266 H1258 0.950 . S
C1266 C1264 1.391 . S
C1266 C1267 1.400 . S
C1267 C1266 1.400 . S
C1267 C1268 1.398 . S
C1267 C1273 1.491 . S
C1268 H1259 0.950 . S
C1268 C1267 1.398 . S
C1268 C1269 1.391 . S
C1269 H1257 0.950 . S
C1269 C1265 1.393 . S
C1269 C1268 1.391 . S
C1270 H1260 0.950 . S
C1270 C1271 1.386 . S
C1270 C1272 1.391 . S
C1271 C1270 1.386 . S
C1271 C1275 1.393 . S
C1272 H1261 0.950 . S
C1272 C1270 1.391 . S
C1272 C1273 1.400 . S
C1273 C1267 1.491 . S
C1273 C1272 1.400 . S
C1273 C1274 1.398 . S
C1274 H1262 0.950 . S
C1274 C1273 1.398 . S
C1274 C1275 1.391 . S
C1275 H1263 0.950 . S
C1275 C1271 1.393 . S
C1275 C1274 1.391 . S
H1276 C1284 0.950 . S
H1277 C1289 0.950 . S
H1278 C1286 0.950 . S
H1279 C1288 0.950 . S
H1280 C1290 0.950 . S
H1281 C1292 0.950 . S
H1282 C1294 0.950 . S
H1283 C1295 0.950 . S
C1284 H1276 0.950 . S
C1284 C1285 1.386 . S
C1284 C1286 1.391 . S
C1285 C1284 1.386 . S
C1285 C1289 1.393 . S
C1286 H1278 0.950 . S
C1286 C1284 1.391 . S
C1286 C1287 1.400 . S
C1287 C1286 1.400 . S
C1287 C1288 1.398 . S
C1287 C1293 1.491 . S
C1288 H1279 0.950 . S
C1288 C1287 1.398 . S
C1288 C1289 1.391 . S
C1289 H1277 0.950 . S
C1289 C1285 1.393 . S
C1289 C1288 1.391 . S
C1290 H1280 0.950 . S
C1290 C1291 1.386 . S
C1290 C1292 1.391 . S
C1291 C1290 1.386 . S
C1291 C1295 1.393 . S
C1292 H1281 0.950 . S
C1292 C1290 1.391 . S
C1292 C1293 1.400 . S
C1293 C1287 1.491 . S
C1293 C1292 1.400 . S
C1293 C1294 1.398 . S
C1294 H1282 0.950 . S
C1294 C1293 1.398 . S
C1294 C1295 1.391 . S
C1295 H1283 0.950 . S
C1295 C1291 1.393 . S
C1295 C1294 1.391 . S
H1296 C1304 0.950 . S
H1297 C1309 0.950 . S
H1298 C1306 0.950 . S
H1299 C1308 0.950 1_556 S
H1300 C1310 0.950 . S
H1301 C1312 0.950 . S
H1302 C1314 0.950 . S
H1303 C1315 0.950 . S
C1304 H1296 0.950 . S
C1304 C1305 1.386 . S
C1304 C1306 1.391 . S
C1305 C1304 1.386 . S
C1305 C1309 1.393 1_554 S
C1306 H1298 0.950 . S
C1306 C1304 1.391 . S
C1306 C1307 1.400 . S
C1307 C1306 1.400 . S
C1307 C1308 1.398 . S
C1307 C1313 1.491 . S
C1308 H1299 0.950 1_554 S
C1308 C1307 1.398 . S
C1308 C1309 1.391 1_554 S
C1309 H1297 0.950 . S
C1309 C1305 1.393 1_556 S
C1309 C1308 1.391 1_556 S
C1310 H1300 0.950 . S
C1310 C1311 1.386 1_565 S
C1310 C1312 1.391 . S
C1311 C1310 1.386 1_545 S
C1311 C1315 1.393 . S
C1312 H1301 0.950 . S
C1312 C1310 1.391 . S
C1312 C1313 1.400 . S
C1313 C1307 1.491 . S
C1313 C1312 1.400 . S
C1313 C1314 1.398 . S
C1314 H1302 0.950 . S
C1314 C1313 1.398 . S
C1314 C1315 1.391 1_565 S
C1315 H1303 0.950 . S
C1315 C1311 1.393 . S
C1315 C1314 1.391 1_545 S
H1316 C1324 0.950 1_556 S
H1317 C1329 0.950 . S
H1318 C1326 0.950 1_556 S
H1319 C1328 0.950 . S
H1320 C1330 0.950 . S
H1321 C1332 0.950 . S
H1322 C1334 0.950 . S
H1323 C1335 0.975 . S
C1324 H1316 0.950 1_554 S
C1324 C1325 1.386 . S
C1324 C1326 1.391 . S
C1325 C1324 1.386 . S
C1325 C1329 1.393 . S
C1326 H1318 0.950 1_554 S
C1326 C1324 1.391 . S
C1326 C1327 1.400 . S
C1327 C1326 1.400 . S
C1327 C1328 1.398 . S
C1327 C1333 1.491 . S
C1328 H1319 0.950 . S
C1328 C1327 1.398 . S
C1328 C1329 1.391 . S
C1329 H1317 0.950 . S
C1329 C1325 1.393 . S
C1329 C1328 1.391 . S
C1330 H1320 0.950 . S
C1330 C1331 1.386 . S
C1330 C1332 1.391 . S
C1331 C1330 1.386 . S
C1331 C1335 1.393 . S
C1332 H1321 0.950 . S
C1332 C1330 1.391 . S
C1332 C1333 1.400 . S
C1333 C1327 1.491 . S
C1333 C1332 1.400 . S
C1333 C1334 1.398 . S
C1334 H1322 0.950 . S
C1334 C1333 1.398 . S
C1334 C1335 1.391 . S
C1335 H1323 0.975 . S
C1335 C1331 1.393 . S
C1335 C1334 1.391 . S
H1336 C1344 0.950 . S
H1337 C1349 0.950 . S
H1338 C1346 0.950 . S
H1339 C1348 0.950 . S
H1340 C1350 0.950 . S
H1341 C1352 0.950 . S
H1342 C1354 0.950 . S
H1343 C1355 0.950 . S
C1344 H1336 0.950 . S
C1344 C1345 1.386 . S
C1344 C1346 1.391 . S
C1345 C1344 1.386 . S
C1345 C1349 1.393 . S
C1346 H1338 0.950 . S
C1346 C1344 1.391 . S
C1346 C1347 1.400 . S
C1347 C1346 1.400 . S
C1347 C1348 1.398 . S
C1347 C1353 1.491 . S
C1348 H1339 0.950 . S
C1348 C1347 1.398 . S
C1348 C1349 1.391 . S
C1349 H1337 0.950 . S
C1349 C1345 1.393 . S
C1349 C1348 1.391 . S
C1350 H1340 0.950 . S
C1350 C1351 1.386 . S
C1350 C1352 1.391 . S
C1351 C1350 1.386 . S
C1351 C1355 1.393 . S
C1352 H1341 0.950 . S
C1352 C1350 1.391 . S
C1352 C1353 1.400 . S
C1353 C1347 1.491 . S
C1353 C1352 1.400 . S
C1353 C1354 1.398 . S
C1354 H1342 0.950 . S
C1354 C1353 1.398 . S
C1354 C1355 1.391 . S
C1355 H1343 0.950 . S
C1355 C1351 1.393 . S
C1355 C1354 1.391 . S
H1356 C1364 0.950 . S
H1357 C1369 0.950 . S
H1358 C1366 0.950 . S
H1359 C1368 0.950 . S
H1360 C1370 0.950 . S
H1361 C1372 0.950 . S
H1362 C1374 0.950 . S
H1363 C1375 0.950 . S
C1364 H1356 0.950 . S
C1364 C1365 1.386 . S
C1364 C1366 1.391 . S
C1365 C1364 1.386 . S
C1365 C1369 1.393 . S
C1366 H1358 0.950 . S
C1366 C1364 1.391 . S
C1366 C1367 1.400 . S
C1367 C1366 1.400 . S
C1367 C1368 1.398 . S
C1367 C1373 1.491 . S
C1368 H1359 0.950 . S
C1368 C1367 1.398 . S
C1368 C1369 1.391 . S
C1369 H1357 0.950 . S
C1369 C1365 1.393 . S
C1369 C1368 1.391 . S
C1370 H1360 0.950 . S
C1370 C1371 1.386 . S
C1370 C1372 1.391 . S
C1371 C1370 1.386 . S
C1371 C1375 1.393 . S
C1372 H1361 0.950 . S
C1372 C1370 1.391 . S
C1372 C1373 1.400 . S
C1373 C1367 1.491 . S
C1373 C1372 1.400 . S
C1373 C1374 1.398 . S
C1374 H1362 0.950 . S
C1374 C1373 1.398 . S
C1374 C1375 1.391 . S
C1375 H1363 0.950 . S
C1375 C1371 1.393 . S
C1375 C1374 1.391 . S
H1376 C1384 0.950 . S
H1377 C1389 0.950 . S
H1378 C1386 0.950 . S
H1379 C1388 0.950 . S
H1380 C1390 0.950 . S
H1381 C1392 0.950 . S
H1382 C1394 0.950 . S
H1383 C1395 0.950 . S
C1384 H1376 0.950 . S
C1384 C1385 1.386 . S
C1384 C1386 1.391 . S
C1385 C1384 1.386 . S
C1385 C1389 1.393 . S
C1386 H1378 0.950 . S
C1386 C1384 1.391 . S
C1386 C1387 1.400 . S
C1387 C1386 1.400 . S
C1387 C1388 1.398 . S
C1387 C1393 1.491 . S
C1388 H1379 0.950 . S
C1388 C1387 1.398 . S
C1388 C1389 1.391 . S
C1389 H1377 0.950 . S
C1389 C1385 1.393 . S
C1389 C1388 1.391 . S
C1390 H1380 0.950 . S
C1390 C1391 1.386 . S
C1390 C1392 1.391 . S
C1391 C1390 1.386 . S
C1391 C1395 1.393 . S
C1392 H1381 0.950 . S
C1392 C1390 1.391 . S
C1392 C1393 1.400 . S
C1393 C1387 1.491 . S
C1393 C1392 1.400 . S
C1393 C1394 1.398 . S
C1394 H1382 0.950 . S
C1394 C1393 1.398 . S
C1394 C1395 1.391 . S
C1395 H1383 0.950 . S
C1395 C1391 1.393 . S
C1395 C1394 1.391 . S
H1396 C1404 0.950 . S
H1397 C1409 0.950 . S
H1398 C1406 0.950 . S
H1399 C1408 0.950 . S
H1400 C1410 0.950 . S
H1401 C1412 0.950 . S
H1402 C1414 0.950 . S
H1403 C1415 0.950 . S
C1404 H1396 0.950 . S
C1404 C1405 1.386 . S
C1404 C1406 1.391 . S
C1405 C1404 1.386 . S
C1405 C1409 1.393 . S
C1406 H1398 0.950 . S
C1406 C1404 1.391 . S
C1406 C1407 1.400 . S
C1407 C1406 1.400 . S
C1407 C1408 1.398 . S
C1407 C1413 1.491 . S
C1408 H1399 0.950 . S
C1408 C1407 1.398 . S
C1408 C1409 1.391 . S
C1409 H1397 0.950 . S
C1409 C1405 1.393 . S
C1409 C1408 1.391 . S
C1410 H1400 0.950 . S
C1410 C1411 1.386 . S
C1410 C1412 1.391 . S
C1411 C1410 1.386 . S
C1411 C1415 1.393 . S
C1412 H1401 0.950 . S
C1412 C1410 1.391 . S
C1412 C1413 1.400 . S
C1413 C1407 1.491 . S
C1413 C1412 1.400 . S
C1413 C1414 1.398 . S
C1414 H1402 0.950 . S
C1414 C1413 1.398 . S
C1414 C1415 1.391 . S
C1415 H1403 0.950 . S
C1415 C1411 1.393 . S
C1415 C1414 1.391 . S
H1416 C1424 0.950 . S
H1417 C1429 0.950 . S
H1418 C1426 0.950 . S
H1419 C1428 0.950 . S
H1420 C1430 0.950 . S
H1421 C1432 0.950 . S
H1422 C1434 0.950 . S
H1423 C1435 0.950 . S
C1424 H1416 0.950 . S
C1424 C1425 1.386 . S
C1424 C1426 1.391 . S
C1425 C1424 1.386 . S
C1425 C1429 1.393 . S
C1426 H1418 0.950 . S
C1426 C1424 1.391 . S
C1426 C1427 1.400 . S
C1427 C1426 1.400 . S
C1427 C1428 1.398 . S
C1427 C1433 1.491 . S
C1428 H1419 0.950 . S
C1428 C1427 1.398 . S
C1428 C1429 1.391 . S
C1429 H1417 0.950 . S
C1429 C1425 1.393 . S
C1429 C1428 1.391 . S
C1430 H1420 0.950 . S
C1430 C1431 1.386 . S
C1430 C1432 1.391 . S
C1431 C1430 1.386 . S
C1431 C1435 1.393 . S
C1432 H1421 0.950 . S
C1432 C1430 1.391 . S
C1432 C1433 1.400 . S
C1433 C1427 1.491 . S
C1433 C1432 1.400 . S
C1433 C1434 1.398 . S
C1434 H1422 0.950 . S
C1434 C1433 1.398 . S
C1434 C1435 1.391 . S
C1435 H1423 0.950 . S
C1435 C1431 1.393 . S
C1435 C1434 1.391 . S
H1436 C1444 0.950 . S
H1437 C1449 0.950 . S
H1438 C1446 0.950 . S
H1439 C1448 0.950 . S
H1440 C1450 0.950 . S
H1441 C1452 0.950 . S
H1442 C1454 0.950 . S
H1443 C1455 0.950 . S
C1444 H1436 0.950 . S
C1444 C1445 1.386 . S
C1444 C1446 1.391 . S
C1445 C1444 1.386 . S
C1445 C1449 1.393 . S
C1446 H1438 0.950 . S
C1446 C1444 1.391 . S
C1446 C1447 1.400 . S
C1447 C1446 1.400 . S
C1447 C1448 1.398 . S
C1447 C1453 1.491 . S
C1448 H1439 0.950 . S
C1448 C1447 1.398 . S
C1448 C1449 1.391 . S
C1449 H1437 0.950 . S
C1449 C1445 1.393 . S
C1449 C1448 1.391 . S
C1450 H1440 0.950 . S
C1450 C1451 1.386 . S
C1450 C1452 1.391 . S
C1451 C1450 1.386 . S
C1451 C1455 1.393 . S
C1452 H1441 0.950 . S
C1452 C1450 1.391 . S
C1452 C1453 1.400 . S
C1453 C1447 1.491 . S
C1453 C1452 1.400 . S
C1453 C1454 1.398 . S
C1454 H1442 0.950 . S
C1454 C1453 1.398 . S
C1454 C1455 1.391 . S
C1455 H1443 0.950 . S
C1455 C1451 1.393 . S
C1455 C1454 1.391 . S
H1456 C1464 0.950 . S
H1457 C1469 0.950 . S
H1458 C1466 0.950 . S
H1459 C1468 0.950 . S
H1460 C1470 0.950 . S
H1461 C1472 0.950 . S
H1462 C1474 0.950 . S
H1463 C1475 0.950 . S
C1464 H1456 0.950 . S
C1464 C1465 1.386 . S
C1464 C1466 1.391 . S
C1465 C1464 1.386 . S
C1465 C1469 1.393 . S
C1466 H1458 0.950 . S
C1466 C1464 1.391 . S
C1466 C1467 1.400 . S
C1467 C1466 1.400 . S
C1467 C1468 1.398 . S
C1467 C1473 1.491 . S
C1468 H1459 0.950 . S
C1468 C1467 1.398 . S
C1468 C1469 1.391 . S
C1469 H1457 0.950 . S
C1469 C1465 1.393 . S
C1469 C1468 1.391 . S
C1470 H1460 0.950 . S
C1470 C1471 1.386 . S
C1470 C1472 1.391 . S
C1471 C1470 1.386 . S
C1471 C1475 1.393 . S
C1472 H1461 0.950 . S
C1472 C1470 1.391 . S
C1472 C1473 1.400 . S
C1473 C1467 1.491 . S
C1473 C1472 1.400 . S
C1473 C1474 1.398 . S
C1474 H1462 0.950 . S
C1474 C1473 1.398 . S
C1474 C1475 1.391 . S
C1475 H1463 0.950 . S
C1475 C1471 1.393 . S
C1475 C1474 1.391 . S
H1476 C1484 0.950 . S
H1477 C1489 0.950 . S
H1478 C1486 0.950 . S
H1479 C1488 0.950 . S
H1480 C1490 0.950 . S
H1481 C1492 0.950 . S
H1482 C1494 0.950 . S
H1483 C1495 0.950 . S
C1484 H1476 0.950 . S
C1484 C1485 1.386 . S
C1484 C1486 1.391 . S
C1485 C1484 1.386 . S
C1485 C1489 1.393 . S
C1486 H1478 0.950 . S
C1486 C1484 1.391 . S
C1486 C1487 1.400 . S
C1487 C1486 1.400 . S
C1487 C1488 1.398 . S
C1487 C1493 1.491 . S
C1488 H1479 0.950 . S
C1488 C1487 1.398 . S
C1488 C1489 1.391 . S
C1489 H1477 0.950 . S
C1489 C1485 1.393 . S
C1489 C1488 1.391 . S
C1490 H1480 0.950 . S
C1490 C1491 1.386 . S
C1490 C1492 1.391 . S
C1491 C1490 1.386 . S
C1491 C1495 1.393 . S
C1492 H1481 0.950 . S
C1492 C1490 1.391 . S
C1492 C1493 1.400 . S
C1493 C1487 1.491 . S
C1493 C1492 1.400 . S
C1493 C1494 1.398 . S
C1494 H1482 0.950 . S
C1494 C1493 1.398 . S
C1494 C1495 1.391 . S
C1495 H1483 0.950 . S
C1495 C1491 1.393 . S
C1495 C1494 1.391 . S
H1496 C1504 0.950 . S
H1497 C1509 0.950 . S
H1498 C1506 0.950 . S
H1499 C1508 0.950 . S
H1500 C1510 0.950 . S
H1501 C1512 0.950 . S
H1502 C1514 0.950 . S
H1503 C1515 0.950 . S
C1504 H1496 0.950 . S
C1504 C1505 1.386 . S
C1504 C1506 1.391 . S
C1505 C1504 1.386 . S
C1505 C1509 1.393 . S
C1506 H1498 0.950 . S
C1506 C1504 1.391 . S
C1506 C1507 1.400 . S
C1507 C1506 1.400 . S
C1507 C1508 1.398 . S
C1507 C1513 1.491 . S
C1508 H1499 0.950 . S
C1508 C1507 1.398 . S
C1508 C1509 1.391 . S
C1509 H1497 0.950 . S
C1509 C1505 1.393 . S
C1509 C1508 1.391 . S
C1510 H1500 0.950 . S
C1510 C1511 1.386 . S
C1510 C1512 1.391 . S
C1511 C1510 1.386 . S
C1511 C1515 1.393 . S
C1512 H1501 0.950 . S
C1512 C1510 1.391 . S
C1512 C1513 1.400 . S
C1513 C1507 1.491 . S
C1513 C1512 1.400 . S
C1513 C1514 1.398 . S
C1514 H1502 0.950 . S
C1514 C1513 1.398 . S
C1514 C1515 1.391 . S
C1515 H1503 0.950 . S
C1515 C1511 1.393 . S
C1515 C1514 1.391 . S
H1516 C1524 0.950 . S
H1517 C1529 0.950 . S
H1518 C1526 0.950 . S
H1519 C1528 0.950 . S
H1520 C1530 0.950 . S
H1521 C1532 0.950 . S
H1522 C1534 0.950 . S
H1523 C1535 0.950 . S
C1524 H1516 0.950 . S
C1524 C1525 1.386 . S
C1524 C1526 1.391 . S
C1525 C1524 1.386 . S
C1525 C1529 1.393 . S
C1526 H1518 0.950 . S
C1526 C1524 1.391 . S
C1526 C1527 1.400 . S
C1527 C1526 1.400 . S
C1527 C1528 1.398 . S
C1527 C1533 1.491 . S
C1528 H1519 0.950 . S
C1528 C1527 1.398 . S
C1528 C1529 1.391 . S
C1529 H1517 0.950 . S
C1529 C1525 1.393 . S
C1529 C1528 1.391 . S
C1530 H1520 0.950 . S
C1530 C1531 1.386 . S
C1530 C1532 1.391 . S
C1531 C1530 1.386 . S
C1531 C1535 1.393 . S
C1532 H1521 0.950 . S
C1532 C1530 1.391 . S
C1532 C1533 1.400 . S
C1533 C1527 1.491 . S
C1533 C1532 1.400 . S
C1533 C1534 1.398 . S
C1534 H1522 0.950 . S
C1534 C1533 1.398 . S
C1534 C1535 1.391 . S
C1535 H1523 0.950 . S
C1535 C1531 1.393 . S
C1535 C1534 1.391 . S
H1536 C1544 0.950 . S
H1537 C1549 0.950 . S
H1538 C1546 0.950 . S
H1539 C1548 0.950 . S
H1540 C1550 0.950 1_655 S
H1541 C1552 0.940 1_655 S
H1542 C1554 0.950 . S
H1543 C1555 0.950 . S
C1544 H1536 0.950 . S
C1544 C1545 1.386 . S
C1544 C1546 1.391 . S
C1545 C1544 1.386 . S
C1545 C1549 1.393 . S
C1546 H1538 0.950 . S
C1546 C1544 1.391 . S
C1546 C1547 1.400 . S
C1547 C1546 1.400 . S
C1547 C1548 1.398 . S
C1547 C1553 1.491 . S
C1548 H1539 0.950 . S
C1548 C1547 1.398 . S
C1548 C1549 1.391 . S
C1549 H1537 0.950 . S
C1549 C1545 1.393 . S
C1549 C1548 1.391 . S
C1550 H1540 0.950 1_455 S
C1550 C1551 1.386 . S
C1550 C1552 1.391 . S
C1551 C1550 1.386 . S
C1551 C1555 1.393 . S
C1552 H1541 0.940 1_455 S
C1552 C1550 1.391 . S
C1552 C1553 1.400 . S
C1553 C1547 1.491 . S
C1553 C1552 1.400 . S
C1553 C1554 1.398 . S
C1554 H1542 0.950 . S
C1554 C1553 1.398 . S
C1554 C1555 1.391 . S
C1555 H1543 0.950 . S
C1555 C1551 1.393 . S
C1555 C1554 1.391 . S
H1556 C1564 0.950 . S
H1557 C1569 0.950 . S
H1558 C1566 0.950 . S
H1559 C1568 0.950 . S
H1560 C1570 0.950 . S
H1561 C1572 0.950 . S
H1562 C1574 0.950 . S
H1563 C1575 0.950 . S
C1564 H1556 0.950 . S
C1564 C1565 1.386 . S
C1564 C1566 1.391 . S
C1565 C1564 1.386 . S
C1565 C1569 1.393 . S
C1566 H1558 0.950 . S
C1566 C1564 1.391 . S
C1566 C1567 1.400 . S
C1567 C1566 1.400 . S
C1567 C1568 1.398 . S
C1567 C1573 1.491 . S
C1568 H1559 0.950 . S
C1568 C1567 1.398 . S
C1568 C1569 1.391 . S
C1569 H1557 0.950 . S
C1569 C1565 1.393 . S
C1569 C1568 1.391 . S
C1570 H1560 0.950 . S
C1570 C1571 1.386 . S
C1570 C1572 1.391 . S
C1571 C1570 1.386 . S
C1571 C1575 1.393 . S
C1572 H1561 0.950 . S
C1572 C1570 1.391 . S
C1572 C1573 1.400 . S
C1573 C1567 1.491 . S
C1573 C1572 1.400 . S
C1573 C1574 1.398 . S
C1574 H1562 0.950 . S
C1574 C1573 1.398 . S
C1574 C1575 1.391 . S
C1575 H1563 0.950 . S
C1575 C1571 1.393 . S
C1575 C1574 1.391 . S
H1576 C1584 0.950 . S
H1577 C1589 0.950 . S
H1578 C1586 0.950 . S
H1579 C1588 0.950 . S
H1580 C1590 0.950 . S
H1581 C1592 0.950 . S
H1582 C1594 0.950 . S
H1583 C1595 0.950 1_554 S
C1584 H1576 0.950 . S
C1584 C1585 1.386 . S
C1584 C1586 1.391 . S
C1585 C1584 1.386 . S
C1585 C1589 1.393 . S
C1586 H1578 0.950 . S
C1586 C1584 1.391 . S
C1586 C1587 1.400 . S
C1587 C1586 1.400 . S
C1587 C1588 1.398 . S
C1587 C1593 1.491 . S
C1588 H1579 0.950 . S
C1588 C1587 1.398 . S
C1588 C1589 1.391 . S
C1589 H1577 0.950 . S
C1589 C1585 1.393 . S
C1589 C1588 1.391 . S
C1590 H1580 0.950 . S
C1590 C1591 1.386 . S
C1590 C1592 1.391 . S
C1591 C1590 1.386 . S
C1591 C1595 1.393 . S
C1592 H1581 0.950 . S
C1592 C1590 1.391 . S
C1592 C1593 1.400 . S
C1593 C1587 1.491 . S
C1593 C1592 1.400 . S
C1593 C1594 1.398 . S
C1594 H1582 0.950 . S
C1594 C1593 1.398 . S
C1594 C1595 1.391 . S
C1595 H1583 0.950 1_556 S
C1595 C1591 1.393 . S
C1595 C1594 1.391 . S
H1596 C1604 0.950 . S
H1597 C1609 0.950 . S
H1598 C1606 0.950 . S
H1599 C1608 0.950 . S
H1600 C1610 0.950 . S
H1601 C1612 0.950 . S
H1602 C1614 0.950 . S
H1603 C1615 0.950 . S
C1604 H1596 0.950 . S
C1604 C1605 1.386 . S
C1604 C1606 1.391 . S
C1605 C1604 1.386 . S
C1605 C1609 1.393 . S
C1606 H1598 0.950 . S
C1606 C1604 1.391 . S
C1606 C1607 1.400 . S
C1607 C1606 1.400 . S
C1607 C1608 1.398 . S
C1607 C1613 1.491 . S
C1608 H1599 0.950 . S
C1608 C1607 1.398 . S
C1608 C1609 1.391 . S
C1609 H1597 0.950 . S
C1609 C1605 1.393 . S
C1609 C1608 1.391 . S
C1610 H1600 0.950 . S
C1610 C1611 1.386 . S
C1610 C1612 1.391 . S
C1611 C1610 1.386 . S
C1611 C1615 1.393 . S
C1612 H1601 0.950 . S
C1612 C1610 1.391 . S
C1612 C1613 1.400 . S
C1613 C1607 1.491 . S
C1613 C1612 1.400 . S
C1613 C1614 1.398 . S
C1614 H1602 0.950 . S
C1614 C1613 1.398 . S
C1614 C1615 1.391 . S
C1615 H1603 0.950 . S
C1615 C1611 1.393 . S
C1615 C1614 1.391 . S
H1616 C1624 0.950 . S
H1617 C1629 0.950 . S
H1618 C1626 0.950 . S
H1619 C1628 0.950 . S
H1620 C1630 0.947 . S
H1621 C1632 0.950 . S
H1622 C1634 0.950 . S
H1623 C1635 0.950 . S
C1624 H1616 0.950 . S
C1624 C1625 1.386 . S
C1624 C1626 1.391 . S
C1625 C1624 1.386 . S
C1625 C1629 1.393 . S
C1626 H1618 0.950 . S
C1626 C1624 1.391 . S
C1626 C1627 1.400 . S
C1627 C1626 1.400 . S
C1627 C1628 1.398 . S
C1627 C1633 1.491 . S
C1628 H1619 0.950 . S
C1628 C1627 1.398 . S
C1628 C1629 1.391 . S
C1629 H1617 0.950 . S
C1629 C1625 1.393 . S
C1629 C1628 1.391 . S
C1630 H1620 0.947 . S
C1630 C1631 1.386 . S
C1630 C1632 1.391 . S
C1631 C1630 1.386 . S
C1631 C1635 1.393 . S
C1632 H1621 0.950 . S
C1632 C1630 1.391 . S
C1632 C1633 1.400 . S
C1633 C1627 1.491 . S
C1633 C1632 1.400 . S
C1633 C1634 1.398 . S
C1634 H1622 0.950 . S
C1634 C1633 1.398 . S
C1634 C1635 1.391 . S
C1635 H1623 0.950 . S
C1635 C1631 1.393 . S
C1635 C1634 1.391 . S
H1636 C1644 0.950 . S
H1637 C1649 0.950 . S
H1638 C1646 0.950 . S
H1639 C1648 0.950 . S
H1640 C1650 0.950 . S
H1641 C1652 0.950 . S
H1642 C1654 0.950 . S
H1643 C1655 0.950 . S
C1644 H1636 0.950 . S
C1644 C1645 1.386 . S
C1644 C1646 1.391 . S
C1645 C1644 1.386 . S
C1645 C1649 1.393 . S
C1646 H1638 0.950 . S
C1646 C1644 1.391 . S
C1646 C1647 1.400 . S
C1647 C1646 1.400 . S
C1647 C1648 1.398 . S
C1647 C1653 1.491 . S
C1648 H1639 0.950 . S
C1648 C1647 1.398 . S
C1648 C1649 1.391 . S
C1649 H1637 0.950 . S
C1649 C1645 1.393 . S
C1649 C1648 1.391 . S
C1650 H1640 0.950 . S
C1650 C1651 1.386 . S
C1650 C1652 1.391 . S
C1651 C1650 1.386 . S
C1651 C1655 1.393 . S
C1652 H1641 0.950 . S
C1652 C1650 1.391 . S
C1652 C1653 1.400 . S
C1653 C1647 1.491 . S
C1653 C1652 1.400 . S
C1653 C1654 1.398 . S
C1654 H1642 0.950 . S
C1654 C1653 1.398 . S
C1654 C1655 1.391 . S
C1655 H1643 0.950 . S
C1655 C1651 1.393 . S
C1655 C1654 1.391 . S
H1656 C1664 0.950 . S
H1657 C1669 0.950 . S
H1658 C1666 0.950 . S
H1659 C1668 0.950 . S
H1660 C1670 0.948 . S
H1661 C1672 0.950 1_565 S
H1662 C1674 0.950 . S
H1663 C1675 0.950 . S
C1664 H1656 0.950 . S
C1664 C1665 1.386 . S
C1664 C1666 1.391 . S
C1665 C1664 1.386 . S
C1665 C1669 1.393 1_545 S
C1666 H1658 0.950 . S
C1666 C1664 1.391 . S
C1666 C1667 1.400 . S
C1667 C1666 1.400 . S
C1667 C1668 1.398 1_545 S
C1667 C1673 1.491 . S
C1668 H1659 0.950 . S
C1668 C1667 1.398 1_565 S
C1668 C1669 1.391 . S
C1669 H1657 0.950 . S
C1669 C1665 1.393 1_565 S
C1669 C1668 1.391 . S
C1670 H1660 0.948 . S
C1670 C1671 1.386 . S
C1670 C1672 1.391 . S
C1671 C1670 1.386 . S
C1671 C1675 1.393 . S
C1672 H1661 0.950 1_545 S
C1672 C1670 1.391 . S
C1672 C1673 1.400 . S
C1673 C1667 1.491 . S
C1673 C1672 1.400 . S
C1673 C1674 1.398 . S
C1674 H1662 0.950 . S
C1674 C1673 1.398 . S
C1674 C1675 1.391 . S
C1675 H1663 0.950 . S
C1675 C1671 1.393 . S
C1675 C1674 1.391 . S
H1676 C1684 0.950 . S
H1677 C1689 0.950 . S
H1678 C1686 0.950 . S
H1679 C1688 0.950 . S
H1680 C1690 0.950 . S
H1681 C1692 0.950 . S
H1682 C1694 0.950 . S
H1683 C1695 0.950 . S
C1684 H1676 0.950 . S
C1684 C1685 1.386 . S
C1684 C1686 1.391 . S
C1685 C1684 1.386 . S
C1685 C1689 1.393 . S
C1686 H1678 0.950 . S
C1686 C1684 1.391 . S
C1686 C1687 1.400 . S
C1687 C1686 1.400 . S
C1687 C1688 1.398 . S
C1687 C1693 1.491 . S
C1688 H1679 0.950 . S
C1688 C1687 1.398 . S
C1688 C1689 1.391 . S
C1689 H1677 0.950 . S
C1689 C1685 1.393 . S
C1689 C1688 1.391 . S
C1690 H1680 0.950 . S
C1690 C1691 1.386 . S
C1690 C1692 1.391 . S
C1691 C1690 1.386 . S
C1691 C1695 1.393 . S
C1692 H1681 0.950 . S
C1692 C1690 1.391 . S
C1692 C1693 1.400 . S
C1693 C1687 1.491 . S
C1693 C1692 1.400 . S
C1693 C1694 1.398 . S
C1694 H1682 0.950 . S
C1694 C1693 1.398 . S
C1694 C1695 1.391 . S
C1695 H1683 0.950 . S
C1695 C1691 1.393 . S
C1695 C1694 1.391 . S
H1696 C1704 0.950 . S
H1697 C1709 0.950 . S
H1698 C1706 0.950 . S
H1699 C1708 0.950 . S
H1700 C1710 0.950 . S
H1701 C1712 0.950 . S
H1702 C1714 0.950 . S
H1703 C1715 0.950 . S
C1704 H1696 0.950 . S
C1704 C1705 1.386 . S
C1704 C1706 1.391 . S
C1705 C1704 1.386 . S
C1705 C1709 1.393 . S
C1706 H1698 0.950 . S
C1706 C1704 1.391 . S
C1706 C1707 1.400 . S
C1707 C1706 1.400 . S
C1707 C1708 1.398 . S
C1707 C1713 1.491 . S
C1708 H1699 0.950 . S
C1708 C1707 1.398 . S
C1708 C1709 1.391 . S
C1709 H1697 0.950 . S
C1709 C1705 1.393 . S
C1709 C1708 1.391 . S
C1710 H1700 0.950 . S
C1710 C1711 1.386 . S
C1710 C1712 1.391 . S
C1711 C1710 1.386 . S
C1711 C1715 1.393 . S
C1712 H1701 0.950 . S
C1712 C1710 1.391 . S
C1712 C1713 1.400 . S
C1713 C1707 1.491 . S
C1713 C1712 1.400 . S
C1713 C1714 1.398 . S
C1714 H1702 0.950 . S
C1714 C1713 1.398 . S
C1714 C1715 1.391 . S
C1715 H1703 0.950 . S
C1715 C1711 1.393 . S
C1715 C1714 1.391 . S
H1716 C1724 0.950 . S
H1717 C1729 0.950 . S
H1718 C1726 0.950 . S
H1719 C1728 0.950 . S
H1720 C1730 0.950 . S
H1721 C1732 0.950 . S
H1722 C1734 0.950 . S
H1723 C1735 0.950 . S
C1724 H1716 0.950 . S
C1724 C1725 1.386 . S
C1724 C1726 1.391 . S
C1725 C1724 1.386 . S
C1725 C1729 1.393 . S
C1726 H1718 0.950 . S
C1726 C1724 1.391 . S
C1726 C1727 1.400 . S
C1727 C1726 1.400 . S
C1727 C1728 1.398 . S
C1727 C1733 1.491 . S
C1728 H1719 0.950 . S
C1728 C1727 1.398 . S
C1728 C1729 1.391 . S
C1729 H1717 0.950 . S
C1729 C1725 1.393 . S
C1729 C1728 1.391 . S
C1730 H1720 0.950 . S
C1730 C1731 1.386 . S
C1730 C1732 1.391 . S
C1731 C1730 1.386 . S
C1731 C1735 1.393 . S
C1732 H1721 0.950 . S
C1732 C1730 1.391 . S
C1732 C1733 1.400 . S
C1733 C1727 1.491 . S
C1733 C1732 1.400 . S
C1733 C1734 1.398 . S
C1734 H1722 0.950 . S
C1734 C1733 1.398 . S
C1734 C1735 1.391 . S
C1735 H1723 0.950 . S
C1735 C1731 1.393 . S
C1735 C1734 1.391 . S
H1736 C1744 0.950 . S
H1737 C1749 0.950 . S
H1738 C1746 0.950 . S
H1739 C1748 0.950 . S
H1740 C1750 0.950 . S
H1741 C1752 0.950 . S
H1742 C1754 0.950 . S
H1743 C1755 0.950 . S
C1744 H1736 0.950 . S
C1744 C1745 1.386 1_565 S
C1744 C1746 1.391 . S
C1745 C1744 1.386 1_545 S
C1745 C1749 1.393 . S
C1746 H1738 0.950 . S
C1746 C1744 1.391 . S
C1746 C1747 1.400 . S
C1747 C1746 1.400 . S
C1747 C1748 1.398 1_565 S
C1747 C1753 1.491 . S
C1748 H1739 0.950 . S
C1748 C1747 1.398 1_545 S
C1748 C1749 1.391 . S
C1749 H1737 0.950 . S
C1749 C1745 1.393 . S
C1749 C1748 1.391 . S
C1750 H1740 0.950 . S
C1750 C1751 1.386 1_545 S
C1750 C1752 1.391 . S
C1751 C1750 1.386 1_565 S
C1751 C1755 1.393 . S
C1752 H1741 0.950 . S
C1752 C1750 1.391 . S
C1752 C1753 1.400 1_545 S
C1753 C1747 1.491 . S
C1753 C1752 1.400 1_565 S
C1753 C1754 1.398 . S
C1754 H1742 0.950 . S
C1754 C1753 1.398 . S
C1754 C1755 1.391 . S
C1755 H1743 0.950 . S
C1755 C1751 1.393 . S
C1755 C1754 1.391 . S
H1756 C1764 0.950 . S
H1757 C1769 0.950 . S
H1758 C1766 0.950 . S
H1759 C1768 0.950 . S
H1760 C1770 0.950 . S
H1761 C1772 0.950 . S
H1762 C1774 0.950 . S
H1763 C1775 0.950 . S
C1764 H1756 0.950 . S
C1764 C1765 1.386 . S
C1764 C1766 1.391 . S
C1765 C1764 1.386 . S
C1765 C1769 1.393 . S
C1766 H1758 0.950 . S
C1766 C1764 1.391 . S
C1766 C1767 1.400 . S
C1767 C1766 1.400 . S
C1767 C1768 1.398 . S
C1767 C1773 1.491 . S
C1768 H1759 0.950 . S
C1768 C1767 1.398 . S
C1768 C1769 1.391 . S
C1769 H1757 0.950 . S
C1769 C1765 1.393 . S
C1769 C1768 1.391 . S
C1770 H1760 0.950 . S
C1770 C1771 1.386 . S
C1770 C1772 1.391 . S
C1771 C1770 1.386 . S
C1771 C1775 1.393 . S
C1772 H1761 0.950 . S
C1772 C1770 1.391 . S
C1772 C1773 1.400 . S
C1773 C1767 1.491 . S
C1773 C1772 1.400 . S
C1773 C1774 1.398 . S
C1774 H1762 0.950 . S
C1774 C1773 1.398 . S
C1774 C1775 1.391 . S
C1775 H1763 0.950 . S
C1775 C1771 1.393 . S
C1775 C1774 1.391 . S
H1776 C1784 0.950 . S
H1777 C1789 0.950 . S
H1778 C1786 0.950 . S
H1779 C1788 0.950 . S
H1780 C1790 0.985 . S
H1781 C1792 0.950 1_556 S
H1782 C1794 0.950 . S
H1783 C1795 0.950 . S
C1784 H1776 0.950 . S
C1784 C1785 1.386 . S
C1784 C1786 1.391 . S
C1785 C1784 1.386 . S
C1785 C1789 1.393 . S
C1786 H1778 0.950 . S
C1786 C1784 1.391 . S
C1786 C1787 1.400 . S
C1787 C1786 1.400 . S
C1787 C1788 1.398 . S
C1787 C1793 1.491 . S
C1788 H1779 0.950 . S
C1788 C1787 1.398 . S
C1788 C1789 1.391 . S
C1789 H1777 0.950 . S
C1789 C1785 1.393 . S
C1789 C1788 1.391 . S
C1790 H1780 0.985 . S
C1790 C1791 1.366 1_556 S
C1790 C1792 1.377 1_556 S
C1791 C1790 1.366 1_554 S
C1791 C1795 1.393 . S
C1792 H1781 0.950 1_554 S
C1792 C1790 1.377 1_554 S
C1792 C1793 1.400 . S
C1793 C1787 1.491 . S
C1793 C1792 1.400 . S
C1793 C1794 1.398 . S
C1794 H1782 0.950 . S
C1794 C1793 1.398 . S
C1794 C1795 1.391 . S
C1795 H1783 0.950 . S
C1795 C1791 1.393 . S
C1795 C1794 1.391 . S
H1796 C1804 0.950 . S
H1797 C1809 0.950 . S
H1798 C1806 0.950 . S
H1799 C1808 0.950 . S
H1800 C1810 0.950 . S
H1801 C1812 0.950 . S
H1802 C1814 0.950 . S
H1803 C1815 0.950 . S
C1804 H1796 0.950 . S
C1804 C1805 1.386 . S
C1804 C1806 1.391 . S
C1805 C1804 1.386 . S
C1805 C1809 1.393 . S
C1806 H1798 0.950 . S
C1806 C1804 1.391 . S
C1806 C1807 1.400 . S
C1807 C1806 1.400 . S
C1807 C1808 1.398 . S
C1807 C1813 1.491 . S
C1808 H1799 0.950 . S
C1808 C1807 1.398 . S
C1808 C1809 1.391 . S
C1809 H1797 0.950 . S
C1809 C1805 1.393 . S
C1809 C1808 1.391 . S
C1810 H1800 0.950 . S
C1810 C1811 1.386 . S
C1810 C1812 1.391 . S
C1811 C1810 1.386 . S
C1811 C1815 1.393 . S
C1812 H1801 0.950 . S
C1812 C1810 1.391 . S
C1812 C1813 1.400 . S
C1813 C1807 1.491 . S
C1813 C1812 1.400 . S
C1813 C1814 1.398 . S
C1814 H1802 0.950 . S
C1814 C1813 1.398 . S
C1814 C1815 1.391 . S
C1815 H1803 0.950 . S
C1815 C1811 1.393 . S
C1815 C1814 1.391 . S
H1816 C1824 0.950 . S
H1817 C1829 0.950 . S
H1818 C1826 0.950 . S
H1819 C1828 0.950 . S
H1820 C1830 0.950 . S
H1821 C1832 0.950 . S
H1822 C1834 0.950 . S
H1823 C1835 0.950 . S
C1824 H1816 0.950 . S
C1824 C1825 1.386 . S
C1824 C1826 1.391 . S
C1825 C1824 1.386 . S
C1825 C1829 1.393 . S
C1826 H1818 0.950 . S
C1826 C1824 1.391 . S
C1826 C1827 1.400 . S
C1827 C1826 1.400 . S
C1827 C1828 1.398 . S
C1827 C1833 1.491 . S
C1828 H1819 0.950 . S
C1828 C1827 1.398 . S
C1828 C1829 1.391 . S
C1829 H1817 0.950 . S
C1829 C1825 1.393 . S
C1829 C1828 1.391 . S
C1830 H1820 0.950 . S
C1830 C1831 1.386 . S
C1830 C1832 1.391 . S
C1831 C1830 1.386 . S
C1831 C1835 1.393 . S
C1832 H1821 0.950 . S
C1832 C1830 1.391 . S
C1832 C1833 1.400 . S
C1833 C1827 1.491 . S
C1833 C1832 1.400 . S
C1833 C1834 1.398 . S
C1834 H1822 0.950 . S
C1834 C1833 1.398 . S
C1834 C1835 1.391 . S
C1835 H1823 0.950 . S
C1835 C1831 1.393 . S
C1835 C1834 1.391 . S
H1836 C1844 0.950 . S
H1837 C1849 0.950 . S
H1838 C1846 0.950 . S
H1839 C1848 0.950 . S
H1840 C1850 0.950 . S
H1841 C1852 0.950 . S
H1842 C1854 0.950 . S
H1843 C1855 0.950 . S
C1844 H1836 0.950 . S
C1844 C1845 1.386 . S
C1844 C1846 1.391 . S
C1845 C1844 1.386 . S
C1845 C1849 1.393 . S
C1846 H1838 0.950 . S
C1846 C1844 1.391 . S
C1846 C1847 1.400 . S
C1847 C1846 1.400 . S
C1847 C1848 1.398 . S
C1847 C1853 1.491 . S
C1848 H1839 0.950 . S
C1848 C1847 1.398 . S
C1848 C1849 1.391 . S
C1849 H1837 0.950 . S
C1849 C1845 1.393 . S
C1849 C1848 1.391 . S
C1850 H1840 0.950 . S
C1850 C1851 1.386 . S
C1850 C1852 1.391 . S
C1851 C1850 1.386 . S
C1851 C1855 1.393 . S
C1852 H1841 0.950 . S
C1852 C1850 1.391 . S
C1852 C1853 1.400 . S
C1853 C1847 1.491 . S
C1853 C1852 1.400 . S
C1853 C1854 1.398 . S
C1854 H1842 0.950 . S
C1854 C1853 1.398 . S
C1854 C1855 1.391 . S
C1855 H1843 0.950 . S
C1855 C1851 1.393 . S
C1855 C1854 1.391 . S
H1856 C1864 0.950 . S
H1857 C1869 0.950 . S
H1858 C1866 0.950 . S
H1859 C1868 0.950 . S
H1860 C1870 0.950 . S
H1861 C1872 0.950 . S
H1862 C1874 0.950 . S
H1863 C1875 0.950 . S
C1864 H1856 0.950 . S
C1864 C1865 1.386 . S
C1864 C1866 1.391 . S
C1865 C1864 1.386 . S
C1865 C1869 1.393 1_545 S
C1866 H1858 0.950 . S
C1866 C1864 1.391 . S
C1866 C1867 1.400 1_545 S
C1867 C1866 1.400 1_565 S
C1867 C1868 1.398 . S
C1867 C1873 1.491 . S
C1868 H1859 0.950 . S
C1868 C1867 1.398 . S
C1868 C1869 1.391 . S
C1869 H1857 0.950 . S
C1869 C1865 1.393 1_565 S
C1869 C1868 1.391 . S
C1870 H1860 0.950 . S
C1870 C1871 1.386 . S
C1870 C1872 1.391 . S
C1871 C1870 1.386 . S
C1871 C1875 1.393 . S
C1872 H1861 0.950 . S
C1872 C1870 1.391 . S
C1872 C1873 1.400 . S
C1873 C1867 1.491 . S
C1873 C1872 1.400 . S
C1873 C1874 1.398 . S
C1874 H1862 0.950 . S
C1874 C1873 1.398 . S
C1874 C1875 1.391 . S
C1875 H1863 0.950 . S
C1875 C1871 1.393 . S
C1875 C1874 1.391 . S
H1876 C1884 0.950 . S
H1877 C1889 0.950 . S
H1878 C1886 0.950 . S
H1879 C1888 0.950 . S
H1880 C1890 0.950 . S
H1881 C1892 0.950 . S
H1882 C1894 0.950 . S
H1883 C1895 0.950 . S
C1884 H1876 0.950 . S
C1884 C1885 1.386 . S
C1884 C1886 1.391 . S
C1885 C1884 1.386 . S
C1885 C1889 1.393 . S
C1886 H1878 0.950 . S
C1886 C1884 1.391 . S
C1886 C1887 1.400 . S
C1887 C1886 1.400 . S
C1887 C1888 1.398 . S
C1887 C1893 1.491 . S
C1888 H1879 0.950 . S
C1888 C1887 1.398 . S
C1888 C1889 1.391 . S
C1889 H1877 0.950 . S
C1889 C1885 1.393 . S
C1889 C1888 1.391 . S
C1890 H1880 0.950 . S
C1890 C1891 1.386 . S
C1890 C1892 1.391 . S
C1891 C1890 1.386 . S
C1891 C1895 1.393 . S
C1892 H1881 0.950 . S
C1892 C1890 1.391 . S
C1892 C1893 1.400 . S
C1893 C1887 1.491 . S
C1893 C1892 1.400 . S
C1893 C1894 1.398 . S
C1894 H1882 0.950 . S
C1894 C1893 1.398 . S
C1894 C1895 1.391 . S
C1895 H1883 0.950 . S
C1895 C1891 1.393 . S
C1895 C1894 1.391 . S
H1896 C1904 0.950 . S
H1897 C1909 0.950 . S
H1898 C1906 0.950 . S
H1899 C1908 0.950 . S
H1900 C1910 0.950 . S
H1901 C1912 0.950 . S
H1902 C1914 0.950 . S
H1903 C1915 0.950 . S
C1904 H1896 0.950 . S
C1904 C1905 1.386 . S
C1904 C1906 1.391 . S
C1905 C1904 1.386 . S
C1905 C1909 1.393 . S
C1906 H1898 0.950 . S
C1906 C1904 1.391 . S
C1906 C1907 1.400 . S
C1907 C1906 1.400 . S
C1907 C1908 1.398 . S
C1907 C1913 1.491 . S
C1908 H1899 0.950 . S
C1908 C1907 1.398 . S
C1908 C1909 1.391 . S
C1909 H1897 0.950 . S
C1909 C1905 1.393 . S
C1909 C1908 1.391 . S
C1910 H1900 0.950 . S
C1910 C1911 1.386 . S
C1910 C1912 1.391 . S
C1911 C1910 1.386 . S
C1911 C1915 1.393 . S
C1912 H1901 0.950 . S
C1912 C1910 1.391 . S
C1912 C1913 1.400 . S
C1913 C1907 1.491 . S
C1913 C1912 1.400 . S
C1913 C1914 1.398 . S
C1914 H1902 0.950 . S
C1914 C1913 1.398 . S
C1914 C1915 1.391 . S
C1915 H1903 0.950 . S
C1915 C1911 1.393 . S
C1915 C1914 1.391 . S
H1916 C1924 0.950 . S
H1917 C1929 0.950 . S
H1918 C1926 0.950 . S
H1919 C1928 0.950 . S
H1920 C1930 0.950 . S
H1921 C1932 0.950 . S
H1922 C1934 0.950 . S
H1923 C1935 0.950 . S
C1924 H1916 0.950 . S
C1924 C1925 1.386 . S
C1924 C1926 1.391 . S
C1925 C1924 1.386 . S
C1925 C1929 1.393 . S
C1926 H1918 0.950 . S
C1926 C1924 1.391 . S
C1926 C1927 1.400 . S
C1927 C1926 1.400 . S
C1927 C1928 1.398 . S
C1927 C1933 1.491 . S
C1928 H1919 0.950 . S
C1928 C1927 1.398 . S
C1928 C1929 1.391 . S
C1929 H1917 0.950 . S
C1929 C1925 1.393 . S
C1929 C1928 1.391 . S
C1930 H1920 0.950 . S
C1930 C1931 1.386 . S
C1930 C1932 1.391 . S
C1931 C1930 1.386 . S
C1931 C1935 1.393 . S
C1932 H1921 0.950 . S
C1932 C1930 1.391 . S
C1932 C1933 1.400 . S
C1933 C1927 1.491 . S
C1933 C1932 1.400 . S
C1933 C1934 1.398 . S
C1934 H1922 0.950 . S
C1934 C1933 1.398 . S
C1934 C1935 1.391 . S
C1935 H1923 0.950 . S
C1935 C1931 1.393 . S
C1935 C1934 1.391 . S
H1936 C1944 0.950 . S
H1937 C1949 0.950 . S
H1938 C1946 0.950 . S
H1939 C1948 0.950 . S
H1940 C1950 0.950 . S
H1941 C1952 0.950 . S
H1942 C1954 0.950 . S
H1943 C1955 0.950 . S
C1944 H1936 0.950 . S
C1944 C1945 1.386 . S
C1944 C1946 1.391 . S
C1945 C1944 1.386 . S
C1945 C1949 1.393 . S
C1946 H1938 0.950 . S
C1946 C1944 1.391 . S
C1946 C1947 1.400 . S
C1947 C1946 1.400 . S
C1947 C1948 1.398 . S
C1947 C1953 1.491 . S
C1948 H1939 0.950 . S
C1948 C1947 1.398 . S
C1948 C1949 1.391 . S
C1949 H1937 0.950 . S
C1949 C1945 1.393 . S
C1949 C1948 1.391 . S
C1950 H1940 0.950 . S
C1950 C1951 1.386 . S
C1950 C1952 1.391 . S
C1951 C1950 1.386 . S
C1951 C1955 1.393 . S
C1952 H1941 0.950 . S
C1952 C1950 1.391 . S
C1952 C1953 1.400 . S
C1953 C1947 1.491 . S
C1953 C1952 1.400 . S
C1953 C1954 1.398 . S
C1954 H1942 0.950 . S
C1954 C1953 1.398 . S
C1954 C1955 1.391 . S
C1955 H1943 0.950 . S
C1955 C1951 1.393 . S
C1955 C1954 1.391 . S
H1956 C1964 0.950 . S
H1957 C1969 0.950 . S
H1958 C1966 0.950 . S
H1959 C1968 0.950 . S
H1960 C1970 0.950 . S
H1961 C1972 0.950 . S
H1962 C1974 0.950 . S
H1963 C1975 0.950 . S
C1964 H1956 0.950 . S
C1964 C1965 1.386 . S
C1964 C1966 1.391 . S
C1965 C1964 1.386 . S
C1965 C1969 1.393 . S
C1966 H1958 0.950 . S
C1966 C1964 1.391 . S
C1966 C1967 1.400 . S
C1967 C1966 1.400 . S
C1967 C1968 1.398 . S
C1967 C1973 1.491 . S
C1968 H1959 0.950 . S
C1968 C1967 1.398 . S
C1968 C1969 1.391 . S
C1969 H1957 0.950 . S
C1969 C1965 1.393 . S
C1969 C1968 1.391 . S
C1970 H1960 0.950 . S
C1970 C1971 1.386 . S
C1970 C1972 1.391 . S
C1971 C1970 1.386 . S
C1971 C1975 1.393 . S
C1972 H1961 0.950 . S
C1972 C1970 1.391 . S
C1972 C1973 1.400 . S
C1973 C1967 1.491 . S
C1973 C1972 1.400 . S
C1973 C1974 1.398 . S
C1974 H1962 0.950 . S
C1974 C1973 1.398 . S
C1974 C1975 1.391 . S
C1975 H1963 0.950 . S
C1975 C1971 1.393 . S
C1975 C1974 1.391 . S
H1976 C1984 0.950 . S
H1977 C1989 0.950 . S
H1978 C1986 0.950 . S
H1979 C1988 0.950 . S
H1980 C1990 0.950 1_655 S
H1981 C1992 0.948 1_656 S
H1982 C1994 0.950 . S
H1983 C1995 0.950 . S
C1984 H1976 0.950 . S
C1984 C1985 1.386 1_554 S
C1984 C1986 1.391 . S
C1985 C1984 1.386 1_556 S
C1985 C1989 1.393 1_455 S
C1986 H1978 0.950 . S
C1986 C1984 1.391 . S
C1986 C1987 1.400 . S
C1987 C1986 1.400 . S
C1987 C1988 1.398 1_454 S
C1987 C1993 1.491 . S
C1988 H1979 0.950 . S
C1988 C1987 1.398 1_656 S
C1988 C1989 1.391 . S
C1989 H1977 0.950 . S
C1989 C1985 1.393 1_655 S
C1989 C1988 1.391 . S
C1990 H1980 0.950 1_455 S
C1990 C1991 1.386 . S
C1990 C1992 1.391 . S
C1991 C1990 1.386 . S
C1991 C1995 1.393 . S
C1992 H1981 0.948 1_454 S
C1992 C1990 1.391 . S
C1992 C1993 1.403 . S
C1993 C1987 1.491 . S
C1993 C1992 1.403 . S
C1993 C1994 1.398 . S
C1994 H1982 0.950 . S
C1994 C1993 1.398 . S
C1994 C1995 1.391 . S
C1995 H1983 0.950 . S
C1995 C1991 1.393 . S
C1995 C1994 1.391 . S
H1996 C2004 0.928 1_455 S
H1997 C2009 0.947 1_455 S
H1998 C2006 0.950 . S
H1999 C2008 0.950 . S
H2000 C2010 0.950 . S
H2001 C2012 0.950 . S
H2002 C2014 0.950 . S
H2003 C2015 0.950 . S
C2004 H1996 0.928 1_655 S
C2004 C2005 1.386 1_655 S
C2004 C2006 1.391 . S
C2005 C2004 1.386 1_455 S
C2005 C2009 1.393 1_455 S
C2006 H1998 0.950 . S
C2006 C2004 1.391 . S
C2006 C2007 1.400 . S
C2007 C2006 1.400 . S
C2007 C2008 1.398 . S
C2007 C2013 1.491 . S
C2008 H1999 0.950 . S
C2008 C2007 1.398 . S
C2008 C2009 1.391 . S
C2009 H1997 0.947 1_655 S
C2009 C2005 1.393 1_655 S
C2009 C2008 1.391 . S
C2010 H2000 0.950 . S
C2010 C2011 1.386 . S
C2010 C2012 1.391 . S
C2011 C2010 1.386 . S
C2011 C2015 1.393 . S
C2012 H2001 0.950 . S
C2012 C2010 1.391 . S
C2012 C2013 1.400 . S
C2013 C2007 1.491 . S
C2013 C2012 1.400 . S
C2013 C2014 1.398 . S
C2014 H2002 0.950 . S
C2014 C2013 1.398 . S
C2014 C2015 1.391 . S
C2015 H2003 0.950 . S
C2015 C2011 1.393 . S
C2015 C2014 1.391 . S
H2016 C2024 0.950 . S
H2017 C2029 0.950 . S
H2018 C2026 0.950 . S
H2019 C2028 0.950 . S
H2020 C2030 0.950 . S
H2021 C2032 0.950 . S
H2022 C2034 0.950 . S
H2023 C2035 0.950 . S
C2024 H2016 0.950 . S
C2024 C2025 1.386 . S
C2024 C2026 1.391 . S
C2025 C2024 1.386 . S
C2025 C2029 1.393 . S
C2026 H2018 0.950 . S
C2026 C2024 1.391 . S
C2026 C2027 1.400 . S
C2027 C2026 1.400 . S
C2027 C2028 1.398 . S
C2027 C2033 1.491 . S
C2028 H2019 0.950 . S
C2028 C2027 1.398 . S
C2028 C2029 1.391 . S
C2029 H2017 0.950 . S
C2029 C2025 1.393 . S
C2029 C2028 1.391 . S
C2030 H2020 0.950 . S
C2030 C2031 1.386 . S
C2030 C2032 1.391 . S
C2031 C2030 1.386 . S
C2031 C2035 1.393 . S
C2032 H2021 0.950 . S
C2032 C2030 1.391 . S
C2032 C2033 1.400 . S
C2033 C2027 1.491 . S
C2033 C2032 1.400 . S
C2033 C2034 1.398 . S
C2034 H2022 0.950 . S
C2034 C2033 1.398 . S
C2034 C2035 1.391 . S
C2035 H2023 0.950 . S
C2035 C2031 1.393 . S
C2035 C2034 1.391 . S
H2036 C2044 0.950 . S
H2037 C2049 0.950 . S
H2038 C2046 0.950 . S
H2039 C2048 0.950 . S
H2040 C2050 0.950 . S
H2041 C2052 0.950 . S
H2042 C2054 0.950 . S
H2043 C2055 0.950 . S
C2044 H2036 0.950 . S
C2044 C2045 1.386 . S
C2044 C2046 1.391 . S
C2045 C2044 1.386 . S
C2045 C2049 1.393 . S
C2046 H2038 0.950 . S
C2046 C2044 1.391 . S
C2046 C2047 1.400 . S
C2047 C2046 1.400 . S
C2047 C2048 1.398 . S
C2047 C2053 1.491 . S
C2048 H2039 0.950 . S
C2048 C2047 1.398 . S
C2048 C2049 1.391 . S
C2049 H2037 0.950 . S
C2049 C2045 1.393 . S
C2049 C2048 1.391 . S
C2050 H2040 0.950 . S
C2050 C2051 1.386 . S
C2050 C2052 1.391 . S
C2051 C2050 1.386 . S
C2051 C2055 1.393 . S
C2052 H2041 0.950 . S
C2052 C2050 1.391 . S
C2052 C2053 1.400 . S
C2053 C2047 1.491 . S
C2053 C2052 1.400 . S
C2053 C2054 1.398 . S
C2054 H2042 0.950 . S
C2054 C2053 1.398 . S
C2054 C2055 1.391 . S
C2055 H2043 0.950 . S
C2055 C2051 1.393 . S
C2055 C2054 1.391 . S
H2056 C2064 0.950 1_655 S
H2057 C2069 0.950 . S
H2058 C2066 0.950 1_655 S
H2059 C2068 0.950 . S
H2060 C2070 0.950 . S
H2061 C2072 0.950 . S
H2062 C2074 0.950 1_655 S
H2063 C2075 0.950 1_655 S
C2064 H2056 0.950 1_455 S
C2064 C2065 1.386 . S
C2064 C2066 1.391 . S
C2065 C2064 1.386 . S
C2065 C2069 1.393 . S
C2066 H2058 0.950 1_455 S
C2066 C2064 1.391 . S
C2066 C2067 1.400 . S
C2067 C2066 1.400 . S
C2067 C2068 1.398 . S
C2067 C2073 1.491 . S
C2068 H2059 0.950 . S
C2068 C2067 1.398 . S
C2068 C2069 1.391 . S
C2069 H2057 0.950 . S
C2069 C2065 1.393 . S
C2069 C2068 1.391 . S
C2070 H2060 0.950 . S
C2070 C2071 1.386 . S
C2070 C2072 1.391 . S
C2071 C2070 1.386 . S
C2071 C2075 1.393 . S
C2072 H2061 0.950 . S
C2072 C2070 1.391 . S
C2072 C2073 1.400 . S
C2073 C2067 1.491 . S
C2073 C2072 1.400 . S
C2073 C2074 1.398 . S
C2074 H2062 0.950 1_455 S
C2074 C2073 1.398 . S
C2074 C2075 1.391 . S
C2075 H2063 0.950 1_455 S
C2075 C2071 1.393 . S
C2075 C2074 1.391 . S
H2076 C2084 0.950 . S
H2077 C2089 0.950 . S
H2078 C2086 0.950 . S
H2079 C2088 0.950 . S
H2080 C2090 0.950 . S
H2081 C2092 0.950 . S
H2082 C2094 0.950 . S
H2083 C2095 0.950 . S
C2084 H2076 0.950 . S
C2084 C2085 1.386 . S
C2084 C2086 1.391 . S
C2085 C2084 1.386 . S
C2085 C2089 1.393 . S
C2086 H2078 0.950 . S
C2086 C2084 1.391 . S
C2086 C2087 1.400 . S
C2087 C2086 1.400 . S
C2087 C2088 1.398 . S
C2087 C2093 1.491 . S
C2088 H2079 0.950 . S
C2088 C2087 1.398 . S
C2088 C2089 1.391 . S
C2089 H2077 0.950 . S
C2089 C2085 1.393 . S
C2089 C2088 1.391 . S
C2090 H2080 0.950 . S
C2090 C2091 1.386 . S
C2090 C2092 1.391 . S
C2091 C2090 1.386 . S
C2091 C2095 1.393 . S
C2092 H2081 0.950 . S
C2092 C2090 1.391 . S
C2092 C2093 1.400 . S
C2093 C2087 1.491 . S
C2093 C2092 1.400 . S
C2093 C2094 1.398 . S
C2094 H2082 0.950 . S
C2094 C2093 1.398 . S
C2094 C2095 1.391 . S
C2095 H2083 0.950 . S
C2095 C2091 1.393 . S
C2095 C2094 1.391 . S
H2096 C2104 0.950 . S
H2097 C2109 0.950 . S
H2098 C2106 0.950 . S
H2099 C2108 0.950 . S
H2100 C2110 0.950 . S
H2101 C2112 0.950 . S
H2102 C2114 0.950 . S
H2103 C2115 0.950 . S
C2104 H2096 0.950 . S
C2104 C2105 1.386 . S
C2104 C2106 1.391 . S
C2105 C2104 1.386 . S
C2105 C2109 1.393 . S
C2106 H2098 0.950 . S
C2106 C2104 1.391 . S
C2106 C2107 1.400 . S
C2107 C2106 1.400 . S
C2107 C2108 1.398 . S
C2107 C2113 1.491 . S
C2108 H2099 0.950 . S
C2108 C2107 1.398 . S
C2108 C2109 1.391 . S
C2109 H2097 0.950 . S
C2109 C2105 1.393 . S
C2109 C2108 1.391 . S
C2110 H2100 0.950 . S
C2110 C2111 1.386 . S
C2110 C2112 1.391 . S
C2111 C2110 1.386 . S
C2111 C2115 1.393 . S
C2112 H2101 0.950 . S
C2112 C2110 1.391 . S
C2112 C2113 1.400 . S
C2113 C2107 1.491 . S
C2113 C2112 1.400 . S
C2113 C2114 1.398 . S
C2114 H2102 0.950 . S
C2114 C2113 1.398 . S
C2114 C2115 1.391 . S
C2115 H2103 0.950 . S
C2115 C2111 1.393 . S
C2115 C2114 1.391 . S
H2116 C2124 0.950 . S
H2117 C2129 0.950 . S
H2118 C2126 0.950 . S
H2119 C2128 0.950 . S
H2120 C2130 0.950 . S
H2121 C2132 0.950 . S
H2122 C2134 0.950 . S
H2123 C2135 0.950 . S
C2124 H2116 0.950 . S
C2124 C2125 1.386 1_556 S
C2124 C2126 1.391 . S
C2125 C2124 1.386 1_554 S
C2125 C2129 1.393 . S
C2126 H2118 0.950 . S
C2126 C2124 1.391 . S
C2126 C2127 1.400 . S
C2127 C2126 1.400 . S
C2127 C2128 1.398 1_556 S
C2127 C2133 1.491 . S
C2128 H2119 0.950 . S
C2128 C2127 1.398 1_554 S
C2128 C2129 1.391 . S
C2129 H2117 0.950 . S
C2129 C2125 1.393 . S
C2129 C2128 1.391 . S
C2130 H2120 0.950 . S
C2130 C2131 1.386 . S
C2130 C2132 1.391 . S
C2131 C2130 1.386 . S
C2131 C2135 1.393 . S
C2132 H2121 0.950 . S
C2132 C2130 1.391 . S
C2132 C2133 1.400 . S
C2133 C2127 1.491 . S
C2133 C2132 1.400 . S
C2133 C2134 1.398 . S
C2134 H2122 0.950 . S
C2134 C2133 1.398 . S
C2134 C2135 1.391 . S
C2135 H2123 0.950 . S
C2135 C2131 1.393 . S
C2135 C2134 1.391 . S
H2136 C2144 0.950 . S
H2137 C2149 0.950 . S
H2138 C2146 0.950 . S
H2139 C2148 0.950 . S
H2140 C2150 0.950 . S
H2141 C2152 0.950 . S
H2142 C2154 0.950 . S
H2143 C2155 0.950 . S
C2144 H2136 0.950 . S
C2144 C2145 1.386 . S
C2144 C2146 1.391 . S
C2145 C2144 1.386 . S
C2145 C2149 1.393 . S
C2146 H2138 0.950 . S
C2146 C2144 1.391 . S
C2146 C2147 1.400 . S
C2147 C2146 1.400 . S
C2147 C2148 1.398 . S
C2147 C2153 1.491 . S
C2148 H2139 0.950 . S
C2148 C2147 1.398 . S
C2148 C2149 1.391 . S
C2149 H2137 0.950 . S
C2149 C2145 1.393 . S
C2149 C2148 1.391 . S
C2150 H2140 0.950 . S
C2150 C2151 1.386 . S
C2150 C2152 1.391 . S
C2151 C2150 1.386 . S
C2151 C2155 1.393 . S
C2152 H2141 0.950 . S
C2152 C2150 1.391 . S
C2152 C2153 1.400 . S
C2153 C2147 1.491 . S
C2153 C2152 1.400 . S
C2153 C2154 1.398 . S
C2154 H2142 0.950 . S
C2154 C2153 1.398 . S
C2154 C2155 1.391 . S
C2155 H2143 0.950 . S
C2155 C2151 1.393 . S
C2155 C2154 1.391 . S
H2156 C2164 0.950 . S
H2157 C2169 0.950 . S
H2158 C2166 0.950 . S
H2159 C2168 0.950 . S
H2160 C2170 0.950 . S
H2161 C2172 0.950 . S
H2162 C2174 0.950 . S
H2163 C2175 0.950 . S
C2164 H2156 0.950 . S
C2164 C2165 1.386 . S
C2164 C2166 1.391 . S
C2165 C2164 1.386 . S
C2165 C2169 1.393 . S
C2166 H2158 0.950 . S
C2166 C2164 1.391 . S
C2166 C2167 1.400 . S
C2167 C2166 1.400 . S
C2167 C2168 1.398 . S
C2167 C2173 1.491 . S
C2168 H2159 0.950 . S
C2168 C2167 1.398 . S
C2168 C2169 1.391 . S
C2169 H2157 0.950 . S
C2169 C2165 1.393 . S
C2169 C2168 1.391 . S
C2170 H2160 0.950 . S
C2170 C2171 1.386 . S
C2170 C2172 1.391 . S
C2171 C2170 1.386 . S
C2171 C2175 1.393 . S
C2172 H2161 0.950 . S
C2172 C2170 1.391 . S
C2172 C2173 1.400 . S
C2173 C2167 1.491 . S
C2173 C2172 1.400 . S
C2173 C2174 1.398 . S
C2174 H2162 0.950 . S
C2174 C2173 1.398 . S
C2174 C2175 1.391 . S
C2175 H2163 0.950 . S
C2175 C2171 1.393 . S
C2175 C2174 1.391 . S
H2176 C2184 0.950 . S
H2177 C2189 0.950 . S
H2178 C2186 0.950 . S
H2179 C2188 0.950 . S
H2180 C2190 0.950 . S
H2181 C2192 0.950 . S
H2182 C2194 0.950 . S
H2183 C2195 0.950 . S
C2184 H2176 0.950 . S
C2184 C2185 1.386 . S
C2184 C2186 1.391 . S
C2185 C2184 1.386 . S
C2185 C2189 1.393 . S
C2186 H2178 0.950 . S
C2186 C2184 1.391 . S
C2186 C2187 1.400 . S
C2187 C2186 1.400 . S
C2187 C2188 1.398 . S
C2187 C2193 1.491 . S
C2188 H2179 0.950 . S
C2188 C2187 1.398 . S
C2188 C2189 1.391 . S
C2189 H2177 0.950 . S
C2189 C2185 1.393 . S
C2189 C2188 1.391 . S
C2190 H2180 0.950 . S
C2190 C2191 1.386 . S
C2190 C2192 1.391 . S
C2191 C2190 1.386 . S
C2191 C2195 1.393 . S
C2192 H2181 0.950 . S
C2192 C2190 1.391 . S
C2192 C2193 1.400 . S
C2193 C2187 1.491 . S
C2193 C2192 1.400 . S
C2193 C2194 1.398 . S
C2194 H2182 0.950 . S
C2194 C2193 1.398 . S
C2194 C2195 1.391 . S
C2195 H2183 0.950 . S
C2195 C2191 1.393 . S
C2195 C2194 1.391 . S
H2196 C2204 0.950 . S
H2197 C2209 0.950 . S
H2198 C2206 0.950 . S
H2199 C2208 0.950 . S
H2200 C2210 0.950 . S
H2201 C2212 0.950 . S
H2202 C2214 0.950 . S
H2203 C2215 0.950 . S
C2204 H2196 0.950 . S
C2204 C2205 1.386 . S
C2204 C2206 1.391 . S
C2205 C2204 1.386 . S
C2205 C2209 1.393 . S
C2206 H2198 0.950 . S
C2206 C2204 1.391 . S
C2206 C2207 1.400 . S
C2207 C2206 1.400 . S
C2207 C2208 1.398 . S
C2207 C2213 1.491 . S
C2208 H2199 0.950 . S
C2208 C2207 1.398 . S
C2208 C2209 1.391 . S
C2209 H2197 0.950 . S
C2209 C2205 1.393 . S
C2209 C2208 1.391 . S
C2210 H2200 0.950 . S
C2210 C2211 1.386 . S
C2210 C2212 1.391 . S
C2211 C2210 1.386 . S
C2211 C2215 1.393 . S
C2212 H2201 0.950 . S
C2212 C2210 1.391 . S
C2212 C2213 1.400 . S
C2213 C2207 1.491 . S
C2213 C2212 1.400 . S
C2213 C2214 1.398 . S
C2214 H2202 0.950 . S
C2214 C2213 1.398 . S
C2214 C2215 1.391 . S
C2215 H2203 0.950 . S
C2215 C2211 1.393 . S
C2215 C2214 1.391 . S
H2216 C2224 0.950 . S
H2217 C2229 0.950 . S
H2218 C2226 0.950 . S
H2219 C2228 0.950 . S
H2220 C2230 0.950 . S
H2221 C2232 0.950 . S
H2222 C2234 0.950 . S
H2223 C2235 0.950 . S
C2224 H2216 0.950 . S
C2224 C2225 1.386 . S
C2224 C2226 1.391 . S
C2225 C2224 1.386 . S
C2225 C2229 1.393 . S
C2226 H2218 0.950 . S
C2226 C2224 1.391 . S
C2226 C2227 1.400 . S
C2227 C2226 1.400 . S
C2227 C2228 1.398 . S
C2227 C2233 1.491 . S
C2228 H2219 0.950 . S
C2228 C2227 1.398 . S
C2228 C2229 1.391 . S
C2229 H2217 0.950 . S
C2229 C2225 1.393 . S
C2229 C2228 1.391 . S
C2230 H2220 0.950 . S
C2230 C2231 1.386 . S
C2230 C2232 1.391 . S
C2231 C2230 1.386 . S
C2231 C2235 1.393 . S
C2232 H2221 0.950 . S
C2232 C2230 1.391 . S
C2232 C2233 1.400 . S
C2233 C2227 1.491 . S
C2233 C2232 1.400 . S
C2233 C2234 1.398 . S
C2234 H2222 0.950 . S
C2234 C2233 1.398 . S
C2234 C2235 1.391 . S
C2235 H2223 0.950 . S
C2235 C2231 1.393 . S
C2235 C2234 1.391 . S
H2236 C2244 0.950 . S
H2237 C2249 0.950 . S
H2238 C2246 0.950 . S
H2239 C2248 0.950 . S
H2240 C2250 0.950 . S
H2241 C2252 0.950 . S
H2242 C2254 0.950 . S
H2243 C2255 0.950 . S
C2244 H2236 0.950 . S
C2244 C2245 1.386 . S
C2244 C2246 1.391 . S
C2245 C2244 1.386 . S
C2245 C2249 1.393 . S
C2246 H2238 0.950 . S
C2246 C2244 1.391 . S
C2246 C2247 1.400 . S
C2247 C2246 1.400 . S
C2247 C2248 1.398 . S
C2247 C2253 1.491 . S
C2248 H2239 0.950 . S
C2248 C2247 1.398 . S
C2248 C2249 1.391 . S
C2249 H2237 0.950 . S
C2249 C2245 1.393 . S
C2249 C2248 1.391 . S
C2250 H2240 0.950 . S
C2250 C2251 1.386 . S
C2250 C2252 1.391 . S
C2251 C2250 1.386 . S
C2251 C2255 1.393 . S
C2252 H2241 0.950 . S
C2252 C2250 1.391 . S
C2252 C2253 1.400 . S
C2253 C2247 1.491 . S
C2253 C2252 1.400 . S
C2253 C2254 1.398 . S
C2254 H2242 0.950 . S
C2254 C2253 1.398 . S
C2254 C2255 1.391 . S
C2255 H2243 0.950 . S
C2255 C2251 1.393 . S
C2255 C2254 1.391 . S
H2256 C2264 0.950 . S
H2257 C2269 0.950 . S
H2258 C2266 0.950 . S
H2259 C2268 0.950 . S
H2260 C2270 0.950 . S
H2261 C2272 0.950 . S
H2262 C2274 0.950 . S
H2263 C2275 0.950 . S
C2264 H2256 0.950 . S
C2264 C2265 1.386 . S
C2264 C2266 1.391 . S
C2265 C2264 1.386 . S
C2265 C2269 1.393 . S
C2266 H2258 0.950 . S
C2266 C2264 1.391 . S
C2266 C2267 1.400 . S
C2267 C2266 1.400 . S
C2267 C2268 1.398 . S
C2267 C2273 1.491 . S
C2268 H2259 0.950 . S
C2268 C2267 1.398 . S
C2268 C2269 1.391 . S
C2269 H2257 0.950 . S
C2269 C2265 1.393 . S
C2269 C2268 1.391 . S
C2270 H2260 0.950 . S
C2270 C2271 1.386 . S
C2270 C2272 1.391 . S
C2271 C2270 1.386 . S
C2271 C2275 1.393 . S
C2272 H2261 0.950 . S
C2272 C2270 1.391 . S
C2272 C2273 1.400 . S
C2273 C2267 1.491 . S
C2273 C2272 1.400 . S
C2273 C2274 1.398 . S
C2274 H2262 0.950 . S
C2274 C2273 1.398 . S
C2274 C2275 1.391 . S
C2275 H2263 0.950 . S
C2275 C2271 1.393 . S
C2275 C2274 1.391 . S
H2276 C2284 0.950 . S
H2277 C2289 0.950 . S
H2278 C2286 0.950 . S
H2279 C2288 0.950 . S
H2280 C2290 0.950 . S
H2281 C2292 0.950 . S
H2282 C2294 0.950 . S
H2283 C2295 0.950 . S
C2284 H2276 0.950 . S
C2284 C2285 1.386 . S
C2284 C2286 1.391 . S
C2285 C2284 1.386 . S
C2285 C2289 1.393 . S
C2286 H2278 0.950 . S
C2286 C2284 1.391 . S
C2286 C2287 1.400 . S
C2287 C2286 1.400 . S
C2287 C2288 1.398 . S
C2287 C2293 1.491 . S
C2288 H2279 0.950 . S
C2288 C2287 1.398 . S
C2288 C2289 1.391 . S
C2289 H2277 0.950 . S
C2289 C2285 1.393 . S
C2289 C2288 1.391 . S
C2290 H2280 0.950 . S
C2290 C2291 1.386 . S
C2290 C2292 1.391 . S
C2291 C2290 1.386 . S
C2291 C2295 1.393 . S
C2292 H2281 0.950 . S
C2292 C2290 1.391 . S
C2292 C2293 1.400 . S
C2293 C2287 1.491 . S
C2293 C2292 1.400 . S
C2293 C2294 1.398 . S
C2294 H2282 0.950 . S
C2294 C2293 1.398 . S
C2294 C2295 1.391 . S
C2295 H2283 0.950 . S
C2295 C2291 1.393 . S
C2295 C2294 1.391 . S
H2296 C2304 0.950 1_545 S
H2297 C2309 0.950 . S
H2298 C2306 0.950 . S
H2299 C2308 0.950 . S
H2300 C2310 0.950 . S
H2301 C2312 0.950 . S
H2302 C2314 0.950 . S
H2303 C2315 0.950 . S
C2304 H2296 0.950 1_565 S
C2304 C2305 1.386 . S
C2304 C2306 1.391 . S
C2305 C2304 1.386 . S
C2305 C2309 1.393 . S
C2306 H2298 0.950 . S
C2306 C2304 1.391 . S
C2306 C2307 1.400 . S
C2307 C2306 1.400 . S
C2307 C2308 1.398 . S
C2307 C2313 1.491 . S
C2308 H2299 0.950 . S
C2308 C2307 1.398 . S
C2308 C2309 1.391 . S
C2309 H2297 0.950 . S
C2309 C2305 1.393 . S
C2309 C2308 1.391 . S
C2310 H2300 0.950 . S
C2310 C2311 1.386 . S
C2310 C2312 1.391 . S
C2311 C2310 1.386 . S
C2311 C2315 1.393 . S
C2312 H2301 0.950 . S
C2312 C2310 1.391 . S
C2312 C2313 1.400 . S
C2313 C2307 1.491 . S
C2313 C2312 1.400 . S
C2313 C2314 1.398 . S
C2314 H2302 0.950 . S
C2314 C2313 1.398 . S
C2314 C2315 1.391 . S
C2315 H2303 0.950 . S
C2315 C2311 1.393 . S
C2315 C2314 1.391 . S
H2316 C2324 0.950 . S
H2317 C2329 0.950 . S
H2318 C2326 0.950 . S
H2319 C2328 0.950 . S
H2320 C2330 0.950 . S
H2321 C2332 0.950 . S
H2322 C2334 0.950 1_556 S
H2323 C2335 0.926 1_566 S
C2324 H2316 0.950 . S
C2324 C2325 1.386 1_556 S
C2324 C2326 1.391 . S
C2325 C2324 1.386 1_554 S
C2325 C2329 1.393 . S
C2326 H2318 0.950 . S
C2326 C2324 1.391 . S
C2326 C2327 1.400 1_556 S
C2327 C2326 1.400 1_554 S
C2327 C2328 1.398 . S
C2327 C2333 1.491 . S
C2328 H2319 0.950 . S
C2328 C2327 1.398 . S
C2328 C2329 1.391 . S
C2329 H2317 0.950 . S
C2329 C2325 1.393 . S
C2329 C2328 1.391 . S
C2330 H2320 0.950 . S
C2330 C2331 1.386 . S
C2330 C2332 1.391 . S
C2331 C2330 1.386 . S
C2331 C2335 1.393 . S
C2332 H2321 0.950 . S
C2332 C2330 1.391 . S
C2332 C2333 1.400 1_545 S
C2333 C2327 1.491 . S
C2333 C2332 1.400 1_565 S
C2333 C2334 1.398 . S
C2334 H2322 0.950 1_554 S
C2334 C2333 1.398 . S
C2334 C2335 1.391 1_565 S
C2335 H2323 0.926 1_544 S
C2335 C2331 1.393 . S
C2335 C2334 1.391 1_545 S
H2336 C2344 0.950 . S
H2337 C2349 0.950 . S
H2338 C2346 0.950 . S
H2339 C2348 0.950 . S
H2340 C2350 0.950 . S
H2341 C2352 0.950 . S
H2342 C2354 0.950 . S
H2343 C2355 0.950 . S
C2344 H2336 0.950 . S
C2344 C2345 1.386 . S
C2344 C2346 1.391 . S
C2345 C2344 1.386 . S
C2345 C2349 1.393 . S
C2346 H2338 0.950 . S
C2346 C2344 1.391 . S
C2346 C2347 1.400 . S
C2347 C2346 1.400 . S
C2347 C2348 1.398 . S
C2347 C2353 1.491 . S
C2348 H2339 0.950 . S
C2348 C2347 1.398 . S
C2348 C2349 1.391 . S
C2349 H2337 0.950 . S
C2349 C2345 1.393 . S
C2349 C2348 1.391 . S
C2350 H2340 0.950 . S
C2350 C2351 1.386 . S
C2350 C2352 1.391 . S
C2351 C2350 1.386 . S
C2351 C2355 1.393 . S
C2352 H2341 0.950 . S
C2352 C2350 1.391 . S
C2352 C2353 1.400 . S
C2353 C2347 1.491 . S
C2353 C2352 1.400 . S
C2353 C2354 1.398 . S
C2354 H2342 0.950 . S
C2354 C2353 1.398 . S
C2354 C2355 1.391 . S
C2355 H2343 0.950 . S
C2355 C2351 1.393 . S
C2355 C2354 1.391 . S
H2356 C2364 0.950 . S
H2357 C2369 0.950 . S
H2358 C2366 0.950 . S
H2359 C2368 0.950 . S
H2360 C2370 0.950 . S
H2361 C2372 0.950 . S
H2362 C2374 0.950 . S
H2363 C2375 0.950 . S
C2364 H2356 0.950 . S
C2364 C2365 1.386 . S
C2364 C2366 1.391 . S
C2365 C2364 1.386 . S
C2365 C2369 1.393 . S
C2366 H2358 0.950 . S
C2366 C2364 1.391 . S
C2366 C2367 1.400 . S
C2367 C2366 1.400 . S
C2367 C2368 1.398 . S
C2367 C2373 1.491 . S
C2368 H2359 0.950 . S
C2368 C2367 1.398 . S
C2368 C2369 1.391 . S
C2369 H2357 0.950 . S
C2369 C2365 1.393 . S
C2369 C2368 1.391 . S
C2370 H2360 0.950 . S
C2370 C2371 1.386 . S
C2370 C2372 1.391 . S
C2371 C2370 1.386 . S
C2371 C2375 1.393 . S
C2372 H2361 0.950 . S
C2372 C2370 1.391 . S
C2372 C2373 1.400 . S
C2373 C2367 1.491 . S
C2373 C2372 1.400 . S
C2373 C2374 1.398 . S
C2374 H2362 0.950 . S
C2374 C2373 1.398 . S
C2374 C2375 1.391 . S
C2375 H2363 0.950 . S
C2375 C2371 1.393 . S
C2375 C2374 1.391 . S
H2376 C2384 0.950 . S
H2377 C2389 0.950 . S
H2378 C2386 0.950 . S
H2379 C2388 0.950 . S
H2380 C2390 0.950 . S
H2381 C2392 0.950 . S
H2382 C2394 0.950 . S
H2383 C2395 0.950 . S
C2384 H2376 0.950 . S
C2384 C2385 1.386 . S
C2384 C2386 1.391 . S
C2385 C2384 1.386 . S
C2385 C2389 1.393 . S
C2386 H2378 0.950 . S
C2386 C2384 1.391 . S
C2386 C2387 1.400 . S
C2387 C2386 1.400 . S
C2387 C2388 1.398 . S
C2387 C2393 1.491 . S
C2388 H2379 0.950 . S
C2388 C2387 1.398 . S
C2388 C2389 1.391 . S
C2389 H2377 0.950 . S
C2389 C2385 1.393 . S
C2389 C2388 1.391 . S
C2390 H2380 0.950 . S
C2390 C2391 1.386 . S
C2390 C2392 1.391 . S
C2391 C2390 1.386 . S
C2391 C2395 1.393 . S
C2392 H2381 0.950 . S
C2392 C2390 1.391 . S
C2392 C2393 1.400 . S
C2393 C2387 1.491 . S
C2393 C2392 1.400 . S
C2393 C2394 1.398 . S
C2394 H2382 0.950 . S
C2394 C2393 1.398 . S
C2394 C2395 1.391 . S
C2395 H2383 0.950 . S
C2395 C2391 1.393 . S
C2395 C2394 1.391 . S
H2396 C2404 0.950 . S
H2397 C2409 0.950 . S
H2398 C2406 0.950 . S
H2399 C2408 0.950 . S
H2400 C2410 0.950 . S
H2401 C2412 0.950 . S
H2402 C2414 0.950 . S
H2403 C2415 0.950 . S
C2404 H2396 0.950 . S
C2404 C2405 1.386 . S
C2404 C2406 1.391 . S
C2405 C2404 1.386 . S
C2405 C2409 1.393 . S
C2406 H2398 0.950 . S
C2406 C2404 1.391 . S
C2406 C2407 1.400 . S
C2407 C2406 1.400 . S
C2407 C2408 1.398 . S
C2407 C2413 1.491 . S
C2408 H2399 0.950 . S
C2408 C2407 1.398 . S
C2408 C2409 1.391 . S
C2409 H2397 0.950 . S
C2409 C2405 1.393 . S
C2409 C2408 1.391 . S
C2410 H2400 0.950 . S
C2410 C2411 1.386 . S
C2410 C2412 1.391 . S
C2411 C2410 1.386 . S
C2411 C2415 1.393 . S
C2412 H2401 0.950 . S
C2412 C2410 1.391 . S
C2412 C2413 1.400 . S
C2413 C2407 1.491 . S
C2413 C2412 1.400 . S
C2413 C2414 1.398 . S
C2414 H2402 0.950 . S
C2414 C2413 1.398 . S
C2414 C2415 1.391 . S
C2415 H2403 0.950 . S
C2415 C2411 1.393 . S
C2415 C2414 1.391 . S
H2416 C2424 0.950 . S
H2417 C2429 0.950 . S
H2418 C2426 0.950 . S
H2419 C2428 0.950 . S
H2420 C2430 0.950 . S
H2421 C2432 0.950 . S
H2422 C2434 0.950 . S
H2423 C2435 0.950 . S
C2424 H2416 0.950 . S
C2424 C2425 1.386 . S
C2424 C2426 1.391 . S
C2425 C2424 1.386 . S
C2425 C2429 1.393 . S
C2426 H2418 0.950 . S
C2426 C2424 1.391 . S
C2426 C2427 1.400 . S
C2427 C2426 1.400 . S
C2427 C2428 1.398 . S
C2427 C2433 1.491 . S
C2428 H2419 0.950 . S
C2428 C2427 1.398 . S
C2428 C2429 1.391 . S
C2429 H2417 0.950 . S
C2429 C2425 1.393 . S
C2429 C2428 1.391 . S
C2430 H2420 0.950 . S
C2430 C2431 1.386 . S
C2430 C2432 1.391 . S
C2431 C2430 1.386 . S
C2431 C2435 1.393 . S
C2432 H2421 0.950 . S
C2432 C2430 1.391 . S
C2432 C2433 1.400 . S
C2433 C2427 1.491 . S
C2433 C2432 1.400 . S
C2433 C2434 1.398 . S
C2434 H2422 0.950 . S
C2434 C2433 1.398 . S
C2434 C2435 1.391 . S
C2435 H2423 0.950 . S
C2435 C2431 1.393 . S
C2435 C2434 1.391 . S
H2436 C2444 0.950 . S
H2437 C2449 0.950 . S
H2438 C2446 0.950 . S
H2439 C2448 0.950 . S
H2440 C2450 0.950 . S
H2441 C2452 0.950 . S
H2442 C2454 0.950 . S
H2443 C2455 0.950 . S
C2444 H2436 0.950 . S
C2444 C2445 1.386 . S
C2444 C2446 1.391 . S
C2445 C2444 1.386 . S
C2445 C2449 1.393 . S
C2446 H2438 0.950 . S
C2446 C2444 1.391 . S
C2446 C2447 1.400 . S
C2447 C2446 1.400 . S
C2447 C2448 1.398 . S
C2447 C2453 1.491 . S
C2448 H2439 0.950 . S
C2448 C2447 1.398 . S
C2448 C2449 1.391 . S
C2449 H2437 0.950 . S
C2449 C2445 1.393 . S
C2449 C2448 1.391 . S
C2450 H2440 0.950 . S
C2450 C2451 1.386 . S
C2450 C2452 1.391 . S
C2451 C2450 1.386 . S
C2451 C2455 1.393 . S
C2452 H2441 0.950 . S
C2452 C2450 1.391 . S
C2452 C2453 1.400 . S
C2453 C2447 1.491 . S
C2453 C2452 1.400 . S
C2453 C2454 1.398 . S
C2454 H2442 0.950 . S
C2454 C2453 1.398 . S
C2454 C2455 1.391 . S
C2455 H2443 0.950 . S
C2455 C2451 1.393 . S
C2455 C2454 1.391 . S
H2456 C2464 0.950 . S
H2457 C2469 0.950 . S
H2458 C2466 0.950 . S
H2459 C2468 0.950 . S
H2460 C2470 0.950 . S
H2461 C2472 0.950 . S
H2462 C2474 0.950 . S
H2463 C2475 0.950 . S
C2464 H2456 0.950 . S
C2464 C2465 1.386 . S
C2464 C2466 1.391 . S
C2465 C2464 1.386 . S
C2465 C2469 1.393 . S
C2466 H2458 0.950 . S
C2466 C2464 1.391 . S
C2466 C2467 1.400 . S
C2467 C2466 1.400 . S
C2467 C2468 1.398 . S
C2467 C2473 1.491 . S
C2468 H2459 0.950 . S
C2468 C2467 1.398 . S
C2468 C2469 1.391 . S
C2469 H2457 0.950 . S
C2469 C2465 1.393 . S
C2469 C2468 1.391 . S
C2470 H2460 0.950 . S
C2470 C2471 1.386 . S
C2470 C2472 1.391 . S
C2471 C2470 1.386 . S
C2471 C2475 1.393 . S
C2472 H2461 0.950 . S
C2472 C2470 1.391 . S
C2472 C2473 1.400 . S
C2473 C2467 1.491 . S
C2473 C2472 1.400 . S
C2473 C2474 1.398 . S
C2474 H2462 0.950 . S
C2474 C2473 1.398 . S
C2474 C2475 1.391 . S
C2475 H2463 0.950 . S
C2475 C2471 1.393 . S
C2475 C2474 1.391 . S
H2476 C2484 0.950 . S
H2477 C2489 0.950 . S
H2478 C2486 0.950 . S
H2479 C2488 0.950 . S
H2480 C2490 0.950 . S
H2481 C2492 0.950 . S
H2482 C2494 0.950 . S
H2483 C2495 0.950 . S
C2484 H2476 0.950 . S
C2484 C2485 1.386 . S
C2484 C2486 1.391 . S
C2485 C2484 1.386 . S
C2485 C2489 1.393 . S
C2486 H2478 0.950 . S
C2486 C2484 1.391 . S
C2486 C2487 1.400 . S
C2487 C2486 1.400 . S
C2487 C2488 1.398 . S
C2487 C2493 1.491 . S
C2488 H2479 0.950 . S
C2488 C2487 1.398 . S
C2488 C2489 1.391 . S
C2489 H2477 0.950 . S
C2489 C2485 1.393 . S
C2489 C2488 1.391 . S
C2490 H2480 0.950 . S
C2490 C2491 1.386 . S
C2490 C2492 1.391 . S
C2491 C2490 1.386 . S
C2491 C2495 1.393 . S
C2492 H2481 0.950 . S
C2492 C2490 1.391 . S
C2492 C2493 1.400 . S
C2493 C2487 1.491 . S
C2493 C2492 1.400 . S
C2493 C2494 1.398 . S
C2494 H2482 0.950 . S
C2494 C2493 1.398 . S
C2494 C2495 1.391 . S
C2495 H2483 0.950 . S
C2495 C2491 1.393 . S
C2495 C2494 1.391 . S
H2496 C2504 0.950 . S
H2497 C2509 0.950 . S
H2498 C2506 0.950 . S
H2499 C2508 0.950 . S
H2500 C2510 0.950 . S
H2501 C2512 0.950 . S
H2502 C2514 0.950 . S
H2503 C2515 0.950 . S
C2504 H2496 0.950 . S
C2504 C2505 1.386 . S
C2504 C2506 1.391 . S
C2505 C2504 1.386 . S
C2505 C2509 1.393 . S
C2506 H2498 0.950 . S
C2506 C2504 1.391 . S
C2506 C2507 1.400 . S
C2507 C2506 1.400 . S
C2507 C2508 1.398 . S
C2507 C2513 1.491 . S
C2508 H2499 0.950 . S
C2508 C2507 1.398 . S
C2508 C2509 1.391 . S
C2509 H2497 0.950 . S
C2509 C2505 1.393 . S
C2509 C2508 1.391 . S
C2510 H2500 0.950 . S
C2510 C2511 1.386 . S
C2510 C2512 1.391 . S
C2511 C2510 1.386 . S
C2511 C2515 1.393 . S
C2512 H2501 0.950 . S
C2512 C2510 1.391 . S
C2512 C2513 1.400 . S
C2513 C2507 1.491 . S
C2513 C2512 1.400 . S
C2513 C2514 1.398 . S
C2514 H2502 0.950 . S
C2514 C2513 1.398 . S
C2514 C2515 1.391 . S
C2515 H2503 0.950 . S
C2515 C2511 1.393 . S
C2515 C2514 1.391 . S
H2516 C2524 0.950 . S
H2517 C2529 0.950 . S
H2518 C2526 0.950 . S
H2519 C2528 0.950 . S
H2520 C2530 0.950 . S
H2521 C2532 0.950 . S
H2522 C2534 0.950 . S
H2523 C2535 0.950 . S
C2524 H2516 0.950 . S
C2524 C2525 1.386 . S
C2524 C2526 1.391 . S
C2525 C2524 1.386 . S
C2525 C2529 1.393 . S
C2526 H2518 0.950 . S
C2526 C2524 1.391 . S
C2526 C2527 1.400 . S
C2527 C2526 1.400 . S
C2527 C2528 1.398 . S
C2527 C2533 1.491 . S
C2528 H2519 0.950 . S
C2528 C2527 1.398 . S
C2528 C2529 1.391 . S
C2529 H2517 0.950 . S
C2529 C2525 1.393 . S
C2529 C2528 1.391 . S
C2530 H2520 0.950 . S
C2530 C2531 1.386 . S
C2530 C2532 1.391 . S
C2531 C2530 1.386 . S
C2531 C2535 1.393 . S
C2532 H2521 0.950 . S
C2532 C2530 1.391 . S
C2532 C2533 1.400 . S
C2533 C2527 1.491 . S
C2533 C2532 1.400 . S
C2533 C2534 1.398 . S
C2534 H2522 0.950 . S
C2534 C2533 1.398 . S
C2534 C2535 1.391 . S
C2535 H2523 0.950 . S
C2535 C2531 1.393 . S
C2535 C2534 1.391 . S
H2536 C2544 0.950 . S
H2537 C2549 0.950 . S
H2538 C2546 0.950 . S
H2539 C2548 0.950 . S
H2540 C2550 0.950 . S
H2541 C2552 0.950 . S
H2542 C2554 0.950 . S
H2543 C2555 0.950 . S
C2544 H2536 0.950 . S
C2544 C2545 1.386 . S
C2544 C2546 1.391 . S
C2545 C2544 1.386 . S
C2545 C2549 1.393 . S
C2546 H2538 0.950 . S
C2546 C2544 1.391 . S
C2546 C2547 1.400 . S
C2547 C2546 1.400 . S
C2547 C2548 1.398 . S
C2547 C2553 1.491 . S
C2548 H2539 0.950 . S
C2548 C2547 1.398 . S
C2548 C2549 1.391 . S
C2549 H2537 0.950 . S
C2549 C2545 1.393 . S
C2549 C2548 1.391 . S
C2550 H2540 0.950 . S
C2550 C2551 1.386 . S
C2550 C2552 1.391 . S
C2551 C2550 1.386 . S
C2551 C2555 1.393 . S
C2552 H2541 0.950 . S
C2552 C2550 1.391 . S
C2552 C2553 1.400 . S
C2553 C2547 1.491 . S
C2553 C2552 1.400 . S
C2553 C2554 1.398 . S
C2554 H2542 0.950 . S
C2554 C2553 1.398 . S
C2554 C2555 1.391 . S
C2555 H2543 0.950 . S
C2555 C2551 1.393 . S
C2555 C2554 1.391 . S
H2556 C2564 0.950 . S
H2557 C2569 0.950 . S
H2558 C2566 0.950 . S
H2559 C2568 0.950 . S
H2560 C2570 0.950 . S
H2561 C2572 0.950 . S
H2562 C2574 0.950 . S
H2563 C2575 0.950 . S
C2564 H2556 0.950 . S
C2564 C2565 1.386 . S
C2564 C2566 1.391 . S
C2565 C2564 1.386 . S
C2565 C2569 1.393 . S
C2566 H2558 0.950 . S
C2566 C2564 1.391 . S
C2566 C2567 1.400 . S
C2567 C2566 1.400 . S
C2567 C2568 1.398 . S
C2567 C2573 1.491 . S
C2568 H2559 0.950 . S
C2568 C2567 1.398 . S
C2568 C2569 1.391 . S
C2569 H2557 0.950 . S
C2569 C2565 1.393 . S
C2569 C2568 1.391 . S
C2570 H2560 0.950 . S
C2570 C2571 1.386 . S
C2570 C2572 1.391 . S
C2571 C2570 1.386 . S
C2571 C2575 1.393 . S
C2572 H2561 0.950 . S
C2572 C2570 1.391 . S
C2572 C2573 1.400 . S
C2573 C2567 1.491 . S
C2573 C2572 1.400 . S
C2573 C2574 1.398 . S
C2574 H2562 0.950 . S
C2574 C2573 1.398 . S
C2574 C2575 1.391 . S
C2575 H2563 0.950 . S
C2575 C2571 1.393 . S
C2575 C2574 1.391 . S
H2576 C2584 0.950 . S
H2577 C2589 0.950 . S
H2578 C2586 0.950 . S
H2579 C2588 0.950 . S
H2580 C2590 0.950 . S
H2581 C2592 0.950 . S
H2582 C2594 0.950 . S
H2583 C2595 0.950 . S
C2584 H2576 0.950 . S
C2584 C2585 1.386 . S
C2584 C2586 1.391 . S
C2585 C2584 1.386 . S
C2585 C2589 1.393 . S
C2586 H2578 0.950 . S
C2586 C2584 1.391 . S
C2586 C2587 1.400 . S
C2587 C2586 1.400 . S
C2587 C2588 1.398 . S
C2587 C2593 1.491 . S
C2588 H2579 0.950 . S
C2588 C2587 1.398 . S
C2588 C2589 1.391 . S
C2589 H2577 0.950 . S
C2589 C2585 1.393 . S
C2589 C2588 1.391 . S
C2590 H2580 0.950 . S
C2590 C2591 1.386 . S
C2590 C2592 1.391 . S
C2591 C2590 1.386 . S
C2591 C2595 1.393 . S
C2592 H2581 0.950 . S
C2592 C2590 1.391 . S
C2592 C2593 1.400 . S
C2593 C2587 1.491 . S
C2593 C2592 1.400 . S
C2593 C2594 1.398 . S
C2594 H2582 0.950 . S
C2594 C2593 1.398 . S
C2594 C2595 1.391 . S
C2595 H2583 0.950 . S
C2595 C2591 1.393 . S
C2595 C2594 1.391 . S
H2596 C2604 0.950 . S
H2597 C2609 0.950 . S
H2598 C2606 0.950 . S
H2599 C2608 0.950 . S
H2600 C2610 0.950 . S
H2601 C2612 0.950 . S
H2602 C2614 0.950 . S
H2603 C2615 0.950 . S
C2604 H2596 0.950 . S
C2604 C2605 1.386 . S
C2604 C2606 1.391 . S
C2605 C2604 1.386 . S
C2605 C2609 1.393 . S
C2606 H2598 0.950 . S
C2606 C2604 1.391 . S
C2606 C2607 1.400 . S
C2607 C2606 1.400 . S
C2607 C2608 1.398 . S
C2607 C2613 1.491 . S
C2608 H2599 0.950 . S
C2608 C2607 1.398 . S
C2608 C2609 1.391 . S
C2609 H2597 0.950 . S
C2609 C2605 1.393 . S
C2609 C2608 1.391 . S
C2610 H2600 0.950 . S
C2610 C2611 1.386 . S
C2610 C2612 1.391 . S
C2611 C2610 1.386 . S
C2611 C2615 1.393 . S
C2612 H2601 0.950 . S
C2612 C2610 1.391 . S
C2612 C2613 1.400 . S
C2613 C2607 1.491 . S
C2613 C2612 1.400 . S
C2613 C2614 1.398 . S
C2614 H2602 0.950 . S
C2614 C2613 1.398 . S
C2614 C2615 1.391 . S
C2615 H2603 0.950 . S
C2615 C2611 1.393 . S
C2615 C2614 1.391 . S
H2616 C2624 0.950 . S
H2617 C2629 0.950 . S
H2618 C2626 0.950 . S
H2619 C2628 0.950 . S
H2620 C2630 0.950 . S
H2621 C2632 0.950 . S
H2622 C2634 0.950 . S
H2623 C2635 0.950 . S
C2624 H2616 0.950 . S
C2624 C2625 1.386 . S
C2624 C2626 1.391 . S
C2625 C2624 1.386 . S
C2625 C2629 1.393 . S
C2626 H2618 0.950 . S
C2626 C2624 1.391 . S
C2626 C2627 1.400 . S
C2627 C2626 1.400 . S
C2627 C2628 1.398 . S
C2627 C2633 1.491 . S
C2628 H2619 0.950 . S
C2628 C2627 1.398 . S
C2628 C2629 1.391 . S
C2629 H2617 0.950 . S
C2629 C2625 1.393 . S
C2629 C2628 1.391 . S
C2630 H2620 0.950 . S
C2630 C2631 1.386 1_655 S
C2630 C2632 1.391 . S
C2631 C2630 1.386 1_455 S
C2631 C2635 1.393 . S
C2632 H2621 0.950 . S
C2632 C2630 1.391 . S
C2632 C2633 1.400 . S
C2633 C2627 1.491 . S
C2633 C2632 1.400 . S
C2633 C2634 1.398 . S
C2634 H2622 0.950 . S
C2634 C2633 1.398 . S
C2634 C2635 1.391 1_655 S
C2635 H2623 0.950 . S
C2635 C2631 1.393 . S
C2635 C2634 1.391 1_455 S
H2636 C2644 0.950 . S
H2637 C2649 0.950 . S
H2638 C2646 0.950 . S
H2639 C2648 0.950 . S
H2640 C2650 0.950 . S
H2641 C2652 0.950 . S
H2642 C2654 0.950 . S
H2643 C2655 0.950 . S
C2644 H2636 0.950 . S
C2644 C2645 1.386 . S
C2644 C2646 1.391 . S
C2645 C2644 1.386 . S
C2645 C2649 1.393 . S
C2646 H2638 0.950 . S
C2646 C2644 1.391 . S
C2646 C2647 1.400 . S
C2647 C2646 1.400 . S
C2647 C2648 1.398 . S
C2647 C2653 1.491 . S
C2648 H2639 0.950 . S
C2648 C2647 1.398 . S
C2648 C2649 1.391 . S
C2649 H2637 0.950 . S
C2649 C2645 1.393 . S
C2649 C2648 1.391 . S
C2650 H2640 0.950 . S
C2650 C2651 1.386 . S
C2650 C2652 1.391 . S
C2651 C2650 1.386 . S
C2651 C2655 1.393 . S
C2652 H2641 0.950 . S
C2652 C2650 1.391 . S
C2652 C2653 1.400 . S
C2653 C2647 1.491 . S
C2653 C2652 1.400 . S
C2653 C2654 1.398 . S
C2654 H2642 0.950 . S
C2654 C2653 1.398 . S
C2654 C2655 1.391 . S
C2655 H2643 0.950 . S
C2655 C2651 1.393 . S
C2655 C2654 1.391 . S
H2656 C2664 0.950 . S
H2657 C2669 0.950 . S
H2658 C2666 0.950 . S
H2659 C2668 0.950 . S
H2660 C2670 0.950 . S
H2661 C2672 0.950 . S
H2662 C2674 0.950 . S
H2663 C2675 0.950 . S
C2664 H2656 0.950 . S
C2664 C2665 1.386 . S
C2664 C2666 1.391 . S
C2665 C2664 1.386 . S
C2665 C2669 1.393 . S
C2666 H2658 0.950 . S
C2666 C2664 1.391 . S
C2666 C2667 1.400 . S
C2667 C2666 1.400 . S
C2667 C2668 1.398 . S
C2667 C2673 1.491 . S
C2668 H2659 0.950 . S
C2668 C2667 1.398 . S
C2668 C2669 1.391 . S
C2669 H2657 0.950 . S
C2669 C2665 1.393 . S
C2669 C2668 1.391 . S
C2670 H2660 0.950 . S
C2670 C2671 1.386 . S
C2670 C2672 1.391 . S
C2671 C2670 1.386 . S
C2671 C2675 1.393 . S
C2672 H2661 0.950 . S
C2672 C2670 1.391 . S
C2672 C2673 1.400 . S
C2673 C2667 1.491 . S
C2673 C2672 1.400 . S
C2673 C2674 1.398 . S
C2674 H2662 0.950 . S
C2674 C2673 1.398 . S
C2674 C2675 1.391 . S
C2675 H2663 0.950 . S
C2675 C2671 1.393 . S
C2675 C2674 1.391 . S
H2676 C2684 0.950 . S
H2677 C2689 0.950 . S
H2678 C2686 0.950 . S
H2679 C2688 0.950 . S
H2680 C2690 0.950 . S
H2681 C2692 0.950 . S
H2682 C2694 0.950 . S
H2683 C2695 0.950 . S
C2684 H2676 0.950 . S
C2684 C2685 1.386 . S
C2684 C2686 1.391 . S
C2685 C2684 1.386 . S
C2685 C2689 1.393 . S
C2686 H2678 0.950 . S
C2686 C2684 1.391 . S
C2686 C2687 1.400 . S
C2687 C2686 1.400 . S
C2687 C2688 1.398 . S
C2687 C2693 1.491 . S
C2688 H2679 0.950 . S
C2688 C2687 1.398 . S
C2688 C2689 1.391 . S
C2689 H2677 0.950 . S
C2689 C2685 1.393 . S
C2689 C2688 1.391 . S
C2690 H2680 0.950 . S
C2690 C2691 1.386 . S
C2690 C2692 1.391 . S
C2691 C2690 1.386 . S
C2691 C2695 1.393 . S
C2692 H2681 0.950 . S
C2692 C2690 1.391 . S
C2692 C2693 1.400 . S
C2693 C2687 1.491 . S
C2693 C2692 1.400 . S
C2693 C2694 1.398 . S
C2694 H2682 0.950 . S
C2694 C2693 1.398 . S
C2694 C2695 1.391 . S
C2695 H2683 0.950 . S
C2695 C2691 1.393 . S
C2695 C2694 1.391 . S
H2696 C2704 0.950 . S
H2697 C2709 0.950 . S
H2698 C2706 0.950 . S
H2699 C2708 0.950 . S
H2700 C2710 0.950 . S
H2701 C2712 0.950 . S
H2702 C2714 0.950 . S
H2703 C2715 0.950 . S
C2704 H2696 0.950 . S
C2704 C2705 1.386 . S
C2704 C2706 1.391 . S
C2705 C2704 1.386 . S
C2705 C2709 1.393 . S
C2706 H2698 0.950 . S
C2706 C2704 1.391 . S
C2706 C2707 1.400 . S
C2707 C2706 1.400 . S
C2707 C2708 1.398 . S
C2707 C2713 1.491 . S
C2708 H2699 0.950 . S
C2708 C2707 1.398 . S
C2708 C2709 1.391 . S
C2709 H2697 0.950 . S
C2709 C2705 1.393 . S
C2709 C2708 1.391 . S
C2710 H2700 0.950 . S
C2710 C2711 1.386 . S
C2710 C2712 1.391 . S
C2711 C2710 1.386 . S
C2711 C2715 1.393 . S
C2712 H2701 0.950 . S
C2712 C2710 1.391 . S
C2712 C2713 1.400 . S
C2713 C2707 1.491 . S
C2713 C2712 1.400 . S
C2713 C2714 1.398 . S
C2714 H2702 0.950 . S
C2714 C2713 1.398 . S
C2714 C2715 1.391 . S
C2715 H2703 0.950 . S
C2715 C2711 1.393 . S
C2715 C2714 1.391 . S
H2716 C2724 0.950 . S
H2717 C2729 0.950 . S
H2718 C2726 0.950 . S
H2719 C2728 0.950 . S
H2720 C2730 0.950 . S
H2721 C2732 0.950 . S
H2722 C2734 0.950 . S
H2723 C2735 0.950 . S
C2724 H2716 0.950 . S
C2724 C2725 1.386 . S
C2724 C2726 1.391 . S
C2725 C2724 1.386 . S
C2725 C2729 1.393 . S
C2726 H2718 0.950 . S
C2726 C2724 1.391 . S
C2726 C2727 1.400 . S
C2727 C2726 1.400 . S
C2727 C2728 1.398 . S
C2727 C2733 1.491 . S
C2728 H2719 0.950 . S
C2728 C2727 1.398 . S
C2728 C2729 1.391 . S
C2729 H2717 0.950 . S
C2729 C2725 1.393 . S
C2729 C2728 1.391 . S
C2730 H2720 0.950 . S
C2730 C2731 1.386 . S
C2730 C2732 1.391 . S
C2731 C2730 1.386 . S
C2731 C2735 1.393 . S
C2732 H2721 0.950 . S
C2732 C2730 1.391 . S
C2732 C2733 1.400 . S
C2733 C2727 1.491 . S
C2733 C2732 1.400 . S
C2733 C2734 1.398 . S
C2734 H2722 0.950 . S
C2734 C2733 1.398 . S
C2734 C2735 1.391 . S
C2735 H2723 0.950 . S
C2735 C2731 1.393 . S
C2735 C2734 1.391 . S
H2736 C2744 0.950 . S
H2737 C2749 0.950 . S
H2738 C2746 0.950 . S
H2739 C2748 0.950 . S
H2740 C2750 0.950 . S
H2741 C2752 0.950 . S
H2742 C2754 0.950 . S
H2743 C2755 0.950 . S
C2744 H2736 0.950 . S
C2744 C2745 1.386 . S
C2744 C2746 1.391 . S
C2745 C2744 1.386 . S
C2745 C2749 1.393 . S
C2746 H2738 0.950 . S
C2746 C2744 1.391 . S
C2746 C2747 1.400 . S
C2747 C2746 1.400 . S
C2747 C2748 1.398 . S
C2747 C2753 1.491 . S
C2748 H2739 0.950 . S
C2748 C2747 1.398 . S
C2748 C2749 1.391 . S
C2749 H2737 0.950 . S
C2749 C2745 1.393 . S
C2749 C2748 1.391 . S
C2750 H2740 0.950 . S
C2750 C2751 1.386 . S
C2750 C2752 1.391 . S
C2751 C2750 1.386 . S
C2751 C2755 1.393 . S
C2752 H2741 0.950 . S
C2752 C2750 1.391 . S
C2752 C2753 1.400 . S
C2753 C2747 1.491 . S
C2753 C2752 1.400 . S
C2753 C2754 1.398 . S
C2754 H2742 0.950 . S
C2754 C2753 1.398 . S
C2754 C2755 1.391 . S
C2755 H2743 0.950 . S
C2755 C2751 1.393 . S
C2755 C2754 1.391 . S
H2756 C2764 0.950 . S
H2757 C2769 0.950 . S
H2758 C2766 0.950 . S
H2759 C2768 0.950 . S
H2760 C2770 0.950 . S
H2761 C2772 0.950 . S
H2762 C2774 0.950 . S
H2763 C2775 0.950 . S
C2764 H2756 0.950 . S
C2764 C2765 1.386 . S
C2764 C2766 1.391 . S
C2765 C2764 1.386 . S
C2765 C2769 1.393 . S
C2766 H2758 0.950 . S
C2766 C2764 1.391 . S
C2766 C2767 1.400 . S
C2767 C2766 1.400 . S
C2767 C2768 1.398 . S
C2767 C2773 1.491 . S
C2768 H2759 0.950 . S
C2768 C2767 1.398 . S
C2768 C2769 1.391 . S
C2769 H2757 0.950 . S
C2769 C2765 1.393 . S
C2769 C2768 1.391 . S
C2770 H2760 0.950 . S
C2770 C2771 1.411 . S
C2770 C2772 1.391 1_545 S
C2771 C2770 1.411 . S
C2771 C2775 1.341 1_545 S
C2772 H2761 0.950 . S
C2772 C2770 1.391 1_565 S
C2772 C2773 1.400 . S
C2773 C2767 1.491 . S
C2773 C2772 1.400 . S
C2773 C2774 1.398 . S
C2774 H2762 0.950 . S
C2774 C2773 1.398 . S
C2774 C2775 1.391 . S
C2775 H2763 0.950 . S
C2775 C2771 1.341 1_565 S
C2775 C2774 1.391 . S
H2776 C2784 0.950 . S
H2777 C2789 0.950 . S
H2778 C2786 0.950 . S
H2779 C2788 0.950 . S
H2780 C2790 0.950 . S
H2781 C2792 0.950 . S
H2782 C2794 0.950 . S
H2783 C2795 0.950 . S
C2784 H2776 0.950 . S
C2784 C2785 1.386 . S
C2784 C2786 1.391 . S
C2785 C2784 1.386 . S
C2785 C2789 1.393 . S
C2786 H2778 0.950 . S
C2786 C2784 1.391 . S
C2786 C2787 1.400 . S
C2787 C2786 1.400 . S
C2787 C2788 1.398 . S
C2787 C2793 1.491 . S
C2788 H2779 0.950 . S
C2788 C2787 1.398 . S
C2788 C2789 1.391 . S
C2789 H2777 0.950 . S
C2789 C2785 1.393 . S
C2789 C2788 1.391 . S
C2790 H2780 0.950 . S
C2790 C2791 1.386 . S
C2790 C2792 1.391 . S
C2791 C2790 1.386 . S
C2791 C2795 1.393 . S
C2792 H2781 0.950 . S
C2792 C2790 1.391 . S
C2792 C2793 1.400 . S
C2793 C2787 1.491 . S
C2793 C2792 1.400 . S
C2793 C2794 1.398 . S
C2794 H2782 0.950 . S
C2794 C2793 1.398 . S
C2794 C2795 1.391 . S
C2795 H2783 0.950 . S
C2795 C2791 1.393 . S
C2795 C2794 1.391 . S
H2796 C2804 0.950 . S
H2797 C2809 0.950 . S
H2798 C2806 0.950 . S
H2799 C2808 0.950 . S
H2800 C2810 0.950 . S
H2801 C2812 0.950 . S
H2802 C2814 0.950 . S
H2803 C2815 0.950 . S
C2804 H2796 0.950 . S
C2804 C2805 1.386 . S
C2804 C2806 1.391 . S
C2805 C2804 1.386 . S
C2805 C2809 1.393 . S
C2806 H2798 0.950 . S
C2806 C2804 1.391 . S
C2806 C2807 1.400 . S
C2807 C2806 1.400 . S
C2807 C2808 1.398 . S
C2807 C2813 1.491 . S
C2808 H2799 0.950 . S
C2808 C2807 1.398 . S
C2808 C2809 1.391 . S
C2809 H2797 0.950 . S
C2809 C2805 1.393 . S
C2809 C2808 1.391 . S
C2810 H2800 0.950 . S
C2810 C2811 1.386 . S
C2810 C2812 1.391 . S
C2811 C2810 1.386 . S
C2811 C2815 1.393 . S
C2812 H2801 0.950 . S
C2812 C2810 1.391 . S
C2812 C2813 1.400 . S
C2813 C2807 1.491 . S
C2813 C2812 1.400 . S
C2813 C2814 1.398 . S
C2814 H2802 0.950 . S
C2814 C2813 1.398 . S
C2814 C2815 1.391 . S
C2815 H2803 0.950 . S
C2815 C2811 1.393 . S
C2815 C2814 1.391 . S
H2816 C2824 0.950 . S
H2817 C2829 0.950 . S
H2818 C2826 0.950 . S
H2819 C2828 0.950 . S
H2820 C2830 0.950 . S
H2821 C2832 0.950 . S
H2822 C2834 0.950 . S
H2823 C2835 0.950 . S
C2824 H2816 0.950 . S
C2824 C2825 1.386 . S
C2824 C2826 1.391 . S
C2825 C2824 1.386 . S
C2825 C2829 1.393 . S
C2826 H2818 0.950 . S
C2826 C2824 1.391 . S
C2826 C2827 1.400 . S
C2827 C2826 1.400 . S
C2827 C2828 1.398 . S
C2827 C2833 1.491 . S
C2828 H2819 0.950 . S
C2828 C2827 1.398 . S
C2828 C2829 1.391 . S
C2829 H2817 0.950 . S
C2829 C2825 1.393 . S
C2829 C2828 1.391 . S
C2830 H2820 0.950 . S
C2830 C2831 1.386 . S
C2830 C2832 1.391 . S
C2831 C2830 1.386 . S
C2831 C2835 1.393 . S
C2832 H2821 0.950 . S
C2832 C2830 1.391 . S
C2832 C2833 1.400 . S
C2833 C2827 1.491 . S
C2833 C2832 1.400 . S
C2833 C2834 1.398 . S
C2834 H2822 0.950 . S
C2834 C2833 1.398 . S
C2834 C2835 1.391 . S
C2835 H2823 0.950 . S
C2835 C2831 1.393 . S
C2835 C2834 1.391 . S
H2836 C2844 0.950 . S
H2837 C2849 0.950 . S
H2838 C2846 0.950 . S
H2839 C2848 0.950 . S
H2840 C2850 0.950 . S
H2841 C2852 0.979 . S
H2842 C2854 0.950 . S
H2843 C2855 0.950 . S
C2844 H2836 0.950 . S
C2844 C2845 1.386 . S
C2844 C2846 1.391 . S
C2845 C2844 1.386 . S
C2845 C2849 1.393 . S
C2846 H2838 0.950 . S
C2846 C2844 1.391 . S
C2846 C2847 1.400 . S
C2847 C2846 1.400 . S
C2847 C2848 1.398 . S
C2847 C2853 1.491 . S
C2848 H2839 0.950 . S
C2848 C2847 1.398 . S
C2848 C2849 1.391 . S
C2849 H2837 0.950 . S
C2849 C2845 1.393 . S
C2849 C2848 1.391 . S
C2850 H2840 0.950 . S
C2850 C2851 1.386 1_556 S
C2850 C2852 1.405 . S
C2851 C2850 1.386 1_554 S
C2851 C2855 1.393 . S
C2852 H2841 0.979 . S
C2852 C2850 1.405 . S
C2852 C2853 1.361 1_556 S
C2853 C2847 1.491 . S
C2853 C2852 1.361 1_554 S
C2853 C2854 1.398 . S
C2854 H2842 0.950 . S
C2854 C2853 1.398 . S
C2854 C2855 1.391 . S
C2855 H2843 0.950 . S
C2855 C2851 1.393 . S
C2855 C2854 1.391 . S
H2856 C2864 0.950 . S
H2857 C2869 0.950 . S
H2858 C2866 0.950 . S
H2859 C2868 0.950 . S
H2860 C2870 0.950 . S
H2861 C2872 0.950 . S
H2862 C2874 0.950 . S
H2863 C2875 0.950 . S
C2864 H2856 0.950 . S
C2864 C2865 1.386 . S
C2864 C2866 1.391 . S
C2865 C2864 1.386 . S
C2865 C2869 1.393 . S
C2866 H2858 0.950 . S
C2866 C2864 1.391 . S
C2866 C2867 1.400 . S
C2867 C2866 1.400 . S
C2867 C2868 1.398 . S
C2867 C2873 1.491 . S
C2868 H2859 0.950 . S
C2868 C2867 1.398 . S
C2868 C2869 1.391 . S
C2869 H2857 0.950 . S
C2869 C2865 1.393 . S
C2869 C2868 1.391 . S
C2870 H2860 0.950 . S
C2870 C2871 1.386 . S
C2870 C2872 1.391 . S
C2871 C2870 1.386 . S
C2871 C2875 1.393 . S
C2872 H2861 0.950 . S
C2872 C2870 1.391 . S
C2872 C2873 1.400 . S
C2873 C2867 1.491 . S
C2873 C2872 1.400 . S
C2873 C2874 1.398 . S
C2874 H2862 0.950 . S
C2874 C2873 1.398 . S
C2874 C2875 1.391 . S
C2875 H2863 0.950 . S
C2875 C2871 1.393 . S
C2875 C2874 1.391 . S
H2876 C2884 0.950 . S
H2877 C2889 0.950 . S
H2878 C2886 0.950 . S
H2879 C2888 0.950 . S
H2880 C2890 0.950 . S
H2881 C2892 0.950 . S
H2882 C2894 0.950 . S
H2883 C2895 0.950 . S
C2884 H2876 0.950 . S
C2884 C2885 1.386 . S
C2884 C2886 1.391 . S
C2885 C2884 1.386 . S
C2885 C2889 1.393 . S
C2886 H2878 0.950 . S
C2886 C2884 1.391 . S
C2886 C2887 1.400 . S
C2887 C2886 1.400 . S
C2887 C2888 1.398 . S
C2887 C2893 1.491 . S
C2888 H2879 0.950 . S
C2888 C2887 1.398 . S
C2888 C2889 1.391 . S
C2889 H2877 0.950 . S
C2889 C2885 1.393 . S
C2889 C2888 1.391 . S
C2890 H2880 0.950 . S
C2890 C2891 1.386 . S
C2890 C2892 1.391 . S
C2891 C2890 1.386 . S
C2891 C2895 1.393 . S
C2892 H2881 0.950 . S
C2892 C2890 1.391 . S
C2892 C2893 1.400 . S
C2893 C2887 1.491 . S
C2893 C2892 1.400 . S
C2893 C2894 1.398 . S
C2894 H2882 0.950 . S
C2894 C2893 1.398 . S
C2894 C2895 1.391 . S
C2895 H2883 0.950 . S
C2895 C2891 1.393 . S
C2895 C2894 1.391 . S
C985 C109 2.140 1_455 S
C991 C349 2.135 . S
C1005 C65 2.078 . S
C1011 C400 2.057 . S
C1025 C75 1.621 . S
C1031 C429 1.594 . S
C1051 C473 1.474 . S
C1045 C84 1.491 . S
C1065 C25 1.371 . S
C1071 C513 1.333 . S
C1091 C549 1.569 . S
C1085 C28 1.587 . S
C1111 C599 1.871 . S
C1105 C47 1.837 . S
C1125 C9 2.290 . S
C1131 C629 2.279 . S
C1151 C359 1.992 . S
C1145 C233 2.008 . S
C1165 C249 0.591 . S
C1171 C402 0.611 . S
C1191 C439 1.259 . S
C1185 C275 1.262 . S
C1211 C469 1.414 . S
C1205 C173 1.421 . S
C1225 C224 1.512 . S
C1231 C509 1.504 . S
C1251 C559 0.912 . S
C1245 C243 0.897 . S
C1271 C593 0.805 . S
C1265 C266 0.812 . S
C1291 C639 1.833 . S
C1285 C179 1.860 . S
C1311 C353 1.193 . S
C1305 C163 1.235 1_554 S
C1325 C289 1.693 . S
C1331 C679 1.689 . S
C1351 C713 1.381 . S
C1345 C333 1.414 . S
C1371 C749 0.818 . S
C1365 C308 0.831 . S
C1385 C123 1.403 . S
C1391 C633 1.356 . S
C1405 C126 1.556 . S
C1411 C433 1.532 . S
C1425 C327 1.643 . S
C1431 C799 1.647 . S
C1451 C818 0.345 . S
C1445 C299 0.309 . S
C1471 C360 2.153 . S
C1465 C67 2.183 . S
C1491 C829 2.105 . S
C1485 C98 2.068 . S
C1505 C89 1.645 . S
C1511 C440 1.648 . S
C1525 C79 1.550 . S
C1531 C802 1.500 . S
C1551 C522 1.335 . S
C1545 C11 1.378 . S
C1565 C51 1.620 . S
C1571 C720 1.607 . S
C1591 C578 1.915 1_566 S
C1585 C33 1.901 . S
C1611 C880 2.278 . S
C1605 C14 2.325 . S
C1631 C338 1.985 . S
C1625 C140 2.015 . S
C1651 C833 0.618 . S
C1645 C319 0.589 . S
C1665 C112 1.282 . S
C1671 C418 1.276 . S
C1685 C285 1.445 . S
C1691 C800 1.444 . S
C1705 C149 1.566 . S
C1711 C520 1.549 . S
C1731 C698 0.954 . S
C1725 C313 0.962 . S
C1745 C121 0.869 . S
C1751 C602 0.875 . S
C1765 C291 1.901 . S
C1771 C858 1.870 . S
C1785 C182 1.202 . S
C1791 C362 1.149 . S
C1805 C168 1.694 . S
C1811 C658 1.706 . S
C1825 C263 1.449 . S
C1831 C562 1.424 . S
C1845 C247 0.893 . S
C1851 C760 0.884 . S
C1871 C882 1.354 . S
C1865 C277 1.413 . S
C1885 C219 1.593 . S
C1891 C442 1.520 . S
C1911 C458 1.689 . S
C1905 C257 1.693 . S
C1931 C399 0.367 . S
C1925 C201 0.310 . S
C1945 C81 2.148 . S
C1951 C909 2.136 . S
C1971 C840 2.067 . S
C1965 C93 2.081 . S
C1985 C103 1.613 . S
C1991 C949 1.610 . S
C2005 C56 1.474 . S
C2011 C793 1.456 . S
C2025 C53 1.377 . S
C2031 C673 1.348 . S
C2051 C709 1.561 . S
C2045 C0 1.581 . S
C2071 C759 1.872 . S
C2065 C19 1.837 . S
C2091 C869 2.278 . S
C2085 C37 2.292 . S
C2111 C919 1.984 . S
C2105 C261 2.002 . S
C2125 C193 0.593 . S
C2131 C842 0.610 . S
C2151 C959 1.267 . S
C2145 C205 1.266 . S
C2171 C789 1.410 . S
C2165 C215 1.424 . S
C2191 C669 1.506 . S
C2185 C252 1.522 . S
C2205 C187 0.904 . S
C2211 C719 0.901 . S
C2231 C753 0.828 . S
C2225 C196 0.834 . S
C2245 C221 1.861 . S
C2251 C879 1.841 . S
C2271 C913 1.205 . S
C2265 C317 1.235 . S
C2285 C135 1.692 . S
C2291 C519 1.690 . S
C2311 C553 1.404 . S
C2305 C151 1.425 1_565 S
C2331 C589 0.821 . S
C2325 C154 0.830 . S
C2351 C873 1.386 . S
C2345 C305 1.425 . S
C2365 C280 1.558 . S
C2371 C953 1.537 . S
C2391 C479 1.646 . S
C2385 C145 1.642 . S
C2411 C378 0.376 . S
C2405 C117 0.306 . S
C2425 C95 2.179 . S
C2431 C920 2.142 . S
C2451 C389 2.098 . S
C2445 C70 2.065 . S
C2465 C61 1.649 . S
C2471 C960 1.639 . S
C2485 C107 1.549 . S
C2491 C482 1.487 . S
C2505 C39 1.375 . S
C2511 C682 1.335 . S
C2531 C560 1.614 . S
C2525 C23 1.615 . S
C2545 C5 1.897 . S
C2551 C738 1.916 . S
C2565 C42 2.325 . S
C2571 C640 2.291 . S
C2591 C898 1.975 . S
C2585 C322 2.015 . S
C2605 C165 0.600 . S
C2611 C393 0.608 . S
C2631 C938 1.271 . S
C2625 C294 1.280 . S
C2645 C131 1.445 . S
C2651 C480 1.431 . S
C2665 C331 1.555 . S
C2671 C680 1.560 . S
C2691 C538 0.948 . S
C2685 C159 0.965 . S
C2705 C303 0.870 . S
C2711 C762 0.875 . S
C2731 C618 1.871 . S
C2725 C137 1.902 . S
C2751 C922 1.159 . S
C2745 C238 1.212 . S
C2771 C498 1.747 . S
C2765 C210 1.677 . S
C2785 C235 1.435 . S
C2791 C722 1.396 . S
C2811 C600 0.894 . S
C2805 C191 0.886 . S
C2825 C207 1.431 . S
C2831 C642 1.383 . S
C2845 C177 1.597 . S
C2851 C962 1.535 . S
C2871 C778 1.688 . S
C2865 C229 1.693 . S
C2891 C839 0.380 . S
C2885 C271 0.309 . S
