# Generated by pormake.
# Topology anh, (6,3)-cn, num edge types: 1
# Building blocks:
#     Node 0, Type 0, BuildingBlock: CUKXOW_clean_sbu_0, # of connection points: 6
#     Node 1, Type 0, BuildingBlock: CUKXOW_clean_sbu_0, # of connection points: 6
#     Node 2, Type 0, BuildingBlock: CUKXOW_clean_sbu_0, # of connection points: 6
#     Node 3, Type 1, BuildingBlock: OLANEW_clean_sbu_2, # of connection points: 3
#     Node 4, Type 1, BuildingBlock: OLANEW_clean_sbu_2, # of connection points: 3
#     Node 5, Type 1, BuildingBlock: OLANEW_clean_sbu_2, # of connection points: 3
#     Node 6, Type 1, BuildingBlock: OLANEW_clean_sbu_2, # of connection points: 3
#     Node 7, Type 1, BuildingBlock: OLANEW_clean_sbu_2, # of connection points: 3
#     Node 8, Type 1, BuildingBlock: OLANEW_clean_sbu_2, # of connection points: 3
#     Edge 9, Type (0, 1), BuildingBlock: OJICUG_clean_linker_0, # of connection points: 2
#     Edge 10, Type (0, 1), BuildingBlock: OJICUG_clean_linker_0, # of connection points: 2
#     Edge 11, Type (0, 1), BuildingBlock: OJICUG_clean_linker_0, # of connection points: 2
#     Edge 12, Type (0, 1), BuildingBlock: OJICUG_clean_linker_0, # of connection points: 2
#     Edge 13, Type (0, 1), BuildingBlock: OJICUG_clean_linker_0, # of connection points: 2
#     Edge 14, Type (0, 1), BuildingBlock: OJICUG_clean_linker_0, # of connection points: 2
#     Edge 15, Type (0, 1), BuildingBlock: OJICUG_clean_linker_0, # of connection points: 2
#     Edge 16, Type (0, 1), BuildingBlock: OJICUG_clean_linker_0, # of connection points: 2
#     Edge 17, Type (0, 1), BuildingBlock: OJICUG_clean_linker_0, # of connection points: 2
#     Edge 18, Type (0, 1), BuildingBlock: OJICUG_clean_linker_0, # of connection points: 2
#     Edge 19, Type (0, 1), BuildingBlock: OJICUG_clean_linker_0, # of connection points: 2
#     Edge 20, Type (0, 1), BuildingBlock: OJICUG_clean_linker_0, # of connection points: 2
#     Edge 21, Type (0, 1), BuildingBlock: OJICUG_clean_linker_0, # of connection points: 2
#     Edge 22, Type (0, 1), BuildingBlock: OJICUG_clean_linker_0, # of connection points: 2
#     Edge 23, Type (0, 1), BuildingBlock: OJICUG_clean_linker_0, # of connection points: 2
#     Edge 24, Type (0, 1), BuildingBlock: OJICUG_clean_linker_0, # of connection points: 2
#     Edge 25, Type (0, 1), BuildingBlock: OJICUG_clean_linker_0, # of connection points: 2
#     Edge 26, Type (0, 1), BuildingBlock: OJICUG_clean_linker_0, # of connection points: 2
# Relax obj value: 0.085
# Max RMSD: 0.151
# Mean RMSD: 0.111
data_MOF--net-anh--node1-CUKXOW_clean_sbu_0--node2-OLANEW_clean_sbu_2--edge1-OJICUG_clean_linker_0
_symmetry_space_group_name_H-M    P1
_symmetry_Int_Tables_number       1
_symmetry_cell_setting            triclinic
loop_
_symmetry_equiv_pos_as_xyz
'x, y, z'
_cell_length_a     24.889052
_cell_length_b     23.539705
_cell_length_c     36.495342
_cell_angle_alpha  95.140669
_cell_angle_beta   90.746382
_cell_angle_gamma 114.62044
loop_
_atom_site_label
_atom_site_type_symbol
_atom_site_fract_x
_atom_site_fract_y
_atom_site_fract_z
_atom_type_partial_charge
Tb0 Tb 0.06772 0.55373 0.1548 0.0
C1 C 0.01873 0.51204 0.23076 0.0
Tb2 Tb 0.96471 0.42424 0.15526 0.0
O3 O 0.00775 0.59941 0.16644 0.0
O4 O 0.97702 0.51095 0.13685 0.0
O5 O 0.06568 0.54861 0.2139 0.0
C6 C 0.8556 0.33689 0.16194 0.0
O7 O 0.97303 0.46404 0.21297 0.0
C8 C 0.07039 0.42521 0.15724 0.0
C9 C 0.01602 0.46592 0.07937 0.0
O10 O 0.90141 0.32542 0.15506 0.0
O11 O 0.87159 0.39698 0.16548 0.0
O12 O 0.0231 0.37707 0.14355 0.0
O13 O 0.05559 0.4664 0.17238 0.0
O14 O 0.96913 0.42838 0.09599 0.0
O15 O 0.06073 0.51449 0.09743 0.0
C16 C 0.17422 0.64511 0.14687 0.0
O17 O 0.12665 0.65334 0.1533 0.0
O18 O 0.16175 0.58574 0.14505 0.0
C19 C 0.96126 0.55148 0.1517 0.0
Tb20 Tb 0.48442 0.98189 0.5074 0.0
C21 C 0.53741 0.03003 0.43379 0.0
Tb22 Tb 0.61253 0.08179 0.50996 0.0
O23 O 0.45188 0.04959 0.49063 0.0
O24 O 0.52958 0.07939 0.52391 0.0
O25 O 0.49949 0.98077 0.449 0.0
C26 C 0.71126 0.18591 0.5062 0.0
O27 O 0.57988 0.07878 0.45336 0.0
C28 C 0.59984 0.96586 0.51053 0.0
C29 C 0.55951 0.03417 0.58434 0.0
O30 O 0.70189 0.13048 0.49079 0.0
O31 O 0.66518 0.18255 0.52356 0.0
O32 O 0.64537 0.01408 0.52599 0.0
O33 O 0.56731 0.9845 0.49316 0.0
O34 O 0.60131 0.07992 0.56867 0.0
O35 O 0.51304 0.98903 0.56535 0.0
C36 C 0.38509 0.87808 0.51096 0.0
O37 O 0.38898 0.93497 0.51398 0.0
O38 O 0.43711 0.87959 0.50592 0.0
C39 C 0.49708 0.09788 0.50631 0.0
Tb40 Tb 0.46917 0.53028 0.82676 0.0
C41 C 0.53721 0.55003 0.90437 0.0
Tb42 Tb 0.59868 0.55719 0.82934 0.0
O43 O 0.44661 0.43323 0.80429 0.0
O44 O 0.52017 0.48123 0.84058 0.0
O45 O 0.49117 0.55164 0.8863 0.0
C46 C 0.69753 0.54122 0.82081 0.0
O47 O 0.58086 0.5429 0.88689 0.0
C48 C 0.57742 0.65747 0.83571 0.0
C49 C 0.52993 0.53894 0.75184 0.0
O50 O 0.69423 0.58965 0.83885 0.0
O51 O 0.64531 0.50197 0.80771 0.0
O52 O 0.6256 0.65634 0.84896 0.0
O53 O 0.5482 0.60665 0.81603 0.0
O54 O 0.57655 0.53851 0.76976 0.0
O55 O 0.48599 0.54498 0.76936 0.0
C56 C 0.36236 0.5301 0.82868 0.0
O57 O 0.3731 0.48144 0.8202 0.0
O58 O 0.41179 0.57905 0.83715 0.0
C59 C 0.49265 0.4312 0.81999 0.0
O60 O 0.50896 0.06912 0.26197 0.0
Cd61 Cd 0.50476 0.07366 0.19561 0.0
O62 O 0.5219 0.98188 0.25549 0.0
Cd63 Cd 0.49751 0.96433 0.1968 0.0
O64 O 0.41757 0.89889 0.16544 0.0
C65 C 0.40957 0.84174 0.16113 0.0
O66 O 0.45256 0.8272 0.17163 0.0
C67 C 0.51913 0.02692 0.27611 0.0
C68 C 0.61663 0.15667 0.17802 0.0
O69 O 0.57619 0.17554 0.18553 0.0
O70 O 0.60349 0.09786 0.17763 0.0
O71 O 0.55711 0.50855 0.57498 0.0
Cd72 Cd 0.55856 0.48364 0.50889 0.0
O73 O 0.48966 0.54648 0.57622 0.0
Cd74 Cd 0.49615 0.56947 0.51945 0.0
O75 O 0.51715 0.66182 0.5009 0.0
C76 C 0.5538 0.70693 0.52275 0.0
O77 O 0.57679 0.6936 0.5516 0.0
C78 C 0.52338 0.52771 0.59292 0.0
C79 C 0.54015 0.35766 0.50094 0.0
O80 O 0.59169 0.40179 0.50933 0.0
O81 O 0.49741 0.37292 0.49454 0.0
O82 O 0.0176 0.49843 0.90715 0.0
Cd83 Cd 0.01856 0.51328 0.84203 0.0
O84 O 0.98032 0.3949 0.90084 0.0
Cd85 Cd 0.9545 0.39412 0.84361 0.0
O86 O 0.89444 0.42612 0.81773 0.0
C87 C 0.88622 0.46733 0.83887 0.0
O88 O 0.91339 0.48463 0.87172 0.0
C89 C 0.00314 0.44686 0.92119 0.0
C90 C 0.12938 0.52382 0.82497 0.0
O91 O 0.12113 0.57287 0.83549 0.0
O92 O 0.08424 0.47066 0.82007 0.0
O93 O 0.05455 0.53687 0.40803 0.0
Cd94 Cd 0.06308 0.54785 0.47523 0.0
O95 O 0.97581 0.55674 0.40432 0.0
Cd96 Cd 0.96153 0.54793 0.46251 0.0
O97 O 0.90537 0.46973 0.49154 0.0
C98 C 0.90486 0.41723 0.47931 0.0
O99 O 0.94088 0.41613 0.45352 0.0
C100 C 0.01644 0.5459 0.38879 0.0
C101 C 0.16697 0.65384 0.49644 0.0
O102 O 0.1671 0.59939 0.49066 0.0
O103 O 0.11726 0.65772 0.49347 0.0
O104 O 0.52868 0.00209 0.75905 0.0
Cd105 Cd 0.52243 0.99103 0.82482 0.0
O106 O 0.60533 0.09415 0.76197 0.0
Cd107 Cd 0.59636 0.12378 0.81892 0.0
O108 O 0.57641 0.20445 0.83475 0.0
C109 C 0.54101 0.21083 0.81174 0.0
O110 O 0.51831 0.16799 0.78342 0.0
C111 C 0.56815 0.045 0.74316 0.0
C112 C 0.53723 0.88195 0.8347 0.0
O113 O 0.48636 0.87946 0.82555 0.0
O114 O 0.58083 0.93618 0.84046 0.0
O115 O 0.57523 0.5355 0.07983 0.0
Cd116 Cd 0.60373 0.52157 0.142 0.0
O117 O 0.48384 0.53052 0.07748 0.0
Cd118 Cd 0.44278 0.51503 0.13072 0.0
O119 O 0.35529 0.49817 0.15212 0.0
C120 C 0.31053 0.45719 0.13301 0.0
O121 O 0.31963 0.42615 0.10378 0.0
C122 C 0.53151 0.53717 0.06208 0.0
C123 C 0.72107 0.53229 0.14551 0.0
O124 O 0.67753 0.48034 0.13381 0.0
O125 O 0.70947 0.57928 0.15582 0.0
C126 C 0.17965 0.47882 0.17446 0.0
C127 C 0.13173 0.43176 0.15313 0.0
H128 H 0.27398 0.52401 0.18499 0.0
C129 C 0.14284 0.39124 0.12686 0.0
H130 H 0.1722 0.51016 0.19529 0.0
C131 C 0.20076 0.3989 0.12103 0.0
C132 C 0.2491 0.44706 0.14153 0.0
H133 H 0.10677 0.35437 0.11012 0.0
H134 H 0.2076 0.36745 0.09999 0.0
C135 C 0.23784 0.48649 0.16869 0.0
C136 C 0.76703 0.30193 0.51899 0.0
C137 C 0.76373 0.24437 0.50236 0.0
H138 H 0.81478 0.402 0.52514 0.0
C139 C 0.80949 0.24358 0.48062 0.0
H140 H 0.73225 0.30367 0.53598 0.0
C141 C 0.85675 0.2998 0.47439 0.0
C142 C 0.85902 0.35776 0.48981 0.0
H143 H 0.80797 0.19968 0.46761 0.0
H144 H 0.89057 0.29785 0.45661 0.0
C145 C 0.81433 0.35818 0.51284 0.0
C146 C 0.51552 0.71248 0.81791 0.0
C147 C 0.56585 0.71419 0.83667 0.0
H148 H 0.46636 0.76394 0.80326 0.0
C149 C 0.60593 0.77108 0.85571 0.0
H150 H 0.48453 0.66962 0.8024 0.0
C151 C 0.59635 0.82554 0.85547 0.0
C152 C 0.54594 0.82384 0.83673 0.0
H153 H 0.64519 0.77374 0.87035 0.0
H154 H 0.62847 0.86899 0.86988 0.0
C155 C 0.50527 0.76658 0.81831 0.0
C156 C 0.88627 0.59313 0.16934 0.0
C157 C 0.90016 0.54735 0.14969 0.0
H158 H 0.81891 0.62454 0.18334 0.0
C159 C 0.85507 0.49746 0.12806 0.0
H160 H 0.92019 0.63231 0.18608 0.0
C161 C 0.79692 0.49225 0.12704 0.0
C162 C 0.78279 0.53779 0.14686 0.0
H163 H 0.86465 0.46222 0.11191 0.0
H164 H 0.76314 0.45284 0.11037 0.0
C165 C 0.82827 0.58862 0.16778 0.0
C166 C 0.33065 0.76134 0.50597 0.0
C167 C 0.32974 0.82074 0.51056 0.0
H168 H 0.27974 0.66173 0.49827 0.0
C169 C 0.27527 0.82492 0.51308 0.0
H170 H 0.37219 0.75694 0.50406 0.0
C171 C 0.22234 0.77054 0.50973 0.0
C172 C 0.22297 0.71098 0.50388 0.0
H173 H 0.27346 0.87027 0.51674 0.0
H174 H 0.18091 0.77529 0.51083 0.0
C175 C 0.27773 0.7069 0.50273 0.0
C176 C 0.47218 0.32252 0.7935 0.0
C177 C 0.5053 0.37518 0.81835 0.0
H178 H 0.45736 0.22938 0.77208 0.0
C179 C 0.54972 0.37332 0.84172 0.0
H180 H 0.43766 0.32273 0.7752 0.0
C181 C 0.56082 0.31953 0.84019 0.0
C182 C 0.52793 0.2669 0.81506 0.0
H183 H 0.57582 0.41336 0.86121 0.0
H184 H 0.59561 0.31951 0.85832 0.0
C185 C 0.48349 0.26905 0.79178 0.0
C186 C 0.62134 0.88454 0.53854 0.0
C187 C 0.58917 0.89974 0.51232 0.0
H188 H 0.63548 0.81186 0.56231 0.0
C189 C 0.54697 0.85141 0.48821 0.0
H190 H 0.65429 0.92099 0.55737 0.0
C191 C 0.53614 0.78862 0.49092 0.0
C192 C 0.56741 0.77323 0.5178 0.0
H193 H 0.52229 0.86211 0.46732 0.0
H194 H 0.5027 0.75219 0.47236 0.0
C195 C 0.61047 0.82198 0.54135 0.0
C196 C 0.80011 0.56601 0.84315 0.0
C197 C 0.75001 0.52793 0.82031 0.0
H198 H 0.88305 0.57632 0.8668 0.0
C199 C 0.74822 0.47361 0.79991 0.0
H200 H 0.80251 0.60825 0.85902 0.0
C201 C 0.79463 0.45564 0.80401 0.0
C202 C 0.84276 0.49135 0.82899 0.0
H203 H 0.70992 0.44369 0.782 0.0
H204 H 0.79117 0.41206 0.78932 0.0
C205 C 0.84601 0.54762 0.84765 0.0
C206 C 0.24296 0.75831 0.14737 0.0
C207 C 0.23406 0.69523 0.14549 0.0
H208 H 0.30583 0.85451 0.15301 0.0
C209 C 0.28318 0.68047 0.14459 0.0
H210 H 0.20566 0.77075 0.14785 0.0
C211 C 0.34051 0.72826 0.14768 0.0
C212 C 0.34965 0.79163 0.15151 0.0
H213 H 0.27739 0.63205 0.14297 0.0
H214 H 0.37757 0.7155 0.14846 0.0
C215 C 0.3003 0.80616 0.15017 0.0
C216 C 0.55344 0.2121 0.52693 0.0
C217 C 0.50789 0.16417 0.50462 0.0
H218 H 0.60049 0.31096 0.54234 0.0
C219 C 0.47262 0.18017 0.48092 0.0
H220 H 0.57945 0.20097 0.54666 0.0
C221 C 0.48307 0.24317 0.47948 0.0
C222 C 0.52978 0.29117 0.50113 0.0
H223 H 0.43687 0.14402 0.46359 0.0
H224 H 0.45497 0.25437 0.46127 0.0
C225 C 0.56505 0.27503 0.52471 0.0
C226 C 0.2541 0.47355 0.81496 0.0
C227 C 0.30342 0.52979 0.82633 0.0
H228 H 0.16031 0.42782 0.80492 0.0
C229 C 0.29592 0.58525 0.83464 0.0
H230 H 0.25896 0.43027 0.80804 0.0
C231 C 0.23935 0.58402 0.83264 0.0
C232 C 0.18964 0.52726 0.8223 0.0
H233 H 0.33356 0.6293 0.84311 0.0
H234 H 0.23447 0.62713 0.84015 0.0
C235 C 0.1977 0.47228 0.81293 0.0
C236 C 0.7809 0.22563 0.16213 0.0
C237 C 0.79455 0.29004 0.16475 0.0
H238 H 0.71349 0.13252 0.16412 0.0
C239 C 0.74918 0.31006 0.17021 0.0
H240 H 0.81519 0.20913 0.15777 0.0
C241 C 0.69119 0.26653 0.17367 0.0
C242 C 0.67739 0.20203 0.17179 0.0
H243 H 0.75853 0.35953 0.17208 0.0
H244 H 0.65736 0.28361 0.17834 0.0
C245 C 0.72273 0.18191 0.16567 0.0
C246 C 0.97634 0.40234 0.0184 0.0
C247 C 0.01615 0.45789 0.03886 0.0
H248 H 0.94173 0.35472 0.96469 0.0
C249 C 0.05464 0.50746 0.02016 0.0
H250 H 0.94648 0.36319 0.03211 0.0
C251 C 0.05145 0.50286 0.98184 0.0
C252 C 0.01041 0.44823 0.96138 0.0
H253 H 0.08595 0.55087 0.03507 0.0
H254 H 0.08048 0.54263 0.96823 0.0
C255 C 0.97385 0.39734 0.97989 0.0
C256 C 0.51282 0.97272 0.37083 0.0
C257 C 0.53329 0.02976 0.39353 0.0
H258 H 0.49359 0.92741 0.31574 0.0
C259 C 0.54985 0.08623 0.37743 0.0
H260 H 0.50011 0.92857 0.38261 0.0
C261 C 0.54501 0.08549 0.33916 0.0
C262 C 0.52509 0.02841 0.31644 0.0
H263 H 0.56554 0.1308 0.39444 0.0
H264 H 0.55733 0.12953 0.32734 0.0
C265 C 0.50948 0.97211 0.33261 0.0
C266 C 0.48511 0.54734 0.69195 0.0
C267 C 0.52815 0.53569 0.7112 0.0
H268 H 0.4499 0.55413 0.63959 0.0
C269 C 0.56911 0.52055 0.69122 0.0
H270 H 0.4529 0.55917 0.7065 0.0
C271 C 0.56711 0.51723 0.65279 0.0
C272 C 0.52438 0.52944 0.63354 0.0
H273 H 0.60263 0.51099 0.70521 0.0
H274 H 0.59943 0.50561 0.63821 0.0
C275 C 0.4834 0.54449 0.65355 0.0
C276 C 0.52173 0.98633 0.64266 0.0
C277 C 0.56375 0.03484 0.62485 0.0
H278 H 0.49044 0.95113 0.69394 0.0
C279 C 0.60915 0.08487 0.64623 0.0
H280 H 0.48639 0.94686 0.62704 0.0
C281 C 0.61147 0.0873 0.6846 0.0
C282 C 0.56855 0.03967 0.70247 0.0
H283 H 0.64241 0.12293 0.63344 0.0
H284 H 0.64636 0.12719 0.70024 0.0
C285 C 0.52416 0.98868 0.68106 0.0
C286 C 0.58502 0.54807 0.96492 0.0
C287 C 0.53741 0.55058 0.94501 0.0
H288 H 0.62079 0.5422 0.01736 0.0
C289 C 0.48919 0.55155 0.96421 0.0
H290 H 0.62304 0.54752 0.95106 0.0
C291 C 0.48787 0.54841 0.00226 0.0
C292 C 0.53483 0.5444 0.02208 0.0
H293 H 0.45184 0.55367 0.94981 0.0
H294 H 0.44952 0.54827 0.01601 0.0
C295 C 0.58379 0.5451 0.00302 0.0
C296 C 0.96499 0.50921 0.28818 0.0
C297 C 0.01852 0.52284 0.27108 0.0
H298 H 0.92266 0.50749 0.33904 0.0
C299 C 0.07169 0.54618 0.29281 0.0
H300 H 0.92347 0.49153 0.27193 0.0
C301 C 0.07112 0.55404 0.33118 0.0
C302 C 0.01757 0.54041 0.34831 0.0
H303 H 0.11353 0.55684 0.28022 0.0
H304 H 0.11255 0.57086 0.34745 0.0
C305 C 0.9646 0.51874 0.32647 0.0
loop_
_geom_bond_atom_site_label_1
_geom_bond_atom_site_label_2
_geom_bond_distance
_geom_bond_site_symmetry_2
_ccdc_geom_bond_type
Tb0 O3 2.453 1_455 S
Tb0 O4 2.596 1_455 S
Tb0 O5 2.374 . S
Tb0 O13 2.343 . S
Tb0 O15 2.353 . S
Tb0 O17 2.427 . S
Tb0 O18 2.513 . S
C1 O5 1.251 . S
C1 O7 1.263 . S
Tb2 O4 2.330 1_455 S
Tb2 O7 2.353 . S
Tb2 O10 2.413 1_455 S
Tb2 O11 2.498 1_455 S
Tb2 O12 2.472 . S
Tb2 O13 2.605 . S
Tb2 O14 2.374 . S
O3 Tb0 2.453 1_655 S
O3 C19 1.245 . S
O4 Tb0 2.596 1_655 S
O4 Tb2 2.330 1_655 S
O4 C19 1.259 . S
O5 Tb0 2.374 . S
O5 C1 1.251 . S
C6 O10 1.275 . S
C6 O11 1.246 . S
O7 C1 1.263 . S
O7 Tb2 2.353 . S
C8 O12 1.245 . S
C8 O13 1.259 . S
C9 O14 1.250 . S
C9 O15 1.263 . S
O10 Tb2 2.413 1_655 S
O10 C6 1.275 . S
O11 Tb2 2.498 1_655 S
O11 C6 1.246 . S
O12 Tb2 2.472 . S
O12 C8 1.245 . S
O13 Tb0 2.343 . S
O13 Tb2 2.605 . S
O13 C8 1.259 . S
O14 Tb2 2.374 . S
O14 C9 1.250 . S
O15 Tb0 2.353 . S
O15 C9 1.263 . S
C16 O17 1.275 . S
C16 O18 1.246 . S
O17 Tb0 2.427 . S
O17 C16 1.275 . S
O18 Tb0 2.513 . S
O18 C16 1.246 . S
C19 O3 1.245 . S
C19 O4 1.259 . S
Tb20 O23 2.453 . S
Tb20 O24 2.596 . S
Tb20 O25 2.374 . S
Tb20 O33 2.343 1_545 S
Tb20 O35 2.353 . S
Tb20 O37 2.427 1_545 S
Tb20 O38 2.513 1_545 S
C21 O25 1.251 . S
C21 O27 1.263 . S
Tb22 O24 2.343 . S
Tb22 O27 2.353 . S
Tb22 O30 2.427 . S
Tb22 O31 2.513 . S
Tb22 O32 2.453 1_545 S
Tb22 O33 2.596 1_545 S
Tb22 O34 2.374 . S
O23 Tb20 2.453 . S
O23 C39 1.245 . S
O24 Tb20 2.596 . S
O24 Tb22 2.343 . S
O24 C39 1.259 . S
O25 Tb20 2.374 . S
O25 C21 1.251 . S
C26 O30 1.275 . S
C26 O31 1.246 . S
O27 C21 1.263 . S
O27 Tb22 2.353 . S
C28 O32 1.245 . S
C28 O33 1.259 . S
C29 O34 1.250 . S
C29 O35 1.263 . S
O30 Tb22 2.427 . S
O30 C26 1.275 . S
O31 Tb22 2.513 . S
O31 C26 1.246 . S
O32 Tb22 2.453 1_565 S
O32 C28 1.245 . S
O33 Tb20 2.343 1_565 S
O33 Tb22 2.596 1_565 S
O33 C28 1.259 . S
O34 Tb22 2.374 . S
O34 C29 1.250 . S
O35 Tb20 2.353 . S
O35 C29 1.263 . S
C36 O37 1.275 . S
C36 O38 1.246 . S
O37 Tb20 2.427 1_565 S
O37 C36 1.275 . S
O38 Tb20 2.513 1_565 S
O38 C36 1.246 . S
C39 O23 1.245 . S
C39 O24 1.259 . S
Tb40 O43 2.453 . S
Tb40 O44 2.596 . S
Tb40 O45 2.374 . S
Tb40 O53 2.343 . S
Tb40 O55 2.353 . S
Tb40 O57 2.427 . S
Tb40 O58 2.513 . S
C41 O45 1.251 . S
C41 O47 1.263 . S
Tb42 O44 2.343 . S
Tb42 O47 2.353 . S
Tb42 O50 2.427 . S
Tb42 O51 2.513 . S
Tb42 O52 2.453 . S
Tb42 O53 2.596 . S
Tb42 O54 2.374 . S
O43 Tb40 2.453 . S
O43 C59 1.245 . S
O44 Tb40 2.596 . S
O44 Tb42 2.343 . S
O44 C59 1.259 . S
O45 Tb40 2.374 . S
O45 C41 1.251 . S
C46 O50 1.275 . S
C46 O51 1.246 . S
O47 C41 1.263 . S
O47 Tb42 2.353 . S
C48 O52 1.245 . S
C48 O53 1.259 . S
C49 O54 1.250 . S
C49 O55 1.263 . S
O50 Tb42 2.427 . S
O50 C46 1.275 . S
O51 Tb42 2.513 . S
O51 C46 1.246 . S
O52 Tb42 2.453 . S
O52 C48 1.245 . S
O53 Tb40 2.343 . S
O53 Tb42 2.596 . S
O53 C48 1.259 . S
O54 Tb42 2.374 . S
O54 C49 1.250 . S
O55 Tb40 2.353 . S
O55 C49 1.263 . S
C56 O57 1.275 . S
C56 O58 1.246 . S
O57 Tb40 2.427 . S
O57 C56 1.275 . S
O58 Tb40 2.513 . S
O58 C56 1.246 . S
C59 O43 1.245 . S
C59 O44 1.259 . S
O60 Cd61 2.300 . S
O60 C67 1.275 . S
Cd61 O60 2.300 . S
Cd61 O69 2.381 . S
Cd61 O70 2.378 . S
O62 Cd63 2.385 . S
O62 C67 1.255 1_565 S
Cd63 O62 2.385 . S
Cd63 O64 2.317 . S
O64 Cd63 2.317 . S
O64 C65 1.232 . S
C65 O64 1.232 . S
C65 O66 1.218 . S
O66 C65 1.218 . S
C67 O60 1.275 . S
C67 O62 1.255 1_545 S
C68 O69 1.258 . S
C68 O70 1.256 . S
O69 Cd61 2.381 . S
O69 C68 1.258 . S
O70 Cd61 2.378 . S
O70 C68 1.256 . S
O71 Cd72 2.300 . S
O71 C78 1.275 . S
Cd72 O71 2.300 . S
Cd72 O80 2.381 . S
Cd72 O81 2.378 . S
O73 Cd74 2.385 . S
O73 C78 1.255 . S
Cd74 O73 2.385 . S
Cd74 O75 2.317 . S
O75 Cd74 2.317 . S
O75 C76 1.232 . S
C76 O75 1.232 . S
C76 O77 1.218 . S
O77 C76 1.218 . S
C78 O71 1.275 . S
C78 O73 1.255 . S
C79 O80 1.258 . S
C79 O81 1.256 . S
O80 Cd72 2.381 . S
O80 C79 1.258 . S
O81 Cd72 2.378 . S
O81 C79 1.256 . S
O82 Cd83 2.300 . S
O82 C89 1.275 . S
Cd83 O82 2.300 . S
Cd83 O91 2.381 . S
Cd83 O92 2.378 . S
O84 Cd85 2.385 1_455 S
O84 C89 1.255 . S
Cd85 O84 2.385 1_655 S
Cd85 O86 2.317 . S
O86 Cd85 2.317 . S
O86 C87 1.232 . S
C87 O86 1.232 . S
C87 O88 1.218 . S
O88 C87 1.218 . S
C89 O82 1.275 . S
C89 O84 1.255 . S
C90 O91 1.258 . S
C90 O92 1.256 . S
O91 Cd83 2.381 . S
O91 C90 1.258 . S
O92 Cd83 2.378 . S
O92 C90 1.256 . S
O93 Cd94 2.300 . S
O93 C100 1.275 1_455 S
Cd94 O93 2.300 . S
Cd94 O102 2.381 . S
Cd94 O103 2.378 . S
O95 Cd96 2.385 . S
O95 C100 1.255 . S
Cd96 O95 2.385 . S
Cd96 O97 2.317 . S
O97 Cd96 2.317 . S
O97 C98 1.232 . S
C98 O97 1.232 . S
C98 O99 1.218 . S
O99 C98 1.218 . S
C100 O93 1.275 1_655 S
C100 O95 1.255 . S
C101 O102 1.258 . S
C101 O103 1.256 . S
O102 Cd94 2.381 . S
O102 C101 1.258 . S
O103 Cd94 2.378 . S
O103 C101 1.256 . S
O104 Cd105 2.300 . S
O104 C111 1.275 1_565 S
Cd105 O104 2.300 . S
Cd105 O113 2.381 . S
Cd105 O114 2.378 . S
O106 Cd107 2.385 . S
O106 C111 1.255 . S
Cd107 O106 2.385 . S
Cd107 O108 2.317 . S
O108 Cd107 2.317 . S
O108 C109 1.232 . S
C109 O108 1.232 . S
C109 O110 1.218 . S
O110 C109 1.218 . S
C111 O104 1.275 1_545 S
C111 O106 1.255 . S
C112 O113 1.258 . S
C112 O114 1.256 . S
O113 Cd105 2.381 . S
O113 C112 1.258 . S
O114 Cd105 2.378 . S
O114 C112 1.256 . S
O115 Cd116 2.300 . S
O115 C122 1.275 . S
Cd116 O115 2.300 . S
Cd116 O124 2.381 . S
Cd116 O125 2.378 . S
O117 Cd118 2.385 . S
O117 C122 1.255 . S
Cd118 O117 2.385 . S
Cd118 O119 2.317 . S
O119 Cd118 2.317 . S
O119 C120 1.232 . S
C120 O119 1.232 . S
C120 O121 1.218 . S
O121 C120 1.218 . S
C122 O115 1.275 . S
C122 O117 1.255 . S
C123 O124 1.258 . S
C123 O125 1.256 . S
O124 Cd116 2.381 . S
O124 C123 1.258 . S
O125 Cd116 2.378 . S
O125 C123 1.256 . S
C126 C127 1.387 . S
C126 H130 0.950 . S
C126 C135 1.390 . S
C127 C126 1.387 . S
C127 C129 1.387 . S
H128 C135 0.950 . S
C129 C127 1.387 . S
C129 C131 1.390 . S
C129 H133 0.950 . S
H130 C126 0.950 . S
C131 C129 1.390 . S
C131 C132 1.387 . S
C131 H134 0.950 . S
C132 C131 1.387 . S
C132 C135 1.387 . S
H133 C129 0.950 . S
H134 C131 0.950 . S
C135 C126 1.390 . S
C135 H128 0.950 . S
C135 C132 1.387 . S
C136 C137 1.387 . S
C136 H140 0.950 . S
C136 C145 1.390 . S
C137 C136 1.387 . S
C137 C139 1.387 . S
H138 C145 0.950 . S
C139 C137 1.387 . S
C139 C141 1.390 . S
C139 H143 0.950 . S
H140 C136 0.950 . S
C141 C139 1.390 . S
C141 C142 1.387 . S
C141 H144 0.950 . S
C142 C141 1.387 . S
C142 C145 1.387 . S
H143 C139 0.950 . S
H144 C141 0.950 . S
C145 C136 1.390 . S
C145 H138 0.950 . S
C145 C142 1.387 . S
C146 C147 1.387 . S
C146 H150 0.950 . S
C146 C155 1.390 . S
C147 C146 1.387 . S
C147 C149 1.387 . S
H148 C155 0.950 . S
C149 C147 1.387 . S
C149 C151 1.390 . S
C149 H153 0.950 . S
H150 C146 0.950 . S
C151 C149 1.390 . S
C151 C152 1.387 . S
C151 H154 0.950 . S
C152 C151 1.387 . S
C152 C155 1.387 . S
H153 C149 0.950 . S
H154 C151 0.950 . S
C155 C146 1.390 . S
C155 H148 0.950 . S
C155 C152 1.387 . S
C156 C157 1.387 . S
C156 H160 0.950 . S
C156 C165 1.390 . S
C157 C156 1.387 . S
C157 C159 1.387 . S
H158 C165 0.950 . S
C159 C157 1.387 . S
C159 C161 1.390 . S
C159 H163 0.950 . S
H160 C156 0.950 . S
C161 C159 1.390 . S
C161 C162 1.387 . S
C161 H164 0.950 . S
C162 C161 1.387 . S
C162 C165 1.387 . S
H163 C159 0.950 . S
H164 C161 0.950 . S
C165 C156 1.390 . S
C165 H158 0.950 . S
C165 C162 1.387 . S
C166 C167 1.387 . S
C166 H170 0.950 . S
C166 C175 1.390 . S
C167 C166 1.387 . S
C167 C169 1.387 . S
H168 C175 0.950 . S
C169 C167 1.387 . S
C169 C171 1.390 . S
C169 H173 0.950 . S
H170 C166 0.950 . S
C171 C169 1.390 . S
C171 C172 1.387 . S
C171 H174 0.950 . S
C172 C171 1.387 . S
C172 C175 1.387 . S
H173 C169 0.950 . S
H174 C171 0.950 . S
C175 C166 1.390 . S
C175 H168 0.950 . S
C175 C172 1.387 . S
C176 C177 1.387 . S
C176 H180 0.950 . S
C176 C185 1.390 . S
C177 C176 1.387 . S
C177 C179 1.387 . S
H178 C185 0.950 . S
C179 C177 1.387 . S
C179 C181 1.390 . S
C179 H183 0.950 . S
H180 C176 0.950 . S
C181 C179 1.390 . S
C181 C182 1.387 . S
C181 H184 0.950 . S
C182 C181 1.387 . S
C182 C185 1.387 . S
H183 C179 0.950 . S
H184 C181 0.950 . S
C185 C176 1.390 . S
C185 H178 0.950 . S
C185 C182 1.387 . S
C186 C187 1.387 . S
C186 H190 0.950 . S
C186 C195 1.390 . S
C187 C186 1.387 . S
C187 C189 1.387 . S
H188 C195 0.950 . S
C189 C187 1.387 . S
C189 C191 1.390 . S
C189 H193 0.950 . S
H190 C186 0.950 . S
C191 C189 1.390 . S
C191 C192 1.387 . S
C191 H194 0.950 . S
C192 C191 1.387 . S
C192 C195 1.387 . S
H193 C189 0.950 . S
H194 C191 0.950 . S
C195 C186 1.390 . S
C195 H188 0.950 . S
C195 C192 1.387 . S
C196 C197 1.387 . S
C196 H200 0.950 . S
C196 C205 1.390 . S
C197 C196 1.387 . S
C197 C199 1.387 . S
H198 C205 0.950 . S
C199 C197 1.387 . S
C199 C201 1.390 . S
C199 H203 0.950 . S
H200 C196 0.950 . S
C201 C199 1.390 . S
C201 C202 1.387 . S
C201 H204 0.950 . S
C202 C201 1.387 . S
C202 C205 1.387 . S
H203 C199 0.950 . S
H204 C201 0.950 . S
C205 C196 1.390 . S
C205 H198 0.950 . S
C205 C202 1.387 . S
C206 C207 1.387 . S
C206 H210 0.950 . S
C206 C215 1.390 . S
C207 C206 1.387 . S
C207 C209 1.387 . S
H208 C215 0.950 . S
C209 C207 1.387 . S
C209 C211 1.390 . S
C209 H213 0.950 . S
H210 C206 0.950 . S
C211 C209 1.390 . S
C211 C212 1.387 . S
C211 H214 0.950 . S
C212 C211 1.387 . S
C212 C215 1.387 . S
H213 C209 0.950 . S
H214 C211 0.950 . S
C215 C206 1.390 . S
C215 H208 0.950 . S
C215 C212 1.387 . S
C216 C217 1.387 . S
C216 H220 0.950 . S
C216 C225 1.390 . S
C217 C216 1.387 . S
C217 C219 1.387 . S
H218 C225 0.950 . S
C219 C217 1.387 . S
C219 C221 1.390 . S
C219 H223 0.950 . S
H220 C216 0.950 . S
C221 C219 1.390 . S
C221 C222 1.387 . S
C221 H224 0.950 . S
C222 C221 1.387 . S
C222 C225 1.387 . S
H223 C219 0.950 . S
H224 C221 0.950 . S
C225 C216 1.390 . S
C225 H218 0.950 . S
C225 C222 1.387 . S
C226 C227 1.387 . S
C226 H230 0.950 . S
C226 C235 1.390 . S
C227 C226 1.387 . S
C227 C229 1.387 . S
H228 C235 0.950 . S
C229 C227 1.387 . S
C229 C231 1.390 . S
C229 H233 0.950 . S
H230 C226 0.950 . S
C231 C229 1.390 . S
C231 C232 1.387 . S
C231 H234 0.950 . S
C232 C231 1.387 . S
C232 C235 1.387 . S
H233 C229 0.950 . S
H234 C231 0.950 . S
C235 C226 1.390 . S
C235 H228 0.950 . S
C235 C232 1.387 . S
C236 C237 1.387 . S
C236 H240 0.950 . S
C236 C245 1.390 . S
C237 C236 1.387 . S
C237 C239 1.387 . S
H238 C245 0.950 . S
C239 C237 1.387 . S
C239 C241 1.390 . S
C239 H243 0.950 . S
H240 C236 0.950 . S
C241 C239 1.390 . S
C241 C242 1.387 . S
C241 H244 0.950 . S
C242 C241 1.387 . S
C242 C245 1.387 . S
H243 C239 0.950 . S
H244 C241 0.950 . S
C245 C236 1.390 . S
C245 H238 0.950 . S
C245 C242 1.387 . S
C246 C247 1.387 . S
C246 H250 0.950 . S
C246 C255 1.390 1_554 S
C247 C246 1.387 . S
C247 C249 1.387 . S
H248 C255 0.950 . S
C249 C247 1.387 . S
C249 C251 1.390 . S
C249 H253 0.950 . S
H250 C246 0.950 . S
C251 C249 1.390 . S
C251 C252 1.387 1_554 S
C251 H254 0.950 1_554 S
C252 C251 1.387 1_556 S
C252 C255 1.387 . S
H253 C249 0.950 . S
H254 C251 0.950 1_556 S
C255 C246 1.390 1_556 S
C255 H248 0.950 . S
C255 C252 1.387 . S
C256 C257 1.387 1_565 S
C256 H260 0.950 . S
C256 C265 1.390 . S
C257 C256 1.387 1_545 S
C257 C259 1.387 . S
H258 C265 0.950 . S
C259 C257 1.387 . S
C259 C261 1.390 . S
C259 H263 0.950 . S
H260 C256 0.950 . S
C261 C259 1.390 . S
C261 C262 1.387 . S
C261 H264 0.950 . S
C262 C261 1.387 . S
C262 C265 1.387 1_545 S
H263 C259 0.950 . S
H264 C261 0.950 . S
C265 C256 1.390 . S
C265 H258 0.950 . S
C265 C262 1.387 1_565 S
C266 C267 1.387 . S
C266 H270 0.950 . S
C266 C275 1.390 . S
C267 C266 1.387 . S
C267 C269 1.387 . S
H268 C275 0.950 . S
C269 C267 1.387 . S
C269 C271 1.390 . S
C269 H273 0.950 . S
H270 C266 0.950 . S
C271 C269 1.390 . S
C271 C272 1.387 . S
C271 H274 0.950 . S
C272 C271 1.387 . S
C272 C275 1.387 . S
H273 C269 0.950 . S
H274 C271 0.950 . S
C275 C266 1.390 . S
C275 H268 0.950 . S
C275 C272 1.387 . S
C276 C277 1.387 . S
C276 H280 0.950 . S
C276 C285 1.390 . S
C277 C276 1.387 . S
C277 C279 1.387 . S
H278 C285 0.950 . S
C279 C277 1.387 . S
C279 C281 1.390 . S
C279 H283 0.950 1_545 S
H280 C276 0.950 . S
C281 C279 1.390 . S
C281 C282 1.387 . S
C281 H284 0.950 . S
C282 C281 1.387 . S
C282 C285 1.387 . S
H283 C279 0.950 1_565 S
H284 C281 0.950 . S
C285 C276 1.390 . S
C285 H278 0.950 . S
C285 C282 1.387 . S
C286 C287 1.387 . S
C286 H290 0.950 . S
C286 C295 1.390 1_556 S
C287 C286 1.387 . S
C287 C289 1.387 . S
H288 C295 0.950 . S
C289 C287 1.387 . S
C289 C291 1.390 . S
C289 H293 0.950 . S
H290 C286 0.950 . S
C291 C289 1.390 . S
C291 C292 1.387 1_556 S
C291 H294 0.953 . S
C292 C291 1.387 1_554 S
C292 C295 1.387 . S
H293 C289 0.950 . S
H294 C291 0.953 . S
C295 C286 1.390 1_554 S
C295 H288 0.950 . S
C295 C292 1.387 . S
C296 C297 1.387 1_655 S
C296 H300 0.950 . S
C296 C305 1.390 . S
C297 C296 1.387 1_455 S
C297 C299 1.387 . S
H298 C305 0.950 . S
C299 C297 1.387 . S
C299 C301 1.390 . S
C299 H303 0.950 . S
H300 C296 0.950 . S
C301 C299 1.390 . S
C301 C302 1.387 1_455 S
C301 H304 0.950 . S
C302 C301 1.387 1_655 S
C302 C305 1.387 . S
H303 C299 0.950 . S
H304 C301 0.950 . S
C305 C296 1.390 . S
C305 H298 0.950 . S
C305 C302 1.387 . S
C127 C8 2.063 . S
C132 C120 1.807 . S
C137 C26 1.480 . S
C142 C98 1.318 . S
C147 C48 1.456 . S
C152 C112 1.478 . S
C157 C19 1.797 . S
C162 C123 1.753 . S
C172 C101 1.384 . S
C167 C36 1.387 . S
C182 C109 1.477 . S
C177 C59 1.687 . S
C187 C28 1.641 . S
C192 C76 1.449 . S
C197 C46 1.265 . S
C202 C87 1.068 . S
C207 C16 1.573 . S
C212 C65 1.288 . S
C222 C79 1.565 . S
C217 C39 1.578 . S
C232 C90 0.973 . S
C227 C56 0.977 . S
C237 C6 1.353 . S
C242 C68 1.293 . S
C252 C89 1.405 . S
C247 C9 1.453 . S
C257 C21 1.495 . S
C262 C67 1.446 . S
C267 C49 1.546 . S
C272 C78 1.461 . S
C282 C111 1.420 . S
C277 C29 1.459 . S
C292 C122 1.504 . S
C287 C41 1.585 . S
C297 C1 1.544 . S
C302 C100 1.471 . S
