# Generated by pormake.
# Topology cor, (4,6)-cn, num edge types: 1
# Building blocks:
#     Node 0, Type 0, BuildingBlock: ESEHIV_clean_sbu_0, # of connection points: 4
#     Node 1, Type 0, BuildingBlock: ESEHIV_clean_sbu_0, # of connection points: 4
#     Node 2, Type 0, BuildingBlock: ESEHIV_clean_sbu_0, # of connection points: 4
#     Node 3, Type 0, BuildingBlock: ESEHIV_clean_sbu_0, # of connection points: 4
#     Node 4, Type 0, BuildingBlock: ESEHIV_clean_sbu_0, # of connection points: 4
#     Node 5, Type 0, BuildingBlock: ESEHIV_clean_sbu_0, # of connection points: 4
#     Node 6, Type 0, BuildingBlock: ESEHIV_clean_sbu_0, # of connection points: 4
#     Node 7, Type 0, BuildingBlock: ESEHIV_clean_sbu_0, # of connection points: 4
#     Node 8, Type 0, BuildingBlock: ESEHIV_clean_sbu_0, # of connection points: 4
#     Node 9, Type 0, BuildingBlock: ESEHIV_clean_sbu_0, # of connection points: 4
#     Node 10, Type 0, BuildingBlock: ESEHIV_clean_sbu_0, # of connection points: 4
#     Node 11, Type 0, BuildingBlock: ESEHIV_clean_sbu_0, # of connection points: 4
#     Node 12, Type 0, BuildingBlock: ESEHIV_clean_sbu_0, # of connection points: 4
#     Node 13, Type 0, BuildingBlock: ESEHIV_clean_sbu_0, # of connection points: 4
#     Node 14, Type 0, BuildingBlock: ESEHIV_clean_sbu_0, # of connection points: 4
#     Node 15, Type 0, BuildingBlock: ESEHIV_clean_sbu_0, # of connection points: 4
#     Node 16, Type 0, BuildingBlock: ESEHIV_clean_sbu_0, # of connection points: 4
#     Node 17, Type 0, BuildingBlock: ESEHIV_clean_sbu_0, # of connection points: 4
#     Node 18, Type 1, BuildingBlock: MIDCAF_clean_sbu_0, # of connection points: 6
#     Node 19, Type 1, BuildingBlock: MIDCAF_clean_sbu_0, # of connection points: 6
#     Node 20, Type 1, BuildingBlock: MIDCAF_clean_sbu_0, # of connection points: 6
#     Node 21, Type 1, BuildingBlock: MIDCAF_clean_sbu_0, # of connection points: 6
#     Node 22, Type 1, BuildingBlock: MIDCAF_clean_sbu_0, # of connection points: 6
#     Node 23, Type 1, BuildingBlock: MIDCAF_clean_sbu_0, # of connection points: 6
#     Node 24, Type 1, BuildingBlock: MIDCAF_clean_sbu_0, # of connection points: 6
#     Node 25, Type 1, BuildingBlock: MIDCAF_clean_sbu_0, # of connection points: 6
#     Node 26, Type 1, BuildingBlock: MIDCAF_clean_sbu_0, # of connection points: 6
#     Node 27, Type 1, BuildingBlock: MIDCAF_clean_sbu_0, # of connection points: 6
#     Node 28, Type 1, BuildingBlock: MIDCAF_clean_sbu_0, # of connection points: 6
#     Node 29, Type 1, BuildingBlock: MIDCAF_clean_sbu_0, # of connection points: 6
#     Edge 30, Type (0, 1), BuildingBlock: OJICUG_clean_linker_0, # of connection points: 2
#     Edge 31, Type (0, 1), BuildingBlock: OJICUG_clean_linker_0, # of connection points: 2
#     Edge 32, Type (0, 1), BuildingBlock: OJICUG_clean_linker_0, # of connection points: 2
#     Edge 33, Type (0, 1), BuildingBlock: OJICUG_clean_linker_0, # of connection points: 2
#     Edge 34, Type (0, 1), BuildingBlock: OJICUG_clean_linker_0, # of connection points: 2
#     Edge 35, Type (0, 1), BuildingBlock: OJICUG_clean_linker_0, # of connection points: 2
#     Edge 36, Type (0, 1), BuildingBlock: OJICUG_clean_linker_0, # of connection points: 2
#     Edge 37, Type (0, 1), BuildingBlock: OJICUG_clean_linker_0, # of connection points: 2
#     Edge 38, Type (0, 1), BuildingBlock: OJICUG_clean_linker_0, # of connection points: 2
#     Edge 39, Type (0, 1), BuildingBlock: OJICUG_clean_linker_0, # of connection points: 2
#     Edge 40, Type (0, 1), BuildingBlock: OJICUG_clean_linker_0, # of connection points: 2
#     Edge 41, Type (0, 1), BuildingBlock: OJICUG_clean_linker_0, # of connection points: 2
#     Edge 42, Type (0, 1), BuildingBlock: OJICUG_clean_linker_0, # of connection points: 2
#     Edge 43, Type (0, 1), BuildingBlock: OJICUG_clean_linker_0, # of connection points: 2
#     Edge 44, Type (0, 1), BuildingBlock: OJICUG_clean_linker_0, # of connection points: 2
#     Edge 45, Type (0, 1), BuildingBlock: OJICUG_clean_linker_0, # of connection points: 2
#     Edge 46, Type (0, 1), BuildingBlock: OJICUG_clean_linker_0, # of connection points: 2
#     Edge 47, Type (0, 1), BuildingBlock: OJICUG_clean_linker_0, # of connection points: 2
#     Edge 48, Type (0, 1), BuildingBlock: OJICUG_clean_linker_0, # of connection points: 2
#     Edge 49, Type (0, 1), BuildingBlock: OJICUG_clean_linker_0, # of connection points: 2
#     Edge 50, Type (0, 1), BuildingBlock: OJICUG_clean_linker_0, # of connection points: 2
#     Edge 51, Type (0, 1), BuildingBlock: OJICUG_clean_linker_0, # of connection points: 2
#     Edge 52, Type (0, 1), BuildingBlock: OJICUG_clean_linker_0, # of connection points: 2
#     Edge 53, Type (0, 1), BuildingBlock: OJICUG_clean_linker_0, # of connection points: 2
#     Edge 54, Type (0, 1), BuildingBlock: OJICUG_clean_linker_0, # of connection points: 2
#     Edge 55, Type (0, 1), BuildingBlock: OJICUG_clean_linker_0, # of connection points: 2
#     Edge 56, Type (0, 1), BuildingBlock: OJICUG_clean_linker_0, # of connection points: 2
#     Edge 57, Type (0, 1), BuildingBlock: OJICUG_clean_linker_0, # of connection points: 2
#     Edge 58, Type (0, 1), BuildingBlock: OJICUG_clean_linker_0, # of connection points: 2
#     Edge 59, Type (0, 1), BuildingBlock: OJICUG_clean_linker_0, # of connection points: 2
#     Edge 60, Type (0, 1), BuildingBlock: OJICUG_clean_linker_0, # of connection points: 2
#     Edge 61, Type (0, 1), BuildingBlock: OJICUG_clean_linker_0, # of connection points: 2
#     Edge 62, Type (0, 1), BuildingBlock: OJICUG_clean_linker_0, # of connection points: 2
#     Edge 63, Type (0, 1), BuildingBlock: OJICUG_clean_linker_0, # of connection points: 2
#     Edge 64, Type (0, 1), BuildingBlock: OJICUG_clean_linker_0, # of connection points: 2
#     Edge 65, Type (0, 1), BuildingBlock: OJICUG_clean_linker_0, # of connection points: 2
#     Edge 66, Type (0, 1), BuildingBlock: OJICUG_clean_linker_0, # of connection points: 2
#     Edge 67, Type (0, 1), BuildingBlock: OJICUG_clean_linker_0, # of connection points: 2
#     Edge 68, Type (0, 1), BuildingBlock: OJICUG_clean_linker_0, # of connection points: 2
#     Edge 69, Type (0, 1), BuildingBlock: OJICUG_clean_linker_0, # of connection points: 2
#     Edge 70, Type (0, 1), BuildingBlock: OJICUG_clean_linker_0, # of connection points: 2
#     Edge 71, Type (0, 1), BuildingBlock: OJICUG_clean_linker_0, # of connection points: 2
#     Edge 72, Type (0, 1), BuildingBlock: OJICUG_clean_linker_0, # of connection points: 2
#     Edge 73, Type (0, 1), BuildingBlock: OJICUG_clean_linker_0, # of connection points: 2
#     Edge 74, Type (0, 1), BuildingBlock: OJICUG_clean_linker_0, # of connection points: 2
#     Edge 75, Type (0, 1), BuildingBlock: OJICUG_clean_linker_0, # of connection points: 2
#     Edge 76, Type (0, 1), BuildingBlock: OJICUG_clean_linker_0, # of connection points: 2
#     Edge 77, Type (0, 1), BuildingBlock: OJICUG_clean_linker_0, # of connection points: 2
#     Edge 78, Type (0, 1), BuildingBlock: OJICUG_clean_linker_0, # of connection points: 2
#     Edge 79, Type (0, 1), BuildingBlock: OJICUG_clean_linker_0, # of connection points: 2
#     Edge 80, Type (0, 1), BuildingBlock: OJICUG_clean_linker_0, # of connection points: 2
#     Edge 81, Type (0, 1), BuildingBlock: OJICUG_clean_linker_0, # of connection points: 2
#     Edge 82, Type (0, 1), BuildingBlock: OJICUG_clean_linker_0, # of connection points: 2
#     Edge 83, Type (0, 1), BuildingBlock: OJICUG_clean_linker_0, # of connection points: 2
#     Edge 84, Type (0, 1), BuildingBlock: OJICUG_clean_linker_0, # of connection points: 2
#     Edge 85, Type (0, 1), BuildingBlock: OJICUG_clean_linker_0, # of connection points: 2
#     Edge 86, Type (0, 1), BuildingBlock: OJICUG_clean_linker_0, # of connection points: 2
#     Edge 87, Type (0, 1), BuildingBlock: OJICUG_clean_linker_0, # of connection points: 2
#     Edge 88, Type (0, 1), BuildingBlock: OJICUG_clean_linker_0, # of connection points: 2
#     Edge 89, Type (0, 1), BuildingBlock: OJICUG_clean_linker_0, # of connection points: 2
#     Edge 90, Type (0, 1), BuildingBlock: OJICUG_clean_linker_0, # of connection points: 2
#     Edge 91, Type (0, 1), BuildingBlock: OJICUG_clean_linker_0, # of connection points: 2
#     Edge 92, Type (0, 1), BuildingBlock: OJICUG_clean_linker_0, # of connection points: 2
#     Edge 93, Type (0, 1), BuildingBlock: OJICUG_clean_linker_0, # of connection points: 2
#     Edge 94, Type (0, 1), BuildingBlock: OJICUG_clean_linker_0, # of connection points: 2
#     Edge 95, Type (0, 1), BuildingBlock: OJICUG_clean_linker_0, # of connection points: 2
#     Edge 96, Type (0, 1), BuildingBlock: OJICUG_clean_linker_0, # of connection points: 2
#     Edge 97, Type (0, 1), BuildingBlock: OJICUG_clean_linker_0, # of connection points: 2
#     Edge 98, Type (0, 1), BuildingBlock: OJICUG_clean_linker_0, # of connection points: 2
#     Edge 99, Type (0, 1), BuildingBlock: OJICUG_clean_linker_0, # of connection points: 2
#     Edge 100, Type (0, 1), BuildingBlock: OJICUG_clean_linker_0, # of connection points: 2
#     Edge 101, Type (0, 1), BuildingBlock: OJICUG_clean_linker_0, # of connection points: 2
# Relax obj value: 0.152
# Max RMSD: 0.301
# Mean RMSD: 0.237
data_MOF--net-cor--node1-ESEHIV_clean_sbu_0--node2-MIDCAF_clean_sbu_0--edge1-OJICUG_clean_linker_0
_symmetry_space_group_name_H-M    P1
_symmetry_Int_Tables_number       1
_symmetry_cell_setting            triclinic
loop_
_symmetry_equiv_pos_as_xyz
'x, y, z'
_cell_length_a     29.809563
_cell_length_b     28.271459
_cell_length_c     82.616547
_cell_angle_alpha  92.352801
_cell_angle_beta   92.725154
_cell_angle_gamma 120.21978
loop_
_atom_site_label
_atom_site_type_symbol
_atom_site_fract_x
_atom_site_fract_y
_atom_site_fract_z
_atom_type_partial_charge
Cu0 Cu 0.75388 0.02404 0.28509 0.0
N1 N 0.7653 0.99946 0.26502 0.0
N2 N 0.80221 0.01062 0.2413 0.0
C3 C 0.80988 0.02476 0.25749 0.0
C4 C 0.75095 0.97342 0.23865 0.0
C5 C 0.72829 0.96706 0.25322 0.0
O6 O 0.75245 0.09086 0.28057 0.0
C7 C 0.79764 0.0455 0.31718 0.0
O8 O 0.76209 0.05911 0.31935 0.0
H9 H 0.84677 0.05541 0.26364 0.0
H10 H 0.68704 0.94411 0.25483 0.0
N11 N 0.68869 0.97421 0.29226 0.0
N12 N 0.63068 0.91757 0.30875 0.0
C13 C 0.67754 0.93489 0.30278 0.0
C14 C 0.64721 0.98116 0.29148 0.0
C15 C 0.61148 0.94639 0.30159 0.0
C16 C 0.78472 0.12998 0.27256 0.0
O17 O 0.82877 0.13314 0.26933 0.0
H18 H 0.70461 0.92211 0.30685 0.0
H19 H 0.64462 0.01195 0.28481 0.0
O20 O 0.80407 0.03313 0.30278 0.0
H21 H 0.73057 0.9551 0.22686 0.0
H22 H 0.5747 0.94341 0.30386 0.0
Cu23 Cu 0.02131 0.74857 0.28678 0.0
N24 N 0.0426 0.7758 0.2665 0.0
N25 N 0.03399 0.80491 0.24236 0.0
C26 C 0.02532 0.80443 0.25828 0.0
C27 C 0.05955 0.77716 0.2406 0.0
C28 C 0.06437 0.7588 0.25549 0.0
O29 O 0.95329 0.68232 0.28261 0.0
C30 C 0.02365 0.80413 0.31657 0.0
O31 O 0.02935 0.76598 0.32327 0.0
H32 H 1.00347 0.82127 0.26367 0.0
H33 H 0.079 0.73144 0.25783 0.0
N34 N 0.06573 0.72833 0.29713 0.0
N35 N 0.12929 0.73123 0.31347 0.0
C36 C 0.11453 0.76025 0.30422 0.0
C37 C 0.04968 0.67769 0.30191 0.0
C38 C 0.08868 0.67929 0.31192 0.0
C39 C 0.91785 0.67629 0.27203 0.0
O40 O 0.92362 0.71842 0.26433 0.0
H41 H 0.13765 0.80411 0.30326 0.0
H42 H 0.01132 0.64243 0.29884 0.0
O43 O 0.01802 0.80289 0.30111 0.0
H44 H 0.07061 0.76751 0.22918 0.0
H45 H 0.08729 0.64484 0.31763 0.0
Cu46 Cu 0.31177 0.3089 0.2899 0.0
N47 N 0.30751 0.27626 0.30966 0.0
N48 N 0.28434 0.25137 0.33484 0.0
C49 C 0.29578 0.28999 0.32407 0.0
C50 C 0.29121 0.21282 0.327 0.0
C51 C 0.30539 0.22821 0.31156 0.0
O52 O 0.30282 0.37214 0.29383 0.0
C53 C 0.26489 0.26506 0.25815 0.0
O54 O 0.29714 0.31501 0.25419 0.0
H55 H 0.29301 0.32623 0.32637 0.0
H56 H 0.30989 0.20403 0.30198 0.0
N57 N 0.37646 0.33352 0.28157 0.0
N58 N 0.43436 0.33509 0.265 0.0
C59 C 0.39115 0.30322 0.27266 0.0
C60 C 0.41177 0.38614 0.27959 0.0
C61 C 0.44762 0.38726 0.26945 0.0
C62 C 0.26721 0.37317 0.30155 0.0
O63 O 0.22848 0.32733 0.30606 0.0
H64 H 0.36888 0.25884 0.27105 0.0
H65 H 0.40995 0.42117 0.28448 0.0
O66 O 0.26205 0.25499 0.27311 0.0
H67 H 0.28186 0.17368 0.33147 0.0
H68 H 0.48064 0.42369 0.26552 0.0
Cu69 Cu 0.31072 0.04092 0.79353 0.0
N70 N 0.30497 0.06525 0.81448 0.0
N71 N 0.26908 0.05556 0.8383 0.0
C72 C 0.26037 0.04523 0.82197 0.0
C73 C 0.32131 0.08535 0.84118 0.0
C74 C 0.34332 0.0908 0.82649 0.0
O75 O 0.30357 0.96853 0.79566 0.0
C76 C 0.26487 0.03559 0.7622 0.0
O77 O 0.29557 0.01782 0.75743 0.0
H78 H 0.22222 0.01978 0.81566 0.0
H79 H 0.3843 0.10796 0.82486 0.0
N80 N 0.37635 0.08638 0.78594 0.0
N81 N 0.43415 0.14064 0.76902 0.0
C82 C 0.38967 0.12767 0.77603 0.0
C83 C 0.41413 0.07371 0.78532 0.0
C84 C 0.44976 0.10705 0.77494 0.0
C85 C 0.27458 0.9328 0.80519 0.0
O86 O 0.23909 0.93842 0.81236 0.0
H87 H 0.36531 0.14484 0.77303 0.0
H88 H 0.41383 0.03997 0.79114 0.0
O89 O 0.26185 0.04284 0.77739 0.0
H90 H 0.34207 0.09844 0.8531 0.0
H91 H 0.4838 0.10566 0.77161 0.0
Cu92 Cu 0.03511 0.31666 0.78953 0.0
N93 N 0.01562 0.29109 0.81015 0.0
N94 N 0.02492 0.26224 0.83428 0.0
C95 C 0.03173 0.26119 0.81824 0.0
C96 C 1.00163 0.2922 0.83629 0.0
C97 C 0.99634 0.31033 0.8214 0.0
O98 O 0.10621 0.37922 0.79245 0.0
C99 C 0.03173 0.26609 0.75918 0.0
O100 O 0.04821 0.31552 0.75436 0.0
H101 H 0.05171 0.24245 0.81265 0.0
H102 H 0.98323 0.33905 0.81921 0.0
N103 N 0.99281 0.34112 0.78018 0.0
N104 N 0.9343 0.34288 0.76256 0.0
C105 C 0.9481 0.31092 0.77065 0.0
C106 C 1.00743 0.39378 0.77815 0.0
C107 C 0.97137 0.39501 0.76737 0.0
C108 C 0.14129 0.38379 0.80294 0.0
O109 O 0.13293 0.34187 0.8112 0.0
H110 H 0.92778 0.26656 0.76896 0.0
H111 H 0.04322 0.42879 0.78351 0.0
O112 O 0.02732 0.25851 0.77427 0.0
H113 H 0.99272 0.3036 0.84785 0.0
H114 H 0.97256 0.4315 0.76329 0.0
Cu115 Cu 0.75913 0.75711 0.78712 0.0
N116 N 0.7664 0.78658 0.76676 0.0
N117 N 0.80443 0.81392 0.74346 0.0
C118 C 0.81172 0.81412 0.75975 0.0
C119 C 0.75237 0.78726 0.74013 0.0
C120 C 0.72902 0.77003 0.75449 0.0
O121 O 0.76533 0.69174 0.78384 0.0
C122 C 0.8041 0.8017 0.8189 0.0
O123 O 0.77085 0.75215 0.8229 0.0
H124 H 0.84941 0.83001 0.76631 0.0
H125 H 0.68791 0.74302 0.75567 0.0
N126 N 0.69349 0.73443 0.79455 0.0
N127 N 0.63388 0.73314 0.8103 0.0
C128 C 0.67879 0.76491 0.80339 0.0
C129 C 0.65639 0.68191 0.79579 0.0
C130 C 0.61955 0.68097 0.80542 0.0
C131 C 0.79671 0.68807 0.77458 0.0
O132 O 0.8338 0.73233 0.76887 0.0
H133 H 0.70206 0.80912 0.80552 0.0
H134 H 0.65754 0.64666 0.79073 0.0
O135 O 0.8083 0.81122 0.8039 0.0
H136 H 0.73271 0.77693 0.72805 0.0
H137 H 0.5851 0.64467 0.80874 0.0
Cu138 Cu 0.42429 0.36937 0.61934 0.0
N139 N 0.42713 0.33721 0.59933 0.0
N140 N 0.45365 0.33418 0.57451 0.0
C141 C 0.46801 0.35626 0.59005 0.0
C142 C 0.40191 0.29867 0.57415 0.0
C143 C 0.38569 0.30099 0.58939 0.0
O144 O 0.42589 0.43733 0.61429 0.0
C145 C 0.47447 0.39418 0.6505 0.0
O146 O 0.44268 0.41277 0.65296 0.0
H147 H 0.50718 0.38741 0.59446 0.0
H148 H 0.34587 0.2806 0.59269 0.0
N149 N 0.36109 0.32526 0.62848 0.0
N150 N 0.30637 0.27109 0.64611 0.0
C151 C 0.34937 0.28385 0.63822 0.0
C152 C 0.32395 0.33843 0.63018 0.0
C153 C 0.29019 0.30511 0.64098 0.0
C154 C 0.4543 0.47178 0.60438 0.0
O155 O 0.49344 0.46911 0.59876 0.0
H156 H 0.37355 0.26584 0.64025 0.0
H157 H 0.32319 0.37205 0.62464 0.0
O158 O 0.47673 0.37775 0.63609 0.0
H159 H 0.377 0.27495 0.56345 0.0
H160 H 0.25661 0.30626 0.64493 0.0
Cu161 Cu 0.69508 0.08317 0.6195 0.0
N162 N 0.72267 0.1143 0.60017 0.0
N163 N 0.72678 0.14936 0.57612 0.0
C164 C 0.70784 0.14295 0.59091 0.0
C165 C 0.75613 0.12544 0.57626 0.0
C166 C 0.75315 0.10344 0.59106 0.0
O167 O 0.62731 0.01768 0.61383 0.0
C168 C 0.69212 0.13259 0.64974 0.0
O169 O 0.69798 0.09384 0.65593 0.0
H170 H 0.68185 0.15684 0.5947 0.0
H171 H 0.76975 0.07873 0.59462 0.0
N172 N 0.73815 0.06249 0.63037 0.0
N173 N 0.8021 0.06792 0.64705 0.0
C174 C 0.78683 0.09542 0.63735 0.0
C175 C 0.7225 0.01256 0.63567 0.0
C176 C 0.76185 0.01573 0.64592 0.0
C177 C 0.59508 0.01285 0.60223 0.0
O178 O 0.60505 0.05503 0.59387 0.0
H179 H 0.80948 0.13907 0.63598 0.0
H180 H 0.68424 0.97691 0.63281 0.0
O181 O 0.68868 0.13442 0.63433 0.0
H182 H 0.77617 0.12178 0.56612 0.0
H183 H 0.76092 0.98223 0.65209 0.0
Cu184 Cu 0.97163 0.65109 0.62259 0.0
N185 N 0.97016 0.61984 0.64241 0.0
N186 N 0.94327 0.5914 0.66693 0.0
C187 C 0.92895 0.59467 0.65143 0.0
C188 C 0.99532 0.61332 0.66757 0.0
C189 C 0.01183 0.63127 0.65248 0.0
O190 O 0.96614 0.71621 0.62758 0.0
C191 C 0.91997 0.61597 0.59161 0.0
O192 O 0.95233 0.66758 0.58917 0.0
H193 H 0.8894 0.58151 0.64695 0.0
H194 H 0.0518 0.65466 0.64942 0.0
N195 N 0.03504 0.67443 0.61339 0.0
N196 N 0.09322 0.6748 0.59713 0.0
C197 C 0.05021 0.64355 0.60499 0.0
C198 C 0.06974 0.72674 0.61084 0.0
C199 C 0.10569 0.72714 0.60089 0.0
C200 C 0.93704 0.7198 0.63783 0.0
O201 O 0.90262 0.67582 0.64439 0.0
H202 H 0.02887 0.59911 0.60406 0.0
H203 H 0.06775 0.76204 0.61536 0.0
O204 O 0.91896 0.60003 0.6059 0.0
H205 H 0.01996 0.61919 0.67841 0.0
H206 H 0.13854 0.76321 0.59674 0.0
Cu207 Cu 0.9749 0.36292 0.12288 0.0
N208 N 0.96923 0.38765 0.14376 0.0
N209 N 0.93375 0.37713 0.16768 0.0
C210 C 0.92478 0.36653 0.15136 0.0
C211 C 0.98596 0.40812 0.17043 0.0
C212 C 1.00773 0.41406 0.15568 0.0
O213 O 0.97022 0.29198 0.12569 0.0
C214 C 0.92815 0.3576 0.09158 0.0
O215 O 0.95972 0.34141 0.08652 0.0
H216 H 0.88666 0.34033 0.14512 0.0
H217 H 0.04874 0.43212 0.15396 0.0
N218 N 0.03986 0.409 0.11499 0.0
N219 N 0.09644 0.46467 0.098 0.0
C220 C 0.05261 0.45123 0.10549 0.0
C221 C 0.07734 0.39617 0.1136 0.0
C222 C 0.11224 0.4304 0.1032 0.0
C223 C 0.94089 0.25589 0.13508 0.0
O224 O 0.90203 0.25848 0.14095 0.0
H225 H 0.02832 0.46895 0.10317 0.0
H226 H 0.07737 0.36189 0.11894 0.0
O227 O 0.92483 0.36328 0.10684 0.0
H228 H 1.00699 0.42181 0.18231 0.0
H229 H 0.14606 0.42937 0.09943 0.0
Cu230 Cu 0.70481 0.64539 0.1229 0.0
N231 N 0.68528 0.61837 0.14333 0.0
N232 N 0.69475 0.58855 0.16725 0.0
C233 C 0.70193 0.58859 0.15122 0.0
C234 C 0.67065 0.61762 0.16944 0.0
C235 C 0.66526 0.63636 0.15468 0.0
O236 O 0.77532 0.70908 0.12611 0.0
C237 C 0.70099 0.59645 0.09213 0.0
O238 O 0.71596 0.6458 0.08749 0.0
H239 H 0.72255 0.5708 0.14552 0.0
H240 H 0.65153 0.66466 0.15265 0.0
N241 N 0.66133 0.66885 0.11392 0.0
N242 N 0.59863 0.66733 0.09755 0.0
C243 C 0.61374 0.63722 0.10605 0.0
C244 C 0.6765 0.72054 0.11037 0.0
C245 C 0.63787 0.71978 0.10033 0.0
C246 C 0.81026 0.7145 0.13681 0.0
O247 O 0.80246 0.67275 0.14507 0.0
H248 H 0.59203 0.59285 0.1058 0.0
H249 H 0.71419 0.75594 0.11414 0.0
O250 O 0.69782 0.58845 0.10723 0.0
H251 H 0.66118 0.62797 0.18106 0.0
H252 H 0.63875 0.75502 0.09533 0.0
Cu253 Cu 0.42356 0.08557 0.11762 0.0
N254 N 0.43061 0.11512 0.09727 0.0
N255 N 0.46847 0.14312 0.07399 0.0
C256 C 0.47586 0.14299 0.09026 0.0
C257 C 0.41639 0.11632 0.07068 0.0
C258 C 0.39315 0.09869 0.08504 0.0
O259 O 0.43042 0.02058 0.11446 0.0
C260 C 0.46891 0.12899 0.14933 0.0
O261 O 0.43615 0.07898 0.15311 0.0
H262 H 0.51362 0.1589 0.09678 0.0
H263 H 0.35206 0.07155 0.08623 0.0
N264 N 0.358 0.06272 0.12516 0.0
N265 N 0.29922 0.06044 0.14149 0.0
C266 C 0.34408 0.09264 0.13462 0.0
C267 C 0.3204 0.01013 0.12595 0.0
C268 C 0.28407 1.00859 0.13595 0.0
C269 C 0.46166 0.01685 0.10513 0.0
O270 O 0.4976 0.06077 0.09895 0.0
H271 H 0.36797 0.13662 0.13725 0.0
H272 H 0.32096 0.97514 0.12039 0.0
O273 O 0.47271 0.13946 0.1344 0.0
H274 H 0.39667 0.10618 0.05862 0.0
H275 H 0.24952 0.97206 0.1391 0.0
Cu276 Cu 0.09156 0.70422 0.95122 0.0
N277 N 0.09618 0.67896 0.93024 0.0
N278 N 0.13109 0.68741 0.90628 0.0
C279 C 0.14043 0.69819 0.92259 0.0
C280 C 0.07878 0.65813 0.9036 0.0
C281 C 0.05738 0.65344 0.91837 0.0
O282 O 0.09839 0.77654 0.94888 0.0
C283 C 0.13831 0.70833 0.98237 0.0
O284 O 0.10742 0.72536 0.98748 0.0
H285 H 0.17881 0.72353 0.92877 0.0
H286 H 0.01656 0.63685 0.92014 0.0
N287 N 0.02655 0.65907 0.95926 0.0
N288 N 0.96987 0.60356 0.97627 0.0
C289 C 0.01321 0.61629 0.96858 0.0
C290 C 0.98996 0.67303 0.96098 0.0
C291 C 0.955 0.63891 0.97139 0.0
C292 C 0.12601 0.81123 0.93888 0.0
O293 O 0.16052 0.80482 0.93137 0.0
H294 H 0.0368 0.5976 0.97063 0.0
H295 H 0.99062 0.70796 0.95586 0.0
O296 O 0.14123 0.70236 0.9671 0.0
H297 H 0.05758 0.64491 0.89174 0.0
H298 H 0.92179 0.64073 0.97538 0.0
Cu299 Cu 0.36145 0.42288 0.95221 0.0
N300 N 0.38044 0.44833 0.9316 0.0
N301 N 0.37028 0.47637 0.90744 0.0
C302 C 0.36395 0.47788 0.92351 0.0
C303 C 0.3937 0.44656 0.90541 0.0
C304 C 0.39952 0.42892 0.92032 0.0
O305 O 0.29039 0.36017 0.94945 0.0
C306 C 0.36648 0.47293 0.98279 0.0
O307 O 0.35064 0.4234 0.98743 0.0
H308 H 0.34401 0.49663 0.92911 0.0
H309 H 0.4128 0.40034 0.92254 0.0
N310 N 0.40448 0.39898 0.96124 0.0
N311 N 0.46722 0.40066 0.97763 0.0
C312 C 0.45221 0.43062 0.96901 0.0
C313 C 0.38908 0.34739 0.96497 0.0
C314 C 0.42775 0.34825 0.97502 0.0
C315 C 0.25504 0.35569 0.93908 0.0
O316 O 0.26314 0.39769 0.93091 0.0
H317 H 0.47409 0.47495 0.96912 0.0
H318 H 0.35123 0.31206 0.96132 0.0
O319 O 0.3698 0.48087 0.96769 0.0
H320 H 0.4023 0.43489 0.89384 0.0
H321 H 0.42673 0.31312 0.98014 0.0
Cu322 Cu 0.63654 0.98161 0.95556 0.0
N323 N 0.63039 0.9525 0.97595 0.0
N324 N 0.59346 0.92479 0.99938 0.0
C325 C 0.58546 0.92449 0.98312 0.0
C326 C 0.64561 0.95201 1.00252 0.0
C327 C 0.66827 0.96945 0.98807 0.0
O328 O 0.62958 0.04658 0.9588 0.0
C329 C 0.59112 0.93618 0.92391 0.0
O330 O 0.62407 0.98573 0.91983 0.0
H331 H 0.54748 0.90824 0.97672 0.0
H332 H 0.70923 0.99681 0.98674 0.0
N333 N 0.70197 1.00468 0.94791 0.0
N334 N 0.76138 1.00578 0.9321 0.0
C335 C 0.71692 0.9741 0.93923 0.0
C336 C 0.73845 0.0572 0.94632 0.0
C337 C 0.77517 0.05802 0.93665 0.0
C338 C 0.59938 0.05078 0.96848 0.0
O339 O 0.56404 1.00714 0.97493 0.0
H340 H 0.69413 0.92979 0.9374 0.0
H341 H 0.73694 0.09246 0.95117 0.0
O342 O 0.58721 0.92691 0.93892 0.0
H343 H 0.66575 0.96253 1.01453 0.0
H344 H 0.80919 0.0943 0.9331 0.0
Cu345 Cu 0.64632 0.70375 0.45739 0.0
N346 N 0.64337 0.73437 0.47774 0.0
N347 N 0.6116 0.7361 0.50172 0.0
C348 C 0.6002 0.71949 0.48571 0.0
C349 C 0.66408 0.76454 0.50377 0.0
C350 C 0.6835 0.76301 0.48902 0.0
O351 O 0.63661 0.63059 0.46097 0.0
C352 C 0.60036 0.69579 0.4258 0.0
O353 O 0.63173 0.67853 0.42134 0.0
H354 H 0.5611 0.69342 0.4801 0.0
H355 H 0.72389 0.77803 0.48695 0.0
N356 N 0.71146 0.74605 0.44905 0.0
N357 N 0.77006 0.80195 0.43254 0.0
C358 C 0.72717 0.79055 0.44032 0.0
C359 C 0.74595 0.72943 0.44682 0.0
C360 C 0.78208 0.76377 0.43672 0.0
C361 C 0.61138 0.60043 0.47223 0.0
O362 O 0.58326 0.61379 0.48092 0.0
H363 H 0.70569 0.8118 0.43883 0.0
H364 H 0.7432 0.69291 0.45146 0.0
O365 O 0.59721 0.70406 0.44093 0.0
H366 H 0.68672 0.78187 0.51531 0.0
H367 H 0.81424 0.76033 0.43251 0.0
Cu368 Cu 0.36517 0.9755 0.45426 0.0
N369 N 0.33513 0.94419 0.4733 0.0
N370 N 0.32976 0.91303 0.49806 0.0
C371 C 0.3565 0.9268 0.48461 0.0
C372 C 0.28963 0.92169 0.49494 0.0
C373 C 0.29327 0.94125 0.47972 0.0
O374 O 0.43713 0.03284 0.46071 0.0
C375 C 0.36331 0.92464 0.42369 0.0
O376 O 0.3795 0.97354 0.41849 0.0
H377 H 0.39136 0.92486 0.48299 0.0
H378 H 0.26811 0.95393 0.47395 0.0
N379 N 0.32965 1.00575 0.4438 0.0
N380 N 0.27348 0.01111 0.42608 0.0
C381 C 0.28381 0.97769 0.43475 0.0
C382 C 0.34894 0.05868 0.44084 0.0
C383 C 0.31429 0.06217 0.42999 0.0
C384 C 0.44668 0.06107 0.47422 0.0
O385 O 0.4078 0.05229 0.48291 0.0
H386 H 0.25974 0.93339 0.43399 0.0
H387 H 0.38649 0.09208 0.44574 0.0
O388 O 0.35882 0.91813 0.43885 0.0
H389 H 0.26023 0.91536 0.50317 0.0
H390 H 0.3188 0.09948 0.42537 0.0
Cu391 Cu 0.08721 0.42689 0.45175 0.0
N392 N 0.09739 0.46275 0.4324 0.0
N393 N 0.12524 0.4871 0.40763 0.0
C394 C 0.10857 0.44733 0.41816 0.0
C395 C 0.12254 0.52852 0.41539 0.0
C396 C 0.10546 0.51343 0.43062 0.0
O397 O 0.09244 0.36183 0.44741 0.0
C398 C 0.13462 0.45457 0.48327 0.0
O399 O 0.1037 0.40173 0.48446 0.0
H400 H 0.10742 0.40886 0.41585 0.0
H401 H 0.10304 0.53923 0.44016 0.0
N402 N 0.02181 0.40449 0.4592 0.0
N403 N 0.96309 0.40276 0.47541 0.0
C404 C 1.00795 0.43472 0.46852 0.0
C405 C 0.98431 0.35195 0.46016 0.0
C406 C 0.94798 0.35075 0.47008 0.0
C407 C 0.12937 0.36065 0.44059 0.0
O408 O 0.17049 0.40662 0.43726 0.0
H409 H 0.03176 0.47878 0.47098 0.0
H410 H 0.98493 0.3168 0.45475 0.0
O411 O 0.13628 0.47436 0.46957 0.0
H412 H 0.13667 0.56887 0.41104 0.0
H413 H 0.91341 0.3144 0.47331 0.0
Zn414 Zn 0.04546 0.04206 0.15513 0.0
Zn415 Zn 0.02342 0.03193 0.20955 0.0
Zn416 Zn 0.03435 0.03822 0.18261 0.0
C417 C 0.98191 0.92839 0.20199 0.0
C418 C 0.12487 0.08882 0.21198 0.0
O419 O 0.99417 0.08219 0.17245 0.0
O420 O 0.03851 0.10478 0.15081 0.0
C421 C 0.97599 0.93527 0.15694 0.0
O422 O 1.00572 0.95204 0.18947 0.0
O423 O 0.97024 0.95478 0.21191 0.0
O424 O 0.09152 0.05171 0.21988 0.0
O425 O 0.11192 0.09266 0.19713 0.0
O426 O 0.98788 0.97036 0.14658 0.0
O427 O 0.99578 0.95151 0.17172 0.0
O428 O 0.12071 0.08317 0.18004 0.0
O429 O 0.11523 0.05426 0.15442 0.0
C430 C 0.14253 0.07817 0.16746 0.0
O431 O 0.97611 0.06307 0.18927 0.0
O432 O 1.00357 0.0869 0.21499 0.0
C433 C 1.00819 0.11015 0.15979 0.0
C434 C 0.97191 0.08119 0.2034 0.0
Zn435 Zn 0.02731 0.07693 0.36072 0.0
Zn436 Zn 0.0314 0.03283 0.41363 0.0
Zn437 Zn 0.03082 0.04941 0.38544 0.0
C438 C 0.07516 0.14491 0.414 0.0
C439 C 0.92827 0.97502 0.40426 0.0
O440 O 0.0505 0.99762 0.3705 0.0
O441 O 1.00443 1.00309 0.34983 0.0
C442 C 0.11963 0.15624 0.37058 0.0
O443 O 0.07494 0.13297 0.39872 0.0
O444 O 0.05586 0.10681 0.42345 0.0
O445 O 0.95902 0.97987 0.41603 0.0
O446 O 0.94643 1.00072 0.39141 0.0
O447 O 0.0972 0.13161 0.35704 0.0
O448 O 0.09687 0.13727 0.38371 0.0
O449 O 0.94957 0.02545 0.37524 0.0
O450 O 0.97783 0.1032 0.36392 0.0
C451 C 0.93997 0.05891 0.36769 0.0
O452 O 0.07307 1.00339 0.38679 0.0
O453 O 0.08023 1.00569 0.41358 0.0
C454 C 0.02753 0.98026 0.3561 0.0
C455 C 0.09155 0.99445 0.39999 0.0
Zn456 Zn 0.01925 0.02757 0.92236 0.0
Zn457 Zn 0.04447 0.03933 0.86742 0.0
Zn458 Zn 0.0318 0.03216 0.89437 0.0
C459 C 0.08204 0.14221 0.87467 0.0
C460 C 0.94252 0.97956 0.86471 0.0
O461 O 0.07296 0.98948 0.9049 0.0
O462 O 0.03302 0.96987 0.92746 0.0
C463 C 0.0863 0.13605 0.91989 0.0
O464 O 0.0587 0.11811 0.88721 0.0
O465 O 0.09515 0.11691 0.86485 0.0
O466 O 0.97605 0.01615 0.85672 0.0
O467 O 0.95496 0.97674 0.87971 0.0
O468 O 0.07276 0.10181 0.93056 0.0
O469 O 0.0691 0.11883 0.90496 0.0
O470 O 0.94531 0.98606 0.89661 0.0
O471 O 0.94719 1.00838 0.92264 0.0
C472 C 0.92157 0.98688 0.90919 0.0
O473 O 0.09098 1.00783 0.88833 0.0
O474 O 0.06796 0.98757 0.86223 0.0
C475 C 0.06229 0.96408 0.9181 0.0
C476 C 0.09723 0.99118 0.87427 0.0
Zn477 Zn 0.03347 0.02318 0.71803 0.0
Zn478 Zn 0.04897 0.05181 0.66214 0.0
Zn479 Zn 0.04251 0.03638 0.69129 0.0
C480 C 0.99644 0.93891 0.66302 0.0
C481 C 0.15068 0.10115 0.67419 0.0
O482 O 0.01433 0.08861 0.70316 0.0
O483 O 0.98002 0.04063 0.72402 0.0
C484 C 0.98046 0.92237 0.70812 0.0
O485 O 0.99848 0.95261 0.67824 0.0
O486 O 0.01679 0.97584 0.65325 0.0
O487 O 0.1236 0.09486 0.66125 0.0
O488 O 0.12831 0.08062 0.68722 0.0
O489 O 0.01504 0.94615 0.7197 0.0
O490 O 0.98393 0.94888 0.69544 0.0
O491 O 0.12097 0.06132 0.70409 0.0
O492 O 0.10205 0.07693 0.72833 0.0
C493 C 0.13488 0.07692 0.71932 0.0
O494 O 1.00378 0.08395 0.68535 0.0
O495 O 0.00902 0.08885 0.6589 0.0
C496 C 0.9907 0.08213 0.71631 0.0
C497 C 0.9922 0.09745 0.67174 0.0
Zn498 Zn 0.69071 0.37192 0.5415 0.0
Zn499 Zn 0.70229 0.36833 0.48688 0.0
Zn500 Zn 0.69555 0.37371 0.51559 0.0
C501 C 0.80373 0.4178 0.50039 0.0
C502 C 0.63724 0.26118 0.49261 0.0
O503 O 0.63579 0.39543 0.52238 0.0
O504 O 0.61395 0.33271 0.53994 0.0
C505 C 0.77325 0.46372 0.5416 0.0
O506 O 0.78133 0.41857 0.5133 0.0
O507 O 0.77686 0.39525 0.48716 0.0
O508 O 0.65302 0.29007 0.48064 0.0
O509 O 0.65287 0.28432 0.50719 0.0
O510 O 0.7311 0.45172 0.54766 0.0
O511 O 0.77228 0.43314 0.52937 0.0
O512 O 0.67469 0.29017 0.52314 0.0
O513 O 0.72577 0.32954 0.54549 0.0
C514 C 0.70144 0.28804 0.53556 0.0
O515 O 0.65433 0.41632 0.50603 0.0
O516 O 0.68019 0.42043 0.48134 0.0
C517 C 0.60276 0.36296 0.532 0.0
C518 C 0.65816 0.43398 0.49169 0.0
Zn519 Zn 0.69149 0.35775 0.74741 0.0
Zn520 Zn 0.69168 0.3929 0.69473 0.0
Zn521 Zn 0.69213 0.37446 0.71962 0.0
C522 C 0.61044 0.39208 0.70081 0.0
C523 C 0.78416 0.46955 0.70456 0.0
O524 O 0.73368 0.32756 0.72135 0.0
O525 O 0.73984 0.3301 0.74814 0.0
C526 C 0.58839 0.30252 0.73754 0.0
O527 O 0.61328 0.3556 0.70901 0.0
O528 O 0.65216 0.43206 0.69683 0.0
O529 O 0.76623 0.43451 0.69261 0.0
O530 O 0.75619 0.46172 0.71677 0.0
O531 O 0.61861 0.30541 0.7492 0.0
O532 O 0.60719 0.32897 0.72486 0.0
O533 O 0.73751 0.45852 0.73244 0.0
O534 O 0.7161 0.43216 0.75702 0.0
C535 C 0.73682 0.4704 0.74766 0.0
O536 O 0.70985 0.31863 0.70501 0.0
O537 O 0.65675 0.31658 0.68528 0.0
C538 C 0.75174 0.31874 0.73468 0.0
C539 C 0.68297 0.29683 0.69127 0.0
Zn540 Zn 0.68766 0.34735 0.2525 0.0
Zn541 Zn 0.71114 0.36215 0.19799 0.0
Zn542 Zn 0.69867 0.35325 0.22494 0.0
C543 C 0.7504 0.46505 0.20622 0.0
C544 C 0.60884 0.30371 0.19556 0.0
O545 O 0.73777 0.30776 0.23466 0.0
O546 O 0.69211 0.28255 0.25603 0.0
C547 C 0.75728 0.45426 0.25098 0.0
O548 O 0.72697 0.44007 0.21864 0.0
O549 O 0.76241 0.43995 0.19596 0.0
O550 O 0.6426 0.34019 0.1876 0.0
O551 O 0.62138 0.29986 0.21045 0.0
O552 O 0.74658 0.41846 0.26105 0.0
O553 O 0.73662 0.43891 0.23627 0.0
O554 O 0.61256 0.30868 0.22748 0.0
O555 O 0.6185 0.33716 0.25317 0.0
C556 C 0.59107 0.3139 0.2401 0.0
O557 O 0.75697 0.3282 0.21835 0.0
O558 O 0.73411 0.31037 0.19219 0.0
C559 C 0.72231 0.2777 0.24686 0.0
C560 C 0.76306 0.31253 0.20412 0.0
Zn561 Zn 0.69877 0.35326 0.04892 0.0
Zn562 Zn 0.71236 0.38317 0.99318 0.0
Zn563 Zn 0.70701 0.36752 1.02225 0.0
C564 C 0.66073 0.27051 0.99374 0.0
C565 C 0.8144 0.4336 1.00481 0.0
O566 O 0.68012 0.42025 1.03474 0.0
O567 O 0.64651 0.37164 0.05554 0.0
C568 C 0.64449 0.25272 0.03872 0.0
O569 O 0.66235 0.28399 1.00896 0.0
O570 O 0.68141 0.30761 0.98404 0.0
O571 O 0.78668 0.42779 0.99207 0.0
O572 O 0.79272 0.41205 1.01784 0.0
O573 O 0.67917 0.27583 0.05029 0.0
O574 O 0.64809 0.27985 1.02617 0.0
O575 O 0.78571 0.39092 1.03462 0.0
O576 O 0.7679 0.40575 0.05911 0.0
C577 C 0.80012 0.40546 0.04988 0.0
O578 O 0.66796 0.41525 1.01692 0.0
O579 O 0.67109 0.41888 0.99038 0.0
C580 C 0.65734 0.41365 0.04809 0.0
C581 C 0.65528 0.42804 1.00336 0.0
Zn582 Zn 0.35217 0.69898 0.87532 0.0
Zn583 Zn 0.37641 0.71181 0.82037 0.0
Zn584 Zn 0.36401 0.70704 0.84838 0.0
C585 C 0.4741 0.75201 0.83353 0.0
C586 C 0.30919 0.60364 0.82243 0.0
O587 O 0.30557 0.73192 0.85496 0.0
O588 O 0.33047 0.75202 0.88095 0.0
C589 C 0.45365 0.75775 0.87801 0.0
O590 O 0.45045 0.75277 0.84614 0.0
O591 O 0.44843 0.73074 0.82008 0.0
O592 O 0.32282 0.63808 0.81182 0.0
O593 O 0.32628 0.6206 0.83739 0.0
O594 O 0.42045 0.72018 0.88582 0.0
O595 O 0.44088 0.76153 0.86313 0.0
O596 O 0.33614 0.62072 0.85507 0.0
O597 O 0.29994 0.62157 0.87752 0.0
C598 C 0.3125 0.59623 0.86752 0.0
O599 O 0.32356 0.75072 0.83833 0.0
O600 O 0.36319 0.77014 0.81571 0.0
C601 C 0.30053 0.74876 0.86916 0.0
C602 C 0.33454 0.77648 0.82521 0.0
Zn603 Zn 0.35335 0.68512 0.08132 0.0
Zn604 Zn 0.36699 0.71374 1.02553 0.0
Zn605 Zn 0.35902 0.70053 0.05222 0.0
C606 C 0.26608 0.66049 1.02435 0.0
C607 C 0.41941 0.81461 1.03543 0.0
O608 O 0.39869 0.65352 0.05788 0.0
O609 O 0.3946 0.64947 0.0844 0.0
C610 C 0.25141 0.63436 0.06945 0.0
O611 O 0.2804 0.67609 0.03957 0.0
O612 O 0.29836 0.65938 1.01531 0.0
O613 O 0.38436 0.79053 1.024 0.0
O614 O 0.41689 0.7882 0.04807 0.0
O615 O 0.27891 0.64056 0.08228 0.0
O616 O 0.27331 0.6556 0.05643 0.0
O617 O 0.40278 0.78421 0.06532 0.0
O618 O 0.38407 0.76087 0.09028 0.0
C619 C 0.40429 0.79782 0.08051 0.0
O620 O 0.38714 0.64864 0.04004 0.0
O621 O 0.42108 0.69756 1.01932 0.0
C622 C 0.41098 0.64063 0.0715 0.0
C623 C 0.41048 0.65565 1.0268 0.0
Zn624 Zn 0.3512 0.68766 0.58605 0.0
Zn625 Zn 0.36441 0.69197 0.53271 0.0
Zn626 Zn 0.36088 0.69122 0.5587 0.0
C627 C 0.3549 0.77741 0.53971 0.0
C628 C 0.28112 0.60038 0.53376 0.0
O629 O 0.40155 0.6464 0.56721 0.0
O630 O 0.36016 0.6253 0.5895 0.0
C631 C 0.4232 0.79532 0.5828 0.0
O632 O 0.38245 0.77552 0.55193 0.0
O633 O 0.33017 0.73576 0.52982 0.0
O634 O 0.32252 0.61137 0.52736 0.0
O635 O 0.28331 0.63257 0.54571 0.0
O636 O 0.40981 0.76077 0.59339 0.0
O637 O 0.40301 0.77893 0.56806 0.0
O638 O 0.27446 0.64883 0.56123 0.0
O639 O 0.28086 0.67451 0.58723 0.0
C640 C 0.25322 0.65297 0.57408 0.0
O641 O 0.42111 0.67015 0.55152 0.0
O642 O 0.44086 0.73 0.5331 0.0
C643 C 0.38852 0.61865 0.57992 0.0
C644 C 0.45313 0.70135 0.54144 0.0
Zn645 Zn 0.37175 0.70342 0.32657 0.0
Zn646 Zn 0.35417 0.66514 0.38273 0.0
Zn647 Zn 0.3665 0.68748 0.35576 0.0
C648 C 0.45846 0.71745 0.38337 0.0
C649 C 0.29164 0.56833 0.37038 0.0
O650 O 0.32881 0.73699 0.35055 0.0
O651 O 0.33033 0.73905 0.32392 0.0
C652 C 0.47407 0.75367 0.33846 0.0
O653 O 0.44608 0.71199 0.3679 0.0
O654 O 0.42376 0.70516 0.3931 0.0
O655 O 0.32201 0.58537 0.38308 0.0
O656 O 0.30303 0.5997 0.35845 0.0
O657 O 0.44634 0.74888 0.32583 0.0
O658 O 0.45241 0.73126 0.35142 0.0
O659 O 0.32263 0.60421 0.34202 0.0
O660 O 0.3417 0.62814 0.31714 0.0
C661 C 0.32137 0.59085 0.3268 0.0
O662 O 0.34111 0.7411 0.36818 0.0
O663 O 0.31281 0.69713 0.39018 0.0
C664 C 0.31585 0.74963 0.33698 0.0
C665 C 0.32165 0.73727 0.38204 0.0
C666 C 0.22596 0.23115 0.22931 0.0
C667 C 0.23514 0.22012 0.24523 0.0
H668 H 0.18432 0.19765 0.20586 0.0
C669 C 0.21597 0.1654 0.24873 0.0
H670 H 0.24104 0.27304 0.22617 0.0
C671 C 0.18522 0.12258 0.23699 0.0
C672 C 0.17181 0.13319 0.22153 0.0
H673 H 0.22356 0.15548 0.2607 0.0
H674 H 0.16882 0.08081 0.24045 0.0
C675 C 0.19428 0.18801 0.21757 0.0
C676 C 0.88326 0.08771 0.2322 0.0
C677 C 0.83983 0.03446 0.22925 0.0
H678 H 0.95889 0.14641 0.22538 0.0
C679 C 0.83528 1.0042 0.21467 0.0
H680 H 0.8873 0.11313 0.24295 0.0
C681 C 0.87599 0.02416 0.20429 0.0
C682 C 0.9221 0.07461 0.20834 0.0
H683 H 0.80214 0.96334 0.2119 0.0
H684 H 0.87378 0.99725 0.19417 0.0
C685 C 0.92377 0.10755 0.22185 0.0
C686 C 0.0425 0.84752 0.21614 0.0
C687 C 0.01436 0.82522 0.22973 0.0
H688 H 0.05287 0.89666 0.19598 0.0
C689 C 0.96786 0.82575 0.23129 0.0
H690 H 0.07812 0.8471 0.2145 0.0
C691 C 0.95291 0.85317 0.22057 0.0
C692 C 0.98427 0.88108 0.2081 0.0
H693 H 0.94419 0.80713 0.24126 0.0
H694 H 0.91921 0.85667 0.22295 0.0
C695 C 0.02756 0.87523 0.20538 0.0
C696 C 0.22303 0.26629 0.35063 0.0
C697 C 0.25556 0.24377 0.34914 0.0
H698 H 0.15385 0.25738 0.36016 0.0
C699 C 0.25216 0.20604 0.36034 0.0
H700 H 0.22446 0.29582 0.34245 0.0
C701 C 0.21194 0.18492 0.37086 0.0
C702 C 0.17405 0.20057 0.37019 0.0
H703 H 0.27747 0.18896 0.35991 0.0
H704 H 0.20604 0.15046 0.37763 0.0
C705 C 0.18275 0.24489 0.36108 0.0
C706 C 0.84716 1.006 0.33096 0.0
C707 C 0.82748 0.04191 0.33152 0.0
H708 H 0.89583 0.98029 0.34298 0.0
C709 C 0.83626 0.07433 0.346 0.0
H710 H 0.84021 0.97976 0.32009 0.0
C711 C 0.86816 0.07467 0.35907 0.0
C712 C 0.89039 0.04118 0.35816 0.0
H713 H 0.82116 0.10202 0.34686 0.0
H714 H 0.87863 0.10411 0.36941 0.0
C715 C 0.87781 1.00519 0.34424 0.0
C716 C 0.04157 0.85756 0.34359 0.0
C717 C 0.02504 0.84898 0.3269 0.0
H718 H 0.05611 0.90632 0.366 0.0
C719 C 0.01035 0.8842 0.32007 0.0
H720 H 0.05346 0.83122 0.34919 0.0
C721 C 0.01156 0.92659 0.32966 0.0
C722 C 0.02796 0.93537 0.34633 0.0
H723 H 0.9975 0.87886 0.3073 0.0
H724 H 0.99965 0.95268 0.32389 0.0
C725 C 0.04334 0.90064 0.35321 0.0
C726 C 0.84199 0.83663 0.84776 0.0
C727 C 0.83324 0.84702 0.83173 0.0
H728 H 0.88308 0.87114 0.87123 0.0
C729 C 0.85228 0.9015 0.828 0.0
H730 H 0.82696 0.79491 0.85107 0.0
C731 C 0.8826 0.94476 0.83964 0.0
C732 C 0.89575 0.93481 0.85522 0.0
H733 H 0.84492 0.91089 0.81592 0.0
H734 H 0.89896 0.98633 0.83602 0.0
C735 C 0.87331 0.88023 0.85941 0.0
C736 C 0.1863 0.98031 0.84685 0.0
C737 C 0.23078 0.03257 0.85014 0.0
H738 H 0.10921 0.92371 0.853 0.0
C739 C 0.2355 0.06288 0.8647 0.0
H740 H 0.18218 0.95505 0.83605 0.0
C741 C 0.19372 0.04429 0.87467 0.0
C742 C 0.14671 0.99509 0.87019 0.0
H743 H 0.26964 0.10294 0.86767 0.0
H744 H 0.19605 0.0715 0.88471 0.0
C745 C 0.14496 0.96163 0.85682 0.0
C746 C 0.01807 0.22015 0.86054 0.0
C747 C 0.0454 0.2424 0.8468 0.0
H748 H 0.00952 0.17186 0.88081 0.0
C749 C 0.09218 0.24266 0.84504 0.0
H750 H 0.98227 0.22004 0.86231 0.0
C751 C 0.10842 0.21634 0.85577 0.0
C752 C 0.07797 0.18848 0.86844 0.0
H753 H 0.11513 0.26119 0.83492 0.0
H754 H 0.14247 0.21367 0.85328 0.0
C755 C 0.03417 0.19329 0.87127 0.0
C756 C 0.88701 0.82357 0.73516 0.0
C757 C 0.84382 0.83016 0.73198 0.0
H758 H 0.96362 0.84483 0.72916 0.0
C759 C 0.84124 0.85512 0.71786 0.0
H760 H 0.88938 0.80284 0.7456 0.0
C761 C 0.88383 0.87879 0.70823 0.0
C762 C 0.92952 0.87762 0.71258 0.0
H763 H 0.80805 0.86 0.71499 0.0
H764 H 0.88296 0.90285 0.69848 0.0
C765 C 0.92913 0.8466 0.7255 0.0
C766 C 0.22756 0.03115 0.73371 0.0
C767 C 0.23852 0.05267 0.75004 0.0
H768 H 0.1867 0.02329 0.71067 0.0
C769 C 0.2248 0.09169 0.75468 0.0
H770 H 0.23861 1.00175 0.7297 0.0
C771 C 0.19715 0.10563 0.74366 0.0
C772 C 0.18129 0.07992 0.72781 0.0
H773 H 0.23411 0.11041 0.767 0.0
H774 H 0.18437 0.13329 0.74799 0.0
C775 C 0.19883 0.04438 0.7227 0.0
C776 C 0.03214 0.22726 0.73127 0.0
C777 C 0.01513 0.21912 0.74706 0.0
H778 H 0.03662 0.18976 0.70875 0.0
C779 C 0.98169 0.16543 0.7512 0.0
H780 H 0.05722 0.26831 0.72763 0.0
C781 C 0.96857 0.12067 0.74025 0.0
C782 C 0.98954 0.1284 0.72501 0.0
H783 H 0.96667 0.15782 0.76309 0.0
H784 H 0.94486 0.0798 0.74423 0.0
C785 C 0.01968 0.18226 0.72035 0.0
C786 C 0.87758 0.59595 0.56317 0.0
C787 C 0.88734 0.57684 0.57766 0.0
H788 H 0.83378 0.57438 0.53992 0.0
C789 C 0.8659 0.52009 0.5786 0.0
H790 H 0.89377 0.63949 0.56203 0.0
C791 C 0.83334 0.48323 0.5657 0.0
C792 C 0.82114 0.5022 0.55165 0.0
H793 H 0.8732 0.50406 0.58947 0.0
H794 H 0.81469 0.43957 0.56716 0.0
C795 C 0.8441 0.55888 0.55037 0.0
C796 C 0.53218 0.39872 0.5609 0.0
C797 C 0.48616 0.34738 0.56099 0.0
H798 H 0.60508 0.44577 0.55039 0.0
C799 C 0.47398 0.30795 0.54803 0.0
H800 H 0.54218 0.43063 0.57042 0.0
C801 C 0.50958 0.31724 0.53637 0.0
C802 C 0.55792 0.3663 0.53728 0.0
H803 H 0.43891 0.26811 0.54763 0.0
H804 H 0.50175 0.28366 0.52769 0.0
C805 C 0.56759 0.40814 0.5491 0.0
C806 C 0.66709 0.17098 0.5606 0.0
C807 C 0.71571 0.17425 0.56279 0.0
H808 H 0.62313 0.20309 0.54903 0.0
C809 C 0.7545 0.2054 0.55245 0.0
H810 H 0.63611 0.14634 0.56817 0.0
C811 C 0.74681 0.23741 0.54142 0.0
C812 C 0.69984 0.23782 0.54028 0.0
H813 H 0.79223 0.20857 0.55384 0.0
H814 H 0.7793 0.26575 0.53489 0.0
C815 C 0.65915 0.20231 0.54937 0.0
C816 C 0.86845 0.58279 0.68107 0.0
C817 C 0.91028 0.57324 0.68027 0.0
H818 H 0.79599 0.55985 0.69116 0.0
C819 C 0.91691 0.54231 0.69203 0.0
H820 H 0.86313 0.6077 0.67245 0.0
C821 C 0.87866 0.51545 0.70293 0.0
C822 C 0.83357 0.51967 0.70237 0.0
H823 H 0.94905 0.53473 0.6918 0.0
H824 H 0.88118 0.486 0.71035 0.0
C825 C 0.83078 0.55674 0.69215 0.0
C826 C 0.51661 0.34709 0.66431 0.0
C827 C 0.50362 0.38849 0.66463 0.0
H828 H 0.55815 0.3133 0.67647 0.0
C829 C 0.51764 0.4238 0.67879 0.0
H830 H 0.50548 0.3186 0.65369 0.0
C831 C 0.54784 0.4208 0.69179 0.0
C832 C 0.56295 0.38111 0.69115 0.0
H833 H 0.50773 0.45577 0.67947 0.0
H834 H 0.56228 0.45178 0.70188 0.0
C835 C 0.54552 0.34308 0.67752 0.0
C836 C 0.70793 0.18266 0.67724 0.0
C837 C 0.68981 0.17392 0.66068 0.0
H838 H 0.72081 0.2291 0.70005 0.0
C839 C 0.66953 0.20529 0.65456 0.0
H840 H 0.72405 0.15911 0.68227 0.0
C841 C 0.66702 0.24427 0.66469 0.0
C842 C 0.68542 0.25369 0.68122 0.0
H843 H 0.65516 0.19952 0.64192 0.0
H844 H 0.65104 0.26761 0.6594 0.0
C845 C 0.70621 0.22267 0.68742 0.0
C846 C 0.51736 0.22836 0.15892 0.0
C847 C 0.49815 0.17357 0.16233 0.0
H848 H 0.56477 0.31279 0.16731 0.0
C849 C 0.50702 0.16213 0.17822 0.0
H850 H 0.50992 0.23852 0.14696 0.0
C851 C 0.53874 0.20502 0.19001 0.0
C852 C 0.5615 0.2599 0.18609 0.0
H853 H 0.49184 0.12014 0.18129 0.0
H854 H 0.54865 0.19513 0.20168 0.0
C855 C 0.54814 0.27093 0.1707 0.0
C856 C 0.85115 0.30168 0.1763 0.0
C857 C 0.89578 0.35383 0.1796 0.0
H858 H 0.77412 0.24517 0.18253 0.0
C859 C 0.90092 0.3838 0.19429 0.0
H860 H 0.84669 0.27661 0.16541 0.0
C861 C 0.85943 0.36505 0.20437 0.0
C862 C 0.81224 0.31607 0.19988 0.0
H863 H 0.93515 0.42378 0.19728 0.0
H864 H 0.86209 0.39206 0.21452 0.0
C865 C 0.81003 0.28289 0.18637 0.0
C866 C 0.76211 0.5688 0.17774 0.0
C867 C 0.71524 0.56823 0.17959 0.0
H868 H 0.81206 0.5389 0.18556 0.0
C869 C 0.68766 0.54495 0.19321 0.0
H870 H 0.78527 0.58816 0.16773 0.0
C871 C 0.7035 0.5172 0.20365 0.0
C872 C 0.74721 0.51246 0.20062 0.0
H873 H 0.65179 0.54461 0.19506 0.0
H874 H 0.67859 0.4949 0.21303 0.0
C875 C 0.77806 0.54152 0.18818 0.0
C876 C 0.5509 0.15287 0.0655 0.0
C877 C 0.5078 0.15972 0.06247 0.0
H878 H 0.62742 0.17418 0.0594 0.0
C879 C 0.50529 0.18531 0.0485 0.0
H880 H 0.55321 0.13168 0.07583 0.0
C881 C 0.54788 0.20932 0.03888 0.0
C882 C 0.59349 0.20784 0.04309 0.0
H883 H 0.47216 0.1904 0.04575 0.0
H884 H 0.54708 0.23384 1.02925 0.0
C885 C 0.593 0.17622 0.05585 0.0
C886 C 0.8894 0.41551 0.08481 0.0
C887 C 0.90198 0.37593 0.07976 0.0
H888 H 0.85063 0.4593 0.07873 0.0
C889 C 0.89047 0.35546 0.06333 0.0
H890 H 0.89922 0.43349 0.09722 0.0
C891 C 0.86232 0.37033 0.0526 0.0
C892 C 0.84603 0.40659 0.05811 0.0
H893 H 0.90067 0.32568 0.05899 0.0
H894 H 0.84972 0.35005 0.04048 0.0
C895 C 0.86245 0.43115 0.07408 0.0
C896 C 0.65088 0.496 0.0838 0.0
C897 C 0.68421 0.5499 0.07981 0.0
H898 H 0.61334 0.4106 0.07644 0.0
C899 C 0.70064 0.55867 0.06396 0.0
H900 H 0.63631 0.48792 0.09574 0.0
C901 C 0.68758 0.51406 0.05278 0.0
C902 C 0.6573 0.45994 0.05722 0.0
H903 H 0.72565 0.59991 0.06044 0.0
H904 H 0.70401 0.52199 0.0411 0.0
C905 C 0.6371 0.45166 0.0726 0.0
C906 C 0.5536 0.90088 0.89504 0.0
C907 C 0.56202 0.89067 0.91113 0.0
H908 H 0.51314 0.8662 0.87151 0.0
C909 C 0.54281 0.83623 0.91494 0.0
H910 H 0.56877 0.94256 0.89167 0.0
C911 C 0.51271 0.79286 0.9033 0.0
C912 C 0.49998 0.80265 0.88763 0.0
H913 H 0.54989 0.82696 0.92706 0.0
H914 H 0.49628 0.75133 0.90697 0.0
C915 C 0.52254 0.85719 0.88339 0.0
C916 C 0.21412 0.76142 0.89742 0.0
C917 C 0.16895 0.70962 0.89428 0.0
H918 H 0.29104 0.81691 0.89088 0.0
C919 C 0.163 0.67901 0.87964 0.0
H920 H 0.21924 0.78694 0.90827 0.0
C921 C 0.20411 0.69684 0.86943 0.0
C922 C 0.25171 0.74558 0.8737 0.0
H923 H 0.12834 0.63928 0.87678 0.0
H924 H 0.20075 0.66937 0.8593 0.0
C925 C 0.25481 0.77934 0.8872 0.0
C926 C 0.37627 0.51787 0.88116 0.0
C927 C 0.34928 0.49569 0.89495 0.0
H928 H 0.3844 0.56621 0.86095 0.0
C929 C 0.30245 0.4952 0.89682 0.0
H930 H 0.41208 0.51809 0.8793 0.0
C931 C 0.28596 0.52152 0.88618 0.0
C932 C 0.31626 0.54957 0.87352 0.0
H933 H 0.27974 0.47665 0.90699 0.0
H934 H 0.25199 0.52421 0.88877 0.0
C935 C 0.35992 0.5447 0.87051 0.0
C936 C 0.55813 0.88346 1.02511 0.0
C937 C 0.55454 0.9081 1.01104 0.0
H938 H 0.5177 0.83556 0.04463 0.0
C939 C 0.51082 0.91393 1.00809 0.0
H940 H 0.59175 0.87916 1.02781 0.0
C941 C 0.46919 0.89047 1.01792 0.0
C942 C 0.46983 0.85976 1.0308 0.0
H943 H 0.50766 0.9344 0.99768 0.0
H944 H 0.43429 0.89168 1.01444 0.0
C945 C 0.51604 0.85935 1.03492 0.0
C946 C 0.17541 0.70997 1.01066 0.0
C947 C 0.16456 0.69004 0.99418 0.0
H948 H 0.21544 0.71497 1.03361 0.0
C949 C 0.17793 0.65111 0.98909 0.0
H950 H 0.16462 0.73924 1.01503 0.0
C951 C 0.20492 0.63557 0.99984 0.0
C952 C 0.22052 0.65954 1.0159 0.0
H953 H 0.16869 0.63358 0.97663 0.0
H954 H 0.21725 0.60789 0.99518 0.0
C955 C 0.20352 0.69516 1.02142 0.0
C956 C 0.36748 0.5108 1.01099 0.0
C957 C 0.38367 0.51953 0.99511 0.0
H958 H 0.36438 0.54749 1.03386 0.0
C959 C 0.41702 0.5734 0.9911 0.0
H960 H 0.34248 0.46959 1.01453 0.0
C961 C 0.43094 0.61778 1.00231 0.0
C962 C 0.41085 0.60951 1.0177 0.0
H963 H 0.43142 0.58144 0.97913 0.0
H964 H 0.45461 0.65883 0.99845 0.0
C965 C 0.3807 0.55542 1.02217 0.0
C966 C 0.18006 0.54609 0.49911 0.0
C967 C 0.1659 0.49052 0.49782 0.0
H968 H 0.22589 0.62435 0.5125 0.0
C969 C 0.18251 0.46975 0.51048 0.0
H970 H 0.1672 0.56301 0.48964 0.0
C971 C 0.21631 0.50497 0.5235 0.0
C972 C 0.23236 0.56098 0.52435 0.0
H973 H 0.17196 0.42699 0.50983 0.0
H974 H 0.23248 0.48917 0.53232 0.0
C975 C 0.21263 0.5809 0.51235 0.0
C976 C 0.58586 0.75821 0.52779 0.0
C977 C 0.57555 0.72134 0.51428 0.0
H978 H 0.55445 0.77922 0.54786 0.0
C979 C 0.52835 0.67078 0.51292 0.0
H980 H 0.62187 0.79734 0.52923 0.0
C981 C 0.4905 0.65957 0.52397 0.0
C982 C 0.49876 0.69891 0.53648 0.0
H983 H 0.51967 0.64088 0.50288 0.0
H984 H 0.45266 0.62271 0.52166 0.0
C985 C 0.54765 0.74733 0.53868 0.0
C986 C 0.38995 0.89804 0.5161 0.0
C987 C 0.33995 0.89009 0.51216 0.0
H988 H 0.43487 0.86946 0.52906 0.0
C989 C 0.29897 0.8549 0.52129 0.0
H990 H 0.42276 0.9259 0.50964 0.0
C991 C 0.30635 0.82361 0.53264 0.0
C992 C 0.35488 0.82715 0.53522 0.0
H993 H 0.26003 0.84773 0.51869 0.0
H994 H 0.27272 0.79237 0.53812 0.0
C995 C 0.39734 0.86681 0.52756 0.0
C996 C 0.16013 0.52809 0.38187 0.0
C997 C 0.15501 0.4919 0.39379 0.0
H998 H 0.20698 0.57838 0.36377 0.0
C999 C 0.18639 0.46776 0.39343 0.0
H1000 H 0.1359 0.54653 0.3816 0.0
C1001 C 0.227 0.4858 0.38313 0.0
C1002 C 0.23687 0.52805 0.37294 0.0
H1003 H 0.18357 0.43949 0.40231 0.0
H1004 H 0.2547 0.47188 0.38469 0.0
C1005 C 0.20031 0.54548 0.37139 0.0
C1006 C 0.56019 0.68502 0.39729 0.0
C1007 C 0.57209 0.70952 0.4133 0.0
H1008 H 0.51523 0.66999 0.37453 0.0
C1009 C 0.55665 0.74761 0.41734 0.0
H1010 H 0.57242 0.65619 0.39373 0.0
C1011 C 0.5261 0.75726 0.40615 0.0
C1012 C 0.50908 0.7281 0.39077 0.0
H1013 H 0.56647 0.76846 0.42938 0.0
H1014 H 0.51134 0.78352 0.41012 0.0
C1015 C 0.52854 0.69392 0.38613 0.0
C1016 C 0.36335 0.88356 0.39603 0.0
C1017 C 0.347 0.87676 0.41192 0.0
H1018 H 0.36713 0.84425 0.37375 0.0
C1019 C 0.31434 0.82345 0.4165 0.0
H1020 H 0.38786 0.92424 0.39205 0.0
C1021 C 0.30122 0.7779 0.40589 0.0
C1022 C 0.32127 0.78437 0.39052 0.0
H1023 H 0.29984 0.81676 0.42846 0.0
H1024 H 0.27799 0.73744 0.41019 0.0
C1025 C 0.35083 0.83773 0.38544 0.0
C1026 C 0.24462 0.04329 0.16462 0.0
C1027 C 0.27197 0.0768 0.15229 0.0
H1028 H 0.18317 0.02076 0.18045 0.0
C1029 C 0.26645 0.12222 0.14933 0.0
H1030 H 0.24888 1.00856 0.16735 0.0
C1031 C 0.22894 0.12933 0.15691 0.0
C1032 C 0.19708 0.09173 0.16777 0.0
H1033 H 0.28712 0.14875 0.13994 0.0
H1034 H 0.22054 0.16018 0.1528 0.0
C1035 C 0.20788 0.05108 0.17242 0.0
C1036 C 1.0 0.21743 0.13607 0.0
C1037 C 0.9557 0.2166 0.14135 0.0
H1038 H 0.05152 0.18646 0.13806 0.0
C1039 C 0.92883 0.18127 0.15351 0.0
H1040 H 0.02219 0.24441 0.12695 0.0
C1041 C 0.94593 0.14724 0.16008 0.0
C1042 C 0.99015 0.14806 0.15458 0.0
H1043 H 0.89481 0.18014 0.15802 0.0
H1044 H 0.92427 0.11995 0.16921 0.0
C1045 C 0.01697 0.18403 0.14259 0.0
C1046 C 0.86936 0.81223 0.13131 0.0
C1047 C 0.85619 0.7694 0.14146 0.0
H1048 H 0.91744 0.89728 0.12816 0.0
C1049 C 0.88488 0.78065 0.15661 0.0
H1050 H 0.8482 0.805 0.11959 0.0
C1051 C 0.92465 0.83423 0.16172 0.0
C1052 C 0.93679 0.87731 0.15169 0.0
H1053 H 0.87549 0.74843 0.16476 0.0
H1054 H 0.94525 0.84191 0.17355 0.0
C1055 C 0.90926 0.86529 0.1363 0.0
C1056 C 0.09176 0.26076 0.4428 0.0
C1057 C 0.12162 0.30716 0.43438 0.0
H1058 H 0.05468 0.17404 0.44309 0.0
C1059 C 0.13908 0.30078 0.41933 0.0
H1060 H 0.07772 0.26449 0.45437 0.0
C1061 C 0.12486 0.24822 0.41255 0.0
C1062 C 0.09399 0.20163 0.42092 0.0
H1063 H 0.16172 0.33608 0.41251 0.0
H1064 H 0.13738 0.24407 0.40075 0.0
C1065 C 0.07861 0.20885 0.43626 0.0
C1066 C 0.80932 0.89893 0.42597 0.0
C1067 C 0.79786 0.84509 0.42187 0.0
H1068 H 0.85999 0.98442 0.42277 0.0
C1069 C 0.8198 0.83545 0.40831 0.0
H1070 H 0.79303 0.90755 0.43635 0.0
C1071 C 0.85668 0.87927 0.40015 0.0
C1072 C 0.87311 0.93367 0.40557 0.0
H1073 H 0.81109 0.79423 0.40474 0.0
H1074 H 0.87698 0.87087 0.39094 0.0
C1075 C 0.84705 0.94289 0.418 0.0
C1076 C 0.22882 0.02954 0.40321 0.0
C1077 C 0.22732 0.99631 0.41566 0.0
H1078 H 0.18485 0.05234 0.38736 0.0
C1079 C 0.17891 0.95181 0.41891 0.0
H1080 H 0.26559 0.0633 0.40012 0.0
C1081 C 0.13282 0.9452 0.41144 0.0
C1082 C 0.13427 0.98256 0.40048 0.0
H1083 H 0.17628 0.92526 0.42834 0.0
H1084 H 0.09602 0.91465 0.41561 0.0
C1085 C 0.1826 0.02243 0.39558 0.0
C1086 C 0.79605 0.94436 0.92621 0.0
C1087 C 0.78991 0.9886 0.92215 0.0
H1088 H 0.84321 0.90723 0.92441 0.0
C1089 C 0.81781 0.02036 0.90959 0.0
H1090 H 0.77498 0.91916 0.9358 0.0
C1091 C 0.85563 0.01226 0.90265 0.0
C1092 C 0.86688 0.97307 0.90841 0.0
H1093 H 0.81309 0.0541 0.906 0.0
H1094 H 0.88059 0.04138 0.89439 0.0
C1095 C 0.83457 0.93696 0.91949 0.0
C1096 C 0.13356 0.88306 0.92007 0.0
C1097 C 0.11399 0.85397 0.93401 0.0
H1098 H 0.13261 0.94052 0.90384 0.0
C1099 C 0.07925 0.8629 0.94257 0.0
H1100 H 0.16024 0.8768 0.91309 0.0
C1101 C 0.06365 0.89892 0.93729 0.0
C1102 C 0.08195 0.92731 0.92318 0.0
H1103 H 0.06327 0.84133 0.95329 0.0
H1104 H 0.03623 0.9037 0.94432 0.0
C1105 C 0.11755 0.91932 0.91466 0.0
C1106 C 0.19325 0.25945 0.94525 0.0
C1107 C 0.20807 0.30143 0.93469 0.0
H1108 H 0.143 0.17521 0.94895 0.0
C1109 C 0.18002 0.28981 0.91942 0.0
H1110 H 0.21391 0.26709 0.95709 0.0
C1111 C 0.13938 0.23644 0.91455 0.0
C1112 C 0.12564 0.19407 0.92498 0.0
H1113 H 0.19073 0.32143 0.91097 0.0
H1114 H 0.11946 0.22831 0.90259 0.0
C1115 C 0.15236 0.20667 0.94052 0.0
C1116 C 0.93417 0.78314 0.65953 0.0
C1117 C 0.94652 0.77433 0.64383 0.0
H1118 H 0.94052 0.84218 0.67813 0.0
C1119 C 0.97161 0.81902 0.63435 0.0
H1120 H 0.91496 0.7493 0.66716 0.0
C1121 C 0.98543 0.87158 0.64051 0.0
C1122 C 0.97548 0.88128 0.65647 0.0
H1123 H 0.98144 0.81354 0.62222 0.0
H1124 H 1.00572 0.90501 0.63282 0.0
C1125 C 0.94895 0.8363 0.66586 0.0
C1126 C 0.2713 0.17595 0.65384 0.0
C1127 C 0.28122 0.22947 0.65741 0.0
H1128 H 0.22167 0.09069 0.65742 0.0
C1129 C 0.259 0.23955 0.67081 0.0
H1130 H 0.28798 0.16709 0.64361 0.0
C1131 C 0.22254 0.19603 0.67916 0.0
C1132 C 0.20655 0.14159 0.67392 0.0
H1133 H 0.26667 0.28065 0.67397 0.0
H1134 H 0.20151 0.20451 0.68808 0.0
C1135 C 0.23396 0.13227 0.66196 0.0
C1136 C 0.85494 0.06555 0.67066 0.0
C1137 C 0.85164 0.08834 0.65614 0.0
H1138 H 0.90386 0.05336 0.68775 0.0
C1139 C 0.89784 0.1265 0.64966 0.0
H1140 H 0.81992 0.03699 0.67612 0.0
C1141 C 0.94594 0.13604 0.65634 0.0
C1142 C 0.94865 0.10808 0.66972 0.0
H1143 H 0.8965 0.14495 0.63856 0.0
H1144 H 0.98043 0.16103 0.65006 0.0
C1145 C 0.90315 0.07579 0.67751 0.0
C1146 C 0.90913 0.3873 0.49858 0.0
C1147 C 0.93541 0.41942 0.48588 0.0
H1148 H 0.84767 0.36496 0.5144 0.0
C1149 C 0.92789 0.46301 0.48212 0.0
H1150 H 0.91488 0.35393 0.50186 0.0
C1151 C 0.88939 0.46931 0.48931 0.0
C1152 C 0.85867 0.43282 0.50058 0.0
H1153 H 0.94771 0.48836 0.47241 0.0
H1154 H 0.87947 0.49843 0.48463 0.0
C1155 C 0.87147 0.39441 0.50601 0.0
C1156 C 0.64038 0.53296 0.46631 0.0
C1157 C 0.61831 0.5541 0.47684 0.0
H1158 H 0.6689 0.47836 0.46258 0.0
C1159 C 0.60591 0.53281 0.49223 0.0
H1160 H 0.6502 0.54811 0.45439 0.0
C1161 C 0.61736 0.49273 0.49717 0.0
C1162 C 0.64081 0.47273 0.48672 0.0
H1163 H 0.58894 0.54843 0.50069 0.0
H1164 H 0.60889 0.47838 0.50922 0.0
C1165 C 0.65107 0.4927 0.47111 0.0
C1166 C 0.51054 0.12991 0.4959 0.0
C1167 C 0.49985 0.10611 0.47983 0.0
H1168 H 0.56349 0.1971 0.51279 0.0
C1169 C 0.53905 0.1287 0.46902 0.0
H1170 H 0.48139 0.11291 0.50462 0.0
C1171 C 0.5861 0.17694 0.47373 0.0
C1172 C 0.5951 0.20323 0.48939 0.0
H1173 H 0.53226 0.11109 0.45663 0.0
H1174 H 0.61424 0.19542 0.46477 0.0
C1175 C 0.55785 0.17783 0.50067 0.0
C1176 C 0.75624 0.58725 0.77673 0.0
C1177 C 0.78632 0.63345 0.76825 0.0
H1178 H 0.71794 0.50037 0.77699 0.0
C1179 C 0.8026 0.62631 0.75304 0.0
H1180 H 0.74308 0.59137 0.78843 0.0
C1181 C 0.78734 0.57356 0.74621 0.0
C1182 C 0.7564 0.52725 0.75464 0.0
H1183 H 0.82551 0.6613 0.74614 0.0
H1184 H 0.79921 0.56905 0.73433 0.0
C1185 C 0.74189 0.535 0.7701 0.0
C1186 C 0.47083 0.23441 0.75986 0.0
C1187 C 0.4595 0.18002 0.75715 0.0
H1188 H 0.521 0.31821 0.75472 0.0
C1189 C 0.47997 0.16661 0.7439 0.0
H1190 H 0.45555 0.24575 0.76999 0.0
C1191 C 0.51578 0.20771 0.73474 0.0
C1192 C 0.53282 0.26315 0.73892 0.0
H1193 H 0.47129 0.12481 0.74144 0.0
H1194 H 0.53536 0.19678 0.72589 0.0
C1195 C 0.50761 0.27576 0.75091 0.0
C1196 C 0.88996 0.35856 0.73904 0.0
C1197 C 0.88874 0.32583 0.7516 0.0
H1198 H 0.84546 0.37907 0.72264 0.0
C1199 C 0.84087 0.27992 0.75449 0.0
H1200 H 0.92646 0.39351 0.73629 0.0
C1201 C 0.79455 0.27146 0.74658 0.0
C1202 C 0.79539 0.30828 0.73548 0.0
H1203 H 0.83869 0.25381 0.76401 0.0
H1204 H 0.75782 0.23992 0.75051 0.0
C1205 C 0.84364 0.34949 0.73092 0.0
C1206 C 0.46754 0.2729 0.25817 0.0
C1207 C 0.46208 0.318 0.25464 0.0
H1208 H 0.51315 0.23432 0.25538 0.0
C1209 C 0.48951 0.35018 0.24208 0.0
H1210 H 0.44683 0.24731 0.26773 0.0
C1211 C 0.52628 0.34155 0.23462 0.0
C1212 C 0.53681 0.30124 0.2398 0.0
H1213 H 0.48523 0.38451 0.23886 0.0
H1214 H 0.55103 0.3709 0.22638 0.0
C1215 C 0.50493 0.26487 0.25089 0.0
C1216 C 0.8031 0.21018 0.25574 0.0
C1217 C 0.76965 0.16781 0.26529 0.0
H1218 H 0.81442 0.27828 0.24201 0.0
C1219 C 0.71985 0.15969 0.26716 0.0
H1220 H 0.84156 0.21703 0.25384 0.0
C1221 C 0.70436 0.19373 0.26022 0.0
C1222 C 0.73812 0.23744 0.25123 0.0
H1223 H 0.69259 0.12705 0.2741 0.0
H1224 H 0.66581 0.18645 0.26226 0.0
C1225 C 0.78744 0.24479 0.24875 0.0
C1226 C 0.86291 0.57727 0.27677 0.0
C1227 C 0.87346 0.62072 0.2671 0.0
H1228 H 0.81813 0.49144 0.27931 0.0
C1229 C 0.84361 0.6097 0.25221 0.0
H1230 H 0.88503 0.58433 0.28829 0.0
C1231 C 0.80513 0.55581 0.24688 0.0
C1232 C 0.79557 0.51221 0.25643 0.0
H1233 H 0.85099 0.64243 0.24445 0.0
H1234 H 0.78337 0.54834 0.23528 0.0
C1235 C 0.82437 0.52387 0.27155 0.0
C1236 C 0.63712 0.1507 0.96521 0.0
C1237 C 0.60944 0.10567 0.97437 0.0
H1238 H 0.67387 0.23711 0.964 0.0
C1239 C 0.59535 0.11442 0.9898 0.0
H1240 H 0.64846 0.14533 0.95331 0.0
C1241 C 0.61077 0.16769 0.99619 0.0
C1242 C 0.63972 0.21293 0.98713 0.0
H1243 H 0.5742 0.08035 0.99721 0.0
H1244 H 0.60078 0.17342 1.00825 0.0
C1245 C 0.65161 0.20344 0.97142 0.0
C1246 C 0.92223 0.5721 1.00095 0.0
C1247 C 0.9442 0.56183 0.98751 0.0
H1248 H 0.86531 0.53739 1.01841 0.0
C1249 C 0.93422 0.50824 0.984 0.0
H1250 H 0.92999 0.61324 1.0041 0.0
C1251 C 0.89718 0.46472 0.99226 0.0
C1252 C 0.87016 0.47421 1.00432 0.0
H1253 H 0.95073 0.49922 0.97375 0.0
H1254 H 0.88488 0.42307 0.98779 0.0
C1255 C 0.8861 0.52875 1.00943 0.0
C1256 C 0.5173 0.39315 1.00113 0.0
C1257 C 0.51566 0.41958 0.98723 0.0
H1258 H 0.5647 0.37808 1.01802 0.0
C1259 C 0.56266 0.46042 0.98183 0.0
H1260 H 0.48157 0.36231 1.00575 0.0
C1261 C 0.61024 0.46947 0.98885 0.0
C1262 C 0.61159 0.43847 1.00156 0.0
H1263 H 0.56254 0.48161 0.97122 0.0
H1264 H 0.64561 0.49672 0.98328 0.0
C1265 C 0.56497 0.40301 1.00837 0.0
C1266 C 0.59966 0.79474 0.8165 0.0
C1267 C 0.60552 0.75017 0.82037 0.0
H1268 H 0.55276 0.83212 0.81852 0.0
C1269 C 0.57742 0.71795 0.83282 0.0
H1270 H 0.62088 0.82028 0.80699 0.0
C1271 C 0.5397 0.72601 0.83985 0.0
C1272 C 0.52872 0.76559 0.83428 0.0
H1273 H 0.58191 0.68392 0.83624 0.0
H1274 H 0.51459 0.69659 0.84802 0.0
C1275 C 0.56121 0.80208 0.8233 0.0
C1276 C 0.26461 0.85882 0.82347 0.0
C1277 C 0.28586 0.88945 0.80991 0.0
H1278 H 0.26335 0.79917 0.83923 0.0
C1279 C 0.32151 0.88142 0.80158 0.0
H1280 H 0.23721 0.8644 0.83026 0.0
C1281 C 0.33628 0.84463 0.8067 0.0
C1282 C 0.31614 0.81449 0.8204 0.0
H1283 H 0.33881 0.90423 0.79117 0.0
H1284 H 0.36445 0.84058 0.79988 0.0
C1285 C 0.27977 0.82173 0.82872 0.0
C1286 C 0.21613 0.44966 0.82266 0.0
C1287 C 0.18811 0.43813 0.80739 0.0
H1288 H 0.27644 0.51107 0.83956 0.0
C1289 C 0.20277 0.4803 0.7969 0.0
H1290 H 0.20558 0.41791 0.83106 0.0
C1291 C 0.24339 0.53315 0.80171 0.0
C1292 C 0.27005 0.54562 0.81726 0.0
H1293 H 0.18214 0.47275 0.78506 0.0
H1294 H 0.25262 0.56475 0.79334 0.0
C1295 C 0.25653 0.50307 0.82761 0.0
C1296 C 0.46754 0.95365 0.08413 0.0
C1297 C 0.45256 0.96224 0.09942 0.0
H1298 H 0.46373 0.89482 0.06592 0.0
C1299 C 0.42503 0.91728 0.10861 0.0
H1300 H 0.48859 0.98769 0.0767 0.0
C1301 C 0.41157 0.86471 0.10257 0.0
C1302 C 0.42434 0.85532 0.08699 0.0
H1303 H 0.41306 0.92258 0.12041 0.0
H1304 H 0.38939 0.83104 0.11 0.0
C1305 C 0.45311 0.90051 0.07789 0.0
C1306 C 0.14405 0.49579 0.07333 0.0
C1307 C 0.12176 0.50609 0.08667 0.0
H1308 H 0.20121 0.53051 0.05595 0.0
C1309 C 0.13128 0.55956 0.09004 0.0
H1310 H 0.13665 0.45472 0.07031 0.0
C1311 C 0.16827 0.60305 0.08177 0.0
C1312 C 0.19568 0.59359 0.06985 0.0
H1313 H 0.11449 0.56857 0.10021 0.0
H1314 H 0.18026 0.6447 0.08615 0.0
C1315 C 0.18012 0.53909 0.06483 0.0
C1316 C 0.54897 0.67514 0.07399 0.0
C1317 C 0.55032 0.64858 0.08789 0.0
H1318 H 0.50196 0.69053 0.05703 0.0
C1319 C 0.50316 0.60793 0.09326 0.0
H1320 H 0.58484 0.70588 0.06941 0.0
C1321 C 0.45573 0.59917 0.08619 0.0
C1322 C 0.45468 0.63024 0.07346 0.0
H1323 H 0.50309 0.58668 0.10388 0.0
H1324 H 0.42024 0.57202 0.09172 0.0
C1325 C 0.50146 0.66555 0.0667 0.0
C1326 C 0.14977 0.68802 0.57471 0.0
C1327 C 0.12228 0.65739 0.58751 0.0
H1328 H 0.21207 0.70773 0.55937 0.0
C1329 C 0.12918 0.61403 0.59208 0.0
H1330 H 0.14456 0.72107 0.57073 0.0
C1331 C 0.16763 0.60625 0.58549 0.0
C1332 C 0.1991 0.64094 0.574 0.0
H1333 H 0.10859 0.58975 0.60188 0.0
H1334 H 0.17656 0.57705 0.59066 0.0
C1335 C 0.18762 0.67958 0.56792 0.0
C1336 C 0.39241 0.50647 0.60196 0.0
C1337 C 0.43884 0.51004 0.59768 0.0
H1338 H 0.33979 0.53596 0.59924 0.0
C1339 C 0.46786 0.54781 0.58631 0.0
H1340 H 0.36844 0.47742 0.61039 0.0
C1341 C 0.45118 0.5822 0.57975 0.0
C1342 C 0.4052 0.57915 0.58447 0.0
H1343 H 0.50358 0.55106 0.58257 0.0
H1344 H 0.47479 0.61195 0.57143 0.0
C1345 C 0.37581 0.54013 0.59542 0.0
C1346 C 0.53111 0.91733 0.60823 0.0
C1347 C 0.54839 0.95885 0.59745 0.0
H1348 H 0.47789 0.83409 0.61216 0.0
C1349 C 0.52219 0.94738 0.58186 0.0
H1350 H 0.55021 0.92492 0.62032 0.0
C1351 C 0.48058 0.89455 0.57699 0.0
C1352 C 0.46417 0.85272 0.58773 0.0
H1353 H 0.53482 0.97871 0.57326 0.0
H1354 H 0.46198 0.88633 0.5648 0.0
C1355 C 0.48939 0.86515 0.60349 0.0
C1356 C 0.25905 0.43463 0.32274 0.0
C1357 C 0.27434 0.42688 0.30743 0.0
H1358 H 0.26229 0.49265 0.34115 0.0
C1359 C 0.30142 0.47233 0.29836 0.0
H1360 H 0.23849 0.40018 0.33007 0.0
C1361 C 0.31425 0.52458 0.30454 0.0
C1362 C 0.30143 0.53334 0.32018 0.0
H1363 H 0.31369 0.46766 0.28656 0.0
H1364 H 0.33615 0.55854 0.29718 0.0
C1365 C 0.27296 0.48757 0.32915 0.0
C1366 C 0.58339 0.89042 0.33354 0.0
C1367 C 0.60559 0.87802 0.32059 0.0
H1368 H 0.52575 0.85877 0.35086 0.0
C1369 C 0.59491 0.82391 0.31781 0.0
H1370 H 0.5913 0.93197 0.33597 0.0
C1371 C 0.55711 0.78182 0.32632 0.0
C1372 C 0.5301 0.79337 0.33792 0.0
H1373 H 0.6114 0.81335 0.30786 0.0
H1374 H 0.54432 0.73962 0.32236 0.0
C1375 C 0.54661 0.84857 0.34231 0.0
C1376 C 0.22532 0.78635 0.31594 0.0
C1377 C 0.17865 0.74962 0.32246 0.0
H1378 H 0.30721 0.81666 0.31595 0.0
C1379 C 0.18104 0.72525 0.33676 0.0
H1380 H 0.22468 0.80587 0.305 0.0
C1381 C 0.22848 0.73242 0.3433 0.0
C1382 C 0.27409 0.76322 0.33542 0.0
H1383 H 0.14566 0.6976 0.34223 0.0
H1384 H 0.22825 0.70877 0.35332 0.0
C1385 C 0.27262 0.79281 0.3223 0.0
loop_
_geom_bond_atom_site_label_1
_geom_bond_atom_site_label_2
_geom_bond_distance
_geom_bond_site_symmetry_2
_ccdc_geom_bond_type
Cu0 N1 1.999 . S
Cu0 O6 1.974 . S
Cu0 N11 1.985 . S
Cu0 O20 1.959 1_545 S
N1 Cu0 1.999 . S
N1 C3 1.263 . S
N1 C5 1.396 . S
N2 C3 1.358 . S
N2 C4 1.400 . S
C3 N1 1.263 . S
C3 N2 1.358 . S
C3 H9 0.930 . S
C4 N2 1.400 . S
C4 C5 1.352 . S
C4 H21 0.930 . S
C5 N1 1.396 . S
C5 C4 1.352 . S
C5 H10 0.923 1_545 S
O6 Cu0 1.974 . S
O6 C16 1.282 . S
C7 O8 1.261 . S
C7 O20 1.251 1_545 S
O8 C7 1.261 . S
H9 C3 0.930 . S
H10 C5 0.923 1_565 S
N11 Cu0 1.985 . S
N11 C13 1.335 1_545 S
N11 C14 1.390 . S
N12 C13 1.345 . S
N12 C15 1.336 1_565 S
C13 N11 1.335 1_565 S
C13 N12 1.345 . S
C13 H18 0.930 . S
C14 N11 1.390 . S
C14 C15 1.346 . S
C14 H19 0.930 . S
C15 N12 1.336 1_545 S
C15 C14 1.346 . S
C15 H22 0.929 . S
C16 O6 1.282 . S
C16 O17 1.216 . S
O17 C16 1.216 . S
H18 C13 0.930 . S
H19 C14 0.930 . S
O20 Cu0 1.959 1_565 S
O20 C7 1.251 1_565 S
H21 C4 0.930 . S
H22 C15 0.929 . S
Cu23 N24 1.999 . S
Cu23 O29 1.974 . S
Cu23 N34 1.985 . S
Cu23 O43 1.959 . S
N24 Cu23 1.999 . S
N24 C26 1.263 1_455 S
N24 C28 1.389 . S
N25 C26 1.358 . S
N25 C27 1.400 1_655 S
C26 N24 1.263 1_655 S
C26 N25 1.358 . S
C26 H32 0.930 . S
C27 N25 1.400 1_455 S
C27 C28 1.351 . S
C27 H44 0.930 . S
C28 N24 1.389 . S
C28 C27 1.351 . S
C28 H33 0.930 . S
O29 Cu23 1.974 . S
O29 C39 1.282 1_455 S
C30 O31 1.261 1_455 S
C30 O43 1.251 . S
O31 C30 1.261 1_655 S
H32 C26 0.930 . S
H33 C28 0.930 . S
N34 Cu23 1.985 . S
N34 C36 1.335 . S
N34 C37 1.390 . S
N35 C36 1.345 . S
N35 C38 1.336 . S
C36 N34 1.335 . S
C36 N35 1.345 . S
C36 H41 0.930 . S
C37 N34 1.390 . S
C37 C38 1.346 . S
C37 H42 0.930 1_455 S
C38 N35 1.336 . S
C38 C37 1.346 . S
C38 H45 0.929 . S
C39 O29 1.282 1_655 S
C39 O40 1.216 . S
O40 C39 1.216 . S
H41 C36 0.930 . S
H42 C37 0.930 1_655 S
O43 Cu23 1.959 . S
O43 C30 1.251 . S
H44 C27 0.930 . S
H45 C38 0.929 . S
Cu46 N47 1.999 . S
Cu46 O52 1.974 . S
Cu46 N57 1.985 . S
Cu46 O66 1.959 . S
N47 Cu46 1.999 . S
N47 C49 1.263 . S
N47 C51 1.389 . S
N48 C49 1.358 . S
N48 C50 1.400 . S
C49 N47 1.263 . S
C49 N48 1.358 . S
C49 H55 0.930 . S
C50 N48 1.400 . S
C50 C51 1.351 . S
C50 H67 0.930 . S
C51 N47 1.389 . S
C51 C50 1.351 . S
C51 H56 0.930 . S
O52 Cu46 1.974 . S
O52 C62 1.282 . S
C53 O54 1.261 . S
C53 O66 1.251 . S
O54 C53 1.261 . S
H55 C49 0.930 . S
H56 C51 0.930 . S
N57 Cu46 1.985 . S
N57 C59 1.335 . S
N57 C60 1.390 . S
N58 C59 1.345 . S
N58 C61 1.336 . S
C59 N57 1.335 . S
C59 N58 1.345 . S
C59 H64 0.930 . S
C60 N57 1.390 . S
C60 C61 1.346 . S
C60 H65 0.930 . S
C61 N58 1.336 . S
C61 C60 1.346 . S
C61 H68 0.929 . S
C62 O52 1.282 . S
C62 O63 1.216 . S
O63 C62 1.216 . S
H64 C59 0.930 . S
H65 C60 0.930 . S
O66 Cu46 1.959 . S
O66 C53 1.251 . S
H67 C50 0.930 . S
H68 C61 0.929 . S
Cu69 N70 1.999 . S
Cu69 O75 1.974 . S
Cu69 N80 1.985 . S
Cu69 O89 1.959 . S
N70 Cu69 1.999 . S
N70 C72 1.263 1_545 S
N70 C74 1.389 . S
N71 C72 1.358 . S
N71 C73 1.400 1_565 S
C72 N70 1.263 1_565 S
C72 N71 1.358 . S
C72 H78 0.930 . S
C73 N71 1.400 1_545 S
C73 C74 1.351 . S
C73 H90 0.930 . S
C74 N70 1.389 . S
C74 C73 1.351 . S
C74 H79 0.930 . S
O75 Cu69 1.974 . S
O75 C85 1.282 1_545 S
C76 O77 1.261 1_545 S
C76 O89 1.251 . S
O77 C76 1.261 1_565 S
H78 C72 0.930 . S
H79 C74 0.930 . S
N80 Cu69 1.985 . S
N80 C82 1.335 . S
N80 C83 1.390 . S
N81 C82 1.345 . S
N81 C84 1.336 . S
C82 N80 1.335 . S
C82 N81 1.345 . S
C82 H87 0.930 . S
C83 N80 1.390 . S
C83 C84 1.346 . S
C83 H88 0.930 1_545 S
C84 N81 1.336 . S
C84 C83 1.346 . S
C84 H91 0.929 . S
C85 O75 1.282 1_565 S
C85 O86 1.216 . S
O86 C85 1.216 . S
H87 C82 0.930 . S
H88 C83 0.930 1_565 S
O89 Cu69 1.959 . S
O89 C76 1.251 . S
H90 C73 0.930 . S
H91 C84 0.929 . S
Cu92 N93 1.999 . S
Cu92 O98 1.974 . S
Cu92 N103 1.994 . S
Cu92 O112 1.959 1_455 S
N93 Cu92 1.999 . S
N93 C95 1.263 . S
N93 C97 1.389 . S
N94 C95 1.358 . S
N94 C96 1.400 . S
C95 N93 1.263 . S
C95 N94 1.358 . S
C95 H101 0.930 . S
C96 N94 1.400 . S
C96 C97 1.351 . S
C96 H113 0.930 . S
C97 N93 1.389 . S
C97 C96 1.351 . S
C97 H102 0.930 1_455 S
O98 Cu92 1.974 . S
O98 C108 1.282 . S
C99 O100 1.261 . S
C99 O112 1.251 1_455 S
O100 C99 1.261 . S
H101 C95 0.930 . S
H102 C97 0.930 1_655 S
N103 Cu92 1.994 . S
N103 C105 1.324 1_455 S
N103 C106 1.388 . S
N104 C105 1.345 . S
N104 C107 1.336 1_655 S
C105 N103 1.324 1_655 S
C105 N104 1.345 . S
C105 H110 0.930 . S
C106 N103 1.388 . S
C106 C107 1.346 . S
C106 H111 0.930 . S
C107 N104 1.336 1_455 S
C107 C106 1.346 . S
C107 H114 0.929 . S
C108 O98 1.282 . S
C108 O109 1.216 . S
O109 C108 1.216 . S
H110 C105 0.930 . S
H111 C106 0.930 . S
O112 Cu92 1.959 1_655 S
O112 C99 1.251 1_655 S
H113 C96 0.930 . S
H114 C107 0.929 . S
Cu115 N116 1.999 . S
Cu115 O121 1.974 . S
Cu115 N126 1.985 . S
Cu115 O135 1.959 . S
N116 Cu115 1.999 . S
N116 C118 1.263 . S
N116 C120 1.389 . S
N117 C118 1.358 . S
N117 C119 1.400 . S
C118 N116 1.263 . S
C118 N117 1.358 . S
C118 H124 0.930 . S
C119 N117 1.400 . S
C119 C120 1.351 . S
C119 H136 0.930 . S
C120 N116 1.389 . S
C120 C119 1.351 . S
C120 H125 0.930 . S
O121 Cu115 1.974 . S
O121 C131 1.282 . S
C122 O123 1.261 . S
C122 O135 1.251 . S
O123 C122 1.261 . S
H124 C118 0.930 . S
H125 C120 0.930 . S
N126 Cu115 1.985 . S
N126 C128 1.335 . S
N126 C129 1.390 . S
N127 C128 1.345 . S
N127 C130 1.336 . S
C128 N126 1.335 . S
C128 N127 1.345 . S
C128 H133 0.930 . S
C129 N126 1.390 . S
C129 C130 1.346 . S
C129 H134 0.930 . S
C130 N127 1.336 . S
C130 C129 1.346 . S
C130 H137 0.929 . S
C131 O121 1.282 . S
C131 O132 1.216 . S
O132 C131 1.216 . S
H133 C128 0.930 . S
H134 C129 0.930 . S
O135 Cu115 1.959 . S
O135 C122 1.251 . S
H136 C119 0.930 . S
H137 C130 0.929 . S
Cu138 N139 1.999 . S
Cu138 O144 1.974 . S
Cu138 N149 1.985 . S
Cu138 O158 1.959 . S
N139 Cu138 1.999 . S
N139 C141 1.263 . S
N139 C143 1.389 . S
N140 C141 1.358 . S
N140 C142 1.400 . S
C141 N139 1.263 . S
C141 N140 1.358 . S
C141 H147 0.930 . S
C142 N140 1.400 . S
C142 C143 1.351 . S
C142 H159 0.930 . S
C143 N139 1.389 . S
C143 C142 1.351 . S
C143 H148 0.930 . S
O144 Cu138 1.974 . S
O144 C154 1.282 . S
C145 O146 1.261 . S
C145 O158 1.251 . S
O146 C145 1.261 . S
H147 C141 0.930 . S
H148 C143 0.930 . S
N149 Cu138 1.985 . S
N149 C151 1.335 . S
N149 C152 1.390 . S
N150 C151 1.345 . S
N150 C153 1.336 . S
C151 N149 1.335 . S
C151 N150 1.345 . S
C151 H156 0.930 . S
C152 N149 1.390 . S
C152 C153 1.346 . S
C152 H157 0.930 . S
C153 N150 1.336 . S
C153 C152 1.346 . S
C153 H160 0.929 . S
C154 O144 1.282 . S
C154 O155 1.216 . S
O155 C154 1.216 . S
H156 C151 0.930 . S
H157 C152 0.930 . S
O158 Cu138 1.959 . S
O158 C145 1.251 . S
H159 C142 0.930 . S
H160 C153 0.929 . S
Cu161 N162 1.999 . S
Cu161 O167 1.974 . S
Cu161 N172 1.985 . S
Cu161 O181 1.959 . S
N162 Cu161 1.999 . S
N162 C164 1.263 . S
N162 C166 1.389 . S
N163 C164 1.358 . S
N163 C165 1.400 . S
C164 N162 1.263 . S
C164 N163 1.358 . S
C164 H170 0.930 . S
C165 N163 1.400 . S
C165 C166 1.351 . S
C165 H182 0.930 . S
C166 N162 1.389 . S
C166 C165 1.351 . S
C166 H171 0.930 . S
O167 Cu161 1.974 . S
O167 C177 1.282 1_545 S
C168 O169 1.261 . S
C168 O181 1.251 . S
O169 C168 1.261 . S
H170 C164 0.930 . S
H171 C166 0.930 . S
N172 Cu161 1.985 . S
N172 C174 1.335 . S
N172 C175 1.390 1_545 S
N173 C174 1.345 . S
N173 C176 1.336 1_545 S
C174 N172 1.335 . S
C174 N173 1.345 . S
C174 H179 0.930 . S
C175 N172 1.390 1_565 S
C175 C176 1.346 . S
C175 H180 0.930 . S
C176 N173 1.336 1_565 S
C176 C175 1.346 . S
C176 H183 0.929 . S
C177 O167 1.282 1_565 S
C177 O178 1.216 . S
O178 C177 1.216 . S
H179 C174 0.930 . S
H180 C175 0.930 . S
O181 Cu161 1.959 . S
O181 C168 1.251 . S
H182 C165 0.930 . S
H183 C176 0.929 . S
Cu184 N185 1.999 . S
Cu184 O190 1.974 1_655 S
Cu184 N195 1.985 1_655 S
Cu184 O204 1.959 . S
N185 Cu184 1.999 . S
N185 C187 1.263 . S
N185 C189 1.389 . S
N186 C187 1.358 . S
N186 C188 1.400 . S
C187 N185 1.263 . S
C187 N186 1.358 . S
C187 H193 0.930 . S
C188 N186 1.400 . S
C188 C189 1.351 . S
C188 H205 0.930 . S
C189 N185 1.389 . S
C189 C188 1.351 . S
C189 H194 0.930 . S
O190 Cu184 1.974 1_455 S
O190 C200 1.282 . S
C191 O192 1.261 . S
C191 O204 1.251 . S
O192 C191 1.261 . S
H193 C187 0.930 . S
H194 C189 0.930 . S
N195 Cu184 1.985 1_455 S
N195 C197 1.335 . S
N195 C198 1.390 . S
N196 C197 1.345 . S
N196 C199 1.336 . S
C197 N195 1.335 . S
C197 N196 1.345 . S
C197 H202 0.930 . S
C198 N195 1.390 . S
C198 C199 1.346 . S
C198 H203 0.930 . S
C199 N196 1.336 . S
C199 C198 1.346 . S
C199 H206 0.929 . S
C200 O190 1.282 . S
C200 O201 1.216 1_455 S
O201 C200 1.216 1_655 S
H202 C197 0.930 . S
H203 C198 0.930 . S
O204 Cu184 1.959 . S
O204 C191 1.251 . S
H205 C188 0.930 . S
H206 C199 0.929 . S
Cu207 N208 1.999 . S
Cu207 O213 1.974 1_655 S
Cu207 N218 1.985 1_655 S
Cu207 O227 1.959 . S
N208 Cu207 1.999 . S
N208 C210 1.263 . S
N208 C212 1.389 . S
N209 C210 1.358 . S
N209 C211 1.400 . S
C210 N208 1.263 . S
C210 N209 1.358 . S
C210 H216 0.930 . S
C211 N209 1.400 . S
C211 C212 1.351 . S
C211 H228 0.930 . S
C212 N208 1.389 . S
C212 C211 1.351 . S
C212 H217 0.930 . S
O213 Cu207 1.974 1_455 S
O213 C223 1.286 1_455 S
C214 O215 1.261 . S
C214 O227 1.251 . S
O215 C214 1.261 . S
H216 C210 0.930 . S
H217 C212 0.930 . S
N218 Cu207 1.985 1_455 S
N218 C220 1.335 . S
N218 C221 1.390 . S
N219 C220 1.345 . S
N219 C222 1.336 . S
C220 N218 1.335 . S
C220 N219 1.345 . S
C220 H225 0.930 . S
C221 N218 1.390 . S
C221 C222 1.346 . S
C221 H226 0.930 . S
C222 N219 1.336 . S
C222 C221 1.346 . S
C222 H229 0.929 . S
C223 O213 1.286 1_655 S
C223 O224 1.219 . S
O224 C223 1.219 . S
H225 C220 0.930 . S
H226 C221 0.930 . S
O227 Cu207 1.959 . S
O227 C214 1.251 . S
H228 C211 0.930 . S
H229 C222 0.929 . S
Cu230 N231 1.999 . S
Cu230 O236 1.974 . S
Cu230 N241 1.985 . S
Cu230 O250 1.959 . S
N231 Cu230 1.999 . S
N231 C233 1.263 . S
N231 C235 1.389 . S
N232 C233 1.358 . S
N232 C234 1.400 . S
C233 N231 1.263 . S
C233 N232 1.358 . S
C233 H239 0.930 . S
C234 N232 1.400 . S
C234 C235 1.351 . S
C234 H251 0.930 . S
C235 N231 1.389 . S
C235 C234 1.351 . S
C235 H240 0.930 . S
O236 Cu230 1.974 . S
O236 C246 1.282 . S
C237 O238 1.261 . S
C237 O250 1.251 . S
O238 C237 1.261 . S
H239 C233 0.930 . S
H240 C235 0.930 . S
N241 Cu230 1.985 . S
N241 C243 1.335 . S
N241 C244 1.390 . S
N242 C243 1.345 . S
N242 C245 1.336 . S
C243 N241 1.335 . S
C243 N242 1.345 . S
C243 H248 0.930 . S
C244 N241 1.390 . S
C244 C245 1.346 . S
C244 H249 0.930 . S
C245 N242 1.336 . S
C245 C244 1.346 . S
C245 H252 0.929 . S
C246 O236 1.282 . S
C246 O247 1.216 . S
O247 C246 1.216 . S
H248 C243 0.930 . S
H249 C244 0.930 . S
O250 Cu230 1.959 . S
O250 C237 1.251 . S
H251 C234 0.930 . S
H252 C245 0.929 . S
Cu253 N254 1.999 . S
Cu253 O259 1.974 . S
Cu253 N264 1.985 . S
Cu253 O273 1.959 . S
N254 Cu253 1.999 . S
N254 C256 1.263 . S
N254 C258 1.389 . S
N255 C256 1.358 . S
N255 C257 1.400 . S
C256 N254 1.263 . S
C256 N255 1.358 . S
C256 H262 0.930 . S
C257 N255 1.400 . S
C257 C258 1.351 . S
C257 H274 0.930 . S
C258 N254 1.389 . S
C258 C257 1.351 . S
C258 H263 0.930 . S
O259 Cu253 1.974 . S
O259 C269 1.282 1_545 S
C260 O261 1.261 . S
C260 O273 1.251 . S
O261 C260 1.261 . S
H262 C256 0.930 . S
H263 C258 0.930 . S
N264 Cu253 1.985 . S
N264 C266 1.335 . S
N264 C267 1.390 1_545 S
N265 C266 1.345 . S
N265 C268 1.336 1_545 S
C266 N264 1.335 . S
C266 N265 1.345 . S
C266 H271 0.930 . S
C267 N264 1.390 1_565 S
C267 C268 1.346 . S
C267 H272 0.930 . S
C268 N265 1.336 1_565 S
C268 C267 1.346 . S
C268 H275 0.929 . S
C269 O259 1.282 1_565 S
C269 O270 1.216 . S
O270 C269 1.216 . S
H271 C266 0.930 . S
H272 C267 0.930 . S
O273 Cu253 1.959 . S
O273 C260 1.251 . S
H274 C257 0.930 . S
H275 C268 0.929 . S
Cu276 N277 1.999 . S
Cu276 O282 1.974 . S
Cu276 N287 1.985 . S
Cu276 O296 1.959 . S
N277 Cu276 1.999 . S
N277 C279 1.263 . S
N277 C281 1.389 . S
N278 C279 1.358 . S
N278 C280 1.400 . S
C279 N277 1.263 . S
C279 N278 1.358 . S
C279 H285 0.930 . S
C280 N278 1.400 . S
C280 C281 1.351 . S
C280 H297 0.930 . S
C281 N277 1.389 . S
C281 C280 1.351 . S
C281 H286 0.930 . S
O282 Cu276 1.974 . S
O282 C292 1.282 . S
C283 O284 1.261 . S
C283 O296 1.251 . S
O284 C283 1.261 . S
H285 C279 0.930 . S
H286 C281 0.930 . S
N287 Cu276 1.985 . S
N287 C289 1.335 1_455 S
N287 C290 1.390 1_455 S
N288 C289 1.345 . S
N288 C291 1.336 . S
C289 N287 1.335 1_655 S
C289 N288 1.345 . S
C289 H294 0.930 1_655 S
C290 N287 1.390 1_655 S
C290 C291 1.346 . S
C290 H295 0.930 . S
C291 N288 1.336 . S
C291 C290 1.346 . S
C291 H298 0.929 . S
C292 O282 1.282 . S
C292 O293 1.216 . S
O293 C292 1.216 . S
H294 C289 0.930 1_455 S
H295 C290 0.930 . S
O296 Cu276 1.959 . S
O296 C283 1.251 . S
H297 C280 0.930 . S
H298 C291 0.929 . S
Cu299 N300 1.999 . S
Cu299 O305 1.974 . S
Cu299 N310 1.985 . S
Cu299 O319 1.959 . S
N300 Cu299 1.999 . S
N300 C302 1.263 . S
N300 C304 1.389 . S
N301 C302 1.358 . S
N301 C303 1.400 . S
C302 N300 1.263 . S
C302 N301 1.358 . S
C302 H308 0.930 . S
C303 N301 1.400 . S
C303 C304 1.351 . S
C303 H320 0.930 . S
C304 N300 1.389 . S
C304 C303 1.351 . S
C304 H309 0.930 . S
O305 Cu299 1.974 . S
O305 C315 1.282 . S
C306 O307 1.261 . S
C306 O319 1.251 . S
O307 C306 1.261 . S
H308 C302 0.930 . S
H309 C304 0.930 . S
N310 Cu299 1.985 . S
N310 C312 1.335 . S
N310 C313 1.390 . S
N311 C312 1.345 . S
N311 C314 1.336 . S
C312 N310 1.335 . S
C312 N311 1.345 . S
C312 H317 0.930 . S
C313 N310 1.390 . S
C313 C314 1.346 . S
C313 H318 0.930 . S
C314 N311 1.336 . S
C314 C313 1.346 . S
C314 H321 0.929 . S
C315 O305 1.282 . S
C315 O316 1.216 . S
O316 C315 1.216 . S
H317 C312 0.930 . S
H318 C313 0.930 . S
O319 Cu299 1.959 . S
O319 C306 1.251 . S
H320 C303 0.930 . S
H321 C314 0.929 . S
Cu322 N323 1.999 . S
Cu322 O328 1.974 1_565 S
Cu322 N333 1.985 1_565 S
Cu322 O342 1.959 . S
N323 Cu322 1.999 . S
N323 C325 1.263 . S
N323 C327 1.389 . S
N324 C325 1.358 . S
N324 C326 1.400 . S
C325 N323 1.263 . S
C325 N324 1.358 . S
C325 H331 0.930 . S
C326 N324 1.400 . S
C326 C327 1.351 . S
C326 H343 0.930 . S
C327 N323 1.389 . S
C327 C326 1.351 . S
C327 H332 0.930 . S
O328 Cu322 1.974 1_545 S
O328 C338 1.282 . S
C329 O330 1.261 . S
C329 O342 1.251 . S
O330 C329 1.261 . S
H331 C325 0.930 . S
H332 C327 0.930 . S
N333 Cu322 1.985 1_545 S
N333 C335 1.336 . S
N333 C336 1.390 . S
N334 C335 1.345 . S
N334 C337 1.336 . S
C335 N333 1.336 . S
C335 N334 1.345 . S
C335 H340 0.929 1_545 S
C336 N333 1.390 . S
C336 C337 1.346 . S
C336 H341 0.930 . S
C337 N334 1.336 . S
C337 C336 1.346 . S
C337 H344 0.929 . S
C338 O328 1.282 . S
C338 O339 1.216 . S
O339 C338 1.216 . S
H340 C335 0.929 1_565 S
H341 C336 0.930 . S
O342 Cu322 1.959 . S
O342 C329 1.251 . S
H343 C326 0.930 . S
H344 C337 0.929 . S
Cu345 N346 1.999 . S
Cu345 O351 1.974 . S
Cu345 N356 1.985 . S
Cu345 O365 1.959 . S
N346 Cu345 1.999 . S
N346 C348 1.263 . S
N346 C350 1.389 . S
N347 C348 1.358 . S
N347 C349 1.400 . S
C348 N346 1.263 . S
C348 N347 1.358 . S
C348 H354 0.930 . S
C349 N347 1.400 . S
C349 C350 1.351 . S
C349 H366 0.930 . S
C350 N346 1.389 . S
C350 C349 1.351 . S
C350 H355 0.930 . S
O351 Cu345 1.974 . S
O351 C361 1.282 . S
C352 O353 1.261 . S
C352 O365 1.251 . S
O353 C352 1.261 . S
H354 C348 0.930 . S
H355 C350 0.930 . S
N356 Cu345 1.985 . S
N356 C358 1.335 . S
N356 C359 1.390 . S
N357 C358 1.345 . S
N357 C360 1.336 . S
C358 N356 1.335 . S
C358 N357 1.345 . S
C358 H363 0.930 . S
C359 N356 1.390 . S
C359 C360 1.346 . S
C359 H364 0.930 . S
C360 N357 1.336 . S
C360 C359 1.346 . S
C360 H367 0.929 . S
C361 O351 1.282 . S
C361 O362 1.216 . S
O362 C361 1.216 . S
H363 C358 0.930 . S
H364 C359 0.930 . S
O365 Cu345 1.959 . S
O365 C352 1.251 . S
H366 C349 0.930 . S
H367 C360 0.929 . S
Cu368 N369 1.999 . S
Cu368 O374 1.974 1_565 S
Cu368 N379 1.985 1_565 S
Cu368 O388 1.959 . S
N369 Cu368 1.999 . S
N369 C371 1.263 . S
N369 C373 1.389 . S
N370 C371 1.358 . S
N370 C372 1.400 . S
C371 N369 1.263 . S
C371 N370 1.358 . S
C371 H377 0.930 . S
C372 N370 1.400 . S
C372 C373 1.351 . S
C372 H389 0.930 . S
C373 N369 1.389 . S
C373 C372 1.351 . S
C373 H378 0.930 . S
O374 Cu368 1.974 1_545 S
O374 C384 1.282 . S
C375 O376 1.261 . S
C375 O388 1.251 . S
O376 C375 1.261 . S
H377 C371 0.930 . S
H378 C373 0.930 . S
N379 Cu368 1.985 1_545 S
N379 C381 1.335 1_545 S
N379 C382 1.390 . S
N380 C381 1.345 1_545 S
N380 C383 1.336 . S
C381 N379 1.335 1_565 S
C381 N380 1.345 1_565 S
C381 H386 0.930 . S
C382 N379 1.390 . S
C382 C383 1.346 . S
C382 H387 0.930 . S
C383 N380 1.336 . S
C383 C382 1.346 . S
C383 H390 0.929 . S
C384 O374 1.282 . S
C384 O385 1.216 . S
O385 C384 1.216 . S
H386 C381 0.930 . S
H387 C382 0.930 . S
O388 Cu368 1.959 . S
O388 C375 1.251 . S
H389 C372 0.930 . S
H390 C383 0.929 . S
Cu391 N392 1.999 . S
Cu391 O397 1.974 . S
Cu391 N402 1.985 . S
Cu391 O411 1.959 . S
N392 Cu391 1.999 . S
N392 C394 1.263 . S
N392 C396 1.389 . S
N393 C394 1.358 . S
N393 C395 1.400 . S
C394 N392 1.263 . S
C394 N393 1.358 . S
C394 H400 0.930 . S
C395 N393 1.400 . S
C395 C396 1.351 . S
C395 H412 0.930 . S
C396 N392 1.389 . S
C396 C395 1.351 . S
C396 H401 0.930 . S
O397 Cu391 1.974 . S
O397 C407 1.282 . S
C398 O399 1.261 . S
C398 O411 1.251 . S
O399 C398 1.261 . S
H400 C394 0.930 . S
H401 C396 0.930 . S
N402 Cu391 1.985 . S
N402 C404 1.335 1_455 S
N402 C405 1.390 1_455 S
N403 C404 1.345 . S
N403 C406 1.336 . S
C404 N402 1.335 1_655 S
C404 N403 1.345 . S
C404 H409 0.930 1_655 S
C405 N402 1.390 1_655 S
C405 C406 1.346 . S
C405 H410 0.930 . S
C406 N403 1.336 . S
C406 C405 1.346 . S
C406 H413 0.929 . S
C407 O397 1.282 . S
C407 O408 1.216 . S
O408 C407 1.216 . S
H409 C404 0.930 1_455 S
H410 C405 0.930 . S
O411 Cu391 1.959 . S
O411 C398 1.251 . S
H412 C395 0.930 . S
H413 C406 0.929 . S
Zn414 O420 1.920 1_455 S
Zn414 O426 1.898 1_445 S
Zn414 O429 1.905 . S
Zn415 O423 1.905 1_545 S
Zn415 O424 1.898 . S
Zn415 O432 1.920 1_455 S
Zn416 O419 2.080 . S
Zn416 O422 2.114 1_545 S
Zn416 O425 2.120 . S
Zn416 O427 2.120 1_445 S
Zn416 O428 2.114 . S
Zn416 O431 2.080 1_455 S
C417 O422 1.166 . S
C417 O423 1.182 . S
C418 O424 1.167 . S
C418 O425 1.299 . S
O419 Zn416 2.080 . S
O419 C433 1.305 1_455 S
O420 Zn414 1.920 1_655 S
O420 C433 1.234 . S
C421 O426 1.167 . S
C421 O427 1.299 . S
O422 Zn416 2.114 1_565 S
O422 C417 1.166 . S
O423 Zn415 1.905 1_565 S
O423 C417 1.182 . S
O424 Zn415 1.898 . S
O424 C418 1.167 . S
O425 Zn416 2.120 . S
O425 C418 1.299 . S
O426 Zn414 1.898 1_665 S
O426 C421 1.167 . S
O427 Zn416 2.120 1_665 S
O427 C421 1.299 . S
O428 Zn416 2.114 . S
O428 C430 1.166 . S
O429 Zn414 1.905 . S
O429 C430 1.182 . S
C430 O428 1.166 . S
C430 O429 1.182 . S
O431 Zn416 2.080 1_655 S
O431 C434 1.305 . S
O432 Zn415 1.920 1_655 S
O432 C434 1.234 . S
C433 O419 1.305 1_655 S
C433 O420 1.234 . S
C434 O431 1.305 . S
C434 O432 1.234 . S
Zn435 O441 1.920 1_545 S
Zn435 O447 1.898 . S
Zn435 O450 1.905 1_455 S
Zn436 O444 1.905 . S
Zn436 O445 1.898 1_445 S
Zn436 O453 1.920 1_545 S
Zn437 O440 2.080 1_545 S
Zn437 O443 2.114 . S
Zn437 O446 2.120 1_445 S
Zn437 O448 2.120 . S
Zn437 O449 2.114 1_455 S
Zn437 O452 2.080 . S
C438 O443 1.166 . S
C438 O444 1.182 . S
C439 O445 1.167 . S
C439 O446 1.299 . S
O440 Zn437 2.080 1_565 S
O440 C454 1.305 . S
O441 Zn435 1.920 1_565 S
O441 C454 1.234 . S
C442 O447 1.167 . S
C442 O448 1.299 . S
O443 Zn437 2.114 . S
O443 C438 1.166 . S
O444 Zn436 1.905 . S
O444 C438 1.182 . S
O445 Zn436 1.898 1_665 S
O445 C439 1.167 . S
O446 Zn437 2.120 1_665 S
O446 C439 1.299 . S
O447 Zn435 1.898 . S
O447 C442 1.167 . S
O448 Zn437 2.120 . S
O448 C442 1.299 . S
O449 Zn437 2.114 1_655 S
O449 C451 1.166 . S
O450 Zn435 1.905 1_655 S
O450 C451 1.182 . S
C451 O449 1.166 . S
C451 O450 1.182 . S
O452 Zn437 2.080 . S
O452 C455 1.305 . S
O453 Zn436 1.920 1_565 S
O453 C455 1.234 1_565 S
C454 O440 1.305 . S
C454 O441 1.234 . S
C455 O452 1.305 . S
C455 O453 1.234 1_545 S
Zn456 O462 1.920 1_545 S
Zn456 O468 1.898 . S
Zn456 O471 1.905 1_445 S
Zn457 O465 1.905 . S
Zn457 O466 1.898 1_445 S
Zn457 O474 1.920 1_545 S
Zn458 O461 2.080 1_545 S
Zn458 O464 2.114 . S
Zn458 O467 2.120 1_445 S
Zn458 O469 2.120 . S
Zn458 O470 2.114 1_455 S
Zn458 O473 2.080 . S
C459 O464 1.166 . S
C459 O465 1.182 . S
C460 O466 1.167 . S
C460 O467 1.299 . S
O461 Zn458 2.080 1_565 S
O461 C475 1.305 . S
O462 Zn456 1.920 1_565 S
O462 C475 1.234 . S
C463 O468 1.167 . S
C463 O469 1.299 . S
O464 Zn458 2.114 . S
O464 C459 1.166 . S
O465 Zn457 1.905 . S
O465 C459 1.182 . S
O466 Zn457 1.898 1_665 S
O466 C460 1.167 . S
O467 Zn458 2.120 1_665 S
O467 C460 1.299 . S
O468 Zn456 1.898 . S
O468 C463 1.167 . S
O469 Zn458 2.120 . S
O469 C463 1.299 . S
O470 Zn458 2.114 1_655 S
O470 C472 1.166 1_545 S
O471 Zn456 1.905 1_665 S
O471 C472 1.182 . S
C472 O470 1.166 1_565 S
C472 O471 1.182 . S
O473 Zn458 2.080 . S
O473 C476 1.305 1_545 S
O474 Zn457 1.920 1_565 S
O474 C476 1.234 . S
C475 O461 1.305 . S
C475 O462 1.234 . S
C476 O473 1.305 1_565 S
C476 O474 1.234 . S
Zn477 O483 1.920 . S
Zn477 O489 1.898 1_445 S
Zn477 O492 1.905 . S
Zn478 O486 1.905 1_445 S
Zn478 O487 1.898 . S
Zn478 O495 1.920 1_455 S
Zn479 O482 2.080 . S
Zn479 O485 2.114 1_545 S
Zn479 O488 2.120 . S
Zn479 O490 2.120 1_445 S
Zn479 O491 2.114 . S
Zn479 O494 2.080 1_455 S
C480 O485 1.166 . S
C480 O486 1.182 1_455 S
C481 O487 1.167 . S
C481 O488 1.299 . S
O482 Zn479 2.080 . S
O482 C496 1.305 . S
O483 Zn477 1.920 . S
O483 C496 1.234 . S
C484 O489 1.167 . S
C484 O490 1.299 . S
O485 Zn479 2.114 1_565 S
O485 C480 1.166 . S
O486 Zn478 1.905 1_665 S
O486 C480 1.182 1_655 S
O487 Zn478 1.898 . S
O487 C481 1.167 . S
O488 Zn479 2.120 . S
O488 C481 1.299 . S
O489 Zn477 1.898 1_665 S
O489 C484 1.167 . S
O490 Zn479 2.120 1_665 S
O490 C484 1.299 . S
O491 Zn479 2.114 . S
O491 C493 1.166 . S
O492 Zn477 1.905 . S
O492 C493 1.182 . S
C493 O491 1.166 . S
C493 O492 1.182 . S
O494 Zn479 2.080 1_655 S
O494 C497 1.305 . S
O495 Zn478 1.920 1_655 S
O495 C497 1.234 . S
C496 O482 1.305 . S
C496 O483 1.234 . S
C497 O494 1.305 . S
C497 O495 1.234 . S
Zn498 O504 1.920 . S
Zn498 O510 1.898 . S
Zn498 O513 1.905 . S
Zn499 O507 1.905 . S
Zn499 O508 1.898 . S
Zn499 O516 1.920 . S
Zn500 O503 2.080 . S
Zn500 O506 2.114 . S
Zn500 O509 2.120 . S
Zn500 O511 2.120 . S
Zn500 O512 2.114 . S
Zn500 O515 2.080 . S
C501 O506 1.166 . S
C501 O507 1.182 . S
C502 O508 1.167 . S
C502 O509 1.299 . S
O503 Zn500 2.080 . S
O503 C517 1.305 . S
O504 Zn498 1.920 . S
O504 C517 1.234 . S
C505 O510 1.167 . S
C505 O511 1.299 . S
O506 Zn500 2.114 . S
O506 C501 1.166 . S
O507 Zn499 1.905 . S
O507 C501 1.182 . S
O508 Zn499 1.898 . S
O508 C502 1.167 . S
O509 Zn500 2.120 . S
O509 C502 1.299 . S
O510 Zn498 1.898 . S
O510 C505 1.167 . S
O511 Zn500 2.120 . S
O511 C505 1.299 . S
O512 Zn500 2.114 . S
O512 C514 1.166 . S
O513 Zn498 1.905 . S
O513 C514 1.182 . S
C514 O512 1.166 . S
C514 O513 1.182 . S
O515 Zn500 2.080 . S
O515 C518 1.305 . S
O516 Zn499 1.920 . S
O516 C518 1.234 . S
C517 O503 1.305 . S
C517 O504 1.234 . S
C518 O515 1.305 . S
C518 O516 1.234 . S
Zn519 O525 1.920 . S
Zn519 O531 1.898 . S
Zn519 O534 1.905 . S
Zn520 O528 1.905 . S
Zn520 O529 1.898 . S
Zn520 O537 1.920 . S
Zn521 O524 2.080 . S
Zn521 O527 2.114 . S
Zn521 O530 2.120 . S
Zn521 O532 2.120 . S
Zn521 O533 2.114 . S
Zn521 O536 2.080 . S
C522 O527 1.166 . S
C522 O528 1.182 . S
C523 O529 1.167 . S
C523 O530 1.299 . S
O524 Zn521 2.080 . S
O524 C538 1.305 . S
O525 Zn519 1.920 . S
O525 C538 1.234 . S
C526 O531 1.167 . S
C526 O532 1.299 . S
O527 Zn521 2.114 . S
O527 C522 1.166 . S
O528 Zn520 1.905 . S
O528 C522 1.182 . S
O529 Zn520 1.898 . S
O529 C523 1.167 . S
O530 Zn521 2.120 . S
O530 C523 1.299 . S
O531 Zn519 1.898 . S
O531 C526 1.167 . S
O532 Zn521 2.120 . S
O532 C526 1.299 . S
O533 Zn521 2.114 . S
O533 C535 1.166 . S
O534 Zn519 1.905 . S
O534 C535 1.182 . S
C535 O533 1.166 . S
C535 O534 1.182 . S
O536 Zn521 2.080 . S
O536 C539 1.305 . S
O537 Zn520 1.920 . S
O537 C539 1.234 . S
C538 O524 1.305 . S
C538 O525 1.234 . S
C539 O536 1.305 . S
C539 O537 1.234 . S
Zn540 O546 1.920 . S
Zn540 O552 1.898 . S
Zn540 O555 1.905 . S
Zn541 O549 1.905 . S
Zn541 O550 1.898 . S
Zn541 O558 1.920 . S
Zn542 O545 2.080 . S
Zn542 O548 2.114 . S
Zn542 O551 2.120 . S
Zn542 O553 2.120 . S
Zn542 O554 2.114 . S
Zn542 O557 2.080 . S
C543 O548 1.166 . S
C543 O549 1.182 . S
C544 O550 1.167 . S
C544 O551 1.299 . S
O545 Zn542 2.080 . S
O545 C559 1.305 . S
O546 Zn540 1.920 . S
O546 C559 1.234 . S
C547 O552 1.167 . S
C547 O553 1.299 . S
O548 Zn542 2.114 . S
O548 C543 1.166 . S
O549 Zn541 1.905 . S
O549 C543 1.182 . S
O550 Zn541 1.898 . S
O550 C544 1.167 . S
O551 Zn542 2.120 . S
O551 C544 1.299 . S
O552 Zn540 1.898 . S
O552 C547 1.167 . S
O553 Zn542 2.120 . S
O553 C547 1.299 . S
O554 Zn542 2.114 . S
O554 C556 1.166 . S
O555 Zn540 1.905 . S
O555 C556 1.182 . S
C556 O554 1.166 . S
C556 O555 1.182 . S
O557 Zn542 2.080 . S
O557 C560 1.305 . S
O558 Zn541 1.920 . S
O558 C560 1.234 . S
C559 O545 1.305 . S
C559 O546 1.234 . S
C560 O557 1.305 . S
C560 O558 1.234 . S
Zn561 O567 1.920 . S
Zn561 O573 1.898 . S
Zn561 O576 1.905 . S
Zn562 O570 1.905 . S
Zn562 O571 1.898 . S
Zn562 O579 1.920 . S
Zn563 O566 2.080 1_556 S
Zn563 O569 2.114 . S
Zn563 O572 2.120 . S
Zn563 O574 2.120 1_556 S
Zn563 O575 2.114 1_556 S
Zn563 O578 2.080 . S
C564 O569 1.166 . S
C564 O570 1.182 . S
C565 O571 1.167 . S
C565 O572 1.299 . S
O566 Zn563 2.080 1_554 S
O566 C580 1.305 . S
O567 Zn561 1.920 . S
O567 C580 1.234 . S
C568 O573 1.167 . S
C568 O574 1.299 . S
O569 Zn563 2.114 . S
O569 C564 1.166 . S
O570 Zn562 1.905 . S
O570 C564 1.182 . S
O571 Zn562 1.898 . S
O571 C565 1.167 . S
O572 Zn563 2.120 . S
O572 C565 1.299 . S
O573 Zn561 1.898 . S
O573 C568 1.167 . S
O574 Zn563 2.120 1_554 S
O574 C568 1.299 . S
O575 Zn563 2.114 1_554 S
O575 C577 1.166 . S
O576 Zn561 1.905 . S
O576 C577 1.182 . S
C577 O575 1.166 . S
C577 O576 1.182 . S
O578 Zn563 2.080 . S
O578 C581 1.305 . S
O579 Zn562 1.920 . S
O579 C581 1.234 . S
C580 O566 1.305 . S
C580 O567 1.234 . S
C581 O578 1.305 . S
C581 O579 1.234 . S
Zn582 O588 1.920 . S
Zn582 O594 1.898 . S
Zn582 O597 1.905 . S
Zn583 O591 1.905 . S
Zn583 O592 1.898 . S
Zn583 O600 1.920 . S
Zn584 O587 2.080 . S
Zn584 O590 2.114 . S
Zn584 O593 2.120 . S
Zn584 O595 2.120 . S
Zn584 O596 2.114 . S
Zn584 O599 2.080 . S
C585 O590 1.166 . S
C585 O591 1.182 . S
C586 O592 1.167 . S
C586 O593 1.299 . S
O587 Zn584 2.080 . S
O587 C601 1.305 . S
O588 Zn582 1.920 . S
O588 C601 1.234 . S
C589 O594 1.167 . S
C589 O595 1.299 . S
O590 Zn584 2.114 . S
O590 C585 1.166 . S
O591 Zn583 1.905 . S
O591 C585 1.182 . S
O592 Zn583 1.898 . S
O592 C586 1.167 . S
O593 Zn584 2.120 . S
O593 C586 1.299 . S
O594 Zn582 1.898 . S
O594 C589 1.167 . S
O595 Zn584 2.120 . S
O595 C589 1.299 . S
O596 Zn584 2.114 . S
O596 C598 1.166 . S
O597 Zn582 1.905 . S
O597 C598 1.182 . S
C598 O596 1.166 . S
C598 O597 1.182 . S
O599 Zn584 2.080 . S
O599 C602 1.305 . S
O600 Zn583 1.920 . S
O600 C602 1.234 . S
C601 O587 1.305 . S
C601 O588 1.234 . S
C602 O599 1.305 . S
C602 O600 1.234 . S
Zn603 O609 1.920 . S
Zn603 O615 1.898 . S
Zn603 O618 1.905 . S
Zn604 O612 1.905 . S
Zn604 O613 1.898 . S
Zn604 O621 1.920 . S
Zn605 O608 2.080 . S
Zn605 O611 2.114 1_554 S
Zn605 O614 2.120 1_554 S
Zn605 O616 2.120 . S
Zn605 O617 2.114 . S
Zn605 O620 2.080 1_554 S
C606 O611 1.166 . S
C606 O612 1.182 . S
C607 O613 1.167 . S
C607 O614 1.299 . S
O608 Zn605 2.080 . S
O608 C622 1.305 . S
O609 Zn603 1.920 . S
O609 C622 1.234 . S
C610 O615 1.167 . S
C610 O616 1.299 . S
O611 Zn605 2.114 1_556 S
O611 C606 1.166 . S
O612 Zn604 1.905 . S
O612 C606 1.182 . S
O613 Zn604 1.898 . S
O613 C607 1.167 . S
O614 Zn605 2.120 1_556 S
O614 C607 1.299 . S
O615 Zn603 1.898 . S
O615 C610 1.167 . S
O616 Zn605 2.120 . S
O616 C610 1.299 . S
O617 Zn605 2.114 . S
O617 C619 1.166 . S
O618 Zn603 1.905 . S
O618 C619 1.182 . S
C619 O617 1.166 . S
C619 O618 1.182 . S
O620 Zn605 2.080 1_556 S
O620 C623 1.305 . S
O621 Zn604 1.920 . S
O621 C623 1.234 . S
C622 O608 1.305 . S
C622 O609 1.234 . S
C623 O620 1.305 . S
C623 O621 1.234 . S
Zn624 O630 1.920 . S
Zn624 O636 1.898 . S
Zn624 O639 1.905 . S
Zn625 O633 1.905 . S
Zn625 O634 1.898 . S
Zn625 O642 1.920 . S
Zn626 O629 2.080 . S
Zn626 O632 2.114 . S
Zn626 O635 2.120 . S
Zn626 O637 2.120 . S
Zn626 O638 2.114 . S
Zn626 O641 2.080 . S
C627 O632 1.166 . S
C627 O633 1.182 . S
C628 O634 1.167 . S
C628 O635 1.299 . S
O629 Zn626 2.080 . S
O629 C643 1.305 . S
O630 Zn624 1.920 . S
O630 C643 1.234 . S
C631 O636 1.167 . S
C631 O637 1.299 . S
O632 Zn626 2.114 . S
O632 C627 1.166 . S
O633 Zn625 1.905 . S
O633 C627 1.182 . S
O634 Zn625 1.898 . S
O634 C628 1.167 . S
O635 Zn626 2.120 . S
O635 C628 1.299 . S
O636 Zn624 1.898 . S
O636 C631 1.167 . S
O637 Zn626 2.120 . S
O637 C631 1.299 . S
O638 Zn626 2.114 . S
O638 C640 1.166 . S
O639 Zn624 1.905 . S
O639 C640 1.182 . S
C640 O638 1.166 . S
C640 O639 1.182 . S
O641 Zn626 2.080 . S
O641 C644 1.305 . S
O642 Zn625 1.920 . S
O642 C644 1.234 . S
C643 O629 1.305 . S
C643 O630 1.234 . S
C644 O641 1.305 . S
C644 O642 1.234 . S
Zn645 O651 1.920 . S
Zn645 O657 1.898 . S
Zn645 O660 1.905 . S
Zn646 O654 1.905 . S
Zn646 O655 1.898 . S
Zn646 O663 1.920 . S
Zn647 O650 2.080 . S
Zn647 O653 2.114 . S
Zn647 O656 2.120 . S
Zn647 O658 2.120 . S
Zn647 O659 2.114 . S
Zn647 O662 2.080 . S
C648 O653 1.166 . S
C648 O654 1.182 . S
C649 O655 1.167 . S
C649 O656 1.299 . S
O650 Zn647 2.080 . S
O650 C664 1.305 . S
O651 Zn645 1.920 . S
O651 C664 1.234 . S
C652 O657 1.167 . S
C652 O658 1.299 . S
O653 Zn647 2.114 . S
O653 C648 1.166 . S
O654 Zn646 1.905 . S
O654 C648 1.182 . S
O655 Zn646 1.898 . S
O655 C649 1.167 . S
O656 Zn647 2.120 . S
O656 C649 1.299 . S
O657 Zn645 1.898 . S
O657 C652 1.167 . S
O658 Zn647 2.120 . S
O658 C652 1.299 . S
O659 Zn647 2.114 . S
O659 C661 1.166 . S
O660 Zn645 1.905 . S
O660 C661 1.182 . S
C661 O659 1.166 . S
C661 O660 1.182 . S
O662 Zn647 2.080 . S
O662 C665 1.305 . S
O663 Zn646 1.920 . S
O663 C665 1.234 . S
C664 O650 1.305 . S
C664 O651 1.234 . S
C665 O662 1.305 . S
C665 O663 1.234 . S
C666 C667 1.387 . S
C666 H670 0.950 . S
C666 C675 1.390 . S
C667 C666 1.387 . S
C667 C669 1.387 . S
H668 C675 0.950 . S
C669 C667 1.387 . S
C669 C671 1.390 . S
C669 H673 0.950 . S
H670 C666 0.950 . S
C671 C669 1.390 . S
C671 C672 1.387 . S
C671 H674 0.950 . S
C672 C671 1.387 . S
C672 C675 1.387 . S
H673 C669 0.950 . S
H674 C671 0.950 . S
C675 C666 1.390 . S
C675 H668 0.950 . S
C675 C672 1.387 . S
C676 C677 1.387 . S
C676 H680 0.950 . S
C676 C685 1.390 . S
C677 C676 1.387 . S
C677 C679 1.387 . S
H678 C685 0.950 . S
C679 C677 1.387 . S
C679 C681 1.390 . S
C679 H683 0.950 . S
H680 C676 0.950 . S
C681 C679 1.390 . S
C681 C682 1.387 . S
C681 H684 0.950 1_545 S
C682 C681 1.387 . S
C682 C685 1.387 . S
H683 C679 0.950 . S
H684 C681 0.950 1_565 S
C685 C676 1.390 . S
C685 H678 0.950 . S
C685 C682 1.387 . S
C686 C687 1.387 1_455 S
C686 H690 0.950 . S
C686 C695 1.390 . S
C687 C686 1.387 1_655 S
C687 C689 1.387 . S
H688 C695 0.950 . S
C689 C687 1.387 . S
C689 C691 1.390 . S
C689 H693 0.950 . S
H690 C686 0.950 . S
C691 C689 1.390 . S
C691 C692 1.387 . S
C691 H694 0.950 . S
C692 C691 1.387 . S
C692 C695 1.387 1_655 S
H693 C689 0.950 . S
H694 C691 0.950 . S
C695 C686 1.390 . S
C695 H688 0.950 . S
C695 C692 1.387 1_455 S
C696 C697 1.387 . S
C696 H700 0.950 . S
C696 C705 1.390 . S
C697 C696 1.387 . S
C697 C699 1.387 . S
H698 C705 0.950 . S
C699 C697 1.387 . S
C699 C701 1.390 . S
C699 H703 0.950 . S
H700 C696 0.950 . S
C701 C699 1.390 . S
C701 C702 1.387 . S
C701 H704 0.950 . S
C702 C701 1.387 . S
C702 C705 1.387 . S
H703 C699 0.950 . S
H704 C701 0.950 . S
C705 C696 1.390 . S
C705 H698 0.950 . S
C705 C702 1.387 . S
C706 C707 1.387 1_565 S
C706 H710 0.950 . S
C706 C715 1.390 . S
C707 C706 1.387 1_545 S
C707 C709 1.387 . S
H708 C715 0.950 . S
C709 C707 1.387 . S
C709 C711 1.390 . S
C709 H713 0.950 . S
H710 C706 0.950 . S
C711 C709 1.390 . S
C711 C712 1.387 . S
C711 H714 0.950 . S
C712 C711 1.387 . S
C712 C715 1.387 1_545 S
H713 C709 0.950 . S
H714 C711 0.950 . S
C715 C706 1.390 . S
C715 H708 0.950 . S
C715 C712 1.387 1_565 S
C716 C717 1.387 . S
C716 H720 0.950 . S
C716 C725 1.390 . S
C717 C716 1.387 . S
C717 C719 1.387 . S
H718 C725 0.950 . S
C719 C717 1.387 . S
C719 C721 1.390 . S
C719 H723 0.950 . S
H720 C716 0.950 . S
C721 C719 1.390 . S
C721 C722 1.387 . S
C721 H724 0.950 . S
C722 C721 1.387 . S
C722 C725 1.387 . S
H723 C719 0.950 . S
H724 C721 0.950 . S
C725 C716 1.390 . S
C725 H718 0.950 . S
C725 C722 1.387 . S
C726 C727 1.387 . S
C726 H730 0.950 . S
C726 C735 1.390 . S
C727 C726 1.387 . S
C727 C729 1.387 . S
H728 C735 0.950 . S
C729 C727 1.387 . S
C729 C731 1.390 . S
C729 H733 0.950 . S
H730 C726 0.950 . S
C731 C729 1.390 . S
C731 C732 1.387 . S
C731 H734 0.950 . S
C732 C731 1.387 . S
C732 C735 1.387 . S
H733 C729 0.950 . S
H734 C731 0.950 . S
C735 C726 1.390 . S
C735 H728 0.950 . S
C735 C732 1.387 . S
C736 C737 1.387 . S
C736 H740 0.950 . S
C736 C745 1.390 . S
C737 C736 1.387 . S
C737 C739 1.387 1_565 S
H738 C745 0.950 . S
C739 C737 1.387 1_545 S
C739 C741 1.390 . S
C739 H743 0.950 . S
H740 C736 0.950 . S
C741 C739 1.390 . S
C741 C742 1.387 1_545 S
C741 H744 0.950 . S
C742 C741 1.387 1_565 S
C742 C745 1.387 . S
H743 C739 0.950 . S
H744 C741 0.950 . S
C745 C736 1.390 . S
C745 H738 0.950 . S
C745 C742 1.387 . S
C746 C747 1.387 . S
C746 H750 0.950 . S
C746 C755 1.390 . S
C747 C746 1.387 . S
C747 C749 1.387 . S
H748 C755 0.950 1_655 S
C749 C747 1.387 . S
C749 C751 1.390 . S
C749 H753 0.950 . S
H750 C746 0.950 . S
C751 C749 1.390 . S
C751 C752 1.387 . S
C751 H754 0.950 . S
C752 C751 1.387 . S
C752 C755 1.387 . S
H753 C749 0.950 . S
H754 C751 0.950 . S
C755 C746 1.390 . S
C755 H748 0.950 1_455 S
C755 C752 1.387 . S
C756 C757 1.387 . S
C756 H760 0.950 . S
C756 C765 1.390 . S
C757 C756 1.387 . S
C757 C759 1.387 . S
H758 C765 0.950 . S
C759 C757 1.387 . S
C759 C761 1.390 . S
C759 H763 0.950 . S
H760 C756 0.950 . S
C761 C759 1.390 . S
C761 C762 1.387 . S
C761 H764 0.950 . S
C762 C761 1.387 . S
C762 C765 1.387 . S
H763 C759 0.950 . S
H764 C761 0.950 . S
C765 C756 1.390 . S
C765 H758 0.950 . S
C765 C762 1.387 . S
C766 C767 1.387 1_565 S
C766 H770 0.950 . S
C766 C775 1.390 . S
C767 C766 1.387 1_545 S
C767 C769 1.387 . S
H768 C775 0.950 . S
C769 C767 1.387 . S
C769 C771 1.390 . S
C769 H773 0.950 . S
H770 C766 0.950 . S
C771 C769 1.390 . S
C771 C772 1.387 . S
C771 H774 0.950 . S
C772 C771 1.387 . S
C772 C775 1.387 1_545 S
H773 C769 0.950 . S
H774 C771 0.950 . S
C775 C766 1.390 . S
C775 H768 0.950 . S
C775 C772 1.387 1_565 S
C776 C777 1.388 1_455 S
C776 H780 0.950 . S
C776 C785 1.390 . S
C777 C776 1.388 1_655 S
C777 C779 1.388 . S
H778 C785 0.950 . S
C779 C777 1.388 . S
C779 C781 1.390 . S
C779 H783 0.950 . S
H780 C776 0.950 . S
C781 C779 1.390 . S
C781 C782 1.387 1_655 S
C781 H784 0.950 . S
C782 C781 1.387 1_455 S
C782 C785 1.387 . S
H783 C779 0.950 . S
H784 C781 0.950 . S
C785 C776 1.390 . S
C785 H778 0.950 . S
C785 C782 1.387 . S
C786 C787 1.387 . S
C786 H790 0.950 . S
C786 C795 1.390 . S
C787 C786 1.387 . S
C787 C789 1.387 . S
H788 C795 0.950 . S
C789 C787 1.387 . S
C789 C791 1.390 . S
C789 H793 0.950 . S
H790 C786 0.950 . S
C791 C789 1.390 . S
C791 C792 1.387 . S
C791 H794 0.950 . S
C792 C791 1.387 . S
C792 C795 1.387 . S
H793 C789 0.950 . S
H794 C791 0.950 . S
C795 C786 1.390 . S
C795 H788 0.950 . S
C795 C792 1.387 . S
C796 C797 1.387 . S
C796 H800 0.950 . S
C796 C805 1.390 . S
C797 C796 1.387 . S
C797 C799 1.387 . S
H798 C805 0.950 . S
C799 C797 1.387 . S
C799 C801 1.390 . S
C799 H803 0.950 . S
H800 C796 0.950 . S
C801 C799 1.390 . S
C801 C802 1.387 . S
C801 H804 0.950 . S
C802 C801 1.387 . S
C802 C805 1.387 . S
H803 C799 0.950 . S
H804 C801 0.950 . S
C805 C796 1.390 . S
C805 H798 0.950 . S
C805 C802 1.387 . S
C806 C807 1.387 . S
C806 H810 0.950 . S
C806 C815 1.390 . S
C807 C806 1.387 . S
C807 C809 1.387 . S
H808 C815 0.950 . S
C809 C807 1.387 . S
C809 C811 1.390 . S
C809 H813 0.950 . S
H810 C806 0.950 . S
C811 C809 1.390 . S
C811 C812 1.387 . S
C811 H814 0.950 . S
C812 C811 1.387 . S
C812 C815 1.387 . S
H813 C809 0.950 . S
H814 C811 0.950 . S
C815 C806 1.390 . S
C815 H808 0.950 . S
C815 C812 1.387 . S
C816 C817 1.387 . S
C816 H820 0.950 . S
C816 C825 1.390 . S
C817 C816 1.387 . S
C817 C819 1.387 . S
H818 C825 0.950 . S
C819 C817 1.387 . S
C819 C821 1.390 . S
C819 H823 0.950 . S
H820 C816 0.950 . S
C821 C819 1.390 . S
C821 C822 1.387 . S
C821 H824 0.950 . S
C822 C821 1.387 . S
C822 C825 1.387 . S
H823 C819 0.950 . S
H824 C821 0.950 . S
C825 C816 1.390 . S
C825 H818 0.950 . S
C825 C822 1.387 . S
C826 C827 1.387 . S
C826 H830 0.950 . S
C826 C835 1.390 . S
C827 C826 1.387 . S
C827 C829 1.387 . S
H828 C835 0.950 . S
C829 C827 1.387 . S
C829 C831 1.390 . S
C829 H833 0.950 . S
H830 C826 0.950 . S
C831 C829 1.390 . S
C831 C832 1.387 . S
C831 H834 0.950 . S
C832 C831 1.387 . S
C832 C835 1.387 . S
H833 C829 0.950 . S
H834 C831 0.950 . S
C835 C826 1.390 . S
C835 H828 0.950 . S
C835 C832 1.387 . S
C836 C837 1.387 . S
C836 H840 0.950 . S
C836 C845 1.390 . S
C837 C836 1.387 . S
C837 C839 1.387 . S
H838 C845 0.950 . S
C839 C837 1.387 . S
C839 C841 1.390 . S
C839 H843 0.950 . S
H840 C836 0.950 . S
C841 C839 1.390 . S
C841 C842 1.387 . S
C841 H844 0.950 . S
C842 C841 1.387 . S
C842 C845 1.387 . S
H843 C839 0.950 . S
H844 C841 0.950 . S
C845 C836 1.390 . S
C845 H838 0.950 . S
C845 C842 1.387 . S
C846 C847 1.387 . S
C846 H850 0.950 . S
C846 C855 1.390 . S
C847 C846 1.387 . S
C847 C849 1.387 . S
H848 C855 0.950 . S
C849 C847 1.387 . S
C849 C851 1.390 . S
C849 H853 0.950 . S
H850 C846 0.950 . S
C851 C849 1.390 . S
C851 C852 1.387 . S
C851 H854 0.950 . S
C852 C851 1.387 . S
C852 C855 1.387 . S
H853 C849 0.950 . S
H854 C851 0.950 . S
C855 C846 1.390 . S
C855 H848 0.950 . S
C855 C852 1.387 . S
C856 C857 1.387 . S
C856 H860 0.950 . S
C856 C865 1.390 . S
C857 C856 1.387 . S
C857 C859 1.387 . S
H858 C865 0.950 . S
C859 C857 1.387 . S
C859 C861 1.390 . S
C859 H863 0.950 . S
H860 C856 0.950 . S
C861 C859 1.390 . S
C861 C862 1.387 . S
C861 H864 0.950 . S
C862 C861 1.387 . S
C862 C865 1.387 . S
H863 C859 0.950 . S
H864 C861 0.950 . S
C865 C856 1.390 . S
C865 H858 0.950 . S
C865 C862 1.387 . S
C866 C867 1.387 . S
C866 H870 0.950 . S
C866 C875 1.390 . S
C867 C866 1.387 . S
C867 C869 1.387 . S
H868 C875 0.950 . S
C869 C867 1.387 . S
C869 C871 1.390 . S
C869 H873 0.950 . S
H870 C866 0.950 . S
C871 C869 1.390 . S
C871 C872 1.387 . S
C871 H874 0.950 . S
C872 C871 1.387 . S
C872 C875 1.387 . S
H873 C869 0.950 . S
H874 C871 0.950 . S
C875 C866 1.390 . S
C875 H868 0.950 . S
C875 C872 1.387 . S
C876 C877 1.387 . S
C876 H880 0.950 . S
C876 C885 1.390 . S
C877 C876 1.387 . S
C877 C879 1.387 . S
H878 C885 0.950 . S
C879 C877 1.387 . S
C879 C881 1.390 . S
C879 H883 0.950 . S
H880 C876 0.950 . S
C881 C879 1.390 . S
C881 C882 1.387 . S
C881 H884 0.950 . S
C882 C881 1.387 . S
C882 C885 1.387 . S
H883 C879 0.950 . S
H884 C881 0.950 . S
C885 C876 1.390 . S
C885 H878 0.950 . S
C885 C882 1.387 . S
C886 C887 1.387 . S
C886 H890 0.950 . S
C886 C895 1.390 . S
C887 C886 1.387 . S
C887 C889 1.387 . S
H888 C895 0.950 . S
C889 C887 1.387 . S
C889 C891 1.390 . S
C889 H893 0.950 . S
H890 C886 0.950 . S
C891 C889 1.390 . S
C891 C892 1.387 . S
C891 H894 0.950 . S
C892 C891 1.387 . S
C892 C895 1.387 . S
H893 C889 0.950 . S
H894 C891 0.950 . S
C895 C886 1.390 . S
C895 H888 0.950 . S
C895 C892 1.387 . S
C896 C897 1.387 . S
C896 H900 0.950 . S
C896 C905 1.390 . S
C897 C896 1.387 . S
C897 C899 1.387 . S
H898 C905 0.950 . S
C899 C897 1.387 . S
C899 C901 1.390 . S
C899 H903 0.950 . S
H900 C896 0.950 . S
C901 C899 1.390 . S
C901 C902 1.387 . S
C901 H904 0.950 . S
C902 C901 1.387 . S
C902 C905 1.387 . S
H903 C899 0.950 . S
H904 C901 0.950 . S
C905 C896 1.390 . S
C905 H898 0.950 . S
C905 C902 1.387 . S
C906 C907 1.387 . S
C906 H910 0.950 . S
C906 C915 1.390 . S
C907 C906 1.387 . S
C907 C909 1.387 . S
H908 C915 0.950 . S
C909 C907 1.387 . S
C909 C911 1.390 . S
C909 H913 0.950 . S
H910 C906 0.950 . S
C911 C909 1.390 . S
C911 C912 1.387 . S
C911 H914 0.950 . S
C912 C911 1.387 . S
C912 C915 1.387 . S
H913 C909 0.950 . S
H914 C911 0.950 . S
C915 C906 1.390 . S
C915 H908 0.950 . S
C915 C912 1.387 . S
C916 C917 1.387 . S
C916 H920 0.950 . S
C916 C925 1.390 . S
C917 C916 1.387 . S
C917 C919 1.387 . S
H918 C925 0.950 . S
C919 C917 1.387 . S
C919 C921 1.390 . S
C919 H923 0.950 . S
H920 C916 0.950 . S
C921 C919 1.390 . S
C921 C922 1.387 . S
C921 H924 0.950 . S
C922 C921 1.387 . S
C922 C925 1.387 . S
H923 C919 0.950 . S
H924 C921 0.950 . S
C925 C916 1.390 . S
C925 H918 0.950 . S
C925 C922 1.387 . S
C926 C927 1.387 . S
C926 H930 0.950 . S
C926 C935 1.390 . S
C927 C926 1.387 . S
C927 C929 1.387 . S
H928 C935 0.950 . S
C929 C927 1.387 . S
C929 C931 1.390 . S
C929 H933 0.950 . S
H930 C926 0.950 . S
C931 C929 1.390 . S
C931 C932 1.387 . S
C931 H934 0.950 . S
C932 C931 1.387 . S
C932 C935 1.387 . S
H933 C929 0.950 . S
H934 C931 0.950 . S
C935 C926 1.390 . S
C935 H928 0.950 . S
C935 C932 1.387 . S
C936 C937 1.387 . S
C936 H940 0.950 . S
C936 C945 1.390 . S
C937 C936 1.387 . S
C937 C939 1.387 . S
H938 C945 0.950 . S
C939 C937 1.387 . S
C939 C941 1.390 . S
C939 H943 0.950 . S
H940 C936 0.950 . S
C941 C939 1.390 . S
C941 C942 1.387 . S
C941 H944 0.950 . S
C942 C941 1.387 . S
C942 C945 1.387 . S
H943 C939 0.950 . S
H944 C941 0.950 . S
C945 C936 1.390 . S
C945 H938 0.950 . S
C945 C942 1.387 . S
C946 C947 1.387 . S
C946 H950 0.950 . S
C946 C955 1.390 . S
C947 C946 1.387 . S
C947 C949 1.387 . S
H948 C955 0.950 . S
C949 C947 1.387 . S
C949 C951 1.390 . S
C949 H953 0.950 . S
H950 C946 0.950 . S
C951 C949 1.390 . S
C951 C952 1.387 . S
C951 H954 0.950 . S
C952 C951 1.387 . S
C952 C955 1.387 . S
H953 C949 0.950 . S
H954 C951 0.950 . S
C955 C946 1.390 . S
C955 H948 0.950 . S
C955 C952 1.387 . S
C956 C957 1.387 . S
C956 H960 0.950 . S
C956 C965 1.390 . S
C957 C956 1.387 . S
C957 C959 1.387 . S
H958 C965 0.950 . S
C959 C957 1.387 . S
C959 C961 1.390 . S
C959 H963 0.950 . S
H960 C956 0.950 . S
C961 C959 1.390 . S
C961 C962 1.387 . S
C961 H964 0.950 . S
C962 C961 1.387 . S
C962 C965 1.387 . S
H963 C959 0.950 . S
H964 C961 0.950 . S
C965 C956 1.390 . S
C965 H958 0.950 . S
C965 C962 1.387 . S
C966 C967 1.387 . S
C966 H970 0.950 . S
C966 C975 1.390 . S
C967 C966 1.387 . S
C967 C969 1.387 . S
H968 C975 0.950 . S
C969 C967 1.387 . S
C969 C971 1.390 . S
C969 H973 0.950 . S
H970 C966 0.950 . S
C971 C969 1.390 . S
C971 C972 1.387 . S
C971 H974 0.950 . S
C972 C971 1.387 . S
C972 C975 1.387 . S
H973 C969 0.950 . S
H974 C971 0.950 . S
C975 C966 1.390 . S
C975 H968 0.950 . S
C975 C972 1.387 . S
C976 C977 1.387 . S
C976 H980 0.950 . S
C976 C985 1.390 . S
C977 C976 1.387 . S
C977 C979 1.387 . S
H978 C985 0.950 . S
C979 C977 1.387 . S
C979 C981 1.390 . S
C979 H983 0.950 . S
H980 C976 0.950 . S
C981 C979 1.390 . S
C981 C982 1.387 . S
C981 H984 0.950 . S
C982 C981 1.387 . S
C982 C985 1.387 . S
H983 C979 0.950 . S
H984 C981 0.950 . S
C985 C976 1.390 . S
C985 H978 0.950 . S
C985 C982 1.387 . S
C986 C987 1.387 . S
C986 H990 0.950 . S
C986 C995 1.390 . S
C987 C986 1.387 . S
C987 C989 1.387 . S
H988 C995 0.950 . S
C989 C987 1.387 . S
C989 C991 1.390 . S
C989 H993 0.950 . S
H990 C986 0.950 . S
C991 C989 1.390 . S
C991 C992 1.387 . S
C991 H994 0.950 . S
C992 C991 1.387 . S
C992 C995 1.387 . S
H993 C989 0.950 . S
H994 C991 0.950 . S
C995 C986 1.390 . S
C995 H988 0.950 . S
C995 C992 1.387 . S
C996 C997 1.387 . S
C996 H1000 0.950 . S
C996 C1005 1.390 . S
C997 C996 1.387 . S
C997 C999 1.387 . S
H998 C1005 0.950 . S
C999 C997 1.387 . S
C999 C1001 1.390 . S
C999 H1003 0.950 . S
H1000 C996 0.950 . S
C1001 C999 1.390 . S
C1001 C1002 1.387 . S
C1001 H1004 0.950 . S
C1002 C1001 1.387 . S
C1002 C1005 1.387 . S
H1003 C999 0.950 . S
H1004 C1001 0.950 . S
C1005 C996 1.390 . S
C1005 H998 0.950 . S
C1005 C1002 1.387 . S
C1006 C1007 1.387 . S
C1006 H1010 0.950 . S
C1006 C1015 1.390 . S
C1007 C1006 1.387 . S
C1007 C1009 1.387 . S
H1008 C1015 0.950 . S
C1009 C1007 1.387 . S
C1009 C1011 1.390 . S
C1009 H1013 0.950 . S
H1010 C1006 0.950 . S
C1011 C1009 1.390 . S
C1011 C1012 1.387 . S
C1011 H1014 0.950 . S
C1012 C1011 1.387 . S
C1012 C1015 1.387 . S
H1013 C1009 0.950 . S
H1014 C1011 0.950 . S
C1015 C1006 1.390 . S
C1015 H1008 0.950 . S
C1015 C1012 1.387 . S
C1016 C1017 1.387 . S
C1016 H1020 0.950 . S
C1016 C1025 1.390 . S
C1017 C1016 1.387 . S
C1017 C1019 1.387 . S
H1018 C1025 0.950 . S
C1019 C1017 1.387 . S
C1019 C1021 1.390 . S
C1019 H1023 0.950 . S
H1020 C1016 0.950 . S
C1021 C1019 1.390 . S
C1021 C1022 1.387 . S
C1021 H1024 0.950 . S
C1022 C1021 1.387 . S
C1022 C1025 1.387 . S
H1023 C1019 0.950 . S
H1024 C1021 0.950 . S
C1025 C1016 1.390 . S
C1025 H1018 0.950 . S
C1025 C1022 1.387 . S
C1026 C1027 1.387 1_565 S
C1026 H1030 0.950 . S
C1026 C1035 1.390 1_565 S
C1027 C1026 1.387 1_545 S
C1027 C1029 1.387 . S
H1028 C1035 0.950 1_565 S
C1029 C1027 1.387 . S
C1029 C1031 1.390 . S
C1029 H1033 0.950 . S
H1030 C1026 0.950 . S
C1031 C1029 1.390 . S
C1031 C1032 1.387 . S
C1031 H1034 0.950 . S
C1032 C1031 1.387 . S
C1032 C1035 1.387 . S
H1033 C1029 0.950 . S
H1034 C1031 0.950 . S
C1035 C1026 1.390 1_545 S
C1035 H1028 0.950 1_545 S
C1035 C1032 1.387 . S
C1036 C1037 1.387 . S
C1036 H1040 0.950 . S
C1036 C1045 1.390 . S
C1037 C1036 1.387 . S
C1037 C1039 1.387 1_455 S
H1038 C1045 0.950 . S
C1039 C1037 1.387 1_655 S
C1039 C1041 1.390 . S
C1039 H1043 0.950 . S
H1040 C1036 0.950 . S
C1041 C1039 1.390 . S
C1041 C1042 1.387 . S
C1041 H1044 0.950 . S
C1042 C1041 1.387 . S
C1042 C1045 1.387 1_655 S
H1043 C1039 0.950 . S
H1044 C1041 0.950 . S
C1045 C1036 1.390 . S
C1045 H1038 0.950 . S
C1045 C1042 1.387 1_455 S
C1046 C1047 1.387 . S
C1046 H1050 0.950 . S
C1046 C1055 1.390 . S
C1047 C1046 1.387 . S
C1047 C1049 1.387 . S
H1048 C1055 0.950 . S
C1049 C1047 1.387 . S
C1049 C1051 1.390 . S
C1049 H1053 0.950 . S
H1050 C1046 0.950 . S
C1051 C1049 1.390 . S
C1051 C1052 1.387 . S
C1051 H1054 0.950 . S
C1052 C1051 1.387 . S
C1052 C1055 1.387 . S
H1053 C1049 0.950 . S
H1054 C1051 0.950 . S
C1055 C1046 1.390 . S
C1055 H1048 0.950 . S
C1055 C1052 1.387 . S
C1056 C1057 1.387 . S
C1056 H1060 0.950 1_455 S
C1056 C1065 1.390 . S
C1057 C1056 1.387 . S
C1057 C1059 1.387 . S
H1058 C1065 0.950 . S
C1059 C1057 1.387 . S
C1059 C1061 1.390 . S
C1059 H1063 0.950 . S
H1060 C1056 0.950 1_655 S
C1061 C1059 1.390 . S
C1061 C1062 1.387 . S
C1061 H1064 0.950 . S
C1062 C1061 1.387 . S
C1062 C1065 1.387 . S
H1063 C1059 0.950 . S
H1064 C1061 0.950 . S
C1065 C1056 1.390 . S
C1065 H1058 0.950 . S
C1065 C1062 1.387 . S
C1066 C1067 1.387 . S
C1066 H1070 0.950 . S
C1066 C1075 1.390 . S
C1067 C1066 1.387 . S
C1067 C1069 1.387 . S
H1068 C1075 0.950 . S
C1069 C1067 1.387 . S
C1069 C1071 1.390 . S
C1069 H1073 0.950 . S
H1070 C1066 0.950 . S
C1071 C1069 1.390 . S
C1071 C1072 1.387 . S
C1071 H1074 0.950 . S
C1072 C1071 1.387 . S
C1072 C1075 1.387 . S
H1073 C1069 0.950 . S
H1074 C1071 0.950 . S
C1075 C1066 1.390 . S
C1075 H1068 0.950 . S
C1075 C1072 1.387 . S
C1076 C1077 1.387 . S
C1076 H1080 0.950 . S
C1076 C1085 1.390 . S
C1077 C1076 1.387 . S
C1077 C1079 1.387 1_545 S
H1078 C1085 0.950 . S
C1079 C1077 1.387 1_565 S
C1079 C1081 1.390 . S
C1079 H1083 0.950 . S
H1080 C1076 0.950 . S
C1081 C1079 1.390 . S
C1081 C1082 1.387 1_565 S
C1081 H1084 0.950 . S
C1082 C1081 1.387 1_545 S
C1082 C1085 1.387 . S
H1083 C1079 0.950 . S
H1084 C1081 0.950 . S
C1085 C1076 1.390 . S
C1085 H1078 0.950 . S
C1085 C1082 1.387 . S
C1086 C1087 1.387 1_565 S
C1086 H1090 0.950 . S
C1086 C1095 1.390 . S
C1087 C1086 1.387 1_545 S
C1087 C1089 1.387 . S
H1088 C1095 0.950 . S
C1089 C1087 1.387 . S
C1089 C1091 1.390 . S
C1089 H1093 0.950 . S
H1090 C1086 0.950 . S
C1091 C1089 1.390 . S
C1091 C1092 1.402 . S
C1091 H1094 0.950 . S
C1092 C1091 1.402 . S
C1092 C1095 1.383 1_545 S
H1093 C1089 0.950 . S
H1094 C1091 0.950 . S
C1095 C1086 1.390 . S
C1095 H1088 0.950 . S
C1095 C1092 1.383 1_565 S
C1096 C1097 1.387 . S
C1096 H1100 0.950 . S
C1096 C1105 1.390 . S
C1097 C1096 1.387 . S
C1097 C1099 1.387 . S
H1098 C1105 0.950 . S
C1099 C1097 1.387 . S
C1099 C1101 1.390 . S
C1099 H1103 0.950 . S
H1100 C1096 0.950 . S
C1101 C1099 1.390 . S
C1101 C1102 1.387 . S
C1101 H1104 0.950 . S
C1102 C1101 1.387 . S
C1102 C1105 1.387 . S
H1103 C1099 0.950 . S
H1104 C1101 0.950 . S
C1105 C1096 1.390 . S
C1105 H1098 0.950 . S
C1105 C1102 1.387 . S
C1106 C1107 1.387 . S
C1106 H1110 0.950 . S
C1106 C1115 1.390 . S
C1107 C1106 1.387 . S
C1107 C1109 1.387 . S
H1108 C1115 0.950 . S
C1109 C1107 1.387 . S
C1109 C1111 1.390 . S
C1109 H1113 0.950 . S
H1110 C1106 0.950 . S
C1111 C1109 1.390 . S
C1111 C1112 1.387 . S
C1111 H1114 0.950 . S
C1112 C1111 1.387 . S
C1112 C1115 1.387 . S
H1113 C1109 0.950 . S
H1114 C1111 0.950 . S
C1115 C1106 1.390 . S
C1115 H1108 0.950 . S
C1115 C1112 1.387 . S
C1116 C1117 1.387 1_655 S
C1116 H1120 0.950 . S
C1116 C1125 1.390 . S
C1117 C1116 1.387 1_455 S
C1117 C1119 1.387 . S
H1118 C1125 0.950 . S
C1119 C1117 1.387 . S
C1119 C1121 1.390 . S
C1119 H1123 0.950 . S
H1120 C1116 0.950 . S
C1121 C1119 1.390 . S
C1121 C1122 1.387 1_455 S
C1121 H1124 0.950 . S
C1122 C1121 1.387 1_655 S
C1122 C1125 1.387 . S
H1123 C1119 0.950 . S
H1124 C1121 0.950 . S
C1125 C1116 1.390 . S
C1125 H1118 0.950 . S
C1125 C1122 1.387 . S
C1126 C1127 1.387 . S
C1126 H1130 0.950 . S
C1126 C1135 1.390 . S
C1127 C1126 1.387 . S
C1127 C1129 1.387 . S
H1128 C1135 0.950 . S
C1129 C1127 1.387 . S
C1129 C1131 1.390 . S
C1129 H1133 0.950 . S
H1130 C1126 0.950 . S
C1131 C1129 1.390 . S
C1131 C1132 1.387 . S
C1131 H1134 0.950 . S
C1132 C1131 1.387 . S
C1132 C1135 1.387 . S
H1133 C1129 0.950 . S
H1134 C1131 0.950 . S
C1135 C1126 1.390 . S
C1135 H1128 0.950 . S
C1135 C1132 1.387 . S
C1136 C1137 1.387 1_565 S
C1136 H1140 0.950 . S
C1136 C1145 1.390 1_565 S
C1137 C1136 1.387 1_545 S
C1137 C1139 1.387 . S
H1138 C1145 0.950 1_565 S
C1139 C1137 1.387 . S
C1139 C1141 1.390 . S
C1139 H1143 0.950 . S
H1140 C1136 0.950 . S
C1141 C1139 1.390 . S
C1141 C1142 1.387 . S
C1141 H1144 0.950 . S
C1142 C1141 1.387 . S
C1142 C1145 1.387 . S
H1143 C1139 0.950 . S
H1144 C1141 0.950 . S
C1145 C1136 1.390 1_545 S
C1145 H1138 0.950 1_545 S
C1145 C1142 1.387 . S
C1146 C1147 1.387 . S
C1146 H1150 0.950 . S
C1146 C1155 1.390 . S
C1147 C1146 1.387 . S
C1147 C1149 1.387 . S
H1148 C1155 0.950 . S
C1149 C1147 1.387 . S
C1149 C1151 1.390 . S
C1149 H1153 0.950 . S
H1150 C1146 0.950 . S
C1151 C1149 1.390 . S
C1151 C1152 1.387 . S
C1151 H1154 0.950 . S
C1152 C1151 1.387 . S
C1152 C1155 1.387 . S
H1153 C1149 0.950 . S
H1154 C1151 0.950 . S
C1155 C1146 1.390 . S
C1155 H1148 0.950 . S
C1155 C1152 1.387 . S
C1156 C1157 1.387 . S
C1156 H1160 0.950 . S
C1156 C1165 1.390 . S
C1157 C1156 1.387 . S
C1157 C1159 1.387 . S
H1158 C1165 0.950 . S
C1159 C1157 1.387 . S
C1159 C1161 1.390 . S
C1159 H1163 0.950 . S
H1160 C1156 0.950 . S
C1161 C1159 1.390 . S
C1161 C1162 1.387 . S
C1161 H1164 0.950 . S
C1162 C1161 1.387 . S
C1162 C1165 1.387 . S
H1163 C1159 0.950 . S
H1164 C1161 0.950 . S
C1165 C1156 1.390 . S
C1165 H1158 0.950 . S
C1165 C1162 1.387 . S
C1166 C1167 1.387 . S
C1166 H1170 0.950 . S
C1166 C1175 1.390 . S
C1167 C1166 1.387 . S
C1167 C1169 1.387 . S
H1168 C1175 0.950 . S
C1169 C1167 1.387 . S
C1169 C1171 1.390 . S
C1169 H1173 0.950 . S
H1170 C1166 0.950 . S
C1171 C1169 1.390 . S
C1171 C1172 1.387 . S
C1171 H1174 0.950 . S
C1172 C1171 1.387 . S
C1172 C1175 1.387 . S
H1173 C1169 0.950 . S
H1174 C1171 0.950 . S
C1175 C1166 1.390 . S
C1175 H1168 0.950 . S
C1175 C1172 1.387 . S
C1176 C1177 1.387 . S
C1176 H1180 0.950 . S
C1176 C1185 1.390 . S
C1177 C1176 1.387 . S
C1177 C1179 1.387 . S
H1178 C1185 0.950 . S
C1179 C1177 1.387 . S
C1179 C1181 1.390 . S
C1179 H1183 0.950 . S
H1180 C1176 0.950 . S
C1181 C1179 1.390 . S
C1181 C1182 1.387 . S
C1181 H1184 0.950 . S
C1182 C1181 1.387 . S
C1182 C1185 1.387 . S
H1183 C1179 0.950 . S
H1184 C1181 0.950 . S
C1185 C1176 1.390 . S
C1185 H1178 0.950 . S
C1185 C1182 1.387 . S
C1186 C1187 1.387 . S
C1186 H1190 0.950 . S
C1186 C1195 1.390 . S
C1187 C1186 1.387 . S
C1187 C1189 1.387 . S
H1188 C1195 0.950 . S
C1189 C1187 1.387 . S
C1189 C1191 1.390 . S
C1189 H1193 0.950 . S
H1190 C1186 0.950 . S
C1191 C1189 1.390 . S
C1191 C1192 1.387 . S
C1191 H1194 0.950 . S
C1192 C1191 1.387 . S
C1192 C1195 1.387 . S
H1193 C1189 0.950 . S
H1194 C1191 0.950 . S
C1195 C1186 1.390 . S
C1195 H1188 0.950 . S
C1195 C1192 1.387 . S
C1196 C1197 1.387 . S
C1196 H1200 0.950 . S
C1196 C1205 1.390 . S
C1197 C1196 1.387 . S
C1197 C1199 1.387 . S
H1198 C1205 0.950 . S
C1199 C1197 1.387 . S
C1199 C1201 1.390 . S
C1199 H1203 0.950 . S
H1200 C1196 0.950 . S
C1201 C1199 1.390 . S
C1201 C1202 1.387 . S
C1201 H1204 0.950 . S
C1202 C1201 1.387 . S
C1202 C1205 1.387 . S
H1203 C1199 0.950 . S
H1204 C1201 0.950 . S
C1205 C1196 1.390 . S
C1205 H1198 0.950 . S
C1205 C1202 1.387 . S
C1206 C1207 1.387 . S
C1206 H1210 0.950 . S
C1206 C1215 1.390 . S
C1207 C1206 1.387 . S
C1207 C1209 1.387 . S
H1208 C1215 0.950 . S
C1209 C1207 1.387 . S
C1209 C1211 1.390 . S
C1209 H1213 0.950 . S
H1210 C1206 0.950 . S
C1211 C1209 1.390 . S
C1211 C1212 1.387 . S
C1211 H1214 0.950 . S
C1212 C1211 1.387 . S
C1212 C1215 1.387 . S
H1213 C1209 0.950 . S
H1214 C1211 0.950 . S
C1215 C1206 1.390 . S
C1215 H1208 0.950 . S
C1215 C1212 1.387 . S
C1216 C1217 1.387 . S
C1216 H1220 0.950 . S
C1216 C1225 1.390 . S
C1217 C1216 1.387 . S
C1217 C1219 1.387 . S
H1218 C1225 0.950 . S
C1219 C1217 1.387 . S
C1219 C1221 1.390 . S
C1219 H1223 0.950 . S
H1220 C1216 0.950 . S
C1221 C1219 1.390 . S
C1221 C1222 1.387 . S
C1221 H1224 0.950 . S
C1222 C1221 1.387 . S
C1222 C1225 1.387 . S
H1223 C1219 0.950 . S
H1224 C1221 0.950 . S
C1225 C1216 1.390 . S
C1225 H1218 0.950 . S
C1225 C1222 1.387 . S
C1226 C1227 1.387 . S
C1226 H1230 0.950 . S
C1226 C1235 1.390 . S
C1227 C1226 1.387 . S
C1227 C1229 1.387 . S
H1228 C1235 0.950 . S
C1229 C1227 1.387 . S
C1229 C1231 1.390 . S
C1229 H1233 0.950 . S
H1230 C1226 0.950 . S
C1231 C1229 1.390 . S
C1231 C1232 1.387 . S
C1231 H1234 0.950 . S
C1232 C1231 1.387 . S
C1232 C1235 1.387 . S
H1233 C1229 0.950 . S
H1234 C1231 0.950 . S
C1235 C1226 1.390 . S
C1235 H1228 0.950 . S
C1235 C1232 1.387 . S
C1236 C1237 1.387 . S
C1236 H1240 0.950 . S
C1236 C1245 1.390 . S
C1237 C1236 1.387 . S
C1237 C1239 1.387 . S
H1238 C1245 0.950 . S
C1239 C1237 1.387 . S
C1239 C1241 1.390 . S
C1239 H1243 0.950 . S
H1240 C1236 0.950 . S
C1241 C1239 1.390 . S
C1241 C1242 1.387 . S
C1241 H1244 0.950 . S
C1242 C1241 1.387 . S
C1242 C1245 1.387 . S
H1243 C1239 0.950 . S
H1244 C1241 0.950 . S
C1245 C1236 1.390 . S
C1245 H1238 0.950 . S
C1245 C1242 1.387 . S
C1246 C1247 1.387 . S
C1246 H1250 0.950 . S
C1246 C1255 1.390 . S
C1247 C1246 1.387 . S
C1247 C1249 1.387 . S
H1248 C1255 0.950 . S
C1249 C1247 1.387 . S
C1249 C1251 1.390 . S
C1249 H1253 0.950 . S
H1250 C1246 0.950 . S
C1251 C1249 1.390 . S
C1251 C1252 1.387 . S
C1251 H1254 0.950 . S
C1252 C1251 1.387 . S
C1252 C1255 1.387 . S
H1253 C1249 0.950 . S
H1254 C1251 0.950 . S
C1255 C1246 1.390 . S
C1255 H1248 0.950 . S
C1255 C1252 1.387 . S
C1256 C1257 1.387 . S
C1256 H1260 0.950 . S
C1256 C1265 1.390 . S
C1257 C1256 1.387 . S
C1257 C1259 1.387 . S
H1258 C1265 0.950 . S
C1259 C1257 1.387 . S
C1259 C1261 1.390 . S
C1259 H1263 0.950 . S
H1260 C1256 0.950 . S
C1261 C1259 1.390 . S
C1261 C1262 1.387 . S
C1261 H1264 0.950 . S
C1262 C1261 1.387 . S
C1262 C1265 1.387 . S
H1263 C1259 0.950 . S
H1264 C1261 0.950 . S
C1265 C1256 1.390 . S
C1265 H1258 0.950 . S
C1265 C1262 1.387 . S
C1266 C1267 1.387 . S
C1266 H1270 0.950 . S
C1266 C1275 1.390 . S
C1267 C1266 1.387 . S
C1267 C1269 1.387 . S
H1268 C1275 0.950 . S
C1269 C1267 1.387 . S
C1269 C1271 1.390 . S
C1269 H1273 0.950 . S
H1270 C1266 0.950 . S
C1271 C1269 1.390 . S
C1271 C1272 1.387 . S
C1271 H1274 0.950 . S
C1272 C1271 1.387 . S
C1272 C1275 1.387 . S
H1273 C1269 0.950 . S
H1274 C1271 0.950 . S
C1275 C1266 1.390 . S
C1275 H1268 0.950 . S
C1275 C1272 1.387 . S
C1276 C1277 1.387 . S
C1276 H1280 0.950 . S
C1276 C1285 1.390 . S
C1277 C1276 1.387 . S
C1277 C1279 1.387 . S
H1278 C1285 0.950 . S
C1279 C1277 1.387 . S
C1279 C1281 1.390 . S
C1279 H1283 0.950 . S
H1280 C1276 0.950 . S
C1281 C1279 1.390 . S
C1281 C1282 1.387 . S
C1281 H1284 0.950 . S
C1282 C1281 1.387 . S
C1282 C1285 1.387 . S
H1283 C1279 0.950 . S
H1284 C1281 0.950 . S
C1285 C1276 1.390 . S
C1285 H1278 0.950 . S
C1285 C1282 1.387 . S
C1286 C1287 1.387 . S
C1286 H1290 0.950 . S
C1286 C1295 1.390 . S
C1287 C1286 1.387 . S
C1287 C1289 1.387 . S
H1288 C1295 0.950 . S
C1289 C1287 1.387 . S
C1289 C1291 1.390 . S
C1289 H1293 0.950 . S
H1290 C1286 0.950 . S
C1291 C1289 1.390 . S
C1291 C1292 1.387 . S
C1291 H1294 0.950 . S
C1292 C1291 1.387 . S
C1292 C1295 1.387 . S
H1293 C1289 0.950 . S
H1294 C1291 0.950 . S
C1295 C1286 1.390 . S
C1295 H1288 0.950 . S
C1295 C1292 1.387 . S
C1296 C1297 1.387 . S
C1296 H1300 0.950 . S
C1296 C1305 1.390 . S
C1297 C1296 1.387 . S
C1297 C1299 1.387 . S
H1298 C1305 0.950 . S
C1299 C1297 1.387 . S
C1299 C1301 1.390 . S
C1299 H1303 0.950 . S
H1300 C1296 0.950 . S
C1301 C1299 1.390 . S
C1301 C1302 1.387 . S
C1301 H1304 0.950 . S
C1302 C1301 1.387 . S
C1302 C1305 1.387 . S
H1303 C1299 0.950 . S
H1304 C1301 0.950 . S
C1305 C1296 1.390 . S
C1305 H1298 0.950 . S
C1305 C1302 1.387 . S
C1306 C1307 1.387 . S
C1306 H1310 0.950 . S
C1306 C1315 1.390 . S
C1307 C1306 1.387 . S
C1307 C1309 1.387 . S
H1308 C1315 0.950 . S
C1309 C1307 1.387 . S
C1309 C1311 1.390 . S
C1309 H1313 0.950 . S
H1310 C1306 0.950 . S
C1311 C1309 1.390 . S
C1311 C1312 1.387 . S
C1311 H1314 0.950 . S
C1312 C1311 1.387 . S
C1312 C1315 1.387 . S
H1313 C1309 0.950 . S
H1314 C1311 0.950 . S
C1315 C1306 1.390 . S
C1315 H1308 0.950 . S
C1315 C1312 1.387 . S
C1316 C1317 1.387 . S
C1316 H1320 0.950 . S
C1316 C1325 1.390 . S
C1317 C1316 1.387 . S
C1317 C1319 1.387 . S
H1318 C1325 0.950 . S
C1319 C1317 1.387 . S
C1319 C1321 1.390 . S
C1319 H1323 0.950 . S
H1320 C1316 0.950 . S
C1321 C1319 1.390 . S
C1321 C1322 1.387 . S
C1321 H1324 0.950 . S
C1322 C1321 1.387 . S
C1322 C1325 1.387 . S
H1323 C1319 0.950 . S
H1324 C1321 0.950 . S
C1325 C1316 1.390 . S
C1325 H1318 0.950 . S
C1325 C1322 1.387 . S
C1326 C1327 1.387 . S
C1326 H1330 0.950 . S
C1326 C1335 1.390 . S
C1327 C1326 1.387 . S
C1327 C1329 1.387 . S
H1328 C1335 0.950 . S
C1329 C1327 1.387 . S
C1329 C1331 1.390 . S
C1329 H1333 0.950 . S
H1330 C1326 0.950 . S
C1331 C1329 1.390 . S
C1331 C1332 1.387 . S
C1331 H1334 0.950 . S
C1332 C1331 1.387 . S
C1332 C1335 1.387 . S
H1333 C1329 0.950 . S
H1334 C1331 0.950 . S
C1335 C1326 1.390 . S
C1335 H1328 0.950 . S
C1335 C1332 1.387 . S
C1336 C1337 1.387 . S
C1336 H1340 0.950 . S
C1336 C1345 1.390 . S
C1337 C1336 1.387 . S
C1337 C1339 1.387 . S
H1338 C1345 0.950 . S
C1339 C1337 1.387 . S
C1339 C1341 1.390 . S
C1339 H1343 0.950 . S
H1340 C1336 0.950 . S
C1341 C1339 1.390 . S
C1341 C1342 1.387 . S
C1341 H1344 0.950 . S
C1342 C1341 1.387 . S
C1342 C1345 1.387 . S
H1343 C1339 0.950 . S
H1344 C1341 0.950 . S
C1345 C1336 1.390 . S
C1345 H1338 0.950 . S
C1345 C1342 1.387 . S
C1346 C1347 1.387 . S
C1346 H1350 0.950 . S
C1346 C1355 1.390 . S
C1347 C1346 1.387 . S
C1347 C1349 1.387 . S
H1348 C1355 0.950 . S
C1349 C1347 1.387 . S
C1349 C1351 1.390 . S
C1349 H1353 0.950 . S
H1350 C1346 0.950 . S
C1351 C1349 1.390 . S
C1351 C1352 1.387 . S
C1351 H1354 0.950 . S
C1352 C1351 1.387 . S
C1352 C1355 1.387 . S
H1353 C1349 0.950 . S
H1354 C1351 0.950 . S
C1355 C1346 1.390 . S
C1355 H1348 0.950 . S
C1355 C1352 1.387 . S
C1356 C1357 1.387 . S
C1356 H1360 0.950 . S
C1356 C1365 1.390 . S
C1357 C1356 1.387 . S
C1357 C1359 1.387 . S
H1358 C1365 0.950 . S
C1359 C1357 1.387 . S
C1359 C1361 1.390 . S
C1359 H1363 0.950 . S
H1360 C1356 0.950 . S
C1361 C1359 1.390 . S
C1361 C1362 1.387 . S
C1361 H1364 0.950 . S
C1362 C1361 1.387 . S
C1362 C1365 1.387 . S
H1363 C1359 0.950 . S
H1364 C1361 0.950 . S
C1365 C1356 1.390 . S
C1365 H1358 0.950 . S
C1365 C1362 1.387 . S
C1366 C1367 1.387 . S
C1366 H1370 0.950 . S
C1366 C1375 1.390 . S
C1367 C1366 1.387 . S
C1367 C1369 1.387 . S
H1368 C1375 0.950 . S
C1369 C1367 1.387 . S
C1369 C1371 1.390 . S
C1369 H1373 0.950 . S
H1370 C1366 0.950 . S
C1371 C1369 1.390 . S
C1371 C1372 1.387 . S
C1371 H1374 0.950 . S
C1372 C1371 1.387 . S
C1372 C1375 1.387 . S
H1373 C1369 0.950 . S
H1374 C1371 0.950 . S
C1375 C1366 1.390 . S
C1375 H1368 0.950 . S
C1375 C1372 1.387 . S
C1376 C1377 1.387 . S
C1376 H1380 0.950 . S
C1376 C1385 1.390 . S
C1377 C1376 1.387 . S
C1377 C1379 1.387 . S
H1378 C1385 0.950 . S
C1379 C1377 1.387 . S
C1379 C1381 1.390 . S
C1379 H1383 0.950 . S
H1380 C1376 0.950 . S
C1381 C1379 1.390 . S
C1381 C1382 1.387 . S
C1381 H1384 0.950 . S
C1382 C1381 1.387 . S
C1382 C1385 1.387 . S
H1383 C1379 0.950 . S
H1384 C1381 0.950 . S
C1385 C1376 1.390 . S
C1385 H1378 0.950 . S
C1385 C1382 1.387 . S
C667 C53 1.555 . S
C672 C418 1.337 . S
C677 N2 1.366 . S
C682 C434 1.253 . S
C692 C417 1.322 1_655 S
C687 N25 1.325 . S
C702 C442 1.270 . S
C697 N48 1.341 . S
C707 C7 1.606 . S
C712 C451 1.383 . S
C722 C454 1.339 . S
C717 C30 1.501 . S
C727 C122 1.557 . S
C732 C460 1.336 . S
C742 C476 1.258 . S
C737 N71 1.363 . S
C752 C459 1.316 . S
C747 N94 1.327 . S
C757 N117 1.339 . S
C762 C484 1.272 . S
C772 C493 1.384 . S
C767 C76 1.606 . S
C782 C496 1.335 . S
C777 C99 1.503 1_655 S
C792 C505 1.340 . S
C787 C191 1.555 . S
C802 C517 1.252 . S
C797 N140 1.366 . S
C812 C514 1.316 . S
C807 N163 1.328 . S
C817 N186 1.343 . S
C822 C523 1.271 . S
C832 C522 1.383 . S
C827 C145 1.606 . S
C837 C168 1.501 . S
C842 C539 1.340 . S
C852 C544 1.340 . S
C847 C260 1.555 . S
C862 C560 1.259 . S
C857 N209 1.365 . S
C867 N232 1.324 . S
C872 C543 1.322 . S
C882 C568 1.273 . S
C877 N255 1.338 . S
C892 C577 1.389 . S
C887 C214 1.605 . S
C897 C237 1.502 . S
C902 C580 1.340 . S
C907 C329 1.556 . S
C912 C589 1.340 . S
C922 C601 1.254 . S
C917 N278 1.368 . S
C932 C598 1.322 . S
C927 N301 1.325 . S
C937 N324 1.338 . S
C942 C607 1.272 . S
C952 C606 1.389 . S
C947 C283 1.605 . S
C957 C306 1.501 . S
C962 C623 1.339 . S
C972 C628 1.339 . S
C967 C398 1.555 . S
C982 C644 1.252 . S
C977 N347 1.366 . S
C987 N370 1.324 . S
C992 C627 1.322 . S
C1002 C649 1.274 . S
C997 N393 1.342 . S
C1012 C648 1.384 . S
C1007 C352 1.606 . S
C1022 C665 1.336 . S
C1017 C375 1.504 . S
C1032 C430 1.901 . S
C1027 N265 1.924 . S
C1037 C223 1.733 1_455 S
C1042 C433 1.713 . S
C1052 C421 1.711 . S
C1047 C246 1.665 . S
C1057 C407 1.676 . S
C1062 C438 1.653 . S
C1067 N357 1.868 . S
C1072 C439 1.764 . S
C1082 C455 1.811 . S
C1077 N380 1.824 . S
C1092 C472 1.893 1_545 S
C1087 N334 1.923 . S
C1102 C475 1.715 . S
C1097 C292 1.741 . S
C1107 C315 1.667 . S
C1112 C463 1.710 . S
C1122 C480 1.654 1_655 S
C1117 C200 1.678 . S
C1127 N150 1.867 . S
C1132 C481 1.767 . S
C1137 N173 1.827 . S
C1142 C497 1.808 . S
C1147 N403 1.925 . S
C1152 C501 1.900 . S
C1157 C361 1.739 . S
C1162 C518 1.714 . S
C1172 C502 1.709 . S
C1167 C384 1.667 . S
C1182 C535 1.655 . S
C1177 C131 1.678 . S
C1192 C526 1.764 . S
C1187 N81 1.867 . S
C1197 N104 1.825 . S
C1202 C538 1.811 . S
C1212 C556 1.901 . S
C1207 N58 1.924 . S
C1222 C559 1.716 . S
C1217 C16 1.741 . S
C1227 C39 1.668 . S
C1232 C547 1.710 . S
C1242 C564 1.652 . S
C1237 C338 1.677 . S
C1252 C565 1.764 . S
C1247 N288 1.867 . S
C1262 C581 1.809 . S
C1257 N311 1.827 . S
C1272 C585 1.898 . S
C1267 N127 1.926 . S
C1282 C602 1.715 . S
C1277 C85 1.742 . S
C1287 C108 1.667 . S
C1292 C586 1.710 . S
C1297 C269 1.677 . S
C1302 C619 1.652 . S
C1307 N219 1.865 . S
C1312 C610 1.765 . S
C1322 C622 1.811 . S
C1317 N242 1.825 . S
C1327 N196 1.926 . S
C1332 C640 1.898 . S
C1337 C154 1.740 . S
C1342 C643 1.712 . S
C1352 C631 1.710 . S
C1347 C177 1.667 . S
C1362 C661 1.652 . S
C1357 C62 1.676 . S
C1372 C652 1.764 . S
C1367 N12 1.868 . S
C1377 N35 1.824 . S
C1382 C664 1.811 . S
