# Generated by pormake.
# Topology ibd, (4,6)-cn, num edge types: 1
# Building blocks:
#     Node 0, Type 0, BuildingBlock: GALJAG_clean_sbu_0, # of connection points: 4
#     Node 1, Type 0, BuildingBlock: GALJAG_clean_sbu_0, # of connection points: 4
#     Node 2, Type 0, BuildingBlock: GALJAG_clean_sbu_0, # of connection points: 4
#     Node 3, Type 0, BuildingBlock: GALJAG_clean_sbu_0, # of connection points: 4
#     Node 4, Type 0, BuildingBlock: GALJAG_clean_sbu_0, # of connection points: 4
#     Node 5, Type 0, BuildingBlock: GALJAG_clean_sbu_0, # of connection points: 4
#     Node 6, Type 0, BuildingBlock: GALJAG_clean_sbu_0, # of connection points: 4
#     Node 7, Type 0, BuildingBlock: GALJAG_clean_sbu_0, # of connection points: 4
#     Node 8, Type 0, BuildingBlock: GALJAG_clean_sbu_0, # of connection points: 4
#     Node 9, Type 0, BuildingBlock: GALJAG_clean_sbu_0, # of connection points: 4
#     Node 10, Type 0, BuildingBlock: GALJAG_clean_sbu_0, # of connection points: 4
#     Node 11, Type 0, BuildingBlock: GALJAG_clean_sbu_0, # of connection points: 4
#     Node 12, Type 0, BuildingBlock: GALJAG_clean_sbu_0, # of connection points: 4
#     Node 13, Type 0, BuildingBlock: GALJAG_clean_sbu_0, # of connection points: 4
#     Node 14, Type 0, BuildingBlock: GALJAG_clean_sbu_0, # of connection points: 4
#     Node 15, Type 0, BuildingBlock: GALJAG_clean_sbu_0, # of connection points: 4
#     Node 16, Type 0, BuildingBlock: GALJAG_clean_sbu_0, # of connection points: 4
#     Node 17, Type 0, BuildingBlock: GALJAG_clean_sbu_0, # of connection points: 4
#     Node 18, Type 0, BuildingBlock: GALJAG_clean_sbu_0, # of connection points: 4
#     Node 19, Type 0, BuildingBlock: GALJAG_clean_sbu_0, # of connection points: 4
#     Node 20, Type 0, BuildingBlock: GALJAG_clean_sbu_0, # of connection points: 4
#     Node 21, Type 0, BuildingBlock: GALJAG_clean_sbu_0, # of connection points: 4
#     Node 22, Type 0, BuildingBlock: GALJAG_clean_sbu_0, # of connection points: 4
#     Node 23, Type 0, BuildingBlock: GALJAG_clean_sbu_0, # of connection points: 4
#     Node 24, Type 1, BuildingBlock: IZENUY_clean_sbu_0, # of connection points: 6
#     Node 25, Type 1, BuildingBlock: IZENUY_clean_sbu_0, # of connection points: 6
#     Node 26, Type 1, BuildingBlock: IZENUY_clean_sbu_0, # of connection points: 6
#     Node 27, Type 1, BuildingBlock: IZENUY_clean_sbu_0, # of connection points: 6
#     Node 28, Type 1, BuildingBlock: IZENUY_clean_sbu_0, # of connection points: 6
#     Node 29, Type 1, BuildingBlock: IZENUY_clean_sbu_0, # of connection points: 6
#     Node 30, Type 1, BuildingBlock: IZENUY_clean_sbu_0, # of connection points: 6
#     Node 31, Type 1, BuildingBlock: IZENUY_clean_sbu_0, # of connection points: 6
#     Node 32, Type 1, BuildingBlock: IZENUY_clean_sbu_0, # of connection points: 6
#     Node 33, Type 1, BuildingBlock: IZENUY_clean_sbu_0, # of connection points: 6
#     Node 34, Type 1, BuildingBlock: IZENUY_clean_sbu_0, # of connection points: 6
#     Node 35, Type 1, BuildingBlock: IZENUY_clean_sbu_0, # of connection points: 6
#     Node 36, Type 1, BuildingBlock: IZENUY_clean_sbu_0, # of connection points: 6
#     Node 37, Type 1, BuildingBlock: IZENUY_clean_sbu_0, # of connection points: 6
#     Node 38, Type 1, BuildingBlock: IZENUY_clean_sbu_0, # of connection points: 6
#     Node 39, Type 1, BuildingBlock: IZENUY_clean_sbu_0, # of connection points: 6
#     Edge 40, Type (0, 1), BuildingBlock: XIVTED_clean_linker_0, # of connection points: 2
#     Edge 41, Type (0, 1), BuildingBlock: XIVTED_clean_linker_0, # of connection points: 2
#     Edge 42, Type (0, 1), BuildingBlock: XIVTED_clean_linker_0, # of connection points: 2
#     Edge 43, Type (0, 1), BuildingBlock: XIVTED_clean_linker_0, # of connection points: 2
#     Edge 44, Type (0, 1), BuildingBlock: XIVTED_clean_linker_0, # of connection points: 2
#     Edge 45, Type (0, 1), BuildingBlock: XIVTED_clean_linker_0, # of connection points: 2
#     Edge 46, Type (0, 1), BuildingBlock: XIVTED_clean_linker_0, # of connection points: 2
#     Edge 47, Type (0, 1), BuildingBlock: XIVTED_clean_linker_0, # of connection points: 2
#     Edge 48, Type (0, 1), BuildingBlock: XIVTED_clean_linker_0, # of connection points: 2
#     Edge 49, Type (0, 1), BuildingBlock: XIVTED_clean_linker_0, # of connection points: 2
#     Edge 50, Type (0, 1), BuildingBlock: XIVTED_clean_linker_0, # of connection points: 2
#     Edge 51, Type (0, 1), BuildingBlock: XIVTED_clean_linker_0, # of connection points: 2
#     Edge 52, Type (0, 1), BuildingBlock: XIVTED_clean_linker_0, # of connection points: 2
#     Edge 53, Type (0, 1), BuildingBlock: XIVTED_clean_linker_0, # of connection points: 2
#     Edge 54, Type (0, 1), BuildingBlock: XIVTED_clean_linker_0, # of connection points: 2
#     Edge 55, Type (0, 1), BuildingBlock: XIVTED_clean_linker_0, # of connection points: 2
#     Edge 56, Type (0, 1), BuildingBlock: XIVTED_clean_linker_0, # of connection points: 2
#     Edge 57, Type (0, 1), BuildingBlock: XIVTED_clean_linker_0, # of connection points: 2
#     Edge 58, Type (0, 1), BuildingBlock: XIVTED_clean_linker_0, # of connection points: 2
#     Edge 59, Type (0, 1), BuildingBlock: XIVTED_clean_linker_0, # of connection points: 2
#     Edge 60, Type (0, 1), BuildingBlock: XIVTED_clean_linker_0, # of connection points: 2
#     Edge 61, Type (0, 1), BuildingBlock: XIVTED_clean_linker_0, # of connection points: 2
#     Edge 62, Type (0, 1), BuildingBlock: XIVTED_clean_linker_0, # of connection points: 2
#     Edge 63, Type (0, 1), BuildingBlock: XIVTED_clean_linker_0, # of connection points: 2
#     Edge 64, Type (0, 1), BuildingBlock: XIVTED_clean_linker_0, # of connection points: 2
#     Edge 65, Type (0, 1), BuildingBlock: XIVTED_clean_linker_0, # of connection points: 2
#     Edge 66, Type (0, 1), BuildingBlock: XIVTED_clean_linker_0, # of connection points: 2
#     Edge 67, Type (0, 1), BuildingBlock: XIVTED_clean_linker_0, # of connection points: 2
#     Edge 68, Type (0, 1), BuildingBlock: XIVTED_clean_linker_0, # of connection points: 2
#     Edge 69, Type (0, 1), BuildingBlock: XIVTED_clean_linker_0, # of connection points: 2
#     Edge 70, Type (0, 1), BuildingBlock: XIVTED_clean_linker_0, # of connection points: 2
#     Edge 71, Type (0, 1), BuildingBlock: XIVTED_clean_linker_0, # of connection points: 2
#     Edge 72, Type (0, 1), BuildingBlock: XIVTED_clean_linker_0, # of connection points: 2
#     Edge 73, Type (0, 1), BuildingBlock: XIVTED_clean_linker_0, # of connection points: 2
#     Edge 74, Type (0, 1), BuildingBlock: XIVTED_clean_linker_0, # of connection points: 2
#     Edge 75, Type (0, 1), BuildingBlock: XIVTED_clean_linker_0, # of connection points: 2
#     Edge 76, Type (0, 1), BuildingBlock: XIVTED_clean_linker_0, # of connection points: 2
#     Edge 77, Type (0, 1), BuildingBlock: XIVTED_clean_linker_0, # of connection points: 2
#     Edge 78, Type (0, 1), BuildingBlock: XIVTED_clean_linker_0, # of connection points: 2
#     Edge 79, Type (0, 1), BuildingBlock: XIVTED_clean_linker_0, # of connection points: 2
#     Edge 80, Type (0, 1), BuildingBlock: XIVTED_clean_linker_0, # of connection points: 2
#     Edge 81, Type (0, 1), BuildingBlock: XIVTED_clean_linker_0, # of connection points: 2
#     Edge 82, Type (0, 1), BuildingBlock: XIVTED_clean_linker_0, # of connection points: 2
#     Edge 83, Type (0, 1), BuildingBlock: XIVTED_clean_linker_0, # of connection points: 2
#     Edge 84, Type (0, 1), BuildingBlock: XIVTED_clean_linker_0, # of connection points: 2
#     Edge 85, Type (0, 1), BuildingBlock: XIVTED_clean_linker_0, # of connection points: 2
#     Edge 86, Type (0, 1), BuildingBlock: XIVTED_clean_linker_0, # of connection points: 2
#     Edge 87, Type (0, 1), BuildingBlock: XIVTED_clean_linker_0, # of connection points: 2
#     Edge 88, Type (0, 1), BuildingBlock: XIVTED_clean_linker_0, # of connection points: 2
#     Edge 89, Type (0, 1), BuildingBlock: XIVTED_clean_linker_0, # of connection points: 2
#     Edge 90, Type (0, 1), BuildingBlock: XIVTED_clean_linker_0, # of connection points: 2
#     Edge 91, Type (0, 1), BuildingBlock: XIVTED_clean_linker_0, # of connection points: 2
#     Edge 92, Type (0, 1), BuildingBlock: XIVTED_clean_linker_0, # of connection points: 2
#     Edge 93, Type (0, 1), BuildingBlock: XIVTED_clean_linker_0, # of connection points: 2
#     Edge 94, Type (0, 1), BuildingBlock: XIVTED_clean_linker_0, # of connection points: 2
#     Edge 95, Type (0, 1), BuildingBlock: XIVTED_clean_linker_0, # of connection points: 2
#     Edge 96, Type (0, 1), BuildingBlock: XIVTED_clean_linker_0, # of connection points: 2
#     Edge 97, Type (0, 1), BuildingBlock: XIVTED_clean_linker_0, # of connection points: 2
#     Edge 98, Type (0, 1), BuildingBlock: XIVTED_clean_linker_0, # of connection points: 2
#     Edge 99, Type (0, 1), BuildingBlock: XIVTED_clean_linker_0, # of connection points: 2
#     Edge 100, Type (0, 1), BuildingBlock: XIVTED_clean_linker_0, # of connection points: 2
#     Edge 101, Type (0, 1), BuildingBlock: XIVTED_clean_linker_0, # of connection points: 2
#     Edge 102, Type (0, 1), BuildingBlock: XIVTED_clean_linker_0, # of connection points: 2
#     Edge 103, Type (0, 1), BuildingBlock: XIVTED_clean_linker_0, # of connection points: 2
#     Edge 104, Type (0, 1), BuildingBlock: XIVTED_clean_linker_0, # of connection points: 2
#     Edge 105, Type (0, 1), BuildingBlock: XIVTED_clean_linker_0, # of connection points: 2
#     Edge 106, Type (0, 1), BuildingBlock: XIVTED_clean_linker_0, # of connection points: 2
#     Edge 107, Type (0, 1), BuildingBlock: XIVTED_clean_linker_0, # of connection points: 2
#     Edge 108, Type (0, 1), BuildingBlock: XIVTED_clean_linker_0, # of connection points: 2
#     Edge 109, Type (0, 1), BuildingBlock: XIVTED_clean_linker_0, # of connection points: 2
#     Edge 110, Type (0, 1), BuildingBlock: XIVTED_clean_linker_0, # of connection points: 2
#     Edge 111, Type (0, 1), BuildingBlock: XIVTED_clean_linker_0, # of connection points: 2
#     Edge 112, Type (0, 1), BuildingBlock: XIVTED_clean_linker_0, # of connection points: 2
#     Edge 113, Type (0, 1), BuildingBlock: XIVTED_clean_linker_0, # of connection points: 2
#     Edge 114, Type (0, 1), BuildingBlock: XIVTED_clean_linker_0, # of connection points: 2
#     Edge 115, Type (0, 1), BuildingBlock: XIVTED_clean_linker_0, # of connection points: 2
#     Edge 116, Type (0, 1), BuildingBlock: XIVTED_clean_linker_0, # of connection points: 2
#     Edge 117, Type (0, 1), BuildingBlock: XIVTED_clean_linker_0, # of connection points: 2
#     Edge 118, Type (0, 1), BuildingBlock: XIVTED_clean_linker_0, # of connection points: 2
#     Edge 119, Type (0, 1), BuildingBlock: XIVTED_clean_linker_0, # of connection points: 2
#     Edge 120, Type (0, 1), BuildingBlock: XIVTED_clean_linker_0, # of connection points: 2
#     Edge 121, Type (0, 1), BuildingBlock: XIVTED_clean_linker_0, # of connection points: 2
#     Edge 122, Type (0, 1), BuildingBlock: XIVTED_clean_linker_0, # of connection points: 2
#     Edge 123, Type (0, 1), BuildingBlock: XIVTED_clean_linker_0, # of connection points: 2
#     Edge 124, Type (0, 1), BuildingBlock: XIVTED_clean_linker_0, # of connection points: 2
#     Edge 125, Type (0, 1), BuildingBlock: XIVTED_clean_linker_0, # of connection points: 2
#     Edge 126, Type (0, 1), BuildingBlock: XIVTED_clean_linker_0, # of connection points: 2
#     Edge 127, Type (0, 1), BuildingBlock: XIVTED_clean_linker_0, # of connection points: 2
#     Edge 128, Type (0, 1), BuildingBlock: XIVTED_clean_linker_0, # of connection points: 2
#     Edge 129, Type (0, 1), BuildingBlock: XIVTED_clean_linker_0, # of connection points: 2
#     Edge 130, Type (0, 1), BuildingBlock: XIVTED_clean_linker_0, # of connection points: 2
#     Edge 131, Type (0, 1), BuildingBlock: XIVTED_clean_linker_0, # of connection points: 2
#     Edge 132, Type (0, 1), BuildingBlock: XIVTED_clean_linker_0, # of connection points: 2
#     Edge 133, Type (0, 1), BuildingBlock: XIVTED_clean_linker_0, # of connection points: 2
#     Edge 134, Type (0, 1), BuildingBlock: XIVTED_clean_linker_0, # of connection points: 2
#     Edge 135, Type (0, 1), BuildingBlock: XIVTED_clean_linker_0, # of connection points: 2
# Relax obj value: 0.206
# Max RMSD: 0.229
# Mean RMSD: 0.214
data_MOF--net-ibd--node1-GALJAG_clean_sbu_0--node2-IZENUY_clean_sbu_0--edge1-XIVTED_clean_linker_0
_symmetry_space_group_name_H-M    P1
_symmetry_Int_Tables_number       1
_symmetry_cell_setting            triclinic
loop_
_symmetry_equiv_pos_as_xyz
'x, y, z'
_cell_length_a     49.936775
_cell_length_b     49.885532
_cell_length_c     49.884558
_cell_angle_alpha  90.049308
_cell_angle_beta   90.080496
_cell_angle_gamma 90.05845
loop_
_atom_site_label
_atom_site_type_symbol
_atom_site_fract_x
_atom_site_fract_y
_atom_site_fract_z
_atom_type_partial_charge
In0 In 0.99211 0.24626 0.36781 0.0
O1 O 0.01842 0.21299 0.35123 0.0
O2 O 0.02232 0.2518 0.33415 0.0
C3 C 0.01098 0.28359 0.40187 0.0
C4 C 0.95355 0.26605 0.33577 0.0
C5 C 0.97388 0.20794 0.40096 0.0
O6 O 0.02534 0.2731 0.38394 0.0
O7 O 0.9871 0.27541 0.40244 0.0
O8 O 0.9591 0.21924 0.38385 0.0
O9 O -0.0021 0.21575 0.40108 0.0
C10 C 0.02992 0.2277 0.33424 0.0
O11 O 0.9608 0.24185 0.33485 0.0
O12 O 0.96575 0.28018 0.35282 0.0
In13 In 0.99216 0.74565 0.6176 0.0
O14 O 0.96659 0.77889 0.63527 0.0
O15 O 0.96295 0.73998 0.65214 0.0
C16 C 0.00893 0.7838 0.58348 0.0
C17 C 0.03076 0.72666 0.65004 0.0
C18 C 0.9735 0.7077 0.58426 0.0
O19 O 0.02438 0.7728 0.60019 0.0
O20 O 0.98505 0.77561 0.58407 0.0
O21 O -0.00226 0.71479 0.58466 0.0
O22 O 0.95865 0.71965 0.60085 0.0
C23 C 0.95576 0.76419 0.6527 0.0
O24 O 0.018 0.71195 0.63391 0.0
O25 O 0.02438 0.75111 0.64948 0.0
In26 In 0.48965 0.74273 0.87178 0.0
O27 O 0.52074 0.74576 0.83883 0.0
O28 O 0.51081 0.70685 0.85311 0.0
C29 C 0.51287 0.77906 0.90415 0.0
C30 C 0.45295 0.76399 0.83854 0.0
C31 C 0.46869 0.70844 0.90769 0.0
O32 O 0.52611 0.76451 0.88831 0.0
O33 O 0.48787 0.77552 0.90341 0.0
O34 O 0.45455 0.72095 0.89091 0.0
O35 O 0.4935 0.71276 0.90598 0.0
C36 C 0.52455 0.72084 0.83716 0.0
O37 O 0.46662 0.77804 0.85452 0.0
O38 O 0.45766 0.73918 0.83947 0.0
In39 In 0.49328 0.24349 0.12712 0.0
O40 O 0.51895 0.20974 0.14351 0.0
O41 O 0.52435 0.24859 0.16019 0.0
C42 C 0.47558 0.20553 0.09322 0.0
C43 C 0.45595 0.26276 0.16083 0.0
C44 C 0.51125 0.28138 0.09341 0.0
O45 O 0.4995 0.21359 0.09348 0.0
O46 O 0.46048 0.21654 0.11024 0.0
O47 O 0.52626 0.27007 0.11032 0.0
O48 O 0.48717 0.27374 0.09373 0.0
C49 C 0.53106 0.22423 0.16032 0.0
O50 O 0.46757 0.27715 0.14366 0.0
O51 O 0.46281 0.23844 0.16071 0.0
In52 In 0.0035 0.74805 0.12053 0.0
O53 O 0.96842 0.77184 0.10382 0.0
O54 O 0.00719 0.77987 0.08819 0.0
C55 C 0.96745 0.72654 0.15426 0.0
C56 C 0.02314 0.71213 0.08551 0.0
C57 C 0.03997 0.76873 0.15449 0.0
O58 O 0.97224 0.75135 0.1535 0.0
O59 O 0.98067 0.71263 0.13785 0.0
O60 O 0.03473 0.74401 0.15359 0.0
O61 O 0.02715 0.78288 0.13796 0.0
C62 C 0.9825 0.78512 0.08759 0.0
O63 O 0.03786 0.72444 0.10201 0.0
O64 O -0.00141 0.71778 0.08689 0.0
In65 In 0.49845 0.7504 0.37059 0.0
O66 O 0.51593 0.71148 0.38709 0.0
O67 O 0.53008 0.74861 0.40283 0.0
C68 C 0.45896 0.73067 0.33956 0.0
C69 C 0.47071 0.77649 0.40841 0.0
C70 C 0.53398 0.77112 0.33589 0.0
O71 O 0.47402 0.71583 0.35341 0.0
O72 O 0.46373 0.7554 0.34152 0.0
O73 O 0.52146 0.78538 0.35256 0.0
O74 O 0.52866 0.74644 0.33683 0.0
C75 C 0.53083 0.72336 0.4038 0.0
O76 O 0.48127 0.78868 0.38892 0.0
O77 O 0.47334 0.75137 0.4081 0.0
In78 In 0.49375 0.24789 0.62428 0.0
O79 O 0.52833 0.22345 0.6075 0.0
O80 O 0.48957 0.21717 0.59093 0.0
C81 C 0.52991 0.26799 0.65887 0.0
C82 C 0.47481 0.28523 0.59038 0.0
C83 C 0.45687 0.22702 0.65756 0.0
O84 O 0.52475 0.24328 0.65743 0.0
O85 O 0.51712 0.28247 0.64259 0.0
O86 O 0.46274 0.2516 0.65749 0.0
O87 O 0.46922 0.2131 0.6405 0.0
C88 C 0.51406 0.21104 0.59069 0.0
O89 O 0.45988 0.27266 0.60643 0.0
O90 O 0.49925 0.27905 0.59157 0.0
In91 In 0.99226 0.2506 0.86787 0.0
O92 O 0.01163 0.21298 0.8851 0.0
O93 O 0.02043 0.25074 0.90318 0.0
C94 C 0.95646 0.22871 0.83405 0.0
C95 C 0.96118 0.2751 0.90407 0.0
C96 C 0.02882 0.27223 0.83492 0.0
O97 O 0.97017 0.21485 0.85012 0.0
O98 O 0.96062 0.2536 0.83527 0.0
O99 O 0.01212 0.2863 0.84763 0.0
O100 O 0.0272 0.24736 0.83907 0.0
C101 C 0.02354 0.22565 0.90354 0.0
O102 O 0.97502 0.28821 0.88742 0.0
O103 O 0.96223 0.24997 0.90154 0.0
In104 In 0.36925 0.9883 0.24398 0.0
O105 O 0.33671 0.95633 0.24232 0.0
O106 O 0.35041 0.96895 0.28063 0.0
C107 C 0.40299 0.96641 0.20826 0.0
C108 C 0.3357 0.024 0.22149 0.0
C109 C 0.40439 0.00948 0.27895 0.0
O110 O 0.38761 0.95242 0.22264 0.0
O111 O 0.40114 0.99137 0.21178 0.0
O112 O 0.38852 0.02369 0.26535 0.0
O113 O 0.40245 0.98459 0.27497 0.0
C114 C 0.33473 0.95417 0.26742 0.0
O115 O 0.34977 0.00812 0.20782 0.0
O116 O 0.33867 0.02199 0.24651 0.0
In117 In 0.24844 0.12514 0.49875 0.0
O118 O 0.21316 0.14277 0.52151 0.0
O119 O 0.2517 0.15938 0.52873 0.0
C120 C 0.21195 0.09243 0.47622 0.0
C121 C 0.27096 0.15832 0.46289 0.0
C122 C 0.28366 0.09109 0.52115 0.0
O123 O 0.21618 0.09301 0.50115 0.0
O124 O 0.22612 0.10836 0.46268 0.0
O125 O 0.27935 0.09184 0.49625 0.0
O126 O 0.27023 0.10758 0.53477 0.0
C127 C 0.22698 0.16001 0.53381 0.0
O128 O 0.28451 0.14206 0.47669 0.0
O129 O 0.24607 0.15761 0.467 0.0
In130 In 0.12225 0.00334 0.74883 0.0
O131 O 0.10508 0.96775 0.77141 0.0
O132 O 0.08931 0.00637 0.78012 0.0
C133 C 0.15511 0.96727 0.72614 0.0
C134 C 0.08778 0.02447 0.71326 0.0
C135 C 0.1571 0.03836 0.77063 0.0
O136 O 0.15329 0.97012 0.75119 0.0
O137 O 0.14025 0.98253 0.71255 0.0
O138 O 0.1559 0.03399 0.74577 0.0
O139 O 0.14046 0.02536 0.78445 0.0
C140 C 0.08862 0.98152 0.78473 0.0
O141 O 0.10358 0.03875 0.72693 0.0
O142 O 0.0895 -0.00037 0.71749 0.0
In143 In 0.23318 0.87492 0.99286 0.0
O144 O 0.20302 0.9088 0.98761 0.0
O145 O 0.20806 0.89237 0.02655 0.0
C146 C 0.2149 0.84069 0.9555 0.0
C147 C 0.27148 0.90714 0.97294 0.0
C148 C 0.25136 0.8413 0.03083 0.0
O149 O 0.19976 0.85707 0.96739 0.0
O150 O 0.23918 0.84176 0.96237 0.0
O151 O 0.26615 0.8585 0.0197 0.0
O152 O 0.22737 0.84118 0.02292 0.0
C153 C 0.19639 0.90936 0.01198 0.0
O154 O 0.26573 0.90656 -0.00246 0.0
O155 O 0.25794 0.89147 0.95844 0.0
In156 In 0.25633 0.3773 0.99009 0.0
O157 O 0.27344 0.35722 0.95275 0.0
O158 O 0.2889 0.34599 0.99094 0.0
C159 C 0.219 0.40871 0.9672 0.0
C160 C 0.2269 0.34046 0.01573 0.0
C161 C 0.29 0.41268 0.01299 0.0
O162 O 0.23741 0.3977 0.95387 0.0
O163 O 0.21925 0.40356 0.99192 0.0
O164 O 0.27655 0.39605 0.0264 0.0
O165 O 0.28673 0.41125 0.98798 0.0
C166 C 0.28904 0.34227 0.96594 0.0
O167 O 0.2372 0.36017 0.02785 0.0
O168 O 0.23056 0.34006 0.99071 0.0
In169 In 0.73894 0.11936 0.98598 0.0
O170 O 0.71455 0.10231 0.02039 0.0
O171 O 0.70835 0.08579 0.98159 0.0
C172 C 0.75768 0.154 0.02283 0.0
C173 C 0.77665 0.08571 0.96743 0.0
C174 C 0.7192 0.15306 0.94891 0.0
O175 O 0.77262 0.13759 0.01077 0.0
O176 O 0.73327 0.15278 0.01645 0.0
O177 O 0.74373 0.15238 0.95494 0.0
O178 O 0.70479 0.13629 0.96112 0.0
C179 C 0.70231 0.08541 0.00612 0.0
O180 O 0.76347 0.10099 0.9522 0.0
O181 O 0.77094 0.08761 0.99196 0.0
In182 In 0.1175 0.4835 0.24784 0.0
O183 O 0.13545 0.46004 0.28252 0.0
O184 O 0.15084 0.45282 0.24347 0.0
C185 C 0.08551 0.50672 0.28442 0.0
C186 C 0.15138 0.51954 0.22665 0.0
C187 C 0.08166 0.46257 0.21329 0.0
O188 O 0.08591 0.4817 0.28073 0.0
O189 O 0.10139 0.51986 0.26987 0.0
O190 O 0.0975 0.44825 0.22677 0.0
O191 O 0.08423 0.48746 0.21688 0.0
C192 C 0.15203 0.44753 0.26815 0.0
O193 O 0.136 0.50544 0.2123 0.0
O194 O 0.14962 0.51537 0.25151 0.0
In195 In 0.74837 0.8681 0.49803 0.0
O196 O 0.78329 0.84962 0.47545 0.0
O197 O 0.74413 0.83568 0.46616 0.0
C198 C 0.71262 0.90279 0.47758 0.0
C199 C 0.72627 0.83487 0.53423 0.0
C200 C 0.78517 0.90166 0.51864 0.0
O201 O 0.7255 0.88656 0.46313 0.0
O202 O 0.71766 0.90137 0.50231 0.0
O203 O 0.77224 0.88533 0.53293 0.0
O204 O 0.77974 0.90082 0.49397 0.0
C205 C 0.76892 0.83399 0.46172 0.0
O206 O 0.7511 0.83533 0.52969 0.0
O207 O 0.71269 0.85126 0.52064 0.0
In208 In 0.86778 0.01182 0.23982 0.0
O209 O 0.90068 0.01442 0.27128 0.0
O210 O 0.88667 0.97571 0.26023 0.0
C211 C 0.83363 0.04615 0.26329 0.0
C212 C 0.90148 0.03472 0.20465 0.0
C213 C 0.83383 0.97622 0.2177 0.0
O214 O 0.85001 0.03212 0.27643 0.0
O215 O 0.8347 0.04311 0.23821 0.0
O216 O 0.84886 0.99103 0.20381 0.0
O217 O 0.83603 0.97931 0.24269 0.0
C218 C 0.90248 0.98942 0.27443 0.0
O219 O 0.89959 0.00968 0.20743 0.0
O220 O 0.88603 0.04827 0.21933 0.0
In221 In 0.23885 0.6248 0.49451 0.0
O222 O 0.26015 0.60699 0.45828 0.0
O223 O 0.27167 0.59352 0.49703 0.0
C224 C 0.20747 0.66108 0.47044 0.0
C225 C 0.20223 0.59171 0.51601 0.0
C226 C 0.27072 0.65949 0.52037 0.0
O227 O 0.22013 0.64362 0.45721 0.0
O228 O 0.20996 0.65947 0.49554 0.0
O229 O 0.25873 0.6408 0.53251 0.0
O230 O 0.26738 0.65989 0.49531 0.0
C231 C 0.27498 0.59184 0.47204 0.0
O232 O 0.21643 0.60723 0.53007 0.0
O233 O 0.20642 0.59301 0.49114 0.0
In234 In 0.36758 0.49707 0.74175 0.0
O235 O 0.39941 0.50012 0.77427 0.0
O236 O 0.38325 0.46161 0.76567 0.0
C237 C 0.33471 0.53499 0.76129 0.0
C238 C 0.40282 0.51606 0.70572 0.0
C239 C 0.33251 0.46168 0.72117 0.0
O240 O 0.35117 0.52251 0.77583 0.0
O241 O 0.33506 0.52856 0.73685 0.0
O242 O 0.34931 0.474 0.70688 0.0
O243 O 0.33367 0.46696 0.74587 0.0
C244 C 0.39941 0.47538 0.77943 0.0
O245 O 0.38648 0.53095 0.71791 0.0
O246 O 0.40125 0.49153 0.71155 0.0
In247 In 0.62537 0.99285 0.74721 0.0
O248 O 0.64402 0.96929 0.7814 0.0
O249 O 0.65813 0.96162 0.74196 0.0
C250 C 0.59261 0.01311 0.78483 0.0
C251 C 0.65809 0.02946 0.7251 0.0
C252 C 0.58998 0.97261 0.71203 0.0
O253 O 0.59295 0.98857 0.77881 0.0
O254 O 0.60908 0.02743 0.77211 0.0
O255 O 0.59163 -0.00266 0.71702 0.0
O256 O 0.60646 0.9581 0.72453 0.0
C257 C 0.65981 0.95629 0.76661 0.0
O258 O 0.64152 0.01604 0.71151 0.0
O259 O 0.65801 0.02456 0.7499 0.0
In260 In 0.75026 0.62046 -0.00434 0.0
O261 O 0.71633 0.63778 0.02058 0.0
O262 O 0.75505 0.65481 0.02538 0.0
C263 C 0.71248 0.58703 0.97663 0.0
C264 C 0.77076 0.65319 0.95817 0.0
C265 C 0.78682 0.58644 0.01569 0.0
O266 O 0.72469 0.60348 0.96184 0.0
O267 O 0.71926 0.58756 0.00097 0.0
O268 O 0.78062 0.58688 0.99118 0.0
O269 O 0.77478 0.60339 0.03005 0.0
C270 C 0.73071 0.65512 0.03204 0.0
O271 O 0.78499 0.63708 0.97143 0.0
O272 O 0.7461 0.65251 0.96355 0.0
In273 In 0.86573 0.4922 0.75273 0.0
O274 O 0.83249 0.46134 0.74805 0.0
O275 O 0.84691 0.46937 0.78735 0.0
C276 C 0.89915 0.47199 0.71577 0.0
C277 C 0.83297 0.52934 0.73159 0.0
C278 C 0.90059 0.5118 0.78893 0.0
O279 O 0.88386 0.45733 0.72956 0.0
O280 O 0.89741 0.49675 0.72055 0.0
O281 O 0.88359 0.52633 0.77718 0.0
O282 O 0.89967 0.48731 0.78277 0.0
C283 C 0.83071 0.45652 0.77279 0.0
O284 O 0.83346 0.52423 0.75634 0.0
O285 O 0.84915 0.51592 0.71763 0.0
In286 In 0.74431 0.37084 0.48995 0.0
O287 O 0.71403 0.40466 0.48639 0.0
O288 O 0.72206 0.38913 0.52524 0.0
C289 C 0.72199 0.33717 0.45429 0.0
C290 C 0.78107 0.40358 0.46823 0.0
C291 C 0.76522 0.33649 0.52583 0.0
O292 O 0.70835 0.35333 0.46811 0.0
O293 O 0.74692 0.3383 0.45819 0.0
O294 O 0.77935 0.35305 0.51303 0.0
O295 O 0.74051 0.33747 0.52076 0.0
C296 C 0.7093 0.4058 0.51119 0.0
O297 O 0.76708 0.38775 0.45431 0.0
O298 O 0.77665 0.40271 0.4931 0.0
In299 In 0.61564 0.50662 0.24159 0.0
O300 O 0.59841 0.4716 0.26505 0.0
O301 O 0.58413 0.51065 0.27427 0.0
C302 C 0.64655 0.46928 0.21828 0.0
C303 C 0.58039 0.52904 0.20764 0.0
C304 C 0.65255 0.54073 0.2612 0.0
O305 O 0.64577 0.4726 0.24334 0.0
O306 O 0.63161 0.48472 0.20498 0.0
O307 O 0.63598 0.52868 0.27594 0.0
O308 O 0.65031 0.53582 0.23651 0.0
C309 C 0.58294 0.48586 0.27902 0.0
O310 O 0.59669 0.54275 0.22129 0.0
O311 O 0.58211 0.50405 0.21092 0.0
Fe312 Fe 0.12337 0.10304 0.14506 0.0
Fe313 Fe 0.10183 0.15561 0.1223 0.0
O314 O 0.12431 0.12837 0.12036 0.0
Fe315 Fe 0.14761 0.12623 0.09383 0.0
O316 O 0.13385 0.09457 0.08283 0.0
O317 O 0.13408 0.07593 0.12256 0.0
O318 O 0.08936 0.09451 0.1362 0.0
C319 C 0.07017 0.11087 0.13656 0.0
C320 C 0.1771 0.10933 0.13938 0.0
O321 O 0.07447 0.13592 0.13726 0.0
C322 C 0.15015 0.17969 0.10438 0.0
O323 O 0.11241 0.12533 0.17226 0.0
O324 O 0.11485 0.16547 0.15464 0.0
O325 O 0.17373 0.1099 0.11416 0.0
O326 O 0.15736 0.11029 0.15506 0.0
C327 C 0.10062 0.14584 0.0686 0.0
O328 O 0.12499 0.18002 0.10749 0.0
O329 O 0.16274 0.15787 0.1029 0.0
C330 C 0.1146 0.15049 0.17492 0.0
O331 O 0.08749 0.14758 0.09007 0.0
O332 O 0.12571 0.14221 0.06893 0.0
C333 C 0.13238 0.074 0.09732 0.0
Fe334 Fe 0.08837 0.85573 0.37163 0.0
Fe335 Fe 0.11513 0.90488 0.3466 0.0
O336 O 0.11354 0.88065 0.37235 0.0
Fe337 Fe 0.13712 0.88143 0.39873 0.0
O338 O 0.14889 0.84819 0.39077 0.0
O339 O 0.10902 0.82975 0.38755 0.0
O340 O 0.10026 0.84318 0.33981 0.0
C341 C 0.10227 0.85718 0.31892 0.0
C342 C 0.08856 0.86807 0.42483 0.0
O343 O 0.10215 0.88253 0.32032 0.0
C344 C 0.1274 0.93473 0.39326 0.0
O345 O 0.06317 0.8773 0.35558 0.0
O346 O 0.08208 0.91708 0.35472 0.0
O347 O 0.1139 0.86863 0.42412 0.0
O348 O 0.07504 0.86669 0.40352 0.0
C349 C 0.16799 0.89328 0.35275 0.0
O350 O 0.12852 0.93173 0.36808 0.0
O351 O 0.1267 0.91466 0.4085 0.0
C352 C 0.06136 0.90263 0.35466 0.0
O353 O 0.1482 0.89392 0.33708 0.0
O354 O 0.16469 0.8943 0.37792 0.0
C355 C 0.13416 0.82769 0.39012 0.0
Fe356 Fe 0.36935 0.89874 0.6499 0.0
Fe357 Fe 0.34665 0.87633 0.59755 0.0
O358 O 0.36973 0.87422 0.62431 0.0
Fe359 Fe 0.3932 0.84779 0.62568 0.0
O360 O 0.38026 0.83647 0.65755 0.0
O361 O 0.38096 0.87609 0.67648 0.0
O362 O 0.33563 0.88966 0.65914 0.0
C363 C 0.31603 0.89017 0.64321 0.0
C364 C 0.42289 0.89333 0.64189 0.0
O365 O 0.31969 0.89089 0.61806 0.0
C366 C 0.39457 0.85919 0.57231 0.0
O367 O 0.35764 0.92609 0.62822 0.0
O368 O 0.35929 0.90885 0.58787 0.0
O369 O 0.41958 0.86811 0.64159 0.0
O370 O 0.40307 0.90895 0.64185 0.0
C371 C 0.34599 0.8225 0.60641 0.0
O372 O 0.36938 0.86202 0.57244 0.0
O373 O 0.40756 0.85727 0.59388 0.0
C374 C 0.35942 0.92898 0.60308 0.0
O375 O 0.33267 0.8439 0.60533 0.0
O376 O 0.37111 0.82294 0.60984 0.0
C377 C 0.3795 0.85083 0.67828 0.0
Fe378 Fe 0.40311 0.14205 0.8754 0.0
Fe379 Fe 0.37646 0.09342 0.84914 0.0
O380 O 0.3774 0.11771 0.87494 0.0
Fe381 Fe 0.35273 0.11753 0.90027 0.0
O382 O 0.34199 0.15106 0.89184 0.0
O383 O 0.38245 0.16842 0.89044 0.0
O384 O 0.39278 0.15486 0.84316 0.0
C385 C 0.39125 0.14092 0.82216 0.0
C386 C 0.40044 0.12949 0.92847 0.0
O387 O 0.39083 0.11556 0.82345 0.0
C388 C 0.36173 0.06399 0.89527 0.0
O389 O 0.42847 0.12008 0.8604 0.0
O390 O 0.40898 0.08065 0.85868 0.0
O391 O 0.37515 0.12988 0.92665 0.0
O392 O 0.41486 0.13069 0.90779 0.0
C393 C 0.32353 0.10571 0.853 0.0
O394 O 0.36182 0.06687 0.87005 0.0
O395 O 0.36202 0.08411 0.9105 0.0
C396 C 0.42991 0.09474 0.85972 0.0
O397 O 0.34391 0.1048 0.83817 0.0
O398 O 0.32583 0.10513 0.8783 0.0
C399 C 0.35729 0.17116 0.89164 0.0
Fe400 Fe 0.58696 0.34861 0.87753 0.0
Fe401 Fe 0.61167 0.3989 0.8526 0.0
O402 O 0.61184 0.37379 0.87755 0.0
Fe403 Fe 0.63699 0.37377 0.90249 0.0
O404 O 0.64866 0.34113 0.892 0.0
O405 O 0.60886 0.32243 0.89125 0.0
O406 O 0.59697 0.3372 0.84465 0.0
C407 C 0.59779 0.35187 0.82413 0.0
C408 C 0.59026 0.35923 0.93092 0.0
O409 O 0.59779 0.37718 0.82628 0.0
C410 C 0.62612 0.4271 0.8998 0.0
O411 O 0.56062 0.37018 0.86373 0.0
O412 O 0.57881 0.41027 0.86266 0.0
O413 O 0.61552 0.35945 0.92868 0.0
O414 O 0.57552 0.35853 0.91042 0.0
C415 C 0.66507 0.38825 0.85556 0.0
O416 O 0.62559 0.4251 0.87447 0.0
O417 O 0.6268 0.40646 0.91433 0.0
C418 C 0.55835 0.39546 0.86335 0.0
O419 O 0.64449 0.38901 0.84096 0.0
O420 O 0.66303 0.38807 0.88086 0.0
C421 C 0.63413 0.3205 0.8908 0.0
Fe422 Fe 0.83674 0.36849 0.09606 0.0
Fe423 Fe 0.85953 0.3923 0.1478 0.0
O424 O 0.85999 0.36722 0.12276 0.0
Fe425 Fe 0.88367 0.34096 0.12447 0.0
O426 O 0.89778 0.34996 0.09238 0.0
O427 O 0.85928 0.35345 0.07129 0.0
O428 O 0.8493 0.40072 0.08533 0.0
C429 C 0.85019 0.42122 0.10006 0.0
C430 C 0.83632 0.31498 0.10687 0.0
O431 O 0.84831 0.41912 0.12528 0.0
C432 C 0.86996 0.34485 0.17709 0.0
O433 O 0.80989 0.38376 0.11599 0.0
O434 O 0.82561 0.38378 0.1571 0.0
O435 O 0.86157 0.31578 0.10923 0.0
O436 O 0.82284 0.33626 0.10514 0.0
C437 C 0.91326 0.38675 0.1404 0.0
O438 O 0.87074 0.37012 0.1749 0.0
O439 O 0.87109 0.33012 0.15662 0.0
C440 C 0.80609 0.38406 0.14108 0.0
O441 O 0.8934 0.40229 0.13992 0.0
O442 O 0.91006 0.36154 0.13998 0.0
C443 C 0.88453 0.3513 0.07092 0.0
Fe444 Fe 0.84717 0.61981 0.39179 0.0
Fe445 Fe 0.89807 0.64425 0.36816 0.0
O446 O 0.87247 0.61984 0.36715 0.0
Fe447 Fe 0.8722 0.59535 0.34158 0.0
O448 O 0.83988 0.60652 0.32966 0.0
O449 O 0.82102 0.60676 0.36939 0.0
O450 O 0.83643 0.653 0.38221 0.0
C451 C 0.85147 0.67329 0.38225 0.0
C452 C 0.85707 0.56637 0.38772 0.0
O453 O 0.87672 0.67069 0.38237 0.0
C454 C 0.92533 0.59678 0.35379 0.0
O455 O 0.8687 0.63287 0.41866 0.0
O456 O 0.90888 0.63318 0.40092 0.0
O457 O 0.85719 0.569 0.36247 0.0
O458 O 0.85658 0.58664 0.40278 0.0
C459 C 0.88813 0.64259 0.31457 0.0
O460 O 0.924 0.62214 0.35416 0.0
O461 O 0.9044 0.58276 0.35213 0.0
C462 C 0.89392 0.63233 0.42121 0.0
O463 O 0.88878 0.65674 0.33548 0.0
O464 O 0.88726 0.61725 0.31608 0.0
C465 C 0.81918 0.60733 0.34407 0.0
Fe466 Fe 0.90107 0.84542 0.87289 0.0
Fe467 Fe 0.85046 0.87021 0.89686 0.0
O468 O 0.87556 0.8699 0.87197 0.0
Fe469 Fe 0.87511 0.89404 0.84613 0.0
O470 O 0.90753 0.90668 0.85609 0.0
O471 O 0.92689 0.86724 0.8583 0.0
O472 O 0.91229 0.85687 0.90539 0.0
C473 C 0.89758 0.85793 0.92586 0.0
C474 C 0.89007 0.84642 0.81944 0.0
O475 O 0.87231 0.85749 0.92363 0.0
C476 C 0.82205 0.88214 0.84928 0.0
O477 O 0.87983 0.81918 0.8876 0.0
O478 O 0.83961 0.83691 0.88765 0.0
O479 O 0.88967 0.87178 0.8207 0.0
O480 O 0.89128 0.83252 0.84047 0.0
C481 C 0.86005 0.92367 0.89209 0.0
O482 O 0.82408 0.88293 0.87458 0.0
O483 O 0.84263 0.88279 0.83472 0.0
C484 C 0.85458 0.81661 0.8874 0.0
O485 O 0.85985 0.90361 0.90743 0.0
O486 O 0.86044 0.92065 0.86688 0.0
C487 C 0.9284 0.89258 0.85745 0.0
Fe488 Fe 0.87163 0.09695 0.64313 0.0
Fe489 Fe 0.84594 0.12012 0.59255 0.0
O490 O 0.87097 0.12136 0.61756 0.0
Fe491 Fe 0.89536 0.14699 0.617 0.0
O492 O 0.88489 0.15915 0.64949 0.0
O493 O 0.8852 0.11962 0.66879 0.0
O494 O 0.83873 0.10663 0.65454 0.0
C495 C 0.81811 0.10656 0.63999 0.0
C496 C 0.92481 0.10109 0.63235 0.0
O497 O 0.82007 0.10606 0.61467 0.0
C498 C 0.89262 0.13451 0.56394 0.0
O499 O 0.85813 0.06986 0.62212 0.0
O500 O 0.85681 0.0873 0.58178 0.0
O501 O 0.92206 0.12632 0.63167 0.0
O502 O 0.90462 0.08594 0.63316 0.0
C503 C 0.84779 0.17381 0.60199 0.0
O504 O 0.86734 0.13392 0.56599 0.0
O505 O 0.90719 0.13625 0.58451 0.0
C506 C 0.85805 0.06713 0.59688 0.0
O507 O 0.83363 0.15289 0.60184 0.0
O508 O 0.87311 0.17229 0.60223 0.0
C509 C 0.88456 0.14496 0.67037 0.0
Fe510 Fe 0.61657 0.09318 0.35058 0.0
Fe511 Fe 0.64104 0.11764 0.40123 0.0
O512 O 0.61597 0.11754 0.37625 0.0
Fe513 Fe 0.59039 0.14193 0.37685 0.0
O514 O 0.60035 0.15461 0.34447 0.0
O515 O 0.60211 0.11524 0.32487 0.0
O516 O 0.64901 0.10451 0.33933 0.0
C517 C 0.66956 0.10563 0.35393 0.0
C518 C 0.5632 0.09464 0.36105 0.0
O519 O 0.66757 0.10479 0.37922 0.0
C520 C 0.59375 0.1301 0.42989 0.0
O521 O 0.63125 0.06679 0.37167 0.0
O522 O 0.63177 0.08436 0.41206 0.0
O523 O 0.56474 0.11997 0.36211 0.0
O524 O 0.58408 0.08051 0.36028 0.0
C525 C 0.63666 0.17108 0.3912 0.0
O526 O 0.61904 0.13059 0.42775 0.0
O527 O 0.57908 0.13066 0.40933 0.0
C528 C 0.63167 0.06412 0.39694 0.0
O529 O 0.65175 0.15088 0.39171 0.0
O530 O 0.61144 0.16836 0.39157 0.0
C531 C 0.60172 0.14059 0.32352 0.0
Fe532 Fe 0.59844 0.84416 0.11874 0.0
Fe533 Fe 0.64656 0.87111 0.09212 0.0
O534 O 0.62203 0.87049 0.11758 0.0
Fe535 Fe 0.62102 0.89624 0.14182 0.0
O536 O 0.58751 0.90562 0.13185 0.0
O537 O 0.57133 0.86472 0.13272 0.0
O538 O 0.58574 0.85282 0.08597 0.0
C539 C 0.59986 0.85384 0.0651 0.0
C540 C 0.6099 0.84935 0.17175 0.0
O541 O 0.62516 0.85509 0.06667 0.0
C542 C 0.67479 0.88854 0.13822 0.0
O543 O 0.62126 0.8188 0.10496 0.0
O544 O 0.6601 0.83934 0.10302 0.0
O545 O 0.60866 0.87456 0.16891 0.0
O546 O 0.60983 0.83409 0.15162 0.0
C547 C 0.63278 0.92384 0.09375 0.0
O548 O 0.67232 0.88731 0.11296 0.0
O549 O 0.65446 0.88834 0.15315 0.0
C550 C 0.64661 0.81804 0.10452 0.0
O551 O 0.63443 0.90289 0.07974 0.0
O552 O 0.63317 0.92253 0.11911 0.0
C553 C 0.5678 0.88985 0.13205 0.0
Fe554 Fe 0.38331 0.65748 0.12851 0.0
Fe555 Fe 0.33517 0.63052 0.10165 0.0
O556 O 0.35959 0.63121 0.12728 0.0
Fe557 Fe 0.36038 0.60554 0.15159 0.0
O558 O 0.39384 0.59597 0.14181 0.0
O559 O 0.41035 0.63677 0.14247 0.0
O560 O 0.39601 0.6488 0.09572 0.0
C561 C 0.3819 0.64754 0.07481 0.0
C562 C 0.37202 0.6524 0.18158 0.0
O563 O 0.35662 0.64633 0.0763 0.0
C564 C 0.30667 0.61321 0.14756 0.0
O565 O 0.36055 0.68287 0.11471 0.0
O566 O 0.32167 0.66239 0.11231 0.0
O567 O 0.37282 0.62719 0.17869 0.0
O568 O 0.37207 0.66764 0.16144 0.0
C569 C 0.3489 0.57777 0.10356 0.0
O570 O 0.30931 0.61446 0.12233 0.0
O571 O 0.3269 0.6136 0.16269 0.0
C572 C 0.3352 0.68368 0.11378 0.0
O573 O 0.3473 0.59864 0.08946 0.0
O574 O 0.3482 0.5792 0.12889 0.0
C575 C 0.41366 0.6116 0.14179 0.0
Fe576 Fe 0.11912 0.59649 0.84082 0.0
Fe577 Fe 0.14455 0.62259 0.89021 0.0
O578 O 0.1189 0.62156 0.86585 0.0
Fe579 Fe 0.09306 0.64568 0.86649 0.0
O580 O 0.10199 0.65756 0.8335 0.0
O581 O 0.10377 0.6177 0.81491 0.0
O582 O 0.15122 0.60773 0.82843 0.0
C583 C 0.1721 0.60927 0.84255 0.0
C584 C 0.06603 0.59771 0.85314 0.0
O585 O 0.17063 0.60943 0.8679 0.0
C586 C 0.09792 0.63525 0.91976 0.0
O587 O 0.13459 0.5708 0.86223 0.0
O588 O 0.13589 0.5895 0.90209 0.0
O589 O 0.0673 0.62306 0.85311 0.0
O590 O 0.08701 0.58377 0.85172 0.0
C591 C 0.13929 0.67576 0.87933 0.0
O592 O 0.12311 0.63594 0.91694 0.0
O593 O 0.0827 0.63521 0.89959 0.0
C594 C 0.1356 0.56884 0.88753 0.0
O595 O 0.15469 0.65577 0.87971 0.0
O596 O 0.11413 0.67268 0.87995 0.0
C597 C 0.10299 0.643 0.81289 0.0
Fe598 Fe 0.13854 0.37618 0.59199 0.0
Fe599 Fe 0.09017 0.34893 0.61785 0.0
O600 O 0.1142 0.37491 0.61758 0.0
Fe601 Fe 0.11386 0.39962 0.64293 0.0
O602 O 0.14721 0.39056 0.65366 0.0
O603 O 0.16476 0.39087 0.61332 0.0
O604 O 0.15157 0.34373 0.60137 0.0
C605 C 0.13777 0.32261 0.60227 0.0
C606 C 0.12596 0.42906 0.59606 0.0
O607 O 0.11244 0.32372 0.60294 0.0
C608 C 0.06047 0.39461 0.63334 0.0
O609 O 0.11671 0.36169 0.56607 0.0
O610 O 0.07738 0.35902 0.58551 0.0
O611 O 0.12646 0.42661 0.62132 0.0
O612 O 0.12694 0.40872 0.58112 0.0
C613 C 0.1022 0.35179 0.67096 0.0
O614 O 0.06356 0.36941 0.63282 0.0
O615 O 0.08046 0.41005 0.63365 0.0
C616 C 0.0914 0.36063 0.5646 0.0
O617 O 0.1016 0.33737 0.65022 0.0
O618 O 0.10126 0.3771 0.66915 0.0
C619 C 0.16743 0.39068 0.63859 0.0
Fe620 Fe 0.64634 0.62025 0.59755 0.0
Fe621 Fe 0.61943 0.59372 0.64582 0.0
O622 O 0.62049 0.61965 0.62172 0.0
Fe623 Fe 0.59577 0.64491 0.62196 0.0
O624 O 0.58525 0.63668 0.58831 0.0
O625 O 0.62569 0.63523 0.57102 0.0
O626 O 0.63634 0.58791 0.58459 0.0
C627 C 0.63518 0.56689 0.59849 0.0
C628 C 0.64344 0.67335 0.61016 0.0
O629 O 0.63427 0.56822 0.62382 0.0
C630 C 0.60435 0.63951 0.67553 0.0
O631 O 0.67167 0.60544 0.61985 0.0
O632 O 0.6517 0.60345 0.65901 0.0
O633 O 0.61815 0.6715 0.61003 0.0
O634 O 0.6579 0.65269 0.60894 0.0
C635 C 0.56664 0.59743 0.63306 0.0
O636 O 0.60438 0.61434 0.67234 0.0
O637 O 0.60482 0.65493 0.65558 0.0
C638 C 0.67279 0.6047 0.64523 0.0
O639 O 0.58707 0.58264 0.63395 0.0
O640 O 0.5689 0.62273 0.6339 0.0
C641 C 0.60053 0.6368 0.56824 0.0
Fe642 Fe 0.3987 0.35185 0.37607 0.0
Fe643 Fe 0.37202 0.39982 0.34871 0.0
O644 O 0.37293 0.37604 0.3749 0.0
Fe645 Fe 0.34795 0.37639 0.39988 0.0
O646 O 0.33736 0.34291 0.39105 0.0
O647 O 0.37776 0.32557 0.39116 0.0
O648 O 0.38897 0.33844 0.34385 0.0
C649 C 0.38749 0.35198 0.32262 0.0
C650 C 0.39523 0.36465 0.42894 0.0
O651 O 0.38665 0.37735 0.32347 0.0
C652 C 0.35704 0.42983 0.39444 0.0
O653 O 0.4242 0.37377 0.36111 0.0
O654 O 0.4044 0.41296 0.3582 0.0
O655 O 0.36997 0.36411 0.42668 0.0
O656 O 0.40992 0.36377 0.40845 0.0
C657 C 0.31913 0.38718 0.35239 0.0
O658 O 0.35717 0.42656 0.36925 0.0
O659 O 0.35717 0.40994 0.41 0.0
C660 C 0.42543 0.3991 0.35962 0.0
O661 O 0.33958 0.388 0.33767 0.0
O662 O 0.32133 0.38864 0.37764 0.0
C663 C 0.35254 0.32277 0.391 0.0
H664 H 0.04896 0.17659 0.3304 0.0
H665 H 0.11528 0.20382 0.18806 0.0
H666 H 0.05525 0.25484 0.29409 0.0
H667 H 0.10566 0.12507 0.22271 0.0
H668 H 0.10142 0.22366 0.23051 0.0
H669 H 0.07727 0.15835 0.29493 0.0
C670 C 0.05655 0.18998 0.3151 0.0
C671 C 0.04944 0.21715 0.31487 0.0
C672 C 0.10267 0.20204 0.22894 0.0
C673 C 0.08169 0.19646 0.27423 0.0
C674 C 0.11061 0.19068 0.2047 0.0
C675 C 0.11102 0.16271 0.20163 0.0
C676 C 0.09497 0.18532 0.2502 0.0
C677 C 0.10519 0.14673 0.22402 0.0
C678 C 0.07273 0.17957 0.29488 0.0
C679 C 0.06002 0.23369 0.29479 0.0
N680 N 0.097 0.15826 0.24725 0.0
N681 N 0.07537 0.223 0.27506 0.0
H682 H 0.98035 0.80674 0.54286 0.0
H683 H 0.11129 0.86744 0.47472 0.0
H684 H 0.05909 0.805 0.57862 0.0
H685 H 0.03513 0.85941 0.43431 0.0
H686 H 0.09011 0.8536 0.51646 0.0
H687 H -0.00209 0.83463 0.50665 0.0
C688 C 0.00127 0.81252 0.54325 0.0
C689 C 0.01843 0.80325 0.56348 0.0
C690 C 0.07797 0.85515 0.49852 0.0
C691 C 0.03861 0.83501 0.5222 0.0
C692 C 0.09004 0.86308 0.47466 0.0
C693 C 0.07508 0.864 0.45083 0.0
C694 C 0.05078 0.84803 0.49856 0.0
C695 C 0.04753 0.85856 0.4521 0.0
C696 C 0.01127 0.82841 0.52259 0.0
C697 C 0.04527 0.81146 0.56319 0.0
N698 N 0.03633 0.85043 0.47551 0.0
N699 N 0.05461 0.82667 0.54269 0.0
H700 H 0.42448 0.73822 0.79948 0.0
H701 H 0.38519 0.87512 0.72721 0.0
H702 H 0.43981 0.81673 0.83256 0.0
H703 H 0.37953 0.79716 0.68986 0.0
H704 H 0.39608 0.85345 0.76966 0.0
H705 H 0.39906 0.75897 0.76313 0.0
C706 C 0.42218 0.75981 0.79927 0.0
C707 C 0.43459 0.77586 0.81875 0.0
C708 C 0.39215 0.84108 0.75224 0.0
C709 C 0.40572 0.79969 0.77727 0.0
C710 C 0.3859 0.85343 0.72798 0.0
C711 C 0.38203 0.83795 0.70479 0.0
C712 C 0.39456 0.81307 0.7533 0.0
C713 C 0.38284 0.80992 0.70711 0.0
C714 C 0.4077 0.77164 0.77852 0.0
C715 C 0.43082 0.80368 0.81771 0.0
N716 N 0.38936 0.79839 0.73086 0.0
N717 N 0.41696 0.81476 0.79709 0.0
H718 H 0.42488 0.18561 0.08782 0.0
H719 H 0.45394 0.13241 0.94063 0.0
H720 H 0.50369 0.18236 0.05256 0.0
H721 H 0.37554 0.13282 0.97713 0.0
H722 H 0.4736 0.14356 0.98403 0.0
H723 H 0.40754 0.15929 0.05029 0.0
C724 C 0.43858 0.17904 0.07234 0.0
C725 C 0.46562 0.18652 0.07298 0.0
C726 C 0.45212 0.14089 0.98261 0.0
C727 C 0.44598 0.1567 0.02996 0.0
C728 C 0.44088 0.13455 0.95782 0.0
C729 C 0.413 0.1323 0.95511 0.0
C730 C 0.43534 0.14518 0.00478 0.0
C731 C 0.3971 0.13485 0.97816 0.0
C732 C 0.4287 0.16402 0.05093 0.0
C733 C 0.4826 0.17729 0.05261 0.0
N734 N 0.40847 0.14155 0.00195 0.0
N735 N 0.47242 0.16316 0.0317 0.0
H736 H 0.06524 0.74315 0.19576 0.0
H737 H 0.0999 0.88081 0.26944 0.0
H738 H 0.05392 0.82127 0.16042 0.0
H739 H 0.10125 0.80337 0.30811 0.0
H740 H 0.09213 0.85861 0.22652 0.0
H741 H 0.08772 0.76424 0.23389 0.0
C742 C 0.06788 0.7647 0.19584 0.0
C743 C 0.05735 0.78057 0.17519 0.0
C744 C 0.09438 0.84647 0.24437 0.0
C745 C 0.08277 0.80479 0.21871 0.0
C746 C 0.09881 0.85913 0.26889 0.0
C747 C 0.10065 0.84395 0.2925 0.0
C748 C 0.09178 0.81846 0.24345 0.0
C749 C 0.09947 0.8159 0.2905 0.0
C750 C 0.08064 0.77674 0.21762 0.0
C751 C 0.06146 0.80836 0.17614 0.0
N752 N 0.0948 0.80408 0.26643 0.0
N753 N 0.07358 0.81964 0.19775 0.0
H754 H 0.46638 0.7576 0.45895 0.0
H755 H 0.37785 0.86996 0.52106 0.0
H756 H 0.44911 0.82707 0.41041 0.0
H757 H 0.44178 0.83265 0.5659 0.0
H758 H 0.39751 0.85226 0.47948 0.0
H759 H 0.44983 0.78148 0.49827 0.0
C760 C 0.45882 0.77781 0.45655 0.0
C761 C 0.45899 0.79045 0.43149 0.0
C762 C 0.40732 0.84841 0.49847 0.0
C763 C 0.44006 0.81769 0.47625 0.0
C764 C 0.39616 0.85839 0.52211 0.0
C765 C 0.40809 0.85253 0.54694 0.0
C766 C 0.43003 0.832 0.49994 0.0
C767 C 0.43187 0.83759 0.54723 0.0
C768 C 0.44966 0.79146 0.47899 0.0
C769 C 0.44926 0.81675 0.42949 0.0
N770 N 0.44177 0.82739 0.52411 0.0
N771 N 0.43986 0.82954 0.45166 0.0
H772 H 0.44164 0.17465 0.6619 0.0
H773 H 0.39082 0.19471 0.81156 0.0
H774 H 0.43274 0.25189 0.69986 0.0
H775 H 0.39736 0.11751 0.77285 0.0
H776 H 0.39982 0.21639 0.76873 0.0
H777 H 0.41891 0.15386 0.69989 0.0
C778 C 0.43453 0.18727 0.67807 0.0
C779 C 0.43941 0.21495 0.678 0.0
C780 C 0.39903 0.19471 0.76953 0.0
C781 C 0.4137 0.19133 0.72159 0.0
C782 C 0.39397 0.1823 0.79401 0.0
C783 C 0.39387 0.15424 0.79589 0.0
C784 C 0.4042 0.17895 0.74679 0.0
C785 C 0.39762 0.1392 0.7724 0.0
C786 C 0.42159 0.1754 0.69976 0.0
C787 C 0.42961 0.23042 0.69929 0.0
N788 N 0.40298 0.15176 0.74888 0.0
N789 N 0.41753 0.21834 0.72044 0.0
H790 H 0.04468 0.17488 0.90509 0.0
H791 H 0.05431 0.17392 0.06247 0.0
H792 H 0.03201 0.24575 0.95312 0.0
H793 H 0.11707 0.1352 0.01725 0.0
H794 H 0.03592 0.19159 0.02076 0.0
H795 H 0.06329 0.15216 0.94491 0.0
C796 C 0.04601 0.18564 0.92392 0.0
C797 C 0.03699 0.21219 0.92595 0.0
C798 C 0.05356 0.17898 0.02004 0.0
C799 C 0.05708 0.18634 0.97105 0.0
C800 C 0.06398 0.16875 0.04374 0.0
C801 C 0.08743 0.15332 0.04329 0.0
C802 C 0.06635 0.17333 -0.00428 0.0
C803 C 0.09911 0.14728 0.0184 0.0
C804 C 0.05654 0.17273 0.94645 0.0
C805 C 0.03896 0.22534 0.9507 0.0
N806 N 0.08843 0.15737 -0.00456 0.0
N807 N 0.04848 0.21214 0.9724 0.0
H808 H 0.30102 0.05767 0.24699 0.0
H809 H 0.22241 0.09422 0.11231 0.0
H810 H 0.32555 0.03162 0.16824 0.0
H811 H 0.19245 0.10995 0.19197 0.0
H812 H 0.26443 0.07853 0.13192 0.0
H813 H 0.26529 0.0841 0.22651 0.0
C814 C 0.29904 0.05775 0.22536 0.0
C815 C 0.316 0.04221 0.20927 0.0
C816 C 0.24873 0.08566 0.14507 0.0
C817 C 0.27519 0.07225 0.18574 0.0
C818 C 0.22477 0.09468 0.1339 0.0
C819 C 0.20372 0.10298 0.15056 0.0
C820 C 0.25166 0.08502 0.17306 0.0
C821 C 0.20798 0.10332 0.17838 0.0
C822 C 0.27864 0.0728 0.21368 0.0
C823 C 0.31271 0.04314 0.18136 0.0
N824 N 0.23138 0.09423 0.18876 0.0
N825 N 0.29251 0.05773 0.17047 0.0
H826 H 0.2 0.08707 0.42306 0.0
H827 H 0.12341 0.94907 0.44599 0.0
H828 H 0.18126 0.05455 0.50096 0.0
H829 H 0.14207 0.98114 0.36782 0.0
H830 H 0.13789 0.99114 0.46622 0.0
H831 H 0.17266 0.05206 0.40235 0.0
C832 C 0.18989 0.07271 0.4358 0.0
C833 C 0.19318 0.0734 0.46371 0.0
C834 C 0.13854 0.98911 0.44462 0.0
C835 C 0.16203 0.03331 0.44022 0.0
C836 C 0.13028 0.96507 0.43304 0.0
C837 C 0.13206 0.96139 0.40521 0.0
C838 C 0.14885 0.00955 0.42827 0.0
C839 C 0.14069 0.98298 0.38939 0.0
C840 C 0.17427 0.05276 0.42398 0.0
C841 C 0.17947 0.05452 0.47933 0.0
N842 N 0.14915 0.00602 0.4012 0.0
N843 N 0.16472 0.03504 0.46734 0.0
H844 H 0.19051 0.93401 0.75119 0.0
H845 H 0.27008 0.90331 0.6161 0.0
H846 H 0.16411 0.95928 0.67276 0.0
H847 H 0.30031 0.88657 0.6955 0.0
H848 H 0.22706 0.9158 0.63574 0.0
H849 H 0.22658 0.90849 0.73027 0.0
C850 C 0.19213 0.93392 0.72954 0.0
C851 C 0.17463 0.94909 0.71367 0.0
C852 C 0.24304 0.90911 0.64881 0.0
C853 C 0.21585 0.92015 0.68964 0.0
C854 C 0.26759 0.90195 0.63762 0.0
C855 C 0.28898 0.89442 0.65425 0.0
C856 C 0.23991 0.90869 0.67678 0.0
C857 C 0.28452 0.89275 0.68197 0.0
C858 C 0.21272 0.91938 0.7176 0.0
C859 C 0.17742 0.94809 0.68572 0.0
N860 N 0.26057 0.90012 0.69238 0.0
N861 N 0.19789 0.93411 0.67458 0.0
H862 H 0.287 0.91207 0.92074 0.0
H863 H 0.36243 0.04993 0.94823 0.0
H864 H 0.30075 0.94494 -0.00037 0.0
H865 H 0.3485 0.01748 0.86913 0.0
H866 H 0.34665 0.00799 0.96764 0.0
H867 H 0.31582 0.9468 0.90182 0.0
C868 C 0.29634 0.92645 0.9341 0.0
C869 C 0.29121 0.92594 0.96172 0.0
C870 C 0.34733 0.0099 0.94603 0.0
C871 C 0.32403 0.96575 0.94026 0.0
C872 C 0.35633 0.03387 0.93492 0.0
C873 C 0.35625 0.03741 0.90701 0.0
C874 C 0.33799 0.9894 0.92913 0.0
C875 C 0.34856 0.01576 0.89076 0.0
C876 C 0.3128 0.94625 0.92331 0.0
C877 C 0.30397 0.94484 0.97818 0.0
N878 N 0.33935 0.99279 0.90207 0.0
N879 N 0.31956 0.96419 0.96715 0.0
H880 H 0.29647 0.92342 0.24317 0.0
H881 H 0.21518 0.90292 0.37925 0.0
H882 H 0.32554 0.94789 0.32096 0.0
H883 H 0.18275 0.88811 0.30029 0.0
H884 H 0.25901 0.91113 0.35911 0.0
H885 H 0.25821 0.90189 0.26475 0.0
C886 C 0.29498 0.92393 0.26483 0.0
C887 C 0.31391 0.93778 0.28031 0.0
C888 C 0.24234 0.90582 0.34624 0.0
C889 C 0.27019 0.91345 0.30509 0.0
C890 C 0.21732 0.90111 0.35772 0.0
C891 C 0.19517 0.89534 0.34137 0.0
C892 C 0.24518 0.90468 0.31826 0.0
C893 C 0.19917 0.89299 0.31362 0.0
C894 C 0.27313 0.91169 0.27714 0.0
C895 C 0.31118 0.93767 0.30829 0.0
N896 N 0.22363 0.89793 0.30293 0.0
N897 N 0.28951 0.92596 0.31979 0.0
H898 H 0.29551 0.08497 0.57426 0.0
H899 H 0.36378 0.94303 0.55027 0.0
H900 H 0.3125 0.05204 0.49608 0.0
H901 H 0.34802 0.97619 0.62868 0.0
H902 H 0.35183 0.98594 0.53026 0.0
H903 H 0.32104 0.04854 0.59465 0.0
C904 C 0.30488 0.07022 0.56139 0.0
C905 C 0.30158 0.07122 0.53349 0.0
C906 C 0.35128 0.98395 0.55187 0.0
C907 C 0.33065 0.02949 0.55662 0.0
C908 C 0.35809 0.95943 0.56332 0.0
C909 C 0.35635 0.95585 0.59116 0.0
C910 C 0.34246 0.00498 0.56836 0.0
C911 C 0.34929 0.97794 0.60709 0.0
C912 C 0.31947 0.04945 0.57302 0.0
C913 C 0.31431 0.0518 0.51771 0.0
N914 N 0.3422 0.00146 0.59542 0.0
N915 N 0.32803 0.03153 0.52952 0.0
H916 H 0.16391 0.05051 0.82358 0.0
H917 H 0.31061 0.10794 0.79971 0.0
H918 H 0.1979 0.06447 0.74532 0.0
H919 H 0.27547 0.09734 0.87806 0.0
H920 H 0.26731 0.09792 0.7794 0.0
H921 H 0.20218 0.07342 0.84383 0.0
C922 C 0.17928 0.05872 0.81065 0.0
C923 C 0.17799 0.0553 0.78278 0.0
C924 C 0.26899 0.09806 0.80105 0.0
C925 C 0.22187 0.08128 0.80576 0.0
C926 C 0.29374 0.10374 0.81267 0.0
C927 C 0.29679 0.10299 0.84063 0.0
C928 C 0.24717 0.0914 0.81748 0.0
C929 C 0.27412 0.09782 0.85641 0.0
C930 C 0.20112 0.07178 0.82221 0.0
C931 C 0.19828 0.06647 0.76693 0.0
N932 N 0.25034 0.09187 0.8446 0.0
N933 N 0.21958 0.07868 0.77867 0.0
H934 H 0.17208 0.95062 0.98546 0.0
H935 H 0.13497 0.02491 0.12173 0.0
H936 H 0.18045 0.91518 0.06392 0.0
H937 H 0.13189 0.06225 0.04369 0.0
H938 H 0.14288 0.98175 0.10014 0.0
H939 H 0.14861 0.98853 0.00566 0.0
C940 C 0.16861 0.95064 0.00689 0.0
C941 C 0.17859 0.93003 0.02314 0.0
C942 C 0.14017 -0.00066 0.08773 0.0
C943 C 0.15202 0.97332 0.04637 0.0
C944 C 0.13566 0.02401 0.10005 0.0
C945 C 0.13338 0.04733 0.08452 0.0
C946 C 0.1425 -0.00198 0.05971 0.0
C947 C 0.13403 0.04487 0.05649 0.0
C948 C 0.15525 0.97229 0.01842 0.0
C949 C 0.17337 0.93089 0.05073 0.0
N950 N 0.13889 0.0207 0.04499 0.0
N951 N 0.16074 0.95239 0.06155 0.0
H952 H 0.22079 0.28972 -0.00259 0.0
H953 H 0.13506 0.23142 0.11487 0.0
H954 H 0.20535 0.33981 0.06627 0.0
H955 H 0.19583 0.18456 0.07501 0.0
H956 H 0.15431 0.27218 0.09497 0.0
H957 H 0.20383 0.25111 0.02221 0.0
C958 C 0.21351 0.29263 0.01766 0.0
C959 C 0.21439 0.3179 0.02988 0.0
C960 C 0.16354 0.25295 0.09101 0.0
C961 C 0.19506 0.27395 0.05819 0.0
C962 C 0.15264 0.22977 0.10228 0.0
C963 C 0.16381 0.20462 0.09644 0.0
C964 C 0.18519 0.25068 0.07332 0.0
C965 C 0.18659 0.20353 0.08007 0.0
C966 C 0.20412 0.27058 0.03184 0.0
C967 C 0.20497 0.32056 0.05624 0.0
N968 N 0.19625 0.22621 0.06867 0.0
N969 N 0.19543 0.29877 0.06957 0.0
H970 H 0.74548 0.19429 0.92438 0.0
H971 H 0.60936 0.27158 0.89323 0.0
H972 H 0.66685 0.15989 0.9348 0.0
H973 H 0.68763 0.30849 0.8914 0.0
H974 H 0.63056 0.22804 0.89979 0.0
H975 H 0.72507 0.23337 0.90313 0.0
C976 C 0.72395 0.19477 0.92176 0.0
C977 C 0.70775 0.1741 0.93174 0.0
C978 C 0.6431 0.24564 0.89772 0.0
C979 C 0.68429 0.21875 0.90778 0.0
C980 C 0.63101 0.27053 0.89402 0.0
C981 C 0.64673 0.2938 0.89232 0.0
C982 C 0.67109 0.24401 0.89975 0.0
C983 C 0.6747 0.29114 0.89308 0.0
C984 C 0.7123 0.2171 0.90972 0.0
C985 C 0.68001 0.17559 0.92767 0.0
N986 N 0.68598 0.26672 0.89702 0.0
N987 N 0.6691 0.19774 0.91631 0.0
H988 H 0.07197 0.40972 0.20272 0.0
H989 H 0.92815 0.43955 0.14033 0.0
H990 H 0.04234 0.48928 0.18629 0.0
H991 H 0.95968 0.35977 0.15173 0.0
H992 H 0.97162 0.45804 0.15282 0.0
H993 H 0.03299 0.39093 0.17975 0.0
C994 C 0.0574 0.42322 0.19398 0.0
C995 C 0.06018 0.45107 0.19662 0.0
C996 C 0.96912 0.43648 0.15236 0.0
C997 C 0.01548 0.42977 0.17057 0.0
C998 C 0.94426 0.4259 0.14528 0.0
C999 C 0.94015 0.39806 0.14537 0.0
C1000 C 0.98998 0.41913 0.15976 0.0
C1001 C 0.96187 0.38136 0.15164 0.0
C1002 C 0.03515 0.4125 0.18089 0.0
C1003 C 0.04084 0.46767 0.18484 0.0
N1004 N 0.98578 0.39217 0.15887 0.0
N1005 N 0.01914 0.45676 0.17257 0.0
H1006 H 0.74236 0.79583 0.43277 0.0
H1007 H 0.87729 0.72089 0.39158 0.0
H1008 H 0.82156 0.82645 0.44925 0.0
H1009 H 0.7983 0.68646 0.38327 0.0
H1010 H 0.8569 0.7633 0.4049 0.0
H1011 H 0.76228 0.75934 0.4069 0.0
C1012 C 0.76393 0.79503 0.43066 0.0
C1013 C 0.7804 0.81391 0.44344 0.0
C1014 C 0.84404 0.74653 0.3999 0.0
C1015 C 0.80329 0.77226 0.41406 0.0
C1016 C 0.85566 0.72231 0.39225 0.0
C1017 C 0.83949 0.69993 0.38682 0.0
C1018 C 0.81607 0.74836 0.4021 0.0
C1019 C 0.81157 0.70306 0.38773 0.0
C1020 C 0.77529 0.77421 0.41593 0.0
C1021 C 0.80819 0.8121 0.43994 0.0
N1022 N 0.80075 0.72674 0.39555 0.0
N1023 N 0.81879 0.79145 0.42578 0.0
H1024 H 0.91147 0.08812 0.19746 0.0
H1025 H 0.05291 0.0593 0.13041 0.0
H1026 H 0.93856 0.00954 0.17353 0.0
H1027 H 0.02492 0.13873 0.15035 0.0
H1028 H 0.00863 0.04155 0.14059 0.0
H1029 H 0.95004 0.10787 0.17468 0.0
C1030 C 0.92533 0.07507 0.18706 0.0
C1031 C 0.92211 0.04715 0.18768 0.0
C1032 C 0.01206 0.06291 0.14251 0.0
C1033 C 0.96628 0.06951 0.16186 0.0
C1034 C 0.03738 0.07305 0.13678 0.0
C1035 C 0.04274 0.10047 0.14002 0.0
C1036 C 0.99198 0.08026 0.15179 0.0
C1037 C 0.02174 0.11741 0.14787 0.0
C1038 C 0.94735 0.08634 0.1741 0.0
C1039 C 0.9405 0.03115 0.17378 0.0
N1040 N -0.00266 0.10696 0.15384 0.0
N1041 N 0.962 0.04255 0.16171 0.0
H1042 H 0.29131 0.65969 0.57144 0.0
H1043 H 0.30027 0.81685 0.57718 0.0
H1044 H 0.28014 0.70941 0.50154 0.0
H1045 H 0.36255 0.77098 0.61599 0.0
H1046 H 0.28269 0.77555 0.55767 0.0
H1047 H 0.30962 0.69887 0.59554 0.0
C1048 C 0.29294 0.67874 0.56117 0.0
C1049 C 0.28434 0.68144 0.53451 0.0
C1050 C 0.30004 0.77459 0.57071 0.0
C1051 C 0.30412 0.72584 0.56193 0.0
C1052 C 0.30997 0.79804 0.58202 0.0
C1053 C 0.33305 0.79731 0.59803 0.0
C1054 C 0.31293 0.75021 0.57587 0.0
C1055 C 0.34484 0.77235 0.60352 0.0
C1056 C 0.3033 0.70092 0.57486 0.0
C1057 C 0.28672 0.70647 0.52202 0.0
N1058 N 0.33463 0.74962 0.59241 0.0
N1059 N 0.29604 0.72783 0.53597 0.0
H1060 H 0.08184 0.55997 0.29623 0.0
H1061 H 0.93614 0.54324 0.35743 0.0
H1062 H 0.04516 0.48345 0.31307 0.0
H1063 H 0.97425 0.61988 0.34444 0.0
H1064 H 0.97846 0.52103 0.3477 0.0
H1065 H 0.04557 0.5822 0.32028 0.0
C1066 C 0.06632 0.54783 0.30533 0.0
C1067 C 0.06618 0.51989 0.30231 0.0
C1068 C 0.97767 0.54272 0.34726 0.0
C1069 C 0.02456 0.54514 0.32959 0.0
C1070 C 0.95348 0.55542 0.35273 0.0
C1071 C 0.95153 0.58344 0.35118 0.0
C1072 C 4e-05 0.55812 0.33994 0.0
C1073 C 0.97476 0.59822 0.34551 0.0
C1074 C 0.04562 0.56052 0.31905 0.0
C1075 C 0.04581 0.50508 0.31469 0.0
N1076 N -0.00202 0.58534 0.3397 0.0
N1077 N 0.02557 0.51793 0.32748 0.0
H1078 H 0.40406 0.42257 0.7927 0.0
H1079 H 0.50953 0.37062 0.86546 0.0
H1080 H 0.43791 0.50049 0.80918 0.0
H1081 H 0.54634 0.44769 0.85137 0.0
H1082 H 0.46651 0.38923 0.85208 0.0
H1083 H 0.43919 0.4021 0.81943 0.0
C1084 C 0.41863 0.4354 0.80247 0.0
C1085 C 0.41828 0.46321 0.79853 0.0
C1086 C 0.48397 0.40206 0.8516 0.0
C1087 C 0.45846 0.44002 0.82974 0.0
C1088 C 0.50855 0.39148 0.85953 0.0
C1089 C 0.53171 0.40743 0.85884 0.0
C1090 C 0.48264 0.42869 0.84254 0.0
C1091 C 0.52912 0.4345 0.85173 0.0
C1092 C 0.43865 0.42371 0.81802 0.0
C1093 C 0.4376 0.47892 0.81158 0.0
N1094 N 0.50508 0.44417 0.84353 0.0
N1095 N 0.45714 0.46706 0.82631 0.0
H1096 H 0.93724 0.81536 0.65762 0.0
H1097 H 0.89248 0.79258 0.80892 0.0
H1098 H 0.93522 0.73789 0.69603 0.0
H1099 H 0.89382 0.86991 0.77003 0.0
H1100 H 0.90164 0.77132 0.76585 0.0
H1101 H 0.91458 0.83468 0.6964 0.0
C1102 C 0.93167 0.80236 0.67408 0.0
C1103 C 0.93843 0.7751 0.67386 0.0
C1104 C 0.89968 0.79293 0.76669 0.0
C1105 C 0.91284 0.79706 0.71836 0.0
C1106 C 0.89451 0.80509 0.7913 0.0
C1107 C 0.89291 0.83312 0.79317 0.0
C1108 C 0.90339 0.8089 0.74384 0.0
C1109 C 0.89529 0.84827 0.76961 0.0
C1110 C 0.91877 0.81339 0.69623 0.0
C1111 C 0.93058 0.75908 0.69555 0.0
N1112 N 0.90073 0.83598 0.74596 0.0
N1113 N 0.9185 0.77039 0.71713 0.0
H1114 H 0.00141 0.18282 0.44095 0.0
H1115 H 0.86752 0.13816 0.51522 0.0
H1116 H 0.92233 0.19063 0.40682 0.0
H1117 H 0.94598 0.13744 0.5518 0.0
H1118 H 0.88818 0.14877 0.47221 0.0
H1119 H 0.98235 0.15749 0.4782 0.0
C1120 C 0.98007 0.17885 0.44112 0.0
C1121 C 0.96332 0.18918 0.42108 0.0
C1122 C 0.90089 0.14601 0.4896 0.0
C1123 C 0.94138 0.16049 0.46365 0.0
C1124 C 0.88911 0.13995 0.51417 0.0
C1125 C 0.905 0.1375 0.53727 0.0
C1126 C 0.92873 0.14965 0.48814 0.0
C1127 C 0.9329 0.13965 0.53462 0.0
C1128 C 0.9692 0.16444 0.46239 0.0
C1129 C 0.93589 0.18328 0.42208 0.0
N1130 N 0.94385 0.14593 0.51056 0.0
N1131 N 0.9257 0.1696 0.44326 0.0
H1132 H 0.54886 0.17271 0.16398 0.0
H1133 H 0.60143 0.19438 0.31285 0.0
H1134 H 0.5548 0.25006 0.20237 0.0
H1135 H 0.59583 0.11702 0.27427 0.0
H1136 H 0.59158 0.21583 0.27009 0.0
H1137 H 0.57338 0.15284 0.20135 0.0
C1138 C 0.55568 0.18557 0.18012 0.0
C1139 C 0.54945 0.21295 0.18038 0.0
C1140 C 0.59278 0.19417 0.2709 0.0
C1141 C 0.5772 0.19038 0.22327 0.0
C1142 C 0.59833 0.18189 0.29534 0.0
C1143 C 0.59887 0.15383 0.29725 0.0
C1144 C 0.58756 0.17828 0.24825 0.0
C1145 C 0.59519 0.1387 0.27381 0.0
C1146 C 0.56966 0.17422 0.20146 0.0
C1147 C 0.55896 0.22877 0.20159 0.0
N1148 N 0.58933 0.15112 0.25034 0.0
N1149 N 0.57205 0.21717 0.22241 0.0
H1150 H 0.56617 0.79015 0.90941 0.0
H1151 H 0.54638 0.855 0.05354 0.0
H1152 H 0.48897 0.80827 0.94369 0.0
H1153 H 0.62376 0.84307 0.01686 0.0
H1154 H 0.52502 0.84308 0.01123 0.0
H1155 H 0.58764 0.81463 0.94603 0.0
C1156 C 0.55374 0.79959 0.92447 0.0
C1157 C 0.5258 0.79689 0.9238 0.0
C1158 C 0.54667 0.84332 0.01232 0.0
C1159 C 0.55017 0.82466 0.9658 0.0
C1160 C 0.55889 0.85005 0.03652 0.0
C1161 C 0.58689 0.84954 0.03887 0.0
C1162 C 0.56254 0.83579 0.99037 0.0
C1163 C 0.6021 0.84342 0.01604 0.0
C1164 C 0.56599 0.81356 0.94537 0.0
C1165 C 0.5106 0.80967 0.94364 0.0
N1166 N 0.5897 0.83643 0.99281 0.0
N1167 N 0.52301 0.82272 0.96406 0.0
H1168 H 0.94337 0.1759 0.82812 0.0
H1169 H 0.88461 0.19869 0.68184 0.0
H1170 H 0.92967 0.25404 0.79368 0.0
H1171 H 0.89199 0.12088 0.71906 0.0
H1172 H 0.89562 0.21964 0.72467 0.0
H1173 H 0.91917 0.15565 0.79065 0.0
C1174 C 0.93496 0.1888 0.81282 0.0
C1175 C 0.93882 0.21662 0.81373 0.0
C1176 C 0.89454 0.19798 0.72354 0.0
C1177 C 0.91139 0.19366 0.77074 0.0
C1178 C 0.88831 0.186 0.69907 0.0
C1179 C 0.8879 0.15797 0.69674 0.0
C1180 C 0.9006 0.18182 0.74577 0.0
C1181 C 0.89246 0.14256 0.71982 0.0
C1182 C 0.92114 0.17726 0.79144 0.0
C1183 C 0.92734 0.23246 0.79357 0.0
N1184 N 0.89897 0.15469 0.74329 0.0
N1185 N 0.91444 0.22072 0.77267 0.0
H1186 H 0.56612 0.19509 0.58576 0.0
H1187 H 0.54038 0.13009 0.44238 0.0
H1188 H 0.48773 0.18448 0.55075 0.0
H1189 H 0.61881 0.13913 0.47792 0.0
H1190 H 0.52028 0.14334 0.48488 0.0
H1191 H 0.58527 0.16833 0.54952 0.0
C1192 C 0.55291 0.18686 0.5706 0.0
C1193 C 0.52539 0.19231 0.57096 0.0
C1194 C 0.54188 0.14212 0.48349 0.0
C1195 C 0.5471 0.16187 0.52944 0.0
C1196 C 0.55339 0.13457 0.45921 0.0
C1197 C 0.58134 0.13406 0.45643 0.0
C1198 C 0.55845 0.14939 0.50508 0.0
C1199 C 0.59717 0.13964 0.47903 0.0
C1200 C 0.56383 0.17157 0.54993 0.0
C1201 C 0.50912 0.18098 0.55102 0.0
N1202 N 0.5855 0.14746 0.50231 0.0
N1203 N 0.52028 0.16656 0.53085 0.0
H1204 H 0.5479 0.82365 0.32922 0.0
H1205 H 0.61169 0.79633 0.18573 0.0
H1206 H 0.5607 0.74469 0.29624 0.0
H1207 H 0.60022 0.87542 0.21908 0.0
H1208 H 0.59957 0.77693 0.22888 0.0
H1209 H 0.57324 0.8428 0.29199 0.0
C1210 C 0.55632 0.81033 0.31429 0.0
C1211 C 0.5519 0.78261 0.31553 0.0
C1212 C 0.59999 0.79854 0.22686 0.0
C1213 C 0.58071 0.80431 0.27289 0.0
C1214 C 0.6069 0.80964 0.2022 0.0
C1215 C 0.60644 0.83753 0.19864 0.0
C1216 C 0.5924 0.81544 0.24804 0.0
C1217 C 0.60048 0.85379 0.22081 0.0
C1218 C 0.57079 0.82126 0.29306 0.0
C1219 C 0.56342 0.76622 0.29584 0.0
N1220 N 0.59332 0.84249 0.24448 0.0
N1221 N 0.57704 0.77735 0.27513 0.0
H1222 H 0.00849 0.81373 0.04894 0.0
H1223 H 0.87247 0.85145 0.97422 0.0
H1224 H 0.92979 0.79806 0.08102 0.0
H1225 H 0.95095 0.85802 0.93848 0.0
H1226 H 0.89349 0.8407 0.01708 0.0
H1227 H 0.98802 0.8388 0.01223 0.0
C1228 C 0.98691 0.81589 0.04844 0.0
C1229 C 0.97074 0.80347 0.06774 0.0
C1230 C 0.9061 0.84479 -8e-05 0.0
C1231 C 0.94722 0.8319 0.02579 0.0
C1232 C 0.89413 0.85094 0.97543 0.0
C1233 C 0.90997 0.85507 0.95259 0.0
C1234 C 0.93409 0.84275 0.00154 0.0
C1235 C 0.93793 0.8545 0.95545 0.0
C1236 C 0.97523 0.83016 0.02747 0.0
C1237 C 0.94294 0.80707 0.06632 0.0
N1238 N 0.94909 0.84811 0.97941 0.0
N1239 N 0.93201 0.82071 0.04548 0.0
H1240 H 0.69917 0.92985 0.73938 0.0
H1241 H 0.77343 0.88665 0.87412 0.0
H1242 H 0.66669 0.94128 0.81871 0.0
H1243 H 0.81002 0.88436 0.79572 0.0
H1244 H 0.73072 0.89781 0.8532 0.0
H1245 H 0.73626 0.90448 0.75884 0.0
C1246 C 0.69967 0.9267 0.76086 0.0
C1247 C 0.68014 0.938 0.77755 0.0
C1248 C 0.74804 0.89459 0.84056 0.0
C1249 C 0.72242 0.90919 0.79989 0.0
C1250 C 0.77245 0.88821 0.85249 0.0
C1251 C 0.79547 0.88516 0.83669 0.0
C1252 C 0.74666 0.89799 0.81266 0.0
C1253 C 0.79288 0.88701 0.80873 0.0
C1254 C 0.72084 0.91226 0.77195 0.0
C1255 C 0.68157 0.93318 0.80519 0.0
N1256 N 0.76897 0.89365 0.79762 0.0
N1257 N 0.70255 0.91936 0.81554 0.0
H1258 H 0.79902 0.90846 0.57121 0.0
H1259 H 0.85952 0.05325 0.54384 0.0
H1260 H 0.81232 0.941 0.49219 0.0
H1261 H 0.84965 0.01958 0.62296 0.0
H1262 H 0.84865 0.0097 0.52447 0.0
H1263 H 0.82381 0.94613 0.5904 0.0
C1264 C 0.80749 0.92336 0.55789 0.0
C1265 C 0.80329 0.92191 0.53014 0.0
C1266 C 0.84915 0.01174 0.54608 0.0
C1267 C 0.83141 0.96508 0.55189 0.0
C1268 C 0.8553 0.03663 0.55716 0.0
C1269 C 0.85495 0.04019 0.58506 0.0
C1270 C 0.84238 0.99031 0.563 0.0
C1271 C 0.84979 0.01784 0.60133 0.0
C1272 C 0.82163 0.94485 0.56884 0.0
C1273 C 0.81485 0.94156 0.51375 0.0
N1274 N 0.84332 0.99393 0.59005 0.0
N1275 N 0.8281 0.96255 0.5249 0.0
H1276 H 0.79351 0.0747 0.23951 0.0
H1277 H 0.7183 0.09906 0.37836 0.0
H1278 H 0.82691 0.05491 0.31684 0.0
H1279 H 0.6815 0.10886 0.30056 0.0
H1280 H 0.76135 0.0916 0.35642 0.0
H1281 H 0.75573 0.09621 0.26192 0.0
C1282 C 0.79307 0.07524 0.26121 0.0
C1283 C 0.81307 0.06266 0.27639 0.0
C1284 C 0.74389 0.09564 0.34418 0.0
C1285 C 0.76994 0.08698 0.3021 0.0
C1286 C 0.7193 0.0999 0.35668 0.0
C1287 C 0.69617 0.10403 0.34124 0.0
C1288 C 0.74531 0.09554 0.31607 0.0
C1289 C 0.69873 0.10524 0.31325 0.0
C1290 C 0.77149 0.08746 0.27399 0.0
C1291 C 0.81169 0.0641 0.30442 0.0
N1292 N 0.72281 0.10073 0.30155 0.0
N1293 N 0.79027 0.07575 0.3164 0.0
H1294 H 0.67684 0.04442 0.98019 0.0
H1295 H 0.63635 0.97333 0.11729 0.0
H1296 H 0.68699 0.08027 0.05832 0.0
H1297 H 0.63411 0.93441 0.03992 0.0
H1298 H 0.64611 0.01578 0.0951 0.0
H1299 H 0.65243 0.00734 0.00086 0.0
C1300 C 0.67359 0.04466 0.00165 0.0
C1301 C 0.68429 0.06515 0.01766 0.0
C1302 C 0.64319 -0.002 0.08296 0.0
C1303 C 0.65661 0.02285 0.04142 0.0
C1304 C 0.63761 0.97374 0.09562 0.0
C1305 C 0.635 0.95016 0.08047 0.0
C1306 C 0.64621 -0.00134 0.05499 0.0
C1307 C 0.63646 0.952 0.05243 0.0
C1308 C 0.6597 0.0235 0.01344 0.0
C1309 C 0.67934 0.06465 0.04531 0.0
N1310 N 0.64231 0.97578 0.04062 0.0
N1311 N 0.66612 0.04363 0.05638 0.0
H1312 H 0.66253 0.04268 0.6722 0.0
H1313 H 0.80595 0.10898 0.69336 0.0
H1314 H 0.69805 0.0576 0.74973 0.0
H1315 H 0.77019 0.09519 0.61566 0.0
H1316 H 0.76368 0.0967 0.71442 0.0
H1317 H 0.69867 0.06819 0.65131 0.0
C1318 C 0.67778 0.05163 0.68484 0.0
C1319 C 0.67759 0.04773 0.71267 0.0
C1320 C 0.76497 0.09662 0.69276 0.0
C1321 C 0.71902 0.07671 0.68895 0.0
C1322 C 0.78913 0.10359 0.68071 0.0
C1323 C 0.79176 0.10258 0.65272 0.0
C1324 C 0.74334 0.08839 0.67673 0.0
C1325 C 0.76917 0.09591 0.63733 0.0
C1326 C 0.69839 0.06618 0.67292 0.0
C1327 C 0.69764 0.05991 0.72815 0.0
N1328 N 0.74599 0.0887 0.64956 0.0
N1329 N 0.71776 0.07359 0.71604 0.0
H1330 H 0.68448 0.94103 0.50462 0.0
H1331 H 0.6409 0.01677 0.37065 0.0
H1332 H 0.69972 0.91088 0.42497 0.0
H1333 H 0.63402 0.05066 0.45007 0.0
H1334 H 0.65496 0.97437 0.39055 0.0
H1335 H 0.65859 0.97773 0.48523 0.0
C1336 C 0.68212 0.94199 0.48305 0.0
C1337 C 0.69452 0.92315 0.46632 0.0
C1338 C 0.65012 0.99102 0.40362 0.0
C1339 C 0.66509 0.96508 0.44402 0.0
C1340 C 0.64204 0.01523 0.39228 0.0
C1341 C 0.63675 0.03746 0.40871 0.0
C1342 C 0.65289 0.98903 0.43155 0.0
C1343 C 0.63831 0.03418 0.43661 0.0
C1344 C 0.66737 0.96295 0.472 0.0
C1345 C 0.69068 0.92518 0.43855 0.0
N1346 N 0.64651 0.0105 0.44714 0.0
N1347 N 0.6765 0.94597 0.42823 0.0
H1348 H 0.82595 0.96536 0.16459 0.0
H1349 H 0.68841 0.88942 0.19133 0.0
H1350 H 0.79666 0.9456 0.24351 0.0
H1351 H 0.7211 0.90235 0.11227 0.0
H1352 H 0.73018 0.90567 0.2108 0.0
H1353 H 0.79003 0.93839 0.14498 0.0
C1354 C 0.81209 0.95512 0.17778 0.0
C1355 C 0.81403 0.95793 0.20567 0.0
C1356 C 0.72835 0.90469 0.18919 0.0
C1357 C 0.77288 0.92723 0.18346 0.0
C1358 C 0.70447 0.89544 0.17805 0.0
C1359 C 0.70109 0.89495 0.15013 0.0
C1360 C 0.74892 0.91374 0.1723 0.0
C1361 C 0.72272 0.90264 0.13391 0.0
C1362 C 0.79162 0.93971 0.16659 0.0
C1363 C 0.79572 0.94412 0.22187 0.0
N1364 N 0.7456 0.91207 0.14525 0.0
N1365 N 0.77571 0.92959 0.21051 0.0
H1366 H 0.8049 0.04879 -0.00385 0.0
H1367 H 0.85266 0.97081 0.86503 0.0
H1368 H 0.79143 0.07693 0.91546 0.0
H1369 H 0.85612 0.93785 0.94502 0.0
H1370 H 0.83852 0.01364 0.88387 0.0
H1371 H 0.83185 0.01205 0.97832 0.0
C1372 C 0.8079 0.04741 0.97469 0.0
C1373 C 0.79564 0.06564 0.95719 0.0
C1374 C 0.84264 -0.00289 0.8973 0.0
C1375 C 0.82627 0.02368 0.93669 0.0
C1376 C 0.85074 0.97263 0.88658 0.0
C1377 C 0.85506 0.95054 0.90344 0.0
C1378 C 0.83883 -0.0005 0.92507 0.0
C1379 C 0.85259 0.95421 0.93122 0.0
C1380 C 0.82325 0.02643 0.96453 0.0
C1381 C 0.80032 0.06309 0.92961 0.0
N1382 N 0.84434 0.97815 0.94115 0.0
N1383 N 0.81506 0.04229 0.92016 0.0
H1384 H 0.74459 0.69204 0.92997 0.0
H1385 H 0.88023 0.76864 0.89479 0.0
H1386 H 0.82342 0.66009 0.94531 0.0
H1387 H 0.8014 0.80346 0.88731 0.0
H1388 H 0.85959 0.72547 0.90503 0.0
H1389 H 0.76494 0.72939 0.90577 0.0
C1390 C 0.76617 0.69269 0.92789 0.0
C1391 C 0.78241 0.67325 0.94 0.0
C1392 C 0.84682 0.74251 0.90089 0.0
C1393 C 0.8058 0.71594 0.91263 0.0
C1394 C 0.85859 0.76717 0.89506 0.0
C1395 C 0.84251 0.78982 0.89074 0.0
C1396 C 0.81882 0.74051 0.90242 0.0
C1397 C 0.81458 0.78664 0.89099 0.0
C1398 C 0.77778 0.71403 0.91413 0.0
C1399 C 0.81021 0.67488 0.93653 0.0
N1400 N 0.80363 0.76251 0.89704 0.0
N1401 N 0.82108 0.69609 0.92343 0.0
H1402 H 0.22418 0.8003 0.05475 0.0
H1403 H 0.35805 0.73347 0.1105 0.0
H1404 H 0.30225 0.83724 0.05041 0.0
H1405 H 0.28153 0.6931 0.10719 0.0
H1406 H 0.33621 0.77497 0.09682 0.0
H1407 H 0.24322 0.76437 0.08202 0.0
C1408 C 0.24527 0.80101 0.05983 0.0
C1409 C 0.26179 0.8215 0.05002 0.0
C1410 C 0.32415 0.7571 0.09937 0.0
C1411 C 0.28368 0.78051 0.08103 0.0
C1412 C 0.3366 0.73338 0.10721 0.0
C1413 C 0.32169 0.70963 0.10944 0.0
C1414 C 0.29662 0.75705 0.09367 0.0
C1415 C 0.29391 0.71083 0.10528 0.0
C1416 C 0.25613 0.7805 0.07537 0.0
C1417 C 0.2889 0.82161 0.05734 0.0
N1418 N 0.28232 0.73408 0.09726 0.0
N1419 N 0.29908 0.80123 0.07218 0.0
H1420 H 0.94235 0.48529 0.81226 0.0
H1421 H 0.01664 0.62135 0.85165 0.0
H1422 H 0.90709 0.56386 0.80446 0.0
H1423 H 0.05524 0.54392 0.84965 0.0
H1424 H 0.97377 0.59956 0.84298 0.0
H1425 H 0.98095 0.50545 0.83474 0.0
C1426 C 0.94256 0.50674 0.81566 0.0
C1427 C 0.92175 0.52303 0.80616 0.0
C1428 C 0.99159 0.58732 0.84467 0.0
C1429 C 0.96581 0.54618 0.83161 0.0
C1430 C 0.0161 0.59974 0.84961 0.0
C1431 C 0.03967 0.58448 0.85084 0.0
C1432 C 0.99063 0.55944 0.84092 0.0
C1433 C 0.03765 0.55652 0.84843 0.0
C1434 C 0.96461 0.51824 0.82842 0.0
C1435 C 0.9229 0.55065 0.81122 0.0
N1436 N 0.01358 0.54492 0.84329 0.0
N1437 N 0.94474 0.56142 0.82335 0.0
H1438 H 0.25213 0.2017 0.55885 0.0
H1439 H 0.1144 0.27319 0.59696 0.0
H1440 H 0.17429 0.16588 0.547 0.0
H1441 H 0.19155 0.31239 0.59943 0.0
H1442 H 0.13669 0.23099 0.5864 0.0
H1443 H 0.23087 0.23944 0.58164 0.0
C1444 C 0.23059 0.20162 0.56138 0.0
C1445 C 0.21487 0.18087 0.55074 0.0
C1446 C 0.14874 0.24878 0.58947 0.0
C1447 C 0.19045 0.22397 0.57656 0.0
C1448 C 0.13604 0.2729 0.5955 0.0
C1449 C 0.1511 0.29647 0.5986 0.0
C1450 C 0.17669 0.24823 0.58653 0.0
C1451 C 0.1791 0.2948 0.5968 0.0
C1452 C 0.21846 0.22318 0.57432 0.0
C1453 C 0.18709 0.18165 0.55468 0.0
N1454 N 0.19097 0.27114 0.59063 0.0
N1455 N 0.17571 0.20302 0.56705 0.0
H1456 H 0.0488 0.00657 0.81254 0.0
H1457 H 0.97729 0.86865 0.85057 0.0
H1458 H 0.08277 0.92856 0.79708 0.0
H1459 H 0.93944 0.94628 0.85617 0.0
H1460 H 0.01945 0.89072 0.83927 0.0
H1461 H 0.01217 0.98517 0.83692 0.0
C1462 C 0.04872 0.98495 0.81459 0.0
C1463 C 0.06857 0.96924 0.80247 0.0
C1464 C 0.00197 0.90292 0.84323 0.0
C1465 C 0.02675 0.94466 0.83012 0.0
C1466 C 0.97789 0.89034 0.8497 0.0
C1467 C 0.95468 0.90563 0.85379 0.0
C1468 C 0.00281 0.93095 0.84087 0.0
C1469 C 0.95673 0.93367 0.8527 0.0
C1470 C 0.0278 0.97275 0.82845 0.0
C1471 C 0.06766 0.94136 0.80588 0.0
N1472 N 0.98031 0.94541 0.84607 0.0
N1473 N 0.04689 0.92991 0.81916 0.0
H1474 H 0.74704 0.29824 0.42524 0.0
H1475 H 0.61081 0.21894 0.39861 0.0
H1476 H 0.66874 0.32913 0.44476 0.0
H1477 H 0.68967 0.18468 0.38922 0.0
H1478 H 0.63137 0.26259 0.40698 0.0
H1479 H 0.7259 0.26002 0.40306 0.0
C1480 C 0.72538 0.29717 0.4245 0.0
C1481 C 0.70958 0.31657 0.43721 0.0
C1482 C 0.64414 0.24556 0.40285 0.0
C1483 C 0.68531 0.27289 0.41215 0.0
C1484 C 0.63243 0.22062 0.39809 0.0
C1485 C 0.64858 0.19803 0.39376 0.0
C1486 C 0.67216 0.24788 0.40324 0.0
C1487 C 0.67646 0.20147 0.39297 0.0
C1488 C 0.71333 0.27533 0.4119 0.0
C1489 C 0.68164 0.31438 0.43547 0.0
N1490 N 0.68737 0.22588 0.39794 0.0
N1491 N 0.67036 0.2927 0.42347 0.0
H1492 H 0.9353 0.49966 0.68563 0.0
H1493 H 0.01373 0.36734 0.64237 0.0
H1494 H 0.90823 0.41942 0.70337 0.0
H1495 H 0.04593 0.44746 0.63556 0.0
H1496 H 0.97095 0.38631 0.65635 0.0
H1497 H 0.97173 0.48095 0.65896 0.0
C1498 C 0.93686 0.47809 0.68365 0.0
C1499 C 0.91902 0.46101 0.69702 0.0
C1500 C 0.9873 0.39973 0.65153 0.0
C1501 C 0.96064 0.43951 0.6667 0.0
C1502 C 0.01174 0.38893 0.64351 0.0
C1503 C 0.03361 0.40583 0.63831 0.0
C1504 C 0.98473 0.42761 0.65431 0.0
C1505 C 0.02975 0.43365 0.63982 0.0
C1506 C 0.95766 0.46743 0.66845 0.0
C1507 C 0.92177 0.43326 0.6936 0.0
N1508 N 0.00585 0.44366 0.64797 0.0
N1509 N 0.94242 0.42333 0.67898 0.0
H1510 H 0.54207 0.50361 0.17805 0.0
H1511 H 0.46056 0.63851 0.15151 0.0
H1512 H 0.5708 0.58234 0.19971 0.0
H1513 H 0.42858 0.55897 0.13905 0.0
H1514 H 0.50423 0.61882 0.16137 0.0
H1515 H 0.50377 0.52421 0.15568 0.0
C1516 C 0.54047 0.52526 0.1778 0.0
C1517 C 0.55936 0.54132 0.19105 0.0
C1518 C 0.4877 0.60572 0.15623 0.0
C1519 C 0.51558 0.56498 0.16573 0.0
C1520 C 0.46276 0.61693 0.15059 0.0
C1521 C 0.44076 0.60031 0.14495 0.0
C1522 C 0.49063 0.57773 0.15617 0.0
C1523 C 0.44487 0.57252 0.14375 0.0
C1524 C 0.5186 0.53701 0.16507 0.0
C1525 C 0.55649 0.56925 0.18995 0.0
N1526 N 0.46926 0.56209 0.14958 0.0
N1527 N 0.53479 0.58022 0.17776 0.0
H1528 H 0.55487 0.74706 0.8001 0.0
H1529 H 0.59288 0.61268 0.72204 0.0
H1530 H 0.53455 0.66775 0.82803 0.0
H1531 H 0.60409 0.69237 0.69011 0.0
H1532 H 0.57894 0.63234 0.76463 0.0
H1533 H 0.58033 0.72709 0.76346 0.0
C1534 C 0.55601 0.72542 0.79866 0.0
C1535 C 0.54232 0.70899 0.81686 0.0
C1536 C 0.5847 0.6455 0.74838 0.0
C1537 C 0.57126 0.68603 0.77497 0.0
C1538 C 0.59271 0.6343 0.72406 0.0
C1539 C 0.5992 0.65092 0.70232 0.0
C1540 C 0.58323 0.67348 0.75095 0.0
C1541 C 0.59885 0.67879 0.70619 0.0
C1542 C 0.57052 0.71404 0.77773 0.0
C1543 C 0.54461 0.68111 0.81423 0.0
N1544 N 0.59072 0.68919 0.72995 0.0
N1545 N 0.5586 0.67047 0.79347 0.0
H1546 H 0.48313 0.30646 0.05381 0.0
H1547 H 0.61576 0.35457 0.97931 0.0
H1548 H 0.56264 0.29895 0.087 0.0
H1549 H 0.537 0.35514 0.94336 0.0
H1550 H 0.59562 0.3424 0.02213 0.0
H1551 H 0.50154 0.33249 0.01671 0.0
C1552 C 0.50443 0.31061 0.05345 0.0
C1553 C 0.52149 0.30022 0.07321 0.0
C1554 C 0.58272 0.34546 0.00493 0.0
C1555 C 0.54268 0.32975 0.03083 0.0
C1556 C 0.5942 0.3524 0.98046 0.0
C1557 C 0.57809 0.35531 0.95757 0.0
C1558 C 0.55496 0.34136 0.00651 0.0
C1559 C 0.55025 0.35265 0.96037 0.0
C1560 C 0.51493 0.32543 0.03227 0.0
C1561 C 0.54885 0.30635 0.07196 0.0
N1562 N 0.5396 0.3455 0.98433 0.0
N1563 N 0.55867 0.32047 0.05091 0.0
H1564 H 0.93631 0.31778 0.33299 0.0
H1565 H 0.86571 0.36917 0.2261 0.0
H1566 H 0.92619 0.24025 0.29591 0.0
H1567 H 0.88123 0.2925 0.18905 0.0
H1568 H 0.87809 0.35033 0.26931 0.0
H1569 H 0.90862 0.33756 0.29831 0.0
C1570 C 0.92775 0.30484 0.31777 0.0
C1571 C 0.93381 0.27743 0.31707 0.0
C1572 C 0.87909 0.3376 0.25181 0.0
C1573 C 0.90147 0.29981 0.27729 0.0
C1574 C 0.87171 0.34833 0.22709 0.0
C1575 C 0.87318 0.33261 0.20381 0.0
C1576 C 0.8885 0.31107 0.25312 0.0
C1577 C 0.8803 0.30554 0.20638 0.0
C1578 C 0.91163 0.31613 0.29796 0.0
C1579 C 0.92219 0.26155 0.297 0.0
N1580 N 0.8881 0.29576 0.23052 0.0
N1581 N 0.90687 0.27305 0.27768 0.0
H1582 H 0.00131 0.68106 0.5455 0.0
H1583 H 0.86808 0.63706 0.46935 0.0
H1584 H 0.92171 0.69144 0.57746 0.0
H1585 H 0.94714 0.6342 0.43442 0.0
H1586 H 0.88817 0.64812 0.51257 0.0
H1587 H 0.98253 0.65506 0.50848 0.0
C1588 C 0.9799 0.67754 0.5449 0.0
C1589 C 0.96294 0.68877 0.56425 0.0
C1590 C 0.90113 0.64478 0.49551 0.0
C1591 C 0.94134 0.65927 0.52195 0.0
C1592 C 0.88968 0.63847 0.47081 0.0
C1593 C 0.90593 0.63532 0.44809 0.0
C1594 C 0.92899 0.648 0.49747 0.0
C1595 C 0.93381 0.63696 0.45128 0.0
C1596 C 0.9692 0.66273 0.52377 0.0
C1597 C 0.93543 0.6834 0.56272 0.0
N1598 N 0.94444 0.64354 0.47545 0.0
N1599 N 0.92542 0.6693 0.54169 0.0
H1600 H 0.55584 0.24142 0.69907 0.0
H1601 H 0.59272 0.377 0.77561 0.0
H1602 H 0.5434 0.32048 0.66627 0.0
H1603 H 0.59628 0.29841 0.81174 0.0
H1604 H 0.58291 0.3561 0.73246 0.0
H1605 H 0.57909 0.2615 0.73727 0.0
C1606 C 0.55836 0.26298 0.69973 0.0
C1607 C 0.54737 0.27938 0.67975 0.0
C1608 C 0.58608 0.34343 0.74979 0.0
C1609 C 0.5737 0.30245 0.72336 0.0
C1610 C 0.59168 0.35534 0.77445 0.0
C1611 C 0.5948 0.33945 0.79744 0.0
C1612 C 0.58358 0.31544 0.74812 0.0
C1613 C 0.59358 0.31147 0.79464 0.0
C1614 C 0.57157 0.27443 0.72155 0.0
C1615 C 0.55133 0.30716 0.68145 0.0
N1616 N 0.58778 0.30037 0.77047 0.0
N1617 N 0.56392 0.31786 0.70307 0.0
H1618 H 0.94895 0.2515 0.95123 0.0
H1619 H 0.86986 0.36662 0.02039 0.0
H1620 H 0.94446 0.32724 0.90969 0.0
H1621 H 0.92879 0.32044 0.06368 0.0
H1622 H 0.88887 0.35005 0.97798 0.0
H1623 H 0.93172 0.27312 0.99158 0.0
C1624 C 0.94394 0.27261 0.9505 0.0
C1625 C 0.94806 0.28768 0.92719 0.0
C1626 C 0.89774 0.34396 -0.00315 0.0
C1627 C 0.92838 0.31232 0.9731 0.0
C1628 C 0.88697 0.35329 0.02092 0.0
C1629 C 0.89778 0.34476 0.04546 0.0
C1630 C 0.91881 0.32546 -0.0024 0.0
C1631 C 0.91994 0.32755 0.04519 0.0
C1632 C 0.9344 0.28492 0.97356 0.0
C1633 C 0.94153 0.31504 0.92738 0.0
N1634 N 0.92942 0.31803 0.02159 0.0
N1635 N 0.93174 0.32657 0.95007 0.0
H1636 H 0.95346 0.67389 0.15926 0.0
H1637 H 0.88913 0.69626 0.30334 0.0
H1638 H 0.94062 0.75178 0.19466 0.0
H1639 H 0.89799 0.61852 0.26622 0.0
H1640 H 0.90257 0.71728 0.26136 0.0
H1641 H 0.92796 0.65359 0.19573 0.0
C1642 C 0.945 0.68674 0.17457 0.0
C1643 C 0.94942 0.71449 0.1742 0.0
C1644 C 0.90131 0.69563 0.2623 0.0
C1645 C 0.92044 0.69146 0.21603 0.0
C1646 C 0.89367 0.6836 0.28629 0.0
C1647 C 0.89291 0.65556 0.28844 0.0
C1648 C 0.90842 0.67952 0.24035 0.0
C1649 C 0.89861 0.6402 0.26557 0.0
C1650 C 0.93044 0.67516 0.19538 0.0
C1651 C 0.93786 0.73026 0.19436 0.0
N1652 N 0.90647 0.65238 0.24256 0.0
N1653 N 0.92416 0.71847 0.21467 0.0
H1654 H 0.54759 0.74454 0.45085 0.0
H1655 H 0.62044 0.62579 0.51824 0.0
H1656 H 0.54477 0.67014 0.40663 0.0
H1657 H 0.556 0.6666 0.55895 0.0
H1658 H 0.60459 0.6449 0.47547 0.0
H1659 H 0.56455 0.72023 0.4898 0.0
C1660 C 0.55105 0.72317 0.44916 0.0
C1661 C 0.54471 0.70923 0.42559 0.0
C1662 C 0.59387 0.64921 0.49384 0.0
C1663 C 0.5642 0.68163 0.46985 0.0
C1664 C 0.60282 0.63845 0.5181 0.0
C1665 C 0.58949 0.64471 0.54207 0.0
C1666 C 0.5721 0.66688 0.49397 0.0
C1667 C 0.56679 0.66118 0.54093 0.0
C1668 C 0.5605 0.70938 0.47141 0.0
C1669 C 0.54937 0.68149 0.42456 0.0
N1670 N 0.55911 0.67215 0.51731 0.0
N1671 N 0.55897 0.66844 0.44652 0.0
H1672 H 0.82915 0.54443 0.6792 0.0
H1673 H 0.68316 0.60438 0.69909 0.0
H1674 H 0.79204 0.5557 0.75647 0.0
H1675 H 0.72182 0.5966 0.62207 0.0
H1676 H 0.72527 0.59272 0.72093 0.0
H1677 H 0.79273 0.56961 0.65847 0.0
C1678 C 0.81349 0.55252 0.69184 0.0
C1679 C 0.81332 0.54767 0.71951 0.0
C1680 C 0.72463 0.59384 0.69926 0.0
C1681 C 0.77151 0.57623 0.69596 0.0
C1682 C 0.70057 0.60043 0.68676 0.0
C1683 C 0.69884 0.60093 0.65869 0.0
C1684 C 0.74707 0.5875 0.68358 0.0
C1685 C 0.72213 0.5961 0.64376 0.0
C1686 C 0.7927 0.56689 0.68 0.0
C1687 C 0.79274 0.55878 0.73501 0.0
N1688 N 0.74521 0.58922 0.65639 0.0
N1689 N 0.77243 0.57226 0.72295 0.0
H1690 H 0.69454 0.58197 0.92512 0.0
H1691 H 0.62921 0.4393 0.95327 0.0
H1692 H 0.6867 0.54736 0.00399 0.0
H1693 H 0.63435 0.47516 0.87465 0.0
H1694 H 0.64406 0.48153 0.97297 0.0
H1695 H 0.66669 0.54595 0.90703 0.0
C1696 C 0.6867 0.56693 0.93867 0.0
C1697 C 0.6932 0.56737 0.966 0.0
C1698 C 0.64164 0.48027 0.95143 0.0
C1699 C 0.66153 0.52607 0.94549 0.0
C1700 C 0.63316 0.45614 0.94016 0.0
C1701 C 0.63106 0.45352 0.91222 0.0
C1702 C 0.64824 0.50186 0.93464 0.0
C1703 C 0.63606 0.47613 0.89627 0.0
C1704 C 0.67078 0.54639 0.92835 0.0
C1705 C 0.68236 0.54758 0.98272 0.0
N1706 N 0.64479 0.49925 0.90769 0.0
N1707 N 0.6673 0.52753 0.97214 0.0
H1708 H 0.65382 0.46054 0.16479 0.0
H1709 H 0.75909 0.38719 0.11289 0.0
H1710 H 0.68179 0.43539 0.24268 0.0
H1711 H 0.79116 0.39266 0.19317 0.0
H1712 H 0.71564 0.40137 0.1298 0.0
H1713 H 0.68892 0.43401 0.14401 0.0
C1714 C 0.66705 0.44891 0.17748 0.0
C1715 C 0.66513 0.45035 0.20547 0.0
C1716 C 0.73217 0.39978 0.14372 0.0
C1717 C 0.7052 0.4194 0.18189 0.0
C1718 C 0.75699 0.3914 0.13409 0.0
C1719 C 0.77899 0.38942 0.15152 0.0
C1720 C 0.72947 0.40652 0.17094 0.0
C1721 C 0.77492 0.39442 0.17889 0.0
C1722 C 0.68704 0.4335 0.16559 0.0
C1723 C 0.68274 0.43498 0.221 0.0
N1724 N 0.75072 0.40303 0.18768 0.0
N1725 N 0.70229 0.42042 0.209 0.0
H1726 H 0.79336 0.40989 0.41528 0.0
H1727 H 0.8593 0.55267 0.44071 0.0
H1728 H 0.81022 0.44213 0.49384 0.0
H1729 H 0.84626 0.51907 0.36193 0.0
H1730 H 0.84752 0.50959 0.46045 0.0
H1731 H 0.81873 0.44669 0.39533 0.0
C1732 C 0.80271 0.42454 0.42833 0.0
C1733 C 0.79937 0.42328 0.4562 0.0
C1734 C 0.8475 0.51153 0.43884 0.0
C1735 C 0.82816 0.46546 0.43359 0.0
C1736 C 0.85416 0.53616 0.42755 0.0
C1737 C 0.85321 0.53962 0.39966 0.0
C1738 C 0.83961 0.49027 0.42213 0.0
C1739 C 0.8469 0.51741 0.38356 0.0
C1740 C 0.81719 0.44553 0.41695 0.0
C1741 C 0.81207 0.44257 0.47222 0.0
N1742 N 0.83995 0.49376 0.39506 0.0
N1743 N 0.82563 0.46309 0.46066 0.0
H1744 H 0.79052 0.43083 0.7459 0.0
H1745 H 0.71355 0.39304 0.88079 0.0
H1746 H 0.82272 0.4434 0.82527 0.0
H1747 H 0.67735 0.39085 0.80211 0.0
H1748 H 0.7566 0.40328 0.86015 0.0
H1749 H 0.75208 0.40782 0.76564 0.0
C1750 C 0.78967 0.4284 0.76746 0.0
C1751 C 0.80958 0.43932 0.78404 0.0
C1752 C 0.73928 0.40033 0.84739 0.0
C1753 C 0.76571 0.41325 0.80671 0.0
C1754 C 0.71467 0.39448 0.85916 0.0
C1755 C 0.69169 0.39158 0.84318 0.0
C1756 C 0.74092 0.40329 0.81947 0.0
C1757 C 0.69445 0.39334 0.81524 0.0
C1758 C 0.76772 0.41534 0.77871 0.0
C1759 C 0.80762 0.4355 0.81181 0.0
N1760 N 0.71858 0.39935 0.80428 0.0
N1761 N 0.78589 0.42301 0.82231 0.0
H1762 H 0.81263 0.54615 0.98923 0.0
H1763 H 0.84703 0.46995 0.12511 0.0
H1764 H 0.80116 0.5799 0.06808 0.0
H1765 H 0.85105 0.4336 0.04658 0.0
H1766 H 0.83935 0.51337 0.10406 0.0
H1767 H 0.83593 0.50817 0.00943 0.0
C1768 C 0.81538 0.54575 0.01077 0.0
C1769 C 0.80457 0.56588 0.0271 0.0
C1770 C 0.8422 0.49594 0.09143 0.0
C1771 C 0.83094 0.5225 0.05031 0.0
C1772 C 0.84657 0.47112 0.10343 0.0
C1773 C 0.84906 0.448 0.08759 0.0
C1774 C 0.84026 0.49763 0.06341 0.0
C1775 C 0.84873 0.45081 0.0596 0.0
C1776 C 0.82864 0.52406 0.02229 0.0
C1777 C 0.8089 0.56456 0.05483 0.0
N1778 N 0.84403 0.47514 0.04841 0.0
N1779 N 0.82146 0.543 0.06562 0.0
H1780 H 0.6938 0.56422 0.23404 0.0
H1781 H 0.77039 0.60442 0.36872 0.0
H1782 H 0.66075 0.55488 0.31339 0.0
H1783 H 0.80736 0.60391 0.29048 0.0
H1784 H 0.72737 0.59444 0.34781 0.0
H1785 H 0.73268 0.58686 0.25352 0.0
C1786 C 0.69458 0.56726 0.25553 0.0
C1787 C 0.67427 0.55739 0.2722 0.0
C1788 C 0.74486 0.59674 0.3352 0.0
C1789 C 0.71859 0.58308 0.29458 0.0
C1790 C 0.76944 0.60245 0.34711 0.0
C1791 C 0.79262 0.60449 0.33137 0.0
C1792 C 0.74342 0.59302 0.30734 0.0
C1793 C 0.79008 0.60211 0.30344 0.0
C1794 C 0.71677 0.58013 0.26663 0.0
C1795 C 0.67615 0.56195 0.29987 0.0
N1796 N 0.76596 0.5962 0.29233 0.0
N1797 N 0.69808 0.57426 0.31023 0.0
H1798 H 0.68302 0.44626 0.48544 0.0
H1799 H 0.64125 0.51783 0.6223 0.0
H1800 H 0.69612 0.41219 0.56388 0.0
H1801 H 0.63846 0.55622 0.54474 0.0
H1802 H 0.65336 0.47579 0.60044 0.0
H1803 H 0.65872 0.48335 0.50618 0.0
C1804 C 0.6805 0.44644 0.50701 0.0
C1805 C 0.69187 0.42638 0.52304 0.0
C1806 C 0.64985 0.49336 0.5882 0.0
C1807 C 0.66427 0.4687 0.54685 0.0
C1808 C 0.64292 0.51738 0.60065 0.0
C1809 C 0.63933 0.54071 0.58536 0.0
C1810 C 0.65321 0.49267 0.56027 0.0
C1811 C 0.64146 0.53883 0.55737 0.0
C1812 C 0.66667 0.46761 0.51883 0.0
C1813 C 0.68788 0.42744 0.55083 0.0
N1814 N 0.64853 0.51528 0.54574 0.0
N1815 N 0.67461 0.44842 0.5619 0.0
H1816 H 0.67337 0.83002 0.54661 0.0
H1817 H 0.6195 0.72245 0.61444 0.0
H1818 H 0.7507 0.79495 0.56261 0.0
H1819 H 0.6959 0.68504 0.59904 0.0
H1820 H 0.63892 0.76575 0.60321 0.0
H1821 H 0.65228 0.79396 0.57151 0.0
C1822 C 0.68594 0.81497 0.55591 0.0
C1823 C 0.71377 0.81529 0.55236 0.0
C1824 C 0.65143 0.74812 0.60198 0.0
C1825 C 0.68985 0.774 0.5815 0.0
C1826 C 0.64038 0.72336 0.60868 0.0
C1827 C 0.65591 0.69998 0.60699 0.0
C1828 C 0.6781 0.74943 0.59312 0.0
C1829 C 0.68304 0.70246 0.60015 0.0
C1830 C 0.67389 0.79441 0.57042 0.0
C1831 C 0.72913 0.79532 0.56475 0.0
N1832 N 0.69317 0.72671 0.59313 0.0
N1833 N 0.71692 0.77525 0.57847 0.0
H1834 H 0.196 0.70885 0.49334 0.0
H1835 H 0.1159 0.77733 0.37781 0.0
H1836 H 0.18876 0.66538 0.4188 0.0
H1837 H 0.17819 0.81922 0.42099 0.0
H1838 H 0.13298 0.73466 0.39591 0.0
H1839 H 0.17828 0.74873 0.47126 0.0
C1840 C 0.19027 0.70759 0.47242 0.0
C1841 C 0.19387 0.68389 0.45777 0.0
C1842 C 0.14294 0.75328 0.40104 0.0
C1843 C 0.17356 0.72925 0.43266 0.0
C1844 C 0.13327 0.77749 0.39084 0.0
C1845 C 0.14568 0.80174 0.39798 0.0
C1846 C 0.16451 0.75367 0.41903 0.0
C1847 C 0.16812 0.80098 0.41489 0.0
C1848 C 0.1804 0.73036 0.45986 0.0
C1849 C 0.18632 0.68339 0.43066 0.0
N1850 N 0.17654 0.77734 0.42523 0.0
N1851 N 0.17632 0.70585 0.41887 0.0
H1852 H 0.55094 -0.00032 0.68506 0.0
H1853 H 0.4698 0.86616 0.65048 0.0
H1854 H 0.58066 0.91993 0.70039 0.0
H1855 H 0.4376 0.94613 0.64265 0.0
H1856 H 0.51339 0.88547 0.66155 0.0
H1857 H 0.51236 0.98031 0.66199 0.0
C1858 C 0.5495 0.97809 0.68325 0.0
C1859 C 0.56876 0.96133 0.69493 0.0
C1860 C 0.49682 0.89877 0.65718 0.0
C1861 C 0.52466 0.93905 0.66882 0.0
C1862 C 0.47193 0.88777 0.65087 0.0
C1863 C 0.4499 0.90456 0.64611 0.0
C1864 C 0.49968 0.92673 0.65871 0.0
C1865 C 0.45391 0.93241 0.6466 0.0
C1866 C 0.52746 0.96703 0.67013 0.0
C1867 C 0.56607 0.93352 0.69187 0.0
N1868 N 0.47826 0.94261 0.65305 0.0
N1869 N 0.54422 0.92321 0.67934 0.0
H1870 H 0.30561 0.29736 0.99134 0.0
H1871 H 0.3751 0.22027 0.87525 0.0
H1872 H 0.30259 0.33439 0.91319 0.0
H1873 H 0.31521 0.18185 0.92433 0.0
H1874 H 0.35955 0.2642 0.8917 0.0
H1875 H 0.32202 0.25614 0.97062 0.0
C1876 C 0.30894 0.29699 0.96988 0.0
C1877 C 0.30273 0.3192 0.95387 0.0
C1878 C 0.34975 0.24606 0.8985 0.0
C1879 C 0.32151 0.27236 0.93033 0.0
C1880 C 0.35853 0.22116 0.88923 0.0
C1881 C 0.34632 0.19757 0.89848 0.0
C1882 C 0.32936 0.24703 0.91771 0.0
C1883 C 0.325 0.1996 0.91659 0.0
C1884 C 0.31802 0.27345 0.95814 0.0
C1885 C 0.30713 0.31757 0.92613 0.0
N1886 N 0.31749 0.22394 0.92603 0.0
N1887 N 0.31642 0.29442 0.91511 0.0
H1888 H 0.44279 0.48857 0.6805 0.0
H1889 H 0.5182 0.6227 0.63748 0.0
H1890 H 0.41009 0.56802 0.69036 0.0
H1891 H 0.55411 0.54399 0.6351 0.0
H1892 H 0.47528 0.60213 0.64849 0.0
H1893 H 0.48037 0.50772 0.65568 0.0
C1894 C 0.44336 0.51001 0.67713 0.0
C1895 C 0.42357 0.52682 0.6878 0.0
C1896 C 0.4925 0.58934 0.64528 0.0
C1897 C 0.46645 0.54883 0.65962 0.0
C1898 C 0.51702 0.60107 0.63897 0.0
C1899 C 0.53992 0.58508 0.63592 0.0
C1900 C 0.49088 0.56145 0.64862 0.0
C1901 C 0.53709 0.55714 0.63772 0.0
C1902 C 0.46481 0.52093 0.66299 0.0
C1903 C 0.42513 0.5544 0.68271 0.0
N1904 N 0.51307 0.54623 0.64429 0.0
N1905 N 0.44639 0.5646 0.66922 0.0
H1906 H 0.80888 0.15917 0.04129 0.0
H1907 H 0.78276 0.30506 0.09983 0.0
H1908 H 0.73048 0.19511 0.04646 0.0
H1909 H 0.85978 0.26574 0.10157 0.0
H1910 H 0.76229 0.26313 0.08507 0.0
H1911 H 0.82703 0.19603 0.06795 0.0
C1912 C 0.79545 0.1747 0.0483 0.0
C1913 C 0.76823 0.17433 0.04143 0.0
C1914 C 0.78362 0.26359 0.08898 0.0
C1915 C 0.78882 0.21662 0.07171 0.0
C1916 C 0.79533 0.28755 0.09739 0.0
C1917 C 0.8231 0.28905 0.10147 0.0
C1918 C 0.79983 0.24105 0.08446 0.0
C1919 C 0.83834 0.26562 0.09833 0.0
C1920 C 0.80579 0.19572 0.06354 0.0
C1921 C 0.75164 0.19479 0.05117 0.0
N1922 N 0.82654 0.24268 0.08967 0.0
N1923 N 0.76227 0.21532 0.06556 0.0
H1924 H 0.58765 0.06523 0.80081 0.0
H1925 H 0.44112 0.04104 0.85785 0.0
H1926 H 0.55209 0.98694 0.81046 0.0
H1927 H 0.47866 0.11894 0.85309 0.0
H1928 H 0.48382 0.02032 0.84638 0.0
H1929 H 0.55045 0.08472 0.82587 0.0
C1930 C 0.57218 0.05211 0.80854 0.0
C1931 C 0.57266 0.02453 0.80324 0.0
C1932 C 0.48279 0.04193 0.84813 0.0
C1933 C 0.52999 0.04663 0.83162 0.0
C1934 C 0.45839 0.05378 0.85461 0.0
C1935 C 0.45619 0.08179 0.8559 0.0
C1936 C 0.5051 0.05822 0.8427 0.0
C1937 C 0.47933 0.09728 0.85193 0.0
C1938 C 0.55095 0.06323 0.82283 0.0
C1939 C 0.55229 0.00838 0.81387 0.0
N1940 N 0.50274 0.08529 0.84516 0.0
N1941 N 0.53156 0.01973 0.82725 0.0
H1942 H 0.94095 0.0147 0.30403 0.0
H1943 H 0.01354 0.87781 0.34401 0.0
H1944 H 0.91001 0.9362 0.28467 0.0
H1945 H 0.04956 0.95613 0.35258 0.0
H1946 H 0.97191 0.89911 0.32973 0.0
H1947 H 0.97724 0.99368 0.32927 0.0
C1948 C 0.94166 0.99304 0.30534 0.0
C1949 C 0.92271 0.97712 0.292 0.0
C1950 C 0.98886 0.91162 0.33496 0.0
C1951 C 0.96412 0.95298 0.32069 0.0
C1952 C 0.01263 0.89949 0.34316 0.0
C1953 C 0.03522 0.91521 0.34905 0.0
C1954 C 0.98767 0.93965 0.3327 0.0
C1955 C 0.03278 0.94321 0.34783 0.0
C1956 C 0.96238 0.98106 0.3197 0.0
C1957 C 0.92441 0.94918 0.29446 0.0
N1958 N 0.0095 0.95452 0.33956 0.0
N1959 N 0.94493 0.93797 0.30834 0.0
H1960 H 0.43278 0.23701 0.20321 0.0
H1961 H 0.39035 0.37457 0.27267 0.0
H1962 H 0.4388 0.31445 0.16515 0.0
H1963 H 0.39126 0.29805 0.31315 0.0
H1964 H 0.40003 0.35174 0.23051 0.0
H1965 H 0.40927 0.25789 0.24075 0.0
C1966 C 0.42877 0.25834 0.20257 0.0
C1967 C 0.43808 0.27414 0.18131 0.0
C1968 C 0.39787 0.33993 0.24858 0.0
C1969 C 0.41149 0.29814 0.22416 0.0
C1970 C 0.39236 0.35295 0.27268 0.0
C1971 C 0.39053 0.33826 0.29658 0.0
C1972 C 0.40161 0.31203 0.2484 0.0
C1973 C 0.39296 0.31025 0.29529 0.0
C1974 C 0.41543 0.27026 0.22402 0.0
C1975 C 0.43223 0.30162 0.18135 0.0
N1976 N 0.39867 0.29808 0.27165 0.0
N1977 N 0.41958 0.31282 0.20264 0.0
H1978 H 0.49445 0.68475 0.94977 0.0
H1979 H 0.35774 0.6513 0.02566 0.0
H1980 H 0.416 0.69614 0.91522 0.0
H1981 H 0.4355 0.65079 0.06371 0.0
H1982 H 0.37933 0.66001 0.98269 0.0
H1983 H 0.47367 0.66421 0.98906 0.0
C1984 C 0.47288 0.68255 0.95029 0.0
C1985 C 0.45686 0.69244 0.92944 0.0
C1986 C 0.39167 0.65781 0.00042 0.0
C1987 C 0.433 0.66922 0.97428 0.0
C1988 C 0.37936 0.65286 0.02497 0.0
C1989 C 0.39481 0.65077 0.0484 0.0
C1990 C 0.41961 0.66067 -0.00073 0.0
C1991 C 0.42277 0.65265 0.04623 0.0
C1992 C 0.46103 0.67092 0.97274 0.0
C1993 C 0.42904 0.689 0.93103 0.0
N1994 N 0.43426 0.65771 0.02212 0.0
N1995 N 0.41795 0.6779 0.95323 0.0
H1996 H 0.05709 0.75352 0.68987 0.0
H1997 H 0.0977 0.61807 0.76419 0.0
H1998 H 0.04637 0.67461 0.65595 0.0
H1999 H 0.10058 0.69647 0.80095 0.0
H2000 H 0.08724 0.63913 0.72129 0.0
H2001 H 0.08168 0.73363 0.72725 0.0
C2002 C 0.06029 0.73205 0.69009 0.0
C2003 C 0.04934 0.7156 0.67009 0.0
C2004 C 0.09041 0.65173 0.73871 0.0
C2005 C 0.07715 0.69272 0.7128 0.0
C2006 C 0.09636 0.63972 0.76322 0.0
C2007 C 0.09947 0.6555 0.78632 0.0
C2008 C 0.08754 0.67969 0.7373 0.0
C2009 C 0.09787 0.68347 0.78376 0.0
C2010 C 0.07426 0.72069 0.71145 0.0
C2011 C 0.05422 0.68795 0.67119 0.0
N2012 N 0.09173 0.69466 0.75975 0.0
N2013 N 0.06749 0.67732 0.69241 0.0
H2014 H 0.06204 0.30288 0.40584 0.0
H2015 H 0.03776 0.35799 0.55354 0.0
H2016 H 0.98457 0.30633 0.44393 0.0
H2017 H 0.11541 0.35469 0.51563 0.0
H2018 H 0.01702 0.34595 0.51093 0.0
H2019 H 0.08093 0.32862 0.44303 0.0
C2020 C 0.04895 0.30937 0.42188 0.0
C2021 C 0.02182 0.30215 0.42209 0.0
C2022 C 0.03857 0.34813 0.51185 0.0
C2023 C 0.04326 0.33135 0.46471 0.0
C2024 C 0.05045 0.35497 0.5362 0.0
C2025 C 0.07842 0.3568 0.53829 0.0
C2026 C 0.05479 0.34291 0.48947 0.0
C2027 C 0.0938 0.35311 0.51505 0.0
C2028 C 0.05973 0.32404 0.4431 0.0
C2029 C 0.00568 0.31123 0.44318 0.0
N2030 N 0.0818 0.34598 0.49168 0.0
N2031 N 0.01672 0.32509 0.46384 0.0
H2032 H 0.42736 0.75853 0.30469 0.0
H2033 H 0.38006 0.62587 0.22893 0.0
H2034 H 0.44507 0.67829 0.33164 0.0
H2035 H 0.37404 0.70553 0.19557 0.0
H2036 H 0.39451 0.64535 0.27142 0.0
H2037 H 0.39874 0.73986 0.26955 0.0
C2038 C 0.42493 0.73699 0.30343 0.0
C2039 C 0.4389 0.71987 0.32078 0.0
C2040 C 0.38971 0.65857 0.25489 0.0
C2041 C 0.40634 0.69843 0.28066 0.0
C2042 C 0.38141 0.64748 0.23061 0.0
C2043 C 0.3764 0.66407 0.20845 0.0
C2044 C 0.39303 0.68643 0.25702 0.0
C2045 C 0.37815 0.69194 0.21197 0.0
C2046 C 0.40862 0.72635 0.28336 0.0
C2047 C 0.43489 0.69215 0.31843 0.0
N2048 N 0.38666 0.70223 0.2357 0.0
N2049 N 0.41918 0.68226 0.29851 0.0
H2050 H 0.07524 0.69731 0.07792 0.0
H2051 H 0.04487 0.63596 0.93373 0.0
H2052 H -0.00436 0.68635 0.04588 0.0
H2053 H 0.12438 0.6437 0.9671 0.0
H2054 H 0.02615 0.64856 0.97707 0.0
H2055 H 0.09329 0.67207 0.04005 0.0
C2056 C 0.06155 0.6893 0.06306 0.0
C2057 C 0.03397 0.69419 0.06477 0.0
C2058 C 0.04769 0.64722 0.97499 0.0
C2059 C 0.05442 0.66553 0.02138 0.0
C2060 C 0.0584 0.64005 0.95023 0.0
C2061 C 0.08625 0.63928 0.94663 0.0
C2062 C 0.06494 0.65383 -0.00375 0.0
C2063 C 0.10279 0.6444 0.96884 0.0
C2064 C 0.07184 0.6749 0.04146 0.0
C2065 C 0.01708 0.68323 0.04514 0.0
N2066 N 0.09188 0.65181 0.99262 0.0
N2067 N 0.02761 0.66967 0.02406 0.0
H2068 H 0.06651 0.24591 0.80536 0.0
H2069 H 0.10261 0.29822 0.68268 0.0
H2070 H 0.0328 0.32438 0.8189 0.0
H2071 H 0.09493 0.37619 0.71957 0.0
H2072 H 0.0914 0.27748 0.72521 0.0
H2073 H 0.09231 0.26395 0.76802 0.0
C2074 C 0.06463 0.26698 0.80049 0.0
C2075 C 0.0471 0.28359 0.81482 0.0
C2076 C 0.09293 0.29908 0.72437 0.0
C2077 C 0.07576 0.30418 0.77158 0.0
C2078 C 0.09907 0.31098 0.69989 0.0
C2079 C 0.09931 0.33899 0.69744 0.0
C2080 C 0.08699 0.31534 0.74661 0.0
C2081 C 0.0947 0.35451 0.72046 0.0
C2082 C 0.07914 0.27722 0.77896 0.0
C2083 C 0.04579 0.31082 0.80808 0.0
N2084 N 0.0883 0.34246 0.74397 0.0
N2085 N 0.05972 0.32021 0.78672 0.0
H2086 H 0.50273 0.3122 0.55191 0.0
H2087 H 0.36982 0.35989 0.47729 0.0
H2088 H 0.42296 0.30109 0.58324 0.0
H2089 H 0.44857 0.36143 0.44157 0.0
H2090 H 0.39 0.34724 0.51998 0.0
H2091 H 0.48414 0.33887 0.51531 0.0
C2092 C 0.48133 0.31566 0.55125 0.0
C2093 C 0.46427 0.30411 0.57033 0.0
C2094 C 0.40289 0.35064 0.50287 0.0
C2095 C 0.4429 0.33444 0.52855 0.0
C2096 C 0.39139 0.3579 0.47847 0.0
C2097 C 0.40748 0.36115 0.45565 0.0
C2098 C 0.43065 0.34659 0.50445 0.0
C2099 C 0.43534 0.35868 0.45852 0.0
C2100 C 0.47073 0.33086 0.53036 0.0
C2101 C 0.43676 0.30939 0.56871 0.0
N2102 N 0.44601 0.3512 0.4824 0.0
N2103 N 0.42687 0.32395 0.54797 0.0
H2104 H 0.19257 0.4221 0.24175 0.0
H2105 H 0.27056 0.39034 0.37755 0.0
H2106 H 0.15958 0.43446 0.32073 0.0
H2107 H 0.30655 0.38691 0.29892 0.0
H2108 H 0.22701 0.39768 0.35664 0.0
H2109 H 0.23135 0.40016 0.262 0.0
C2110 C 0.1933 0.41981 0.26334 0.0
C2111 C 0.17311 0.43046 0.27966 0.0
C2112 C 0.2444 0.39507 0.34396 0.0
C2113 C 0.2174 0.40566 0.30291 0.0
C2114 C 0.26929 0.3909 0.35588 0.0
C2115 C 0.29233 0.38858 0.33997 0.0
C2116 C 0.24254 0.39697 0.31594 0.0
C2117 C 0.28939 0.38906 0.31199 0.0
C2118 C 0.21546 0.40735 0.27488 0.0
C2119 C 0.17491 0.4268 0.30746 0.0
N2120 N 0.26498 0.39351 0.30087 0.0
N2121 N 0.19688 0.41498 0.31826 0.0
H2122 H 0.31656 0.45382 0.9886 0.0
H2123 H 0.34496 0.52846 0.12728 0.0
H2124 H 0.30008 0.41963 0.06631 0.0
H2125 H 0.34973 0.56673 0.04978 0.0
H2126 H 0.33746 0.48554 0.10501 0.0
H2127 H 0.33779 0.49217 0.01057 0.0
C2128 C 0.31776 0.45422 0.01028 0.0
C2129 C 0.30622 0.43379 0.02572 0.0
C2130 C 0.3404 0.5033 0.09289 0.0
C2131 C 0.33027 0.47754 0.05091 0.0
C2132 C 0.34468 0.52782 0.10558 0.0
C2133 C 0.34743 0.55132 0.09037 0.0
C2134 C 0.33886 0.50227 0.06481 0.0
C2135 C 0.34725 0.5492 0.06231 0.0
C2136 C 0.32982 0.47612 0.0228 0.0
C2137 C 0.30847 0.43516 0.0537 0.0
N2138 N 0.34273 0.52513 0.05043 0.0
N2139 N 0.31999 0.45685 0.06543 0.0
H2140 H 0.33019 0.55217 0.81305 0.0
H2141 H 0.18328 0.60809 0.78882 0.0
H2142 H 0.29389 0.55997 0.73488 0.0
H2143 H 0.22105 0.60376 0.86665 0.0
H2144 H 0.22605 0.59712 0.76802 0.0
H2145 H 0.29314 0.57761 0.83229 0.0
C2146 C 0.31459 0.55957 0.79989 0.0
C2147 C 0.31481 0.55363 0.77243 0.0
C2148 C 0.22506 0.59888 0.78963 0.0
C2149 C 0.2723 0.58246 0.79427 0.0
C2150 C 0.20062 0.6051 0.80153 0.0
C2151 C 0.19845 0.60627 0.82956 0.0
C2152 C 0.24744 0.59361 0.80587 0.0
C2153 C 0.22169 0.60265 0.84499 0.0
C2154 C 0.29344 0.57409 0.81087 0.0
C2155 C 0.29428 0.56388 0.75623 0.0
N2156 N 0.24514 0.5961 0.83295 0.0
N2157 N 0.27363 0.57749 0.76746 0.0
H2158 H 0.1897 0.58515 0.56887 0.0
H2159 H 0.12407 0.44247 0.5429 0.0
H2160 H 0.17309 0.55334 0.49009 0.0
H2161 H 0.13513 0.47674 0.62169 0.0
H2162 H 0.13587 0.48556 0.52312 0.0
H2163 H 0.16393 0.54849 0.58852 0.0
C2164 C 0.18033 0.57062 0.5557 0.0
C2165 C 0.18384 0.57197 0.52787 0.0
C2166 C 0.13541 0.48376 0.54474 0.0
C2167 C 0.15456 0.52993 0.55014 0.0
C2168 C 0.12871 0.45914 0.55606 0.0
C2169 C 0.12917 0.45585 0.58398 0.0
C2170 C 0.14285 0.50517 0.56147 0.0
C2171 C 0.13489 0.47826 0.60005 0.0
C2172 C 0.1656 0.54971 0.56691 0.0
C2173 C 0.1711 0.55282 0.51169 0.0
N2174 N 0.14191 0.50187 0.58854 0.0
N2175 N 0.15731 0.53236 0.52309 0.0
H2176 H 0.1869 0.55095 0.25382 0.0
H2177 H 0.26045 0.60049 0.12077 0.0
H2178 H 0.16004 0.53144 0.17386 0.0
H2179 H 0.29301 0.60957 0.20055 0.0
H2180 H 0.2193 0.58257 0.14014 0.0
H2181 H 0.22166 0.57954 0.23475 0.0
C2182 C 0.1882 0.55286 0.23223 0.0
C2183 C 0.17083 0.53858 0.21534 0.0
C2184 C 0.23536 0.58874 0.1534 0.0
C2185 C 0.21053 0.57118 0.19341 0.0
C2186 C 0.25884 0.59906 0.14238 0.0
C2187 C 0.2804 0.6061 0.15906 0.0
C2188 C 0.23342 0.58552 0.18128 0.0
C2189 C 0.27706 0.604 0.1869 0.0
C2190 C 0.20804 0.56918 0.22136 0.0
C2191 C 0.17323 0.54194 0.18755 0.0
N2192 N 0.25412 0.59365 0.19712 0.0
N2193 N 0.19291 0.55775 0.17742 0.0
H2194 H 0.17811 0.43506 0.99209 0.0
H2195 H 0.13586 0.55639 0.94088 0.0
H2196 H 0.21705 0.42635 0.9154 0.0
H2197 H 0.14789 0.52149 0.86257 0.0
H2198 H 0.15041 0.51464 0.96124 0.0
H2199 H 0.15089 0.47119 0.97362 0.0
C2200 C 0.18086 0.44073 0.97132 0.0
C2201 C 0.2002 0.4281 0.95536 0.0
C2202 C 0.14915 0.51571 0.93963 0.0
C2203 C 0.1698 0.46998 0.93433 0.0
C2204 C 0.1411 0.53975 0.92796 0.0
C2205 C 0.14093 0.54254 0.89998 0.0
C2206 C 0.15713 0.49428 0.92318 0.0
C2207 C 0.14785 0.52028 0.88423 0.0
C2208 C 0.16551 0.46157 0.96085 0.0
C2209 C 0.20261 0.43585 0.92847 0.0
N2210 N 0.15608 0.49721 0.89607 0.0
N2211 N 0.18775 0.4565 0.91885 0.0
H2212 H 0.2928 0.4351 0.74769 0.0
H2213 H 0.21511 0.39851 0.61264 0.0
H2214 H 0.32444 0.44922 0.66846 0.0
H2215 H 0.18082 0.39166 0.6918 0.0
H2216 H 0.25819 0.4097 0.63295 0.0
H2217 H 0.25476 0.41162 0.72771 0.0
C2218 C 0.2919 0.43295 0.72609 0.0
C2219 C 0.31155 0.44441 0.70964 0.0
C2220 C 0.24129 0.40552 0.64587 0.0
C2221 C 0.26807 0.4178 0.68668 0.0
C2222 C 0.21668 0.39912 0.63429 0.0
C2223 C 0.1942 0.39463 0.65054 0.0
C2224 C 0.24342 0.40743 0.67387 0.0
C2225 C 0.1975 0.39539 0.67848 0.0
C2226 C 0.27017 0.41959 0.7147 0.0
C2227 C 0.30954 0.44089 0.68183 0.0
N2228 N 0.2216 0.40195 0.68925 0.0
N2229 N 0.28799 0.42813 0.67118 0.0
H2230 H 0.28475 0.58326 0.41881 0.0
H2231 H 0.35899 0.44521 0.44703 0.0
H2232 H 0.30656 0.55552 0.4978 0.0
H2233 H 0.34348 0.47569 0.3675 0.0
H2234 H 0.34482 0.48807 0.46571 0.0
H2235 H 0.31091 0.54674 0.3993 0.0
C2236 C 0.29532 0.56966 0.43202 0.0
C2237 C 0.29323 0.57213 0.45993 0.0
C2238 C 0.34478 0.48551 0.44415 0.0
C2239 C 0.32297 0.5303 0.43785 0.0
C2240 C 0.35283 0.46101 0.43347 0.0
C2241 C 0.35195 0.4567 0.40569 0.0
C2242 C 0.33554 0.50577 0.42695 0.0
C2243 C 0.34419 0.47802 0.38907 0.0
C2244 C 0.31025 0.54884 0.42089 0.0
C2245 C 0.30743 0.55413 0.47616 0.0
N2246 N 0.33592 0.50153 0.39999 0.0
N2247 N 0.32146 0.53378 0.46488 0.0
H2248 H 0.32417 0.16516 0.45223 0.0
H2249 H 0.29979 0.30864 0.38745 0.0
H2250 H 0.24605 0.1972 0.43373 0.0
H2251 H 0.37831 0.27575 0.40277 0.0
H2252 H 0.28005 0.26534 0.39839 0.0
H2253 H 0.34464 0.20259 0.4282 0.0
C2254 C 0.31134 0.17989 0.44278 0.0
C2255 C 0.28342 0.17838 0.44528 0.0
C2256 C 0.30162 0.26749 0.39912 0.0
C2257 C 0.30661 0.22126 0.41804 0.0
C2258 C 0.3129 0.29225 0.39295 0.0
C2259 C 0.3407 0.29595 0.39472 0.0
C2260 C 0.31822 0.24633 0.40734 0.0
C2261 C 0.35675 0.27388 0.40147 0.0
C2262 C 0.32301 0.20125 0.42909 0.0
C2263 C 0.26768 0.19782 0.43252 0.0
N2264 N 0.34523 0.25008 0.4079 0.0
N2265 N 0.27952 0.21866 0.41972 0.0
H2266 H 0.81761 0.33096 0.54045 0.0
H2267 H 0.79413 0.185 0.60022 0.0
H2268 H 0.73951 0.29545 0.55122 0.0
H2269 H 0.87191 0.22237 0.59361 0.0
H2270 H 0.77333 0.22736 0.58759 0.0
H2271 H 0.83743 0.29365 0.56512 0.0
C2272 C 0.80461 0.31544 0.54829 0.0
C2273 C 0.77695 0.31605 0.54353 0.0
C2274 C 0.79493 0.22638 0.58917 0.0
C2275 C 0.79944 0.27324 0.57152 0.0
C2276 C 0.80684 0.20217 0.59634 0.0
C2277 C 0.83483 0.2 0.5975 0.0
C2278 C 0.81114 0.24853 0.58295 0.0
C2279 C 0.85026 0.22302 0.59263 0.0
C2280 C 0.81592 0.29415 0.56237 0.0
C2281 C 0.76098 0.2956 0.55428 0.0
N2282 N 0.83821 0.24624 0.58524 0.0
N2283 N 0.77251 0.27482 0.56751 0.0
H2284 H 0.44333 0.98325 0.30699 0.0
H2285 H 0.51474 0.11903 0.35305 0.0
H2286 H 0.41166 0.06224 0.29158 0.0
H2287 H 0.55202 0.04102 0.35705 0.0
H2288 H 0.47318 0.09777 0.33846 0.0
H2289 H 0.47961 0.00347 0.33304 0.0
C2290 C 0.44388 0.00484 0.30933 0.0
C2291 C 0.42472 0.02116 0.29687 0.0
C2292 C 0.49039 0.08529 0.34278 0.0
C2293 C 0.46607 0.04437 0.32653 0.0
C2294 C 0.51413 0.0974 0.35117 0.0
C2295 C 0.53705 0.08182 0.3558 0.0
C2296 C 0.48957 0.05741 0.33905 0.0
C2297 C 0.53496 0.05386 0.3533 0.0
C2298 C 0.46458 0.01636 0.32416 0.0
C2299 C 0.42622 0.04897 0.30066 0.0
N2300 N 0.5117 0.04257 0.34482 0.0
N2301 N 0.44671 0.05974 0.31499 0.0
H2302 H 0.67935 0.65903 0.05014 0.0
H2303 H 0.70056 0.80847 0.10166 0.0
H2304 H 0.75644 0.69801 0.05436 0.0
H2305 H 0.6239 0.76829 0.09999 0.0
H2306 H 0.7223 0.76613 0.09059 0.0
H2307 H 0.65968 0.69654 0.0746 0.0
C2308 C 0.69219 0.67536 0.05653 0.0
C2309 C 0.71945 0.67567 0.04992 0.0
C2310 C 0.70075 0.76651 0.09293 0.0
C2311 C 0.6971 0.71872 0.07764 0.0
C2312 C 0.6883 0.7907 0.09921 0.0
C2313 C 0.66031 0.79204 0.10122 0.0
C2314 C 0.68507 0.74355 0.08848 0.0
C2315 C 0.64551 0.76829 0.09825 0.0
C2316 C 0.68096 0.69676 0.07049 0.0
C2317 C 0.73525 0.69715 0.05885 0.0
N2318 N 0.65805 0.74509 0.09168 0.0
N2319 N 0.72376 0.71802 0.07197 0.0
H2320 H 0.54419 0.51189 0.30748 0.0
H2321 H 0.4744 0.37533 0.35295 0.0
H2322 H 0.57729 0.43331 0.29303 0.0
H2323 H 0.43599 0.45283 0.35593 0.0
H2324 H 0.51606 0.39717 0.33964 0.0
H2325 H 0.50841 0.49136 0.33383 0.0
C2326 C 0.54411 0.49034 0.31016 0.0
C2327 C 0.56344 0.47419 0.29777 0.0
C2328 C 0.49857 0.40941 0.34348 0.0
C2329 C 0.52262 0.45062 0.3277 0.0
C2330 C 0.47478 0.39696 0.3511 0.0
C2331 C 0.45152 0.41224 0.35503 0.0
C2332 C 0.49911 0.4373 0.33979 0.0
C2333 C 0.45331 0.44022 0.35265 0.0
C2334 C 0.52368 0.47864 0.32515 0.0
C2335 C 0.56255 0.44643 0.30201 0.0
N2336 N 0.47663 0.45182 0.3449 0.0
N2337 N 0.54228 0.43547 0.31642 0.0
H2338 H 0.24357 0.80261 0.92885 0.0
H2339 H 0.11232 0.72322 0.88441 0.0
H2340 H 0.16315 0.83229 0.93976 0.0
H2341 H 0.1922 0.69014 0.88186 0.0
H2342 H 0.13129 0.76678 0.89599 0.0
H2343 H 0.22569 0.76507 0.90297 0.0
C2344 C 0.22216 0.8014 0.92549 0.0
C2345 C 0.20473 0.82027 0.9368 0.0
C2346 C 0.14468 0.75005 0.89261 0.0
C2347 C 0.18417 0.77738 0.90742 0.0
C2348 C 0.13387 0.72516 0.886 0.0
C2349 C 0.15068 0.70285 0.88275 0.0
C2350 C 0.17246 0.75265 0.89603 0.0
C2351 C 0.17846 0.70667 0.88466 0.0
C2352 C 0.21197 0.77996 0.91074 0.0
C2353 C 0.17723 0.81795 0.93163 0.0
N2354 N 0.18846 0.73103 0.8915 0.0
N2355 N 0.16774 0.79665 0.91757 0.0
H2356 H 0.41171 0.9133 0.19806 0.0
H2357 H 0.55212 0.94227 0.12895 0.0
H2358 H 0.44022 0.99249 0.17802 0.0
H2359 H 0.52175 0.86265 0.14424 0.0
H2360 H 0.50865 0.9607 0.14126 0.0
H2361 H 0.44904 0.89403 0.17299 0.0
C2362 C 0.42565 0.92661 0.18809 0.0
C2363 C 0.42316 0.9545 0.19041 0.0
C2364 C 0.51138 0.93917 0.14165 0.0
C2365 C 0.46593 0.93268 0.16193 0.0
C2366 C 0.53623 0.92863 0.13467 0.0
C2367 C 0.54072 0.90091 0.13607 0.0
C2368 C 0.49094 0.92189 0.15033 0.0
C2369 C 0.51928 0.88418 0.1432 0.0
C2370 C 0.44695 0.91562 0.17379 0.0
C2371 C 0.4416 0.97086 0.17696 0.0
N2372 N 0.49541 0.89496 0.15043 0.0
N2373 N 0.46242 0.95969 0.16356 0.0
H2374 H 0.07987 0.07723 0.70093 0.0
H2375 H 0.9389 0.04811 0.63257 0.0
H2376 H 0.04968 -0.00222 0.68455 0.0
H2377 H 0.97167 0.12761 0.64295 0.0
H2378 H 0.98175 0.02922 0.6464 0.0
H2379 H 0.04293 0.09604 0.67486 0.0
C2380 C 0.06561 0.06375 0.69159 0.0
C2381 C 0.06756 0.03596 0.69516 0.0
C2382 C 0.97968 0.0508 0.64537 0.0
C2383 C 0.02525 0.05725 0.66553 0.0
C2384 C 0.95519 0.0616 0.63751 0.0
C2385 C 0.95155 0.08948 0.63709 0.0
C2386 C 0.0006 0.068 0.6531 0.0
C2387 C 0.97348 0.10599 0.64329 0.0
C2388 C 0.04456 0.07448 0.6767 0.0
C2389 C 0.04873 0.01936 0.68249 0.0
N2390 N -0.00303 0.09499 0.65141 0.0
N2391 N 0.02816 0.03028 0.66848 0.0
loop_
_geom_bond_atom_site_label_1
_geom_bond_atom_site_label_2
_geom_bond_distance
_geom_bond_site_symmetry_2
_ccdc_geom_bond_type
In0 O1 2.317 . S
In0 O2 2.323 1_455 S
In0 O6 2.289 . S
In0 O7 2.322 1_455 S
In0 O8 2.244 1_455 S
In0 O9 2.330 . S
In0 O11 2.271 1_455 S
In0 O12 2.330 . S
O1 In0 2.317 . S
O1 C10 1.240 . S
O2 In0 2.323 1_655 S
O2 C10 1.252 1_655 S
C3 O6 1.252 . S
C3 O7 1.260 1_455 S
C4 O11 1.240 . S
C4 O12 1.252 1_655 S
C5 O8 1.252 . S
C5 O9 1.260 1_655 S
O6 In0 2.289 . S
O6 C3 1.252 . S
O7 In0 2.322 1_655 S
O7 C3 1.260 1_655 S
O8 In0 2.244 1_655 S
O8 C5 1.252 . S
O9 In0 2.330 . S
O9 C5 1.260 1_455 S
C10 O1 1.240 . S
C10 O2 1.252 1_455 S
O11 In0 2.271 1_655 S
O11 C4 1.240 . S
O12 In0 2.330 . S
O12 C4 1.252 1_455 S
In13 O14 2.294 1_455 S
In13 O15 2.326 1_455 S
In13 O19 2.266 . S
In13 O20 2.326 . S
In13 O21 2.266 1_455 S
In13 O22 2.326 1_455 S
In13 O24 2.294 . S
In13 O25 2.326 . S
O14 In13 2.294 1_655 S
O14 C23 1.240 . S
O15 In13 2.326 1_655 S
O15 C23 1.252 . S
C16 O19 1.252 . S
C16 O20 1.260 . S
C17 O24 1.240 . S
C17 O25 1.252 . S
C18 O21 1.252 . S
C18 O22 1.260 . S
O19 In13 2.266 . S
O19 C16 1.252 . S
O20 In13 2.326 . S
O20 C16 1.260 . S
O21 In13 2.266 1_655 S
O21 C18 1.252 . S
O22 In13 2.326 1_655 S
O22 C18 1.260 . S
C23 O14 1.240 . S
C23 O15 1.252 . S
O24 In13 2.294 . S
O24 C17 1.240 . S
O25 In13 2.326 . S
O25 C17 1.252 . S
In26 O27 2.294 . S
In26 O28 2.326 . S
In26 O32 2.266 . S
In26 O33 2.326 . S
In26 O34 2.266 . S
In26 O35 2.326 . S
In26 O37 2.294 . S
In26 O38 2.326 . S
O27 In26 2.294 . S
O27 C36 1.240 . S
O28 In26 2.326 . S
O28 C36 1.252 . S
C29 O32 1.252 . S
C29 O33 1.260 . S
C30 O37 1.240 . S
C30 O38 1.252 . S
C31 O34 1.252 . S
C31 O35 1.260 . S
O32 In26 2.266 . S
O32 C29 1.252 . S
O33 In26 2.326 . S
O33 C29 1.260 . S
O34 In26 2.266 . S
O34 C31 1.252 . S
O35 In26 2.326 . S
O35 C31 1.260 . S
C36 O27 1.240 . S
C36 O28 1.252 . S
O37 In26 2.294 . S
O37 C30 1.240 . S
O38 In26 2.326 . S
O38 C30 1.252 . S
In39 O40 2.294 . S
In39 O41 2.326 . S
In39 O45 2.266 . S
In39 O46 2.326 . S
In39 O47 2.266 . S
In39 O48 2.326 . S
In39 O50 2.294 . S
In39 O51 2.326 . S
O40 In39 2.294 . S
O40 C49 1.240 . S
O41 In39 2.326 . S
O41 C49 1.252 . S
C42 O45 1.252 . S
C42 O46 1.260 . S
C43 O50 1.240 . S
C43 O51 1.252 . S
C44 O47 1.252 . S
C44 O48 1.260 . S
O45 In39 2.266 . S
O45 C42 1.252 . S
O46 In39 2.326 . S
O46 C42 1.260 . S
O47 In39 2.266 . S
O47 C44 1.252 . S
O48 In39 2.326 . S
O48 C44 1.260 . S
C49 O40 1.240 . S
C49 O41 1.252 . S
O50 In39 2.294 . S
O50 C43 1.240 . S
O51 In39 2.326 . S
O51 C43 1.252 . S
In52 O53 2.284 1_455 S
In52 O54 2.328 . S
In52 O58 2.257 1_455 S
In52 O59 2.327 . S
In52 O60 2.276 . S
In52 O61 2.324 1_455 S
In52 O63 2.304 . S
In52 O64 2.325 1_455 S
O53 In52 2.284 1_655 S
O53 C62 1.240 . S
O54 In52 2.328 . S
O54 C62 1.252 1_455 S
C55 O58 1.252 . S
C55 O59 1.260 1_655 S
C56 O63 1.240 . S
C56 O64 1.252 1_455 S
C57 O60 1.252 . S
C57 O61 1.260 1_455 S
O58 In52 2.257 1_655 S
O58 C55 1.252 . S
O59 In52 2.327 . S
O59 C55 1.260 1_455 S
O60 In52 2.276 . S
O60 C57 1.252 . S
O61 In52 2.324 1_655 S
O61 C57 1.260 1_655 S
C62 O53 1.240 . S
C62 O54 1.252 1_655 S
O63 In52 2.304 . S
O63 C56 1.240 . S
O64 In52 2.325 1_655 S
O64 C56 1.252 1_655 S
In65 O66 2.294 . S
In65 O67 2.326 . S
In65 O71 2.266 . S
In65 O72 2.326 . S
In65 O73 2.266 . S
In65 O74 2.326 . S
In65 O76 2.294 . S
In65 O77 2.326 . S
O66 In65 2.294 . S
O66 C75 1.240 . S
O67 In65 2.326 . S
O67 C75 1.252 . S
C68 O71 1.252 . S
C68 O72 1.260 . S
C69 O76 1.240 . S
C69 O77 1.252 . S
C70 O73 1.252 . S
C70 O74 1.260 . S
O71 In65 2.266 . S
O71 C68 1.252 . S
O72 In65 2.326 . S
O72 C68 1.260 . S
O73 In65 2.266 . S
O73 C70 1.252 . S
O74 In65 2.326 . S
O74 C70 1.260 . S
C75 O66 1.240 . S
C75 O67 1.252 . S
O76 In65 2.294 . S
O76 C69 1.240 . S
O77 In65 2.326 . S
O77 C69 1.252 . S
In78 O79 2.294 . S
In78 O80 2.326 . S
In78 O84 2.266 . S
In78 O85 2.326 . S
In78 O86 2.266 . S
In78 O87 2.326 . S
In78 O89 2.294 . S
In78 O90 2.326 . S
O79 In78 2.294 . S
O79 C88 1.240 . S
O80 In78 2.326 . S
O80 C88 1.252 . S
C81 O84 1.252 . S
C81 O85 1.260 . S
C82 O89 1.240 . S
C82 O90 1.252 . S
C83 O86 1.252 . S
C83 O87 1.260 . S
O84 In78 2.266 . S
O84 C81 1.252 . S
O85 In78 2.326 . S
O85 C81 1.260 . S
O86 In78 2.266 . S
O86 C83 1.252 . S
O87 In78 2.326 . S
O87 C83 1.260 . S
C88 O79 1.240 . S
C88 O80 1.252 . S
O89 In78 2.294 . S
O89 C82 1.240 . S
O90 In78 2.326 . S
O90 C82 1.252 . S
In91 O92 2.297 . S
In91 O93 2.332 . S
In91 O97 2.263 1_455 S
In91 O98 2.320 1_455 S
In91 O99 2.269 . S
In91 O100 2.331 . S
In91 O102 2.291 1_455 S
In91 O103 2.321 1_455 S
O92 In91 2.297 . S
O92 C101 1.240 . S
O93 In91 2.332 . S
O93 C101 1.252 . S
C94 O97 1.252 . S
C94 O98 1.260 . S
C95 O102 1.240 . S
C95 O103 1.252 . S
C96 O99 1.252 . S
C96 O100 1.260 . S
O97 In91 2.263 1_655 S
O97 C94 1.252 . S
O98 In91 2.320 1_655 S
O98 C94 1.260 . S
O99 In91 2.269 . S
O99 C96 1.252 . S
O100 In91 2.331 . S
O100 C96 1.260 . S
C101 O92 1.240 . S
C101 O93 1.252 . S
O102 In91 2.291 1_655 S
O102 C95 1.240 . S
O103 In91 2.321 1_655 S
O103 C95 1.252 . S
In104 O105 2.294 1_545 S
In104 O106 2.326 . S
In104 O110 2.266 1_545 S
In104 O111 2.326 . S
In104 O112 2.266 . S
In104 O113 2.326 1_545 S
In104 O115 2.294 . S
In104 O116 2.326 1_545 S
O105 In104 2.294 1_565 S
O105 C114 1.240 . S
O106 In104 2.326 . S
O106 C114 1.252 1_545 S
C107 O110 1.252 . S
C107 O111 1.260 1_565 S
C108 O115 1.240 . S
C108 O116 1.252 1_545 S
C109 O112 1.252 . S
C109 O113 1.260 1_545 S
O110 In104 2.266 1_565 S
O110 C107 1.252 . S
O111 In104 2.326 . S
O111 C107 1.260 1_545 S
O112 In104 2.266 . S
O112 C109 1.252 . S
O113 In104 2.326 1_565 S
O113 C109 1.260 1_565 S
C114 O105 1.240 . S
C114 O106 1.252 1_565 S
O115 In104 2.294 . S
O115 C108 1.240 . S
O116 In104 2.326 1_565 S
O116 C108 1.252 1_565 S
In117 O118 2.294 . S
In117 O119 2.326 . S
In117 O123 2.266 . S
In117 O124 2.326 . S
In117 O125 2.266 . S
In117 O126 2.326 . S
In117 O128 2.294 . S
In117 O129 2.326 . S
O118 In117 2.294 . S
O118 C127 1.240 . S
O119 In117 2.326 . S
O119 C127 1.252 . S
C120 O123 1.252 . S
C120 O124 1.260 . S
C121 O128 1.240 . S
C121 O129 1.252 . S
C122 O125 1.252 . S
C122 O126 1.260 . S
O123 In117 2.266 . S
O123 C120 1.252 . S
O124 In117 2.326 . S
O124 C120 1.260 . S
O125 In117 2.266 . S
O125 C122 1.252 . S
O126 In117 2.326 . S
O126 C122 1.260 . S
C127 O118 1.240 . S
C127 O119 1.252 . S
O128 In117 2.294 . S
O128 C121 1.240 . S
O129 In117 2.326 . S
O129 C121 1.252 . S
In130 O131 2.294 1_545 S
In130 O132 2.326 . S
In130 O136 2.266 1_545 S
In130 O137 2.326 . S
In130 O138 2.266 . S
In130 O139 2.326 1_545 S
In130 O141 2.294 . S
In130 O142 2.324 1_545 S
O131 In130 2.294 1_565 S
O131 C140 1.240 . S
O132 In130 2.326 . S
O132 C140 1.252 1_545 S
C133 O136 1.252 . S
C133 O137 1.260 1_565 S
C134 O141 1.240 . S
C134 O142 1.227 1_545 S
C135 O138 1.252 . S
C135 O139 1.260 1_545 S
O136 In130 2.266 1_565 S
O136 C133 1.252 . S
O137 In130 2.326 . S
O137 C133 1.260 1_545 S
O138 In130 2.266 . S
O138 C135 1.252 . S
O139 In130 2.326 1_565 S
O139 C135 1.260 1_565 S
C140 O131 1.240 . S
C140 O132 1.252 1_565 S
O141 In130 2.294 . S
O141 C134 1.240 . S
O142 In130 2.324 1_565 S
O142 C134 1.227 1_565 S
In143 O144 2.294 . S
In143 O145 2.326 . S
In143 O149 2.266 1_554 S
In143 O150 2.326 1_554 S
In143 O151 2.266 . S
In143 O152 2.326 . S
In143 O154 2.294 1_554 S
In143 O155 2.326 1_554 S
O144 In143 2.294 . S
O144 C153 1.240 . S
O145 In143 2.326 . S
O145 C153 1.252 . S
C146 O149 1.252 . S
C146 O150 1.260 . S
C147 O154 1.240 . S
C147 O155 1.252 . S
C148 O151 1.252 . S
C148 O152 1.260 . S
O149 In143 2.266 1_556 S
O149 C146 1.252 . S
O150 In143 2.326 1_556 S
O150 C146 1.260 . S
O151 In143 2.266 . S
O151 C148 1.252 . S
O152 In143 2.326 . S
O152 C148 1.260 . S
C153 O144 1.240 . S
C153 O145 1.252 . S
O154 In143 2.294 1_556 S
O154 C147 1.240 . S
O155 In143 2.326 1_556 S
O155 C147 1.252 . S
In156 O157 2.281 1_554 S
In156 O158 2.328 . S
In156 O162 2.253 1_554 S
In156 O163 2.328 . S
In156 O164 2.279 . S
In156 O165 2.323 1_554 S
In156 O167 2.307 . S
In156 O168 2.324 1_554 S
O157 In156 2.281 1_556 S
O157 C166 1.240 . S
O158 In156 2.328 . S
O158 C166 1.252 1_554 S
C159 O162 1.252 . S
C159 O163 1.260 1_556 S
C160 O167 1.240 . S
C160 O168 1.252 1_554 S
C161 O164 1.252 . S
C161 O165 1.260 1_554 S
O162 In156 2.253 1_556 S
O162 C159 1.252 . S
O163 In156 2.328 . S
O163 C159 1.260 1_554 S
O164 In156 2.279 . S
O164 C161 1.252 . S
O165 In156 2.323 1_556 S
O165 C161 1.260 1_556 S
C166 O157 1.240 . S
C166 O158 1.252 1_556 S
O167 In156 2.307 . S
O167 C160 1.240 . S
O168 In156 2.324 1_556 S
O168 C160 1.252 1_556 S
In169 O170 2.295 . S
In169 O171 2.326 1_554 S
In169 O175 2.267 . S
In169 O176 2.325 1_554 S
In169 O177 2.265 1_554 S
In169 O178 2.326 . S
In169 O180 2.293 1_554 S
In169 O181 2.326 . S
O170 In169 2.295 . S
O170 C179 1.240 . S
O171 In169 2.326 1_556 S
O171 C179 1.252 1_556 S
C172 O175 1.252 . S
C172 O176 1.260 1_554 S
C173 O180 1.240 . S
C173 O181 1.252 1_556 S
C174 O177 1.252 . S
C174 O178 1.260 1_556 S
O175 In169 2.267 . S
O175 C172 1.252 . S
O176 In169 2.325 1_556 S
O176 C172 1.260 1_556 S
O177 In169 2.265 1_556 S
O177 C174 1.252 . S
O178 In169 2.326 . S
O178 C174 1.260 1_554 S
C179 O170 1.240 . S
C179 O171 1.252 1_554 S
O180 In169 2.293 1_556 S
O180 C173 1.240 . S
O181 In169 2.326 . S
O181 C173 1.252 1_554 S
In182 O183 2.294 . S
In182 O184 2.326 . S
In182 O188 2.266 . S
In182 O189 2.326 . S
In182 O190 2.266 . S
In182 O191 2.326 . S
In182 O193 2.294 . S
In182 O194 2.326 . S
O183 In182 2.294 . S
O183 C192 1.240 . S
O184 In182 2.326 . S
O184 C192 1.252 . S
C185 O188 1.252 . S
C185 O189 1.260 . S
C186 O193 1.240 . S
C186 O194 1.252 . S
C187 O190 1.252 . S
C187 O191 1.260 . S
O188 In182 2.266 . S
O188 C185 1.252 . S
O189 In182 2.326 . S
O189 C185 1.260 . S
O190 In182 2.266 . S
O190 C187 1.252 . S
O191 In182 2.326 . S
O191 C187 1.260 . S
C192 O183 1.240 . S
C192 O184 1.252 . S
O193 In182 2.294 . S
O193 C186 1.240 . S
O194 In182 2.326 . S
O194 C186 1.252 . S
In195 O196 2.294 . S
In195 O197 2.326 . S
In195 O201 2.266 . S
In195 O202 2.326 . S
In195 O203 2.266 . S
In195 O204 2.326 . S
In195 O206 2.294 . S
In195 O207 2.326 . S
O196 In195 2.294 . S
O196 C205 1.240 . S
O197 In195 2.326 . S
O197 C205 1.252 . S
C198 O201 1.252 . S
C198 O202 1.260 . S
C199 O206 1.240 . S
C199 O207 1.252 . S
C200 O203 1.252 . S
C200 O204 1.260 . S
O201 In195 2.266 . S
O201 C198 1.252 . S
O202 In195 2.326 . S
O202 C198 1.260 . S
O203 In195 2.266 . S
O203 C200 1.252 . S
O204 In195 2.326 . S
O204 C200 1.260 . S
C205 O196 1.240 . S
C205 O197 1.252 . S
O206 In195 2.294 . S
O206 C199 1.240 . S
O207 In195 2.326 . S
O207 C199 1.252 . S
In208 O209 2.294 1_545 S
In208 O210 2.326 1_545 S
In208 O214 2.266 . S
In208 O215 2.326 . S
In208 O216 2.266 1_545 S
In208 O217 2.326 1_545 S
In208 O219 2.294 . S
In208 O220 2.326 . S
O209 In208 2.294 1_565 S
O209 C218 1.240 . S
O210 In208 2.326 1_565 S
O210 C218 1.252 . S
C211 O214 1.252 . S
C211 O215 1.260 . S
C212 O219 1.240 . S
C212 O220 1.252 . S
C213 O216 1.252 . S
C213 O217 1.260 . S
O214 In208 2.266 . S
O214 C211 1.252 . S
O215 In208 2.326 . S
O215 C211 1.260 . S
O216 In208 2.266 1_565 S
O216 C213 1.252 . S
O217 In208 2.326 1_565 S
O217 C213 1.260 . S
C218 O209 1.240 . S
C218 O210 1.252 . S
O219 In208 2.294 . S
O219 C212 1.240 . S
O220 In208 2.326 . S
O220 C212 1.252 . S
In221 O222 2.294 . S
In221 O223 2.326 . S
In221 O227 2.266 . S
In221 O228 2.326 . S
In221 O229 2.266 . S
In221 O230 2.326 . S
In221 O232 2.294 . S
In221 O233 2.326 . S
O222 In221 2.294 . S
O222 C231 1.240 . S
O223 In221 2.326 . S
O223 C231 1.252 . S
C224 O227 1.252 . S
C224 O228 1.260 . S
C225 O232 1.240 . S
C225 O233 1.252 . S
C226 O229 1.252 . S
C226 O230 1.260 . S
O227 In221 2.266 . S
O227 C224 1.252 . S
O228 In221 2.326 . S
O228 C224 1.260 . S
O229 In221 2.266 . S
O229 C226 1.252 . S
O230 In221 2.326 . S
O230 C226 1.260 . S
C231 O222 1.240 . S
C231 O223 1.252 . S
O232 In221 2.294 . S
O232 C225 1.240 . S
O233 In221 2.326 . S
O233 C225 1.252 . S
In234 O235 2.294 . S
In234 O236 2.326 . S
In234 O240 2.266 . S
In234 O241 2.326 . S
In234 O242 2.266 . S
In234 O243 2.326 . S
In234 O245 2.294 . S
In234 O246 2.326 . S
O235 In234 2.294 . S
O235 C244 1.240 . S
O236 In234 2.326 . S
O236 C244 1.252 . S
C237 O240 1.252 . S
C237 O241 1.260 . S
C238 O245 1.240 . S
C238 O246 1.252 . S
C239 O242 1.252 . S
C239 O243 1.260 . S
O240 In234 2.266 . S
O240 C237 1.252 . S
O241 In234 2.326 . S
O241 C237 1.260 . S
O242 In234 2.266 . S
O242 C239 1.252 . S
O243 In234 2.326 . S
O243 C239 1.260 . S
C244 O235 1.240 . S
C244 O236 1.252 . S
O245 In234 2.294 . S
O245 C238 1.240 . S
O246 In234 2.326 . S
O246 C238 1.252 . S
In247 O248 2.294 1_545 S
In247 O249 2.326 1_545 S
In247 O253 2.266 . S
In247 O254 2.326 . S
In247 O255 2.266 1_545 S
In247 O256 2.326 1_545 S
In247 O258 2.294 . S
In247 O259 2.326 . S
O248 In247 2.294 1_565 S
O248 C257 1.240 . S
O249 In247 2.326 1_565 S
O249 C257 1.252 . S
C250 O253 1.252 . S
C250 O254 1.260 . S
C251 O258 1.240 . S
C251 O259 1.252 . S
C252 O255 1.252 . S
C252 O256 1.260 . S
O253 In247 2.266 . S
O253 C250 1.252 . S
O254 In247 2.326 . S
O254 C250 1.260 . S
O255 In247 2.266 1_565 S
O255 C252 1.252 . S
O256 In247 2.326 1_565 S
O256 C252 1.260 . S
C257 O248 1.240 . S
C257 O249 1.252 . S
O258 In247 2.294 . S
O258 C251 1.240 . S
O259 In247 2.326 . S
O259 C251 1.252 . S
In260 O261 2.294 . S
In260 O262 2.326 . S
In260 O266 2.266 1_554 S
In260 O267 2.326 1_554 S
In260 O268 2.266 . S
In260 O269 2.326 . S
In260 O271 2.294 1_554 S
In260 O272 2.326 1_554 S
O261 In260 2.294 . S
O261 C270 1.240 . S
O262 In260 2.326 . S
O262 C270 1.252 . S
C263 O266 1.252 . S
C263 O267 1.260 . S
C264 O271 1.240 . S
C264 O272 1.252 . S
C265 O268 1.252 . S
C265 O269 1.260 . S
O266 In260 2.266 1_556 S
O266 C263 1.252 . S
O267 In260 2.326 1_556 S
O267 C263 1.260 . S
O268 In260 2.266 . S
O268 C265 1.252 . S
O269 In260 2.326 . S
O269 C265 1.260 . S
C270 O261 1.240 . S
C270 O262 1.252 . S
O271 In260 2.294 1_556 S
O271 C264 1.240 . S
O272 In260 2.326 1_556 S
O272 C264 1.252 . S
In273 O274 2.294 . S
In273 O275 2.326 . S
In273 O279 2.266 . S
In273 O280 2.326 . S
In273 O281 2.266 . S
In273 O282 2.326 . S
In273 O284 2.294 . S
In273 O285 2.326 . S
O274 In273 2.294 . S
O274 C283 1.240 . S
O275 In273 2.326 . S
O275 C283 1.252 . S
C276 O279 1.252 . S
C276 O280 1.260 . S
C277 O284 1.240 . S
C277 O285 1.252 . S
C278 O281 1.252 . S
C278 O282 1.260 . S
O279 In273 2.266 . S
O279 C276 1.252 . S
O280 In273 2.326 . S
O280 C276 1.260 . S
O281 In273 2.266 . S
O281 C278 1.252 . S
O282 In273 2.326 . S
O282 C278 1.260 . S
C283 O274 1.240 . S
C283 O275 1.252 . S
O284 In273 2.294 . S
O284 C277 1.240 . S
O285 In273 2.326 . S
O285 C277 1.252 . S
In286 O287 2.294 . S
In286 O288 2.326 . S
In286 O292 2.266 . S
In286 O293 2.326 . S
In286 O294 2.266 . S
In286 O295 2.326 . S
In286 O297 2.294 . S
In286 O298 2.326 . S
O287 In286 2.294 . S
O287 C296 1.240 . S
O288 In286 2.326 . S
O288 C296 1.252 . S
C289 O292 1.252 . S
C289 O293 1.260 . S
C290 O297 1.240 . S
C290 O298 1.252 . S
C291 O294 1.252 . S
C291 O295 1.260 . S
O292 In286 2.266 . S
O292 C289 1.252 . S
O293 In286 2.326 . S
O293 C289 1.260 . S
O294 In286 2.266 . S
O294 C291 1.252 . S
O295 In286 2.326 . S
O295 C291 1.260 . S
C296 O287 1.240 . S
C296 O288 1.252 . S
O297 In286 2.294 . S
O297 C290 1.240 . S
O298 In286 2.326 . S
O298 C290 1.252 . S
In299 O300 2.294 . S
In299 O301 2.326 . S
In299 O305 2.266 . S
In299 O306 2.326 . S
In299 O307 2.266 . S
In299 O308 2.326 . S
In299 O310 2.294 . S
In299 O311 2.326 . S
O300 In299 2.294 . S
O300 C309 1.240 . S
O301 In299 2.326 . S
O301 C309 1.252 . S
C302 O305 1.252 . S
C302 O306 1.260 . S
C303 O310 1.240 . S
C303 O311 1.252 . S
C304 O307 1.252 . S
C304 O308 1.260 . S
O305 In299 2.266 . S
O305 C302 1.252 . S
O306 In299 2.326 . S
O306 C302 1.260 . S
O307 In299 2.266 . S
O307 C304 1.252 . S
O308 In299 2.326 . S
O308 C304 1.260 . S
C309 O300 1.240 . S
C309 O301 1.252 . S
O310 In299 2.294 . S
O310 C303 1.240 . S
O311 In299 2.326 . S
O311 C303 1.252 . S
Fe312 O314 1.918 . S
Fe312 O317 1.997 . S
Fe312 O318 2.002 . S
Fe312 O323 1.976 . S
Fe312 O326 1.996 . S
Fe313 O314 1.918 . S
Fe313 O321 1.997 . S
Fe313 O324 1.996 . S
Fe313 O328 1.976 . S
Fe313 O331 2.002 . S
O314 Fe312 1.918 . S
O314 Fe313 1.918 . S
O314 Fe315 1.918 . S
Fe315 O314 1.918 . S
Fe315 O316 2.002 . S
Fe315 O325 1.976 . S
Fe315 O329 1.996 . S
Fe315 O332 1.997 . S
O316 Fe315 2.002 . S
O316 C333 1.295 . S
O317 Fe312 1.997 . S
O317 C333 1.235 . S
O318 Fe312 2.002 . S
O318 C319 1.295 . S
C319 O318 1.295 . S
C319 O321 1.235 . S
C320 O325 1.287 . S
C320 O326 1.255 . S
O321 Fe313 1.997 . S
O321 C319 1.235 . S
C322 O328 1.287 . S
C322 O329 1.255 . S
O323 Fe312 1.976 . S
O323 C330 1.287 . S
O324 Fe313 1.996 . S
O324 C330 1.255 . S
O325 Fe315 1.976 . S
O325 C320 1.287 . S
O326 Fe312 1.996 . S
O326 C320 1.255 . S
C327 O331 1.295 . S
C327 O332 1.235 . S
O328 Fe313 1.976 . S
O328 C322 1.287 . S
O329 Fe315 1.996 . S
O329 C322 1.255 . S
C330 O323 1.287 . S
C330 O324 1.255 . S
O331 Fe313 2.002 . S
O331 C327 1.295 . S
O332 Fe315 1.997 . S
O332 C327 1.235 . S
C333 O316 1.295 . S
C333 O317 1.235 . S
Fe334 O336 1.918 . S
Fe334 O339 1.997 . S
Fe334 O340 2.002 . S
Fe334 O345 1.976 . S
Fe334 O348 1.996 . S
Fe335 O336 1.918 . S
Fe335 O343 1.997 . S
Fe335 O346 1.996 . S
Fe335 O350 1.976 . S
Fe335 O353 2.002 . S
O336 Fe334 1.918 . S
O336 Fe335 1.918 . S
O336 Fe337 1.918 . S
Fe337 O336 1.918 . S
Fe337 O338 2.002 . S
Fe337 O347 1.976 . S
Fe337 O351 1.996 . S
Fe337 O354 1.997 . S
O338 Fe337 2.002 . S
O338 C355 1.295 . S
O339 Fe334 1.997 . S
O339 C355 1.235 . S
O340 Fe334 2.002 . S
O340 C341 1.295 . S
C341 O340 1.295 . S
C341 O343 1.235 . S
C342 O347 1.287 . S
C342 O348 1.255 . S
O343 Fe335 1.997 . S
O343 C341 1.235 . S
C344 O350 1.287 . S
C344 O351 1.255 . S
O345 Fe334 1.976 . S
O345 C352 1.287 . S
O346 Fe335 1.996 . S
O346 C352 1.255 . S
O347 Fe337 1.976 . S
O347 C342 1.287 . S
O348 Fe334 1.996 . S
O348 C342 1.255 . S
C349 O353 1.295 . S
C349 O354 1.235 . S
O350 Fe335 1.976 . S
O350 C344 1.287 . S
O351 Fe337 1.996 . S
O351 C344 1.255 . S
C352 O345 1.287 . S
C352 O346 1.255 . S
O353 Fe335 2.002 . S
O353 C349 1.295 . S
O354 Fe337 1.997 . S
O354 C349 1.235 . S
C355 O338 1.295 . S
C355 O339 1.235 . S
Fe356 O358 1.918 . S
Fe356 O361 1.997 . S
Fe356 O362 2.002 . S
Fe356 O367 1.976 . S
Fe356 O370 1.996 . S
Fe357 O358 1.918 . S
Fe357 O365 1.997 . S
Fe357 O368 1.996 . S
Fe357 O372 1.976 . S
Fe357 O375 2.002 . S
O358 Fe356 1.918 . S
O358 Fe357 1.918 . S
O358 Fe359 1.918 . S
Fe359 O358 1.918 . S
Fe359 O360 2.002 . S
Fe359 O369 1.976 . S
Fe359 O373 1.996 . S
Fe359 O376 1.997 . S
O360 Fe359 2.002 . S
O360 C377 1.295 . S
O361 Fe356 1.997 . S
O361 C377 1.235 . S
O362 Fe356 2.002 . S
O362 C363 1.295 . S
C363 O362 1.295 . S
C363 O365 1.235 . S
C364 O369 1.287 . S
C364 O370 1.255 . S
O365 Fe357 1.997 . S
O365 C363 1.235 . S
C366 O372 1.287 . S
C366 O373 1.255 . S
O367 Fe356 1.976 . S
O367 C374 1.287 . S
O368 Fe357 1.996 . S
O368 C374 1.255 . S
O369 Fe359 1.976 . S
O369 C364 1.287 . S
O370 Fe356 1.996 . S
O370 C364 1.255 . S
C371 O375 1.295 . S
C371 O376 1.235 . S
O372 Fe357 1.976 . S
O372 C366 1.287 . S
O373 Fe359 1.996 . S
O373 C366 1.255 . S
C374 O367 1.287 . S
C374 O368 1.255 . S
O375 Fe357 2.002 . S
O375 C371 1.295 . S
O376 Fe359 1.997 . S
O376 C371 1.235 . S
C377 O360 1.295 . S
C377 O361 1.235 . S
Fe378 O380 1.918 . S
Fe378 O383 1.997 . S
Fe378 O384 2.002 . S
Fe378 O389 1.976 . S
Fe378 O392 1.996 . S
Fe379 O380 1.918 . S
Fe379 O387 1.997 . S
Fe379 O390 1.996 . S
Fe379 O394 1.976 . S
Fe379 O397 2.002 . S
O380 Fe378 1.918 . S
O380 Fe379 1.918 . S
O380 Fe381 1.918 . S
Fe381 O380 1.918 . S
Fe381 O382 2.002 . S
Fe381 O391 1.976 . S
Fe381 O395 1.996 . S
Fe381 O398 1.997 . S
O382 Fe381 2.002 . S
O382 C399 1.295 . S
O383 Fe378 1.997 . S
O383 C399 1.235 . S
O384 Fe378 2.002 . S
O384 C385 1.295 . S
C385 O384 1.295 . S
C385 O387 1.235 . S
C386 O391 1.287 . S
C386 O392 1.255 . S
O387 Fe379 1.997 . S
O387 C385 1.235 . S
C388 O394 1.287 . S
C388 O395 1.255 . S
O389 Fe378 1.976 . S
O389 C396 1.287 . S
O390 Fe379 1.996 . S
O390 C396 1.255 . S
O391 Fe381 1.976 . S
O391 C386 1.287 . S
O392 Fe378 1.996 . S
O392 C386 1.255 . S
C393 O397 1.295 . S
C393 O398 1.235 . S
O394 Fe379 1.976 . S
O394 C388 1.287 . S
O395 Fe381 1.996 . S
O395 C388 1.255 . S
C396 O389 1.287 . S
C396 O390 1.255 . S
O397 Fe379 2.002 . S
O397 C393 1.295 . S
O398 Fe381 1.997 . S
O398 C393 1.235 . S
C399 O382 1.295 . S
C399 O383 1.235 . S
Fe400 O402 1.918 . S
Fe400 O405 1.997 . S
Fe400 O406 2.002 . S
Fe400 O411 1.976 . S
Fe400 O414 1.996 . S
Fe401 O402 1.918 . S
Fe401 O409 1.997 . S
Fe401 O412 1.996 . S
Fe401 O416 1.976 . S
Fe401 O419 2.002 . S
O402 Fe400 1.918 . S
O402 Fe401 1.918 . S
O402 Fe403 1.918 . S
Fe403 O402 1.918 . S
Fe403 O404 2.002 . S
Fe403 O413 1.976 . S
Fe403 O417 1.996 . S
Fe403 O420 1.997 . S
O404 Fe403 2.002 . S
O404 C421 1.295 . S
O405 Fe400 1.997 . S
O405 C421 1.235 . S
O406 Fe400 2.002 . S
O406 C407 1.295 . S
C407 O406 1.295 . S
C407 O409 1.235 . S
C408 O413 1.287 . S
C408 O414 1.255 . S
O409 Fe401 1.997 . S
O409 C407 1.235 . S
C410 O416 1.287 . S
C410 O417 1.255 . S
O411 Fe400 1.976 . S
O411 C418 1.287 . S
O412 Fe401 1.996 . S
O412 C418 1.255 . S
O413 Fe403 1.976 . S
O413 C408 1.287 . S
O414 Fe400 1.996 . S
O414 C408 1.255 . S
C415 O419 1.295 . S
C415 O420 1.235 . S
O416 Fe401 1.976 . S
O416 C410 1.287 . S
O417 Fe403 1.996 . S
O417 C410 1.255 . S
C418 O411 1.287 . S
C418 O412 1.255 . S
O419 Fe401 2.002 . S
O419 C415 1.295 . S
O420 Fe403 1.997 . S
O420 C415 1.235 . S
C421 O404 1.295 . S
C421 O405 1.235 . S
Fe422 O424 1.918 . S
Fe422 O427 1.997 . S
Fe422 O428 2.002 . S
Fe422 O433 1.976 . S
Fe422 O436 1.996 . S
Fe423 O424 1.918 . S
Fe423 O431 1.997 . S
Fe423 O434 1.996 . S
Fe423 O438 1.976 . S
Fe423 O441 2.002 . S
O424 Fe422 1.918 . S
O424 Fe423 1.918 . S
O424 Fe425 1.918 . S
Fe425 O424 1.918 . S
Fe425 O426 2.002 . S
Fe425 O435 1.976 . S
Fe425 O439 1.996 . S
Fe425 O442 1.997 . S
O426 Fe425 2.002 . S
O426 C443 1.295 . S
O427 Fe422 1.997 . S
O427 C443 1.235 . S
O428 Fe422 2.002 . S
O428 C429 1.295 . S
C429 O428 1.295 . S
C429 O431 1.235 . S
C430 O435 1.287 . S
C430 O436 1.255 . S
O431 Fe423 1.997 . S
O431 C429 1.235 . S
C432 O438 1.287 . S
C432 O439 1.255 . S
O433 Fe422 1.976 . S
O433 C440 1.287 . S
O434 Fe423 1.996 . S
O434 C440 1.255 . S
O435 Fe425 1.976 . S
O435 C430 1.287 . S
O436 Fe422 1.996 . S
O436 C430 1.255 . S
C437 O441 1.295 . S
C437 O442 1.235 . S
O438 Fe423 1.976 . S
O438 C432 1.287 . S
O439 Fe425 1.996 . S
O439 C432 1.255 . S
C440 O433 1.287 . S
C440 O434 1.255 . S
O441 Fe423 2.002 . S
O441 C437 1.295 . S
O442 Fe425 1.997 . S
O442 C437 1.235 . S
C443 O426 1.295 . S
C443 O427 1.235 . S
Fe444 O446 1.918 . S
Fe444 O449 1.997 . S
Fe444 O450 2.002 . S
Fe444 O455 1.976 . S
Fe444 O458 1.996 . S
Fe445 O446 1.918 . S
Fe445 O453 1.997 . S
Fe445 O456 1.996 . S
Fe445 O460 1.976 . S
Fe445 O463 2.002 . S
O446 Fe444 1.918 . S
O446 Fe445 1.918 . S
O446 Fe447 1.918 . S
Fe447 O446 1.918 . S
Fe447 O448 2.002 . S
Fe447 O457 1.976 . S
Fe447 O461 1.996 . S
Fe447 O464 1.997 . S
O448 Fe447 2.002 . S
O448 C465 1.295 . S
O449 Fe444 1.997 . S
O449 C465 1.235 . S
O450 Fe444 2.002 . S
O450 C451 1.295 . S
C451 O450 1.295 . S
C451 O453 1.235 . S
C452 O457 1.287 . S
C452 O458 1.255 . S
O453 Fe445 1.997 . S
O453 C451 1.235 . S
C454 O460 1.287 . S
C454 O461 1.255 . S
O455 Fe444 1.976 . S
O455 C462 1.287 . S
O456 Fe445 1.996 . S
O456 C462 1.255 . S
O457 Fe447 1.976 . S
O457 C452 1.287 . S
O458 Fe444 1.996 . S
O458 C452 1.255 . S
C459 O463 1.295 . S
C459 O464 1.235 . S
O460 Fe445 1.976 . S
O460 C454 1.287 . S
O461 Fe447 1.996 . S
O461 C454 1.255 . S
C462 O455 1.287 . S
C462 O456 1.255 . S
O463 Fe445 2.002 . S
O463 C459 1.295 . S
O464 Fe447 1.997 . S
O464 C459 1.235 . S
C465 O448 1.295 . S
C465 O449 1.235 . S
Fe466 O468 1.918 . S
Fe466 O471 1.997 . S
Fe466 O472 2.002 . S
Fe466 O477 1.976 . S
Fe466 O480 1.996 . S
Fe467 O468 1.918 . S
Fe467 O475 1.997 . S
Fe467 O478 1.996 . S
Fe467 O482 1.976 . S
Fe467 O485 2.002 . S
O468 Fe466 1.918 . S
O468 Fe467 1.918 . S
O468 Fe469 1.918 . S
Fe469 O468 1.918 . S
Fe469 O470 2.002 . S
Fe469 O479 1.976 . S
Fe469 O483 1.996 . S
Fe469 O486 1.997 . S
O470 Fe469 2.002 . S
O470 C487 1.295 . S
O471 Fe466 1.997 . S
O471 C487 1.235 . S
O472 Fe466 2.002 . S
O472 C473 1.295 . S
C473 O472 1.295 . S
C473 O475 1.235 . S
C474 O479 1.287 . S
C474 O480 1.255 . S
O475 Fe467 1.997 . S
O475 C473 1.235 . S
C476 O482 1.287 . S
C476 O483 1.255 . S
O477 Fe466 1.976 . S
O477 C484 1.287 . S
O478 Fe467 1.996 . S
O478 C484 1.255 . S
O479 Fe469 1.976 . S
O479 C474 1.287 . S
O480 Fe466 1.996 . S
O480 C474 1.255 . S
C481 O485 1.295 . S
C481 O486 1.235 . S
O482 Fe467 1.976 . S
O482 C476 1.287 . S
O483 Fe469 1.996 . S
O483 C476 1.255 . S
C484 O477 1.287 . S
C484 O478 1.255 . S
O485 Fe467 2.002 . S
O485 C481 1.295 . S
O486 Fe469 1.997 . S
O486 C481 1.235 . S
C487 O470 1.295 . S
C487 O471 1.235 . S
Fe488 O490 1.918 . S
Fe488 O493 1.997 . S
Fe488 O494 2.002 . S
Fe488 O499 1.976 . S
Fe488 O502 1.996 . S
Fe489 O490 1.918 . S
Fe489 O497 1.997 . S
Fe489 O500 1.996 . S
Fe489 O504 1.976 . S
Fe489 O507 2.002 . S
O490 Fe488 1.918 . S
O490 Fe489 1.918 . S
O490 Fe491 1.918 . S
Fe491 O490 1.918 . S
Fe491 O492 2.002 . S
Fe491 O501 1.976 . S
Fe491 O505 1.996 . S
Fe491 O508 1.997 . S
O492 Fe491 2.002 . S
O492 C509 1.295 . S
O493 Fe488 1.997 . S
O493 C509 1.235 . S
O494 Fe488 2.002 . S
O494 C495 1.295 . S
C495 O494 1.295 . S
C495 O497 1.235 . S
C496 O501 1.287 . S
C496 O502 1.255 . S
O497 Fe489 1.997 . S
O497 C495 1.235 . S
C498 O504 1.287 . S
C498 O505 1.255 . S
O499 Fe488 1.976 . S
O499 C506 1.287 . S
O500 Fe489 1.996 . S
O500 C506 1.255 . S
O501 Fe491 1.976 . S
O501 C496 1.287 . S
O502 Fe488 1.996 . S
O502 C496 1.255 . S
C503 O507 1.295 . S
C503 O508 1.235 . S
O504 Fe489 1.976 . S
O504 C498 1.287 . S
O505 Fe491 1.996 . S
O505 C498 1.255 . S
C506 O499 1.287 . S
C506 O500 1.255 . S
O507 Fe489 2.002 . S
O507 C503 1.295 . S
O508 Fe491 1.997 . S
O508 C503 1.235 . S
C509 O492 1.295 . S
C509 O493 1.235 . S
Fe510 O512 1.918 . S
Fe510 O515 1.997 . S
Fe510 O516 2.002 . S
Fe510 O521 1.976 . S
Fe510 O524 1.996 . S
Fe511 O512 1.918 . S
Fe511 O519 1.997 . S
Fe511 O522 1.996 . S
Fe511 O526 1.976 . S
Fe511 O529 2.002 . S
O512 Fe510 1.918 . S
O512 Fe511 1.918 . S
O512 Fe513 1.918 . S
Fe513 O512 1.918 . S
Fe513 O514 2.002 . S
Fe513 O523 1.976 . S
Fe513 O527 1.996 . S
Fe513 O530 1.997 . S
O514 Fe513 2.002 . S
O514 C531 1.295 . S
O515 Fe510 1.997 . S
O515 C531 1.235 . S
O516 Fe510 2.002 . S
O516 C517 1.295 . S
C517 O516 1.295 . S
C517 O519 1.235 . S
C518 O523 1.287 . S
C518 O524 1.255 . S
O519 Fe511 1.997 . S
O519 C517 1.235 . S
C520 O526 1.287 . S
C520 O527 1.255 . S
O521 Fe510 1.976 . S
O521 C528 1.287 . S
O522 Fe511 1.996 . S
O522 C528 1.255 . S
O523 Fe513 1.976 . S
O523 C518 1.287 . S
O524 Fe510 1.996 . S
O524 C518 1.255 . S
C525 O529 1.295 . S
C525 O530 1.235 . S
O526 Fe511 1.976 . S
O526 C520 1.287 . S
O527 Fe513 1.996 . S
O527 C520 1.255 . S
C528 O521 1.287 . S
C528 O522 1.255 . S
O529 Fe511 2.002 . S
O529 C525 1.295 . S
O530 Fe513 1.997 . S
O530 C525 1.235 . S
C531 O514 1.295 . S
C531 O515 1.235 . S
Fe532 O534 1.918 . S
Fe532 O537 1.997 . S
Fe532 O538 2.002 . S
Fe532 O543 1.976 . S
Fe532 O546 1.996 . S
Fe533 O534 1.918 . S
Fe533 O541 1.997 . S
Fe533 O544 1.996 . S
Fe533 O548 1.976 . S
Fe533 O551 2.002 . S
O534 Fe532 1.918 . S
O534 Fe533 1.918 . S
O534 Fe535 1.918 . S
Fe535 O534 1.918 . S
Fe535 O536 2.002 . S
Fe535 O545 1.976 . S
Fe535 O549 1.996 . S
Fe535 O552 1.997 . S
O536 Fe535 2.002 . S
O536 C553 1.295 . S
O537 Fe532 1.997 . S
O537 C553 1.235 . S
O538 Fe532 2.002 . S
O538 C539 1.295 . S
C539 O538 1.295 . S
C539 O541 1.235 . S
C540 O545 1.287 . S
C540 O546 1.255 . S
O541 Fe533 1.997 . S
O541 C539 1.235 . S
C542 O548 1.287 . S
C542 O549 1.255 . S
O543 Fe532 1.976 . S
O543 C550 1.287 . S
O544 Fe533 1.996 . S
O544 C550 1.255 . S
O545 Fe535 1.976 . S
O545 C540 1.287 . S
O546 Fe532 1.996 . S
O546 C540 1.255 . S
C547 O551 1.295 . S
C547 O552 1.235 . S
O548 Fe533 1.976 . S
O548 C542 1.287 . S
O549 Fe535 1.996 . S
O549 C542 1.255 . S
C550 O543 1.287 . S
C550 O544 1.255 . S
O551 Fe533 2.002 . S
O551 C547 1.295 . S
O552 Fe535 1.997 . S
O552 C547 1.235 . S
C553 O536 1.295 . S
C553 O537 1.235 . S
Fe554 O556 1.918 . S
Fe554 O559 1.997 . S
Fe554 O560 2.002 . S
Fe554 O565 1.976 . S
Fe554 O568 1.996 . S
Fe555 O556 1.918 . S
Fe555 O563 1.997 . S
Fe555 O566 1.996 . S
Fe555 O570 1.976 . S
Fe555 O573 2.002 . S
O556 Fe554 1.918 . S
O556 Fe555 1.918 . S
O556 Fe557 1.918 . S
Fe557 O556 1.918 . S
Fe557 O558 2.002 . S
Fe557 O567 1.976 . S
Fe557 O571 1.996 . S
Fe557 O574 1.997 . S
O558 Fe557 2.002 . S
O558 C575 1.295 . S
O559 Fe554 1.997 . S
O559 C575 1.235 . S
O560 Fe554 2.002 . S
O560 C561 1.295 . S
C561 O560 1.295 . S
C561 O563 1.235 . S
C562 O567 1.287 . S
C562 O568 1.255 . S
O563 Fe555 1.997 . S
O563 C561 1.235 . S
C564 O570 1.287 . S
C564 O571 1.255 . S
O565 Fe554 1.976 . S
O565 C572 1.287 . S
O566 Fe555 1.996 . S
O566 C572 1.255 . S
O567 Fe557 1.976 . S
O567 C562 1.287 . S
O568 Fe554 1.996 . S
O568 C562 1.255 . S
C569 O573 1.295 . S
C569 O574 1.235 . S
O570 Fe555 1.976 . S
O570 C564 1.287 . S
O571 Fe557 1.996 . S
O571 C564 1.255 . S
C572 O565 1.287 . S
C572 O566 1.255 . S
O573 Fe555 2.002 . S
O573 C569 1.295 . S
O574 Fe557 1.997 . S
O574 C569 1.235 . S
C575 O558 1.295 . S
C575 O559 1.235 . S
Fe576 O578 1.918 . S
Fe576 O581 1.997 . S
Fe576 O582 2.002 . S
Fe576 O587 1.976 . S
Fe576 O590 1.996 . S
Fe577 O578 1.918 . S
Fe577 O585 1.997 . S
Fe577 O588 1.996 . S
Fe577 O592 1.976 . S
Fe577 O595 2.002 . S
O578 Fe576 1.918 . S
O578 Fe577 1.918 . S
O578 Fe579 1.918 . S
Fe579 O578 1.918 . S
Fe579 O580 2.002 . S
Fe579 O589 1.976 . S
Fe579 O593 1.996 . S
Fe579 O596 1.997 . S
O580 Fe579 2.002 . S
O580 C597 1.295 . S
O581 Fe576 1.997 . S
O581 C597 1.235 . S
O582 Fe576 2.002 . S
O582 C583 1.295 . S
C583 O582 1.295 . S
C583 O585 1.235 . S
C584 O589 1.287 . S
C584 O590 1.255 . S
O585 Fe577 1.997 . S
O585 C583 1.235 . S
C586 O592 1.287 . S
C586 O593 1.255 . S
O587 Fe576 1.976 . S
O587 C594 1.287 . S
O588 Fe577 1.996 . S
O588 C594 1.255 . S
O589 Fe579 1.976 . S
O589 C584 1.287 . S
O590 Fe576 1.996 . S
O590 C584 1.255 . S
C591 O595 1.295 . S
C591 O596 1.235 . S
O592 Fe577 1.976 . S
O592 C586 1.287 . S
O593 Fe579 1.996 . S
O593 C586 1.255 . S
C594 O587 1.287 . S
C594 O588 1.255 . S
O595 Fe577 2.002 . S
O595 C591 1.295 . S
O596 Fe579 1.997 . S
O596 C591 1.235 . S
C597 O580 1.295 . S
C597 O581 1.235 . S
Fe598 O600 1.918 . S
Fe598 O603 1.997 . S
Fe598 O604 2.002 . S
Fe598 O609 1.976 . S
Fe598 O612 1.996 . S
Fe599 O600 1.918 . S
Fe599 O607 1.997 . S
Fe599 O610 1.996 . S
Fe599 O614 1.976 . S
Fe599 O617 2.002 . S
O600 Fe598 1.918 . S
O600 Fe599 1.918 . S
O600 Fe601 1.918 . S
Fe601 O600 1.918 . S
Fe601 O602 2.002 . S
Fe601 O611 1.976 . S
Fe601 O615 1.996 . S
Fe601 O618 1.997 . S
O602 Fe601 2.002 . S
O602 C619 1.295 . S
O603 Fe598 1.997 . S
O603 C619 1.235 . S
O604 Fe598 2.002 . S
O604 C605 1.295 . S
C605 O604 1.295 . S
C605 O607 1.235 . S
C606 O611 1.287 . S
C606 O612 1.255 . S
O607 Fe599 1.997 . S
O607 C605 1.235 . S
C608 O614 1.287 . S
C608 O615 1.255 . S
O609 Fe598 1.976 . S
O609 C616 1.287 . S
O610 Fe599 1.996 . S
O610 C616 1.255 . S
O611 Fe601 1.976 . S
O611 C606 1.287 . S
O612 Fe598 1.996 . S
O612 C606 1.255 . S
C613 O617 1.295 . S
C613 O618 1.235 . S
O614 Fe599 1.976 . S
O614 C608 1.287 . S
O615 Fe601 1.996 . S
O615 C608 1.255 . S
C616 O609 1.287 . S
C616 O610 1.255 . S
O617 Fe599 2.002 . S
O617 C613 1.295 . S
O618 Fe601 1.997 . S
O618 C613 1.235 . S
C619 O602 1.295 . S
C619 O603 1.235 . S
Fe620 O622 1.918 . S
Fe620 O625 1.997 . S
Fe620 O626 2.002 . S
Fe620 O631 1.976 . S
Fe620 O634 1.996 . S
Fe621 O622 1.918 . S
Fe621 O629 1.997 . S
Fe621 O632 1.996 . S
Fe621 O636 1.976 . S
Fe621 O639 2.002 . S
O622 Fe620 1.918 . S
O622 Fe621 1.918 . S
O622 Fe623 1.918 . S
Fe623 O622 1.918 . S
Fe623 O624 2.002 . S
Fe623 O633 1.976 . S
Fe623 O637 1.996 . S
Fe623 O640 1.997 . S
O624 Fe623 2.002 . S
O624 C641 1.295 . S
O625 Fe620 1.997 . S
O625 C641 1.235 . S
O626 Fe620 2.002 . S
O626 C627 1.295 . S
C627 O626 1.295 . S
C627 O629 1.235 . S
C628 O633 1.287 . S
C628 O634 1.255 . S
O629 Fe621 1.997 . S
O629 C627 1.235 . S
C630 O636 1.287 . S
C630 O637 1.255 . S
O631 Fe620 1.976 . S
O631 C638 1.287 . S
O632 Fe621 1.996 . S
O632 C638 1.255 . S
O633 Fe623 1.976 . S
O633 C628 1.287 . S
O634 Fe620 1.996 . S
O634 C628 1.255 . S
C635 O639 1.295 . S
C635 O640 1.235 . S
O636 Fe621 1.976 . S
O636 C630 1.287 . S
O637 Fe623 1.996 . S
O637 C630 1.255 . S
C638 O631 1.287 . S
C638 O632 1.255 . S
O639 Fe621 2.002 . S
O639 C635 1.295 . S
O640 Fe623 1.997 . S
O640 C635 1.235 . S
C641 O624 1.295 . S
C641 O625 1.235 . S
Fe642 O644 1.918 . S
Fe642 O647 1.997 . S
Fe642 O648 2.002 . S
Fe642 O653 1.976 . S
Fe642 O656 1.996 . S
Fe643 O644 1.918 . S
Fe643 O651 1.997 . S
Fe643 O654 1.996 . S
Fe643 O658 1.976 . S
Fe643 O661 2.002 . S
O644 Fe642 1.918 . S
O644 Fe643 1.918 . S
O644 Fe645 1.918 . S
Fe645 O644 1.918 . S
Fe645 O646 2.002 . S
Fe645 O655 1.976 . S
Fe645 O659 1.996 . S
Fe645 O662 1.997 . S
O646 Fe645 2.002 . S
O646 C663 1.295 . S
O647 Fe642 1.997 . S
O647 C663 1.235 . S
O648 Fe642 2.002 . S
O648 C649 1.295 . S
C649 O648 1.295 . S
C649 O651 1.235 . S
C650 O655 1.287 . S
C650 O656 1.255 . S
O651 Fe643 1.997 . S
O651 C649 1.235 . S
C652 O658 1.287 . S
C652 O659 1.255 . S
O653 Fe642 1.976 . S
O653 C660 1.287 . S
O654 Fe643 1.996 . S
O654 C660 1.255 . S
O655 Fe645 1.976 . S
O655 C650 1.287 . S
O656 Fe642 1.996 . S
O656 C650 1.255 . S
C657 O661 1.295 . S
C657 O662 1.235 . S
O658 Fe643 1.976 . S
O658 C652 1.287 . S
O659 Fe645 1.996 . S
O659 C652 1.255 . S
C660 O653 1.287 . S
C660 O654 1.255 . S
O661 Fe643 2.002 . S
O661 C657 1.295 . S
O662 Fe645 1.997 . S
O662 C657 1.235 . S
C663 O646 1.295 . S
C663 O647 1.235 . S
H664 C670 0.930 . S
H665 C674 0.930 . S
H666 C679 0.929 . S
H667 C677 0.929 . S
H668 C672 0.929 . S
H669 C678 0.929 . S
C670 H664 0.930 . S
C670 C671 1.367 . S
C670 C678 1.378 . S
C671 C670 1.367 . S
C671 C679 1.433 . S
C672 H668 0.929 . S
C672 C674 1.378 . S
C672 C676 1.350 . S
C673 C676 1.463 . S
C673 C678 1.350 . S
C673 N681 1.427 . S
C674 H665 0.930 . S
C674 C672 1.378 . S
C674 C675 1.367 . S
C675 C674 1.367 . S
C675 C677 1.433 . S
C676 C672 1.350 . S
C676 C673 1.463 . S
C676 N680 1.427 . S
C677 H667 0.929 . S
C677 C675 1.433 . S
C677 N680 1.384 . S
C678 H669 0.929 . S
C678 C670 1.378 . S
C678 C673 1.350 . S
C679 H666 0.929 . S
C679 C671 1.433 . S
C679 N681 1.384 . S
N680 C676 1.427 . S
N680 C677 1.384 . S
N681 C673 1.427 . S
N681 C679 1.384 . S
H682 C688 0.930 . S
H683 C692 0.930 . S
H684 C697 0.929 . S
H685 C695 0.929 . S
H686 C690 0.929 . S
H687 C696 0.929 . S
C688 H682 0.930 . S
C688 C689 1.367 . S
C688 C696 1.378 . S
C689 C688 1.367 . S
C689 C697 1.433 . S
C690 H686 0.929 . S
C690 C692 1.378 . S
C690 C694 1.350 . S
C691 C694 1.463 . S
C691 C696 1.350 . S
C691 N699 1.427 . S
C692 H683 0.930 . S
C692 C690 1.378 . S
C692 C693 1.367 . S
C693 C692 1.367 . S
C693 C695 1.433 . S
C694 C690 1.350 . S
C694 C691 1.463 . S
C694 N698 1.427 . S
C695 H685 0.929 . S
C695 C693 1.433 . S
C695 N698 1.384 . S
C696 H687 0.929 . S
C696 C688 1.378 . S
C696 C691 1.350 . S
C697 H684 0.929 . S
C697 C689 1.433 . S
C697 N699 1.384 . S
N698 C694 1.427 . S
N698 C695 1.384 . S
N699 C691 1.427 . S
N699 C697 1.384 . S
H700 C706 0.930 . S
H701 C710 0.930 . S
H702 C715 0.929 . S
H703 C713 0.929 . S
H704 C708 0.929 . S
H705 C714 0.929 . S
C706 H700 0.930 . S
C706 C707 1.367 . S
C706 C714 1.378 . S
C707 C706 1.367 . S
C707 C715 1.433 . S
C708 H704 0.929 . S
C708 C710 1.378 . S
C708 C712 1.350 . S
C709 C712 1.463 . S
C709 C714 1.350 . S
C709 N717 1.427 . S
C710 H701 0.930 . S
C710 C708 1.378 . S
C710 C711 1.367 . S
C711 C710 1.367 . S
C711 C713 1.433 . S
C712 C708 1.350 . S
C712 C709 1.463 . S
C712 N716 1.427 . S
C713 H703 0.929 . S
C713 C711 1.433 . S
C713 N716 1.384 . S
C714 H705 0.929 . S
C714 C706 1.378 . S
C714 C709 1.350 . S
C715 H702 0.929 . S
C715 C707 1.433 . S
C715 N717 1.384 . S
N716 C712 1.427 . S
N716 C713 1.384 . S
N717 C709 1.427 . S
N717 C715 1.384 . S
H718 C724 0.930 . S
H719 C728 0.930 . S
H720 C733 0.929 . S
H721 C731 0.929 . S
H722 C726 0.929 . S
H723 C732 0.929 . S
C724 H718 0.930 . S
C724 C725 1.367 . S
C724 C732 1.378 . S
C725 C724 1.367 . S
C725 C733 1.433 . S
C726 H722 0.929 . S
C726 C728 1.378 1_554 S
C726 C730 1.350 . S
C727 C730 1.463 . S
C727 C732 1.350 . S
C727 N735 1.427 . S
C728 H719 0.930 . S
C728 C726 1.378 1_556 S
C728 C729 1.367 . S
C729 C728 1.367 . S
C729 C731 1.433 . S
C730 C726 1.350 . S
C730 C727 1.463 . S
C730 N734 1.427 1_554 S
C731 H721 0.929 . S
C731 C729 1.433 . S
C731 N734 1.384 . S
C732 H723 0.929 . S
C732 C724 1.378 . S
C732 C727 1.350 . S
C733 H720 0.929 . S
C733 C725 1.433 . S
C733 N735 1.384 . S
N734 C730 1.427 1_556 S
N734 C731 1.384 . S
N735 C727 1.427 . S
N735 C733 1.384 . S
H736 C742 0.930 . S
H737 C746 0.930 . S
H738 C751 0.929 . S
H739 C749 0.929 . S
H740 C744 0.929 . S
H741 C750 0.929 . S
C742 H736 0.930 . S
C742 C743 1.367 . S
C742 C750 1.378 . S
C743 C742 1.367 . S
C743 C751 1.433 . S
C744 H740 0.929 . S
C744 C746 1.378 . S
C744 C748 1.350 . S
C745 C748 1.463 . S
C745 C750 1.350 . S
C745 N753 1.427 . S
C746 H737 0.930 . S
C746 C744 1.378 . S
C746 C747 1.367 . S
C747 C746 1.367 . S
C747 C749 1.433 . S
C748 C744 1.350 . S
C748 C745 1.463 . S
C748 N752 1.427 . S
C749 H739 0.929 . S
C749 C747 1.433 . S
C749 N752 1.384 . S
C750 H741 0.929 . S
C750 C742 1.378 . S
C750 C745 1.350 . S
C751 H738 0.929 . S
C751 C743 1.433 . S
C751 N753 1.384 . S
N752 C748 1.427 . S
N752 C749 1.384 . S
N753 C745 1.427 . S
N753 C751 1.384 . S
H754 C760 0.930 . S
H755 C764 0.930 . S
H756 C769 0.929 . S
H757 C767 0.929 . S
H758 C762 0.929 . S
H759 C768 0.929 . S
C760 H754 0.930 . S
C760 C761 1.367 . S
C760 C768 1.378 . S
C761 C760 1.367 . S
C761 C769 1.433 . S
C762 H758 0.929 . S
C762 C764 1.378 . S
C762 C766 1.350 . S
C763 C766 1.463 . S
C763 C768 1.350 . S
C763 N771 1.427 . S
C764 H755 0.930 . S
C764 C762 1.378 . S
C764 C765 1.367 . S
C765 C764 1.367 . S
C765 C767 1.433 . S
C766 C762 1.350 . S
C766 C763 1.463 . S
C766 N770 1.427 . S
C767 H757 0.929 . S
C767 C765 1.433 . S
C767 N770 1.384 . S
C768 H759 0.929 . S
C768 C760 1.378 . S
C768 C763 1.350 . S
C769 H756 0.929 . S
C769 C761 1.433 . S
C769 N771 1.384 . S
N770 C766 1.427 . S
N770 C767 1.384 . S
N771 C763 1.427 . S
N771 C769 1.384 . S
H772 C778 0.930 . S
H773 C782 0.930 . S
H774 C787 0.929 . S
H775 C785 0.929 . S
H776 C780 0.929 . S
H777 C786 0.929 . S
C778 H772 0.930 . S
C778 C779 1.367 . S
C778 C786 1.378 . S
C779 C778 1.367 . S
C779 C787 1.433 . S
C780 H776 0.929 . S
C780 C782 1.378 . S
C780 C784 1.350 . S
C781 C784 1.463 . S
C781 C786 1.350 . S
C781 N789 1.427 . S
C782 H773 0.930 . S
C782 C780 1.378 . S
C782 C783 1.367 . S
C783 C782 1.367 . S
C783 C785 1.433 . S
C784 C780 1.350 . S
C784 C781 1.463 . S
C784 N788 1.427 . S
C785 H775 0.929 . S
C785 C783 1.433 . S
C785 N788 1.384 . S
C786 H777 0.929 . S
C786 C778 1.378 . S
C786 C781 1.350 . S
C787 H774 0.929 . S
C787 C779 1.433 . S
C787 N789 1.384 . S
N788 C784 1.427 . S
N788 C785 1.384 . S
N789 C781 1.427 . S
N789 C787 1.384 . S
H790 C796 0.930 . S
H791 C800 0.930 . S
H792 C805 0.929 . S
H793 C803 0.929 . S
H794 C798 0.929 . S
H795 C804 0.929 . S
C796 H790 0.930 . S
C796 C797 1.367 . S
C796 C804 1.378 . S
C797 C796 1.367 . S
C797 C805 1.433 . S
C798 H794 0.929 . S
C798 C800 1.378 . S
C798 C802 1.350 . S
C799 C802 1.463 1_556 S
C799 C804 1.350 . S
C799 N807 1.427 . S
C800 H791 0.930 . S
C800 C798 1.378 . S
C800 C801 1.367 . S
C801 C800 1.367 . S
C801 C803 1.433 . S
C802 C798 1.350 . S
C802 C799 1.463 1_554 S
C802 N806 1.427 1_554 S
C803 H793 0.929 . S
C803 C801 1.433 . S
C803 N806 1.384 1_554 S
C804 H795 0.929 . S
C804 C796 1.378 . S
C804 C799 1.350 . S
C805 H792 0.929 . S
C805 C797 1.433 . S
C805 N807 1.384 . S
N806 C802 1.427 1_556 S
N806 C803 1.384 1_556 S
N807 C799 1.427 . S
N807 C805 1.384 . S
H808 C814 0.930 . S
H809 C818 0.930 . S
H810 C823 0.929 . S
H811 C821 0.929 . S
H812 C816 0.929 . S
H813 C822 0.929 . S
C814 H808 0.930 . S
C814 C815 1.367 . S
C814 C822 1.378 . S
C815 C814 1.367 . S
C815 C823 1.433 . S
C816 H812 0.929 . S
C816 C818 1.378 . S
C816 C820 1.350 . S
C817 C820 1.463 . S
C817 C822 1.350 . S
C817 N825 1.427 . S
C818 H809 0.930 . S
C818 C816 1.378 . S
C818 C819 1.367 . S
C819 C818 1.367 . S
C819 C821 1.433 . S
C820 C816 1.350 . S
C820 C817 1.463 . S
C820 N824 1.427 . S
C821 H811 0.929 . S
C821 C819 1.433 . S
C821 N824 1.384 . S
C822 H813 0.929 . S
C822 C814 1.378 . S
C822 C817 1.350 . S
C823 H810 0.929 . S
C823 C815 1.433 . S
C823 N825 1.384 . S
N824 C820 1.427 . S
N824 C821 1.384 . S
N825 C817 1.427 . S
N825 C823 1.384 . S
H826 C832 0.930 . S
H827 C836 0.930 . S
H828 C841 0.929 . S
H829 C839 0.929 . S
H830 C834 0.929 . S
H831 C840 0.929 . S
C832 H826 0.930 . S
C832 C833 1.367 . S
C832 C840 1.378 . S
C833 C832 1.367 . S
C833 C841 1.433 . S
C834 H830 0.929 . S
C834 C836 1.378 . S
C834 C838 1.350 1_565 S
C835 C838 1.463 . S
C835 C840 1.350 . S
C835 N843 1.427 . S
C836 H827 0.930 . S
C836 C834 1.378 . S
C836 C837 1.367 . S
C837 C836 1.367 . S
C837 C839 1.433 . S
C838 C834 1.350 1_545 S
C838 C835 1.463 . S
C838 N842 1.427 1_545 S
C839 H829 0.929 . S
C839 C837 1.433 . S
C839 N842 1.384 . S
C840 H831 0.929 . S
C840 C832 1.378 . S
C840 C835 1.350 . S
C841 H828 0.929 . S
C841 C833 1.433 . S
C841 N843 1.384 . S
N842 C838 1.427 1_565 S
N842 C839 1.384 . S
N843 C835 1.427 . S
N843 C841 1.384 . S
H844 C850 0.930 . S
H845 C854 0.930 . S
H846 C859 0.929 . S
H847 C857 0.929 . S
H848 C852 0.929 . S
H849 C858 0.929 . S
C850 H844 0.930 . S
C850 C851 1.367 . S
C850 C858 1.378 . S
C851 C850 1.367 . S
C851 C859 1.433 . S
C852 H848 0.929 . S
C852 C854 1.378 . S
C852 C856 1.350 . S
C853 C856 1.463 . S
C853 C858 1.350 . S
C853 N861 1.427 . S
C854 H845 0.930 . S
C854 C852 1.378 . S
C854 C855 1.367 . S
C855 C854 1.367 . S
C855 C857 1.433 . S
C856 C852 1.350 . S
C856 C853 1.463 . S
C856 N860 1.427 . S
C857 H847 0.929 . S
C857 C855 1.433 . S
C857 N860 1.384 . S
C858 H849 0.929 . S
C858 C850 1.378 . S
C858 C853 1.350 . S
C859 H846 0.929 . S
C859 C851 1.433 . S
C859 N861 1.384 . S
N860 C856 1.427 . S
N860 C857 1.384 . S
N861 C853 1.427 . S
N861 C859 1.384 . S
H862 C868 0.930 . S
H863 C872 0.930 . S
H864 C877 0.929 . S
H865 C875 0.929 . S
H866 C870 0.929 . S
H867 C876 0.929 . S
C868 H862 0.930 . S
C868 C869 1.367 . S
C868 C876 1.378 . S
C869 C868 1.367 . S
C869 C877 1.433 . S
C870 H866 0.929 . S
C870 C872 1.378 . S
C870 C874 1.350 . S
C871 C874 1.463 1_565 S
C871 C876 1.350 . S
C871 N879 1.427 . S
C872 H863 0.930 . S
C872 C870 1.378 . S
C872 C873 1.367 . S
C873 C872 1.367 . S
C873 C875 1.433 . S
C874 C870 1.350 . S
C874 C871 1.463 1_545 S
C874 N878 1.427 . S
C875 H865 0.929 . S
C875 C873 1.433 . S
C875 N878 1.384 . S
C876 H867 0.929 . S
C876 C868 1.378 . S
C876 C871 1.350 . S
C877 H864 0.929 . S
C877 C869 1.433 . S
C877 N879 1.384 . S
N878 C874 1.427 . S
N878 C875 1.384 . S
N879 C871 1.427 . S
N879 C877 1.384 . S
H880 C886 0.930 . S
H881 C890 0.930 . S
H882 C895 0.929 1_545 S
H883 C893 0.929 . S
H884 C888 0.929 . S
H885 C894 0.929 . S
C886 H880 0.930 . S
C886 C887 1.367 . S
C886 C894 1.378 . S
C887 C886 1.367 . S
C887 C895 1.433 . S
C888 H884 0.929 . S
C888 C890 1.378 . S
C888 C892 1.350 . S
C889 C892 1.463 . S
C889 C894 1.350 . S
C889 N897 1.427 . S
C890 H881 0.930 . S
C890 C888 1.378 . S
C890 C891 1.367 . S
C891 C890 1.367 . S
C891 C893 1.433 . S
C892 C888 1.350 . S
C892 C889 1.463 . S
C892 N896 1.427 . S
C893 H883 0.929 . S
C893 C891 1.433 . S
C893 N896 1.384 . S
C894 H885 0.929 . S
C894 C886 1.378 . S
C894 C889 1.350 . S
C895 H882 0.929 1_565 S
C895 C887 1.433 . S
C895 N897 1.384 . S
N896 C892 1.427 . S
N896 C893 1.384 . S
N897 C889 1.427 . S
N897 C895 1.384 . S
H898 C904 0.930 . S
H899 C908 0.930 . S
H900 C913 0.929 . S
H901 C911 0.929 . S
H902 C906 0.929 1_545 S
H903 C912 0.929 . S
C904 H898 0.930 . S
C904 C905 1.367 . S
C904 C912 1.378 . S
C905 C904 1.367 . S
C905 C913 1.433 . S
C906 H902 0.929 1_565 S
C906 C908 1.378 . S
C906 C910 1.350 1_565 S
C907 C910 1.463 . S
C907 C912 1.350 . S
C907 N915 1.427 . S
C908 H899 0.930 . S
C908 C906 1.378 . S
C908 C909 1.367 . S
C909 C908 1.367 . S
C909 C911 1.433 . S
C910 C906 1.350 1_545 S
C910 C907 1.463 . S
C910 N914 1.427 1_545 S
C911 H901 0.929 . S
C911 C909 1.433 . S
C911 N914 1.384 . S
C912 H903 0.929 . S
C912 C904 1.378 . S
C912 C907 1.350 . S
C913 H900 0.929 . S
C913 C905 1.433 . S
C913 N915 1.384 . S
N914 C910 1.427 1_565 S
N914 C911 1.384 . S
N915 C907 1.427 . S
N915 C913 1.384 . S
H916 C922 0.930 . S
H917 C926 0.930 . S
H918 C931 0.929 . S
H919 C929 0.929 . S
H920 C924 0.929 . S
H921 C930 0.929 . S
C922 H916 0.930 . S
C922 C923 1.367 . S
C922 C930 1.378 . S
C923 C922 1.367 . S
C923 C931 1.433 . S
C924 H920 0.929 . S
C924 C926 1.378 . S
C924 C928 1.350 . S
C925 C928 1.463 . S
C925 C930 1.350 . S
C925 N933 1.427 . S
C926 H917 0.930 . S
C926 C924 1.378 . S
C926 C927 1.367 . S
C927 C926 1.367 . S
C927 C929 1.433 . S
C928 C924 1.350 . S
C928 C925 1.463 . S
C928 N932 1.427 . S
C929 H919 0.929 . S
C929 C927 1.433 . S
C929 N932 1.384 . S
C930 H921 0.929 . S
C930 C922 1.378 . S
C930 C925 1.350 . S
C931 H918 0.929 . S
C931 C923 1.433 . S
C931 N933 1.384 . S
N932 C928 1.427 . S
N932 C929 1.384 . S
N933 C925 1.427 . S
N933 C931 1.384 . S
H934 C940 0.930 . S
H935 C944 0.930 . S
H936 C949 0.929 . S
H937 C947 0.929 . S
H938 C942 0.929 . S
H939 C948 0.929 . S
C940 H934 0.930 . S
C940 C941 1.367 . S
C940 C948 1.378 . S
C941 C940 1.367 . S
C941 C949 1.433 . S
C942 H938 0.929 . S
C942 C944 1.378 . S
C942 C946 1.350 . S
C943 C946 1.463 1_565 S
C943 C948 1.350 . S
C943 N951 1.427 . S
C944 H935 0.930 . S
C944 C942 1.378 . S
C944 C945 1.367 . S
C945 C944 1.367 . S
C945 C947 1.433 . S
C946 C942 1.350 . S
C946 C943 1.463 1_545 S
C946 N950 1.427 . S
C947 H937 0.929 . S
C947 C945 1.433 . S
C947 N950 1.384 . S
C948 H939 0.929 . S
C948 C940 1.378 . S
C948 C943 1.350 . S
C949 H936 0.929 . S
C949 C941 1.433 . S
C949 N951 1.384 . S
N950 C946 1.427 . S
N950 C947 1.384 . S
N951 C943 1.427 . S
N951 C949 1.384 . S
H952 C958 0.930 . S
H953 C962 0.930 . S
H954 C967 0.929 . S
H955 C965 0.929 . S
H956 C960 0.929 . S
H957 C966 0.929 . S
C958 H952 0.930 . S
C958 C959 1.367 . S
C958 C966 1.378 . S
C959 C958 1.367 . S
C959 C967 1.433 . S
C960 H956 0.929 . S
C960 C962 1.378 . S
C960 C964 1.350 . S
C961 C964 1.463 . S
C961 C966 1.350 . S
C961 N969 1.427 . S
C962 H953 0.930 . S
C962 C960 1.378 . S
C962 C963 1.367 . S
C963 C962 1.367 . S
C963 C965 1.433 . S
C964 C960 1.350 . S
C964 C961 1.463 . S
C964 N968 1.427 . S
C965 H955 0.929 . S
C965 C963 1.433 . S
C965 N968 1.384 . S
C966 H957 0.929 . S
C966 C958 1.378 . S
C966 C961 1.350 . S
C967 H954 0.929 . S
C967 C959 1.433 . S
C967 N969 1.384 . S
N968 C964 1.427 . S
N968 C965 1.384 . S
N969 C961 1.427 . S
N969 C967 1.384 . S
H970 C976 0.930 . S
H971 C980 0.930 . S
H972 C985 0.929 . S
H973 C983 0.929 . S
H974 C978 0.929 . S
H975 C984 0.929 . S
C976 H970 0.930 . S
C976 C977 1.367 . S
C976 C984 1.378 . S
C977 C976 1.367 . S
C977 C985 1.433 . S
C978 H974 0.929 . S
C978 C980 1.378 . S
C978 C982 1.350 . S
C979 C982 1.463 . S
C979 C984 1.350 . S
C979 N987 1.427 . S
C980 H971 0.930 . S
C980 C978 1.378 . S
C980 C981 1.367 . S
C981 C980 1.367 . S
C981 C983 1.433 . S
C982 C978 1.350 . S
C982 C979 1.463 . S
C982 N986 1.427 . S
C983 H973 0.929 . S
C983 C981 1.433 . S
C983 N986 1.384 . S
C984 H975 0.929 . S
C984 C976 1.378 . S
C984 C979 1.350 . S
C985 H972 0.929 . S
C985 C977 1.433 . S
C985 N987 1.384 . S
N986 C982 1.427 . S
N986 C983 1.384 . S
N987 C979 1.427 . S
N987 C985 1.384 . S
H988 C994 0.930 . S
H989 C998 0.930 . S
H990 C1003 0.929 . S
H991 C1001 0.929 . S
H992 C996 0.929 . S
H993 C1002 0.929 . S
C994 H988 0.930 . S
C994 C995 1.367 . S
C994 C1002 1.378 . S
C995 C994 1.367 . S
C995 C1003 1.433 . S
C996 H992 0.929 . S
C996 C998 1.378 . S
C996 C1000 1.384 . S
C997 C1000 1.429 1_455 S
C997 C1002 1.350 . S
C997 N1005 1.427 . S
C998 H989 0.930 . S
C998 C996 1.378 . S
C998 C999 1.367 . S
C999 C998 1.367 . S
C999 C1001 1.433 . S
C1000 C996 1.384 . S
C1000 C997 1.429 1_655 S
C1000 N1004 1.425 1_655 S
C1001 H991 0.929 . S
C1001 C999 1.433 . S
C1001 N1004 1.384 1_655 S
C1002 H993 0.929 . S
C1002 C994 1.378 . S
C1002 C997 1.350 . S
C1003 H990 0.929 . S
C1003 C995 1.433 . S
C1003 N1005 1.384 . S
N1004 C1000 1.425 1_455 S
N1004 C1001 1.384 1_455 S
N1005 C997 1.427 . S
N1005 C1003 1.384 . S
H1006 C1012 0.930 . S
H1007 C1016 0.930 . S
H1008 C1021 0.929 . S
H1009 C1019 0.929 . S
H1010 C1014 0.929 . S
H1011 C1020 0.929 . S
C1012 H1006 0.930 . S
C1012 C1013 1.367 . S
C1012 C1020 1.378 . S
C1013 C1012 1.367 . S
C1013 C1021 1.433 . S
C1014 H1010 0.929 . S
C1014 C1016 1.378 . S
C1014 C1018 1.350 . S
C1015 C1018 1.463 . S
C1015 C1020 1.350 . S
C1015 N1023 1.427 . S
C1016 H1007 0.930 . S
C1016 C1014 1.378 . S
C1016 C1017 1.367 . S
C1017 C1016 1.367 . S
C1017 C1019 1.433 . S
C1018 C1014 1.350 . S
C1018 C1015 1.463 . S
C1018 N1022 1.427 . S
C1019 H1009 0.929 . S
C1019 C1017 1.433 . S
C1019 N1022 1.384 . S
C1020 H1011 0.929 . S
C1020 C1012 1.378 . S
C1020 C1015 1.350 . S
C1021 H1008 0.929 . S
C1021 C1013 1.433 . S
C1021 N1023 1.384 . S
N1022 C1018 1.427 . S
N1022 C1019 1.384 . S
N1023 C1015 1.427 . S
N1023 C1021 1.384 . S
H1024 C1030 0.930 . S
H1025 C1034 0.930 . S
H1026 C1039 0.929 . S
H1027 C1037 0.929 . S
H1028 C1032 0.929 . S
H1029 C1038 0.929 . S
C1030 H1024 0.930 . S
C1030 C1031 1.367 . S
C1030 C1038 1.378 . S
C1031 C1030 1.367 . S
C1031 C1039 1.433 . S
C1032 H1028 0.929 . S
C1032 C1034 1.378 . S
C1032 C1036 1.362 . S
C1033 C1036 1.435 1_655 S
C1033 C1038 1.350 . S
C1033 N1041 1.427 . S
C1034 H1025 0.930 . S
C1034 C1032 1.378 . S
C1034 C1035 1.367 . S
C1035 C1034 1.367 . S
C1035 C1037 1.433 . S
C1036 C1032 1.362 . S
C1036 C1033 1.435 1_455 S
C1036 N1040 1.442 . S
C1037 H1027 0.929 . S
C1037 C1035 1.433 . S
C1037 N1040 1.384 . S
C1038 H1029 0.929 . S
C1038 C1030 1.378 . S
C1038 C1033 1.350 . S
C1039 H1026 0.929 . S
C1039 C1031 1.433 . S
C1039 N1041 1.384 . S
N1040 C1036 1.442 . S
N1040 C1037 1.384 . S
N1041 C1033 1.427 . S
N1041 C1039 1.384 . S
H1042 C1048 0.930 . S
H1043 C1052 0.930 . S
H1044 C1057 0.929 . S
H1045 C1055 0.929 . S
H1046 C1050 0.929 . S
H1047 C1056 0.929 . S
C1048 H1042 0.930 . S
C1048 C1049 1.367 . S
C1048 C1056 1.378 . S
C1049 C1048 1.367 . S
C1049 C1057 1.433 . S
C1050 H1046 0.929 . S
C1050 C1052 1.378 . S
C1050 C1054 1.350 . S
C1051 C1054 1.463 . S
C1051 C1056 1.350 . S
C1051 N1059 1.427 . S
C1052 H1043 0.930 . S
C1052 C1050 1.378 . S
C1052 C1053 1.367 . S
C1053 C1052 1.367 . S
C1053 C1055 1.433 . S
C1054 C1050 1.350 . S
C1054 C1051 1.463 . S
C1054 N1058 1.427 . S
C1055 H1045 0.929 . S
C1055 C1053 1.433 . S
C1055 N1058 1.384 . S
C1056 H1047 0.929 . S
C1056 C1048 1.378 . S
C1056 C1051 1.350 . S
C1057 H1044 0.929 . S
C1057 C1049 1.433 . S
C1057 N1059 1.384 . S
N1058 C1054 1.427 . S
N1058 C1055 1.384 . S
N1059 C1051 1.427 . S
N1059 C1057 1.384 . S
H1060 C1066 0.930 . S
H1061 C1070 0.930 . S
H1062 C1075 0.929 . S
H1063 C1073 0.929 . S
H1064 C1068 0.929 1_455 S
H1065 C1074 0.929 . S
C1066 H1060 0.930 . S
C1066 C1067 1.367 . S
C1066 C1074 1.378 . S
C1067 C1066 1.367 . S
C1067 C1075 1.433 . S
C1068 H1064 0.929 1_655 S
C1068 C1070 1.378 . S
C1068 C1072 1.350 1_655 S
C1069 C1072 1.463 . S
C1069 C1074 1.350 . S
C1069 N1077 1.427 . S
C1070 H1061 0.930 . S
C1070 C1068 1.378 . S
C1070 C1071 1.367 . S
C1071 C1070 1.367 . S
C1071 C1073 1.433 . S
C1072 C1068 1.350 1_455 S
C1072 C1069 1.463 . S
C1072 N1076 1.427 1_455 S
C1073 H1063 0.929 . S
C1073 C1071 1.433 . S
C1073 N1076 1.384 . S
C1074 H1065 0.929 . S
C1074 C1066 1.378 . S
C1074 C1069 1.350 . S
C1075 H1062 0.929 . S
C1075 C1067 1.433 . S
C1075 N1077 1.384 . S
N1076 C1072 1.427 1_655 S
N1076 C1073 1.384 . S
N1077 C1069 1.427 . S
N1077 C1075 1.384 . S
H1078 C1084 0.930 . S
H1079 C1088 0.930 . S
H1080 C1093 0.929 . S
H1081 C1091 0.929 . S
H1082 C1086 0.929 . S
H1083 C1092 0.929 . S
C1084 H1078 0.930 . S
C1084 C1085 1.367 . S
C1084 C1092 1.378 . S
C1085 C1084 1.367 . S
C1085 C1093 1.433 . S
C1086 H1082 0.929 . S
C1086 C1088 1.378 . S
C1086 C1090 1.350 . S
C1087 C1090 1.463 . S
C1087 C1092 1.350 . S
C1087 N1095 1.427 . S
C1088 H1079 0.930 . S
C1088 C1086 1.378 . S
C1088 C1089 1.367 . S
C1089 C1088 1.367 . S
C1089 C1091 1.433 . S
C1090 C1086 1.350 . S
C1090 C1087 1.463 . S
C1090 N1094 1.427 . S
C1091 H1081 0.929 . S
C1091 C1089 1.433 . S
C1091 N1094 1.384 . S
C1092 H1083 0.929 . S
C1092 C1084 1.378 . S
C1092 C1087 1.350 . S
C1093 H1080 0.929 . S
C1093 C1085 1.433 . S
C1093 N1095 1.384 . S
N1094 C1090 1.427 . S
N1094 C1091 1.384 . S
N1095 C1087 1.427 . S
N1095 C1093 1.384 . S
H1096 C1102 0.930 . S
H1097 C1106 0.930 . S
H1098 C1111 0.929 . S
H1099 C1109 0.929 . S
H1100 C1104 0.929 . S
H1101 C1110 0.929 . S
C1102 H1096 0.930 . S
C1102 C1103 1.367 . S
C1102 C1110 1.378 . S
C1103 C1102 1.367 . S
C1103 C1111 1.433 . S
C1104 H1100 0.929 . S
C1104 C1106 1.378 . S
C1104 C1108 1.350 . S
C1105 C1108 1.463 . S
C1105 C1110 1.350 . S
C1105 N1113 1.427 . S
C1106 H1097 0.930 . S
C1106 C1104 1.378 . S
C1106 C1107 1.367 . S
C1107 C1106 1.367 . S
C1107 C1109 1.433 . S
C1108 C1104 1.350 . S
C1108 C1105 1.463 . S
C1108 N1112 1.427 . S
C1109 H1099 0.929 . S
C1109 C1107 1.433 . S
C1109 N1112 1.384 . S
C1110 H1101 0.929 . S
C1110 C1102 1.378 . S
C1110 C1105 1.350 . S
C1111 H1098 0.929 . S
C1111 C1103 1.433 . S
C1111 N1113 1.384 . S
N1112 C1108 1.427 . S
N1112 C1109 1.384 . S
N1113 C1105 1.427 . S
N1113 C1111 1.384 . S
H1114 C1120 0.930 . S
H1115 C1124 0.930 . S
H1116 C1129 0.929 . S
H1117 C1127 0.929 . S
H1118 C1122 0.929 . S
H1119 C1128 0.929 . S
C1120 H1114 0.930 . S
C1120 C1121 1.367 . S
C1120 C1128 1.378 . S
C1121 C1120 1.367 . S
C1121 C1129 1.433 . S
C1122 H1118 0.929 . S
C1122 C1124 1.378 . S
C1122 C1126 1.350 . S
C1123 C1126 1.463 . S
C1123 C1128 1.350 . S
C1123 N1131 1.427 . S
C1124 H1115 0.930 . S
C1124 C1122 1.378 . S
C1124 C1125 1.367 . S
C1125 C1124 1.367 . S
C1125 C1127 1.433 . S
C1126 C1122 1.350 . S
C1126 C1123 1.463 . S
C1126 N1130 1.427 . S
C1127 H1117 0.929 . S
C1127 C1125 1.433 . S
C1127 N1130 1.384 . S
C1128 H1119 0.929 . S
C1128 C1120 1.378 . S
C1128 C1123 1.350 . S
C1129 H1116 0.929 . S
C1129 C1121 1.433 . S
C1129 N1131 1.384 . S
N1130 C1126 1.427 . S
N1130 C1127 1.384 . S
N1131 C1123 1.427 . S
N1131 C1129 1.384 . S
H1132 C1138 0.930 . S
H1133 C1142 0.930 . S
H1134 C1147 0.929 . S
H1135 C1145 0.929 . S
H1136 C1140 0.929 . S
H1137 C1146 0.929 . S
C1138 H1132 0.930 . S
C1138 C1139 1.367 . S
C1138 C1146 1.378 . S
C1139 C1138 1.367 . S
C1139 C1147 1.433 . S
C1140 H1136 0.929 . S
C1140 C1142 1.378 . S
C1140 C1144 1.350 . S
C1141 C1144 1.463 . S
C1141 C1146 1.350 . S
C1141 N1149 1.427 . S
C1142 H1133 0.930 . S
C1142 C1140 1.378 . S
C1142 C1143 1.367 . S
C1143 C1142 1.367 . S
C1143 C1145 1.433 . S
C1144 C1140 1.350 . S
C1144 C1141 1.463 . S
C1144 N1148 1.427 . S
C1145 H1135 0.929 . S
C1145 C1143 1.433 . S
C1145 N1148 1.384 . S
C1146 H1137 0.929 . S
C1146 C1138 1.378 . S
C1146 C1141 1.350 . S
C1147 H1134 0.929 . S
C1147 C1139 1.433 . S
C1147 N1149 1.384 . S
N1148 C1144 1.427 . S
N1148 C1145 1.384 . S
N1149 C1141 1.427 . S
N1149 C1147 1.384 . S
H1150 C1156 0.930 . S
H1151 C1160 0.930 . S
H1152 C1165 0.929 . S
H1153 C1163 0.929 . S
H1154 C1158 0.937 . S
H1155 C1164 0.929 . S
C1156 H1150 0.930 . S
C1156 C1157 1.367 . S
C1156 C1164 1.378 . S
C1157 C1156 1.367 . S
C1157 C1165 1.433 . S
C1158 H1154 0.937 . S
C1158 C1160 1.378 . S
C1158 C1162 1.350 . S
C1159 C1162 1.463 1_556 S
C1159 C1164 1.350 . S
C1159 N1167 1.427 . S
C1160 H1151 0.930 . S
C1160 C1158 1.378 . S
C1160 C1161 1.367 . S
C1161 C1160 1.367 . S
C1161 C1163 1.433 . S
C1162 C1158 1.350 . S
C1162 C1159 1.463 1_554 S
C1162 N1166 1.427 . S
C1163 H1153 0.929 . S
C1163 C1161 1.433 . S
C1163 N1166 1.384 . S
C1164 H1155 0.929 . S
C1164 C1156 1.378 . S
C1164 C1159 1.350 . S
C1165 H1152 0.929 . S
C1165 C1157 1.433 . S
C1165 N1167 1.384 . S
N1166 C1162 1.427 . S
N1166 C1163 1.384 . S
N1167 C1159 1.427 . S
N1167 C1165 1.384 . S
H1168 C1174 0.930 . S
H1169 C1178 0.930 . S
H1170 C1183 0.929 . S
H1171 C1181 0.929 . S
H1172 C1176 0.929 . S
H1173 C1182 0.929 . S
C1174 H1168 0.930 . S
C1174 C1175 1.367 . S
C1174 C1182 1.378 . S
C1175 C1174 1.367 . S
C1175 C1183 1.433 . S
C1176 H1172 0.929 . S
C1176 C1178 1.378 . S
C1176 C1180 1.350 . S
C1177 C1180 1.463 . S
C1177 C1182 1.350 . S
C1177 N1185 1.427 . S
C1178 H1169 0.930 . S
C1178 C1176 1.378 . S
C1178 C1179 1.367 . S
C1179 C1178 1.367 . S
C1179 C1181 1.433 . S
C1180 C1176 1.350 . S
C1180 C1177 1.463 . S
C1180 N1184 1.427 . S
C1181 H1171 0.929 . S
C1181 C1179 1.433 . S
C1181 N1184 1.384 . S
C1182 H1173 0.929 . S
C1182 C1174 1.378 . S
C1182 C1177 1.350 . S
C1183 H1170 0.929 . S
C1183 C1175 1.433 . S
C1183 N1185 1.384 . S
N1184 C1180 1.427 . S
N1184 C1181 1.384 . S
N1185 C1177 1.427 . S
N1185 C1183 1.384 . S
H1186 C1192 0.930 . S
H1187 C1196 0.930 . S
H1188 C1201 0.929 . S
H1189 C1199 0.929 . S
H1190 C1194 0.929 . S
H1191 C1200 0.929 . S
C1192 H1186 0.930 . S
C1192 C1193 1.367 . S
C1192 C1200 1.378 . S
C1193 C1192 1.367 . S
C1193 C1201 1.433 . S
C1194 H1190 0.929 . S
C1194 C1196 1.378 . S
C1194 C1198 1.350 . S
C1195 C1198 1.463 . S
C1195 C1200 1.350 . S
C1195 N1203 1.427 . S
C1196 H1187 0.930 . S
C1196 C1194 1.378 . S
C1196 C1197 1.367 . S
C1197 C1196 1.367 . S
C1197 C1199 1.433 . S
C1198 C1194 1.350 . S
C1198 C1195 1.463 . S
C1198 N1202 1.427 . S
C1199 H1189 0.929 . S
C1199 C1197 1.433 . S
C1199 N1202 1.384 . S
C1200 H1191 0.929 . S
C1200 C1192 1.378 . S
C1200 C1195 1.350 . S
C1201 H1188 0.929 . S
C1201 C1193 1.433 . S
C1201 N1203 1.384 . S
N1202 C1198 1.427 . S
N1202 C1199 1.384 . S
N1203 C1195 1.427 . S
N1203 C1201 1.384 . S
H1204 C1210 0.930 . S
H1205 C1214 0.930 . S
H1206 C1219 0.929 . S
H1207 C1217 0.929 . S
H1208 C1212 0.929 . S
H1209 C1218 0.929 . S
C1210 H1204 0.930 . S
C1210 C1211 1.367 . S
C1210 C1218 1.378 . S
C1211 C1210 1.367 . S
C1211 C1219 1.433 . S
C1212 H1208 0.929 . S
C1212 C1214 1.378 . S
C1212 C1216 1.350 . S
C1213 C1216 1.463 . S
C1213 C1218 1.350 . S
C1213 N1221 1.427 . S
C1214 H1205 0.930 . S
C1214 C1212 1.378 . S
C1214 C1215 1.367 . S
C1215 C1214 1.367 . S
C1215 C1217 1.433 . S
C1216 C1212 1.350 . S
C1216 C1213 1.463 . S
C1216 N1220 1.427 . S
C1217 H1207 0.929 . S
C1217 C1215 1.433 . S
C1217 N1220 1.384 . S
C1218 H1209 0.929 . S
C1218 C1210 1.378 . S
C1218 C1213 1.350 . S
C1219 H1206 0.929 . S
C1219 C1211 1.433 . S
C1219 N1221 1.384 . S
N1220 C1216 1.427 . S
N1220 C1217 1.384 . S
N1221 C1213 1.427 . S
N1221 C1219 1.384 . S
H1222 C1228 0.930 1_455 S
H1223 C1232 0.930 . S
H1224 C1237 0.929 . S
H1225 C1235 0.929 . S
H1226 C1230 0.906 1_554 S
H1227 C1236 0.929 . S
C1228 H1222 0.930 1_655 S
C1228 C1229 1.367 . S
C1228 C1236 1.378 . S
C1229 C1228 1.367 . S
C1229 C1237 1.433 . S
C1230 H1226 0.906 1_556 S
C1230 C1232 1.404 . S
C1230 C1234 1.347 1_556 S
C1231 C1234 1.463 . S
C1231 C1236 1.350 . S
C1231 N1239 1.427 . S
C1232 H1223 0.930 . S
C1232 C1230 1.404 . S
C1232 C1233 1.367 . S
C1233 C1232 1.367 . S
C1233 C1235 1.433 . S
C1234 C1230 1.347 1_554 S
C1234 C1231 1.463 . S
C1234 N1238 1.427 1_554 S
C1235 H1225 0.929 . S
C1235 C1233 1.433 . S
C1235 N1238 1.384 . S
C1236 H1227 0.929 . S
C1236 C1228 1.378 . S
C1236 C1231 1.350 . S
C1237 H1224 0.929 . S
C1237 C1229 1.433 . S
C1237 N1239 1.384 . S
N1238 C1234 1.427 1_556 S
N1238 C1235 1.384 . S
N1239 C1231 1.427 . S
N1239 C1237 1.384 . S
H1240 C1246 0.930 . S
H1241 C1250 0.930 . S
H1242 C1255 0.929 . S
H1243 C1253 0.929 . S
H1244 C1248 0.929 . S
H1245 C1254 0.929 . S
C1246 H1240 0.930 . S
C1246 C1247 1.367 . S
C1246 C1254 1.378 . S
C1247 C1246 1.367 . S
C1247 C1255 1.433 . S
C1248 H1244 0.929 . S
C1248 C1250 1.378 . S
C1248 C1252 1.350 . S
C1249 C1252 1.463 . S
C1249 C1254 1.350 . S
C1249 N1257 1.427 . S
C1250 H1241 0.930 . S
C1250 C1248 1.378 . S
C1250 C1251 1.367 . S
C1251 C1250 1.367 . S
C1251 C1253 1.433 . S
C1252 C1248 1.350 . S
C1252 C1249 1.463 . S
C1252 N1256 1.427 . S
C1253 H1243 0.929 . S
C1253 C1251 1.433 . S
C1253 N1256 1.384 . S
C1254 H1245 0.929 . S
C1254 C1246 1.378 . S
C1254 C1249 1.350 . S
C1255 H1242 0.929 . S
C1255 C1247 1.433 . S
C1255 N1257 1.384 . S
N1256 C1252 1.427 . S
N1256 C1253 1.384 . S
N1257 C1249 1.427 . S
N1257 C1255 1.384 . S
H1258 C1264 0.930 . S
H1259 C1268 0.930 . S
H1260 C1273 0.929 . S
H1261 C1271 0.929 . S
H1262 C1266 0.929 . S
H1263 C1272 0.929 . S
C1264 H1258 0.930 . S
C1264 C1265 1.367 . S
C1264 C1272 1.378 . S
C1265 C1264 1.367 . S
C1265 C1273 1.433 . S
C1266 H1262 0.929 . S
C1266 C1268 1.378 . S
C1266 C1270 1.350 . S
C1267 C1270 1.463 1_565 S
C1267 C1272 1.350 . S
C1267 N1275 1.427 . S
C1268 H1259 0.930 . S
C1268 C1266 1.378 . S
C1268 C1269 1.367 . S
C1269 C1268 1.367 . S
C1269 C1271 1.433 . S
C1270 C1266 1.350 . S
C1270 C1267 1.463 1_545 S
C1270 N1274 1.427 . S
C1271 H1261 0.929 . S
C1271 C1269 1.433 . S
C1271 N1274 1.384 . S
C1272 H1263 0.929 . S
C1272 C1264 1.378 . S
C1272 C1267 1.350 . S
C1273 H1260 0.929 . S
C1273 C1265 1.433 . S
C1273 N1275 1.384 . S
N1274 C1270 1.427 . S
N1274 C1271 1.384 . S
N1275 C1267 1.427 . S
N1275 C1273 1.384 . S
H1276 C1282 0.930 . S
H1277 C1286 0.930 . S
H1278 C1291 0.929 . S
H1279 C1289 0.929 . S
H1280 C1284 0.929 . S
H1281 C1290 0.929 . S
C1282 H1276 0.930 . S
C1282 C1283 1.367 . S
C1282 C1290 1.378 . S
C1283 C1282 1.367 . S
C1283 C1291 1.433 . S
C1284 H1280 0.929 . S
C1284 C1286 1.378 . S
C1284 C1288 1.350 . S
C1285 C1288 1.463 . S
C1285 C1290 1.350 . S
C1285 N1293 1.427 . S
C1286 H1277 0.930 . S
C1286 C1284 1.378 . S
C1286 C1287 1.367 . S
C1287 C1286 1.367 . S
C1287 C1289 1.433 . S
C1288 C1284 1.350 . S
C1288 C1285 1.463 . S
C1288 N1292 1.427 . S
C1289 H1279 0.929 . S
C1289 C1287 1.433 . S
C1289 N1292 1.384 . S
C1290 H1281 0.929 . S
C1290 C1282 1.378 . S
C1290 C1285 1.350 . S
C1291 H1278 0.929 . S
C1291 C1283 1.433 . S
C1291 N1293 1.384 . S
N1292 C1288 1.427 . S
N1292 C1289 1.384 . S
N1293 C1285 1.427 . S
N1293 C1291 1.384 . S
H1294 C1300 0.927 1_556 S
H1295 C1304 0.930 . S
H1296 C1309 0.929 . S
H1297 C1307 0.929 . S
H1298 C1302 0.929 . S
H1299 C1308 0.929 . S
C1300 H1294 0.927 1_554 S
C1300 C1301 1.367 . S
C1300 C1308 1.378 . S
C1301 C1300 1.367 . S
C1301 C1309 1.433 . S
C1302 H1298 0.929 . S
C1302 C1304 1.378 1_545 S
C1302 C1306 1.350 . S
C1303 C1306 1.463 . S
C1303 C1308 1.350 . S
C1303 N1311 1.427 . S
C1304 H1295 0.930 . S
C1304 C1302 1.378 1_565 S
C1304 C1305 1.367 . S
C1305 C1304 1.367 . S
C1305 C1307 1.433 . S
C1306 C1302 1.350 . S
C1306 C1303 1.463 . S
C1306 N1310 1.427 1_545 S
C1307 H1297 0.929 . S
C1307 C1305 1.433 . S
C1307 N1310 1.384 . S
C1308 H1299 0.929 . S
C1308 C1300 1.378 . S
C1308 C1303 1.350 . S
C1309 H1296 0.929 . S
C1309 C1301 1.433 . S
C1309 N1311 1.384 . S
N1310 C1306 1.427 1_565 S
N1310 C1307 1.384 . S
N1311 C1303 1.427 . S
N1311 C1309 1.384 . S
H1312 C1318 0.930 . S
H1313 C1322 0.930 . S
H1314 C1327 0.929 . S
H1315 C1325 0.929 . S
H1316 C1320 0.929 . S
H1317 C1326 0.929 . S
C1318 H1312 0.930 . S
C1318 C1319 1.367 . S
C1318 C1326 1.378 . S
C1319 C1318 1.367 . S
C1319 C1327 1.433 . S
C1320 H1316 0.929 . S
C1320 C1322 1.378 . S
C1320 C1324 1.350 . S
C1321 C1324 1.463 . S
C1321 C1326 1.350 . S
C1321 N1329 1.427 . S
C1322 H1313 0.930 . S
C1322 C1320 1.378 . S
C1322 C1323 1.367 . S
C1323 C1322 1.367 . S
C1323 C1325 1.433 . S
C1324 C1320 1.350 . S
C1324 C1321 1.463 . S
C1324 N1328 1.427 . S
C1325 H1315 0.929 . S
C1325 C1323 1.433 . S
C1325 N1328 1.384 . S
C1326 H1317 0.929 . S
C1326 C1318 1.378 . S
C1326 C1321 1.350 . S
C1327 H1314 0.929 . S
C1327 C1319 1.433 . S
C1327 N1329 1.384 . S
N1328 C1324 1.427 . S
N1328 C1325 1.384 . S
N1329 C1321 1.427 . S
N1329 C1327 1.384 . S
H1330 C1336 0.930 . S
H1331 C1340 0.930 . S
H1332 C1345 0.929 . S
H1333 C1343 0.929 . S
H1334 C1338 0.929 . S
H1335 C1344 0.947 . S
C1336 H1330 0.930 . S
C1336 C1337 1.367 . S
C1336 C1344 1.378 . S
C1337 C1336 1.367 . S
C1337 C1345 1.433 . S
C1338 H1334 0.929 . S
C1338 C1340 1.378 1_565 S
C1338 C1342 1.346 1_565 S
C1339 C1342 1.441 1_565 S
C1339 C1344 1.350 . S
C1339 N1347 1.427 . S
C1340 H1331 0.930 . S
C1340 C1338 1.378 1_545 S
C1340 C1341 1.367 . S
C1341 C1340 1.367 . S
C1341 C1343 1.433 . S
C1342 C1338 1.346 1_545 S
C1342 C1339 1.441 1_545 S
C1342 N1346 1.454 . S
C1343 H1333 0.929 . S
C1343 C1341 1.433 . S
C1343 N1346 1.384 . S
C1344 H1335 0.947 . S
C1344 C1336 1.378 . S
C1344 C1339 1.350 . S
C1345 H1332 0.929 . S
C1345 C1337 1.433 . S
C1345 N1347 1.384 . S
N1346 C1342 1.454 . S
N1346 C1343 1.384 . S
N1347 C1339 1.427 . S
N1347 C1345 1.384 . S
H1348 C1354 0.930 . S
H1349 C1358 0.930 . S
H1350 C1363 0.929 . S
H1351 C1361 0.929 . S
H1352 C1356 0.929 . S
H1353 C1362 0.929 . S
C1354 H1348 0.930 . S
C1354 C1355 1.367 . S
C1354 C1362 1.378 . S
C1355 C1354 1.367 . S
C1355 C1363 1.433 . S
C1356 H1352 0.929 . S
C1356 C1358 1.378 . S
C1356 C1360 1.350 . S
C1357 C1360 1.463 . S
C1357 C1362 1.350 . S
C1357 N1365 1.427 . S
C1358 H1349 0.930 . S
C1358 C1356 1.378 . S
C1358 C1359 1.367 . S
C1359 C1358 1.367 . S
C1359 C1361 1.433 . S
C1360 C1356 1.350 . S
C1360 C1357 1.463 . S
C1360 N1364 1.427 . S
C1361 H1351 0.929 . S
C1361 C1359 1.433 . S
C1361 N1364 1.384 . S
C1362 H1353 0.929 . S
C1362 C1354 1.378 . S
C1362 C1357 1.350 . S
C1363 H1350 0.929 . S
C1363 C1355 1.433 . S
C1363 N1365 1.384 . S
N1364 C1360 1.427 . S
N1364 C1361 1.384 . S
N1365 C1357 1.427 . S
N1365 C1363 1.384 . S
H1366 C1372 0.930 . S
H1367 C1376 0.930 . S
H1368 C1381 0.929 . S
H1369 C1379 0.929 . S
H1370 C1374 0.929 . S
H1371 C1380 0.929 . S
C1372 H1366 0.930 . S
C1372 C1373 1.367 . S
C1372 C1380 1.378 . S
C1373 C1372 1.367 . S
C1373 C1381 1.433 . S
C1374 H1370 0.929 . S
C1374 C1376 1.378 1_545 S
C1374 C1378 1.350 . S
C1375 C1378 1.463 . S
C1375 C1380 1.350 . S
C1375 N1383 1.427 . S
C1376 H1367 0.930 . S
C1376 C1374 1.378 1_565 S
C1376 C1377 1.367 . S
C1377 C1376 1.367 . S
C1377 C1379 1.433 . S
C1378 C1374 1.350 . S
C1378 C1375 1.463 . S
C1378 N1382 1.427 1_545 S
C1379 H1369 0.929 . S
C1379 C1377 1.433 . S
C1379 N1382 1.384 . S
C1380 H1371 0.929 . S
C1380 C1372 1.378 . S
C1380 C1375 1.350 . S
C1381 H1368 0.929 . S
C1381 C1373 1.433 . S
C1381 N1383 1.384 . S
N1382 C1378 1.427 1_565 S
N1382 C1379 1.384 . S
N1383 C1375 1.427 . S
N1383 C1381 1.384 . S
H1384 C1390 0.930 . S
H1385 C1394 0.930 . S
H1386 C1399 0.929 . S
H1387 C1397 0.929 . S
H1388 C1392 0.929 . S
H1389 C1398 0.929 . S
C1390 H1384 0.930 . S
C1390 C1391 1.367 . S
C1390 C1398 1.378 . S
C1391 C1390 1.367 . S
C1391 C1399 1.433 . S
C1392 H1388 0.929 . S
C1392 C1394 1.378 . S
C1392 C1396 1.350 . S
C1393 C1396 1.463 . S
C1393 C1398 1.350 . S
C1393 N1401 1.427 . S
C1394 H1385 0.930 . S
C1394 C1392 1.378 . S
C1394 C1395 1.367 . S
C1395 C1394 1.367 . S
C1395 C1397 1.433 . S
C1396 C1392 1.350 . S
C1396 C1393 1.463 . S
C1396 N1400 1.427 . S
C1397 H1387 0.929 . S
C1397 C1395 1.433 . S
C1397 N1400 1.384 . S
C1398 H1389 0.929 . S
C1398 C1390 1.378 . S
C1398 C1393 1.350 . S
C1399 H1386 0.929 . S
C1399 C1391 1.433 . S
C1399 N1401 1.384 . S
N1400 C1396 1.427 . S
N1400 C1397 1.384 . S
N1401 C1393 1.427 . S
N1401 C1399 1.384 . S
H1402 C1408 0.930 . S
H1403 C1412 0.930 . S
H1404 C1417 0.929 . S
H1405 C1415 0.929 . S
H1406 C1410 0.929 . S
H1407 C1416 0.929 . S
C1408 H1402 0.930 . S
C1408 C1409 1.367 . S
C1408 C1416 1.378 . S
C1409 C1408 1.367 . S
C1409 C1417 1.433 . S
C1410 H1406 0.929 . S
C1410 C1412 1.378 . S
C1410 C1414 1.350 . S
C1411 C1414 1.463 . S
C1411 C1416 1.350 . S
C1411 N1419 1.427 . S
C1412 H1403 0.930 . S
C1412 C1410 1.378 . S
C1412 C1413 1.367 . S
C1413 C1412 1.367 . S
C1413 C1415 1.433 . S
C1414 C1410 1.350 . S
C1414 C1411 1.463 . S
C1414 N1418 1.427 . S
C1415 H1405 0.929 . S
C1415 C1413 1.433 . S
C1415 N1418 1.384 . S
C1416 H1407 0.929 . S
C1416 C1408 1.378 . S
C1416 C1411 1.350 . S
C1417 H1404 0.929 . S
C1417 C1409 1.433 . S
C1417 N1419 1.384 . S
N1418 C1414 1.427 . S
N1418 C1415 1.384 . S
N1419 C1411 1.427 . S
N1419 C1417 1.384 . S
H1420 C1426 0.930 . S
H1421 C1430 0.930 . S
H1422 C1435 0.929 . S
H1423 C1433 0.929 . S
H1424 C1428 0.929 . S
H1425 C1434 0.929 . S
C1426 H1420 0.930 . S
C1426 C1427 1.367 . S
C1426 C1434 1.378 . S
C1427 C1426 1.367 . S
C1427 C1435 1.433 . S
C1428 H1424 0.929 . S
C1428 C1430 1.378 1_655 S
C1428 C1432 1.350 . S
C1429 C1432 1.463 . S
C1429 C1434 1.350 . S
C1429 N1437 1.427 . S
C1430 H1421 0.930 . S
C1430 C1428 1.378 1_455 S
C1430 C1431 1.367 . S
C1431 C1430 1.367 . S
C1431 C1433 1.433 . S
C1432 C1428 1.350 . S
C1432 C1429 1.463 . S
C1432 N1436 1.427 1_655 S
C1433 H1423 0.929 . S
C1433 C1431 1.433 . S
C1433 N1436 1.384 . S
C1434 H1425 0.929 . S
C1434 C1426 1.378 . S
C1434 C1429 1.350 . S
C1435 H1422 0.929 . S
C1435 C1427 1.433 . S
C1435 N1437 1.384 . S
N1436 C1432 1.427 1_455 S
N1436 C1433 1.384 . S
N1437 C1429 1.427 . S
N1437 C1435 1.384 . S
H1438 C1444 0.930 . S
H1439 C1448 0.930 . S
H1440 C1453 0.929 . S
H1441 C1451 0.929 . S
H1442 C1446 0.929 . S
H1443 C1452 0.929 . S
C1444 H1438 0.930 . S
C1444 C1445 1.367 . S
C1444 C1452 1.378 . S
C1445 C1444 1.367 . S
C1445 C1453 1.433 . S
C1446 H1442 0.929 . S
C1446 C1448 1.378 . S
C1446 C1450 1.350 . S
C1447 C1450 1.463 . S
C1447 C1452 1.350 . S
C1447 N1455 1.427 . S
C1448 H1439 0.930 . S
C1448 C1446 1.378 . S
C1448 C1449 1.367 . S
C1449 C1448 1.367 . S
C1449 C1451 1.433 . S
C1450 C1446 1.350 . S
C1450 C1447 1.463 . S
C1450 N1454 1.427 . S
C1451 H1441 0.929 . S
C1451 C1449 1.433 . S
C1451 N1454 1.384 . S
C1452 H1443 0.929 . S
C1452 C1444 1.378 . S
C1452 C1447 1.350 . S
C1453 H1440 0.929 . S
C1453 C1445 1.433 . S
C1453 N1455 1.384 . S
N1454 C1450 1.427 . S
N1454 C1451 1.384 . S
N1455 C1447 1.427 . S
N1455 C1453 1.384 . S
H1456 C1462 0.930 1_545 S
H1457 C1466 0.930 . S
H1458 C1471 0.929 . S
H1459 C1469 0.929 . S
H1460 C1464 0.929 1_455 S
H1461 C1470 0.929 . S
C1462 H1456 0.930 1_565 S
C1462 C1463 1.367 . S
C1462 C1470 1.378 . S
C1463 C1462 1.367 . S
C1463 C1471 1.433 . S
C1464 H1460 0.929 1_655 S
C1464 C1466 1.378 . S
C1464 C1468 1.342 1_655 S
C1465 C1468 1.495 . S
C1465 C1470 1.350 . S
C1465 N1473 1.427 . S
C1466 H1457 0.930 . S
C1466 C1464 1.378 . S
C1466 C1467 1.367 . S
C1467 C1466 1.367 . S
C1467 C1469 1.433 . S
C1468 C1464 1.342 1_455 S
C1468 C1465 1.495 . S
C1468 N1472 1.405 1_455 S
C1469 H1459 0.929 . S
C1469 C1467 1.433 . S
C1469 N1472 1.384 . S
C1470 H1461 0.929 . S
C1470 C1462 1.378 . S
C1470 C1465 1.350 . S
C1471 H1458 0.929 . S
C1471 C1463 1.433 . S
C1471 N1473 1.384 . S
N1472 C1468 1.405 1_655 S
N1472 C1469 1.384 . S
N1473 C1465 1.427 . S
N1473 C1471 1.384 . S
H1474 C1480 0.930 . S
H1475 C1484 0.930 . S
H1476 C1489 0.929 . S
H1477 C1487 0.929 . S
H1478 C1482 0.929 . S
H1479 C1488 0.929 . S
C1480 H1474 0.930 . S
C1480 C1481 1.367 . S
C1480 C1488 1.378 . S
C1481 C1480 1.367 . S
C1481 C1489 1.433 . S
C1482 H1478 0.929 . S
C1482 C1484 1.378 . S
C1482 C1486 1.350 . S
C1483 C1486 1.463 . S
C1483 C1488 1.350 . S
C1483 N1491 1.427 . S
C1484 H1475 0.930 . S
C1484 C1482 1.378 . S
C1484 C1485 1.367 . S
C1485 C1484 1.367 . S
C1485 C1487 1.433 . S
C1486 C1482 1.350 . S
C1486 C1483 1.463 . S
C1486 N1490 1.427 . S
C1487 H1477 0.929 . S
C1487 C1485 1.433 . S
C1487 N1490 1.384 . S
C1488 H1479 0.929 . S
C1488 C1480 1.378 . S
C1488 C1483 1.350 . S
C1489 H1476 0.929 . S
C1489 C1481 1.433 . S
C1489 N1491 1.384 . S
N1490 C1486 1.427 . S
N1490 C1487 1.384 . S
N1491 C1483 1.427 . S
N1491 C1489 1.384 . S
H1492 C1498 0.930 . S
H1493 C1502 0.930 . S
H1494 C1507 0.929 . S
H1495 C1505 0.929 . S
H1496 C1500 0.929 . S
H1497 C1506 0.929 . S
C1498 H1492 0.930 . S
C1498 C1499 1.367 . S
C1498 C1506 1.378 . S
C1499 C1498 1.367 . S
C1499 C1507 1.433 . S
C1500 H1496 0.929 . S
C1500 C1502 1.378 1_655 S
C1500 C1504 1.350 . S
C1501 C1504 1.463 . S
C1501 C1506 1.350 . S
C1501 N1509 1.427 . S
C1502 H1493 0.930 . S
C1502 C1500 1.378 1_455 S
C1502 C1503 1.367 . S
C1503 C1502 1.367 . S
C1503 C1505 1.433 . S
C1504 C1500 1.350 . S
C1504 C1501 1.463 . S
C1504 N1508 1.427 1_655 S
C1505 H1495 0.929 . S
C1505 C1503 1.433 . S
C1505 N1508 1.384 . S
C1506 H1497 0.929 . S
C1506 C1498 1.378 . S
C1506 C1501 1.350 . S
C1507 H1494 0.929 . S
C1507 C1499 1.433 . S
C1507 N1509 1.384 . S
N1508 C1504 1.427 1_455 S
N1508 C1505 1.384 . S
N1509 C1501 1.427 . S
N1509 C1507 1.384 . S
H1510 C1516 0.930 . S
H1511 C1520 0.930 . S
H1512 C1525 0.929 . S
H1513 C1523 0.929 . S
H1514 C1518 0.929 . S
H1515 C1524 0.929 . S
C1516 H1510 0.930 . S
C1516 C1517 1.367 . S
C1516 C1524 1.378 . S
C1517 C1516 1.367 . S
C1517 C1525 1.433 . S
C1518 H1514 0.929 . S
C1518 C1520 1.378 . S
C1518 C1522 1.350 . S
C1519 C1522 1.463 . S
C1519 C1524 1.350 . S
C1519 N1527 1.427 . S
C1520 H1511 0.930 . S
C1520 C1518 1.378 . S
C1520 C1521 1.367 . S
C1521 C1520 1.367 . S
C1521 C1523 1.433 . S
C1522 C1518 1.350 . S
C1522 C1519 1.463 . S
C1522 N1526 1.427 . S
C1523 H1513 0.929 . S
C1523 C1521 1.433 . S
C1523 N1526 1.384 . S
C1524 H1515 0.929 . S
C1524 C1516 1.378 . S
C1524 C1519 1.350 . S
C1525 H1512 0.929 . S
C1525 C1517 1.433 . S
C1525 N1527 1.384 . S
N1526 C1522 1.427 . S
N1526 C1523 1.384 . S
N1527 C1519 1.427 . S
N1527 C1525 1.384 . S
H1528 C1534 0.930 . S
H1529 C1538 0.930 . S
H1530 C1543 0.929 . S
H1531 C1541 0.929 . S
H1532 C1536 0.929 . S
H1533 C1542 0.929 . S
C1534 H1528 0.930 . S
C1534 C1535 1.367 . S
C1534 C1542 1.378 . S
C1535 C1534 1.367 . S
C1535 C1543 1.433 . S
C1536 H1532 0.929 . S
C1536 C1538 1.378 . S
C1536 C1540 1.350 . S
C1537 C1540 1.463 . S
C1537 C1542 1.350 . S
C1537 N1545 1.427 . S
C1538 H1529 0.930 . S
C1538 C1536 1.378 . S
C1538 C1539 1.367 . S
C1539 C1538 1.367 . S
C1539 C1541 1.433 . S
C1540 C1536 1.350 . S
C1540 C1537 1.463 . S
C1540 N1544 1.427 . S
C1541 H1531 0.929 . S
C1541 C1539 1.433 . S
C1541 N1544 1.384 . S
C1542 H1533 0.929 . S
C1542 C1534 1.378 . S
C1542 C1537 1.350 . S
C1543 H1530 0.929 . S
C1543 C1535 1.433 . S
C1543 N1545 1.384 . S
N1544 C1540 1.427 . S
N1544 C1541 1.384 . S
N1545 C1537 1.427 . S
N1545 C1543 1.384 . S
H1546 C1552 0.930 . S
H1547 C1556 0.930 . S
H1548 C1561 0.929 . S
H1549 C1559 0.929 . S
H1550 C1554 0.929 . S
H1551 C1560 0.929 . S
C1552 H1546 0.930 . S
C1552 C1553 1.367 . S
C1552 C1560 1.378 . S
C1553 C1552 1.367 . S
C1553 C1561 1.433 . S
C1554 H1550 0.929 . S
C1554 C1556 1.378 1_554 S
C1554 C1558 1.350 . S
C1555 C1558 1.463 . S
C1555 C1560 1.350 . S
C1555 N1563 1.427 . S
C1556 H1547 0.930 . S
C1556 C1554 1.378 1_556 S
C1556 C1557 1.367 . S
C1557 C1556 1.367 . S
C1557 C1559 1.433 . S
C1558 C1554 1.350 . S
C1558 C1555 1.463 . S
C1558 N1562 1.427 1_554 S
C1559 H1549 0.929 . S
C1559 C1557 1.433 . S
C1559 N1562 1.384 . S
C1560 H1551 0.929 . S
C1560 C1552 1.378 . S
C1560 C1555 1.350 . S
C1561 H1548 0.929 . S
C1561 C1553 1.433 . S
C1561 N1563 1.384 . S
N1562 C1558 1.427 1_556 S
N1562 C1559 1.384 . S
N1563 C1555 1.427 . S
N1563 C1561 1.384 . S
H1564 C1570 0.930 1_455 S
H1565 C1574 0.930 . S
H1566 C1579 0.929 . S
H1567 C1577 0.929 . S
H1568 C1572 0.929 . S
H1569 C1578 0.929 . S
C1570 H1564 0.930 1_655 S
C1570 C1571 1.367 . S
C1570 C1578 1.378 . S
C1571 C1570 1.367 . S
C1571 C1579 1.433 . S
C1572 H1568 0.929 . S
C1572 C1574 1.378 . S
C1572 C1576 1.350 . S
C1573 C1576 1.463 . S
C1573 C1578 1.350 . S
C1573 N1581 1.427 . S
C1574 H1565 0.930 . S
C1574 C1572 1.378 . S
C1574 C1575 1.367 . S
C1575 C1574 1.367 . S
C1575 C1577 1.433 . S
C1576 C1572 1.350 . S
C1576 C1573 1.463 . S
C1576 N1580 1.427 . S
C1577 H1567 0.929 . S
C1577 C1575 1.433 . S
C1577 N1580 1.384 . S
C1578 H1569 0.929 . S
C1578 C1570 1.378 . S
C1578 C1573 1.350 . S
C1579 H1566 0.929 . S
C1579 C1571 1.433 . S
C1579 N1581 1.384 . S
N1580 C1576 1.427 . S
N1580 C1577 1.384 . S
N1581 C1573 1.427 . S
N1581 C1579 1.384 . S
H1582 C1588 0.930 . S
H1583 C1592 0.930 . S
H1584 C1597 0.929 . S
H1585 C1595 0.929 . S
H1586 C1590 0.929 . S
H1587 C1596 0.929 . S
C1588 H1582 0.930 . S
C1588 C1589 1.367 . S
C1588 C1596 1.378 . S
C1589 C1588 1.367 . S
C1589 C1597 1.433 . S
C1590 H1586 0.929 . S
C1590 C1592 1.378 . S
C1590 C1594 1.350 . S
C1591 C1594 1.463 . S
C1591 C1596 1.350 . S
C1591 N1599 1.427 . S
C1592 H1583 0.930 . S
C1592 C1590 1.378 . S
C1592 C1593 1.367 . S
C1593 C1592 1.367 . S
C1593 C1595 1.433 . S
C1594 C1590 1.350 . S
C1594 C1591 1.463 . S
C1594 N1598 1.427 . S
C1595 H1585 0.929 . S
C1595 C1593 1.433 . S
C1595 N1598 1.384 . S
C1596 H1587 0.929 . S
C1596 C1588 1.378 . S
C1596 C1591 1.350 . S
C1597 H1584 0.929 . S
C1597 C1589 1.433 . S
C1597 N1599 1.384 . S
N1598 C1594 1.427 . S
N1598 C1595 1.384 . S
N1599 C1591 1.427 . S
N1599 C1597 1.384 . S
H1600 C1606 0.930 . S
H1601 C1610 0.930 . S
H1602 C1615 0.929 . S
H1603 C1613 0.929 . S
H1604 C1608 0.929 . S
H1605 C1614 0.929 . S
C1606 H1600 0.930 . S
C1606 C1607 1.367 . S
C1606 C1614 1.378 . S
C1607 C1606 1.367 . S
C1607 C1615 1.433 . S
C1608 H1604 0.929 . S
C1608 C1610 1.378 . S
C1608 C1612 1.350 . S
C1609 C1612 1.463 . S
C1609 C1614 1.350 . S
C1609 N1617 1.427 . S
C1610 H1601 0.930 . S
C1610 C1608 1.378 . S
C1610 C1611 1.367 . S
C1611 C1610 1.367 . S
C1611 C1613 1.433 . S
C1612 C1608 1.350 . S
C1612 C1609 1.463 . S
C1612 N1616 1.427 . S
C1613 H1603 0.929 . S
C1613 C1611 1.433 . S
C1613 N1616 1.384 . S
C1614 H1605 0.929 . S
C1614 C1606 1.378 . S
C1614 C1609 1.350 . S
C1615 H1602 0.929 . S
C1615 C1607 1.433 . S
C1615 N1617 1.384 . S
N1616 C1612 1.427 . S
N1616 C1613 1.384 . S
N1617 C1609 1.427 . S
N1617 C1615 1.384 . S
H1618 C1624 0.930 . S
H1619 C1628 0.930 . S
H1620 C1633 0.929 . S
H1621 C1631 0.929 . S
H1622 C1626 0.929 . S
H1623 C1632 0.941 . S
C1624 H1618 0.930 . S
C1624 C1625 1.367 . S
C1624 C1632 1.378 . S
C1625 C1624 1.367 . S
C1625 C1633 1.433 . S
C1626 H1622 0.929 . S
C1626 C1628 1.378 1_556 S
C1626 C1630 1.345 1_556 S
C1627 C1630 1.433 1_556 S
C1627 C1632 1.350 . S
C1627 N1635 1.427 . S
C1628 H1619 0.930 . S
C1628 C1626 1.378 1_554 S
C1628 C1629 1.367 . S
C1629 C1628 1.367 . S
C1629 C1631 1.433 . S
C1630 C1626 1.345 1_554 S
C1630 C1627 1.433 1_554 S
C1630 N1634 1.463 . S
C1631 H1621 0.929 . S
C1631 C1629 1.433 . S
C1631 N1634 1.384 . S
C1632 H1623 0.941 . S
C1632 C1624 1.378 . S
C1632 C1627 1.350 . S
C1633 H1620 0.929 . S
C1633 C1625 1.433 . S
C1633 N1635 1.384 . S
N1634 C1630 1.463 . S
N1634 C1631 1.384 . S
N1635 C1627 1.427 . S
N1635 C1633 1.384 . S
H1636 C1642 0.930 . S
H1637 C1646 0.930 . S
H1638 C1651 0.929 . S
H1639 C1649 0.929 . S
H1640 C1644 0.929 . S
H1641 C1650 0.929 . S
C1642 H1636 0.930 . S
C1642 C1643 1.367 . S
C1642 C1650 1.378 . S
C1643 C1642 1.367 . S
C1643 C1651 1.433 . S
C1644 H1640 0.929 . S
C1644 C1646 1.378 . S
C1644 C1648 1.350 . S
C1645 C1648 1.463 . S
C1645 C1650 1.350 . S
C1645 N1653 1.427 . S
C1646 H1637 0.930 . S
C1646 C1644 1.378 . S
C1646 C1647 1.367 . S
C1647 C1646 1.367 . S
C1647 C1649 1.433 . S
C1648 C1644 1.350 . S
C1648 C1645 1.463 . S
C1648 N1652 1.427 . S
C1649 H1639 0.929 . S
C1649 C1647 1.433 . S
C1649 N1652 1.384 . S
C1650 H1641 0.929 . S
C1650 C1642 1.378 . S
C1650 C1645 1.350 . S
C1651 H1638 0.929 . S
C1651 C1643 1.433 . S
C1651 N1653 1.384 . S
N1652 C1648 1.427 . S
N1652 C1649 1.384 . S
N1653 C1645 1.427 . S
N1653 C1651 1.384 . S
H1654 C1660 0.930 . S
H1655 C1664 0.930 . S
H1656 C1669 0.929 . S
H1657 C1667 0.929 . S
H1658 C1662 0.929 . S
H1659 C1668 0.929 . S
C1660 H1654 0.930 . S
C1660 C1661 1.367 . S
C1660 C1668 1.378 . S
C1661 C1660 1.367 . S
C1661 C1669 1.433 . S
C1662 H1658 0.929 . S
C1662 C1664 1.378 . S
C1662 C1666 1.350 . S
C1663 C1666 1.463 . S
C1663 C1668 1.350 . S
C1663 N1671 1.427 . S
C1664 H1655 0.930 . S
C1664 C1662 1.378 . S
C1664 C1665 1.367 . S
C1665 C1664 1.367 . S
C1665 C1667 1.433 . S
C1666 C1662 1.350 . S
C1666 C1663 1.463 . S
C1666 N1670 1.427 . S
C1667 H1657 0.929 . S
C1667 C1665 1.433 . S
C1667 N1670 1.384 . S
C1668 H1659 0.929 . S
C1668 C1660 1.378 . S
C1668 C1663 1.350 . S
C1669 H1656 0.929 . S
C1669 C1661 1.433 . S
C1669 N1671 1.384 . S
N1670 C1666 1.427 . S
N1670 C1667 1.384 . S
N1671 C1663 1.427 . S
N1671 C1669 1.384 . S
H1672 C1678 0.930 . S
H1673 C1682 0.930 . S
H1674 C1687 0.929 . S
H1675 C1685 0.929 . S
H1676 C1680 0.929 . S
H1677 C1686 0.929 . S
C1678 H1672 0.930 . S
C1678 C1679 1.367 . S
C1678 C1686 1.378 . S
C1679 C1678 1.367 . S
C1679 C1687 1.433 . S
C1680 H1676 0.929 . S
C1680 C1682 1.378 . S
C1680 C1684 1.350 . S
C1681 C1684 1.463 . S
C1681 C1686 1.350 . S
C1681 N1689 1.427 . S
C1682 H1673 0.930 . S
C1682 C1680 1.378 . S
C1682 C1683 1.367 . S
C1683 C1682 1.367 . S
C1683 C1685 1.433 . S
C1684 C1680 1.350 . S
C1684 C1681 1.463 . S
C1684 N1688 1.427 . S
C1685 H1675 0.929 . S
C1685 C1683 1.433 . S
C1685 N1688 1.384 . S
C1686 H1677 0.929 . S
C1686 C1678 1.378 . S
C1686 C1681 1.350 . S
C1687 H1674 0.929 . S
C1687 C1679 1.433 . S
C1687 N1689 1.384 . S
N1688 C1684 1.427 . S
N1688 C1685 1.384 . S
N1689 C1681 1.427 . S
N1689 C1687 1.384 . S
H1690 C1696 0.930 . S
H1691 C1700 0.930 . S
H1692 C1705 0.929 . S
H1693 C1703 0.929 . S
H1694 C1698 0.929 . S
H1695 C1704 0.929 . S
C1696 H1690 0.930 . S
C1696 C1697 1.367 . S
C1696 C1704 1.378 . S
C1697 C1696 1.367 . S
C1697 C1705 1.433 . S
C1698 H1694 0.929 . S
C1698 C1700 1.378 . S
C1698 C1702 1.350 . S
C1699 C1702 1.463 . S
C1699 C1704 1.350 . S
C1699 N1707 1.427 . S
C1700 H1691 0.930 . S
C1700 C1698 1.378 . S
C1700 C1701 1.367 . S
C1701 C1700 1.367 . S
C1701 C1703 1.433 . S
C1702 C1698 1.350 . S
C1702 C1699 1.463 . S
C1702 N1706 1.427 . S
C1703 H1693 0.929 . S
C1703 C1701 1.433 . S
C1703 N1706 1.384 . S
C1704 H1695 0.929 . S
C1704 C1696 1.378 . S
C1704 C1699 1.350 . S
C1705 H1692 0.929 . S
C1705 C1697 1.433 . S
C1705 N1707 1.384 . S
N1706 C1702 1.427 . S
N1706 C1703 1.384 . S
N1707 C1699 1.427 . S
N1707 C1705 1.384 . S
H1708 C1714 0.930 . S
H1709 C1718 0.930 . S
H1710 C1723 0.929 . S
H1711 C1721 0.929 . S
H1712 C1716 0.929 . S
H1713 C1722 0.929 . S
C1714 H1708 0.930 . S
C1714 C1715 1.367 . S
C1714 C1722 1.378 . S
C1715 C1714 1.367 . S
C1715 C1723 1.433 . S
C1716 H1712 0.929 . S
C1716 C1718 1.378 . S
C1716 C1720 1.350 . S
C1717 C1720 1.463 . S
C1717 C1722 1.350 . S
C1717 N1725 1.427 . S
C1718 H1709 0.930 . S
C1718 C1716 1.378 . S
C1718 C1719 1.367 . S
C1719 C1718 1.367 . S
C1719 C1721 1.433 . S
C1720 C1716 1.350 . S
C1720 C1717 1.463 . S
C1720 N1724 1.427 . S
C1721 H1711 0.929 . S
C1721 C1719 1.433 . S
C1721 N1724 1.384 . S
C1722 H1713 0.929 . S
C1722 C1714 1.378 . S
C1722 C1717 1.350 . S
C1723 H1710 0.929 . S
C1723 C1715 1.433 . S
C1723 N1725 1.384 . S
N1724 C1720 1.427 . S
N1724 C1721 1.384 . S
N1725 C1717 1.427 . S
N1725 C1723 1.384 . S
H1726 C1732 0.930 . S
H1727 C1736 0.930 . S
H1728 C1741 0.929 . S
H1729 C1739 0.929 . S
H1730 C1734 0.929 . S
H1731 C1740 0.929 . S
C1732 H1726 0.930 . S
C1732 C1733 1.367 . S
C1732 C1740 1.378 . S
C1733 C1732 1.367 . S
C1733 C1741 1.433 . S
C1734 H1730 0.929 . S
C1734 C1736 1.378 . S
C1734 C1738 1.350 . S
C1735 C1738 1.463 . S
C1735 C1740 1.350 . S
C1735 N1743 1.427 . S
C1736 H1727 0.930 . S
C1736 C1734 1.378 . S
C1736 C1737 1.367 . S
C1737 C1736 1.367 . S
C1737 C1739 1.433 . S
C1738 C1734 1.350 . S
C1738 C1735 1.463 . S
C1738 N1742 1.427 . S
C1739 H1729 0.929 . S
C1739 C1737 1.433 . S
C1739 N1742 1.384 . S
C1740 H1731 0.929 . S
C1740 C1732 1.378 . S
C1740 C1735 1.350 . S
C1741 H1728 0.929 . S
C1741 C1733 1.433 . S
C1741 N1743 1.384 . S
N1742 C1738 1.427 . S
N1742 C1739 1.384 . S
N1743 C1735 1.427 . S
N1743 C1741 1.384 . S
H1744 C1750 0.930 . S
H1745 C1754 0.930 . S
H1746 C1759 0.929 . S
H1747 C1757 0.929 . S
H1748 C1752 0.929 . S
H1749 C1758 0.929 . S
C1750 H1744 0.930 . S
C1750 C1751 1.367 . S
C1750 C1758 1.378 . S
C1751 C1750 1.367 . S
C1751 C1759 1.433 . S
C1752 H1748 0.929 . S
C1752 C1754 1.378 . S
C1752 C1756 1.350 . S
C1753 C1756 1.463 . S
C1753 C1758 1.350 . S
C1753 N1761 1.427 . S
C1754 H1745 0.930 . S
C1754 C1752 1.378 . S
C1754 C1755 1.367 . S
C1755 C1754 1.367 . S
C1755 C1757 1.433 . S
C1756 C1752 1.350 . S
C1756 C1753 1.463 . S
C1756 N1760 1.427 . S
C1757 H1747 0.929 . S
C1757 C1755 1.433 . S
C1757 N1760 1.384 . S
C1758 H1749 0.929 . S
C1758 C1750 1.378 . S
C1758 C1753 1.350 . S
C1759 H1746 0.929 . S
C1759 C1751 1.433 . S
C1759 N1761 1.384 . S
N1760 C1756 1.427 . S
N1760 C1757 1.384 . S
N1761 C1753 1.427 . S
N1761 C1759 1.384 . S
H1762 C1768 0.930 . S
H1763 C1772 0.930 . S
H1764 C1777 0.929 . S
H1765 C1775 0.929 . S
H1766 C1770 0.929 . S
H1767 C1776 0.929 . S
C1768 H1762 0.930 . S
C1768 C1769 1.367 . S
C1768 C1776 1.378 . S
C1769 C1768 1.367 . S
C1769 C1777 1.433 . S
C1770 H1766 0.929 . S
C1770 C1772 1.378 . S
C1770 C1774 1.350 . S
C1771 C1774 1.463 . S
C1771 C1776 1.350 . S
C1771 N1779 1.427 . S
C1772 H1763 0.930 . S
C1772 C1770 1.378 . S
C1772 C1773 1.367 . S
C1773 C1772 1.367 . S
C1773 C1775 1.433 . S
C1774 C1770 1.350 . S
C1774 C1771 1.463 . S
C1774 N1778 1.427 . S
C1775 H1765 0.929 . S
C1775 C1773 1.433 . S
C1775 N1778 1.384 . S
C1776 H1767 0.929 . S
C1776 C1768 1.378 . S
C1776 C1771 1.350 . S
C1777 H1764 0.929 . S
C1777 C1769 1.433 . S
C1777 N1779 1.384 . S
N1778 C1774 1.427 . S
N1778 C1775 1.384 . S
N1779 C1771 1.427 . S
N1779 C1777 1.384 . S
H1780 C1786 0.930 . S
H1781 C1790 0.930 . S
H1782 C1795 0.929 . S
H1783 C1793 0.929 . S
H1784 C1788 0.929 . S
H1785 C1794 0.929 . S
C1786 H1780 0.930 . S
C1786 C1787 1.367 . S
C1786 C1794 1.378 . S
C1787 C1786 1.367 . S
C1787 C1795 1.433 . S
C1788 H1784 0.929 . S
C1788 C1790 1.378 . S
C1788 C1792 1.350 . S
C1789 C1792 1.463 . S
C1789 C1794 1.350 . S
C1789 N1797 1.427 . S
C1790 H1781 0.930 . S
C1790 C1788 1.378 . S
C1790 C1791 1.367 . S
C1791 C1790 1.367 . S
C1791 C1793 1.433 . S
C1792 C1788 1.350 . S
C1792 C1789 1.463 . S
C1792 N1796 1.427 . S
C1793 H1783 0.929 . S
C1793 C1791 1.433 . S
C1793 N1796 1.384 . S
C1794 H1785 0.929 . S
C1794 C1786 1.378 . S
C1794 C1789 1.350 . S
C1795 H1782 0.929 . S
C1795 C1787 1.433 . S
C1795 N1797 1.384 . S
N1796 C1792 1.427 . S
N1796 C1793 1.384 . S
N1797 C1789 1.427 . S
N1797 C1795 1.384 . S
H1798 C1804 0.930 . S
H1799 C1808 0.930 . S
H1800 C1813 0.929 . S
H1801 C1811 0.929 . S
H1802 C1806 0.929 . S
H1803 C1812 0.929 . S
C1804 H1798 0.930 . S
C1804 C1805 1.367 . S
C1804 C1812 1.378 . S
C1805 C1804 1.367 . S
C1805 C1813 1.433 . S
C1806 H1802 0.929 . S
C1806 C1808 1.378 . S
C1806 C1810 1.350 . S
C1807 C1810 1.463 . S
C1807 C1812 1.350 . S
C1807 N1815 1.427 . S
C1808 H1799 0.930 . S
C1808 C1806 1.378 . S
C1808 C1809 1.367 . S
C1809 C1808 1.367 . S
C1809 C1811 1.433 . S
C1810 C1806 1.350 . S
C1810 C1807 1.463 . S
C1810 N1814 1.427 . S
C1811 H1801 0.929 . S
C1811 C1809 1.433 . S
C1811 N1814 1.384 . S
C1812 H1803 0.929 . S
C1812 C1804 1.378 . S
C1812 C1807 1.350 . S
C1813 H1800 0.929 . S
C1813 C1805 1.433 . S
C1813 N1815 1.384 . S
N1814 C1810 1.427 . S
N1814 C1811 1.384 . S
N1815 C1807 1.427 . S
N1815 C1813 1.384 . S
H1816 C1822 0.930 . S
H1817 C1826 0.930 . S
H1818 C1831 0.929 . S
H1819 C1829 0.929 . S
H1820 C1824 0.929 . S
H1821 C1830 0.929 . S
C1822 H1816 0.930 . S
C1822 C1823 1.367 . S
C1822 C1830 1.378 . S
C1823 C1822 1.367 . S
C1823 C1831 1.433 . S
C1824 H1820 0.929 . S
C1824 C1826 1.378 . S
C1824 C1828 1.350 . S
C1825 C1828 1.463 . S
C1825 C1830 1.350 . S
C1825 N1833 1.427 . S
C1826 H1817 0.930 . S
C1826 C1824 1.378 . S
C1826 C1827 1.367 . S
C1827 C1826 1.367 . S
C1827 C1829 1.433 . S
C1828 C1824 1.350 . S
C1828 C1825 1.463 . S
C1828 N1832 1.427 . S
C1829 H1819 0.929 . S
C1829 C1827 1.433 . S
C1829 N1832 1.384 . S
C1830 H1821 0.929 . S
C1830 C1822 1.378 . S
C1830 C1825 1.350 . S
C1831 H1818 0.929 . S
C1831 C1823 1.433 . S
C1831 N1833 1.384 . S
N1832 C1828 1.427 . S
N1832 C1829 1.384 . S
N1833 C1825 1.427 . S
N1833 C1831 1.384 . S
H1834 C1840 0.930 . S
H1835 C1844 0.930 . S
H1836 C1849 0.929 . S
H1837 C1847 0.929 . S
H1838 C1842 0.929 . S
H1839 C1848 0.929 . S
C1840 H1834 0.930 . S
C1840 C1841 1.367 . S
C1840 C1848 1.378 . S
C1841 C1840 1.367 . S
C1841 C1849 1.433 . S
C1842 H1838 0.929 . S
C1842 C1844 1.378 . S
C1842 C1846 1.350 . S
C1843 C1846 1.463 . S
C1843 C1848 1.350 . S
C1843 N1851 1.427 . S
C1844 H1835 0.930 . S
C1844 C1842 1.378 . S
C1844 C1845 1.367 . S
C1845 C1844 1.367 . S
C1845 C1847 1.433 . S
C1846 C1842 1.350 . S
C1846 C1843 1.463 . S
C1846 N1850 1.427 . S
C1847 H1837 0.929 . S
C1847 C1845 1.433 . S
C1847 N1850 1.384 . S
C1848 H1839 0.929 . S
C1848 C1840 1.378 . S
C1848 C1843 1.350 . S
C1849 H1836 0.929 . S
C1849 C1841 1.433 . S
C1849 N1851 1.384 . S
N1850 C1846 1.427 . S
N1850 C1847 1.384 . S
N1851 C1843 1.427 . S
N1851 C1849 1.384 . S
H1852 C1858 0.930 . S
H1853 C1862 0.930 . S
H1854 C1867 0.929 . S
H1855 C1865 0.929 . S
H1856 C1860 0.929 . S
H1857 C1866 0.929 . S
C1858 H1852 0.930 . S
C1858 C1859 1.367 . S
C1858 C1866 1.378 . S
C1859 C1858 1.367 . S
C1859 C1867 1.433 . S
C1860 H1856 0.929 . S
C1860 C1862 1.378 . S
C1860 C1864 1.350 . S
C1861 C1864 1.463 . S
C1861 C1866 1.350 . S
C1861 N1869 1.427 . S
C1862 H1853 0.930 . S
C1862 C1860 1.378 . S
C1862 C1863 1.367 . S
C1863 C1862 1.367 . S
C1863 C1865 1.433 . S
C1864 C1860 1.350 . S
C1864 C1861 1.463 . S
C1864 N1868 1.427 . S
C1865 H1855 0.929 . S
C1865 C1863 1.433 . S
C1865 N1868 1.384 . S
C1866 H1857 0.929 . S
C1866 C1858 1.378 . S
C1866 C1861 1.350 . S
C1867 H1854 0.929 . S
C1867 C1859 1.433 . S
C1867 N1869 1.384 . S
N1868 C1864 1.427 . S
N1868 C1865 1.384 . S
N1869 C1861 1.427 . S
N1869 C1867 1.384 . S
H1870 C1876 0.930 . S
H1871 C1880 0.930 . S
H1872 C1885 0.929 . S
H1873 C1883 0.929 . S
H1874 C1878 0.929 . S
H1875 C1884 0.929 . S
C1876 H1870 0.930 . S
C1876 C1877 1.367 . S
C1876 C1884 1.378 . S
C1877 C1876 1.367 . S
C1877 C1885 1.433 . S
C1878 H1874 0.929 . S
C1878 C1880 1.378 . S
C1878 C1882 1.350 . S
C1879 C1882 1.463 . S
C1879 C1884 1.350 . S
C1879 N1887 1.427 . S
C1880 H1871 0.930 . S
C1880 C1878 1.378 . S
C1880 C1881 1.367 . S
C1881 C1880 1.367 . S
C1881 C1883 1.433 . S
C1882 C1878 1.350 . S
C1882 C1879 1.463 . S
C1882 N1886 1.427 . S
C1883 H1873 0.929 . S
C1883 C1881 1.433 . S
C1883 N1886 1.384 . S
C1884 H1875 0.929 . S
C1884 C1876 1.378 . S
C1884 C1879 1.350 . S
C1885 H1872 0.929 . S
C1885 C1877 1.433 . S
C1885 N1887 1.384 . S
N1886 C1882 1.427 . S
N1886 C1883 1.384 . S
N1887 C1879 1.427 . S
N1887 C1885 1.384 . S
H1888 C1894 0.930 . S
H1889 C1898 0.930 . S
H1890 C1903 0.929 . S
H1891 C1901 0.929 . S
H1892 C1896 0.929 . S
H1893 C1902 0.929 . S
C1894 H1888 0.930 . S
C1894 C1895 1.367 . S
C1894 C1902 1.378 . S
C1895 C1894 1.367 . S
C1895 C1903 1.433 . S
C1896 H1892 0.929 . S
C1896 C1898 1.378 . S
C1896 C1900 1.350 . S
C1897 C1900 1.463 . S
C1897 C1902 1.350 . S
C1897 N1905 1.427 . S
C1898 H1889 0.930 . S
C1898 C1896 1.378 . S
C1898 C1899 1.367 . S
C1899 C1898 1.367 . S
C1899 C1901 1.433 . S
C1900 C1896 1.350 . S
C1900 C1897 1.463 . S
C1900 N1904 1.427 . S
C1901 H1891 0.929 . S
C1901 C1899 1.433 . S
C1901 N1904 1.384 . S
C1902 H1893 0.929 . S
C1902 C1894 1.378 . S
C1902 C1897 1.350 . S
C1903 H1890 0.929 . S
C1903 C1895 1.433 . S
C1903 N1905 1.384 . S
N1904 C1900 1.427 . S
N1904 C1901 1.384 . S
N1905 C1897 1.427 . S
N1905 C1903 1.384 . S
H1906 C1912 0.930 . S
H1907 C1916 0.930 . S
H1908 C1921 0.929 1_556 S
H1909 C1919 0.929 . S
H1910 C1914 0.929 . S
H1911 C1920 0.929 . S
C1912 H1906 0.930 . S
C1912 C1913 1.367 . S
C1912 C1920 1.378 . S
C1913 C1912 1.367 . S
C1913 C1921 1.433 . S
C1914 H1910 0.929 . S
C1914 C1916 1.378 . S
C1914 C1918 1.350 . S
C1915 C1918 1.463 . S
C1915 C1920 1.350 . S
C1915 N1923 1.427 . S
C1916 H1907 0.930 . S
C1916 C1914 1.378 . S
C1916 C1917 1.367 . S
C1917 C1916 1.367 . S
C1917 C1919 1.433 . S
C1918 C1914 1.350 . S
C1918 C1915 1.463 . S
C1918 N1922 1.427 . S
C1919 H1909 0.929 . S
C1919 C1917 1.433 . S
C1919 N1922 1.384 . S
C1920 H1911 0.929 . S
C1920 C1912 1.378 . S
C1920 C1915 1.350 . S
C1921 H1908 0.929 1_554 S
C1921 C1913 1.433 . S
C1921 N1923 1.384 . S
N1922 C1918 1.427 . S
N1922 C1919 1.384 . S
N1923 C1915 1.427 . S
N1923 C1921 1.384 . S
H1924 C1930 0.930 . S
H1925 C1934 0.930 . S
H1926 C1939 0.929 . S
H1927 C1937 0.929 . S
H1928 C1932 0.929 . S
H1929 C1938 0.929 . S
C1930 H1924 0.930 . S
C1930 C1931 1.367 . S
C1930 C1938 1.378 . S
C1931 C1930 1.367 . S
C1931 C1939 1.433 . S
C1932 H1928 0.929 . S
C1932 C1934 1.378 . S
C1932 C1936 1.350 . S
C1933 C1936 1.463 . S
C1933 C1938 1.350 . S
C1933 N1941 1.427 . S
C1934 H1925 0.930 . S
C1934 C1932 1.378 . S
C1934 C1935 1.367 . S
C1935 C1934 1.367 . S
C1935 C1937 1.433 . S
C1936 C1932 1.350 . S
C1936 C1933 1.463 . S
C1936 N1940 1.427 . S
C1937 H1927 0.929 . S
C1937 C1935 1.433 . S
C1937 N1940 1.384 . S
C1938 H1929 0.929 . S
C1938 C1930 1.378 . S
C1938 C1933 1.350 . S
C1939 H1926 0.929 . S
C1939 C1931 1.433 . S
C1939 N1941 1.384 . S
N1940 C1936 1.427 . S
N1940 C1937 1.384 . S
N1941 C1933 1.427 . S
N1941 C1939 1.384 . S
H1942 C1948 0.930 . S
H1943 C1952 0.930 . S
H1944 C1957 0.929 . S
H1945 C1955 0.929 . S
H1946 C1950 0.929 . S
H1947 C1956 0.929 . S
C1948 H1942 0.930 . S
C1948 C1949 1.367 . S
C1948 C1956 1.378 . S
C1949 C1948 1.367 . S
C1949 C1957 1.433 . S
C1950 H1946 0.929 . S
C1950 C1952 1.378 . S
C1950 C1954 1.349 1_455 S
C1951 C1954 1.463 . S
C1951 C1956 1.350 . S
C1951 N1959 1.427 . S
C1952 H1943 0.930 . S
C1952 C1950 1.378 . S
C1952 C1953 1.367 . S
C1953 C1952 1.367 . S
C1953 C1955 1.433 . S
C1954 C1950 1.349 1_655 S
C1954 C1951 1.463 . S
C1954 N1958 1.427 1_655 S
C1955 H1945 0.929 . S
C1955 C1953 1.433 . S
C1955 N1958 1.384 . S
C1956 H1947 0.929 . S
C1956 C1948 1.378 . S
C1956 C1951 1.350 . S
C1957 H1944 0.929 . S
C1957 C1949 1.433 . S
C1957 N1959 1.384 . S
N1958 C1954 1.427 1_455 S
N1958 C1955 1.384 . S
N1959 C1951 1.427 . S
N1959 C1957 1.384 . S
H1960 C1966 0.930 . S
H1961 C1970 0.930 . S
H1962 C1975 0.929 . S
H1963 C1973 0.929 . S
H1964 C1968 0.929 . S
H1965 C1974 0.929 . S
C1966 H1960 0.930 . S
C1966 C1967 1.367 . S
C1966 C1974 1.378 . S
C1967 C1966 1.367 . S
C1967 C1975 1.433 . S
C1968 H1964 0.929 . S
C1968 C1970 1.378 . S
C1968 C1972 1.350 . S
C1969 C1972 1.463 . S
C1969 C1974 1.350 . S
C1969 N1977 1.427 . S
C1970 H1961 0.930 . S
C1970 C1968 1.378 . S
C1970 C1971 1.367 . S
C1971 C1970 1.367 . S
C1971 C1973 1.433 . S
C1972 C1968 1.350 . S
C1972 C1969 1.463 . S
C1972 N1976 1.427 . S
C1973 H1963 0.929 . S
C1973 C1971 1.433 . S
C1973 N1976 1.384 . S
C1974 H1965 0.929 . S
C1974 C1966 1.378 . S
C1974 C1969 1.350 . S
C1975 H1962 0.929 . S
C1975 C1967 1.433 . S
C1975 N1977 1.384 . S
N1976 C1972 1.427 . S
N1976 C1973 1.384 . S
N1977 C1969 1.427 . S
N1977 C1975 1.384 . S
H1978 C1984 0.930 . S
H1979 C1988 0.930 . S
H1980 C1993 0.929 . S
H1981 C1991 0.929 . S
H1982 C1986 0.929 . S
H1983 C1992 0.929 . S
C1984 H1978 0.930 . S
C1984 C1985 1.367 . S
C1984 C1992 1.378 . S
C1985 C1984 1.367 . S
C1985 C1993 1.433 . S
C1986 H1982 0.929 . S
C1986 C1988 1.378 . S
C1986 C1990 1.350 . S
C1987 C1990 1.463 1_556 S
C1987 C1992 1.350 . S
C1987 N1995 1.427 . S
C1988 H1979 0.930 . S
C1988 C1986 1.378 . S
C1988 C1989 1.367 . S
C1989 C1988 1.367 . S
C1989 C1991 1.433 . S
C1990 C1986 1.350 . S
C1990 C1987 1.463 1_554 S
C1990 N1994 1.427 . S
C1991 H1981 0.929 . S
C1991 C1989 1.433 . S
C1991 N1994 1.384 . S
C1992 H1983 0.929 . S
C1992 C1984 1.378 . S
C1992 C1987 1.350 . S
C1993 H1980 0.929 . S
C1993 C1985 1.433 . S
C1993 N1995 1.384 . S
N1994 C1990 1.427 . S
N1994 C1991 1.384 . S
N1995 C1987 1.427 . S
N1995 C1993 1.384 . S
H1996 C2002 0.930 . S
H1997 C2006 0.930 . S
H1998 C2011 0.929 . S
H1999 C2009 0.929 . S
H2000 C2004 0.929 . S
H2001 C2010 0.929 . S
C2002 H1996 0.930 . S
C2002 C2003 1.367 . S
C2002 C2010 1.378 . S
C2003 C2002 1.367 . S
C2003 C2011 1.433 . S
C2004 H2000 0.929 . S
C2004 C2006 1.378 . S
C2004 C2008 1.350 . S
C2005 C2008 1.463 . S
C2005 C2010 1.350 . S
C2005 N2013 1.427 . S
C2006 H1997 0.930 . S
C2006 C2004 1.378 . S
C2006 C2007 1.367 . S
C2007 C2006 1.367 . S
C2007 C2009 1.433 . S
C2008 C2004 1.350 . S
C2008 C2005 1.463 . S
C2008 N2012 1.427 . S
C2009 H1999 0.929 . S
C2009 C2007 1.433 . S
C2009 N2012 1.384 . S
C2010 H2001 0.929 . S
C2010 C2002 1.378 . S
C2010 C2005 1.350 . S
C2011 H1998 0.929 . S
C2011 C2003 1.433 . S
C2011 N2013 1.384 . S
N2012 C2008 1.427 . S
N2012 C2009 1.384 . S
N2013 C2005 1.427 . S
N2013 C2011 1.384 . S
H2014 C2020 0.930 . S
H2015 C2024 0.930 . S
H2016 C2029 0.929 1_655 S
H2017 C2027 0.929 . S
H2018 C2022 0.929 . S
H2019 C2028 0.929 . S
C2020 H2014 0.930 . S
C2020 C2021 1.367 . S
C2020 C2028 1.378 . S
C2021 C2020 1.367 . S
C2021 C2029 1.433 . S
C2022 H2018 0.929 . S
C2022 C2024 1.378 . S
C2022 C2026 1.350 . S
C2023 C2026 1.463 . S
C2023 C2028 1.350 . S
C2023 N2031 1.427 . S
C2024 H2015 0.930 . S
C2024 C2022 1.378 . S
C2024 C2025 1.367 . S
C2025 C2024 1.367 . S
C2025 C2027 1.433 . S
C2026 C2022 1.350 . S
C2026 C2023 1.463 . S
C2026 N2030 1.427 . S
C2027 H2017 0.929 . S
C2027 C2025 1.433 . S
C2027 N2030 1.384 . S
C2028 H2019 0.929 . S
C2028 C2020 1.378 . S
C2028 C2023 1.350 . S
C2029 H2016 0.929 1_455 S
C2029 C2021 1.433 . S
C2029 N2031 1.384 . S
N2030 C2026 1.427 . S
N2030 C2027 1.384 . S
N2031 C2023 1.427 . S
N2031 C2029 1.384 . S
H2032 C2038 0.930 . S
H2033 C2042 0.930 . S
H2034 C2047 0.929 . S
H2035 C2045 0.929 . S
H2036 C2040 0.929 . S
H2037 C2046 0.929 . S
C2038 H2032 0.930 . S
C2038 C2039 1.367 . S
C2038 C2046 1.378 . S
C2039 C2038 1.367 . S
C2039 C2047 1.433 . S
C2040 H2036 0.929 . S
C2040 C2042 1.378 . S
C2040 C2044 1.350 . S
C2041 C2044 1.463 . S
C2041 C2046 1.350 . S
C2041 N2049 1.427 . S
C2042 H2033 0.930 . S
C2042 C2040 1.378 . S
C2042 C2043 1.367 . S
C2043 C2042 1.367 . S
C2043 C2045 1.433 . S
C2044 C2040 1.350 . S
C2044 C2041 1.463 . S
C2044 N2048 1.427 . S
C2045 H2035 0.929 . S
C2045 C2043 1.433 . S
C2045 N2048 1.384 . S
C2046 H2037 0.929 . S
C2046 C2038 1.378 . S
C2046 C2041 1.350 . S
C2047 H2034 0.929 . S
C2047 C2039 1.433 . S
C2047 N2049 1.384 . S
N2048 C2044 1.427 . S
N2048 C2045 1.384 . S
N2049 C2041 1.427 . S
N2049 C2047 1.384 . S
H2050 C2056 0.930 . S
H2051 C2060 0.930 . S
H2052 C2065 0.929 . S
H2053 C2063 0.929 . S
H2054 C2058 0.954 . S
H2055 C2064 0.929 . S
C2056 H2050 0.930 . S
C2056 C2057 1.367 . S
C2056 C2064 1.378 . S
C2057 C2056 1.367 . S
C2057 C2065 1.433 . S
C2058 H2054 0.954 . S
C2058 C2060 1.350 1_554 S
C2058 C2062 1.354 . S
C2059 C2062 1.463 . S
C2059 C2064 1.350 . S
C2059 N2067 1.427 . S
C2060 H2051 0.930 . S
C2060 C2058 1.350 1_556 S
C2060 C2061 1.367 . S
C2061 C2060 1.367 . S
C2061 C2063 1.433 . S
C2062 C2058 1.354 . S
C2062 C2059 1.463 . S
C2062 N2066 1.427 1_554 S
C2063 H2053 0.929 . S
C2063 C2061 1.433 . S
C2063 N2066 1.384 . S
C2064 H2055 0.929 . S
C2064 C2056 1.378 . S
C2064 C2059 1.350 . S
C2065 H2052 0.929 . S
C2065 C2057 1.433 . S
C2065 N2067 1.384 . S
N2066 C2062 1.427 1_556 S
N2066 C2063 1.384 . S
N2067 C2059 1.427 . S
N2067 C2065 1.384 . S
H2068 C2074 0.930 . S
H2069 C2078 0.930 . S
H2070 C2083 0.929 . S
H2071 C2081 0.929 . S
H2072 C2076 0.929 . S
H2073 C2082 0.929 . S
C2074 H2068 0.930 . S
C2074 C2075 1.367 . S
C2074 C2082 1.378 . S
C2075 C2074 1.367 . S
C2075 C2083 1.433 . S
C2076 H2072 0.929 . S
C2076 C2078 1.378 . S
C2076 C2080 1.350 . S
C2077 C2080 1.463 . S
C2077 C2082 1.350 . S
C2077 N2085 1.427 . S
C2078 H2069 0.930 . S
C2078 C2076 1.378 . S
C2078 C2079 1.367 . S
C2079 C2078 1.367 . S
C2079 C2081 1.433 . S
C2080 C2076 1.350 . S
C2080 C2077 1.463 . S
C2080 N2084 1.427 . S
C2081 H2071 0.929 . S
C2081 C2079 1.433 . S
C2081 N2084 1.384 . S
C2082 H2073 0.929 . S
C2082 C2074 1.378 . S
C2082 C2077 1.350 . S
C2083 H2070 0.929 . S
C2083 C2075 1.433 . S
C2083 N2085 1.384 . S
N2084 C2080 1.427 . S
N2084 C2081 1.384 . S
N2085 C2077 1.427 . S
N2085 C2083 1.384 . S
H2086 C2092 0.930 . S
H2087 C2096 0.930 . S
H2088 C2101 0.929 . S
H2089 C2099 0.929 . S
H2090 C2094 0.929 . S
H2091 C2100 0.929 . S
C2092 H2086 0.930 . S
C2092 C2093 1.367 . S
C2092 C2100 1.378 . S
C2093 C2092 1.367 . S
C2093 C2101 1.433 . S
C2094 H2090 0.929 . S
C2094 C2096 1.378 . S
C2094 C2098 1.350 . S
C2095 C2098 1.463 . S
C2095 C2100 1.350 . S
C2095 N2103 1.427 . S
C2096 H2087 0.930 . S
C2096 C2094 1.378 . S
C2096 C2097 1.367 . S
C2097 C2096 1.367 . S
C2097 C2099 1.433 . S
C2098 C2094 1.350 . S
C2098 C2095 1.463 . S
C2098 N2102 1.427 . S
C2099 H2089 0.929 . S
C2099 C2097 1.433 . S
C2099 N2102 1.384 . S
C2100 H2091 0.929 . S
C2100 C2092 1.378 . S
C2100 C2095 1.350 . S
C2101 H2088 0.929 . S
C2101 C2093 1.433 . S
C2101 N2103 1.384 . S
N2102 C2098 1.427 . S
N2102 C2099 1.384 . S
N2103 C2095 1.427 . S
N2103 C2101 1.384 . S
H2104 C2110 0.930 . S
H2105 C2114 0.930 . S
H2106 C2119 0.929 . S
H2107 C2117 0.929 . S
H2108 C2112 0.929 . S
H2109 C2118 0.929 . S
C2110 H2104 0.930 . S
C2110 C2111 1.367 . S
C2110 C2118 1.378 . S
C2111 C2110 1.367 . S
C2111 C2119 1.433 . S
C2112 H2108 0.929 . S
C2112 C2114 1.378 . S
C2112 C2116 1.350 . S
C2113 C2116 1.463 . S
C2113 C2118 1.350 . S
C2113 N2121 1.427 . S
C2114 H2105 0.930 . S
C2114 C2112 1.378 . S
C2114 C2115 1.367 . S
C2115 C2114 1.367 . S
C2115 C2117 1.433 . S
C2116 C2112 1.350 . S
C2116 C2113 1.463 . S
C2116 N2120 1.427 . S
C2117 H2107 0.929 . S
C2117 C2115 1.433 . S
C2117 N2120 1.384 . S
C2118 H2109 0.929 . S
C2118 C2110 1.378 . S
C2118 C2113 1.350 . S
C2119 H2106 0.929 . S
C2119 C2111 1.433 . S
C2119 N2121 1.384 . S
N2120 C2116 1.427 . S
N2120 C2117 1.384 . S
N2121 C2113 1.427 . S
N2121 C2119 1.384 . S
H2122 C2128 0.930 . S
H2123 C2132 0.930 . S
H2124 C2137 0.929 . S
H2125 C2135 0.929 . S
H2126 C2130 0.929 . S
H2127 C2136 0.929 . S
C2128 H2122 0.930 . S
C2128 C2129 1.367 . S
C2128 C2136 1.378 . S
C2129 C2128 1.367 . S
C2129 C2137 1.433 . S
C2130 H2126 0.929 . S
C2130 C2132 1.378 . S
C2130 C2134 1.350 . S
C2131 C2134 1.463 . S
C2131 C2136 1.350 . S
C2131 N2139 1.427 . S
C2132 H2123 0.930 . S
C2132 C2130 1.378 . S
C2132 C2133 1.367 . S
C2133 C2132 1.367 . S
C2133 C2135 1.433 . S
C2134 C2130 1.350 . S
C2134 C2131 1.463 . S
C2134 N2138 1.427 . S
C2135 H2125 0.929 . S
C2135 C2133 1.433 . S
C2135 N2138 1.384 . S
C2136 H2127 0.929 . S
C2136 C2128 1.378 . S
C2136 C2131 1.350 . S
C2137 H2124 0.929 . S
C2137 C2129 1.433 . S
C2137 N2139 1.384 . S
N2138 C2134 1.427 . S
N2138 C2135 1.384 . S
N2139 C2131 1.427 . S
N2139 C2137 1.384 . S
H2140 C2146 0.930 . S
H2141 C2150 0.930 . S
H2142 C2155 0.929 . S
H2143 C2153 0.929 . S
H2144 C2148 0.929 . S
H2145 C2154 0.929 . S
C2146 H2140 0.930 . S
C2146 C2147 1.367 . S
C2146 C2154 1.378 . S
C2147 C2146 1.367 . S
C2147 C2155 1.433 . S
C2148 H2144 0.929 . S
C2148 C2150 1.378 . S
C2148 C2152 1.350 . S
C2149 C2152 1.463 . S
C2149 C2154 1.350 . S
C2149 N2157 1.427 . S
C2150 H2141 0.930 . S
C2150 C2148 1.378 . S
C2150 C2151 1.367 . S
C2151 C2150 1.367 . S
C2151 C2153 1.433 . S
C2152 C2148 1.350 . S
C2152 C2149 1.463 . S
C2152 N2156 1.427 . S
C2153 H2143 0.929 . S
C2153 C2151 1.433 . S
C2153 N2156 1.384 . S
C2154 H2145 0.929 . S
C2154 C2146 1.378 . S
C2154 C2149 1.350 . S
C2155 H2142 0.929 . S
C2155 C2147 1.433 . S
C2155 N2157 1.384 . S
N2156 C2152 1.427 . S
N2156 C2153 1.384 . S
N2157 C2149 1.427 . S
N2157 C2155 1.384 . S
H2158 C2164 0.930 . S
H2159 C2168 0.930 . S
H2160 C2173 0.929 . S
H2161 C2171 0.929 . S
H2162 C2166 0.929 . S
H2163 C2172 0.929 . S
C2164 H2158 0.930 . S
C2164 C2165 1.367 . S
C2164 C2172 1.378 . S
C2165 C2164 1.367 . S
C2165 C2173 1.433 . S
C2166 H2162 0.929 . S
C2166 C2168 1.378 . S
C2166 C2170 1.350 . S
C2167 C2170 1.463 . S
C2167 C2172 1.350 . S
C2167 N2175 1.427 . S
C2168 H2159 0.930 . S
C2168 C2166 1.378 . S
C2168 C2169 1.367 . S
C2169 C2168 1.367 . S
C2169 C2171 1.433 . S
C2170 C2166 1.350 . S
C2170 C2167 1.463 . S
C2170 N2174 1.427 . S
C2171 H2161 0.929 . S
C2171 C2169 1.433 . S
C2171 N2174 1.384 . S
C2172 H2163 0.929 . S
C2172 C2164 1.378 . S
C2172 C2167 1.350 . S
C2173 H2160 0.929 . S
C2173 C2165 1.433 . S
C2173 N2175 1.384 . S
N2174 C2170 1.427 . S
N2174 C2171 1.384 . S
N2175 C2167 1.427 . S
N2175 C2173 1.384 . S
H2176 C2182 0.930 . S
H2177 C2186 0.930 . S
H2178 C2191 0.929 . S
H2179 C2189 0.929 . S
H2180 C2184 0.929 . S
H2181 C2190 0.929 . S
C2182 H2176 0.930 . S
C2182 C2183 1.367 . S
C2182 C2190 1.378 . S
C2183 C2182 1.367 . S
C2183 C2191 1.433 . S
C2184 H2180 0.929 . S
C2184 C2186 1.378 . S
C2184 C2188 1.350 . S
C2185 C2188 1.463 . S
C2185 C2190 1.350 . S
C2185 N2193 1.427 . S
C2186 H2177 0.930 . S
C2186 C2184 1.378 . S
C2186 C2187 1.367 . S
C2187 C2186 1.367 . S
C2187 C2189 1.433 . S
C2188 C2184 1.350 . S
C2188 C2185 1.463 . S
C2188 N2192 1.427 . S
C2189 H2179 0.929 . S
C2189 C2187 1.433 . S
C2189 N2192 1.384 . S
C2190 H2181 0.929 . S
C2190 C2182 1.378 . S
C2190 C2185 1.350 . S
C2191 H2178 0.929 . S
C2191 C2183 1.433 . S
C2191 N2193 1.384 . S
N2192 C2188 1.427 . S
N2192 C2189 1.384 . S
N2193 C2185 1.427 . S
N2193 C2191 1.384 . S
H2194 C2200 0.930 . S
H2195 C2204 0.930 . S
H2196 C2209 0.929 . S
H2197 C2207 0.929 . S
H2198 C2202 0.929 . S
H2199 C2208 0.929 . S
C2200 H2194 0.930 . S
C2200 C2201 1.367 . S
C2200 C2208 1.378 . S
C2201 C2200 1.367 . S
C2201 C2209 1.433 . S
C2202 H2198 0.929 . S
C2202 C2204 1.378 . S
C2202 C2206 1.350 . S
C2203 C2206 1.463 . S
C2203 C2208 1.350 . S
C2203 N2211 1.427 . S
C2204 H2195 0.930 . S
C2204 C2202 1.378 . S
C2204 C2205 1.367 . S
C2205 C2204 1.367 . S
C2205 C2207 1.433 . S
C2206 C2202 1.350 . S
C2206 C2203 1.463 . S
C2206 N2210 1.427 . S
C2207 H2197 0.929 . S
C2207 C2205 1.433 . S
C2207 N2210 1.384 . S
C2208 H2199 0.929 . S
C2208 C2200 1.378 . S
C2208 C2203 1.350 . S
C2209 H2196 0.929 . S
C2209 C2201 1.433 . S
C2209 N2211 1.384 . S
N2210 C2206 1.427 . S
N2210 C2207 1.384 . S
N2211 C2203 1.427 . S
N2211 C2209 1.384 . S
H2212 C2218 0.930 . S
H2213 C2222 0.930 . S
H2214 C2227 0.929 . S
H2215 C2225 0.929 . S
H2216 C2220 0.929 . S
H2217 C2226 0.929 . S
C2218 H2212 0.930 . S
C2218 C2219 1.367 . S
C2218 C2226 1.378 . S
C2219 C2218 1.367 . S
C2219 C2227 1.433 . S
C2220 H2216 0.929 . S
C2220 C2222 1.378 . S
C2220 C2224 1.350 . S
C2221 C2224 1.463 . S
C2221 C2226 1.350 . S
C2221 N2229 1.427 . S
C2222 H2213 0.930 . S
C2222 C2220 1.378 . S
C2222 C2223 1.367 . S
C2223 C2222 1.367 . S
C2223 C2225 1.433 . S
C2224 C2220 1.350 . S
C2224 C2221 1.463 . S
C2224 N2228 1.427 . S
C2225 H2215 0.929 . S
C2225 C2223 1.433 . S
C2225 N2228 1.384 . S
C2226 H2217 0.929 . S
C2226 C2218 1.378 . S
C2226 C2221 1.350 . S
C2227 H2214 0.929 . S
C2227 C2219 1.433 . S
C2227 N2229 1.384 . S
N2228 C2224 1.427 . S
N2228 C2225 1.384 . S
N2229 C2221 1.427 . S
N2229 C2227 1.384 . S
H2230 C2236 0.930 . S
H2231 C2240 0.930 . S
H2232 C2245 0.929 . S
H2233 C2243 0.929 . S
H2234 C2238 0.929 . S
H2235 C2244 0.929 . S
C2236 H2230 0.930 . S
C2236 C2237 1.367 . S
C2236 C2244 1.378 . S
C2237 C2236 1.367 . S
C2237 C2245 1.433 . S
C2238 H2234 0.929 . S
C2238 C2240 1.378 . S
C2238 C2242 1.350 . S
C2239 C2242 1.463 . S
C2239 C2244 1.350 . S
C2239 N2247 1.427 . S
C2240 H2231 0.930 . S
C2240 C2238 1.378 . S
C2240 C2241 1.367 . S
C2241 C2240 1.367 . S
C2241 C2243 1.433 . S
C2242 C2238 1.350 . S
C2242 C2239 1.463 . S
C2242 N2246 1.427 . S
C2243 H2233 0.929 . S
C2243 C2241 1.433 . S
C2243 N2246 1.384 . S
C2244 H2235 0.929 . S
C2244 C2236 1.378 . S
C2244 C2239 1.350 . S
C2245 H2232 0.929 . S
C2245 C2237 1.433 . S
C2245 N2247 1.384 . S
N2246 C2242 1.427 . S
N2246 C2243 1.384 . S
N2247 C2239 1.427 . S
N2247 C2245 1.384 . S
H2248 C2254 0.930 . S
H2249 C2258 0.930 . S
H2250 C2263 0.929 . S
H2251 C2261 0.929 . S
H2252 C2256 0.929 . S
H2253 C2262 0.929 . S
C2254 H2248 0.930 . S
C2254 C2255 1.367 . S
C2254 C2262 1.378 . S
C2255 C2254 1.367 . S
C2255 C2263 1.433 . S
C2256 H2252 0.929 . S
C2256 C2258 1.378 . S
C2256 C2260 1.350 . S
C2257 C2260 1.463 . S
C2257 C2262 1.350 . S
C2257 N2265 1.427 . S
C2258 H2249 0.930 . S
C2258 C2256 1.378 . S
C2258 C2259 1.367 . S
C2259 C2258 1.367 . S
C2259 C2261 1.433 . S
C2260 C2256 1.350 . S
C2260 C2257 1.463 . S
C2260 N2264 1.427 . S
C2261 H2251 0.929 . S
C2261 C2259 1.433 . S
C2261 N2264 1.384 . S
C2262 H2253 0.929 . S
C2262 C2254 1.378 . S
C2262 C2257 1.350 . S
C2263 H2250 0.929 . S
C2263 C2255 1.433 . S
C2263 N2265 1.384 . S
N2264 C2260 1.427 . S
N2264 C2261 1.384 . S
N2265 C2257 1.427 . S
N2265 C2263 1.384 . S
H2266 C2272 0.930 . S
H2267 C2276 0.930 . S
H2268 C2281 0.929 . S
H2269 C2279 0.929 . S
H2270 C2274 0.929 . S
H2271 C2280 0.929 . S
C2272 H2266 0.930 . S
C2272 C2273 1.367 . S
C2272 C2280 1.378 . S
C2273 C2272 1.367 . S
C2273 C2281 1.433 . S
C2274 H2270 0.929 . S
C2274 C2276 1.378 . S
C2274 C2278 1.350 . S
C2275 C2278 1.463 . S
C2275 C2280 1.350 . S
C2275 N2283 1.427 . S
C2276 H2267 0.930 . S
C2276 C2274 1.378 . S
C2276 C2277 1.367 . S
C2277 C2276 1.367 . S
C2277 C2279 1.433 . S
C2278 C2274 1.350 . S
C2278 C2275 1.463 . S
C2278 N2282 1.427 . S
C2279 H2269 0.929 . S
C2279 C2277 1.433 . S
C2279 N2282 1.384 . S
C2280 H2271 0.929 . S
C2280 C2272 1.378 . S
C2280 C2275 1.350 . S
C2281 H2268 0.929 . S
C2281 C2273 1.433 . S
C2281 N2283 1.384 . S
N2282 C2278 1.427 . S
N2282 C2279 1.384 . S
N2283 C2275 1.427 . S
N2283 C2281 1.384 . S
H2284 C2290 0.930 . S
H2285 C2294 0.930 . S
H2286 C2299 0.929 . S
H2287 C2297 0.929 . S
H2288 C2292 0.929 . S
H2289 C2298 0.929 . S
C2290 H2284 0.930 . S
C2290 C2291 1.367 . S
C2290 C2298 1.378 . S
C2291 C2290 1.367 . S
C2291 C2299 1.433 . S
C2292 H2288 0.929 . S
C2292 C2294 1.378 . S
C2292 C2296 1.350 . S
C2293 C2296 1.463 . S
C2293 C2298 1.350 . S
C2293 N2301 1.427 . S
C2294 H2285 0.930 . S
C2294 C2292 1.378 . S
C2294 C2295 1.367 . S
C2295 C2294 1.367 . S
C2295 C2297 1.433 . S
C2296 C2292 1.350 . S
C2296 C2293 1.463 . S
C2296 N2300 1.427 . S
C2297 H2287 0.929 . S
C2297 C2295 1.433 . S
C2297 N2300 1.384 . S
C2298 H2289 0.929 . S
C2298 C2290 1.378 . S
C2298 C2293 1.350 . S
C2299 H2286 0.929 . S
C2299 C2291 1.433 . S
C2299 N2301 1.384 . S
N2300 C2296 1.427 . S
N2300 C2297 1.384 . S
N2301 C2293 1.427 . S
N2301 C2299 1.384 . S
H2302 C2308 0.930 . S
H2303 C2312 0.930 . S
H2304 C2317 0.929 . S
H2305 C2315 0.929 . S
H2306 C2310 0.929 . S
H2307 C2316 0.929 . S
C2308 H2302 0.930 . S
C2308 C2309 1.367 . S
C2308 C2316 1.378 . S
C2309 C2308 1.367 . S
C2309 C2317 1.433 . S
C2310 H2306 0.929 . S
C2310 C2312 1.378 . S
C2310 C2314 1.350 . S
C2311 C2314 1.463 . S
C2311 C2316 1.350 . S
C2311 N2319 1.427 . S
C2312 H2303 0.930 . S
C2312 C2310 1.378 . S
C2312 C2313 1.367 . S
C2313 C2312 1.367 . S
C2313 C2315 1.433 . S
C2314 C2310 1.350 . S
C2314 C2311 1.463 . S
C2314 N2318 1.427 . S
C2315 H2305 0.929 . S
C2315 C2313 1.433 . S
C2315 N2318 1.384 . S
C2316 H2307 0.929 . S
C2316 C2308 1.378 . S
C2316 C2311 1.350 . S
C2317 H2304 0.929 . S
C2317 C2309 1.433 . S
C2317 N2319 1.384 . S
N2318 C2314 1.427 . S
N2318 C2315 1.384 . S
N2319 C2311 1.427 . S
N2319 C2317 1.384 . S
H2320 C2326 0.930 . S
H2321 C2330 0.930 . S
H2322 C2335 0.929 . S
H2323 C2333 0.929 . S
H2324 C2328 0.929 . S
H2325 C2334 0.929 . S
C2326 H2320 0.930 . S
C2326 C2327 1.367 . S
C2326 C2334 1.378 . S
C2327 C2326 1.367 . S
C2327 C2335 1.433 . S
C2328 H2324 0.929 . S
C2328 C2330 1.378 . S
C2328 C2332 1.350 . S
C2329 C2332 1.463 . S
C2329 C2334 1.350 . S
C2329 N2337 1.427 . S
C2330 H2321 0.930 . S
C2330 C2328 1.378 . S
C2330 C2331 1.367 . S
C2331 C2330 1.367 . S
C2331 C2333 1.433 . S
C2332 C2328 1.350 . S
C2332 C2329 1.463 . S
C2332 N2336 1.427 . S
C2333 H2323 0.929 . S
C2333 C2331 1.433 . S
C2333 N2336 1.384 . S
C2334 H2325 0.929 . S
C2334 C2326 1.378 . S
C2334 C2329 1.350 . S
C2335 H2322 0.929 . S
C2335 C2327 1.433 . S
C2335 N2337 1.384 . S
N2336 C2332 1.427 . S
N2336 C2333 1.384 . S
N2337 C2329 1.427 . S
N2337 C2335 1.384 . S
H2338 C2344 0.930 . S
H2339 C2348 0.930 . S
H2340 C2353 0.929 . S
H2341 C2351 0.929 . S
H2342 C2346 0.929 . S
H2343 C2352 0.929 . S
C2344 H2338 0.930 . S
C2344 C2345 1.367 . S
C2344 C2352 1.378 . S
C2345 C2344 1.367 . S
C2345 C2353 1.433 . S
C2346 H2342 0.929 . S
C2346 C2348 1.378 . S
C2346 C2350 1.350 . S
C2347 C2350 1.463 . S
C2347 C2352 1.350 . S
C2347 N2355 1.427 . S
C2348 H2339 0.930 . S
C2348 C2346 1.378 . S
C2348 C2349 1.367 . S
C2349 C2348 1.367 . S
C2349 C2351 1.433 . S
C2350 C2346 1.350 . S
C2350 C2347 1.463 . S
C2350 N2354 1.427 . S
C2351 H2341 0.929 . S
C2351 C2349 1.433 . S
C2351 N2354 1.384 . S
C2352 H2343 0.929 . S
C2352 C2344 1.378 . S
C2352 C2347 1.350 . S
C2353 H2340 0.929 . S
C2353 C2345 1.433 . S
C2353 N2355 1.384 . S
N2354 C2350 1.427 . S
N2354 C2351 1.384 . S
N2355 C2347 1.427 . S
N2355 C2353 1.384 . S
H2356 C2362 0.930 . S
H2357 C2366 0.930 . S
H2358 C2371 0.929 1_545 S
H2359 C2369 0.929 . S
H2360 C2364 0.929 . S
H2361 C2370 0.929 . S
C2362 H2356 0.930 . S
C2362 C2363 1.367 . S
C2362 C2370 1.378 . S
C2363 C2362 1.367 . S
C2363 C2371 1.433 . S
C2364 H2360 0.929 . S
C2364 C2366 1.378 . S
C2364 C2368 1.350 . S
C2365 C2368 1.463 . S
C2365 C2370 1.350 . S
C2365 N2373 1.427 . S
C2366 H2357 0.930 . S
C2366 C2364 1.378 . S
C2366 C2367 1.367 . S
C2367 C2366 1.367 . S
C2367 C2369 1.433 . S
C2368 C2364 1.350 . S
C2368 C2365 1.463 . S
C2368 N2372 1.427 . S
C2369 H2359 0.929 . S
C2369 C2367 1.433 . S
C2369 N2372 1.384 . S
C2370 H2361 0.929 . S
C2370 C2362 1.378 . S
C2370 C2365 1.350 . S
C2371 H2358 0.929 1_565 S
C2371 C2363 1.433 . S
C2371 N2373 1.384 . S
N2372 C2368 1.427 . S
N2372 C2369 1.384 . S
N2373 C2365 1.427 . S
N2373 C2371 1.384 . S
H2374 C2380 0.930 . S
H2375 C2384 0.930 . S
H2376 C2389 0.929 . S
H2377 C2387 0.929 . S
H2378 C2382 0.929 . S
H2379 C2388 0.929 . S
C2380 H2374 0.930 . S
C2380 C2381 1.367 . S
C2380 C2388 1.378 . S
C2381 C2380 1.367 . S
C2381 C2389 1.433 . S
C2382 H2378 0.929 . S
C2382 C2384 1.378 1_455 S
C2382 C2386 1.350 . S
C2383 C2386 1.463 . S
C2383 C2388 1.350 . S
C2383 N2391 1.427 . S
C2384 H2375 0.930 . S
C2384 C2382 1.378 1_655 S
C2384 C2385 1.367 . S
C2385 C2384 1.367 . S
C2385 C2387 1.433 . S
C2386 C2382 1.350 . S
C2386 C2383 1.463 . S
C2386 N2390 1.427 1_455 S
C2387 H2377 0.929 . S
C2387 C2385 1.433 . S
C2387 N2390 1.384 . S
C2388 H2379 0.929 . S
C2388 C2380 1.378 . S
C2388 C2383 1.350 . S
C2389 H2376 0.929 . S
C2389 C2381 1.433 . S
C2389 N2391 1.384 . S
N2390 C2386 1.427 1_655 S
N2390 C2387 1.384 . S
N2391 C2383 1.427 . S
N2391 C2389 1.384 . S
C675 C330 1.229 . S
C671 C10 1.249 . S
C689 C16 1.258 . S
C693 C342 1.246 . S
C711 C377 1.262 . S
C707 C30 1.289 . S
C729 C386 1.254 . S
C725 C42 1.265 . S
C747 C341 1.252 . S
C743 C57 1.294 . S
C761 C69 1.264 . S
C765 C366 1.257 . S
C783 C385 1.249 . S
C779 C83 1.287 . S
C797 C101 1.301 . S
C801 C327 1.260 . S
C815 C108 1.262 . S
C819 C320 1.256 . S
C837 C344 1.263 . S
C833 C120 1.280 . S
C855 C363 1.259 . S
C851 C133 1.295 . S
C873 C388 1.248 . S
C869 C147 1.269 . S
C891 C349 1.229 . S
C887 C114 1.270 . S
C909 C374 1.252 . S
C905 C122 1.267 . S
C923 C135 1.289 . S
C927 C393 1.246 . S
C945 C333 1.237 . S
C941 C153 1.269 . S
C959 C160 1.261 . S
C963 C322 1.254 . S
C977 C174 1.283 . S
C981 C421 1.249 . S
C999 C437 1.239 . S
C995 C187 1.283 . S
C1017 C451 1.239 . S
C1013 C205 1.266 . S
C1031 C212 1.288 . S
C1035 C319 1.257 . S
C1049 C226 1.302 . S
C1053 C371 1.254 . S
C1071 C454 1.263 . S
C1067 C185 1.279 . S
C1089 C418 1.279 . S
C1085 C244 1.290 . S
C1107 C474 1.212 . S
C1103 C23 1.227 . S
C1125 C498 1.224 . S
C1121 C5 1.230 . S
C1139 C49 1.263 . S
C1143 C531 1.229 . S
C1157 C29 1.279 . S
C1161 C539 1.261 . S
C1175 C94 1.282 . S
C1179 C509 1.246 . S
C1193 C88 1.242 . S
C1197 C520 1.238 . S
C1215 C540 1.231 . S
C1211 C70 1.253 . S
C1229 C62 1.270 . S
C1233 C473 1.243 . S
C1247 C257 1.223 . S
C1251 C476 1.216 . S
C1269 C506 1.236 . S
C1265 C200 1.249 . S
C1287 C517 1.245 . S
C1283 C211 1.279 . S
C1305 C547 1.250 . S
C1301 C179 1.272 . S
C1323 C495 1.244 . S
C1319 C251 1.260 . S
C1341 C528 1.229 . S
C1337 C198 1.236 . S
C1359 C542 1.232 . S
C1355 C213 1.253 . S
C1373 C173 1.269 . S
C1377 C481 1.248 . S
C1395 C484 1.210 . S
C1391 C264 1.218 . S
C1409 C148 1.255 . S
C1413 C572 1.248 . S
C1431 C584 1.254 . S
C1427 C278 1.257 . S
C1445 C127 1.276 . S
C1449 C605 1.239 . S
C1467 C487 1.257 . S
C1463 C140 1.288 . S
C1485 C525 1.238 . S
C1481 C289 1.258 . S
C1503 C608 1.200 . S
C1499 C276 1.211 . S
C1517 C303 1.254 . S
C1521 C575 1.227 . S
C1535 C36 1.259 . S
C1539 C630 1.248 . S
C1553 C44 1.255 . S
C1557 C408 1.246 . S
C1575 C432 1.235 . S
C1571 C4 1.244 . S
C1589 C18 1.271 . S
C1593 C462 1.250 . S
C1607 C81 1.276 . S
C1611 C407 1.234 . S
C1625 C95 1.289 . S
C1629 C443 1.264 . S
C1647 C459 1.266 . S
C1643 C55 1.309 . S
C1665 C641 1.254 . S
C1661 C75 1.280 . S
C1683 C638 1.243 . S
C1679 C277 1.255 . S
C1701 C410 1.244 . S
C1697 C263 1.268 . S
C1719 C440 1.266 . S
C1715 C302 1.278 . S
C1733 C290 1.283 . S
C1737 C452 1.265 . S
C1755 C415 1.228 . S
C1751 C283 1.269 . S
C1769 C265 1.258 . S
C1773 C429 1.220 . S
C1791 C465 1.253 . S
C1787 C304 1.283 . S
C1805 C296 1.289 . S
C1809 C627 1.252 . S
C1827 C628 1.259 . S
C1823 C199 1.268 . S
C1841 C224 1.280 . S
C1845 C355 1.248 . S
C1863 C364 1.227 . S
C1859 C252 1.248 . S
C1877 C166 1.257 . S
C1881 C399 1.234 . S
C1899 C635 1.246 . S
C1895 C238 1.273 . S
C1917 C430 1.253 . S
C1913 C172 1.275 . S
C1935 C396 1.249 . S
C1931 C250 1.266 . S
C1953 C352 1.249 . S
C1949 C218 1.266 . S
C1967 C43 1.265 . S
C1971 C649 1.243 . S
C1985 C31 1.264 . S
C1989 C561 1.230 . S
C2003 C17 1.253 . S
C2007 C597 1.243 . S
C2025 C616 1.219 . S
C2021 C3 1.234 . S
C2043 C562 1.231 . S
C2039 C68 1.237 . S
C2057 C56 1.245 . S
C2061 C586 1.243 . S
C2079 C613 1.245 . S
C2075 C96 1.286 . S
C2093 C82 1.254 . S
C2097 C650 1.240 . S
C2115 C657 1.239 . S
C2111 C192 1.268 . S
C2129 C161 1.261 . S
C2133 C569 1.240 . S
C2147 C237 1.277 . S
C2151 C583 1.238 . S
C2169 C606 1.230 . S
C2165 C225 1.238 . S
C2187 C564 1.231 . S
C2183 C186 1.235 . S
C2201 C159 1.242 . S
C2205 C594 1.218 . S
C2223 C619 1.241 . S
C2219 C239 1.272 . S
C2241 C652 1.241 . S
C2237 C231 1.255 . S
C2259 C663 1.221 . S
C2255 C121 1.250 . S
C2277 C503 1.275 . S
C2273 C291 1.299 . S
C2291 C109 1.263 . S
C2295 C518 1.238 . S
C2309 C270 1.253 . S
C2313 C550 1.235 . S
C2331 C660 1.248 . S
C2327 C309 1.262 . S
C2349 C591 1.233 . S
C2345 C146 1.254 . S
C2367 C553 1.233 . S
C2363 C107 1.259 . S
C2385 C496 1.232 . S
C2381 C134 1.234 . S
