# Generated by pormake.
# Topology iac, (4,6)-cn, num edge types: 1
# Building blocks:
#     Node 0, Type 0, BuildingBlock: TATPOV_clean_sbu_0, # of connection points: 4
#     Node 1, Type 0, BuildingBlock: TATPOV_clean_sbu_0, # of connection points: 4
#     Node 2, Type 0, BuildingBlock: TATPOV_clean_sbu_0, # of connection points: 4
#     Node 3, Type 0, BuildingBlock: TATPOV_clean_sbu_0, # of connection points: 4
#     Node 4, Type 0, BuildingBlock: TATPOV_clean_sbu_0, # of connection points: 4
#     Node 5, Type 0, BuildingBlock: TATPOV_clean_sbu_0, # of connection points: 4
#     Node 6, Type 0, BuildingBlock: TATPOV_clean_sbu_0, # of connection points: 4
#     Node 7, Type 0, BuildingBlock: TATPOV_clean_sbu_0, # of connection points: 4
#     Node 8, Type 0, BuildingBlock: TATPOV_clean_sbu_0, # of connection points: 4
#     Node 9, Type 0, BuildingBlock: TATPOV_clean_sbu_0, # of connection points: 4
#     Node 10, Type 0, BuildingBlock: TATPOV_clean_sbu_0, # of connection points: 4
#     Node 11, Type 0, BuildingBlock: TATPOV_clean_sbu_0, # of connection points: 4
#     Node 12, Type 0, BuildingBlock: TATPOV_clean_sbu_0, # of connection points: 4
#     Node 13, Type 0, BuildingBlock: TATPOV_clean_sbu_0, # of connection points: 4
#     Node 14, Type 0, BuildingBlock: TATPOV_clean_sbu_0, # of connection points: 4
#     Node 15, Type 0, BuildingBlock: TATPOV_clean_sbu_0, # of connection points: 4
#     Node 16, Type 0, BuildingBlock: TATPOV_clean_sbu_0, # of connection points: 4
#     Node 17, Type 0, BuildingBlock: TATPOV_clean_sbu_0, # of connection points: 4
#     Node 18, Type 0, BuildingBlock: TATPOV_clean_sbu_0, # of connection points: 4
#     Node 19, Type 0, BuildingBlock: TATPOV_clean_sbu_0, # of connection points: 4
#     Node 20, Type 0, BuildingBlock: TATPOV_clean_sbu_0, # of connection points: 4
#     Node 21, Type 0, BuildingBlock: TATPOV_clean_sbu_0, # of connection points: 4
#     Node 22, Type 0, BuildingBlock: TATPOV_clean_sbu_0, # of connection points: 4
#     Node 23, Type 0, BuildingBlock: TATPOV_clean_sbu_0, # of connection points: 4
#     Node 24, Type 1, BuildingBlock: FUNLAD_clean_sbu_0, # of connection points: 6
#     Node 25, Type 1, BuildingBlock: FUNLAD_clean_sbu_0, # of connection points: 6
#     Node 26, Type 1, BuildingBlock: FUNLAD_clean_sbu_0, # of connection points: 6
#     Node 27, Type 1, BuildingBlock: FUNLAD_clean_sbu_0, # of connection points: 6
#     Node 28, Type 1, BuildingBlock: FUNLAD_clean_sbu_0, # of connection points: 6
#     Node 29, Type 1, BuildingBlock: FUNLAD_clean_sbu_0, # of connection points: 6
#     Node 30, Type 1, BuildingBlock: FUNLAD_clean_sbu_0, # of connection points: 6
#     Node 31, Type 1, BuildingBlock: FUNLAD_clean_sbu_0, # of connection points: 6
#     Node 32, Type 1, BuildingBlock: FUNLAD_clean_sbu_0, # of connection points: 6
#     Node 33, Type 1, BuildingBlock: FUNLAD_clean_sbu_0, # of connection points: 6
#     Node 34, Type 1, BuildingBlock: FUNLAD_clean_sbu_0, # of connection points: 6
#     Node 35, Type 1, BuildingBlock: FUNLAD_clean_sbu_0, # of connection points: 6
#     Node 36, Type 1, BuildingBlock: FUNLAD_clean_sbu_0, # of connection points: 6
#     Node 37, Type 1, BuildingBlock: FUNLAD_clean_sbu_0, # of connection points: 6
#     Node 38, Type 1, BuildingBlock: FUNLAD_clean_sbu_0, # of connection points: 6
#     Node 39, Type 1, BuildingBlock: FUNLAD_clean_sbu_0, # of connection points: 6
#     Edge 40, Type (0, 1), None
#     Edge 41, Type (0, 1), None
#     Edge 42, Type (0, 1), None
#     Edge 43, Type (0, 1), None
#     Edge 44, Type (0, 1), None
#     Edge 45, Type (0, 1), None
#     Edge 46, Type (0, 1), None
#     Edge 47, Type (0, 1), None
#     Edge 48, Type (0, 1), None
#     Edge 49, Type (0, 1), None
#     Edge 50, Type (0, 1), None
#     Edge 51, Type (0, 1), None
#     Edge 52, Type (0, 1), None
#     Edge 53, Type (0, 1), None
#     Edge 54, Type (0, 1), None
#     Edge 55, Type (0, 1), None
#     Edge 56, Type (0, 1), None
#     Edge 57, Type (0, 1), None
#     Edge 58, Type (0, 1), None
#     Edge 59, Type (0, 1), None
#     Edge 60, Type (0, 1), None
#     Edge 61, Type (0, 1), None
#     Edge 62, Type (0, 1), None
#     Edge 63, Type (0, 1), None
#     Edge 64, Type (0, 1), None
#     Edge 65, Type (0, 1), None
#     Edge 66, Type (0, 1), None
#     Edge 67, Type (0, 1), None
#     Edge 68, Type (0, 1), None
#     Edge 69, Type (0, 1), None
#     Edge 70, Type (0, 1), None
#     Edge 71, Type (0, 1), None
#     Edge 72, Type (0, 1), None
#     Edge 73, Type (0, 1), None
#     Edge 74, Type (0, 1), None
#     Edge 75, Type (0, 1), None
#     Edge 76, Type (0, 1), None
#     Edge 77, Type (0, 1), None
#     Edge 78, Type (0, 1), None
#     Edge 79, Type (0, 1), None
#     Edge 80, Type (0, 1), None
#     Edge 81, Type (0, 1), None
#     Edge 82, Type (0, 1), None
#     Edge 83, Type (0, 1), None
#     Edge 84, Type (0, 1), None
#     Edge 85, Type (0, 1), None
#     Edge 86, Type (0, 1), None
#     Edge 87, Type (0, 1), None
#     Edge 88, Type (0, 1), None
#     Edge 89, Type (0, 1), None
#     Edge 90, Type (0, 1), None
#     Edge 91, Type (0, 1), None
#     Edge 92, Type (0, 1), None
#     Edge 93, Type (0, 1), None
#     Edge 94, Type (0, 1), None
#     Edge 95, Type (0, 1), None
#     Edge 96, Type (0, 1), None
#     Edge 97, Type (0, 1), None
#     Edge 98, Type (0, 1), None
#     Edge 99, Type (0, 1), None
#     Edge 100, Type (0, 1), None
#     Edge 101, Type (0, 1), None
#     Edge 102, Type (0, 1), None
#     Edge 103, Type (0, 1), None
#     Edge 104, Type (0, 1), None
#     Edge 105, Type (0, 1), None
#     Edge 106, Type (0, 1), None
#     Edge 107, Type (0, 1), None
#     Edge 108, Type (0, 1), None
#     Edge 109, Type (0, 1), None
#     Edge 110, Type (0, 1), None
#     Edge 111, Type (0, 1), None
#     Edge 112, Type (0, 1), None
#     Edge 113, Type (0, 1), None
#     Edge 114, Type (0, 1), None
#     Edge 115, Type (0, 1), None
#     Edge 116, Type (0, 1), None
#     Edge 117, Type (0, 1), None
#     Edge 118, Type (0, 1), None
#     Edge 119, Type (0, 1), None
#     Edge 120, Type (0, 1), None
#     Edge 121, Type (0, 1), None
#     Edge 122, Type (0, 1), None
#     Edge 123, Type (0, 1), None
#     Edge 124, Type (0, 1), None
#     Edge 125, Type (0, 1), None
#     Edge 126, Type (0, 1), None
#     Edge 127, Type (0, 1), None
#     Edge 128, Type (0, 1), None
#     Edge 129, Type (0, 1), None
#     Edge 130, Type (0, 1), None
#     Edge 131, Type (0, 1), None
#     Edge 132, Type (0, 1), None
#     Edge 133, Type (0, 1), None
#     Edge 134, Type (0, 1), None
#     Edge 135, Type (0, 1), None
# Relax obj value: 0.528
# Max RMSD: 0.385
# Mean RMSD: 0.187
data_MOF--net-iac--node1-TATPOV_clean_sbu_0--node2-FUNLAD_clean_sbu_0--edge1-none
_symmetry_space_group_name_H-M    P1
_symmetry_Int_Tables_number       1
_symmetry_cell_setting            triclinic
loop_
_symmetry_equiv_pos_as_xyz
'x, y, z'
_cell_length_a     25.263009
_cell_length_b     24.117675
_cell_length_c     30.700196
_cell_angle_alpha  89.835676
_cell_angle_beta   91.692239
_cell_angle_gamma 90.38196
loop_
_atom_site_label
_atom_site_type_symbol
_atom_site_fract_x
_atom_site_fract_y
_atom_site_fract_z
_atom_type_partial_charge
Zn0 Zn 0.26221 0.19378 0.09604 0.0
Zn1 Zn 0.14932 0.22954 0.13082 0.0
O2 O 0.14811 0.25564 0.06929 0.0
O3 O 0.22806 0.2344 0.04503 0.0
O4 O 0.07777 0.21137 0.15758 0.0
O5 O 0.24144 0.10926 0.0972 0.0
O6 O 0.18709 0.16181 0.12902 0.0
C7 C 0.18211 0.25446 0.03915 0.0
C8 C 0.24651 0.28079 0.17136 0.0
O9 O 0.19588 0.28216 0.16869 0.0
O10 O 0.27268 0.24697 0.14847 0.0
C11 C 0.07651 0.20836 0.19902 0.0
O12 O 0.119 0.22292 0.22191 0.0
C13 C 0.1964 0.13141 0.09664 0.0
Zn14 Zn 1.00199 0.77685 0.46448 0.0
Zn15 Zn 0.08172 0.76988 0.41347 0.0
O16 O 0.08993 0.84322 0.45366 0.0
O17 O 0.02038 0.84386 0.49572 0.0
O18 O 0.15641 0.76644 0.37762 0.0
O19 O 1.01227 0.71128 0.5 0.0
O20 O 0.07745 0.69705 0.45465 0.0
C21 C 0.06382 0.86467 0.48482 0.0
C22 C 0.96396 0.77317 0.37655 0.0
O23 O 1.01368 0.77187 0.36826 0.0
O24 O 0.94961 0.77536 0.41558 0.0
C25 C 0.16704 0.75485 0.3377 0.0
O26 O 0.1277 0.7414 0.31079 0.0
C27 C 0.04963 0.68185 0.48731 0.0
Zn28 Zn 0.68369 0.61366 0.71936 0.0
Zn29 Zn 0.60104 0.72711 0.6734 0.0
O30 O 0.56199 0.67377 0.71612 0.0
O31 O 0.59747 0.59353 0.74057 0.0
O32 O 0.53776 0.75841 0.64229 0.0
O33 O 0.70229 0.71579 0.74386 0.0
O34 O 0.65618 0.77859 0.70426 0.0
C35 C 0.55909 0.62823 0.73761 0.0
C36 C 0.66987 0.65224 0.61121 0.0
O37 O 0.63756 0.68916 0.62318 0.0
O38 O 0.69368 0.62078 0.64027 0.0
C39 C 0.53602 0.76399 0.6011 0.0
O40 O 0.49024 0.7575 0.58041 0.0
C41 C 0.69334 0.76597 0.73159 0.0
Zn42 Zn 0.50701 0.28227 0.95672 0.0
Zn43 Zn 0.58484 0.27897 0.90623 0.0
O44 O 0.59208 0.35826 0.93862 0.0
O45 O 0.52105 0.35663 0.97851 0.0
O46 O 0.65646 0.27344 0.86995 0.0
O47 O 0.52079 0.22025 -0.00264 0.0
O48 O 0.58332 0.20642 0.94988 0.0
C49 C 0.56163 0.38176 0.9657 0.0
C50 C 0.4693 0.27734 0.86906 0.0
O51 O 0.51882 0.28015 0.86093 0.0
O52 O 0.45472 0.27438 0.908 0.0
C53 C 0.66495 0.26403 0.82946 0.0
O54 O 0.62442 0.25462 0.80269 0.0
C55 C 0.55781 0.19081 0.98381 0.0
Zn56 Zn 0.12877 0.09656 0.24184 0.0
Zn57 Zn 0.208 0.02629 0.24146 0.0
O58 O 0.16756 0.02764 0.29797 0.0
O59 O 0.09072 0.07007 0.29206 0.0
O60 O 0.25377 0.95677 0.24754 0.0
O61 O 0.10176 0.07682 0.1827 0.0
O62 O 0.16695 0.01685 0.1812 0.0
C63 C 0.125 0.04435 0.31479 0.0
C64 C 0.23784 0.14176 0.25916 0.0
O65 O 0.25603 0.09504 0.24744 0.0
O66 O 0.18843 0.15019 0.25846 0.0
C67 C 0.28429 0.94349 0.27972 0.0
O68 O 0.29079 0.97767 0.31268 0.0
C69 C 0.12561 0.03863 0.16346 0.0
Zn70 Zn 0.38491 0.80004 0.58555 0.0
Zn71 Zn 0.32864 0.8848 0.59005 0.0
O72 O 0.32015 0.84989 0.53053 0.0
O73 O 0.34321 0.76298 0.53936 0.0
O74 O 0.26399 0.93618 0.59312 0.0
O75 O 0.37832 0.76823 0.64447 0.0
O76 O 0.31815 0.83358 0.64523 0.0
C77 C 0.32715 0.80188 0.51498 0.0
C78 C 0.44116 0.903 0.56444 0.0
O79 O 0.4008 0.92694 0.58046 0.0
O80 O 0.44312 0.85073 0.56371 0.0
C81 C 0.25377 0.97535 0.56646 0.0
O82 O 0.28872 0.98814 0.53716 0.0
C83 C 0.33928 0.79027 0.66224 0.0
Zn84 Zn 0.54542 0.91076 0.74946 0.0
Zn85 Zn 0.48562 0.00055 0.75432 0.0
O86 O 0.53996 0.00519 0.80678 0.0
O87 O 0.59227 0.93313 0.79763 0.0
O88 O 0.44092 0.07803 0.75404 0.0
O89 O 0.57342 0.92018 0.69077 0.0
O90 O 0.52823 -0.00177 0.69402 0.0
C91 C 0.57984 0.97561 0.81869 0.0
C92 C 0.44229 0.87975 0.77483 0.0
O93 O 0.43373 0.93205 0.76971 0.0
O94 O 0.48679 0.85983 0.76575 0.0
C95 C 0.39587 0.08874 0.77078 0.0
O96 O 0.37123 0.04864 0.79113 0.0
C97 C 0.56104 0.96657 0.67451 0.0
Zn98 Zn 0.3255 0.20829 0.03072 0.0
Zn99 Zn 0.40045 0.08377 0.03562 0.0
O100 O 0.41696 0.11836 0.97673 0.0
O101 O 0.3994 0.19286 0.01147 0.0
O102 O 0.3895 0.00132 0.02648 0.0
O103 O 0.3815 0.1932 0.08427 0.0
O104 O 0.43519 0.11936 0.08957 0.0
C105 C 0.39892 0.16726 0.97559 0.0
C106 C 0.29609 0.10275 0.01692 0.0
O107 O 0.33085 0.10829 0.04653 0.0
O108 O 0.27314 0.14662 0.00431 0.0
C109 C 0.42815 0.97513 0.0117 0.0
O110 O 0.42199 0.92382 -0.00176 0.0
C111 C 0.41826 0.16561 0.10433 0.0
Zn112 Zn 0.87101 0.30792 0.08316 0.0
Zn113 Zn 0.81294 0.39219 0.08733 0.0
O114 O 0.80666 0.35442 0.02842 0.0
O115 O 0.83292 0.26838 0.03629 0.0
O116 O 0.74859 0.4463 0.08443 0.0
O117 O 0.86369 0.27778 0.14154 0.0
O118 O 0.80402 0.34352 0.14582 0.0
C119 C 0.81545 0.30702 0.01232 0.0
C120 C 0.9273 0.4098 0.06407 0.0
O121 O 0.88542 0.43313 0.07798 0.0
O122 O 0.93086 0.35747 0.06408 0.0
C123 C 0.74126 0.48572 0.05699 0.0
O124 O 0.77887 0.49786 0.02984 0.0
C125 C 0.82685 0.30024 0.16181 0.0
Zn126 Zn 0.0494 0.41171 0.24858 0.0
Zn127 Zn 0.98409 0.50026 0.25426 0.0
O128 O 0.03565 0.50137 0.30782 0.0
O129 O 0.0937 0.4342 0.29873 0.0
O130 O 0.94104 0.57721 0.25439 0.0
O131 O 0.07512 0.42524 0.18898 0.0
O132 O 0.02427 0.49902 0.19406 0.0
C133 C 0.07607 0.47352 0.32091 0.0
C134 C 0.94314 0.38154 0.27416 0.0
O135 O 0.93251 0.43318 0.26887 0.0
O136 O 0.98823 0.36316 0.26472 0.0
C137 C 0.89402 0.58415 0.26809 0.0
O138 O 0.869 0.54096 0.28384 0.0
C139 C 0.05801 0.4703 0.17324 0.0
Zn140 Zn 0.79722 0.71479 0.52871 0.0
Zn141 Zn 0.88731 0.59636 0.55711 0.0
O142 O 0.90566 0.6196 0.49539 0.0
O143 O 0.87558 0.69585 0.52131 0.0
O144 O 0.87844 0.51194 0.55825 0.0
O145 O 0.86088 0.70713 0.5763 0.0
O146 O 0.92107 0.64981 0.60374 0.0
C147 C 0.88381 0.66613 0.48836 0.0
C148 C 0.78122 0.60436 0.52949 0.0
O149 O 0.81308 0.61824 0.55985 0.0
O150 O 0.75513 0.64282 0.51057 0.0
C151 C 0.91043 0.48141 0.53835 0.0
O152 O 0.89923 0.42876 0.53206 0.0
C153 C 0.89938 0.69795 0.60327 0.0
Zn154 Zn 0.64968 0.67342 0.70229 0.0
Zn155 Zn 0.71089 0.53866 0.73649 0.0
O156 O 0.67798 0.5674 0.79306 0.0
O157 O 0.64993 0.6555 0.7819 0.0
O158 O 0.74555 0.46365 0.74595 0.0
O159 O 0.60686 0.60336 0.66555 0.0
O160 O 0.65507 0.52786 0.6821 0.0
C161 C 0.6615 0.61412 0.80756 0.0
C162 C 0.78034 0.6446 0.72291 0.0
O163 O 0.77238 0.59559 0.73708 0.0
O164 O 0.74741 0.66672 0.69471 0.0
C165 C 0.7806 0.45223 0.7752 0.0
O166 O 0.79519 0.48997 0.80394 0.0
C167 C 0.61651 0.55156 0.66084 0.0
Zn168 Zn 0.93552 0.8441 0.96257 0.0
Zn169 Zn 0.0286 0.80979 0.93967 0.0
O170 O 0.03085 0.87887 0.97412 0.0
O171 O 0.95592 0.92354 0.97416 0.0
O172 O 0.10017 0.8061 0.91378 0.0
O173 O 0.94212 0.79317 0.01318 0.0
O174 O 1.01354 0.75454 -0.0144 0.0
C175 C 1.00368 0.91926 -0.01348 0.0
C176 C 0.93631 0.78917 0.87966 0.0
O177 O 0.98597 0.79201 0.88467 0.0
O178 O 0.90652 0.80915 0.90797 0.0
C179 C 0.12241 0.85136 0.90273 0.0
O180 O 0.10487 0.8988 0.91687 0.0
C181 C 0.97839 0.7574 0.01462 0.0
Zn182 Zn 0.15683 0.27507 0.62128 0.0
Zn183 Zn 0.07738 0.26822 0.67206 0.0
O184 O 0.0742 0.34499 0.63528 0.0
O185 O 0.14457 0.34806 0.5945 0.0
O186 O 1.00243 0.27109 0.70576 0.0
O187 O 0.1406 0.21273 0.58289 0.0
O188 O 0.0777 0.19631 0.63005 0.0
C189 C 0.10175 0.3692 0.6061 0.0
C190 C 0.19262 0.25151 0.70958 0.0
O191 O 0.14323 0.25605 0.71821 0.0
O192 O 0.20735 0.26023 0.6711 0.0
C193 C 0.98901 0.29737 0.74035 0.0
O194 O 0.02551 0.32515 0.76261 0.0
C195 C 0.10428 0.18197 0.59663 0.0
Zn196 Zn 0.4226 0.33712 0.48072 0.0
Zn197 Zn 0.51659 0.30946 0.43907 0.0
O198 O 0.52066 0.38239 0.46769 0.0
O199 O 0.4464 0.41753 0.48899 0.0
O200 O 0.58138 0.30825 0.40262 0.0
O201 O 0.44907 0.28057 0.52416 0.0
O202 O 0.5204 0.25722 0.48765 0.0
C203 C 0.49569 0.42079 0.48561 0.0
C204 C 0.40943 0.27923 0.39831 0.0
O205 O 0.45946 0.28196 0.39733 0.0
O206 O 0.38485 0.30324 0.42824 0.0
C207 C 0.61774 0.34504 0.4046 0.0
O208 O 0.6176 0.38292 0.4352 0.0
C209 C 0.49048 0.25196 0.52006 0.0
Zn210 Zn 0.56988 0.6961 0.21008 0.0
Zn211 Zn 0.58458 0.78304 0.166 0.0
O212 O 0.51024 0.79357 0.2036 0.0
O213 O 0.50497 0.71952 0.24475 0.0
O214 O 0.58926 0.8594 0.13501 0.0
O215 O 0.64159 0.69532 0.24024 0.0
O216 O 0.65906 0.77019 0.20187 0.0
C217 C 0.48674 0.76656 0.23408 0.0
C218 C 0.57937 0.67571 0.11451 0.0
O219 O 0.58569 0.72799 0.11163 0.0
O220 O 0.56812 0.65504 0.15134 0.0
C221 C 0.60298 0.86786 0.09574 0.0
O222 O 0.61964 0.8263 0.0724 0.0
C223 C 0.67442 0.73193 0.22869 0.0
Zn224 Zn 0.99198 0.95325 0.8515 0.0
Zn225 Zn 0.95306 0.04259 0.83022 0.0
O226 O 0.99833 0.06564 0.88721 0.0
O227 O 0.04618 0.99084 0.89229 0.0
O228 O 0.91121 0.11099 0.81912 0.0
O229 O 1.01075 0.94238 0.78845 0.0
O230 O 0.99887 0.03205 0.77771 0.0
C231 C 0.0383 0.04034 0.90387 0.0
C232 C 0.88692 0.93503 0.84123 0.0
O233 O 0.89514 0.98105 0.82229 0.0
O234 O 0.92158 0.91786 0.86859 0.0
C235 C 0.87419 0.11807 0.79077 0.0
O236 O 0.8611 0.07843 0.7632 0.0
C237 C 1.0136 0.98479 0.76431 0.0
Zn238 Zn 0.75914 0.18411 0.48556 0.0
Zn239 Zn 0.83564 0.12058 0.50506 0.0
O240 O 0.85644 0.15876 0.44361 0.0
O241 O 0.78353 0.20477 0.42763 0.0
O242 O 0.90226 0.08137 0.52848 0.0
O243 O 0.76879 0.24185 0.52944 0.0
O244 O 0.82339 0.17677 0.55336 0.0
C245 C 0.83051 0.19251 0.41873 0.0
C246 C 0.72587 0.07408 0.51538 0.0
O247 O 0.77463 0.06117 0.51259 0.0
O248 O 0.71082 0.122 0.50368 0.0
C249 C 0.9354 0.06076 0.50291 0.0
O250 O 0.92606 0.06402 0.46068 0.0
C251 C 0.79865 0.22196 0.55894 0.0
Zn252 Zn 0.62583 0.08578 0.33925 0.0
Zn253 Zn 0.67861 -0.00041 0.3193 0.0
O254 O 0.64281 0.98445 0.38247 0.0
O255 O 0.60053 0.06164 0.39675 0.0
O256 O 0.72375 0.92858 0.30362 0.0
O257 O 0.57408 0.08206 0.29116 0.0
O258 O 0.62087 0.01077 0.26918 0.0
C259 C 0.61196 0.0123 0.40695 0.0
C260 C 0.72799 0.11766 0.3107 0.0
O261 O 0.7339 0.06506 0.30877 0.0
O262 O 0.6863 0.13712 0.32652 0.0
C263 C 0.75425 0.90162 0.33013 0.0
O264 O 0.7556 0.91549 0.37147 0.0
C265 C 0.58294 0.04541 0.26323 0.0
Zn266 Zn 0.8774 0.92737 0.01767 0.0
Zn267 Zn 0.79566 0.94782 0.05349 0.0
O268 O 0.76461 0.89925 0.00315 0.0
O269 O 0.84124 0.86563 0.98502 0.0
O270 O 0.73414 0.97829 0.08252 0.0
O271 O 0.91505 0.90273 0.07378 0.0
O272 O 0.83361 0.90151 0.09784 0.0
C273 C 0.79134 0.86368 0.9827 0.0
C274 C 0.86713 0.03804 0.01671 0.0
O275 O 0.83432 0.01893 0.043 0.0
O276 O 0.88883 0.00476 -0.00873 0.0
C277 C 0.72822 0.03008 0.0885 0.0
O278 O 0.76922 0.06323 0.09379 0.0
C279 C 0.88235 0.88984 0.1026 0.0
Zn280 Zn 0.24595 0.7046 -0.00988 0.0
Zn281 Zn 0.31798 0.6287 0.00092 0.0
O282 O 0.33294 0.67363 0.94347 0.0
O283 O 0.26503 0.72915 0.93218 0.0
O284 O 0.38532 0.58217 0.01424 0.0
O285 O 0.27073 0.75365 0.03616 0.0
O286 O 0.31449 0.67742 0.05368 0.0
C287 C 0.31002 0.71224 0.92163 0.0
C288 C 0.20424 0.59628 0.0147 0.0
O289 O 0.25077 0.57839 0.00738 0.0
O290 O 0.19313 0.64679 0.00817 0.0
C291 C 0.42519 0.58538 -0.0102 0.0
O292 O 0.42157 0.61497 0.95392 0.0
C293 C 0.29693 0.72497 0.06329 0.0
Zn294 Zn 0.11619 0.58875 0.8403 0.0
Zn295 Zn 0.17399 0.50463 0.83009 0.0
O296 O 0.1251 0.50123 0.88794 0.0
O297 O 0.08741 0.58254 0.89818 0.0
O298 O 0.2207 0.429 0.82681 0.0
O299 O 0.06408 0.5684 0.79555 0.0
O300 O 0.12484 0.50935 0.77507 0.0
C301 C 0.09358 0.53258 0.90933 0.0
C302 C 0.21652 0.62389 0.81307 0.0
O303 O 0.22655 0.57228 0.81924 0.0
O304 O 0.17131 0.64258 0.82142 0.0
C305 C 0.26498 0.42088 0.80786 0.0
O306 O 0.28656 0.46242 0.78692 0.0
C307 C 0.08169 0.53577 0.76773 0.0
Zn308 Zn 0.35504 0.42613 0.5036 0.0
Zn309 Zn 0.28804 0.45207 0.54636 0.0
O310 O 0.24911 0.43559 0.48615 0.0
O311 O 0.30938 0.37778 0.46501 0.0
O312 O 0.2345 0.4884 0.5806 0.0
O313 O 0.39172 0.39378 0.55873 0.0
O314 O 0.31073 0.38531 0.5814 0.0
C315 C 0.26358 0.39785 0.46018 0.0
C316 C 0.36755 0.53333 0.51964 0.0
O317 O 0.34424 0.51116 0.55108 0.0
O318 O 0.37081 0.50631 0.48466 0.0
C319 C 0.22483 0.53881 0.57178 0.0
O320 O 0.2582 0.5676 0.54875 0.0
C321 C 0.35957 0.37377 0.58531 0.0
Zn322 Zn 0.54158 0.45862 0.33247 0.0
Zn323 Zn 0.46828 0.53644 0.32701 0.0
O324 O 0.5183 0.55846 0.38205 0.0
O325 O 0.57657 0.49153 0.38765 0.0
O326 O 0.4193 0.60219 0.32008 0.0
O327 O 0.57283 0.47428 0.27564 0.0
O328 O 0.50312 0.52849 0.26819 0.0
C329 C 0.55989 0.53787 0.40066 0.0
C330 C 0.42853 0.42169 0.3167 0.0
O331 O 0.41521 0.47102 0.32582 0.0
O332 O 0.47678 0.40747 0.32076 0.0
C333 C 0.38104 0.60846 0.29248 0.0
O334 O 0.37057 0.5701 0.26315 0.0
C335 C 0.54177 0.50283 0.25177 0.0
C336 C 0.07023 0.06159 0.94208 0.0
N337 N 0.99589 0.1263 0.04747 0.0
C338 C 0.9702 0.14424 0.01041 0.0
C339 C 0.92099 0.12109 -0.00079 0.0
C340 C 0.8965 0.08779 0.0301 0.0
C341 C 0.91604 0.08871 0.07345 0.0
C342 C 0.96733 0.10792 0.08145 0.0
Zn343 Zn 0.06148 0.07785 0.03545 0.0
C344 C 0.03142 0.96137 0.01179 0.0
N345 N 0.19234 0.97355 0.00651 0.0
C346 C 0.20863 0.99438 0.96778 0.0
C347 C 0.22805 0.97064 0.04037 0.0
C348 C 0.26914 0.0095 0.04249 0.0
C349 C 0.27373 0.04754 0.0079 0.0
C350 C 0.2468 0.03638 0.96841 0.0
Zn351 Zn 0.12631 0.01893 0.02484 0.0
O352 O 0.05355 0.09976 0.96641 0.0
C353 C 0.16141 0.12694 0.05679 0.0
O354 O 0.10457 0.02891 0.95799 0.0
H355 H 0.21884 0.94708 0.06923 0.0
H356 H 0.99135 0.16682 -0.0141 0.0
H357 H 0.18533 0.98751 0.93821 0.0
O358 O 0.11333 0.14199 0.05775 0.0
O359 O 0.17351 0.08999 0.02963 0.0
H360 H 0.98657 0.09787 0.11225 0.0
O361 O 0.14334 0.00721 0.09226 0.0
O362 O 0.06934 0.05221 0.10189 0.0
O363 O 0.07968 0.95191 0.0216 0.0
O364 O 1.01192 0.0094 0.01663 0.0
C365 C 0.11031 0.0281 0.11772 0.0
H366 H 0.90574 0.12357 0.96591 0.0
H367 H 0.89707 0.06508 0.09879 0.0
H368 H 0.29163 0.01454 0.07283 0.0
H369 H 0.25163 0.06245 0.94003 0.0
C370 C 0.43425 0.78377 0.25319 0.0
N371 N 0.28703 0.761 0.19458 0.0
C372 C 0.30589 0.80083 0.16745 0.0
C373 C 0.30833 0.79062 0.12336 0.0
C374 C 0.29273 0.7386 0.10833 0.0
C375 C 0.26943 0.69988 0.13606 0.0
C376 C 0.26627 0.71246 0.17975 0.0
Zn377 Zn 0.31099 0.76601 0.25545 0.0
C378 C 0.35437 0.66234 0.29041 0.0
N379 N 0.36544 0.78476 0.38336 0.0
C380 C 0.37202 0.83508 0.40262 0.0
C381 C 0.34921 0.73963 0.40663 0.0
C382 C 0.33511 0.74486 0.4495 0.0
C383 C 0.33692 0.79696 0.46873 0.0
C384 C 0.35729 0.84231 0.44556 0.0
Zn385 Zn 0.346 0.78131 0.31919 0.0
O386 O 0.39199 0.77767 0.23007 0.0
C387 C 0.30517 0.88653 0.28262 0.0
O388 O 0.42894 0.78958 0.29444 0.0
H389 H 0.34132 0.70012 0.39166 0.0
H390 H 0.32372 0.83845 0.18018 0.0
H391 H 0.38487 0.8705 0.38399 0.0
O392 O 0.29303 0.85226 0.25284 0.0
O393 O 0.33082 0.86943 0.31614 0.0
H394 H 0.25142 0.6819 0.20223 0.0
O395 O 0.26307 0.77022 0.34381 0.0
O396 O 0.23014 0.75195 0.27919 0.0
O397 O 0.36356 0.69635 0.32078 0.0
O398 O 0.32847 0.67844 0.25682 0.0
C399 C 0.22256 0.75873 0.31976 0.0
H400 H 0.32517 0.82133 0.10185 0.0
H401 H 0.25509 0.66007 0.12419 0.0
H402 H 0.3212 0.70873 0.46702 0.0
H403 H 0.36185 0.88284 0.4604 0.0
C404 C 0.57986 0.97984 0.63052 0.0
N405 N 0.64006 0.86639 0.53757 0.0
C406 C 0.65516 0.85053 0.57845 0.0
C407 C 0.62384 0.81217 0.60007 0.0
C408 C 0.58199 0.7855 0.57733 0.0
C409 C 0.5787 0.79124 0.5318 0.0
C410 C 0.6094 0.83211 0.51208 0.0
Zn411 Zn 0.61034 0.94546 0.53784 0.0
C412 C 0.48804 0.93402 0.54925 0.0
N413 N 0.53271 0.09541 0.54575 0.0
C414 C 0.55913 0.13564 0.56872 0.0
C415 C 0.48501 0.10445 0.52566 0.0
C416 C 0.46412 0.1572 0.52512 0.0
C417 C 0.49462 0.20049 0.54301 0.0
C418 C 0.54105 0.18965 0.56702 0.0
Zn419 Zn 0.56429 0.02149 0.54314 0.0
O420 O 0.60578 0.94434 0.60919 0.0
C421 C 0.68425 0.03644 0.53202 0.0
O422 O 0.56306 0.02253 0.61113 0.0
H423 H 0.46475 0.07167 0.50782 0.0
H424 H 0.68188 0.87671 0.59753 0.0
H425 H 0.59595 0.12657 0.58601 0.0
O426 O 0.68879 0.98398 0.53543 0.0
O427 O 0.63964 0.05832 0.53849 0.0
H428 H 0.5995 0.84375 0.47881 0.0
O429 O 0.56523 0.02384 0.47271 0.0
O430 O 0.61376 0.94912 0.46788 0.0
O431 O 0.48815 0.9862 0.54795 0.0
O432 O 0.53055 0.90843 0.54065 0.0
C433 C 0.59382 0.99201 0.45003 0.0
H434 H 0.62759 0.80985 0.63488 0.0
H435 H 0.54796 0.77028 0.51264 0.0
H436 H 0.42863 0.16526 0.50543 0.0
H437 H 0.56551 0.22296 0.58033 0.0
C438 C 0.37288 0.1466 0.77242 0.0
N439 N 0.28566 0.21164 0.87589 0.0
C440 C 0.29701 0.15697 0.88218 0.0
C441 C 0.33474 0.14115 0.91414 0.0
C442 C 0.35673 0.18126 0.94257 0.0
C443 C 0.33567 0.23502 0.94076 0.0
C444 C 0.29901 0.2491 0.90761 0.0
Zn445 Zn 0.30564 0.24085 0.81487 0.0
C446 C 0.42679 0.27447 0.83503 0.0
N447 N 0.38414 0.29735 0.70555 0.0
C448 C 0.36933 0.26535 0.67075 0.0
C449 C 0.40195 0.3502 0.7005 0.0
C450 C 0.39984 0.37474 0.65931 0.0
C451 C 0.37861 0.34437 0.62401 0.0
C452 C 0.36558 0.28852 0.62929 0.0
Zn453 Zn 0.35855 0.27083 0.76355 0.0
O454 O 0.33579 0.15695 0.79844 0.0
C455 C 0.23615 0.24285 0.74285 0.0
O456 O 0.39072 0.18693 0.75033 0.0
H457 H 0.41276 0.37487 0.72879 0.0
H458 H 0.28289 0.12652 0.85875 0.0
H459 H 0.35467 0.22367 0.67573 0.0
O460 O 0.22944 0.22701 0.78202 0.0
O461 O 0.28277 0.2554 0.73118 0.0
H462 H 0.28879 0.29222 0.9036 0.0
O463 O 0.32656 0.3551 0.7778 0.0
O464 O 0.27508 0.32397 0.82861 0.0
O465 O 0.43302 0.28839 0.79567 0.0
O466 O 0.38142 0.25782 0.84652 0.0
C467 C 0.29044 0.36438 0.8053 0.0
H468 H 0.34732 0.09835 0.91585 0.0
H469 H 0.34983 0.2669 0.96308 0.0
H470 H 0.40956 0.41834 0.6559 0.0
H471 H 0.34867 0.26451 0.60247 0.0
C472 C 0.19929 -0.00269 0.56151 0.0
N473 N 0.12601 0.05907 0.45134 0.0
C474 C 0.16167 0.02536 0.43245 0.0
C475 C 0.16078 0.0187 0.38771 0.0
C476 C 0.12324 0.04743 0.36219 0.0
C477 C 0.0897 0.08541 0.3821 0.0
C478 C 0.09211 0.09099 0.42717 0.0
Zn479 Zn 0.10706 0.03678 0.51168 0.0
C480 C 0.08044 0.91567 0.50746 0.0
N481 N 0.06101 0.98036 0.63429 0.0
C482 C 0.09512 0.00019 0.66586 0.0
C483 C 0.01409 0.95629 0.64437 0.0
C484 C 0.99876 0.95451 0.68773 0.0
C485 C 0.03176 0.9788 0.72003 0.0
C486 C 0.08089 0.00041 0.70918 0.0
Zn487 Zn 0.07849 0.00479 0.5732 0.0
O488 O 0.18766 0.0265 0.52839 0.0
C489 C 0.09842 0.12716 0.57622 0.0
O490 O 0.1622 0.98169 0.58613 0.0
H491 H 0.98737 0.9416 0.61868 0.0
H492 H 0.18744 -0.00082 0.45207 0.0
H493 H 0.13187 0.0199 0.65719 0.0
O494 O 0.10981 0.11999 0.53642 0.0
O495 O 0.08843 0.08543 0.59961 0.0
H496 H 0.06417 0.11752 0.44292 0.0
O497 O 0.99687 0.02704 0.55831 0.0
O498 O 0.02635 0.04713 0.4938 0.0
O499 O 0.06453 0.92502 0.54574 0.0
O500 O 0.10289 0.95412 0.48681 0.0
C501 C 0.98804 0.04305 0.51923 0.0
H502 H 0.18832 0.99022 0.3734 0.0
H503 H 0.06166 0.11016 0.3632 0.0
H504 H 0.96044 0.93738 0.69562 0.0
H505 H 0.10707 0.01911 0.73367 0.0
C506 C 0.32414 0.77028 0.70541 0.0
N507 N 0.4174 0.66631 0.78454 0.0
C508 C 0.4175 0.63077 0.75026 0.0
C509 C 0.46488 0.60694 0.73812 0.0
C510 C 0.51139 0.62039 0.76177 0.0
C511 C 0.50858 0.65081 0.80032 0.0
C512 C 0.4607 0.67388 0.81114 0.0
Zn513 Zn 0.35735 0.71842 0.79191 0.0
C514 C 0.40085 0.83975 0.7885 0.0
N515 N 0.23839 0.83649 0.80846 0.0
C516 C 0.18904 0.81611 0.79923 0.0
C517 C 0.24769 0.87184 0.84241 0.0
C518 C 0.20876 0.88006 0.87293 0.0
C519 C 0.16071 0.8514 0.868 0.0
C520 C 0.14954 0.8219 0.82954 0.0
Zn521 Zn 0.29927 0.78553 0.79518 0.0
O522 O 0.35168 0.73218 0.72358 0.0
C523 C 0.25709 0.66414 0.79901 0.0
O524 O 0.29087 0.7969 0.72738 0.0
H525 H 0.28738 0.88688 0.84962 0.0
H526 H 0.38223 0.62549 0.72982 0.0
H527 H 0.18234 0.78886 0.77167 0.0
O528 O 0.30408 0.64968 0.79177 0.0
O529 O 0.2456 0.71541 0.79782 0.0
H530 H 0.45958 0.70278 0.83794 0.0
O531 O 0.30745 0.77384 0.86277 0.0
O532 O 0.36254 0.70459 0.85945 0.0
O533 O 0.35317 0.85429 0.79286 0.0
O534 O 0.41245 0.78835 0.79167 0.0
C535 C 0.33114 0.73346 0.881 0.0
H536 H 0.46635 0.58496 0.70744 0.0
H537 H 0.54412 0.66421 0.81795 0.0
H538 H 0.21799 0.90393 0.902 0.0
H539 H 0.11175 0.80112 0.82415 0.0
C540 C 0.59702 0.9233 0.07545 0.0
N541 N 0.54034 0.06565 0.13169 0.0
C542 C 0.51665 0.02363 0.1539 0.0
C543 C 0.52806 0.01638 0.19826 0.0
C544 C 0.5608 0.05511 0.21951 0.0
C545 C 0.57649 0.10328 0.19745 0.0
C546 C 0.56612 0.10759 0.15286 0.0
Zn547 Zn 0.56568 0.04593 0.07184 0.0
C548 C 0.68043 0.05149 0.06863 0.0
N549 N 0.61955 0.99144 0.95088 0.0
C550 C 0.60087 0.94211 0.9356 0.0
C551 C 0.63682 0.03186 0.92344 0.0
C552 C 0.62625 0.0275 0.87876 0.0
C553 C 0.60131 0.97954 0.863 0.0
C554 C 0.59215 0.93493 0.8912 0.0
Zn555 Zn 0.59561 0.01374 0.01039 0.0
O556 O 0.57619 0.96238 0.09628 0.0
C557 C 0.48047 -0.00101 0.01794 0.0
O558 O 0.61092 0.93228 0.03661 0.0
H559 H 0.65319 0.07014 0.93636 0.0
H560 H 0.49541 0.99125 0.1363 0.0
H561 H 0.58688 0.91082 0.95782 0.0
O562 O 0.48965 0.02713 0.05203 0.0
O563 O 0.51774 0.98717 -0.00706 0.0
H564 H 0.58478 0.1403 0.13451 0.0
O565 O 0.58164 0.09547 0.98406 0.0
O566 O 0.55655 0.12959 0.04601 0.0
O567 O 0.67105 0.03668 0.0295 0.0
O568 O 0.64277 0.06198 0.09334 0.0
C569 C 0.56734 0.13681 0.00597 0.0
H570 H 0.51433 0.9796 0.21495 0.0
H571 H 0.60116 0.13441 0.21358 0.0
H572 H 0.63486 0.06192 0.8573 0.0
H573 H 0.57337 0.89702 0.87953 0.0
C574 C 0.27257 0.18798 0.27272 0.0
N575 N 0.42076 0.23182 0.2294 0.0
C576 C 0.42493 0.17567 0.22557 0.0
C577 C 0.43242 0.15175 0.18458 0.0
C578 C 0.43563 0.18626 0.14784 0.0
C579 C 0.44034 0.24368 0.15425 0.0
C580 C 0.43329 0.26575 0.19567 0.0
Zn581 Zn 0.36446 0.26425 0.27001 0.0
C582 C 0.27637 0.30738 0.20773 0.0
N583 N 0.23732 0.33842 0.33785 0.0
C584 C 0.22465 0.30434 0.37147 0.0
C585 C 0.23595 0.39455 0.34261 0.0
C586 C 0.2339 0.41759 0.38439 0.0
C587 C 0.23279 0.38208 0.42064 0.0
C588 C 0.22285 0.32552 0.41368 0.0
Zn589 Zn 0.29411 0.3064 0.29785 0.0
O590 O 0.32103 0.18867 0.26325 0.0
C591 C 0.37967 0.26099 0.35964 0.0
O592 O 0.25244 0.2301 0.29068 0.0
H593 H 0.2457 0.42112 0.31552 0.0
H594 H 0.41482 0.14918 0.2526 0.0
H595 H 0.22623 0.25989 0.36741 0.0
O596 O 0.40334 0.2404 0.32744 0.0
O597 O 0.33419 0.28198 0.35441 0.0
H598 H 0.42922 0.31013 0.19892 0.0
O599 O 0.34043 0.38297 0.30551 0.0
O600 O 0.40792 0.33856 0.27902 0.0
O601 O 0.25268 0.32833 0.23973 0.0
O602 O 0.32361 0.29041 0.21308 0.0
C603 C 0.38993 0.38033 0.29881 0.0
H604 H 0.42846 0.10724 0.18094 0.0
H605 H 0.44295 0.27163 0.12668 0.0
H606 H 0.24185 0.46149 0.38856 0.0
H607 H 0.22219 0.29688 0.44093 0.0
C608 C 0.68771 0.51013 0.04972 0.0
N609 N 0.61871 0.59473 0.94004 0.0
C610 C 0.66142 0.62737 0.93107 0.0
C611 C 0.67476 0.6379 0.88743 0.0
C612 C 0.64411 0.61428 0.85319 0.0
C613 C 0.60015 0.58198 0.86354 0.0
C614 C 0.58771 0.57346 0.90692 0.0
Zn615 Zn 0.59797 0.56216 0.00073 0.0
C616 C 0.57354 0.43482 -0.01224 0.0
N617 N 0.54349 0.48455 0.11474 0.0
C618 C 0.57868 0.45517 0.13983 0.0
C619 C 0.50445 0.5145 0.13312 0.0
C620 C 0.50387 0.52152 0.17787 0.0
C621 C 0.54314 0.49667 0.20425 0.0
C622 C 0.57945 0.46098 0.18504 0.0
Zn623 Zn 0.56605 0.5134 0.05586 0.0
O624 O 0.6789 0.54312 0.01788 0.0
C625 C 0.58453 0.63539 0.07766 0.0
O626 O 0.64877 0.49326 0.07173 0.0
H627 H 0.47732 0.53881 0.11337 0.0
H628 H 0.68645 0.64314 0.95748 0.0
H629 H 0.60897 0.43087 0.12491 0.0
O630 O 0.60116 0.64432 0.03902 0.0
O631 O 0.57238 0.5866 0.08768 0.0
H632 H 0.55438 0.54698 0.91392 0.0
O633 O 0.48452 0.5333 0.03704 0.0
O634 O 0.5179 0.58053 0.98347 0.0
O635 O 0.55803 0.4389 0.02644 0.0
O636 O 0.59163 0.47787 0.96857 0.0
C637 C 0.47775 0.5642 0.00381 0.0
H638 H 0.71009 0.66148 0.88053 0.0
H639 H 0.5765 0.56166 0.83817 0.0
H640 H 0.47396 0.54787 0.1914 0.0
H641 H 0.60903 0.43902 0.20451 0.0
C642 C 0.81746 0.27916 0.20609 0.0
N643 N 0.93262 0.17648 0.26416 0.0
C644 C 0.93467 0.16572 0.22065 0.0
C645 C 0.98192 0.17389 0.19858 0.0
C646 C 0.0279 0.19081 0.22178 0.0
C647 C 0.02623 0.19341 0.26747 0.0
C648 C 0.97797 0.18636 0.28807 0.0
Zn649 Zn 0.86616 0.21652 0.2863 0.0
C650 C 0.90346 0.34025 0.28835 0.0
N651 N 0.74488 0.32549 0.32011 0.0
C652 C 0.69539 0.31025 0.30601 0.0
C653 C 0.75298 0.35526 0.35731 0.0
C654 C 0.71087 0.36541 0.38449 0.0
C655 C 0.66055 0.34412 0.37319 0.0
C656 C 0.65236 0.31875 0.33248 0.0
Zn657 Zn 0.80637 0.2816 0.29756 0.0
O658 O 0.8479 0.24118 0.2207 0.0
C659 C 0.76843 0.15816 0.29604 0.0
O660 O 0.78681 0.30326 0.23185 0.0
H661 H 0.79283 0.36609 0.36815 0.0
H662 H 0.89859 0.15748 0.20191 0.0
H663 H 0.69002 0.28644 0.27639 0.0
O664 O 0.81467 0.14444 0.28459 0.0
O665 O 0.75696 0.20934 0.29859 0.0
H666 H 0.97591 0.19613 0.32232 0.0
O667 O 0.82512 0.25937 0.36339 0.0
O668 O 0.88132 0.19205 0.3532 0.0
O669 O 0.85629 0.35332 0.29663 0.0
O670 O 0.91616 0.28923 0.28823 0.0
C671 C 0.85086 0.21784 0.37827 0.0
H672 H 0.98151 0.17071 0.16347 0.0
H673 H 0.06092 0.20519 0.28696 0.0
H674 H 0.71857 0.38541 0.41557 0.0
H675 H 0.61372 0.30294 0.32228 0.0
C676 C 0.08494 0.42114 0.58424 0.0
N677 N 0.04089 0.56804 0.63775 0.0
C678 C 1.00959 0.53226 0.66012 0.0
C679 C 0.02149 0.52076 0.7037 0.0
C680 C 0.06492 0.54751 0.72337 0.0
C681 C 0.09075 0.5906 0.70165 0.0
C682 C 0.0774 0.60092 0.65832 0.0
Zn683 Zn 0.05877 0.54282 0.57811 0.0
C684 C 0.17015 0.54829 0.56284 0.0
N685 N 0.09486 0.48295 0.45592 0.0
C686 C 0.07086 0.43757 0.43816 0.0
C687 C 0.12149 0.52035 0.4311 0.0
C688 C 0.11864 0.51694 0.38595 0.0
C689 C 0.08995 0.47347 0.367 0.0
C690 C 0.06839 0.43169 0.39313 0.0
Zn691 Zn 0.07677 0.508 0.51602 0.0
O692 O 0.0624 0.45922 0.605 0.0
C693 C 0.96415 0.50136 0.53452 0.0
O694 O 0.09806 0.43047 0.54517 0.0
H695 H 0.14046 0.5562 0.44589 0.0
H696 H 0.98065 0.50657 0.64297 0.0
H697 H 0.04989 0.40871 0.45856 0.0
O698 O 0.98056 0.53452 0.5636 0.0
O699 O 0.99648 0.47979 0.50864 0.0
H700 H 0.10121 0.62943 0.63981 0.0
O701 O 0.05861 0.58489 0.48698 0.0
O702 O 0.05678 0.62495 0.55084 0.0
O703 O 0.15322 0.53475 0.52525 0.0
O704 O 0.1388 0.55098 0.59387 0.0
C705 C 0.05737 0.62859 0.50939 0.0
H706 H 0.99947 0.48922 0.72083 0.0
H707 H 0.12284 0.61379 0.71739 0.0
H708 H 0.13586 0.54932 0.36623 0.0
H709 H 0.04608 0.39745 0.37878 0.0
C710 C 0.86972 0.64048 0.27357 0.0
N711 N 0.78037 0.69158 0.37925 0.0
C712 C 0.79862 0.63926 0.38708 0.0
C713 C 0.83383 0.62941 0.42223 0.0
C714 C 0.84727 0.6732 0.4505 0.0
C715 C 0.82059 0.72373 0.44527 0.0
C716 C 0.78401 0.73037 0.41122 0.0
Zn717 Zn 0.80496 0.72582 0.32169 0.0
C718 C 0.92041 0.76562 0.34343 0.0
N719 N 0.87797 0.79966 0.21525 0.0
C720 C 0.87201 0.77233 0.17681 0.0
C721 C 0.89875 0.85177 0.21767 0.0
C722 C 0.90859 0.88107 0.17963 0.0
C723 C 0.89753 0.85557 0.13956 0.0
C724 C 0.88213 0.79975 0.13808 0.0
Zn725 Zn 0.84724 0.76593 0.26835 0.0
O726 O 0.83644 0.64669 0.3032 0.0
C727 C 0.72814 0.73139 0.2504 0.0
O728 O 0.88164 0.68298 0.25092 0.0
H729 H 0.90341 0.8722 0.24886 0.0
H730 H 0.79103 0.60666 0.36361 0.0
H731 H 0.85522 0.73098 0.17598 0.0
O732 O 0.73293 0.71012 0.2883 0.0
O733 O 0.76912 0.75247 0.2329 0.0
H734 H 0.76484 0.7699 0.40767 0.0
O735 O 0.81339 0.8476 0.28588 0.0
O736 O 0.77282 0.80543 0.33837 0.0
O737 O 0.92218 0.78237 0.30428 0.0
O738 O 0.87772 0.74374 0.35617 0.0
C739 C 0.78114 0.8495 0.31702 0.0
H740 H 0.85101 0.58867 0.42659 0.0
H741 H 0.82834 0.75838 0.46696 0.0
H742 H 0.91923 0.92463 0.18144 0.0
H743 H 0.87215 0.7797 0.10733 0.0
C744 C 0.93302 0.29634 0.75667 0.0
N745 N 0.78978 0.26864 0.68871 0.0
C746 C 0.81316 0.30437 0.6606 0.0
C747 C 0.81464 0.29148 0.61663 0.0
C748 C 0.79253 0.24127 0.60277 0.0
C749 C 0.76486 0.20749 0.63153 0.0
C750 C 0.76355 0.2224 0.67496 0.0
Zn751 Zn 0.80986 0.27496 0.75106 0.0
C752 C 0.85058 0.17298 0.7872 0.0
N753 N 0.8567 0.29468 0.88095 0.0
C754 C 0.8615 0.34457 0.90115 0.0
C755 C 0.8407 0.24851 0.90303 0.0
C756 C 0.82549 0.25206 0.9458 0.0
C757 C 0.82584 0.30359 0.96604 0.0
C758 C 0.8456 0.35013 0.94394 0.0
Zn759 Zn 0.84145 0.29218 0.8161 0.0
O760 O 0.89384 0.28408 0.73128 0.0
C761 C 0.80121 0.39544 0.77863 0.0
O762 O 0.92341 0.30746 0.79644 0.0
H763 H 0.83422 0.20937 0.88698 0.0
H764 H 0.83428 0.34054 0.67275 0.0
H765 H 0.87407 0.38083 0.88338 0.0
O766 O 0.79404 0.36201 0.74714 0.0
O767 O 0.82286 0.37814 0.81382 0.0
H768 H 0.74535 0.19499 0.69818 0.0
O769 O 0.75971 0.27656 0.8366 0.0
O770 O 0.72761 0.26333 0.77086 0.0
O771 O 0.86176 0.20802 0.81654 0.0
O772 O 0.82383 0.18797 0.75383 0.0
C773 C 0.71978 0.26728 0.81158 0.0
H774 H 0.83551 0.31831 0.59445 0.0
H775 H 0.74651 0.16892 0.62082 0.0
H776 H 0.81204 0.2151 0.96247 0.0
H777 H 0.84897 0.39029 0.95954 0.0
C778 C 0.80656 0.68289 0.75515 0.0
N779 N 0.89833 0.80399 0.70992 0.0
C780 C 0.9367 0.76418 0.70986 0.0
C781 C 0.94288 0.73109 0.67308 0.0
C782 C 0.91122 0.74159 0.63598 0.0
C783 C 0.88164 0.7911 0.63416 0.0
C784 C 0.87525 0.82173 0.67204 0.0
Zn785 Zn 0.85015 0.79828 0.76236 0.0
C786 C 0.73344 0.80697 0.74564 0.0
N787 N 0.75964 0.76873 0.87397 0.0
C788 C 0.78531 0.74359 0.90816 0.0
C789 C 0.72632 0.81201 0.88135 0.0
C790 C 0.72978 0.84068 0.9208 0.0
C791 C 0.76671 0.82322 0.95255 0.0
C792 C 0.79065 0.77127 0.94789 0.0
Zn793 Zn 0.80315 0.77665 0.8175 0.0
O794 O 0.84364 0.7138 0.74256 0.0
C795 C 0.91138 0.76471 0.84104 0.0
O796 O 0.78216 0.6967 0.78953 0.0
H797 H 0.70365 0.83083 0.85505 0.0
H798 H 0.95524 0.75038 0.74004 0.0
H799 H 0.80896 0.70717 0.90298 0.0
O800 O 0.91821 0.78841 0.80473 0.0
O801 O 0.86766 0.74126 0.84769 0.0
H802 H 0.84538 0.85363 0.67248 0.0
O803 O 0.83031 0.85604 0.84311 0.0
O804 O 0.85704 0.88396 0.77941 0.0
O805 O 0.73722 0.8119 0.78642 0.0
O806 O 0.77639 0.80756 0.72458 0.0
C807 C 0.85164 0.8933 0.81991 0.0
H808 H 0.96713 0.69426 0.67551 0.0
H809 H 0.85801 0.80217 0.60547 0.0
H810 H 0.7098 0.88006 0.9237 0.0
H811 H 0.81834 0.75567 0.97256 0.0
C812 C 0.5832 0.56151 0.44206 0.0
N813 N 0.49617 0.6324 0.53899 0.0
C814 C 0.46894 0.64106 0.50066 0.0
C815 C 0.42175 0.61216 0.49306 0.0
C816 C 0.40072 0.5823 0.52773 0.0
C817 C 0.42064 0.59228 0.57024 0.0
C818 C 0.46901 0.61962 0.57524 0.0
Zn819 Zn 0.5602 0.57984 0.53119 0.0
C820 C 0.52703 0.46387 0.50684 0.0
N821 N 0.69103 0.46631 0.52312 0.0
C822 C 0.71094 0.48171 0.48418 0.0
C823 C 0.72335 0.47003 0.5592 0.0
C824 C 0.7614 0.51221 0.56083 0.0
C825 C 0.76705 0.54572 0.52355 0.0
C826 C 0.74567 0.52689 0.48362 0.0
Zn827 Zn 0.6241 0.51573 0.5324 0.0
O828 O 0.55712 0.59619 0.46323 0.0
C829 C 0.65693 0.63068 0.56622 0.0
O830 O 0.61951 0.53472 0.46232 0.0
H831 H 0.71243 0.44982 0.58914 0.0
H832 H 0.48795 0.66072 0.47354 0.0
H833 H 0.69101 0.46909 0.45416 0.0
O834 O 0.61301 0.64611 0.54861 0.0
O835 O 0.67336 0.58296 0.5565 0.0
H836 H 0.48846 0.62074 0.60705 0.0
O837 O 0.62326 0.49477 0.59906 0.0
O838 O 0.56288 0.55944 0.59878 0.0
O839 O 0.57552 0.45338 0.51459 0.0
O840 O 0.50823 0.51147 0.51495 0.0
C841 C 0.59488 0.52808 0.61989 0.0
H842 H 0.40516 0.60871 0.46023 0.0
H843 H 0.40347 0.57283 0.59842 0.0
H844 H 0.7791 0.52383 0.59209 0.0
H845 H 0.75156 0.54951 0.45362 0.0
C846 C 0.07153 0.48551 0.12838 0.0
N847 N 0.12785 0.39232 0.02109 0.0
C848 C 0.18149 0.38907 0.02548 0.0
C849 C 0.20686 0.34126 0.01294 0.0
C850 C 0.1751 0.2946 0.00464 0.0
C851 C 0.12289 0.3022 -0.01006 0.0
C852 C 0.09931 0.3523 -0.00059 0.0
Zn853 Zn 0.09093 0.46232 0.03475 0.0
C854 C 0.97348 0.44215 0.04957 0.0
N855 N 1.00782 0.60586 0.05228 0.0
C856 C 0.03184 0.64602 0.07689 0.0
C857 C 0.96157 0.61445 0.02976 0.0
C858 C 0.94199 0.66759 0.02607 0.0
C859 C 0.97307 0.71087 0.04312 0.0
C860 C 0.01505 0.70022 0.07236 0.0
Zn861 Zn 0.04567 0.53654 0.04355 0.0
O862 O 0.09826 0.45295 0.1048 0.0
C863 C 0.16119 0.55995 0.0297 0.0
O864 O 0.04914 0.5271 0.11105 0.0
H865 H 0.94318 0.58156 0.01074 0.0
H866 H 0.20468 0.42183 0.04053 0.0
H867 H 0.06758 0.63716 0.0958 0.0
O868 O 0.16409 0.50773 0.02821 0.0
O869 O 0.11799 0.58174 0.04051 0.0
H870 H 0.05788 0.3579 -0.00882 0.0
O871 O 0.0444 0.54792 0.97366 0.0
O872 O 0.08535 0.46912 0.96719 0.0
O873 O 0.97181 0.49432 0.04695 0.0
O874 O 0.0168 0.41792 0.04198 0.0
C875 C 0.07005 0.51412 0.95048 0.0
H876 H 0.2487 0.33718 0.02124 0.0
H877 H 0.09828 0.26723 0.97998 0.0
H878 H 0.90931 0.6755 0.00322 0.0
H879 H 0.03935 0.73357 0.08582 0.0
loop_
_geom_bond_atom_site_label_1
_geom_bond_atom_site_label_2
_geom_bond_distance
_geom_bond_site_symmetry_2
_ccdc_geom_bond_type
Zn0 O3 2.031 . S
Zn0 O5 2.049 . S
Zn0 O10 2.067 . S
Zn1 O2 1.962 . S
Zn1 O4 1.986 . S
Zn1 O6 1.996 . S
Zn1 O9 1.943 . S
O2 Zn1 1.962 . S
O2 C7 1.254 . S
O3 Zn0 2.031 . S
O3 C7 1.269 . S
O4 Zn1 1.986 . S
O4 C11 1.262 . S
O5 Zn0 2.049 . S
O5 C13 1.260 . S
O6 Zn1 1.996 . S
O6 C13 1.257 . S
C7 O2 1.254 . S
C7 O3 1.269 . S
C8 O9 1.249 . S
C8 O10 1.270 . S
O9 Zn1 1.943 . S
O9 C8 1.249 . S
O10 Zn0 2.067 . S
O10 C8 1.270 . S
C11 O4 1.262 . S
C11 O12 1.232 . S
O12 C11 1.232 . S
C13 O5 1.260 . S
C13 O6 1.257 . S
Zn14 O17 2.031 1_655 S
Zn14 O19 2.049 1_655 S
Zn14 O24 2.067 . S
Zn15 O16 1.962 . S
Zn15 O18 1.986 . S
Zn15 O20 1.996 . S
Zn15 O23 1.943 . S
O16 Zn15 1.962 . S
O16 C21 1.254 . S
O17 Zn14 2.031 1_455 S
O17 C21 1.269 . S
O18 Zn15 1.986 . S
O18 C25 1.262 . S
O19 Zn14 2.049 1_455 S
O19 C27 1.260 . S
O20 Zn15 1.996 . S
O20 C27 1.257 . S
C21 O16 1.254 . S
C21 O17 1.269 . S
C22 O23 1.249 1_655 S
C22 O24 1.270 . S
O23 Zn15 1.943 . S
O23 C22 1.249 1_455 S
O24 Zn14 2.067 . S
O24 C22 1.270 . S
C25 O18 1.262 . S
C25 O26 1.232 . S
O26 C25 1.232 . S
C27 O19 1.260 . S
C27 O20 1.257 . S
Zn28 O31 2.031 . S
Zn28 O33 2.049 . S
Zn28 O38 2.067 . S
Zn29 O30 1.962 . S
Zn29 O32 1.986 . S
Zn29 O34 1.996 . S
Zn29 O37 1.943 . S
O30 Zn29 1.962 . S
O30 C35 1.254 . S
O31 Zn28 2.031 . S
O31 C35 1.269 . S
O32 Zn29 1.986 . S
O32 C39 1.262 . S
O33 Zn28 2.049 . S
O33 C41 1.260 . S
O34 Zn29 1.996 . S
O34 C41 1.257 . S
C35 O30 1.254 . S
C35 O31 1.269 . S
C36 O37 1.249 . S
C36 O38 1.270 . S
O37 Zn29 1.943 . S
O37 C36 1.249 . S
O38 Zn28 2.067 . S
O38 C36 1.270 . S
C39 O32 1.262 . S
C39 O40 1.232 . S
O40 C39 1.232 . S
C41 O33 1.260 . S
C41 O34 1.257 . S
Zn42 O45 2.031 . S
Zn42 O47 2.049 . S
Zn42 O52 2.067 . S
Zn43 O44 1.962 . S
Zn43 O46 1.986 . S
Zn43 O48 1.996 . S
Zn43 O51 1.943 . S
O44 Zn43 1.962 . S
O44 C49 1.254 . S
O45 Zn42 2.031 . S
O45 C49 1.269 . S
O46 Zn43 1.986 . S
O46 C53 1.262 . S
O47 Zn42 2.049 . S
O47 C55 1.260 . S
O48 Zn43 1.996 . S
O48 C55 1.257 . S
C49 O44 1.254 . S
C49 O45 1.269 . S
C50 O51 1.249 . S
C50 O52 1.270 . S
O51 Zn43 1.943 . S
O51 C50 1.249 . S
O52 Zn42 2.067 . S
O52 C50 1.270 . S
C53 O46 1.262 . S
C53 O54 1.232 . S
O54 C53 1.232 . S
C55 O47 1.260 . S
C55 O48 1.257 . S
Zn56 O59 2.031 . S
Zn56 O61 2.049 . S
Zn56 O66 2.067 . S
Zn57 O58 1.962 . S
Zn57 O60 1.986 1_545 S
Zn57 O62 1.996 . S
Zn57 O65 1.943 . S
O58 Zn57 1.962 . S
O58 C63 1.254 . S
O59 Zn56 2.031 . S
O59 C63 1.269 . S
O60 Zn57 1.986 1_565 S
O60 C67 1.262 . S
O61 Zn56 2.049 . S
O61 C69 1.260 . S
O62 Zn57 1.996 . S
O62 C69 1.257 . S
C63 O58 1.254 . S
C63 O59 1.269 . S
C64 O65 1.249 . S
C64 O66 1.270 . S
O65 Zn57 1.943 . S
O65 C64 1.249 . S
O66 Zn56 2.067 . S
O66 C64 1.270 . S
C67 O60 1.262 . S
C67 O68 1.232 . S
O68 C67 1.232 . S
C69 O61 1.260 . S
C69 O62 1.257 . S
Zn70 O73 2.031 . S
Zn70 O75 2.049 . S
Zn70 O80 2.067 . S
Zn71 O72 1.962 . S
Zn71 O74 1.986 . S
Zn71 O76 1.996 . S
Zn71 O79 1.943 . S
O72 Zn71 1.962 . S
O72 C77 1.254 . S
O73 Zn70 2.031 . S
O73 C77 1.269 . S
O74 Zn71 1.986 . S
O74 C81 1.262 . S
O75 Zn70 2.049 . S
O75 C83 1.260 . S
O76 Zn71 1.996 . S
O76 C83 1.257 . S
C77 O72 1.254 . S
C77 O73 1.269 . S
C78 O79 1.249 . S
C78 O80 1.270 . S
O79 Zn71 1.943 . S
O79 C78 1.249 . S
O80 Zn70 2.067 . S
O80 C78 1.270 . S
C81 O74 1.262 . S
C81 O82 1.232 1_565 S
O82 C81 1.232 1_545 S
C83 O75 1.260 . S
C83 O76 1.257 . S
Zn84 O87 2.031 . S
Zn84 O89 2.049 . S
Zn84 O94 2.067 . S
Zn85 O86 1.962 . S
Zn85 O88 1.986 . S
Zn85 O90 1.996 . S
Zn85 O93 1.943 1_545 S
O86 Zn85 1.962 . S
O86 C91 1.254 . S
O87 Zn84 2.031 . S
O87 C91 1.269 1_565 S
O88 Zn85 1.986 . S
O88 C95 1.262 . S
O89 Zn84 2.049 . S
O89 C97 1.279 . S
O90 Zn85 1.996 . S
O90 C97 1.248 1_545 S
C91 O86 1.254 . S
C91 O87 1.269 1_545 S
C92 O93 1.249 . S
C92 O94 1.270 . S
O93 Zn85 1.943 1_565 S
O93 C92 1.249 . S
O94 Zn84 2.067 . S
O94 C92 1.270 . S
C95 O88 1.262 . S
C95 O96 1.232 . S
O96 C95 1.232 . S
C97 O89 1.279 . S
C97 O90 1.248 1_565 S
Zn98 O101 2.031 . S
Zn98 O103 2.049 . S
Zn98 O108 2.067 . S
Zn99 O100 1.962 . S
Zn99 O102 1.986 . S
Zn99 O104 1.996 . S
Zn99 O107 1.943 . S
O100 Zn99 1.962 . S
O100 C105 1.254 1_554 S
O101 Zn98 2.031 . S
O101 C105 1.269 1_554 S
O102 Zn99 1.986 . S
O102 C109 1.262 . S
O103 Zn98 2.049 . S
O103 C111 1.260 . S
O104 Zn99 1.996 . S
O104 C111 1.257 . S
C105 O100 1.254 1_556 S
C105 O101 1.269 1_556 S
C106 O107 1.249 . S
C106 O108 1.270 . S
O107 Zn99 1.943 . S
O107 C106 1.249 . S
O108 Zn98 2.067 . S
O108 C106 1.270 . S
C109 O102 1.262 . S
C109 O110 1.232 . S
O110 C109 1.232 . S
C111 O103 1.260 . S
C111 O104 1.257 . S
Zn112 O115 2.031 . S
Zn112 O117 2.049 . S
Zn112 O122 2.067 . S
Zn113 O114 1.962 . S
Zn113 O116 1.986 . S
Zn113 O118 1.996 . S
Zn113 O121 1.943 . S
O114 Zn113 1.962 . S
O114 C119 1.254 . S
O115 Zn112 2.031 . S
O115 C119 1.269 . S
O116 Zn113 1.986 . S
O116 C123 1.262 . S
O117 Zn112 2.049 . S
O117 C125 1.260 . S
O118 Zn113 1.996 . S
O118 C125 1.257 . S
C119 O114 1.254 . S
C119 O115 1.269 . S
C120 O121 1.249 . S
C120 O122 1.270 . S
O121 Zn113 1.943 . S
O121 C120 1.249 . S
O122 Zn112 2.067 . S
O122 C120 1.270 . S
C123 O116 1.262 . S
C123 O124 1.232 . S
O124 C123 1.232 . S
C125 O117 1.260 . S
C125 O118 1.257 . S
Zn126 O129 2.031 . S
Zn126 O131 2.049 . S
Zn126 O136 2.067 . S
Zn127 O128 1.962 . S
Zn127 O130 1.986 . S
Zn127 O132 1.996 . S
Zn127 O135 1.943 . S
O128 Zn127 1.962 . S
O128 C133 1.254 . S
O129 Zn126 2.031 . S
O129 C133 1.269 . S
O130 Zn127 1.986 . S
O130 C137 1.262 . S
O131 Zn126 2.049 . S
O131 C139 1.260 . S
O132 Zn127 1.996 . S
O132 C139 1.257 . S
C133 O128 1.254 . S
C133 O129 1.269 . S
C134 O135 1.249 . S
C134 O136 1.270 . S
O135 Zn127 1.943 . S
O135 C134 1.249 . S
O136 Zn126 2.067 . S
O136 C134 1.270 . S
C137 O130 1.262 . S
C137 O138 1.232 . S
O138 C137 1.232 . S
C139 O131 1.260 . S
C139 O132 1.257 . S
Zn140 O143 2.031 . S
Zn140 O145 2.049 . S
Zn140 O150 2.067 . S
Zn141 O142 1.962 . S
Zn141 O144 1.986 . S
Zn141 O146 1.996 . S
Zn141 O149 1.943 . S
O142 Zn141 1.962 . S
O142 C147 1.254 . S
O143 Zn140 2.031 . S
O143 C147 1.269 . S
O144 Zn141 1.986 . S
O144 C151 1.262 . S
O145 Zn140 2.049 . S
O145 C153 1.260 . S
O146 Zn141 1.996 . S
O146 C153 1.257 . S
C147 O142 1.254 . S
C147 O143 1.269 . S
C148 O149 1.249 . S
C148 O150 1.270 . S
O149 Zn141 1.943 . S
O149 C148 1.249 . S
O150 Zn140 2.067 . S
O150 C148 1.270 . S
C151 O144 1.262 . S
C151 O152 1.232 . S
O152 C151 1.232 . S
C153 O145 1.260 . S
C153 O146 1.257 . S
Zn154 O157 2.031 . S
Zn154 O159 2.049 . S
Zn154 O164 2.067 . S
Zn155 O156 1.962 . S
Zn155 O158 1.986 . S
Zn155 O160 1.996 . S
Zn155 O163 1.943 . S
O156 Zn155 1.962 . S
O156 C161 1.254 . S
O157 Zn154 2.031 . S
O157 C161 1.269 . S
O158 Zn155 1.986 . S
O158 C165 1.262 . S
O159 Zn154 2.049 . S
O159 C167 1.260 . S
O160 Zn155 1.996 . S
O160 C167 1.257 . S
C161 O156 1.254 . S
C161 O157 1.269 . S
C162 O163 1.249 . S
C162 O164 1.270 . S
O163 Zn155 1.943 . S
O163 C162 1.249 . S
O164 Zn154 2.067 . S
O164 C162 1.270 . S
C165 O158 1.262 . S
C165 O166 1.232 . S
O166 C165 1.232 . S
C167 O159 1.260 . S
C167 O160 1.257 . S
Zn168 O171 2.031 . S
Zn168 O173 2.049 . S
Zn168 O178 2.067 . S
Zn169 O170 1.962 . S
Zn169 O172 1.986 . S
Zn169 O174 1.996 . S
Zn169 O177 1.943 1_455 S
O170 Zn169 1.962 . S
O170 C175 1.254 1_455 S
O171 Zn168 2.031 . S
O171 C175 1.269 . S
O172 Zn169 1.986 . S
O172 C179 1.262 . S
O173 Zn168 2.049 . S
O173 C181 1.260 . S
O174 Zn169 1.996 . S
O174 C181 1.257 1_455 S
C175 O170 1.254 1_655 S
C175 O171 1.269 . S
C176 O177 1.249 . S
C176 O178 1.270 . S
O177 Zn169 1.943 1_655 S
O177 C176 1.249 . S
O178 Zn168 2.067 . S
O178 C176 1.270 . S
C179 O172 1.262 . S
C179 O180 1.232 . S
O180 C179 1.232 . S
C181 O173 1.260 . S
C181 O174 1.257 1_655 S
Zn182 O185 2.031 . S
Zn182 O187 2.049 . S
Zn182 O192 2.067 . S
Zn183 O184 1.962 . S
Zn183 O186 1.986 1_455 S
Zn183 O188 1.996 . S
Zn183 O191 1.943 . S
O184 Zn183 1.962 . S
O184 C189 1.254 . S
O185 Zn182 2.031 . S
O185 C189 1.269 . S
O186 Zn183 1.986 1_655 S
O186 C193 1.262 . S
O187 Zn182 2.049 . S
O187 C195 1.260 . S
O188 Zn183 1.996 . S
O188 C195 1.257 . S
C189 O184 1.254 . S
C189 O185 1.269 . S
C190 O191 1.249 . S
C190 O192 1.270 . S
O191 Zn183 1.943 . S
O191 C190 1.249 . S
O192 Zn182 2.067 . S
O192 C190 1.270 . S
C193 O186 1.262 . S
C193 O194 1.232 1_655 S
O194 C193 1.232 1_455 S
C195 O187 1.260 . S
C195 O188 1.257 . S
Zn196 O199 2.031 . S
Zn196 O201 2.049 . S
Zn196 O206 2.067 . S
Zn197 O198 1.962 . S
Zn197 O200 1.986 . S
Zn197 O202 1.996 . S
Zn197 O205 1.943 . S
O198 Zn197 1.962 . S
O198 C203 1.254 . S
O199 Zn196 2.031 . S
O199 C203 1.269 . S
O200 Zn197 1.986 . S
O200 C207 1.262 . S
O201 Zn196 2.049 . S
O201 C209 1.260 . S
O202 Zn197 1.996 . S
O202 C209 1.257 . S
C203 O198 1.254 . S
C203 O199 1.269 . S
C204 O205 1.249 . S
C204 O206 1.270 . S
O205 Zn197 1.943 . S
O205 C204 1.249 . S
O206 Zn196 2.067 . S
O206 C204 1.270 . S
C207 O200 1.262 . S
C207 O208 1.232 . S
O208 C207 1.232 . S
C209 O201 1.260 . S
C209 O202 1.257 . S
Zn210 O213 2.031 . S
Zn210 O215 2.049 . S
Zn210 O220 2.067 . S
Zn211 O212 1.962 . S
Zn211 O214 1.986 . S
Zn211 O216 1.996 . S
Zn211 O219 1.943 . S
O212 Zn211 1.962 . S
O212 C217 1.254 . S
O213 Zn210 2.031 . S
O213 C217 1.269 . S
O214 Zn211 1.986 . S
O214 C221 1.262 . S
O215 Zn210 2.049 . S
O215 C223 1.260 . S
O216 Zn211 1.996 . S
O216 C223 1.257 . S
C217 O212 1.254 . S
C217 O213 1.269 . S
C218 O219 1.249 . S
C218 O220 1.270 . S
O219 Zn211 1.943 . S
O219 C218 1.249 . S
O220 Zn210 2.067 . S
O220 C218 1.270 . S
C221 O214 1.262 . S
C221 O222 1.232 . S
O222 C221 1.232 . S
C223 O215 1.260 . S
C223 O216 1.257 . S
Zn224 O227 2.031 1_455 S
Zn224 O229 2.049 . S
Zn224 O234 2.067 1_455 S
Zn225 O226 1.962 . S
Zn225 O228 1.986 . S
Zn225 O230 1.996 . S
Zn225 O233 1.943 1_545 S
O226 Zn225 1.962 . S
O226 C231 1.256 1_545 S
O227 Zn224 2.031 1_655 S
O227 C231 1.270 . S
O228 Zn225 1.986 . S
O228 C235 1.262 . S
O229 Zn224 2.049 . S
O229 C237 1.260 . S
O230 Zn225 1.996 . S
O230 C237 1.257 1_645 S
C231 O226 1.256 1_565 S
C231 O227 1.270 . S
C232 O233 1.249 . S
C232 O234 1.270 . S
O233 Zn225 1.943 1_565 S
O233 C232 1.249 . S
O234 Zn224 2.067 1_655 S
O234 C232 1.270 . S
C235 O228 1.262 . S
C235 O236 1.232 . S
O236 C235 1.232 . S
C237 O229 1.260 . S
C237 O230 1.257 1_465 S
Zn238 O241 2.031 . S
Zn238 O243 2.049 . S
Zn238 O248 2.067 . S
Zn239 O240 1.962 . S
Zn239 O242 1.986 . S
Zn239 O244 1.996 . S
Zn239 O247 1.943 . S
O240 Zn239 1.962 . S
O240 C245 1.254 . S
O241 Zn238 2.031 . S
O241 C245 1.269 . S
O242 Zn239 1.986 . S
O242 C249 1.262 . S
O243 Zn238 2.049 . S
O243 C251 1.260 . S
O244 Zn239 1.996 . S
O244 C251 1.257 . S
C245 O240 1.254 . S
C245 O241 1.269 . S
C246 O247 1.249 . S
C246 O248 1.270 . S
O247 Zn239 1.943 . S
O247 C246 1.249 . S
O248 Zn238 2.067 . S
O248 C246 1.270 . S
C249 O242 1.262 . S
C249 O250 1.232 . S
O250 C249 1.232 . S
C251 O243 1.260 . S
C251 O244 1.257 . S
Zn252 O255 2.031 . S
Zn252 O257 2.049 . S
Zn252 O262 2.067 . S
Zn253 O254 1.962 . S
Zn253 O256 1.986 1_545 S
Zn253 O258 1.996 . S
Zn253 O261 1.943 . S
O254 Zn253 1.962 . S
O254 C259 1.254 . S
O255 Zn252 2.031 . S
O255 C259 1.269 . S
O256 Zn253 1.986 1_565 S
O256 C263 1.262 . S
O257 Zn252 2.049 . S
O257 C265 1.260 . S
O258 Zn253 1.996 . S
O258 C265 1.257 . S
C259 O254 1.254 . S
C259 O255 1.269 . S
C260 O261 1.249 . S
C260 O262 1.270 . S
O261 Zn253 1.943 . S
O261 C260 1.249 . S
O262 Zn252 2.067 . S
O262 C260 1.270 . S
C263 O256 1.262 . S
C263 O264 1.232 . S
O264 C263 1.232 . S
C265 O257 1.260 . S
C265 O258 1.257 . S
Zn266 O269 2.028 1_554 S
Zn266 O271 2.049 . S
Zn266 O276 2.067 . S
Zn267 O268 1.962 1_554 S
Zn267 O270 1.986 1_565 S
Zn267 O272 1.996 . S
Zn267 O275 1.943 1_565 S
O268 Zn267 1.962 1_556 S
O268 C273 1.254 . S
O269 Zn266 2.028 1_556 S
O269 C273 1.271 . S
O270 Zn267 1.986 1_545 S
O270 C277 1.262 . S
O271 Zn266 2.049 . S
O271 C279 1.260 . S
O272 Zn267 1.996 . S
O272 C279 1.257 . S
C273 O268 1.254 . S
C273 O269 1.271 . S
C274 O275 1.249 . S
C274 O276 1.270 1_545 S
O275 Zn267 1.943 1_545 S
O275 C274 1.249 . S
O276 Zn266 2.067 . S
O276 C274 1.270 1_565 S
C277 O270 1.262 . S
C277 O278 1.232 . S
O278 C277 1.232 . S
C279 O271 1.260 . S
C279 O272 1.257 . S
Zn280 O283 2.031 1_554 S
Zn280 O285 2.049 . S
Zn280 O290 2.067 . S
Zn281 O282 1.961 1_554 S
Zn281 O284 1.986 . S
Zn281 O286 1.997 . S
Zn281 O289 1.944 1_554 S
O282 Zn281 1.961 1_556 S
O282 C287 1.254 . S
O283 Zn280 2.031 1_556 S
O283 C287 1.269 . S
O284 Zn281 1.986 . S
O284 C291 1.262 . S
O285 Zn280 2.049 . S
O285 C293 1.260 . S
O286 Zn281 1.997 . S
O286 C293 1.257 . S
C287 O282 1.254 . S
C287 O283 1.269 . S
C288 O289 1.247 1_554 S
C288 O290 1.274 . S
O289 Zn281 1.944 1_556 S
O289 C288 1.247 1_556 S
O290 Zn280 2.067 . S
O290 C288 1.274 . S
C291 O284 1.262 . S
C291 O292 1.232 1_554 S
O292 C291 1.232 1_556 S
C293 O285 1.260 . S
C293 O286 1.257 . S
Zn294 O297 2.031 . S
Zn294 O299 2.049 . S
Zn294 O304 2.067 . S
Zn295 O296 1.962 . S
Zn295 O298 1.986 . S
Zn295 O300 1.996 . S
Zn295 O303 1.943 . S
O296 Zn295 1.962 . S
O296 C301 1.254 . S
O297 Zn294 2.031 . S
O297 C301 1.269 . S
O298 Zn295 1.986 . S
O298 C305 1.262 . S
O299 Zn294 2.049 . S
O299 C307 1.260 . S
O300 Zn295 1.996 . S
O300 C307 1.257 . S
C301 O296 1.254 . S
C301 O297 1.269 . S
C302 O303 1.249 . S
C302 O304 1.270 . S
O303 Zn295 1.943 . S
O303 C302 1.249 . S
O304 Zn294 2.067 . S
O304 C302 1.270 . S
C305 O298 1.262 . S
C305 O306 1.232 . S
O306 C305 1.232 . S
C307 O299 1.260 . S
C307 O300 1.257 . S
Zn308 O311 2.031 . S
Zn308 O313 2.049 . S
Zn308 O318 2.067 . S
Zn309 O310 1.962 . S
Zn309 O312 1.986 . S
Zn309 O314 1.996 . S
Zn309 O317 1.943 . S
O310 Zn309 1.962 . S
O310 C315 1.254 . S
O311 Zn308 2.031 . S
O311 C315 1.269 . S
O312 Zn309 1.986 . S
O312 C319 1.262 . S
O313 Zn308 2.049 . S
O313 C321 1.260 . S
O314 Zn309 1.996 . S
O314 C321 1.257 . S
C315 O310 1.254 . S
C315 O311 1.269 . S
C316 O317 1.249 . S
C316 O318 1.270 . S
O317 Zn309 1.943 . S
O317 C316 1.249 . S
O318 Zn308 2.067 . S
O318 C316 1.270 . S
C319 O312 1.262 . S
C319 O320 1.232 . S
O320 C319 1.232 . S
C321 O313 1.260 . S
C321 O314 1.257 . S
Zn322 O325 2.031 . S
Zn322 O327 2.049 . S
Zn322 O332 2.067 . S
Zn323 O324 1.962 . S
Zn323 O326 1.986 . S
Zn323 O328 1.996 . S
Zn323 O331 1.943 . S
O324 Zn323 1.962 . S
O324 C329 1.254 . S
O325 Zn322 2.031 . S
O325 C329 1.269 . S
O326 Zn323 1.986 . S
O326 C333 1.262 . S
O327 Zn322 2.049 . S
O327 C335 1.260 . S
O328 Zn323 1.996 . S
O328 C335 1.257 . S
C329 O324 1.254 . S
C329 O325 1.269 . S
C330 O331 1.249 . S
C330 O332 1.270 . S
O331 Zn323 1.943 . S
O331 C330 1.249 . S
O332 Zn322 2.067 . S
O332 C330 1.270 . S
C333 O326 1.262 . S
C333 O334 1.232 . S
O334 C333 1.232 . S
C335 O327 1.260 . S
C335 O328 1.257 . S
C336 O352 1.255 . S
C336 O354 1.254 . S
N337 C338 1.333 . S
N337 C342 1.307 1_545 S
N337 Zn343 2.020 1_655 S
C338 N337 1.333 . S
C338 C339 1.379 . S
C338 H356 0.952 . S
C339 C338 1.379 . S
C339 C340 1.390 1_545 S
C339 H366 0.949 . S
C340 C339 1.390 1_565 S
C340 C341 1.357 . S
C341 C340 1.357 . S
C341 C342 1.370 . S
C341 H367 0.950 . S
C342 N337 1.307 1_565 S
C342 C341 1.370 . S
C342 H360 0.948 . S
Zn343 N337 2.020 1_455 S
Zn343 O352 2.040 1_554 S
Zn343 O358 2.034 . S
Zn343 O362 2.025 1_545 S
Zn343 O364 2.024 1_545 S
C344 O363 1.246 . S
C344 O364 1.249 . S
N345 C346 1.307 1_554 S
N345 C347 1.333 . S
N345 Zn351 2.020 . S
C346 N345 1.307 1_556 S
C346 C350 1.370 . S
C346 H357 0.948 . S
C347 N345 1.333 . S
C347 C348 1.379 . S
C347 H355 0.952 1_545 S
C348 C347 1.379 . S
C348 C349 1.390 . S
C348 H368 0.949 1_545 S
C349 C348 1.390 . S
C349 C350 1.357 1_554 S
C350 C346 1.370 . S
C350 C349 1.357 1_556 S
C350 H369 0.950 . S
Zn351 N345 2.020 . S
Zn351 O354 2.025 1_554 S
Zn351 O359 2.024 . S
Zn351 O361 2.039 . S
Zn351 O363 2.034 1_545 S
O352 C336 1.255 . S
O352 Zn343 2.040 1_556 S
C353 O358 1.246 . S
C353 O359 1.249 . S
O354 C336 1.254 . S
O354 Zn351 2.025 1_556 S
H355 C347 0.952 1_565 S
H356 C338 0.952 . S
H357 C346 0.948 . S
O358 Zn343 2.034 . S
O358 C353 1.246 . S
O359 Zn351 2.024 . S
O359 C353 1.249 . S
H360 C342 0.948 . S
O361 Zn351 2.039 . S
O361 C365 1.251 1_545 S
O362 Zn343 2.025 1_565 S
O362 C365 1.254 . S
O363 C344 1.246 . S
O363 Zn351 2.034 1_565 S
O364 Zn343 2.024 1_565 S
O364 C344 1.249 . S
C365 O361 1.251 1_565 S
C365 O362 1.254 . S
H366 C339 0.949 . S
H367 C341 0.950 . S
H368 C348 0.949 1_565 S
H369 C350 0.950 . S
C370 O386 1.251 . S
C370 O388 1.254 . S
N371 C372 1.333 . S
N371 C376 1.307 . S
N371 Zn377 2.020 . S
C372 N371 1.333 . S
C372 C373 1.379 . S
C372 H390 0.952 . S
C373 C372 1.379 . S
C373 C374 1.390 . S
C373 H400 0.949 . S
C374 C373 1.390 . S
C374 C375 1.357 . S
C375 C374 1.357 . S
C375 C376 1.370 . S
C375 H401 0.950 . S
C376 N371 1.307 . S
C376 C375 1.370 . S
C376 H394 0.948 . S
Zn377 N371 2.020 . S
Zn377 O386 2.039 . S
Zn377 O392 2.034 . S
Zn377 O396 2.025 . S
Zn377 O398 2.024 . S
C378 O397 1.246 . S
C378 O398 1.249 . S
N379 C380 1.307 . S
N379 C381 1.333 . S
N379 Zn385 2.020 . S
C380 N379 1.307 . S
C380 C384 1.370 . S
C380 H391 0.948 . S
C381 N379 1.333 . S
C381 C382 1.379 . S
C381 H389 0.952 . S
C382 C381 1.379 . S
C382 C383 1.390 . S
C382 H402 0.949 . S
C383 C382 1.390 . S
C383 C384 1.357 . S
C384 C380 1.370 . S
C384 C383 1.357 . S
C384 H403 0.950 . S
Zn385 N379 2.020 . S
Zn385 O388 2.025 . S
Zn385 O393 2.024 . S
Zn385 O395 2.039 . S
Zn385 O397 2.034 . S
O386 C370 1.251 . S
O386 Zn377 2.039 . S
C387 O392 1.246 . S
C387 O393 1.249 . S
O388 C370 1.254 . S
O388 Zn385 2.025 . S
H389 C381 0.952 . S
H390 C372 0.952 . S
H391 C380 0.948 . S
O392 Zn377 2.034 . S
O392 C387 1.246 . S
O393 Zn385 2.024 . S
O393 C387 1.249 . S
H394 C376 0.948 . S
O395 Zn385 2.039 . S
O395 C399 1.251 . S
O396 Zn377 2.025 . S
O396 C399 1.254 . S
O397 C378 1.246 . S
O397 Zn385 2.034 . S
O398 Zn377 2.024 . S
O398 C378 1.249 . S
C399 O395 1.251 . S
C399 O396 1.254 . S
H400 C373 0.949 . S
H401 C375 0.950 . S
H402 C382 0.949 . S
H403 C384 0.950 . S
C404 O420 1.251 . S
C404 O422 1.254 . S
N405 C406 1.333 . S
N405 C410 1.307 . S
N405 Zn411 2.020 . S
C406 N405 1.333 . S
C406 C407 1.379 . S
C406 H424 0.952 . S
C407 C406 1.379 . S
C407 C408 1.390 . S
C407 H434 0.949 . S
C408 C407 1.390 . S
C408 C409 1.357 . S
C409 C408 1.357 . S
C409 C410 1.370 . S
C409 H435 0.950 . S
C410 N405 1.307 . S
C410 C409 1.370 . S
C410 H428 0.948 . S
Zn411 N405 2.020 . S
Zn411 O420 2.039 1_565 S
Zn411 O426 2.034 1_565 S
Zn411 O430 2.025 . S
Zn411 O432 2.024 . S
C412 O431 1.246 1_565 S
C412 O432 1.249 . S
N413 C414 1.307 . S
N413 C415 1.333 . S
N413 Zn419 2.020 . S
C414 N413 1.307 . S
C414 C418 1.370 . S
C414 H425 0.948 . S
C415 N413 1.333 . S
C415 C416 1.379 . S
C415 H423 0.952 . S
C416 C415 1.379 . S
C416 C417 1.390 . S
C416 H436 0.949 . S
C417 C416 1.390 . S
C417 C418 1.357 . S
C418 C414 1.370 . S
C418 C417 1.357 . S
C418 H437 0.950 . S
Zn419 N413 2.020 . S
Zn419 O422 2.025 . S
Zn419 O427 2.024 . S
Zn419 O429 2.039 . S
Zn419 O431 2.034 . S
O420 C404 1.251 . S
O420 Zn411 2.039 1_545 S
C421 O426 1.246 . S
C421 O427 1.249 . S
O422 C404 1.254 . S
O422 Zn419 2.025 . S
H423 C415 0.952 . S
H424 C406 0.952 . S
H425 C414 0.948 . S
O426 Zn411 2.034 1_545 S
O426 C421 1.246 . S
O427 Zn419 2.024 . S
O427 C421 1.249 . S
H428 C410 0.948 . S
O429 Zn419 2.039 . S
O429 C433 1.251 . S
O430 Zn411 2.025 . S
O430 C433 1.254 1_565 S
O431 C412 1.246 1_545 S
O431 Zn419 2.034 . S
O432 Zn411 2.024 . S
O432 C412 1.249 . S
C433 O429 1.251 . S
C433 O430 1.254 1_545 S
H434 C407 0.949 . S
H435 C409 0.950 . S
H436 C416 0.949 . S
H437 C418 0.950 . S
C438 O454 1.251 . S
C438 O456 1.254 . S
N439 C440 1.333 . S
N439 C444 1.307 . S
N439 Zn445 2.020 . S
C440 N439 1.333 . S
C440 C441 1.379 . S
C440 H458 0.952 . S
C441 C440 1.379 . S
C441 C442 1.390 . S
C441 H468 0.949 . S
C442 C441 1.390 . S
C442 C443 1.357 . S
C443 C442 1.357 . S
C443 C444 1.370 . S
C443 H469 0.950 1_556 S
C444 N439 1.307 . S
C444 C443 1.370 . S
C444 H462 0.948 . S
Zn445 N439 2.020 . S
Zn445 O454 2.039 . S
Zn445 O460 2.034 . S
Zn445 O464 2.025 . S
Zn445 O466 2.024 . S
C446 O465 1.246 . S
C446 O466 1.249 . S
N447 C448 1.307 . S
N447 C449 1.333 . S
N447 Zn453 2.020 . S
C448 N447 1.307 . S
C448 C452 1.370 . S
C448 H459 0.948 . S
C449 N447 1.333 . S
C449 C450 1.379 . S
C449 H457 0.952 . S
C450 C449 1.379 . S
C450 C451 1.390 . S
C450 H470 0.949 . S
C451 C450 1.390 . S
C451 C452 1.357 . S
C452 C448 1.370 . S
C452 C451 1.357 . S
C452 H471 0.950 . S
Zn453 N447 2.020 . S
Zn453 O456 2.025 . S
Zn453 O461 2.024 . S
Zn453 O463 2.039 . S
Zn453 O465 2.034 . S
O454 C438 1.251 . S
O454 Zn445 2.039 . S
C455 O460 1.246 . S
C455 O461 1.249 . S
O456 C438 1.254 . S
O456 Zn453 2.025 . S
H457 C449 0.952 . S
H458 C440 0.952 . S
H459 C448 0.948 . S
O460 Zn445 2.034 . S
O460 C455 1.246 . S
O461 Zn453 2.024 . S
O461 C455 1.249 . S
H462 C444 0.948 . S
O463 Zn453 2.039 . S
O463 C467 1.251 . S
O464 Zn445 2.025 . S
O464 C467 1.254 . S
O465 C446 1.246 . S
O465 Zn453 2.034 . S
O466 Zn445 2.024 . S
O466 C446 1.249 . S
C467 O463 1.251 . S
C467 O464 1.254 . S
H468 C441 0.949 . S
H469 C443 0.950 1_554 S
H470 C450 0.949 . S
H471 C452 0.950 . S
C472 O488 1.251 1_565 S
C472 O490 1.254 . S
N473 C474 1.333 . S
N473 C478 1.307 . S
N473 Zn479 2.020 . S
C474 N473 1.333 . S
C474 C475 1.379 . S
C474 H492 0.952 . S
C475 C474 1.379 . S
C475 C476 1.390 . S
C475 H502 0.949 . S
C476 C475 1.390 . S
C476 C477 1.357 . S
C477 C476 1.357 . S
C477 C478 1.370 . S
C477 H503 0.950 . S
C478 N473 1.307 . S
C478 C477 1.370 . S
C478 H496 0.948 . S
Zn479 N473 2.020 . S
Zn479 O488 2.039 . S
Zn479 O494 2.034 . S
Zn479 O498 2.025 . S
Zn479 O500 2.024 1_545 S
C480 O499 1.246 . S
C480 O500 1.249 . S
N481 C482 1.307 . S
N481 C483 1.333 1_455 S
N481 Zn487 2.020 1_565 S
C482 N481 1.307 . S
C482 C486 1.370 . S
C482 H493 0.948 . S
C483 N481 1.333 1_655 S
C483 C484 1.379 . S
C483 H491 0.952 . S
C484 C483 1.379 . S
C484 C485 1.390 . S
C484 H504 0.949 . S
C485 C484 1.390 . S
C485 C486 1.357 1_655 S
C486 C482 1.370 . S
C486 C485 1.357 1_455 S
C486 H505 0.950 . S
Zn487 N481 2.020 1_545 S
Zn487 O490 2.025 1_545 S
Zn487 O495 2.024 . S
Zn487 O497 2.039 1_455 S
Zn487 O499 2.034 1_545 S
O488 C472 1.251 1_545 S
O488 Zn479 2.039 . S
C489 O494 1.246 . S
C489 O495 1.249 . S
O490 C472 1.254 . S
O490 Zn487 2.025 1_565 S
H491 C483 0.952 . S
H492 C474 0.952 . S
H493 C482 0.948 . S
O494 Zn479 2.034 . S
O494 C489 1.246 . S
O495 Zn487 2.024 . S
O495 C489 1.249 . S
H496 C478 0.948 . S
O497 Zn487 2.039 1_655 S
O497 C501 1.251 . S
O498 Zn479 2.025 . S
O498 C501 1.254 1_455 S
O499 C480 1.246 . S
O499 Zn487 2.034 1_565 S
O500 Zn479 2.024 1_565 S
O500 C480 1.249 . S
C501 O497 1.251 . S
C501 O498 1.254 1_655 S
H502 C475 0.949 . S
H503 C477 0.950 . S
H504 C484 0.949 . S
H505 C486 0.950 . S
C506 O522 1.251 . S
C506 O524 1.254 . S
N507 C508 1.333 . S
N507 C512 1.307 . S
N507 Zn513 2.020 . S
C508 N507 1.333 . S
C508 C509 1.379 . S
C508 H526 0.952 . S
C509 C508 1.379 . S
C509 C510 1.390 . S
C509 H536 0.949 . S
C510 C509 1.390 . S
C510 C511 1.357 . S
C511 C510 1.357 . S
C511 C512 1.370 . S
C511 H537 0.950 . S
C512 N507 1.307 . S
C512 C511 1.370 . S
C512 H530 0.948 . S
Zn513 N507 2.020 . S
Zn513 O522 2.039 . S
Zn513 O528 2.034 . S
Zn513 O532 2.025 . S
Zn513 O534 2.024 . S
C514 O533 1.246 . S
C514 O534 1.249 . S
N515 C516 1.307 . S
N515 C517 1.333 . S
N515 Zn521 2.020 . S
C516 N515 1.307 . S
C516 C520 1.370 . S
C516 H527 0.948 . S
C517 N515 1.333 . S
C517 C518 1.379 . S
C517 H525 0.952 . S
C518 C517 1.379 . S
C518 C519 1.390 . S
C518 H538 0.949 . S
C519 C518 1.390 . S
C519 C520 1.357 . S
C520 C516 1.370 . S
C520 C519 1.357 . S
C520 H539 0.950 . S
Zn521 N515 2.020 . S
Zn521 O524 2.025 . S
Zn521 O529 2.024 . S
Zn521 O531 2.039 . S
Zn521 O533 2.034 . S
O522 C506 1.251 . S
O522 Zn513 2.039 . S
C523 O528 1.246 . S
C523 O529 1.249 . S
O524 C506 1.254 . S
O524 Zn521 2.025 . S
H525 C517 0.952 . S
H526 C508 0.952 . S
H527 C516 0.948 . S
O528 Zn513 2.034 . S
O528 C523 1.246 . S
O529 Zn521 2.024 . S
O529 C523 1.249 . S
H530 C512 0.948 . S
O531 Zn521 2.039 . S
O531 C535 1.251 . S
O532 Zn513 2.025 . S
O532 C535 1.254 . S
O533 C514 1.246 . S
O533 Zn521 2.034 . S
O534 Zn513 2.024 . S
O534 C514 1.249 . S
C535 O531 1.251 . S
C535 O532 1.254 . S
H536 C509 0.949 . S
H537 C511 0.950 . S
H538 C518 0.949 . S
H539 C520 0.950 . S
C540 O556 1.251 . S
C540 O558 1.254 . S
N541 C542 1.333 . S
N541 C546 1.307 . S
N541 Zn547 2.020 . S
C542 N541 1.333 . S
C542 C543 1.379 . S
C542 H560 0.952 . S
C543 C542 1.379 . S
C543 C544 1.390 . S
C543 H570 0.949 . S
C544 C543 1.390 . S
C544 C545 1.357 . S
C545 C544 1.357 . S
C545 C546 1.370 . S
C545 H571 0.950 . S
C546 N541 1.307 . S
C546 C545 1.370 . S
C546 H564 0.948 . S
Zn547 N541 2.020 . S
Zn547 O556 2.039 1_545 S
Zn547 O562 2.034 . S
Zn547 O566 2.025 . S
Zn547 O568 2.024 . S
C548 O567 1.246 . S
C548 O568 1.249 1_565 S
N549 C550 1.307 . S
N549 C551 1.333 1_565 S
N549 Zn555 2.020 1_566 S
C550 N549 1.307 . S
C550 C554 1.370 . S
C550 H561 0.948 . S
C551 N549 1.333 1_545 S
C551 C552 1.379 1_545 S
C551 H559 0.952 . S
C552 C551 1.379 1_565 S
C552 C553 1.390 . S
C552 H572 0.949 1_565 S
C553 C552 1.390 . S
C553 C554 1.357 . S
C554 C550 1.370 . S
C554 C553 1.357 . S
C554 H573 0.950 . S
Zn555 N549 2.020 1_544 S
Zn555 O558 2.025 1_545 S
Zn555 O563 2.024 . S
Zn555 O565 2.039 1_554 S
Zn555 O567 2.034 1_545 S
O556 C540 1.251 . S
O556 Zn547 2.039 1_565 S
C557 O562 1.246 . S
C557 O563 1.249 . S
O558 C540 1.254 . S
O558 Zn555 2.025 1_565 S
H559 C551 0.952 . S
H560 C542 0.952 . S
H561 C550 0.948 . S
O562 Zn547 2.034 . S
O562 C557 1.246 . S
O563 Zn555 2.024 . S
O563 C557 1.249 . S
H564 C546 0.948 . S
O565 Zn555 2.039 1_556 S
O565 C569 1.251 1_556 S
O566 Zn547 2.025 . S
O566 C569 1.254 . S
O567 C548 1.246 . S
O567 Zn555 2.034 1_565 S
O568 Zn547 2.024 . S
O568 C548 1.249 1_545 S
C569 O565 1.251 1_554 S
C569 O566 1.254 . S
H570 C543 0.949 . S
H571 C545 0.950 . S
H572 C552 0.949 1_545 S
H573 C554 0.950 . S
C574 O590 1.251 . S
C574 O592 1.254 . S
N575 C576 1.333 . S
N575 C580 1.307 . S
N575 Zn581 2.020 . S
C576 N575 1.333 . S
C576 C577 1.379 . S
C576 H594 0.952 . S
C577 C576 1.379 . S
C577 C578 1.390 . S
C577 H604 0.949 . S
C578 C577 1.390 . S
C578 C579 1.357 . S
C579 C578 1.357 . S
C579 C580 1.370 . S
C579 H605 0.950 . S
C580 N575 1.307 . S
C580 C579 1.370 . S
C580 H598 0.948 . S
Zn581 N575 2.020 . S
Zn581 O590 2.039 . S
Zn581 O596 2.034 . S
Zn581 O600 2.025 . S
Zn581 O602 2.024 . S
C582 O601 1.246 . S
C582 O602 1.249 . S
N583 C584 1.307 . S
N583 C585 1.333 . S
N583 Zn589 2.020 . S
C584 N583 1.307 . S
C584 C588 1.370 . S
C584 H595 0.948 . S
C585 N583 1.333 . S
C585 C586 1.379 . S
C585 H593 0.952 . S
C586 C585 1.379 . S
C586 C587 1.390 . S
C586 H606 0.949 . S
C587 C586 1.390 . S
C587 C588 1.357 . S
C588 C584 1.370 . S
C588 C587 1.357 . S
C588 H607 0.950 . S
Zn589 N583 2.020 . S
Zn589 O592 2.025 . S
Zn589 O597 2.024 . S
Zn589 O599 2.039 . S
Zn589 O601 2.034 . S
O590 C574 1.251 . S
O590 Zn581 2.039 . S
C591 O596 1.246 . S
C591 O597 1.249 . S
O592 C574 1.254 . S
O592 Zn589 2.025 . S
H593 C585 0.952 . S
H594 C576 0.952 . S
H595 C584 0.948 . S
O596 Zn581 2.034 . S
O596 C591 1.246 . S
O597 Zn589 2.024 . S
O597 C591 1.249 . S
H598 C580 0.948 . S
O599 Zn589 2.039 . S
O599 C603 1.251 . S
O600 Zn581 2.025 . S
O600 C603 1.254 . S
O601 C582 1.246 . S
O601 Zn589 2.034 . S
O602 Zn581 2.024 . S
O602 C582 1.249 . S
C603 O599 1.251 . S
C603 O600 1.254 . S
H604 C577 0.949 . S
H605 C579 0.950 . S
H606 C586 0.949 . S
H607 C588 0.950 . S
C608 O624 1.251 . S
C608 O626 1.254 . S
N609 C610 1.333 . S
N609 C614 1.307 . S
N609 Zn615 2.020 1_556 S
C610 N609 1.333 . S
C610 C611 1.379 . S
C610 H628 0.952 . S
C611 C610 1.379 . S
C611 C612 1.390 . S
C611 H638 0.949 . S
C612 C611 1.390 . S
C612 C613 1.357 . S
C613 C612 1.357 . S
C613 C614 1.370 . S
C613 H639 0.950 . S
C614 N609 1.307 . S
C614 C613 1.370 . S
C614 H632 0.948 . S
Zn615 N609 2.020 1_554 S
Zn615 O624 2.039 . S
Zn615 O630 2.034 . S
Zn615 O634 2.025 . S
Zn615 O636 2.024 1_554 S
C616 O635 1.246 . S
C616 O636 1.249 1_554 S
N617 C618 1.307 . S
N617 C619 1.333 . S
N617 Zn623 2.020 . S
C618 N617 1.307 . S
C618 C622 1.370 . S
C618 H629 0.948 . S
C619 N617 1.333 . S
C619 C620 1.379 . S
C619 H627 0.952 . S
C620 C619 1.379 . S
C620 C621 1.390 . S
C620 H640 0.949 . S
C621 C620 1.390 . S
C621 C622 1.357 . S
C622 C618 1.370 . S
C622 C621 1.357 . S
C622 H641 0.950 . S
Zn623 N617 2.020 . S
Zn623 O626 2.025 . S
Zn623 O631 2.024 . S
Zn623 O633 2.039 . S
Zn623 O635 2.034 . S
O624 C608 1.251 . S
O624 Zn615 2.039 . S
C625 O630 1.246 . S
C625 O631 1.249 . S
O626 C608 1.254 . S
O626 Zn623 2.025 . S
H627 C619 0.952 . S
H628 C610 0.952 . S
H629 C618 0.948 . S
O630 Zn615 2.034 . S
O630 C625 1.246 . S
O631 Zn623 2.024 . S
O631 C625 1.249 . S
H632 C614 0.948 . S
O633 Zn623 2.039 . S
O633 C637 1.251 . S
O634 Zn615 2.025 . S
O634 C637 1.254 . S
O635 C616 1.246 . S
O635 Zn623 2.034 . S
O636 Zn615 2.024 1_556 S
O636 C616 1.249 1_556 S
C637 O633 1.251 . S
C637 O634 1.254 . S
H638 C611 0.949 . S
H639 C613 0.950 . S
H640 C620 0.949 . S
H641 C622 0.950 . S
C642 O658 1.251 . S
C642 O660 1.254 . S
N643 C644 1.333 . S
N643 C648 1.307 . S
N643 Zn649 2.020 . S
C644 N643 1.333 . S
C644 C645 1.379 . S
C644 H662 0.952 . S
C645 C644 1.379 . S
C645 C646 1.390 1_655 S
C645 H672 0.949 . S
C646 C645 1.390 1_455 S
C646 C647 1.357 . S
C647 C646 1.357 . S
C647 C648 1.370 1_455 S
C647 H673 0.950 . S
C648 N643 1.307 . S
C648 C647 1.370 1_655 S
C648 H666 0.948 . S
Zn649 N643 2.020 . S
Zn649 O658 2.039 . S
Zn649 O664 2.034 . S
Zn649 O668 2.025 . S
Zn649 O670 2.024 . S
C650 O669 1.246 . S
C650 O670 1.249 . S
N651 C652 1.307 . S
N651 C653 1.333 . S
N651 Zn657 2.020 . S
C652 N651 1.307 . S
C652 C656 1.370 . S
C652 H663 0.948 . S
C653 N651 1.333 . S
C653 C654 1.379 . S
C653 H661 0.952 . S
C654 C653 1.379 . S
C654 C655 1.390 . S
C654 H674 0.949 . S
C655 C654 1.390 . S
C655 C656 1.357 . S
C656 C652 1.370 . S
C656 C655 1.357 . S
C656 H675 0.950 . S
Zn657 N651 2.020 . S
Zn657 O660 2.025 . S
Zn657 O665 2.024 . S
Zn657 O667 2.039 . S
Zn657 O669 2.034 . S
O658 C642 1.251 . S
O658 Zn649 2.039 . S
C659 O664 1.246 . S
C659 O665 1.249 . S
O660 C642 1.254 . S
O660 Zn657 2.025 . S
H661 C653 0.952 . S
H662 C644 0.952 . S
H663 C652 0.948 . S
O664 Zn649 2.034 . S
O664 C659 1.246 . S
O665 Zn657 2.024 . S
O665 C659 1.249 . S
H666 C648 0.948 . S
O667 Zn657 2.039 . S
O667 C671 1.251 . S
O668 Zn649 2.025 . S
O668 C671 1.254 . S
O669 C650 1.246 . S
O669 Zn657 2.034 . S
O670 Zn649 2.024 . S
O670 C650 1.249 . S
C671 O667 1.251 . S
C671 O668 1.254 . S
H672 C645 0.949 . S
H673 C647 0.950 . S
H674 C654 0.949 . S
H675 C656 0.950 . S
C676 O692 1.251 . S
C676 O694 1.254 . S
N677 C678 1.333 . S
N677 C682 1.307 . S
N677 Zn683 2.020 . S
C678 N677 1.333 . S
C678 C679 1.379 . S
C678 H696 0.952 . S
C679 C678 1.379 . S
C679 C680 1.390 . S
C679 H706 0.949 . S
C680 C679 1.390 . S
C680 C681 1.357 . S
C681 C680 1.357 . S
C681 C682 1.370 . S
C681 H707 0.950 . S
C682 N677 1.307 . S
C682 C681 1.370 . S
C682 H700 0.948 . S
Zn683 N677 2.020 . S
Zn683 O692 2.039 . S
Zn683 O698 2.034 . S
Zn683 O702 2.025 . S
Zn683 O704 2.024 . S
C684 O703 1.246 . S
C684 O704 1.249 . S
N685 C686 1.307 1_455 S
N685 C687 1.333 . S
N685 Zn691 2.020 . S
C686 N685 1.307 1_655 S
C686 C690 1.370 . S
C686 H697 0.948 . S
C687 N685 1.333 . S
C687 C688 1.379 . S
C687 H695 0.952 . S
C688 C687 1.379 . S
C688 C689 1.390 1_455 S
C688 H708 0.949 . S
C689 C688 1.390 1_655 S
C689 C690 1.357 . S
C690 C686 1.370 . S
C690 C689 1.357 . S
C690 H709 0.950 . S
Zn691 N685 2.020 . S
Zn691 O694 2.025 . S
Zn691 O699 2.024 1_455 S
Zn691 O701 2.039 . S
Zn691 O703 2.034 . S
O692 C676 1.251 . S
O692 Zn683 2.039 . S
C693 O698 1.246 1_655 S
C693 O699 1.249 . S
O694 C676 1.254 . S
O694 Zn691 2.025 . S
H695 C687 0.952 . S
H696 C678 0.952 . S
H697 C686 0.948 . S
O698 Zn683 2.034 . S
O698 C693 1.246 1_455 S
O699 Zn691 2.024 1_655 S
O699 C693 1.249 . S
H700 C682 0.948 . S
O701 Zn691 2.039 . S
O701 C705 1.251 . S
O702 Zn683 2.025 . S
O702 C705 1.254 . S
O703 C684 1.246 . S
O703 Zn691 2.034 . S
O704 Zn683 2.024 . S
O704 C684 1.249 . S
C705 O701 1.251 . S
C705 O702 1.254 . S
H706 C679 0.949 . S
H707 C681 0.950 . S
H708 C688 0.949 . S
H709 C690 0.950 . S
C710 O726 1.251 . S
C710 O728 1.254 . S
N711 C712 1.333 . S
N711 C716 1.307 . S
N711 Zn717 2.020 . S
C712 N711 1.333 . S
C712 C713 1.379 . S
C712 H730 0.952 . S
C713 C712 1.379 . S
C713 C714 1.390 . S
C713 H740 0.949 . S
C714 C713 1.390 . S
C714 C715 1.357 . S
C715 C714 1.357 . S
C715 C716 1.370 . S
C715 H741 0.950 . S
C716 N711 1.307 . S
C716 C715 1.370 . S
C716 H734 0.948 . S
Zn717 N711 2.020 . S
Zn717 O726 2.039 . S
Zn717 O732 2.034 . S
Zn717 O736 2.025 . S
Zn717 O738 2.024 . S
C718 O737 1.246 . S
C718 O738 1.249 . S
N719 C720 1.307 . S
N719 C721 1.333 . S
N719 Zn725 2.020 . S
C720 N719 1.307 . S
C720 C724 1.370 . S
C720 H731 0.948 . S
C721 N719 1.333 . S
C721 C722 1.379 . S
C721 H729 0.952 . S
C722 C721 1.379 . S
C722 C723 1.390 . S
C722 H742 0.949 . S
C723 C722 1.390 . S
C723 C724 1.357 . S
C724 C720 1.370 . S
C724 C723 1.357 . S
C724 H743 0.950 . S
Zn725 N719 2.020 . S
Zn725 O728 2.025 . S
Zn725 O733 2.024 . S
Zn725 O735 2.039 . S
Zn725 O737 2.034 . S
O726 C710 1.251 . S
O726 Zn717 2.039 . S
C727 O732 1.246 . S
C727 O733 1.249 . S
O728 C710 1.254 . S
O728 Zn725 2.025 . S
H729 C721 0.952 . S
H730 C712 0.952 . S
H731 C720 0.948 . S
O732 Zn717 2.034 . S
O732 C727 1.246 . S
O733 Zn725 2.024 . S
O733 C727 1.249 . S
H734 C716 0.948 . S
O735 Zn725 2.039 . S
O735 C739 1.251 . S
O736 Zn717 2.025 . S
O736 C739 1.254 . S
O737 C718 1.246 . S
O737 Zn725 2.034 . S
O738 Zn717 2.024 . S
O738 C718 1.249 . S
C739 O735 1.251 . S
C739 O736 1.254 . S
H740 C713 0.949 . S
H741 C715 0.950 . S
H742 C722 0.949 . S
H743 C724 0.950 . S
C744 O760 1.251 . S
C744 O762 1.254 . S
N745 C746 1.333 . S
N745 C750 1.307 . S
N745 Zn751 2.020 . S
C746 N745 1.333 . S
C746 C747 1.379 . S
C746 H764 0.952 . S
C747 C746 1.379 . S
C747 C748 1.390 . S
C747 H774 0.949 . S
C748 C747 1.390 . S
C748 C749 1.357 . S
C749 C748 1.357 . S
C749 C750 1.370 . S
C749 H775 0.950 . S
C750 N745 1.307 . S
C750 C749 1.370 . S
C750 H768 0.948 . S
Zn751 N745 2.020 . S
Zn751 O760 2.039 . S
Zn751 O766 2.034 . S
Zn751 O770 2.025 . S
Zn751 O772 2.024 . S
C752 O771 1.246 . S
C752 O772 1.249 . S
N753 C754 1.307 . S
N753 C755 1.333 . S
N753 Zn759 2.020 . S
C754 N753 1.307 . S
C754 C758 1.370 . S
C754 H765 0.948 . S
C755 N753 1.333 . S
C755 C756 1.379 . S
C755 H763 0.952 . S
C756 C755 1.379 . S
C756 C757 1.390 . S
C756 H776 0.949 1_556 S
C757 C756 1.390 . S
C757 C758 1.357 . S
C758 C754 1.370 . S
C758 C757 1.357 . S
C758 H777 0.950 . S
Zn759 N753 2.020 . S
Zn759 O762 2.025 . S
Zn759 O767 2.024 . S
Zn759 O769 2.039 . S
Zn759 O771 2.034 . S
O760 C744 1.251 . S
O760 Zn751 2.039 . S
C761 O766 1.246 . S
C761 O767 1.249 . S
O762 C744 1.254 . S
O762 Zn759 2.025 . S
H763 C755 0.952 . S
H764 C746 0.952 . S
H765 C754 0.948 . S
O766 Zn751 2.034 . S
O766 C761 1.246 . S
O767 Zn759 2.024 . S
O767 C761 1.249 . S
H768 C750 0.948 . S
O769 Zn759 2.039 . S
O769 C773 1.251 . S
O770 Zn751 2.025 . S
O770 C773 1.254 . S
O771 C752 1.246 . S
O771 Zn759 2.034 . S
O772 Zn751 2.024 . S
O772 C752 1.249 . S
C773 O769 1.251 . S
C773 O770 1.254 . S
H774 C747 0.949 . S
H775 C749 0.950 . S
H776 C756 0.949 1_554 S
H777 C758 0.950 . S
C778 O794 1.251 . S
C778 O796 1.254 . S
N779 C780 1.333 . S
N779 C784 1.307 . S
N779 Zn785 2.020 . S
C780 N779 1.333 . S
C780 C781 1.379 . S
C780 H798 0.952 . S
C781 C780 1.379 . S
C781 C782 1.390 . S
C781 H808 0.949 . S
C782 C781 1.390 . S
C782 C783 1.357 . S
C783 C782 1.357 . S
C783 C784 1.370 . S
C783 H809 0.950 . S
C784 N779 1.307 . S
C784 C783 1.370 . S
C784 H802 0.948 . S
Zn785 N779 2.020 . S
Zn785 O794 2.039 . S
Zn785 O800 2.034 . S
Zn785 O804 2.025 . S
Zn785 O806 2.024 . S
C786 O805 1.246 . S
C786 O806 1.249 . S
N787 C788 1.307 . S
N787 C789 1.333 . S
N787 Zn793 2.020 . S
C788 N787 1.307 . S
C788 C792 1.370 . S
C788 H799 0.948 . S
C789 N787 1.333 . S
C789 C790 1.379 . S
C789 H797 0.952 . S
C790 C789 1.379 . S
C790 C791 1.390 . S
C790 H810 0.949 . S
C791 C790 1.390 . S
C791 C792 1.357 . S
C792 C788 1.370 . S
C792 C791 1.357 . S
C792 H811 0.950 1_556 S
Zn793 N787 2.020 . S
Zn793 O796 2.025 . S
Zn793 O801 2.024 . S
Zn793 O803 2.039 . S
Zn793 O805 2.034 . S
O794 C778 1.251 . S
O794 Zn785 2.039 . S
C795 O800 1.246 . S
C795 O801 1.249 . S
O796 C778 1.254 . S
O796 Zn793 2.025 . S
H797 C789 0.952 . S
H798 C780 0.952 . S
H799 C788 0.948 . S
O800 Zn785 2.034 . S
O800 C795 1.246 . S
O801 Zn793 2.024 . S
O801 C795 1.249 . S
H802 C784 0.948 . S
O803 Zn793 2.039 . S
O803 C807 1.251 . S
O804 Zn785 2.025 . S
O804 C807 1.254 . S
O805 C786 1.246 . S
O805 Zn793 2.034 . S
O806 Zn785 2.024 . S
O806 C786 1.249 . S
C807 O803 1.251 . S
C807 O804 1.254 . S
H808 C781 0.949 . S
H809 C783 0.950 . S
H810 C790 0.949 . S
H811 C792 0.950 1_554 S
C812 O828 1.251 . S
C812 O830 1.254 . S
N813 C814 1.333 . S
N813 C818 1.307 . S
N813 Zn819 2.020 . S
C814 N813 1.333 . S
C814 C815 1.379 . S
C814 H832 0.952 . S
C815 C814 1.379 . S
C815 C816 1.390 . S
C815 H842 0.949 . S
C816 C815 1.390 . S
C816 C817 1.357 . S
C817 C816 1.357 . S
C817 C818 1.370 . S
C817 H843 0.950 . S
C818 N813 1.307 . S
C818 C817 1.370 . S
C818 H836 0.948 . S
Zn819 N813 2.020 . S
Zn819 O828 2.039 . S
Zn819 O834 2.034 . S
Zn819 O838 2.025 . S
Zn819 O840 2.024 . S
C820 O839 1.246 . S
C820 O840 1.249 . S
N821 C822 1.307 . S
N821 C823 1.333 . S
N821 Zn827 2.020 . S
C822 N821 1.307 . S
C822 C826 1.370 . S
C822 H833 0.948 . S
C823 N821 1.333 . S
C823 C824 1.379 . S
C823 H831 0.952 . S
C824 C823 1.379 . S
C824 C825 1.390 . S
C824 H844 0.949 . S
C825 C824 1.390 . S
C825 C826 1.357 . S
C826 C822 1.370 . S
C826 C825 1.357 . S
C826 H845 0.950 . S
Zn827 N821 2.020 . S
Zn827 O830 2.025 . S
Zn827 O835 2.024 . S
Zn827 O837 2.039 . S
Zn827 O839 2.034 . S
O828 C812 1.251 . S
O828 Zn819 2.039 . S
C829 O834 1.246 . S
C829 O835 1.249 . S
O830 C812 1.254 . S
O830 Zn827 2.025 . S
H831 C823 0.952 . S
H832 C814 0.952 . S
H833 C822 0.948 . S
O834 Zn819 2.034 . S
O834 C829 1.246 . S
O835 Zn827 2.024 . S
O835 C829 1.249 . S
H836 C818 0.948 . S
O837 Zn827 2.039 . S
O837 C841 1.251 . S
O838 Zn819 2.025 . S
O838 C841 1.254 . S
O839 C820 1.246 . S
O839 Zn827 2.034 . S
O840 Zn819 2.024 . S
O840 C820 1.249 . S
C841 O837 1.251 . S
C841 O838 1.254 . S
H842 C815 0.949 . S
H843 C817 0.950 . S
H844 C824 0.949 . S
H845 C826 0.950 . S
C846 O862 1.251 . S
C846 O864 1.254 . S
N847 C848 1.333 . S
N847 C852 1.307 . S
N847 Zn853 2.020 . S
C848 N847 1.333 . S
C848 C849 1.379 . S
C848 H866 0.952 . S
C849 C848 1.379 . S
C849 C850 1.390 . S
C849 H876 0.949 . S
C850 C849 1.390 . S
C850 C851 1.357 . S
C851 C850 1.357 . S
C851 C852 1.370 . S
C851 H877 0.950 . S
C852 N847 1.307 . S
C852 C851 1.370 . S
C852 H870 0.948 . S
Zn853 N847 2.020 . S
Zn853 O862 2.039 . S
Zn853 O868 2.034 . S
Zn853 O872 2.025 . S
Zn853 O874 2.024 . S
C854 O873 1.246 . S
C854 O874 1.249 1_655 S
N855 C856 1.307 . S
N855 C857 1.333 1_554 S
N855 Zn861 2.020 . S
C856 N855 1.307 . S
C856 C860 1.370 . S
C856 H867 0.948 . S
C857 N855 1.333 1_556 S
C857 C858 1.379 1_455 S
C857 H865 0.952 . S
C858 C857 1.379 1_655 S
C858 C859 1.390 . S
C858 H878 0.949 . S
C859 C858 1.390 . S
C859 C860 1.357 1_656 S
C860 C856 1.370 . S
C860 C859 1.357 1_454 S
C860 H879 0.950 . S
Zn861 N855 2.020 . S
Zn861 O864 2.025 . S
Zn861 O869 2.024 . S
Zn861 O871 2.039 1_554 S
Zn861 O873 2.034 1_455 S
O862 C846 1.251 . S
O862 Zn853 2.039 . S
C863 O868 1.246 . S
C863 O869 1.249 . S
O864 C846 1.254 . S
O864 Zn861 2.025 . S
H865 C857 0.952 . S
H866 C848 0.952 . S
H867 C856 0.948 . S
O868 Zn853 2.034 . S
O868 C863 1.246 . S
O869 Zn861 2.024 . S
O869 C863 1.249 . S
H870 C852 0.948 . S
O871 Zn861 2.039 1_556 S
O871 C875 1.251 . S
O872 Zn853 2.025 . S
O872 C875 1.254 1_554 S
O873 C854 1.246 . S
O873 Zn861 2.034 1_655 S
O874 Zn853 2.024 . S
O874 C854 1.249 1_455 S
C875 O871 1.251 . S
C875 O872 1.254 1_556 S
H876 C849 0.949 . S
H877 C851 0.950 . S
H878 C858 0.949 . S
H879 C860 0.950 . S
C353 C13 2.600 . S
C25 C399 2.499 . S
C39 C408 0.666 . S
C446 C50 2.371 . S
C21 C480 2.024 . S
C510 C35 0.748 . S
C569 C55 1.955 1_554 S
C8 C582 2.472 . S
C69 C365 2.413 1_545 S
C77 C383 1.671 . S
C404 C97 2.526 1_545 S
C442 C105 2.437 . S
C63 C476 1.775 . S
C506 C83 2.533 . S
C553 C91 1.772 1_565 S
C578 C111 1.288 . S
C349 C106 1.737 . S
C608 C123 2.186 . S
C134 C650 2.762 . S
C693 C151 1.104 . S
C64 C574 2.415 . S
C412 C78 2.798 . S
C137 C710 1.784 . S
C761 C165 1.979 . S
C175 C344 2.489 1_656 S
C744 C193 2.382 . S
C209 C417 0.573 . S
C223 C727 1.807 . S
C489 C195 1.708 . S
C655 C207 0.594 . S
C540 C221 1.852 . S
C795 C176 2.406 . S
C336 C231 2.295 1_445 S
C251 C748 1.478 . S
C433 C259 2.678 . S
C279 C723 2.100 . S
C237 C485 1.676 1_455 S
C245 C671 2.588 . S
C544 C265 1.485 . S
C273 C791 1.352 . S
C274 C340 1.192 1_545 S
C291 C637 2.135 . S
C302 C523 2.510 . S
C319 C684 1.248 . S
C807 C232 1.890 . S
C421 C246 2.533 . S
C467 C305 1.801 . S
C378 C333 1.913 . S
C36 C829 2.906 . S
C773 C53 2.487 . S
C850 C7 0.695 . S
C22 C718 2.326 . S
C49 C616 2.091 1_556 S
C646 C11 0.573 . S
C705 C27 1.953 . S
C786 C41 2.582 . S
C841 C167 2.328 . S
C119 C757 1.617 1_554 S
C139 C846 2.584 1_655 S
C714 C147 2.319 . S
C612 C161 1.829 . S
C125 C642 2.487 . S
C689 C133 1.835 . S
C153 C782 1.383 . S
C825 C148 1.787 . S
C472 C81 2.156 . S
C514 C92 2.746 . S
C109 C557 1.011 . S
C778 C162 2.546 . S
C120 C854 2.795 . S
C438 C95 1.791 . S
C387 C67 2.001 . S
C203 C820 2.450 . S
C370 C217 2.684 . S
C859 C181 0.504 . S
C190 C455 2.260 . S
C218 C625 2.299 . S
C179 C519 0.559 . S
C189 C676 2.084 . S
C204 C591 2.265 . S
C812 C329 2.495 . S
C293 C374 1.446 . S
C875 C301 2.699 . S
C321 C451 2.106 . S
C335 C621 1.647 . S
C535 C287 2.623 . S
C307 C680 1.440 . S
C587 C315 1.280 . S
C816 C316 1.157 . S
C501 C249 2.190 . S
C260 C659 2.450 . S
C548 C277 1.059 1_565 S
C603 C330 2.053 . S
C288 C863 2.575 . S
C739 C263 1.819 . S
C752 C235 1.995 . S
