# Generated by pormake.
# Topology ctn, (3,4)-cn, num edge types: 1
# Building blocks:
#     Node 0, Type 0, BuildingBlock: OLANEW_clean_sbu_2, # of connection points: 3
#     Node 1, Type 0, BuildingBlock: OLANEW_clean_sbu_2, # of connection points: 3
#     Node 2, Type 0, BuildingBlock: OLANEW_clean_sbu_2, # of connection points: 3
#     Node 3, Type 0, BuildingBlock: OLANEW_clean_sbu_2, # of connection points: 3
#     Node 4, Type 0, BuildingBlock: OLANEW_clean_sbu_2, # of connection points: 3
#     Node 5, Type 0, BuildingBlock: OLANEW_clean_sbu_2, # of connection points: 3
#     Node 6, Type 0, BuildingBlock: OLANEW_clean_sbu_2, # of connection points: 3
#     Node 7, Type 0, BuildingBlock: OLANEW_clean_sbu_2, # of connection points: 3
#     Node 8, Type 0, BuildingBlock: OLANEW_clean_sbu_2, # of connection points: 3
#     Node 9, Type 0, BuildingBlock: OLANEW_clean_sbu_2, # of connection points: 3
#     Node 10, Type 0, BuildingBlock: OLANEW_clean_sbu_2, # of connection points: 3
#     Node 11, Type 0, BuildingBlock: OLANEW_clean_sbu_2, # of connection points: 3
#     Node 12, Type 0, BuildingBlock: OLANEW_clean_sbu_2, # of connection points: 3
#     Node 13, Type 0, BuildingBlock: OLANEW_clean_sbu_2, # of connection points: 3
#     Node 14, Type 0, BuildingBlock: OLANEW_clean_sbu_2, # of connection points: 3
#     Node 15, Type 0, BuildingBlock: OLANEW_clean_sbu_2, # of connection points: 3
#     Node 16, Type 1, BuildingBlock: QUQFOY_clean_sbu_1, # of connection points: 4
#     Node 17, Type 1, BuildingBlock: QUQFOY_clean_sbu_1, # of connection points: 4
#     Node 18, Type 1, BuildingBlock: QUQFOY_clean_sbu_1, # of connection points: 4
#     Node 19, Type 1, BuildingBlock: QUQFOY_clean_sbu_1, # of connection points: 4
#     Node 20, Type 1, BuildingBlock: QUQFOY_clean_sbu_1, # of connection points: 4
#     Node 21, Type 1, BuildingBlock: QUQFOY_clean_sbu_1, # of connection points: 4
#     Node 22, Type 1, BuildingBlock: QUQFOY_clean_sbu_1, # of connection points: 4
#     Node 23, Type 1, BuildingBlock: QUQFOY_clean_sbu_1, # of connection points: 4
#     Node 24, Type 1, BuildingBlock: QUQFOY_clean_sbu_1, # of connection points: 4
#     Node 25, Type 1, BuildingBlock: QUQFOY_clean_sbu_1, # of connection points: 4
#     Node 26, Type 1, BuildingBlock: QUQFOY_clean_sbu_1, # of connection points: 4
#     Node 27, Type 1, BuildingBlock: QUQFOY_clean_sbu_1, # of connection points: 4
#     Edge 28, Type (0, 1), None
#     Edge 29, Type (0, 1), None
#     Edge 30, Type (0, 1), None
#     Edge 31, Type (0, 1), None
#     Edge 32, Type (0, 1), None
#     Edge 33, Type (0, 1), None
#     Edge 34, Type (0, 1), None
#     Edge 35, Type (0, 1), None
#     Edge 36, Type (0, 1), None
#     Edge 37, Type (0, 1), None
#     Edge 38, Type (0, 1), None
#     Edge 39, Type (0, 1), None
#     Edge 40, Type (0, 1), None
#     Edge 41, Type (0, 1), None
#     Edge 42, Type (0, 1), None
#     Edge 43, Type (0, 1), None
#     Edge 44, Type (0, 1), None
#     Edge 45, Type (0, 1), None
#     Edge 46, Type (0, 1), None
#     Edge 47, Type (0, 1), None
#     Edge 48, Type (0, 1), None
#     Edge 49, Type (0, 1), None
#     Edge 50, Type (0, 1), None
#     Edge 51, Type (0, 1), None
#     Edge 52, Type (0, 1), None
#     Edge 53, Type (0, 1), None
#     Edge 54, Type (0, 1), None
#     Edge 55, Type (0, 1), None
#     Edge 56, Type (0, 1), None
#     Edge 57, Type (0, 1), None
#     Edge 58, Type (0, 1), None
#     Edge 59, Type (0, 1), None
#     Edge 60, Type (0, 1), None
#     Edge 61, Type (0, 1), None
#     Edge 62, Type (0, 1), None
#     Edge 63, Type (0, 1), None
#     Edge 64, Type (0, 1), None
#     Edge 65, Type (0, 1), None
#     Edge 66, Type (0, 1), None
#     Edge 67, Type (0, 1), None
#     Edge 68, Type (0, 1), None
#     Edge 69, Type (0, 1), None
#     Edge 70, Type (0, 1), None
#     Edge 71, Type (0, 1), None
#     Edge 72, Type (0, 1), None
#     Edge 73, Type (0, 1), None
#     Edge 74, Type (0, 1), None
#     Edge 75, Type (0, 1), None
# Relax obj value: 0.101
# Max RMSD: 0.205
# Mean RMSD: 0.116
data_MOF--net-ctn--node1-OLANEW_clean_sbu_2--node2-QUQFOY_clean_sbu_1--edge1-none
_symmetry_space_group_name_H-M    P1
_symmetry_Int_Tables_number       1
_symmetry_cell_setting            triclinic
loop_
_symmetry_equiv_pos_as_xyz
'x, y, z'
_cell_length_a     27.894444
_cell_length_b     27.993103
_cell_length_c     25.944889
_cell_angle_alpha  93.809222
_cell_angle_beta   93.337239
_cell_angle_gamma 100.75787
loop_
_atom_site_label
_atom_site_type_symbol
_atom_site_fract_x
_atom_site_fract_y
_atom_site_fract_z
_atom_type_partial_charge
O0 O 0.01182 0.09536 0.03844 0.0
Cd1 Cd 0.02057 0.01928 0.0802 0.0
O2 O 0.0861 0.13916 0.0537 0.0
Cd3 Cd 0.09692 0.0894 0.11216 0.0
O4 O 0.07265 0.05761 0.183 0.0
C5 C 0.03739 0.07277 0.20349 0.0
O6 O 0.01782 0.10642 0.18194 0.0
C7 C 0.04314 0.13358 0.0323 0.0
C8 C 0.09265 0.96704 0.04994 0.0
O9 O 0.09844 0.99356 0.09279 0.0
O10 O 0.05368 0.9658 0.02081 0.0
O11 O 0.40317 0.79176 0.30962 0.0
Cd12 Cd 0.33004 0.77815 0.24796 0.0
O13 O 0.37472 0.72434 0.34644 0.0
Cd14 Cd 0.30235 0.70871 0.30708 0.0
O15 O 0.22701 0.67116 0.30704 0.0
C16 C 0.21471 0.64996 0.34741 0.0
O17 O 0.2471 0.65242 0.38679 0.0
C18 C 0.4086 0.76073 0.34226 0.0
C19 C 0.31907 0.84399 0.17287 0.0
O20 O 0.2942 0.84294 0.21291 0.0
O21 O 0.35033 0.81592 0.16945 0.0
O22 O 0.02477 0.63921 0.13824 0.0
Cd23 Cd 0.00346 0.6586 0.05076 0.0
O24 O 0.02247 0.56224 0.11448 0.0
Cd25 Cd 0.03063 0.487 0.12162 0.0
O26 O 0.04005 0.42377 0.07249 0.0
C27 C 0.01876 0.37992 0.07558 0.0
O28 O 0.98973 0.36888 0.11285 0.0
C29 C 0.02891 0.59677 0.14992 0.0
C30 C 0.90311 0.65299 0.03918 0.0
O31 O 0.92224 0.61779 0.02108 0.0
O32 O 0.93128 0.69096 0.06163 0.0
O33 O 0.8802 0.86254 0.30674 0.0
Cd34 Cd 0.83066 0.78075 0.30552 0.0
O35 O 0.82663 0.8922 0.35219 0.0
Cd36 Cd 0.77362 0.82483 0.35524 0.0
O37 O 0.69984 0.79906 0.37755 0.0
C38 C 0.67332 0.83097 0.37284 0.0
O39 O 0.69163 0.87229 0.35388 0.0
C40 C 0.86653 0.89845 0.33012 0.0
C41 C 0.77753 0.74852 0.21167 0.0
O42 O 0.7586 0.77119 0.24732 0.0
O43 O 0.82142 0.74181 0.22004 0.0
O44 O 0.18362 0.99956 0.60102 0.0
Cd45 Cd 0.14808 0.91409 0.61106 0.0
O46 O 0.11498 0.02583 0.60919 0.0
Cd47 Cd 0.06931 0.07896 0.59414 0.0
O48 O 0.02461 0.08497 0.52469 0.0
C49 C 0.04135 0.07044 0.48319 0.0
O50 O 0.08413 0.05717 0.48541 0.0
C51 C 0.15983 0.03398 0.59994 0.0
C52 C 0.05711 0.88457 0.65047 0.0
O53 O 0.09682 0.89034 0.67959 0.0
O54 O 0.0599 0.89583 0.60351 0.0
O55 O 0.27501 0.77579 0.9126 0.0
Cd56 Cd 0.26691 0.70968 0.84399 0.0
O57 O 0.19624 0.75202 0.9161 0.0
Cd58 Cd 0.1222 0.75332 0.93716 0.0
O59 O 0.05165 0.73401 0.89344 0.0
C60 C 0.04509 0.76306 0.85938 0.0
O61 O 0.07777 0.8031 0.85704 0.0
C62 C 0.23532 0.78183 0.93146 0.0
C63 C 0.33154 0.64623 0.85675 0.0
O64 O 0.34107 0.68102 0.82702 0.0
O65 O 0.29225 0.64197 0.88067 0.0
O66 O 0.92104 0.59549 0.37489 0.0
Cd67 Cd 0.85346 0.61416 0.4229 0.0
O68 O 0.94876 0.59088 0.45401 0.0
Cd69 Cd -0.00621 0.5903 0.52524 0.0
O70 O 0.9862 0.63077 0.59863 0.0
C71 C 0.96131 0.66416 0.59382 0.0
O72 O 0.94394 0.67145 0.54746 0.0
C73 C 0.95518 0.58795 0.40593 0.0
C74 C 0.81025 0.53169 0.46913 0.0
O75 O 0.79318 0.54233 0.42533 0.0
O76 O 0.84763 0.56044 0.49207 0.0
O77 O 0.72612 0.74127 0.8966 0.0
Cd78 Cd 0.72574 0.78076 0.8147 0.0
O79 O 0.66954 0.77025 0.93867 0.0
Cd80 Cd 0.6507 0.81994 0.88248 0.0
O81 O 0.62551 0.88693 0.86427 0.0
C82 C 0.62192 0.91535 0.90355 0.0
O83 O 0.6331 0.90279 0.94997 0.0
C84 C 0.70118 0.74301 0.936 0.0
C85 C 0.81329 0.77667 0.76802 0.0
O86 O 0.80627 0.81706 0.78953 0.0
O87 O 0.7792 0.73905 0.76777 0.0
O88 O 0.22612 0.24127 0.3966 0.0
Cd89 Cd 0.22574 0.28076 0.3147 0.0
O90 O 0.16954 0.27025 0.43867 0.0
Cd91 Cd 0.1507 0.31994 0.38248 0.0
O92 O 0.12551 0.38693 0.36427 0.0
C93 C 0.12192 0.41535 0.40355 0.0
O94 O 0.1331 0.40279 0.44997 0.0
C95 C 0.20118 0.24301 0.436 0.0
C96 C 0.31329 0.27667 0.26802 0.0
O97 O 0.30627 0.31706 0.28954 0.0
O98 O 0.27921 0.23905 0.26777 0.0
O99 O 0.52477 0.13921 0.63824 0.0
Cd100 Cd 0.50346 0.1586 0.55076 0.0
O101 O 0.52247 0.06224 0.61448 0.0
Cd102 Cd 0.53063 0.987 0.62162 0.0
O103 O 0.54005 0.92377 0.57249 0.0
C104 C 0.51876 0.87992 0.57558 0.0
O105 O 0.48973 0.86887 0.61285 0.0
C106 C 0.52891 0.09677 0.64992 0.0
C107 C 0.40311 0.15299 0.53918 0.0
O108 O 0.42224 0.11778 0.52108 0.0
O109 O 0.43128 0.19096 0.56163 0.0
O110 O 0.3802 0.36254 0.80674 0.0
Cd111 Cd 0.33066 0.28075 0.80552 0.0
O112 O 0.32663 0.3922 0.85219 0.0
Cd113 Cd 0.27362 0.32483 0.85524 0.0
O114 O 0.19984 0.29906 0.87755 0.0
C115 C 0.17332 0.33097 0.87284 0.0
O116 O 0.19163 0.37229 0.85388 0.0
C117 C 0.36653 0.39845 0.83012 0.0
C118 C 0.27753 0.24852 0.71167 0.0
O119 O 0.2586 0.27119 0.74732 0.0
O120 O 0.32142 0.24181 0.72004 0.0
O121 O 0.90317 0.29176 0.80962 0.0
Cd122 Cd 0.83004 0.27815 0.74796 0.0
O123 O 0.87472 0.22434 0.84644 0.0
Cd124 Cd 0.80235 0.20871 0.80708 0.0
O125 O 0.72701 0.17117 0.80704 0.0
C126 C 0.71471 0.14996 0.84741 0.0
O127 O 0.7471 0.15242 0.88679 0.0
C128 C 0.9086 0.26073 0.84226 0.0
C129 C 0.81907 0.34399 0.67287 0.0
O130 O 0.7942 0.34294 0.71291 0.0
O131 O 0.85033 0.31592 0.66945 0.0
O132 O 0.51182 0.59536 0.53844 0.0
Cd133 Cd 0.52057 0.51928 0.5802 0.0
O134 O 0.5861 0.63915 0.5537 0.0
Cd135 Cd 0.59692 0.5894 0.61216 0.0
O136 O 0.57265 0.55761 0.683 0.0
C137 C 0.53739 0.57277 0.70349 0.0
O138 O 0.51782 0.60642 0.68194 0.0
C139 C 0.54314 0.63358 0.53229 0.0
C140 C 0.59265 0.46704 0.54994 0.0
O141 O 0.59844 0.49356 0.59279 0.0
O142 O 0.55368 0.4658 0.5208 0.0
O143 O 0.68362 0.49956 0.10102 0.0
Cd144 Cd 0.64808 0.41409 0.11106 0.0
O145 O 0.61498 0.52584 0.10919 0.0
Cd146 Cd 0.56931 0.57897 0.09414 0.0
O147 O 0.52461 0.58497 0.02469 0.0
C148 C 0.54135 0.57044 0.98319 0.0
O149 O 0.58413 0.55717 0.98541 0.0
C150 C 0.65983 0.53399 0.09994 0.0
C151 C 0.55711 0.38457 0.15047 0.0
O152 O 0.59682 0.39034 0.17959 0.0
O153 O 0.5599 0.39583 0.10351 0.0
O154 O 0.77501 0.27579 0.4126 0.0
Cd155 Cd 0.76692 0.20968 0.34399 0.0
O156 O 0.69624 0.25202 0.4161 0.0
Cd157 Cd 0.6222 0.25332 0.43715 0.0
O158 O 0.55165 0.23401 0.39344 0.0
C159 C 0.54509 0.26306 0.35938 0.0
O160 O 0.57777 0.3031 0.35704 0.0
C161 C 0.73533 0.28183 0.43146 0.0
C162 C 0.83154 0.14623 0.35675 0.0
O163 O 0.84107 0.18102 0.32702 0.0
O164 O 0.79225 0.14197 0.38067 0.0
O165 O 0.42104 0.09549 0.87489 0.0
Cd166 Cd 0.35345 0.11416 0.9229 0.0
O167 O 0.44876 0.09088 0.95402 0.0
Cd168 Cd 0.49379 0.0903 0.02524 0.0
O169 O 0.4862 0.13077 0.09863 0.0
C170 C 0.46131 0.16417 0.09382 0.0
O171 O 0.44394 0.17146 0.04746 0.0
C172 C 0.45518 0.08795 0.90593 0.0
C173 C 0.31025 0.03169 0.96913 0.0
O174 O 0.29318 0.04233 0.92533 0.0
O175 O 0.34763 0.06043 0.99207 0.0
O176 O 0.27558 0.84715 0.98958 0.0
Cd177 Cd 0.28658 0.90075 0.04994 0.0
Cd178 Cd 0.19804 0.91126 1.00314 0.0
O179 O 0.19571 0.83967 0.97488 0.0
O180 O 0.33957 0.88108 0.09448 0.0
O181 O 0.26553 0.88238 0.1203 0.0
C182 C 0.30834 0.87191 0.12892 0.0
C183 C 0.13122 0.94145 0.03301 0.0
C184 C 0.2351 0.82418 0.96795 0.0
C185 C 0.28717 0.98736 0.99184 0.0
O186 O 0.24617 0.96432 0.97144 0.0
O187 O 0.30819 0.97178 0.03041 0.0
O188 O 0.13253 0.92765 0.98482 0.0
O189 O 0.16616 0.93488 0.0651 0.0
O190 O 0.15573 0.59448 0.38633 0.0
Cd191 Cd 0.09453 0.54165 0.39003 0.0
Cd192 Cd 0.06447 0.5824 0.29096 0.0
O193 O 0.13584 0.61745 0.30925 0.0
O194 O 0.11346 0.49442 0.43757 0.0
O195 O 0.09481 0.47606 0.35337 0.0
C196 C 0.1091 0.46331 0.39783 0.0
C197 C 0.04186 0.58946 0.20396 0.0
C198 C 0.16604 0.61968 0.3482 0.0
C199 C 0.00087 0.57841 0.38582 0.0
O200 O 0.00854 0.58682 0.33916 0.0
O201 O 0.03107 0.56103 0.41407 0.0
O202 O 0.04751 0.62575 0.23812 0.0
O203 O 0.04815 0.54787 0.21888 0.0
O204 O 0.69373 0.72392 0.02331 0.0
Cd205 Cd 0.70344 0.68922 0.08991 0.0
Cd206 Cd 0.76562 0.64437 0.03116 0.0
O207 O 0.73768 0.68303 0.97486 0.0
O208 O 0.70357 0.73132 0.15567 0.0
O209 O 0.76846 0.70431 0.12875 0.0
C210 C 0.74902 0.72813 0.16341 0.0
C211 C 0.8501 0.64963 0.03564 0.0
C212 C 0.71071 0.71478 0.98004 0.0
C213 C 0.68392 0.58189 0.08506 0.0
O214 O 0.7235 0.58521 0.06232 0.0
O215 O 0.66598 0.61947 0.09608 0.0
O216 O 0.82212 0.6189 1.00251 0.0
O217 O 0.8303 0.67712 0.06627 0.0
O218 O 0.02587 0.04201 0.39499 0.0
Cd219 Cd 0.98782 0.01992 0.32432 0.0
Cd220 Cd 0.91405 0.05422 0.37422 0.0
O221 O 0.96718 0.06978 0.43439 0.0
O222 O 0.03617 0.01836 0.27095 0.0
O223 O 0.98292 0.06834 0.27203 0.0
C224 C 0.01823 0.05256 0.25047 0.0
C225 C 0.86431 0.11154 0.36331 0.0
C226 C 0.0104 0.06152 0.43478 0.0
C227 C 0.89721 0.9473 0.33405 0.0
O228 O 0.88126 0.98225 0.35661 0.0
O229 O 0.93961 0.95394 0.31726 0.0
O230 O 0.85903 0.08292 0.40021 0.0
O231 O 0.89817 0.10802 0.33219 0.0
O232 O 0.19373 0.22392 0.52331 0.0
Cd233 Cd 0.20344 0.18922 0.58991 0.0
Cd234 Cd 0.26562 0.14437 0.53116 0.0
O235 O 0.23768 0.18303 0.47486 0.0
O236 O 0.20357 0.23132 0.65567 0.0
O237 O 0.26846 0.2043 0.62875 0.0
C238 C 0.24902 0.22813 0.66341 0.0
C239 C 0.3501 0.14963 0.53564 0.0
C240 C 0.21071 0.21478 0.48004 0.0
C241 C 0.18392 0.08189 0.58506 0.0
O242 O 0.2235 0.08521 0.56232 0.0
O243 O 0.16598 0.11947 0.59608 0.0
O244 O 0.32212 0.1189 0.50251 0.0
O245 O 0.3303 0.17712 0.56627 0.0
O246 O 0.52587 0.54201 0.89499 0.0
Cd247 Cd 0.48782 0.51992 0.82432 0.0
Cd248 Cd 0.41405 0.55422 0.87422 0.0
O249 O 0.46718 0.56978 0.93439 0.0
O250 O 0.53617 0.51836 0.77095 0.0
O251 O 0.48292 0.56834 0.77203 0.0
C252 C 0.51823 0.55256 0.75047 0.0
C253 C 0.3643 0.61154 0.86331 0.0
C254 C 0.5104 0.56152 0.93478 0.0
C255 C 0.39721 0.4473 0.83405 0.0
O256 O 0.38126 0.48224 0.85661 0.0
O257 O 0.43961 0.45394 0.81726 0.0
O258 O 0.35903 0.58292 0.90021 0.0
O259 O 0.39817 0.60802 0.83219 0.0
O260 O 0.77558 0.34715 0.48958 0.0
Cd261 Cd 0.78658 0.40075 0.54994 0.0
Cd262 Cd 0.69805 0.41126 0.50314 0.0
O263 O 0.69571 0.33967 0.47488 0.0
O264 O 0.83957 0.38108 0.59448 0.0
O265 O 0.76553 0.38238 0.6203 0.0
C266 C 0.80834 0.37191 0.62892 0.0
C267 C 0.63122 0.44145 0.53301 0.0
C268 C 0.7351 0.32418 0.46795 0.0
C269 C 0.78717 0.48736 0.49184 0.0
O270 O 0.74617 0.46432 0.47144 0.0
O271 O 0.80819 0.47178 0.53041 0.0
O272 O 0.63253 0.42765 0.48482 0.0
O273 O 0.66616 0.43488 0.5651 0.0
O274 O 0.65573 0.09448 0.88633 0.0
Cd275 Cd 0.59453 0.04165 0.89003 0.0
Cd276 Cd 0.56447 0.0824 0.79096 0.0
O277 O 0.63584 0.11745 0.80925 0.0
O278 O 0.61346 0.99442 0.93757 0.0
O279 O 0.59481 0.97606 0.85337 0.0
C280 C 0.6091 0.96331 0.89783 0.0
C281 C 0.54186 0.08946 0.70396 0.0
C282 C 0.66604 0.11968 0.8482 0.0
C283 C 0.50087 0.07841 0.88583 0.0
O284 O 0.50854 0.08682 0.83916 0.0
O285 O 0.53107 0.06103 0.91407 0.0
O286 O 0.54751 0.12575 0.73812 0.0
O287 O 0.54815 0.04787 0.71888 0.0
O288 O 0.00088 0.29938 0.03476 0.0
Cd289 Cd 0.0025 0.24393 0.97821 0.0
Cd290 Cd 0.04871 0.31788 0.92583 0.0
O291 O 0.04516 0.35744 0.99454 0.0
O292 O 0.98316 0.18119 0.01109 0.0
O293 O 0.05748 0.20628 0.98585 0.0
C294 C 0.02727 0.1743 0.00751 0.0
C295 C 0.12443 0.32432 0.892 0.0
C296 C 0.02246 0.34344 0.03353 0.0
C297 C 0.95231 0.26768 0.87832 0.0
O298 O 0.9869 0.30375 0.87587 0.0
O299 O 0.95352 0.23856 0.91384 0.0
O300 O 0.09957 0.3586 0.88901 0.0
O301 O 0.10607 0.28557 0.91387 0.0
O302 O 0.50088 0.79938 0.53476 0.0
Cd303 Cd 0.5025 0.74393 0.47821 0.0
Cd304 Cd 0.54871 0.81788 0.42583 0.0
O305 O 0.54516 0.85744 0.49454 0.0
O306 O 0.48316 0.68119 0.51109 0.0
O307 O 0.55748 0.70628 0.48585 0.0
C308 C 0.52727 0.6743 0.50751 0.0
C309 C 0.62443 0.82432 0.392 0.0
C310 C 0.52246 0.84344 0.53353 0.0
C311 C 0.45231 0.76768 0.37832 0.0
O312 O 0.4869 0.80375 0.37587 0.0
O313 O 0.45352 0.73856 0.41384 0.0
O314 O 0.59957 0.8586 0.38901 0.0
O315 O 0.60607 0.78557 0.41387 0.0
O316 O 0.87742 0.73396 0.75627 0.0
Cd317 Cd 0.94872 0.72641 0.74845 0.0
Cd318 Cd 0.94438 0.79674 0.68178 0.0
O319 O 0.88449 0.80597 0.72388 0.0
O320 O 0.97838 0.70624 0.81393 0.0
O321 O 6e-05 0.77886 0.78373 0.0
C322 C 0.00572 0.74918 0.81842 0.0
C323 C 0.01137 0.85703 0.66737 0.0
C324 C 0.86051 0.7721 0.74797 0.0
C325 C 0.95463 0.69682 0.63839 0.0
O326 O 0.93903 0.73574 0.6303 0.0
O327 O 0.9657 0.68707 0.68415 0.0
O328 O 0.97034 0.85324 0.64025 0.0
O329 O 0.01296 0.82963 0.70512 0.0
O330 O 0.37742 0.23396 0.25627 0.0
Cd331 Cd 0.44872 0.22641 0.24845 0.0
Cd332 Cd 0.44438 0.29674 0.18178 0.0
O333 O 0.38449 0.30597 0.22388 0.0
O334 O 0.47839 0.20624 0.31393 0.0
O335 O 0.50006 0.27886 0.28373 0.0
C336 C 0.50572 0.24918 0.31842 0.0
C337 C 0.51137 0.35703 0.16737 0.0
C338 C 0.36051 0.2721 0.24797 0.0
C339 C 0.45463 0.19682 0.13839 0.0
O340 O 0.43903 0.23574 0.1303 0.0
O341 O 0.4657 0.18707 0.18415 0.0
O342 O 0.47034 0.35324 0.14025 0.0
O343 O 0.51296 0.32964 0.20512 0.0
loop_
_geom_bond_atom_site_label_1
_geom_bond_atom_site_label_2
_geom_bond_distance
_geom_bond_site_symmetry_2
_ccdc_geom_bond_type
O0 Cd1 2.300 . S
O0 C7 1.275 . S
Cd1 O0 2.300 . S
Cd1 O9 2.381 . S
Cd1 O10 2.378 . S
O2 Cd3 2.385 . S
O2 C7 1.255 . S
Cd3 O2 2.385 . S
Cd3 O4 2.317 . S
O4 Cd3 2.317 . S
O4 C5 1.232 . S
C5 O4 1.232 . S
C5 O6 1.218 . S
O6 C5 1.218 . S
C7 O0 1.275 . S
C7 O2 1.255 . S
C8 O9 1.258 . S
C8 O10 1.256 . S
O9 Cd1 2.381 . S
O9 C8 1.258 . S
O10 Cd1 2.378 . S
O10 C8 1.256 . S
O11 Cd12 2.300 . S
O11 C18 1.275 . S
Cd12 O11 2.300 . S
Cd12 O20 2.381 . S
Cd12 O21 2.378 . S
O13 Cd14 2.385 . S
O13 C18 1.255 . S
Cd14 O13 2.385 . S
Cd14 O15 2.317 . S
O15 Cd14 2.317 . S
O15 C16 1.232 . S
C16 O15 1.232 . S
C16 O17 1.218 . S
O17 C16 1.218 . S
C18 O11 1.275 . S
C18 O13 1.255 . S
C19 O20 1.258 . S
C19 O21 1.256 . S
O20 Cd12 2.381 . S
O20 C19 1.258 . S
O21 Cd12 2.378 . S
O21 C19 1.256 . S
O22 Cd23 2.300 . S
O22 C29 1.275 . S
Cd23 O22 2.300 . S
Cd23 O31 2.381 . S
Cd23 O32 2.378 . S
O24 Cd25 2.385 1_655 S
O24 C29 1.255 . S
Cd25 O24 2.385 1_455 S
Cd25 O26 2.317 1_455 S
O26 Cd25 2.317 1_655 S
O26 C27 1.232 . S
C27 O26 1.232 . S
C27 O28 1.218 1_655 S
O28 C27 1.218 1_455 S
C29 O22 1.275 . S
C29 O24 1.255 . S
C30 O31 1.258 . S
C30 O32 1.256 . S
O31 Cd23 2.381 . S
O31 C30 1.258 . S
O32 Cd23 2.378 . S
O32 C30 1.256 . S
O33 Cd34 2.300 . S
O33 C40 1.275 . S
Cd34 O33 2.300 . S
Cd34 O42 2.381 . S
Cd34 O43 2.378 . S
O35 Cd36 2.385 . S
O35 C40 1.255 . S
Cd36 O35 2.385 . S
Cd36 O37 2.317 . S
O37 Cd36 2.317 . S
O37 C38 1.232 . S
C38 O37 1.232 . S
C38 O39 1.218 . S
O39 C38 1.218 . S
C40 O33 1.275 . S
C40 O35 1.255 . S
C41 O42 1.258 . S
C41 O43 1.256 . S
O42 Cd34 2.381 . S
O42 C41 1.258 . S
O43 Cd34 2.378 . S
O43 C41 1.256 . S
O44 Cd45 2.300 . S
O44 C51 1.275 1_565 S
Cd45 O44 2.300 . S
Cd45 O53 2.381 . S
Cd45 O54 2.378 . S
O46 Cd47 2.385 . S
O46 C51 1.255 . S
Cd47 O46 2.385 . S
Cd47 O48 2.317 . S
O48 Cd47 2.317 . S
O48 C49 1.232 . S
C49 O48 1.232 . S
C49 O50 1.218 . S
O50 C49 1.218 . S
C51 O44 1.275 1_545 S
C51 O46 1.255 . S
C52 O53 1.258 . S
C52 O54 1.256 . S
O53 Cd45 2.381 . S
O53 C52 1.258 . S
O54 Cd45 2.378 . S
O54 C52 1.256 . S
O55 Cd56 2.300 . S
O55 C62 1.275 . S
Cd56 O55 2.300 . S
Cd56 O64 2.381 . S
Cd56 O65 2.378 . S
O57 Cd58 2.385 . S
O57 C62 1.255 . S
Cd58 O57 2.385 . S
Cd58 O59 2.317 . S
O59 Cd58 2.317 . S
O59 C60 1.232 . S
C60 O59 1.232 . S
C60 O61 1.218 . S
O61 C60 1.218 . S
C62 O55 1.275 . S
C62 O57 1.255 . S
C63 O64 1.258 . S
C63 O65 1.256 . S
O64 Cd56 2.381 . S
O64 C63 1.258 . S
O65 Cd56 2.378 . S
O65 C63 1.256 . S
O66 Cd67 2.300 . S
O66 C73 1.275 . S
Cd67 O66 2.300 . S
Cd67 O75 2.381 . S
Cd67 O76 2.378 . S
O68 Cd69 2.385 . S
O68 C73 1.255 1_455 S
Cd69 O68 2.385 . S
Cd69 O70 2.317 1_455 S
O70 Cd69 2.317 1_655 S
O70 C71 1.232 1_655 S
C71 O70 1.232 1_455 S
C71 O72 1.218 . S
O72 C71 1.218 . S
C73 O66 1.275 . S
C73 O68 1.255 1_655 S
C74 O75 1.258 . S
C74 O76 1.256 . S
O75 Cd67 2.381 . S
O75 C74 1.258 . S
O76 Cd67 2.378 . S
O76 C74 1.256 . S
O77 Cd78 2.300 . S
O77 C84 1.275 . S
Cd78 O77 2.300 . S
Cd78 O86 2.381 . S
Cd78 O87 2.378 . S
O79 Cd80 2.385 . S
O79 C84 1.255 . S
Cd80 O79 2.385 . S
Cd80 O81 2.317 . S
O81 Cd80 2.317 . S
O81 C82 1.232 . S
C82 O81 1.232 . S
C82 O83 1.218 . S
O83 C82 1.218 . S
C84 O77 1.275 . S
C84 O79 1.255 . S
C85 O86 1.258 . S
C85 O87 1.256 . S
O86 Cd78 2.381 . S
O86 C85 1.258 . S
O87 Cd78 2.378 . S
O87 C85 1.256 . S
O88 Cd89 2.300 . S
O88 C95 1.275 . S
Cd89 O88 2.300 . S
Cd89 O97 2.381 . S
Cd89 O98 2.378 . S
O90 Cd91 2.385 . S
O90 C95 1.255 . S
Cd91 O90 2.385 . S
Cd91 O92 2.317 . S
O92 Cd91 2.317 . S
O92 C93 1.232 . S
C93 O92 1.232 . S
C93 O94 1.218 . S
O94 C93 1.218 . S
C95 O88 1.275 . S
C95 O90 1.255 . S
C96 O97 1.258 . S
C96 O98 1.256 . S
O97 Cd89 2.381 . S
O97 C96 1.258 . S
O98 Cd89 2.378 . S
O98 C96 1.256 . S
O99 Cd100 2.300 . S
O99 C106 1.275 . S
Cd100 O99 2.300 . S
Cd100 O108 2.381 1_565 S
Cd100 O109 2.378 1_565 S
O101 Cd102 2.385 . S
O101 C106 1.255 . S
Cd102 O101 2.385 . S
Cd102 O103 2.317 . S
O103 Cd102 2.317 . S
O103 C104 1.232 . S
C104 O103 1.232 . S
C104 O105 1.218 . S
O105 C104 1.218 . S
C106 O99 1.275 . S
C106 O101 1.255 . S
C107 O108 1.258 . S
C107 O109 1.256 . S
O108 Cd100 2.381 1_545 S
O108 C107 1.258 . S
O109 Cd100 2.378 1_545 S
O109 C107 1.256 . S
O110 Cd111 2.300 . S
O110 C117 1.275 . S
Cd111 O110 2.300 . S
Cd111 O119 2.381 . S
Cd111 O120 2.378 . S
O112 Cd113 2.385 . S
O112 C117 1.255 . S
Cd113 O112 2.385 . S
Cd113 O114 2.317 . S
O114 Cd113 2.317 . S
O114 C115 1.232 . S
C115 O114 1.232 . S
C115 O116 1.218 . S
O116 C115 1.218 . S
C117 O110 1.275 . S
C117 O112 1.255 . S
C118 O119 1.258 . S
C118 O120 1.256 . S
O119 Cd111 2.381 . S
O119 C118 1.258 . S
O120 Cd111 2.378 . S
O120 C118 1.256 . S
O121 Cd122 2.300 . S
O121 C128 1.275 . S
Cd122 O121 2.300 . S
Cd122 O130 2.381 . S
Cd122 O131 2.378 . S
O123 Cd124 2.385 . S
O123 C128 1.255 . S
Cd124 O123 2.385 . S
Cd124 O125 2.317 . S
O125 Cd124 2.317 . S
O125 C126 1.232 . S
C126 O125 1.232 . S
C126 O127 1.218 . S
O127 C126 1.218 . S
C128 O121 1.275 . S
C128 O123 1.255 . S
C129 O130 1.258 . S
C129 O131 1.256 . S
O130 Cd122 2.381 . S
O130 C129 1.258 . S
O131 Cd122 2.378 . S
O131 C129 1.256 . S
O132 Cd133 2.300 . S
O132 C139 1.275 . S
Cd133 O132 2.300 . S
Cd133 O141 2.381 . S
Cd133 O142 2.378 . S
O134 Cd135 2.385 . S
O134 C139 1.255 . S
Cd135 O134 2.385 . S
Cd135 O136 2.317 . S
O136 Cd135 2.317 . S
O136 C137 1.232 . S
C137 O136 1.232 . S
C137 O138 1.218 . S
O138 C137 1.218 . S
C139 O132 1.275 . S
C139 O134 1.255 . S
C140 O141 1.258 . S
C140 O142 1.256 . S
O141 Cd133 2.381 . S
O141 C140 1.258 . S
O142 Cd133 2.378 . S
O142 C140 1.256 . S
O143 Cd144 2.300 . S
O143 C150 1.275 . S
Cd144 O143 2.300 . S
Cd144 O152 2.381 1_556 S
Cd144 O153 2.378 1_556 S
O145 Cd146 2.385 . S
O145 C150 1.255 . S
Cd146 O145 2.385 . S
Cd146 O147 2.317 . S
O147 Cd146 2.317 . S
O147 C148 1.232 . S
C148 O147 1.232 . S
C148 O149 1.218 . S
O149 C148 1.218 . S
C150 O143 1.275 . S
C150 O145 1.255 . S
C151 O152 1.258 . S
C151 O153 1.256 . S
O152 Cd144 2.381 1_554 S
O152 C151 1.258 . S
O153 Cd144 2.378 1_554 S
O153 C151 1.256 . S
O154 Cd155 2.300 . S
O154 C161 1.275 . S
Cd155 O154 2.300 . S
Cd155 O163 2.381 . S
Cd155 O164 2.378 . S
O156 Cd157 2.385 . S
O156 C161 1.255 . S
Cd157 O156 2.385 . S
Cd157 O158 2.317 . S
O158 Cd157 2.317 . S
O158 C159 1.232 . S
C159 O158 1.232 . S
C159 O160 1.218 . S
O160 C159 1.218 . S
C161 O154 1.275 . S
C161 O156 1.255 . S
C162 O163 1.258 . S
C162 O164 1.256 . S
O163 Cd155 2.381 . S
O163 C162 1.258 . S
O164 Cd155 2.378 . S
O164 C162 1.256 . S
O165 Cd166 2.300 . S
O165 C172 1.275 . S
Cd166 O165 2.300 . S
Cd166 O174 2.381 1_545 S
Cd166 O175 2.378 1_556 S
O167 Cd168 2.385 1_556 S
O167 C172 1.255 . S
Cd168 O167 2.385 1_554 S
Cd168 O169 2.317 . S
O169 Cd168 2.317 . S
O169 C170 1.232 . S
C170 O169 1.232 . S
C170 O171 1.218 . S
O171 C170 1.218 . S
C172 O165 1.275 . S
C172 O167 1.255 . S
C173 O174 1.258 . S
C173 O175 1.256 1_566 S
O174 Cd166 2.381 1_565 S
O174 C173 1.258 . S
O175 Cd166 2.378 1_554 S
O175 C173 1.256 1_544 S
O176 Cd177 2.223 . S
O176 C184 1.315 1_554 S
Cd177 O176 2.223 . S
Cd177 O180 2.297 . S
Cd177 O181 2.439 . S
Cd177 O187 2.240 . S
Cd178 O179 2.240 . S
Cd178 O186 2.223 1_554 S
Cd178 O188 2.297 . S
Cd178 O189 2.439 . S
O179 Cd178 2.240 . S
O179 C184 1.279 1_554 S
O180 Cd177 2.297 . S
O180 C182 1.247 . S
O181 Cd177 2.439 . S
O181 C182 1.208 . S
C182 O180 1.247 . S
C182 O181 1.208 . S
C183 O188 1.247 . S
C183 O189 1.208 . S
C184 O176 1.315 1_556 S
C184 O179 1.279 1_556 S
C185 O186 1.315 1_554 S
C185 O187 1.279 . S
O186 Cd178 2.223 1_556 S
O186 C185 1.315 1_556 S
O187 Cd177 2.240 . S
O187 C185 1.279 . S
O188 Cd178 2.297 . S
O188 C183 1.247 . S
O189 Cd178 2.439 . S
O189 C183 1.208 . S
O190 Cd191 2.223 . S
O190 C198 1.315 . S
Cd191 O190 2.223 . S
Cd191 O194 2.297 . S
Cd191 O195 2.439 . S
Cd191 O201 2.240 . S
Cd192 O193 2.240 . S
Cd192 O200 2.223 . S
Cd192 O202 2.297 1_455 S
Cd192 O203 2.439 . S
O193 Cd192 2.240 . S
O193 C198 1.279 . S
O194 Cd191 2.297 . S
O194 C196 1.247 . S
O195 Cd191 2.439 . S
O195 C196 1.208 . S
C196 O194 1.247 . S
C196 O195 1.208 . S
C197 O202 1.252 . S
C197 O203 1.197 1_655 S
C198 O190 1.315 . S
C198 O193 1.279 . S
C199 O200 1.315 . S
C199 O201 1.279 . S
O200 Cd192 2.223 . S
O200 C199 1.315 . S
O201 Cd191 2.240 . S
O201 C199 1.279 . S
O202 Cd192 2.297 1_655 S
O202 C197 1.252 . S
O203 Cd192 2.439 . S
O203 C197 1.197 1_455 S
O204 Cd205 2.223 1_556 S
O204 C212 1.315 . S
Cd205 O204 2.223 1_554 S
Cd205 O208 2.297 . S
Cd205 O209 2.439 . S
Cd205 O215 2.240 . S
Cd206 O207 2.240 . S
Cd206 O214 2.223 . S
Cd206 O216 2.297 1_556 S
Cd206 O217 2.439 1_556 S
O207 Cd206 2.240 . S
O207 C212 1.279 . S
O208 Cd205 2.297 . S
O208 C210 1.247 . S
O209 Cd205 2.439 . S
O209 C210 1.208 . S
C210 O208 1.247 . S
C210 O209 1.208 . S
C211 O216 1.247 . S
C211 O217 1.208 . S
C212 O204 1.315 . S
C212 O207 1.279 . S
C213 O214 1.315 . S
C213 O215 1.279 1_556 S
O214 Cd206 2.223 . S
O214 C213 1.315 . S
O215 Cd205 2.240 . S
O215 C213 1.279 1_554 S
O216 Cd206 2.297 1_554 S
O216 C211 1.247 . S
O217 Cd206 2.439 1_554 S
O217 C211 1.208 . S
O218 Cd219 2.223 1_565 S
O218 C226 1.315 1_565 S
Cd219 O218 2.223 1_545 S
Cd219 O222 2.297 . S
Cd219 O223 2.439 . S
Cd219 O229 2.240 . S
Cd220 O221 2.240 . S
Cd220 O228 2.223 . S
Cd220 O230 2.297 . S
Cd220 O231 2.439 . S
O221 Cd220 2.240 . S
O221 C226 1.279 . S
O222 Cd219 2.297 . S
O222 C224 1.247 . S
O223 Cd219 2.439 . S
O223 C224 1.208 . S
C224 O222 1.247 . S
C224 O223 1.208 . S
C225 O230 1.247 . S
C225 O231 1.208 . S
C226 O218 1.315 1_545 S
C226 O221 1.279 . S
C227 O228 1.315 1_565 S
C227 O229 1.279 1_565 S
O228 Cd220 2.223 . S
O228 C227 1.315 1_545 S
O229 Cd219 2.240 . S
O229 C227 1.279 1_545 S
O230 Cd220 2.297 . S
O230 C225 1.247 . S
O231 Cd220 2.439 . S
O231 C225 1.208 . S
O232 Cd233 2.223 . S
O232 C240 1.315 . S
Cd233 O232 2.223 . S
Cd233 O236 2.297 . S
Cd233 O237 2.439 . S
Cd233 O243 2.240 . S
Cd234 O235 2.240 . S
Cd234 O242 2.223 . S
Cd234 O244 2.297 . S
Cd234 O245 2.439 . S
O235 Cd234 2.240 . S
O235 C240 1.279 . S
O236 Cd233 2.297 . S
O236 C238 1.247 . S
O237 Cd233 2.439 . S
O237 C238 1.208 . S
C238 O236 1.247 . S
C238 O237 1.208 . S
C239 O244 1.247 . S
C239 O245 1.208 . S
C240 O232 1.315 . S
C240 O235 1.279 . S
C241 O242 1.315 . S
C241 O243 1.279 . S
O242 Cd234 2.223 . S
O242 C241 1.315 . S
O243 Cd233 2.240 . S
O243 C241 1.279 . S
O244 Cd234 2.297 . S
O244 C239 1.247 . S
O245 Cd234 2.439 . S
O245 C239 1.208 . S
O246 Cd247 2.223 . S
O246 C254 1.315 . S
Cd247 O246 2.223 . S
Cd247 O250 2.297 . S
Cd247 O251 2.439 . S
Cd247 O257 2.240 . S
Cd248 O249 2.240 . S
Cd248 O256 2.223 . S
Cd248 O258 2.297 . S
Cd248 O259 2.439 . S
O249 Cd248 2.240 . S
O249 C254 1.279 . S
O250 Cd247 2.297 . S
O250 C252 1.247 . S
O251 Cd247 2.439 . S
O251 C252 1.208 . S
C252 O250 1.247 . S
C252 O251 1.208 . S
C253 O258 1.247 . S
C253 O259 1.208 . S
C254 O246 1.315 . S
C254 O249 1.279 . S
C255 O256 1.315 . S
C255 O257 1.279 . S
O256 Cd248 2.223 . S
O256 C255 1.315 . S
O257 Cd247 2.240 . S
O257 C255 1.279 . S
O258 Cd248 2.297 . S
O258 C253 1.247 . S
O259 Cd248 2.439 . S
O259 C253 1.208 . S
O260 Cd261 2.223 . S
O260 C268 1.315 . S
Cd261 O260 2.223 . S
Cd261 O264 2.297 . S
Cd261 O265 2.439 . S
Cd261 O271 2.240 . S
Cd262 O263 2.240 . S
Cd262 O270 2.223 . S
Cd262 O272 2.297 . S
Cd262 O273 2.439 . S
O263 Cd262 2.240 . S
O263 C268 1.279 . S
O264 Cd261 2.297 . S
O264 C266 1.247 . S
O265 Cd261 2.439 . S
O265 C266 1.208 . S
C266 O264 1.247 . S
C266 O265 1.208 . S
C267 O272 1.247 . S
C267 O273 1.208 . S
C268 O260 1.315 . S
C268 O263 1.279 . S
C269 O270 1.315 . S
C269 O271 1.279 . S
O270 Cd262 2.223 . S
O270 C269 1.315 . S
O271 Cd261 2.240 . S
O271 C269 1.279 . S
O272 Cd262 2.297 . S
O272 C267 1.247 . S
O273 Cd262 2.439 . S
O273 C267 1.208 . S
O274 Cd275 2.223 1_545 S
O274 C282 1.315 . S
Cd275 O274 2.223 1_565 S
Cd275 O278 2.297 . S
Cd275 O279 2.439 . S
Cd275 O285 2.240 1_565 S
Cd276 O277 2.240 . S
Cd276 O284 2.223 . S
Cd276 O286 2.297 . S
Cd276 O287 2.439 1_545 S
O277 Cd276 2.240 . S
O277 C282 1.279 . S
O278 Cd275 2.297 . S
O278 C280 1.247 . S
O279 Cd275 2.439 . S
O279 C280 1.208 . S
C280 O278 1.247 . S
C280 O279 1.208 . S
C281 O286 1.247 1_565 S
C281 O287 1.208 . S
C282 O274 1.315 . S
C282 O277 1.279 . S
C283 O284 1.315 . S
C283 O285 1.279 . S
O284 Cd276 2.223 . S
O284 C283 1.315 . S
O285 Cd275 2.240 1_545 S
O285 C283 1.279 . S
O286 Cd276 2.297 . S
O286 C281 1.247 1_545 S
O287 Cd276 2.439 1_565 S
O287 C281 1.208 . S
O288 Cd289 2.223 . S
O288 C296 1.315 . S
Cd289 O288 2.223 . S
Cd289 O292 2.297 1_655 S
Cd289 O293 2.439 1_655 S
Cd289 O299 2.240 1_554 S
Cd290 O291 2.240 1_556 S
Cd290 O298 2.223 1_455 S
Cd290 O300 2.297 . S
Cd290 O301 2.439 . S
O291 Cd290 2.240 1_554 S
O291 C296 1.279 1_455 S
O292 Cd289 2.297 1_455 S
O292 C294 1.247 . S
O293 Cd289 2.439 1_455 S
O293 C294 1.208 . S
C294 O292 1.247 . S
C294 O293 1.208 . S
C295 O300 1.247 . S
C295 O301 1.208 . S
C296 O288 1.315 . S
C296 O291 1.279 1_655 S
C297 O298 1.315 . S
C297 O299 1.279 . S
O298 Cd290 2.223 1_655 S
O298 C297 1.315 . S
O299 Cd289 2.240 1_556 S
O299 C297 1.279 . S
O300 Cd290 2.297 . S
O300 C295 1.247 . S
O301 Cd290 2.439 . S
O301 C295 1.208 . S
O302 Cd303 2.223 . S
O302 C310 1.315 . S
Cd303 O302 2.223 . S
Cd303 O306 2.297 . S
Cd303 O307 2.439 . S
Cd303 O313 2.240 . S
Cd304 O305 2.240 . S
Cd304 O312 2.223 . S
Cd304 O314 2.297 . S
Cd304 O315 2.439 . S
O305 Cd304 2.240 . S
O305 C310 1.279 . S
O306 Cd303 2.297 . S
O306 C308 1.247 . S
O307 Cd303 2.439 . S
O307 C308 1.208 . S
C308 O306 1.247 . S
C308 O307 1.208 . S
C309 O314 1.247 . S
C309 O315 1.208 . S
C310 O302 1.315 . S
C310 O305 1.279 . S
C311 O312 1.315 . S
C311 O313 1.279 . S
O312 Cd304 2.223 . S
O312 C311 1.315 . S
O313 Cd303 2.240 . S
O313 C311 1.279 . S
O314 Cd304 2.297 . S
O314 C309 1.247 . S
O315 Cd304 2.439 . S
O315 C309 1.208 . S
O316 Cd317 2.223 1_655 S
O316 C324 1.315 . S
Cd317 O316 2.223 1_455 S
Cd317 O320 2.297 . S
Cd317 O321 2.439 . S
Cd317 O327 2.240 . S
Cd318 O319 2.240 . S
Cd318 O326 2.223 . S
Cd318 O328 2.297 1_655 S
Cd318 O329 2.439 1_655 S
O319 Cd318 2.240 . S
O319 C324 1.279 . S
O320 Cd317 2.297 . S
O320 C322 1.247 . S
O321 Cd317 2.439 . S
O321 C322 1.208 . S
C322 O320 1.247 . S
C322 O321 1.208 . S
C323 O328 1.247 . S
C323 O329 1.208 . S
C324 O316 1.315 . S
C324 O319 1.279 . S
C325 O326 1.315 . S
C325 O327 1.279 1_655 S
O326 Cd318 2.223 . S
O326 C325 1.315 . S
O327 Cd317 2.240 . S
O327 C325 1.279 1_455 S
O328 Cd318 2.297 1_455 S
O328 C323 1.247 . S
O329 Cd318 2.439 1_455 S
O329 C323 1.208 . S
O330 Cd331 2.223 . S
O330 C338 1.315 . S
Cd331 O330 2.223 . S
Cd331 O334 2.297 . S
Cd331 O335 2.439 . S
Cd331 O341 2.240 . S
Cd332 O333 2.240 . S
Cd332 O340 2.223 . S
Cd332 O342 2.297 . S
Cd332 O343 2.439 . S
O333 Cd332 2.240 . S
O333 C338 1.279 . S
O334 Cd331 2.297 . S
O334 C336 1.247 . S
O335 Cd331 2.439 . S
O335 C336 1.208 . S
C336 O334 1.247 . S
C336 O335 1.208 . S
C337 O342 1.247 . S
C337 O343 1.208 . S
C338 O330 1.315 . S
C338 O333 1.279 . S
C339 O340 1.315 . S
C339 O341 1.279 . S
O340 Cd332 2.223 . S
O340 C339 1.315 . S
O341 Cd331 2.240 . S
O341 C339 1.279 . S
O342 Cd332 2.297 . S
O342 C337 1.247 . S
O343 Cd332 2.439 . S
O343 C337 1.208 . S
C184 C62 0.936 . S
C199 C73 1.973 1_455 S
C84 C212 1.935 . S
C226 C49 1.680 1_655 S
C238 C118 1.484 . S
C252 C137 1.854 . S
C129 C266 1.821 . S
C281 C106 1.684 . S
C128 C297 1.990 . S
C310 C104 1.234 . S
C115 C295 1.866 . S
C308 C139 1.848 . S
C85 C324 2.063 . S
C52 C323 1.567 . S
C60 C322 1.161 . S
C71 C325 2.472 1_455 S
C40 C227 2.078 . S
C162 C225 1.156 . S
C185 C173 1.264 1_554 S
C196 C93 2.451 . S
C51 C241 1.706 . S
C282 C126 1.955 . S
C239 C107 2.087 . S
C267 C140 2.084 . S
C268 C161 0.936 . S
C172 C283 1.974 . S
C95 C240 1.935 . S
C254 C148 1.680 . S
C41 C210 1.483 . S
C224 C5 1.855 1_655 S
C182 C19 1.820 . S
C197 C29 1.692 . S
C18 C311 1.990 . S
C27 C296 1.234 . S
C38 C309 1.866 . S
C7 C294 1.848 . S
C338 C96 2.063 . S
C337 C151 1.567 . S
C336 C159 1.161 . S
C170 C339 2.472 . S
C117 C255 2.077 . S
C253 C63 1.156 . S
C269 C74 1.264 . S
C280 C82 2.451 . S
C150 C213 1.706 . S
C198 C16 1.955 . S
C30 C211 2.088 . S
C183 C8 2.084 1_565 S
