# Generated by pormake.
# Topology apo, (3,6)-cn, num edge types: 1
# Building blocks:
#     Node 0, Type 0, BuildingBlock: OLANEW_clean_sbu_2, # of connection points: 3
#     Node 1, Type 0, BuildingBlock: OLANEW_clean_sbu_2, # of connection points: 3
#     Node 2, Type 0, BuildingBlock: OLANEW_clean_sbu_2, # of connection points: 3
#     Node 3, Type 0, BuildingBlock: OLANEW_clean_sbu_2, # of connection points: 3
#     Node 4, Type 0, BuildingBlock: OLANEW_clean_sbu_2, # of connection points: 3
#     Node 5, Type 0, BuildingBlock: OLANEW_clean_sbu_2, # of connection points: 3
#     Node 6, Type 0, BuildingBlock: OLANEW_clean_sbu_2, # of connection points: 3
#     Node 7, Type 0, BuildingBlock: OLANEW_clean_sbu_2, # of connection points: 3
#     Node 8, Type 1, BuildingBlock: KUMJIN_clean_sbu_1, # of connection points: 6
#     Node 9, Type 1, BuildingBlock: KUMJIN_clean_sbu_1, # of connection points: 6
#     Node 10, Type 1, BuildingBlock: KUMJIN_clean_sbu_1, # of connection points: 6
#     Node 11, Type 1, BuildingBlock: KUMJIN_clean_sbu_1, # of connection points: 6
#     Edge 12, Type (0, 1), BuildingBlock: XIVTED_clean_linker_0, # of connection points: 2
#     Edge 13, Type (0, 1), BuildingBlock: XIVTED_clean_linker_0, # of connection points: 2
#     Edge 14, Type (0, 1), BuildingBlock: XIVTED_clean_linker_0, # of connection points: 2
#     Edge 15, Type (0, 1), BuildingBlock: XIVTED_clean_linker_0, # of connection points: 2
#     Edge 16, Type (0, 1), BuildingBlock: XIVTED_clean_linker_0, # of connection points: 2
#     Edge 17, Type (0, 1), BuildingBlock: XIVTED_clean_linker_0, # of connection points: 2
#     Edge 18, Type (0, 1), BuildingBlock: XIVTED_clean_linker_0, # of connection points: 2
#     Edge 19, Type (0, 1), BuildingBlock: XIVTED_clean_linker_0, # of connection points: 2
#     Edge 20, Type (0, 1), BuildingBlock: XIVTED_clean_linker_0, # of connection points: 2
#     Edge 21, Type (0, 1), BuildingBlock: XIVTED_clean_linker_0, # of connection points: 2
#     Edge 22, Type (0, 1), BuildingBlock: XIVTED_clean_linker_0, # of connection points: 2
#     Edge 23, Type (0, 1), BuildingBlock: XIVTED_clean_linker_0, # of connection points: 2
#     Edge 24, Type (0, 1), BuildingBlock: XIVTED_clean_linker_0, # of connection points: 2
#     Edge 25, Type (0, 1), BuildingBlock: XIVTED_clean_linker_0, # of connection points: 2
#     Edge 26, Type (0, 1), BuildingBlock: XIVTED_clean_linker_0, # of connection points: 2
#     Edge 27, Type (0, 1), BuildingBlock: XIVTED_clean_linker_0, # of connection points: 2
#     Edge 28, Type (0, 1), BuildingBlock: XIVTED_clean_linker_0, # of connection points: 2
#     Edge 29, Type (0, 1), BuildingBlock: XIVTED_clean_linker_0, # of connection points: 2
#     Edge 30, Type (0, 1), BuildingBlock: XIVTED_clean_linker_0, # of connection points: 2
#     Edge 31, Type (0, 1), BuildingBlock: XIVTED_clean_linker_0, # of connection points: 2
#     Edge 32, Type (0, 1), BuildingBlock: XIVTED_clean_linker_0, # of connection points: 2
#     Edge 33, Type (0, 1), BuildingBlock: XIVTED_clean_linker_0, # of connection points: 2
#     Edge 34, Type (0, 1), BuildingBlock: XIVTED_clean_linker_0, # of connection points: 2
#     Edge 35, Type (0, 1), BuildingBlock: XIVTED_clean_linker_0, # of connection points: 2
# Relax obj value: 0.030
# Max RMSD: 0.224
# Mean RMSD: 0.134
data_MOF--net-apo--node1-OLANEW_clean_sbu_2--node2-KUMJIN_clean_sbu_1--edge1-XIVTED_clean_linker_0
_symmetry_space_group_name_H-M    P1
_symmetry_Int_Tables_number       1
_symmetry_cell_setting            triclinic
loop_
_symmetry_equiv_pos_as_xyz
'x, y, z'
_cell_length_a     28.671071
_cell_length_b     44.862348
_cell_length_c     56.017063
_cell_angle_alpha  88.781531
_cell_angle_beta   89.946355
_cell_angle_gamma 90.046381
loop_
_atom_site_label
_atom_site_type_symbol
_atom_site_fract_x
_atom_site_fract_y
_atom_site_fract_z
_atom_type_partial_charge
O0 O 0.28147 0.39011 0.3548 0.0
Cd1 Cd 0.24464 0.34854 0.37657 0.0
O2 O 0.3343 0.38688 0.38274 0.0
Cd3 Cd 0.39154 0.40051 0.40574 0.0
O4 O 0.41577 0.40697 0.44224 0.0
C5 C 0.3861 0.41861 0.4561 0.0
O6 O 0.34535 0.4266 0.44737 0.0
C7 C 0.31883 0.39986 0.36398 0.0
C8 C 0.20728 0.30506 0.34744 0.0
O9 O 0.18313 0.32771 0.35353 0.0
O10 O 0.24946 0.30317 0.35489 0.0
O11 O 0.33085 0.15716 0.97031 0.0
Cd12 Cd 0.39641 0.16268 0.94255 0.0
O13 O 0.30104 0.12482 0.94609 0.0
Cd14 Cd 0.25555 0.09112 0.93051 0.0
O15 O 0.22326 0.059 0.90679 0.0
C16 C 0.18264 0.06365 0.89847 0.0
O17 O 0.15978 0.08754 0.90494 0.0
C18 C 0.29937 0.13809 0.96595 0.0
C19 C 0.39238 0.20824 0.908 0.0
O20 O 0.40691 0.21317 0.9292 0.0
O21 O 0.37802 0.18193 0.90334 0.0
O22 O 0.82712 0.1239 0.63375 0.0
Cd23 Cd 0.80593 0.16993 0.61241 0.0
O24 O 0.87213 0.10839 0.60467 0.0
Cd25 Cd 0.85921 0.14419 0.57875 0.0
O26 O 0.86542 0.15638 0.54104 0.0
C27 C 0.88091 0.13572 0.52802 0.0
O28 O 0.89154 0.1099 0.53811 0.0
C29 C 0.85488 0.10464 0.62541 0.0
C30 C 0.75179 0.20651 0.64106 0.0
O31 O 0.73265 0.18891 0.62622 0.0
O32 O 0.79642 0.20687 0.64227 0.0
O33 O 0.82342 0.35336 0.03679 0.0
Cd34 Cd 0.87959 0.35829 0.0692 0.0
O35 O 0.7875 0.3916 0.05165 0.0
Cd36 Cd 0.73375 0.42459 0.05862 0.0
O37 O 0.70222 0.44976 0.08747 0.0
C38 C 0.66564 0.46546 0.08508 0.0
O39 O 0.6451 0.46724 0.06414 0.0
C40 C 0.79022 0.37206 0.03563 0.0
C41 C 0.89189 0.30638 0.09668 0.0
O42 O 0.86205 0.32607 0.1028 0.0
O43 O 0.91523 0.31109 0.07744 0.0
O44 O 0.70724 0.61863 0.63364 0.0
Cd45 Cd 0.738 0.65807 0.60717 0.0
O46 O 0.74609 0.58351 0.61538 0.0
Cd47 Cd 0.7618 0.61164 0.58412 0.0
O48 O 0.74304 0.6174 0.54651 0.0
C49 C 0.69984 0.61441 0.54205 0.0
O50 O 0.67083 0.61037 0.56001 0.0
C51 C 0.7199 0.59154 0.6324 0.0
C52 C 0.78815 0.70033 0.63265 0.0
O53 O 0.7446 0.70388 0.62831 0.0
O54 O 0.80803 0.67686 0.62488 0.0
O55 O 0.81164 0.87813 0.12315 0.0
Cd56 Cd 0.77654 0.84094 0.09743 0.0
O57 O 0.75971 0.9123 0.11345 0.0
Cd58 Cd 0.73502 0.88604 0.08375 0.0
O59 O 0.75259 0.87652 0.04683 0.0
C60 C 0.79461 0.88259 0.0413 0.0
O61 O 0.82272 0.89214 0.05801 0.0
C62 C 0.79466 0.90402 0.12587 0.0
C63 C 0.72196 0.80085 0.12393 0.0
O64 O 0.76534 0.79593 0.12012 0.0
O65 O 0.7041 0.82481 0.11507 0.0
O66 O 0.22607 0.89291 0.37044 0.0
Cd67 Cd 0.25546 0.85404 0.3981 0.0
O68 O 0.25011 0.93066 0.39164 0.0
Cd69 Cd 0.27252 0.90206 0.42131 0.0
O70 O 0.25612 0.88522 0.45708 0.0
C71 C 0.21285 0.8816 0.46115 0.0
O72 O 0.18314 0.88674 0.44369 0.0
C73 C 0.23006 0.92089 0.37315 0.0
C74 C 0.30382 0.80904 0.37479 0.0
O75 O 0.25917 0.8091 0.37582 0.0
O76 O 0.32588 0.83025 0.3848 0.0
O77 O 0.30156 0.61183 0.86788 0.0
Cd78 Cd 0.26508 0.64776 0.89437 0.0
O79 O 0.27951 0.57449 0.89137 0.0
Cd80 Cd 0.25879 0.60235 0.92077 0.0
O81 O 0.26915 0.61796 0.95688 0.0
C82 C 0.29173 0.60063 0.97089 0.0
O83 O 0.30614 0.57485 0.96299 0.0
C84 C 0.29853 0.58393 0.87215 0.0
C85 C 0.21563 0.69193 0.86951 0.0
O86 O 0.2572 0.69677 0.87689 0.0
O87 O 0.19756 0.66623 0.87381 0.0
Eu88 Eu 0.07386 0.09085 0.21451 0.0
C89 C 0.87187 0.0642 0.2422 0.0
N90 N 0.88972 0.09189 0.23794 0.0
C91 C 0.82437 0.10466 0.21315 0.0
C92 C 0.82977 0.0554 0.2314 0.0
C93 C 0.86648 0.1123 0.224 0.0
C94 C 0.80605 0.07604 0.21675 0.0
C95 C 0.87858 0.01552 0.26156 0.0
C96 C 0.89642 0.04443 0.25696 0.0
C97 C 0.83731 0.00643 0.25032 0.0
C98 C 0.81295 0.02633 0.23532 0.0
Eu99 Eu 0.96084 0.103 0.25687 0.0
N100 N 0.93655 0.05375 0.26753 0.0
C101 C 0.90193 0.99687 0.27789 0.0
C102 C 0.95632 0.03671 0.28532 0.0
C103 C 0.94036 0.00777 0.29021 0.0
H104 H 0.88081 0.13437 0.22113 0.0
H105 H 0.95709 0.99413 0.30387 0.0
H106 H 0.14194 0.04019 0.24196 0.0
H107 H 0.11143 0.20695 0.18858 0.0
H108 H 0.98357 0.04543 0.29641 0.0
H109 H 0.88935 0.97454 0.2819 0.0
H110 H 0.06568 0.16077 0.19013 0.0
H111 H 0.80619 0.12078 0.20193 0.0
H112 H 0.82345 0.98422 0.25348 0.0
H113 H 0.78094 0.01906 0.22697 0.0
H114 H 0.21948 0.03762 0.26116 0.0
H115 H 0.77362 0.0701 0.20814 0.0
H116 H 0.18952 0.20849 0.20719 0.0
N117 N 0.14822 0.08589 0.23208 0.0
C118 C 0.17612 0.11041 0.23106 0.0
C119 C 0.2076 0.05828 0.25291 0.0
C120 C 0.22085 0.1099 0.24152 0.0
C121 C 0.16349 0.05988 0.24235 0.0
C122 C 0.23634 0.08345 0.2526 0.0
N123 N 0.11537 0.13649 0.21085 0.0
C124 C 0.09875 0.16115 0.19902 0.0
C125 C 0.18711 0.16236 0.21933 0.0
C126 C 0.15931 0.13639 0.22012 0.0
C127 C 0.16926 0.18809 0.20815 0.0
C128 C 0.1251 0.18737 0.19775 0.0
H129 H 0.27047 0.08217 0.26085 0.0
H130 H 0.28284 0.13582 0.24882 0.0
H131 H 0.25335 0.1817 0.22939 0.0
O132 O 0.07844 0.09171 0.1749 0.0
O133 O 0.08463 0.11739 0.24834 0.0
O134 O 0.014 0.14018 0.25529 0.0
O135 O 0.1184 0.05951 0.19655 0.0
O136 O 0.01408 0.11837 0.19863 0.0
O137 O 0.97469 0.14034 0.23004 0.0
O138 O 0.94572 0.10883 0.29531 0.0
O139 O 0.95284 0.0825 0.22036 0.0
O140 O 0.01892 0.05462 0.21745 0.0
O141 O 0.90762 0.13419 0.26799 0.0
O142 O 0.02605 0.08138 0.27317 0.0
O143 O 0.05343 0.05503 0.24139 0.0
C144 C 0.05956 0.139 0.25725 0.0
C145 C 0.12679 0.05493 0.15405 0.0
C146 C 0.15042 0.05614 0.11208 0.0
C147 C 0.16277 0.02584 0.11424 0.0
C148 C 0.13944 0.02471 0.15566 0.0
C149 C 0.15721 0.01031 0.13585 0.0
C150 C 0.13225 0.07062 0.13219 0.0
C151 C 0.98589 0.13882 0.20727 0.0
C152 C 0.10771 0.06944 0.17531 0.0
C153 C 0.24845 0.13578 0.24081 0.0
C154 C 0.23164 0.16192 0.22975 0.0
C155 C 0.97461 0.05884 0.21289 0.0
C156 C 0.885 0.14349 0.3087 0.0
C157 C 0.86869 0.15592 0.35015 0.0
C158 C 0.83058 0.17327 0.34233 0.0
C159 C 0.8468 0.16104 0.30139 0.0
C160 C 0.89572 0.14087 0.33317 0.0
C161 C 0.8198 0.17576 0.31813 0.0
C162 C 0.05133 0.05963 0.2644 0.0
C163 C 0.9134 0.12846 0.29056 0.0
H164 H 0.17772 0.01421 0.09931 0.0
H165 H 0.13536 0.01212 0.17225 0.0
H166 H 0.16701 0.98704 0.1373 0.0
H167 H 0.12247 0.09393 0.13085 0.0
H168 H 0.80857 0.18461 0.35497 0.0
H169 H 0.83761 0.16338 0.28269 0.0
H170 H 0.92538 0.12761 0.33892 0.0
H171 H 0.79031 0.18909 0.31232 0.0
Eu172 Eu 0.46938 0.39339 0.73365 0.0
C173 C 0.65911 0.44301 0.76617 0.0
N174 N 0.64753 0.41396 0.76355 0.0
C175 C 0.7179 0.40558 0.7416 0.0
C176 C 0.69988 0.45491 0.7556 0.0
C177 C 0.67689 0.39489 0.75229 0.0
C178 C 0.72913 0.43583 0.74296 0.0
C179 C 0.64264 0.49054 0.78399 0.0
C180 C 0.63085 0.46049 0.78018 0.0
C181 C 0.68187 0.50301 0.77248 0.0
C182 C 0.7105 0.48521 0.75834 0.0
Eu183 Eu 0.57675 0.39768 0.78087 0.0
N184 N 0.59363 0.44759 0.79132 0.0
C185 C 0.61564 0.50684 0.79992 0.0
C186 C 0.5697 0.46267 0.80835 0.0
C187 C 0.57956 0.49266 0.81249 0.0
H188 H 0.66796 0.37158 0.75117 0.0
H189 H 0.55968 0.50471 0.82559 0.0
H190 H 0.39604 0.44942 0.74829 0.0
H191 H 0.42489 0.2764 0.72261 0.0
H192 H 0.5431 0.45167 0.81896 0.0
H193 H 0.6235 0.52999 0.80333 0.0
H194 H 0.47108 0.32272 0.71646 0.0
H195 H 0.74068 0.39055 0.73224 0.0
H196 H 0.69114 0.52616 0.77496 0.0
H197 H 0.7413 0.4949 0.75007 0.0
H198 H 0.32303 0.45566 0.77093 0.0
H199 H 0.76081 0.4441 0.73459 0.0
H200 H 0.35344 0.27715 0.74746 0.0
N201 N 0.3965 0.40216 0.75228 0.0
C202 C 0.37097 0.37756 0.7582 0.0
C203 C 0.33647 0.43354 0.76783 0.0
C204 C 0.32801 0.37999 0.7703 0.0
C205 C 0.37841 0.42993 0.75545 0.0
C206 C 0.31161 0.40843 0.77574 0.0
N207 N 0.42647 0.34872 0.73795 0.0
C208 C 0.43977 0.32305 0.7272 0.0
C209 C 0.35875 0.32431 0.75457 0.0
C210 C 0.386 0.35006 0.75045 0.0
C211 C 0.37346 0.29743 0.74475 0.0
C212 C 0.41377 0.29692 0.73068 0.0
H213 H 0.27882 0.41127 0.78505 0.0
H214 H 0.26914 0.35556 0.78518 0.0
H215 H 0.2961 0.30677 0.77139 0.0
O216 O 0.48314 0.38954 0.69544 0.0
O217 O 0.4817 0.35639 0.76167 0.0
O218 O 0.50512 0.3837 0.7932 0.0
O219 O 0.41672 0.40608 0.7072 0.0
O220 O 0.53372 0.36751 0.72319 0.0
O221 O 0.57677 0.35663 0.75763 0.0
O222 O 0.61342 0.39742 0.81569 0.0
O223 O 0.58583 0.41136 0.74181 0.0
O224 O 0.51648 0.43389 0.73323 0.0
O225 O 0.60337 0.35622 0.79613 0.0
O226 O 0.50742 0.41925 0.79055 0.0
O227 O 0.47721 0.43618 0.75463 0.0
C228 C 0.48335 0.3606 0.78475 0.0
C229 C 0.44789 0.42701 0.67185 0.0
C230 C 0.44378 0.44641 0.63092 0.0
C231 C 0.45456 0.47499 0.63916 0.0
C232 C 0.45886 0.45567 0.67975 0.0
C233 C 0.46229 0.47949 0.66343 0.0
C234 C 0.44081 0.42238 0.64742 0.0
C235 C 0.56502 0.35177 0.73523 0.0
C236 C 0.44402 0.40195 0.68903 0.0
C237 C 0.30195 0.35416 0.77566 0.0
C238 C 0.31725 0.32637 0.76776 0.0
C239 C 0.56199 0.43279 0.73133 0.0
C240 C 0.64489 0.35109 0.83352 0.0
C241 C 0.6683 0.34182 0.87497 0.0
C242 C 0.68829 0.31464 0.86816 0.0
C243 C 0.66501 0.3238 0.82728 0.0
C244 C 0.64718 0.36031 0.85741 0.0
C245 C 0.68677 0.30582 0.84449 0.0
C246 C 0.48229 0.4384 0.77788 0.0
C247 C 0.61983 0.36872 0.81508 0.0
H248 H 0.45741 0.4938 0.6268 0.0
H249 H 0.46454 0.45962 0.69852 0.0
H250 H 0.47082 0.50154 0.66961 0.0
H251 H 0.43216 0.40027 0.64135 0.0
H252 H 0.70551 0.30024 0.88117 0.0
H253 H 0.66384 0.31626 0.80904 0.0
H254 H 0.63127 0.38117 0.86244 0.0
H255 H 0.70229 0.28487 0.83949 0.0
Eu256 Eu 0.06209 0.88672 0.72945 0.0
C257 C 0.85882 0.85645 0.75594 0.0
N258 N 0.87738 0.88428 0.75389 0.0
C259 C 0.81208 0.90081 0.7305 0.0
C260 C 0.81629 0.84956 0.74469 0.0
C261 C 0.85456 0.90655 0.74175 0.0
C262 C 0.79297 0.87216 0.73186 0.0
C263 C 0.86454 0.80562 0.77124 0.0
C264 C 0.8831 0.83469 0.76887 0.0
C265 C 0.82272 0.79849 0.75961 0.0
C266 C 0.79865 0.8204 0.74639 0.0
Eu267 Eu 0.94957 0.89195 0.77285 0.0
N268 N 0.9238 0.84213 0.77981 0.0
C269 C 0.88786 0.78475 0.78577 0.0
C270 C 0.94389 0.82267 0.79582 0.0
C271 C 0.92715 0.79352 0.7985 0.0
H272 H 0.86938 0.92866 0.74068 0.0
H273 H 0.94404 0.77801 0.81077 0.0
H274 H 0.13071 0.83197 0.75082 0.0
H275 H 0.09613 0.00649 0.71893 0.0
H276 H 0.97206 0.82955 0.80716 0.0
H277 H 0.87473 0.76221 0.78805 0.0
H278 H 0.05039 0.9605 0.71573 0.0
H279 H 0.79421 0.91844 0.72071 0.0
H280 H 0.80826 0.77621 0.76107 0.0
H281 H 0.76625 0.81462 0.73769 0.0
H282 H 0.20969 0.82624 0.76799 0.0
H283 H 0.76023 0.86773 0.72296 0.0
H284 H 0.176 0.00464 0.73547 0.0
N285 N 0.13691 0.87882 0.74562 0.0
C286 C 0.16467 0.90332 0.74707 0.0
C287 C 0.19738 0.84804 0.76227 0.0
C288 C 0.2101 0.90103 0.75655 0.0
C289 C 0.15255 0.85138 0.75279 0.0
C290 C 0.22627 0.87297 0.76419 0.0
N291 N 0.10228 0.93272 0.73162 0.0
C292 C 0.08443 0.95927 0.72362 0.0
C293 C 0.17468 0.95683 0.74167 0.0
C294 C 0.14701 0.93098 0.73977 0.0
C295 C 0.15584 0.98428 0.73432 0.0
C296 C 0.11066 0.98545 0.72509 0.0
H297 H 0.26097 0.87031 0.77158 0.0
H298 H 0.27269 0.92542 0.76559 0.0
H299 H 0.24177 0.97419 0.75254 0.0
O300 O 0.06545 0.89567 0.69099 0.0
O301 O 0.07337 0.90767 0.76575 0.0
O302 O 0.00254 0.92917 0.77255 0.0
O303 O 0.10875 0.86124 0.7068 0.0
O304 O 0.00085 0.91475 0.71593 0.0
O305 O 0.96233 0.93247 0.74916 0.0
O306 O 0.93889 0.89319 0.81206 0.0
O307 O 0.94056 0.87494 0.73513 0.0
O308 O 0.00845 0.84947 0.72913 0.0
O309 O 0.89807 0.92157 0.78775 0.0
O310 O 0.01487 0.86776 0.78648 0.0
O311 O 0.04376 0.84651 0.75243 0.0
C312 C 0.04697 0.92642 0.7773 0.0
C313 C 0.08167 0.85399 0.66769 0.0
C314 C 0.08608 0.84093 0.62571 0.0
C315 C 0.05509 0.81714 0.63027 0.0
C316 C 0.05126 0.82997 0.67195 0.0
C317 C 0.03792 0.81171 0.65329 0.0
C318 C 0.09915 0.85935 0.64461 0.0
C319 C 0.97179 0.93338 0.72616 0.0
C320 C 0.09445 0.87397 0.68705 0.0
C321 C 0.23771 0.92676 0.75836 0.0
C322 C 0.22007 0.95455 0.75093 0.0
C323 C 0.96355 0.85299 0.72555 0.0
C324 C 0.88255 0.92794 0.82957 0.0
C325 C 0.86149 0.92981 0.87163 0.0
C326 C 0.84102 0.95786 0.86756 0.0
C327 C 0.86137 0.9559 0.82579 0.0
C328 C 0.88213 0.91476 0.85258 0.0
C329 C 0.84072 0.97071 0.8447 0.0
C330 C 0.04005 0.8474 0.77577 0.0
C331 C 0.90711 0.91378 0.80969 0.0
H332 H 0.0447 0.80246 0.61612 0.0
H333 H 0.03798 0.82537 0.68968 0.0
H334 H 0.01432 0.79325 0.6567 0.0
H335 H 0.12233 0.8781 0.64133 0.0
H336 H 0.825 0.96971 0.88209 0.0
H337 H 0.86147 0.96663 0.80827 0.0
H338 H 0.89844 0.89325 0.85577 0.0
H339 H 0.82479 0.99233 0.84166 0.0
Eu340 Eu 0.43822 0.61558 0.23222 0.0
C341 C 0.66089 0.62627 0.25362 0.0
N342 N 0.63255 0.60208 0.25606 0.0
C343 C 0.69236 0.57071 0.24041 0.0
C344 C 0.70607 0.62363 0.24391 0.0
C345 C 0.64787 0.57443 0.25015 0.0
C346 C 0.72149 0.59544 0.23713 0.0
C347 C 0.67306 0.6794 0.25842 0.0
C348 C 0.64471 0.65383 0.26085 0.0
C349 C 0.71788 0.6769 0.24854 0.0
C350 C 0.73435 0.64909 0.24133 0.0
Eu351 Eu 0.55759 0.61071 0.27193 0.0
N352 N 0.6005 0.65577 0.26955 0.0
C353 C 0.6554 0.70676 0.26591 0.0
C354 C 0.58396 0.68209 0.27797 0.0
C355 C 0.61084 0.70804 0.27593 0.0
H356 H 0.62602 0.55515 0.25337 0.0
H357 H 0.5972 0.72899 0.28213 0.0
H358 H 0.36148 0.64355 0.27044 0.0
H359 H 0.44325 0.5056 0.19103 0.0
H360 H 0.54987 0.6832 0.28598 0.0
H361 H 0.67606 0.72694 0.26427 0.0
H362 H 0.46495 0.55806 0.19547 0.0
H363 H 0.70427 0.54875 0.23558 0.0
H364 H 0.74011 0.69632 0.24644 0.0
H365 H 0.76908 0.6475 0.23382 0.0
H366 H 0.29154 0.62688 0.29306 0.0
H367 H 0.75597 0.59248 0.2296 0.0
H368 H 0.38002 0.48369 0.21577 0.0
N369 N 0.37311 0.60135 0.25522 0.0
C370 C 0.35784 0.57291 0.25256 0.0
C371 C 0.30998 0.61146 0.28183 0.0
C372 C 0.31832 0.5624 0.26519 0.0
C373 C 0.34954 0.62084 0.26914 0.0
C374 C 0.29443 0.58208 0.27996 0.0
N375 N 0.41965 0.56506 0.22498 0.0
C376 C 0.43979 0.54844 0.20763 0.0
C377 C 0.36719 0.52445 0.23471 0.0
C378 C 0.38229 0.55414 0.23748 0.0
C379 C 0.39058 0.50658 0.21841 0.0
C380 C 0.42649 0.5188 0.20453 0.0
H381 H 0.26394 0.57482 0.28994 0.0
H382 H 0.27415 0.52411 0.27262 0.0
H383 H 0.31678 0.49094 0.24592 0.0
O384 O 0.40586 0.6144 0.19678 0.0
O385 O 0.44103 0.59568 0.27011 0.0
O386 O 0.51002 0.57086 0.26994 0.0
O387 O 0.38452 0.64816 0.22227 0.0
O388 O 0.50369 0.59871 0.21452 0.0
O389 O 0.54507 0.5747 0.24459 0.0
O390 O 0.55303 0.61641 0.31042 0.0
O391 O 0.56015 0.64389 0.24117 0.0
O392 O 0.49229 0.64848 0.2184 0.0
O393 O 0.60636 0.58784 0.29603 0.0
O394 O 0.49613 0.63718 0.28658 0.0
O395 O 0.45458 0.65568 0.25408 0.0
C396 C 0.4663 0.57243 0.2764 0.0
C397 C 0.34622 0.64977 0.18349 0.0
C398 C 0.31952 0.6559 0.14224 0.0
C399 C 0.28504 0.67577 0.15004 0.0
C400 C 0.31165 0.66974 0.1908 0.0
C401 C 0.28119 0.68257 0.17414 0.0
C402 C 0.34989 0.6428 0.15918 0.0
C403 C 0.53659 0.58022 0.22179 0.0
C404 C 0.37957 0.63735 0.20105 0.0
C405 C 0.30414 0.53266 0.26287 0.0
C406 C 0.32856 0.51373 0.24774 0.0
C407 C 0.53557 0.65568 0.22362 0.0
C408 C 0.58003 0.57728 0.3353 0.0
C409 C 0.58699 0.56642 0.37797 0.0
C410 C 0.56352 0.53925 0.3747 0.0
C411 C 0.55717 0.55003 0.33225 0.0
C412 C 0.59506 0.58532 0.35806 0.0
C413 C 0.54887 0.53111 0.35193 0.0
C414 C 0.46691 0.65646 0.27661 0.0
C415 C 0.58734 0.59825 0.31523 0.0
H416 H 0.26057 0.68581 0.13754 0.0
H417 H 0.30818 0.67551 0.2094 0.0
H418 H 0.2545 0.69787 0.17993 0.0
H419 H 0.3771 0.62782 0.15338 0.0
H420 H 0.55701 0.52416 0.38969 0.0
H421 H 0.54575 0.54352 0.31473 0.0
H422 H 0.61226 0.60661 0.36033 0.0
H423 H 0.53103 0.51011 0.34954 0.0
H424 H 0.22333 0.98164 0.37614 0.0
H425 H 0.07144 0.00125 0.2571 0.0
H426 H 0.18505 0.90846 0.33128 0.0
H427 H 0.08826 0.07075 0.30841 0.0
H428 H 0.11733 0.96774 0.28272 0.0
H429 H 0.17978 0.01556 0.34978 0.0
C430 C 0.20614 0.9727 0.36063 0.0
C431 C 0.20777 0.94207 0.35599 0.0
C432 C 0.11093 0.99027 0.28846 0.0
C433 C 0.15749 0.98087 0.32583 0.0
C434 C 0.08473 0.0094 0.27385 0.0
C435 C 0.0763 0.03882 0.28065 0.0
C436 C 0.12901 0.00063 0.31004 0.0
C437 C 0.09393 0.04819 0.30258 0.0
C438 C 0.18103 0.9921 0.34567 0.0
C439 C 0.18471 0.93185 0.33562 0.0
N440 N 0.11974 0.02919 0.31646 0.0
N441 N 0.16046 0.95119 0.32134 0.0
H442 H 0.30074 0.52338 0.87746 0.0
H443 H 0.45596 0.49394 0.76191 0.0
H444 H 0.346 0.59496 0.83009 0.0
H445 H 0.4452 0.43315 0.82235 0.0
H446 H 0.4071 0.52978 0.78318 0.0
H447 H 0.34339 0.48816 0.8533 0.0
C448 C 0.31935 0.53172 0.86186 0.0
C449 C 0.32017 0.56228 0.85596 0.0
C450 C 0.41557 0.5086 0.79174 0.0
C451 C 0.3694 0.52188 0.82825 0.0
C452 C 0.44332 0.48823 0.77966 0.0
C453 C 0.45456 0.46071 0.7905 0.0
C454 C 0.39868 0.50109 0.81462 0.0
C455 C 0.43759 0.45426 0.81348 0.0
C456 C 0.3439 0.51156 0.84813 0.0
C457 C 0.34468 0.57163 0.83539 0.0
N458 N 0.41029 0.47425 0.82473 0.0
N459 N 0.36857 0.55149 0.82229 0.0
H460 H 0.74608 0.53307 0.63769 0.0
H461 H 0.53471 0.49058 0.72486 0.0
H462 H 0.65095 0.59811 0.66586 0.0
H463 H 0.64481 0.42932 0.70747 0.0
H464 H 0.57614 0.53017 0.70284 0.0
H465 H 0.70978 0.4948 0.66318 0.0
C466 C 0.71781 0.53938 0.64938 0.0
C467 C 0.7014 0.56886 0.64953 0.0
C468 C 0.59144 0.50813 0.70397 0.0
C469 C 0.65929 0.52499 0.67859 0.0
C470 C 0.56767 0.48551 0.71639 0.0
C471 C 0.58662 0.45675 0.71805 0.0
C472 C 0.63417 0.50183 0.69287 0.0
C473 C 0.6294 0.45133 0.70685 0.0
C474 C 0.69708 0.51748 0.66394 0.0
C475 C 0.66473 0.57569 0.66512 0.0
N476 N 0.6517 0.47364 0.69464 0.0
N477 N 0.64465 0.55387 0.67886 0.0
H478 H 0.87109 0.89448 0.15445 0.0
H479 H 0.89595 0.06661 0.18643 0.0
H480 H 0.77185 0.96236 0.13323 0.0
H481 H 0.99207 0.99894 0.21129 0.0
H482 H 0.84881 0.02821 0.1679 0.0
H483 H 0.91402 0.93166 0.17693 0.0
C484 C 0.85804 0.91712 0.15469 0.0
C485 C 0.81795 0.92534 0.14177 0.0
C486 C 0.88016 0.02166 0.1774 0.0
C487 C 0.86724 0.96806 0.16728 0.0
C488 C 0.90702 0.04359 0.18801 0.0
C489 C 0.94766 0.03586 0.20054 0.0
C490 C 0.89435 0.99174 0.17907 0.0
C491 C 0.961 0.0058 0.20169 0.0
C492 C 0.88267 0.93836 0.16749 0.0
C493 C 0.80266 0.955 0.14282 0.0
N494 N 0.93435 0.98478 0.19109 0.0
N495 N 0.8275 0.9753 0.15519 0.0
H496 H 0.90604 0.05693 0.61112 0.0
H497 H 0.91715 0.97974 0.7408 0.0
H498 H 0.83446 0.09158 0.67246 0.0
H499 H 0.97932 0.94254 0.67779 0.0
H500 H 0.88505 0.02024 0.71615 0.0
H501 H 0.93141 0.01428 0.6353 0.0
C502 C 0.89552 0.05555 0.62969 0.0
C503 C 0.8683 0.07801 0.63982 0.0
C504 C 0.90557 0.00315 0.70772 0.0
C505 C 0.89749 0.02909 0.6677 0.0
C506 C 0.92397 0.97999 0.72178 0.0
C507 C 0.95118 0.9577 0.71138 0.0
C508 C 0.91458 0.00414 0.68308 0.0
C509 C 0.95877 0.95926 0.68664 0.0
C510 C 0.91002 0.03112 0.6435 0.0
C511 C 0.85552 0.07484 0.66394 0.0
N512 N 0.94071 0.98214 0.67337 0.0
N513 N 0.87047 0.0509 0.67711 0.0
H514 H 0.59537 0.50664 0.08515 0.0
H515 H 0.58328 0.52627 0.22572 0.0
H516 H 0.69301 0.46137 0.132 0.0
H517 H 0.54273 0.59495 0.17472 0.0
H518 H 0.61666 0.49774 0.19279 0.0
H519 H 0.56604 0.53418 0.11919 0.0
C520 C 0.61062 0.50245 0.10258 0.0
C521 C 0.64689 0.4818 0.10568 0.0
C522 C 0.60071 0.51919 0.18898 0.0
C523 C 0.61331 0.51316 0.14474 0.0
C524 C 0.58207 0.53558 0.20775 0.0
C525 C 0.56043 0.56314 0.20302 0.0
C526 C 0.59668 0.53024 0.1654 0.0
C527 C 0.55877 0.57373 0.17925 0.0
C528 C 0.59399 0.51825 0.12199 0.0
C529 C 0.66516 0.47722 0.12878 0.0
N530 N 0.57618 0.55718 0.16137 0.0
N531 N 0.64807 0.49272 0.14748 0.0
H532 H 0.41251 0.41144 0.36118 0.0
H533 H 0.38789 0.57409 0.30428 0.0
H534 H 0.27817 0.44806 0.34228 0.0
H535 H 0.49859 0.51538 0.28279 0.0
H536 H 0.35191 0.53252 0.32666 0.0
H537 H 0.45015 0.45445 0.34107 0.0
C538 C 0.39101 0.42873 0.3531 0.0
C539 C 0.34224 0.42631 0.35337 0.0
C540 C 0.38417 0.52887 0.31708 0.0
C541 C 0.38479 0.47533 0.33071 0.0
C542 C 0.4045 0.55245 0.30417 0.0
C543 C 0.4457 0.54803 0.2912 0.0
C544 C 0.40611 0.50094 0.31773 0.0
C545 C 0.46668 0.51976 0.29244 0.0
C546 C 0.41244 0.45304 0.34152 0.0
C547 C 0.3159 0.44908 0.34235 0.0
N548 N 0.44678 0.49727 0.30557 0.0
N549 N 0.33749 0.47277 0.3316 0.0
H550 H 0.09553 0.06584 0.87858 0.0
H551 H 0.13678 0.92601 0.79449 0.0
H552 H 0.22311 0.01479 0.8783 0.0
H553 H 0.0056 0.97254 0.80034 0.0
H554 H 0.17033 0.95933 0.8239 0.0
H555 H 0.06303 0.03261 0.84893 0.0
C556 C 0.11671 0.04761 0.87233 0.0
C557 C 0.16213 0.04312 0.88097 0.0
C558 C 0.13422 0.96224 0.81871 0.0
C559 C 0.12514 0.00498 0.84686 0.0
C560 C 0.11509 0.94331 0.80182 0.0
C561 C 0.06834 0.94655 0.79479 0.0
C562 C 0.10639 0.98455 0.82869 0.0
C563 C 0.0418 0.96918 0.80515 0.0
C564 C 0.09812 0.02862 0.85537 0.0
C565 C 0.18791 0.01908 0.87218 0.0
N566 N 0.0612 0.98728 0.82154 0.0
N567 N 0.16909 0.00096 0.85557 0.0
H568 H 0.27369 0.17129 0.00407 0.0
H569 H 0.13349 0.03692 0.06682 0.0
H570 H 0.24793 0.08649 0.97164 0.0
H571 H 0.18684 0.11235 0.1048 0.0
H572 H 0.15943 0.0602 0.02932 0.0
H573 H 0.22671 0.15511 0.03845 0.0
C574 C 0.25738 0.14951 0.0039 0.0
C575 C 0.26462 0.13032 0.98472 0.0
C576 C 0.16502 0.07183 0.04582 0.0
C577 C 0.21102 0.11163 0.02415 0.0
C578 C 0.15033 0.05852 0.06725 0.0
C579 C 0.15883 0.07242 0.08906 0.0
C580 C 0.18842 0.0993 0.04609 0.0
C581 C 0.17966 0.10077 0.08845 0.0
C582 C 0.23064 0.14029 0.02357 0.0
C583 C 0.2426 0.10238 0.98555 0.0
N584 N 0.19429 0.11312 0.06733 0.0
N585 N 0.21718 0.09379 0.00501 0.0
H586 H 0.45912 0.3956 0.4824 0.0
H587 H 0.38736 0.47921 0.60134 0.0
H588 H 0.33577 0.45008 0.4883 0.0
H589 H 0.48002 0.40351 0.60208 0.0
H590 H 0.37388 0.47229 0.55872 0.0
H591 H 0.47332 0.40163 0.52522 0.0
C592 C 0.43515 0.40891 0.49265 0.0
C593 C 0.39624 0.42242 0.48175 0.0
C594 C 0.3971 0.45714 0.56819 0.0
C595 C 0.41235 0.42943 0.53057 0.0
C596 C 0.40497 0.46118 0.59246 0.0
C597 C 0.43489 0.44193 0.60518 0.0
C598 C 0.41979 0.43392 0.55644 0.0
C599 C 0.45646 0.41871 0.5929 0.0
C600 C 0.44316 0.4122 0.51708 0.0
C601 C 0.3662 0.43927 0.49593 0.0
N602 N 0.44873 0.41545 0.56913 0.0
N603 N 0.375 0.4424 0.51955 0.0
H604 H 0.75291 0.41844 0.00924 0.0
H605 H 0.64671 0.30692 0.91379 0.0
H606 H 0.75341 0.32257 0.01619 0.0
H607 H 0.69399 0.39541 0.89426 0.0
H608 H 0.66337 0.31705 0.95555 0.0
H609 H 0.71027 0.41436 0.97123 0.0
C610 C 0.74288 0.39663 0.00309 0.0
C611 C 0.75678 0.37076 0.01569 0.0
C612 C 0.66958 0.33442 0.94219 0.0
C613 C 0.70824 0.36597 0.97265 0.0
C614 C 0.66014 0.32865 0.91836 0.0
C615 C 0.67003 0.35012 0.90049 0.0
C616 C 0.68919 0.36187 0.94833 0.0
C617 C 0.68625 0.37817 0.90749 0.0
C618 C 0.71896 0.39432 0.98138 0.0
C619 C 0.74357 0.34302 0.00689 0.0
N620 N 0.69607 0.38312 0.93089 0.0
N621 N 0.7202 0.34136 0.98591 0.0
H622 H 0.86768 0.18702 0.50141 0.0
H623 H 0.89332 0.10592 0.37635 0.0
H624 H 0.90436 0.0942 0.49507 0.0
H625 H 0.86781 0.20018 0.38303 0.0
H626 H 0.90272 0.10168 0.4197 0.0
H627 H 0.87176 0.19279 0.45799 0.0
C628 C 0.87674 0.16788 0.4909 0.0
C629 C 0.88533 0.14004 0.50188 0.0
C630 C 0.89539 0.12333 0.41165 0.0
C631 C 0.88994 0.14644 0.45215 0.0
C632 C 0.8903 0.12579 0.38689 0.0
C633 C 0.87918 0.15338 0.37607 0.0
C634 C 0.88923 0.14864 0.42569 0.0
C635 C 0.87535 0.17834 0.39066 0.0
C636 C 0.87916 0.17119 0.4661 0.0
C637 C 0.89724 0.11606 0.48737 0.0
N638 N 0.87999 0.17533 0.4147 0.0
N639 N 0.89887 0.11976 0.46325 0.0
H640 H 0.74863 0.86093 0.00229 0.0
H641 H 0.90714 0.95003 0.91042 0.0
H642 H 0.87616 0.90461 0.02294 0.0
H643 H 0.81352 0.88097 0.8879 0.0
H644 H 0.89712 0.93292 0.95191 0.0
H645 H 0.77179 0.86687 0.96035 0.0
C646 C 0.7817 0.87146 0.99803 0.0
C647 C 0.81023 0.88261 0.01613 0.0
C648 C 0.87933 0.92113 0.93791 0.0
C649 C 0.83663 0.88972 0.96829 0.0
C650 C 0.88508 0.9309 0.91431 0.0
C651 C 0.86111 0.91678 0.89597 0.0
C652 C 0.84847 0.89754 0.94318 0.0
C653 C 0.83267 0.89225 0.90171 0.0
C654 C 0.79495 0.87476 0.97411 0.0
C655 C 0.85286 0.89587 0.0096 0.0
N656 N 0.8265 0.88364 0.92493 0.0
N657 N 0.86443 0.89944 0.98621 0.0
H658 H 0.7502 0.61904 0.50032 0.0
H659 H 0.5386 0.56249 0.42006 0.0
H660 H 0.61087 0.60355 0.52716 0.0
H661 H 0.6709 0.5908 0.3906 0.0
H662 H 0.56505 0.57726 0.45955 0.0
H663 H 0.72215 0.60955 0.45991 0.0
C664 C 0.71366 0.61391 0.49771 0.0
C665 C 0.68293 0.61185 0.51721 0.0
C666 C 0.58829 0.58034 0.44445 0.0
C667 C 0.65074 0.60069 0.47107 0.0
C668 C 0.57331 0.57169 0.42194 0.0
C669 C 0.60265 0.5753 0.40205 0.0
C670 C 0.63314 0.59246 0.44718 0.0
C671 C 0.64703 0.58781 0.40545 0.0
C672 C 0.69768 0.60845 0.47464 0.0
C673 C 0.63592 0.60521 0.51273 0.0
N674 N 0.66103 0.59579 0.4276 0.0
N675 N 0.62139 0.59963 0.49019 0.0
H676 H 0.32925 0.56607 0.00685 0.0
H677 H 0.31185 0.69416 0.10367 0.0
H678 H 0.27672 0.65458 0.99151 0.0
H679 H 0.33577 0.60152 0.12212 0.0
H680 H 0.31047 0.68143 0.06154 0.0
H681 H 0.34283 0.58013 0.0482 0.0
C682 C 0.32072 0.5885 0.01214 0.0
C683 C 0.30141 0.60912 0.99575 0.0
C684 C 0.31618 0.6639 0.07479 0.0
C685 C 0.31712 0.62536 0.04299 0.0
C686 C 0.31679 0.67112 0.09887 0.0
C687 C 0.32312 0.64879 0.11651 0.0
C688 C 0.322 0.63412 0.06823 0.0
C689 C 0.33076 0.61946 0.10916 0.0
C690 C 0.32847 0.59648 0.03576 0.0
C691 C 0.29125 0.63789 0.00359 0.0
N692 N 0.32962 0.61292 0.08557 0.0
N693 N 0.29914 0.64513 0.02666 0.0
H694 H 0.26344 0.8746 0.50249 0.0
H695 H 0.03844 0.8402 0.58342 0.0
H696 H 0.12291 0.87109 0.47505 0.0
H697 H 0.17587 0.8543 0.61243 0.0
H698 H 0.06976 0.84874 0.54329 0.0
H699 H 0.23305 0.8642 0.54266 0.0
C700 C 0.22625 0.87149 0.50488 0.0
C701 C 0.19566 0.87377 0.48538 0.0
C702 C 0.09311 0.84997 0.55841 0.0
C703 C 0.16068 0.86198 0.53126 0.0
C704 C 0.07527 0.84496 0.58132 0.0
C705 C 0.10461 0.8465 0.60128 0.0
C706 C 0.14073 0.85643 0.55539 0.0
C707 C 0.15194 0.85319 0.59754 0.0
C708 C 0.20891 0.86566 0.52782 0.0
C709 C 0.1478 0.86959 0.48955 0.0
N710 N 0.16857 0.85782 0.57503 0.0
N711 N 0.13181 0.86394 0.51201 0.0
H712 H 0.11999 0.30364 0.32792 0.0
H713 H 0.14931 0.14061 0.2744 0.0
H714 H 0.24735 0.2527 0.33352 0.0
H715 H 0.02387 0.19339 0.26823 0.0
H716 H 0.18714 0.18177 0.29482 0.0
H717 H 0.08533 0.26378 0.30492 0.0
C718 C 0.14075 0.2841 0.32425 0.0
C719 C 0.18662 0.28149 0.33271 0.0
C720 C 0.15138 0.18435 0.28892 0.0
C721 C 0.14703 0.2356 0.30639 0.0
C722 C 0.12984 0.16091 0.27714 0.0
C723 C 0.08342 0.16358 0.26947 0.0
C724 C 0.12618 0.21056 0.2932 0.0
C725 C 0.05964 0.19023 0.27391 0.0
C726 C 0.12092 0.26131 0.3111 0.0
C727 C 0.21185 0.25565 0.32735 0.0
N728 N 0.08126 0.21262 0.2855 0.0
N729 N 0.19167 0.23365 0.3146 0.0
H730 H 0.38095 0.20248 0.85967 0.0
H731 H 0.45925 0.37064 0.83081 0.0
H732 H 0.41161 0.26742 0.91323 0.0
H733 H 0.45805 0.30223 0.77785 0.0
H734 H 0.42874 0.33483 0.86014 0.0
H735 H 0.39566 0.24057 0.82856 0.0
C736 C 0.39016 0.22483 0.86491 0.0
C737 C 0.39547 0.23172 0.8891 0.0
C738 C 0.43475 0.32763 0.84207 0.0
C739 C 0.4124 0.27527 0.85362 0.0
C740 C 0.45227 0.34807 0.82529 0.0
C741 C 0.46138 0.33934 0.80184 0.0
C742 C 0.42633 0.29813 0.83545 0.0
C743 C 0.45113 0.30992 0.79566 0.0
C744 C 0.39874 0.24649 0.84713 0.0
C745 C 0.40748 0.26103 0.89482 0.0
N746 N 0.4344 0.29025 0.81243 0.0
N747 N 0.41576 0.28165 0.87723 0.0
H748 H 0.77918 0.23648 0.68069 0.0
H749 H 0.54561 0.3302 0.69092 0.0
H750 H 0.65962 0.22112 0.63582 0.0
H751 H 0.64126 0.31905 0.75 0.0
H752 H 0.58942 0.29308 0.669 0.0
H753 H 0.73197 0.26989 0.70483 0.0
C754 C 0.74299 0.24012 0.67593 0.0
C755 C 0.72332 0.22609 0.65617 0.0
C756 C 0.60064 0.29867 0.68681 0.0
C757 C 0.66933 0.26441 0.68359 0.0
C758 C 0.57572 0.31994 0.69937 0.0
C759 C 0.58992 0.32805 0.72234 0.0
C760 C 0.64053 0.28568 0.69709 0.0
C761 C 0.62916 0.31377 0.73229 0.0
C762 C 0.71605 0.25906 0.68978 0.0
C763 C 0.67618 0.23147 0.65091 0.0
N764 N 0.65339 0.29351 0.71951 0.0
N765 N 0.65088 0.25043 0.66441 0.0
H766 H 0.94541 0.25797 0.08622 0.0
H767 H 0.93058 0.18675 0.21776 0.0
H768 H 0.85865 0.29379 0.14171 0.0
H769 H 0.99797 0.14366 0.15874 0.0
H770 H 0.903 0.22579 0.19025 0.0
H771 H 0.96409 0.21557 0.11249 0.0
C772 C 0.93007 0.25684 0.1039 0.0
C773 C 0.90065 0.27957 0.11183 0.0
C774 C 0.92361 0.2077 0.18331 0.0
C775 C 0.92218 0.23112 0.1421 0.0
C776 C 0.93947 0.18538 0.19902 0.0
C777 C 0.96707 0.16194 0.19063 0.0
C778 C 0.93564 0.20674 0.15903 0.0
C779 C 0.97715 0.16137 0.1661 0.0
C780 C 0.94071 0.23258 0.11889 0.0
C781 C 0.88159 0.27682 0.13487 0.0
N782 N 0.96175 0.18354 0.15123 0.0
N783 N 0.89299 0.25316 0.14928 0.0
H784 H 0.87814 0.69652 0.64886 0.0
H785 H 0.88151 0.86078 0.70153 0.0
H786 H 0.75863 0.75499 0.64747 0.0
H787 H 0.98686 0.79486 0.71774 0.0
H788 H 0.83813 0.82355 0.67929 0.0
H789 H 0.92113 0.73364 0.67144 0.0
C790 C 0.86093 0.71716 0.65328 0.0
C791 C 0.81467 0.72263 0.64627 0.0
C792 C 0.87075 0.81721 0.68768 0.0
C793 C 0.86376 0.76526 0.67206 0.0
C794 C 0.89542 0.83842 0.70046 0.0
C795 C 0.93773 0.83086 0.71155 0.0
C796 C 0.88887 0.78829 0.68569 0.0
C797 C 0.95456 0.8017 0.70927 0.0
C798 C 0.88547 0.73831 0.66623 0.0
C799 C 0.79418 0.74979 0.65253 0.0
N800 N 0.93015 0.78149 0.69653 0.0
N801 N 0.81889 0.77011 0.66501 0.0
H802 H 0.75028 0.74831 0.14457 0.0
H803 H 0.50143 0.70658 0.20172 0.0
H804 H 0.62911 0.80457 0.1359 0.0
H805 H 0.62568 0.65321 0.20951 0.0
H806 H 0.54594 0.74267 0.177 0.0
H807 H 0.70377 0.71317 0.16818 0.0
C808 C 0.71382 0.75328 0.14761 0.0
C809 C 0.69359 0.77943 0.13821 0.0
C810 C 0.56337 0.72304 0.18417 0.0
C811 C 0.63982 0.73912 0.16534 0.0
C812 C 0.53797 0.70246 0.19814 0.0
C813 C 0.56021 0.6772 0.2079 0.0
C814 C 0.61103 0.71798 0.17981 0.0
C815 C 0.60755 0.6728 0.20283 0.0
C816 C 0.68719 0.73317 0.16113 0.0
C817 C 0.64612 0.78465 0.14279 0.0
N818 N 0.63132 0.69295 0.18918 0.0
N819 N 0.62079 0.76466 0.15606 0.0
H820 H 0.39472 0.791 0.38029 0.0
H821 H 0.39657 0.6947 0.26398 0.0
H822 H 0.27004 0.77377 0.33975 0.0
H823 H 0.48618 0.6707 0.32331 0.0
H824 H 0.35722 0.73057 0.28896 0.0
H825 H 0.43581 0.7529 0.35734 0.0
C826 C 0.37604 0.77921 0.36659 0.0
C827 C 0.32896 0.78558 0.36183 0.0
C828 C 0.38545 0.7174 0.29651 0.0
C829 C 0.37578 0.74264 0.33545 0.0
C830 C 0.40817 0.69695 0.28225 0.0
C831 C 0.44457 0.67931 0.29158 0.0
C832 C 0.3998 0.72095 0.32017 0.0
C833 C 0.45809 0.68362 0.3154 0.0
C834 C 0.39941 0.75745 0.35364 0.0
C835 C 0.30629 0.76954 0.34401 0.0
N836 N 0.43585 0.70418 0.32888 0.0
N837 N 0.33005 0.74908 0.33128 0.0
H838 H 0.22946 0.75227 0.86969 0.0
H839 H 0.05298 0.78933 0.76463 0.0
H840 H 0.1419 0.68459 0.83936 0.0
H841 H 0.0814 0.85299 0.81936 0.0
H842 H 0.095 0.75123 0.78806 0.0
H843 H 0.18497 0.79052 0.84755 0.0
C844 C 0.20097 0.74548 0.85834 0.0
C845 C 0.18926 0.71525 0.85634 0.0
C846 C 0.09184 0.7735 0.79497 0.0
C847 C 0.13891 0.75869 0.83088 0.0
C848 C 0.0681 0.79521 0.78161 0.0
C849 C 0.06381 0.8242 0.79019 0.0
C850 C 0.11227 0.78106 0.81677 0.0
C851 C 0.08378 0.83077 0.8123 0.0
C852 C 0.17552 0.76728 0.84586 0.0
C853 C 0.15192 0.70765 0.84148 0.0
N854 N 0.10768 0.80939 0.82477 0.0
N855 N 0.12832 0.72922 0.82912 0.0
loop_
_geom_bond_atom_site_label_1
_geom_bond_atom_site_label_2
_geom_bond_distance
_geom_bond_site_symmetry_2
_ccdc_geom_bond_type
O0 Cd1 2.300 . S
O0 C7 1.275 . S
Cd1 O0 2.300 . S
Cd1 O9 2.381 . S
Cd1 O10 2.378 . S
O2 Cd3 2.385 . S
O2 C7 1.255 . S
Cd3 O2 2.385 . S
Cd3 O4 2.317 . S
O4 Cd3 2.317 . S
O4 C5 1.232 . S
C5 O4 1.232 . S
C5 O6 1.218 . S
O6 C5 1.218 . S
C7 O0 1.275 . S
C7 O2 1.255 . S
C8 O9 1.258 . S
C8 O10 1.256 . S
O9 Cd1 2.381 . S
O9 C8 1.258 . S
O10 Cd1 2.378 . S
O10 C8 1.256 . S
O11 Cd12 2.300 . S
O11 C18 1.275 . S
Cd12 O11 2.300 . S
Cd12 O20 2.381 . S
Cd12 O21 2.378 . S
O13 Cd14 2.385 . S
O13 C18 1.255 . S
Cd14 O13 2.385 . S
Cd14 O15 2.317 . S
O15 Cd14 2.317 . S
O15 C16 1.232 . S
C16 O15 1.232 . S
C16 O17 1.218 . S
O17 C16 1.218 . S
C18 O11 1.275 . S
C18 O13 1.255 . S
C19 O20 1.258 . S
C19 O21 1.256 . S
O20 Cd12 2.381 . S
O20 C19 1.258 . S
O21 Cd12 2.378 . S
O21 C19 1.256 . S
O22 Cd23 2.300 . S
O22 C29 1.275 . S
Cd23 O22 2.300 . S
Cd23 O31 2.381 . S
Cd23 O32 2.378 . S
O24 Cd25 2.385 . S
O24 C29 1.255 . S
Cd25 O24 2.385 . S
Cd25 O26 2.317 . S
O26 Cd25 2.317 . S
O26 C27 1.232 . S
C27 O26 1.232 . S
C27 O28 1.218 . S
O28 C27 1.218 . S
C29 O22 1.275 . S
C29 O24 1.255 . S
C30 O31 1.258 . S
C30 O32 1.256 . S
O31 Cd23 2.381 . S
O31 C30 1.258 . S
O32 Cd23 2.378 . S
O32 C30 1.256 . S
O33 Cd34 2.300 . S
O33 C40 1.275 . S
Cd34 O33 2.300 . S
Cd34 O42 2.381 . S
Cd34 O43 2.378 . S
O35 Cd36 2.385 . S
O35 C40 1.255 . S
Cd36 O35 2.385 . S
Cd36 O37 2.317 . S
O37 Cd36 2.317 . S
O37 C38 1.232 . S
C38 O37 1.232 . S
C38 O39 1.218 . S
O39 C38 1.218 . S
C40 O33 1.275 . S
C40 O35 1.255 . S
C41 O42 1.258 . S
C41 O43 1.256 . S
O42 Cd34 2.381 . S
O42 C41 1.258 . S
O43 Cd34 2.378 . S
O43 C41 1.256 . S
O44 Cd45 2.300 . S
O44 C51 1.275 . S
Cd45 O44 2.300 . S
Cd45 O53 2.381 . S
Cd45 O54 2.378 . S
O46 Cd47 2.385 . S
O46 C51 1.255 . S
Cd47 O46 2.385 . S
Cd47 O48 2.317 . S
O48 Cd47 2.317 . S
O48 C49 1.232 . S
C49 O48 1.232 . S
C49 O50 1.218 . S
O50 C49 1.218 . S
C51 O44 1.275 . S
C51 O46 1.255 . S
C52 O53 1.258 . S
C52 O54 1.256 . S
O53 Cd45 2.381 . S
O53 C52 1.258 . S
O54 Cd45 2.378 . S
O54 C52 1.256 . S
O55 Cd56 2.300 . S
O55 C62 1.275 . S
Cd56 O55 2.300 . S
Cd56 O64 2.381 . S
Cd56 O65 2.378 . S
O57 Cd58 2.385 . S
O57 C62 1.255 . S
Cd58 O57 2.385 . S
Cd58 O59 2.317 . S
O59 Cd58 2.317 . S
O59 C60 1.232 . S
C60 O59 1.232 . S
C60 O61 1.218 . S
O61 C60 1.218 . S
C62 O55 1.275 . S
C62 O57 1.255 . S
C63 O64 1.258 . S
C63 O65 1.256 . S
O64 Cd56 2.381 . S
O64 C63 1.258 . S
O65 Cd56 2.378 . S
O65 C63 1.256 . S
O66 Cd67 2.300 . S
O66 C73 1.275 . S
Cd67 O66 2.300 . S
Cd67 O75 2.381 . S
Cd67 O76 2.378 . S
O68 Cd69 2.385 . S
O68 C73 1.255 . S
Cd69 O68 2.385 . S
Cd69 O70 2.317 . S
O70 Cd69 2.317 . S
O70 C71 1.232 . S
C71 O70 1.232 . S
C71 O72 1.218 . S
O72 C71 1.218 . S
C73 O66 1.275 . S
C73 O68 1.255 . S
C74 O75 1.258 . S
C74 O76 1.256 . S
O75 Cd67 2.381 . S
O75 C74 1.258 . S
O76 Cd67 2.378 . S
O76 C74 1.256 . S
O77 Cd78 2.300 . S
O77 C84 1.275 . S
Cd78 O77 2.300 . S
Cd78 O86 2.381 . S
Cd78 O87 2.378 . S
O79 Cd80 2.385 . S
O79 C84 1.255 . S
Cd80 O79 2.385 . S
Cd80 O81 2.317 . S
O81 Cd80 2.317 . S
O81 C82 1.232 . S
C82 O81 1.232 . S
C82 O83 1.218 . S
O83 C82 1.218 . S
C84 O77 1.275 . S
C84 O79 1.255 . S
C85 O86 1.258 . S
C85 O87 1.256 . S
O86 Cd78 2.381 . S
O86 C85 1.258 . S
O87 Cd78 2.378 . S
O87 C85 1.256 . S
Eu88 N117 2.600 . S
Eu88 N123 2.562 . S
Eu88 O132 2.462 . S
Eu88 O133 2.373 . S
Eu88 O135 2.432 . S
Eu88 O136 2.291 . S
Eu88 O140 2.335 . S
Eu88 O143 2.372 . S
Eu88 C152 2.787 . S
C89 N90 1.365 . S
C89 C92 1.405 . S
C89 C96 1.448 . S
N90 C89 1.365 . S
N90 C93 1.319 . S
N90 Eu99 2.600 . S
C91 C93 1.397 . S
C91 C94 1.367 . S
C91 H111 0.931 . S
C92 C89 1.405 . S
C92 C94 1.403 . S
C92 C98 1.439 . S
C93 N90 1.319 . S
C93 C91 1.397 . S
C93 H104 0.930 . S
C94 C91 1.367 . S
C94 C92 1.403 . S
C94 H115 0.929 . S
C95 C96 1.430 . S
C95 C97 1.387 . S
C95 C101 1.404 . S
C96 C89 1.448 . S
C96 C95 1.430 . S
C96 N100 1.351 . S
C97 C95 1.387 . S
C97 C98 1.374 . S
C97 H112 0.931 . S
C98 C92 1.439 . S
C98 C97 1.374 . S
C98 H113 0.931 . S
Eu99 N90 2.600 . S
Eu99 N100 2.562 . S
Eu99 O134 2.335 1_655 S
Eu99 O137 2.372 . S
Eu99 O138 2.462 . S
Eu99 O139 2.373 . S
Eu99 O141 2.432 . S
Eu99 O142 2.291 1_655 S
Eu99 C163 2.787 . S
N100 C96 1.351 . S
N100 Eu99 2.562 . S
N100 C102 1.325 . S
C101 C95 1.404 . S
C101 C103 1.366 . S
C101 H109 0.930 1_545 S
C102 N100 1.325 . S
C102 C103 1.416 . S
C102 H108 0.929 . S
C103 C101 1.366 . S
C103 C102 1.416 . S
C103 H105 0.930 1_545 S
H104 C93 0.930 . S
H105 C103 0.930 1_565 S
H106 C121 0.930 . S
H107 C128 0.930 . S
H108 C102 0.929 . S
H109 C101 0.930 1_565 S
H110 C124 0.929 . S
H111 C91 0.931 . S
H112 C97 0.931 . S
H113 C98 0.931 . S
H114 C119 0.931 . S
H115 C94 0.929 . S
H116 C127 0.930 . S
N117 Eu88 2.600 . S
N117 C118 1.365 . S
N117 C121 1.319 . S
C118 N117 1.365 . S
C118 C120 1.405 . S
C118 C126 1.448 . S
C119 H114 0.931 . S
C119 C121 1.397 . S
C119 C122 1.367 . S
C120 C118 1.405 . S
C120 C122 1.403 . S
C120 C153 1.439 . S
C121 H106 0.930 . S
C121 N117 1.319 . S
C121 C119 1.397 . S
C122 C119 1.367 . S
C122 C120 1.403 . S
C122 H129 0.929 . S
N123 Eu88 2.562 . S
N123 C124 1.325 . S
N123 C126 1.351 . S
C124 H110 0.929 . S
C124 N123 1.325 . S
C124 C128 1.416 . S
C125 C126 1.430 . S
C125 C127 1.404 . S
C125 C154 1.387 . S
C126 C118 1.448 . S
C126 N123 1.351 . S
C126 C125 1.430 . S
C127 H116 0.930 . S
C127 C125 1.404 . S
C127 C128 1.366 . S
C128 H107 0.930 . S
C128 C124 1.416 . S
C128 C127 1.366 . S
H129 C122 0.929 . S
H130 C153 0.931 . S
H131 C154 0.931 . S
O132 Eu88 2.462 . S
O132 C152 1.252 . S
O133 Eu88 2.373 . S
O133 C144 1.249 . S
O134 Eu99 2.335 1_455 S
O134 C144 1.264 . S
O135 Eu88 2.432 . S
O135 C152 1.268 . S
O136 Eu88 2.291 . S
O136 C151 1.255 1_455 S
O137 Eu99 2.372 . S
O137 C151 1.257 . S
O138 Eu99 2.462 . S
O138 C163 1.252 . S
O139 Eu99 2.373 . S
O139 C155 1.249 . S
O140 Eu88 2.335 . S
O140 C155 1.264 1_455 S
O141 Eu99 2.432 . S
O141 C163 1.268 . S
O142 Eu99 2.291 1_455 S
O142 C162 1.255 . S
O143 Eu88 2.372 . S
O143 C162 1.257 . S
C144 O133 1.249 . S
C144 O134 1.264 . S
C145 C148 1.382 . S
C145 C150 1.390 . S
C145 C152 1.506 . S
C146 C147 1.398 . S
C146 C150 1.392 . S
C147 C146 1.398 . S
C147 C149 1.372 . S
C147 H164 0.931 . S
C148 C145 1.382 . S
C148 C149 1.390 . S
C148 H165 0.931 . S
C149 C147 1.372 . S
C149 C148 1.390 . S
C149 H166 0.929 . S
C150 C145 1.390 . S
C150 C146 1.392 . S
C150 H167 0.930 . S
C151 O136 1.255 1_655 S
C151 O137 1.257 . S
C152 Eu88 2.787 . S
C152 O132 1.252 . S
C152 O135 1.268 . S
C152 C145 1.506 . S
C153 C120 1.439 . S
C153 H130 0.931 . S
C153 C154 1.374 . S
C154 C125 1.387 . S
C154 H131 0.931 . S
C154 C153 1.374 . S
C155 O139 1.249 . S
C155 O140 1.264 1_655 S
C156 C159 1.382 . S
C156 C160 1.390 . S
C156 C163 1.506 . S
C157 C158 1.398 . S
C157 C160 1.392 . S
C158 C157 1.398 . S
C158 C161 1.372 . S
C158 H168 0.931 . S
C159 C156 1.382 . S
C159 C161 1.390 . S
C159 H169 0.931 . S
C160 C156 1.390 . S
C160 C157 1.392 . S
C160 H170 0.930 . S
C161 C158 1.372 . S
C161 C159 1.390 . S
C161 H171 0.929 . S
C162 O142 1.255 . S
C162 O143 1.257 . S
C163 Eu99 2.787 . S
C163 O138 1.252 . S
C163 O141 1.268 . S
C163 C156 1.506 . S
H164 C147 0.931 . S
H165 C148 0.931 . S
H166 C149 0.929 . S
H167 C150 0.930 . S
H168 C158 0.931 . S
H169 C159 0.931 . S
H170 C160 0.930 . S
H171 C161 0.929 . S
Eu172 N201 2.600 . S
Eu172 N207 2.562 . S
Eu172 O216 2.462 . S
Eu172 O217 2.373 . S
Eu172 O219 2.432 . S
Eu172 O220 2.291 . S
Eu172 O224 2.335 . S
Eu172 O227 2.372 . S
Eu172 C236 2.787 . S
C173 N174 1.365 . S
C173 C176 1.405 . S
C173 C180 1.448 . S
N174 C173 1.365 . S
N174 C177 1.319 . S
N174 Eu183 2.600 . S
C175 C177 1.397 . S
C175 C178 1.367 . S
C175 H195 0.931 . S
C176 C173 1.405 . S
C176 C178 1.403 . S
C176 C182 1.439 . S
C177 N174 1.319 . S
C177 C175 1.397 . S
C177 H188 0.930 . S
C178 C175 1.367 . S
C178 C176 1.403 . S
C178 H199 0.929 . S
C179 C180 1.430 . S
C179 C181 1.387 . S
C179 C185 1.404 . S
C180 C173 1.448 . S
C180 C179 1.430 . S
C180 N184 1.351 . S
C181 C179 1.387 . S
C181 C182 1.374 . S
C181 H196 0.931 . S
C182 C176 1.439 . S
C182 C181 1.374 . S
C182 H197 0.931 . S
Eu183 N174 2.600 . S
Eu183 N184 2.562 . S
Eu183 O218 2.335 . S
Eu183 O221 2.372 . S
Eu183 O222 2.462 . S
Eu183 O223 2.373 . S
Eu183 O225 2.432 . S
Eu183 O226 2.291 . S
Eu183 C247 2.787 . S
N184 C180 1.351 . S
N184 Eu183 2.562 . S
N184 C186 1.325 . S
C185 C179 1.404 . S
C185 C187 1.366 . S
C185 H193 0.930 . S
C186 N184 1.325 . S
C186 C187 1.416 . S
C186 H192 0.929 . S
C187 C185 1.366 . S
C187 C186 1.416 . S
C187 H189 0.930 . S
H188 C177 0.930 . S
H189 C187 0.930 . S
H190 C205 0.930 . S
H191 C212 0.930 . S
H192 C186 0.929 . S
H193 C185 0.930 . S
H194 C208 0.929 . S
H195 C175 0.931 . S
H196 C181 0.931 . S
H197 C182 0.931 . S
H198 C203 0.931 . S
H199 C178 0.929 . S
H200 C211 0.930 . S
N201 Eu172 2.600 . S
N201 C202 1.365 . S
N201 C205 1.319 . S
C202 N201 1.365 . S
C202 C204 1.405 . S
C202 C210 1.448 . S
C203 H198 0.931 . S
C203 C205 1.397 . S
C203 C206 1.367 . S
C204 C202 1.405 . S
C204 C206 1.403 . S
C204 C237 1.439 . S
C205 H190 0.930 . S
C205 N201 1.319 . S
C205 C203 1.397 . S
C206 C203 1.367 . S
C206 C204 1.403 . S
C206 H213 0.929 . S
N207 Eu172 2.562 . S
N207 C208 1.325 . S
N207 C210 1.351 . S
C208 H194 0.929 . S
C208 N207 1.325 . S
C208 C212 1.416 . S
C209 C210 1.430 . S
C209 C211 1.404 . S
C209 C238 1.387 . S
C210 C202 1.448 . S
C210 N207 1.351 . S
C210 C209 1.430 . S
C211 H200 0.930 . S
C211 C209 1.404 . S
C211 C212 1.366 . S
C212 H191 0.930 . S
C212 C208 1.416 . S
C212 C211 1.366 . S
H213 C206 0.929 . S
H214 C237 0.931 . S
H215 C238 0.931 . S
O216 Eu172 2.462 . S
O216 C236 1.252 . S
O217 Eu172 2.373 . S
O217 C228 1.249 . S
O218 Eu183 2.335 . S
O218 C228 1.264 . S
O219 Eu172 2.432 . S
O219 C236 1.268 . S
O220 Eu172 2.291 . S
O220 C235 1.255 . S
O221 Eu183 2.372 . S
O221 C235 1.257 . S
O222 Eu183 2.462 . S
O222 C247 1.252 . S
O223 Eu183 2.373 . S
O223 C239 1.249 . S
O224 Eu172 2.335 . S
O224 C239 1.264 . S
O225 Eu183 2.432 . S
O225 C247 1.268 . S
O226 Eu183 2.291 . S
O226 C246 1.255 . S
O227 Eu172 2.372 . S
O227 C246 1.257 . S
C228 O217 1.249 . S
C228 O218 1.264 . S
C229 C232 1.382 . S
C229 C234 1.390 . S
C229 C236 1.506 . S
C230 C231 1.398 . S
C230 C234 1.392 . S
C231 C230 1.398 . S
C231 C233 1.372 . S
C231 H248 0.931 . S
C232 C229 1.382 . S
C232 C233 1.390 . S
C232 H249 0.931 . S
C233 C231 1.372 . S
C233 C232 1.390 . S
C233 H250 0.929 . S
C234 C229 1.390 . S
C234 C230 1.392 . S
C234 H251 0.930 . S
C235 O220 1.255 . S
C235 O221 1.257 . S
C236 Eu172 2.787 . S
C236 O216 1.252 . S
C236 O219 1.268 . S
C236 C229 1.506 . S
C237 C204 1.439 . S
C237 H214 0.931 . S
C237 C238 1.374 . S
C238 C209 1.387 . S
C238 H215 0.931 . S
C238 C237 1.374 . S
C239 O223 1.249 . S
C239 O224 1.264 . S
C240 C243 1.382 . S
C240 C244 1.390 . S
C240 C247 1.506 . S
C241 C242 1.398 . S
C241 C244 1.392 . S
C242 C241 1.398 . S
C242 C245 1.372 . S
C242 H252 0.931 . S
C243 C240 1.382 . S
C243 C245 1.390 . S
C243 H253 0.931 . S
C244 C240 1.390 . S
C244 C241 1.392 . S
C244 H254 0.930 . S
C245 C242 1.372 . S
C245 C243 1.390 . S
C245 H255 0.929 . S
C246 O226 1.255 . S
C246 O227 1.257 . S
C247 Eu183 2.787 . S
C247 O222 1.252 . S
C247 O225 1.268 . S
C247 C240 1.506 . S
H248 C231 0.931 . S
H249 C232 0.931 . S
H250 C233 0.929 . S
H251 C234 0.930 . S
H252 C242 0.931 . S
H253 C243 0.931 . S
H254 C244 0.930 . S
H255 C245 0.929 . S
Eu256 N285 2.600 . S
Eu256 N291 2.562 . S
Eu256 O300 2.462 . S
Eu256 O301 2.373 . S
Eu256 O303 2.432 . S
Eu256 O304 2.291 . S
Eu256 O308 2.345 . S
Eu256 O311 2.372 . S
Eu256 C320 2.787 . S
C257 N258 1.365 . S
C257 C260 1.405 . S
C257 C264 1.448 . S
N258 C257 1.365 . S
N258 C261 1.319 . S
N258 Eu267 2.600 . S
C259 C261 1.397 . S
C259 C262 1.367 . S
C259 H279 0.931 . S
C260 C257 1.405 . S
C260 C262 1.403 . S
C260 C266 1.439 . S
C261 N258 1.319 . S
C261 C259 1.397 . S
C261 H272 0.930 . S
C262 C259 1.367 . S
C262 C260 1.403 . S
C262 H283 0.929 . S
C263 C264 1.430 . S
C263 C265 1.387 . S
C263 C269 1.404 . S
C264 C257 1.448 . S
C264 C263 1.430 . S
C264 N268 1.351 . S
C265 C263 1.387 . S
C265 C266 1.374 . S
C265 H280 0.931 . S
C266 C260 1.439 . S
C266 C265 1.374 . S
C266 H281 0.931 . S
Eu267 N258 2.600 . S
Eu267 N268 2.562 . S
Eu267 O302 2.335 1_655 S
Eu267 O305 2.372 . S
Eu267 O306 2.462 . S
Eu267 O307 2.373 . S
Eu267 O309 2.432 . S
Eu267 O310 2.291 1_655 S
Eu267 C331 2.787 . S
N268 C264 1.351 . S
N268 Eu267 2.562 . S
N268 C270 1.325 . S
C269 C263 1.404 . S
C269 C271 1.366 . S
C269 H277 0.930 . S
C270 N268 1.325 . S
C270 C271 1.416 . S
C270 H276 0.929 . S
C271 C269 1.366 . S
C271 C270 1.416 . S
C271 H273 0.930 . S
H272 C261 0.930 . S
H273 C271 0.930 . S
H274 C289 0.930 . S
H275 C296 0.930 1_545 S
H276 C270 0.929 . S
H277 C269 0.930 . S
H278 C292 0.929 . S
H279 C259 0.931 . S
H280 C265 0.931 . S
H281 C266 0.931 . S
H282 C287 0.931 . S
H283 C262 0.929 . S
H284 C295 0.930 1_545 S
N285 Eu256 2.600 . S
N285 C286 1.365 . S
N285 C289 1.319 . S
C286 N285 1.365 . S
C286 C288 1.405 . S
C286 C294 1.448 . S
C287 H282 0.931 . S
C287 C289 1.397 . S
C287 C290 1.367 . S
C288 C286 1.405 . S
C288 C290 1.403 . S
C288 C321 1.439 . S
C289 H274 0.930 . S
C289 N285 1.319 . S
C289 C287 1.397 . S
C290 C287 1.367 . S
C290 C288 1.403 . S
C290 H297 0.929 . S
N291 Eu256 2.562 . S
N291 C292 1.325 . S
N291 C294 1.351 . S
C292 H278 0.929 . S
C292 N291 1.325 . S
C292 C296 1.416 . S
C293 C294 1.430 . S
C293 C295 1.404 . S
C293 C322 1.387 . S
C294 C286 1.448 . S
C294 N291 1.351 . S
C294 C293 1.430 . S
C295 H284 0.930 1_565 S
C295 C293 1.404 . S
C295 C296 1.366 . S
C296 H275 0.930 1_565 S
C296 C292 1.416 . S
C296 C295 1.366 . S
H297 C290 0.929 . S
H298 C321 0.931 . S
H299 C322 0.931 . S
O300 Eu256 2.462 . S
O300 C320 1.252 . S
O301 Eu256 2.373 . S
O301 C312 1.249 . S
O302 Eu267 2.335 1_455 S
O302 C312 1.264 . S
O303 Eu256 2.432 . S
O303 C320 1.268 . S
O304 Eu256 2.291 . S
O304 C319 1.255 1_455 S
O305 Eu267 2.372 . S
O305 C319 1.257 . S
O306 Eu267 2.462 . S
O306 C331 1.252 . S
O307 Eu267 2.373 . S
O307 C323 1.249 . S
O308 Eu256 2.345 . S
O308 C323 1.251 1_455 S
O309 Eu267 2.432 . S
O309 C331 1.268 . S
O310 Eu267 2.291 1_455 S
O310 C330 1.255 . S
O311 Eu256 2.372 . S
O311 C330 1.257 . S
C312 O301 1.249 . S
C312 O302 1.264 . S
C313 C316 1.382 . S
C313 C318 1.390 . S
C313 C320 1.506 . S
C314 C315 1.398 . S
C314 C318 1.392 . S
C315 C314 1.398 . S
C315 C317 1.372 . S
C315 H332 0.931 . S
C316 C313 1.382 . S
C316 C317 1.390 . S
C316 H333 0.931 . S
C317 C315 1.372 . S
C317 C316 1.390 . S
C317 H334 0.929 . S
C318 C313 1.390 . S
C318 C314 1.392 . S
C318 H335 0.930 . S
C319 O304 1.255 1_655 S
C319 O305 1.257 . S
C320 Eu256 2.787 . S
C320 O300 1.252 . S
C320 O303 1.268 . S
C320 C313 1.506 . S
C321 C288 1.439 . S
C321 H298 0.931 . S
C321 C322 1.374 . S
C322 C293 1.387 . S
C322 H299 0.931 . S
C322 C321 1.374 . S
C323 O307 1.249 . S
C323 O308 1.251 1_655 S
C324 C327 1.382 . S
C324 C328 1.390 . S
C324 C331 1.506 . S
C325 C326 1.398 . S
C325 C328 1.392 . S
C326 C325 1.398 . S
C326 C329 1.372 . S
C326 H336 0.931 . S
C327 C324 1.382 . S
C327 C329 1.390 . S
C327 H337 0.931 . S
C328 C324 1.390 . S
C328 C325 1.392 . S
C328 H338 0.930 . S
C329 C326 1.372 . S
C329 C327 1.390 . S
C329 H339 0.929 . S
C330 O310 1.255 . S
C330 O311 1.257 . S
C331 Eu267 2.787 . S
C331 O306 1.252 . S
C331 O309 1.268 . S
C331 C324 1.506 . S
H332 C315 0.931 . S
H333 C316 0.931 . S
H334 C317 0.929 . S
H335 C318 0.930 . S
H336 C326 0.931 . S
H337 C327 0.931 . S
H338 C328 0.930 . S
H339 C329 0.929 . S
Eu340 N369 2.600 . S
Eu340 N375 2.562 . S
Eu340 O384 2.462 . S
Eu340 O385 2.373 . S
Eu340 O387 2.432 . S
Eu340 O388 2.291 . S
Eu340 O392 2.335 . S
Eu340 O395 2.372 . S
Eu340 C404 2.787 . S
C341 N342 1.365 . S
C341 C344 1.405 . S
C341 C348 1.448 . S
N342 C341 1.365 . S
N342 C345 1.319 . S
N342 Eu351 2.600 . S
C343 C345 1.397 . S
C343 C346 1.367 . S
C343 H363 0.931 . S
C344 C341 1.405 . S
C344 C346 1.403 . S
C344 C350 1.439 . S
C345 N342 1.319 . S
C345 C343 1.397 . S
C345 H356 0.930 . S
C346 C343 1.367 . S
C346 C344 1.403 . S
C346 H367 0.929 . S
C347 C348 1.430 . S
C347 C349 1.387 . S
C347 C353 1.404 . S
C348 C341 1.448 . S
C348 C347 1.430 . S
C348 N352 1.351 . S
C349 C347 1.387 . S
C349 C350 1.374 . S
C349 H364 0.931 . S
C350 C344 1.439 . S
C350 C349 1.374 . S
C350 H365 0.931 . S
Eu351 N342 2.600 . S
Eu351 N352 2.562 . S
Eu351 O386 2.335 . S
Eu351 O389 2.372 . S
Eu351 O390 2.462 . S
Eu351 O391 2.373 . S
Eu351 O393 2.432 . S
Eu351 O394 2.291 . S
Eu351 C415 2.787 . S
N352 C348 1.351 . S
N352 Eu351 2.562 . S
N352 C354 1.325 . S
C353 C347 1.404 . S
C353 C355 1.366 . S
C353 H361 0.930 . S
C354 N352 1.325 . S
C354 C355 1.416 . S
C354 H360 0.929 . S
C355 C353 1.366 . S
C355 C354 1.416 . S
C355 H357 0.930 . S
H356 C345 0.930 . S
H357 C355 0.930 . S
H358 C373 0.930 . S
H359 C380 0.930 . S
H360 C354 0.929 . S
H361 C353 0.930 . S
H362 C376 0.929 . S
H363 C343 0.931 . S
H364 C349 0.931 . S
H365 C350 0.931 . S
H366 C371 0.931 . S
H367 C346 0.929 . S
H368 C379 0.930 . S
N369 Eu340 2.600 . S
N369 C370 1.365 . S
N369 C373 1.319 . S
C370 N369 1.365 . S
C370 C372 1.405 . S
C370 C378 1.448 . S
C371 H366 0.931 . S
C371 C373 1.397 . S
C371 C374 1.367 . S
C372 C370 1.405 . S
C372 C374 1.403 . S
C372 C405 1.439 . S
C373 H358 0.930 . S
C373 N369 1.319 . S
C373 C371 1.397 . S
C374 C371 1.367 . S
C374 C372 1.403 . S
C374 H381 0.929 . S
N375 Eu340 2.562 . S
N375 C376 1.325 . S
N375 C378 1.351 . S
C376 H362 0.929 . S
C376 N375 1.325 . S
C376 C380 1.416 . S
C377 C378 1.430 . S
C377 C379 1.404 . S
C377 C406 1.387 . S
C378 C370 1.448 . S
C378 N375 1.351 . S
C378 C377 1.430 . S
C379 H368 0.930 . S
C379 C377 1.404 . S
C379 C380 1.366 . S
C380 H359 0.930 . S
C380 C376 1.416 . S
C380 C379 1.366 . S
H381 C374 0.929 . S
H382 C405 0.931 . S
H383 C406 0.931 . S
O384 Eu340 2.462 . S
O384 C404 1.252 . S
O385 Eu340 2.373 . S
O385 C396 1.249 . S
O386 Eu351 2.335 . S
O386 C396 1.264 . S
O387 Eu340 2.432 . S
O387 C404 1.268 . S
O388 Eu340 2.291 . S
O388 C403 1.255 . S
O389 Eu351 2.372 . S
O389 C403 1.257 . S
O390 Eu351 2.462 . S
O390 C415 1.252 . S
O391 Eu351 2.373 . S
O391 C407 1.249 . S
O392 Eu340 2.335 . S
O392 C407 1.264 . S
O393 Eu351 2.432 . S
O393 C415 1.268 . S
O394 Eu351 2.291 . S
O394 C414 1.255 . S
O395 Eu340 2.372 . S
O395 C414 1.257 . S
C396 O385 1.249 . S
C396 O386 1.264 . S
C397 C400 1.382 . S
C397 C402 1.390 . S
C397 C404 1.506 . S
C398 C399 1.398 . S
C398 C402 1.392 . S
C399 C398 1.398 . S
C399 C401 1.372 . S
C399 H416 0.931 . S
C400 C397 1.382 . S
C400 C401 1.390 . S
C400 H417 0.931 . S
C401 C399 1.372 . S
C401 C400 1.390 . S
C401 H418 0.929 . S
C402 C397 1.390 . S
C402 C398 1.392 . S
C402 H419 0.930 . S
C403 O388 1.255 . S
C403 O389 1.257 . S
C404 Eu340 2.787 . S
C404 O384 1.252 . S
C404 O387 1.268 . S
C404 C397 1.506 . S
C405 C372 1.439 . S
C405 H382 0.931 . S
C405 C406 1.374 . S
C406 C377 1.387 . S
C406 H383 0.931 . S
C406 C405 1.374 . S
C407 O391 1.249 . S
C407 O392 1.264 . S
C408 C411 1.382 . S
C408 C412 1.390 . S
C408 C415 1.506 . S
C409 C410 1.398 . S
C409 C412 1.392 . S
C410 C409 1.398 . S
C410 C413 1.372 . S
C410 H420 0.931 . S
C411 C408 1.382 . S
C411 C413 1.390 . S
C411 H421 0.931 . S
C412 C408 1.390 . S
C412 C409 1.392 . S
C412 H422 0.930 . S
C413 C410 1.372 . S
C413 C411 1.390 . S
C413 H423 0.929 . S
C414 O394 1.255 . S
C414 O395 1.257 . S
C415 Eu351 2.787 . S
C415 O390 1.252 . S
C415 O393 1.268 . S
C415 C408 1.506 . S
H416 C399 0.931 . S
H417 C400 0.931 . S
H418 C401 0.929 . S
H419 C402 0.930 . S
H420 C410 0.931 . S
H421 C411 0.931 . S
H422 C412 0.930 . S
H423 C413 0.929 . S
H424 C430 0.930 . S
H425 C434 0.930 1_565 S
H426 C439 0.929 . S
H427 C437 0.929 . S
H428 C432 0.929 . S
H429 C438 0.929 . S
C430 H424 0.930 . S
C430 C431 1.367 . S
C430 C438 1.378 . S
C431 C430 1.367 . S
C431 C439 1.433 . S
C432 H428 0.929 . S
C432 C434 1.378 1_565 S
C432 C436 1.350 . S
C433 C436 1.463 . S
C433 C438 1.350 . S
C433 N441 1.427 . S
C434 H425 0.930 1_545 S
C434 C432 1.378 1_545 S
C434 C435 1.367 . S
C435 C434 1.367 . S
C435 C437 1.433 . S
C436 C432 1.350 . S
C436 C433 1.463 . S
C436 N440 1.427 1_565 S
C437 H427 0.929 . S
C437 C435 1.433 . S
C437 N440 1.384 . S
C438 H429 0.929 . S
C438 C430 1.378 . S
C438 C433 1.350 . S
C439 H426 0.929 . S
C439 C431 1.433 . S
C439 N441 1.384 . S
N440 C436 1.427 1_545 S
N440 C437 1.384 . S
N441 C433 1.427 . S
N441 C439 1.384 . S
H442 C448 0.930 . S
H443 C452 0.930 . S
H444 C457 0.929 . S
H445 C455 0.929 . S
H446 C450 0.929 . S
H447 C456 0.929 . S
C448 H442 0.930 . S
C448 C449 1.367 . S
C448 C456 1.378 . S
C449 C448 1.367 . S
C449 C457 1.433 . S
C450 H446 0.929 . S
C450 C452 1.378 . S
C450 C454 1.350 . S
C451 C454 1.463 . S
C451 C456 1.350 . S
C451 N459 1.427 . S
C452 H443 0.930 . S
C452 C450 1.378 . S
C452 C453 1.367 . S
C453 C452 1.367 . S
C453 C455 1.433 . S
C454 C450 1.350 . S
C454 C451 1.463 . S
C454 N458 1.427 . S
C455 H445 0.929 . S
C455 C453 1.433 . S
C455 N458 1.384 . S
C456 H447 0.929 . S
C456 C448 1.378 . S
C456 C451 1.350 . S
C457 H444 0.929 . S
C457 C449 1.433 . S
C457 N459 1.384 . S
N458 C454 1.427 . S
N458 C455 1.384 . S
N459 C451 1.427 . S
N459 C457 1.384 . S
H460 C466 0.930 . S
H461 C470 0.930 . S
H462 C475 0.929 . S
H463 C473 0.929 . S
H464 C468 0.929 . S
H465 C474 0.929 . S
C466 H460 0.930 . S
C466 C467 1.367 . S
C466 C474 1.378 . S
C467 C466 1.367 . S
C467 C475 1.433 . S
C468 H464 0.929 . S
C468 C470 1.378 . S
C468 C472 1.350 . S
C469 C472 1.463 . S
C469 C474 1.350 . S
C469 N477 1.427 . S
C470 H461 0.930 . S
C470 C468 1.378 . S
C470 C471 1.367 . S
C471 C470 1.367 . S
C471 C473 1.433 . S
C472 C468 1.350 . S
C472 C469 1.463 . S
C472 N476 1.427 . S
C473 H463 0.929 . S
C473 C471 1.433 . S
C473 N476 1.384 . S
C474 H465 0.929 . S
C474 C466 1.378 . S
C474 C469 1.350 . S
C475 H462 0.929 . S
C475 C467 1.433 . S
C475 N477 1.384 . S
N476 C472 1.427 . S
N476 C473 1.384 . S
N477 C469 1.427 . S
N477 C475 1.384 . S
H478 C484 0.930 . S
H479 C488 0.930 . S
H480 C493 0.929 . S
H481 C491 0.929 1_455 S
H482 C486 0.929 . S
H483 C492 0.929 . S
C484 H478 0.930 . S
C484 C485 1.367 . S
C484 C492 1.378 . S
C485 C484 1.367 . S
C485 C493 1.433 . S
C486 H482 0.929 . S
C486 C488 1.378 . S
C486 C490 1.350 1_545 S
C487 C490 1.463 . S
C487 C492 1.350 . S
C487 N495 1.427 . S
C488 H479 0.930 . S
C488 C486 1.378 . S
C488 C489 1.367 . S
C489 C488 1.367 . S
C489 C491 1.433 . S
C490 C486 1.350 1_565 S
C490 C487 1.463 . S
C490 N494 1.427 . S
C491 H481 0.929 1_655 S
C491 C489 1.433 . S
C491 N494 1.384 1_545 S
C492 H483 0.929 . S
C492 C484 1.378 . S
C492 C487 1.350 . S
C493 H480 0.929 . S
C493 C485 1.433 . S
C493 N495 1.384 . S
N494 C490 1.427 . S
N494 C491 1.384 1_565 S
N495 C487 1.427 . S
N495 C493 1.384 . S
H496 C502 0.930 . S
H497 C506 0.930 . S
H498 C511 0.929 . S
H499 C509 0.929 . S
H500 C504 0.929 . S
H501 C510 0.929 . S
C502 H496 0.930 . S
C502 C503 1.367 . S
C502 C510 1.378 . S
C503 C502 1.367 . S
C503 C511 1.433 . S
C504 H500 0.929 . S
C504 C506 1.378 1_545 S
C504 C508 1.350 . S
C505 C508 1.463 . S
C505 C510 1.350 . S
C505 N513 1.427 . S
C506 H497 0.930 . S
C506 C504 1.378 1_565 S
C506 C507 1.367 . S
C507 C506 1.367 . S
C507 C509 1.433 . S
C508 C504 1.350 . S
C508 C505 1.463 . S
C508 N512 1.427 1_545 S
C509 H499 0.929 . S
C509 C507 1.433 . S
C509 N512 1.384 . S
C510 H501 0.929 . S
C510 C502 1.378 . S
C510 C505 1.350 . S
C511 H498 0.929 . S
C511 C503 1.433 . S
C511 N513 1.384 . S
N512 C508 1.427 1_565 S
N512 C509 1.384 . S
N513 C505 1.427 . S
N513 C511 1.384 . S
H514 C520 0.930 . S
H515 C524 0.930 . S
H516 C529 0.929 . S
H517 C527 0.929 . S
H518 C522 0.929 . S
H519 C528 0.929 . S
C520 H514 0.930 . S
C520 C521 1.367 . S
C520 C528 1.378 . S
C521 C520 1.367 . S
C521 C529 1.433 . S
C522 H518 0.929 . S
C522 C524 1.378 . S
C522 C526 1.350 . S
C523 C526 1.463 . S
C523 C528 1.350 . S
C523 N531 1.427 . S
C524 H515 0.930 . S
C524 C522 1.378 . S
C524 C525 1.367 . S
C525 C524 1.367 . S
C525 C527 1.433 . S
C526 C522 1.350 . S
C526 C523 1.463 . S
C526 N530 1.427 . S
C527 H517 0.929 . S
C527 C525 1.433 . S
C527 N530 1.384 . S
C528 H519 0.929 . S
C528 C520 1.378 . S
C528 C523 1.350 . S
C529 H516 0.929 . S
C529 C521 1.433 . S
C529 N531 1.384 . S
N530 C526 1.427 . S
N530 C527 1.384 . S
N531 C523 1.427 . S
N531 C529 1.384 . S
H532 C538 0.930 . S
H533 C542 0.930 . S
H534 C547 0.929 . S
H535 C545 0.929 . S
H536 C540 0.929 . S
H537 C546 0.929 . S
C538 H532 0.930 . S
C538 C539 1.367 . S
C538 C546 1.378 . S
C539 C538 1.367 . S
C539 C547 1.433 . S
C540 H536 0.929 . S
C540 C542 1.378 . S
C540 C544 1.350 . S
C541 C544 1.463 . S
C541 C546 1.350 . S
C541 N549 1.427 . S
C542 H533 0.930 . S
C542 C540 1.378 . S
C542 C543 1.367 . S
C543 C542 1.367 . S
C543 C545 1.433 . S
C544 C540 1.350 . S
C544 C541 1.463 . S
C544 N548 1.427 . S
C545 H535 0.929 . S
C545 C543 1.433 . S
C545 N548 1.384 . S
C546 H537 0.929 . S
C546 C538 1.378 . S
C546 C541 1.350 . S
C547 H534 0.929 . S
C547 C539 1.433 . S
C547 N549 1.384 . S
N548 C544 1.427 . S
N548 C545 1.384 . S
N549 C541 1.427 . S
N549 C547 1.384 . S
H550 C556 0.930 . S
H551 C560 0.930 . S
H552 C565 0.929 . S
H553 C563 0.929 . S
H554 C558 0.929 . S
H555 C564 0.929 . S
C556 H550 0.930 . S
C556 C557 1.367 . S
C556 C564 1.378 . S
C557 C556 1.367 . S
C557 C565 1.433 . S
C558 H554 0.929 . S
C558 C560 1.378 . S
C558 C562 1.350 . S
C559 C562 1.463 1_545 S
C559 C564 1.350 . S
C559 N567 1.427 . S
C560 H551 0.930 . S
C560 C558 1.378 . S
C560 C561 1.367 . S
C561 C560 1.367 . S
C561 C563 1.433 . S
C562 C558 1.350 . S
C562 C559 1.463 1_565 S
C562 N566 1.427 . S
C563 H553 0.929 . S
C563 C561 1.433 . S
C563 N566 1.384 . S
C564 H555 0.929 . S
C564 C556 1.378 . S
C564 C559 1.350 . S
C565 H552 0.929 . S
C565 C557 1.433 . S
C565 N567 1.384 . S
N566 C562 1.427 . S
N566 C563 1.384 . S
N567 C559 1.427 . S
N567 C565 1.384 . S
H568 C574 0.930 . S
H569 C578 0.930 . S
H570 C583 0.929 . S
H571 C581 0.929 . S
H572 C576 0.929 . S
H573 C582 0.929 1_554 S
C574 H568 0.930 . S
C574 C575 1.367 . S
C574 C582 1.378 . S
C575 C574 1.367 . S
C575 C583 1.433 . S
C576 H572 0.929 . S
C576 C578 1.378 . S
C576 C580 1.350 . S
C577 C580 1.463 . S
C577 C582 1.350 1_554 S
C577 N585 1.427 . S
C578 H569 0.930 . S
C578 C576 1.378 . S
C578 C579 1.367 . S
C579 C578 1.367 . S
C579 C581 1.433 . S
C580 C576 1.350 . S
C580 C577 1.463 . S
C580 N584 1.427 . S
C581 H571 0.929 . S
C581 C579 1.433 . S
C581 N584 1.384 . S
C582 H573 0.929 1_556 S
C582 C574 1.378 . S
C582 C577 1.350 1_556 S
C583 H570 0.929 . S
C583 C575 1.433 . S
C583 N585 1.384 1_556 S
N584 C580 1.427 . S
N584 C581 1.384 . S
N585 C577 1.427 . S
N585 C583 1.384 1_554 S
H586 C592 0.930 . S
H587 C596 0.930 . S
H588 C601 0.929 . S
H589 C599 0.929 . S
H590 C594 0.929 . S
H591 C600 0.929 . S
C592 H586 0.930 . S
C592 C593 1.367 . S
C592 C600 1.378 . S
C593 C592 1.367 . S
C593 C601 1.433 . S
C594 H590 0.929 . S
C594 C596 1.378 . S
C594 C598 1.350 . S
C595 C598 1.463 . S
C595 C600 1.350 . S
C595 N603 1.427 . S
C596 H587 0.930 . S
C596 C594 1.378 . S
C596 C597 1.367 . S
C597 C596 1.367 . S
C597 C599 1.433 . S
C598 C594 1.350 . S
C598 C595 1.463 . S
C598 N602 1.427 . S
C599 H589 0.929 . S
C599 C597 1.433 . S
C599 N602 1.384 . S
C600 H591 0.929 . S
C600 C592 1.378 . S
C600 C595 1.350 . S
C601 H588 0.929 . S
C601 C593 1.433 . S
C601 N603 1.384 . S
N602 C598 1.427 . S
N602 C599 1.384 . S
N603 C595 1.427 . S
N603 C601 1.384 . S
H604 C610 0.930 . S
H605 C614 0.930 . S
H606 C619 0.929 . S
H607 C617 0.929 . S
H608 C612 0.929 . S
H609 C618 0.929 . S
C610 H604 0.930 . S
C610 C611 1.367 . S
C610 C618 1.378 1_554 S
C611 C610 1.367 . S
C611 C619 1.433 . S
C612 H608 0.929 . S
C612 C614 1.378 . S
C612 C616 1.350 . S
C613 C616 1.463 . S
C613 C618 1.350 . S
C613 N621 1.427 1_556 S
C614 H605 0.930 . S
C614 C612 1.378 . S
C614 C615 1.367 . S
C615 C614 1.367 . S
C615 C617 1.433 . S
C616 C612 1.350 . S
C616 C613 1.463 . S
C616 N620 1.427 . S
C617 H607 0.929 . S
C617 C615 1.433 . S
C617 N620 1.384 . S
C618 H609 0.929 . S
C618 C610 1.378 1_556 S
C618 C613 1.350 . S
C619 H606 0.929 . S
C619 C611 1.433 . S
C619 N621 1.384 . S
N620 C616 1.427 . S
N620 C617 1.384 . S
N621 C613 1.427 1_554 S
N621 C619 1.384 . S
H622 C628 0.930 . S
H623 C632 0.930 . S
H624 C637 0.929 . S
H625 C635 0.929 . S
H626 C630 0.929 . S
H627 C636 0.929 . S
C628 H622 0.930 . S
C628 C629 1.367 . S
C628 C636 1.378 . S
C629 C628 1.367 . S
C629 C637 1.433 . S
C630 H626 0.929 . S
C630 C632 1.378 . S
C630 C634 1.350 . S
C631 C634 1.463 . S
C631 C636 1.350 . S
C631 N639 1.427 . S
C632 H623 0.930 . S
C632 C630 1.378 . S
C632 C633 1.367 . S
C633 C632 1.367 . S
C633 C635 1.433 . S
C634 C630 1.350 . S
C634 C631 1.463 . S
C634 N638 1.427 . S
C635 H625 0.929 . S
C635 C633 1.433 . S
C635 N638 1.384 . S
C636 H627 0.929 . S
C636 C628 1.378 . S
C636 C631 1.350 . S
C637 H624 0.929 . S
C637 C629 1.433 . S
C637 N639 1.384 . S
N638 C634 1.427 . S
N638 C635 1.384 . S
N639 C631 1.427 . S
N639 C637 1.384 . S
H640 C646 0.930 . S
H641 C650 0.930 . S
H642 C655 0.929 . S
H643 C653 0.929 . S
H644 C648 0.929 . S
H645 C654 0.929 . S
C646 H640 0.930 . S
C646 C647 1.367 . S
C646 C654 1.378 1_554 S
C647 C646 1.367 . S
C647 C655 1.433 . S
C648 H644 0.929 . S
C648 C650 1.378 . S
C648 C652 1.350 . S
C649 C652 1.463 . S
C649 C654 1.350 . S
C649 N657 1.427 . S
C650 H641 0.930 . S
C650 C648 1.378 . S
C650 C651 1.367 . S
C651 C650 1.367 . S
C651 C653 1.433 . S
C652 C648 1.350 . S
C652 C649 1.463 . S
C652 N656 1.427 . S
C653 H643 0.929 . S
C653 C651 1.433 . S
C653 N656 1.384 . S
C654 H645 0.929 . S
C654 C646 1.378 1_556 S
C654 C649 1.350 . S
C655 H642 0.929 . S
C655 C647 1.433 . S
C655 N657 1.384 1_554 S
N656 C652 1.427 . S
N656 C653 1.384 . S
N657 C649 1.427 . S
N657 C655 1.384 1_556 S
H658 C664 0.930 . S
H659 C668 0.930 . S
H660 C673 0.929 . S
H661 C671 0.929 . S
H662 C666 0.929 . S
H663 C672 0.929 . S
C664 H658 0.930 . S
C664 C665 1.367 . S
C664 C672 1.378 . S
C665 C664 1.367 . S
C665 C673 1.433 . S
C666 H662 0.929 . S
C666 C668 1.378 . S
C666 C670 1.350 . S
C667 C670 1.463 . S
C667 C672 1.350 . S
C667 N675 1.427 . S
C668 H659 0.930 . S
C668 C666 1.378 . S
C668 C669 1.367 . S
C669 C668 1.367 . S
C669 C671 1.433 . S
C670 C666 1.350 . S
C670 C667 1.463 . S
C670 N674 1.427 . S
C671 H661 0.929 . S
C671 C669 1.433 . S
C671 N674 1.384 . S
C672 H663 0.929 . S
C672 C664 1.378 . S
C672 C667 1.350 . S
C673 H660 0.929 . S
C673 C665 1.433 . S
C673 N675 1.384 . S
N674 C670 1.427 . S
N674 C671 1.384 . S
N675 C667 1.427 . S
N675 C673 1.384 . S
H676 C682 0.930 . S
H677 C686 0.930 . S
H678 C691 0.929 . S
H679 C689 0.929 . S
H680 C684 0.929 . S
H681 C690 0.929 . S
C682 H676 0.930 . S
C682 C683 1.367 . S
C682 C690 1.378 1_556 S
C683 C682 1.367 . S
C683 C691 1.433 . S
C684 H680 0.929 . S
C684 C686 1.378 . S
C684 C688 1.350 . S
C685 C688 1.463 . S
C685 C690 1.350 . S
C685 N693 1.427 . S
C686 H677 0.930 . S
C686 C684 1.378 . S
C686 C687 1.367 . S
C687 C686 1.367 . S
C687 C689 1.433 . S
C688 C684 1.350 . S
C688 C685 1.463 . S
C688 N692 1.427 . S
C689 H679 0.929 . S
C689 C687 1.433 . S
C689 N692 1.384 . S
C690 H681 0.929 . S
C690 C682 1.378 1_554 S
C690 C685 1.350 . S
C691 H678 0.929 . S
C691 C683 1.433 . S
C691 N693 1.384 1_556 S
N692 C688 1.427 . S
N692 C689 1.384 . S
N693 C685 1.427 . S
N693 C691 1.384 1_554 S
H694 C700 0.930 . S
H695 C704 0.930 . S
H696 C709 0.929 . S
H697 C707 0.929 . S
H698 C702 0.929 . S
H699 C708 0.929 . S
C700 H694 0.930 . S
C700 C701 1.367 . S
C700 C708 1.378 . S
C701 C700 1.367 . S
C701 C709 1.433 . S
C702 H698 0.929 . S
C702 C704 1.378 . S
C702 C706 1.350 . S
C703 C706 1.463 . S
C703 C708 1.350 . S
C703 N711 1.427 . S
C704 H695 0.930 . S
C704 C702 1.378 . S
C704 C705 1.367 . S
C705 C704 1.367 . S
C705 C707 1.433 . S
C706 C702 1.350 . S
C706 C703 1.463 . S
C706 N710 1.427 . S
C707 H697 0.929 . S
C707 C705 1.433 . S
C707 N710 1.384 . S
C708 H699 0.929 . S
C708 C700 1.378 . S
C708 C703 1.350 . S
C709 H696 0.929 . S
C709 C701 1.433 . S
C709 N711 1.384 . S
N710 C706 1.427 . S
N710 C707 1.384 . S
N711 C703 1.427 . S
N711 C709 1.384 . S
H712 C718 0.930 . S
H713 C722 0.930 . S
H714 C727 0.929 . S
H715 C725 0.929 . S
H716 C720 0.929 . S
H717 C726 0.929 . S
C718 H712 0.930 . S
C718 C719 1.367 . S
C718 C726 1.378 . S
C719 C718 1.367 . S
C719 C727 1.433 . S
C720 H716 0.929 . S
C720 C722 1.378 . S
C720 C724 1.350 . S
C721 C724 1.463 . S
C721 C726 1.350 . S
C721 N729 1.427 . S
C722 H713 0.930 . S
C722 C720 1.378 . S
C722 C723 1.367 . S
C723 C722 1.367 . S
C723 C725 1.433 . S
C724 C720 1.350 . S
C724 C721 1.463 . S
C724 N728 1.427 . S
C725 H715 0.929 . S
C725 C723 1.433 . S
C725 N728 1.384 . S
C726 H717 0.929 . S
C726 C718 1.378 . S
C726 C721 1.350 . S
C727 H714 0.929 . S
C727 C719 1.433 . S
C727 N729 1.384 . S
N728 C724 1.427 . S
N728 C725 1.384 . S
N729 C721 1.427 . S
N729 C727 1.384 . S
H730 C736 0.930 . S
H731 C740 0.930 . S
H732 C745 0.929 . S
H733 C743 0.929 . S
H734 C738 0.929 . S
H735 C744 0.929 . S
C736 H730 0.930 . S
C736 C737 1.367 . S
C736 C744 1.378 . S
C737 C736 1.367 . S
C737 C745 1.433 . S
C738 H734 0.929 . S
C738 C740 1.378 . S
C738 C742 1.350 . S
C739 C742 1.463 . S
C739 C744 1.350 . S
C739 N747 1.427 . S
C740 H731 0.930 . S
C740 C738 1.378 . S
C740 C741 1.367 . S
C741 C740 1.367 . S
C741 C743 1.433 . S
C742 C738 1.350 . S
C742 C739 1.463 . S
C742 N746 1.427 . S
C743 H733 0.929 . S
C743 C741 1.433 . S
C743 N746 1.384 . S
C744 H735 0.929 . S
C744 C736 1.378 . S
C744 C739 1.350 . S
C745 H732 0.929 . S
C745 C737 1.433 . S
C745 N747 1.384 . S
N746 C742 1.427 . S
N746 C743 1.384 . S
N747 C739 1.427 . S
N747 C745 1.384 . S
H748 C754 0.930 . S
H749 C758 0.930 . S
H750 C763 0.929 . S
H751 C761 0.929 . S
H752 C756 0.929 . S
H753 C762 0.929 . S
C754 H748 0.930 . S
C754 C755 1.367 . S
C754 C762 1.378 . S
C755 C754 1.367 . S
C755 C763 1.433 . S
C756 H752 0.929 . S
C756 C758 1.378 . S
C756 C760 1.350 . S
C757 C760 1.463 . S
C757 C762 1.350 . S
C757 N765 1.427 . S
C758 H749 0.930 . S
C758 C756 1.378 . S
C758 C759 1.367 . S
C759 C758 1.367 . S
C759 C761 1.433 . S
C760 C756 1.350 . S
C760 C757 1.463 . S
C760 N764 1.427 . S
C761 H751 0.929 . S
C761 C759 1.433 . S
C761 N764 1.384 . S
C762 H753 0.929 . S
C762 C754 1.378 . S
C762 C757 1.350 . S
C763 H750 0.929 . S
C763 C755 1.433 . S
C763 N765 1.384 . S
N764 C760 1.427 . S
N764 C761 1.384 . S
N765 C757 1.427 . S
N765 C763 1.384 . S
H766 C772 0.930 . S
H767 C776 0.930 . S
H768 C781 0.929 . S
H769 C779 0.937 . S
H770 C774 0.929 . S
H771 C780 0.929 . S
C772 H766 0.930 . S
C772 C773 1.367 . S
C772 C780 1.378 . S
C773 C772 1.367 . S
C773 C781 1.433 . S
C774 H770 0.929 . S
C774 C776 1.378 . S
C774 C778 1.350 . S
C775 C778 1.463 . S
C775 C780 1.350 . S
C775 N783 1.427 . S
C776 H767 0.930 . S
C776 C774 1.378 . S
C776 C777 1.367 . S
C777 C776 1.367 . S
C777 C779 1.433 . S
C778 C774 1.350 . S
C778 C775 1.463 . S
C778 N782 1.427 . S
C779 H769 0.937 . S
C779 C777 1.433 . S
C779 N782 1.384 . S
C780 H771 0.929 . S
C780 C772 1.378 . S
C780 C775 1.350 . S
C781 H768 0.929 . S
C781 C773 1.433 . S
C781 N783 1.384 . S
N782 C778 1.427 . S
N782 C779 1.384 . S
N783 C775 1.427 . S
N783 C781 1.384 . S
H784 C790 0.930 . S
H785 C794 0.930 . S
H786 C799 0.929 . S
H787 C797 0.929 . S
H788 C792 0.929 . S
H789 C798 0.929 . S
C790 H784 0.930 . S
C790 C791 1.367 . S
C790 C798 1.378 . S
C791 C790 1.367 . S
C791 C799 1.433 . S
C792 H788 0.929 . S
C792 C794 1.378 . S
C792 C796 1.350 . S
C793 C796 1.463 . S
C793 C798 1.350 . S
C793 N801 1.427 . S
C794 H785 0.930 . S
C794 C792 1.378 . S
C794 C795 1.367 . S
C795 C794 1.367 . S
C795 C797 1.433 . S
C796 C792 1.350 . S
C796 C793 1.463 . S
C796 N800 1.427 . S
C797 H787 0.929 . S
C797 C795 1.433 . S
C797 N800 1.384 . S
C798 H789 0.929 . S
C798 C790 1.378 . S
C798 C793 1.350 . S
C799 H786 0.929 . S
C799 C791 1.433 . S
C799 N801 1.384 . S
N800 C796 1.427 . S
N800 C797 1.384 . S
N801 C793 1.427 . S
N801 C799 1.384 . S
H802 C808 0.930 . S
H803 C812 0.930 . S
H804 C817 0.929 . S
H805 C815 0.929 . S
H806 C810 0.929 . S
H807 C816 0.929 . S
C808 H802 0.930 . S
C808 C809 1.367 . S
C808 C816 1.378 . S
C809 C808 1.367 . S
C809 C817 1.433 . S
C810 H806 0.929 . S
C810 C812 1.378 . S
C810 C814 1.350 . S
C811 C814 1.463 . S
C811 C816 1.350 . S
C811 N819 1.427 . S
C812 H803 0.930 . S
C812 C810 1.378 . S
C812 C813 1.367 . S
C813 C812 1.367 . S
C813 C815 1.433 . S
C814 C810 1.350 . S
C814 C811 1.463 . S
C814 N818 1.427 . S
C815 H805 0.929 . S
C815 C813 1.433 . S
C815 N818 1.384 . S
C816 H807 0.929 . S
C816 C808 1.378 . S
C816 C811 1.350 . S
C817 H804 0.929 . S
C817 C809 1.433 . S
C817 N819 1.384 . S
N818 C814 1.427 . S
N818 C815 1.384 . S
N819 C811 1.427 . S
N819 C817 1.384 . S
H820 C826 0.930 . S
H821 C830 0.930 . S
H822 C835 0.929 . S
H823 C833 0.929 . S
H824 C828 0.929 . S
H825 C834 0.929 . S
C826 H820 0.930 . S
C826 C827 1.367 . S
C826 C834 1.378 . S
C827 C826 1.367 . S
C827 C835 1.433 . S
C828 H824 0.929 . S
C828 C830 1.378 . S
C828 C832 1.350 . S
C829 C832 1.463 . S
C829 C834 1.350 . S
C829 N837 1.427 . S
C830 H821 0.930 . S
C830 C828 1.378 . S
C830 C831 1.367 . S
C831 C830 1.367 . S
C831 C833 1.433 . S
C832 C828 1.350 . S
C832 C829 1.463 . S
C832 N836 1.427 . S
C833 H823 0.929 . S
C833 C831 1.433 . S
C833 N836 1.384 . S
C834 H825 0.929 . S
C834 C826 1.378 . S
C834 C829 1.350 . S
C835 H822 0.929 . S
C835 C827 1.433 . S
C835 N837 1.384 . S
N836 C832 1.427 . S
N836 C833 1.384 . S
N837 C829 1.427 . S
N837 C835 1.384 . S
H838 C844 0.930 . S
H839 C848 0.930 . S
H840 C853 0.929 . S
H841 C851 0.929 . S
H842 C846 0.929 . S
H843 C852 0.929 . S
C844 H838 0.930 . S
C844 C845 1.367 . S
C844 C852 1.378 . S
C845 C844 1.367 . S
C845 C853 1.433 . S
C846 H842 0.929 . S
C846 C848 1.378 . S
C846 C850 1.350 . S
C847 C850 1.463 . S
C847 C852 1.350 . S
C847 N855 1.427 . S
C848 H839 0.930 . S
C848 C846 1.378 . S
C848 C849 1.367 . S
C849 C848 1.367 . S
C849 C851 1.433 . S
C850 C846 1.350 . S
C850 C847 1.463 . S
C850 N854 1.427 . S
C851 H841 0.929 . S
C851 C849 1.433 . S
C851 N854 1.384 . S
C852 H843 0.929 . S
C852 C844 1.378 . S
C852 C847 1.350 . S
C853 H840 0.929 . S
C853 C845 1.433 . S
C853 N855 1.384 . S
N854 C850 1.427 . S
N854 C851 1.384 . S
N855 C847 1.427 . S
N855 C853 1.384 . S
C431 C73 1.611 . S
C435 C162 1.645 . S
C453 C246 1.753 . S
C449 C84 1.737 . S
C471 C239 1.647 . S
C467 C51 1.608 . S
C485 C62 1.738 . S
C489 C155 1.761 . S
C507 C319 1.644 . S
C503 C29 1.598 . S
C525 C403 1.592 . S
C521 C38 1.475 . S
C539 C7 1.569 . S
C543 C396 1.650 . S
C557 C16 1.493 . S
C561 C312 1.587 . S
C579 C146 1.490 . S
C575 C18 1.659 . S
C597 C230 1.503 . S
C593 C5 1.413 . S
C615 C241 1.462 . S
C611 C40 1.660 . S
C633 C157 1.487 . S
C629 C27 1.440 . S
C651 C325 1.323 . S
C647 C60 1.364 . S
C665 C49 1.361 . S
C669 C409 1.374 . S
C687 C398 1.316 . S
C683 C82 1.355 . S
C701 C71 1.370 . S
C705 C314 1.359 . S
C723 C144 1.657 . S
C719 C8 1.635 . S
C741 C228 1.558 . S
C737 C19 1.552 . S
C755 C30 1.634 . S
C759 C235 1.641 . S
C777 C151 1.533 . S
C773 C41 1.549 . S
C795 C323 1.423 . S
C791 C52 1.421 . S
C809 C63 1.552 . S
C813 C407 1.551 . S
C827 C74 1.416 . S
C831 C414 1.385 . S
C845 C85 1.545 . S
C849 C330 1.509 . S
