# Generated by pormake.
# Topology fgl, (4,4)-cn, num edge types: 1
# Building blocks:
#     Node 0, Type 0, BuildingBlock: ESEHIV_clean_sbu_0, # of connection points: 4
#     Node 1, Type 0, BuildingBlock: ESEHIV_clean_sbu_0, # of connection points: 4
#     Node 2, Type 0, BuildingBlock: ESEHIV_clean_sbu_0, # of connection points: 4
#     Node 3, Type 0, BuildingBlock: ESEHIV_clean_sbu_0, # of connection points: 4
#     Node 4, Type 0, BuildingBlock: ESEHIV_clean_sbu_0, # of connection points: 4
#     Node 5, Type 0, BuildingBlock: ESEHIV_clean_sbu_0, # of connection points: 4
#     Node 6, Type 0, BuildingBlock: ESEHIV_clean_sbu_0, # of connection points: 4
#     Node 7, Type 0, BuildingBlock: ESEHIV_clean_sbu_0, # of connection points: 4
#     Node 8, Type 0, BuildingBlock: ESEHIV_clean_sbu_0, # of connection points: 4
#     Node 9, Type 0, BuildingBlock: ESEHIV_clean_sbu_0, # of connection points: 4
#     Node 10, Type 0, BuildingBlock: ESEHIV_clean_sbu_0, # of connection points: 4
#     Node 11, Type 0, BuildingBlock: ESEHIV_clean_sbu_0, # of connection points: 4
#     Node 12, Type 0, BuildingBlock: ESEHIV_clean_sbu_0, # of connection points: 4
#     Node 13, Type 0, BuildingBlock: ESEHIV_clean_sbu_0, # of connection points: 4
#     Node 14, Type 0, BuildingBlock: ESEHIV_clean_sbu_0, # of connection points: 4
#     Node 15, Type 0, BuildingBlock: ESEHIV_clean_sbu_0, # of connection points: 4
#     Node 16, Type 0, BuildingBlock: ESEHIV_clean_sbu_0, # of connection points: 4
#     Node 17, Type 0, BuildingBlock: ESEHIV_clean_sbu_0, # of connection points: 4
#     Node 18, Type 1, BuildingBlock: CEKHIL_clean_sbu_0, # of connection points: 4
#     Node 19, Type 1, BuildingBlock: CEKHIL_clean_sbu_0, # of connection points: 4
#     Node 20, Type 1, BuildingBlock: CEKHIL_clean_sbu_0, # of connection points: 4
#     Node 21, Type 1, BuildingBlock: CEKHIL_clean_sbu_0, # of connection points: 4
#     Node 22, Type 1, BuildingBlock: CEKHIL_clean_sbu_0, # of connection points: 4
#     Node 23, Type 1, BuildingBlock: CEKHIL_clean_sbu_0, # of connection points: 4
#     Node 24, Type 1, BuildingBlock: CEKHIL_clean_sbu_0, # of connection points: 4
#     Node 25, Type 1, BuildingBlock: CEKHIL_clean_sbu_0, # of connection points: 4
#     Node 26, Type 1, BuildingBlock: CEKHIL_clean_sbu_0, # of connection points: 4
#     Node 27, Type 1, BuildingBlock: CEKHIL_clean_sbu_0, # of connection points: 4
#     Node 28, Type 1, BuildingBlock: CEKHIL_clean_sbu_0, # of connection points: 4
#     Node 29, Type 1, BuildingBlock: CEKHIL_clean_sbu_0, # of connection points: 4
#     Node 30, Type 1, BuildingBlock: CEKHIL_clean_sbu_0, # of connection points: 4
#     Node 31, Type 1, BuildingBlock: CEKHIL_clean_sbu_0, # of connection points: 4
#     Node 32, Type 1, BuildingBlock: CEKHIL_clean_sbu_0, # of connection points: 4
#     Node 33, Type 1, BuildingBlock: CEKHIL_clean_sbu_0, # of connection points: 4
#     Node 34, Type 1, BuildingBlock: CEKHIL_clean_sbu_0, # of connection points: 4
#     Node 35, Type 1, BuildingBlock: CEKHIL_clean_sbu_0, # of connection points: 4
#     Edge 36, Type (0, 1), BuildingBlock: ZUJKAS_clean_linker_0, # of connection points: 2
#     Edge 37, Type (0, 1), BuildingBlock: ZUJKAS_clean_linker_0, # of connection points: 2
#     Edge 38, Type (0, 1), BuildingBlock: ZUJKAS_clean_linker_0, # of connection points: 2
#     Edge 39, Type (0, 1), BuildingBlock: ZUJKAS_clean_linker_0, # of connection points: 2
#     Edge 40, Type (0, 1), BuildingBlock: ZUJKAS_clean_linker_0, # of connection points: 2
#     Edge 41, Type (0, 1), BuildingBlock: ZUJKAS_clean_linker_0, # of connection points: 2
#     Edge 42, Type (0, 1), BuildingBlock: ZUJKAS_clean_linker_0, # of connection points: 2
#     Edge 43, Type (0, 1), BuildingBlock: ZUJKAS_clean_linker_0, # of connection points: 2
#     Edge 44, Type (0, 1), BuildingBlock: ZUJKAS_clean_linker_0, # of connection points: 2
#     Edge 45, Type (0, 1), BuildingBlock: ZUJKAS_clean_linker_0, # of connection points: 2
#     Edge 46, Type (0, 1), BuildingBlock: ZUJKAS_clean_linker_0, # of connection points: 2
#     Edge 47, Type (0, 1), BuildingBlock: ZUJKAS_clean_linker_0, # of connection points: 2
#     Edge 48, Type (0, 1), BuildingBlock: ZUJKAS_clean_linker_0, # of connection points: 2
#     Edge 49, Type (0, 1), BuildingBlock: ZUJKAS_clean_linker_0, # of connection points: 2
#     Edge 50, Type (0, 1), BuildingBlock: ZUJKAS_clean_linker_0, # of connection points: 2
#     Edge 51, Type (0, 1), BuildingBlock: ZUJKAS_clean_linker_0, # of connection points: 2
#     Edge 52, Type (0, 1), BuildingBlock: ZUJKAS_clean_linker_0, # of connection points: 2
#     Edge 53, Type (0, 1), BuildingBlock: ZUJKAS_clean_linker_0, # of connection points: 2
#     Edge 54, Type (0, 1), BuildingBlock: ZUJKAS_clean_linker_0, # of connection points: 2
#     Edge 55, Type (0, 1), BuildingBlock: ZUJKAS_clean_linker_0, # of connection points: 2
#     Edge 56, Type (0, 1), BuildingBlock: ZUJKAS_clean_linker_0, # of connection points: 2
#     Edge 57, Type (0, 1), BuildingBlock: ZUJKAS_clean_linker_0, # of connection points: 2
#     Edge 58, Type (0, 1), BuildingBlock: ZUJKAS_clean_linker_0, # of connection points: 2
#     Edge 59, Type (0, 1), BuildingBlock: ZUJKAS_clean_linker_0, # of connection points: 2
#     Edge 60, Type (0, 1), BuildingBlock: ZUJKAS_clean_linker_0, # of connection points: 2
#     Edge 61, Type (0, 1), BuildingBlock: ZUJKAS_clean_linker_0, # of connection points: 2
#     Edge 62, Type (0, 1), BuildingBlock: ZUJKAS_clean_linker_0, # of connection points: 2
#     Edge 63, Type (0, 1), BuildingBlock: ZUJKAS_clean_linker_0, # of connection points: 2
#     Edge 64, Type (0, 1), BuildingBlock: ZUJKAS_clean_linker_0, # of connection points: 2
#     Edge 65, Type (0, 1), BuildingBlock: ZUJKAS_clean_linker_0, # of connection points: 2
#     Edge 66, Type (0, 1), BuildingBlock: ZUJKAS_clean_linker_0, # of connection points: 2
#     Edge 67, Type (0, 1), BuildingBlock: ZUJKAS_clean_linker_0, # of connection points: 2
#     Edge 68, Type (0, 1), BuildingBlock: ZUJKAS_clean_linker_0, # of connection points: 2
#     Edge 69, Type (0, 1), BuildingBlock: ZUJKAS_clean_linker_0, # of connection points: 2
#     Edge 70, Type (0, 1), BuildingBlock: ZUJKAS_clean_linker_0, # of connection points: 2
#     Edge 71, Type (0, 1), BuildingBlock: ZUJKAS_clean_linker_0, # of connection points: 2
#     Edge 72, Type (0, 1), BuildingBlock: ZUJKAS_clean_linker_0, # of connection points: 2
#     Edge 73, Type (0, 1), BuildingBlock: ZUJKAS_clean_linker_0, # of connection points: 2
#     Edge 74, Type (0, 1), BuildingBlock: ZUJKAS_clean_linker_0, # of connection points: 2
#     Edge 75, Type (0, 1), BuildingBlock: ZUJKAS_clean_linker_0, # of connection points: 2
#     Edge 76, Type (0, 1), BuildingBlock: ZUJKAS_clean_linker_0, # of connection points: 2
#     Edge 77, Type (0, 1), BuildingBlock: ZUJKAS_clean_linker_0, # of connection points: 2
#     Edge 78, Type (0, 1), BuildingBlock: ZUJKAS_clean_linker_0, # of connection points: 2
#     Edge 79, Type (0, 1), BuildingBlock: ZUJKAS_clean_linker_0, # of connection points: 2
#     Edge 80, Type (0, 1), BuildingBlock: ZUJKAS_clean_linker_0, # of connection points: 2
#     Edge 81, Type (0, 1), BuildingBlock: ZUJKAS_clean_linker_0, # of connection points: 2
#     Edge 82, Type (0, 1), BuildingBlock: ZUJKAS_clean_linker_0, # of connection points: 2
#     Edge 83, Type (0, 1), BuildingBlock: ZUJKAS_clean_linker_0, # of connection points: 2
#     Edge 84, Type (0, 1), BuildingBlock: ZUJKAS_clean_linker_0, # of connection points: 2
#     Edge 85, Type (0, 1), BuildingBlock: ZUJKAS_clean_linker_0, # of connection points: 2
#     Edge 86, Type (0, 1), BuildingBlock: ZUJKAS_clean_linker_0, # of connection points: 2
#     Edge 87, Type (0, 1), BuildingBlock: ZUJKAS_clean_linker_0, # of connection points: 2
#     Edge 88, Type (0, 1), BuildingBlock: ZUJKAS_clean_linker_0, # of connection points: 2
#     Edge 89, Type (0, 1), BuildingBlock: ZUJKAS_clean_linker_0, # of connection points: 2
#     Edge 90, Type (0, 1), BuildingBlock: ZUJKAS_clean_linker_0, # of connection points: 2
#     Edge 91, Type (0, 1), BuildingBlock: ZUJKAS_clean_linker_0, # of connection points: 2
#     Edge 92, Type (0, 1), BuildingBlock: ZUJKAS_clean_linker_0, # of connection points: 2
#     Edge 93, Type (0, 1), BuildingBlock: ZUJKAS_clean_linker_0, # of connection points: 2
#     Edge 94, Type (0, 1), BuildingBlock: ZUJKAS_clean_linker_0, # of connection points: 2
#     Edge 95, Type (0, 1), BuildingBlock: ZUJKAS_clean_linker_0, # of connection points: 2
#     Edge 96, Type (0, 1), BuildingBlock: ZUJKAS_clean_linker_0, # of connection points: 2
#     Edge 97, Type (0, 1), BuildingBlock: ZUJKAS_clean_linker_0, # of connection points: 2
#     Edge 98, Type (0, 1), BuildingBlock: ZUJKAS_clean_linker_0, # of connection points: 2
#     Edge 99, Type (0, 1), BuildingBlock: ZUJKAS_clean_linker_0, # of connection points: 2
#     Edge 100, Type (0, 1), BuildingBlock: ZUJKAS_clean_linker_0, # of connection points: 2
#     Edge 101, Type (0, 1), BuildingBlock: ZUJKAS_clean_linker_0, # of connection points: 2
#     Edge 102, Type (0, 1), BuildingBlock: ZUJKAS_clean_linker_0, # of connection points: 2
#     Edge 103, Type (0, 1), BuildingBlock: ZUJKAS_clean_linker_0, # of connection points: 2
#     Edge 104, Type (0, 1), BuildingBlock: ZUJKAS_clean_linker_0, # of connection points: 2
#     Edge 105, Type (0, 1), BuildingBlock: ZUJKAS_clean_linker_0, # of connection points: 2
#     Edge 106, Type (0, 1), BuildingBlock: ZUJKAS_clean_linker_0, # of connection points: 2
#     Edge 107, Type (0, 1), BuildingBlock: ZUJKAS_clean_linker_0, # of connection points: 2
# Relax obj value: 0.013
# Max RMSD: 0.132
# Mean RMSD: 0.075
data_MOF--net-fgl--node1-ESEHIV_clean_sbu_0--node2-CEKHIL_clean_sbu_0--edge1-ZUJKAS_clean_linker_0
_symmetry_space_group_name_H-M    P1
_symmetry_Int_Tables_number       1
_symmetry_cell_setting            triclinic
loop_
_symmetry_equiv_pos_as_xyz
'x, y, z'
_cell_length_a     97.689885
_cell_length_b     96.907723
_cell_length_c     65.688627
_cell_angle_alpha  90.638367
_cell_angle_beta   90.713656
_cell_angle_gamma 119.93999
loop_
_atom_site_label
_atom_site_type_symbol
_atom_site_fract_x
_atom_site_fract_y
_atom_site_fract_z
_atom_type_partial_charge
Cu0 Cu 0.02169 0.54596 0.00741 0.0
N1 N 0.00771 0.54657 0.02629 0.0
N2 N 1.00006 0.55546 0.05312 0.0
C3 C 0.01231 0.55734 0.04176 0.0
C4 C 0.9872 0.54292 0.04436 0.0
C5 C 0.99194 0.53751 0.02779 0.0
O6 O 0.03659 0.56835 1.00339 0.0
C7 C 0.02105 0.51954 0.02245 0.0
O8 O 1.00597 0.51433 0.01893 0.0
H9 H 0.02452 0.56631 0.04469 0.0
H10 H 0.98443 0.52773 0.01752 0.0
N11 N 0.0121 0.53584 0.98241 0.0
N12 N 0.00899 0.52321 0.95237 0.0
C13 C 0.0169 0.52769 0.97047 0.0
C14 C 1.00067 0.53649 0.97156 0.0
C15 C 0.99874 0.52873 0.95304 0.0
C16 C 0.03963 0.57481 0.98604 0.0
O17 O 0.03636 0.56579 0.96961 0.0
H18 H 0.02652 0.52571 0.97468 0.0
H19 H 0.99452 0.54258 0.97652 0.0
O20 O 0.03093 0.53406 0.01892 0.0
H21 H 0.97517 0.53814 0.04932 0.0
H22 H 0.9905 0.52738 0.94095 0.0
Cu23 Cu 0.53071 0.55475 0.01705 0.0
N24 N 0.53281 0.55931 0.98769 0.0
N25 N 0.5424 0.56831 0.95673 0.0
C26 C 0.54588 0.5663 0.97615 0.0
C27 C 0.52657 0.56219 0.95614 0.0
C28 C 0.52075 0.5567 0.97514 0.0
O29 O 0.54748 0.57817 0.02348 0.0
C30 C 0.51577 0.52141 1.00132 0.0
O31 O 0.52999 0.52582 0.99472 0.0
H32 H 0.5577 0.57025 0.98195 0.0
H33 H 0.50856 0.55137 0.97962 0.0
N34 N 0.52802 0.55017 0.04647 0.0
N35 N 0.51678 0.54048 0.07646 0.0
C36 C 0.51456 0.54002 0.05603 0.0
C37 C 0.53908 0.55709 0.06141 0.0
C38 C 0.53217 0.55122 0.07986 0.0
C39 C 0.56229 0.58311 0.02441 0.0
O40 O 0.56715 0.57285 0.02125 0.0
H41 H 0.50329 0.53273 0.04827 0.0
H42 H 0.55132 0.56587 0.05921 0.0
O43 O 0.51341 0.53158 0.01076 0.0
H44 H 0.51964 0.56171 0.94289 0.0
H45 H 0.53805 0.5545 0.09465 0.0
Cu46 Cu 0.53068 0.06452 0.03282 0.0
N47 N 0.52703 0.07462 0.01097 0.0
N48 N 0.51712 0.07659 0.98093 0.0
C49 C 0.51831 0.06676 0.99435 0.0
C50 C 0.52556 0.0913 0.98955 0.0
C51 C 0.53166 0.09004 0.00807 0.0
O52 O 0.50952 0.04908 0.04251 0.0
C53 C 0.55619 0.06695 0.01301 0.0
O54 O 0.55814 0.08132 0.01147 0.0
H55 H 0.51302 0.05401 0.99224 0.0
H56 H 0.53888 0.09967 0.01865 0.0
N57 N 0.54216 0.07841 0.0545 0.0
N58 N 0.55794 0.08741 0.08232 0.0
C59 C 0.55196 0.07635 0.06707 0.0
C60 C 0.54191 0.09127 0.06192 0.0
C61 C 0.55163 0.09685 0.07904 0.0
C62 C 0.50088 0.0553 0.0459 0.0
O63 O 0.50712 0.07072 0.0436 0.0
H64 H 0.55449 0.06676 0.06502 0.0
H65 H 0.53487 0.09605 0.0557 0.0
O66 O 0.54416 0.05644 0.02238 0.0
H67 H 0.527 0.10219 0.9832 0.0
H68 H 0.55347 0.10681 0.08862 0.0
Cu69 Cu 0.53494 0.05819 0.52577 0.0
N70 N 0.55153 0.0734 0.51014 0.0
N71 N 0.57044 0.08354 0.48678 0.0
C72 C 0.5613 0.07087 0.49832 0.0
C73 C 0.56644 0.0946 0.49172 0.0
C74 C 0.55486 0.08835 0.50621 0.0
O75 O 0.54005 0.04145 0.5325 0.0
C76 C 0.5129 0.05789 0.49572 0.0
O77 O 0.52512 0.06424 0.48374 0.0
H78 H 0.56121 0.05971 0.49737 0.0
H79 H 0.54874 0.09402 0.51271 0.0
N80 N 0.53447 0.06701 0.55101 0.0
N81 N 0.52537 0.06911 0.58136 0.0
C82 C 0.52243 0.06029 0.56407 0.0
C83 C 0.54548 0.08055 0.56029 0.0
C84 C 0.53989 0.08191 0.57899 0.0
C85 C 0.54246 0.03257 0.52033 0.0
O86 O 0.53853 0.03185 0.50098 0.0
H87 H 0.51166 0.04919 0.56077 0.0
H88 H 0.5568 0.08879 0.55397 0.0
O89 O 0.51427 0.0526 0.51293 0.0
H90 H 0.57124 0.10621 0.48498 0.0
H91 H 0.54617 0.09146 0.59008 0.0
Cu92 Cu 0.03662 0.55679 0.51925 0.0
N93 N 0.04919 0.55558 0.5406 0.0
N94 N 0.05462 0.54547 0.56825 0.0
C95 C 0.04433 0.54281 0.5527 0.0
C96 C 0.06649 0.56056 0.56583 0.0
C97 C 0.06316 0.56673 0.54876 0.0
O98 O 0.0232 0.53449 0.51046 0.0
C99 C 0.0366 0.58363 0.53186 0.0
O100 O 0.05155 0.58884 0.52819 0.0
H101 H 0.0331 0.53194 0.5506 0.0
H102 H 0.07027 0.57862 0.54306 0.0
N103 N 0.04716 0.56828 0.49589 0.0
N104 N 0.0505 0.58217 0.4673 0.0
C105 C 0.04037 0.57322 0.48187 0.0
C106 C 0.0622 0.57432 0.49004 0.0
C107 C 0.06427 0.5828 0.4724 0.0
C108 C 0.03151 0.52876 0.5034 0.0
O109 O 0.04678 0.53845 0.5018 0.0
H110 H 0.02817 0.57037 0.48256 0.0
H111 H 0.07112 0.57297 0.49824 0.0
O112 O 0.02673 0.56873 0.52972 0.0
H113 H 0.0768 0.56673 0.57576 0.0
H114 H 0.07522 0.58931 0.46433 0.0
Cu115 Cu 0.52623 0.54011 0.51987 0.0
N116 N 0.54589 0.54483 0.50964 0.0
N117 N 0.57009 0.56036 0.4975 0.0
C118 C 0.55719 0.55979 0.50558 0.0
C119 C 0.56679 0.54507 0.49653 0.0
C120 C 0.55183 0.5355 0.50395 0.0
O121 O 0.53133 0.55462 0.54336 0.0
C122 C 0.51261 0.53288 0.48194 0.0
O123 O 0.5197 0.52441 0.483 0.0
H124 H 0.55588 0.57008 0.50854 0.0
H125 H 0.54562 0.52267 0.50451 0.0
N126 N 0.51385 0.51937 0.52932 0.0
N127 N 0.49227 0.49859 0.54172 0.0
C128 C 0.4989 0.51372 0.53532 0.0
C129 C 0.51688 0.50739 0.53204 0.0
C130 C 0.50353 0.49451 0.5396 0.0
C131 C 0.53758 0.55123 0.55828 0.0
O132 O 0.53927 0.53865 0.5565 0.0
H133 H 0.49295 0.52061 0.53474 0.0
H134 H 0.528 0.50799 0.52912 0.0
O135 O 0.51388 0.54174 0.49722 0.0
H136 H 0.57443 0.54103 0.49034 0.0
H137 H 0.50231 0.48314 0.54357 0.0
Cu138 Cu 0.70486 0.89508 0.34655 0.0
N139 N 0.71439 0.91604 0.33721 0.0
N140 N 0.71653 0.93957 0.33013 0.0
C141 C 0.70699 0.9246 0.33648 0.0
C142 C 0.73052 0.94044 0.32658 0.0
C143 C 0.7292 0.92593 0.33108 0.0
O144 O 0.69258 0.89536 0.37036 0.0
C145 C 0.70423 0.88257 0.30838 0.0
O146 O 0.71912 0.89347 0.31133 0.0
H147 H 0.69477 0.91986 0.3406 0.0
H148 H 0.73844 0.9229 0.33018 0.0
N149 N 0.71953 0.88951 0.35625 0.0
N150 N 0.72893 0.8736 0.36556 0.0
C151 C 0.71651 0.87439 0.35767 0.0
C152 C 0.73442 0.89867 0.36342 0.0
C153 C 0.74023 0.88888 0.36925 0.0
C154 C 0.70113 0.90642 0.38341 0.0
O155 O 0.71634 0.91503 0.38008 0.0
H156 H 0.70526 0.86416 0.35333 0.0
H157 H 0.7406 0.91154 0.36447 0.0
O158 O 0.69452 0.88071 0.3225 0.0
H159 H 0.74106 0.95091 0.32155 0.0
H160 H 0.75191 0.89273 0.37555 0.0
Cu161 Cu 0.19471 0.89099 0.36103 0.0
N162 N 0.17432 0.87964 0.34916 0.0
N163 N 0.15222 0.85813 0.33733 0.0
C164 C 0.16662 0.8637 0.34623 0.0
C165 C 0.1508 0.87116 0.3346 0.0
C166 C 0.16444 0.8844 0.34186 0.0
O167 O 0.19272 0.87867 0.38558 0.0
C168 C 0.20796 0.89843 0.32333 0.0
O169 O 0.19671 0.90207 0.32199 0.0
H170 H 0.17155 0.85634 0.35073 0.0
H171 H 0.16703 0.89661 0.3414 0.0
N172 N 0.20139 0.91229 0.36865 0.0
N173 N 0.21808 0.93805 0.37662 0.0
C174 C 0.21657 0.92364 0.37243 0.0
C175 C 0.19298 0.91977 0.37066 0.0
C176 C 0.20322 0.93562 0.37551 0.0
C177 C 0.18355 0.87926 0.39888 0.0
O178 O 0.17794 0.88889 0.39579 0.0
H179 H 0.22636 0.92141 0.37164 0.0
H180 H 0.1803 0.91415 0.36885 0.0
O181 O 0.2096 0.89262 0.33997 0.0
H182 H 0.14081 0.87123 0.32741 0.0
H183 H 0.19994 0.94461 0.37824 0.0
Cu184 Cu 0.19869 0.40331 0.35217 0.0
N185 N 0.1965 0.41355 0.32957 0.0
N186 N 0.18718 0.41597 0.29941 0.0
C187 C 0.18493 0.40644 0.31534 0.0
C188 C 0.20059 0.42974 0.304 0.0
C189 C 0.20637 0.42818 0.32261 0.0
O190 O 0.1775 0.39 0.36307 0.0
C191 C 0.21578 0.39307 0.32682 0.0
O192 O 0.20927 0.39639 0.31145 0.0
H193 H 0.17533 0.3943 0.31643 0.0
H194 H 0.2173 0.43682 0.33011 0.0
N195 N 0.21123 0.41774 0.37262 0.0
N196 N 0.22741 0.42636 0.39991 0.0
C197 C 0.21893 0.41413 0.38675 0.0
C198 C 0.21491 0.43284 0.37688 0.0
C199 C 0.22487 0.43818 0.39385 0.0
C200 C 0.17101 0.39792 0.36911 0.0
O201 O 0.17893 0.41348 0.36742 0.0
H202 H 0.21808 0.40258 0.38748 0.0
H203 H 0.21068 0.43948 0.36831 0.0
O204 O 0.21086 0.39296 0.34476 0.0
H205 H 0.20623 0.43992 0.29421 0.0
H206 H 0.22995 0.44987 0.401 0.0
Cu207 Cu 0.18562 0.35695 0.85988 0.0
N208 N 0.18355 0.3451 0.83626 0.0
N209 N 0.19117 0.33962 0.80678 0.0
C210 C 0.19477 0.35033 0.82209 0.0
C211 C 0.17697 0.32714 0.81141 0.0
C212 C 0.17231 0.33052 0.82974 0.0
O213 O 0.20772 0.36446 0.86964 0.0
C214 C 0.16349 0.36469 0.84677 0.0
O215 O 0.15565 0.34906 0.84727 0.0
H216 H 0.20541 0.36186 0.8231 0.0
H217 H 0.16164 0.32285 0.83782 0.0
N218 N 0.17212 0.3447 0.88062 0.0
N219 N 0.15711 0.33935 0.90807 0.0
C220 C 0.16544 0.35016 0.89389 0.0
C221 C 0.16777 0.32983 0.88658 0.0
C222 C 0.15859 0.32655 0.90366 0.0
C223 C 0.21102 0.3532 0.87059 0.0
O224 O 0.19972 0.33866 0.86605 0.0
H225 H 0.167 0.36203 0.89347 0.0
H226 H 0.17113 0.32196 0.87922 0.0
O227 O 0.17823 0.37192 0.85178 0.0
H228 H 0.17058 0.31622 0.80247 0.0
H229 H 0.15338 0.31562 0.91213 0.0
Cu230 Cu 0.70902 0.88811 0.84498 0.0
N231 N 0.71682 0.87575 0.83312 0.0
N232 N 0.71752 0.85467 0.82016 0.0
C233 C 0.70827 0.8606 0.82613 0.0
C234 C 0.73249 0.86668 0.82299 0.0
C235 C 0.73203 0.87966 0.83096 0.0
O236 O 0.69996 0.87867 0.87175 0.0
C237 C 0.70282 0.89625 0.80644 0.0
O238 O 0.71568 0.89555 0.803 0.0
H239 H 0.69551 0.85402 0.82545 0.0
H240 H 0.74211 0.89103 0.83524 0.0
N241 N 0.7258 0.90818 0.85207 0.0
N242 N 0.73819 0.93418 0.85994 0.0
C243 C 0.72562 0.92191 0.85039 0.0
C244 C 0.73891 0.91182 0.86309 0.0
C245 C 0.74664 0.92788 0.86788 0.0
C246 C 0.69182 0.86384 0.87571 0.0
O247 O 0.68586 0.85347 0.86055 0.0
H248 H 0.71583 0.9226 0.84362 0.0
H249 H 0.74214 0.90326 0.86829 0.0
O250 O 0.69674 0.89252 0.82415 0.0
H251 H 0.74302 0.86596 0.82026 0.0
H252 H 0.75727 0.93425 0.8772 0.0
Cu253 Cu 0.19359 0.88362 0.85186 0.0
N254 N 0.18525 0.88756 0.82813 0.0
N255 N 0.17212 0.88218 0.79815 0.0
C256 C 0.1755 0.87614 0.81469 0.0
C257 C 0.18009 0.89813 0.80149 0.0
C258 C 0.1882 0.9014 0.81993 0.0
O259 O 0.17726 0.8628 0.86109 0.0
C260 C 0.21882 0.88574 0.82779 0.0
O261 O 0.2083 0.8799 0.81283 0.0
H262 H 0.17156 0.86366 0.81673 0.0
H263 H 0.19597 0.91305 0.82662 0.0
N264 N 0.1976 0.89833 0.87308 0.0
N265 N 0.20705 0.91116 0.90312 0.0
C266 C 0.20552 0.8993 0.89049 0.0
C267 C 0.1939 0.90992 0.87463 0.0
C268 C 0.19971 0.91785 0.89309 0.0
C269 C 0.16415 0.86233 0.86412 0.0
O270 O 0.16352 0.87544 0.8617 0.0
H271 H 0.20996 0.89132 0.89376 0.0
H272 H 0.1875 0.91249 0.86315 0.0
O273 O 0.21428 0.88625 0.84576 0.0
H274 H 0.18025 0.9069 0.79131 0.0
H275 H 0.19877 0.92793 0.89845 0.0
Cu276 Cu 0.3521 0.2091 0.69243 0.0
N277 N 0.33629 0.21212 0.68067 0.0
N278 N 0.32334 0.22379 0.66792 0.0
C279 C 0.33665 0.22599 0.67744 0.0
C280 C 0.31425 0.20787 0.66516 0.0
C281 C 0.32227 0.20073 0.67301 0.0
O282 O 0.36021 0.22254 0.71751 0.0
C283 C 0.36701 0.21518 0.65317 0.0
O284 O 0.36046 0.22398 0.65005 0.0
H285 H 0.34671 0.23748 0.6813 0.0
H286 H 0.31825 0.18812 0.67292 0.0
N287 N 0.34245 0.18827 0.70161 0.0
N288 N 0.33861 0.16413 0.70884 0.0
C289 C 0.34803 0.17814 0.69982 0.0
C290 C 0.32905 0.18049 0.71211 0.0
C291 C 0.32663 0.16557 0.71659 0.0
C292 C 0.36694 0.23766 0.71969 0.0
O293 O 0.37155 0.24656 0.70348 0.0
H294 H 0.35906 0.18121 0.69259 0.0
H295 H 0.32166 0.1854 0.71639 0.0
O296 O 0.36644 0.20966 0.67093 0.0
H297 H 0.30264 0.20176 0.65797 0.0
H298 H 0.31682 0.15654 0.72493 0.0
Cu299 Cu 0.86223 0.20132 0.68747 0.0
N300 N 0.87689 0.20219 0.66864 0.0
N301 N 0.89363 0.21214 0.64275 0.0
C302 C 0.88384 0.21407 0.65528 0.0
C303 C 0.89275 0.19836 0.64843 0.0
C304 C 0.88245 0.19227 0.66448 0.0
O305 O 0.87014 0.22413 0.69393 0.0
C306 C 0.83688 0.17254 0.67528 0.0
O307 O 0.84742 0.16874 0.68131 0.0
H308 H 0.88145 0.22382 0.65453 0.0
H309 H 0.87919 0.18136 0.6724 0.0
N310 N 0.86192 0.19154 0.71215 0.0
N311 N 0.8518 0.17907 0.74136 0.0
C312 C 0.85013 0.18691 0.72551 0.0
C313 C 0.87147 0.18649 0.71975 0.0
C314 C 0.8653 0.17886 0.73785 0.0
C315 C 0.88352 0.2307 0.70345 0.0
O316 O 0.88948 0.22168 0.70854 0.0
H317 H 0.84041 0.18915 0.72342 0.0
H318 H 0.88196 0.18793 0.71246 0.0
O319 O 0.84079 0.1873 0.67558 0.0
H320 H 0.89916 0.19312 0.64161 0.0
H321 H 0.87013 0.17319 0.74731 0.0
Cu322 Cu 0.8611 0.70188 0.66754 0.0
N323 N 0.85056 0.68861 0.64517 0.0
N324 N 0.83687 0.68113 0.61567 0.0
C325 C 0.84192 0.69151 0.63163 0.0
C326 C 0.84261 0.67126 0.61938 0.0
C327 C 0.85108 0.67593 0.63761 0.0
O328 O 0.84663 0.70911 0.67681 0.0
C329 C 0.89283 0.72972 0.66661 0.0
O330 O 0.89017 0.73405 0.68447 0.0
H331 H 0.84007 0.7016 0.63304 0.0
H332 H 0.85757 0.67077 0.6445 0.0
N333 N 0.86455 0.69065 0.68811 0.0
N334 N 0.87495 0.68599 0.71594 0.0
C335 C 0.87564 0.69707 0.70308 0.0
C336 C 0.85656 0.6749 0.69157 0.0
C337 C 0.863 0.67198 0.70869 0.0
C338 C 0.84213 0.70833 0.69513 0.0
O339 O 0.84964 0.70551 0.70975 0.0
H340 H 0.88403 0.70964 0.70458 0.0
H341 H 0.84663 0.6662 0.68245 0.0
O342 O 0.88171 0.71768 0.65724 0.0
H343 H 0.84105 0.66154 0.60952 0.0
H344 H 0.85896 0.66051 0.71554 0.0
Cu345 Cu 0.8494 0.70551 0.16255 0.0
N346 N 0.85077 0.6955 0.13867 0.0
N347 N 0.86181 0.69089 0.11159 0.0
C348 C 0.86403 0.7005 0.12789 0.0
C349 C 0.84646 0.67937 0.11226 0.0
C350 C 0.83972 0.68222 0.12896 0.0
O351 O 0.86998 0.71317 0.17679 0.0
C352 C 0.82872 0.71448 0.14658 0.0
O353 O 0.82147 0.69909 0.14265 0.0
H354 H 0.87516 0.71086 0.13228 0.0
H355 H 0.82762 0.67507 0.13369 0.0
N356 N 0.83394 0.6913 0.18012 0.0
N357 N 0.81898 0.68366 0.20772 0.0
C358 C 0.82857 0.69598 0.19602 0.0
C359 C 0.82729 0.67538 0.18164 0.0
C360 C 0.81817 0.67065 0.19885 0.0
C361 C 0.87233 0.70194 0.18266 0.0
O362 O 0.8613 0.68715 0.17893 0.0
H363 H 0.83226 0.70831 0.19951 0.0
H364 H 0.82946 0.66784 0.1715 0.0
O365 O 0.84237 0.72087 0.15536 0.0
H366 H 0.84039 0.6696 0.1014 0.0
H367 H 0.81169 0.65868 0.2046 0.0
Cu368 Cu 0.36447 0.22126 0.19236 0.0
N369 N 0.34999 0.20032 0.18372 0.0
N370 N 0.34086 0.17453 0.17594 0.0
C371 C 0.35352 0.18857 0.18193 0.0
C372 C 0.3289 0.17767 0.17394 0.0
C373 C 0.33454 0.19353 0.1788 0.0
O374 O 0.37576 0.21848 0.21614 0.0
C375 C 0.36696 0.23253 0.15288 0.0
O376 O 0.3517 0.22282 0.15417 0.0
H377 H 0.36514 0.19034 0.18538 0.0
H378 H 0.32784 0.19965 0.17866 0.0
N379 N 0.35469 0.23245 0.20186 0.0
N380 N 0.3526 0.25379 0.21016 0.0
C381 C 0.36194 0.24846 0.20258 0.0
C382 C 0.34017 0.22737 0.20919 0.0
C383 C 0.33887 0.24052 0.21441 0.0
C384 C 0.36642 0.21041 0.23043 0.0
O385 O 0.35135 0.20569 0.22787 0.0
H386 H 0.37401 0.25605 0.19795 0.0
H387 H 0.33121 0.21502 0.2108 0.0
O388 O 0.3759 0.2336 0.16804 0.0
H389 H 0.31692 0.16923 0.1691 0.0
H390 H 0.32859 0.24031 0.22071 0.0
Cu391 Cu 0.85877 0.23013 0.19528 0.0
N392 N 0.85066 0.21225 0.17798 0.0
N393 N 0.83808 0.19548 0.15191 0.0
C394 C 0.83973 0.20808 0.16291 0.0
C395 C 0.84836 0.19161 0.16028 0.0
C396 C 0.85608 0.20196 0.17641 0.0
O397 O 0.84661 0.2411 0.19348 0.0
C398 C 0.88654 0.25974 0.18902 0.0
O399 O 0.87915 0.26545 0.19975 0.0
H400 H 0.83356 0.21451 0.15962 0.0
H401 H 0.86536 0.20232 0.18596 0.0
N402 N 0.86087 0.22538 0.22226 0.0
N403 N 0.8705 0.2289 0.25414 0.0
C404 C 0.8719 0.23552 0.23577 0.0
C405 C 0.85226 0.21178 0.2324 0.0
C406 C 0.85809 0.21397 0.25216 0.0
C407 C 0.83335 0.23927 0.19918 0.0
O408 O 0.83042 0.25082 0.1952 0.0
H409 H 0.88065 0.24763 0.23226 0.0
H410 H 0.84249 0.201 0.22591 0.0
O411 O 0.87984 0.24479 0.18557 0.0
H412 H 0.85028 0.18212 0.15492 0.0
H413 H 0.85371 0.20522 0.26403 0.0
Co414 Co 0.01958 0.66502 0.26159 0.0
O415 O 0.03157 0.65707 0.276 0.0
O416 O 0.01273 0.65995 0.28982 0.0
C417 C 0.01482 0.64941 0.23306 0.0
O418 O 1.00425 0.67239 0.25103 0.0
Co419 Co 0.03214 0.68274 0.22106 0.0
O420 O 0.01153 0.68202 0.21954 0.0
C421 C 0.04681 0.6995 0.25998 0.0
C422 C 0.02326 0.65553 0.2919 0.0
C423 C 1.00214 0.67825 0.23442 0.0
O424 O 0.03593 0.68781 0.26988 0.0
O425 O 0.04808 0.69905 0.24063 0.0
O426 O 1.006 0.64387 0.24891 0.0
O427 O 0.0268 0.66356 0.23556 0.0
Co428 Co 0.40795 0.44674 0.27638 0.0
O429 O 0.42722 0.45454 0.26125 0.0
O430 O 0.40485 0.45158 0.24857 0.0
C431 C 0.41952 0.46238 0.30461 0.0
O432 O 0.38577 0.43946 0.28728 0.0
Co433 Co 0.40362 0.42943 0.3173 0.0
O434 O 0.38426 0.43107 0.31938 0.0
C435 C 0.40102 0.4124 0.27844 0.0
C436 C 0.41962 0.45594 0.24581 0.0
C437 C 0.37833 0.4344 0.30412 0.0
O438 O 0.40154 0.42398 0.26828 0.0
O439 O 0.40299 0.41301 0.29782 0.0
O440 O 0.41575 0.46795 0.28893 0.0
O441 O 0.41728 0.44817 0.30214 0.0
Co442 Co 0.6624 0.07921 0.27856 0.0
O443 O 0.64399 0.06803 0.29521 0.0
O444 O 0.66716 0.08754 0.30631 0.0
C445 C 0.64951 0.08291 0.2521 0.0
O446 O 0.68379 0.09433 0.26614 0.0
Co447 Co 0.66505 0.06625 0.23636 0.0
O448 O 0.68379 0.08768 0.23328 0.0
C449 C 0.6693 0.05193 0.27376 0.0
C450 C 0.65249 0.07741 0.31016 0.0
C451 C 0.69025 0.09708 0.24854 0.0
O452 O 0.66916 0.06297 0.2848 0.0
O453 O 0.6666 0.05056 0.25451 0.0
O454 O 0.65407 0.09244 0.26792 0.0
O455 O 0.65184 0.07096 0.2534 0.0
Co456 Co 0.02903 0.41677 0.75361 0.0
O457 O 0.01936 0.4267 0.73776 0.0
O458 O 0.04473 0.43447 0.73799 0.0
C459 C 0.01023 0.39118 0.74452 0.0
O460 O 0.04402 0.40979 0.76675 0.0
Co461 Co 0.01285 0.39343 0.78846 0.0
O462 O 0.03085 0.38949 0.78785 0.0
C463 C 0.0254 0.42803 0.79578 0.0
C464 C 0.0333 0.4363 0.73082 0.0
C465 C 0.04343 0.39896 0.77868 0.0
O466 O 0.03175 0.43128 0.77802 0.0
O467 O 0.01686 0.41379 0.80199 0.0
O468 O 0.02199 0.39966 0.73271 0.0
O469 O 0.00991 0.39847 0.76091 0.0
Co470 Co 0.65377 0.66491 0.76093 0.0
O471 O 0.63444 0.6573 0.77582 0.0
O472 O 0.64917 0.64595 0.77617 0.0
C473 C 0.66398 0.69074 0.77068 0.0
O474 O 0.67509 0.66998 0.74854 0.0
Co475 Co 0.66276 0.68971 0.72665 0.0
O476 O 0.6842 0.69289 0.73161 0.0
C477 C 0.63763 0.6562 0.71898 0.0
C478 C 0.63691 0.64632 0.78303 0.0
C479 C 0.68629 0.68215 0.73963 0.0
O480 O 0.64121 0.65187 0.73587 0.0
O481 O 0.6441 0.67077 0.71366 0.0
O482 O 0.66531 0.68085 0.7826 0.0
O483 O 0.65571 0.68453 0.75424 0.0
Co484 Co 0.40093 0.03973 0.767 0.0
O485 O 0.42049 0.05377 0.75393 0.0
O486 O 0.40886 0.02752 0.7527 0.0
C487 C 0.38826 0.05253 0.75599 0.0
O488 O 0.38023 0.02132 0.77772 0.0
Co489 Co 0.38746 0.05256 0.80011 0.0
O490 O 0.36809 0.03158 0.79623 0.0
C491 C 0.4152 0.04898 0.80967 0.0
C492 C 0.42043 0.04117 0.747 0.0
C493 C 0.36817 0.01981 0.78749 0.0
O494 O 0.41303 0.04095 0.79295 0.0
O495 O 0.40712 0.05565 0.81418 0.0
O496 O 0.38906 0.04208 0.74428 0.0
O497 O 0.3959 0.05556 0.77312 0.0
Co498 Co 0.6851 0.9871 0.60045 0.0
O499 O 0.69709 0.98003 0.61706 0.0
O500 O 0.67647 0.98124 0.62771 0.0
C501 C 0.68318 0.9722 0.57191 0.0
O502 O 0.66885 0.99271 0.58826 0.0
Co503 Co 0.69695 0.00502 0.56002 0.0
O504 O 0.67475 0.9998 0.55572 0.0
C505 C 0.70953 0.02288 0.59925 0.0
C506 C 0.68728 0.9775 0.63163 0.0
C507 C 0.66543 0.99618 0.57063 0.0
O508 O 0.70003 0.01039 0.60941 0.0
O509 O 0.71048 0.02268 0.57982 0.0
O510 O 0.67358 0.96586 0.58692 0.0
O511 O 0.69407 0.9868 0.57513 0.0
Co512 Co 0.07841 0.77216 0.59151 0.0
O513 O 0.09761 0.77733 0.57733 0.0
O514 O 0.07674 0.77657 0.56295 0.0
C515 C 0.09094 0.7886 0.61881 0.0
O516 O 0.05678 0.76819 0.60137 0.0
Co517 Co 0.07145 0.75679 0.63409 0.0
O518 O 0.05561 0.76383 0.63502 0.0
C519 C 0.0662 0.73657 0.5972 0.0
C520 C 0.09122 0.77956 0.5612 0.0
C521 C 0.05016 0.76657 0.61879 0.0
O522 O 0.06947 0.74843 0.58548 0.0
O523 O 0.06732 0.73794 0.61666 0.0
O524 O 0.08835 0.79414 0.60221 0.0
O525 O 0.08694 0.77374 0.6179 0.0
Co526 Co 0.29734 0.37759 0.59812 0.0
O527 O 0.2771 0.36633 0.61067 0.0
O528 O 0.29969 0.38145 0.62737 0.0
C529 C 0.28965 0.38768 0.57253 0.0
O530 O 0.32039 0.39146 0.58993 0.0
Co531 Co 0.3013 0.3677 0.5545 0.0
O532 O 0.32181 0.38785 0.55629 0.0
C533 C 0.29986 0.34793 0.589 0.0
C534 C 0.28441 0.37223 0.62793 0.0
C535 C 0.32803 0.39511 0.57312 0.0
O536 O 0.30017 0.35849 0.60134 0.0
O537 O 0.29913 0.34882 0.56962 0.0
O538 O 0.29327 0.39462 0.59039 0.0
O539 O 0.2893 0.37419 0.57134 0.0
Co540 Co 0.6923 0.77302 0.09044 0.0
O541 O 0.68056 0.78094 0.07502 0.0
O542 O 0.70639 0.79172 0.07473 0.0
C543 C 0.67603 0.74693 0.08074 0.0
O544 O 0.7089 0.7679 0.1027 0.0
Co545 Co 0.67769 0.74875 0.12486 0.0
O546 O 0.69674 0.74659 0.12263 0.0
C547 C 0.68625 0.78234 0.13284 0.0
C548 C 0.69385 0.79156 0.06749 0.0
C549 C 0.70901 0.75687 0.11356 0.0
O550 O 0.69356 0.78652 0.11566 0.0
O551 O 0.67824 0.76776 0.13809 0.0
O552 O 0.6872 0.75668 0.069 0.0
O553 O 0.6745 0.75335 0.09723 0.0
Co554 Co 0.31314 0.99399 0.12539 0.0
O555 O 0.29433 0.98556 0.1416 0.0
O556 O 0.31061 0.97598 0.14114 0.0
C557 C 0.32166 0.01988 0.13402 0.0
O558 O 0.33421 0.99984 0.11186 0.0
Co559 Co 0.31942 0.01732 0.09008 0.0
O560 O 0.34091 0.02001 0.09039 0.0
C561 C 0.29506 0.98334 0.08515 0.0
C562 C 0.29813 0.97546 0.14875 0.0
C563 C 0.34408 0.01046 0.09975 0.0
O564 O 0.30033 0.97976 0.10123 0.0
O565 O 0.30003 0.99768 0.07969 0.0
O566 O 0.32459 0.01104 0.14601 0.0
O567 O 0.31319 0.01267 0.11805 0.0
Co568 Co 0.06904 0.38411 0.09054 0.0
O569 O 0.08746 0.3906 0.07413 0.0
O570 O 0.06875 0.36561 0.07858 0.0
C571 C 0.06297 0.40214 0.07821 0.0
O572 O 0.04809 0.37262 0.10549 0.0
Co573 Co 0.06659 0.4071 0.1218 0.0
O574 O 0.04425 0.39004 0.12388 0.0
C575 C 0.08818 0.39451 0.12968 0.0
C576 C 0.08191 0.37558 0.07004 0.0
C577 C 0.03944 0.37603 0.11679 0.0
O578 O 0.08139 0.38387 0.1154 0.0
O579 O 0.08498 0.40563 0.13304 0.0
O580 O 0.05851 0.38884 0.06825 0.0
O581 O 0.07162 0.40442 0.09424 0.0
Co582 Co 0.36884 0.32845 0.94078 0.0
O583 O 0.3807 0.32048 0.95597 0.0
O584 O 0.36088 0.32236 0.96834 0.0
C585 C 0.36612 0.31417 0.9113 0.0
O586 O 0.35292 0.33513 0.93016 0.0
Co587 Co 0.38087 0.34759 0.90118 0.0
O588 O 0.35955 0.34525 0.89888 0.0
C589 C 0.39574 0.36296 0.94079 0.0
C590 C 0.37154 0.31823 0.97123 0.0
C591 C 0.35011 0.34068 0.91374 0.0
O592 O 0.3845 0.35127 0.95036 0.0
O593 O 0.39707 0.36283 0.92142 0.0
O594 O 0.35666 0.30758 0.92639 0.0
O595 O 0.37725 0.32858 0.91496 0.0
Co596 Co 0.73839 0.10086 0.94302 0.0
O597 O 0.75867 0.11036 0.93033 0.0
O598 O 0.73673 0.10648 0.91504 0.0
C599 C 0.74728 0.1151 0.97248 0.0
O600 O 0.71536 0.09187 0.95192 0.0
Co601 Co 0.73309 0.08131 0.98229 0.0
O602 O 0.71283 0.08125 0.98293 0.0
C603 C 0.73572 0.0683 0.94277 0.0
C604 C 0.75184 0.11168 0.91402 0.0
C605 C 0.70726 0.08532 0.96797 0.0
O606 O 0.73418 0.07913 0.9336 0.0
O607 O 0.73702 0.06802 0.96216 0.0
O608 O 0.74422 0.1212 0.95673 0.0
O609 O 0.74616 0.10142 0.96935 0.0
Co610 Co 0.98149 0.70661 0.92456 0.0
O611 O 0.96226 0.69366 0.93897 0.0
O612 O 0.98281 0.71547 0.95171 0.0
C613 C 0.96913 0.70713 0.89535 0.0
O614 O 1.00314 0.72333 0.91416 0.0
Co615 Co 0.98927 0.69416 0.88506 0.0
O616 O 1.00647 0.71652 0.88252 0.0
C617 C 0.99313 0.68283 0.92532 0.0
C618 C 0.96846 0.70378 0.95406 0.0
C619 C 0.01102 0.7263 0.8976 0.0
O620 O 0.99064 0.69316 0.93458 0.0
O621 O 0.99173 0.68057 0.90597 0.0
O622 O 0.97145 0.71703 0.91026 0.0
O623 O 0.97344 0.69679 0.89901 0.0
Co624 Co 0.3749 0.1152 0.43616 0.0
O625 O 0.365 0.12521 0.42107 0.0
O626 O 0.39028 0.13294 0.42 0.0
C627 C 0.35604 0.08977 0.42694 0.0
O628 O 0.38955 0.10733 0.44807 0.0
Co629 Co 0.35824 0.09159 0.47096 0.0
O630 O 0.37574 0.08695 0.46899 0.0
C631 C 0.37057 0.12611 0.47835 0.0
C632 C 0.3786 0.13451 0.41311 0.0
C633 C 0.38831 0.09591 0.45942 0.0
O634 O 0.37818 0.12952 0.46137 0.0
O635 O 0.36109 0.11177 0.48355 0.0
O636 O 0.36748 0.09839 0.41481 0.0
O637 O 0.35588 0.09697 0.44347 0.0
Co638 Co 0.98624 0.34054 0.45813 0.0
O639 O 0.96789 0.33028 0.47521 0.0
O640 O 0.9865 0.32371 0.47348 0.0
C641 C 0.99214 0.36585 0.46617 0.0
O642 O 0.00717 0.34827 0.44349 0.0
Co643 Co 0.98898 0.36217 0.42227 0.0
O644 O 0.01104 0.36652 0.42013 0.0
C645 C 0.96708 0.32746 0.41926 0.0
C646 C 0.97337 0.32125 0.48144 0.0
C647 C 0.01574 0.35835 0.42999 0.0
O648 O 0.97386 0.32524 0.43483 0.0
O649 O 0.97027 0.3413 0.4134 0.0
O650 O 0.99677 0.35827 0.47808 0.0
O651 O 0.98363 0.35775 0.45063 0.0
Co652 Co 0.74292 0.71325 0.41592 0.0
O653 O 0.76188 0.72122 0.4001 0.0
O654 O 0.74208 0.69632 0.39926 0.0
C655 C 0.73842 0.73355 0.40899 0.0
O656 O 0.72134 0.70026 0.42873 0.0
Co657 Co 0.7394 0.73111 0.45286 0.0
O658 O 0.71688 0.71413 0.45265 0.0
C659 C 0.75806 0.71475 0.45718 0.0
C660 C 0.75569 0.7069 0.39237 0.0
C661 C 0.71232 0.70157 0.44178 0.0
O662 O 0.7535 0.70838 0.43924 0.0
O663 O 0.75469 0.72499 0.46447 0.0
O664 O 0.73394 0.72168 0.39619 0.0
O665 O 0.74617 0.73326 0.4249 0.0
H666 H 1.00226 0.48847 0.03208 0.0
H667 H 0.01021 0.46924 0.04161 0.0
H668 H 0.05923 0.50542 0.03746 0.0
H669 H 0.05134 0.52489 0.0276 0.0
H670 H 0.05118 0.47595 0.01758 0.0
H671 H 0.0294 0.46709 0.09661 0.0
H672 H 0.01487 0.46467 0.07775 0.0
H673 H 0.03229 0.48383 0.08167 0.0
C674 C 0.01476 0.49243 0.0333 0.0
C675 C 0.02618 0.50826 0.02917 0.0
C676 C 0.01927 0.48141 0.03883 0.0
C677 C 0.03529 0.48595 0.0405 0.0
C678 C 0.04678 0.50172 0.03635 0.0
H679 H 0.07159 0.43043 0.09709 0.0
H680 H 0.06516 0.45068 0.08705 0.0
C681 C 0.04227 0.51282 0.03081 0.0
C682 C 0.03989 0.47405 0.04617 0.0
H683 H 0.03614 0.44829 0.08356 0.0
C684 C 0.048 0.46996 0.03205 0.0
C685 C 0.0358 0.46634 0.06511 0.0
C686 C 0.02774 0.47079 0.08126 0.0
C687 C 0.05189 0.45812 0.03624 0.0
C688 C 0.04731 0.45004 0.0549 0.0
C689 C 0.03945 0.45435 0.06914 0.0
C690 C 0.05121 0.43759 0.06048 0.0
C691 C 0.06107 0.45455 0.02081 0.0
C692 C 0.04536 0.42338 0.04896 0.0
C693 C 0.04905 0.4117 0.05467 0.0
C694 C 0.05856 0.41405 0.07205 0.0
C695 C 0.06423 0.42823 0.08362 0.0
C696 C 0.06058 0.43985 0.0779 0.0
H697 H 0.06688 0.46427 0.0097 0.0
H698 H 0.07024 0.45272 0.02842 0.0
H699 H 0.05287 0.44345 0.01222 0.0
H700 H 0.03784 0.42126 0.03568 0.0
H701 H 0.04448 0.40087 0.04552 0.0
H702 H 0.59446 0.59697 0.02841 0.0
H703 H 0.61366 0.62454 0.03784 0.0
H704 H 0.57609 0.63546 0.04229 0.0
H705 H 0.55673 0.60783 0.03264 0.0
H706 H 0.60213 0.65866 0.02177 0.0
H707 H 0.62139 0.64479 0.09469 0.0
H708 H 0.62288 0.63413 0.07309 0.0
H709 H 0.60378 0.63045 0.08089 0.0
C710 C 0.59021 0.60519 0.03141 0.0
C711 C 0.57396 0.60007 0.02985 0.0
C712 C 0.60125 0.62098 0.03693 0.0
C713 C 0.59636 0.63209 0.04115 0.0
C714 C 0.58019 0.62712 0.03925 0.0
H715 H 0.65191 0.72442 0.10308 0.0
H716 H 0.63282 0.69686 0.09317 0.0
C717 C 0.56911 0.61129 0.03374 0.0
C718 C 0.60815 0.64889 0.04734 0.0
H719 H 0.63661 0.67134 0.08329 0.0
C720 C 0.60964 0.66142 0.03525 0.0
C721 C 0.61787 0.65259 0.06507 0.0
C722 C 0.61634 0.63981 0.07931 0.0
C723 C 0.62071 0.67745 0.04018 0.0
C724 C 0.63078 0.68112 0.05756 0.0
C725 C 0.62908 0.66859 0.06984 0.0
C726 C 0.64278 0.69788 0.06362 0.0
C727 C 0.6213 0.69034 0.02692 0.0
C728 C 0.65503 0.70766 0.05054 0.0
C729 C 0.66602 0.72348 0.0562 0.0
C730 C 0.66505 0.72987 0.07512 0.0
C731 C 0.65301 0.71993 0.08838 0.0
C732 C 0.64206 0.70414 0.08272 0.0
H733 H 0.61031 0.68598 0.01755 0.0
H734 H 0.62309 0.70075 0.03626 0.0
H735 H 0.63134 0.6944 0.01641 0.0
H736 H 0.65611 0.70306 0.03591 0.0
H737 H 0.67516 0.73075 0.04565 0.0
H738 H 0.48447 0.02562 0.06378 0.0
H739 H 0.45655 0.01191 0.07424 0.0
H740 H 0.45141 0.05038 0.05046 0.0
H741 H 0.47883 0.064 0.0403 0.0
H742 H 0.44172 0.02742 0.10131 0.0
H743 H 0.41394 0.00764 0.02454 0.0
H744 H 0.43369 0.01153 0.03051 0.0
H745 H 0.43018 0.02776 0.02589 0.0
C746 C 0.4773 0.03102 0.06066 0.0
C747 C 0.48391 0.04592 0.05126 0.0
C748 C 0.4614 0.02324 0.0667 0.0
C749 C 0.45188 0.03011 0.06301 0.0
C750 C 0.45846 0.0448 0.05333 0.0
H751 H 0.36763 0.03156 0.07551 0.0
H752 H 0.39281 0.03337 0.06822 0.0
C753 C 0.47422 0.0526 0.04759 0.0
C754 C 0.43517 0.02258 0.06956 0.0
H755 H 0.3981 0.01014 0.05027 0.0
C756 C 0.43206 0.0232 0.09027 0.0
C757 C 0.42261 0.0172 0.05512 0.0
C758 C 0.42519 0.01584 0.03277 0.0
C759 C 0.41693 0.01965 0.09671 0.0
C760 C 0.40458 0.01517 0.08207 0.0
C761 C 0.40754 0.01364 0.06152 0.0
C762 C 0.38911 0.01378 0.08724 0.0
C763 C 0.41454 0.02173 0.11893 0.0
C764 C 0.37849 1.00211 0.10045 0.0
C765 C 0.36391 1.00103 0.10475 0.0
C766 C 0.35964 0.01156 0.09586 0.0
C767 C 0.37039 0.02321 0.08269 0.0
C768 C 0.38485 0.02426 0.07843 0.0
H769 H 0.42587 0.02765 0.12778 0.0
H770 H 0.4086 0.02888 0.12073 0.0
H771 H 0.40684 0.00988 0.12555 0.0
H772 H 0.38138 0.99373 0.10722 0.0
H773 H 0.35595 0.99187 0.11488 0.0
H774 H 0.5079 0.07103 0.46173 0.0
H775 H 0.48711 0.07746 0.45521 0.0
H776 H 0.46495 0.05526 0.51123 0.0
H777 H 0.48612 0.04922 0.51824 0.0
H778 H 0.45611 0.0611 0.44938 0.0
H779 H 0.46853 0.0979 0.51964 0.0
H780 H 0.48136 0.09066 0.51129 0.0
H781 H 0.46361 0.07782 0.52474 0.0
C782 C 0.49858 0.06738 0.47268 0.0
C783 C 0.49885 0.05967 0.49064 0.0
C784 C 0.48663 0.07111 0.4689 0.0
C785 C 0.47456 0.06726 0.48292 0.0
C786 C 0.47434 0.05885 0.50041 0.0
H787 H 0.39154 0.07739 0.488 0.0
H788 H 0.41269 0.07129 0.49253 0.0
C789 C 0.48639 0.0552 0.50429 0.0
C790 C 0.4624 0.07222 0.4792 0.0
H791 H 0.44551 0.09246 0.50049 0.0
C792 C 0.4539 0.06805 0.46054 0.0
C793 C 0.45949 0.08145 0.49359 0.0
C794 C 0.46883 0.08737 0.51334 0.0
C795 C 0.44238 0.07241 0.45617 0.0
C796 C 0.43928 0.08134 0.47073 0.0
C797 C 0.44785 0.08563 0.48929 0.0
C798 C 0.42655 0.08552 0.46756 0.0
C799 C 0.43328 0.06704 0.43621 0.0
C800 C 0.42725 0.09581 0.45209 0.0
C801 C 0.41506 0.09948 0.44946 0.0
C802 C 0.40185 0.09285 0.46218 0.0
C803 C 0.40138 0.0827 0.47774 0.0
C804 C 0.41354 0.07918 0.48044 0.0
H805 H 0.435 0.05786 0.42825 0.0
H806 H 0.42045 0.06213 0.43867 0.0
H807 H 0.43735 0.07742 0.42612 0.0
H808 H 0.43725 0.10107 0.4421 0.0
H809 H 0.4159 0.10734 0.43735 0.0
H810 H 1.00122 0.50326 0.50878 0.0
H811 H 0.99217 0.47482 0.50253 0.0
H812 H 0.03862 0.48713 0.48211 0.0
H813 H 0.04748 0.51511 0.48761 0.0
H814 H 0.0167 0.46561 0.45723 0.0
H815 H 1.0018 0.44609 0.53708 0.0
H816 H 0.99145 0.45537 0.52638 0.0
H817 H 0.01249 0.46682 0.53041 0.0
C818 C 0.00942 0.49985 0.50281 0.0
C819 C 0.02508 0.51152 0.49876 0.0
C820 C 1.00429 0.48359 0.49945 0.0
C821 C 0.01479 0.47876 0.49215 0.0
C822 C 0.03028 0.49046 0.48779 0.0
H823 H 0.01183 0.38737 0.49561 0.0
H824 H 0.0168 0.41458 0.50191 0.0
C825 C 0.03534 0.50655 0.491 0.0
C826 C 0.00998 0.46166 0.48864 0.0
H827 H 0.9975 0.42625 0.5125 0.0
C828 C 0.01242 0.45699 0.46932 0.0
C829 C 1.00466 0.45045 0.50447 0.0
C830 C 1.00256 0.4549 0.52581 0.0
C831 C 0.00993 0.44161 0.46543 0.0
C832 C 1.00431 0.43028 0.48113 0.0
C833 C 1.00174 0.43488 0.50044 0.0
C834 C 1.00109 0.41366 0.47772 0.0
C835 C 0.01391 0.43788 0.4447 0.0
C836 C 0.99048 0.40399 0.46224 0.0
C837 C 0.98783 0.38862 0.45845 0.0
C838 C 0.99549 0.38237 0.47029 0.0
C839 C 1.00583 0.39188 0.48614 0.0
C840 C 0.00862 0.40739 0.4898 0.0
H841 H 0.02244 0.44888 0.43681 0.0
H842 H 0.01904 0.42994 0.44582 0.0
H843 H 1.00299 0.4318 0.4351 0.0
H844 H 0.98418 0.40832 0.45305 0.0
H845 H 0.9796 0.38156 0.4463 0.0
H846 H 0.5997 0.56462 0.49501 0.0
H847 H 0.62353 0.58861 0.48422 0.0
H848 H 0.59633 0.61195 0.47433 0.0
H849 H 0.57245 0.58795 0.48455 0.0
H850 H 0.61704 0.61605 0.44257 0.0
H851 H 0.64754 0.63024 0.51824 0.0
H852 H 0.64104 0.61045 0.50863 0.0
H853 H 0.62671 0.6162 0.51488 0.0
C854 C 0.59876 0.57481 0.4904 0.0
C855 C 0.58415 0.57437 0.49084 0.0
C856 C 0.61242 0.58856 0.48442 0.0
C857 C 0.61174 0.60215 0.47877 0.0
C858 C 0.59715 0.60164 0.47878 0.0
H859 H 0.69036 0.69872 0.46962 0.0
H860 H 0.6655 0.67482 0.47752 0.0
C861 C 0.58351 0.58794 0.4848 0.0
C862 C 0.6262 0.61692 0.47283 0.0
H863 H 0.66224 0.64611 0.49076 0.0
C864 C 0.62693 0.62264 0.45309 0.0
C865 C 0.63899 0.6256 0.48668 0.0
C866 C 0.63855 0.62044 0.50836 0.0
C867 C 0.64021 0.63671 0.44674 0.0
C868 C 0.65316 0.64518 0.46043 0.0
C869 C 0.65233 0.63956 0.48025 0.0
C870 C 0.66771 0.6599 0.45457 0.0
C871 C 0.64015 0.64254 0.42556 0.0
C872 C 0.67717 0.65949 0.43895 0.0
C873 C 0.6914 0.67315 0.43434 0.0
C874 C 0.69652 0.6875 0.44537 0.0
C875 C 0.68682 0.68793 0.46076 0.0
C876 C 0.67261 0.67425 0.46536 0.0
H877 H 0.62798 0.63714 0.41897 0.0
H878 H 0.64561 0.6557 0.42555 0.0
H879 H 0.64712 0.6392 0.4155 0.0
H880 H 0.67377 0.64848 0.43066 0.0
H881 H 0.69855 0.67232 0.42246 0.0
H882 H 0.04081 0.5948 0.0168 0.0
H883 H 0.03708 0.6178 0.01317 0.0
H884 H 0.03894 0.61428 0.9479 0.0
H885 H 0.04282 0.59139 0.95131 0.0
H886 H 0.05324 0.6465 0.96426 0.0
H887 H 0.99238 0.60649 0.99187 0.0
H888 H 0.00853 0.60939 0.00823 0.0
H889 H 1.00521 0.59904 0.98425 0.0
C890 C 0.0409 0.59918 1.00168 0.0
C891 C 0.04182 0.59104 0.9843 0.0
C892 C 0.03867 0.61229 0.99965 0.0
C893 C 0.03736 0.61747 0.98026 0.0
C894 C 0.03981 0.61037 0.96301 0.0
H895 H 0.99207 0.65535 0.91338 0.0
H896 H 1.00355 0.64129 0.93069 0.0
C897 C 0.04203 0.59727 0.965 0.0
C898 C 0.03158 0.62888 0.9776 0.0
H899 H 0.99787 0.63126 0.97948 0.0
C900 C 0.04126 0.64336 0.968 0.0
C901 C 0.01587 0.62465 0.98234 0.0
C902 C 1.00479 0.60902 0.99212 0.0
C903 C 0.03542 0.65343 0.96235 0.0
C904 C 0.01956 0.64885 0.96633 0.0
C905 C 0.01008 0.63475 0.97669 0.0
C906 C 0.01195 0.65719 0.95696 0.0
C907 C 0.04591 0.66849 0.95113 0.0
C908 C 0.01261 0.6706 0.96631 0.0
C909 C 1.00593 0.67869 0.95646 0.0
C910 C 0.99865 0.67351 0.93709 0.0
C911 C 0.99768 0.65976 0.92819 0.0
C912 C 1.00423 0.65169 0.93804 0.0
H913 H 0.05828 0.67094 0.95037 0.0
H914 H 0.0412 0.66748 0.93538 0.0
H915 H 0.04589 0.67877 0.95875 0.0
H916 H 0.01851 0.67495 0.98097 0.0
H917 H 0.00693 0.68927 0.96369 0.0
H918 H 0.51571 0.49811 0.97726 0.0
H919 H 0.49424 0.4708 0.97126 0.0
H920 H 0.46473 0.47921 0.0119 0.0
H921 H 0.48605 0.50673 0.01754 0.0
H922 H 0.47931 0.44638 0.99641 0.0
H923 H 0.43535 0.46064 0.96342 0.0
H924 H 0.45581 0.47557 0.96754 0.0
H925 H 0.44241 0.469 0.98845 0.0
C926 C 0.50463 0.49421 0.98486 0.0
C927 C 0.50262 0.50473 0.99777 0.0
C928 C 0.49233 0.47853 0.98144 0.0
C929 C 0.47768 0.47289 0.99083 0.0
C930 C 0.47571 0.48329 1.00401 0.0
H931 H 0.39257 0.37665 0.97637 0.0
H932 H 0.41192 0.40276 0.99155 0.0
C933 C 0.48798 0.49905 0.00732 0.0
C934 C 0.46469 0.45608 0.98697 0.0
H935 H 0.42679 0.43343 0.96827 0.0
C936 C 0.46782 0.4436 0.99035 0.0
C937 C 0.44959 0.4523 0.97911 0.0
C938 C 0.44558 0.46507 0.97423 0.0
C939 C 0.45648 0.42762 0.9858 0.0
C940 C 0.44155 0.4239 0.97755 0.0
C941 C 0.43819 0.43626 0.97476 0.0
C942 C 0.43004 0.40759 0.9696 0.0
C943 C 0.46061 0.4148 0.9896 0.0
C944 C 0.4338 0.40159 0.95235 0.0
C945 C 0.4228 0.38687 0.94363 0.0
C946 C 0.40773 0.37763 0.95197 0.0
C947 C 0.4041 0.38338 0.96968 0.0
C948 C 0.41511 0.39833 0.97828 0.0
H949 H 0.47069 0.41887 1.00059 0.0
H950 H 0.4503 0.40393 0.99551 0.0
H951 H 0.46401 0.41154 0.97504 0.0
H952 H 0.44514 0.40853 0.94524 0.0
H953 H 0.42605 0.38284 0.93004 0.0
H954 H 0.57241 0.07924 0.97876 0.0
H955 H 0.59619 0.07936 0.96766 0.0
H956 H 0.59265 0.04944 0.0178 0.0
H957 H 0.56836 0.04891 0.02863 0.0
H958 H 0.62288 0.09235 0.98936 0.0
H959 H 0.60472 0.02926 0.9726 0.0
H960 H 0.59059 0.03596 0.97545 0.0
H961 H 0.59942 0.03248 0.99755 0.0
C962 C 0.57645 0.07231 0.98712 0.0
C963 C 0.56851 0.06402 1.00453 0.0
C964 C 0.5901 0.07244 0.98079 0.0
C965 C 0.59628 0.06441 0.99181 0.0
C966 C 0.58798 0.05549 0.00876 0.0
H967 H 0.68613 0.0685 0.99736 0.0
H968 H 0.65929 0.06336 1.00114 0.0
C969 C 0.5741 0.05518 0.01497 0.0
C970 C 0.61217 0.06684 0.98664 0.0
H971 H 0.63247 0.0476 0.9749 0.0
C972 C 0.62491 0.08254 0.98598 0.0
C973 C 0.6149 0.05408 0.98227 0.0
C974 C 0.60166 0.037 0.9818 0.0
C975 C 0.64029 0.08584 0.98156 0.0
C976 C 0.64305 0.07309 0.97743 0.0
C977 C 0.63033 0.05738 0.97794 0.0
C978 C 0.65926 0.07581 0.97407 0.0
C979 C 0.65355 0.10292 0.98203 0.0
C980 C 0.66824 0.08442 0.95737 0.0
C981 C 0.68379 0.08745 0.9551 0.0
C982 C 0.69064 0.08195 0.96952 0.0
C983 C 0.68141 0.07308 0.98597 0.0
C984 C 0.66595 0.07002 0.98816 0.0
H985 H 0.65003 0.11104 0.98935 0.0
H986 H 0.66405 0.10408 0.99035 0.0
H987 H 0.65705 0.10689 0.96621 0.0
H988 H 0.66324 0.08883 0.94614 0.0
H989 H 0.69047 0.09423 0.94221 0.0
H990 H 0.55556 0.01864 0.49697 0.0
H991 H 0.57461 0.01059 0.50762 0.0
H992 H 0.57153 0.02318 0.56982 0.0
H993 H 0.55248 0.03131 0.55931 0.0
H994 H 0.60439 0.03159 0.52744 0.0
H995 H 0.56785 0.97869 0.57434 0.0
H996 H 0.55927 0.98614 0.55605 0.0
H997 H 0.56666 0.99624 0.58017 0.0
C998 C 0.55867 0.01943 0.51299 0.0
C999 C 0.55236 0.02561 0.52725 0.0
C1000 C 0.56965 0.01486 0.51906 0.0
C1001 C 0.57448 0.01613 0.53957 0.0
C1002 C 0.56786 0.02183 0.55396 0.0
H1003 H 0.64677 0.99986 0.59918 0.0
H1004 H 0.62458 0.00458 0.5926 0.0
C1005 C 0.55696 0.02653 0.54789 0.0
C1006 C 0.58727 0.01262 0.54556 0.0
H1007 H 0.59528 0.98783 0.57372 0.0
C1008 C 0.60236 0.02199 0.53752 0.0
C1009 C 0.58476 1.00025 0.55896 0.0
C1010 C 0.56875 0.98963 0.56782 0.0
C1011 C 0.61496 0.0194 0.54248 0.0
C1012 C 0.61238 0.00671 0.55541 0.0
C1013 C 0.59733 0.99749 0.56375 0.0
C1014 C 0.62506 1.00263 0.55978 0.0
C1015 C 0.63104 0.03056 0.5341 0.0
C1016 C 0.6324 0.99934 0.54369 0.0
C1017 C 0.6451 0.99677 0.5474 0.0
C1018 C 0.65072 0.99712 0.56737 0.0
C1019 C 0.6428 0.99952 0.58362 0.0
C1020 C 0.63012 1.00226 0.57985 0.0
H1021 H 0.63226 0.04226 0.5303 0.0
H1022 H 0.64062 0.03261 0.54509 0.0
H1023 H 0.63264 0.02529 0.51987 0.0
H1024 H 0.62847 0.99901 0.52811 0.0
H1025 H 0.65067 0.99472 0.53447 0.0
H1026 H 0.02597 0.58938 0.56748 0.0
H1027 H 0.02693 0.61448 0.57704 0.0
H1028 H 0.03982 0.63106 0.5158 0.0
H1029 H 0.03879 0.60609 0.50634 0.0
H1030 H 0.05528 0.64304 0.5747 0.0
H1031 H 0.00919 0.64684 0.52908 0.0
H1032 H 0.00873 0.62822 0.53329 0.0
H1033 H 0.02141 0.64166 0.51442 0.0
C1034 C 0.02822 0.59808 0.55589 0.0
C1035 C 0.03195 0.59569 0.53608 0.0
C1036 C 0.02895 0.6125 0.56137 0.0
C1037 C 0.03331 0.62467 0.5471 0.0
C1038 C 0.03607 0.6218 0.52699 0.0
H1039 H 0.06686 0.72749 0.55713 0.0
H1040 H 0.05869 0.70048 0.54405 0.0
C1041 C 0.03545 0.6075 0.52157 0.0
C1042 C 0.03723 0.64103 0.55376 0.0
H1043 H 0.02915 0.67103 0.54487 0.0
C1044 C 0.04944 0.64908 0.56831 0.0
C1045 C 0.02986 0.64908 0.54512 0.0
C1046 C 0.01648 0.64098 0.52973 0.0
C1047 C 0.05457 0.66491 0.57434 0.0
C1048 C 0.04707 0.67291 0.56596 0.0
C1049 C 0.03493 0.66494 0.55127 0.0
C1050 C 0.05119 0.6892 0.57323 0.0
C1051 C 0.06824 0.67303 0.58937 0.0
C1052 C 0.04933 0.69179 0.59378 0.0
C1053 C 0.05404 0.70708 0.60125 0.0
C1054 C 0.06063 0.72031 0.58836 0.0
C1055 C 0.06193 0.71764 0.56753 0.0
C1056 C 0.05725 0.70221 0.56003 0.0
H1057 H 0.07558 0.66721 0.58958 0.0
H1058 H 0.07592 0.6858 0.58579 0.0
H1059 H 0.0636 0.67229 0.60489 0.0
H1060 H 0.04434 0.68194 0.60417 0.0
H1061 H 0.05253 0.7085 0.61731 0.0
H1062 H 0.47466 0.50882 0.56134 0.0
H1063 H 0.44725 0.49272 0.57177 0.0
H1064 H 0.44634 0.45042 0.54869 0.0
H1065 H 0.47384 0.46648 0.53841 0.0
H1066 H 0.42189 0.47558 0.54794 0.0
H1067 H 0.42662 0.43564 0.60353 0.0
H1068 H 0.4437 0.45331 0.59454 0.0
H1069 H 0.43493 0.43514 0.57952 0.0
C1070 C 0.46865 0.49608 0.55856 0.0
C1071 C 0.47642 0.48894 0.54898 0.0
C1072 C 0.453 0.48688 0.56463 0.0
C1073 C 0.44477 0.47032 0.56129 0.0
C1074 C 0.45255 0.46311 0.55194 0.0
H1075 H 0.34684 0.40718 0.54016 0.0
H1076 H 0.37488 0.42653 0.53965 0.0
C1077 C 0.46826 0.47231 0.54599 0.0
C1078 C 0.42773 0.46079 0.56615 0.0
H1079 H 0.40054 0.42729 0.59009 0.0
C1080 C 0.41727 0.46514 0.55739 0.0
C1081 C 0.42167 0.44734 0.57878 0.0
C1082 C 0.43234 0.44267 0.58981 0.0
C1083 C 0.40091 0.456 0.56009 0.0
C1084 C 0.39477 0.44193 0.57152 0.0
C1085 C 0.40524 0.43799 0.58114 0.0
C1086 C 0.37753 0.43053 0.57227 0.0
C1087 C 0.39034 0.46145 0.5505 0.0
C1088 C 0.36967 0.42606 0.59088 0.0
C1089 C 0.35349 0.41481 0.59129 0.0
C1090 C 0.34495 0.40773 0.57308 0.0
C1091 C 0.35294 0.41235 0.55452 0.0
C1092 C 0.36901 0.42354 0.55415 0.0
H1093 H 0.39679 0.47453 0.54829 0.0
H1094 H 0.38617 0.45558 0.5353 0.0
H1095 H 0.37985 0.45828 0.55994 0.0
H1096 H 0.37607 0.43124 0.60508 0.0
H1097 H 0.34775 0.41149 0.60586 0.0
H1098 H 0.74637 0.86958 0.3949 0.0
H1099 H 0.74721 0.84521 0.40191 0.0
H1100 H 0.7139 0.82088 0.35253 0.0
H1101 H 0.71316 0.84522 0.34525 0.0
H1102 H 0.72014 0.81402 0.41115 0.0
H1103 H 0.75144 0.81292 0.34156 0.0
H1104 H 0.75179 0.83074 0.35072 0.0
H1105 H 0.73457 0.81543 0.33756 0.0
C1106 C 0.73937 0.8591 0.38539 0.0
C1107 C 0.72971 0.85937 0.3695 0.0
C1108 C 0.73978 0.84517 0.38949 0.0
C1109 C 0.73072 0.83129 0.37763 0.0
C1110 C 0.72111 0.83151 0.36173 0.0
H1111 H 0.72227 0.73721 0.37703 0.0
H1112 H 0.71929 0.76036 0.36992 0.0
C1113 C 0.7206 0.8454 0.35771 0.0
C1114 C 0.73106 0.81648 0.38216 0.0
H1115 H 0.74215 0.79071 0.36294 0.0
C1116 C 0.72497 0.80892 0.40065 0.0
C1117 C 0.73725 0.8098 0.36835 0.0
C1118 C 0.74426 0.81765 0.34848 0.0
C1119 C 0.72478 0.79475 0.40565 0.0
C1120 C 0.73122 0.78819 0.39199 0.0
C1121 C 0.73719 0.79571 0.37341 0.0
C1122 C 0.7323 0.77379 0.39687 0.0
C1123 C 0.71737 0.7868 0.42532 0.0
C1124 C 0.74063 0.7736 0.41436 0.0
C1125 C 0.74224 0.76036 0.41852 0.0
C1126 C 0.73574 0.74707 0.40514 0.0
C1127 C 0.72737 0.74723 0.38767 0.0
C1128 C 0.72569 0.76047 0.38356 0.0
H1129 H 0.70877 0.79031 0.43067 0.0
H1130 H 0.7112 0.77362 0.42362 0.0
H1131 H 0.72674 0.79051 0.43727 0.0
H1132 H 0.74619 0.78386 0.4246 0.0
H1133 H 0.74888 0.76069 0.43203 0.0
H1134 H 0.24484 0.94207 0.39536 0.0
H1135 H 0.26882 0.96731 0.40398 0.0
H1136 H 0.24824 0.99303 0.37618 0.0
H1137 H 0.22416 0.96788 0.36804 0.0
H1138 H 0.29032 0.99087 0.38237 0.0
H1139 H 0.26103 0.01541 0.43023 0.0
H1140 H 0.25098 0.99499 0.42124 0.0
H1141 H 0.25272 0.01059 0.40492 0.0
C1142 C 0.24543 0.9531 0.39107 0.0
C1143 C 0.23247 0.95292 0.3812 0.0
C1144 C 0.25916 0.96756 0.39604 0.0
C1145 C 0.26031 0.9822 0.39118 0.0
C1146 C 0.24755 0.982 0.38075 0.0
H1147 H 0.34857 0.07428 0.38971 0.0
H1148 H 0.32593 0.04806 0.38093 0.0
C1149 C 0.23376 0.96757 0.37601 0.0
C1150 C 0.27484 0.99763 0.3969 0.0
H1151 H 0.28748 0.03357 0.42102 0.0
C1152 C 0.28969 1.00017 0.39092 0.0
C1153 C 0.27418 0.00975 0.40839 0.0
C1154 C 0.25889 0.00751 0.41676 0.0
C1155 C 0.30375 0.01448 0.39577 0.0
C1156 C 0.303 0.02688 0.40644 0.0
C1157 C 0.28817 0.02423 0.41266 0.0
C1158 C 0.31736 0.04259 0.41172 0.0
C1159 C 0.31929 0.01594 0.38983 0.0
C1160 C 0.32008 0.04857 0.43187 0.0
C1161 C 0.33284 0.0637 0.43682 0.0
C1162 C 0.34332 0.07323 0.42179 0.0
C1163 C 0.34084 0.06716 0.4017 0.0
C1164 C 0.32791 0.05209 0.39668 0.0
H1165 H 0.31827 0.00405 0.38787 0.0
H1166 H 0.32292 0.02207 0.37507 0.0
H1167 H 0.32871 0.02292 0.40141 0.0
H1168 H 0.31219 0.04158 0.44381 0.0
H1169 H 0.33438 0.06799 0.45244 0.0
H1170 H 0.15814 0.41258 0.39039 0.0
H1171 H 0.13131 0.40147 0.40238 0.0
H1172 H 0.11997 0.35511 0.37913 0.0
H1173 H 0.14718 0.3663 0.36682 0.0
H1174 H 0.09771 0.36454 0.36784 0.0
H1175 H 0.10998 0.37285 0.45079 0.0
H1176 H 0.12227 0.39066 0.43713 0.0
H1177 H 0.12407 0.37326 0.4329 0.0
C1178 C 0.15005 0.39997 0.38793 0.0
C1179 C 0.15486 0.39034 0.37762 0.0
C1180 C 0.13469 0.3936 0.39498 0.0
C1181 C 0.12364 0.3774 0.39197 0.0
C1182 C 0.12835 0.36763 0.38179 0.0
H1183 H 0.03002 0.34247 0.44627 0.0
H1184 H 0.05533 0.34486 0.43699 0.0
C1185 C 0.14389 0.37401 0.37482 0.0
C1186 C 0.10705 0.37123 0.39846 0.0
H1187 H 0.08539 0.37059 0.43932 0.0
C1188 C 0.09496 0.36559 0.38353 0.0
C1189 C 0.10335 0.3724 0.41896 0.0
C1190 C 0.11558 0.37747 0.4359 0.0
C1191 C 0.07953 0.36199 0.38835 0.0
C1192 C 0.07614 0.36432 0.4086 0.0
C1193 C 0.088 0.36904 0.42374 0.0
C1194 C 0.06064 0.36269 0.41418 0.0
C1195 C 0.06705 0.35588 0.37163 0.0
C1196 C 0.0553 0.37214 0.4048 0.0
C1197 C 0.04087 0.37084 0.41009 0.0
C1198 C 0.03141 0.36011 0.42503 0.0
C1199 C 0.03692 0.35084 0.43469 0.0
C1200 C 0.05141 0.35217 0.42937 0.0
H1201 H 0.06996 0.35004 0.3591 0.0
H1202 H 0.05526 0.34724 0.37751 0.0
H1203 H 0.06636 0.36604 0.36512 0.0
H1204 H 0.06237 0.38066 0.39344 0.0
H1205 H 0.03713 0.37826 0.40237 0.0
H1206 H 0.13238 0.35361 0.85201 0.0
H1207 H 0.11599 0.36416 0.83948 0.0
H1208 H 0.15707 0.40465 0.81542 0.0
H1209 H 0.1738 0.39393 0.82807 0.0
H1210 H 0.11708 0.39321 0.84784 0.0
H1211 H 0.12599 0.38655 0.76554 0.0
H1212 H 0.1311 0.37679 0.78501 0.0
H1213 H 0.14331 0.39781 0.78151 0.0
C1214 C 0.13806 0.36483 0.84416 0.0
C1215 C 0.15447 0.37286 0.84099 0.0
C1216 C 0.1286 0.37087 0.83699 0.0
C1217 C 0.13513 0.38509 0.82618 0.0
C1218 C 0.15164 0.3935 0.82343 0.0
H1219 H 0.07457 0.41918 0.76766 0.0
H1220 H 0.0982 0.41797 0.77841 0.0
C1221 C 0.16124 0.38748 0.83086 0.0
C1222 C 0.12431 0.39063 0.81791 0.0
H1223 H 0.10702 0.39377 0.77375 0.0
C1224 C 0.11507 0.39355 0.83163 0.0
C1225 C 0.12161 0.39114 0.79673 0.0
C1226 C 0.13091 0.38784 0.78123 0.0
C1227 C 0.103 0.39644 0.82486 0.0
C1228 C 0.09969 0.3961 0.80372 0.0
C1229 C 0.10942 0.39396 0.78993 0.0
C1230 C 0.08542 0.39661 0.79596 0.0
C1231 C 0.0937 0.39963 0.84054 0.0
C1232 C 0.07028 0.38479 0.80162 0.0
C1233 C 0.05681 0.38541 0.79548 0.0
C1234 C 0.05797 0.39786 0.78334 0.0
C1235 C 0.07313 0.40942 0.777 0.0
C1236 C 0.08669 0.40876 0.78318 0.0
H1237 H 0.10056 0.40438 0.85504 0.0
H1238 H 0.09023 0.40823 0.83491 0.0
H1239 H 0.0828 0.3883 0.84389 0.0
H1240 H 0.06885 0.37507 0.81104 0.0
H1241 H 0.04544 0.37616 0.80059 0.0
H1242 H 0.73236 0.84445 0.79465 0.0
H1243 H 0.72413 0.81679 0.7853 0.0
H1244 H 0.68348 0.80052 0.82341 0.0
H1245 H 0.69151 0.82806 0.83251 0.0
H1246 H 0.72015 0.79224 0.80856 0.0
H1247 H 0.66324 0.77709 0.77073 0.0
H1248 H 0.678 0.79731 0.77738 0.0
H1249 H 0.66476 0.78443 0.79632 0.0
C1250 C 0.72164 0.83496 0.80095 0.0
C1251 C 0.71249 0.83845 0.81412 0.0
C1252 C 0.71694 0.81917 0.7956 0.0
C1253 C 0.70303 0.80657 0.80337 0.0
C1254 C 0.694 0.81003 0.81675 0.0
H1255 H 0.67718 0.70646 0.80684 0.0
H1256 H 0.68755 0.73479 0.81474 0.0
C1257 C 0.69861 0.8258 0.82195 0.0
C1258 C 0.69811 0.7898 0.79784 0.0
H1259 H 0.66725 0.75536 0.77826 0.0
C1260 C 0.70862 0.78419 0.8018 0.0
C1261 C 0.68315 0.77936 0.78877 0.0
C1262 C 0.6717 0.78488 0.78285 0.0
C1263 C 0.70448 0.76834 0.79729 0.0
C1264 C 0.68926 0.75773 0.78903 0.0
C1265 C 0.67886 0.76344 0.78478 0.0
C1266 C 0.68387 0.74073 0.78422 0.0
C1267 C 0.71656 0.76324 0.80103 0.0
C1268 C 0.67812 0.73455 0.76457 0.0
C1269 C 0.67194 0.71837 0.76016 0.0
C1270 C 0.67147 0.708 0.77527 0.0
C1271 C 0.67752 0.7142 0.79485 0.0
C1272 C 0.68354 0.73041 0.79934 0.0
H1273 H 0.72877 0.7736 0.80152 0.0
H1274 H 0.71437 0.75733 0.81596 0.0
H1275 H 0.7158 0.7547 0.78906 0.0
H1276 H 0.67822 0.74225 0.75266 0.0
H1277 H 0.66738 0.71397 0.74491 0.0
H1278 H 0.23264 0.88818 0.79099 0.0
H1279 H 0.25975 0.90725 0.78177 0.0
H1280 H 0.27065 0.92402 0.84417 0.0
H1281 H 0.24369 0.90481 0.85359 0.0
H1282 H 0.27195 0.93878 0.78452 0.0
H1283 H 0.31012 0.92294 0.82956 0.0
H1284 H 0.28919 0.90945 0.82585 0.0
H1285 H 0.29625 0.92493 0.84518 0.0
C1286 C 0.24091 0.89562 0.80288 0.0
C1287 C 0.23592 0.89496 0.82304 0.0
C1288 C 0.25642 0.90657 0.79756 0.0
C1289 C 0.26734 0.91705 0.81226 0.0
C1290 C 0.26261 0.91587 0.83259 0.0
H1291 H 0.33982 0.01314 0.80315 0.0
H1292 H 0.31624 0.98734 0.80703 0.0
C1293 C 0.24711 0.90488 0.83795 0.0
C1294 C 0.28292 0.93043 0.80599 0.0
H1295 H 0.32256 0.94986 0.81729 0.0
C1296 C 0.28303 0.94102 0.79147 0.0
C1297 C 0.29745 0.93335 0.81482 0.0
C1298 C 0.2983 0.92196 0.82956 0.0
C1299 C 0.29708 0.95479 0.78633 0.0
C1300 C 0.31144 0.95825 0.79616 0.0
C1301 C 0.31152 0.94728 0.80989 0.0
C1302 C 0.32611 0.97383 0.79364 0.0
C1303 C 0.29638 0.96571 0.77067 0.0
C1304 C 0.33971 0.97486 0.78512 0.0
C1305 C 0.3534 0.98976 0.78282 0.0
C1306 C 0.35375 1.00385 0.78925 0.0
C1307 C 0.34008 1.00263 0.79795 0.0
C1308 C 0.32649 0.98784 0.80013 0.0
H1309 H 0.28582 0.9593 0.76045 0.0
H1310 H 0.29563 0.97549 0.77856 0.0
H1311 H 0.30713 0.97108 0.76126 0.0
H1312 H 0.33969 0.96416 0.78011 0.0
H1313 H 0.3637 0.99021 0.77616 0.0
H1314 H 0.72888 0.96396 0.30365 0.0
H1315 H 0.72102 0.98406 0.29876 0.0
H1316 H 0.68723 0.96344 0.34665 0.0
H1317 H 0.69496 0.94328 0.3515 0.0
H1318 H 0.6741 0.96827 0.3135 0.0
H1319 H 0.73046 0.02333 0.33185 0.0
H1320 H 0.73264 0.01132 0.31263 0.0
H1321 H 0.72715 1.00379 0.33793 0.0
C1322 C 0.71995 0.96386 0.31335 0.0
C1323 C 0.71251 0.95196 0.3279 0.0
C1324 C 0.7155 0.97541 0.3106 0.0
C1325 C 0.70368 0.97544 0.32254 0.0
C1326 C 0.6964 0.9637 0.33727 0.0
H1327 H 0.67994 0.05209 0.31302 0.0
H1328 H 0.68749 0.03346 0.32739 0.0
C1329 C 0.70077 0.95211 0.33995 0.0
C1330 C 0.69815 0.987 0.31873 0.0
H1331 H 0.7108 0.02664 0.3137 0.0
C1332 C 0.68211 0.98104 0.3138 0.0
C1333 C 0.7085 1.0037 0.31945 0.0
C1334 C 0.72561 0.01093 0.32597 0.0
C1335 C 0.6763 0.99123 0.30868 0.0
C1336 C 0.68685 0.00784 0.3081 0.0
C1337 C 0.70274 0.01389 0.31395 0.0
C1338 C 0.68185 0.01893 0.29994 0.0
C1339 C 0.65891 0.98407 0.30377 0.0
C1340 C 0.67629 0.01702 0.27975 0.0
C1341 C 0.67199 0.02755 0.27155 0.0
C1342 C 0.67322 0.04041 0.28327 0.0
C1343 C 0.67875 0.0423 0.30358 0.0
C1344 C 0.68312 0.0317 0.3118 0.0
H1345 H 0.65184 0.97233 0.31105 0.0
H1346 H 0.65448 0.99207 0.30885 0.0
H1347 H 0.65696 0.98216 0.28705 0.0
H1348 H 0.67551 0.00747 0.27017 0.0
H1349 H 0.66783 0.02566 0.25585 0.0
H1350 H 0.1585 0.83431 0.32893 0.0
H1351 H 0.13968 0.8069 0.31849 0.0
H1352 H 0.10156 0.81708 0.322 0.0
H1353 H 0.12034 0.84459 0.33248 0.0
H1354 H 0.11345 0.78292 0.33723 0.0
H1355 H 0.09621 0.79907 0.2643 0.0
H1356 H 0.1131 0.81316 0.27943 0.0
H1357 H 0.09352 0.80838 0.28649 0.0
C1358 C 0.14611 0.83075 0.32768 0.0
C1359 C 0.141 0.84179 0.33148 0.0
C1360 C 0.13534 0.81503 0.32164 0.0
C1361 C 0.1192 0.80993 0.31917 0.0
C1362 C 0.11399 0.82079 0.32336 0.0
H1363 H 0.0449 0.70947 0.2989 0.0
H1364 H 0.06204 0.73579 0.31478 0.0
C1365 C 0.12477 0.83655 0.32934 0.0
C1366 C 0.10797 0.79335 0.31189 0.0
H1367 H 0.08243 0.77191 0.2728 0.0
C1368 C 0.10662 0.78049 0.32318 0.0
C1369 C 0.09917 0.79017 0.29344 0.0
C1370 C 0.10063 0.8034 0.28008 0.0
C1371 C 0.09679 0.7646 0.31648 0.0
C1372 C 0.08789 0.76144 0.29812 0.0
C1373 C 0.08916 0.7743 0.28694 0.0
C1374 C 0.07792 0.74501 0.28944 0.0
C1375 C 0.09641 0.75136 0.32876 0.0
C1376 C 0.08106 0.74137 0.26994 0.0
C1377 C 0.07127 0.72645 0.26081 0.0
C1378 C 0.05799 0.71469 0.27091 0.0
C1379 C 0.05507 0.71816 0.29072 0.0
C1380 C 0.06489 0.73321 0.29985 0.0
H1381 H 0.10654 0.75587 0.33976 0.0
H1382 H 0.08535 0.74554 0.33752 0.0
H1383 H 0.0966 0.7422 0.31866 0.0
H1384 H 0.09104 0.75021 0.2616 0.0
H1385 H 0.07401 0.72426 0.2456 0.0
H1386 H 0.23666 0.39383 0.35596 0.0
H1387 H 0.26383 0.39968 0.35079 0.0
H1388 H 0.25696 0.39963 0.28585 0.0
H1389 H 0.22987 0.39386 0.2908 0.0
H1390 H 0.27732 0.38428 0.32724 0.0
H1391 H 0.29473 0.44456 0.29893 0.0
H1392 H 0.27654 0.43258 0.31214 0.0
H1393 H 0.27812 0.42836 0.28584 0.0
C1394 C 0.2408 0.39474 0.34054 0.0
C1395 C 0.23106 0.39348 0.3238 0.0
C1396 C 0.25638 0.39817 0.33762 0.0
C1397 C 0.26256 0.40047 0.31795 0.0
C1398 C 0.25258 0.39826 0.30118 0.0
H1399 H 0.35808 0.43302 0.27344 0.0
H1400 H 0.32994 0.4246 0.27617 0.0
C1401 C 0.23702 0.39483 0.30407 0.0
C1402 C 0.27956 0.40578 0.315 0.0
H1403 H 0.31413 0.43682 0.2981 0.0
C1404 C 0.28538 0.39576 0.32089 0.0
C1405 C 0.29007 0.42076 0.30662 0.0
C1406 C 0.28464 0.43228 0.30065 0.0
C1407 C 0.30135 0.40024 0.31847 0.0
C1408 C 0.31192 0.41532 0.31037 0.0
C1409 C 0.30606 0.42527 0.30428 0.0
C1410 C 0.32917 0.42117 0.30873 0.0
C1411 C 0.30669 0.38861 0.32429 0.0
C1412 C 0.33825 0.42259 0.32617 0.0
C1413 C 0.35428 0.42739 0.32467 0.0
C1414 C 0.36173 0.43105 0.30568 0.0
C1415 C 0.35277 0.4303 0.2883 0.0
C1416 C 0.33666 0.42542 0.28983 0.0
H1417 H 0.29663 0.37618 0.32434 0.0
H1418 H 0.31572 0.38917 0.31371 0.0
H1419 H 0.31198 0.39163 0.33988 0.0
H1420 H 0.3329 0.41985 0.341 0.0
H1421 H 0.36077 0.42799 0.33845 0.0
H1422 H 0.23557 0.37657 0.89495 0.0
H1423 H 0.26003 0.37687 0.9059 0.0
H1424 H 0.24672 0.33499 0.86864 0.0
H1425 H 0.22261 0.33452 0.85806 0.0
H1426 H 0.25511 0.33127 0.90655 0.0
H1427 H 0.30108 0.38925 0.87661 0.0
H1428 H 0.28699 0.39005 0.89321 0.0
H1429 H 0.28056 0.38015 0.8688 0.0
C1430 C 0.23804 0.36763 0.88887 0.0
C1431 C 0.22702 0.35549 0.87568 0.0
C1432 C 0.25204 0.36778 0.89514 0.0
C1433 C 0.25533 0.35591 0.88816 0.0
C1434 C 0.24453 0.3442 0.87448 0.0
H1435 H 0.33904 0.34849 0.87982 0.0
H1436 H 0.31652 0.35262 0.87631 0.0
C1437 C 0.23067 0.34399 0.86838 0.0
C1438 C 0.26953 0.35494 0.89528 0.0
H1439 H 0.30993 0.37383 0.89371 0.0
C1440 C 0.26711 0.34067 0.90392 0.0
C1441 C 0.28525 0.36709 0.89176 0.0
C1442 C 0.28873 0.38247 0.88195 0.0
C1443 C 0.27976 0.33802 0.90851 0.0
C1444 C 0.29548 0.3501 0.90481 0.0
C1445 C 0.29795 0.36455 0.89668 0.0
C1446 C 0.30937 0.34753 0.90761 0.0
C1447 C 0.27604 0.32196 0.91633 0.0
C1448 C 0.3131 0.34322 0.92646 0.0
C1449 C 0.32606 0.34067 0.92853 0.0
C1450 C 0.33575 0.34253 0.91186 0.0
C1451 C 0.33197 0.34691 0.8931 0.0
C1452 C 0.31904 0.34937 0.89103 0.0
H1453 H 0.26342 0.31283 0.91371 0.0
H1454 H 0.28347 0.31773 0.90891 0.0
H1455 H 0.27852 0.32295 0.93298 0.0
H1456 H 0.30609 0.342 0.93967 0.0
H1457 H 0.32863 0.33749 0.94327 0.0
H1458 H 0.72846 0.95037 0.83597 0.0
H1459 H 0.72983 0.97575 0.84421 0.0
H1460 H 0.75385 0.97862 0.90099 0.0
H1461 H 0.75258 0.95343 0.89286 0.0
H1462 H 0.71623 0.98166 0.87616 0.0
H1463 H 0.78064 0.0232 0.88056 0.0
H1464 H 0.77218 1.00362 0.86883 0.0
H1465 H 0.7751 0.00616 0.89605 0.0
C1466 C 0.73418 0.95651 0.85011 0.0
C1467 C 0.74043 0.94987 0.86374 0.0
C1468 C 0.735 0.97103 0.85476 0.0
C1469 C 0.74216 0.97922 0.87307 0.0
C1470 C 0.74868 0.97277 0.8865 0.0
H1471 H 0.74189 0.04537 0.95632 0.0
H1472 H 0.74342 0.02486 0.93636 0.0
C1473 C 0.74792 0.95831 0.88184 0.0
C1474 C 0.74162 0.99373 0.87911 0.0
H1475 H 0.7644 0.03141 0.89873 0.0
C1476 C 0.72679 0.99267 0.88067 0.0
C1477 C 0.7554 0.00812 0.8849 0.0
C1478 C 0.77173 0.01041 0.88229 0.0
C1479 C 0.72533 0.00526 0.88903 0.0
C1480 C 0.73904 0.01922 0.89594 0.0
C1481 C 0.75391 0.02061 0.8935 0.0
C1482 C 0.73805 0.03183 0.90755 0.0
C1483 C 0.70912 1.0033 0.89147 0.0
C1484 C 0.73453 0.04254 0.89786 0.0
C1485 C 0.73368 0.0544 0.90924 0.0
C1486 C 0.73627 0.05563 0.93049 0.0
C1487 C 0.73975 0.04478 0.94003 0.0
C1488 C 0.74069 0.03306 0.92866 0.0
H1489 H 0.69956 0.99131 0.88636 0.0
H1490 H 0.7073 0.00523 0.90767 0.0
H1491 H 0.70817 0.0124 0.88243 0.0
H1492 H 0.73252 0.04177 0.88153 0.0
H1493 H 0.73101 0.06257 0.90139 0.0
H1494 H 0.16059 0.83414 0.87908 0.0
H1495 H 0.13568 0.81032 0.88816 0.0
H1496 H 0.10972 0.83326 0.86873 0.0
H1497 H 0.13426 0.85696 0.86041 0.0
H1498 H 0.0993 0.81958 0.90402 0.0
H1499 H 0.10277 0.77641 0.85099 0.0
H1500 H 0.11901 0.78611 0.86887 0.0
H1501 H 0.1161 0.79758 0.84975 0.0
C1502 C 0.14954 0.83401 0.87671 0.0
C1503 C 0.14943 0.84746 0.86908 0.0
C1504 C 0.1353 0.82038 0.8818 0.0
C1505 C 0.12074 0.8199 0.87897 0.0
C1506 C 0.12073 0.8333 0.87118 0.0
H1507 H 0.02656 0.74121 0.86329 0.0
H1508 H 0.05327 0.76385 0.86078 0.0
C1509 C 0.13485 0.84689 0.86639 0.0
C1510 C 0.10537 0.8057 0.88415 0.0
H1511 H 0.08053 0.76646 0.87187 0.0
C1512 C 0.09522 0.80793 0.89707 0.0
C1513 C 0.09998 0.79053 0.87497 0.0
C1514 C 0.10994 0.78747 0.86023 0.0
C1515 C 0.07973 0.79563 0.90052 0.0
C1516 C 0.07433 0.78045 0.89134 0.0
C1517 C 0.08465 0.77808 0.87894 0.0
C1518 C 0.05777 0.76711 0.89332 0.0
C1519 C 0.0691 0.79931 0.91316 0.0
C1520 C 0.05122 0.76144 0.91248 0.0
C1521 C 0.03575 0.74864 0.91397 0.0
C1522 C 0.02666 0.74102 0.89631 0.0
C1523 C 0.03322 0.74679 0.8772 0.0
C1524 C 0.04855 0.7597 0.87573 0.0
H1525 H 0.07353 0.81232 0.91427 0.0
H1526 H 0.05689 0.79335 0.90667 0.0
H1527 H 0.06867 0.79497 0.92882 0.0
H1528 H 0.05817 0.76667 0.92628 0.0
H1529 H 0.03114 0.74433 0.92891 0.0
H1530 H 0.35558 0.15615 0.68381 0.0
H1531 H 0.3617 0.1348 0.68849 0.0
H1532 H 0.33409 0.12065 0.7429 0.0
H1533 H 0.32802 0.14202 0.73846 0.0
H1534 H 0.37764 0.13191 0.72157 0.0
H1535 H 0.31844 0.0781 0.71259 0.0
H1536 H 0.32259 0.0975 0.70428 0.0
H1537 H 0.31907 0.09244 0.73069 0.0
C1538 C 0.35077 0.14849 0.69676 0.0
C1539 C 0.34134 0.15087 0.7108 0.0
C1540 C 0.35419 0.13622 0.69932 0.0
C1541 C 0.34817 0.12599 0.71588 0.0
C1542 C 0.33855 0.12815 0.72974 0.0
H1543 H 0.38545 0.07473 0.77834 0.0
H1544 H 0.37495 0.09162 0.76717 0.0
C1545 C 0.33511 0.14041 0.72719 0.0
C1546 C 0.35302 0.11396 0.71962 0.0
H1547 H 0.33881 0.07434 0.72758 0.0
C1548 C 0.36916 0.1193 0.72266 0.0
C1549 C 0.34195 0.0975 0.72085 0.0
C1550 C 0.32455 0.09099 0.71673 0.0
C1551 C 0.37448 0.10872 0.72764 0.0
C1552 C 0.36336 0.09239 0.72984 0.0
C1553 C 0.34727 0.08691 0.72606 0.0
C1554 C 0.36831 0.08107 0.73693 0.0
C1555 C 0.39198 0.1151 0.7307 0.0
C1556 C 0.36755 0.06917 0.72379 0.0
C1557 C 0.37356 0.05944 0.73014 0.0
C1558 C 0.38033 0.06146 0.74975 0.0
C1559 C 0.38041 0.07294 0.7631 0.0
C1560 C 0.37445 0.08263 0.75675 0.0
H1561 H 0.39911 0.12699 0.72382 0.0
H1562 H 0.39484 0.11634 0.74726 0.0
H1563 H 0.39551 0.10681 0.72398 0.0
H1564 H 0.36277 0.06776 0.70845 0.0
H1565 H 0.37331 0.05067 0.71955 0.0
H1566 H 0.88552 0.25609 0.68165 0.0
H1567 H 0.90612 0.28439 0.68591 0.0
H1568 H 0.92487 0.27279 0.73856 0.0
H1569 H 0.90465 0.24488 0.7344 0.0
H1570 H 0.91623 0.30756 0.71983 0.0
H1571 H 0.96258 0.29312 0.69964 0.0
H1572 H 0.94184 0.27958 0.6945 0.0
H1573 H 0.9501 0.28104 0.71959 0.0
C1574 C 0.89381 0.25968 0.69439 0.0
C1575 C 0.89345 0.24818 0.70763 0.0
C1576 C 0.90566 0.27584 0.69673 0.0
C1577 C 0.91733 0.28071 0.71229 0.0
C1578 C 0.91629 0.26935 0.72617 0.0
H1579 H 0.98488 0.3715 0.7674 0.0
H1580 H 0.96246 0.34546 0.75794 0.0
C1581 C 0.90461 0.25336 0.72382 0.0
C1582 C 0.931 0.29739 0.71395 0.0
H1583 H 0.97146 0.31855 0.71557 0.0
C1584 C 0.9283 0.30999 0.71867 0.0
C1585 C 0.94681 0.30072 0.71215 0.0
C1586 C 0.95056 0.28794 0.706 0.0
C1587 C 0.94094 0.32561 0.72252 0.0
C1588 C 0.95676 0.32873 0.72196 0.0
C1589 C 0.95942 0.31624 0.71631 0.0
C1590 C 0.97067 0.34467 0.72773 0.0
C1591 C 0.93717 0.33863 0.72707 0.0
C1592 C 0.98326 0.35281 0.71432 0.0
C1593 C 0.99628 0.36774 0.71982 0.0
C1594 C 0.99708 0.37484 0.73894 0.0
C1595 C 0.98466 0.36649 0.7525 0.0
C1596 C 0.9717 0.3516 0.74701 0.0
H1597 H 0.92542 0.33565 0.72065 0.0
H1598 H 0.93687 0.34007 0.74382 0.0
H1599 H 0.94623 0.35017 0.72086 0.0
H1600 H 0.98291 0.34771 0.69943 0.0
H1601 H 1.00561 0.37381 0.70899 0.0
H1602 H 0.83157 0.71235 0.73191 0.0
H1603 H 0.80523 0.70775 0.73983 0.0
H1604 H 0.79125 0.69667 0.67652 0.0
H1605 H 0.8178 0.70198 0.66839 0.0
H1606 H 0.77909 0.71283 0.6909 0.0
H1607 H 0.76674 0.66566 0.74622 0.0
H1608 H 0.78387 0.68409 0.75377 0.0
H1609 H 0.784 0.67402 0.73059 0.0
C1610 C 0.82294 0.70911 0.71963 0.0
C1611 C 0.82682 0.70751 0.69952 0.0
C1612 C 0.80777 0.70626 0.72423 0.0
C1613 C 0.79596 0.70131 0.70893 0.0
C1614 C 0.80002 0.70031 0.6887 0.0
H1615 H 0.69445 0.65883 0.73473 0.0
H1616 H 0.72079 0.66284 0.72701 0.0
C1617 C 0.81527 0.70343 0.68403 0.0
C1618 C 0.77948 0.69737 0.7139 0.0
H1619 H 0.74876 0.67565 0.74566 0.0
C1620 C 0.77246 0.70462 0.70281 0.0
C1621 C 0.77052 0.68634 0.7291 0.0
C1622 C 0.7766 0.67695 0.74043 0.0
C1623 C 0.75706 0.70151 0.70676 0.0
C1624 C 0.74851 0.6913 0.72285 0.0
C1625 C 0.75533 0.68369 0.73358 0.0
C1626 C 0.73264 0.68861 0.72888 0.0
C1627 C 0.75004 0.70899 0.69326 0.0
C1628 C 0.73055 0.70164 0.73333 0.0
C1629 C 0.71556 0.69937 0.7374 0.0
C1630 C 0.70227 0.68397 0.73772 0.0
C1631 C 0.70445 0.67082 0.73459 0.0
C1632 C 0.7195 0.67313 0.73011 0.0
H1633 H 0.75551 0.71165 0.67802 0.0
H1634 H 0.73708 0.70112 0.69113 0.0
H1635 H 0.75232 0.72043 0.70029 0.0
H1636 H 0.74051 0.71366 0.73334 0.0
H1637 H 0.71434 0.70975 0.74009 0.0
H1638 H 0.80305 0.70439 0.12159 0.0
H1639 H 0.78689 0.71652 0.11545 0.0
H1640 H 0.8182 0.75666 0.15388 0.0
H1641 H 0.83457 0.74427 0.16046 0.0
H1642 H 0.78717 0.74562 0.16286 0.0
H1643 H 0.79309 0.75253 0.07972 0.0
H1644 H 0.78718 0.73249 0.08654 0.0
H1645 H 0.80615 0.74857 0.0951 0.0
C1646 C 0.80673 0.71591 0.12862 0.0
C1647 C 0.82023 0.72333 0.14152 0.0
C1648 C 0.79745 0.72293 0.12491 0.0
C1649 C 0.80137 0.7377 0.13383 0.0
C1650 C 0.81496 0.74533 0.14661 0.0
H1651 H 0.73904 0.77665 0.0986 0.0
H1652 H 0.76294 0.77456 0.10397 0.0
C1653 C 0.82437 0.73827 0.1503 0.0
C1654 C 0.79052 0.74435 0.13072 0.0
H1655 H 0.76965 0.75119 0.09375 0.0
C1656 C 0.78357 0.7471 0.14774 0.0
C1657 C 0.78587 0.7466 0.11104 0.0
C1658 C 0.7936 0.74506 0.09209 0.0
C1659 C 0.77154 0.75105 0.14561 0.0
C1660 C 0.76597 0.75199 0.12589 0.0
C1661 C 0.77362 0.75023 0.10889 0.0
C1662 C 0.75161 0.75365 0.12265 0.0
C1663 C 0.76481 0.75403 0.16461 0.0
C1664 C 0.73714 0.74248 0.13092 0.0
C1665 C 0.72353 0.74363 0.12789 0.0
C1666 C 0.72383 0.75595 0.11629 0.0
C1667 C 0.73829 0.76704 0.10768 0.0
C1668 C 0.75199 0.76586 0.11076 0.0
H1669 H 0.77358 0.75833 0.17743 0.0
H1670 H 0.76098 0.76291 0.16203 0.0
H1671 H 0.75442 0.7427 0.16926 0.0
H1672 H 0.73628 0.73265 0.13962 0.0
H1673 H 0.7127 0.73472 0.13467 0.0
H1674 H 0.36568 0.16942 0.17052 0.0
H1675 H 0.36458 0.14398 0.1651 0.0
H1676 H 0.31376 0.11963 0.16738 0.0
H1677 H 0.31471 0.14491 0.17381 0.0
H1678 H 0.32564 0.1042 0.18884 0.0
H1679 H 0.35251 0.11837 0.11255 0.0
H1680 H 0.36467 0.13227 0.13222 0.0
H1681 H 0.34603 0.13062 0.1253 0.0
C1682 C 0.35423 0.15871 0.17008 0.0
C1683 C 0.34027 0.15942 0.17255 0.0
C1684 C 0.35363 0.14412 0.1667 0.0
C1685 C 0.33907 0.12988 0.16543 0.0
C1686 C 0.32514 0.13047 0.16815 0.0
H1687 H 0.31554 0.03954 0.11133 0.0
H1688 H 0.32099 0.06634 0.12004 0.0
C1689 C 0.32572 0.14503 0.17166 0.0
C1690 C 0.33829 0.11433 0.16136 0.0
H1691 H 0.34787 0.0941 0.1267 0.0
C1692 C 0.33053 0.102 0.17527 0.0
C1693 C 0.34455 0.11139 0.14356 0.0
C1694 C 0.35227 0.1238 0.12744 0.0
C1695 C 0.32873 0.08682 0.17181 0.0
C1696 C 0.33519 0.08395 0.15416 0.0
C1697 C 0.34308 0.09634 0.14035 0.0
C1698 C 0.33275 0.06787 0.14881 0.0
C1699 C 0.3194 0.07384 0.18672 0.0
C1700 C 0.33784 0.05984 0.16186 0.0
C1701 C 0.33464 0.04435 0.15694 0.0
C1702 C 0.32641 0.03671 0.13879 0.0
C1703 C 0.32186 0.04503 0.12546 0.0
C1704 C 0.32499 0.0604 0.13041 0.0
H1705 H 0.31213 0.07689 0.19666 0.0
H1706 H 0.31146 0.06238 0.17863 0.0
H1707 H 0.32767 0.0721 0.19663 0.0
H1708 H 0.34418 0.06548 0.17592 0.0
H1709 H 0.33836 0.03829 0.16747 0.0
H1710 H 0.90411 0.29206 0.1943 0.0
H1711 H 0.93007 0.31018 0.18067 0.0
H1712 H 0.93111 0.27051 0.15191 0.0
H1713 H 0.90499 0.25224 0.16534 0.0
H1714 H 0.9585 0.31016 0.18725 0.0
H1715 H 0.9414 0.3018 0.10506 0.0
H1716 H 0.92703 0.29552 0.12496 0.0
H1717 H 0.9361 0.28388 0.11866 0.0
C1718 C 0.9098 0.28715 0.18503 0.0
C1719 C 0.90241 0.27068 0.18086 0.0
C1720 C 0.92467 0.29755 0.17725 0.0
C1721 C 0.93245 0.29174 0.16504 0.0
C1722 C 0.9252 0.2753 0.16097 0.0
H1723 H 0.02499 0.34394 0.10739 0.0
H1724 H 0.99928 0.32279 0.11883 0.0
C1725 C 0.9103 0.26486 0.16878 0.0
C1726 C 0.94832 0.30297 0.15707 0.0
H1727 H 0.96847 0.31858 0.1133 0.0
C1728 C 0.96068 0.31198 0.17108 0.0
C1729 C 0.95118 0.30525 0.13596 0.0
C1730 C 0.93823 0.29622 0.12023 0.0
C1731 C 0.97579 0.32327 0.16459 0.0
C1732 C 0.97856 0.32586 0.1435 0.0
C1733 C 0.96631 0.31659 0.12945 0.0
C1734 C 0.99389 0.33866 0.13588 0.0
C1735 C 0.9887 0.33228 0.18039 0.0
C1736 C 0.9992 0.35461 0.14125 0.0
C1737 C 0.01383 0.3667 0.13477 0.0
C1738 C 0.0235 0.36314 0.12263 0.0
C1739 C 0.01792 0.34715 0.11677 0.0
C1740 C 1.00322 0.33503 0.12329 0.0
H1741 H 0.98605 0.32586 0.195 0.0
H1742 H 1.00026 0.33428 0.17499 0.0
H1743 H 0.98975 0.34406 0.18342 0.0
H1744 H 0.99204 0.35773 0.15057 0.0
H1745 H 0.01761 0.37885 0.13946 0.0
H1746 H 0.30281 0.22117 0.63773 0.0
H1747 H 0.29797 0.24207 0.62548 0.0
H1748 H 0.33155 0.27509 0.66985 0.0
H1749 H 0.33624 0.25419 0.68259 0.0
H1750 H 0.28812 0.26181 0.64859 0.0
H1751 H 0.34689 0.29625 0.61293 0.0
H1752 H 0.33859 0.27561 0.61962 0.0
H1753 H 0.34698 0.29092 0.63906 0.0
C1754 C 0.30903 0.23278 0.64512 0.0
C1755 C 0.32002 0.23596 0.66111 0.0
C1756 C 0.30629 0.24474 0.63801 0.0
C1757 C 0.31454 0.26013 0.64662 0.0
C1758 C 0.32525 0.26332 0.66282 0.0
H1759 H 0.29872 0.33997 0.62914 0.0
H1760 H 0.30163 0.31833 0.64332 0.0
C1761 C 0.32796 0.25135 0.67002 0.0
C1762 C 0.3121 0.27291 0.6384 0.0
H1763 H 0.33041 0.30763 0.61233 0.0
C1764 C 0.29735 0.27185 0.64068 0.0
C1765 C 0.32414 0.28587 0.62794 0.0
C1766 C 0.34003 0.28726 0.62454 0.0
C1767 C 0.29436 0.28356 0.63291 0.0
C1768 C 0.30648 0.29663 0.6227 0.0
C1769 C 0.32118 0.29761 0.62027 0.0
C1770 C 0.3041 0.30935 0.61412 0.0
C1771 C 0.27822 0.28175 0.63536 0.0
C1772 C 0.30465 0.31153 0.59302 0.0
C1773 C 0.30299 0.32386 0.58483 0.0
C1774 C 0.3009 0.33439 0.59763 0.0
C1775 C 0.30029 0.3321 0.61881 0.0
C1776 C 0.30188 0.3197 0.62696 0.0
H1777 H 0.26932 0.26951 0.63986 0.0
H1778 H 0.27886 0.29021 0.64737 0.0
H1779 H 0.27413 0.2846 0.62099 0.0
H1780 H 0.30642 0.30368 0.58288 0.0
H1781 H 0.30358 0.32528 0.56847 0.0
H1782 H 0.8167 0.16988 0.64341 0.0
H1783 H 0.79251 0.14537 0.63196 0.0
H1784 H 0.7971 0.12048 0.68321 0.0
H1785 H 0.82102 0.14462 0.69448 0.0
H1786 H 0.79193 0.11611 0.62194 0.0
H1787 H 0.74986 0.10645 0.68335 0.0
H1788 H 0.76714 0.12559 0.67913 0.0
H1789 H 0.76894 0.1104 0.69234 0.0
C1790 C 0.81225 0.15929 0.65249 0.0
C1791 C 0.82074 0.15922 0.6699 0.0
C1792 C 0.79849 0.14525 0.64589 0.0
C1793 C 0.79281 0.13102 0.65683 0.0
C1794 C 0.80097 0.13125 0.67466 0.0
H1795 H 0.72265 0.02937 0.63847 0.0
H1796 H 0.74243 0.05561 0.6529 0.0
C1797 C 0.81473 0.14511 0.68105 0.0
C1798 C 0.77937 0.11555 0.64885 0.0
H1799 H 0.74324 0.08421 0.66116 0.0
C1800 C 0.7812 0.10925 0.6304 0.0
C1801 C 0.76546 0.10635 0.66004 0.0
C1802 C 0.76262 0.11257 0.67974 0.0
C1803 C 0.76976 0.09399 0.62307 0.0
C1804 C 0.75576 0.0848 0.63416 0.0
C1805 C 0.7539 0.09113 0.65261 0.0
C1806 C 0.74281 0.06889 0.62639 0.0
C1807 C 0.77311 0.08766 0.6038 0.0
C1808 C 0.73592 0.06757 0.60708 0.0
C1809 C 0.72482 0.05269 0.59883 0.0
C1810 C 0.71996 0.03859 0.60973 0.0
C1811 C 0.72611 0.03994 0.62962 0.0
C1812 C 0.73746 0.05495 0.63785 0.0
H1813 H 0.78598 0.09364 0.60087 0.0
H1814 H 0.76848 0.07463 0.60452 0.0
H1815 H 0.76732 0.08996 0.59068 0.0
H1816 H 0.73934 0.07809 0.59815 0.0
H1817 H 0.72015 0.05224 0.58363 0.0
H1818 H 0.9024 0.72434 0.6297 0.0
H1819 H 0.92945 0.73321 0.61909 0.0
H1820 H 0.94753 0.76001 0.67534 0.0
H1821 H 0.92054 0.75124 0.68612 0.0
H1822 H 0.95818 0.76572 0.61623 0.0
H1823 H 0.96335 0.72671 0.67358 0.0
H1824 H 0.94453 0.72419 0.66527 0.0
H1825 H 0.95686 0.73995 0.68297 0.0
C1826 C 0.91212 0.73233 0.63972 0.0
C1827 C 0.90923 0.73698 0.65886 0.0
C1828 C 0.92759 0.7374 0.63359 0.0
C1829 C 0.94051 0.74711 0.64651 0.0
C1830 C 0.93773 0.75238 0.6652 0.0
H1831 H 0.03911 0.77446 0.6521 0.0
H1832 H 0.01291 0.77101 0.65702 0.0
C1833 C 0.92227 0.74741 0.6713 0.0
C1834 C 0.95676 0.75084 0.64111 0.0
H1835 H 0.98617 0.74338 0.65526 0.0
C1836 C 0.96434 0.76085 0.62471 0.0
C1837 C 0.96472 0.74439 0.65211 0.0
C1838 C 0.95697 0.7331 0.66937 0.0
C1839 C 0.97986 0.76495 0.61943 0.0
C1840 C 0.98788 0.75857 0.63056 0.0
C1841 C 0.98013 0.74837 0.64675 0.0
C1842 C 1.00444 0.76251 0.62628 0.0
C1843 C 0.98767 0.77643 0.6024 0.0
C1844 C 0.00871 0.75929 0.60715 0.0
C1845 C 0.02391 0.76148 0.60418 0.0
C1846 C 0.03501 0.76664 0.62041 0.0
C1847 C 0.03084 0.77036 0.63928 0.0
C1848 C 0.01581 0.76837 0.64214 0.0
H1849 H 0.98181 0.78352 0.59929 0.0
H1850 H 1.00036 0.78474 0.60601 0.0
H1851 H 0.98684 0.76964 0.58829 0.0
H1852 H 1.00011 0.75445 0.59473 0.0
H1853 H 0.02667 0.75834 0.58954 0.0
H1854 H 0.90307 0.72004 0.17032 0.0
H1855 H 0.92575 0.71767 0.1826 0.0
H1856 H 0.89713 0.68664 0.23001 0.0
H1857 H 0.87451 0.68856 0.21738 0.0
H1858 H 0.94299 0.72278 0.21844 0.0
H1859 H 0.90942 0.65809 0.20008 0.0
H1860 H 0.90264 0.67149 0.1923 0.0
H1861 H 0.89959 0.66418 0.21788 0.0
C1862 C 0.90182 0.71314 0.18374 0.0
C1863 C 0.88706 0.70456 0.19298 0.0
C1864 C 0.91473 0.71165 0.19065 0.0
C1865 C 0.91307 0.70157 0.2069 0.0
C1866 C 0.89865 0.69408 0.21709 0.0
H1867 H 0.97587 0.66876 0.25866 0.0
H1868 H 0.95433 0.67478 0.25387 0.0
C1869 C 0.88577 0.69538 0.21004 0.0
C1870 C 0.92595 0.6981 0.21253 0.0
H1871 H 0.93397 0.66763 0.21746 0.0
C1872 C 0.94099 0.71072 0.2182 0.0
C1873 C 0.92346 0.68234 0.21223 0.0
C1874 C 0.90796 0.66827 0.2051 0.0
C1875 C 0.95346 0.70801 0.22371 0.0
C1876 C 0.95093 0.69228 0.22341 0.0
C1877 C 0.93588 0.67965 0.21795 0.0
C1878 C 0.96407 0.68882 0.22697 0.0
C1879 C 0.96927 0.72204 0.22989 0.0
C1880 C 0.97656 0.69446 0.21333 0.0
C1881 C 0.9887 0.69092 0.21588 0.0
C1882 C 0.9888 0.68163 0.23222 0.0
C1883 C 0.97625 0.67596 0.24595 0.0
C1884 C 0.96393 0.6794 0.24323 0.0
H1885 H 0.96821 0.73251 0.23462 0.0
H1886 H 0.97478 0.71894 0.2426 0.0
H1887 H 0.97727 0.72551 0.21675 0.0
H1888 H 0.97683 0.70148 0.20046 0.0
H1889 H 0.99809 0.6956 0.20493 0.0
H1890 H 0.34086 0.26543 0.23862 0.0
H1891 H 0.3491 0.29337 0.24558 0.0
H1892 H 0.38213 0.30748 0.19658 0.0
H1893 H 0.37396 0.27956 0.18956 0.0
H1894 H 0.39583 0.32469 0.23096 0.0
H1895 H 0.33973 0.32415 0.21561 0.0
H1896 H 0.33752 0.30934 0.23349 0.0
H1897 H 0.34282 0.30803 0.20769 0.0
C1898 C 0.34968 0.27443 0.22909 0.0
C1899 C 0.35676 0.27021 0.21356 0.0
C1900 C 0.35436 0.29044 0.23305 0.0
C1901 C 0.3661 0.30256 0.22142 0.0
C1902 C 0.37304 0.29836 0.20574 0.0
H1903 H 0.39074 0.40298 0.23868 0.0
H1904 H 0.38319 0.37714 0.22235 0.0
C1905 C 0.36841 0.28238 0.20182 0.0
C1906 C 0.37186 0.31963 0.22649 0.0
H1907 H 0.35969 0.34672 0.23464 0.0
C1908 C 0.38794 0.32953 0.23152 0.0
C1909 C 0.36167 0.32609 0.22691 0.0
C1910 C 0.34451 0.31639 0.22043 0.0
C1911 C 0.39395 0.34546 0.23782 0.0
C1912 C 0.38356 0.35161 0.23948 0.0
C1913 C 0.36763 0.34196 0.23356 0.0
C1914 C 0.38877 0.36758 0.24877 0.0
C1915 C 0.41137 0.35552 0.24281 0.0
C1916 C 0.39434 0.37076 0.26901 0.0
C1917 C 0.39863 0.38542 0.27833 0.0
C1918 C 0.39739 0.3973 0.2677 0.0
C1919 C 0.39194 0.39417 0.2473 0.0
C1920 C 0.38757 0.37939 0.23796 0.0
H1921 H 0.41831 0.35094 0.23484 0.0
H1922 H 0.41594 0.36812 0.23859 0.0
H1923 H 0.41332 0.35518 0.25943 0.0
H1924 H 0.39508 0.36175 0.27779 0.0
H1925 H 0.40274 0.38731 0.29405 0.0
H1926 H 0.80863 0.23689 0.22039 0.0
H1927 H 0.78583 0.21294 0.23269 0.0
H1928 H 0.80643 0.18488 0.21286 0.0
H1929 H 0.82941 0.20896 0.20096 0.0
H1930 H 0.76589 0.1883 0.20807 0.0
H1931 H 0.79007 0.16652 0.26857 0.0
H1932 H 0.80092 0.18648 0.25897 0.0
H1933 H 0.80011 0.1701 0.24483 0.0
C1934 C 0.80851 0.22568 0.21892 0.0
C1935 C 0.82094 0.22488 0.20939 0.0
C1936 C 0.79541 0.21197 0.226 0.0
C1937 C 0.79437 0.19707 0.22377 0.0
C1938 C 0.80702 0.19626 0.21507 0.0
H1939 H 0.70753 0.10672 0.21381 0.0
H1940 H 0.73286 0.13075 0.20885 0.0
C1941 C 0.8202 0.21006 0.20809 0.0
C1942 C 0.7794 0.18237 0.22871 0.0
H1943 H 0.76362 0.14864 0.25703 0.0
C1944 C 0.76541 0.17969 0.21887 0.0
C1945 C 0.77873 0.17118 0.24291 0.0
C1946 C 0.79323 0.17374 0.25459 0.0
C1947 C 0.75084 0.16607 0.22258 0.0
C1948 C 0.75023 0.15461 0.23626 0.0
C1949 C 0.76414 0.15739 0.24643 0.0
C1950 C 0.73524 0.13959 0.23981 0.0
C1951 C 0.73618 0.16412 0.21193 0.0
C1952 C 0.72831 0.13634 0.25905 0.0
C1953 C 0.71374 0.12252 0.26201 0.0
C1954 C 0.70588 0.11164 0.24578 0.0
C1955 C 0.71311 0.11483 0.22665 0.0
C1956 C 0.72761 0.12861 0.22374 0.0
H1957 H 0.73794 0.17563 0.20622 0.0
H1958 H 0.73319 0.15583 0.19868 0.0
H1959 H 0.72597 0.15903 0.22228 0.0
H1960 H 0.73403 0.14466 0.27168 0.0
H1961 H 0.7086 0.12045 0.27695 0.0
H1962 H 0.01942 0.502 0.95458 0.0
H1963 H 0.02368 0.48801 0.92623 0.0
H1964 H 0.00859 0.51148 0.88364 0.0
H1965 H 1.00434 0.52558 0.91192 0.0
H1966 H 0.99888 0.46766 0.89479 0.0
H1967 H 0.05254 0.51844 0.86239 0.0
H1968 H 0.04705 0.51849 0.88856 0.0
H1969 H 0.03626 0.52143 0.86843 0.0
C1970 C 0.01714 0.50432 0.93919 0.0
C1971 C 0.01153 0.51495 0.93559 0.0
C1972 C 0.01954 0.49626 0.92299 0.0
C1973 C 0.01662 0.49881 0.90277 0.0
C1974 C 0.01109 0.50945 0.89908 0.0
H1975 H 0.02577 0.45615 0.78765 0.0
H1976 H 0.02397 0.47425 0.81281 0.0
C1977 C 0.00852 0.51739 0.9153 0.0
C1978 C 0.01872 0.48979 0.88571 0.0
H1979 H 0.04214 0.49353 0.84537 0.0
C1980 C 0.00833 0.47332 0.88398 0.0
C1981 C 0.03091 0.49721 0.87141 0.0
C1982 C 0.04243 0.51486 0.87271 0.0
C1983 C 0.00981 0.46405 0.86846 0.0
C1984 C 0.02238 0.47133 0.85458 0.0
C1985 C 0.03258 0.4879 0.85602 0.0
C1986 C 0.02536 0.46171 0.83913 0.0
C1987 C 0.99767 0.44655 0.86695 0.0
C1988 C 0.02754 0.44914 0.84546 0.0
C1989 C 0.02842 0.43881 0.83122 0.0
C1990 C 0.02752 0.44094 0.81019 0.0
C1991 C 0.02657 0.45424 0.80373 0.0
C1992 C 0.02545 0.46452 0.81811 0.0
H1993 H 0.98637 0.44402 0.87395 0.0
H1994 H 0.99521 0.44224 0.85086 0.0
H1995 H 1.00216 0.43967 0.87527 0.0
H1996 H 0.02806 0.44699 0.86152 0.0
H1997 H 0.02934 0.42879 0.83671 0.0
H1998 H 0.57073 0.57004 0.9501 0.0
H1999 H 0.58831 0.58259 0.92127 0.0
H2000 H 0.55581 0.59631 0.89683 0.0
H2001 H 0.53842 0.58408 0.92546 0.0
H2002 H 0.58051 0.57588 0.87732 0.0
H2003 H 0.59917 0.63831 0.89938 0.0
H2004 H 0.59062 0.6222 0.91717 0.0
H2005 H 0.57818 0.62501 0.89932 0.0
C2006 C 0.56741 0.57586 0.93868 0.0
C2007 C 0.5531 0.57599 0.94014 0.0
C2008 C 0.57742 0.58294 0.92214 0.0
C2009 C 0.57345 0.59051 0.90693 0.0
C2010 C 0.55923 0.59069 0.90843 0.0
H2011 H 0.60929 0.64307 0.79698 0.0
H2012 H 0.59449 0.62861 0.82663 0.0
C2013 C 0.5492 0.58354 0.92478 0.0
C2014 C 0.58394 0.59815 0.88931 0.0
H2015 H 0.60485 0.63384 0.86568 0.0
C2016 C 0.58601 0.58858 0.87485 0.0
C2017 C 0.59108 0.61472 0.88605 0.0
C2018 C 0.58981 0.62572 0.90137 0.0
C2019 C 0.59444 0.59501 0.85686 0.0
C2020 C 0.60129 0.61156 0.85339 0.0
C2021 C 0.59956 0.62116 0.86817 0.0
C2022 C 0.60981 0.61919 0.8343 0.0
C2023 C 0.59536 0.58392 0.84135 0.0
C2024 C 0.62332 0.61861 0.82838 0.0
C2025 C 0.63179 0.62682 0.81118 0.0
C2026 C 0.62702 0.63592 0.79968 0.0
C2027 C 0.61332 0.63618 0.80542 0.0
C2028 C 0.60485 0.62794 0.82247 0.0
H2029 H 0.5862 0.57132 0.84377 0.0
H2030 H 0.59394 0.58719 0.82564 0.0
H2031 H 0.6071 0.58479 0.84271 0.0
H2032 H 0.62764 0.61225 0.83741 0.0
H2033 H 0.64238 0.6265 0.80735 0.0
H2034 H 0.49323 0.04721 0.96916 0.0
H2035 H 0.47786 0.03989 0.93749 0.0
H2036 H 0.50446 0.08848 0.91788 0.0
H2037 H 0.52048 0.09581 0.94914 0.0
H2038 H 0.45878 0.05011 0.925 0.0
H2039 H 0.50421 0.06499 0.86675 0.0
H2040 H 0.508 0.06372 0.89344 0.0
H2041 H 0.50913 0.08154 0.88367 0.0
C2042 C 0.49615 0.05633 0.958 0.0
C2043 C 0.50824 0.07215 0.96186 0.0
C2044 C 0.48723 0.0521 0.93986 0.0
C2045 C 0.49014 0.06355 0.9251 0.0
C2046 C 0.50223 0.07932 0.92878 0.0
H2047 H 0.42613 0.06901 0.84274 0.0
H2048 H 0.44445 0.0708 0.86932 0.0
C2049 C 0.51124 0.08356 0.94689 0.0
C2050 C 0.47961 0.05928 0.90677 0.0
H2051 H 0.47942 0.06216 0.85492 0.0
C2052 C 0.46331 0.05253 0.90968 0.0
C2053 C 0.48542 0.06218 0.88669 0.0
C2054 C 0.50263 0.06834 0.88241 0.0
C2055 C 0.4528 0.04936 0.89324 0.0
C2056 C 0.45875 0.05332 0.87334 0.0
C2057 C 0.47492 0.0593 0.87022 0.0
C2058 C 0.4485 0.05266 0.85609 0.0
C2059 C 0.4354 0.04206 0.89736 0.0
C2060 C 0.44513 0.04224 0.83932 0.0
C2061 C 0.43457 0.04118 0.82384 0.0
C2062 C 0.42728 0.05055 0.82495 0.0
C2063 C 0.43125 0.06138 0.84145 0.0
C2064 C 0.44175 0.06244 0.85674 0.0
H2065 H 0.43224 0.03548 0.91188 0.0
H2066 H 0.43239 0.05166 0.89862 0.0
H2067 H 0.4281 0.03376 0.8848 0.0
H2068 H 0.45035 0.03468 0.83848 0.0
H2069 H 0.43184 0.03278 0.81131 0.0
H2070 H 0.50207 0.03999 0.59305 0.0
H2071 H 0.4843 0.03416 0.62161 0.0
H2072 H 0.50788 0.08407 0.63809 0.0
H2073 H 0.52539 0.09009 0.60923 0.0
H2074 H 0.49096 0.04012 0.66363 0.0
H2075 H 0.46139 0.07213 0.63376 0.0
H2076 H 0.47343 0.06716 0.61812 0.0
H2077 H 0.48253 0.08409 0.63529 0.0
C2078 C 0.5034 0.04978 0.60257 0.0
C2079 C 0.51513 0.06556 0.59862 0.0
C2080 C 0.49329 0.04639 0.61903 0.0
C2081 C 0.49459 0.05869 0.63184 0.0
C2082 C 0.50646 0.0744 0.62821 0.0
H2083 H 0.44664 0.06827 0.73551 0.0
H2084 H 0.4647 0.07139 0.70833 0.0
C2085 C 0.51659 0.07781 0.61178 0.0
C2086 C 0.48354 0.05512 0.64896 0.0
H2087 H 0.45606 0.06355 0.66791 0.0
C2088 C 0.48325 0.04516 0.66453 0.0
C2089 C 0.47341 0.06162 0.65007 0.0
C2090 C 0.47254 0.07172 0.63334 0.0
C2091 C 0.4735 0.04195 0.6815 0.0
C2092 C 0.4636 0.04871 0.68277 0.0
C2093 C 0.46371 0.05844 0.66701 0.0
C2094 C 0.45332 0.04629 0.7005 0.0
C2095 C 0.47424 0.03178 0.69821 0.0
C2096 C 0.44098 0.03107 0.70541 0.0
C2097 C 0.4306 0.02922 0.72112 0.0
C2098 C 0.43232 0.04258 0.73205 0.0
C2099 C 0.44494 0.05772 0.72741 0.0
C2100 C 0.45529 0.05954 0.71182 0.0
H2101 H 0.485 0.03067 0.6973 0.0
H2102 H 0.47407 0.03679 0.71343 0.0
H2103 H 0.46377 0.01965 0.6968 0.0
H2104 H 0.43904 0.02068 0.69667 0.0
H2105 H 0.42093 0.01742 0.7242 0.0
H2106 H 0.06318 0.55313 0.60804 0.0
H2107 H 0.05958 0.53499 0.6357 0.0
H2108 H 0.03892 0.49526 0.59303 0.0
H2109 H 0.04174 0.51338 0.56558 0.0
H2110 H 0.02304 0.48613 0.62503 0.0
H2111 H 0.08522 0.51606 0.65184 0.0
H2112 H 0.07754 0.52938 0.65341 0.0
H2113 H 0.07926 0.52184 0.62891 0.0
C2114 C 0.05798 0.54054 0.60455 0.0
C2115 C 0.05286 0.53474 0.58454 0.0
C2116 C 0.05602 0.53012 0.6204 0.0
C2117 C 0.04936 0.51364 0.61661 0.0
C2118 C 0.04416 0.50785 0.59657 0.0
H2119 H 0.05799 0.45066 0.70465 0.0
H2120 H 0.06139 0.46875 0.67699 0.0
C2121 C 0.04579 0.51824 0.5808 0.0
C2122 C 0.04733 0.50239 0.63351 0.0
H2123 H 0.06636 0.49677 0.67401 0.0
C2124 C 0.0326 0.48845 0.63561 0.0
C2125 C 0.05977 0.50504 0.6473 0.0
C2126 C 0.07637 0.51879 0.64512 0.0
C2127 C 0.02992 0.47736 0.65099 0.0
C2128 C 0.04208 0.48049 0.6655 0.0
C2129 C 0.05687 0.49433 0.66325 0.0
C2130 C 0.03994 0.46944 0.68272 0.0
C2131 C 0.01417 0.46213 0.65092 0.0
C2132 C 0.02691 0.46382 0.69568 0.0
C2133 C 0.02476 0.45313 0.71126 0.0
C2134 C 0.03586 0.44815 0.71481 0.0
C2135 C 0.04921 0.45424 0.70241 0.0
C2136 C 0.05116 0.46464 0.68652 0.0
H2137 H 0.00858 0.45913 0.63546 0.0
H2138 H 0.01539 0.45194 0.65618 0.0
H2139 H 1.00606 0.46364 0.66117 0.0
H2140 H 0.01834 0.46771 0.69382 0.0
H2141 H 0.01444 0.44884 0.72066 0.0
H2142 H 0.54305 0.54244 0.59507 0.0
H2143 H 0.5574 0.5594 0.62435 0.0
H2144 H 0.56223 0.60036 0.59284 0.0
H2145 H 0.54749 0.58323 0.56335 0.0
H2146 H 0.58779 0.58314 0.62395 0.0
H2147 H 0.54968 0.60715 0.6493 0.0
H2148 H 0.54266 0.59024 0.63203 0.0
H2149 H 0.55452 0.61012 0.62283 0.0
C2150 C 0.5469 0.55502 0.59444 0.0
C2151 C 0.54415 0.56149 0.57684 0.0
C2152 C 0.55515 0.56472 0.61124 0.0
C2153 C 0.56089 0.58117 0.61091 0.0
C2154 C 0.55769 0.58765 0.59363 0.0
H2155 H 0.62591 0.66183 0.68411 0.0
H2156 H 0.60688 0.64278 0.65965 0.0
C2157 C 0.54928 0.57787 0.57676 0.0
C2158 C 0.57126 0.59148 0.62802 0.0
H2159 H 0.57556 0.6191 0.66415 0.0
C2160 C 0.58503 0.5909 0.63285 0.0
C2161 C 0.56768 0.6016 0.63968 0.0
C2162 C 0.55276 0.60225 0.63587 0.0
C2163 C 0.5955 0.60044 0.64859 0.0
C2164 C 0.59203 0.61069 0.66009 0.0
C2165 C 0.57818 0.61116 0.65542 0.0
C2166 C 0.60324 0.62198 0.67586 0.0
C2167 C 0.61049 0.59987 0.65228 0.0
C2168 C 0.60749 0.61666 0.69342 0.0
C2169 C 0.61856 0.62764 0.70766 0.0
C2170 C 0.62555 0.64412 0.70456 0.0
C2171 C 0.62096 0.64928 0.68709 0.0
C2172 C 0.60996 0.63837 0.67302 0.0
H2173 H 0.61295 0.59385 0.63953 0.0
H2174 H 0.62077 0.61207 0.65443 0.0
H2175 H 0.60934 0.59318 0.66636 0.0
H2176 H 0.60227 0.60403 0.69611 0.0
H2177 H 0.6217 0.62322 0.72094 0.0
H2178 H 0.97932 0.5464 0.08423 0.0
H2179 H 0.98065 0.56236 0.11416 0.0
H2180 H 0.02377 0.60182 0.09256 0.0
H2181 H 0.02233 0.58613 0.06241 0.0
H2182 H 1.00438 0.57631 0.14432 0.0
H2183 H 0.99726 0.62267 0.1048 0.0
H2184 H 0.99277 0.60407 0.09253 0.0
H2185 H 0.0129 0.61998 0.09514 0.0
C2186 C 0.98898 0.55853 0.08567 0.0
C2187 C 1.00069 0.56492 0.07077 0.0
C2188 C 0.98978 0.56764 0.1029 0.0
C2189 C 1.00219 0.5834 0.10556 0.0
C2190 C 0.01391 0.5898 0.09075 0.0
H2191 H 0.03261 0.65801 0.19872 0.0
H2192 H 0.02901 0.64173 0.16818 0.0
C2193 C 0.01316 0.58071 0.07357 0.0
C2194 C 1.00317 0.59299 0.12408 0.0
H2195 H 1.00491 0.62763 0.13981 0.0
C2196 C 1.00437 0.58747 0.14334 0.0
C2197 C 1.00323 0.6076 0.12286 0.0
C2198 C 1.00133 0.61389 0.10275 0.0
C2199 C 1.00602 0.59631 0.1613 0.0
C2200 C 1.00614 0.61097 0.16008 0.0
C2201 C 1.00483 0.61643 0.14082 0.0
C2202 C 0.00794 0.62096 0.17855 0.0
C2203 C 0.00815 0.5901 0.18135 0.0
C2204 C 0.99712 0.61491 0.19449 0.0
C2205 C 0.99918 0.62421 0.21203 0.0
C2206 C 0.01204 0.63983 0.21398 0.0
C2207 C 0.0226 0.64602 0.19778 0.0
C2208 C 0.02055 0.63671 0.18027 0.0
H2209 H 0.01207 0.58121 0.17919 0.0
H2210 H 0.01694 0.59994 0.19135 0.0
H2211 H 0.99671 0.58417 0.18926 0.0
H2212 H 0.98707 0.60295 0.19339 0.0
H2213 H 0.99077 0.61909 0.22415 0.0
H2214 H 0.51378 0.55149 0.11304 0.0
H2215 H 0.49568 0.53625 0.14004 0.0
H2216 H 0.47627 0.4938 0.10203 0.0
H2217 H 0.49389 0.50937 0.07453 0.0
H2218 H 0.45349 0.49342 0.12232 0.0
H2219 H 0.50206 0.50856 0.17783 0.0
H2220 H 0.50251 0.52622 0.16914 0.0
H2221 H 0.50567 0.51376 0.15143 0.0
C2222 C 0.5056 0.53891 0.11046 0.0
C2223 C 0.50536 0.53158 0.09178 0.0
C2224 C 0.49533 0.53015 0.12597 0.0
C2225 C 0.48491 0.51368 0.12349 0.0
C2226 C 0.48427 0.50643 0.10452 0.0
H2227 H 0.44555 0.4559 0.23114 0.0
H2228 H 0.46009 0.46836 0.2004 0.0
C2229 C 0.49432 0.51532 0.08877 0.0
C2230 C 0.47484 0.5041 0.14072 0.0
H2231 H 0.47621 0.49708 0.19139 0.0
C2232 C 0.45849 0.49413 0.13739 0.0
C2233 C 0.48129 0.50463 0.16038 0.0
C2234 C 0.49886 0.51372 0.16485 0.0
C2235 C 0.44845 0.48502 0.15313 0.0
C2236 C 0.45478 0.48633 0.17308 0.0
C2237 C 0.47118 0.49611 0.17627 0.0
C2238 C 0.44488 0.47754 0.19087 0.0
C2239 C 0.43125 0.47377 0.14794 0.0
C2240 C 0.43126 0.47824 0.19591 0.0
C2241 C 0.42264 0.47068 0.21328 0.0
C2242 C 0.42773 0.46269 0.22638 0.0
C2243 C 0.44132 0.46199 0.22138 0.0
C2244 C 0.44968 0.46917 0.20379 0.0
H2245 H 0.42952 0.47012 0.13159 0.0
H2246 H 0.42636 0.46289 0.15724 0.0
H2247 H 0.42441 0.4799 0.15085 0.0
H2248 H 0.42749 0.485 0.18675 0.0
H2249 H 0.41234 0.47162 0.21689 0.0
H2250 H 0.56369 0.06412 0.09547 0.0
H2251 H 0.58083 0.06578 0.12376 0.0
H2252 H 0.59263 0.11425 0.13626 0.0
H2253 H 0.5758 0.11294 0.10759 0.0
H2254 H 0.61483 0.08942 0.13013 0.0
H2255 H 0.57628 0.09007 0.19143 0.0
H2256 H 0.56891 0.08298 0.16585 0.0
H2257 H 0.58082 0.10394 0.17115 0.0
C2258 C 0.57001 0.07524 0.10396 0.0
C2259 C 0.56823 0.0884 0.09906 0.0
C2260 C 0.57977 0.07611 0.12027 0.0
C2261 C 0.58787 0.09007 0.13221 0.0
C2262 C 0.58629 0.10328 0.12738 0.0
H2263 H 0.64407 0.10757 0.24456 0.0
H2264 H 0.63039 0.11066 0.2149 0.0
C2265 C 0.5766 0.10247 0.11098 0.0
C2266 C 0.59798 0.09073 0.14968 0.0
H2267 H 0.60022 0.09167 0.20165 0.0
C2268 C 0.61169 0.08997 0.14578 0.0
C2269 C 0.5939 0.09156 0.17005 0.0
C2270 C 0.57914 0.09209 0.17503 0.0
C2271 C 0.62142 0.08998 0.16173 0.0
C2272 C 0.61709 0.09031 0.18216 0.0
C2273 C 0.60353 0.09139 0.18602 0.0
C2274 C 0.62605 0.08886 0.19972 0.0
C2275 C 0.63634 0.08983 0.15649 0.0
C2276 C 0.62809 0.07555 0.20115 0.0
C2277 C 0.63598 0.07382 0.21798 0.0
C2278 C 0.64182 0.08526 0.2339 0.0
C2279 C 0.63975 0.09858 0.23251 0.0
C2280 C 0.63192 0.10034 0.21559 0.0
H2281 H 0.64055 0.0948 0.14119 0.0
H2282 H 0.64593 0.09676 0.16788 0.0
H2283 H 0.63391 0.07735 0.15623 0.0
H2284 H 0.62332 0.0663 0.18942 0.0
H2285 H 0.63725 0.06335 0.21865 0.0
H2286 H 0.58815 0.06918 0.48614 0.0
H2287 H 0.60443 0.06888 0.45827 0.0
H2288 H 0.59173 0.09824 0.42297 0.0
H2289 H 0.57586 0.09893 0.45101 0.0
H2290 H 0.59641 0.05708 0.42144 0.0
H2291 H 0.63817 0.12152 0.41482 0.0
H2292 H 0.62516 0.11344 0.43608 0.0
H2293 H 0.61811 0.11722 0.41247 0.0
C2294 C 0.58898 0.0757 0.4725 0.0
C2295 C 0.5808 0.08417 0.47085 0.0
C2296 C 0.5983 0.07554 0.45657 0.0
C2297 C 0.59959 0.08376 0.43855 0.0
C2298 C 0.5914 0.09222 0.43689 0.0
H2299 H 0.62127 0.06154 0.31964 0.0
H2300 H 0.60929 0.06281 0.35143 0.0
C2301 C 0.58225 0.09256 0.45293 0.0
C2302 C 0.60872 0.08273 0.42111 0.0
H2303 H 0.6365 0.10505 0.38625 0.0
C2304 C 0.60529 0.0676 0.4139 0.0
C2305 C 0.62057 0.09641 0.4114 0.0
C2306 C 0.62584 0.11305 0.41924 0.0
C2307 C 0.61295 0.06576 0.39698 0.0
C2308 C 0.62403 0.0794 0.38646 0.0
C2309 C 0.62786 0.09455 0.39406 0.0
C2310 C 0.63147 0.07824 0.36727 0.0
C2311 C 0.60919 0.04917 0.39077 0.0
C2312 C 0.64797 0.08684 0.36521 0.0
C2313 C 0.65488 0.08636 0.34681 0.0
C2314 C 0.64542 0.07723 0.33011 0.0
C2315 C 0.62893 0.06853 0.33227 0.0
C2316 C 0.62204 0.06916 0.35054 0.0
H2317 H 0.60512 0.04105 0.40392 0.0
H2318 H 0.5995 0.04428 0.37914 0.0
H2319 H 0.61962 0.04916 0.38424 0.0
H2320 H 0.65553 0.09402 0.37781 0.0
H2321 H 0.66761 0.09326 0.34562 0.0
H2322 H 0.06606 0.59119 0.43144 0.0
H2323 H 0.0608 0.60406 0.40294 0.0
H2324 H 0.02232 0.60308 0.4355 0.0
H2325 H 0.02776 0.59063 0.46426 0.0
H2326 H 0.03382 0.59315 0.37881 0.0
H2327 H 0.04671 0.64935 0.41844 0.0
H2328 H 0.05238 0.63578 0.42902 0.0
H2329 H 0.03232 0.63161 0.43066 0.0
C2330 C 0.05659 0.59387 0.43271 0.0
C2331 C 0.04739 0.58982 0.45033 0.0
C2332 C 0.05353 0.60118 0.41628 0.0
C2333 C 0.04129 0.60481 0.41705 0.0
C2334 C 0.03203 0.60073 0.43457 0.0
H2335 H 0.0066 0.64852 0.32772 0.0
H2336 H 0.01027 0.63602 0.35816 0.0
C2337 C 0.03505 0.59338 0.45098 0.0
C2338 C 0.03796 0.61239 0.3993 0.0
H2339 H 0.03591 0.64524 0.38493 0.0
C2340 C 0.03433 0.60456 0.38019 0.0
C2341 C 0.03845 0.62725 0.40097 0.0
C2342 C 0.04281 0.63659 0.42081 0.0
C2343 C 0.03113 0.61105 0.36288 0.0
C2344 C 0.03189 0.62604 0.36445 0.0
C2345 C 0.0353 0.63378 0.38362 0.0
C2346 C 0.0298 0.63407 0.34622 0.0
C2347 C 0.02668 0.6016 0.34311 0.0
C2348 C 0.03974 0.63754 0.32947 0.0
C2349 C 0.03765 0.64463 0.31213 0.0
C2350 C 0.02563 0.64863 0.31101 0.0
C2351 C 0.01593 0.64557 0.32799 0.0
C2352 C 0.01803 0.63842 0.34542 0.0
H2353 H 0.02189 0.5887 0.34574 0.0
H2354 H 0.01774 0.6031 0.33432 0.0
H2355 H 0.03736 0.60584 0.33372 0.0
H2356 H 0.04917 0.63474 0.32979 0.0
H2357 H 0.04546 0.6469 0.29949 0.0
H2358 H 0.51626 0.52382 0.44433 0.0
H2359 H 0.49853 0.51651 0.41489 0.0
H2360 H 0.46871 0.52963 0.44789 0.0
H2361 H 0.48663 0.53698 0.47789 0.0
H2362 H 0.45214 0.4993 0.42976 0.0
H2363 H 0.49058 0.54237 0.37306 0.0
H2364 H 0.50023 0.53295 0.38521 0.0
H2365 H 0.49507 0.54537 0.40006 0.0
C2366 C 0.50609 0.52545 0.4453 0.0
C2367 C 0.50287 0.531 0.46347 0.0
C2368 C 0.496 0.52136 0.42833 0.0
C2369 C 0.48237 0.5227 0.42899 0.0
C2370 C 0.47925 0.52863 0.44696 0.0
H2371 H 0.42713 0.49322 0.31337 0.0
H2372 H 0.44026 0.509 0.34435 0.0
C2373 C 0.48952 0.53291 0.46403 0.0
C2374 C 0.47093 0.51648 0.41144 0.0
H2375 H 0.46927 0.5173 0.35949 0.0
C2376 C 0.45576 0.50346 0.41444 0.0
C2377 C 0.47549 0.52199 0.39142 0.0
C2378 C 0.49118 0.53655 0.38726 0.0
C2379 C 0.44551 0.49515 0.39788 0.0
C2380 C 0.45066 0.4998 0.37775 0.0
C2381 C 0.46537 0.51352 0.37485 0.0
C2382 C 0.44157 0.48998 0.35955 0.0
C2383 C 0.42937 0.48129 0.40214 0.0
C2384 C 0.43797 0.47405 0.35768 0.0
C2385 C 0.43047 0.46504 0.34005 0.0
C2386 C 0.42651 0.47177 0.32375 0.0
C2387 C 0.42997 0.48767 0.32568 0.0
C2388 C 0.43749 0.49671 0.34337 0.0
H2389 H 0.42521 0.4827 0.41728 0.0
H2390 H 0.42054 0.47997 0.39033 0.0
H2391 H 0.43 0.47017 0.4023 0.0
H2392 H 0.44135 0.46868 0.36965 0.0
H2393 H 0.42808 0.45287 0.33905 0.0
H2394 H 0.72084 0.89018 0.27357 0.0
H2395 H 0.71628 0.87404 0.24296 0.0
H2396 H 0.6736 0.83633 0.26818 0.0
H2397 H 0.67805 0.85276 0.29919 0.0
H2398 H 0.71579 0.84628 0.23952 0.0
H2399 H 0.65844 0.83795 0.21095 0.0
H2400 H 0.67005 0.85249 0.23056 0.0
H2401 H 0.65817 0.83182 0.23671 0.0
C2402 C 0.71033 0.87852 0.27266 0.0
C2403 C 0.69981 0.87283 0.28902 0.0
C2404 C 0.70776 0.86925 0.25501 0.0
C2405 C 0.69457 0.85391 0.25298 0.0
C2406 C 0.68376 0.84822 0.26908 0.0
H2407 H 0.66612 0.77731 0.16386 0.0
H2408 H 0.66851 0.7953 0.1915 0.0
C2409 C 0.6863 0.85762 0.28687 0.0
C2410 C 0.69287 0.84386 0.23443 0.0
H2411 H 0.66852 0.82335 0.19377 0.0
C2412 C 0.70546 0.84135 0.22949 0.0
C2413 C 0.67946 0.83737 0.22117 0.0
C2414 C 0.6658 0.84013 0.22494 0.0
C2415 C 0.70491 0.83239 0.21209 0.0
C2416 C 0.6915 0.82589 0.19882 0.0
C2417 C 0.67889 0.82839 0.20374 0.0
C2418 C 0.68982 0.81549 0.18068 0.0
C2419 C 0.71853 0.82953 0.20846 0.0
C2420 C 0.70077 0.82082 0.16474 0.0
C2421 C 0.69943 0.81041 0.14861 0.0
C2422 C 0.68713 0.79443 0.14811 0.0
C2423 C 0.6759 0.78944 0.16369 0.0
C2424 C 0.6772 0.79978 0.17961 0.0
H2425 H 0.7261 0.83209 0.22234 0.0
H2426 H 0.7142 0.81703 0.20344 0.0
H2427 H 0.72599 0.83748 0.1963 0.0
H2428 H 0.71046 0.83298 0.16487 0.0
H2429 H 0.70829 0.81473 0.13695 0.0
H2430 H 0.23974 0.90766 0.32343 0.0
H2431 H 0.2577 0.91844 0.29442 0.0
H2432 H 0.21823 0.90895 0.255 0.0
H2433 H 0.20045 0.89839 0.28362 0.0
H2434 H 0.24166 0.90114 0.23786 0.0
H2435 H 0.26713 0.96275 0.27 0.0
H2436 H 0.26653 0.94758 0.28616 0.0
H2437 H 0.24845 0.94663 0.27823 0.0
C2438 C 0.23489 0.90755 0.30846 0.0
C2439 C 0.21868 0.90221 0.30583 0.0
C2440 C 0.24516 0.91381 0.29195 0.0
C2441 C 0.23931 0.91464 0.27255 0.0
C2442 C 0.22303 0.90846 0.26977 0.0
H2443 H 0.27285 0.97361 0.16851 0.0
H2444 H 0.25981 0.95818 0.19851 0.0
C2445 C 0.21287 0.90244 0.28619 0.0
C2446 C 0.24999 0.92288 0.25531 0.0
H2447 H 0.27465 0.96002 0.23711 0.0
C2448 C 0.24911 0.914 0.23779 0.0
C2449 C 0.25949 0.93967 0.25512 0.0
C2450 C 0.2605 0.94983 0.27328 0.0
C2451 C 0.25724 0.92147 0.21999 0.0
C2452 C 0.26648 0.93829 0.21968 0.0
C2453 C 0.26762 0.94714 0.23736 0.0
C2454 C 0.27419 0.94704 0.20081 0.0
C2455 C 0.25532 0.91138 0.20136 0.0
C2456 C 0.28661 0.94587 0.19192 0.0
C2457 C 0.29414 0.95473 0.17466 0.0
C2458 C 0.28941 0.96494 0.16594 0.0
C2459 C 0.2768 0.96585 0.17472 0.0
C2460 C 0.26935 0.95706 0.19197 0.0
H2461 H 0.2457 0.89886 0.20298 0.0
H2462 H 0.25276 0.9164 0.18767 0.0
H2463 H 0.26651 0.91135 0.1988 0.0
H2464 H 0.2907 0.93837 0.19859 0.0
H2465 H 0.30387 0.95383 0.1684 0.0
H2466 H 0.18366 0.43588 0.27403 0.0
H2467 H 0.16779 0.42861 0.24247 0.0
H2468 H 0.15407 0.37932 0.25068 0.0
H2469 H 0.1699 0.38647 0.28216 0.0
H2470 H 0.16982 0.4132 0.20696 0.0
H2471 H 0.1116 0.37772 0.24367 0.0
H2472 H 0.12937 0.39096 0.25802 0.0
H2473 H 0.12603 0.37188 0.24924 0.0
C2474 C 0.17732 0.42351 0.26908 0.0
C2475 C 0.17792 0.41175 0.28075 0.0
C2476 C 0.16824 0.41937 0.25107 0.0
C2477 C 0.15957 0.4034 0.24441 0.0
C2478 C 0.16038 0.39166 0.25579 0.0
H2479 H 0.09117 0.36876 0.14069 0.0
H2480 H 0.10963 0.36863 0.16652 0.0
C2481 C 0.16941 0.39578 0.27382 0.0
C2482 C 0.1497 0.39913 0.22555 0.0
H2483 H 0.11141 0.37986 0.20807 0.0
C2484 C 0.15707 0.40579 0.20716 0.0
C2485 C 0.13306 0.38929 0.22581 0.0
C2486 C 0.12448 0.38212 0.24523 0.0
C2487 C 0.1482 0.40333 0.18916 0.0
C2488 C 0.13154 0.39415 0.18964 0.0
C2489 C 0.1242 0.38682 0.20776 0.0
C2490 C 0.12149 0.39405 0.17252 0.0
C2491 C 0.1567 0.41091 0.16985 0.0
C2492 C 0.12211 0.40834 0.1674 0.0
C2493 C 0.1116 0.40842 0.15298 0.0
C2494 C 0.10019 0.39419 0.14328 0.0
C2495 C 0.09989 0.3799 0.14786 0.0
C2496 C 0.11037 0.37981 0.16259 0.0
H2497 H 0.16899 0.41307 0.17027 0.0
H2498 H 0.15037 0.40335 0.15628 0.0
H2499 H 0.1573 0.42258 0.16817 0.0
H2500 H 0.1304 0.41941 0.17512 0.0
H2501 H 0.11221 0.41965 0.14972 0.0
H2502 H 0.13877 0.35281 0.90674 0.0
H2503 H 0.12567 0.35752 0.93532 0.0
H2504 H 0.14459 0.3362 0.97598 0.0
H2505 H 0.15691 0.33066 0.94706 0.0
H2506 H 0.1163 0.32755 0.98661 0.0
H2507 H 0.14604 0.39254 0.97591 0.0
H2508 H 0.13474 0.38209 0.95358 0.0
H2509 H 0.15131 0.37997 0.96161 0.0
C2510 C 0.14007 0.34913 0.92181 0.0
C2511 C 0.14892 0.3415 0.92479 0.0
C2512 C 0.1327 0.35194 0.93817 0.0
C2513 C 0.13452 0.34771 0.95802 0.0
C2514 C 0.14308 0.33971 0.9609 0.0
H2515 H 0.11323 0.39051 0.06152 0.0
H2516 H 0.1263 0.38272 0.03609 0.0
C2517 C 0.15011 0.33653 0.94441 0.0
C2518 C 0.12748 0.35157 0.9757 0.0
H2519 H 0.12398 0.38164 0.99797 0.0
C2520 C 0.11811 0.33943 0.9892 0.0
C2521 C 0.13008 0.36713 0.97948 0.0
C2522 C 0.14124 0.38119 0.967 0.0
C2523 C 0.11105 0.34232 1.00602 0.0
C2524 C 0.11281 0.35764 0.009 0.0
C2525 C 0.12241 0.36983 0.99569 0.0
C2526 C 0.10495 0.36146 0.02575 0.0
C2527 C 0.10217 0.32898 0.02066 0.0
C2528 C 0.08859 0.35208 0.02874 0.0
C2529 C 0.0812 0.35628 0.04375 0.0
C2530 C 0.08991 0.37026 0.05558 0.0
C2531 C 0.10623 0.37967 0.0526 0.0
C2532 C 0.11369 0.37523 0.03801 0.0
H2533 H 0.10663 0.32044 0.0205 0.0
H2534 H 0.10314 0.33356 0.03648 0.0
H2535 H 0.08951 0.32228 0.01597 0.0
H2536 H 0.08142 0.34172 0.01911 0.0
H2537 H 0.06856 0.34895 0.04552 0.0
H2538 H 0.70611 0.88113 0.9112 0.0
H2539 H 0.70702 0.87076 0.94488 0.0
H2540 H 0.6768 0.82284 0.92216 0.0
H2541 H 0.67588 0.83302 0.88864 0.0
H2542 H 0.68362 0.8514 0.97286 0.0
H2543 H 0.71505 0.82089 0.94462 0.0
H2544 H 0.71316 0.8355 0.92991 0.0
H2545 H 0.69701 0.81535 0.9308 0.0
C2546 C 0.6995 0.86839 0.91341 0.0
C2547 C 0.69098 0.85797 0.897 0.0
C2548 C 0.70007 0.86245 0.93272 0.0
C2549 C 0.69225 0.84594 0.9361 0.0
C2550 C 0.68325 0.83559 0.91997 0.0
H2551 H 0.6692 0.79314 0.04938 0.0
H2552 H 0.66944 0.80731 0.01868 0.0
C2553 C 0.68264 0.84149 0.90074 0.0
C2554 C 0.69366 0.83945 0.95625 0.0
H2555 H 0.70494 0.81459 0.97806 0.0
C2556 C 0.68836 0.84341 0.97399 0.0
C2557 C 0.70006 0.82919 0.95798 0.0
C2558 C 0.70679 0.82508 0.93987 0.0
C2559 C 0.68883 0.83707 0.99312 0.0
C2560 C 0.69462 0.82628 0.99468 0.0
C2561 C 0.70035 0.8227 0.97703 0.0
C2562 C 0.69465 0.81837 0.01429 0.0
C2563 C 0.68328 0.84218 0.01154 0.0
C2564 C 0.70868 0.81958 0.02224 0.0
C2565 C 0.70856 0.81141 0.0399 0.0
C2566 C 0.69438 0.80167 0.05003 0.0
C2567 C 0.68039 0.80063 0.04219 0.0
C2568 C 0.68052 0.80883 0.02459 0.0
H2569 H 0.68375 0.85374 0.00915 0.0
H2570 H 0.67083 0.8331 0.01445 0.0
H2571 H 0.69053 0.8433 0.02528 0.0
H2572 H 0.71975 0.82676 0.01464 0.0
H2573 H 0.71955 0.81243 0.04531 0.0
H2574 H 0.2042 0.92958 0.93261 0.0
H2575 H 0.21824 0.938 0.96535 0.0
H2576 H 0.24153 0.91118 0.95231 0.0
H2577 H 0.22817 0.9033 0.91914 0.0
H2578 H 0.21834 0.92116 0.9981 0.0
H2579 H 0.2788 0.95411 0.96715 0.0
H2580 H 0.26132 0.94725 0.95129 0.0
H2581 H 0.26776 0.93361 0.959 0.0
C2582 C 0.21244 0.9256 0.93646 0.0
C2583 C 0.21505 0.91582 0.92288 0.0
C2584 C 0.22039 0.93034 0.95537 0.0
C2585 C 0.23117 0.92546 0.96125 0.0
C2586 C 0.23356 0.91542 0.948 0.0
H2587 H 0.29392 0.95599 0.07068 0.0
H2588 H 0.27724 0.93891 0.04208 0.0
C2589 C 0.2257 0.91074 0.92903 0.0
C2590 C 0.23986 0.93093 0.98122 0.0
H2591 H 0.27686 0.95225 1.00287 0.0
C2592 C 0.23114 0.92788 0.99912 0.0
C2593 C 0.25659 0.93967 0.98266 0.0
C2594 C 0.26669 0.944 0.96401 0.0
C2595 C 0.23865 0.93354 0.01827 0.0
C2596 C 0.25533 0.94258 0.01961 0.0
C2597 C 0.26408 0.94518 1.00185 0.0
C2598 C 0.26385 0.95108 0.03874 0.0
C2599 C 0.22866 0.92995 0.03691 0.0
C2600 C 0.26169 0.96337 0.04655 0.0
C2601 C 0.27121 0.97311 0.06264 0.0
C2602 C 0.28306 0.97075 0.07144 0.0
C2603 C 0.28471 0.95791 0.06441 0.0
C2604 C 0.27528 0.94825 0.04799 0.0
H2605 H 0.21679 0.91928 0.03442 0.0
H2606 H 0.23448 0.92797 0.0503 0.0
H2607 H 0.227 0.94023 0.04048 0.0
H2608 H 0.25317 0.96598 0.0395 0.0
H2609 H 0.26976 0.98299 0.06765 0.0
H2610 H 0.67392 0.88796 0.40577 0.0
H2611 H 0.6661 0.89614 0.43739 0.0
H2612 H 0.70675 0.9431 0.43341 0.0
H2613 H 0.71449 0.9352 0.40242 0.0
H2614 H 0.68497 0.90893 0.4752 0.0
H2615 H 0.67035 0.95222 0.44176 0.0
H2616 H 0.67126 0.93702 0.42664 0.0
H2617 H 0.68908 0.95512 0.43373 0.0
C2618 C 0.68102 0.90006 0.41153 0.0
C2619 C 0.69485 0.91087 0.40147 0.0
C2620 C 0.6766 0.90472 0.42966 0.0
C2621 C 0.68575 0.92034 0.43777 0.0
C2622 C 0.69933 0.93109 0.42745 0.0
H2623 H 0.70156 0.98374 0.53838 0.0
H2624 H 0.70019 0.96969 0.50662 0.0
C2625 C 0.70379 0.92646 0.40967 0.0
C2626 C 0.68183 0.92564 0.45732 0.0
H2627 H 0.67656 0.95534 0.47759 0.0
C2628 C 0.68279 0.91886 0.47572 0.0
C2629 C 0.67908 0.93868 0.45814 0.0
C2630 C 0.67723 0.9461 0.439 0.0
C2631 C 0.68197 0.9253 0.4948 0.0
C2632 C 0.67987 0.93877 0.4956 0.0
C2633 C 0.67826 0.94511 0.47715 0.0
C2634 C 0.68034 0.94714 0.51524 0.0
C2635 C 0.68423 0.91814 0.51394 0.0
C2636 C 0.66951 0.93933 0.53082 0.0
C2637 C 0.67027 0.94741 0.54915 0.0
C2638 C 0.68185 0.96353 0.55232 0.0
C2639 C 0.6925 0.97135 0.53657 0.0
C2640 C 0.69172 0.9633 0.51832 0.0
H2641 H 0.68919 0.91025 0.51074 0.0
H2642 H 0.6922 0.92761 0.52499 0.0
H2643 H 0.67263 0.91091 0.5212 0.0
H2644 H 0.66038 0.92699 0.52878 0.0
H2645 H 0.66183 0.94101 0.56086 0.0
H2646 H 0.17159 0.88381 0.43365 0.0
H2647 H 0.15777 0.86485 0.46033 0.0
H2648 H 0.16703 0.83053 0.43067 0.0
H2649 H 0.18095 0.84965 0.40351 0.0
H2650 H 0.13501 0.81796 0.44158 0.0
H2651 H 0.17464 0.85008 0.50732 0.0
H2652 H 0.16917 0.86239 0.4932 0.0
H2653 H 0.18075 0.85493 0.4813 0.0
C2654 C 0.17098 0.87234 0.43291 0.0
C2655 C 0.1775 0.86832 0.41645 0.0
C2656 C 0.16307 0.86149 0.44828 0.0
C2657 C 0.16144 0.84626 0.44773 0.0
C2658 C 0.1682 0.84224 0.43153 0.0
H2659 H 0.1211 0.78547 0.55352 0.0
H2660 H 0.13786 0.79978 0.52505 0.0
C2661 C 0.17628 0.85322 0.4161 0.0
C2662 C 0.15193 0.8345 0.46358 0.0
H2663 H 0.14827 0.82995 0.51514 0.0
C2664 C 0.13802 0.82047 0.45766 0.0
C2665 C 0.15585 0.83763 0.4846 0.0
C2666 C 0.171 0.85199 0.492 0.0
C2667 C 0.12768 0.80986 0.47215 0.0
C2668 C 0.13117 0.81347 0.49321 0.0
C2669 C 0.1454 0.82719 0.49906 0.0
C2670 C 0.12026 0.80338 0.50951 0.0
C2671 C 0.11314 0.79487 0.46472 0.0
C2672 C 0.10462 0.80038 0.51034 0.0
C2673 C 0.09491 0.79205 0.52664 0.0
C2674 C 0.10067 0.78666 0.54261 0.0
C2675 C 0.11621 0.78939 0.54151 0.0
C2676 C 0.12587 0.79764 0.52521 0.0
H2677 H 0.11464 0.79143 0.44907 0.0
H2678 H 0.11029 0.78479 0.47497 0.0
H2679 H 0.10295 0.79694 0.46432 0.0
H2680 H 0.10005 0.80495 0.49874 0.0
H2681 H 0.08307 0.79033 0.52707 0.0
H2682 H 0.23393 0.44337 0.43539 0.0
H2683 H 0.24804 0.44136 0.46535 0.0
H2684 H 0.25555 0.40668 0.43333 0.0
H2685 H 0.24208 0.40905 0.4033 0.0
H2686 H 0.23909 0.41458 0.48728 0.0
H2687 H 0.29892 0.43555 0.45777 0.0
H2688 H 0.28457 0.43901 0.44469 0.0
H2689 H 0.28397 0.42021 0.44173 0.0
C2690 C 0.23891 0.4356 0.43461 0.0
C2691 C 0.23679 0.4263 0.417 0.0
C2692 C 0.24689 0.4344 0.45176 0.0
C2693 C 0.25303 0.42402 0.4515 0.0
C2694 C 0.25123 0.41502 0.43378 0.0
H2695 H 0.28334 0.37637 0.53327 0.0
H2696 H 0.27548 0.387 0.50458 0.0
C2697 C 0.24329 0.41621 0.41669 0.0
C2698 C 0.26013 0.42147 0.47016 0.0
H2699 H 0.29212 0.41942 0.48772 0.0
C2700 C 0.2508 0.41592 0.48753 0.0
C2701 C 0.2754 0.4232 0.47043 0.0
C2702 C 0.28635 0.42998 0.45271 0.0
C2703 C 0.25603 0.41132 0.50479 0.0
C2704 C 0.27103 0.41245 0.50472 0.0
C2705 C 0.28058 0.41848 0.48764 0.0
C2706 C 0.27665 0.40669 0.52189 0.0
C2707 C 0.24522 0.40463 0.52266 0.0
C2708 C 0.28017 0.41444 0.54099 0.0
C2709 C 0.2847 0.40843 0.55739 0.0
C2710 C 0.28574 0.39455 0.55494 0.0
C2711 C 0.28257 0.38704 0.53565 0.0
C2712 C 0.27812 0.3931 0.51925 0.0
H2713 H 0.23304 0.40208 0.51896 0.0
H2714 H 0.24466 0.39348 0.52778 0.0
H2715 H 0.24994 0.41336 0.53556 0.0
H2716 H 0.27928 0.42505 0.54324 0.0
H2717 H 0.28713 0.4145 0.57205 0.0
H2718 H 0.18116 0.32655 0.76895 0.0
H2719 H 0.1976 0.33102 0.73907 0.0
H2720 H 0.23932 0.36155 0.7753 0.0
H2721 H 0.22309 0.35682 0.80519 0.0
H2722 H 0.21749 0.36081 0.7218 0.0
H2723 H 0.25173 0.33201 0.74608 0.0
H2724 H 0.23379 0.32832 0.75832 0.0
H2725 H 0.25211 0.34622 0.7642 0.0
C2726 C 0.19385 0.33398 0.7706 0.0
C2727 C 0.20079 0.34139 0.78942 0.0
C2728 C 0.20322 0.33659 0.75352 0.0
C2729 C 0.2197 0.34649 0.75502 0.0
C2730 C 0.22667 0.35367 0.77385 0.0
H2731 H 0.29569 0.38349 0.66675 0.0
H2732 H 0.28025 0.37756 0.69796 0.0
C2733 C 0.21733 0.35111 0.79088 0.0
C2734 C 0.22955 0.35011 0.73667 0.0
H2735 H 0.26045 0.34781 0.71648 0.0
C2736 C 0.22681 0.35788 0.72057 0.0
C2737 C 0.24183 0.34643 0.73522 0.0
C2738 C 0.24499 0.33766 0.75179 0.0
C2739 C 0.23612 0.36222 0.70314 0.0
C2740 C 0.24831 0.35842 0.70158 0.0
C2741 C 0.25113 0.35074 0.71774 0.0
C2742 C 0.25781 0.36179 0.68294 0.0
C2743 C 0.233 0.37111 0.68668 0.0
C2744 C 0.25035 0.35464 0.66431 0.0
C2745 C 0.25908 0.35801 0.64657 0.0
C2746 C 0.2755 0.36852 0.64708 0.0
C2747 C 0.28305 0.3754 0.66586 0.0
C2748 C 0.27426 0.37202 0.68367 0.0
H2749 H 0.2265 0.37697 0.69256 0.0
H2750 H 0.2442 0.38032 0.67998 0.0
H2751 H 0.22565 0.36259 0.67436 0.0
H2752 H 0.23774 0.34644 0.66347 0.0
H2753 H 0.2529 0.35238 0.63241 0.0
H2754 H 0.70417 0.89251 0.76569 0.0
H2755 H 0.69914 0.90629 0.7382 0.0
H2756 H 0.68414 0.92926 0.78188 0.0
H2757 H 0.68903 0.91522 0.8097 0.0
H2758 H 0.67063 0.9077 0.72629 0.0
H2759 H 0.72175 0.96641 0.74999 0.0
H2760 H 0.71974 0.94783 0.75846 0.0
H2761 H 0.70762 0.95505 0.76907 0.0
C2762 C 0.6995 0.90026 0.76949 0.0
C2763 C 0.69692 0.90265 0.78997 0.0
C2764 C 0.69667 0.90818 0.75369 0.0
C2765 C 0.69143 0.91901 0.75783 0.0
C2766 C 0.6883 0.92108 0.77822 0.0
H2767 H 0.66542 0.96606 0.6621 0.0
H2768 H 0.66579 0.9523 0.6931 0.0
C2769 C 0.69093 0.91291 0.79412 0.0
C2770 C 0.68993 0.92842 0.74076 0.0
H2771 H 0.70782 0.96562 0.72008 0.0
C2772 C 0.67863 0.9204 0.72509 0.0
C2773 C 0.70052 0.94498 0.73889 0.0
C2774 C 0.71319 0.95416 0.75487 0.0
C2775 C 0.67766 0.92842 0.70775 0.0
C2776 C 0.68831 0.94496 0.70583 0.0
C2777 C 0.69959 0.95299 0.72151 0.0
C2778 C 0.68828 0.9539 0.68727 0.0
C2779 C 0.66555 0.91905 0.69125 0.0
C2780 C 0.7009 0.95971 0.67368 0.0
C2781 C 0.70066 0.96751 0.65583 0.0
C2782 C 0.6879 0.96994 0.6512 0.0
C2783 C 0.67546 0.96446 0.6651 0.0
C2784 C 0.67562 0.9565 0.68284 0.0
H2785 H 0.65989 0.90599 0.69343 0.0
H2786 H 0.65618 0.92235 0.69133 0.0
H2787 H 0.67107 0.92193 0.67607 0.0
H2788 H 0.71083 0.95793 0.67668 0.0
H2789 H 0.71047 0.97155 0.64557 0.0
H2790 H 0.1722 0.8938 0.76039 0.0
H2791 H 0.15748 0.87864 0.72998 0.0
H2792 H 0.13656 0.8354 0.76415 0.0
H2793 H 0.1508 0.8504 0.79479 0.0
H2794 H 0.15211 0.83554 0.72511 0.0
H2795 H 0.1081 0.85581 0.71777 0.0
H2796 H 0.12843 0.87084 0.72228 0.0
H2797 H 0.11791 0.85676 0.74169 0.0
C2798 C 0.1643 0.88112 0.76165 0.0
C2799 C 0.16286 0.87341 0.78025 0.0
C2800 C 0.1559 0.87246 0.74416 0.0
C2801 C 0.14588 0.8559 0.74482 0.0
C2802 C 0.14425 0.84817 0.7633 0.0
H2803 H 0.09403 0.77877 0.65654 0.0
H2804 H 0.10701 0.79521 0.6869 0.0
C2805 C 0.15253 0.85681 0.78082 0.0
C2806 C 0.13766 0.8465 0.72608 0.0
H2807 H 0.10799 0.83877 0.69173 0.0
C2808 C 0.14244 0.83621 0.71781 0.0
C2809 C 0.12517 0.84753 0.71649 0.0
C2810 C 0.11946 0.85824 0.72498 0.0
C2811 C 0.13517 0.82699 0.7001 0.0
C2812 C 0.12238 0.8277 0.69072 0.0
C2813 C 0.11771 0.83814 0.69892 0.0
C2814 C 0.1137 0.81763 0.6725 0.0
C2815 C 0.14154 0.8169 0.69138 0.0
C2816 C 0.11243 0.82463 0.65447 0.0
C2817 C 0.10475 0.8152 0.63712 0.0
C2818 C 0.0982 0.79857 0.63746 0.0
C2819 C 0.09909 0.79156 0.65568 0.0
C2820 C 0.10663 0.80097 0.67304 0.0
H2821 H 0.15399 0.82138 0.69637 0.0
H2822 H 0.13438 0.80454 0.69682 0.0
H2823 H 0.14097 0.81659 0.67448 0.0
H2824 H 0.11766 0.83744 0.65369 0.0
H2825 H 0.10423 0.82096 0.62334 0.0
H2826 H 0.37375 0.22773 0.61505 0.0
H2827 H 0.37799 0.21615 0.58419 0.0
H2828 H 0.37546 0.17754 0.61899 0.0
H2829 H 0.3716 0.18931 0.65015 0.0
H2830 H 0.39777 0.18664 0.58897 0.0
H2831 H 0.34165 0.17829 0.55562 0.0
H2832 H 0.35565 0.19863 0.56221 0.0
H2833 H 0.34732 0.18412 0.58191 0.0
C2834 C 0.37434 0.21689 0.61627 0.0
C2835 C 0.37222 0.20944 0.63518 0.0
C2836 C 0.37664 0.21019 0.59849 0.0
C2837 C 0.37663 0.19568 0.599 0.0
C2838 C 0.37541 0.18866 0.61805 0.0
H2839 H 0.34936 0.1238 0.50626 0.0
H2840 H 0.35256 0.14205 0.53385 0.0
C2841 C 0.37325 0.19546 0.63593 0.0
C2842 C 0.377 0.18745 0.57963 0.0
H2843 H 0.35687 0.17157 0.53455 0.0
C2844 C 0.38887 0.18342 0.57703 0.0
C2845 C 0.36532 0.18305 0.56399 0.0
C2846 C 0.35167 0.18609 0.56608 0.0
C2847 C 0.38929 0.17507 0.55945 0.0
C2848 C 0.37766 0.17077 0.54378 0.0
C2849 C 0.36594 0.175 0.54632 0.0
C2850 C 0.37613 0.1602 0.52592 0.0
C2851 C 0.40182 0.17035 0.55818 0.0
C2852 C 0.38818 0.16431 0.51161 0.0
C2853 C 0.38636 0.1537 0.49546 0.0
C2854 C 0.37247 0.13876 0.49337 0.0
C2855 C 0.36032 0.13507 0.50735 0.0
C2856 C 0.36211 0.14557 0.52326 0.0
H2857 H 0.40799 0.17185 0.57306 0.0
H2858 H 0.39658 0.15775 0.55296 0.0
H2859 H 0.41074 0.17793 0.54697 0.0
H2860 H 0.39902 0.17565 0.51299 0.0
H2861 H 0.39597 0.15697 0.48506 0.0
H2862 H 0.90282 0.2041 0.60777 0.0
H2863 H 0.91735 0.22179 0.57984 0.0
H2864 H 0.9192 0.26144 0.61275 0.0
H2865 H 0.90503 0.24398 0.64077 0.0
H2866 H 0.90833 0.24042 0.55616 0.0
H2867 H 0.96543 0.27829 0.59701 0.0
H2868 H 0.95058 0.25923 0.60633 0.0
H2869 H 0.94859 0.27656 0.61001 0.0
C2870 C 0.90651 0.21662 0.60918 0.0
C2871 C 0.90272 0.22258 0.62655 0.0
C2872 C 0.91473 0.2267 0.59315 0.0
C2873 C 0.91952 0.24299 0.59427 0.0
C2874 C 0.91585 0.24898 0.61163 0.0
H2875 H 0.94513 0.31269 0.49934 0.0
H2876 H 0.9321 0.29306 0.5259 0.0
C2877 C 0.90758 0.23892 0.62758 0.0
C2878 C 0.92789 0.25367 0.57707 0.0
H2879 H 0.96191 0.28759 0.56503 0.0
C2880 C 0.92009 0.25067 0.55806 0.0
C2881 C 0.9433 0.26697 0.57947 0.0
C2882 C 0.95256 0.27042 0.59924 0.0
C2883 C 0.92709 0.26085 0.54157 0.0
C2884 C 0.94225 0.27449 0.54421 0.0
C2885 C 0.95024 0.27722 0.56305 0.0
C2886 C 0.94999 0.28614 0.52768 0.0
C2887 C 0.91823 0.25687 0.52143 0.0
C2888 C 0.96452 0.289 0.52002 0.0
C2889 C 0.97202 0.30024 0.50483 0.0
C2890 C 0.96521 0.30899 0.49712 0.0
C2891 C 0.95067 0.30613 0.50486 0.0
C2892 C 0.94316 0.29483 0.51998 0.0
H2893 H 0.90884 0.24415 0.52035 0.0
H2894 H 0.91253 0.26425 0.51979 0.0
H2895 H 0.92638 0.25948 0.50855 0.0
H2896 H 0.97006 0.2825 0.52579 0.0
H2897 H 0.98322 0.30218 0.49927 0.0
H2898 H 0.83697 0.66994 0.57743 0.0
H2899 H 0.82423 0.67298 0.54671 0.0
H2900 H 0.80514 0.69678 0.58234 0.0
H2901 H 0.81741 0.69349 0.6131 0.0
H2902 H 0.78717 0.66474 0.54225 0.0
H2903 H 0.83576 0.72716 0.53305 0.0
H2904 H 0.8388 0.71227 0.54534 0.0
H2905 H 0.82881 0.72092 0.55843 0.0
C2906 C 0.82983 0.67556 0.57882 0.0
C2907 C 0.82838 0.68163 0.59777 0.0
C2908 C 0.82262 0.67733 0.56123 0.0
C2909 C 0.81388 0.6852 0.56232 0.0
C2910 C 0.81195 0.69077 0.58123 0.0
H2911 H 0.76953 0.72576 0.49562 0.0
H2912 H 0.78362 0.71734 0.51837 0.0
C2913 C 0.81908 0.68897 0.59877 0.0
C2914 C 0.80729 0.68839 0.54372 0.0
H2915 H 0.81246 0.71881 0.5132 0.0
C2916 C 0.79277 0.67645 0.53558 0.0
C2917 C 0.81469 0.70369 0.53519 0.0
C2918 C 0.83043 0.71679 0.54329 0.0
C2919 C 0.78502 0.67969 0.51973 0.0
C2920 C 0.79214 0.69521 0.51172 0.0
C2921 C 0.80702 0.70692 0.51933 0.0
C2922 C 0.78368 0.70013 0.49719 0.0
C2923 C 0.76889 0.66677 0.51249 0.0
C2924 C 0.77912 0.69336 0.47751 0.0
C2925 C 0.77093 0.69815 0.46429 0.0
C2926 C 0.76723 0.70984 0.47054 0.0
C2927 C 0.77209 0.71672 0.49018 0.0
C2928 C 0.7802 0.71193 0.50328 0.0
H2929 H 0.76393 0.65631 0.52258 0.0
H2930 H 0.76054 0.67139 0.51168 0.0
H2931 H 0.76976 0.66269 0.49696 0.0
H2932 H 0.78192 0.68442 0.47236 0.0
H2933 H 0.76744 0.69264 0.44927 0.0
H2934 H 0.80387 0.6999 0.21532 0.0
H2935 H 0.79365 0.70273 0.24803 0.0
H2936 H 0.8101 0.67342 0.27608 0.0
H2937 H 0.81934 0.66978 0.24295 0.0
H2938 H 0.78367 0.6661 0.29116 0.0
H2939 H 0.81817 0.73173 0.29335 0.0
H2940 H 0.8055 0.72494 0.2712 0.0
H2941 H 0.82102 0.72011 0.27405 0.0
C2942 C 0.80519 0.69404 0.22852 0.0
C2943 C 0.81239 0.68468 0.22674 0.0
C2944 C 0.79954 0.69579 0.24726 0.0
C2945 C 0.80155 0.68874 0.2648 0.0
C2946 C 0.80848 0.6791 0.26288 0.0
H2947 H 0.787 0.72174 0.38307 0.0
H2948 H 0.79899 0.71626 0.3538 0.0
C2949 C 0.81373 0.67698 0.24399 0.0
C2950 C 0.7962 0.69122 0.28501 0.0
H2951 H 0.79663 0.71974 0.31644 0.0
C2952 C 0.78668 0.67787 0.29678 0.0
C2953 C 0.80042 0.70657 0.29278 0.0
C2954 C 0.81199 0.72164 0.28227 0.0
C2955 C 0.78089 0.67939 0.31566 0.0
C2956 C 0.78403 0.69462 0.32259 0.0
C2957 C 0.79395 0.70801 0.31112 0.0
C2958 C 0.77693 0.69701 0.34136 0.0
C2959 C 0.77177 0.66462 0.32808 0.0
C2960 C 0.76056 0.688 0.34435 0.0
C2961 C 0.7538 0.69081 0.3614 0.0
C2962 C 0.76317 0.70308 0.37546 0.0
C2963 C 0.77951 0.71219 0.37248 0.0
C2964 C 0.78634 0.70908 0.35571 0.0
H2965 H 0.77557 0.65578 0.32483 0.0
H2966 H 0.7733 0.66743 0.34467 0.0
H2967 H 0.75902 0.65893 0.32393 0.0
H2968 H 0.75288 0.67906 0.33323 0.0
H2969 H 0.74112 0.68378 0.36313 0.0
H2970 H 0.34884 0.19758 0.2639 0.0
H2971 H 0.35463 0.1868 0.29379 0.0
H2972 H 0.40074 0.20042 0.27095 0.0
H2973 H 0.39494 0.21144 0.24037 0.0
H2974 H 0.36143 0.16181 0.29365 0.0
H2975 H 0.40988 0.21629 0.33159 0.0
H2976 H 0.39694 0.21722 0.31244 0.0
H2977 H 0.41207 0.21293 0.30511 0.0
C2978 C 0.36033 0.19848 0.26508 0.0
C2979 C 0.37139 0.20541 0.24945 0.0
C2980 C 0.36361 0.19224 0.28237 0.0
C2981 C 0.37813 0.19274 0.28487 0.0
C2982 C 0.38949 0.20001 0.2696 0.0
H2983 H 0.4045 0.15227 0.38915 0.0
H2984 H 0.4056 0.1666 0.35798 0.0
C2985 C 0.38616 0.20631 0.25206 0.0
C2986 C 0.38059 0.18482 0.30302 0.0
H2987 H 0.40086 0.19205 0.34856 0.0
C2988 C 0.37016 0.16845 0.30555 0.0
C2989 C 0.392 0.19333 0.31865 0.0
C2990 C 0.40335 0.21094 0.31703 0.0
C2991 C 0.37059 0.16049 0.32319 0.0
C2992 C 0.38151 0.16911 0.33926 0.0
C2993 C 0.39237 0.18538 0.33645 0.0
C2994 C 0.38138 0.16146 0.35917 0.0
C2995 C 0.35931 0.1428 0.32434 0.0
C2996 C 0.36761 0.15418 0.37081 0.0
C2997 C 0.36696 0.14599 0.38861 0.0
C2998 C 0.38011 0.14493 0.39552 0.0
C2999 C 0.39414 0.15282 0.38438 0.0
C3000 C 0.39477 0.16102 0.36647 0.0
H3001 H 0.35539 0.13722 0.30893 0.0
H3002 H 0.36479 0.13675 0.33252 0.0
H3003 H 0.34865 0.14073 0.33267 0.0
H3004 H 0.35721 0.15463 0.36594 0.0
H3005 H 0.35597 0.14018 0.39675 0.0
H3006 H 0.86112 0.22455 0.29332 0.0
H3007 H 0.87717 0.23903 0.3235 0.0
H3008 H 0.91787 0.26428 0.28576 0.0
H3009 H 0.90175 0.2502 0.25559 0.0
H3010 H 0.90351 0.24224 0.34218 0.0
H3011 H 0.91584 0.30057 0.31259 0.0
H3012 H 0.90155 0.28197 0.30061 0.0
H3013 H 0.92229 0.29035 0.29577 0.0
C3014 C 0.87351 0.23312 0.29154 0.0
C3015 C 0.88014 0.23644 0.27209 0.0
C3016 C 0.88268 0.24138 0.30877 0.0
C3017 C 0.89865 0.25303 0.30686 0.0
C3018 C 0.90546 0.25572 0.28756 0.0
H3019 H 0.9683 0.30111 0.40612 0.0
H3020 H 0.95103 0.28152 0.38006 0.0
C3021 C 0.89626 0.24766 0.27033 0.0
C3022 C 0.90803 0.26279 0.32486 0.0
H3023 H 0.93033 0.30121 0.3421 0.0
C3024 C 0.90933 0.25514 0.34224 0.0
C3025 C 0.91542 0.27961 0.32507 0.0
C3026 C 0.91359 0.28861 0.3076 0.0
C3027 C 0.91794 0.26387 0.35971 0.0
C3028 C 0.92578 0.28072 0.3596 0.0
C3029 C 0.92441 0.2883 0.34222 0.0
C3030 C 0.9351 0.29094 0.37738 0.0
C3031 C 0.9182 0.25494 0.37823 0.0
C3032 C 0.93192 0.3027 0.38469 0.0
C3033 C 0.94195 0.31405 0.39911 0.0
C3034 C 0.95526 0.31376 0.40686 0.0
C3035 C 0.95799 0.30145 0.40056 0.0
C3036 C 0.94808 0.29023 0.38572 0.0
H3037 H 0.90807 0.24255 0.37802 0.0
H3038 H 0.92923 0.25429 0.37842 0.0
H3039 H 0.91791 0.26104 0.39248 0.0
H3040 H 0.92198 0.3035 0.37863 0.0
H3041 H 0.93956 0.32339 0.40376 0.0
H3042 H 0.38166 0.26948 0.73044 0.0
H3043 H 0.38136 0.28155 0.76324 0.0
H3044 H 0.35314 0.23483 0.7881 0.0
H3045 H 0.35378 0.2227 0.75554 0.0
H3046 H 0.35758 0.28041 0.78348 0.0
H3047 H 0.38531 0.25495 0.833 0.0
H3048 H 0.38534 0.25358 0.8056 0.0
H3049 H 0.36818 0.23992 0.81946 0.0
C3050 C 0.37559 0.26173 0.74296 0.0
C3051 C 0.36786 0.24506 0.74023 0.0
C3052 C 0.37537 0.26868 0.76177 0.0
C3053 C 0.36743 0.25919 0.77848 0.0
C3054 C 0.35975 0.24253 0.7758 0.0
H3055 H 0.34738 0.28226 0.90112 0.0
H3056 H 0.34699 0.26866 0.86906 0.0
C3057 C 0.36006 0.23557 0.75703 0.0
C3058 C 0.3666 0.26675 0.79825 0.0
H3059 H 0.37343 0.2681 0.84981 0.0
C3060 C 0.36114 0.27773 0.79793 0.0
C3061 C 0.37116 0.26334 0.81732 0.0
C3062 C 0.37797 0.25243 0.8189 0.0
C3063 C 0.35999 0.28519 0.8159 0.0
C3064 C 0.36452 0.28176 0.8349 0.0
C3065 C 0.36985 0.2707 0.83532 0.0
C3066 C 0.36441 0.29001 0.85434 0.0
C3067 C 0.35372 0.29657 0.81443 0.0
C3068 C 0.37435 0.30654 0.85693 0.0
C3069 C 0.37464 0.3143 0.87524 0.0
C3070 C 0.36496 0.30578 0.89152 0.0
C3071 C 0.35491 0.28923 0.88889 0.0
C3072 C 0.35473 0.28142 0.87057 0.0
H3073 H 0.34711 0.29492 0.79988 0.0
H3074 H 0.34583 0.29502 0.82728 0.0
H3075 H 0.36377 0.30897 0.81516 0.0
H3076 H 0.38212 0.31344 0.84485 0.0
H3077 H 0.38261 0.32703 0.87667 0.0
H3078 H 0.85877 0.17327 0.77939 0.0
H3079 H 0.84056 0.16149 0.80758 0.0
H3080 H 0.8023 0.15735 0.76968 0.0
H3081 H 0.82027 0.16867 0.74132 0.0
H3082 H 0.8224 0.1729 0.82642 0.0
H3083 H 0.78383 0.11256 0.79254 0.0
H3084 H 0.80291 0.12631 0.78245 0.0
H3085 H 0.78614 0.1287 0.777 0.0
C3086 C 0.84645 0.16967 0.77695 0.0
C3087 C 0.84105 0.17196 0.75802 0.0
C3088 C 0.83606 0.16301 0.79313 0.0
C3089 C 0.82 0.15834 0.7907 0.0
C3090 C 0.81456 0.1606 0.77185 0.0
H3091 H 0.7415 0.11612 0.87667 0.0
H3092 H 0.75745 0.12795 0.84633 0.0
C3093 C 0.82494 0.16729 0.75569 0.0
C3094 C 0.80908 0.15158 0.80809 0.0
H3095 H 0.77588 0.11833 0.8239 0.0
C3096 C 0.81225 0.16096 0.82587 0.0
C3097 C 0.79572 0.13605 0.80732 0.0
C3098 C 0.79196 0.12524 0.78889 0.0
C3099 C 0.80246 0.15526 0.84285 0.0
C3100 C 0.78929 0.13961 0.84226 0.0
C3101 C 0.78594 0.13033 0.82435 0.0
C3102 C 0.77945 0.1324 0.86047 0.0
C3103 C 0.80624 0.16614 0.86123 0.0
C3104 C 0.78643 0.13072 0.87836 0.0
C3105 C 0.77741 0.12402 0.8956 0.0
C3106 C 0.76111 0.11871 0.89539 0.0
C3107 C 0.75403 0.12016 0.87737 0.0
C3108 C 0.76312 0.1269 0.86003 0.0
H3109 H 0.81345 0.17887 0.85714 0.0
H3110 H 0.79529 0.16431 0.86857 0.0
H3111 H 0.81315 0.16353 0.87251 0.0
H3112 H 0.79891 0.13451 0.87896 0.0
H3113 H 0.78326 0.12299 0.90913 0.0
H3114 H 0.88358 0.66586 0.73246 0.0
H3115 H 0.9004 0.67082 0.76284 0.0
H3116 H 0.90533 0.71733 0.77045 0.0
H3117 H 0.88846 0.71243 0.74028 0.0
H3118 H 0.93332 0.69902 0.76933 0.0
H3119 H 0.88985 0.69423 0.82684 0.0
H3120 H 0.88391 0.68535 0.80163 0.0
H3121 H 0.89245 0.70646 0.80518 0.0
C3122 C 0.88814 0.67708 0.7407 0.0
C3123 C 0.88469 0.68875 0.73393 0.0
C3124 C 0.8978 0.67993 0.75797 0.0
C3125 C 0.90401 0.6944 0.76892 0.0
C3126 C 0.90056 0.70605 0.76227 0.0
H3127 H 0.95863 0.72732 0.88326 0.0
H3128 H 0.94396 0.72551 0.8518 0.0
C3129 C 0.89102 0.70327 0.74493 0.0
C3130 C 0.91428 0.69743 0.78716 0.0
H3131 H 0.91542 0.70148 0.83894 0.0
C3132 C 0.92944 0.69955 0.78457 0.0
C3133 C 0.90921 0.6983 0.80695 0.0
C3134 C 0.89294 0.69588 0.81049 0.0
C3135 C 0.93972 0.70258 0.8013 0.0
C3136 C 0.93453 0.70305 0.8212 0.0
C3137 C 0.91941 0.70113 0.82372 0.0
C3138 C 0.94427 0.70481 0.83967 0.0
C3139 C 0.95615 0.7055 0.79742 0.0
C3140 C 0.94931 0.69378 0.84335 0.0
C3141 C 0.95777 0.69487 0.86117 0.0
C3142 C 0.96119 0.70687 0.87588 0.0
C3143 C 0.95623 0.71798 0.87218 0.0
C3144 C 0.94781 0.71693 0.85424 0.0
H3145 H 0.95996 0.7099 0.7818 0.0
H3146 H 0.96489 0.7143 0.80854 0.0
H3147 H 0.95622 0.69414 0.79886 0.0
H3148 H 0.94638 0.68408 0.83265 0.0
H3149 H 0.9613 0.68604 0.86363 0.0
H3150 H 0.86016 0.66815 0.08515 0.0
H3151 H 0.87946 0.67116 0.05981 0.0
H3152 H 0.90936 0.72015 0.07874 0.0
H3153 H 0.89002 0.71746 0.10385 0.0
H3154 H 0.89102 0.69409 0.02736 0.0
H3155 H 0.93917 0.70085 0.07989 0.0
H3156 H 0.91894 0.69236 0.08777 0.0
H3157 H 0.93099 0.7135 0.08507 0.0
C3158 C 0.87075 0.67963 0.08396 0.0
C3159 C 0.8734 0.69254 0.09675 0.0
C3160 C 0.88185 0.68128 0.06948 0.0
C3161 C 0.89595 0.69581 0.06755 0.0
C3162 C 0.8987 0.70873 0.08022 0.0
H3163 H 0.97541 0.72587 0.98493 0.0
H3164 H 0.95821 0.72436 0.01281 0.0
C3165 C 0.88757 0.70713 0.09464 0.0
C3166 C 0.90744 0.69758 0.05171 0.0
H3167 H 0.94474 0.70382 0.04478 0.0
C3168 C 0.90276 0.69619 0.03116 0.0
C3169 C 0.9228 0.70049 0.05669 0.0
C3170 C 0.92832 0.70179 0.07854 0.0
C3171 C 0.91302 0.69768 0.01545 0.0
C3172 C 0.92827 0.70019 0.0204 0.0
C3173 C 0.93305 0.70183 0.04097 0.0
C3174 C 0.93922 0.70078 1.00438 0.0
C3175 C 0.90749 0.69685 0.99368 0.0
C3176 C 0.93454 0.68784 0.99079 0.0
C3177 C 0.94427 0.68871 0.97485 0.0
C3178 C 0.95905 0.70245 0.97228 0.0
C3179 C 0.96409 0.71512 0.98647 0.0
C3180 C 0.95426 0.71428 1.00239 0.0
H3181 H 0.89787 0.69979 0.99256 0.0
H3182 H 0.91734 0.70512 0.98396 0.0
H3183 H 0.90277 0.68455 0.98755 0.0
H3184 H 0.9232 0.67711 0.99232 0.0
H3185 H 0.94007 0.67866 0.96433 0.0
H3186 H 0.38659 0.26514 0.15002 0.0
H3187 H 0.38945 0.28131 0.11992 0.0
H3188 H 0.36217 0.2384 0.08382 0.0
H3189 H 0.35888 0.22241 0.11378 0.0
H3190 H 0.40073 0.28524 0.08123 0.0
H3191 H 0.33597 0.25927 0.07601 0.0
H3192 H 0.34561 0.25602 0.09748 0.0
H3193 H 0.34147 0.2442 0.07445 0.0
C3194 C 0.38161 0.2592 0.13551 0.0
C3195 C 0.3726 0.24246 0.13429 0.0
C3196 C 0.3831 0.26846 0.1183 0.0
C3197 C 0.37561 0.26116 0.09954 0.0
C3198 C 0.36764 0.24444 0.0981 0.0
H3199 H 0.38983 0.30461 0.97924 0.0
H3200 H 0.39135 0.29178 0.01038 0.0
C3201 C 0.36597 0.23526 0.11524 0.0
C3202 C 0.37541 0.27078 0.08173 0.0
H3203 H 0.35043 0.27386 0.04731 0.0
C3204 C 0.38972 0.2828 0.07391 0.0
C3205 C 0.36108 0.268 0.07223 0.0
C3206 C 0.34517 0.2563 0.0806 0.0
C3207 C 0.39009 0.29163 0.05667 0.0
C3208 C 0.37577 0.28818 0.04647 0.0
C3209 C 0.36147 0.27649 0.05471 0.0
C3210 C 0.37521 0.29648 0.02738 0.0
C3211 C 0.40589 0.30483 0.04991 0.0
C3212 C 0.36524 0.30308 0.02589 0.0
C3213 C 0.36412 0.3102 0.00784 0.0
C3214 C 0.37296 0.31098 0.99068 0.0
C3215 C 0.38295 0.30441 0.99216 0.0
C3216 C 0.38395 0.29716 0.01014 0.0
H3217 H 0.41468 0.30945 0.0627 0.0
H3218 H 0.41048 0.30012 0.03794 0.0
H3219 H 0.40492 0.31489 0.04359 0.0
H3220 H 0.35826 0.30273 0.03877 0.0
H3221 H 0.35627 0.31507 0.00734 0.0
H3222 H 0.84625 0.18683 0.11711 0.0
H3223 H 0.82954 0.17449 0.08677 0.0
H3224 H 0.79053 0.17463 0.1168 0.0
H3225 H 0.80766 0.18789 0.1467 0.0
H3226 H 0.80528 0.14744 0.08123 0.0
H3227 H 0.78682 0.19159 0.06401 0.0
H3228 H 0.80201 0.19544 0.08276 0.0
H3229 H 0.78145 0.18405 0.08918 0.0
C3230 C 0.83414 0.18432 0.11708 0.0
C3231 C 0.82821 0.18832 0.13411 0.0
C3232 C 0.82458 0.17729 0.09978 0.0
C3233 C 0.80878 0.17382 0.09925 0.0
C3234 C 0.80278 0.17763 0.11645 0.0
H3235 H 0.74406 0.10279 0.01023 0.0
H3236 H 0.75738 0.11706 0.04181 0.0
C3237 C 0.8125 0.18507 0.1336 0.0
C3238 C 0.79851 0.16547 0.0811 0.0
H3239 H 0.77272 0.16654 0.04634 0.0
C3240 C 0.79825 0.15172 0.07356 0.0
C3241 C 0.78944 0.17109 0.07083 0.0
C3242 C 0.79006 0.18644 0.07698 0.0
C3243 C 0.78934 0.1435 0.05612 0.0
C3244 C 0.77966 0.14865 0.04644 0.0
C3245 C 0.77991 0.16241 0.05392 0.0
C3246 C 0.76975 0.14027 0.02806 0.0
C3247 C 0.79094 0.12977 0.04789 0.0
C3248 C 0.77122 0.14868 0.01015 0.0
C3249 C 0.76312 0.14059 0.99226 0.0
C3250 C 0.75362 0.12393 0.99192 0.0
C3251 C 0.7515 0.11562 0.01004 0.0
C3252 C 0.75924 0.12375 0.02804 0.0
H3253 H 0.80228 0.13069 0.05293 0.0
H3254 H 0.78123 0.11844 0.05372 0.0
H3255 H 0.79036 0.12922 0.03099 0.0
H3256 H 0.77913 0.16144 0.00979 0.0
H3257 H 0.76496 0.14726 0.97846 0.0
loop_
_geom_bond_atom_site_label_1
_geom_bond_atom_site_label_2
_geom_bond_distance
_geom_bond_site_symmetry_2
_ccdc_geom_bond_type
Cu0 N1 1.999 . S
Cu0 O6 1.974 1_554 S
Cu0 N11 1.985 1_554 S
Cu0 O20 1.959 . S
N1 Cu0 1.999 . S
N1 C3 1.263 . S
N1 C5 1.389 . S
N2 C3 1.358 . S
N2 C4 1.400 . S
C3 N1 1.263 . S
C3 N2 1.358 . S
C3 H9 0.930 . S
C4 N2 1.400 . S
C4 C5 1.351 . S
C4 H21 0.930 . S
C5 N1 1.389 . S
C5 C4 1.351 . S
C5 H10 0.930 . S
O6 Cu0 1.974 1_556 S
O6 C16 1.282 . S
C7 O8 1.261 . S
C7 O20 1.251 . S
O8 C7 1.261 . S
H9 C3 0.930 . S
H10 C5 0.930 . S
N11 Cu0 1.985 1_556 S
N11 C13 1.335 . S
N11 C14 1.390 . S
N12 C13 1.345 . S
N12 C15 1.336 . S
C13 N11 1.335 . S
C13 N12 1.345 . S
C13 H18 0.930 . S
C14 N11 1.390 . S
C14 C15 1.346 . S
C14 H19 0.930 . S
C15 N12 1.336 . S
C15 C14 1.346 . S
C15 H22 0.929 . S
C16 O6 1.282 . S
C16 O17 1.216 . S
O17 C16 1.216 . S
H18 C13 0.930 . S
H19 C14 0.930 . S
O20 Cu0 1.959 . S
O20 C7 1.251 . S
H21 C4 0.930 . S
H22 C15 0.929 . S
Cu23 N24 1.999 1_554 S
Cu23 O29 1.974 . S
Cu23 N34 1.985 . S
Cu23 O43 1.959 1_554 S
N24 Cu23 1.999 1_556 S
N24 C26 1.263 . S
N24 C28 1.389 . S
N25 C26 1.358 . S
N25 C27 1.400 . S
C26 N24 1.263 . S
C26 N25 1.358 . S
C26 H32 0.930 . S
C27 N25 1.400 . S
C27 C28 1.351 . S
C27 H44 0.930 . S
C28 N24 1.389 . S
C28 C27 1.351 . S
C28 H33 0.930 . S
O29 Cu23 1.974 . S
O29 C39 1.282 . S
C30 O31 1.258 1_556 S
C30 O43 1.251 . S
O31 C30 1.258 1_554 S
H32 C26 0.930 . S
H33 C28 0.930 . S
N34 Cu23 1.985 . S
N34 C36 1.335 . S
N34 C37 1.390 . S
N35 C36 1.345 . S
N35 C38 1.336 . S
C36 N34 1.335 . S
C36 N35 1.345 . S
C36 H41 0.930 . S
C37 N34 1.390 . S
C37 C38 1.346 . S
C37 H42 0.930 . S
C38 N35 1.336 . S
C38 C37 1.346 . S
C38 H45 0.929 . S
C39 O29 1.282 . S
C39 O40 1.216 . S
O40 C39 1.216 . S
H41 C36 0.930 . S
H42 C37 0.930 . S
O43 Cu23 1.959 1_556 S
O43 C30 1.251 . S
H44 C27 0.930 . S
H45 C38 0.929 . S
Cu46 N47 1.999 1_554 S
Cu46 O52 1.974 . S
Cu46 N57 1.985 . S
Cu46 O66 1.959 . S
N47 Cu46 1.999 1_556 S
N47 C49 1.263 . S
N47 C51 1.392 1_545 S
N48 C49 1.358 . S
N48 C50 1.398 . S
C49 N47 1.263 . S
C49 N48 1.358 . S
C49 H55 0.930 . S
C50 N48 1.398 . S
C50 C51 1.353 1_545 S
C50 H67 0.932 1_545 S
C51 N47 1.392 1_565 S
C51 C50 1.353 1_565 S
C51 H56 0.926 . S
O52 Cu46 1.974 . S
O52 C62 1.282 . S
C53 O54 1.261 . S
C53 O66 1.251 . S
O54 C53 1.261 . S
H55 C49 0.930 . S
H56 C51 0.926 . S
N57 Cu46 1.985 . S
N57 C59 1.335 . S
N57 C60 1.390 . S
N58 C59 1.345 . S
N58 C61 1.336 . S
C59 N57 1.335 . S
C59 N58 1.345 . S
C59 H64 0.930 . S
C60 N57 1.390 . S
C60 C61 1.346 . S
C60 H65 0.930 . S
C61 N58 1.336 . S
C61 C60 1.346 . S
C61 H68 0.929 . S
C62 O52 1.282 . S
C62 O63 1.216 . S
O63 C62 1.216 . S
H64 C59 0.930 . S
H65 C60 0.930 . S
O66 Cu46 1.959 . S
O66 C53 1.251 . S
H67 C50 0.932 1_565 S
H68 C61 0.929 . S
Cu69 N70 1.999 . S
Cu69 O75 1.974 . S
Cu69 N80 1.985 . S
Cu69 O89 1.959 . S
N70 Cu69 1.999 . S
N70 C72 1.263 . S
N70 C74 1.389 . S
N71 C72 1.358 . S
N71 C73 1.400 . S
C72 N70 1.263 . S
C72 N71 1.358 . S
C72 H78 0.930 . S
C73 N71 1.400 . S
C73 C74 1.351 . S
C73 H90 0.930 . S
C74 N70 1.389 . S
C74 C73 1.351 . S
C74 H79 0.930 . S
O75 Cu69 1.974 . S
O75 C85 1.282 . S
C76 O77 1.261 . S
C76 O89 1.251 . S
O77 C76 1.261 . S
H78 C72 0.930 . S
H79 C74 0.930 . S
N80 Cu69 1.985 . S
N80 C82 1.335 . S
N80 C83 1.390 . S
N81 C82 1.345 . S
N81 C84 1.336 . S
C82 N80 1.335 . S
C82 N81 1.345 . S
C82 H87 0.930 . S
C83 N80 1.390 . S
C83 C84 1.346 . S
C83 H88 0.930 . S
C84 N81 1.336 . S
C84 C83 1.346 . S
C84 H91 0.916 1_545 S
C85 O75 1.282 . S
C85 O86 1.216 1_545 S
O86 C85 1.216 1_565 S
H87 C82 0.930 . S
H88 C83 0.930 . S
O89 Cu69 1.959 . S
O89 C76 1.251 . S
H90 C73 0.930 . S
H91 C84 0.916 1_565 S
Cu92 N93 1.999 . S
Cu92 O98 1.974 . S
Cu92 N103 1.985 . S
Cu92 O112 1.959 . S
N93 Cu92 1.999 . S
N93 C95 1.263 . S
N93 C97 1.389 . S
N94 C95 1.358 . S
N94 C96 1.400 . S
C95 N93 1.263 . S
C95 N94 1.358 . S
C95 H101 0.930 . S
C96 N94 1.400 . S
C96 C97 1.351 . S
C96 H113 0.930 . S
C97 N93 1.389 . S
C97 C96 1.351 . S
C97 H102 0.930 . S
O98 Cu92 1.974 . S
O98 C108 1.282 . S
C99 O100 1.261 . S
C99 O112 1.251 . S
O100 C99 1.261 . S
H101 C95 0.930 . S
H102 C97 0.930 . S
N103 Cu92 1.985 . S
N103 C105 1.335 . S
N103 C106 1.390 . S
N104 C105 1.345 . S
N104 C107 1.336 . S
C105 N103 1.335 . S
C105 N104 1.345 . S
C105 H110 0.930 . S
C106 N103 1.390 . S
C106 C107 1.346 . S
C106 H111 0.930 . S
C107 N104 1.336 . S
C107 C106 1.346 . S
C107 H114 0.929 . S
C108 O98 1.282 . S
C108 O109 1.216 . S
O109 C108 1.216 . S
H110 C105 0.930 . S
H111 C106 0.930 . S
O112 Cu92 1.959 . S
O112 C99 1.251 . S
H113 C96 0.930 . S
H114 C107 0.929 . S
Cu115 N116 1.999 . S
Cu115 O121 1.974 . S
Cu115 N126 1.985 . S
Cu115 O135 1.959 . S
N116 Cu115 1.999 . S
N116 C118 1.263 . S
N116 C120 1.389 . S
N117 C118 1.358 . S
N117 C119 1.400 . S
C118 N116 1.263 . S
C118 N117 1.358 . S
C118 H124 0.930 . S
C119 N117 1.400 . S
C119 C120 1.351 . S
C119 H136 0.930 . S
C120 N116 1.389 . S
C120 C119 1.351 . S
C120 H125 0.930 . S
O121 Cu115 1.974 . S
O121 C131 1.282 . S
C122 O123 1.261 . S
C122 O135 1.251 . S
O123 C122 1.261 . S
H124 C118 0.930 . S
H125 C120 0.930 . S
N126 Cu115 1.985 . S
N126 C128 1.335 . S
N126 C129 1.390 . S
N127 C128 1.345 . S
N127 C130 1.336 . S
C128 N126 1.335 . S
C128 N127 1.345 . S
C128 H133 0.930 . S
C129 N126 1.390 . S
C129 C130 1.346 . S
C129 H134 0.930 . S
C130 N127 1.336 . S
C130 C129 1.346 . S
C130 H137 0.929 . S
C131 O121 1.282 . S
C131 O132 1.216 . S
O132 C131 1.216 . S
H133 C128 0.930 . S
H134 C129 0.930 . S
O135 Cu115 1.959 . S
O135 C122 1.251 . S
H136 C119 0.930 . S
H137 C130 0.929 . S
Cu138 N139 1.999 . S
Cu138 O144 1.974 . S
Cu138 N149 1.985 . S
Cu138 O158 1.959 . S
N139 Cu138 1.999 . S
N139 C141 1.263 . S
N139 C143 1.389 . S
N140 C141 1.358 . S
N140 C142 1.400 . S
C141 N139 1.263 . S
C141 N140 1.358 . S
C141 H147 0.930 . S
C142 N140 1.400 . S
C142 C143 1.351 . S
C142 H159 0.930 . S
C143 N139 1.389 . S
C143 C142 1.351 . S
C143 H148 0.930 . S
O144 Cu138 1.974 . S
O144 C154 1.282 . S
C145 O146 1.261 . S
C145 O158 1.251 . S
O146 C145 1.261 . S
H147 C141 0.930 . S
H148 C143 0.930 . S
N149 Cu138 1.985 . S
N149 C151 1.335 . S
N149 C152 1.390 . S
N150 C151 1.345 . S
N150 C153 1.336 . S
C151 N149 1.335 . S
C151 N150 1.345 . S
C151 H156 0.930 . S
C152 N149 1.390 . S
C152 C153 1.346 . S
C152 H157 0.930 . S
C153 N150 1.336 . S
C153 C152 1.346 . S
C153 H160 0.929 . S
C154 O144 1.282 . S
C154 O155 1.216 . S
O155 C154 1.216 . S
H156 C151 0.930 . S
H157 C152 0.930 . S
O158 Cu138 1.959 . S
O158 C145 1.251 . S
H159 C142 0.930 . S
H160 C153 0.929 . S
Cu161 N162 1.999 . S
Cu161 O167 1.974 . S
Cu161 N172 1.985 . S
Cu161 O181 1.959 . S
N162 Cu161 1.999 . S
N162 C164 1.263 . S
N162 C166 1.389 . S
N163 C164 1.358 . S
N163 C165 1.400 . S
C164 N162 1.263 . S
C164 N163 1.358 . S
C164 H170 0.930 . S
C165 N163 1.400 . S
C165 C166 1.351 . S
C165 H182 0.930 . S
C166 N162 1.389 . S
C166 C165 1.351 . S
C166 H171 0.930 . S
O167 Cu161 1.974 . S
O167 C177 1.282 . S
C168 O169 1.261 . S
C168 O181 1.251 . S
O169 C168 1.261 . S
H170 C164 0.930 . S
H171 C166 0.930 . S
N172 Cu161 1.985 . S
N172 C174 1.335 . S
N172 C175 1.390 . S
N173 C174 1.345 . S
N173 C176 1.336 . S
C174 N172 1.335 . S
C174 N173 1.345 . S
C174 H179 0.930 . S
C175 N172 1.390 . S
C175 C176 1.346 . S
C175 H180 0.930 . S
C176 N173 1.336 . S
C176 C175 1.346 . S
C176 H183 0.929 . S
C177 O167 1.282 . S
C177 O178 1.216 . S
O178 C177 1.216 . S
H179 C174 0.930 . S
H180 C175 0.930 . S
O181 Cu161 1.959 . S
O181 C168 1.251 . S
H182 C165 0.930 . S
H183 C176 0.929 . S
Cu184 N185 1.999 . S
Cu184 O190 1.974 . S
Cu184 N195 1.985 . S
Cu184 O204 1.959 . S
N185 Cu184 1.999 . S
N185 C187 1.263 . S
N185 C189 1.389 . S
N186 C187 1.358 . S
N186 C188 1.400 . S
C187 N185 1.263 . S
C187 N186 1.358 . S
C187 H193 0.930 . S
C188 N186 1.400 . S
C188 C189 1.351 . S
C188 H205 0.930 . S
C189 N185 1.389 . S
C189 C188 1.351 . S
C189 H194 0.930 . S
O190 Cu184 1.974 . S
O190 C200 1.282 . S
C191 O192 1.261 . S
C191 O204 1.251 . S
O192 C191 1.261 . S
H193 C187 0.930 . S
H194 C189 0.930 . S
N195 Cu184 1.985 . S
N195 C197 1.335 . S
N195 C198 1.390 . S
N196 C197 1.345 . S
N196 C199 1.336 . S
C197 N195 1.335 . S
C197 N196 1.345 . S
C197 H202 0.930 . S
C198 N195 1.390 . S
C198 C199 1.346 . S
C198 H203 0.930 . S
C199 N196 1.336 . S
C199 C198 1.346 . S
C199 H206 0.929 . S
C200 O190 1.282 . S
C200 O201 1.216 . S
O201 C200 1.216 . S
H202 C197 0.930 . S
H203 C198 0.930 . S
O204 Cu184 1.959 . S
O204 C191 1.251 . S
H205 C188 0.930 . S
H206 C199 0.929 . S
Cu207 N208 1.999 . S
Cu207 O213 1.974 . S
Cu207 N218 1.985 . S
Cu207 O227 1.959 . S
N208 Cu207 1.999 . S
N208 C210 1.263 . S
N208 C212 1.389 . S
N209 C210 1.358 . S
N209 C211 1.400 . S
C210 N208 1.263 . S
C210 N209 1.358 . S
C210 H216 0.930 . S
C211 N209 1.400 . S
C211 C212 1.351 . S
C211 H228 0.930 . S
C212 N208 1.389 . S
C212 C211 1.351 . S
C212 H217 0.930 . S
O213 Cu207 1.974 . S
O213 C223 1.282 . S
C214 O215 1.261 . S
C214 O227 1.251 . S
O215 C214 1.261 . S
H216 C210 0.930 . S
H217 C212 0.930 . S
N218 Cu207 1.985 . S
N218 C220 1.335 . S
N218 C221 1.390 . S
N219 C220 1.345 . S
N219 C222 1.336 . S
C220 N218 1.335 . S
C220 N219 1.345 . S
C220 H225 0.930 . S
C221 N218 1.390 . S
C221 C222 1.346 . S
C221 H226 0.930 . S
C222 N219 1.336 . S
C222 C221 1.346 . S
C222 H229 0.929 . S
C223 O213 1.282 . S
C223 O224 1.216 . S
O224 C223 1.216 . S
H225 C220 0.930 . S
H226 C221 0.930 . S
O227 Cu207 1.959 . S
O227 C214 1.251 . S
H228 C211 0.930 . S
H229 C222 0.929 . S
Cu230 N231 1.999 . S
Cu230 O236 1.974 . S
Cu230 N241 1.985 . S
Cu230 O250 1.959 . S
N231 Cu230 1.999 . S
N231 C233 1.263 . S
N231 C235 1.389 . S
N232 C233 1.358 . S
N232 C234 1.400 . S
C233 N231 1.263 . S
C233 N232 1.358 . S
C233 H239 0.930 . S
C234 N232 1.400 . S
C234 C235 1.351 . S
C234 H251 0.930 . S
C235 N231 1.389 . S
C235 C234 1.351 . S
C235 H240 0.930 . S
O236 Cu230 1.974 . S
O236 C246 1.282 . S
C237 O238 1.261 . S
C237 O250 1.251 . S
O238 C237 1.261 . S
H239 C233 0.930 . S
H240 C235 0.930 . S
N241 Cu230 1.985 . S
N241 C243 1.335 . S
N241 C244 1.390 . S
N242 C243 1.345 . S
N242 C245 1.336 . S
C243 N241 1.335 . S
C243 N242 1.345 . S
C243 H248 0.930 . S
C244 N241 1.390 . S
C244 C245 1.346 . S
C244 H249 0.930 . S
C245 N242 1.336 . S
C245 C244 1.346 . S
C245 H252 0.929 . S
C246 O236 1.282 . S
C246 O247 1.216 . S
O247 C246 1.216 . S
H248 C243 0.930 . S
H249 C244 0.930 . S
O250 Cu230 1.959 . S
O250 C237 1.251 . S
H251 C234 0.930 . S
H252 C245 0.929 . S
Cu253 N254 1.999 . S
Cu253 O259 1.974 . S
Cu253 N264 1.985 . S
Cu253 O273 1.959 . S
N254 Cu253 1.999 . S
N254 C256 1.263 . S
N254 C258 1.389 . S
N255 C256 1.358 . S
N255 C257 1.400 . S
C256 N254 1.263 . S
C256 N255 1.358 . S
C256 H262 0.930 . S
C257 N255 1.400 . S
C257 C258 1.351 . S
C257 H274 0.930 . S
C258 N254 1.389 . S
C258 C257 1.351 . S
C258 H263 0.930 . S
O259 Cu253 1.974 . S
O259 C269 1.282 . S
C260 O261 1.261 . S
C260 O273 1.251 . S
O261 C260 1.261 . S
H262 C256 0.930 . S
H263 C258 0.930 . S
N264 Cu253 1.985 . S
N264 C266 1.335 . S
N264 C267 1.390 . S
N265 C266 1.345 . S
N265 C268 1.336 . S
C266 N264 1.335 . S
C266 N265 1.345 . S
C266 H271 0.930 . S
C267 N264 1.390 . S
C267 C268 1.346 . S
C267 H272 0.930 . S
C268 N265 1.336 . S
C268 C267 1.346 . S
C268 H275 0.929 . S
C269 O259 1.282 . S
C269 O270 1.216 . S
O270 C269 1.216 . S
H271 C266 0.930 . S
H272 C267 0.930 . S
O273 Cu253 1.959 . S
O273 C260 1.251 . S
H274 C257 0.930 . S
H275 C268 0.929 . S
Cu276 N277 1.999 . S
Cu276 O282 1.974 . S
Cu276 N287 1.985 . S
Cu276 O296 1.959 . S
N277 Cu276 1.999 . S
N277 C279 1.263 . S
N277 C281 1.389 . S
N278 C279 1.358 . S
N278 C280 1.400 . S
C279 N277 1.263 . S
C279 N278 1.358 . S
C279 H285 0.930 . S
C280 N278 1.400 . S
C280 C281 1.351 . S
C280 H297 0.930 . S
C281 N277 1.389 . S
C281 C280 1.351 . S
C281 H286 0.930 . S
O282 Cu276 1.974 . S
O282 C292 1.282 . S
C283 O284 1.261 . S
C283 O296 1.251 . S
O284 C283 1.261 . S
H285 C279 0.930 . S
H286 C281 0.930 . S
N287 Cu276 1.985 . S
N287 C289 1.335 . S
N287 C290 1.390 . S
N288 C289 1.345 . S
N288 C291 1.336 . S
C289 N287 1.335 . S
C289 N288 1.345 . S
C289 H294 0.930 . S
C290 N287 1.390 . S
C290 C291 1.346 . S
C290 H295 0.930 . S
C291 N288 1.336 . S
C291 C290 1.346 . S
C291 H298 0.929 . S
C292 O282 1.282 . S
C292 O293 1.216 . S
O293 C292 1.216 . S
H294 C289 0.930 . S
H295 C290 0.930 . S
O296 Cu276 1.959 . S
O296 C283 1.251 . S
H297 C280 0.930 . S
H298 C291 0.929 . S
Cu299 N300 1.999 . S
Cu299 O305 1.974 . S
Cu299 N310 1.985 . S
Cu299 O319 1.959 . S
N300 Cu299 1.999 . S
N300 C302 1.263 . S
N300 C304 1.389 . S
N301 C302 1.358 . S
N301 C303 1.400 . S
C302 N300 1.263 . S
C302 N301 1.358 . S
C302 H308 0.930 . S
C303 N301 1.400 . S
C303 C304 1.351 . S
C303 H320 0.930 . S
C304 N300 1.389 . S
C304 C303 1.351 . S
C304 H309 0.930 . S
O305 Cu299 1.974 . S
O305 C315 1.282 . S
C306 O307 1.261 . S
C306 O319 1.251 . S
O307 C306 1.261 . S
H308 C302 0.930 . S
H309 C304 0.930 . S
N310 Cu299 1.985 . S
N310 C312 1.335 . S
N310 C313 1.390 . S
N311 C312 1.345 . S
N311 C314 1.336 . S
C312 N310 1.335 . S
C312 N311 1.345 . S
C312 H317 0.930 . S
C313 N310 1.390 . S
C313 C314 1.346 . S
C313 H318 0.930 . S
C314 N311 1.336 . S
C314 C313 1.346 . S
C314 H321 0.929 . S
C315 O305 1.282 . S
C315 O316 1.216 . S
O316 C315 1.216 . S
H317 C312 0.930 . S
H318 C313 0.930 . S
O319 Cu299 1.959 . S
O319 C306 1.251 . S
H320 C303 0.930 . S
H321 C314 0.929 . S
Cu322 N323 1.999 . S
Cu322 O328 1.974 . S
Cu322 N333 1.985 . S
Cu322 O342 1.959 . S
N323 Cu322 1.999 . S
N323 C325 1.263 . S
N323 C327 1.389 . S
N324 C325 1.358 . S
N324 C326 1.400 . S
C325 N323 1.263 . S
C325 N324 1.358 . S
C325 H331 0.930 . S
C326 N324 1.400 . S
C326 C327 1.351 . S
C326 H343 0.930 . S
C327 N323 1.389 . S
C327 C326 1.351 . S
C327 H332 0.930 . S
O328 Cu322 1.974 . S
O328 C338 1.282 . S
C329 O330 1.261 . S
C329 O342 1.251 . S
O330 C329 1.261 . S
H331 C325 0.930 . S
H332 C327 0.930 . S
N333 Cu322 1.985 . S
N333 C335 1.335 . S
N333 C336 1.390 . S
N334 C335 1.345 . S
N334 C337 1.336 . S
C335 N333 1.335 . S
C335 N334 1.345 . S
C335 H340 0.930 . S
C336 N333 1.390 . S
C336 C337 1.346 . S
C336 H341 0.930 . S
C337 N334 1.336 . S
C337 C336 1.346 . S
C337 H344 0.929 . S
C338 O328 1.282 . S
C338 O339 1.216 . S
O339 C338 1.216 . S
H340 C335 0.930 . S
H341 C336 0.930 . S
O342 Cu322 1.959 . S
O342 C329 1.251 . S
H343 C326 0.930 . S
H344 C337 0.929 . S
Cu345 N346 1.999 . S
Cu345 O351 1.974 . S
Cu345 N356 1.985 . S
Cu345 O365 1.959 . S
N346 Cu345 1.999 . S
N346 C348 1.263 . S
N346 C350 1.389 . S
N347 C348 1.358 . S
N347 C349 1.400 . S
C348 N346 1.263 . S
C348 N347 1.358 . S
C348 H354 0.930 . S
C349 N347 1.400 . S
C349 C350 1.351 . S
C349 H366 0.930 . S
C350 N346 1.389 . S
C350 C349 1.351 . S
C350 H355 0.930 . S
O351 Cu345 1.974 . S
O351 C361 1.282 . S
C352 O353 1.261 . S
C352 O365 1.251 . S
O353 C352 1.261 . S
H354 C348 0.930 . S
H355 C350 0.930 . S
N356 Cu345 1.985 . S
N356 C358 1.335 . S
N356 C359 1.390 . S
N357 C358 1.345 . S
N357 C360 1.336 . S
C358 N356 1.335 . S
C358 N357 1.345 . S
C358 H363 0.930 . S
C359 N356 1.390 . S
C359 C360 1.346 . S
C359 H364 0.930 . S
C360 N357 1.336 . S
C360 C359 1.346 . S
C360 H367 0.929 . S
C361 O351 1.282 . S
C361 O362 1.216 . S
O362 C361 1.216 . S
H363 C358 0.930 . S
H364 C359 0.930 . S
O365 Cu345 1.959 . S
O365 C352 1.251 . S
H366 C349 0.930 . S
H367 C360 0.929 . S
Cu368 N369 1.999 . S
Cu368 O374 1.974 . S
Cu368 N379 1.985 . S
Cu368 O388 1.959 . S
N369 Cu368 1.999 . S
N369 C371 1.263 . S
N369 C373 1.389 . S
N370 C371 1.358 . S
N370 C372 1.400 . S
C371 N369 1.263 . S
C371 N370 1.358 . S
C371 H377 0.930 . S
C372 N370 1.400 . S
C372 C373 1.351 . S
C372 H389 0.930 . S
C373 N369 1.389 . S
C373 C372 1.351 . S
C373 H378 0.930 . S
O374 Cu368 1.974 . S
O374 C384 1.282 . S
C375 O376 1.261 . S
C375 O388 1.251 . S
O376 C375 1.261 . S
H377 C371 0.930 . S
H378 C373 0.930 . S
N379 Cu368 1.985 . S
N379 C381 1.335 . S
N379 C382 1.390 . S
N380 C381 1.345 . S
N380 C383 1.336 . S
C381 N379 1.335 . S
C381 N380 1.345 . S
C381 H386 0.930 . S
C382 N379 1.390 . S
C382 C383 1.346 . S
C382 H387 0.930 . S
C383 N380 1.336 . S
C383 C382 1.346 . S
C383 H390 0.929 . S
C384 O374 1.282 . S
C384 O385 1.216 . S
O385 C384 1.216 . S
H386 C381 0.930 . S
H387 C382 0.930 . S
O388 Cu368 1.959 . S
O388 C375 1.251 . S
H389 C372 0.930 . S
H390 C383 0.929 . S
Cu391 N392 1.999 . S
Cu391 O397 1.974 . S
Cu391 N402 1.985 . S
Cu391 O411 1.959 . S
N392 Cu391 1.999 . S
N392 C394 1.263 . S
N392 C396 1.389 . S
N393 C394 1.358 . S
N393 C395 1.400 . S
C394 N392 1.263 . S
C394 N393 1.358 . S
C394 H400 0.930 . S
C395 N393 1.400 . S
C395 C396 1.351 . S
C395 H412 0.930 . S
C396 N392 1.389 . S
C396 C395 1.351 . S
C396 H401 0.930 . S
O397 Cu391 1.974 . S
O397 C407 1.282 . S
C398 O399 1.261 . S
C398 O411 1.251 . S
O399 C398 1.261 . S
H400 C394 0.930 . S
H401 C396 0.930 . S
N402 Cu391 1.985 . S
N402 C404 1.335 . S
N402 C405 1.390 . S
N403 C404 1.345 . S
N403 C406 1.336 . S
C404 N402 1.335 . S
C404 N403 1.345 . S
C404 H409 0.930 . S
C405 N402 1.390 . S
C405 C406 1.346 . S
C405 H410 0.930 . S
C406 N403 1.336 . S
C406 C405 1.346 . S
C406 H413 0.929 . S
C407 O397 1.282 . S
C407 O408 1.216 . S
O408 C407 1.216 . S
H409 C404 0.930 . S
H410 C405 0.930 . S
O411 Cu391 1.959 . S
O411 C398 1.251 . S
H412 C395 0.930 . S
H413 C406 0.929 . S
Co414 O415 2.216 . S
Co414 O416 2.091 . S
Co414 O418 2.004 1_455 S
Co414 O424 2.021 . S
Co414 O426 2.137 . S
Co414 O427 2.244 . S
O415 Co414 2.216 . S
O415 C422 1.247 . S
O416 Co414 2.091 . S
O416 C422 1.261 . S
C417 O426 1.247 . S
C417 O427 1.272 . S
O418 Co414 2.004 1_655 S
O418 C423 1.259 . S
Co419 O420 2.061 . S
Co419 O425 2.052 . S
Co419 O427 2.135 . S
O420 Co419 2.061 . S
O420 C423 1.235 1_455 S
C421 O424 1.238 . S
C421 O425 1.241 . S
C422 O415 1.247 . S
C422 O416 1.261 . S
C423 O418 1.259 . S
C423 O420 1.235 1_655 S
O424 Co414 2.021 . S
O424 C421 1.238 . S
O425 Co419 2.052 . S
O425 C421 1.241 . S
O426 Co414 2.137 . S
O426 C417 1.247 . S
O427 Co414 2.244 . S
O427 C417 1.272 . S
O427 Co419 2.135 . S
Co428 O429 2.216 . S
Co428 O430 2.091 . S
Co428 O432 2.004 . S
Co428 O438 2.021 . S
Co428 O440 2.137 . S
Co428 O441 2.244 . S
O429 Co428 2.216 . S
O429 C436 1.247 . S
O430 Co428 2.091 . S
O430 C436 1.261 . S
C431 O440 1.247 . S
C431 O441 1.272 . S
O432 Co428 2.004 . S
O432 C437 1.259 . S
Co433 O434 2.061 . S
Co433 O439 2.052 . S
Co433 O441 2.135 . S
O434 Co433 2.061 . S
O434 C437 1.235 . S
C435 O438 1.238 . S
C435 O439 1.241 . S
C436 O429 1.247 . S
C436 O430 1.261 . S
C437 O432 1.259 . S
C437 O434 1.235 . S
O438 Co428 2.021 . S
O438 C435 1.238 . S
O439 Co433 2.052 . S
O439 C435 1.241 . S
O440 Co428 2.137 . S
O440 C431 1.247 . S
O441 Co428 2.244 . S
O441 C431 1.272 . S
O441 Co433 2.135 . S
Co442 O443 2.216 . S
Co442 O444 2.091 . S
Co442 O446 2.004 . S
Co442 O452 2.021 . S
Co442 O454 2.137 . S
Co442 O455 2.244 . S
O443 Co442 2.216 . S
O443 C450 1.247 . S
O444 Co442 2.091 . S
O444 C450 1.261 . S
C445 O454 1.247 . S
C445 O455 1.272 . S
O446 Co442 2.004 . S
O446 C451 1.259 . S
Co447 O448 2.061 . S
Co447 O453 2.052 . S
Co447 O455 2.135 . S
O448 Co447 2.061 . S
O448 C451 1.235 . S
C449 O452 1.238 . S
C449 O453 1.241 . S
C450 O443 1.247 . S
C450 O444 1.261 . S
C451 O446 1.259 . S
C451 O448 1.235 . S
O452 Co442 2.021 . S
O452 C449 1.238 . S
O453 Co447 2.052 . S
O453 C449 1.241 . S
O454 Co442 2.137 . S
O454 C445 1.247 . S
O455 Co442 2.244 . S
O455 C445 1.272 . S
O455 Co447 2.135 . S
Co456 O457 2.216 . S
Co456 O458 2.091 . S
Co456 O460 2.004 . S
Co456 O466 2.021 . S
Co456 O468 2.137 . S
Co456 O469 2.244 . S
O457 Co456 2.216 . S
O457 C464 1.247 . S
O458 Co456 2.091 . S
O458 C464 1.261 . S
C459 O468 1.247 . S
C459 O469 1.272 . S
O460 Co456 2.004 . S
O460 C465 1.259 . S
Co461 O462 2.061 . S
Co461 O467 2.052 . S
Co461 O469 2.135 . S
O462 Co461 2.061 . S
O462 C465 1.235 . S
C463 O466 1.238 . S
C463 O467 1.241 . S
C464 O457 1.247 . S
C464 O458 1.261 . S
C465 O460 1.259 . S
C465 O462 1.235 . S
O466 Co456 2.021 . S
O466 C463 1.238 . S
O467 Co461 2.052 . S
O467 C463 1.241 . S
O468 Co456 2.137 . S
O468 C459 1.247 . S
O469 Co456 2.244 . S
O469 C459 1.272 . S
O469 Co461 2.135 . S
Co470 O471 2.216 . S
Co470 O472 2.091 . S
Co470 O474 2.004 . S
Co470 O480 2.021 . S
Co470 O482 2.137 . S
Co470 O483 2.244 . S
O471 Co470 2.216 . S
O471 C478 1.247 . S
O472 Co470 2.091 . S
O472 C478 1.261 . S
C473 O482 1.247 . S
C473 O483 1.272 . S
O474 Co470 2.004 . S
O474 C479 1.259 . S
Co475 O476 2.061 . S
Co475 O481 2.052 . S
Co475 O483 2.135 . S
O476 Co475 2.061 . S
O476 C479 1.235 . S
C477 O480 1.238 . S
C477 O481 1.241 . S
C478 O471 1.247 . S
C478 O472 1.261 . S
C479 O474 1.259 . S
C479 O476 1.235 . S
O480 Co470 2.021 . S
O480 C477 1.238 . S
O481 Co475 2.052 . S
O481 C477 1.241 . S
O482 Co470 2.137 . S
O482 C473 1.247 . S
O483 Co470 2.244 . S
O483 C473 1.272 . S
O483 Co475 2.135 . S
Co484 O485 2.216 . S
Co484 O486 2.091 . S
Co484 O488 2.004 . S
Co484 O494 2.021 . S
Co484 O496 2.137 . S
Co484 O497 2.244 . S
O485 Co484 2.216 . S
O485 C492 1.247 . S
O486 Co484 2.091 . S
O486 C492 1.261 . S
C487 O496 1.247 . S
C487 O497 1.272 . S
O488 Co484 2.004 . S
O488 C493 1.259 . S
Co489 O490 2.061 . S
Co489 O495 2.052 . S
Co489 O497 2.135 . S
O490 Co489 2.061 . S
O490 C493 1.235 . S
C491 O494 1.238 . S
C491 O495 1.241 . S
C492 O485 1.247 . S
C492 O486 1.261 . S
C493 O488 1.259 . S
C493 O490 1.235 . S
O494 Co484 2.021 . S
O494 C491 1.238 . S
O495 Co489 2.052 . S
O495 C491 1.241 . S
O496 Co484 2.137 . S
O496 C487 1.247 . S
O497 Co484 2.244 . S
O497 C487 1.272 . S
O497 Co489 2.135 . S
Co498 O499 2.216 . S
Co498 O500 2.091 . S
Co498 O502 2.004 . S
Co498 O508 2.021 1_565 S
Co498 O510 2.137 . S
Co498 O511 2.244 . S
O499 Co498 2.216 . S
O499 C506 1.247 . S
O500 Co498 2.091 . S
O500 C506 1.261 . S
C501 O510 1.247 . S
C501 O511 1.272 . S
O502 Co498 2.004 . S
O502 C507 1.259 1_565 S
Co503 O504 2.061 . S
Co503 O509 2.052 . S
Co503 O511 2.135 1_545 S
O504 Co503 2.061 . S
O504 C507 1.235 . S
C505 O508 1.238 . S
C505 O509 1.241 . S
C506 O499 1.247 . S
C506 O500 1.261 . S
C507 O502 1.259 1_545 S
C507 O504 1.235 . S
O508 Co498 2.021 1_545 S
O508 C505 1.238 . S
O509 Co503 2.052 . S
O509 C505 1.241 . S
O510 Co498 2.137 . S
O510 C501 1.247 . S
O511 Co498 2.244 . S
O511 C501 1.272 . S
O511 Co503 2.135 1_565 S
Co512 O513 2.216 . S
Co512 O514 2.091 . S
Co512 O516 2.004 . S
Co512 O522 2.021 . S
Co512 O524 2.137 . S
Co512 O525 2.244 . S
O513 Co512 2.216 . S
O513 C520 1.247 . S
O514 Co512 2.091 . S
O514 C520 1.261 . S
C515 O524 1.247 . S
C515 O525 1.272 . S
O516 Co512 2.004 . S
O516 C521 1.259 . S
Co517 O518 2.061 . S
Co517 O523 2.052 . S
Co517 O525 2.135 . S
O518 Co517 2.061 . S
O518 C521 1.235 . S
C519 O522 1.238 . S
C519 O523 1.241 . S
C520 O513 1.247 . S
C520 O514 1.261 . S
C521 O516 1.259 . S
C521 O518 1.235 . S
O522 Co512 2.021 . S
O522 C519 1.238 . S
O523 Co517 2.052 . S
O523 C519 1.241 . S
O524 Co512 2.137 . S
O524 C515 1.247 . S
O525 Co512 2.244 . S
O525 C515 1.272 . S
O525 Co517 2.135 . S
Co526 O527 2.216 . S
Co526 O528 2.091 . S
Co526 O530 2.004 . S
Co526 O536 2.021 . S
Co526 O538 2.137 . S
Co526 O539 2.244 . S
O527 Co526 2.216 . S
O527 C534 1.247 . S
O528 Co526 2.091 . S
O528 C534 1.261 . S
C529 O538 1.247 . S
C529 O539 1.272 . S
O530 Co526 2.004 . S
O530 C535 1.259 . S
Co531 O532 2.061 . S
Co531 O537 2.052 . S
Co531 O539 2.135 . S
O532 Co531 2.061 . S
O532 C535 1.235 . S
C533 O536 1.238 . S
C533 O537 1.241 . S
C534 O527 1.247 . S
C534 O528 1.261 . S
C535 O530 1.259 . S
C535 O532 1.235 . S
O536 Co526 2.021 . S
O536 C533 1.238 . S
O537 Co531 2.052 . S
O537 C533 1.241 . S
O538 Co526 2.137 . S
O538 C529 1.247 . S
O539 Co526 2.244 . S
O539 C529 1.272 . S
O539 Co531 2.135 . S
Co540 O541 2.216 . S
Co540 O542 2.091 . S
Co540 O544 2.004 . S
Co540 O550 2.021 . S
Co540 O552 2.137 . S
Co540 O553 2.244 . S
O541 Co540 2.216 . S
O541 C548 1.247 . S
O542 Co540 2.091 . S
O542 C548 1.261 . S
C543 O552 1.247 . S
C543 O553 1.272 . S
O544 Co540 2.004 . S
O544 C549 1.259 . S
Co545 O546 2.061 . S
Co545 O551 2.052 . S
Co545 O553 2.135 . S
O546 Co545 2.061 . S
O546 C549 1.235 . S
C547 O550 1.238 . S
C547 O551 1.241 . S
C548 O541 1.247 . S
C548 O542 1.261 . S
C549 O544 1.259 . S
C549 O546 1.235 . S
O550 Co540 2.021 . S
O550 C547 1.238 . S
O551 Co545 2.052 . S
O551 C547 1.241 . S
O552 Co540 2.137 . S
O552 C543 1.247 . S
O553 Co540 2.244 . S
O553 C543 1.272 . S
O553 Co545 2.135 . S
Co554 O555 2.216 . S
Co554 O556 2.091 . S
Co554 O558 2.004 . S
Co554 O564 2.021 . S
Co554 O566 2.137 1_565 S
Co554 O567 2.244 1_565 S
O555 Co554 2.216 . S
O555 C562 1.247 . S
O556 Co554 2.091 . S
O556 C562 1.261 . S
C557 O566 1.247 . S
C557 O567 1.272 . S
O558 Co554 2.004 . S
O558 C563 1.252 1_565 S
Co559 O560 2.061 . S
Co559 O565 2.052 1_545 S
Co559 O567 2.135 . S
O560 Co559 2.061 . S
O560 C563 1.292 . S
C561 O564 1.238 . S
C561 O565 1.241 . S
C562 O555 1.247 . S
C562 O556 1.261 . S
C563 O558 1.252 1_545 S
C563 O560 1.292 . S
O564 Co554 2.021 . S
O564 C561 1.238 . S
O565 Co559 2.052 1_565 S
O565 C561 1.241 . S
O566 Co554 2.137 1_545 S
O566 C557 1.247 . S
O567 Co554 2.244 1_545 S
O567 C557 1.272 . S
O567 Co559 2.135 . S
Co568 O569 2.216 . S
Co568 O570 2.091 . S
Co568 O572 2.004 . S
Co568 O578 2.021 . S
Co568 O580 2.137 . S
Co568 O581 2.244 . S
O569 Co568 2.216 . S
O569 C576 1.247 . S
O570 Co568 2.091 . S
O570 C576 1.261 . S
C571 O580 1.247 . S
C571 O581 1.272 . S
O572 Co568 2.004 . S
O572 C577 1.259 . S
Co573 O574 2.061 . S
Co573 O579 2.052 . S
Co573 O581 2.135 . S
O574 Co573 2.061 . S
O574 C577 1.235 . S
C575 O578 1.238 . S
C575 O579 1.241 . S
C576 O569 1.247 . S
C576 O570 1.261 . S
C577 O572 1.259 . S
C577 O574 1.235 . S
O578 Co568 2.021 . S
O578 C575 1.238 . S
O579 Co573 2.052 . S
O579 C575 1.241 . S
O580 Co568 2.137 . S
O580 C571 1.247 . S
O581 Co568 2.244 . S
O581 C571 1.272 . S
O581 Co573 2.135 . S
Co582 O583 2.216 . S
Co582 O584 2.091 . S
Co582 O586 2.004 . S
Co582 O592 2.021 . S
Co582 O594 2.137 . S
Co582 O595 2.244 . S
O583 Co582 2.216 . S
O583 C590 1.247 . S
O584 Co582 2.091 . S
O584 C590 1.261 . S
C585 O594 1.247 . S
C585 O595 1.272 . S
O586 Co582 2.004 . S
O586 C591 1.259 . S
Co587 O588 2.061 . S
Co587 O593 2.052 . S
Co587 O595 2.135 . S
O588 Co587 2.061 . S
O588 C591 1.235 . S
C589 O592 1.238 . S
C589 O593 1.241 . S
C590 O583 1.247 . S
C590 O584 1.261 . S
C591 O586 1.259 . S
C591 O588 1.235 . S
O592 Co582 2.021 . S
O592 C589 1.238 . S
O593 Co587 2.052 . S
O593 C589 1.241 . S
O594 Co582 2.137 . S
O594 C585 1.247 . S
O595 Co582 2.244 . S
O595 C585 1.272 . S
O595 Co587 2.135 . S
Co596 O597 2.216 . S
Co596 O598 2.091 . S
Co596 O600 2.004 . S
Co596 O606 2.021 . S
Co596 O608 2.137 . S
Co596 O609 2.244 . S
O597 Co596 2.216 . S
O597 C604 1.247 . S
O598 Co596 2.091 . S
O598 C604 1.261 . S
C599 O608 1.247 . S
C599 O609 1.272 . S
O600 Co596 2.004 . S
O600 C605 1.259 . S
Co601 O602 2.061 . S
Co601 O607 2.052 . S
Co601 O609 2.135 . S
O602 Co601 2.061 . S
O602 C605 1.235 . S
C603 O606 1.238 . S
C603 O607 1.241 . S
C604 O597 1.247 . S
C604 O598 1.261 . S
C605 O600 1.259 . S
C605 O602 1.235 . S
O606 Co596 2.021 . S
O606 C603 1.238 . S
O607 Co601 2.052 . S
O607 C603 1.241 . S
O608 Co596 2.137 . S
O608 C599 1.247 . S
O609 Co596 2.244 . S
O609 C599 1.272 . S
O609 Co601 2.135 . S
Co610 O611 2.216 . S
Co610 O612 2.091 . S
Co610 O614 2.004 . S
Co610 O620 2.021 . S
Co610 O622 2.137 . S
Co610 O623 2.244 . S
O611 Co610 2.216 . S
O611 C618 1.247 . S
O612 Co610 2.091 . S
O612 C618 1.261 . S
C613 O622 1.247 . S
C613 O623 1.272 . S
O614 Co610 2.004 . S
O614 C619 1.259 1_655 S
Co615 O616 2.061 1_655 S
Co615 O621 2.052 . S
Co615 O623 2.135 . S
O616 Co615 2.061 1_455 S
O616 C619 1.235 . S
C617 O620 1.238 . S
C617 O621 1.241 . S
C618 O611 1.247 . S
C618 O612 1.261 . S
C619 O614 1.259 1_455 S
C619 O616 1.235 . S
O620 Co610 2.021 . S
O620 C617 1.238 . S
O621 Co615 2.052 . S
O621 C617 1.241 . S
O622 Co610 2.137 . S
O622 C613 1.247 . S
O623 Co610 2.244 . S
O623 C613 1.272 . S
O623 Co615 2.135 . S
Co624 O625 2.216 . S
Co624 O626 2.091 . S
Co624 O628 2.004 . S
Co624 O634 2.021 . S
Co624 O636 2.137 . S
Co624 O637 2.244 . S
O625 Co624 2.216 . S
O625 C632 1.247 . S
O626 Co624 2.091 . S
O626 C632 1.261 . S
C627 O636 1.247 . S
C627 O637 1.272 . S
O628 Co624 2.004 . S
O628 C633 1.259 . S
Co629 O630 2.061 . S
Co629 O635 2.052 . S
Co629 O637 2.135 . S
O630 Co629 2.061 . S
O630 C633 1.235 . S
C631 O634 1.238 . S
C631 O635 1.241 . S
C632 O625 1.247 . S
C632 O626 1.261 . S
C633 O628 1.259 . S
C633 O630 1.235 . S
O634 Co624 2.021 . S
O634 C631 1.238 . S
O635 Co629 2.052 . S
O635 C631 1.241 . S
O636 Co624 2.137 . S
O636 C627 1.247 . S
O637 Co624 2.244 . S
O637 C627 1.272 . S
O637 Co629 2.135 . S
Co638 O639 2.216 . S
Co638 O640 2.091 . S
Co638 O642 2.004 . S
Co638 O648 2.021 . S
Co638 O650 2.137 . S
Co638 O651 2.244 . S
O639 Co638 2.216 . S
O639 C646 1.247 . S
O640 Co638 2.091 . S
O640 C646 1.261 . S
C641 O650 1.247 . S
C641 O651 1.272 . S
O642 Co638 2.004 . S
O642 C647 1.259 1_655 S
Co643 O644 2.061 1_655 S
Co643 O649 2.052 . S
Co643 O651 2.135 . S
O644 Co643 2.061 1_455 S
O644 C647 1.235 . S
C645 O648 1.238 . S
C645 O649 1.241 . S
C646 O639 1.247 . S
C646 O640 1.261 . S
C647 O642 1.259 1_455 S
C647 O644 1.235 . S
O648 Co638 2.021 . S
O648 C645 1.238 . S
O649 Co643 2.052 . S
O649 C645 1.241 . S
O650 Co638 2.137 . S
O650 C641 1.247 . S
O651 Co638 2.244 . S
O651 C641 1.272 . S
O651 Co643 2.135 . S
Co652 O653 2.216 . S
Co652 O654 2.091 . S
Co652 O656 2.004 . S
Co652 O662 2.021 . S
Co652 O664 2.137 . S
Co652 O665 2.244 . S
O653 Co652 2.216 . S
O653 C660 1.247 . S
O654 Co652 2.091 . S
O654 C660 1.261 . S
C655 O664 1.247 . S
C655 O665 1.272 . S
O656 Co652 2.004 . S
O656 C661 1.259 . S
Co657 O658 2.061 . S
Co657 O663 2.052 . S
Co657 O665 2.135 . S
O658 Co657 2.061 . S
O658 C661 1.235 . S
C659 O662 1.238 . S
C659 O663 1.241 . S
C660 O653 1.247 . S
C660 O654 1.261 . S
C661 O656 1.259 . S
C661 O658 1.235 . S
O662 Co652 2.021 . S
O662 C659 1.238 . S
O663 Co657 2.052 . S
O663 C659 1.241 . S
O664 Co652 2.137 . S
O664 C655 1.247 . S
O665 Co652 2.244 . S
O665 C655 1.272 . S
O665 Co657 2.135 . S
H666 C674 0.929 . S
H667 C676 0.930 . S
H668 C678 0.930 . S
H669 C681 0.929 . S
H670 C684 0.930 . S
H671 C686 0.960 . S
H672 C686 0.960 . S
H673 C686 0.960 . S
C674 H666 0.929 . S
C674 C675 1.377 . S
C674 C676 1.384 . S
C675 C674 1.377 . S
C675 C681 1.390 . S
C676 H667 0.930 . S
C676 C674 1.384 . S
C676 C677 1.372 . S
C677 C676 1.372 . S
C677 C678 1.400 . S
C677 C682 1.490 . S
C678 H668 0.930 . S
C678 C677 1.400 . S
C678 C681 1.386 . S
H679 C695 0.930 . S
H680 C696 0.931 . S
C681 H669 0.929 . S
C681 C675 1.390 . S
C681 C678 1.386 . S
C682 C677 1.490 . S
C682 C684 1.395 . S
C682 C685 1.403 . S
H683 C689 0.930 . S
C684 H670 0.930 . S
C684 C682 1.395 . S
C684 C687 1.403 . S
C685 C682 1.403 . S
C685 C686 1.524 . S
C685 C689 1.400 . S
C686 H671 0.960 . S
C686 H672 0.960 . S
C686 H673 0.960 . S
C686 C685 1.524 . S
C687 C684 1.403 . S
C687 C688 1.392 . S
C687 C691 1.495 . S
C688 C687 1.392 . S
C688 C689 1.385 . S
C688 C690 1.478 . S
C689 H683 0.930 . S
C689 C685 1.400 . S
C689 C688 1.385 . S
C690 C688 1.478 . S
C690 C692 1.381 . S
C690 C696 1.383 . S
C691 C687 1.495 . S
C691 H697 0.959 . S
C691 H698 0.961 . S
C691 H699 0.960 . S
C692 C690 1.381 . S
C692 C693 1.394 . S
C692 H700 0.930 . S
C693 C692 1.394 . S
C693 C694 1.383 . S
C693 H701 0.929 . S
C694 C693 1.383 . S
C694 C695 1.377 . S
C695 H679 0.930 . S
C695 C694 1.377 . S
C695 C696 1.379 . S
C696 H680 0.931 . S
C696 C690 1.383 . S
C696 C695 1.379 . S
H697 C691 0.959 . S
H698 C691 0.961 . S
H699 C691 0.960 . S
H700 C692 0.930 . S
H701 C693 0.929 . S
H702 C710 0.929 . S
H703 C712 0.930 . S
H704 C714 0.930 . S
H705 C717 0.929 . S
H706 C720 0.930 . S
H707 C722 0.960 . S
H708 C722 0.960 . S
H709 C722 0.960 . S
C710 H702 0.929 . S
C710 C711 1.377 . S
C710 C712 1.384 . S
C711 C710 1.377 . S
C711 C717 1.390 . S
C712 H703 0.930 . S
C712 C710 1.384 . S
C712 C713 1.372 . S
C713 C712 1.372 . S
C713 C714 1.400 . S
C713 C718 1.490 . S
C714 H704 0.930 . S
C714 C713 1.400 . S
C714 C717 1.386 . S
H715 C731 0.930 . S
H716 C732 0.931 . S
C717 H705 0.929 . S
C717 C711 1.390 . S
C717 C714 1.386 . S
C718 C713 1.490 . S
C718 C720 1.395 . S
C718 C721 1.403 . S
H719 C725 0.930 . S
C720 H706 0.930 . S
C720 C718 1.395 . S
C720 C723 1.403 . S
C721 C718 1.403 . S
C721 C722 1.524 . S
C721 C725 1.400 . S
C722 H707 0.960 . S
C722 H708 0.960 . S
C722 H709 0.960 . S
C722 C721 1.524 . S
C723 C720 1.403 . S
C723 C724 1.392 . S
C723 C727 1.495 . S
C724 C723 1.392 . S
C724 C725 1.385 . S
C724 C726 1.478 . S
C725 H719 0.930 . S
C725 C721 1.400 . S
C725 C724 1.385 . S
C726 C724 1.478 . S
C726 C728 1.381 . S
C726 C732 1.383 . S
C727 C723 1.495 . S
C727 H733 0.959 . S
C727 H734 0.961 . S
C727 H735 0.960 . S
C728 C726 1.381 . S
C728 C729 1.394 . S
C728 H736 0.930 . S
C729 C728 1.394 . S
C729 C730 1.383 . S
C729 H737 0.929 . S
C730 C729 1.383 . S
C730 C731 1.377 . S
C731 H715 0.930 . S
C731 C730 1.377 . S
C731 C732 1.379 . S
C732 H716 0.931 . S
C732 C726 1.383 . S
C732 C731 1.379 . S
H733 C727 0.959 . S
H734 C727 0.961 . S
H735 C727 0.960 . S
H736 C728 0.930 . S
H737 C729 0.929 . S
H738 C746 0.929 . S
H739 C748 0.930 . S
H740 C750 0.930 . S
H741 C753 0.929 . S
H742 C756 0.930 . S
H743 C758 0.960 . S
H744 C758 0.917 1_565 S
H745 C758 0.960 . S
C746 H738 0.929 . S
C746 C747 1.377 1_565 S
C746 C748 1.384 . S
C747 C746 1.377 1_545 S
C747 C753 1.390 . S
C748 H739 0.930 . S
C748 C746 1.384 . S
C748 C749 1.372 1_565 S
C749 C748 1.372 1_545 S
C749 C750 1.400 . S
C749 C754 1.490 . S
C750 H740 0.930 . S
C750 C749 1.400 . S
C750 C753 1.386 . S
H751 C767 0.930 . S
H752 C768 0.931 . S
C753 H741 0.929 . S
C753 C747 1.390 . S
C753 C750 1.386 . S
C754 C749 1.490 . S
C754 C756 1.395 . S
C754 C757 1.403 . S
H755 C761 0.930 . S
C756 H742 0.930 . S
C756 C754 1.395 . S
C756 C759 1.403 . S
C757 C754 1.403 . S
C757 C758 1.524 . S
C757 C761 1.400 . S
C758 H743 0.960 . S
C758 H744 0.917 1_545 S
C758 H745 0.960 . S
C758 C757 1.524 . S
C759 C756 1.403 . S
C759 C760 1.392 . S
C759 C763 1.495 1_545 S
C760 C759 1.392 . S
C760 C761 1.385 . S
C760 C762 1.478 . S
C761 H755 0.930 . S
C761 C757 1.400 . S
C761 C760 1.385 . S
C762 C760 1.478 . S
C762 C764 1.381 1_545 S
C762 C768 1.383 . S
C763 C759 1.495 1_565 S
C763 H769 0.959 . S
C763 H770 0.961 1_565 S
C763 H771 0.960 . S
C764 C762 1.381 1_565 S
C764 C765 1.394 . S
C764 H772 0.930 . S
C765 C764 1.394 . S
C765 C766 1.357 1_565 S
C765 H773 0.929 . S
C766 C765 1.357 1_545 S
C766 C767 1.391 . S
C767 H751 0.930 . S
C767 C766 1.391 . S
C767 C768 1.379 . S
C768 H752 0.931 . S
C768 C762 1.383 . S
C768 C767 1.379 . S
H769 C763 0.959 . S
H770 C763 0.961 1_545 S
H771 C763 0.960 . S
H772 C764 0.930 . S
H773 C765 0.929 . S
H774 C782 0.929 . S
H775 C784 0.930 . S
H776 C786 0.930 . S
H777 C789 0.929 . S
H778 C792 0.930 . S
H779 C794 0.960 . S
H780 C794 0.960 . S
H781 C794 0.960 . S
C782 H774 0.929 . S
C782 C783 1.377 . S
C782 C784 1.384 . S
C783 C782 1.377 . S
C783 C789 1.390 . S
C784 H775 0.930 . S
C784 C782 1.384 . S
C784 C785 1.372 . S
C785 C784 1.372 . S
C785 C786 1.400 . S
C785 C790 1.490 . S
C786 H776 0.930 . S
C786 C785 1.400 . S
C786 C789 1.386 . S
H787 C803 0.930 . S
H788 C804 0.931 . S
C789 H777 0.929 . S
C789 C783 1.390 . S
C789 C786 1.386 . S
C790 C785 1.490 . S
C790 C792 1.395 . S
C790 C793 1.403 . S
H791 C797 0.930 . S
C792 H778 0.930 . S
C792 C790 1.395 . S
C792 C795 1.403 . S
C793 C790 1.403 . S
C793 C794 1.524 . S
C793 C797 1.400 . S
C794 H779 0.960 . S
C794 H780 0.960 . S
C794 H781 0.960 . S
C794 C793 1.524 . S
C795 C792 1.403 . S
C795 C796 1.392 . S
C795 C799 1.495 . S
C796 C795 1.392 . S
C796 C797 1.385 . S
C796 C798 1.478 . S
C797 H791 0.930 . S
C797 C793 1.400 . S
C797 C796 1.385 . S
C798 C796 1.478 . S
C798 C800 1.381 . S
C798 C804 1.383 . S
C799 C795 1.495 . S
C799 H805 0.959 . S
C799 H806 0.961 . S
C799 H807 0.960 . S
C800 C798 1.381 . S
C800 C801 1.394 . S
C800 H808 0.930 . S
C801 C800 1.394 . S
C801 C802 1.383 . S
C801 H809 0.929 . S
C802 C801 1.383 . S
C802 C803 1.377 . S
C803 H787 0.930 . S
C803 C802 1.377 . S
C803 C804 1.379 . S
C804 H788 0.931 . S
C804 C798 1.383 . S
C804 C803 1.379 . S
H805 C799 0.959 . S
H806 C799 0.961 . S
H807 C799 0.960 . S
H808 C800 0.930 . S
H809 C801 0.929 . S
H810 C818 0.929 . S
H811 C820 0.930 . S
H812 C822 0.930 . S
H813 C825 0.929 . S
H814 C828 0.930 . S
H815 C830 0.960 . S
H816 C830 0.960 . S
H817 C830 0.960 . S
C818 H810 0.929 . S
C818 C819 1.377 . S
C818 C820 1.384 . S
C819 C818 1.377 . S
C819 C825 1.390 . S
C820 H811 0.930 . S
C820 C818 1.384 . S
C820 C821 1.372 . S
C821 C820 1.372 . S
C821 C822 1.400 . S
C821 C826 1.490 . S
C822 H812 0.930 . S
C822 C821 1.400 . S
C822 C825 1.386 . S
H823 C839 0.930 . S
H824 C840 0.931 . S
C825 H813 0.929 . S
C825 C819 1.390 . S
C825 C822 1.386 . S
C826 C821 1.490 . S
C826 C828 1.395 . S
C826 C829 1.403 . S
H827 C833 0.930 . S
C828 H814 0.930 . S
C828 C826 1.395 . S
C828 C831 1.403 . S
C829 C826 1.403 . S
C829 C830 1.524 . S
C829 C833 1.400 . S
C830 H815 0.960 . S
C830 H816 0.960 . S
C830 H817 0.960 . S
C830 C829 1.524 . S
C831 C828 1.403 . S
C831 C832 1.392 . S
C831 C835 1.495 . S
C832 C831 1.392 . S
C832 C833 1.385 . S
C832 C834 1.478 . S
C833 H827 0.930 . S
C833 C829 1.400 . S
C833 C832 1.385 . S
C834 C832 1.478 . S
C834 C836 1.407 . S
C834 C840 1.383 . S
C835 C831 1.495 . S
C835 H841 0.959 . S
C835 H842 0.961 . S
C835 H843 0.960 . S
C836 C834 1.407 . S
C836 C837 1.398 1_455 S
C836 H844 0.903 1_455 S
C837 C836 1.398 1_655 S
C837 C838 1.383 . S
C837 H845 0.929 . S
C838 C837 1.383 . S
C838 C839 1.377 1_655 S
C839 H823 0.930 . S
C839 C838 1.377 1_455 S
C839 C840 1.379 . S
C840 H824 0.931 . S
C840 C834 1.383 . S
C840 C839 1.379 . S
H841 C835 0.959 . S
H842 C835 0.961 . S
H843 C835 0.960 . S
H844 C836 0.903 1_655 S
H845 C837 0.929 . S
H846 C854 0.929 . S
H847 C856 0.930 . S
H848 C858 0.930 . S
H849 C861 0.929 . S
H850 C864 0.930 . S
H851 C866 0.960 . S
H852 C866 0.960 . S
H853 C866 0.960 . S
C854 H846 0.929 . S
C854 C855 1.377 . S
C854 C856 1.384 . S
C855 C854 1.377 . S
C855 C861 1.390 . S
C856 H847 0.930 . S
C856 C854 1.384 . S
C856 C857 1.372 . S
C857 C856 1.372 . S
C857 C858 1.400 . S
C857 C862 1.490 . S
C858 H848 0.930 . S
C858 C857 1.400 . S
C858 C861 1.386 . S
H859 C875 0.930 . S
H860 C876 0.931 . S
C861 H849 0.929 . S
C861 C855 1.390 . S
C861 C858 1.386 . S
C862 C857 1.490 . S
C862 C864 1.395 . S
C862 C865 1.403 . S
H863 C869 0.930 . S
C864 H850 0.930 . S
C864 C862 1.395 . S
C864 C867 1.403 . S
C865 C862 1.403 . S
C865 C866 1.524 . S
C865 C869 1.400 . S
C866 H851 0.960 . S
C866 H852 0.960 . S
C866 H853 0.960 . S
C866 C865 1.524 . S
C867 C864 1.403 . S
C867 C868 1.392 . S
C867 C871 1.495 . S
C868 C867 1.392 . S
C868 C869 1.385 . S
C868 C870 1.478 . S
C869 H863 0.930 . S
C869 C865 1.400 . S
C869 C868 1.385 . S
C870 C868 1.478 . S
C870 C872 1.381 . S
C870 C876 1.383 . S
C871 C867 1.495 . S
C871 H877 0.959 . S
C871 H878 0.961 . S
C871 H879 0.960 . S
C872 C870 1.381 . S
C872 C873 1.394 . S
C872 H880 0.930 . S
C873 C872 1.394 . S
C873 C874 1.383 . S
C873 H881 0.929 . S
C874 C873 1.383 . S
C874 C875 1.377 . S
C875 H859 0.930 . S
C875 C874 1.377 . S
C875 C876 1.379 . S
C876 H860 0.931 . S
C876 C870 1.383 . S
C876 C875 1.379 . S
H877 C871 0.959 . S
H878 C871 0.961 . S
H879 C871 0.960 . S
H880 C872 0.930 . S
H881 C873 0.929 . S
H882 C890 0.909 1_554 S
H883 C892 0.930 1_554 S
H884 C894 0.930 . S
H885 C897 0.929 . S
H886 C900 0.930 . S
H887 C902 0.960 . S
H888 C902 0.960 . S
H889 C902 0.960 . S
C890 H882 0.909 1_556 S
C890 C891 1.392 . S
C890 C892 1.390 . S
C891 C890 1.392 . S
C891 C897 1.390 . S
C892 H883 0.930 1_556 S
C892 C890 1.390 . S
C892 C893 1.372 . S
C893 C892 1.372 . S
C893 C894 1.400 . S
C893 C898 1.490 . S
C894 H884 0.930 . S
C894 C893 1.400 . S
C894 C897 1.386 . S
H895 C911 0.930 . S
H896 C912 0.929 . S
C897 H885 0.929 . S
C897 C891 1.390 . S
C897 C894 1.386 . S
C898 C893 1.490 . S
C898 C900 1.395 . S
C898 C901 1.403 . S
H899 C905 0.996 . S
C900 H886 0.930 . S
C900 C898 1.395 . S
C900 C903 1.403 . S
C901 C898 1.403 . S
C901 C902 1.524 1_455 S
C901 C905 1.355 1_455 S
C902 H887 0.960 . S
C902 H888 0.960 . S
C902 H889 0.960 . S
C902 C901 1.524 1_655 S
C903 C900 1.403 . S
C903 C904 1.392 . S
C903 C907 1.495 . S
C904 C903 1.392 . S
C904 C905 1.370 1_455 S
C904 C906 1.478 . S
C905 H899 0.996 . S
C905 C901 1.355 1_655 S
C905 C904 1.370 1_655 S
C906 C904 1.478 . S
C906 C908 1.381 . S
C906 C912 1.363 1_455 S
C907 C903 1.495 . S
C907 H913 0.959 . S
C907 H914 0.961 . S
C907 H915 0.960 . S
C908 C906 1.381 . S
C908 C909 1.331 1_455 S
C908 H916 0.930 . S
C909 C908 1.331 1_655 S
C909 C910 1.416 . S
C909 H917 0.966 . S
C910 C909 1.416 . S
C910 C911 1.377 . S
C911 H895 0.930 . S
C911 C910 1.377 . S
C911 C912 1.423 . S
C912 H896 0.929 . S
C912 C906 1.363 1_655 S
C912 C911 1.423 . S
H913 C907 0.959 . S
H914 C907 0.961 . S
H915 C907 0.960 . S
H916 C908 0.930 . S
H917 C909 0.966 . S
H918 C926 0.929 . S
H919 C928 0.930 . S
H920 C930 0.932 . S
H921 C933 0.911 1_554 S
H922 C936 0.930 . S
H923 C938 0.960 . S
H924 C938 0.960 . S
H925 C938 0.960 . S
C926 H918 0.929 . S
C926 C927 1.377 . S
C926 C928 1.384 . S
C927 C926 1.377 . S
C927 C933 1.402 . S
C928 H919 0.930 . S
C928 C926 1.384 . S
C928 C929 1.372 . S
C929 C928 1.372 . S
C929 C930 1.400 . S
C929 C934 1.490 . S
C930 H920 0.932 . S
C930 C929 1.400 . S
C930 C933 1.392 . S
H931 C947 0.930 . S
H932 C948 0.931 . S
C933 H921 0.911 1_556 S
C933 C927 1.402 . S
C933 C930 1.392 . S
C934 C929 1.490 . S
C934 C936 1.395 . S
C934 C937 1.403 . S
H935 C941 0.930 . S
C936 H922 0.930 . S
C936 C934 1.395 . S
C936 C939 1.403 . S
C937 C934 1.403 . S
C937 C938 1.524 . S
C937 C941 1.400 . S
C938 H923 0.960 . S
C938 H924 0.960 . S
C938 H925 0.960 . S
C938 C937 1.524 . S
C939 C936 1.403 . S
C939 C940 1.392 . S
C939 C943 1.495 . S
C940 C939 1.392 . S
C940 C941 1.385 . S
C940 C942 1.478 . S
C941 H935 0.930 . S
C941 C937 1.400 . S
C941 C940 1.385 . S
C942 C940 1.478 . S
C942 C944 1.381 . S
C942 C948 1.383 . S
C943 C939 1.495 . S
C943 H949 0.959 . S
C943 H950 0.961 . S
C943 H951 0.960 . S
C944 C942 1.381 . S
C944 C945 1.394 . S
C944 H952 0.930 . S
C945 C944 1.394 . S
C945 C946 1.383 . S
C945 H953 0.929 . S
C946 C945 1.383 . S
C946 C947 1.377 . S
C947 H931 0.930 . S
C947 C946 1.377 . S
C947 C948 1.379 . S
C948 H932 0.931 . S
C948 C942 1.383 . S
C948 C947 1.379 . S
H949 C943 0.959 . S
H950 C943 0.961 . S
H951 C943 0.960 . S
H952 C944 0.930 . S
H953 C945 0.929 . S
H954 C962 0.929 . S
H955 C964 0.930 . S
H956 C966 0.943 . S
H957 C969 0.929 . S
H958 C972 0.930 . S
H959 C974 0.960 . S
H960 C974 0.960 . S
H961 C974 0.960 . S
C962 H954 0.929 . S
C962 C963 1.377 . S
C962 C964 1.384 . S
C963 C962 1.377 . S
C963 C969 1.390 1_556 S
C964 H955 0.930 . S
C964 C962 1.384 . S
C964 C965 1.372 . S
C965 C964 1.372 . S
C965 C966 1.400 . S
C965 C970 1.490 . S
C966 H956 0.943 . S
C966 C965 1.400 . S
C966 C969 1.386 1_556 S
H967 C983 0.930 . S
H968 C984 0.931 . S
C969 H957 0.929 . S
C969 C963 1.390 1_554 S
C969 C966 1.386 1_554 S
C970 C965 1.490 . S
C970 C972 1.395 . S
C970 C973 1.403 . S
H971 C977 0.930 . S
C972 H958 0.930 . S
C972 C970 1.395 . S
C972 C975 1.403 . S
C973 C970 1.403 . S
C973 C974 1.524 1_556 S
C973 C977 1.400 . S
C974 H959 0.960 . S
C974 H960 0.960 . S
C974 H961 0.960 . S
C974 C973 1.524 1_554 S
C975 C972 1.403 . S
C975 C976 1.392 . S
C975 C979 1.495 . S
C976 C975 1.392 . S
C976 C977 1.385 . S
C976 C978 1.478 . S
C977 H971 0.930 . S
C977 C973 1.400 . S
C977 C976 1.385 . S
C978 C976 1.478 . S
C978 C980 1.381 . S
C978 C984 1.383 . S
C979 C975 1.495 . S
C979 H985 0.959 . S
C979 H986 0.961 . S
C979 H987 0.960 . S
C980 C978 1.381 . S
C980 C981 1.394 . S
C980 H988 0.930 . S
C981 C980 1.394 . S
C981 C982 1.383 . S
C981 H989 0.929 . S
C982 C981 1.383 . S
C982 C983 1.377 . S
C983 H967 0.930 . S
C983 C982 1.377 . S
C983 C984 1.379 . S
C984 H968 0.931 . S
C984 C978 1.383 . S
C984 C983 1.379 . S
H985 C979 0.959 . S
H986 C979 0.961 . S
H987 C979 0.960 . S
H988 C980 0.930 . S
H989 C981 0.929 . S
H990 C998 0.929 . S
H991 C1000 0.930 . S
H992 C1002 0.930 . S
H993 C1005 0.929 . S
H994 C1008 0.930 . S
H995 C1010 0.960 . S
H996 C1010 0.960 . S
H997 C1010 0.960 1_545 S
C998 H990 0.929 . S
C998 C999 1.377 1_565 S
C998 C1000 1.384 . S
C999 C998 1.377 1_545 S
C999 C1005 1.390 . S
C1000 H991 0.930 . S
C1000 C998 1.384 . S
C1000 C1001 1.351 1_565 S
C1001 C1000 1.351 1_545 S
C1001 C1002 1.454 . S
C1001 C1006 1.492 . S
C1002 H992 0.930 . S
C1002 C1001 1.454 . S
C1002 C1005 1.386 . S
H1003 C1019 0.930 . S
H1004 C1020 0.931 . S
C1005 H993 0.929 . S
C1005 C999 1.390 . S
C1005 C1002 1.386 . S
C1006 C1001 1.492 . S
C1006 C1008 1.383 . S
C1006 C1009 1.384 1_545 S
H1007 C1013 0.930 . S
C1008 H994 0.930 . S
C1008 C1006 1.383 . S
C1008 C1011 1.403 . S
C1009 C1006 1.384 1_565 S
C1009 C1010 1.524 . S
C1009 C1013 1.400 . S
C1010 H995 0.960 . S
C1010 H996 0.960 . S
C1010 H997 0.960 1_565 S
C1010 C1009 1.524 . S
C1011 C1008 1.403 . S
C1011 C1012 1.392 . S
C1011 C1015 1.495 . S
C1012 C1011 1.392 . S
C1012 C1013 1.385 1_545 S
C1012 C1014 1.478 . S
C1013 H1007 0.930 . S
C1013 C1009 1.400 . S
C1013 C1012 1.385 1_565 S
C1014 C1012 1.478 . S
C1014 C1016 1.381 1_545 S
C1014 C1020 1.383 . S
C1015 C1011 1.495 . S
C1015 H1021 0.959 . S
C1015 H1022 0.961 . S
C1015 H1023 0.960 1_545 S
C1016 C1014 1.381 1_565 S
C1016 C1017 1.394 . S
C1016 H1024 0.930 . S
C1017 C1016 1.394 . S
C1017 C1018 1.383 1_565 S
C1017 H1025 0.929 . S
C1018 C1017 1.383 1_545 S
C1018 C1019 1.377 . S
C1019 H1003 0.930 . S
C1019 C1018 1.377 . S
C1019 C1020 1.379 . S
C1020 H1004 0.931 . S
C1020 C1014 1.383 . S
C1020 C1019 1.379 . S
H1021 C1015 0.959 . S
H1022 C1015 0.961 . S
H1023 C1015 0.960 1_565 S
H1024 C1016 0.930 . S
H1025 C1017 0.929 . S
H1026 C1034 0.929 . S
H1027 C1036 0.930 . S
H1028 C1038 0.930 . S
H1029 C1041 0.929 . S
H1030 C1044 0.930 . S
H1031 C1046 0.960 . S
H1032 C1046 0.960 . S
H1033 C1046 0.960 . S
C1034 H1026 0.929 . S
C1034 C1035 1.377 . S
C1034 C1036 1.384 . S
C1035 C1034 1.377 . S
C1035 C1041 1.390 . S
C1036 H1027 0.930 . S
C1036 C1034 1.384 . S
C1036 C1037 1.372 . S
C1037 C1036 1.372 . S
C1037 C1038 1.400 . S
C1037 C1042 1.490 . S
C1038 H1028 0.930 . S
C1038 C1037 1.400 . S
C1038 C1041 1.386 . S
H1039 C1055 0.930 . S
H1040 C1056 0.931 . S
C1041 H1029 0.929 . S
C1041 C1035 1.390 . S
C1041 C1038 1.386 . S
C1042 C1037 1.490 . S
C1042 C1044 1.395 . S
C1042 C1045 1.403 . S
H1043 C1049 0.930 . S
C1044 H1030 0.930 . S
C1044 C1042 1.395 . S
C1044 C1047 1.403 . S
C1045 C1042 1.403 . S
C1045 C1046 1.524 . S
C1045 C1049 1.400 . S
C1046 H1031 0.960 . S
C1046 H1032 0.960 . S
C1046 H1033 0.960 . S
C1046 C1045 1.524 . S
C1047 C1044 1.403 . S
C1047 C1048 1.392 . S
C1047 C1051 1.495 . S
C1048 C1047 1.392 . S
C1048 C1049 1.385 . S
C1048 C1050 1.478 . S
C1049 H1043 0.930 . S
C1049 C1045 1.400 . S
C1049 C1048 1.385 . S
C1050 C1048 1.478 . S
C1050 C1052 1.381 . S
C1050 C1056 1.383 . S
C1051 C1047 1.495 . S
C1051 H1057 0.959 . S
C1051 H1058 0.961 . S
C1051 H1059 0.960 . S
C1052 C1050 1.381 . S
C1052 C1053 1.394 . S
C1052 H1060 0.930 . S
C1053 C1052 1.394 . S
C1053 C1054 1.383 . S
C1053 H1061 0.929 . S
C1054 C1053 1.383 . S
C1054 C1055 1.377 . S
C1055 H1039 0.930 . S
C1055 C1054 1.377 . S
C1055 C1056 1.379 . S
C1056 H1040 0.931 . S
C1056 C1050 1.383 . S
C1056 C1055 1.379 . S
H1057 C1051 0.959 . S
H1058 C1051 0.961 . S
H1059 C1051 0.960 . S
H1060 C1052 0.930 . S
H1061 C1053 0.929 . S
H1062 C1070 0.929 . S
H1063 C1072 0.930 . S
H1064 C1074 0.930 . S
H1065 C1077 0.929 . S
H1066 C1080 0.930 . S
H1067 C1082 0.960 . S
H1068 C1082 0.960 . S
H1069 C1082 0.960 . S
C1070 H1062 0.929 . S
C1070 C1071 1.377 . S
C1070 C1072 1.384 . S
C1071 C1070 1.377 . S
C1071 C1077 1.390 . S
C1072 H1063 0.930 . S
C1072 C1070 1.384 . S
C1072 C1073 1.372 . S
C1073 C1072 1.372 . S
C1073 C1074 1.400 . S
C1073 C1078 1.490 . S
C1074 H1064 0.930 . S
C1074 C1073 1.400 . S
C1074 C1077 1.386 . S
H1075 C1091 0.930 . S
H1076 C1092 0.931 . S
C1077 H1065 0.929 . S
C1077 C1071 1.390 . S
C1077 C1074 1.386 . S
C1078 C1073 1.490 . S
C1078 C1080 1.395 . S
C1078 C1081 1.403 . S
H1079 C1085 0.930 . S
C1080 H1066 0.930 . S
C1080 C1078 1.395 . S
C1080 C1083 1.403 . S
C1081 C1078 1.403 . S
C1081 C1082 1.524 . S
C1081 C1085 1.400 . S
C1082 H1067 0.960 . S
C1082 H1068 0.960 . S
C1082 H1069 0.960 . S
C1082 C1081 1.524 . S
C1083 C1080 1.403 . S
C1083 C1084 1.392 . S
C1083 C1087 1.495 . S
C1084 C1083 1.392 . S
C1084 C1085 1.385 . S
C1084 C1086 1.478 . S
C1085 H1079 0.930 . S
C1085 C1081 1.400 . S
C1085 C1084 1.385 . S
C1086 C1084 1.478 . S
C1086 C1088 1.381 . S
C1086 C1092 1.383 . S
C1087 C1083 1.495 . S
C1087 H1093 0.959 . S
C1087 H1094 0.961 . S
C1087 H1095 0.960 . S
C1088 C1086 1.381 . S
C1088 C1089 1.394 . S
C1088 H1096 0.930 . S
C1089 C1088 1.394 . S
C1089 C1090 1.383 . S
C1089 H1097 0.929 . S
C1090 C1089 1.383 . S
C1090 C1091 1.377 . S
C1091 H1075 0.930 . S
C1091 C1090 1.377 . S
C1091 C1092 1.379 . S
C1092 H1076 0.931 . S
C1092 C1086 1.383 . S
C1092 C1091 1.379 . S
H1093 C1087 0.959 . S
H1094 C1087 0.961 . S
H1095 C1087 0.960 . S
H1096 C1088 0.930 . S
H1097 C1089 0.929 . S
H1098 C1106 0.929 . S
H1099 C1108 0.930 . S
H1100 C1110 0.930 . S
H1101 C1113 0.929 . S
H1102 C1116 0.930 . S
H1103 C1118 0.960 . S
H1104 C1118 0.960 . S
H1105 C1118 0.960 . S
C1106 H1098 0.929 . S
C1106 C1107 1.377 . S
C1106 C1108 1.384 . S
C1107 C1106 1.377 . S
C1107 C1113 1.390 . S
C1108 H1099 0.930 . S
C1108 C1106 1.384 . S
C1108 C1109 1.372 . S
C1109 C1108 1.372 . S
C1109 C1110 1.400 . S
C1109 C1114 1.490 . S
C1110 H1100 0.930 . S
C1110 C1109 1.400 . S
C1110 C1113 1.386 . S
H1111 C1127 0.930 . S
H1112 C1128 0.931 . S
C1113 H1101 0.929 . S
C1113 C1107 1.390 . S
C1113 C1110 1.386 . S
C1114 C1109 1.490 . S
C1114 C1116 1.395 . S
C1114 C1117 1.403 . S
H1115 C1121 0.930 . S
C1116 H1102 0.930 . S
C1116 C1114 1.395 . S
C1116 C1119 1.403 . S
C1117 C1114 1.403 . S
C1117 C1118 1.524 . S
C1117 C1121 1.400 . S
C1118 H1103 0.960 . S
C1118 H1104 0.960 . S
C1118 H1105 0.960 . S
C1118 C1117 1.524 . S
C1119 C1116 1.403 . S
C1119 C1120 1.392 . S
C1119 C1123 1.495 . S
C1120 C1119 1.392 . S
C1120 C1121 1.385 . S
C1120 C1122 1.478 . S
C1121 H1115 0.930 . S
C1121 C1117 1.400 . S
C1121 C1120 1.385 . S
C1122 C1120 1.478 . S
C1122 C1124 1.381 . S
C1122 C1128 1.383 . S
C1123 C1119 1.495 . S
C1123 H1129 0.959 . S
C1123 H1130 0.961 . S
C1123 H1131 0.960 . S
C1124 C1122 1.381 . S
C1124 C1125 1.394 . S
C1124 H1132 0.930 . S
C1125 C1124 1.394 . S
C1125 C1126 1.383 . S
C1125 H1133 0.929 . S
C1126 C1125 1.383 . S
C1126 C1127 1.377 . S
C1127 H1111 0.930 . S
C1127 C1126 1.377 . S
C1127 C1128 1.379 . S
C1128 H1112 0.931 . S
C1128 C1122 1.383 . S
C1128 C1127 1.379 . S
H1129 C1123 0.959 . S
H1130 C1123 0.961 . S
H1131 C1123 0.960 . S
H1132 C1124 0.930 . S
H1133 C1125 0.929 . S
H1134 C1142 0.929 . S
H1135 C1144 0.930 . S
H1136 C1146 0.930 . S
H1137 C1149 0.929 . S
H1138 C1152 0.930 . S
H1139 C1154 0.960 . S
H1140 C1154 0.960 1_565 S
H1141 C1154 0.960 . S
C1142 H1134 0.929 . S
C1142 C1143 1.377 . S
C1142 C1144 1.384 . S
C1143 C1142 1.377 . S
C1143 C1149 1.390 . S
C1144 H1135 0.930 . S
C1144 C1142 1.384 . S
C1144 C1145 1.372 . S
C1145 C1144 1.372 . S
C1145 C1146 1.400 . S
C1145 C1150 1.490 . S
C1146 H1136 0.930 . S
C1146 C1145 1.400 . S
C1146 C1149 1.386 . S
H1147 C1163 0.930 . S
H1148 C1164 0.931 . S
C1149 H1137 0.929 . S
C1149 C1143 1.390 . S
C1149 C1146 1.386 . S
C1150 C1145 1.490 . S
C1150 C1152 1.395 . S
C1150 C1153 1.403 1_565 S
H1151 C1157 0.930 . S
C1152 H1138 0.930 . S
C1152 C1150 1.395 . S
C1152 C1155 1.403 1_565 S
C1153 C1150 1.403 1_545 S
C1153 C1154 1.524 . S
C1153 C1157 1.400 . S
C1154 H1139 0.960 . S
C1154 H1140 0.960 1_545 S
C1154 H1141 0.960 . S
C1154 C1153 1.524 . S
C1155 C1152 1.403 1_545 S
C1155 C1156 1.392 . S
C1155 C1159 1.495 . S
C1156 C1155 1.392 . S
C1156 C1157 1.385 . S
C1156 C1158 1.478 . S
C1157 H1151 0.930 . S
C1157 C1153 1.400 . S
C1157 C1156 1.385 . S
C1158 C1156 1.478 . S
C1158 C1160 1.381 . S
C1158 C1164 1.383 . S
C1159 C1155 1.495 . S
C1159 H1165 0.959 . S
C1159 H1166 0.961 . S
C1159 H1167 0.960 . S
C1160 C1158 1.381 . S
C1160 C1161 1.394 . S
C1160 H1168 0.930 . S
C1161 C1160 1.394 . S
C1161 C1162 1.383 . S
C1161 H1169 0.929 . S
C1162 C1161 1.383 . S
C1162 C1163 1.377 . S
C1163 H1147 0.930 . S
C1163 C1162 1.377 . S
C1163 C1164 1.379 . S
C1164 H1148 0.931 . S
C1164 C1158 1.383 . S
C1164 C1163 1.379 . S
H1165 C1159 0.959 . S
H1166 C1159 0.961 . S
H1167 C1159 0.960 . S
H1168 C1160 0.930 . S
H1169 C1161 0.929 . S
H1170 C1178 0.929 . S
H1171 C1180 0.930 . S
H1172 C1182 0.930 . S
H1173 C1185 0.929 . S
H1174 C1188 0.930 . S
H1175 C1190 0.960 . S
H1176 C1190 0.960 . S
H1177 C1190 0.960 . S
C1178 H1170 0.929 . S
C1178 C1179 1.377 . S
C1178 C1180 1.384 . S
C1179 C1178 1.377 . S
C1179 C1185 1.390 . S
C1180 H1171 0.930 . S
C1180 C1178 1.384 . S
C1180 C1181 1.372 . S
C1181 C1180 1.372 . S
C1181 C1182 1.400 . S
C1181 C1186 1.490 . S
C1182 H1172 0.930 . S
C1182 C1181 1.400 . S
C1182 C1185 1.386 . S
H1183 C1199 0.930 . S
H1184 C1200 0.931 . S
C1185 H1173 0.929 . S
C1185 C1179 1.390 . S
C1185 C1182 1.386 . S
C1186 C1181 1.490 . S
C1186 C1188 1.395 . S
C1186 C1189 1.403 . S
H1187 C1193 0.930 . S
C1188 H1174 0.930 . S
C1188 C1186 1.395 . S
C1188 C1191 1.403 . S
C1189 C1186 1.403 . S
C1189 C1190 1.524 . S
C1189 C1193 1.400 . S
C1190 H1175 0.960 . S
C1190 H1176 0.960 . S
C1190 H1177 0.960 . S
C1190 C1189 1.524 . S
C1191 C1188 1.403 . S
C1191 C1192 1.392 . S
C1191 C1195 1.495 . S
C1192 C1191 1.392 . S
C1192 C1193 1.385 . S
C1192 C1194 1.478 . S
C1193 H1187 0.930 . S
C1193 C1189 1.400 . S
C1193 C1192 1.385 . S
C1194 C1192 1.478 . S
C1194 C1196 1.381 . S
C1194 C1200 1.383 . S
C1195 C1191 1.495 . S
C1195 H1201 0.959 . S
C1195 H1202 0.961 . S
C1195 H1203 0.960 . S
C1196 C1194 1.381 . S
C1196 C1197 1.394 . S
C1196 H1204 0.930 . S
C1197 C1196 1.394 . S
C1197 C1198 1.383 . S
C1197 H1205 0.929 . S
C1198 C1197 1.383 . S
C1198 C1199 1.377 . S
C1199 H1183 0.930 . S
C1199 C1198 1.377 . S
C1199 C1200 1.379 . S
C1200 H1184 0.931 . S
C1200 C1194 1.383 . S
C1200 C1199 1.379 . S
H1201 C1195 0.959 . S
H1202 C1195 0.961 . S
H1203 C1195 0.960 . S
H1204 C1196 0.930 . S
H1205 C1197 0.929 . S
H1206 C1214 0.929 . S
H1207 C1216 0.930 . S
H1208 C1218 0.930 . S
H1209 C1221 0.929 . S
H1210 C1224 0.930 . S
H1211 C1226 0.960 . S
H1212 C1226 0.960 . S
H1213 C1226 0.960 . S
C1214 H1206 0.929 . S
C1214 C1215 1.377 . S
C1214 C1216 1.384 . S
C1215 C1214 1.377 . S
C1215 C1221 1.390 . S
C1216 H1207 0.930 . S
C1216 C1214 1.384 . S
C1216 C1217 1.372 . S
C1217 C1216 1.372 . S
C1217 C1218 1.400 . S
C1217 C1222 1.490 . S
C1218 H1208 0.930 . S
C1218 C1217 1.400 . S
C1218 C1221 1.386 . S
H1219 C1235 0.930 . S
H1220 C1236 0.931 . S
C1221 H1209 0.929 . S
C1221 C1215 1.390 . S
C1221 C1218 1.386 . S
C1222 C1217 1.490 . S
C1222 C1224 1.395 . S
C1222 C1225 1.403 . S
H1223 C1229 0.930 . S
C1224 H1210 0.930 . S
C1224 C1222 1.395 . S
C1224 C1227 1.403 . S
C1225 C1222 1.403 . S
C1225 C1226 1.524 . S
C1225 C1229 1.400 . S
C1226 H1211 0.960 . S
C1226 H1212 0.960 . S
C1226 H1213 0.960 . S
C1226 C1225 1.524 . S
C1227 C1224 1.403 . S
C1227 C1228 1.392 . S
C1227 C1231 1.495 . S
C1228 C1227 1.392 . S
C1228 C1229 1.385 . S
C1228 C1230 1.478 . S
C1229 H1223 0.930 . S
C1229 C1225 1.400 . S
C1229 C1228 1.385 . S
C1230 C1228 1.478 . S
C1230 C1232 1.381 . S
C1230 C1236 1.383 . S
C1231 C1227 1.495 . S
C1231 H1237 0.959 . S
C1231 H1238 0.961 . S
C1231 H1239 0.960 . S
C1232 C1230 1.381 . S
C1232 C1233 1.394 . S
C1232 H1240 0.930 . S
C1233 C1232 1.394 . S
C1233 C1234 1.383 . S
C1233 H1241 0.929 . S
C1234 C1233 1.383 . S
C1234 C1235 1.377 . S
C1235 H1219 0.930 . S
C1235 C1234 1.377 . S
C1235 C1236 1.379 . S
C1236 H1220 0.931 . S
C1236 C1230 1.383 . S
C1236 C1235 1.379 . S
H1237 C1231 0.959 . S
H1238 C1231 0.961 . S
H1239 C1231 0.960 . S
H1240 C1232 0.930 . S
H1241 C1233 0.929 . S
H1242 C1250 0.929 . S
H1243 C1252 0.930 . S
H1244 C1254 0.930 . S
H1245 C1257 0.929 . S
H1246 C1260 0.930 . S
H1247 C1262 0.960 . S
H1248 C1262 0.960 . S
H1249 C1262 0.960 . S
C1250 H1242 0.929 . S
C1250 C1251 1.377 . S
C1250 C1252 1.384 . S
C1251 C1250 1.377 . S
C1251 C1257 1.390 . S
C1252 H1243 0.930 . S
C1252 C1250 1.384 . S
C1252 C1253 1.372 . S
C1253 C1252 1.372 . S
C1253 C1254 1.400 . S
C1253 C1258 1.490 . S
C1254 H1244 0.930 . S
C1254 C1253 1.400 . S
C1254 C1257 1.386 . S
H1255 C1271 0.930 . S
H1256 C1272 0.931 . S
C1257 H1245 0.929 . S
C1257 C1251 1.390 . S
C1257 C1254 1.386 . S
C1258 C1253 1.490 . S
C1258 C1260 1.395 . S
C1258 C1261 1.403 . S
H1259 C1265 0.930 . S
C1260 H1246 0.930 . S
C1260 C1258 1.395 . S
C1260 C1263 1.403 . S
C1261 C1258 1.403 . S
C1261 C1262 1.524 . S
C1261 C1265 1.400 . S
C1262 H1247 0.960 . S
C1262 H1248 0.960 . S
C1262 H1249 0.960 . S
C1262 C1261 1.524 . S
C1263 C1260 1.403 . S
C1263 C1264 1.392 . S
C1263 C1267 1.495 . S
C1264 C1263 1.392 . S
C1264 C1265 1.385 . S
C1264 C1266 1.478 . S
C1265 H1259 0.930 . S
C1265 C1261 1.400 . S
C1265 C1264 1.385 . S
C1266 C1264 1.478 . S
C1266 C1268 1.381 . S
C1266 C1272 1.383 . S
C1267 C1263 1.495 . S
C1267 H1273 0.959 . S
C1267 H1274 0.961 . S
C1267 H1275 0.960 . S
C1268 C1266 1.381 . S
C1268 C1269 1.394 . S
C1268 H1276 0.930 . S
C1269 C1268 1.394 . S
C1269 C1270 1.383 . S
C1269 H1277 0.929 . S
C1270 C1269 1.383 . S
C1270 C1271 1.377 . S
C1271 H1255 0.930 . S
C1271 C1270 1.377 . S
C1271 C1272 1.379 . S
C1272 H1256 0.931 . S
C1272 C1266 1.383 . S
C1272 C1271 1.379 . S
H1273 C1267 0.959 . S
H1274 C1267 0.961 . S
H1275 C1267 0.960 . S
H1276 C1268 0.930 . S
H1277 C1269 0.929 . S
H1278 C1286 0.929 . S
H1279 C1288 0.930 . S
H1280 C1290 0.930 . S
H1281 C1293 0.929 . S
H1282 C1296 0.930 . S
H1283 C1298 0.960 . S
H1284 C1298 0.960 . S
H1285 C1298 0.960 . S
C1286 H1278 0.929 . S
C1286 C1287 1.377 . S
C1286 C1288 1.384 . S
C1287 C1286 1.377 . S
C1287 C1293 1.390 . S
C1288 H1279 0.930 . S
C1288 C1286 1.384 . S
C1288 C1289 1.372 . S
C1289 C1288 1.372 . S
C1289 C1290 1.400 . S
C1289 C1294 1.490 . S
C1290 H1280 0.930 . S
C1290 C1289 1.400 . S
C1290 C1293 1.386 . S
H1291 C1307 0.930 . S
H1292 C1308 0.931 . S
C1293 H1281 0.929 . S
C1293 C1287 1.390 . S
C1293 C1290 1.386 . S
C1294 C1289 1.490 . S
C1294 C1296 1.395 . S
C1294 C1297 1.403 . S
H1295 C1301 0.930 . S
C1296 H1282 0.930 . S
C1296 C1294 1.395 . S
C1296 C1299 1.403 . S
C1297 C1294 1.403 . S
C1297 C1298 1.524 . S
C1297 C1301 1.400 . S
C1298 H1283 0.960 . S
C1298 H1284 0.960 . S
C1298 H1285 0.960 . S
C1298 C1297 1.524 . S
C1299 C1296 1.403 . S
C1299 C1300 1.392 . S
C1299 C1303 1.564 . S
C1300 C1299 1.392 . S
C1300 C1301 1.385 . S
C1300 C1302 1.478 . S
C1301 H1295 0.930 . S
C1301 C1297 1.400 . S
C1301 C1300 1.385 . S
C1302 C1300 1.478 . S
C1302 C1304 1.381 . S
C1302 C1308 1.383 . S
C1303 C1299 1.564 . S
C1303 H1309 0.914 1_565 S
C1303 H1310 0.961 1_565 S
C1303 H1311 0.944 1_565 S
C1304 C1302 1.381 . S
C1304 C1305 1.394 1_565 S
C1304 H1312 0.930 . S
C1305 C1304 1.394 1_545 S
C1305 C1306 1.413 . S
C1305 H1313 0.929 . S
C1306 C1305 1.413 . S
C1306 C1307 1.348 1_545 S
C1307 H1291 0.930 . S
C1307 C1306 1.348 1_565 S
C1307 C1308 1.379 . S
C1308 H1292 0.931 . S
C1308 C1302 1.383 . S
C1308 C1307 1.379 . S
H1309 C1303 0.914 1_545 S
H1310 C1303 0.961 1_545 S
H1311 C1303 0.944 1_545 S
H1312 C1304 0.930 . S
H1313 C1305 0.929 . S
H1314 C1322 0.929 . S
H1315 C1324 0.930 . S
H1316 C1326 0.930 . S
H1317 C1329 0.929 . S
H1318 C1332 0.930 . S
H1319 C1334 0.960 . S
H1320 C1334 0.960 . S
H1321 C1334 0.960 . S
C1322 H1314 0.929 . S
C1322 C1323 1.377 . S
C1322 C1324 1.384 . S
C1323 C1322 1.377 . S
C1323 C1329 1.390 . S
C1324 H1315 0.930 . S
C1324 C1322 1.384 . S
C1324 C1325 1.372 . S
C1325 C1324 1.372 . S
C1325 C1326 1.400 . S
C1325 C1330 1.490 . S
C1326 H1316 0.930 . S
C1326 C1325 1.400 . S
C1326 C1329 1.386 . S
H1327 C1343 0.930 . S
H1328 C1344 0.931 1_565 S
C1329 H1317 0.929 . S
C1329 C1323 1.390 . S
C1329 C1326 1.386 . S
C1330 C1325 1.490 . S
C1330 C1332 1.395 . S
C1330 C1333 1.403 . S
H1331 C1337 0.930 1_545 S
C1332 H1318 0.930 . S
C1332 C1330 1.395 . S
C1332 C1335 1.403 . S
C1333 C1330 1.403 . S
C1333 C1334 1.524 . S
C1333 C1337 1.400 . S
C1334 H1319 0.960 . S
C1334 H1320 0.960 . S
C1334 H1321 0.960 . S
C1334 C1333 1.524 . S
C1335 C1332 1.403 . S
C1335 C1336 1.392 . S
C1335 C1339 1.495 . S
C1336 C1335 1.392 . S
C1336 C1337 1.385 . S
C1336 C1338 1.478 1_565 S
C1337 H1331 0.930 1_565 S
C1337 C1333 1.400 . S
C1337 C1336 1.385 . S
C1338 C1336 1.478 1_545 S
C1338 C1340 1.381 . S
C1338 C1344 1.383 . S
C1339 C1335 1.495 . S
C1339 H1345 0.959 . S
C1339 H1346 0.961 . S
C1339 H1347 0.960 . S
C1340 C1338 1.381 . S
C1340 C1341 1.394 . S
C1340 H1348 0.930 . S
C1341 C1340 1.394 . S
C1341 C1342 1.383 . S
C1341 H1349 0.929 . S
C1342 C1341 1.383 . S
C1342 C1343 1.377 . S
C1343 H1327 0.930 . S
C1343 C1342 1.377 . S
C1343 C1344 1.379 . S
C1344 H1328 0.931 1_545 S
C1344 C1338 1.383 . S
C1344 C1343 1.379 . S
H1345 C1339 0.959 . S
H1346 C1339 0.961 . S
H1347 C1339 0.960 . S
H1348 C1340 0.930 . S
H1349 C1341 0.929 . S
H1350 C1358 0.929 . S
H1351 C1360 0.930 . S
H1352 C1362 0.930 . S
H1353 C1365 0.929 . S
H1354 C1368 0.930 . S
H1355 C1370 0.960 . S
H1356 C1370 0.960 . S
H1357 C1370 0.960 . S
C1358 H1350 0.929 . S
C1358 C1359 1.377 . S
C1358 C1360 1.384 . S
C1359 C1358 1.377 . S
C1359 C1365 1.390 . S
C1360 H1351 0.930 . S
C1360 C1358 1.384 . S
C1360 C1361 1.372 . S
C1361 C1360 1.372 . S
C1361 C1362 1.400 . S
C1361 C1366 1.490 . S
C1362 H1352 0.930 . S
C1362 C1361 1.400 . S
C1362 C1365 1.386 . S
H1363 C1379 0.930 . S
H1364 C1380 0.931 . S
C1365 H1353 0.929 . S
C1365 C1359 1.390 . S
C1365 C1362 1.386 . S
C1366 C1361 1.490 . S
C1366 C1368 1.395 . S
C1366 C1369 1.403 . S
H1367 C1373 0.930 . S
C1368 H1354 0.930 . S
C1368 C1366 1.395 . S
C1368 C1371 1.403 . S
C1369 C1366 1.403 . S
C1369 C1370 1.524 . S
C1369 C1373 1.400 . S
C1370 H1355 0.960 . S
C1370 H1356 0.960 . S
C1370 H1357 0.960 . S
C1370 C1369 1.524 . S
C1371 C1368 1.403 . S
C1371 C1372 1.392 . S
C1371 C1375 1.495 . S
C1372 C1371 1.392 . S
C1372 C1373 1.385 . S
C1372 C1374 1.478 . S
C1373 H1367 0.930 . S
C1373 C1369 1.400 . S
C1373 C1372 1.385 . S
C1374 C1372 1.478 . S
C1374 C1376 1.381 . S
C1374 C1380 1.383 . S
C1375 C1371 1.495 . S
C1375 H1381 0.959 . S
C1375 H1382 0.961 . S
C1375 H1383 0.960 . S
C1376 C1374 1.381 . S
C1376 C1377 1.394 . S
C1376 H1384 0.930 . S
C1377 C1376 1.394 . S
C1377 C1378 1.383 . S
C1377 H1385 0.929 . S
C1378 C1377 1.383 . S
C1378 C1379 1.377 . S
C1379 H1363 0.930 . S
C1379 C1378 1.377 . S
C1379 C1380 1.379 . S
C1380 H1364 0.931 . S
C1380 C1374 1.383 . S
C1380 C1379 1.379 . S
H1381 C1375 0.959 . S
H1382 C1375 0.961 . S
H1383 C1375 0.960 . S
H1384 C1376 0.930 . S
H1385 C1377 0.929 . S
H1386 C1394 0.929 . S
H1387 C1396 0.930 . S
H1388 C1398 0.930 . S
H1389 C1401 0.929 . S
H1390 C1404 0.930 . S
H1391 C1406 0.960 . S
H1392 C1406 0.960 . S
H1393 C1406 0.960 . S
C1394 H1386 0.929 . S
C1394 C1395 1.377 . S
C1394 C1396 1.384 . S
C1395 C1394 1.377 . S
C1395 C1401 1.390 . S
C1396 H1387 0.930 . S
C1396 C1394 1.384 . S
C1396 C1397 1.372 . S
C1397 C1396 1.372 . S
C1397 C1398 1.400 . S
C1397 C1402 1.490 . S
C1398 H1388 0.930 . S
C1398 C1397 1.400 . S
C1398 C1401 1.386 . S
H1399 C1415 0.930 . S
H1400 C1416 0.931 . S
C1401 H1389 0.929 . S
C1401 C1395 1.390 . S
C1401 C1398 1.386 . S
C1402 C1397 1.490 . S
C1402 C1404 1.395 . S
C1402 C1405 1.403 . S
H1403 C1409 0.930 . S
C1404 H1390 0.930 . S
C1404 C1402 1.395 . S
C1404 C1407 1.403 . S
C1405 C1402 1.403 . S
C1405 C1406 1.524 . S
C1405 C1409 1.400 . S
C1406 H1391 0.960 . S
C1406 H1392 0.960 . S
C1406 H1393 0.960 . S
C1406 C1405 1.524 . S
C1407 C1404 1.403 . S
C1407 C1408 1.392 . S
C1407 C1411 1.495 . S
C1408 C1407 1.392 . S
C1408 C1409 1.385 . S
C1408 C1410 1.478 . S
C1409 H1403 0.930 . S
C1409 C1405 1.400 . S
C1409 C1408 1.385 . S
C1410 C1408 1.478 . S
C1410 C1412 1.381 . S
C1410 C1416 1.383 . S
C1411 C1407 1.495 . S
C1411 H1417 0.959 . S
C1411 H1418 0.961 . S
C1411 H1419 0.960 . S
C1412 C1410 1.381 . S
C1412 C1413 1.394 . S
C1412 H1420 0.930 . S
C1413 C1412 1.394 . S
C1413 C1414 1.383 . S
C1413 H1421 0.929 . S
C1414 C1413 1.383 . S
C1414 C1415 1.377 . S
C1415 H1399 0.930 . S
C1415 C1414 1.377 . S
C1415 C1416 1.379 . S
C1416 H1400 0.931 . S
C1416 C1410 1.383 . S
C1416 C1415 1.379 . S
H1417 C1411 0.959 . S
H1418 C1411 0.961 . S
H1419 C1411 0.960 . S
H1420 C1412 0.930 . S
H1421 C1413 0.929 . S
H1422 C1430 0.929 . S
H1423 C1432 0.930 . S
H1424 C1434 0.930 . S
H1425 C1437 0.929 . S
H1426 C1440 0.930 . S
H1427 C1442 0.960 . S
H1428 C1442 0.960 . S
H1429 C1442 0.960 . S
C1430 H1422 0.929 . S
C1430 C1431 1.377 . S
C1430 C1432 1.384 . S
C1431 C1430 1.377 . S
C1431 C1437 1.390 . S
C1432 H1423 0.930 . S
C1432 C1430 1.384 . S
C1432 C1433 1.372 . S
C1433 C1432 1.372 . S
C1433 C1434 1.400 . S
C1433 C1438 1.490 . S
C1434 H1424 0.930 . S
C1434 C1433 1.400 . S
C1434 C1437 1.386 . S
H1435 C1451 0.930 . S
H1436 C1452 0.931 . S
C1437 H1425 0.929 . S
C1437 C1431 1.390 . S
C1437 C1434 1.386 . S
C1438 C1433 1.490 . S
C1438 C1440 1.395 . S
C1438 C1441 1.403 . S
H1439 C1445 0.930 . S
C1440 H1426 0.930 . S
C1440 C1438 1.395 . S
C1440 C1443 1.403 . S
C1441 C1438 1.403 . S
C1441 C1442 1.524 . S
C1441 C1445 1.400 . S
C1442 H1427 0.960 . S
C1442 H1428 0.960 . S
C1442 H1429 0.960 . S
C1442 C1441 1.524 . S
C1443 C1440 1.403 . S
C1443 C1444 1.392 . S
C1443 C1447 1.495 . S
C1444 C1443 1.392 . S
C1444 C1445 1.385 . S
C1444 C1446 1.478 . S
C1445 H1439 0.930 . S
C1445 C1441 1.400 . S
C1445 C1444 1.385 . S
C1446 C1444 1.478 . S
C1446 C1448 1.381 . S
C1446 C1452 1.383 . S
C1447 C1443 1.495 . S
C1447 H1453 0.959 . S
C1447 H1454 0.961 . S
C1447 H1455 0.960 . S
C1448 C1446 1.381 . S
C1448 C1449 1.394 . S
C1448 H1456 0.930 . S
C1449 C1448 1.394 . S
C1449 C1450 1.383 . S
C1449 H1457 0.929 . S
C1450 C1449 1.383 . S
C1450 C1451 1.377 . S
C1451 H1435 0.930 . S
C1451 C1450 1.377 . S
C1451 C1452 1.379 . S
C1452 H1436 0.931 . S
C1452 C1446 1.383 . S
C1452 C1451 1.379 . S
H1453 C1447 0.959 . S
H1454 C1447 0.961 . S
H1455 C1447 0.960 . S
H1456 C1448 0.930 . S
H1457 C1449 0.929 . S
H1458 C1466 0.929 . S
H1459 C1468 0.930 . S
H1460 C1470 0.930 . S
H1461 C1473 0.929 . S
H1462 C1476 0.930 . S
H1463 C1478 0.960 . S
H1464 C1478 0.960 . S
H1465 C1478 0.960 . S
C1466 H1458 0.929 . S
C1466 C1467 1.377 . S
C1466 C1468 1.384 . S
C1467 C1466 1.377 . S
C1467 C1473 1.390 . S
C1468 H1459 0.930 . S
C1468 C1466 1.384 . S
C1468 C1469 1.372 . S
C1469 C1468 1.372 . S
C1469 C1470 1.400 . S
C1469 C1474 1.490 . S
C1470 H1460 0.930 . S
C1470 C1469 1.400 . S
C1470 C1473 1.386 . S
H1471 C1487 0.930 . S
H1472 C1488 0.931 . S
C1473 H1461 0.929 . S
C1473 C1467 1.390 . S
C1473 C1470 1.386 . S
C1474 C1469 1.490 . S
C1474 C1476 1.395 . S
C1474 C1477 1.403 1_565 S
H1475 C1481 0.930 . S
C1476 H1462 0.930 . S
C1476 C1474 1.395 . S
C1476 C1479 1.403 1_565 S
C1477 C1474 1.403 1_545 S
C1477 C1478 1.524 . S
C1477 C1481 1.400 . S
C1478 H1463 0.960 . S
C1478 H1464 0.960 . S
C1478 H1465 0.960 . S
C1478 C1477 1.524 . S
C1479 C1476 1.403 1_545 S
C1479 C1480 1.392 . S
C1479 C1483 1.495 1_545 S
C1480 C1479 1.392 . S
C1480 C1481 1.385 . S
C1480 C1482 1.478 . S
C1481 H1475 0.930 . S
C1481 C1477 1.400 . S
C1481 C1480 1.385 . S
C1482 C1480 1.478 . S
C1482 C1484 1.381 . S
C1482 C1488 1.383 . S
C1483 C1479 1.495 1_565 S
C1483 H1489 0.959 . S
C1483 H1490 0.944 1_565 S
C1483 H1491 0.960 1_565 S
C1484 C1482 1.381 . S
C1484 C1485 1.394 . S
C1484 H1492 0.930 . S
C1485 C1484 1.394 . S
C1485 C1486 1.383 . S
C1485 H1493 0.929 . S
C1486 C1485 1.383 . S
C1486 C1487 1.377 . S
C1487 H1471 0.930 . S
C1487 C1486 1.377 . S
C1487 C1488 1.379 . S
C1488 H1472 0.931 . S
C1488 C1482 1.383 . S
C1488 C1487 1.379 . S
H1489 C1483 0.959 . S
H1490 C1483 0.944 1_545 S
H1491 C1483 0.960 1_545 S
H1492 C1484 0.930 . S
H1493 C1485 0.929 . S
H1494 C1502 0.929 . S
H1495 C1504 0.930 . S
H1496 C1506 0.930 . S
H1497 C1509 0.929 . S
H1498 C1512 0.930 . S
H1499 C1514 0.960 . S
H1500 C1514 0.960 . S
H1501 C1514 0.960 . S
C1502 H1494 0.929 . S
C1502 C1503 1.377 . S
C1502 C1504 1.384 . S
C1503 C1502 1.377 . S
C1503 C1509 1.390 . S
C1504 H1495 0.930 . S
C1504 C1502 1.384 . S
C1504 C1505 1.372 . S
C1505 C1504 1.372 . S
C1505 C1506 1.400 . S
C1505 C1510 1.490 . S
C1506 H1496 0.930 . S
C1506 C1505 1.400 . S
C1506 C1509 1.386 . S
H1507 C1523 0.930 . S
H1508 C1524 0.931 . S
C1509 H1497 0.929 . S
C1509 C1503 1.390 . S
C1509 C1506 1.386 . S
C1510 C1505 1.490 . S
C1510 C1512 1.395 . S
C1510 C1513 1.403 . S
H1511 C1517 0.930 . S
C1512 H1498 0.930 . S
C1512 C1510 1.395 . S
C1512 C1515 1.403 . S
C1513 C1510 1.403 . S
C1513 C1514 1.524 . S
C1513 C1517 1.400 . S
C1514 H1499 0.960 . S
C1514 H1500 0.960 . S
C1514 H1501 0.960 . S
C1514 C1513 1.524 . S
C1515 C1512 1.403 . S
C1515 C1516 1.392 . S
C1515 C1519 1.495 . S
C1516 C1515 1.392 . S
C1516 C1517 1.385 . S
C1516 C1518 1.478 . S
C1517 H1511 0.930 . S
C1517 C1513 1.400 . S
C1517 C1516 1.385 . S
C1518 C1516 1.478 . S
C1518 C1520 1.381 . S
C1518 C1524 1.383 . S
C1519 C1515 1.495 . S
C1519 H1525 0.959 . S
C1519 H1526 0.961 . S
C1519 H1527 0.960 . S
C1520 C1518 1.381 . S
C1520 C1521 1.394 . S
C1520 H1528 0.930 . S
C1521 C1520 1.394 . S
C1521 C1522 1.383 . S
C1521 H1529 0.929 . S
C1522 C1521 1.383 . S
C1522 C1523 1.377 . S
C1523 H1507 0.930 . S
C1523 C1522 1.377 . S
C1523 C1524 1.379 . S
C1524 H1508 0.931 . S
C1524 C1518 1.383 . S
C1524 C1523 1.379 . S
H1525 C1519 0.959 . S
H1526 C1519 0.961 . S
H1527 C1519 0.960 . S
H1528 C1520 0.930 . S
H1529 C1521 0.929 . S
H1530 C1538 0.929 . S
H1531 C1540 0.930 . S
H1532 C1542 0.930 . S
H1533 C1545 0.929 . S
H1534 C1548 0.930 . S
H1535 C1550 0.960 . S
H1536 C1550 0.960 . S
H1537 C1550 0.960 . S
C1538 H1530 0.929 . S
C1538 C1539 1.377 . S
C1538 C1540 1.384 . S
C1539 C1538 1.377 . S
C1539 C1545 1.390 . S
C1540 H1531 0.930 . S
C1540 C1538 1.384 . S
C1540 C1541 1.372 . S
C1541 C1540 1.372 . S
C1541 C1542 1.400 . S
C1541 C1546 1.490 . S
C1542 H1532 0.930 . S
C1542 C1541 1.400 . S
C1542 C1545 1.386 . S
H1543 C1559 0.930 . S
H1544 C1560 0.931 . S
C1545 H1533 0.929 . S
C1545 C1539 1.390 . S
C1545 C1542 1.386 . S
C1546 C1541 1.490 . S
C1546 C1548 1.395 . S
C1546 C1549 1.403 . S
H1547 C1553 0.930 . S
C1548 H1534 0.930 . S
C1548 C1546 1.395 . S
C1548 C1551 1.403 . S
C1549 C1546 1.403 . S
C1549 C1550 1.524 . S
C1549 C1553 1.400 . S
C1550 H1535 0.960 . S
C1550 H1536 0.960 . S
C1550 H1537 0.960 . S
C1550 C1549 1.524 . S
C1551 C1548 1.403 . S
C1551 C1552 1.392 . S
C1551 C1555 1.495 . S
C1552 C1551 1.392 . S
C1552 C1553 1.385 . S
C1552 C1554 1.478 . S
C1553 H1547 0.930 . S
C1553 C1549 1.400 . S
C1553 C1552 1.385 . S
C1554 C1552 1.478 . S
C1554 C1556 1.381 . S
C1554 C1560 1.383 . S
C1555 C1551 1.495 . S
C1555 H1561 0.959 . S
C1555 H1562 0.961 . S
C1555 H1563 0.960 . S
C1556 C1554 1.381 . S
C1556 C1557 1.394 . S
C1556 H1564 0.930 . S
C1557 C1556 1.394 . S
C1557 C1558 1.383 . S
C1557 H1565 0.929 . S
C1558 C1557 1.383 . S
C1558 C1559 1.377 . S
C1559 H1543 0.930 . S
C1559 C1558 1.377 . S
C1559 C1560 1.379 . S
C1560 H1544 0.931 . S
C1560 C1554 1.383 . S
C1560 C1559 1.379 . S
H1561 C1555 0.959 . S
H1562 C1555 0.961 . S
H1563 C1555 0.960 . S
H1564 C1556 0.930 . S
H1565 C1557 0.929 . S
H1566 C1574 0.929 . S
H1567 C1576 0.930 . S
H1568 C1578 0.930 . S
H1569 C1581 0.929 . S
H1570 C1584 0.930 . S
H1571 C1586 0.960 . S
H1572 C1586 0.960 . S
H1573 C1586 0.960 . S
C1574 H1566 0.929 . S
C1574 C1575 1.377 . S
C1574 C1576 1.384 . S
C1575 C1574 1.377 . S
C1575 C1581 1.390 . S
C1576 H1567 0.930 . S
C1576 C1574 1.384 . S
C1576 C1577 1.372 . S
C1577 C1576 1.372 . S
C1577 C1578 1.400 . S
C1577 C1582 1.490 . S
C1578 H1568 0.930 . S
C1578 C1577 1.400 . S
C1578 C1581 1.386 . S
H1579 C1595 0.930 . S
H1580 C1596 0.931 . S
C1581 H1569 0.929 . S
C1581 C1575 1.390 . S
C1581 C1578 1.386 . S
C1582 C1577 1.490 . S
C1582 C1584 1.395 . S
C1582 C1585 1.403 . S
H1583 C1589 0.930 . S
C1584 H1570 0.930 . S
C1584 C1582 1.395 . S
C1584 C1587 1.403 . S
C1585 C1582 1.403 . S
C1585 C1586 1.524 . S
C1585 C1589 1.400 . S
C1586 H1571 0.960 . S
C1586 H1572 0.960 . S
C1586 H1573 0.960 . S
C1586 C1585 1.524 . S
C1587 C1584 1.403 . S
C1587 C1588 1.392 . S
C1587 C1591 1.495 . S
C1588 C1587 1.392 . S
C1588 C1589 1.385 . S
C1588 C1590 1.478 . S
C1589 H1583 0.930 . S
C1589 C1585 1.400 . S
C1589 C1588 1.385 . S
C1590 C1588 1.478 . S
C1590 C1592 1.381 . S
C1590 C1596 1.383 . S
C1591 C1587 1.495 . S
C1591 H1597 0.959 . S
C1591 H1598 0.961 . S
C1591 H1599 0.960 . S
C1592 C1590 1.381 . S
C1592 C1593 1.394 . S
C1592 H1600 0.930 . S
C1593 C1592 1.394 . S
C1593 C1594 1.383 . S
C1593 H1601 0.929 . S
C1594 C1593 1.383 . S
C1594 C1595 1.377 . S
C1595 H1579 0.930 . S
C1595 C1594 1.377 . S
C1595 C1596 1.379 . S
C1596 H1580 0.931 . S
C1596 C1590 1.383 . S
C1596 C1595 1.379 . S
H1597 C1591 0.959 . S
H1598 C1591 0.961 . S
H1599 C1591 0.960 . S
H1600 C1592 0.930 . S
H1601 C1593 0.929 . S
H1602 C1610 0.929 . S
H1603 C1612 0.930 . S
H1604 C1614 0.930 . S
H1605 C1617 0.929 . S
H1606 C1620 0.930 . S
H1607 C1622 0.960 . S
H1608 C1622 0.960 . S
H1609 C1622 0.960 . S
C1610 H1602 0.929 . S
C1610 C1611 1.377 . S
C1610 C1612 1.384 . S
C1611 C1610 1.377 . S
C1611 C1617 1.390 . S
C1612 H1603 0.930 . S
C1612 C1610 1.384 . S
C1612 C1613 1.372 . S
C1613 C1612 1.372 . S
C1613 C1614 1.400 . S
C1613 C1618 1.490 . S
C1614 H1604 0.930 . S
C1614 C1613 1.400 . S
C1614 C1617 1.386 . S
H1615 C1631 0.930 . S
H1616 C1632 0.931 . S
C1617 H1605 0.929 . S
C1617 C1611 1.390 . S
C1617 C1614 1.386 . S
C1618 C1613 1.490 . S
C1618 C1620 1.395 . S
C1618 C1621 1.403 . S
H1619 C1625 0.930 . S
C1620 H1606 0.930 . S
C1620 C1618 1.395 . S
C1620 C1623 1.403 . S
C1621 C1618 1.403 . S
C1621 C1622 1.524 . S
C1621 C1625 1.400 . S
C1622 H1607 0.960 . S
C1622 H1608 0.960 . S
C1622 H1609 0.960 . S
C1622 C1621 1.524 . S
C1623 C1620 1.403 . S
C1623 C1624 1.392 . S
C1623 C1627 1.495 . S
C1624 C1623 1.392 . S
C1624 C1625 1.385 . S
C1624 C1626 1.478 . S
C1625 H1619 0.930 . S
C1625 C1621 1.400 . S
C1625 C1624 1.385 . S
C1626 C1624 1.478 . S
C1626 C1628 1.381 . S
C1626 C1632 1.383 . S
C1627 C1623 1.495 . S
C1627 H1633 0.959 . S
C1627 H1634 0.961 . S
C1627 H1635 0.960 . S
C1628 C1626 1.381 . S
C1628 C1629 1.394 . S
C1628 H1636 0.930 . S
C1629 C1628 1.394 . S
C1629 C1630 1.383 . S
C1629 H1637 0.929 . S
C1630 C1629 1.383 . S
C1630 C1631 1.377 . S
C1631 H1615 0.930 . S
C1631 C1630 1.377 . S
C1631 C1632 1.379 . S
C1632 H1616 0.931 . S
C1632 C1626 1.383 . S
C1632 C1631 1.379 . S
H1633 C1627 0.959 . S
H1634 C1627 0.961 . S
H1635 C1627 0.960 . S
H1636 C1628 0.930 . S
H1637 C1629 0.929 . S
H1638 C1646 0.929 . S
H1639 C1648 0.930 . S
H1640 C1650 0.930 . S
H1641 C1653 0.929 . S
H1642 C1656 0.930 . S
H1643 C1658 0.960 . S
H1644 C1658 0.960 . S
H1645 C1658 0.960 . S
C1646 H1638 0.929 . S
C1646 C1647 1.377 . S
C1646 C1648 1.384 . S
C1647 C1646 1.377 . S
C1647 C1653 1.390 . S
C1648 H1639 0.930 . S
C1648 C1646 1.384 . S
C1648 C1649 1.372 . S
C1649 C1648 1.372 . S
C1649 C1650 1.400 . S
C1649 C1654 1.490 . S
C1650 H1640 0.930 . S
C1650 C1649 1.400 . S
C1650 C1653 1.386 . S
H1651 C1667 0.930 . S
H1652 C1668 0.931 . S
C1653 H1641 0.929 . S
C1653 C1647 1.390 . S
C1653 C1650 1.386 . S
C1654 C1649 1.490 . S
C1654 C1656 1.395 . S
C1654 C1657 1.403 . S
H1655 C1661 0.930 . S
C1656 H1642 0.930 . S
C1656 C1654 1.395 . S
C1656 C1659 1.403 . S
C1657 C1654 1.403 . S
C1657 C1658 1.524 . S
C1657 C1661 1.400 . S
C1658 H1643 0.960 . S
C1658 H1644 0.960 . S
C1658 H1645 0.960 . S
C1658 C1657 1.524 . S
C1659 C1656 1.403 . S
C1659 C1660 1.392 . S
C1659 C1663 1.495 . S
C1660 C1659 1.392 . S
C1660 C1661 1.385 . S
C1660 C1662 1.478 . S
C1661 H1655 0.930 . S
C1661 C1657 1.400 . S
C1661 C1660 1.385 . S
C1662 C1660 1.478 . S
C1662 C1664 1.381 . S
C1662 C1668 1.383 . S
C1663 C1659 1.495 . S
C1663 H1669 0.959 . S
C1663 H1670 0.961 . S
C1663 H1671 0.960 . S
C1664 C1662 1.381 . S
C1664 C1665 1.394 . S
C1664 H1672 0.930 . S
C1665 C1664 1.394 . S
C1665 C1666 1.383 . S
C1665 H1673 0.929 . S
C1666 C1665 1.383 . S
C1666 C1667 1.377 . S
C1667 H1651 0.930 . S
C1667 C1666 1.377 . S
C1667 C1668 1.379 . S
C1668 H1652 0.931 . S
C1668 C1662 1.383 . S
C1668 C1667 1.379 . S
H1669 C1663 0.959 . S
H1670 C1663 0.961 . S
H1671 C1663 0.960 . S
H1672 C1664 0.930 . S
H1673 C1665 0.929 . S
H1674 C1682 0.929 . S
H1675 C1684 0.930 . S
H1676 C1686 0.930 . S
H1677 C1689 0.929 . S
H1678 C1692 0.930 . S
H1679 C1694 0.960 . S
H1680 C1694 0.960 . S
H1681 C1694 0.960 . S
C1682 H1674 0.929 . S
C1682 C1683 1.377 . S
C1682 C1684 1.384 . S
C1683 C1682 1.377 . S
C1683 C1689 1.390 . S
C1684 H1675 0.930 . S
C1684 C1682 1.384 . S
C1684 C1685 1.372 . S
C1685 C1684 1.372 . S
C1685 C1686 1.400 . S
C1685 C1690 1.490 . S
C1686 H1676 0.930 . S
C1686 C1685 1.400 . S
C1686 C1689 1.386 . S
H1687 C1703 0.930 . S
H1688 C1704 0.931 . S
C1689 H1677 0.929 . S
C1689 C1683 1.390 . S
C1689 C1686 1.386 . S
C1690 C1685 1.490 . S
C1690 C1692 1.395 . S
C1690 C1693 1.403 . S
H1691 C1697 0.930 . S
C1692 H1678 0.930 . S
C1692 C1690 1.395 . S
C1692 C1695 1.403 . S
C1693 C1690 1.403 . S
C1693 C1694 1.524 . S
C1693 C1697 1.400 . S
C1694 H1679 0.960 . S
C1694 H1680 0.960 . S
C1694 H1681 0.960 . S
C1694 C1693 1.524 . S
C1695 C1692 1.403 . S
C1695 C1696 1.392 . S
C1695 C1699 1.495 . S
C1696 C1695 1.392 . S
C1696 C1697 1.385 . S
C1696 C1698 1.478 . S
C1697 H1691 0.930 . S
C1697 C1693 1.400 . S
C1697 C1696 1.385 . S
C1698 C1696 1.478 . S
C1698 C1700 1.381 . S
C1698 C1704 1.383 . S
C1699 C1695 1.495 . S
C1699 H1705 0.959 . S
C1699 H1706 0.961 . S
C1699 H1707 0.960 . S
C1700 C1698 1.381 . S
C1700 C1701 1.394 . S
C1700 H1708 0.930 . S
C1701 C1700 1.394 . S
C1701 C1702 1.383 . S
C1701 H1709 0.929 . S
C1702 C1701 1.383 . S
C1702 C1703 1.377 . S
C1703 H1687 0.930 . S
C1703 C1702 1.377 . S
C1703 C1704 1.379 . S
C1704 H1688 0.931 . S
C1704 C1698 1.383 . S
C1704 C1703 1.379 . S
H1705 C1699 0.959 . S
H1706 C1699 0.961 . S
H1707 C1699 0.960 . S
H1708 C1700 0.930 . S
H1709 C1701 0.929 . S
H1710 C1718 0.929 . S
H1711 C1720 0.930 . S
H1712 C1722 0.930 . S
H1713 C1725 0.929 . S
H1714 C1728 0.930 . S
H1715 C1730 0.960 . S
H1716 C1730 0.960 . S
H1717 C1730 0.960 . S
C1718 H1710 0.929 . S
C1718 C1719 1.377 . S
C1718 C1720 1.384 . S
C1719 C1718 1.377 . S
C1719 C1725 1.390 . S
C1720 H1711 0.930 . S
C1720 C1718 1.384 . S
C1720 C1721 1.372 . S
C1721 C1720 1.372 . S
C1721 C1722 1.400 . S
C1721 C1726 1.490 . S
C1722 H1712 0.930 . S
C1722 C1721 1.400 . S
C1722 C1725 1.386 . S
H1723 C1739 0.930 1_455 S
H1724 C1740 0.931 . S
C1725 H1713 0.929 . S
C1725 C1719 1.390 . S
C1725 C1722 1.386 . S
C1726 C1721 1.490 . S
C1726 C1728 1.395 . S
C1726 C1729 1.403 . S
H1727 C1733 0.930 . S
C1728 H1714 0.930 . S
C1728 C1726 1.395 . S
C1728 C1731 1.403 . S
C1729 C1726 1.403 . S
C1729 C1730 1.524 . S
C1729 C1733 1.400 . S
C1730 H1715 0.960 . S
C1730 H1716 0.960 . S
C1730 H1717 0.960 . S
C1730 C1729 1.524 . S
C1731 C1728 1.403 . S
C1731 C1732 1.392 . S
C1731 C1735 1.495 . S
C1732 C1731 1.392 . S
C1732 C1733 1.385 . S
C1732 C1734 1.478 . S
C1733 H1727 0.930 . S
C1733 C1729 1.400 . S
C1733 C1732 1.385 . S
C1734 C1732 1.478 . S
C1734 C1736 1.381 . S
C1734 C1740 1.383 . S
C1735 C1731 1.495 . S
C1735 H1741 0.959 . S
C1735 H1742 0.961 . S
C1735 H1743 0.960 . S
C1736 C1734 1.381 . S
C1736 C1737 1.394 1_655 S
C1736 H1744 0.930 . S
C1737 C1736 1.394 1_455 S
C1737 C1738 1.383 . S
C1737 H1745 0.929 . S
C1738 C1737 1.383 . S
C1738 C1739 1.377 1_455 S
C1739 H1723 0.930 1_655 S
C1739 C1738 1.377 1_655 S
C1739 C1740 1.379 . S
C1740 H1724 0.931 . S
C1740 C1734 1.383 . S
C1740 C1739 1.379 . S
H1741 C1735 0.959 . S
H1742 C1735 0.961 . S
H1743 C1735 0.960 . S
H1744 C1736 0.930 . S
H1745 C1737 0.929 . S
H1746 C1754 0.929 . S
H1747 C1756 0.930 . S
H1748 C1758 0.930 . S
H1749 C1761 0.929 . S
H1750 C1764 0.930 . S
H1751 C1766 0.960 . S
H1752 C1766 0.960 . S
H1753 C1766 0.960 . S
C1754 H1746 0.929 . S
C1754 C1755 1.377 . S
C1754 C1756 1.384 . S
C1755 C1754 1.377 . S
C1755 C1761 1.390 . S
C1756 H1747 0.930 . S
C1756 C1754 1.384 . S
C1756 C1757 1.372 . S
C1757 C1756 1.372 . S
C1757 C1758 1.400 . S
C1757 C1762 1.490 . S
C1758 H1748 0.930 . S
C1758 C1757 1.400 . S
C1758 C1761 1.386 . S
H1759 C1775 0.930 . S
H1760 C1776 0.931 . S
C1761 H1749 0.929 . S
C1761 C1755 1.390 . S
C1761 C1758 1.386 . S
C1762 C1757 1.490 . S
C1762 C1764 1.395 . S
C1762 C1765 1.403 . S
H1763 C1769 0.930 . S
C1764 H1750 0.930 . S
C1764 C1762 1.395 . S
C1764 C1767 1.403 . S
C1765 C1762 1.403 . S
C1765 C1766 1.524 . S
C1765 C1769 1.400 . S
C1766 H1751 0.960 . S
C1766 H1752 0.960 . S
C1766 H1753 0.960 . S
C1766 C1765 1.524 . S
C1767 C1764 1.403 . S
C1767 C1768 1.392 . S
C1767 C1771 1.495 . S
C1768 C1767 1.392 . S
C1768 C1769 1.385 . S
C1768 C1770 1.478 . S
C1769 H1763 0.930 . S
C1769 C1765 1.400 . S
C1769 C1768 1.385 . S
C1770 C1768 1.478 . S
C1770 C1772 1.381 . S
C1770 C1776 1.383 . S
C1771 C1767 1.495 . S
C1771 H1777 0.959 . S
C1771 H1778 0.961 . S
C1771 H1779 0.960 . S
C1772 C1770 1.381 . S
C1772 C1773 1.394 . S
C1772 H1780 0.930 . S
C1773 C1772 1.394 . S
C1773 C1774 1.383 . S
C1773 H1781 0.929 . S
C1774 C1773 1.383 . S
C1774 C1775 1.377 . S
C1775 H1759 0.930 . S
C1775 C1774 1.377 . S
C1775 C1776 1.379 . S
C1776 H1760 0.931 . S
C1776 C1770 1.383 . S
C1776 C1775 1.379 . S
H1777 C1771 0.959 . S
H1778 C1771 0.961 . S
H1779 C1771 0.960 . S
H1780 C1772 0.930 . S
H1781 C1773 0.929 . S
H1782 C1790 0.929 . S
H1783 C1792 0.930 . S
H1784 C1794 0.930 . S
H1785 C1797 0.929 . S
H1786 C1800 0.930 . S
H1787 C1802 0.960 . S
H1788 C1802 0.960 . S
H1789 C1802 0.960 . S
C1790 H1782 0.929 . S
C1790 C1791 1.377 . S
C1790 C1792 1.384 . S
C1791 C1790 1.377 . S
C1791 C1797 1.390 . S
C1792 H1783 0.930 . S
C1792 C1790 1.384 . S
C1792 C1793 1.372 . S
C1793 C1792 1.372 . S
C1793 C1794 1.400 . S
C1793 C1798 1.490 . S
C1794 H1784 0.930 . S
C1794 C1793 1.400 . S
C1794 C1797 1.386 . S
H1795 C1811 0.930 . S
H1796 C1812 0.931 . S
C1797 H1785 0.929 . S
C1797 C1791 1.390 . S
C1797 C1794 1.386 . S
C1798 C1793 1.490 . S
C1798 C1800 1.395 . S
C1798 C1801 1.403 . S
H1799 C1805 0.930 . S
C1800 H1786 0.930 . S
C1800 C1798 1.395 . S
C1800 C1803 1.403 . S
C1801 C1798 1.403 . S
C1801 C1802 1.524 . S
C1801 C1805 1.400 . S
C1802 H1787 0.960 . S
C1802 H1788 0.960 . S
C1802 H1789 0.960 . S
C1802 C1801 1.524 . S
C1803 C1800 1.403 . S
C1803 C1804 1.392 . S
C1803 C1807 1.495 . S
C1804 C1803 1.392 . S
C1804 C1805 1.385 . S
C1804 C1806 1.478 . S
C1805 H1799 0.930 . S
C1805 C1801 1.400 . S
C1805 C1804 1.385 . S
C1806 C1804 1.478 . S
C1806 C1808 1.381 . S
C1806 C1812 1.383 . S
C1807 C1803 1.495 . S
C1807 H1813 0.959 . S
C1807 H1814 0.961 . S
C1807 H1815 0.960 . S
C1808 C1806 1.381 . S
C1808 C1809 1.394 . S
C1808 H1816 0.930 . S
C1809 C1808 1.394 . S
C1809 C1810 1.383 . S
C1809 H1817 0.929 . S
C1810 C1809 1.383 . S
C1810 C1811 1.377 . S
C1811 H1795 0.930 . S
C1811 C1810 1.377 . S
C1811 C1812 1.379 . S
C1812 H1796 0.931 . S
C1812 C1806 1.383 . S
C1812 C1811 1.379 . S
H1813 C1807 0.959 . S
H1814 C1807 0.961 . S
H1815 C1807 0.960 . S
H1816 C1808 0.930 . S
H1817 C1809 0.929 . S
H1818 C1826 0.929 . S
H1819 C1828 0.930 . S
H1820 C1830 0.930 . S
H1821 C1833 0.929 . S
H1822 C1836 0.930 . S
H1823 C1838 0.960 . S
H1824 C1838 0.960 . S
H1825 C1838 0.960 . S
C1826 H1818 0.929 . S
C1826 C1827 1.377 . S
C1826 C1828 1.384 . S
C1827 C1826 1.377 . S
C1827 C1833 1.390 . S
C1828 H1819 0.930 . S
C1828 C1826 1.384 . S
C1828 C1829 1.372 . S
C1829 C1828 1.372 . S
C1829 C1830 1.400 . S
C1829 C1834 1.490 . S
C1830 H1820 0.930 . S
C1830 C1829 1.400 . S
C1830 C1833 1.386 . S
H1831 C1847 0.930 . S
H1832 C1848 0.931 . S
C1833 H1821 0.929 . S
C1833 C1827 1.390 . S
C1833 C1830 1.386 . S
C1834 C1829 1.490 . S
C1834 C1836 1.395 . S
C1834 C1837 1.403 . S
H1835 C1841 0.930 . S
C1836 H1822 0.930 . S
C1836 C1834 1.395 . S
C1836 C1839 1.403 . S
C1837 C1834 1.403 . S
C1837 C1838 1.524 . S
C1837 C1841 1.400 . S
C1838 H1823 0.960 . S
C1838 H1824 0.960 . S
C1838 H1825 0.960 . S
C1838 C1837 1.524 . S
C1839 C1836 1.403 . S
C1839 C1840 1.392 . S
C1839 C1843 1.495 . S
C1840 C1839 1.392 . S
C1840 C1841 1.385 . S
C1840 C1842 1.478 . S
C1841 H1835 0.930 . S
C1841 C1837 1.400 . S
C1841 C1840 1.385 . S
C1842 C1840 1.478 . S
C1842 C1844 1.381 . S
C1842 C1848 1.383 . S
C1843 C1839 1.495 . S
C1843 H1849 0.959 . S
C1843 H1850 0.961 . S
C1843 H1851 0.960 . S
C1844 C1842 1.381 . S
C1844 C1845 1.394 1_655 S
C1844 H1852 0.930 . S
C1845 C1844 1.394 1_455 S
C1845 C1846 1.383 . S
C1845 H1853 0.929 . S
C1846 C1845 1.383 . S
C1846 C1847 1.377 . S
C1847 H1831 0.930 . S
C1847 C1846 1.377 . S
C1847 C1848 1.379 1_455 S
C1848 H1832 0.931 . S
C1848 C1842 1.383 . S
C1848 C1847 1.379 1_655 S
H1849 C1843 0.959 . S
H1850 C1843 0.961 . S
H1851 C1843 0.960 . S
H1852 C1844 0.930 . S
H1853 C1845 0.929 . S
H1854 C1862 0.929 . S
H1855 C1864 0.930 . S
H1856 C1866 0.930 . S
H1857 C1869 0.929 . S
H1858 C1872 0.930 . S
H1859 C1874 0.960 . S
H1860 C1874 0.960 . S
H1861 C1874 0.960 . S
C1862 H1854 0.929 . S
C1862 C1863 1.377 . S
C1862 C1864 1.384 . S
C1863 C1862 1.377 . S
C1863 C1869 1.390 . S
C1864 H1855 0.930 . S
C1864 C1862 1.384 . S
C1864 C1865 1.372 . S
C1865 C1864 1.372 . S
C1865 C1866 1.400 . S
C1865 C1870 1.490 . S
C1866 H1856 0.930 . S
C1866 C1865 1.400 . S
C1866 C1869 1.386 . S
H1867 C1883 0.930 . S
H1868 C1884 0.931 . S
C1869 H1857 0.929 . S
C1869 C1863 1.390 . S
C1869 C1866 1.386 . S
C1870 C1865 1.490 . S
C1870 C1872 1.395 . S
C1870 C1873 1.403 . S
H1871 C1877 0.930 . S
C1872 H1858 0.930 . S
C1872 C1870 1.395 . S
C1872 C1875 1.403 . S
C1873 C1870 1.403 . S
C1873 C1874 1.524 . S
C1873 C1877 1.400 . S
C1874 H1859 0.960 . S
C1874 H1860 0.960 . S
C1874 H1861 0.960 . S
C1874 C1873 1.524 . S
C1875 C1872 1.403 . S
C1875 C1876 1.392 . S
C1875 C1879 1.495 . S
C1876 C1875 1.392 . S
C1876 C1877 1.385 . S
C1876 C1878 1.478 . S
C1877 H1871 0.930 . S
C1877 C1873 1.400 . S
C1877 C1876 1.385 . S
C1878 C1876 1.478 . S
C1878 C1880 1.381 . S
C1878 C1884 1.383 . S
C1879 C1875 1.495 . S
C1879 H1885 0.959 . S
C1879 H1886 0.961 . S
C1879 H1887 0.960 . S
C1880 C1878 1.381 . S
C1880 C1881 1.394 . S
C1880 H1888 0.930 . S
C1881 C1880 1.394 . S
C1881 C1882 1.383 . S
C1881 H1889 0.929 . S
C1882 C1881 1.383 . S
C1882 C1883 1.377 . S
C1883 H1867 0.930 . S
C1883 C1882 1.377 . S
C1883 C1884 1.379 . S
C1884 H1868 0.931 . S
C1884 C1878 1.383 . S
C1884 C1883 1.379 . S
H1885 C1879 0.959 . S
H1886 C1879 0.961 . S
H1887 C1879 0.960 . S
H1888 C1880 0.930 . S
H1889 C1881 0.929 . S
H1890 C1898 0.929 . S
H1891 C1900 0.930 . S
H1892 C1902 0.930 . S
H1893 C1905 0.929 . S
H1894 C1908 0.930 . S
H1895 C1910 0.960 . S
H1896 C1910 0.960 . S
H1897 C1910 0.960 . S
C1898 H1890 0.929 . S
C1898 C1899 1.377 . S
C1898 C1900 1.384 . S
C1899 C1898 1.377 . S
C1899 C1905 1.390 . S
C1900 H1891 0.930 . S
C1900 C1898 1.384 . S
C1900 C1901 1.372 . S
C1901 C1900 1.372 . S
C1901 C1902 1.400 . S
C1901 C1906 1.490 . S
C1902 H1892 0.930 . S
C1902 C1901 1.400 . S
C1902 C1905 1.386 . S
H1903 C1919 0.930 . S
H1904 C1920 0.931 . S
C1905 H1893 0.929 . S
C1905 C1899 1.390 . S
C1905 C1902 1.386 . S
C1906 C1901 1.490 . S
C1906 C1908 1.395 . S
C1906 C1909 1.403 . S
H1907 C1913 0.930 . S
C1908 H1894 0.930 . S
C1908 C1906 1.395 . S
C1908 C1911 1.403 . S
C1909 C1906 1.403 . S
C1909 C1910 1.524 . S
C1909 C1913 1.400 . S
C1910 H1895 0.960 . S
C1910 H1896 0.960 . S
C1910 H1897 0.960 . S
C1910 C1909 1.524 . S
C1911 C1908 1.403 . S
C1911 C1912 1.392 . S
C1911 C1915 1.495 . S
C1912 C1911 1.392 . S
C1912 C1913 1.385 . S
C1912 C1914 1.478 . S
C1913 H1907 0.930 . S
C1913 C1909 1.400 . S
C1913 C1912 1.385 . S
C1914 C1912 1.478 . S
C1914 C1916 1.381 . S
C1914 C1920 1.383 . S
C1915 C1911 1.495 . S
C1915 H1921 0.959 . S
C1915 H1922 0.961 . S
C1915 H1923 0.960 . S
C1916 C1914 1.381 . S
C1916 C1917 1.394 . S
C1916 H1924 0.930 . S
C1917 C1916 1.394 . S
C1917 C1918 1.383 . S
C1917 H1925 0.929 . S
C1918 C1917 1.383 . S
C1918 C1919 1.377 . S
C1919 H1903 0.930 . S
C1919 C1918 1.377 . S
C1919 C1920 1.379 . S
C1920 H1904 0.931 . S
C1920 C1914 1.383 . S
C1920 C1919 1.379 . S
H1921 C1915 0.959 . S
H1922 C1915 0.961 . S
H1923 C1915 0.960 . S
H1924 C1916 0.930 . S
H1925 C1917 0.929 . S
H1926 C1934 0.929 . S
H1927 C1936 0.930 . S
H1928 C1938 0.930 . S
H1929 C1941 0.929 . S
H1930 C1944 0.930 . S
H1931 C1946 0.960 . S
H1932 C1946 0.960 . S
H1933 C1946 0.960 . S
C1934 H1926 0.929 . S
C1934 C1935 1.377 . S
C1934 C1936 1.384 . S
C1935 C1934 1.377 . S
C1935 C1941 1.390 . S
C1936 H1927 0.930 . S
C1936 C1934 1.384 . S
C1936 C1937 1.372 . S
C1937 C1936 1.372 . S
C1937 C1938 1.400 . S
C1937 C1942 1.490 . S
C1938 H1928 0.930 . S
C1938 C1937 1.400 . S
C1938 C1941 1.386 . S
H1939 C1955 0.930 . S
H1940 C1956 0.931 . S
C1941 H1929 0.929 . S
C1941 C1935 1.390 . S
C1941 C1938 1.386 . S
C1942 C1937 1.490 . S
C1942 C1944 1.395 . S
C1942 C1945 1.403 . S
H1943 C1949 0.930 . S
C1944 H1930 0.930 . S
C1944 C1942 1.395 . S
C1944 C1947 1.403 . S
C1945 C1942 1.403 . S
C1945 C1946 1.524 . S
C1945 C1949 1.400 . S
C1946 H1931 0.960 . S
C1946 H1932 0.960 . S
C1946 H1933 0.960 . S
C1946 C1945 1.524 . S
C1947 C1944 1.403 . S
C1947 C1948 1.392 . S
C1947 C1951 1.495 . S
C1948 C1947 1.392 . S
C1948 C1949 1.385 . S
C1948 C1950 1.478 . S
C1949 H1943 0.930 . S
C1949 C1945 1.400 . S
C1949 C1948 1.385 . S
C1950 C1948 1.478 . S
C1950 C1952 1.381 . S
C1950 C1956 1.383 . S
C1951 C1947 1.495 . S
C1951 H1957 0.959 . S
C1951 H1958 0.961 . S
C1951 H1959 0.960 . S
C1952 C1950 1.381 . S
C1952 C1953 1.394 . S
C1952 H1960 0.930 . S
C1953 C1952 1.394 . S
C1953 C1954 1.383 . S
C1953 H1961 0.929 . S
C1954 C1953 1.383 . S
C1954 C1955 1.377 . S
C1955 H1939 0.930 . S
C1955 C1954 1.377 . S
C1955 C1956 1.379 . S
C1956 H1940 0.931 . S
C1956 C1950 1.383 . S
C1956 C1955 1.379 . S
H1957 C1951 0.959 . S
H1958 C1951 0.961 . S
H1959 C1951 0.960 . S
H1960 C1952 0.930 . S
H1961 C1953 0.929 . S
H1962 C1970 0.929 . S
H1963 C1972 0.930 . S
H1964 C1974 0.930 . S
H1965 C1977 0.929 . S
H1966 C1980 0.930 . S
H1967 C1982 0.960 . S
H1968 C1982 0.960 . S
H1969 C1982 0.960 . S
C1970 H1962 0.929 . S
C1970 C1971 1.377 . S
C1970 C1972 1.384 . S
C1971 C1970 1.377 . S
C1971 C1977 1.390 . S
C1972 H1963 0.930 . S
C1972 C1970 1.384 . S
C1972 C1973 1.372 . S
C1973 C1972 1.372 . S
C1973 C1974 1.400 . S
C1973 C1978 1.490 . S
C1974 H1964 0.930 . S
C1974 C1973 1.400 . S
C1974 C1977 1.386 . S
H1975 C1991 0.930 . S
H1976 C1992 0.931 . S
C1977 H1965 0.929 . S
C1977 C1971 1.390 . S
C1977 C1974 1.386 . S
C1978 C1973 1.490 . S
C1978 C1980 1.395 . S
C1978 C1981 1.403 . S
H1979 C1985 0.930 . S
C1980 H1966 0.930 . S
C1980 C1978 1.395 . S
C1980 C1983 1.403 . S
C1981 C1978 1.403 . S
C1981 C1982 1.524 . S
C1981 C1985 1.400 . S
C1982 H1967 0.960 . S
C1982 H1968 0.960 . S
C1982 H1969 0.960 . S
C1982 C1981 1.524 . S
C1983 C1980 1.403 . S
C1983 C1984 1.392 . S
C1983 C1987 1.495 . S
C1984 C1983 1.392 . S
C1984 C1985 1.385 . S
C1984 C1986 1.478 . S
C1985 H1979 0.930 . S
C1985 C1981 1.400 . S
C1985 C1984 1.385 . S
C1986 C1984 1.478 . S
C1986 C1988 1.381 . S
C1986 C1992 1.383 . S
C1987 C1983 1.495 . S
C1987 H1993 0.959 . S
C1987 H1994 0.961 . S
C1987 H1995 0.960 . S
C1988 C1986 1.381 . S
C1988 C1989 1.394 . S
C1988 H1996 0.930 . S
C1989 C1988 1.394 . S
C1989 C1990 1.383 . S
C1989 H1997 0.929 . S
C1990 C1989 1.383 . S
C1990 C1991 1.377 . S
C1991 H1975 0.930 . S
C1991 C1990 1.377 . S
C1991 C1992 1.379 . S
C1992 H1976 0.931 . S
C1992 C1986 1.383 . S
C1992 C1991 1.379 . S
H1993 C1987 0.959 . S
H1994 C1987 0.961 . S
H1995 C1987 0.960 . S
H1996 C1988 0.930 . S
H1997 C1989 0.929 . S
H1998 C2006 0.929 . S
H1999 C2008 0.930 . S
H2000 C2010 0.930 . S
H2001 C2013 0.929 . S
H2002 C2016 0.930 . S
H2003 C2018 0.960 . S
H2004 C2018 0.960 . S
H2005 C2018 0.960 . S
C2006 H1998 0.929 . S
C2006 C2007 1.377 . S
C2006 C2008 1.384 . S
C2007 C2006 1.377 . S
C2007 C2013 1.390 . S
C2008 H1999 0.930 . S
C2008 C2006 1.384 . S
C2008 C2009 1.372 . S
C2009 C2008 1.372 . S
C2009 C2010 1.400 . S
C2009 C2014 1.490 . S
C2010 H2000 0.930 . S
C2010 C2009 1.400 . S
C2010 C2013 1.386 . S
H2011 C2027 0.930 . S
H2012 C2028 0.931 . S
C2013 H2001 0.929 . S
C2013 C2007 1.390 . S
C2013 C2010 1.386 . S
C2014 C2009 1.490 . S
C2014 C2016 1.395 . S
C2014 C2017 1.403 . S
H2015 C2021 0.930 . S
C2016 H2002 0.930 . S
C2016 C2014 1.395 . S
C2016 C2019 1.403 . S
C2017 C2014 1.403 . S
C2017 C2018 1.524 . S
C2017 C2021 1.400 . S
C2018 H2003 0.960 . S
C2018 H2004 0.960 . S
C2018 H2005 0.960 . S
C2018 C2017 1.524 . S
C2019 C2016 1.403 . S
C2019 C2020 1.392 . S
C2019 C2023 1.495 . S
C2020 C2019 1.392 . S
C2020 C2021 1.385 . S
C2020 C2022 1.478 . S
C2021 H2015 0.930 . S
C2021 C2017 1.400 . S
C2021 C2020 1.385 . S
C2022 C2020 1.478 . S
C2022 C2024 1.381 . S
C2022 C2028 1.383 . S
C2023 C2019 1.495 . S
C2023 H2029 0.959 . S
C2023 H2030 0.961 . S
C2023 H2031 0.960 . S
C2024 C2022 1.381 . S
C2024 C2025 1.394 . S
C2024 H2032 0.930 . S
C2025 C2024 1.394 . S
C2025 C2026 1.383 . S
C2025 H2033 0.929 . S
C2026 C2025 1.383 . S
C2026 C2027 1.377 . S
C2027 H2011 0.930 . S
C2027 C2026 1.377 . S
C2027 C2028 1.379 . S
C2028 H2012 0.931 . S
C2028 C2022 1.383 . S
C2028 C2027 1.379 . S
H2029 C2023 0.959 . S
H2030 C2023 0.961 . S
H2031 C2023 0.960 . S
H2032 C2024 0.930 . S
H2033 C2025 0.929 . S
H2034 C2042 0.929 . S
H2035 C2044 0.930 . S
H2036 C2046 0.930 . S
H2037 C2049 0.929 . S
H2038 C2052 0.930 . S
H2039 C2054 0.960 . S
H2040 C2054 0.960 . S
H2041 C2054 0.960 . S
C2042 H2034 0.929 . S
C2042 C2043 1.377 1_565 S
C2042 C2044 1.384 . S
C2043 C2042 1.377 1_545 S
C2043 C2049 1.390 . S
C2044 H2035 0.930 . S
C2044 C2042 1.384 . S
C2044 C2045 1.372 1_565 S
C2045 C2044 1.372 1_545 S
C2045 C2046 1.400 . S
C2045 C2050 1.490 . S
C2046 H2036 0.930 . S
C2046 C2045 1.400 . S
C2046 C2049 1.386 . S
H2047 C2063 0.930 . S
H2048 C2064 0.931 . S
C2049 H2037 0.929 . S
C2049 C2043 1.390 . S
C2049 C2046 1.386 . S
C2050 C2045 1.490 . S
C2050 C2052 1.395 . S
C2050 C2053 1.403 . S
H2051 C2057 0.930 . S
C2052 H2038 0.930 . S
C2052 C2050 1.395 . S
C2052 C2055 1.403 . S
C2053 C2050 1.403 . S
C2053 C2054 1.524 . S
C2053 C2057 1.400 . S
C2054 H2039 0.960 . S
C2054 H2040 0.960 . S
C2054 H2041 0.960 . S
C2054 C2053 1.524 . S
C2055 C2052 1.403 . S
C2055 C2056 1.392 . S
C2055 C2059 1.495 . S
C2056 C2055 1.392 . S
C2056 C2057 1.385 . S
C2056 C2058 1.478 . S
C2057 H2051 0.930 . S
C2057 C2053 1.400 . S
C2057 C2056 1.385 . S
C2058 C2056 1.478 . S
C2058 C2060 1.381 . S
C2058 C2064 1.383 . S
C2059 C2055 1.495 . S
C2059 H2065 0.959 . S
C2059 H2066 0.961 . S
C2059 H2067 0.960 . S
C2060 C2058 1.381 . S
C2060 C2061 1.394 . S
C2060 H2068 0.930 1_545 S
C2061 C2060 1.394 . S
C2061 C2062 1.383 . S
C2061 H2069 0.929 . S
C2062 C2061 1.383 . S
C2062 C2063 1.377 . S
C2063 H2047 0.930 . S
C2063 C2062 1.377 . S
C2063 C2064 1.379 . S
C2064 H2048 0.931 . S
C2064 C2058 1.383 . S
C2064 C2063 1.379 . S
H2065 C2059 0.959 . S
H2066 C2059 0.961 . S
H2067 C2059 0.960 . S
H2068 C2060 0.930 1_565 S
H2069 C2061 0.929 . S
H2070 C2078 0.929 . S
H2071 C2080 0.930 . S
H2072 C2082 0.930 . S
H2073 C2085 0.929 . S
H2074 C2088 0.930 1_565 S
H2075 C2090 0.960 . S
H2076 C2090 0.960 . S
H2077 C2090 0.960 . S
C2078 H2070 0.929 . S
C2078 C2079 1.377 . S
C2078 C2080 1.384 . S
C2079 C2078 1.377 . S
C2079 C2085 1.390 . S
C2080 H2071 0.930 . S
C2080 C2078 1.384 . S
C2080 C2081 1.372 . S
C2081 C2080 1.372 . S
C2081 C2082 1.400 . S
C2081 C2086 1.490 . S
C2082 H2072 0.930 . S
C2082 C2081 1.400 . S
C2082 C2085 1.386 . S
H2083 C2099 0.930 . S
H2084 C2100 0.931 . S
C2085 H2073 0.929 . S
C2085 C2079 1.390 . S
C2085 C2082 1.386 . S
C2086 C2081 1.490 . S
C2086 C2088 1.395 . S
C2086 C2089 1.403 . S
H2087 C2093 0.930 . S
C2088 H2074 0.930 1_545 S
C2088 C2086 1.395 . S
C2088 C2091 1.403 . S
C2089 C2086 1.403 . S
C2089 C2090 1.524 . S
C2089 C2093 1.400 . S
C2090 H2075 0.960 . S
C2090 H2076 0.960 . S
C2090 H2077 0.960 . S
C2090 C2089 1.524 . S
C2091 C2088 1.403 . S
C2091 C2092 1.392 . S
C2091 C2095 1.495 1_545 S
C2092 C2091 1.392 . S
C2092 C2093 1.385 . S
C2092 C2094 1.478 . S
C2093 H2087 0.930 . S
C2093 C2089 1.400 . S
C2093 C2092 1.385 . S
C2094 C2092 1.478 . S
C2094 C2096 1.381 . S
C2094 C2100 1.383 . S
C2095 C2091 1.495 1_565 S
C2095 H2101 0.959 . S
C2095 H2102 0.961 . S
C2095 H2103 0.960 . S
C2096 C2094 1.381 . S
C2096 C2097 1.394 . S
C2096 H2104 0.930 . S
C2097 C2096 1.394 . S
C2097 C2098 1.383 . S
C2097 H2105 0.929 . S
C2098 C2097 1.383 . S
C2098 C2099 1.377 . S
C2099 H2083 0.930 . S
C2099 C2098 1.377 . S
C2099 C2100 1.379 . S
C2100 H2084 0.931 . S
C2100 C2094 1.383 . S
C2100 C2099 1.379 . S
H2101 C2095 0.959 . S
H2102 C2095 0.961 . S
H2103 C2095 0.960 . S
H2104 C2096 0.930 . S
H2105 C2097 0.929 . S
H2106 C2114 0.929 . S
H2107 C2116 0.930 . S
H2108 C2118 0.930 . S
H2109 C2121 0.929 . S
H2110 C2124 0.930 . S
H2111 C2126 0.960 . S
H2112 C2126 0.960 . S
H2113 C2126 0.960 . S
C2114 H2106 0.929 . S
C2114 C2115 1.377 . S
C2114 C2116 1.384 . S
C2115 C2114 1.377 . S
C2115 C2121 1.390 . S
C2116 H2107 0.930 . S
C2116 C2114 1.384 . S
C2116 C2117 1.372 . S
C2117 C2116 1.372 . S
C2117 C2118 1.400 . S
C2117 C2122 1.490 . S
C2118 H2108 0.930 . S
C2118 C2117 1.400 . S
C2118 C2121 1.386 . S
H2119 C2135 0.930 . S
H2120 C2136 0.931 . S
C2121 H2109 0.929 . S
C2121 C2115 1.390 . S
C2121 C2118 1.386 . S
C2122 C2117 1.490 . S
C2122 C2124 1.395 . S
C2122 C2125 1.403 . S
H2123 C2129 0.930 . S
C2124 H2110 0.930 . S
C2124 C2122 1.395 . S
C2124 C2127 1.403 . S
C2125 C2122 1.403 . S
C2125 C2126 1.524 . S
C2125 C2129 1.400 . S
C2126 H2111 0.960 . S
C2126 H2112 0.960 . S
C2126 H2113 0.960 . S
C2126 C2125 1.524 . S
C2127 C2124 1.403 . S
C2127 C2128 1.392 . S
C2127 C2131 1.495 . S
C2128 C2127 1.392 . S
C2128 C2129 1.385 . S
C2128 C2130 1.478 . S
C2129 H2123 0.930 . S
C2129 C2125 1.400 . S
C2129 C2128 1.385 . S
C2130 C2128 1.478 . S
C2130 C2132 1.381 . S
C2130 C2136 1.383 . S
C2131 C2127 1.495 . S
C2131 H2137 0.959 . S
C2131 H2138 0.961 . S
C2131 H2139 0.960 . S
C2132 C2130 1.381 . S
C2132 C2133 1.394 . S
C2132 H2140 0.930 . S
C2133 C2132 1.394 . S
C2133 C2134 1.383 . S
C2133 H2141 0.929 . S
C2134 C2133 1.383 . S
C2134 C2135 1.377 . S
C2135 H2119 0.930 . S
C2135 C2134 1.377 . S
C2135 C2136 1.379 . S
C2136 H2120 0.931 . S
C2136 C2130 1.383 . S
C2136 C2135 1.379 . S
H2137 C2131 0.959 . S
H2138 C2131 0.961 . S
H2139 C2131 0.960 . S
H2140 C2132 0.930 . S
H2141 C2133 0.929 . S
H2142 C2150 0.929 . S
H2143 C2152 0.930 . S
H2144 C2154 0.930 . S
H2145 C2157 0.929 . S
H2146 C2160 0.930 . S
H2147 C2162 0.960 . S
H2148 C2162 0.960 . S
H2149 C2162 0.960 . S
C2150 H2142 0.929 . S
C2150 C2151 1.377 . S
C2150 C2152 1.384 . S
C2151 C2150 1.377 . S
C2151 C2157 1.390 . S
C2152 H2143 0.930 . S
C2152 C2150 1.384 . S
C2152 C2153 1.372 . S
C2153 C2152 1.372 . S
C2153 C2154 1.400 . S
C2153 C2158 1.490 . S
C2154 H2144 0.930 . S
C2154 C2153 1.400 . S
C2154 C2157 1.386 . S
H2155 C2171 0.930 . S
H2156 C2172 0.931 . S
C2157 H2145 0.929 . S
C2157 C2151 1.390 . S
C2157 C2154 1.386 . S
C2158 C2153 1.490 . S
C2158 C2160 1.395 . S
C2158 C2161 1.403 . S
H2159 C2165 0.930 . S
C2160 H2146 0.930 . S
C2160 C2158 1.395 . S
C2160 C2163 1.403 . S
C2161 C2158 1.403 . S
C2161 C2162 1.524 . S
C2161 C2165 1.400 . S
C2162 H2147 0.960 . S
C2162 H2148 0.960 . S
C2162 H2149 0.960 . S
C2162 C2161 1.524 . S
C2163 C2160 1.403 . S
C2163 C2164 1.392 . S
C2163 C2167 1.495 . S
C2164 C2163 1.392 . S
C2164 C2165 1.385 . S
C2164 C2166 1.478 . S
C2165 H2159 0.930 . S
C2165 C2161 1.400 . S
C2165 C2164 1.385 . S
C2166 C2164 1.478 . S
C2166 C2168 1.381 . S
C2166 C2172 1.383 . S
C2167 C2163 1.495 . S
C2167 H2173 0.959 . S
C2167 H2174 0.961 . S
C2167 H2175 0.960 . S
C2168 C2166 1.381 . S
C2168 C2169 1.394 . S
C2168 H2176 0.930 . S
C2169 C2168 1.394 . S
C2169 C2170 1.383 . S
C2169 H2177 0.929 . S
C2170 C2169 1.383 . S
C2170 C2171 1.377 . S
C2171 H2155 0.930 . S
C2171 C2170 1.377 . S
C2171 C2172 1.379 . S
C2172 H2156 0.931 . S
C2172 C2166 1.383 . S
C2172 C2171 1.379 . S
H2173 C2167 0.959 . S
H2174 C2167 0.961 . S
H2175 C2167 0.960 . S
H2176 C2168 0.930 . S
H2177 C2169 0.929 . S
H2178 C2186 0.929 . S
H2179 C2188 0.930 . S
H2180 C2190 0.930 . S
H2181 C2193 0.929 . S
H2182 C2196 0.930 . S
H2183 C2198 0.960 . S
H2184 C2198 0.960 . S
H2185 C2198 0.960 . S
C2186 H2178 0.929 . S
C2186 C2187 1.377 . S
C2186 C2188 1.384 . S
C2187 C2186 1.377 . S
C2187 C2193 1.390 . S
C2188 H2179 0.930 . S
C2188 C2186 1.384 . S
C2188 C2189 1.372 . S
C2189 C2188 1.372 . S
C2189 C2190 1.400 . S
C2189 C2194 1.490 . S
C2190 H2180 0.930 . S
C2190 C2189 1.400 . S
C2190 C2193 1.386 . S
H2191 C2207 0.930 . S
H2192 C2208 0.931 . S
C2193 H2181 0.929 . S
C2193 C2187 1.390 . S
C2193 C2190 1.386 . S
C2194 C2189 1.490 . S
C2194 C2196 1.395 . S
C2194 C2197 1.403 . S
H2195 C2201 0.930 . S
C2196 H2182 0.930 . S
C2196 C2194 1.395 . S
C2196 C2199 1.403 . S
C2197 C2194 1.403 . S
C2197 C2198 1.524 . S
C2197 C2201 1.400 . S
C2198 H2183 0.960 . S
C2198 H2184 0.960 . S
C2198 H2185 0.960 . S
C2198 C2197 1.524 . S
C2199 C2196 1.403 . S
C2199 C2200 1.392 . S
C2199 C2203 1.495 . S
C2200 C2199 1.392 . S
C2200 C2201 1.385 . S
C2200 C2202 1.478 . S
C2201 H2195 0.930 . S
C2201 C2197 1.400 . S
C2201 C2200 1.385 . S
C2202 C2200 1.478 . S
C2202 C2204 1.381 . S
C2202 C2208 1.383 . S
C2203 C2199 1.495 . S
C2203 H2209 0.959 . S
C2203 H2210 0.961 . S
C2203 H2211 0.960 . S
C2204 C2202 1.381 . S
C2204 C2205 1.394 . S
C2204 H2212 0.930 . S
C2205 C2204 1.394 . S
C2205 C2206 1.383 . S
C2205 H2213 0.929 . S
C2206 C2205 1.383 . S
C2206 C2207 1.377 . S
C2207 H2191 0.930 . S
C2207 C2206 1.377 . S
C2207 C2208 1.379 . S
C2208 H2192 0.931 . S
C2208 C2202 1.383 . S
C2208 C2207 1.379 . S
H2209 C2203 0.959 . S
H2210 C2203 0.961 . S
H2211 C2203 0.960 . S
H2212 C2204 0.930 . S
H2213 C2205 0.929 . S
H2214 C2222 0.929 . S
H2215 C2224 0.930 . S
H2216 C2226 0.930 . S
H2217 C2229 0.929 . S
H2218 C2232 0.930 . S
H2219 C2234 0.960 . S
H2220 C2234 0.960 . S
H2221 C2234 0.960 . S
C2222 H2214 0.929 . S
C2222 C2223 1.377 . S
C2222 C2224 1.384 . S
C2223 C2222 1.377 . S
C2223 C2229 1.390 . S
C2224 H2215 0.930 . S
C2224 C2222 1.384 . S
C2224 C2225 1.372 . S
C2225 C2224 1.372 . S
C2225 C2226 1.400 . S
C2225 C2230 1.490 . S
C2226 H2216 0.930 . S
C2226 C2225 1.400 . S
C2226 C2229 1.386 . S
H2227 C2243 0.930 . S
H2228 C2244 0.931 . S
C2229 H2217 0.929 . S
C2229 C2223 1.390 . S
C2229 C2226 1.386 . S
C2230 C2225 1.490 . S
C2230 C2232 1.395 . S
C2230 C2233 1.403 . S
H2231 C2237 0.930 . S
C2232 H2218 0.930 . S
C2232 C2230 1.395 . S
C2232 C2235 1.403 . S
C2233 C2230 1.403 . S
C2233 C2234 1.524 . S
C2233 C2237 1.400 . S
C2234 H2219 0.960 . S
C2234 H2220 0.960 . S
C2234 H2221 0.960 . S
C2234 C2233 1.524 . S
C2235 C2232 1.403 . S
C2235 C2236 1.392 . S
C2235 C2239 1.495 . S
C2236 C2235 1.392 . S
C2236 C2237 1.385 . S
C2236 C2238 1.478 . S
C2237 H2231 0.930 . S
C2237 C2233 1.400 . S
C2237 C2236 1.385 . S
C2238 C2236 1.478 . S
C2238 C2240 1.381 . S
C2238 C2244 1.383 . S
C2239 C2235 1.495 . S
C2239 H2245 0.959 . S
C2239 H2246 0.961 . S
C2239 H2247 0.960 . S
C2240 C2238 1.381 . S
C2240 C2241 1.394 . S
C2240 H2248 0.930 . S
C2241 C2240 1.394 . S
C2241 C2242 1.383 . S
C2241 H2249 0.929 . S
C2242 C2241 1.383 . S
C2242 C2243 1.377 . S
C2243 H2227 0.930 . S
C2243 C2242 1.377 . S
C2243 C2244 1.379 . S
C2244 H2228 0.931 . S
C2244 C2238 1.383 . S
C2244 C2243 1.379 . S
H2245 C2239 0.959 . S
H2246 C2239 0.961 . S
H2247 C2239 0.960 . S
H2248 C2240 0.930 . S
H2249 C2241 0.929 . S
H2250 C2258 0.929 1_565 S
H2251 C2260 0.930 1_565 S
H2252 C2262 0.930 . S
H2253 C2265 0.929 . S
H2254 C2268 0.930 . S
H2255 C2270 0.960 . S
H2256 C2270 0.960 . S
H2257 C2270 0.960 . S
C2258 H2250 0.929 1_545 S
C2258 C2259 1.377 . S
C2258 C2260 1.384 . S
C2259 C2258 1.377 . S
C2259 C2265 1.390 . S
C2260 H2251 0.930 1_545 S
C2260 C2258 1.384 . S
C2260 C2261 1.372 . S
C2261 C2260 1.372 . S
C2261 C2262 1.400 . S
C2261 C2266 1.490 . S
C2262 H2252 0.930 . S
C2262 C2261 1.400 . S
C2262 C2265 1.386 . S
H2263 C2279 0.930 . S
H2264 C2280 0.931 . S
C2265 H2253 0.929 . S
C2265 C2259 1.390 . S
C2265 C2262 1.386 . S
C2266 C2261 1.490 . S
C2266 C2268 1.395 . S
C2266 C2269 1.403 . S
H2267 C2273 0.930 . S
C2268 H2254 0.930 . S
C2268 C2266 1.395 . S
C2268 C2271 1.403 . S
C2269 C2266 1.403 . S
C2269 C2270 1.524 . S
C2269 C2273 1.400 . S
C2270 H2255 0.960 . S
C2270 H2256 0.960 . S
C2270 H2257 0.960 . S
C2270 C2269 1.524 . S
C2271 C2268 1.403 . S
C2271 C2272 1.392 . S
C2271 C2275 1.495 . S
C2272 C2271 1.392 . S
C2272 C2273 1.385 . S
C2272 C2274 1.478 . S
C2273 H2267 0.930 . S
C2273 C2269 1.400 . S
C2273 C2272 1.385 . S
C2274 C2272 1.478 . S
C2274 C2276 1.381 . S
C2274 C2280 1.383 . S
C2275 C2271 1.495 . S
C2275 H2281 0.959 . S
C2275 H2282 0.961 . S
C2275 H2283 0.960 . S
C2276 C2274 1.381 . S
C2276 C2277 1.394 . S
C2276 H2284 0.930 . S
C2277 C2276 1.394 . S
C2277 C2278 1.383 . S
C2277 H2285 0.929 . S
C2278 C2277 1.383 . S
C2278 C2279 1.377 . S
C2279 H2263 0.930 . S
C2279 C2278 1.377 . S
C2279 C2280 1.379 . S
C2280 H2264 0.931 . S
C2280 C2274 1.383 . S
C2280 C2279 1.379 . S
H2281 C2275 0.959 . S
H2282 C2275 0.961 . S
H2283 C2275 0.960 . S
H2284 C2276 0.930 . S
H2285 C2277 0.929 . S
H2286 C2294 0.929 . S
H2287 C2296 0.930 . S
H2288 C2298 0.930 . S
H2289 C2301 0.929 . S
H2290 C2304 0.930 . S
H2291 C2306 0.960 . S
H2292 C2306 0.960 . S
H2293 C2306 0.960 . S
C2294 H2286 0.929 . S
C2294 C2295 1.377 . S
C2294 C2296 1.384 . S
C2295 C2294 1.377 . S
C2295 C2301 1.390 . S
C2296 H2287 0.930 . S
C2296 C2294 1.384 . S
C2296 C2297 1.372 . S
C2297 C2296 1.372 . S
C2297 C2298 1.400 . S
C2297 C2302 1.490 . S
C2298 H2288 0.930 . S
C2298 C2297 1.400 . S
C2298 C2301 1.386 . S
H2299 C2315 0.930 . S
H2300 C2316 0.931 . S
C2301 H2289 0.929 . S
C2301 C2295 1.390 . S
C2301 C2298 1.386 . S
C2302 C2297 1.490 . S
C2302 C2304 1.395 . S
C2302 C2305 1.403 . S
H2303 C2309 0.930 . S
C2304 H2290 0.930 . S
C2304 C2302 1.395 . S
C2304 C2307 1.403 . S
C2305 C2302 1.403 . S
C2305 C2306 1.524 . S
C2305 C2309 1.400 . S
C2306 H2291 0.960 . S
C2306 H2292 0.960 . S
C2306 H2293 0.960 . S
C2306 C2305 1.524 . S
C2307 C2304 1.403 . S
C2307 C2308 1.392 . S
C2307 C2311 1.495 . S
C2308 C2307 1.392 . S
C2308 C2309 1.385 . S
C2308 C2310 1.478 . S
C2309 H2303 0.930 . S
C2309 C2305 1.400 . S
C2309 C2308 1.385 . S
C2310 C2308 1.478 . S
C2310 C2312 1.381 . S
C2310 C2316 1.383 . S
C2311 C2307 1.495 . S
C2311 H2317 0.959 1_545 S
C2311 H2318 0.961 . S
C2311 H2319 0.960 . S
C2312 C2310 1.381 . S
C2312 C2313 1.394 . S
C2312 H2320 0.930 . S
C2313 C2312 1.394 . S
C2313 C2314 1.383 . S
C2313 H2321 0.929 . S
C2314 C2313 1.383 . S
C2314 C2315 1.377 . S
C2315 H2299 0.930 . S
C2315 C2314 1.377 . S
C2315 C2316 1.379 . S
C2316 H2300 0.931 . S
C2316 C2310 1.383 . S
C2316 C2315 1.379 . S
H2317 C2311 0.959 1_565 S
H2318 C2311 0.961 . S
H2319 C2311 0.960 . S
H2320 C2312 0.930 . S
H2321 C2313 0.929 . S
H2322 C2330 0.929 . S
H2323 C2332 0.930 . S
H2324 C2334 0.930 . S
H2325 C2337 0.929 . S
H2326 C2340 0.930 . S
H2327 C2342 0.960 . S
H2328 C2342 0.960 . S
H2329 C2342 0.960 . S
C2330 H2322 0.929 . S
C2330 C2331 1.377 . S
C2330 C2332 1.384 . S
C2331 C2330 1.377 . S
C2331 C2337 1.390 . S
C2332 H2323 0.930 . S
C2332 C2330 1.384 . S
C2332 C2333 1.372 . S
C2333 C2332 1.372 . S
C2333 C2334 1.400 . S
C2333 C2338 1.490 . S
C2334 H2324 0.930 . S
C2334 C2333 1.400 . S
C2334 C2337 1.386 . S
H2335 C2351 0.930 . S
H2336 C2352 0.931 . S
C2337 H2325 0.929 . S
C2337 C2331 1.390 . S
C2337 C2334 1.386 . S
C2338 C2333 1.490 . S
C2338 C2340 1.395 . S
C2338 C2341 1.403 . S
H2339 C2345 0.930 . S
C2340 H2326 0.930 . S
C2340 C2338 1.395 . S
C2340 C2343 1.403 . S
C2341 C2338 1.403 . S
C2341 C2342 1.524 . S
C2341 C2345 1.400 . S
C2342 H2327 0.960 . S
C2342 H2328 0.960 . S
C2342 H2329 0.960 . S
C2342 C2341 1.524 . S
C2343 C2340 1.403 . S
C2343 C2344 1.392 . S
C2343 C2347 1.495 . S
C2344 C2343 1.392 . S
C2344 C2345 1.385 . S
C2344 C2346 1.478 . S
C2345 H2339 0.930 . S
C2345 C2341 1.400 . S
C2345 C2344 1.385 . S
C2346 C2344 1.478 . S
C2346 C2348 1.381 . S
C2346 C2352 1.383 . S
C2347 C2343 1.495 . S
C2347 H2353 0.959 . S
C2347 H2354 0.961 . S
C2347 H2355 0.960 . S
C2348 C2346 1.381 . S
C2348 C2349 1.394 . S
C2348 H2356 0.930 . S
C2349 C2348 1.394 . S
C2349 C2350 1.383 . S
C2349 H2357 0.929 . S
C2350 C2349 1.383 . S
C2350 C2351 1.377 . S
C2351 H2335 0.930 . S
C2351 C2350 1.377 . S
C2351 C2352 1.379 . S
C2352 H2336 0.931 . S
C2352 C2346 1.383 . S
C2352 C2351 1.379 . S
H2353 C2347 0.959 . S
H2354 C2347 0.961 . S
H2355 C2347 0.960 . S
H2356 C2348 0.930 . S
H2357 C2349 0.929 . S
H2358 C2366 0.929 . S
H2359 C2368 0.930 . S
H2360 C2370 0.930 . S
H2361 C2373 0.929 . S
H2362 C2376 0.930 . S
H2363 C2378 0.960 . S
H2364 C2378 0.960 . S
H2365 C2378 0.960 . S
C2366 H2358 0.929 . S
C2366 C2367 1.377 . S
C2366 C2368 1.384 . S
C2367 C2366 1.377 . S
C2367 C2373 1.390 . S
C2368 H2359 0.930 . S
C2368 C2366 1.384 . S
C2368 C2369 1.372 . S
C2369 C2368 1.372 . S
C2369 C2370 1.400 . S
C2369 C2374 1.490 . S
C2370 H2360 0.930 . S
C2370 C2369 1.400 . S
C2370 C2373 1.386 . S
H2371 C2387 0.930 . S
H2372 C2388 0.931 . S
C2373 H2361 0.929 . S
C2373 C2367 1.390 . S
C2373 C2370 1.386 . S
C2374 C2369 1.490 . S
C2374 C2376 1.395 . S
C2374 C2377 1.403 . S
H2375 C2381 0.930 . S
C2376 H2362 0.930 . S
C2376 C2374 1.395 . S
C2376 C2379 1.403 . S
C2377 C2374 1.403 . S
C2377 C2378 1.524 . S
C2377 C2381 1.400 . S
C2378 H2363 0.960 . S
C2378 H2364 0.960 . S
C2378 H2365 0.960 . S
C2378 C2377 1.524 . S
C2379 C2376 1.403 . S
C2379 C2380 1.392 . S
C2379 C2383 1.495 . S
C2380 C2379 1.392 . S
C2380 C2381 1.385 . S
C2380 C2382 1.478 . S
C2381 H2375 0.930 . S
C2381 C2377 1.400 . S
C2381 C2380 1.385 . S
C2382 C2380 1.478 . S
C2382 C2384 1.381 . S
C2382 C2388 1.383 . S
C2383 C2379 1.495 . S
C2383 H2389 0.959 . S
C2383 H2390 0.961 . S
C2383 H2391 0.960 . S
C2384 C2382 1.381 . S
C2384 C2385 1.394 . S
C2384 H2392 0.930 . S
C2385 C2384 1.394 . S
C2385 C2386 1.383 . S
C2385 H2393 0.929 . S
C2386 C2385 1.383 . S
C2386 C2387 1.377 . S
C2387 H2371 0.930 . S
C2387 C2386 1.377 . S
C2387 C2388 1.379 . S
C2388 H2372 0.931 . S
C2388 C2382 1.383 . S
C2388 C2387 1.379 . S
H2389 C2383 0.959 . S
H2390 C2383 0.961 . S
H2391 C2383 0.960 . S
H2392 C2384 0.930 . S
H2393 C2385 0.929 . S
H2394 C2402 0.929 . S
H2395 C2404 0.930 . S
H2396 C2406 0.930 . S
H2397 C2409 0.929 . S
H2398 C2412 0.930 . S
H2399 C2414 0.960 . S
H2400 C2414 0.960 . S
H2401 C2414 0.960 . S
C2402 H2394 0.929 . S
C2402 C2403 1.377 . S
C2402 C2404 1.384 . S
C2403 C2402 1.377 . S
C2403 C2409 1.390 . S
C2404 H2395 0.930 . S
C2404 C2402 1.384 . S
C2404 C2405 1.372 . S
C2405 C2404 1.372 . S
C2405 C2406 1.400 . S
C2405 C2410 1.490 . S
C2406 H2396 0.930 . S
C2406 C2405 1.400 . S
C2406 C2409 1.386 . S
H2407 C2423 0.930 . S
H2408 C2424 0.931 . S
C2409 H2397 0.929 . S
C2409 C2403 1.390 . S
C2409 C2406 1.386 . S
C2410 C2405 1.490 . S
C2410 C2412 1.395 . S
C2410 C2413 1.403 . S
H2411 C2417 0.930 . S
C2412 H2398 0.930 . S
C2412 C2410 1.395 . S
C2412 C2415 1.403 . S
C2413 C2410 1.403 . S
C2413 C2414 1.524 . S
C2413 C2417 1.400 . S
C2414 H2399 0.960 . S
C2414 H2400 0.960 . S
C2414 H2401 0.960 . S
C2414 C2413 1.524 . S
C2415 C2412 1.403 . S
C2415 C2416 1.392 . S
C2415 C2419 1.495 . S
C2416 C2415 1.392 . S
C2416 C2417 1.385 . S
C2416 C2418 1.478 . S
C2417 H2411 0.930 . S
C2417 C2413 1.400 . S
C2417 C2416 1.385 . S
C2418 C2416 1.478 . S
C2418 C2420 1.381 . S
C2418 C2424 1.383 . S
C2419 C2415 1.495 . S
C2419 H2425 0.959 . S
C2419 H2426 0.961 . S
C2419 H2427 0.960 . S
C2420 C2418 1.381 . S
C2420 C2421 1.394 . S
C2420 H2428 0.930 . S
C2421 C2420 1.394 . S
C2421 C2422 1.383 . S
C2421 H2429 0.929 . S
C2422 C2421 1.383 . S
C2422 C2423 1.377 . S
C2423 H2407 0.930 . S
C2423 C2422 1.377 . S
C2423 C2424 1.379 . S
C2424 H2408 0.931 . S
C2424 C2418 1.383 . S
C2424 C2423 1.379 . S
H2425 C2419 0.959 . S
H2426 C2419 0.961 . S
H2427 C2419 0.960 . S
H2428 C2420 0.930 . S
H2429 C2421 0.929 . S
H2430 C2438 0.929 . S
H2431 C2440 0.930 . S
H2432 C2442 0.930 . S
H2433 C2445 0.929 . S
H2434 C2448 0.930 . S
H2435 C2450 0.960 . S
H2436 C2450 0.960 . S
H2437 C2450 0.960 . S
C2438 H2430 0.929 . S
C2438 C2439 1.377 . S
C2438 C2440 1.384 . S
C2439 C2438 1.377 . S
C2439 C2445 1.390 . S
C2440 H2431 0.930 . S
C2440 C2438 1.384 . S
C2440 C2441 1.372 . S
C2441 C2440 1.372 . S
C2441 C2442 1.400 . S
C2441 C2446 1.490 . S
C2442 H2432 0.930 . S
C2442 C2441 1.400 . S
C2442 C2445 1.386 . S
H2443 C2459 0.930 . S
H2444 C2460 0.931 . S
C2445 H2433 0.929 . S
C2445 C2439 1.390 . S
C2445 C2442 1.386 . S
C2446 C2441 1.490 . S
C2446 C2448 1.395 . S
C2446 C2449 1.403 . S
H2447 C2453 0.930 . S
C2448 H2434 0.930 . S
C2448 C2446 1.395 . S
C2448 C2451 1.403 . S
C2449 C2446 1.403 . S
C2449 C2450 1.524 . S
C2449 C2453 1.400 . S
C2450 H2435 0.960 . S
C2450 H2436 0.960 . S
C2450 H2437 0.960 . S
C2450 C2449 1.524 . S
C2451 C2448 1.403 . S
C2451 C2452 1.392 . S
C2451 C2455 1.495 . S
C2452 C2451 1.392 . S
C2452 C2453 1.385 . S
C2452 C2454 1.478 . S
C2453 H2447 0.930 . S
C2453 C2449 1.400 . S
C2453 C2452 1.385 . S
C2454 C2452 1.478 . S
C2454 C2456 1.381 . S
C2454 C2460 1.383 . S
C2455 C2451 1.495 . S
C2455 H2461 0.959 . S
C2455 H2462 0.961 . S
C2455 H2463 0.960 . S
C2456 C2454 1.381 . S
C2456 C2457 1.394 . S
C2456 H2464 0.930 . S
C2457 C2456 1.394 . S
C2457 C2458 1.383 . S
C2457 H2465 0.929 . S
C2458 C2457 1.383 . S
C2458 C2459 1.377 . S
C2459 H2443 0.930 . S
C2459 C2458 1.377 . S
C2459 C2460 1.379 . S
C2460 H2444 0.931 . S
C2460 C2454 1.383 . S
C2460 C2459 1.379 . S
H2461 C2455 0.959 . S
H2462 C2455 0.961 . S
H2463 C2455 0.960 . S
H2464 C2456 0.930 . S
H2465 C2457 0.929 . S
H2466 C2474 0.929 . S
H2467 C2476 0.930 . S
H2468 C2478 0.930 . S
H2469 C2481 0.929 . S
H2470 C2484 0.930 . S
H2471 C2486 0.960 . S
H2472 C2486 0.960 . S
H2473 C2486 0.960 . S
C2474 H2466 0.929 . S
C2474 C2475 1.377 . S
C2474 C2476 1.384 . S
C2475 C2474 1.377 . S
C2475 C2481 1.390 . S
C2476 H2467 0.930 . S
C2476 C2474 1.384 . S
C2476 C2477 1.372 . S
C2477 C2476 1.372 . S
C2477 C2478 1.400 . S
C2477 C2482 1.490 . S
C2478 H2468 0.930 . S
C2478 C2477 1.400 . S
C2478 C2481 1.386 . S
H2479 C2495 0.930 . S
H2480 C2496 0.931 . S
C2481 H2469 0.929 . S
C2481 C2475 1.390 . S
C2481 C2478 1.386 . S
C2482 C2477 1.490 . S
C2482 C2484 1.395 . S
C2482 C2485 1.403 . S
H2483 C2489 0.930 . S
C2484 H2470 0.930 . S
C2484 C2482 1.395 . S
C2484 C2487 1.403 . S
C2485 C2482 1.403 . S
C2485 C2486 1.524 . S
C2485 C2489 1.400 . S
C2486 H2471 0.960 . S
C2486 H2472 0.960 . S
C2486 H2473 0.960 . S
C2486 C2485 1.524 . S
C2487 C2484 1.403 . S
C2487 C2488 1.392 . S
C2487 C2491 1.495 . S
C2488 C2487 1.392 . S
C2488 C2489 1.385 . S
C2488 C2490 1.478 . S
C2489 H2483 0.930 . S
C2489 C2485 1.400 . S
C2489 C2488 1.385 . S
C2490 C2488 1.478 . S
C2490 C2492 1.381 . S
C2490 C2496 1.383 . S
C2491 C2487 1.495 . S
C2491 H2497 0.959 . S
C2491 H2498 0.961 . S
C2491 H2499 0.960 . S
C2492 C2490 1.381 . S
C2492 C2493 1.394 . S
C2492 H2500 0.930 . S
C2493 C2492 1.394 . S
C2493 C2494 1.383 . S
C2493 H2501 0.929 . S
C2494 C2493 1.383 . S
C2494 C2495 1.377 . S
C2495 H2479 0.930 . S
C2495 C2494 1.377 . S
C2495 C2496 1.379 . S
C2496 H2480 0.931 . S
C2496 C2490 1.383 . S
C2496 C2495 1.379 . S
H2497 C2491 0.959 . S
H2498 C2491 0.961 . S
H2499 C2491 0.960 . S
H2500 C2492 0.930 . S
H2501 C2493 0.929 . S
H2502 C2510 0.929 . S
H2503 C2512 0.930 . S
H2504 C2514 0.930 . S
H2505 C2517 0.929 . S
H2506 C2520 0.930 . S
H2507 C2522 0.960 . S
H2508 C2522 0.960 . S
H2509 C2522 0.960 . S
C2510 H2502 0.929 . S
C2510 C2511 1.377 . S
C2510 C2512 1.384 . S
C2511 C2510 1.377 . S
C2511 C2517 1.390 . S
C2512 H2503 0.930 . S
C2512 C2510 1.384 . S
C2512 C2513 1.372 . S
C2513 C2512 1.372 . S
C2513 C2514 1.400 . S
C2513 C2518 1.490 . S
C2514 H2504 0.930 . S
C2514 C2513 1.400 . S
C2514 C2517 1.386 . S
H2515 C2531 0.930 . S
H2516 C2532 0.931 . S
C2517 H2505 0.929 . S
C2517 C2511 1.390 . S
C2517 C2514 1.386 . S
C2518 C2513 1.490 . S
C2518 C2520 1.395 . S
C2518 C2521 1.403 . S
H2519 C2525 0.930 1_554 S
C2520 H2506 0.930 . S
C2520 C2518 1.395 . S
C2520 C2523 1.403 . S
C2521 C2518 1.403 . S
C2521 C2522 1.524 . S
C2521 C2525 1.400 . S
C2522 H2507 0.960 . S
C2522 H2508 0.960 . S
C2522 H2509 0.960 . S
C2522 C2521 1.524 . S
C2523 C2520 1.403 . S
C2523 C2524 1.392 . S
C2523 C2527 1.495 . S
C2524 C2523 1.392 . S
C2524 C2525 1.385 . S
C2524 C2526 1.478 1_556 S
C2525 H2519 0.930 1_556 S
C2525 C2521 1.400 . S
C2525 C2524 1.385 . S
C2526 C2524 1.478 1_554 S
C2526 C2528 1.381 . S
C2526 C2532 1.383 . S
C2527 C2523 1.495 . S
C2527 H2533 0.959 . S
C2527 H2534 0.961 1_556 S
C2527 H2535 0.960 . S
C2528 C2526 1.381 . S
C2528 C2529 1.394 . S
C2528 H2536 0.982 . S
C2529 C2528 1.394 . S
C2529 C2530 1.383 . S
C2529 H2537 0.929 . S
C2530 C2529 1.383 . S
C2530 C2531 1.377 . S
C2531 H2515 0.930 . S
C2531 C2530 1.377 . S
C2531 C2532 1.379 . S
C2532 H2516 0.931 . S
C2532 C2526 1.383 . S
C2532 C2531 1.379 . S
H2533 C2527 0.959 . S
H2534 C2527 0.961 1_554 S
H2535 C2527 0.960 . S
H2536 C2528 0.982 . S
H2537 C2529 0.929 . S
H2538 C2546 0.929 . S
H2539 C2548 0.930 . S
H2540 C2550 0.930 . S
H2541 C2553 0.929 . S
H2542 C2556 0.930 . S
H2543 C2558 0.960 . S
H2544 C2558 0.960 . S
H2545 C2558 0.960 . S
C2546 H2538 0.929 . S
C2546 C2547 1.377 . S
C2546 C2548 1.384 . S
C2547 C2546 1.377 . S
C2547 C2553 1.390 . S
C2548 H2539 0.930 . S
C2548 C2546 1.384 . S
C2548 C2549 1.372 . S
C2549 C2548 1.372 . S
C2549 C2550 1.400 . S
C2549 C2554 1.490 . S
C2550 H2540 0.930 . S
C2550 C2549 1.400 . S
C2550 C2553 1.386 . S
H2551 C2567 0.930 . S
H2552 C2568 0.931 . S
C2553 H2541 0.929 . S
C2553 C2547 1.390 . S
C2553 C2550 1.386 . S
C2554 C2549 1.490 . S
C2554 C2556 1.395 . S
C2554 C2557 1.403 . S
H2555 C2561 0.930 . S
C2556 H2542 0.930 . S
C2556 C2554 1.395 . S
C2556 C2559 1.403 . S
C2557 C2554 1.403 . S
C2557 C2558 1.524 . S
C2557 C2561 1.400 . S
C2558 H2543 0.960 . S
C2558 H2544 0.960 . S
C2558 H2545 0.960 . S
C2558 C2557 1.524 . S
C2559 C2556 1.403 . S
C2559 C2560 1.392 . S
C2559 C2563 1.495 1_556 S
C2560 C2559 1.392 . S
C2560 C2561 1.385 . S
C2560 C2562 1.478 1_556 S
C2561 H2555 0.930 . S
C2561 C2557 1.400 . S
C2561 C2560 1.385 . S
C2562 C2560 1.478 1_554 S
C2562 C2564 1.381 . S
C2562 C2568 1.383 . S
C2563 C2559 1.495 1_554 S
C2563 H2569 0.959 . S
C2563 H2570 0.961 . S
C2563 H2571 0.960 . S
C2564 C2562 1.381 . S
C2564 C2565 1.394 . S
C2564 H2572 0.930 . S
C2565 C2564 1.394 . S
C2565 C2566 1.383 . S
C2565 H2573 0.929 . S
C2566 C2565 1.383 . S
C2566 C2567 1.377 . S
C2567 H2551 0.930 . S
C2567 C2566 1.377 . S
C2567 C2568 1.379 . S
C2568 H2552 0.931 . S
C2568 C2562 1.383 . S
C2568 C2567 1.379 . S
H2569 C2563 0.959 . S
H2570 C2563 0.961 . S
H2571 C2563 0.960 . S
H2572 C2564 0.930 . S
H2573 C2565 0.929 . S
H2574 C2582 0.929 . S
H2575 C2584 0.930 . S
H2576 C2586 0.930 . S
H2577 C2589 0.929 . S
H2578 C2592 0.930 . S
H2579 C2594 0.960 . S
H2580 C2594 0.960 . S
H2581 C2594 0.960 . S
C2582 H2574 0.929 . S
C2582 C2583 1.377 . S
C2582 C2584 1.384 . S
C2583 C2582 1.377 . S
C2583 C2589 1.390 . S
C2584 H2575 0.930 . S
C2584 C2582 1.384 . S
C2584 C2585 1.372 . S
C2585 C2584 1.372 . S
C2585 C2586 1.400 . S
C2585 C2590 1.490 . S
C2586 H2576 0.930 . S
C2586 C2585 1.400 . S
C2586 C2589 1.386 . S
H2587 C2603 0.930 . S
H2588 C2604 0.931 . S
C2589 H2577 0.929 . S
C2589 C2583 1.390 . S
C2589 C2586 1.386 . S
C2590 C2585 1.490 . S
C2590 C2592 1.395 . S
C2590 C2593 1.403 . S
H2591 C2597 0.930 . S
C2592 H2578 0.930 . S
C2592 C2590 1.395 . S
C2592 C2595 1.403 1_556 S
C2593 C2590 1.403 . S
C2593 C2594 1.524 . S
C2593 C2597 1.400 . S
C2594 H2579 0.960 . S
C2594 H2580 0.960 . S
C2594 H2581 0.960 . S
C2594 C2593 1.524 . S
C2595 C2592 1.403 1_554 S
C2595 C2596 1.392 . S
C2595 C2599 1.495 . S
C2596 C2595 1.392 . S
C2596 C2597 1.385 1_554 S
C2596 C2598 1.478 . S
C2597 H2591 0.930 . S
C2597 C2593 1.400 . S
C2597 C2596 1.385 1_556 S
C2598 C2596 1.478 . S
C2598 C2600 1.381 . S
C2598 C2604 1.383 . S
C2599 C2595 1.495 . S
C2599 H2605 0.959 . S
C2599 H2606 0.961 . S
C2599 H2607 0.960 . S
C2600 C2598 1.381 . S
C2600 C2601 1.394 . S
C2600 H2608 0.930 . S
C2601 C2600 1.394 . S
C2601 C2602 1.383 . S
C2601 H2609 0.929 . S
C2602 C2601 1.383 . S
C2602 C2603 1.377 . S
C2603 H2587 0.930 . S
C2603 C2602 1.377 . S
C2603 C2604 1.379 . S
C2604 H2588 0.931 . S
C2604 C2598 1.383 . S
C2604 C2603 1.379 . S
H2605 C2599 0.959 . S
H2606 C2599 0.961 . S
H2607 C2599 0.960 . S
H2608 C2600 0.930 . S
H2609 C2601 0.929 . S
H2610 C2618 0.929 . S
H2611 C2620 0.930 . S
H2612 C2622 0.930 . S
H2613 C2625 0.929 . S
H2614 C2628 0.930 . S
H2615 C2630 0.960 . S
H2616 C2630 0.960 . S
H2617 C2630 0.960 . S
C2618 H2610 0.929 . S
C2618 C2619 1.377 . S
C2618 C2620 1.384 . S
C2619 C2618 1.377 . S
C2619 C2625 1.390 . S
C2620 H2611 0.930 . S
C2620 C2618 1.384 . S
C2620 C2621 1.372 . S
C2621 C2620 1.372 . S
C2621 C2622 1.400 . S
C2621 C2626 1.490 . S
C2622 H2612 0.930 . S
C2622 C2621 1.400 . S
C2622 C2625 1.386 . S
H2623 C2639 0.930 . S
H2624 C2640 0.931 . S
C2625 H2613 0.929 . S
C2625 C2619 1.390 . S
C2625 C2622 1.386 . S
C2626 C2621 1.490 . S
C2626 C2628 1.395 . S
C2626 C2629 1.403 . S
H2627 C2633 0.930 . S
C2628 H2614 0.930 . S
C2628 C2626 1.395 . S
C2628 C2631 1.403 . S
C2629 C2626 1.403 . S
C2629 C2630 1.524 . S
C2629 C2633 1.400 . S
C2630 H2615 0.960 . S
C2630 H2616 0.960 . S
C2630 H2617 0.960 . S
C2630 C2629 1.524 . S
C2631 C2628 1.403 . S
C2631 C2632 1.392 . S
C2631 C2635 1.495 . S
C2632 C2631 1.392 . S
C2632 C2633 1.385 . S
C2632 C2634 1.478 . S
C2633 H2627 0.930 . S
C2633 C2629 1.400 . S
C2633 C2632 1.385 . S
C2634 C2632 1.478 . S
C2634 C2636 1.381 . S
C2634 C2640 1.383 . S
C2635 C2631 1.495 . S
C2635 H2641 0.959 . S
C2635 H2642 0.961 . S
C2635 H2643 0.960 . S
C2636 C2634 1.381 . S
C2636 C2637 1.394 . S
C2636 H2644 0.930 . S
C2637 C2636 1.394 . S
C2637 C2638 1.383 . S
C2637 H2645 0.929 . S
C2638 C2637 1.383 . S
C2638 C2639 1.377 . S
C2639 H2623 0.930 . S
C2639 C2638 1.377 . S
C2639 C2640 1.379 . S
C2640 H2624 0.931 . S
C2640 C2634 1.383 . S
C2640 C2639 1.379 . S
H2641 C2635 0.959 . S
H2642 C2635 0.961 . S
H2643 C2635 0.960 . S
H2644 C2636 0.930 . S
H2645 C2637 0.929 . S
H2646 C2654 0.929 . S
H2647 C2656 0.930 . S
H2648 C2658 0.930 . S
H2649 C2661 0.929 . S
H2650 C2664 0.930 . S
H2651 C2666 0.960 . S
H2652 C2666 0.960 . S
H2653 C2666 0.960 . S
C2654 H2646 0.929 . S
C2654 C2655 1.377 . S
C2654 C2656 1.384 . S
C2655 C2654 1.377 . S
C2655 C2661 1.390 . S
C2656 H2647 0.930 . S
C2656 C2654 1.384 . S
C2656 C2657 1.372 . S
C2657 C2656 1.372 . S
C2657 C2658 1.400 . S
C2657 C2662 1.490 . S
C2658 H2648 0.930 . S
C2658 C2657 1.400 . S
C2658 C2661 1.386 . S
H2659 C2675 0.930 . S
H2660 C2676 0.931 . S
C2661 H2649 0.929 . S
C2661 C2655 1.390 . S
C2661 C2658 1.386 . S
C2662 C2657 1.490 . S
C2662 C2664 1.395 . S
C2662 C2665 1.403 . S
H2663 C2669 0.930 . S
C2664 H2650 0.930 . S
C2664 C2662 1.395 . S
C2664 C2667 1.403 . S
C2665 C2662 1.403 . S
C2665 C2666 1.524 . S
C2665 C2669 1.400 . S
C2666 H2651 0.960 . S
C2666 H2652 0.960 . S
C2666 H2653 0.960 . S
C2666 C2665 1.524 . S
C2667 C2664 1.403 . S
C2667 C2668 1.392 . S
C2667 C2671 1.495 . S
C2668 C2667 1.392 . S
C2668 C2669 1.385 . S
C2668 C2670 1.478 . S
C2669 H2663 0.930 . S
C2669 C2665 1.400 . S
C2669 C2668 1.385 . S
C2670 C2668 1.478 . S
C2670 C2672 1.381 . S
C2670 C2676 1.383 . S
C2671 C2667 1.495 . S
C2671 H2677 0.959 . S
C2671 H2678 0.961 . S
C2671 H2679 0.960 . S
C2672 C2670 1.381 . S
C2672 C2673 1.394 . S
C2672 H2680 0.930 . S
C2673 C2672 1.394 . S
C2673 C2674 1.383 . S
C2673 H2681 0.929 . S
C2674 C2673 1.383 . S
C2674 C2675 1.377 . S
C2675 H2659 0.930 . S
C2675 C2674 1.377 . S
C2675 C2676 1.379 . S
C2676 H2660 0.931 . S
C2676 C2670 1.383 . S
C2676 C2675 1.379 . S
H2677 C2671 0.959 . S
H2678 C2671 0.961 . S
H2679 C2671 0.960 . S
H2680 C2672 0.930 . S
H2681 C2673 0.929 . S
H2682 C2690 0.929 . S
H2683 C2692 0.930 . S
H2684 C2694 0.930 . S
H2685 C2697 0.929 . S
H2686 C2700 0.930 . S
H2687 C2702 0.960 . S
H2688 C2702 0.960 . S
H2689 C2702 0.960 . S
C2690 H2682 0.929 . S
C2690 C2691 1.377 . S
C2690 C2692 1.384 . S
C2691 C2690 1.377 . S
C2691 C2697 1.390 . S
C2692 H2683 0.930 . S
C2692 C2690 1.384 . S
C2692 C2693 1.372 . S
C2693 C2692 1.372 . S
C2693 C2694 1.400 . S
C2693 C2698 1.490 . S
C2694 H2684 0.930 . S
C2694 C2693 1.400 . S
C2694 C2697 1.386 . S
H2695 C2711 0.930 . S
H2696 C2712 0.931 . S
C2697 H2685 0.929 . S
C2697 C2691 1.390 . S
C2697 C2694 1.386 . S
C2698 C2693 1.490 . S
C2698 C2700 1.395 . S
C2698 C2701 1.403 . S
H2699 C2705 0.930 . S
C2700 H2686 0.930 . S
C2700 C2698 1.395 . S
C2700 C2703 1.403 . S
C2701 C2698 1.403 . S
C2701 C2702 1.524 . S
C2701 C2705 1.400 . S
C2702 H2687 0.960 . S
C2702 H2688 0.960 . S
C2702 H2689 0.960 . S
C2702 C2701 1.524 . S
C2703 C2700 1.403 . S
C2703 C2704 1.392 . S
C2703 C2707 1.495 . S
C2704 C2703 1.392 . S
C2704 C2705 1.385 . S
C2704 C2706 1.478 . S
C2705 H2699 0.930 . S
C2705 C2701 1.400 . S
C2705 C2704 1.385 . S
C2706 C2704 1.478 . S
C2706 C2708 1.381 . S
C2706 C2712 1.383 . S
C2707 C2703 1.495 . S
C2707 H2713 0.959 . S
C2707 H2714 0.961 . S
C2707 H2715 0.960 . S
C2708 C2706 1.381 . S
C2708 C2709 1.394 . S
C2708 H2716 0.930 . S
C2709 C2708 1.394 . S
C2709 C2710 1.383 . S
C2709 H2717 0.929 . S
C2710 C2709 1.383 . S
C2710 C2711 1.377 . S
C2711 H2695 0.930 . S
C2711 C2710 1.377 . S
C2711 C2712 1.379 . S
C2712 H2696 0.931 . S
C2712 C2706 1.383 . S
C2712 C2711 1.379 . S
H2713 C2707 0.959 . S
H2714 C2707 0.961 . S
H2715 C2707 0.960 . S
H2716 C2708 0.930 . S
H2717 C2709 0.929 . S
H2718 C2726 0.929 . S
H2719 C2728 0.930 . S
H2720 C2730 0.930 . S
H2721 C2733 0.929 . S
H2722 C2736 0.930 . S
H2723 C2738 0.960 . S
H2724 C2738 0.960 . S
H2725 C2738 0.960 . S
C2726 H2718 0.929 . S
C2726 C2727 1.377 . S
C2726 C2728 1.384 . S
C2727 C2726 1.377 . S
C2727 C2733 1.390 . S
C2728 H2719 0.930 . S
C2728 C2726 1.384 . S
C2728 C2729 1.372 . S
C2729 C2728 1.372 . S
C2729 C2730 1.400 . S
C2729 C2734 1.490 . S
C2730 H2720 0.930 . S
C2730 C2729 1.400 . S
C2730 C2733 1.386 . S
H2731 C2747 0.930 . S
H2732 C2748 0.931 . S
C2733 H2721 0.929 . S
C2733 C2727 1.390 . S
C2733 C2730 1.386 . S
C2734 C2729 1.490 . S
C2734 C2736 1.395 . S
C2734 C2737 1.403 . S
H2735 C2741 0.930 . S
C2736 H2722 0.930 . S
C2736 C2734 1.395 . S
C2736 C2739 1.403 . S
C2737 C2734 1.403 . S
C2737 C2738 1.524 . S
C2737 C2741 1.400 . S
C2738 H2723 0.960 . S
C2738 H2724 0.960 . S
C2738 H2725 0.960 . S
C2738 C2737 1.524 . S
C2739 C2736 1.403 . S
C2739 C2740 1.392 . S
C2739 C2743 1.495 . S
C2740 C2739 1.392 . S
C2740 C2741 1.385 . S
C2740 C2742 1.478 . S
C2741 H2735 0.930 . S
C2741 C2737 1.400 . S
C2741 C2740 1.385 . S
C2742 C2740 1.478 . S
C2742 C2744 1.381 . S
C2742 C2748 1.383 . S
C2743 C2739 1.495 . S
C2743 H2749 0.959 . S
C2743 H2750 0.961 . S
C2743 H2751 0.960 . S
C2744 C2742 1.381 . S
C2744 C2745 1.394 . S
C2744 H2752 0.930 . S
C2745 C2744 1.394 . S
C2745 C2746 1.383 . S
C2745 H2753 0.929 . S
C2746 C2745 1.383 . S
C2746 C2747 1.377 . S
C2747 H2731 0.930 . S
C2747 C2746 1.377 . S
C2747 C2748 1.379 . S
C2748 H2732 0.931 . S
C2748 C2742 1.383 . S
C2748 C2747 1.379 . S
H2749 C2743 0.959 . S
H2750 C2743 0.961 . S
H2751 C2743 0.960 . S
H2752 C2744 0.930 . S
H2753 C2745 0.929 . S
H2754 C2762 0.929 . S
H2755 C2764 0.930 . S
H2756 C2766 0.930 . S
H2757 C2769 0.929 . S
H2758 C2772 0.930 . S
H2759 C2774 0.960 . S
H2760 C2774 0.960 . S
H2761 C2774 0.960 . S
C2762 H2754 0.929 . S
C2762 C2763 1.377 . S
C2762 C2764 1.384 . S
C2763 C2762 1.377 . S
C2763 C2769 1.390 . S
C2764 H2755 0.930 . S
C2764 C2762 1.384 . S
C2764 C2765 1.372 . S
C2765 C2764 1.372 . S
C2765 C2766 1.400 . S
C2765 C2770 1.490 . S
C2766 H2756 0.930 . S
C2766 C2765 1.400 . S
C2766 C2769 1.386 . S
H2767 C2783 0.930 . S
H2768 C2784 0.931 . S
C2769 H2757 0.929 . S
C2769 C2763 1.390 . S
C2769 C2766 1.386 . S
C2770 C2765 1.490 . S
C2770 C2772 1.395 . S
C2770 C2773 1.403 . S
H2771 C2777 0.930 . S
C2772 H2758 0.930 . S
C2772 C2770 1.395 . S
C2772 C2775 1.403 . S
C2773 C2770 1.403 . S
C2773 C2774 1.524 . S
C2773 C2777 1.400 . S
C2774 H2759 0.960 . S
C2774 H2760 0.960 . S
C2774 H2761 0.960 . S
C2774 C2773 1.524 . S
C2775 C2772 1.403 . S
C2775 C2776 1.392 . S
C2775 C2779 1.495 . S
C2776 C2775 1.392 . S
C2776 C2777 1.385 . S
C2776 C2778 1.478 . S
C2777 H2771 0.930 . S
C2777 C2773 1.400 . S
C2777 C2776 1.385 . S
C2778 C2776 1.478 . S
C2778 C2780 1.381 . S
C2778 C2784 1.383 . S
C2779 C2775 1.495 . S
C2779 H2785 0.959 . S
C2779 H2786 0.961 . S
C2779 H2787 0.960 . S
C2780 C2778 1.381 . S
C2780 C2781 1.394 . S
C2780 H2788 0.930 . S
C2781 C2780 1.394 . S
C2781 C2782 1.383 . S
C2781 H2789 0.929 . S
C2782 C2781 1.383 . S
C2782 C2783 1.377 . S
C2783 H2767 0.930 . S
C2783 C2782 1.377 . S
C2783 C2784 1.379 . S
C2784 H2768 0.931 . S
C2784 C2778 1.383 . S
C2784 C2783 1.379 . S
H2785 C2779 0.959 . S
H2786 C2779 0.961 . S
H2787 C2779 0.960 . S
H2788 C2780 0.930 . S
H2789 C2781 0.929 . S
H2790 C2798 0.929 . S
H2791 C2800 0.930 . S
H2792 C2802 0.930 . S
H2793 C2805 0.929 . S
H2794 C2808 0.930 . S
H2795 C2810 0.960 . S
H2796 C2810 0.960 . S
H2797 C2810 0.960 . S
C2798 H2790 0.929 . S
C2798 C2799 1.377 . S
C2798 C2800 1.384 . S
C2799 C2798 1.377 . S
C2799 C2805 1.390 . S
C2800 H2791 0.930 . S
C2800 C2798 1.384 . S
C2800 C2801 1.372 . S
C2801 C2800 1.372 . S
C2801 C2802 1.400 . S
C2801 C2806 1.490 . S
C2802 H2792 0.930 . S
C2802 C2801 1.400 . S
C2802 C2805 1.386 . S
H2803 C2819 0.930 . S
H2804 C2820 0.931 . S
C2805 H2793 0.929 . S
C2805 C2799 1.390 . S
C2805 C2802 1.386 . S
C2806 C2801 1.490 . S
C2806 C2808 1.395 . S
C2806 C2809 1.403 . S
H2807 C2813 0.930 . S
C2808 H2794 0.930 . S
C2808 C2806 1.395 . S
C2808 C2811 1.403 . S
C2809 C2806 1.403 . S
C2809 C2810 1.524 . S
C2809 C2813 1.400 . S
C2810 H2795 0.960 . S
C2810 H2796 0.960 . S
C2810 H2797 0.960 . S
C2810 C2809 1.524 . S
C2811 C2808 1.403 . S
C2811 C2812 1.392 . S
C2811 C2815 1.495 . S
C2812 C2811 1.392 . S
C2812 C2813 1.385 . S
C2812 C2814 1.478 . S
C2813 H2807 0.930 . S
C2813 C2809 1.400 . S
C2813 C2812 1.385 . S
C2814 C2812 1.478 . S
C2814 C2816 1.381 . S
C2814 C2820 1.383 . S
C2815 C2811 1.495 . S
C2815 H2821 0.959 . S
C2815 H2822 0.961 . S
C2815 H2823 0.960 . S
C2816 C2814 1.381 . S
C2816 C2817 1.394 . S
C2816 H2824 0.930 . S
C2817 C2816 1.394 . S
C2817 C2818 1.383 . S
C2817 H2825 0.929 . S
C2818 C2817 1.383 . S
C2818 C2819 1.377 . S
C2819 H2803 0.930 . S
C2819 C2818 1.377 . S
C2819 C2820 1.379 . S
C2820 H2804 0.931 . S
C2820 C2814 1.383 . S
C2820 C2819 1.379 . S
H2821 C2815 0.959 . S
H2822 C2815 0.961 . S
H2823 C2815 0.960 . S
H2824 C2816 0.930 . S
H2825 C2817 0.929 . S
H2826 C2834 0.929 . S
H2827 C2836 0.930 . S
H2828 C2838 0.930 . S
H2829 C2841 0.929 . S
H2830 C2844 0.930 . S
H2831 C2846 0.960 . S
H2832 C2846 0.960 . S
H2833 C2846 0.960 . S
C2834 H2826 0.929 . S
C2834 C2835 1.377 . S
C2834 C2836 1.384 . S
C2835 C2834 1.377 . S
C2835 C2841 1.390 . S
C2836 H2827 0.930 . S
C2836 C2834 1.384 . S
C2836 C2837 1.372 . S
C2837 C2836 1.372 . S
C2837 C2838 1.400 . S
C2837 C2842 1.490 . S
C2838 H2828 0.930 . S
C2838 C2837 1.400 . S
C2838 C2841 1.386 . S
H2839 C2855 0.930 . S
H2840 C2856 0.931 . S
C2841 H2829 0.929 . S
C2841 C2835 1.390 . S
C2841 C2838 1.386 . S
C2842 C2837 1.490 . S
C2842 C2844 1.395 . S
C2842 C2845 1.403 . S
H2843 C2849 0.930 . S
C2844 H2830 0.930 . S
C2844 C2842 1.395 . S
C2844 C2847 1.403 . S
C2845 C2842 1.403 . S
C2845 C2846 1.524 . S
C2845 C2849 1.400 . S
C2846 H2831 0.960 . S
C2846 H2832 0.960 . S
C2846 H2833 0.960 . S
C2846 C2845 1.524 . S
C2847 C2844 1.403 . S
C2847 C2848 1.392 . S
C2847 C2851 1.495 . S
C2848 C2847 1.392 . S
C2848 C2849 1.385 . S
C2848 C2850 1.478 . S
C2849 H2843 0.930 . S
C2849 C2845 1.400 . S
C2849 C2848 1.385 . S
C2850 C2848 1.478 . S
C2850 C2852 1.381 . S
C2850 C2856 1.383 . S
C2851 C2847 1.495 . S
C2851 H2857 0.959 . S
C2851 H2858 0.961 . S
C2851 H2859 0.960 . S
C2852 C2850 1.381 . S
C2852 C2853 1.394 . S
C2852 H2860 0.930 . S
C2853 C2852 1.394 . S
C2853 C2854 1.383 . S
C2853 H2861 0.929 . S
C2854 C2853 1.383 . S
C2854 C2855 1.377 . S
C2855 H2839 0.930 . S
C2855 C2854 1.377 . S
C2855 C2856 1.379 . S
C2856 H2840 0.931 . S
C2856 C2850 1.383 . S
C2856 C2855 1.379 . S
H2857 C2851 0.959 . S
H2858 C2851 0.961 . S
H2859 C2851 0.960 . S
H2860 C2852 0.930 . S
H2861 C2853 0.929 . S
H2862 C2870 0.929 . S
H2863 C2872 0.930 . S
H2864 C2874 0.930 . S
H2865 C2877 0.929 . S
H2866 C2880 0.930 . S
H2867 C2882 0.960 . S
H2868 C2882 0.960 . S
H2869 C2882 0.960 . S
C2870 H2862 0.929 . S
C2870 C2871 1.377 . S
C2870 C2872 1.384 . S
C2871 C2870 1.377 . S
C2871 C2877 1.390 . S
C2872 H2863 0.930 . S
C2872 C2870 1.384 . S
C2872 C2873 1.372 . S
C2873 C2872 1.372 . S
C2873 C2874 1.400 . S
C2873 C2878 1.490 . S
C2874 H2864 0.930 . S
C2874 C2873 1.400 . S
C2874 C2877 1.386 . S
H2875 C2891 0.930 . S
H2876 C2892 0.931 . S
C2877 H2865 0.929 . S
C2877 C2871 1.390 . S
C2877 C2874 1.386 . S
C2878 C2873 1.490 . S
C2878 C2880 1.395 . S
C2878 C2881 1.403 . S
H2879 C2885 0.930 . S
C2880 H2866 0.930 . S
C2880 C2878 1.395 . S
C2880 C2883 1.403 . S
C2881 C2878 1.403 . S
C2881 C2882 1.524 . S
C2881 C2885 1.400 . S
C2882 H2867 0.960 . S
C2882 H2868 0.960 . S
C2882 H2869 0.960 . S
C2882 C2881 1.524 . S
C2883 C2880 1.403 . S
C2883 C2884 1.392 . S
C2883 C2887 1.495 . S
C2884 C2883 1.392 . S
C2884 C2885 1.385 . S
C2884 C2886 1.478 . S
C2885 H2879 0.930 . S
C2885 C2881 1.400 . S
C2885 C2884 1.385 . S
C2886 C2884 1.478 . S
C2886 C2888 1.381 . S
C2886 C2892 1.383 . S
C2887 C2883 1.495 . S
C2887 H2893 0.959 . S
C2887 H2894 0.961 . S
C2887 H2895 0.960 . S
C2888 C2886 1.381 . S
C2888 C2889 1.394 . S
C2888 H2896 0.930 . S
C2889 C2888 1.394 . S
C2889 C2890 1.383 . S
C2889 H2897 0.929 . S
C2890 C2889 1.383 . S
C2890 C2891 1.377 . S
C2891 H2875 0.930 . S
C2891 C2890 1.377 . S
C2891 C2892 1.379 . S
C2892 H2876 0.931 . S
C2892 C2886 1.383 . S
C2892 C2891 1.379 . S
H2893 C2887 0.959 . S
H2894 C2887 0.961 . S
H2895 C2887 0.960 . S
H2896 C2888 0.930 . S
H2897 C2889 0.929 . S
H2898 C2906 0.929 . S
H2899 C2908 0.930 . S
H2900 C2910 0.930 . S
H2901 C2913 0.929 . S
H2902 C2916 0.930 . S
H2903 C2918 0.960 . S
H2904 C2918 0.960 . S
H2905 C2918 0.960 . S
C2906 H2898 0.929 . S
C2906 C2907 1.377 . S
C2906 C2908 1.384 . S
C2907 C2906 1.377 . S
C2907 C2913 1.390 . S
C2908 H2899 0.930 . S
C2908 C2906 1.384 . S
C2908 C2909 1.372 . S
C2909 C2908 1.372 . S
C2909 C2910 1.400 . S
C2909 C2914 1.490 . S
C2910 H2900 0.930 . S
C2910 C2909 1.400 . S
C2910 C2913 1.386 . S
H2911 C2927 0.930 . S
H2912 C2928 0.931 . S
C2913 H2901 0.929 . S
C2913 C2907 1.390 . S
C2913 C2910 1.386 . S
C2914 C2909 1.490 . S
C2914 C2916 1.395 . S
C2914 C2917 1.403 . S
H2915 C2921 0.930 . S
C2916 H2902 0.930 . S
C2916 C2914 1.395 . S
C2916 C2919 1.403 . S
C2917 C2914 1.403 . S
C2917 C2918 1.524 . S
C2917 C2921 1.400 . S
C2918 H2903 0.960 . S
C2918 H2904 0.960 . S
C2918 H2905 0.960 . S
C2918 C2917 1.524 . S
C2919 C2916 1.403 . S
C2919 C2920 1.392 . S
C2919 C2923 1.495 . S
C2920 C2919 1.392 . S
C2920 C2921 1.385 . S
C2920 C2922 1.478 . S
C2921 H2915 0.930 . S
C2921 C2917 1.400 . S
C2921 C2920 1.385 . S
C2922 C2920 1.478 . S
C2922 C2924 1.381 . S
C2922 C2928 1.383 . S
C2923 C2919 1.495 . S
C2923 H2929 0.959 . S
C2923 H2930 0.961 . S
C2923 H2931 0.960 . S
C2924 C2922 1.381 . S
C2924 C2925 1.394 . S
C2924 H2932 0.930 . S
C2925 C2924 1.394 . S
C2925 C2926 1.383 . S
C2925 H2933 0.929 . S
C2926 C2925 1.383 . S
C2926 C2927 1.377 . S
C2927 H2911 0.930 . S
C2927 C2926 1.377 . S
C2927 C2928 1.379 . S
C2928 H2912 0.931 . S
C2928 C2922 1.383 . S
C2928 C2927 1.379 . S
H2929 C2923 0.959 . S
H2930 C2923 0.961 . S
H2931 C2923 0.960 . S
H2932 C2924 0.930 . S
H2933 C2925 0.929 . S
H2934 C2942 0.929 . S
H2935 C2944 0.930 . S
H2936 C2946 0.930 . S
H2937 C2949 0.929 . S
H2938 C2952 0.930 . S
H2939 C2954 0.960 . S
H2940 C2954 0.960 . S
H2941 C2954 0.960 . S
C2942 H2934 0.929 . S
C2942 C2943 1.377 . S
C2942 C2944 1.384 . S
C2943 C2942 1.377 . S
C2943 C2949 1.390 . S
C2944 H2935 0.930 . S
C2944 C2942 1.384 . S
C2944 C2945 1.372 . S
C2945 C2944 1.372 . S
C2945 C2946 1.400 . S
C2945 C2950 1.490 . S
C2946 H2936 0.930 . S
C2946 C2945 1.400 . S
C2946 C2949 1.386 . S
H2947 C2963 0.930 . S
H2948 C2964 0.931 . S
C2949 H2937 0.929 . S
C2949 C2943 1.390 . S
C2949 C2946 1.386 . S
C2950 C2945 1.490 . S
C2950 C2952 1.395 . S
C2950 C2953 1.403 . S
H2951 C2957 0.930 . S
C2952 H2938 0.930 . S
C2952 C2950 1.395 . S
C2952 C2955 1.403 . S
C2953 C2950 1.403 . S
C2953 C2954 1.524 . S
C2953 C2957 1.400 . S
C2954 H2939 0.960 . S
C2954 H2940 0.960 . S
C2954 H2941 0.960 . S
C2954 C2953 1.524 . S
C2955 C2952 1.403 . S
C2955 C2956 1.392 . S
C2955 C2959 1.495 . S
C2956 C2955 1.392 . S
C2956 C2957 1.385 . S
C2956 C2958 1.478 . S
C2957 H2951 0.930 . S
C2957 C2953 1.400 . S
C2957 C2956 1.385 . S
C2958 C2956 1.478 . S
C2958 C2960 1.381 . S
C2958 C2964 1.383 . S
C2959 C2955 1.495 . S
C2959 H2965 0.959 . S
C2959 H2966 0.961 . S
C2959 H2967 0.960 . S
C2960 C2958 1.381 . S
C2960 C2961 1.394 . S
C2960 H2968 0.930 . S
C2961 C2960 1.394 . S
C2961 C2962 1.383 . S
C2961 H2969 0.929 . S
C2962 C2961 1.383 . S
C2962 C2963 1.377 . S
C2963 H2947 0.930 . S
C2963 C2962 1.377 . S
C2963 C2964 1.379 . S
C2964 H2948 0.931 . S
C2964 C2958 1.383 . S
C2964 C2963 1.379 . S
H2965 C2959 0.959 . S
H2966 C2959 0.961 . S
H2967 C2959 0.960 . S
H2968 C2960 0.930 . S
H2969 C2961 0.929 . S
H2970 C2978 0.929 . S
H2971 C2980 0.930 . S
H2972 C2982 0.930 . S
H2973 C2985 0.929 . S
H2974 C2988 0.930 . S
H2975 C2990 0.960 . S
H2976 C2990 0.960 . S
H2977 C2990 0.960 . S
C2978 H2970 0.929 . S
C2978 C2979 1.377 . S
C2978 C2980 1.384 . S
C2979 C2978 1.377 . S
C2979 C2985 1.390 . S
C2980 H2971 0.930 . S
C2980 C2978 1.384 . S
C2980 C2981 1.372 . S
C2981 C2980 1.372 . S
C2981 C2982 1.400 . S
C2981 C2986 1.490 . S
C2982 H2972 0.930 . S
C2982 C2981 1.400 . S
C2982 C2985 1.386 . S
H2983 C2999 0.930 . S
H2984 C3000 0.931 . S
C2985 H2973 0.929 . S
C2985 C2979 1.390 . S
C2985 C2982 1.386 . S
C2986 C2981 1.490 . S
C2986 C2988 1.395 . S
C2986 C2989 1.403 . S
H2987 C2993 0.930 . S
C2988 H2974 0.930 . S
C2988 C2986 1.395 . S
C2988 C2991 1.403 . S
C2989 C2986 1.403 . S
C2989 C2990 1.524 . S
C2989 C2993 1.400 . S
C2990 H2975 0.960 . S
C2990 H2976 0.960 . S
C2990 H2977 0.960 . S
C2990 C2989 1.524 . S
C2991 C2988 1.403 . S
C2991 C2992 1.392 . S
C2991 C2995 1.495 . S
C2992 C2991 1.392 . S
C2992 C2993 1.385 . S
C2992 C2994 1.478 . S
C2993 H2987 0.930 . S
C2993 C2989 1.400 . S
C2993 C2992 1.385 . S
C2994 C2992 1.478 . S
C2994 C2996 1.381 . S
C2994 C3000 1.383 . S
C2995 C2991 1.495 . S
C2995 H3001 0.959 . S
C2995 H3002 0.961 . S
C2995 H3003 0.960 . S
C2996 C2994 1.381 . S
C2996 C2997 1.394 . S
C2996 H3004 0.930 . S
C2997 C2996 1.394 . S
C2997 C2998 1.383 . S
C2997 H3005 0.929 . S
C2998 C2997 1.383 . S
C2998 C2999 1.377 . S
C2999 H2983 0.930 . S
C2999 C2998 1.377 . S
C2999 C3000 1.379 . S
C3000 H2984 0.931 . S
C3000 C2994 1.383 . S
C3000 C2999 1.379 . S
H3001 C2995 0.959 . S
H3002 C2995 0.961 . S
H3003 C2995 0.960 . S
H3004 C2996 0.930 . S
H3005 C2997 0.929 . S
H3006 C3014 0.929 . S
H3007 C3016 0.930 . S
H3008 C3018 0.930 . S
H3009 C3021 0.929 . S
H3010 C3024 0.930 . S
H3011 C3026 0.960 . S
H3012 C3026 0.960 . S
H3013 C3026 0.960 . S
C3014 H3006 0.929 . S
C3014 C3015 1.377 . S
C3014 C3016 1.384 . S
C3015 C3014 1.377 . S
C3015 C3021 1.390 . S
C3016 H3007 0.930 . S
C3016 C3014 1.384 . S
C3016 C3017 1.372 . S
C3017 C3016 1.372 . S
C3017 C3018 1.400 . S
C3017 C3022 1.490 . S
C3018 H3008 0.930 . S
C3018 C3017 1.400 . S
C3018 C3021 1.386 . S
H3019 C3035 0.930 . S
H3020 C3036 0.931 . S
C3021 H3009 0.929 . S
C3021 C3015 1.390 . S
C3021 C3018 1.386 . S
C3022 C3017 1.490 . S
C3022 C3024 1.395 . S
C3022 C3025 1.403 . S
H3023 C3029 0.930 . S
C3024 H3010 0.930 . S
C3024 C3022 1.395 . S
C3024 C3027 1.403 . S
C3025 C3022 1.403 . S
C3025 C3026 1.524 . S
C3025 C3029 1.400 . S
C3026 H3011 0.960 . S
C3026 H3012 0.960 . S
C3026 H3013 0.960 . S
C3026 C3025 1.524 . S
C3027 C3024 1.403 . S
C3027 C3028 1.392 . S
C3027 C3031 1.495 . S
C3028 C3027 1.392 . S
C3028 C3029 1.385 . S
C3028 C3030 1.478 . S
C3029 H3023 0.930 . S
C3029 C3025 1.400 . S
C3029 C3028 1.385 . S
C3030 C3028 1.478 . S
C3030 C3032 1.381 . S
C3030 C3036 1.383 . S
C3031 C3027 1.495 . S
C3031 H3037 0.959 . S
C3031 H3038 0.961 . S
C3031 H3039 0.960 . S
C3032 C3030 1.381 . S
C3032 C3033 1.394 . S
C3032 H3040 0.930 . S
C3033 C3032 1.394 . S
C3033 C3034 1.383 . S
C3033 H3041 0.929 . S
C3034 C3033 1.383 . S
C3034 C3035 1.377 . S
C3035 H3019 0.930 . S
C3035 C3034 1.377 . S
C3035 C3036 1.379 . S
C3036 H3020 0.931 . S
C3036 C3030 1.383 . S
C3036 C3035 1.379 . S
H3037 C3031 0.959 . S
H3038 C3031 0.961 . S
H3039 C3031 0.960 . S
H3040 C3032 0.930 . S
H3041 C3033 0.929 . S
H3042 C3050 0.929 . S
H3043 C3052 0.930 . S
H3044 C3054 0.930 . S
H3045 C3057 0.929 . S
H3046 C3060 0.930 . S
H3047 C3062 0.960 . S
H3048 C3062 0.960 . S
H3049 C3062 0.960 . S
C3050 H3042 0.929 . S
C3050 C3051 1.377 . S
C3050 C3052 1.384 . S
C3051 C3050 1.377 . S
C3051 C3057 1.390 . S
C3052 H3043 0.930 . S
C3052 C3050 1.384 . S
C3052 C3053 1.372 . S
C3053 C3052 1.372 . S
C3053 C3054 1.400 . S
C3053 C3058 1.490 . S
C3054 H3044 0.930 . S
C3054 C3053 1.400 . S
C3054 C3057 1.386 . S
H3055 C3071 0.930 . S
H3056 C3072 0.931 . S
C3057 H3045 0.929 . S
C3057 C3051 1.390 . S
C3057 C3054 1.386 . S
C3058 C3053 1.490 . S
C3058 C3060 1.395 . S
C3058 C3061 1.403 . S
H3059 C3065 0.930 . S
C3060 H3046 0.930 . S
C3060 C3058 1.395 . S
C3060 C3063 1.403 . S
C3061 C3058 1.403 . S
C3061 C3062 1.524 . S
C3061 C3065 1.400 . S
C3062 H3047 0.960 . S
C3062 H3048 0.960 . S
C3062 H3049 0.960 . S
C3062 C3061 1.524 . S
C3063 C3060 1.403 . S
C3063 C3064 1.392 . S
C3063 C3067 1.495 . S
C3064 C3063 1.392 . S
C3064 C3065 1.385 . S
C3064 C3066 1.478 . S
C3065 H3059 0.930 . S
C3065 C3061 1.400 . S
C3065 C3064 1.385 . S
C3066 C3064 1.478 . S
C3066 C3068 1.381 . S
C3066 C3072 1.383 . S
C3067 C3063 1.495 . S
C3067 H3073 0.959 . S
C3067 H3074 0.961 . S
C3067 H3075 0.960 . S
C3068 C3066 1.381 . S
C3068 C3069 1.394 . S
C3068 H3076 0.930 . S
C3069 C3068 1.394 . S
C3069 C3070 1.383 . S
C3069 H3077 0.929 . S
C3070 C3069 1.383 . S
C3070 C3071 1.377 . S
C3071 H3055 0.930 . S
C3071 C3070 1.377 . S
C3071 C3072 1.379 . S
C3072 H3056 0.931 . S
C3072 C3066 1.383 . S
C3072 C3071 1.379 . S
H3073 C3067 0.959 . S
H3074 C3067 0.961 . S
H3075 C3067 0.960 . S
H3076 C3068 0.930 . S
H3077 C3069 0.929 . S
H3078 C3086 0.929 . S
H3079 C3088 0.930 . S
H3080 C3090 0.930 . S
H3081 C3093 0.929 . S
H3082 C3096 0.930 . S
H3083 C3098 0.960 . S
H3084 C3098 0.960 . S
H3085 C3098 0.960 . S
C3086 H3078 0.929 . S
C3086 C3087 1.377 . S
C3086 C3088 1.384 . S
C3087 C3086 1.377 . S
C3087 C3093 1.390 . S
C3088 H3079 0.930 . S
C3088 C3086 1.384 . S
C3088 C3089 1.372 . S
C3089 C3088 1.372 . S
C3089 C3090 1.400 . S
C3089 C3094 1.490 . S
C3090 H3080 0.930 . S
C3090 C3089 1.400 . S
C3090 C3093 1.386 . S
H3091 C3107 0.930 . S
H3092 C3108 0.931 . S
C3093 H3081 0.929 . S
C3093 C3087 1.390 . S
C3093 C3090 1.386 . S
C3094 C3089 1.490 . S
C3094 C3096 1.395 . S
C3094 C3097 1.403 . S
H3095 C3101 0.930 . S
C3096 H3082 0.930 . S
C3096 C3094 1.395 . S
C3096 C3099 1.403 . S
C3097 C3094 1.403 . S
C3097 C3098 1.524 . S
C3097 C3101 1.400 . S
C3098 H3083 0.960 . S
C3098 H3084 0.960 . S
C3098 H3085 0.960 . S
C3098 C3097 1.524 . S
C3099 C3096 1.403 . S
C3099 C3100 1.392 . S
C3099 C3103 1.495 . S
C3100 C3099 1.392 . S
C3100 C3101 1.385 . S
C3100 C3102 1.478 . S
C3101 H3095 0.930 . S
C3101 C3097 1.400 . S
C3101 C3100 1.385 . S
C3102 C3100 1.478 . S
C3102 C3104 1.381 . S
C3102 C3108 1.383 . S
C3103 C3099 1.495 . S
C3103 H3109 0.959 . S
C3103 H3110 0.961 . S
C3103 H3111 0.960 . S
C3104 C3102 1.381 . S
C3104 C3105 1.394 . S
C3104 H3112 0.930 . S
C3105 C3104 1.394 . S
C3105 C3106 1.383 . S
C3105 H3113 0.929 . S
C3106 C3105 1.383 . S
C3106 C3107 1.377 . S
C3107 H3091 0.930 . S
C3107 C3106 1.377 . S
C3107 C3108 1.379 . S
C3108 H3092 0.931 . S
C3108 C3102 1.383 . S
C3108 C3107 1.379 . S
H3109 C3103 0.959 . S
H3110 C3103 0.961 . S
H3111 C3103 0.960 . S
H3112 C3104 0.930 . S
H3113 C3105 0.929 . S
H3114 C3122 0.929 . S
H3115 C3124 0.930 . S
H3116 C3126 0.930 . S
H3117 C3129 0.929 . S
H3118 C3132 0.930 . S
H3119 C3134 0.960 . S
H3120 C3134 0.960 . S
H3121 C3134 0.960 . S
C3122 H3114 0.929 . S
C3122 C3123 1.377 . S
C3122 C3124 1.384 . S
C3123 C3122 1.377 . S
C3123 C3129 1.390 . S
C3124 H3115 0.930 . S
C3124 C3122 1.384 . S
C3124 C3125 1.372 . S
C3125 C3124 1.372 . S
C3125 C3126 1.400 . S
C3125 C3130 1.490 . S
C3126 H3116 0.930 . S
C3126 C3125 1.400 . S
C3126 C3129 1.386 . S
H3127 C3143 0.930 . S
H3128 C3144 0.931 . S
C3129 H3117 0.929 . S
C3129 C3123 1.390 . S
C3129 C3126 1.386 . S
C3130 C3125 1.490 . S
C3130 C3132 1.395 . S
C3130 C3133 1.403 . S
H3131 C3137 0.930 . S
C3132 H3118 0.930 . S
C3132 C3130 1.395 . S
C3132 C3135 1.403 . S
C3133 C3130 1.403 . S
C3133 C3134 1.524 . S
C3133 C3137 1.400 . S
C3134 H3119 0.960 . S
C3134 H3120 0.960 . S
C3134 H3121 0.960 . S
C3134 C3133 1.524 . S
C3135 C3132 1.403 . S
C3135 C3136 1.392 . S
C3135 C3139 1.495 . S
C3136 C3135 1.392 . S
C3136 C3137 1.385 . S
C3136 C3138 1.478 . S
C3137 H3131 0.930 . S
C3137 C3133 1.400 . S
C3137 C3136 1.385 . S
C3138 C3136 1.478 . S
C3138 C3140 1.381 . S
C3138 C3144 1.383 . S
C3139 C3135 1.495 . S
C3139 H3145 0.959 . S
C3139 H3146 0.961 . S
C3139 H3147 0.960 . S
C3140 C3138 1.381 . S
C3140 C3141 1.394 . S
C3140 H3148 0.930 . S
C3141 C3140 1.394 . S
C3141 C3142 1.383 . S
C3141 H3149 0.929 . S
C3142 C3141 1.383 . S
C3142 C3143 1.377 . S
C3143 H3127 0.930 . S
C3143 C3142 1.377 . S
C3143 C3144 1.379 . S
C3144 H3128 0.931 . S
C3144 C3138 1.383 . S
C3144 C3143 1.379 . S
H3145 C3139 0.959 . S
H3146 C3139 0.961 . S
H3147 C3139 0.960 . S
H3148 C3140 0.930 . S
H3149 C3141 0.929 . S
H3150 C3158 0.929 . S
H3151 C3160 0.930 . S
H3152 C3162 0.930 . S
H3153 C3165 0.929 . S
H3154 C3168 0.930 . S
H3155 C3170 0.960 . S
H3156 C3170 0.960 . S
H3157 C3170 0.960 . S
C3158 H3150 0.929 . S
C3158 C3159 1.377 . S
C3158 C3160 1.384 . S
C3159 C3158 1.377 . S
C3159 C3165 1.390 . S
C3160 H3151 0.930 . S
C3160 C3158 1.384 . S
C3160 C3161 1.372 . S
C3161 C3160 1.372 . S
C3161 C3162 1.400 . S
C3161 C3166 1.490 . S
C3162 H3152 0.930 . S
C3162 C3161 1.400 . S
C3162 C3165 1.386 . S
H3163 C3179 0.930 . S
H3164 C3180 0.931 1_554 S
C3165 H3153 0.929 . S
C3165 C3159 1.390 . S
C3165 C3162 1.386 . S
C3166 C3161 1.490 . S
C3166 C3168 1.395 . S
C3166 C3169 1.403 . S
H3167 C3173 0.930 . S
C3168 H3154 0.930 . S
C3168 C3166 1.395 . S
C3168 C3171 1.403 . S
C3169 C3166 1.403 . S
C3169 C3170 1.524 . S
C3169 C3173 1.400 . S
C3170 H3155 0.960 . S
C3170 H3156 0.960 . S
C3170 H3157 0.960 . S
C3170 C3169 1.524 . S
C3171 C3168 1.403 . S
C3171 C3172 1.392 . S
C3171 C3175 1.495 1_554 S
C3172 C3171 1.392 . S
C3172 C3173 1.385 . S
C3172 C3174 1.439 1_554 S
C3173 H3167 0.930 . S
C3173 C3169 1.400 . S
C3173 C3172 1.385 . S
C3174 C3172 1.439 1_556 S
C3174 C3176 1.409 . S
C3174 C3180 1.394 . S
C3175 C3171 1.495 1_556 S
C3175 H3181 0.959 . S
C3175 H3182 0.961 . S
C3175 H3183 0.960 . S
C3176 C3174 1.409 . S
C3176 C3177 1.394 . S
C3176 H3184 0.930 . S
C3177 C3176 1.394 . S
C3177 C3178 1.383 . S
C3177 H3185 0.929 . S
C3178 C3177 1.383 . S
C3178 C3179 1.377 . S
C3179 H3163 0.930 . S
C3179 C3178 1.377 . S
C3179 C3180 1.379 . S
C3180 H3164 0.931 1_556 S
C3180 C3174 1.394 . S
C3180 C3179 1.379 . S
H3181 C3175 0.959 . S
H3182 C3175 0.961 . S
H3183 C3175 0.960 . S
H3184 C3176 0.930 . S
H3185 C3177 0.929 . S
H3186 C3194 0.929 . S
H3187 C3196 0.930 . S
H3188 C3198 0.930 . S
H3189 C3201 0.929 . S
H3190 C3204 0.930 . S
H3191 C3206 0.960 . S
H3192 C3206 0.960 . S
H3193 C3206 0.960 . S
C3194 H3186 0.929 . S
C3194 C3195 1.377 . S
C3194 C3196 1.384 . S
C3195 C3194 1.377 . S
C3195 C3201 1.390 . S
C3196 H3187 0.930 . S
C3196 C3194 1.384 . S
C3196 C3197 1.372 . S
C3197 C3196 1.372 . S
C3197 C3198 1.400 . S
C3197 C3202 1.490 . S
C3198 H3188 0.930 . S
C3198 C3197 1.400 . S
C3198 C3201 1.386 . S
H3199 C3215 0.930 . S
H3200 C3216 0.931 . S
C3201 H3189 0.929 . S
C3201 C3195 1.390 . S
C3201 C3198 1.386 . S
C3202 C3197 1.490 . S
C3202 C3204 1.395 . S
C3202 C3205 1.403 . S
H3203 C3209 0.930 . S
C3204 H3190 0.930 . S
C3204 C3202 1.395 . S
C3204 C3207 1.403 . S
C3205 C3202 1.403 . S
C3205 C3206 1.524 . S
C3205 C3209 1.400 . S
C3206 H3191 0.960 . S
C3206 H3192 0.960 . S
C3206 H3193 0.960 . S
C3206 C3205 1.524 . S
C3207 C3204 1.403 . S
C3207 C3208 1.392 . S
C3207 C3211 1.495 . S
C3208 C3207 1.392 . S
C3208 C3209 1.385 . S
C3208 C3210 1.478 . S
C3209 H3203 0.930 . S
C3209 C3205 1.400 . S
C3209 C3208 1.385 . S
C3210 C3208 1.478 . S
C3210 C3212 1.381 . S
C3210 C3216 1.383 . S
C3211 C3207 1.495 . S
C3211 H3217 0.959 . S
C3211 H3218 0.961 . S
C3211 H3219 0.960 . S
C3212 C3210 1.381 . S
C3212 C3213 1.394 . S
C3212 H3220 0.930 . S
C3213 C3212 1.394 . S
C3213 C3214 1.383 1_554 S
C3213 H3221 0.929 . S
C3214 C3213 1.383 1_556 S
C3214 C3215 1.377 . S
C3215 H3199 0.930 . S
C3215 C3214 1.377 . S
C3215 C3216 1.379 1_556 S
C3216 H3200 0.931 . S
C3216 C3210 1.383 . S
C3216 C3215 1.379 1_554 S
H3217 C3211 0.959 . S
H3218 C3211 0.961 . S
H3219 C3211 0.960 . S
H3220 C3212 0.930 . S
H3221 C3213 0.929 . S
H3222 C3230 0.929 . S
H3223 C3232 0.930 . S
H3224 C3234 0.930 . S
H3225 C3237 0.929 . S
H3226 C3240 0.930 . S
H3227 C3242 0.960 . S
H3228 C3242 0.960 . S
H3229 C3242 0.960 . S
C3230 H3222 0.929 . S
C3230 C3231 1.377 . S
C3230 C3232 1.384 . S
C3231 C3230 1.377 . S
C3231 C3237 1.390 . S
C3232 H3223 0.930 . S
C3232 C3230 1.384 . S
C3232 C3233 1.372 . S
C3233 C3232 1.372 . S
C3233 C3234 1.400 . S
C3233 C3238 1.490 . S
C3234 H3224 0.930 . S
C3234 C3233 1.400 . S
C3234 C3237 1.386 . S
H3235 C3251 0.930 . S
H3236 C3252 0.931 . S
C3237 H3225 0.929 . S
C3237 C3231 1.390 . S
C3237 C3234 1.386 . S
C3238 C3233 1.490 . S
C3238 C3240 1.395 . S
C3238 C3241 1.403 . S
H3239 C3245 0.930 . S
C3240 H3226 0.930 . S
C3240 C3238 1.395 . S
C3240 C3243 1.403 . S
C3241 C3238 1.403 . S
C3241 C3242 1.524 . S
C3241 C3245 1.400 . S
C3242 H3227 0.960 . S
C3242 H3228 0.960 . S
C3242 H3229 0.960 . S
C3242 C3241 1.524 . S
C3243 C3240 1.403 . S
C3243 C3244 1.392 . S
C3243 C3247 1.495 . S
C3244 C3243 1.392 . S
C3244 C3245 1.385 . S
C3244 C3246 1.478 . S
C3245 H3239 0.930 . S
C3245 C3241 1.400 . S
C3245 C3244 1.385 . S
C3246 C3244 1.478 . S
C3246 C3248 1.381 1_554 S
C3246 C3252 1.383 . S
C3247 C3243 1.495 . S
C3247 H3253 0.959 . S
C3247 H3254 0.961 . S
C3247 H3255 0.960 . S
C3248 C3246 1.381 1_556 S
C3248 C3249 1.394 . S
C3248 H3256 0.930 . S
C3249 C3248 1.394 . S
C3249 C3250 1.383 . S
C3249 H3257 0.929 . S
C3250 C3249 1.383 . S
C3250 C3251 1.377 . S
C3251 H3235 0.930 . S
C3251 C3250 1.377 . S
C3251 C3252 1.379 1_556 S
C3252 H3236 0.931 . S
C3252 C3246 1.383 . S
C3252 C3251 1.379 1_554 S
H3253 C3247 0.959 . S
H3254 C3247 0.961 . S
H3255 C3247 0.960 . S
H3256 C3248 0.930 . S
H3257 C3249 0.929 . S
C675 C7 1.498 . S
C694 C571 1.492 . S
C730 C543 1.758 . S
C711 C39 1.742 . S
C766 C563 1.541 . S
C747 C62 1.560 . S
C783 C76 1.816 . S
C802 C633 1.793 . S
C819 C108 1.502 . S
C838 C641 1.499 . S
C855 N117 1.382 . S
C874 C661 1.390 . S
C910 C617 1.444 . S
C891 C16 1.459 . S
C927 C30 1.806 . S
C946 C589 1.778 . S
C982 C605 1.509 . S
C963 C53 1.510 1_556 S
C999 C85 1.777 . S
C1018 C507 1.757 . S
C1054 C519 1.634 . S
C1035 C99 1.672 . S
C1071 N127 1.315 . S
C1090 C535 1.343 . S
C1107 N150 1.208 . S
C1126 C655 1.230 . S
C1162 C627 1.540 . S
C1143 N173 1.523 . S
C1198 C647 1.387 . S
C1179 C200 1.389 . S
C1215 C214 1.644 . S
C1234 C465 1.627 . S
C1251 N232 1.549 . S
C1270 C473 1.561 . S
C1287 C260 1.538 . S
C1306 C493 1.526 . S
C1342 C449 1.268 . S
C1323 N140 1.278 . S
C1359 N163 1.262 . S
C1378 C421 1.306 . S
C1414 C437 1.569 . S
C1395 C191 1.586 . S
C1450 C591 1.871 . S
C1431 C223 1.875 . S
C1486 C603 1.467 . S
C1467 N242 1.445 . S
C1522 C619 1.534 . S
C1503 C269 1.535 . S
C1539 N288 1.343 . S
C1558 C487 1.354 . S
C1575 C315 1.499 . S
C1594 C459 1.520 1_655 S
C1611 C338 1.630 . S
C1630 C479 1.622 . S
C1647 C352 1.834 . S
C1666 C549 1.816 . S
C1702 C557 1.606 . S
C1683 N370 1.597 . S
C1738 C577 1.602 . S
C1719 C398 1.607 . S
C1774 C533 1.252 . S
C1755 N278 1.225 . S
C1791 C306 1.712 . S
C1810 C505 1.660 . S
C1827 C329 1.613 . S
C1846 C521 1.612 . S
C1882 C423 1.525 . S
C1863 C361 1.530 . S
C1899 N380 1.474 . S
C1918 C435 1.497 . S
C1954 C451 1.489 . S
C1935 C407 1.507 . S
C1990 C463 1.342 . S
C1971 N12 1.357 . S
C2007 N25 1.525 . S
C2026 C478 1.542 . S
C2062 C491 1.289 . S
C2043 N48 1.322 . S
C2098 C492 1.368 . S
C2079 N81 1.357 . S
C2134 C464 1.520 . S
C2115 N94 1.470 . S
C2170 C477 1.545 . S
C2151 C131 1.582 . S
C2206 C417 1.393 . S
C2187 N2 1.384 . S
C2223 N35 1.453 . S
C2242 C436 1.484 . S
C2259 N58 1.298 . S
C2278 C445 1.336 . S
C2314 C450 1.329 . S
C2295 N71 1.282 . S
C2350 C422 1.350 . S
C2331 N104 1.328 . S
C2386 C431 1.594 . S
C2367 C122 1.592 . S
C2403 C145 1.984 . S
C2422 C547 1.926 . S
C2439 C168 1.681 . S
C2458 C562 1.680 . S
C2475 N186 1.443 . S
C2494 C575 1.448 . S
C2530 C576 1.380 . S
C2511 N219 1.379 . S
C2566 C548 1.761 . S
C2547 C246 1.748 . S
C2602 C561 1.493 . S
C2583 N265 1.491 . S
C2638 C501 1.886 . S
C2619 C154 1.889 . S
C2655 C177 1.791 . S
C2674 C520 1.785 . S
C2691 N196 1.306 . S
C2710 C529 1.341 . S
C2727 N209 1.202 . S
C2746 C534 1.246 . S
C2763 C237 1.773 . S
C2782 C506 1.764 . S
C2818 C515 1.453 . S
C2799 N255 1.400 . S
C2835 C283 1.760 . S
C2854 C631 1.714 . S
C2871 N301 1.406 . S
C2890 C646 1.423 . S
C2907 N324 1.318 . S
C2926 C659 1.325 . S
C2962 C660 1.204 . S
C2943 N357 1.200 . S
C2998 C632 1.710 . S
C2979 C384 1.714 . S
C3015 N403 1.348 . S
C3034 C645 1.356 . S
C3051 C292 1.855 . S
C3070 C585 1.853 . S
C3106 C604 1.364 . S
C3087 N311 1.331 . S
C3123 N334 1.404 . S
C3142 C613 1.448 . S
C3159 N347 1.329 . S
C3178 C618 1.362 . S
C3214 C590 1.818 . S
C3195 C375 1.819 . S
C3231 N393 1.347 . S
C3250 C599 1.396 . S
