# Generated by pormake.
# Topology nia, (6,6)-cn, num edge types: 1
# Building blocks:
#     Node 0, Type 0, BuildingBlock: KUMBUR_clean_sbu_1, # of connection points: 6
#     Node 1, Type 0, BuildingBlock: KUMBUR_clean_sbu_1, # of connection points: 6
#     Node 2, Type 1, BuildingBlock: MIDCAF_clean_sbu_0, # of connection points: 6
#     Node 3, Type 1, BuildingBlock: MIDCAF_clean_sbu_0, # of connection points: 6
#     Edge 4, Type (0, 1), BuildingBlock: OJICUG_clean_linker_0, # of connection points: 2
#     Edge 5, Type (0, 1), BuildingBlock: OJICUG_clean_linker_0, # of connection points: 2
#     Edge 6, Type (0, 1), BuildingBlock: OJICUG_clean_linker_0, # of connection points: 2
#     Edge 7, Type (0, 1), BuildingBlock: OJICUG_clean_linker_0, # of connection points: 2
#     Edge 8, Type (0, 1), BuildingBlock: OJICUG_clean_linker_0, # of connection points: 2
#     Edge 9, Type (0, 1), BuildingBlock: OJICUG_clean_linker_0, # of connection points: 2
#     Edge 10, Type (0, 1), BuildingBlock: OJICUG_clean_linker_0, # of connection points: 2
#     Edge 11, Type (0, 1), BuildingBlock: OJICUG_clean_linker_0, # of connection points: 2
#     Edge 12, Type (0, 1), BuildingBlock: OJICUG_clean_linker_0, # of connection points: 2
#     Edge 13, Type (0, 1), BuildingBlock: OJICUG_clean_linker_0, # of connection points: 2
#     Edge 14, Type (0, 1), BuildingBlock: OJICUG_clean_linker_0, # of connection points: 2
#     Edge 15, Type (0, 1), BuildingBlock: OJICUG_clean_linker_0, # of connection points: 2
# Relax obj value: 0.181
# Max RMSD: 0.290
# Mean RMSD: 0.207
data_MOF--net-nia--node1-KUMBUR_clean_sbu_1--node2-MIDCAF_clean_sbu_0--edge1-OJICUG_clean_linker_0
_symmetry_space_group_name_H-M    P1
_symmetry_Int_Tables_number       1
_symmetry_cell_setting            triclinic
loop_
_symmetry_equiv_pos_as_xyz
'x, y, z'
_cell_length_a     21.798898
_cell_length_b     21.703072
_cell_length_c     23.581768
_cell_angle_alpha  89.428836
_cell_angle_beta   90.677813
_cell_angle_gamma 138.05597
loop_
_atom_site_label
_atom_site_type_symbol
_atom_site_fract_x
_atom_site_fract_y
_atom_site_fract_z
_atom_type_partial_charge
Tb0 Tb 0.03013 0.96322 0.07165 0.0
C1 C 0.93724 0.00035 0.82126 0.0
N2 N 0.02552 0.05482 0.8585 0.0
C3 C 0.16307 0.09882 0.78124 0.0
C4 C 0.93109 0.97504 0.75153 0.0
C5 C 0.12365 0.09972 0.84661 0.0
C6 C 0.0905 0.04424 0.72345 0.0
C7 C 0.77716 0.91116 0.81538 0.0
C8 C 0.85909 0.96441 0.84709 0.0
C9 C 0.77064 0.89128 0.7577 0.0
C10 C 0.84246 0.92002 0.7266 0.0
Tb11 Tb 0.00205 0.07416 0.94806 0.0
N12 N 0.86235 0.98089 0.90355 0.0
C13 C 0.69995 0.87702 0.84277 0.0
C14 C 0.78761 0.95076 0.92904 0.0
C15 C 0.7054 0.8974 0.89948 0.0
H16 H 0.15003 0.1024 0.8133 0.0
H17 H 0.64659 0.87344 0.92026 0.0
H18 H 0.95 0.03231 0.14285 0.0
H19 H 0.34386 0.06803 0.07968 0.0
H20 H 0.7909 0.97041 0.97147 0.0
H21 H 0.63566 0.83578 0.82015 0.0
H22 H 0.21824 0.02914 0.03243 0.0
H23 H 0.23496 0.13034 0.76957 0.0
H24 H 0.70585 0.84984 0.73559 0.0
H25 H 0.8238 0.89474 0.6836 0.0
H26 H 0.93308 0.07041 0.24381 0.0
H27 H 0.11404 0.04066 0.68487 0.0
H28 H 0.35723 0.07898 0.18373 0.0
N29 N 0.04537 0.02092 0.15973 0.0
C30 C 0.11321 0.0295 0.1948 0.0
C31 C 0.97655 0.06282 0.23967 0.0
C32 C 0.13388 0.05587 0.26528 0.0
C33 C 0.98669 0.03622 0.17565 0.0
C34 C 0.03575 0.08018 0.29689 0.0
N35 N 0.16458 0.02706 0.10823 0.0
C36 C 0.22606 0.0398 0.07742 0.0
C37 C 0.2411 0.0533 0.19495 0.0
C38 C 0.1717 0.03467 0.1658 0.0
C39 C 0.30297 0.06475 0.16318 0.0
C40 C 0.29633 0.05948 0.10432 0.0
H41 H 0.0274 0.09703 0.33744 0.0
H42 H 0.21947 0.07671 0.33246 0.0
H43 H 0.30255 0.07247 0.27474 0.0
O44 O 0.03951 0.8723 0.06558 0.0
O45 O 0.12176 0.11194 0.07677 0.0
O46 O 0.02384 0.10973 0.03752 0.0
O47 O 0.95834 0.85642 0.13054 0.0
O48 O 0.10072 0.00446 0.991 0.0
O49 O 0.13612 0.13008 0.96228 0.0
O50 O 0.97127 0.13757 0.91222 0.0
O51 O 0.96437 0.9524 0.9233 0.0
O52 O 0.91866 0.87659 1.00857 0.0
O53 O 0.11071 0.2176 0.93331 0.0
O54 O 0.90809 0.01129 0.02156 0.0
O55 O 0.8962 0.90849 0.0711 0.0
C56 C 0.0997 0.15312 0.06505 0.0
C57 C 0.96065 0.74741 0.13474 0.0
C58 C 0.00353 0.67961 0.1758 0.0
C59 C 0.91463 0.6081 0.19856 0.0
C60 C 0.8726 0.67544 0.15775 0.0
C61 C 0.8496 0.60572 0.18902 0.0
C62 C 0.02535 0.74852 0.14295 0.0
C63 C 0.15518 0.08501 0.96578 0.0
C64 C 0.98958 0.82855 0.11089 0.0
C65 C 0.19984 0.06319 0.28869 0.0
C66 C 0.25038 0.06175 0.25425 0.0
C67 C 0.92323 0.8784 0.95298 0.0
C68 C 0.07533 0.29894 0.92177 0.0
C69 C 0.03463 0.37591 0.8994 0.0
C70 C 0.12385 0.46007 0.9166 0.0
C71 C 0.16255 0.38321 0.93984 0.0
C72 C 0.01128 0.2955 0.90288 0.0
C73 C 0.18621 0.46306 0.93757 0.0
C74 C 0.86483 0.94006 0.05628 0.0
C75 C 0.05609 0.21877 0.91221 0.0
H76 H 0.89561 0.55482 0.22485 0.0
H77 H 0.82234 0.67436 0.1527 0.0
H78 H 0.78181 0.55087 0.20717 0.0
H79 H 0.0934 0.80477 0.1253 0.0
H80 H 0.14695 0.52455 0.91312 0.0
H81 H 0.21365 0.38817 0.95373 0.0
H82 H 0.94372 0.22984 0.88987 0.0
H83 H 0.25427 0.52823 0.95058 0.0
Tb84 Tb 0.06569 0.99159 0.45155 0.0
C85 C 0.04236 0.106 0.69324 0.0
N86 N 0.99076 0.01743 0.6573 0.0
C87 C 0.95449 0.88489 0.73824 0.0
C88 C 0.06705 0.11425 0.76374 0.0
C89 C 0.95157 0.92167 0.67147 0.0
C90 C 0.00558 0.9582 0.79531 0.0
C91 C 0.13314 0.26756 0.69506 0.0
C92 C 0.08066 0.18448 0.6652 0.0
C93 C 0.14794 0.27422 0.75386 0.0
C94 C 0.11749 0.2023 0.78734 0.0
Tb95 Tb 0.96864 0.03996 0.56606 0.0
N96 N 0.06919 0.18088 0.60786 0.0
C97 C 0.17156 0.34554 0.66451 0.0
C98 C 0.10357 0.25601 0.57877 0.0
C99 C 0.15666 0.33971 0.60633 0.0
H100 H 0.95036 0.89684 0.70561 0.0
H101 H 0.18447 0.39924 0.58285 0.0
H102 H 0.22284 0.19187 0.37803 0.0
H103 H 0.75997 0.62786 0.41972 0.0
H104 H 0.08779 0.25119 0.53455 0.0
H105 H 0.21247 0.41084 0.68562 0.0
H106 H 0.89214 0.76515 0.47277 0.0
H107 H 0.92711 0.81474 0.75121 0.0
H108 H 0.18757 0.33938 0.77484 0.0
H109 H 0.13915 0.22065 0.83083 0.0
H110 H 0.25806 0.27497 0.28075 0.0
H111 H 0.01031 0.93554 0.8349 0.0
H112 H 0.73785 0.64103 0.31962 0.0
N113 N 0.08521 0.04 0.35997 0.0
C114 C 0.00282 0.95353 0.32308 0.0
C115 C 0.19647 0.20137 0.28392 0.0
C116 C 0.98887 0.96392 0.25351 0.0
C117 C 0.17066 0.14694 0.34596 0.0
C118 C 0.12832 0.14199 0.22641 0.0
N119 N 0.94355 0.85842 0.40464 0.0
C120 C 0.88279 0.77357 0.42977 0.0
C121 C 0.86099 0.78901 0.31591 0.0
C122 C 0.93656 0.86678 0.34802 0.0
C123 C 0.79673 0.70265 0.34264 0.0
C124 C 0.80835 0.69479 0.39937 0.0
H125 H 0.14819 0.17931 0.18753 0.0
H126 H 0.88205 0.87294 0.18698 0.0
H127 H 0.78643 0.7344 0.23682 0.0
O128 O 0.08515 0.91357 0.42695 0.0
O129 O 0.94821 0.96585 0.42662 0.0
O130 O 0.87079 0.92141 0.51009 0.0
O131 O 0.19966 0.06032 0.43485 0.0
O132 O 0.0047 0.90605 0.52791 0.0
O133 O 0.89905 0.89675 0.5649 0.0
O134 O 0.89674 0.06691 0.53954 0.0
O135 O 0.11441 0.12649 0.5696 0.0
O136 O 0.11311 0.02485 0.54073 0.0
O137 O 0.88531 0.02203 0.62414 0.0
O138 O 0.02229 0.11508 0.48414 0.0
O139 O 0.13854 0.13457 0.46055 0.0
C140 C 0.87274 0.92445 0.45447 0.0
C141 C 0.22698 0.97329 0.45366 0.0
C142 C 0.28085 0.90534 0.45637 0.0
C143 C 0.32938 0.95493 0.5066 0.0
C144 C 0.27764 0.02242 0.50319 0.0
C145 C 0.32766 0.01268 0.52961 0.0
C146 C 0.22911 0.91491 0.43019 0.0
C147 C 0.93173 0.86442 0.55837 0.0
C148 C 0.17386 0.98435 0.42566 0.0
C149 C 0.90593 0.87885 0.2289 0.0
C150 C 0.84715 0.79601 0.25896 0.0
C151 C 0.15005 0.09768 0.5699 0.0
C152 C 0.7693 0.00357 0.59595 0.0
C153 C 0.67583 0.02011 0.6275 0.0
C154 C 0.59903 0.92328 0.62894 0.0
C155 C 0.69268 0.90748 0.5984 0.0
C156 C 0.76028 0.05921 0.60952 0.0
C157 C 0.60749 0.86761 0.61399 0.0
C158 C 0.10191 0.16289 0.46003 0.0
C159 C 0.86233 0.04893 0.58973 0.0
H160 H 0.37135 0.95154 0.52744 0.0
H161 H 0.27946 0.06938 0.52109 0.0
H162 H 0.3666 0.05134 0.56778 0.0
H163 H 0.19067 0.87731 0.39164 0.0
H164 H 0.53297 0.89034 0.64312 0.0
H165 H 0.69946 0.86376 0.59028 0.0
H166 H 0.82043 0.13349 0.60774 0.0
H167 H 0.54842 0.79334 0.61627 0.0
Zn168 Zn 0.37082 0.66805 0.15819 0.0
Zn169 Zn 0.40056 0.65159 0.45508 0.0
Zn170 Zn 0.37766 0.6491 0.25744 0.0
C171 C 0.52747 0.73838 0.34176 0.0
C172 C 0.30044 0.51065 0.34697 0.0
O173 O 0.30568 0.68594 0.24388 0.0
O174 O 0.2853 0.67364 0.15099 0.0
C175 C 0.55258 0.79132 0.17883 0.0
O176 O 0.51887 0.73742 0.28776 0.0
O177 O 0.45435 0.69212 0.37072 0.0
O178 O 0.3514 0.58741 0.37326 0.0
O179 O 0.29623 0.51284 0.29277 0.0
O180 O 0.50163 0.78118 0.14363 0.0
O181 O 0.51845 0.74371 0.22499 0.0
O182 O 0.29181 0.50853 0.22975 0.0
O183 O 0.32157 0.54827 0.13914 0.0
C184 C 0.28637 0.48867 0.17745 0.0
O185 O 0.33573 0.70083 0.29957 0.0
O186 O 0.36646 0.67873 0.38063 0.0
C187 C 0.27137 0.68612 0.19899 0.0
C188 C 0.34152 0.70903 0.3537 0.0
Zn189 Zn 0.64144 0.35165 0.86439 0.0
Zn190 Zn 0.64774 0.3764 0.67028 0.0
Zn191 Zn 0.64776 0.37386 0.76622 0.0
C192 C 0.78108 0.55046 0.68786 0.0
C193 C 0.48442 0.30089 0.69177 0.0
O194 O 0.72666 0.34473 0.78908 0.0
O195 O 0.73306 0.35881 0.88212 0.0
C196 C 0.72987 0.53131 0.84911 0.0
O197 O 0.73274 0.51554 0.73346 0.0
O198 O 0.77354 0.49956 0.65508 0.0
O199 O 0.5471 0.3613 0.65727 0.0
O200 O 0.50428 0.28382 0.73659 0.0
O201 O 0.68483 0.46727 0.88541 0.0
O202 O 0.73135 0.51439 0.79728 0.0
O203 O 0.50588 0.28051 0.80005 0.0
O204 O 0.51386 0.23462 0.88074 0.0
C205 C 0.46713 0.22977 0.84497 0.0
O206 O 0.68553 0.30826 0.73536 0.0
O207 O 0.61655 0.26714 0.65245 0.0
C208 C 0.7587 0.35111 0.83802 0.0
C209 C 0.65342 0.26032 0.68938 0.0
C210 C 0.04614 0.60008 0.18954 0.0
C211 C 0.0731 0.68244 0.18686 0.0
H212 H 0.08882 0.53779 0.19718 0.0
C213 C 0.16693 0.76692 0.19375 0.0
H214 H 0.97515 0.53385 0.18335 0.0
C215 C 0.23217 0.76875 0.20076 0.0
C216 C 0.2044 0.68623 0.2026 0.0
H217 H 0.1903 0.83174 0.19296 0.0
H218 H 0.30431 0.8345 0.20312 0.0
C219 C 0.1111 0.60209 0.19749 0.0
C220 C 0.25372 0.10333 0.62511 0.0
C221 C 0.23196 0.14705 0.60609 0.0
H222 H 0.34962 0.11733 0.67045 0.0
C223 C 0.28736 0.23773 0.62388 0.0
H224 H 0.21056 0.03244 0.61375 0.0
C225 C 0.36612 0.28567 0.65661 0.0
C226 C 0.38964 0.24312 0.67365 0.0
H227 H 0.27193 0.27305 0.61067 0.0
H228 H 0.41111 0.35753 0.66643 0.0
C229 C 0.33158 0.1508 0.65895 0.0
C230 C 0.24248 0.30554 0.1058 0.0
C231 C 0.14772 0.23865 0.09527 0.0
H232 H 0.36073 0.43748 0.14241 0.0
C233 C 0.09785 0.25109 0.11735 0.0
H234 H 0.28212 0.29713 0.0894 0.0
C235 C 0.14217 0.32939 0.14925 0.0
C236 C 0.23699 0.39676 0.15895 0.0
H237 H 0.02449 0.19998 0.11031 0.0
H238 H 0.10322 0.33943 0.16405 0.0
C239 C 0.28688 0.38446 0.13702 0.0
C240 C 0.74269 0.16433 0.67443 0.0
C241 C 0.66904 0.08045 0.64594 0.0
H242 H 0.7969 0.28898 0.70827 0.0
C243 C 0.5896 0.05579 0.63413 0.0
H244 H 0.80473 0.18549 0.68496 0.0
C245 C 0.5842 0.11345 0.64997 0.0
C246 C 0.658 0.1972 0.67791 0.0
H247 H 0.53224 0.993 0.61137 0.0
H248 H 0.52245 0.09304 0.63962 0.0
C249 C 0.73764 0.22272 0.68936 0.0
C250 C 0.73759 0.82729 0.12548 0.0
C251 C 0.78745 0.90541 0.09056 0.0
H252 H 0.62722 0.73339 0.18416 0.0
C253 C 0.7671 0.95343 0.09238 0.0
H254 H 0.75128 0.78848 0.12533 0.0
C255 C 0.69485 0.92064 0.12556 0.0
C256 C 0.64358 0.84105 0.15888 0.0
H257 H 0.80593 0.01554 0.06766 0.0
H258 H 0.67657 0.95536 0.1235 0.0
C259 C 0.66738 0.79635 0.16 0.0
C260 C 0.80927 0.72874 0.62247 0.0
C261 C 0.89214 0.78354 0.59278 0.0
H262 H 0.71206 0.61495 0.67953 0.0
C263 C 0.94212 0.76585 0.60023 0.0
H264 H 0.76937 0.74083 0.61798 0.0
C265 C 0.90942 0.69438 0.6354 0.0
C266 C 0.82687 0.63976 0.66482 0.0
H267 H 0.00668 0.80701 0.57874 0.0
H268 H 0.94722 0.67968 0.63817 0.0
C269 C 0.77763 0.65831 0.6588 0.0
C270 C 0.29725 0.84801 0.37157 0.0
C271 C 0.28948 0.84873 0.43054 0.0
H272 H 0.32258 0.80698 0.30231 0.0
C273 C 0.29706 0.80049 0.46462 0.0
H274 H 0.29396 0.88549 0.34374 0.0
C275 C 0.31346 0.75459 0.44043 0.0
C276 C 0.32241 0.75531 0.38145 0.0
H277 H 0.2906 0.79834 0.51024 0.0
H278 H 0.31936 0.71888 0.4679 0.0
C279 C 0.31385 0.80262 0.34765 0.0
C280 C 0.30159 0.21239 0.91307 0.0
C281 C 0.23422 0.12085 0.93295 0.0
H282 H 0.42507 0.31625 0.86535 0.0
C283 C 0.23889 0.06216 0.91687 0.0
H284 H 0.29957 0.25916 0.92421 0.0
C285 C 0.31157 0.09552 0.8838 0.0
C286 C 0.37859 0.18687 0.86434 0.0
H287 H 0.18702 0.99074 0.93031 0.0
H288 H 0.31708 0.05091 0.87487 0.0
C289 C 0.37212 0.24451 0.87827 0.0
C290 C 0.1068 0.26005 0.39561 0.0
C291 C 0.15263 0.25259 0.43204 0.0
H292 H 0.11829 0.3462 0.33846 0.0
C293 C 0.24733 0.33169 0.44143 0.0
H294 H 0.03384 0.20069 0.38778 0.0
C295 C 0.29479 0.41625 0.41532 0.0
C296 C 0.24945 0.4227 0.37738 0.0
H297 H 0.28442 0.32839 0.46964 0.0
H298 H 0.36752 0.47609 0.42364 0.0
C299 C 0.15508 0.34338 0.36746 0.0
C300 C 0.89311 0.30174 0.84161 0.0
C301 C 0.96654 0.37217 0.87843 0.0
H302 H 0.76623 0.23608 0.80269 0.0
C303 C 0.97239 0.43782 0.89708 0.0
H304 H 0.88575 0.25016 0.8252 0.0
C305 C 0.90767 0.43316 0.88006 0.0
C306 C 0.83331 0.36149 0.84513 0.0
H307 H 0.02488 0.49147 0.92671 0.0
H308 H 0.9137 0.48404 0.89637 0.0
C309 C 0.82595 0.29523 0.82641 0.0
C310 C 0.70436 0.82532 0.45498 0.0
C311 C 0.7854 0.87669 0.42378 0.0
H312 H 0.56209 0.7434 0.45455 0.0
C313 C 0.78074 0.88217 0.36454 0.0
H314 H 0.70395 0.81803 0.50044 0.0
C315 C 0.69763 0.83787 0.33773 0.0
C316 C 0.61698 0.78724 0.36945 0.0
H317 H 0.84119 0.92102 0.33887 0.0
H318 H 0.69669 0.84349 0.29212 0.0
C319 C 0.62207 0.78185 0.42846 0.0
C320 C 0.8353 0.76877 0.86949 0.0
C321 C 0.87683 0.79231 0.92334 0.0
H322 H 0.7578 0.66819 0.80216 0.0
C323 C 0.87311 0.73163 0.94995 0.0
H324 H 0.83462 0.81282 0.84865 0.0
C325 C 0.82858 0.6493 0.92397 0.0
C326 C 0.78634 0.62499 0.87052 0.0
H327 H 0.90429 0.74742 0.99122 0.0
H328 H 0.82603 0.60356 0.94633 0.0
C329 C 0.79119 0.68606 0.84288 0.0
loop_
_geom_bond_atom_site_label_1
_geom_bond_atom_site_label_2
_geom_bond_distance
_geom_bond_site_symmetry_2
_ccdc_geom_bond_type
Tb0 N29 2.617 . S
Tb0 N35 2.572 1_565 S
Tb0 O44 2.465 . S
Tb0 O45 2.387 1_565 S
Tb0 O47 2.428 1_455 S
Tb0 O48 2.308 1_564 S
Tb0 O52 2.349 1_454 S
Tb0 O55 2.393 1_455 S
Tb0 C64 2.802 . S
C1 N2 1.379 1_565 S
C1 C4 1.416 . S
C1 C8 1.424 . S
N2 C1 1.379 1_545 S
N2 C5 1.334 1_655 S
N2 Tb11 2.617 . S
C3 C5 1.390 . S
C3 C6 1.339 . S
C3 H23 0.930 . S
C4 C1 1.416 . S
C4 C6 1.416 1_665 S
C4 C10 1.448 . S
C5 N2 1.334 1_455 S
C5 C3 1.390 . S
C5 H16 0.930 . S
C6 C3 1.339 . S
C6 C4 1.416 1_445 S
C6 H27 0.934 . S
C7 C8 1.413 . S
C7 C9 1.427 . S
C7 C13 1.416 . S
C8 C1 1.424 . S
C8 C7 1.413 . S
C8 N12 1.361 . S
C9 C7 1.427 . S
C9 C10 1.328 . S
C9 H24 0.929 . S
C10 C4 1.448 . S
C10 C9 1.328 . S
C10 H25 0.930 . S
Tb11 N2 2.617 . S
Tb11 N12 2.572 1_545 S
Tb11 O46 2.349 1_656 S
Tb11 O49 2.393 1_655 S
Tb11 O50 2.465 . S
Tb11 O51 2.387 1_545 S
Tb11 O53 2.428 1_655 S
Tb11 O54 2.308 1_546 S
Tb11 C75 2.802 . S
N12 C8 1.361 . S
N12 Tb11 2.572 1_565 S
N12 C14 1.340 . S
C13 C7 1.416 . S
C13 C15 1.332 . S
C13 H21 0.931 . S
C14 N12 1.340 . S
C14 C15 1.407 . S
C14 H20 0.930 . S
C15 C13 1.332 . S
C15 C14 1.407 . S
C15 H17 0.929 . S
H16 C5 0.930 . S
H17 C15 0.929 . S
H18 C33 0.930 . S
H19 C40 0.929 . S
H20 C14 0.930 . S
H21 C13 0.931 . S
H22 C36 0.930 . S
H23 C3 0.930 . S
H24 C9 0.929 . S
H25 C10 0.930 . S
H26 C31 0.930 . S
H27 C6 0.934 . S
H28 C39 0.931 . S
N29 Tb0 2.617 . S
N29 C30 1.379 1_565 S
N29 C33 1.334 1_455 S
C30 N29 1.379 1_545 S
C30 C32 1.416 . S
C30 C38 1.424 . S
C31 H26 0.930 . S
C31 C33 1.390 . S
C31 C34 1.339 . S
C32 C30 1.416 . S
C32 C34 1.416 1_445 S
C32 C65 1.448 . S
C33 H18 0.930 . S
C33 N29 1.334 1_655 S
C33 C31 1.390 . S
C34 C31 1.339 . S
C34 C32 1.416 1_665 S
C34 H41 0.930 1_565 S
N35 Tb0 2.572 1_545 S
N35 C36 1.340 . S
N35 C38 1.361 . S
C36 H22 0.930 . S
C36 N35 1.340 . S
C36 C40 1.407 . S
C37 C38 1.413 . S
C37 C39 1.416 . S
C37 C66 1.427 . S
C38 C30 1.424 . S
C38 N35 1.361 . S
C38 C37 1.413 . S
C39 H28 0.931 . S
C39 C37 1.416 . S
C39 C40 1.332 . S
C40 H19 0.929 . S
C40 C36 1.407 . S
C40 C39 1.332 . S
H41 C34 0.930 1_545 S
H42 C65 0.930 . S
H43 C66 0.929 . S
O44 Tb0 2.465 . S
O44 C64 1.264 . S
O45 Tb0 2.387 1_545 S
O45 C56 1.264 . S
O46 Tb11 2.349 1_454 S
O46 C56 1.243 . S
O47 Tb0 2.428 1_655 S
O47 C64 1.256 1_655 S
O48 Tb0 2.308 1_546 S
O48 C63 1.266 . S
O49 Tb11 2.393 1_455 S
O49 C63 1.248 . S
O50 Tb11 2.465 . S
O50 C75 1.264 . S
O51 Tb11 2.387 1_565 S
O51 C67 1.264 . S
O52 Tb0 2.349 1_656 S
O52 C67 1.243 . S
O53 Tb11 2.428 1_455 S
O53 C75 1.256 1_455 S
O54 Tb11 2.308 1_564 S
O54 C74 1.266 . S
O55 Tb0 2.393 1_655 S
O55 C74 1.248 . S
C56 O45 1.264 . S
C56 O46 1.243 . S
C57 C60 1.399 . S
C57 C62 1.383 . S
C57 C64 1.496 . S
C58 C59 1.399 . S
C58 C62 1.389 . S
C59 C58 1.399 . S
C59 C61 1.380 . S
C59 H76 0.929 . S
C60 C57 1.399 . S
C60 C61 1.392 . S
C60 H77 0.929 1_455 S
C61 C59 1.380 . S
C61 C60 1.392 . S
C61 H78 0.929 1_455 S
C62 C57 1.383 . S
C62 C58 1.389 . S
C62 H79 0.931 . S
C63 O48 1.266 . S
C63 O49 1.248 . S
C64 Tb0 2.802 . S
C64 O44 1.264 . S
C64 O47 1.256 1_455 S
C64 C57 1.496 . S
C65 C32 1.448 . S
C65 H42 0.930 . S
C65 C66 1.328 . S
C66 C37 1.427 . S
C66 H43 0.929 . S
C66 C65 1.328 . S
C67 O51 1.264 . S
C67 O52 1.243 . S
C68 C71 1.399 . S
C68 C72 1.383 . S
C68 C75 1.496 . S
C69 C70 1.399 . S
C69 C72 1.389 . S
C70 C69 1.399 . S
C70 C73 1.380 . S
C70 H80 0.929 . S
C71 C68 1.399 . S
C71 C73 1.392 . S
C71 H81 0.929 1_655 S
C72 C68 1.383 . S
C72 C69 1.389 . S
C72 H82 0.931 . S
C73 C70 1.380 . S
C73 C71 1.392 . S
C73 H83 0.929 1_655 S
C74 O54 1.266 . S
C74 O55 1.248 . S
C75 Tb11 2.802 . S
C75 O50 1.264 . S
C75 O53 1.256 1_655 S
C75 C68 1.496 . S
H76 C59 0.929 . S
H77 C60 0.929 1_655 S
H78 C61 0.929 1_655 S
H79 C62 0.931 . S
H80 C70 0.929 . S
H81 C71 0.929 1_455 S
H82 C72 0.931 . S
H83 C73 0.929 1_455 S
Tb84 N113 2.617 1_565 S
Tb84 N119 2.572 1_455 S
Tb84 O128 2.465 . S
Tb84 O129 2.387 1_455 S
Tb84 O131 2.428 1_565 S
Tb84 O132 2.308 1_455 S
Tb84 O136 2.349 1_565 S
Tb84 O139 2.393 1_565 S
Tb84 C148 2.802 . S
C85 N86 1.379 1_455 S
C85 C88 1.416 . S
C85 C92 1.424 . S
N86 C85 1.379 1_655 S
N86 C89 1.334 1_545 S
N86 Tb95 2.617 . S
C87 C89 1.390 . S
C87 C90 1.339 1_665 S
C87 H107 0.930 . S
C88 C85 1.416 . S
C88 C90 1.416 . S
C88 C94 1.448 . S
C89 N86 1.334 1_565 S
C89 C87 1.390 . S
C89 H100 0.930 . S
C90 C87 1.339 1_445 S
C90 C88 1.416 . S
C90 H111 0.930 . S
C91 C92 1.413 . S
C91 C93 1.427 . S
C91 C97 1.416 . S
C92 C85 1.424 . S
C92 C91 1.413 . S
C92 N96 1.361 . S
C93 C91 1.427 . S
C93 C94 1.328 . S
C93 H108 0.929 . S
C94 C88 1.448 . S
C94 C93 1.328 . S
C94 H109 0.930 . S
Tb95 N86 2.617 . S
Tb95 N96 2.572 1_655 S
Tb95 O130 2.349 1_545 S
Tb95 O133 2.393 1_545 S
Tb95 O134 2.465 . S
Tb95 O135 2.387 1_655 S
Tb95 O137 2.428 . S
Tb95 O138 2.308 1_655 S
Tb95 C159 2.802 . S
N96 C92 1.361 . S
N96 Tb95 2.572 1_455 S
N96 C98 1.340 . S
C97 C91 1.416 . S
C97 C99 1.332 . S
C97 H105 0.931 . S
C98 N96 1.340 . S
C98 C99 1.407 . S
C98 H104 0.930 . S
C99 C97 1.332 . S
C99 C98 1.407 . S
C99 H101 0.929 . S
H100 C89 0.930 . S
H101 C99 0.929 . S
H102 C117 0.930 . S
H103 C124 0.929 . S
H104 C98 0.930 . S
H105 C97 0.931 . S
H106 C120 0.930 . S
H107 C87 0.930 . S
H108 C93 0.929 . S
H109 C94 0.930 . S
H110 C115 0.930 . S
H111 C90 0.930 . S
H112 C123 0.931 . S
N113 Tb84 2.617 1_545 S
N113 C114 1.379 1_445 S
N113 C117 1.334 . S
C114 N113 1.379 1_665 S
C114 C116 1.416 . S
C114 C122 1.424 . S
C115 H110 0.930 . S
C115 C117 1.390 . S
C115 C118 1.339 . S
C116 C114 1.416 . S
C116 C118 1.416 1_665 S
C116 C149 1.448 . S
C117 H102 0.930 . S
C117 N113 1.334 . S
C117 C115 1.390 . S
C118 C115 1.339 . S
C118 C116 1.416 1_445 S
C118 H125 0.930 . S
N119 Tb84 2.572 1_655 S
N119 C120 1.340 . S
N119 C122 1.361 . S
C120 H106 0.930 . S
C120 N119 1.340 . S
C120 C124 1.407 . S
C121 C122 1.413 . S
C121 C123 1.416 . S
C121 C150 1.427 . S
C122 C114 1.424 . S
C122 N119 1.361 . S
C122 C121 1.413 . S
C123 H112 0.931 . S
C123 C121 1.416 . S
C123 C124 1.332 . S
C124 H103 0.929 . S
C124 C120 1.407 . S
C124 C123 1.332 . S
H125 C118 0.930 . S
H126 C149 0.930 . S
H127 C150 0.929 . S
O128 Tb84 2.465 . S
O128 C148 1.264 . S
O129 Tb84 2.387 1_655 S
O129 C140 1.264 . S
O130 Tb95 2.349 1_565 S
O130 C140 1.243 . S
O131 Tb84 2.428 1_545 S
O131 C148 1.256 1_545 S
O132 Tb84 2.308 1_655 S
O132 C147 1.266 . S
O133 Tb95 2.393 1_565 S
O133 C147 1.248 . S
O134 Tb95 2.465 . S
O134 C159 1.264 . S
O135 Tb95 2.387 1_455 S
O135 C151 1.264 . S
O136 Tb84 2.349 1_545 S
O136 C151 1.243 . S
O137 Tb95 2.428 . S
O137 C159 1.256 . S
O138 Tb95 2.308 1_455 S
O138 C158 1.266 . S
O139 Tb84 2.393 1_545 S
O139 C158 1.248 . S
C140 O129 1.264 . S
C140 O130 1.243 . S
C141 C144 1.399 1_565 S
C141 C146 1.383 . S
C141 C148 1.496 . S
C142 C143 1.399 . S
C142 C146 1.389 . S
C143 C142 1.399 . S
C143 C145 1.380 . S
C143 H160 0.929 . S
C144 C141 1.399 1_545 S
C144 C145 1.392 1_545 S
C144 H161 0.929 . S
C145 C143 1.380 . S
C145 C144 1.392 1_565 S
C145 H162 0.929 1_565 S
C146 C141 1.383 . S
C146 C142 1.389 . S
C146 H163 0.931 . S
C147 O132 1.266 . S
C147 O133 1.248 . S
C148 Tb84 2.802 . S
C148 O128 1.264 . S
C148 O131 1.256 1_565 S
C148 C141 1.496 . S
C149 C116 1.448 . S
C149 H126 0.930 . S
C149 C150 1.328 . S
C150 C121 1.427 . S
C150 H127 0.929 . S
C150 C149 1.328 . S
C151 O135 1.264 . S
C151 O136 1.243 . S
C152 C155 1.399 . S
C152 C156 1.383 . S
C152 C159 1.496 . S
C153 C154 1.399 . S
C153 C156 1.389 . S
C154 C153 1.399 . S
C154 C157 1.380 . S
C154 H164 0.929 . S
C155 C152 1.399 . S
C155 C157 1.392 . S
C155 H165 0.929 1_545 S
C156 C152 1.383 . S
C156 C153 1.389 . S
C156 H166 0.931 . S
C157 C154 1.380 . S
C157 C155 1.392 . S
C157 H167 0.929 . S
C158 O138 1.266 . S
C158 O139 1.248 . S
C159 Tb95 2.802 . S
C159 O134 1.264 . S
C159 O137 1.256 . S
C159 C152 1.496 . S
H160 C143 0.929 . S
H161 C144 0.929 . S
H162 C145 0.929 1_545 S
H163 C146 0.931 . S
H164 C154 0.929 . S
H165 C155 0.929 1_565 S
H166 C156 0.931 . S
H167 C157 0.929 . S
Zn168 O174 1.920 . S
Zn168 O180 1.898 . S
Zn168 O183 1.905 . S
Zn169 O177 1.905 . S
Zn169 O178 1.898 . S
Zn169 O186 1.920 . S
Zn170 O173 2.080 . S
Zn170 O176 2.114 . S
Zn170 O179 2.120 . S
Zn170 O181 2.120 . S
Zn170 O182 2.114 . S
Zn170 O185 2.080 . S
C171 O176 1.166 . S
C171 O177 1.182 . S
C172 O178 1.167 . S
C172 O179 1.299 . S
O173 Zn170 2.080 . S
O173 C187 1.305 . S
O174 Zn168 1.920 . S
O174 C187 1.234 . S
C175 O180 1.167 . S
C175 O181 1.299 . S
O176 Zn170 2.114 . S
O176 C171 1.166 . S
O177 Zn169 1.905 . S
O177 C171 1.182 . S
O178 Zn169 1.898 . S
O178 C172 1.167 . S
O179 Zn170 2.120 . S
O179 C172 1.299 . S
O180 Zn168 1.898 . S
O180 C175 1.167 . S
O181 Zn170 2.120 . S
O181 C175 1.299 . S
O182 Zn170 2.114 . S
O182 C184 1.166 . S
O183 Zn168 1.905 . S
O183 C184 1.182 . S
C184 O182 1.166 . S
C184 O183 1.182 . S
O185 Zn170 2.080 . S
O185 C188 1.305 . S
O186 Zn169 1.920 . S
O186 C188 1.234 . S
C187 O173 1.305 . S
C187 O174 1.234 . S
C188 O185 1.305 . S
C188 O186 1.234 . S
Zn189 O195 1.920 . S
Zn189 O201 1.898 . S
Zn189 O204 1.905 . S
Zn190 O198 1.905 . S
Zn190 O199 1.898 . S
Zn190 O207 1.920 . S
Zn191 O194 2.080 . S
Zn191 O197 2.114 . S
Zn191 O200 2.120 . S
Zn191 O202 2.120 . S
Zn191 O203 2.114 . S
Zn191 O206 2.080 . S
C192 O197 1.166 . S
C192 O198 1.182 . S
C193 O199 1.167 . S
C193 O200 1.299 . S
O194 Zn191 2.080 . S
O194 C208 1.305 . S
O195 Zn189 1.920 . S
O195 C208 1.234 . S
C196 O201 1.167 . S
C196 O202 1.299 . S
O197 Zn191 2.114 . S
O197 C192 1.166 . S
O198 Zn190 1.905 . S
O198 C192 1.182 . S
O199 Zn190 1.898 . S
O199 C193 1.167 . S
O200 Zn191 2.120 . S
O200 C193 1.299 . S
O201 Zn189 1.898 . S
O201 C196 1.167 . S
O202 Zn191 2.120 . S
O202 C196 1.299 . S
O203 Zn191 2.114 . S
O203 C205 1.166 . S
O204 Zn189 1.905 . S
O204 C205 1.182 . S
C205 O203 1.166 . S
C205 O204 1.182 . S
O206 Zn191 2.080 . S
O206 C209 1.305 . S
O207 Zn190 1.920 . S
O207 C209 1.234 . S
C208 O194 1.305 . S
C208 O195 1.234 . S
C209 O206 1.305 . S
C209 O207 1.234 . S
C210 C211 1.387 . S
C210 H214 0.950 . S
C210 C219 1.390 . S
C211 C210 1.387 . S
C211 C213 1.387 . S
H212 C219 0.950 . S
C213 C211 1.387 . S
C213 C215 1.390 . S
C213 H217 0.950 . S
H214 C210 0.950 . S
C215 C213 1.390 . S
C215 C216 1.387 . S
C215 H218 0.950 . S
C216 C215 1.387 . S
C216 C219 1.387 . S
H217 C213 0.950 . S
H218 C215 0.950 . S
C219 C210 1.390 . S
C219 H212 0.950 . S
C219 C216 1.387 . S
C220 C221 1.387 . S
C220 H224 0.950 . S
C220 C229 1.390 . S
C221 C220 1.387 . S
C221 C223 1.387 . S
H222 C229 0.950 . S
C223 C221 1.387 . S
C223 C225 1.390 . S
C223 H227 0.950 . S
H224 C220 0.950 . S
C225 C223 1.390 . S
C225 C226 1.387 . S
C225 H228 0.950 . S
C226 C225 1.387 . S
C226 C229 1.387 . S
H227 C223 0.950 . S
H228 C225 0.950 . S
C229 C220 1.390 . S
C229 H222 0.950 . S
C229 C226 1.387 . S
C230 C231 1.387 . S
C230 H234 0.950 . S
C230 C239 1.390 . S
C231 C230 1.387 . S
C231 C233 1.387 . S
H232 C239 0.950 . S
C233 C231 1.387 . S
C233 C235 1.390 . S
C233 H237 0.950 . S
H234 C230 0.950 . S
C235 C233 1.390 . S
C235 C236 1.387 . S
C235 H238 0.950 . S
C236 C235 1.387 . S
C236 C239 1.387 . S
H237 C233 0.950 . S
H238 C235 0.950 . S
C239 C230 1.390 . S
C239 H232 0.950 . S
C239 C236 1.387 . S
C240 C241 1.387 . S
C240 H244 0.950 . S
C240 C249 1.390 . S
C241 C240 1.387 . S
C241 C243 1.387 . S
H242 C249 0.950 . S
C243 C241 1.387 . S
C243 C245 1.390 . S
C243 H247 0.950 . S
H244 C240 0.950 . S
C245 C243 1.390 . S
C245 C246 1.387 . S
C245 H248 0.950 . S
C246 C245 1.387 . S
C246 C249 1.387 . S
H247 C243 0.950 . S
H248 C245 0.950 . S
C249 C240 1.390 . S
C249 H242 0.950 . S
C249 C246 1.387 . S
C250 C251 1.387 . S
C250 H254 0.950 . S
C250 C259 1.390 . S
C251 C250 1.387 . S
C251 C253 1.387 . S
H252 C259 0.950 . S
C253 C251 1.387 . S
C253 C255 1.390 . S
C253 H257 0.950 1_565 S
H254 C250 0.950 . S
C255 C253 1.390 . S
C255 C256 1.387 . S
C255 H258 0.950 . S
C256 C255 1.387 . S
C256 C259 1.387 . S
H257 C253 0.950 1_545 S
H258 C255 0.950 . S
C259 C250 1.390 . S
C259 H252 0.950 . S
C259 C256 1.387 . S
C260 C261 1.387 . S
C260 H264 0.950 . S
C260 C269 1.390 . S
C261 C260 1.387 . S
C261 C263 1.387 . S
H262 C269 0.950 . S
C263 C261 1.387 . S
C263 C265 1.390 . S
C263 H267 0.950 . S
H264 C260 0.950 . S
C265 C263 1.390 . S
C265 C266 1.387 . S
C265 H268 0.950 . S
C266 C265 1.387 . S
C266 C269 1.387 . S
H267 C263 0.950 . S
H268 C265 0.950 . S
C269 C260 1.390 . S
C269 H262 0.950 . S
C269 C266 1.387 . S
C270 C271 1.387 . S
C270 H274 0.950 . S
C270 C279 1.390 . S
C271 C270 1.387 . S
C271 C273 1.387 . S
H272 C279 0.950 . S
C273 C271 1.387 . S
C273 C275 1.390 . S
C273 H277 0.950 . S
H274 C270 0.950 . S
C275 C273 1.390 . S
C275 C276 1.387 . S
C275 H278 0.950 . S
C276 C275 1.387 . S
C276 C279 1.387 . S
H277 C273 0.950 . S
H278 C275 0.950 . S
C279 C270 1.390 . S
C279 H272 0.950 . S
C279 C276 1.387 . S
C280 C281 1.387 . S
C280 H284 0.950 . S
C280 C289 1.390 . S
C281 C280 1.387 . S
C281 C283 1.387 . S
H282 C289 0.950 . S
C283 C281 1.387 . S
C283 C285 1.390 . S
C283 H287 0.950 . S
H284 C280 0.950 . S
C285 C283 1.390 . S
C285 C286 1.387 . S
C285 H288 0.950 . S
C286 C285 1.387 . S
C286 C289 1.387 . S
H287 C283 0.950 . S
H288 C285 0.950 . S
C289 C280 1.390 . S
C289 H282 0.950 . S
C289 C286 1.387 . S
C290 C291 1.387 . S
C290 H294 0.950 . S
C290 C299 1.390 . S
C291 C290 1.387 . S
C291 C293 1.387 . S
H292 C299 0.950 . S
C293 C291 1.387 . S
C293 C295 1.390 . S
C293 H297 0.950 . S
H294 C290 0.950 . S
C295 C293 1.390 . S
C295 C296 1.387 . S
C295 H298 0.950 . S
C296 C295 1.387 . S
C296 C299 1.387 . S
H297 C293 0.950 . S
H298 C295 0.950 . S
C299 C290 1.390 . S
C299 H292 0.950 . S
C299 C296 1.387 . S
C300 C301 1.387 . S
C300 H304 0.950 . S
C300 C309 1.390 . S
C301 C300 1.387 . S
C301 C303 1.387 . S
H302 C309 0.950 . S
C303 C301 1.387 . S
C303 C305 1.390 . S
C303 H307 0.950 . S
H304 C300 0.950 . S
C305 C303 1.390 . S
C305 C306 1.387 . S
C305 H308 0.950 . S
C306 C305 1.387 . S
C306 C309 1.387 . S
H307 C303 0.950 . S
H308 C305 0.950 . S
C309 C300 1.390 . S
C309 H302 0.950 . S
C309 C306 1.387 . S
C310 C311 1.387 . S
C310 H314 0.950 . S
C310 C319 1.390 . S
C311 C310 1.387 . S
C311 C313 1.387 . S
H312 C319 0.950 . S
C313 C311 1.387 . S
C313 C315 1.390 . S
C313 H317 0.950 . S
H314 C310 0.950 . S
C315 C313 1.390 . S
C315 C316 1.387 . S
C315 H318 0.950 . S
C316 C315 1.387 . S
C316 C319 1.387 . S
H317 C313 0.950 . S
H318 C315 0.950 . S
C319 C310 1.390 . S
C319 H312 0.950 . S
C319 C316 1.387 . S
C320 C321 1.387 . S
C320 H324 0.950 . S
C320 C329 1.390 . S
C321 C320 1.387 . S
C321 C323 1.387 . S
H322 C329 0.950 . S
C323 C321 1.387 . S
C323 C325 1.390 . S
C323 H327 0.950 . S
H324 C320 0.950 . S
C325 C323 1.390 . S
C325 C326 1.387 . S
C325 H328 0.950 . S
C326 C325 1.387 . S
C326 C329 1.387 . S
H327 C323 0.950 . S
H328 C325 0.950 . S
C329 C320 1.390 . S
C329 H322 0.950 . S
C329 C326 1.387 . S
C211 C58 1.179 . S
C216 C187 1.293 . S
C221 C151 1.590 . S
C226 C193 1.420 . S
C231 C56 1.662 . S
C236 C184 1.499 . S
C241 C153 1.275 . S
C246 C209 1.308 . S
C251 C74 1.654 . S
C256 C175 1.466 . S
C266 C192 1.536 . S
C261 C147 1.644 . S
C271 C142 1.183 . S
C276 C188 1.295 . S
C286 C205 1.535 . S
C281 C63 1.644 . S
C296 C172 1.464 . S
C291 C158 1.653 . S
C306 C208 1.304 . S
C301 C69 1.272 . S
C316 C171 1.500 . S
C311 C140 1.662 . S
C326 C196 1.421 . S
C321 C67 1.589 . S
