# Generated by pormake.
# Topology iac, (4,6)-cn, num edge types: 1
# Building blocks:
#     Node 0, Type 0, BuildingBlock: NAHDIM_clean_sbu_0, # of connection points: 4
#     Node 1, Type 0, BuildingBlock: NAHDIM_clean_sbu_0, # of connection points: 4
#     Node 2, Type 0, BuildingBlock: NAHDIM_clean_sbu_0, # of connection points: 4
#     Node 3, Type 0, BuildingBlock: NAHDIM_clean_sbu_0, # of connection points: 4
#     Node 4, Type 0, BuildingBlock: NAHDIM_clean_sbu_0, # of connection points: 4
#     Node 5, Type 0, BuildingBlock: NAHDIM_clean_sbu_0, # of connection points: 4
#     Node 6, Type 0, BuildingBlock: NAHDIM_clean_sbu_0, # of connection points: 4
#     Node 7, Type 0, BuildingBlock: NAHDIM_clean_sbu_0, # of connection points: 4
#     Node 8, Type 0, BuildingBlock: NAHDIM_clean_sbu_0, # of connection points: 4
#     Node 9, Type 0, BuildingBlock: NAHDIM_clean_sbu_0, # of connection points: 4
#     Node 10, Type 0, BuildingBlock: NAHDIM_clean_sbu_0, # of connection points: 4
#     Node 11, Type 0, BuildingBlock: NAHDIM_clean_sbu_0, # of connection points: 4
#     Node 12, Type 0, BuildingBlock: NAHDIM_clean_sbu_0, # of connection points: 4
#     Node 13, Type 0, BuildingBlock: NAHDIM_clean_sbu_0, # of connection points: 4
#     Node 14, Type 0, BuildingBlock: NAHDIM_clean_sbu_0, # of connection points: 4
#     Node 15, Type 0, BuildingBlock: NAHDIM_clean_sbu_0, # of connection points: 4
#     Node 16, Type 0, BuildingBlock: NAHDIM_clean_sbu_0, # of connection points: 4
#     Node 17, Type 0, BuildingBlock: NAHDIM_clean_sbu_0, # of connection points: 4
#     Node 18, Type 0, BuildingBlock: NAHDIM_clean_sbu_0, # of connection points: 4
#     Node 19, Type 0, BuildingBlock: NAHDIM_clean_sbu_0, # of connection points: 4
#     Node 20, Type 0, BuildingBlock: NAHDIM_clean_sbu_0, # of connection points: 4
#     Node 21, Type 0, BuildingBlock: NAHDIM_clean_sbu_0, # of connection points: 4
#     Node 22, Type 0, BuildingBlock: NAHDIM_clean_sbu_0, # of connection points: 4
#     Node 23, Type 0, BuildingBlock: NAHDIM_clean_sbu_0, # of connection points: 4
#     Node 24, Type 1, BuildingBlock: VOLQOD_clean_sbu_1, # of connection points: 6
#     Node 25, Type 1, BuildingBlock: VOLQOD_clean_sbu_1, # of connection points: 6
#     Node 26, Type 1, BuildingBlock: VOLQOD_clean_sbu_1, # of connection points: 6
#     Node 27, Type 1, BuildingBlock: VOLQOD_clean_sbu_1, # of connection points: 6
#     Node 28, Type 1, BuildingBlock: VOLQOD_clean_sbu_1, # of connection points: 6
#     Node 29, Type 1, BuildingBlock: VOLQOD_clean_sbu_1, # of connection points: 6
#     Node 30, Type 1, BuildingBlock: VOLQOD_clean_sbu_1, # of connection points: 6
#     Node 31, Type 1, BuildingBlock: VOLQOD_clean_sbu_1, # of connection points: 6
#     Node 32, Type 1, BuildingBlock: VOLQOD_clean_sbu_1, # of connection points: 6
#     Node 33, Type 1, BuildingBlock: VOLQOD_clean_sbu_1, # of connection points: 6
#     Node 34, Type 1, BuildingBlock: VOLQOD_clean_sbu_1, # of connection points: 6
#     Node 35, Type 1, BuildingBlock: VOLQOD_clean_sbu_1, # of connection points: 6
#     Node 36, Type 1, BuildingBlock: VOLQOD_clean_sbu_1, # of connection points: 6
#     Node 37, Type 1, BuildingBlock: VOLQOD_clean_sbu_1, # of connection points: 6
#     Node 38, Type 1, BuildingBlock: VOLQOD_clean_sbu_1, # of connection points: 6
#     Node 39, Type 1, BuildingBlock: VOLQOD_clean_sbu_1, # of connection points: 6
#     Edge 40, Type (0, 1), BuildingBlock: XIVTED_clean_linker_0, # of connection points: 2
#     Edge 41, Type (0, 1), BuildingBlock: XIVTED_clean_linker_0, # of connection points: 2
#     Edge 42, Type (0, 1), BuildingBlock: XIVTED_clean_linker_0, # of connection points: 2
#     Edge 43, Type (0, 1), BuildingBlock: XIVTED_clean_linker_0, # of connection points: 2
#     Edge 44, Type (0, 1), BuildingBlock: XIVTED_clean_linker_0, # of connection points: 2
#     Edge 45, Type (0, 1), BuildingBlock: XIVTED_clean_linker_0, # of connection points: 2
#     Edge 46, Type (0, 1), BuildingBlock: XIVTED_clean_linker_0, # of connection points: 2
#     Edge 47, Type (0, 1), BuildingBlock: XIVTED_clean_linker_0, # of connection points: 2
#     Edge 48, Type (0, 1), BuildingBlock: XIVTED_clean_linker_0, # of connection points: 2
#     Edge 49, Type (0, 1), BuildingBlock: XIVTED_clean_linker_0, # of connection points: 2
#     Edge 50, Type (0, 1), BuildingBlock: XIVTED_clean_linker_0, # of connection points: 2
#     Edge 51, Type (0, 1), BuildingBlock: XIVTED_clean_linker_0, # of connection points: 2
#     Edge 52, Type (0, 1), BuildingBlock: XIVTED_clean_linker_0, # of connection points: 2
#     Edge 53, Type (0, 1), BuildingBlock: XIVTED_clean_linker_0, # of connection points: 2
#     Edge 54, Type (0, 1), BuildingBlock: XIVTED_clean_linker_0, # of connection points: 2
#     Edge 55, Type (0, 1), BuildingBlock: XIVTED_clean_linker_0, # of connection points: 2
#     Edge 56, Type (0, 1), BuildingBlock: XIVTED_clean_linker_0, # of connection points: 2
#     Edge 57, Type (0, 1), BuildingBlock: XIVTED_clean_linker_0, # of connection points: 2
#     Edge 58, Type (0, 1), BuildingBlock: XIVTED_clean_linker_0, # of connection points: 2
#     Edge 59, Type (0, 1), BuildingBlock: XIVTED_clean_linker_0, # of connection points: 2
#     Edge 60, Type (0, 1), BuildingBlock: XIVTED_clean_linker_0, # of connection points: 2
#     Edge 61, Type (0, 1), BuildingBlock: XIVTED_clean_linker_0, # of connection points: 2
#     Edge 62, Type (0, 1), BuildingBlock: XIVTED_clean_linker_0, # of connection points: 2
#     Edge 63, Type (0, 1), BuildingBlock: XIVTED_clean_linker_0, # of connection points: 2
#     Edge 64, Type (0, 1), BuildingBlock: XIVTED_clean_linker_0, # of connection points: 2
#     Edge 65, Type (0, 1), BuildingBlock: XIVTED_clean_linker_0, # of connection points: 2
#     Edge 66, Type (0, 1), BuildingBlock: XIVTED_clean_linker_0, # of connection points: 2
#     Edge 67, Type (0, 1), BuildingBlock: XIVTED_clean_linker_0, # of connection points: 2
#     Edge 68, Type (0, 1), BuildingBlock: XIVTED_clean_linker_0, # of connection points: 2
#     Edge 69, Type (0, 1), BuildingBlock: XIVTED_clean_linker_0, # of connection points: 2
#     Edge 70, Type (0, 1), BuildingBlock: XIVTED_clean_linker_0, # of connection points: 2
#     Edge 71, Type (0, 1), BuildingBlock: XIVTED_clean_linker_0, # of connection points: 2
#     Edge 72, Type (0, 1), BuildingBlock: XIVTED_clean_linker_0, # of connection points: 2
#     Edge 73, Type (0, 1), BuildingBlock: XIVTED_clean_linker_0, # of connection points: 2
#     Edge 74, Type (0, 1), BuildingBlock: XIVTED_clean_linker_0, # of connection points: 2
#     Edge 75, Type (0, 1), BuildingBlock: XIVTED_clean_linker_0, # of connection points: 2
#     Edge 76, Type (0, 1), BuildingBlock: XIVTED_clean_linker_0, # of connection points: 2
#     Edge 77, Type (0, 1), BuildingBlock: XIVTED_clean_linker_0, # of connection points: 2
#     Edge 78, Type (0, 1), BuildingBlock: XIVTED_clean_linker_0, # of connection points: 2
#     Edge 79, Type (0, 1), BuildingBlock: XIVTED_clean_linker_0, # of connection points: 2
#     Edge 80, Type (0, 1), BuildingBlock: XIVTED_clean_linker_0, # of connection points: 2
#     Edge 81, Type (0, 1), BuildingBlock: XIVTED_clean_linker_0, # of connection points: 2
#     Edge 82, Type (0, 1), BuildingBlock: XIVTED_clean_linker_0, # of connection points: 2
#     Edge 83, Type (0, 1), BuildingBlock: XIVTED_clean_linker_0, # of connection points: 2
#     Edge 84, Type (0, 1), BuildingBlock: XIVTED_clean_linker_0, # of connection points: 2
#     Edge 85, Type (0, 1), BuildingBlock: XIVTED_clean_linker_0, # of connection points: 2
#     Edge 86, Type (0, 1), BuildingBlock: XIVTED_clean_linker_0, # of connection points: 2
#     Edge 87, Type (0, 1), BuildingBlock: XIVTED_clean_linker_0, # of connection points: 2
#     Edge 88, Type (0, 1), BuildingBlock: XIVTED_clean_linker_0, # of connection points: 2
#     Edge 89, Type (0, 1), BuildingBlock: XIVTED_clean_linker_0, # of connection points: 2
#     Edge 90, Type (0, 1), BuildingBlock: XIVTED_clean_linker_0, # of connection points: 2
#     Edge 91, Type (0, 1), BuildingBlock: XIVTED_clean_linker_0, # of connection points: 2
#     Edge 92, Type (0, 1), BuildingBlock: XIVTED_clean_linker_0, # of connection points: 2
#     Edge 93, Type (0, 1), BuildingBlock: XIVTED_clean_linker_0, # of connection points: 2
#     Edge 94, Type (0, 1), BuildingBlock: XIVTED_clean_linker_0, # of connection points: 2
#     Edge 95, Type (0, 1), BuildingBlock: XIVTED_clean_linker_0, # of connection points: 2
#     Edge 96, Type (0, 1), BuildingBlock: XIVTED_clean_linker_0, # of connection points: 2
#     Edge 97, Type (0, 1), BuildingBlock: XIVTED_clean_linker_0, # of connection points: 2
#     Edge 98, Type (0, 1), BuildingBlock: XIVTED_clean_linker_0, # of connection points: 2
#     Edge 99, Type (0, 1), BuildingBlock: XIVTED_clean_linker_0, # of connection points: 2
#     Edge 100, Type (0, 1), BuildingBlock: XIVTED_clean_linker_0, # of connection points: 2
#     Edge 101, Type (0, 1), BuildingBlock: XIVTED_clean_linker_0, # of connection points: 2
#     Edge 102, Type (0, 1), BuildingBlock: XIVTED_clean_linker_0, # of connection points: 2
#     Edge 103, Type (0, 1), BuildingBlock: XIVTED_clean_linker_0, # of connection points: 2
#     Edge 104, Type (0, 1), BuildingBlock: XIVTED_clean_linker_0, # of connection points: 2
#     Edge 105, Type (0, 1), BuildingBlock: XIVTED_clean_linker_0, # of connection points: 2
#     Edge 106, Type (0, 1), BuildingBlock: XIVTED_clean_linker_0, # of connection points: 2
#     Edge 107, Type (0, 1), BuildingBlock: XIVTED_clean_linker_0, # of connection points: 2
#     Edge 108, Type (0, 1), BuildingBlock: XIVTED_clean_linker_0, # of connection points: 2
#     Edge 109, Type (0, 1), BuildingBlock: XIVTED_clean_linker_0, # of connection points: 2
#     Edge 110, Type (0, 1), BuildingBlock: XIVTED_clean_linker_0, # of connection points: 2
#     Edge 111, Type (0, 1), BuildingBlock: XIVTED_clean_linker_0, # of connection points: 2
#     Edge 112, Type (0, 1), BuildingBlock: XIVTED_clean_linker_0, # of connection points: 2
#     Edge 113, Type (0, 1), BuildingBlock: XIVTED_clean_linker_0, # of connection points: 2
#     Edge 114, Type (0, 1), BuildingBlock: XIVTED_clean_linker_0, # of connection points: 2
#     Edge 115, Type (0, 1), BuildingBlock: XIVTED_clean_linker_0, # of connection points: 2
#     Edge 116, Type (0, 1), BuildingBlock: XIVTED_clean_linker_0, # of connection points: 2
#     Edge 117, Type (0, 1), BuildingBlock: XIVTED_clean_linker_0, # of connection points: 2
#     Edge 118, Type (0, 1), BuildingBlock: XIVTED_clean_linker_0, # of connection points: 2
#     Edge 119, Type (0, 1), BuildingBlock: XIVTED_clean_linker_0, # of connection points: 2
#     Edge 120, Type (0, 1), BuildingBlock: XIVTED_clean_linker_0, # of connection points: 2
#     Edge 121, Type (0, 1), BuildingBlock: XIVTED_clean_linker_0, # of connection points: 2
#     Edge 122, Type (0, 1), BuildingBlock: XIVTED_clean_linker_0, # of connection points: 2
#     Edge 123, Type (0, 1), BuildingBlock: XIVTED_clean_linker_0, # of connection points: 2
#     Edge 124, Type (0, 1), BuildingBlock: XIVTED_clean_linker_0, # of connection points: 2
#     Edge 125, Type (0, 1), BuildingBlock: XIVTED_clean_linker_0, # of connection points: 2
#     Edge 126, Type (0, 1), BuildingBlock: XIVTED_clean_linker_0, # of connection points: 2
#     Edge 127, Type (0, 1), BuildingBlock: XIVTED_clean_linker_0, # of connection points: 2
#     Edge 128, Type (0, 1), BuildingBlock: XIVTED_clean_linker_0, # of connection points: 2
#     Edge 129, Type (0, 1), BuildingBlock: XIVTED_clean_linker_0, # of connection points: 2
#     Edge 130, Type (0, 1), BuildingBlock: XIVTED_clean_linker_0, # of connection points: 2
#     Edge 131, Type (0, 1), BuildingBlock: XIVTED_clean_linker_0, # of connection points: 2
#     Edge 132, Type (0, 1), BuildingBlock: XIVTED_clean_linker_0, # of connection points: 2
#     Edge 133, Type (0, 1), BuildingBlock: XIVTED_clean_linker_0, # of connection points: 2
#     Edge 134, Type (0, 1), BuildingBlock: XIVTED_clean_linker_0, # of connection points: 2
#     Edge 135, Type (0, 1), BuildingBlock: XIVTED_clean_linker_0, # of connection points: 2
# Relax obj value: 0.316
# Max RMSD: 0.290
# Mean RMSD: 0.182
data_MOF--net-iac--node1-NAHDIM_clean_sbu_0--node2-VOLQOD_clean_sbu_1--edge1-XIVTED_clean_linker_0
_symmetry_space_group_name_H-M    P1
_symmetry_Int_Tables_number       1
_symmetry_cell_setting            triclinic
loop_
_symmetry_equiv_pos_as_xyz
'x, y, z'
_cell_length_a     55.979929
_cell_length_b     54.6611
_cell_length_c     53.35746
_cell_angle_alpha  90.183945
_cell_angle_beta   90.506321
_cell_angle_gamma 91.230974
loop_
_atom_site_label
_atom_site_type_symbol
_atom_site_fract_x
_atom_site_fract_y
_atom_site_fract_z
_atom_type_partial_charge
C0 C 0.91963 0.28968 0.11511 0.0
O1 O 0.92343 0.28738 0.09098 0.0
O2 O 0.97458 0.26698 0.10031 0.0
Zn3 Zn 0.96931 0.2999 0.11526 0.0
O4 O 0.97408 0.32614 0.08977 0.0
C5 C -0.00559 0.29486 0.16311 0.0
O6 O 0.97904 0.27695 0.16764 0.0
O7 O 0.93644 0.29771 0.12923 0.0
C8 C -0.00441 0.32858 0.0826 0.0
O9 O 0.01162 0.31347 0.09124 0.0
C10 C 0.97187 0.26297 0.077 0.0
O11 O 0.96823 0.28142 0.06183 0.0
O12 O 0.99305 0.3065 0.14263 0.0
C13 C 0.07228 0.67228 0.36216 0.0
O14 O 0.07305 0.65509 0.37927 0.0
O15 O 0.02733 0.6696 0.41532 0.0
Zn16 Zn 0.02987 0.69374 0.38731 0.0
O17 O 0.03505 0.72649 0.40351 0.0
C18 C -0.00315 0.69536 0.34497 0.0
O19 O 0.01619 0.69331 0.33144 0.0
O20 O 0.05637 0.68844 0.3632 0.0
C21 C 0.02891 0.74576 0.39216 0.0
O22 O 0.02069 0.74408 0.36907 0.0
C23 C 0.01145 0.67555 0.43098 0.0
O24 O -0.00113 0.69514 0.42662 0.0
O25 O -0.00147 0.695 0.36874 0.0
C26 C 0.46741 0.75565 0.66981 0.0
O27 O 0.48667 0.74235 0.66944 0.0
O28 O 0.48373 0.75637 0.60292 0.0
Zn29 Zn 0.491 0.78062 0.63014 0.0
O30 O 0.4904 0.81477 0.61729 0.0
C31 C 0.54046 0.77907 0.62734 0.0
O32 O 0.5345 0.77869 0.60348 0.0
O33 O 0.46641 0.77462 0.65621 0.0
C34 C 0.49458 0.81922 0.59438 0.0
O35 O 0.49504 0.80101 0.57828 0.0
C36 C 0.46186 0.75369 0.59677 0.0
O37 O 0.44598 0.76775 0.6072 0.0
O38 O 0.52409 0.77739 0.64361 0.0
C39 C 0.57466 0.19218 0.84554 0.0
O40 O 0.57471 0.17375 0.86129 0.0
O41 O 0.54288 0.18785 0.90398 0.0
Zn42 Zn 0.54046 0.21519 0.87928 0.0
O43 O 0.5505 0.24666 0.89585 0.0
C44 C 0.49211 0.23185 0.87858 0.0
O45 O 0.49916 0.24306 0.89925 0.0
O46 O 0.56154 0.21036 0.84979 0.0
C47 C 0.55223 0.26561 0.88225 0.0
O48 O 0.54833 0.26354 0.85801 0.0
C49 C 0.53583 0.1913 0.92625 0.0
O50 O 0.52735 0.21266 0.9325 0.0
O51 O 0.50664 0.2184 0.86699 0.0
C52 C 0.13085 0.95489 0.22983 0.0
O53 O 0.11141 0.95323 0.24337 0.0
O54 O 0.08863 0.00598 0.20015 0.0
Zn55 Zn 0.11453 0.0037 0.2264 0.0
O56 O 0.09837 -0.00082 0.25954 0.0
C57 C 0.12094 0.05371 0.23678 0.0
O58 O 0.098 0.0505 0.24098 0.0
O59 O 0.13647 0.97534 0.21997 0.0
C60 C 0.10965 0.00453 0.27962 0.0
O61 O 0.13206 0.01207 0.27838 0.0
C62 C 0.07388 0.98832 0.1964 0.0
O63 O 0.0764 0.96787 0.20889 0.0
O64 O 0.1328 0.03573 0.22882 0.0
C65 C 0.25785 0.9287 0.51846 0.0
O66 O 0.27028 0.93556 0.49884 0.0
O67 O 0.29303 0.86537 0.55173 0.0
Zn68 Zn 0.294 0.89176 0.52578 0.0
O69 O 0.29095 0.87662 0.49183 0.0
C70 C 0.32482 0.93332 0.53804 0.0
O71 O 0.3063 0.94093 0.55059 0.0
O72 O 0.26515 0.91134 0.53202 0.0
C73 C 0.30595 0.86112 0.4845 0.0
O74 O 0.32417 0.85592 0.49908 0.0
C75 C 0.27982 0.84662 0.54721 0.0
O76 O 0.26917 0.84438 0.52527 0.0
O77 O 0.32369 0.91267 0.52707 0.0
C78 C 0.33166 0.02667 0.7111 0.0
O79 O 0.34813 0.02173 0.69458 0.0
O80 O 0.38375 -0.00362 0.7187 0.0
Zn81 Zn 0.35486 0.98933 0.73956 0.0
O82 O 0.36462 0.99414 0.77547 0.0
C83 C 0.35295 0.93743 0.74375 0.0
O84 O 0.37455 0.94146 0.75291 0.0
O85 O 0.33043 0.01426 0.73118 0.0
C86 C 0.35468 0.98271 0.79339 0.0
O87 O 0.33649 0.96776 0.78874 0.0
C88 C 0.40511 -0.00422 0.72691 0.0
O89 O 0.40937 0.98735 0.7495 0.0
O90 O 0.34133 0.95533 0.7352 0.0
C91 C 0.26199 0.06514 0.05861 0.0
O92 O 0.26239 0.08914 0.06009 0.0
O93 O 0.2178 0.10607 0.0616 0.0
Zn94 Zn 0.21814 0.07742 0.0378 0.0
O95 O 0.22837 0.09148 0.0049 0.0
C96 C 0.16737 0.07477 0.03878 0.0
O97 O 0.17098 0.09636 0.04908 0.0
O98 O 0.24354 0.05434 0.04943 0.0
C99 C 0.21616 0.08955 0.9848 0.0
O100 O 0.19639 0.07616 0.98453 0.0
C101 C 0.21406 0.12776 0.05418 0.0
O102 O 0.20823 0.13167 0.03065 0.0
O103 O 0.18526 0.06176 0.0337 0.0
C104 C 0.74737 0.45678 0.03612 0.0
O105 O 0.75965 0.45228 0.05663 0.0
O106 O 0.76451 0.39559 0.04691 0.0
Zn107 Zn 0.77521 0.41814 0.01936 0.0
O108 O 0.77622 0.39887 0.98748 0.0
C109 C 0.81344 0.44871 0.00803 0.0
O110 O 0.80072 0.44887 0.98722 0.0
O111 O 0.75102 0.44415 0.01656 0.0
C112 C 0.79087 0.38165 0.98485 0.0
O113 O 0.80653 0.37748 0.00274 0.0
C114 C 0.74845 0.37968 0.04116 0.0
O115 O 0.7405 0.37835 0.01795 0.0
O116 O 0.80653 0.4352 0.02601 0.0
C117 C 0.83835 0.50787 0.25278 0.0
O118 O 0.82591 0.49015 0.26341 0.0
O119 O 0.91337 0.48671 0.25418 0.0
Zn120 Zn 0.88091 0.48194 0.26898 0.0
O121 O 0.88287 0.48512 0.30624 0.0
C122 C 0.86886 0.43119 0.27474 0.0
O123 O 0.88433 0.43288 0.29336 0.0
O124 O 0.861 0.50785 0.25383 0.0
C125 C 0.87499 0.50235 0.31963 0.0
O126 O 0.86463 0.521 0.30892 0.0
C127 C 0.92207 0.50819 0.25732 0.0
O128 O 0.91043 0.52368 0.27131 0.0
O129 O 0.86564 0.4496 0.26077 0.0
C130 C 0.73459 0.57756 0.54916 0.0
O131 O 0.72329 0.59471 0.56128 0.0
O132 O 0.72254 0.6345 0.52512 0.0
Zn133 Zn 0.71423 0.60267 0.50823 0.0
O134 O 0.72386 0.60749 0.47241 0.0
C135 C 0.67283 0.57191 0.50809 0.0
O136 O 0.68911 0.55518 0.50531 0.0
O137 O 0.73326 0.57678 0.52537 0.0
C138 C 0.70836 0.61053 0.45522 0.0
O139 O 0.6856 0.60754 0.4604 0.0
C140 C 0.71759 0.65531 0.51614 0.0
O141 O 0.7043 0.65666 0.4958 0.0
O142 O 0.67937 0.59422 0.51038 0.0
C143 C 0.67727 0.49724 0.74449 0.0
O144 O 0.67664 0.51021 0.76523 0.0
O145 O 0.61645 0.53031 0.7045 0.0
Zn146 Zn 0.64409 0.53347 0.72902 0.0
O147 O 0.62893 0.53307 0.76308 0.0
C148 C 0.65431 0.58531 0.72874 0.0
O149 O 0.63238 0.58592 0.7372 0.0
O150 O 0.66503 0.50398 0.72566 0.0
C151 C 0.63439 0.54542 0.78259 0.0
O152 O 0.65325 0.56014 0.78254 0.0
C153 C 0.59638 0.53923 0.71024 0.0
O154 O 0.59447 0.55158 0.73124 0.0
O155 O 0.66329 0.56474 0.72361 0.0
C156 C 0.02661 0.74324 0.84897 0.0
O157 O 0.01242 0.72434 0.85346 0.0
O158 O 0.97825 0.74588 0.89274 0.0
Zn159 Zn 0.98557 0.76851 0.86412 0.0
O160 O 0.98112 0.80232 0.87683 0.0
C161 C 0.95687 0.74572 0.82244 0.0
O162 O 0.96083 0.72384 0.83145 0.0
O163 O 0.01917 0.76465 0.85302 0.0
C164 C 0.95996 0.80965 0.87973 0.0
O165 O 0.94186 0.79525 0.87315 0.0
C166 C 0.98932 0.75241 0.91267 0.0
O167 O 0.00371 0.77171 0.91195 0.0
O168 O 0.9648 0.76461 0.8339 0.0
C169 C 0.99072 0.2619 0.68323 0.0
O170 O 0.0127 0.27049 0.68571 0.0
O171 O 0.00457 0.20345 0.62729 0.0
Zn172 Zn 0.00862 0.23782 0.63943 0.0
O173 O -0.00044 0.26048 0.61187 0.0
C174 C 0.04766 0.22768 0.66908 0.0
O175 O 0.03238 0.21004 0.67484 0.0
O176 O 0.98571 0.246 0.66646 0.0
C177 C 0.97726 0.25916 0.60715 0.0
O178 O 0.96423 0.24206 0.61807 0.0
C179 C 0.01824 0.19787 0.6094 0.0
O180 O 0.03317 0.2146 0.6007 0.0
O181 O 0.04183 0.24312 0.65251 0.0
C182 C 0.52628 0.28993 0.36686 0.0
O183 O 0.52455 0.28352 0.3905 0.0
O184 O 0.48086 0.25253 0.38855 0.0
Zn185 Zn 0.47663 0.28417 0.37075 0.0
O186 O 0.46962 0.3091 0.39681 0.0
C187 C 0.44341 0.26209 0.33514 0.0
O188 O 0.45378 0.24154 0.34106 0.0
O189 O 0.50734 0.29252 0.35399 0.0
C190 C 0.44835 0.31392 0.4029 0.0
O191 O 0.43038 0.30346 0.39068 0.0
C192 C 0.46655 0.24468 0.40516 0.0
O193 O 0.44685 0.25651 0.40952 0.0
O194 O 0.45041 0.28197 0.34544 0.0
C195 C 0.48165 0.76935 0.17354 0.0
O196 O 0.49324 0.78283 0.15713 0.0
O197 O 0.48989 0.69839 0.13393 0.0
Zn198 Zn 0.50044 0.73261 0.14298 0.0
O199 O 0.49234 0.75396 0.11409 0.0
C200 C 0.54954 0.75105 0.14742 0.0
O201 O 0.54151 0.77115 0.13724 0.0
O202 O 0.48259 0.74614 0.17209 0.0
C203 C 0.49906 0.75376 0.09145 0.0
O204 O 0.51549 0.73857 0.08414 0.0
C205 C 0.47341 0.69496 0.11768 0.0
O206 O 0.46165 0.71377 0.10915 0.0
O207 O 0.53533 0.73299 0.15092 0.0
C208 C 0.91689 0.10284 0.68095 0.0
O209 O 0.92878 0.11684 0.66522 0.0
O210 O 0.92478 0.02441 0.69882 0.0
Zn211 Zn 0.90436 0.05396 0.70164 0.0
O212 O 0.90574 0.06523 0.73745 0.0
C213 C 0.86938 0.02996 0.67075 0.0
O214 O 0.88724 0.03084 0.65494 0.0
O215 O 0.91761 0.07973 0.67832 0.0
C216 C 0.88777 0.0636 0.75176 0.0
O217 O 0.8673 0.05517 0.74271 0.0
C218 C 0.94661 0.0226 0.7051 0.0
O219 O 0.95813 0.04165 0.71473 0.0
O220 O 0.87167 0.0411 0.69162 0.0
C221 C 0.8277 0.08872 0.48473 0.0
O222 O 0.81731 0.09612 0.46403 0.0
O223 O 0.81903 0.15576 0.53006 0.0
Zn224 Zn 0.80419 0.12986 0.50775 0.0
O225 O 0.79619 0.14282 0.47362 0.0
C226 C 0.76059 0.13383 0.53518 0.0
O227 O 0.76589 0.15729 0.53368 0.0
O228 O 0.82517 0.10074 0.50494 0.0
C229 C 0.77772 0.13464 0.46209 0.0
O230 O 0.76391 0.11819 0.47299 0.0
C231 C 0.81569 0.17853 0.52724 0.0
O232 O 0.80519 0.18614 0.50665 0.0
O233 O 0.77425 0.11849 0.52502 0.0
C234 C 0.66867 0.93533 0.28995 0.0
O235 O 0.65272 0.93633 0.30781 0.0
O236 O 0.61277 0.95073 0.24007 0.0
Zn237 Zn 0.63577 0.96685 0.26426 0.0
O238 O 0.62032 0.97413 0.29706 0.0
C239 C 0.65488 0.00305 0.22859 0.0
O240 O 0.66338 0.98455 0.21595 0.0
O241 O 0.66513 0.94685 0.26961 0.0
C242 C 0.63052 0.9904 0.31072 0.0
O243 O 0.65054 0.00075 0.30307 0.0
C244 C 0.59085 0.95629 0.24033 0.0
O245 O 0.58309 0.97028 0.25846 0.0
O246 O 0.64397 -0.00077 0.24902 0.0
C247 C 0.68415 0.86246 0.97296 0.0
O248 O 0.69157 0.85235 0.95215 0.0
O249 O 0.74081 0.83112 0.01704 0.0
Zn250 Zn 0.73279 0.8558 0.99107 0.0
O251 O 0.74156 0.845 0.95657 0.0
C252 C 0.74301 0.90759 -0.00236 0.0
O253 O 0.72291 0.91025 0.98516 0.0
O254 O 0.69816 0.86412 0.9918 0.0
C255 C 0.75841 0.8548 0.94409 0.0
O256 O 0.77191 0.87204 0.95448 0.0
C257 C 0.75938 0.81818 0.01629 0.0
O258 O 0.77259 0.81834 -0.00394 0.0
O259 O 0.7509 0.88627 0.00134 0.0
C260 C 0.31821 0.55581 0.99388 0.0
O261 O 0.30375 0.56636 0.97793 0.0
O262 O 0.32083 0.61568 0.0513 0.0
Zn263 Zn 0.30399 0.5954 0.02482 0.0
O264 O 0.29857 0.61445 0.99344 0.0
C265 C 0.26167 0.60156 0.05288 0.0
O266 O 0.27249 0.62253 0.05812 0.0
O267 O 0.32128 0.56493 0.01569 0.0
C268 C 0.28918 0.63528 0.99126 0.0
O269 O 0.28266 0.64738 0.01128 0.0
C270 C 0.329 0.63738 0.04855 0.0
O271 O 0.33231 0.64594 0.02585 0.0
O272 O 0.27189 0.58629 0.03875 0.0
C273 C 0.14045 0.4305 0.82425 0.0
O274 O 0.12092 0.43456 0.83693 0.0
O275 O 0.09897 0.45574 0.76445 0.0
Zn276 Zn 0.12463 0.46779 0.78814 0.0
O277 O 0.10985 0.48843 0.81451 0.0
C278 C 0.1422 0.5005 0.74904 0.0
O279 O 0.1203 0.49898 0.74005 0.0
O280 O 0.14412 0.44151 0.80366 0.0
C281 C 0.12161 0.50483 0.82654 0.0
O282 O 0.14453 0.50807 0.82221 0.0
C283 C 0.07703 0.4543 0.77037 0.0
O284 O 0.07097 0.45747 0.79387 0.0
O285 O 0.14753 0.4889 0.76884 0.0
C286 C 0.159 0.3923 0.52456 0.0
O287 O 0.16827 0.38949 0.50223 0.0
O288 O 0.21597 0.35719 0.56896 0.0
Zn289 Zn 0.20497 0.37665 0.53962 0.0
O290 O 0.20758 0.35773 0.5075 0.0
C291 C 0.22942 0.41786 0.56039 0.0
O292 O 0.22034 0.40848 0.58094 0.0
O293 O 0.17129 0.38706 0.54387 0.0
C294 C 0.22493 0.36112 0.49269 0.0
O295 O 0.24223 0.37661 0.49902 0.0
C296 C 0.2366 0.34792 0.56933 0.0
O297 O 0.24984 0.34891 0.54915 0.0
O298 O 0.22519 0.40733 0.53948 0.0
C299 C 0.39703 0.54749 0.23173 0.0
O300 O 0.4142 0.54172 0.24744 0.0
O301 O 0.41495 0.47845 0.20675 0.0
Zn302 Zn 0.39106 0.49537 0.22796 0.0
O303 O 0.39986 0.49458 0.26436 0.0
C304 C 0.35121 0.47008 0.20279 0.0
O305 O 0.36431 0.4721 0.18256 0.0
O306 O 0.38639 0.5306 0.21924 0.0
C307 C 0.38327 0.50071 0.27906 0.0
O308 O 0.36207 0.50535 0.26967 0.0
C309 C 0.43737 0.47797 0.21048 0.0
O310 O 0.44703 0.4904 0.22924 0.0
O311 O 0.35929 0.47829 0.22357 0.0
O312 O 0.94572 0.0868 -0.00319 0.0
Zn313 Zn 0.95138 0.05532 0.97932 0.0
O314 O 0.93558 0.02891 -0.00237 0.0
Zn315 Zn 0.95847 0.00384 0.00523 0.0
Zn316 Zn 0.92221 0.04055 0.02925 0.0
Zn317 Zn 0.91062 0.01523 0.97622 0.0
O318 O 0.95143 0.97328 0.98627 0.0
O319 O 0.91766 0.98058 0.96584 0.0
O320 O 0.987 0.05141 0.97921 0.0
O321 O 0.9916 0.01503 -0.00336 0.0
O322 O 0.96025 -0.00349 0.04185 0.0
O323 O 0.94038 0.02699 0.05887 0.0
O324 O 0.8872 0.03018 0.0322 0.0
O325 O 0.93883 0.05889 0.94397 0.0
O326 O 0.87969 0.01527 0.99397 0.0
O327 O 0.90684 0.03427 0.94464 0.0
C328 C 0.93569 0.09303 0.01708 0.0
C329 C 0.93476 0.96651 0.97132 0.0
C330 C 0.95384 0.0086 0.06096 0.0
C331 C 0.00035 0.03435 0.98684 0.0
C332 C 0.87283 0.02112 0.01579 0.0
C333 C 0.91989 0.05016 0.93364 0.0
O334 O 0.92576 0.07732 0.03144 0.0
O335 O 0.26105 0.72601 0.20426 0.0
Zn336 Zn 0.26115 0.72563 0.24162 0.0
O337 O 0.27254 0.75697 0.25478 0.0
Zn338 Zn 0.30033 0.75162 0.27617 0.0
Zn339 Zn 0.28045 0.77955 0.22723 0.0
Zn340 Zn 0.24764 0.77044 0.27474 0.0
O341 O 0.29466 0.76146 0.31186 0.0
O342 O 0.25968 0.77968 0.309 0.0
O343 O 0.28446 0.69967 0.24946 0.0
O344 O 0.31236 0.71706 0.27368 0.0
O345 O 0.32713 0.77299 0.26469 0.0
O346 O 0.31389 0.79387 0.23196 0.0
O347 O 0.25638 0.80714 0.22444 0.0
O348 O 0.22914 0.71467 0.2552 0.0
O349 O 0.23447 0.7997 0.2582 0.0
O350 O 0.22028 0.74681 0.27862 0.0
C351 C 0.2719 0.73955 0.18843 0.0
C352 C 0.27815 0.77394 0.32157 0.0
C353 C 0.3304 0.78883 0.2476 0.0
C354 C 0.30396 0.69855 0.26173 0.0
C355 C 0.239 0.81226 0.23873 0.0
C356 C 0.21517 0.72564 0.26995 0.0
O357 O 0.28115 0.7602 0.19476 0.0
O358 O 0.54004 0.99257 0.53206 0.0
Zn359 Zn 0.52957 0.02381 0.51736 0.0
O360 O 0.53882 0.05066 0.53934 0.0
Zn361 Zn 0.51023 0.06769 0.54949 0.0
Zn362 Zn 0.55612 0.03878 0.56879 0.0
Zn363 Zn 0.55917 0.07263 0.52057 0.0
O364 O 0.50781 0.10057 0.53291 0.0
O365 O 0.54181 0.10287 0.51188 0.0
O366 O 0.49414 0.01997 0.51385 0.0
O367 O 0.48067 0.04837 0.53952 0.0
O368 O 0.50848 0.07022 0.58686 0.0
O369 O 0.53744 0.04606 0.59992 0.0
O370 O 0.58901 0.05486 0.5719 0.0
O371 O 0.54445 0.02615 0.48373 0.0
O372 O 0.58809 0.08174 0.54065 0.0
O373 O 0.56965 0.05776 0.48784 0.0
C374 C 0.55104 0.98625 0.55184 0.0
C375 C 0.52183 0.11173 0.51793 0.0
C376 C 0.51943 0.05919 0.60439 0.0
C377 C 0.47697 0.03031 0.52479 0.0
C378 C 0.59828 0.07271 0.5598 0.0
C379 C 0.56106 0.03982 0.47513 0.0
O380 O 0.55862 0.00199 0.56783 0.0
O381 O 0.2626 0.22315 0.84683 0.0
Zn382 Zn 0.27354 0.25089 0.82453 0.0
O383 O 0.26341 0.24486 0.78971 0.0
Zn384 Zn 0.29083 0.23994 0.76771 0.0
Zn385 Zn 0.24227 0.2162 0.78841 0.0
Zn386 Zn 0.24593 0.27263 0.77778 0.0
O387 O 0.29147 0.26404 0.73888 0.0
O388 O 0.26213 0.28869 0.74915 0.0
O389 O 0.30948 0.25255 0.82648 0.0
O390 O 0.32131 0.24363 0.78783 0.0
O391 O 0.28978 0.20614 0.75231 0.0
O392 O 0.25545 0.19062 0.76617 0.0
O393 O 0.20998 0.22361 0.77466 0.0
O394 O 0.25981 0.28224 0.83865 0.0
O395 O 0.21319 0.26296 0.76517 0.0
O396 O 0.24202 0.29715 0.8047 0.0
C397 C 0.24836 0.20494 0.84328 0.0
C398 C 0.27916 0.28297 0.73483 0.0
C399 C 0.27425 0.18879 0.7532 0.0
C400 C 0.32601 0.24879 0.8107 0.0
C401 C 0.20123 0.24293 0.76551 0.0
C402 C 0.24789 0.29873 0.82768 0.0
O403 O 0.2387 0.2008 0.82199 0.0
O404 O 0.01894 0.97157 0.45083 0.0
Zn405 Zn 0.00376 0.95612 0.48106 0.0
O406 O 0.02056 0.9658 0.51185 0.0
Zn407 Zn 0.03694 0.93813 0.52733 0.0
Zn408 Zn 0.04349 0.99193 0.50402 0.0
Zn409 Zn -0.00266 0.97783 0.5351 0.0
O410 O 0.02673 0.93238 0.56343 0.0
O411 O -0.00292 0.95858 0.56647 0.0
O412 O 0.0065 0.92012 0.47621 0.0
O413 O 0.03071 0.9075 0.50663 0.0
O414 O 0.07243 0.94484 0.52849 0.0
O415 O 0.07641 0.98292 0.5145 0.0
O416 O 0.03563 0.02327 0.52117 0.0
O417 O 0.96895 0.96535 0.4811 0.0
O418 O 0.00445 0.01285 0.54448 0.0
O419 O 0.96457 0.97701 0.5206 0.0
C420 C 0.03522 0.98795 0.44821 0.0
C421 C 0.00976 0.94178 0.57565 0.0
C422 C 0.08538 0.96356 0.52331 0.0
C423 C 0.01808 0.90327 0.487 0.0
C424 C 0.01983 0.02866 0.53714 0.0
C425 C 0.9559 0.97266 0.49892 0.0
O426 O 0.04562 -0.00224 0.46711 0.0
O427 O 0.3069 0.70946 0.75556 0.0
Zn428 Zn 0.27737 0.72179 0.7717 0.0
O429 O 0.24919 0.71293 0.75162 0.0
Zn430 Zn 0.23076 0.74223 0.74544 0.0
Zn431 Zn 0.25826 0.69783 0.71985 0.0
Zn432 Zn 0.2302 0.68967 0.77027 0.0
O433 O 0.19802 0.73985 0.76079 0.0
O434 O 0.19727 0.70193 0.77563 0.0
O435 O 0.28204 0.75817 0.77323 0.0
O436 O 0.24825 0.77254 0.75781 0.0
O437 O 0.2279 0.74828 0.7086 0.0
O438 O 0.24877 0.71892 0.69084 0.0
O439 O 0.24396 0.66373 0.71516 0.0
O440 O 0.2756 0.70889 0.80686 0.0
O441 O 0.22785 0.65762 0.75265 0.0
O442 O 0.244 0.68379 0.8042 0.0
C443 C 0.31094 0.7005 0.73401 0.0
C444 C 0.18716 0.7222 0.7717 0.0
C445 C 0.23669 0.73832 0.68926 0.0
C446 C 0.26896 0.77604 0.76734 0.0
C447 C 0.23324 0.65005 0.73092 0.0
C448 C 0.26145 0.69314 0.81655 0.0
O449 O 0.29404 0.69574 0.71848 0.0
O450 O 0.51326 0.97768 0.0624 0.0
Zn451 Zn 0.50736 0.98502 0.02622 0.0
O452 O 0.47586 0.97298 0.01593 0.0
Zn453 Zn 0.47935 0.9501 0.98796 0.0
Zn454 Zn 0.45958 0.95671 0.04391 0.0
Zn455 Zn 0.4572 0.00058 0.00534 0.0
O456 O 0.45911 0.95974 0.95858 0.0
O457 O 0.44421 -0.00471 0.97046 0.0
O458 O 0.53264 0.96793 0.00741 0.0
O459 O 0.51375 0.94628 0.97785 0.0
O460 O 0.46896 0.91643 -0.00197 0.0
O461 O 0.45433 0.921 0.03625 0.0
O462 O 0.42777 0.97177 0.05158 0.0
O463 O 0.51219 0.02107 0.01975 0.0
O464 O 0.42929 0.00503 0.02774 0.0
O465 O 0.47647 0.03173 0.0057 0.0
C466 C 0.50122 0.967 0.07946 0.0
C467 C 0.44621 0.97821 0.95438 0.0
C468 C 0.45931 0.90756 0.01755 0.0
C469 C 0.53301 0.95371 0.98853 0.0
C470 C 0.4191 0.9919 0.0443 0.0
C471 C 0.49797 0.03716 0.01168 0.0
O472 O 0.4802 0.95845 0.07526 0.0
O473 O 0.1602 0.2846 0.25968 0.0
Zn474 Zn 0.19111 0.27131 0.27286 0.0
O475 O 0.21702 0.28007 0.24995 0.0
Zn476 Zn 0.23521 0.25114 0.24267 0.0
Zn477 Zn 0.20511 0.29453 0.21886 0.0
Zn478 Zn 0.23803 0.30362 0.26587 0.0
O479 O 0.26928 0.25351 0.25452 0.0
O480 O 0.27179 0.29264 0.2655 0.0
O481 O 0.18648 0.23457 0.27407 0.0
O482 O 0.21913 0.22086 0.25594 0.0
O483 O 0.23581 0.2458 0.20591 0.0
O484 O 0.21104 0.27247 0.18906 0.0
O485 O 0.22062 0.32776 0.212 0.0
O486 O 0.19763 0.28445 0.30811 0.0
O487 O 0.23758 0.33589 0.24894 0.0
O488 O 0.22976 0.30797 0.30158 0.0
C489 C 0.15448 0.29485 0.23913 0.0
C490 C 0.28149 0.27215 0.26174 0.0
C491 C 0.22487 0.25438 0.18702 0.0
C492 C 0.19934 0.21694 0.26693 0.0
C493 C 0.23159 0.34241 0.22697 0.0
C494 C 0.21393 0.29924 0.31614 0.0
O495 O 0.16981 0.29929 0.22211 0.0
O496 O 0.52684 0.49646 0.93607 0.0
Zn497 Zn 0.51277 0.47447 0.96236 0.0
O498 O 0.52313 0.48483 -0.00412 0.0
Zn499 Zn 0.5442 0.46099 0.01156 0.0
Zn500 Zn 0.53909 0.51701 0.99341 0.0
Zn501 Zn 0.49528 0.48689 0.01656 0.0
O502 O 0.53229 0.44852 0.04508 0.0
O503 O 0.49655 0.46514 0.04606 0.0
O504 O 0.52557 0.44131 0.95548 0.0
O505 O 0.54843 0.43211 0.98834 0.0
O506 O 0.57583 0.47697 0.01907 0.0
O507 O 0.572 0.51617 0.00884 0.0
O508 O 0.52024 0.54293 0.01105 0.0
O509 O 0.47663 0.47316 0.95807 0.0
O510 O 0.49163 0.5209 0.02959 0.0
O511 O 0.46588 0.4778 -0.00229 0.0
C512 C 0.53915 0.5163 0.93678 0.0
C513 C 0.51225 0.4515 0.05555 0.0
C514 C 0.58415 0.49878 0.0178 0.0
C515 C 0.53964 0.42694 0.96678 0.0
C516 C 0.50221 0.54128 0.02542 0.0
C517 C 0.46065 0.47353 0.97489 0.0
O518 O 0.54473 0.52657 0.95752 0.0
O519 O 0.77968 0.22241 0.22353 0.0
Zn520 Zn 0.75578 0.23182 0.24904 0.0
O521 O 0.72383 0.23258 0.23435 0.0
Zn522 Zn 0.71214 0.26592 0.23525 0.0
Zn523 Zn 0.72452 0.2207 0.19961 0.0
Zn524 Zn 0.70299 0.21175 0.25405 0.0
O525 O 0.68281 0.26888 0.25641 0.0
O526 O 0.67683 0.23072 0.26947 0.0
O527 O 0.7668 0.2652 0.26011 0.0
O528 O 0.73727 0.28929 0.24873 0.0
O529 O 0.70491 0.2775 0.20071 0.0
O530 O 0.71121 0.24578 0.17574 0.0
O531 O 0.70685 0.1881 0.1958 0.0
O532 O 0.75784 0.20985 0.27882 0.0
O533 O 0.68908 0.18485 0.23284 0.0
O534 O 0.7205 0.19624 0.28276 0.0
C535 C 0.7785 0.21828 0.20008 0.0
C536 C 0.67106 0.2531 0.26905 0.0
C537 C 0.70517 0.26791 0.17897 0.0
C538 C 0.75797 0.28634 0.25815 0.0
C539 C 0.6927 0.17699 0.21074 0.0
C540 C 0.74213 0.19714 0.29028 0.0
O541 O 0.75853 0.21726 0.18849 0.0
O542 O 0.97491 0.50135 0.61399 0.0
Zn543 Zn 0.97149 0.50443 0.57711 0.0
O544 O 0.94149 0.49002 0.56568 0.0
Zn545 Zn 0.94817 0.46765 0.53845 0.0
Zn546 Zn 0.92554 0.47264 0.59331 0.0
Zn547 Zn 0.92173 0.51605 0.55306 0.0
O548 O 0.93122 0.47664 0.50709 0.0
O549 O 0.91048 0.50922 0.5175 0.0
O550 O -0.00098 0.48647 0.5631 0.0
O551 O 0.98326 0.46457 0.53188 0.0
O552 O 0.93747 0.43406 0.54729 0.0
O553 O 0.9225 0.43634 0.58556 0.0
O554 O 0.89241 0.48616 0.59877 0.0
O555 O 0.97578 0.53924 0.56605 0.0
O556 O 0.89297 0.51924 0.57442 0.0
O557 O 0.93984 0.54802 0.5513 0.0
C558 C 0.96442 0.48845 0.63056 0.0
C559 C 0.91642 0.49313 0.50154 0.0
C560 C 0.92809 0.42392 0.5663 0.0
C561 C 0.0013 0.47204 0.54461 0.0
C562 C 0.8829 0.50566 0.59072 0.0
C563 C 0.96141 0.55423 0.55623 0.0
O564 O 0.94551 0.4759 0.62538 0.0
O565 O 0.77042 0.72275 0.3043 0.0
Zn566 Zn 0.78604 0.74448 0.27846 0.0
O567 O 0.77623 0.7344 0.24455 0.0
Zn568 Zn 0.80322 0.72204 0.22537 0.0
Zn569 Zn 0.75113 0.7092 0.24653 0.0
Zn570 Zn 0.76386 0.76241 0.22732 0.0
O571 O 0.80752 0.7393 0.19198 0.0
O572 O 0.78191 0.76939 0.19643 0.0
O573 O 0.82146 0.74048 0.28242 0.0
O574 O 0.83349 0.72542 0.24597 0.0
O575 O 0.79833 0.68622 0.21817 0.0
O576 O 0.76155 0.67779 0.23118 0.0
O577 O 0.72094 0.71939 0.22955 0.0
O578 O 0.7776 0.77981 0.28611 0.0
O579 O 0.72959 0.75709 0.21679 0.0
O580 O 0.76564 0.79217 0.24853 0.0
C581 C 0.75366 0.70666 0.30302 0.0
C582 C 0.79796 0.75875 0.18404 0.0
C583 C 0.78091 0.67119 0.22117 0.0
C584 C 0.83791 0.73267 0.2683 0.0
C585 C 0.71498 0.73905 0.21869 0.0
C586 C 0.77058 0.79656 0.2714 0.0
O587 O 0.74396 0.70068 0.28218 0.0
O588 O 0.77467 0.24097 0.70727 0.0
Zn589 Zn 0.77135 0.24074 0.74441 0.0
O590 O 0.78106 0.27268 0.75773 0.0
Zn591 Zn 0.80841 0.26832 0.78038 0.0
Zn592 Zn 0.789 0.29549 0.73033 0.0
Zn593 Zn 0.75476 0.28574 0.77627 0.0
O594 O 0.80091 0.27779 0.81597 0.0
O595 O 0.76338 0.28968 0.81251 0.0
O596 O 0.79353 0.21443 0.75524 0.0
O597 O 0.82083 0.2338 0.77867 0.0
O598 O 0.83588 0.28939 0.7693 0.0
O599 O 0.82324 0.3068 0.73422 0.0
O600 O 0.76846 0.32582 0.73045 0.0
O601 O 0.73764 0.23091 0.75336 0.0
O602 O 0.74643 0.31904 0.76418 0.0
O603 O 0.7256 0.26411 0.77333 0.0
C604 C 0.78146 0.2563 0.69076 0.0
C605 C 0.78206 0.28621 0.82567 0.0
C606 C 0.83955 0.30317 0.7505 0.0
C607 C 0.81287 0.2144 0.76791 0.0
C608 C 0.75275 0.33262 0.74599 0.0
C609 C 0.72149 0.24282 0.76435 0.0
O610 O 0.78714 0.27831 0.69658 0.0
O611 O 0.7118 0.81416 0.70067 0.0
Zn612 Zn 0.74161 0.80014 0.71448 0.0
O613 O 0.76839 0.80644 0.69227 0.0
Zn614 Zn 0.78179 0.7752 0.68266 0.0
Zn615 Zn 0.75797 0.82458 0.66245 0.0
Zn616 Zn 0.79239 0.82557 0.71045 0.0
O617 O 0.81521 0.77184 0.69563 0.0
O618 O 0.8241 0.80907 0.71021 0.0
O619 O 0.73427 0.76427 0.7174 0.0
O620 O 0.76208 0.74634 0.69503 0.0
O621 O 0.78202 0.77229 0.64549 0.0
O622 O 0.76474 0.80559 0.63069 0.0
O623 O 0.77303 0.85895 0.6614 0.0
O624 O 0.74768 0.81269 0.74922 0.0
O625 O 0.79523 0.85919 0.69621 0.0
O626 O 0.78396 0.82947 0.74678 0.0
C627 C 0.70636 0.82323 0.67952 0.0
C628 C 0.83005 0.78725 0.70517 0.0
C629 C 0.77445 0.78498 0.62723 0.0
C630 C 0.74358 0.74506 0.70868 0.0
C631 C 0.78697 0.86997 0.67699 0.0
C632 C 0.76556 0.8236 0.75941 0.0
O633 O 0.72214 0.82758 0.66297 0.0
O634 O 0.44061 0.57821 0.51619 0.0
Zn635 Zn 0.44854 0.54469 0.50447 0.0
O636 O 0.43573 0.52045 0.52763 0.0
Zn637 Zn 0.46062 0.49754 0.53585 0.0
Zn638 Zn 0.42373 0.53571 0.55819 0.0
Zn639 Zn 0.40975 0.50331 0.51104 0.0
O640 O 0.45199 0.46333 0.52508 0.0
O641 O 0.41525 0.46731 0.50997 0.0
O642 O 0.48412 0.5433 0.5031 0.0
O643 O 0.49206 0.5076 0.52057 0.0
O644 O 0.46754 0.49831 0.57248 0.0
O645 O 0.44558 0.52819 0.58773 0.0
O646 O 0.38923 0.52508 0.56534 0.0
O647 O 0.43595 0.53976 0.46927 0.0
O648 O 0.37933 0.50882 0.52833 0.0
O649 O 0.40605 0.51327 0.4754 0.0
C650 C 0.43117 0.58648 0.53601 0.0
C651 C 0.43296 0.45409 0.51545 0.0
C652 C 0.46166 0.51219 0.59048 0.0
C653 C 0.49889 0.52702 0.50938 0.0
C654 C 0.37366 0.51629 0.55 0.0
C655 C 0.41826 0.52704 0.46101 0.0
O656 O 0.42408 0.57234 0.55353 0.0
O657 O 0.02022 0.5092 0.0205 0.0
Zn658 Zn 0.01298 0.54452 0.0156 0.0
O659 O 0.02552 0.56373 0.04345 0.0
Zn660 Zn -0.00135 0.57829 0.06032 0.0
Zn661 Zn 0.04322 0.54336 0.06637 0.0
Zn662 Zn 0.04692 0.58891 0.03077 0.0
O663 O -0.00404 0.61376 0.05021 0.0
O664 O 0.03089 0.62116 0.03176 0.0
O665 O 0.97744 0.54519 0.01307 0.0
O666 O 0.96783 0.56126 0.04976 0.0
O667 O 0.00139 0.57388 0.09779 0.0
O668 O 0.02882 0.54514 0.10055 0.0
O669 O 0.07748 0.55461 0.06959 0.0
O670 O 0.02764 0.5545 0.9833 0.0
O671 O 0.07774 0.59046 0.05008 0.0
O672 O 0.05531 0.58217 -0.00542 0.0
C673 C 0.03196 0.49743 0.03682 0.0
C674 C 0.01062 0.62822 0.03921 0.0
C675 C 0.01328 0.55861 0.11063 0.0
C676 C 0.96196 0.55025 0.02949 0.0
C677 C 0.08807 0.57449 0.06341 0.0
C678 C 0.04512 0.5687 0.97795 0.0
O679 O 0.04209 0.50822 0.05536 0.0
H680 H 0.96841 0.22133 0.10502 0.0
H681 H 0.94652 0.13265 0.98804 0.0
H682 H 0.96633 0.24707 0.02859 0.0
H683 H 0.93059 0.11198 0.06424 0.0
H684 H 0.95568 0.17425 0.00237 0.0
H685 H 0.95772 0.18027 0.0902 0.0
C686 C 0.96596 0.21831 0.08508 0.0
C687 C 0.96824 0.23766 0.06798 0.0
C688 C 0.94997 0.16067 0.01591 0.0
C689 C 0.95575 0.19078 0.05099 0.0
C690 C 0.94471 0.13694 0.00776 0.0
C691 C 0.9379 0.11882 0.02502 0.0
C692 C 0.9487 0.16624 0.04153 0.0
C693 C 0.93572 0.1254 0.05031 0.0
C694 C 0.95964 0.1949 0.07668 0.0
C695 C 0.96474 0.23268 0.0424 0.0
N696 N 0.94137 0.14857 0.05786 0.0
N697 N 0.95865 0.20968 0.03466 0.0
H698 H 0.07271 0.70305 0.32223 0.0
H699 H 0.20652 0.67728 0.28102 0.0
H700 H 0.1146 0.64759 0.35832 0.0
H701 H 0.17284 0.7474 0.27684 0.0
H702 H 0.16962 0.65976 0.29925 0.0
H703 H 0.10597 0.71221 0.29458 0.0
C704 C 0.08883 0.69258 0.3242 0.0
C705 C 0.09108 0.6749 0.34304 0.0
C706 C 0.17033 0.67887 0.29396 0.0
C707 C 0.12923 0.68537 0.31128 0.0
C708 C 0.19121 0.68881 0.28349 0.0
C709 C 0.19262 0.71381 0.27768 0.0
C710 C 0.15077 0.69402 0.29795 0.0
C711 C 0.17248 0.72809 0.28133 0.0
C712 C 0.1078 0.69785 0.30837 0.0
C713 C 0.11225 0.6616 0.34427 0.0
N714 N 0.15239 0.71799 0.29124 0.0
N715 N 0.13073 0.66733 0.32877 0.0
H716 H 0.50723 0.83516 0.54769 0.0
H717 H 0.55537 0.96515 0.59806 0.0
H718 H 0.50431 0.85837 0.62505 0.0
H719 H 0.54556 0.94772 0.51961 0.0
H720 H 0.54421 0.92294 0.60847 0.0
H721 H 0.52682 0.87414 0.53722 0.0
C722 C 0.51051 0.84852 0.56243 0.0
C723 C 0.50396 0.84358 0.58724 0.0
C724 C 0.54485 0.9283 0.58896 0.0
C725 C 0.52678 0.88791 0.5755 0.0
C726 C 0.5515 0.95229 0.583 0.0
C727 C 0.55097 0.96001 0.55797 0.0
C728 C 0.53773 0.91202 0.56973 0.0
C729 C 0.54579 0.94259 0.53919 0.0
C730 C 0.52185 0.87067 0.55647 0.0
C731 C 0.50886 0.86147 0.60563 0.0
N732 N 0.53905 0.91947 0.54548 0.0
N733 N 0.52001 0.88283 0.59938 0.0
H734 H 0.45544 0.25598 0.90059 0.0
H735 H 0.36564 0.23538 0.78464 0.0
H736 H 0.47347 0.21624 0.83354 0.0
H737 H 0.34369 0.26211 0.85697 0.0
H738 H 0.40645 0.23249 0.80067 0.0
H739 H 0.41543 0.26214 0.88342 0.0
C740 C 0.451 0.24854 0.88226 0.0
C741 C 0.46779 0.23549 0.86852 0.0
C742 C 0.3927 0.23907 0.813 0.0
C743 C 0.4221 0.2426 0.84871 0.0
C744 C 0.3694 0.24084 0.80383 0.0
C745 C 0.35114 0.24887 0.81952 0.0
C746 C 0.39784 0.24549 0.83799 0.0
C747 C 0.35714 0.25568 0.84423 0.0
C748 C 0.42815 0.25207 0.87248 0.0
C749 C 0.46105 0.22631 0.84484 0.0
N750 N 0.37997 0.25377 0.85271 0.0
N751 N 0.43872 0.23007 0.83567 0.0
H752 H 0.0112 0.78911 0.37579 0.0
H753 H 0.04169 0.86225 0.50243 0.0
H754 H 0.04546 0.75587 0.43962 0.0
H755 H -0.00436 0.88892 0.4436 0.0
H756 H 0.04498 0.82366 0.47942 0.0
H757 H 0.00796 0.82696 0.39969 0.0
C758 C 0.0182 0.78981 0.39478 0.0
C759 C 0.02856 0.76929 0.40575 0.0
C760 C 0.03405 0.83795 0.47168 0.0
C761 C 0.02475 0.81251 0.43329 0.0
C762 C 0.03211 0.85994 0.48483 0.0
C763 C 0.01845 0.87892 0.47491 0.0
C764 C 0.02239 0.83504 0.44841 0.0
C765 C 0.00644 0.87489 0.452 0.0
C766 C 0.01621 0.81139 0.40847 0.0
C767 C 0.03729 0.77126 0.43045 0.0
N768 N 0.00883 0.85348 0.43948 0.0
N769 N 0.03517 0.79251 0.44342 0.0
H770 H 0.42197 0.76476 0.65517 0.0
H771 H 0.35213 0.70208 0.76232 0.0
H772 H 0.46256 0.72343 0.70895 0.0
H773 H 0.32645 0.69905 0.68577 0.0
H774 H 0.39232 0.71221 0.7469 0.0
H775 H 0.3854 0.74533 0.67044 0.0
C776 C 0.42317 0.75182 0.67043 0.0
C777 C 0.4453 0.74575 0.68094 0.0
C778 C 0.37791 0.70873 0.73359 0.0
C779 C 0.4035 0.72345 0.69834 0.0
C780 C 0.35504 0.70295 0.7423 0.0
C781 C 0.33586 0.70009 0.7253 0.0
C782 C 0.3813 0.71219 0.70785 0.0
C783 C 0.34064 0.70128 0.69956 0.0
C784 C 0.40233 0.74051 0.67887 0.0
C785 C 0.44578 0.72859 0.70045 0.0
N786 N 0.36279 0.70785 0.69164 0.0
N787 N 0.42505 0.71815 0.70881 0.0
H788 H 0.5603 0.14862 0.92424 0.0
H789 H 0.47293 0.07926 0.01307 0.0
H790 H 0.50927 0.18736 0.96875 0.0
H791 H 0.5431 0.05168 -0.00158 0.0
H792 H 0.48604 0.11934 -0.00237 0.0
H793 H 0.55487 0.11294 0.95135 0.0
C794 C 0.54816 0.14969 0.93988 0.0
C795 C 0.53497 0.17081 0.9441 0.0
C796 C 0.49872 0.10466 -0.00174 0.0
C797 C 0.52853 0.13014 0.9749 0.0
C798 C 0.49123 0.0818 0.00698 0.0
C799 C 0.50692 0.06217 0.00677 0.0
C800 C 0.52184 0.10767 0.98864 0.0
C801 C 0.53047 0.06639 -0.00116 0.0
C802 C 0.54519 0.12941 0.95542 0.0
C803 C 0.51967 0.17136 0.96476 0.0
N804 N 0.5371 0.08861 0.98954 0.0
N805 N 0.51652 0.15113 0.97914 0.0
H806 H 0.02706 0.33242 0.16031 0.0
H807 H 0.11482 0.2752 0.26195 0.0
H808 H 0.00866 0.2687 0.20434 0.0
H809 H 0.13651 0.32597 0.20422 0.0
H810 H 0.07318 0.2795 0.24849 0.0
H811 H 0.06417 0.33712 0.18409 0.0
C812 C 0.03069 0.31954 0.17518 0.0
C813 C 0.01497 0.29981 0.18001 0.0
C814 C 0.08706 0.28993 0.23904 0.0
C815 C 0.05755 0.30508 0.20723 0.0
C816 C 0.1108 0.28758 0.24675 0.0
C817 C 0.12916 0.29997 0.2339 0.0
C818 C 0.08174 0.30495 0.21854 0.0
C819 C 0.12294 0.31578 0.21438 0.0
C820 C 0.05192 0.32225 0.18875 0.0
C821 C 0.02044 0.28398 0.1998 0.0
N822 N 0.09977 0.31766 0.20718 0.0
N823 N 0.0415 0.28675 0.2125 0.0
H824 H 0.05598 0.03061 0.17736 0.0
H825 H 0.97285 0.96553 0.07643 0.0
H826 H 0.0455 0.95215 0.17569 0.0
H827 H 0.96233 0.04007 0.1001 0.0
H828 H -0.0005 0.95981 0.11239 0.0
H829 H 0.02248 0.03455 0.14801 0.0
C830 C 0.04664 0.01421 0.1708 0.0
C831 C 0.05363 0.991 0.1788 0.0
C832 C 0.99101 0.97727 0.10997 0.0
C833 C 0.01535 -0.00461 0.14529 0.0
C834 C 0.97578 0.98054 0.08949 0.0
C835 C 0.9655 0.00335 0.08521 0.0
C836 C -0.0036 -0.00287 0.12593 0.0
C837 C 0.96986 0.02217 0.10272 0.0
C838 C 0.0274 0.01649 0.15424 0.0
C839 C 0.04074 0.97039 0.16992 0.0
N840 N 0.98537 0.01879 0.12207 0.0
N841 N 0.02237 0.97304 0.1534 0.0
H842 H 0.26802 0.86499 0.45242 0.0
H843 H 0.31614 0.76803 0.35371 0.0
H844 H 0.33393 0.8265 0.46279 0.0
H845 H 0.24761 0.80255 0.34783 0.0
H846 H 0.32275 0.78821 0.39417 0.0
H847 H 0.26038 0.84184 0.41407 0.0
C848 C 0.28095 0.85171 0.44659 0.0
C849 C 0.30169 0.84772 0.4608 0.0
C850 C 0.30621 0.79121 0.38408 0.0
C851 C 0.29297 0.821 0.41687 0.0
C852 C 0.30238 0.77964 0.36101 0.0
C853 C 0.28135 0.78373 0.34724 0.0
C854 C 0.28893 0.80703 0.39338 0.0
C855 C 0.26415 0.79894 0.35767 0.0
C856 C 0.27651 0.8384 0.42471 0.0
C857 C 0.31774 0.83019 0.45237 0.0
N858 N 0.2684 0.81015 0.38002 0.0
N859 N 0.31306 0.81748 0.43088 0.0
H860 H 0.45363 0.99068 0.73228 0.0
H861 H 0.48098 0.0844 0.62111 0.0
H862 H 0.40043 0.02834 0.68888 0.0
H863 H 0.53075 0.02917 0.64377 0.0
H864 H 0.45502 0.07221 0.65548 0.0
H865 H 0.48502 0.01145 0.70775 0.0
C866 C 0.44858 0.00331 0.71766 0.0
C867 C 0.42442 0.00753 0.71233 0.0
C868 C 0.47183 0.06304 0.65317 0.0
C869 C 0.45999 0.03169 0.68492 0.0
C870 C 0.48677 0.07011 0.63366 0.0
C871 C 0.50778 0.05734 0.6291 0.0
C872 C 0.47793 0.04309 0.66824 0.0
C873 C 0.51451 0.03925 0.64631 0.0
C874 C 0.46644 0.01519 0.70381 0.0
C875 C 0.4188 0.02421 0.69336 0.0
N876 N 0.49936 0.0323 0.66488 0.0
N877 N 0.43645 0.03566 0.68038 0.0
H878 H 0.25338 0.12249 0.981 0.0
H879 H 0.21632 0.16647 0.84366 0.0
H880 H 0.19356 0.09159 0.93913 0.0
H881 H 0.26952 0.20374 0.88982 0.0
H882 H 0.2095 0.13716 0.87729 0.0
H883 H 0.2617 0.15019 0.94629 0.0
C884 C 0.2421 0.12137 0.96441 0.0
C885 C 0.22266 0.10475 0.963 0.0
C886 C 0.22264 0.15176 0.88008 0.0
C887 C 0.23203 0.13657 0.92328 0.0
C888 C 0.22655 0.16855 0.86089 0.0
C889 C 0.24351 0.18765 0.86392 0.0
C890 C 0.23585 0.15399 0.90246 0.0
C891 C 0.25621 0.18938 0.88668 0.0
C892 C 0.24681 0.1373 0.94465 0.0
C893 C 0.20868 0.10415 0.94105 0.0
N894 N 0.25214 0.17272 0.90507 0.0
N895 N 0.2136 0.11992 0.92207 0.0
H896 H 0.065 0.98576 0.28945 0.0
H897 H 0.07266 0.01833 0.43554 0.0
H898 H 0.12629 0.02083 0.32514 0.0
H899 H 0.01775 0.97108 0.40301 0.0
H900 H 0.08966 0.02414 0.39403 0.0
H901 H 0.04499 0.98432 0.32997 0.0
C902 C 0.07425 0.99317 0.3058 0.0
C903 C 0.09741 0.00331 0.30396 0.0
C904 C 0.07381 0.01262 0.39596 0.0
C905 C 0.07455 0.00187 0.35026 0.0
C906 C 0.06399 0.00938 0.41965 0.0
C907 C 0.04384 0.994 0.42283 0.0
C908 C 0.06339 0.00047 0.37525 0.0
C909 C 0.03339 0.98296 0.40149 0.0
C910 C 0.06281 0.99234 0.3289 0.0
C911 C 0.10851 0.01269 0.32573 0.0
N912 N 0.04337 0.9863 0.37861 0.0
N913 N 0.09697 0.01174 0.34798 0.0
H914 H 0.28161 0.85505 0.59753 0.0
H915 H 0.2485 0.72217 0.64222 0.0
H916 H 0.26316 0.79945 0.54264 0.0
H917 H 0.22664 0.78644 0.68262 0.0
H918 H 0.25777 0.7481 0.60596 0.0
H919 H 0.26721 0.82775 0.63058 0.0
C920 C 0.27481 0.83698 0.59248 0.0
C921 C 0.27356 0.82943 0.56738 0.0
C922 C 0.25055 0.75633 0.62268 0.0
C923 C 0.25705 0.79829 0.60495 0.0
C924 C 0.24518 0.7416 0.6433 0.0
C925 C 0.23698 0.75218 0.66556 0.0
C926 C 0.24821 0.78175 0.62468 0.0
C927 C 0.23298 0.77745 0.66592 0.0
C928 C 0.26635 0.82157 0.61127 0.0
C929 C 0.26435 0.80592 0.56182 0.0
N930 N 0.2391 0.79145 0.64596 0.0
N931 N 0.25656 0.79102 0.58053 0.0
H932 H 0.38241 0.01961 0.8134 0.0
H933 H 0.43128 0.94002 0.92479 0.0
H934 H 0.35238 0.94818 0.83011 0.0
H935 H 0.42936 0.01875 0.93069 0.0
H936 H 0.40695 0.94194 0.88655 0.0
H937 H 0.40392 0.01925 0.85362 0.0
C938 C 0.3802 0.00397 0.82565 0.0
C939 C 0.36564 0.98389 0.81852 0.0
C940 C 0.41184 0.95876 0.8963 0.0
C941 C 0.39047 0.98318 0.86398 0.0
C942 C 0.42587 0.95771 0.91794 0.0
C943 C 0.43234 0.97928 0.93084 0.0
C944 C 0.4047 0.98154 0.88725 0.0
C945 C 0.42468 0.0017 0.92129 0.0
C946 C 0.39241 0.00381 0.84853 0.0
C947 C 0.36334 0.96408 0.83501 0.0
N948 N 0.41139 0.0023 0.89988 0.0
N949 N 0.37592 0.96406 0.85688 0.0
H950 H 0.2392 0.1284 0.09789 0.0
H951 H 0.19531 0.25646 0.14552 0.0
H952 H 0.19626 0.17398 0.05026 0.0
H953 H 0.25815 0.22123 0.17427 0.0
H954 H 0.19442 0.22752 0.11019 0.0
H955 H 0.24463 0.16246 0.12697 0.0
C956 C 0.23085 0.1456 0.0936 0.0
C957 C 0.21715 0.14838 0.07176 0.0
C958 C 0.2086 0.22649 0.12406 0.0
C959 C 0.22331 0.18752 0.10496 0.0
C960 C 0.20917 0.24302 0.14414 0.0
C961 C 0.22655 0.24092 0.16311 0.0
C962 C 0.2254 0.20779 0.12324 0.0
C963 C 0.24412 0.22321 0.16038 0.0
C964 C 0.23413 0.16513 0.11009 0.0
C965 C 0.20695 0.17116 0.06697 0.0
N966 N 0.24288 0.20712 0.14106 0.0
N967 N 0.21002 0.18988 0.08363 0.0
H968 H 0.12834 0.10339 0.0368 0.0
H969 H 0.0351 0.00077 -0.00421 0.0
H970 H 0.15139 0.03024 0.02014 0.0
H971 H 0.02504 0.0776 0.9814 0.0
H972 H 0.07708 0.00977 0.00618 0.0
H973 H 0.08908 0.09287 0.0197 0.0
C974 C 0.12512 0.08502 0.02968 0.0
C975 C 0.14317 0.06763 0.02995 0.0
C976 C 0.06573 0.02453 0.00033 0.0
C977 C 0.09815 0.05554 0.01016 0.0
C978 C 0.0418 0.01945 -0.00563 0.0
C979 C 0.02647 0.03853 0.988 0.0
C980 C 0.07416 0.04887 0.00032 0.0
C981 C 0.03614 0.06234 0.98633 0.0
C982 C 0.10273 0.07913 0.01967 0.0
C983 C 0.13793 0.04417 0.02031 0.0
N984 N 0.05927 0.06689 0.99289 0.0
N985 N 0.11576 0.03872 0.01092 0.0
H986 H 0.72254 0.47154 0.07705 0.0
H987 H 0.61787 0.52649 0.99381 0.0
H988 H 0.72597 0.47954 -0.0033 0.0
H989 H 0.60692 0.48069 0.05853 0.0
H990 H 0.6612 0.52583 0.00172 0.0
H991 H 0.68398 0.49187 0.07661 0.0
C992 C 0.7155 0.47816 0.05941 0.0
C993 C 0.72707 0.47339 0.03678 0.0
C994 C 0.64917 0.51656 0.01454 0.0
C995 C 0.68343 0.49678 0.03629 0.0
C996 C 0.62458 0.51698 0.01011 0.0
C997 C 0.60908 0.50329 0.02537 0.0
C998 C 0.658 0.50277 0.0346 0.0
C999 C 0.61847 0.49115 0.04618 0.0
C1000 C 0.69354 0.48971 0.05921 0.0
C1001 C 0.71727 0.48244 0.01448 0.0
N1002 N 0.64242 0.49099 0.0501 0.0
N1003 N 0.69579 0.49348 0.01473 0.0
H1004 H 0.8295 0.4257 0.24454 0.0
H1005 H 0.8009 0.28776 0.28323 0.0
H1006 H 0.87181 0.38733 0.29924 0.0
H1007 H 0.74993 0.33415 0.24648 0.0
H1008 H 0.82813 0.32306 0.28805 0.0
H1009 H 0.80166 0.39086 0.24268 0.0
C1010 C 0.83305 0.40986 0.25603 0.0
C1011 C 0.85303 0.4094 0.27207 0.0
C1012 C 0.81088 0.32552 0.27916 0.0
C1013 C 0.82108 0.36953 0.27014 0.0
C1014 C 0.79531 0.30541 0.27643 0.0
C1015 C 0.77315 0.30798 0.2643 0.0
C1016 C 0.80435 0.34825 0.26942 0.0
C1017 C 0.76683 0.33129 0.25593 0.0
C1018 C 0.81702 0.39006 0.2551 0.0
C1019 C 0.85663 0.38843 0.28662 0.0
N1020 N 0.78247 0.35047 0.25842 0.0
N1021 N 0.8408 0.36926 0.28527 0.0
H1022 H 0.75047 0.53285 0.53458 0.0
H1023 H 0.84414 0.47469 0.59049 0.0
H1024 H 0.75665 0.58621 0.59419 0.0
H1025 H 0.8657 0.54979 0.60396 0.0
H1026 H 0.80236 0.48742 0.58738 0.0
H1027 H 0.78273 0.50991 0.55405 0.0
C1028 C 0.7583 0.53943 0.55205 0.0
C1029 C 0.75113 0.56155 0.56267 0.0
C1030 C 0.81623 0.50095 0.59166 0.0
C1031 C 0.78789 0.5355 0.58499 0.0
C1032 C 0.83994 0.49368 0.59377 0.0
C1033 C 0.85821 0.51134 0.5972 0.0
C1034 C 0.81103 0.52593 0.59326 0.0
C1035 C 0.85201 0.53574 0.60106 0.0
C1036 C 0.77649 0.5262 0.56331 0.0
C1037 C 0.76175 0.56926 0.58536 0.0
N1038 N 0.8289 0.54239 0.59873 0.0
N1039 N 0.78009 0.5566 0.59542 0.0
H1040 H 0.10097 0.09429 0.2571 0.0
H1041 H 0.22173 0.17468 0.25403 0.0
H1042 H 0.16826 0.06678 0.23144 0.0
H1043 H 0.15477 0.20124 0.2817 0.0
H1044 H 0.20335 0.1341 0.24893 0.0
H1045 H 0.12099 0.13283 0.26846 0.0
C1046 C 0.11997 0.09636 0.25378 0.0
C1047 C 0.13293 0.07731 0.24313 0.0
C1048 C 0.19275 0.14874 0.25637 0.0
C1049 C 0.15603 0.12144 0.2563 0.0
C1050 C 0.20326 0.17193 0.2594 0.0
C1051 C 0.18972 0.19153 0.26808 0.0
C1052 C 0.16847 0.14508 0.26193 0.0
C1053 C 0.16589 0.18676 0.27483 0.0
C1054 C 0.13142 0.11836 0.26041 0.0
C1055 C 0.15753 0.08101 0.23947 0.0
N1056 N 0.15597 0.16409 0.27135 0.0
N1057 N 0.16827 0.10269 0.24597 0.0
H1058 H 0.33417 0.97834 0.5593 0.0
H1059 H 0.46218 0.99212 0.49484 0.0
H1060 H 0.36419 0.92461 0.50984 0.0
H1061 H 0.4366 0.04282 0.55025 0.0
H1062 H 0.42402 0.97001 0.49636 0.0
H1063 H 0.36971 0.00447 0.55329 0.0
C1064 C 0.34822 0.97202 0.54721 0.0
C1065 C 0.34628 0.9492 0.53518 0.0
C1066 C 0.42666 0.98608 0.50805 0.0
C1067 C 0.38678 0.97903 0.52805 0.0
C1068 C 0.44844 -0.00119 0.50712 0.0
C1069 C 0.45273 0.01922 0.52266 0.0
C1070 C 0.40901 0.99375 0.52469 0.0
C1071 C 0.43415 0.0271 0.53805 0.0
C1072 C 0.36845 0.98697 0.54374 0.0
C1073 C 0.36497 0.94199 0.51963 0.0
N1074 N 0.41316 0.01419 0.53886 0.0
N1075 N 0.38442 0.95685 0.51655 0.0
H1076 H 0.85792 0.54035 0.22 0.0
H1077 H 0.75132 0.63243 0.23324 0.0
H1078 H 0.7919 0.52231 0.25756 0.0
H1079 H 0.81888 0.64995 0.19838 0.0
H1080 H 0.76193 0.58936 0.23379 0.0
H1081 H 0.84016 0.5774 0.20392 0.0
C1082 C 0.83957 0.54412 0.22472 0.0
C1083 C 0.8265 0.52854 0.24059 0.0
C1084 C 0.77423 0.60258 0.22561 0.0
C1085 C 0.80608 0.57111 0.22237 0.0
C1086 C 0.76817 0.62719 0.2252 0.0
C1087 C 0.78452 0.64492 0.21632 0.0
C1088 C 0.79679 0.59572 0.21712 0.0
C1089 C 0.80593 0.637 0.2059 0.0
C1090 C 0.8294 0.56526 0.21544 0.0
C1091 C 0.80267 0.53403 0.24563 0.0
N1092 N 0.8116 0.61303 0.20696 0.0
N1093 N 0.79332 0.55515 0.23689 0.0
H1094 H 0.6967 0.47301 0.78404 0.0
H1095 H 0.75163 0.36373 0.70531 0.0
H1096 H 0.68786 0.46862 0.70367 0.0
H1097 H 0.73049 0.35781 0.78273 0.0
H1098 H 0.73449 0.40484 0.70395 0.0
H1099 H 0.71614 0.43354 0.78348 0.0
C1100 C 0.699 0.46385 0.76622 0.0
C1101 C 0.69048 0.47408 0.74388 0.0
C1102 C 0.73364 0.39441 0.72115 0.0
C1103 C 0.71283 0.42881 0.74314 0.0
C1104 C 0.74343 0.37104 0.72196 0.0
C1105 C 0.74239 0.35726 0.74412 0.0
C1106 C 0.72326 0.40414 0.74278 0.0
C1107 C 0.73155 0.36763 0.76516 0.0
C1108 C 0.71001 0.44124 0.76594 0.0
C1109 C 0.69401 0.46129 0.72135 0.0
N1110 N 0.72257 0.39043 0.764 0.0
N1111 N 0.70495 0.43927 0.72153 0.0
H1112 H 0.99298 0.83938 0.90298 0.0
H1113 H 0.9023 0.9437 0.93946 0.0
H1114 H 0.91763 0.83331 0.88533 0.0
H1115 H 0.97141 0.93468 0.97455 0.0
H1116 H 0.90771 0.90522 0.91663 0.0
H1117 H 0.98582 0.87711 0.92573 0.0
C1118 C 0.97492 0.84606 0.90377 0.0
C1119 C 0.95585 0.83318 0.89231 0.0
C1120 C 0.92155 0.91169 0.92947 0.0
C1121 C 0.94752 0.87634 0.91844 0.0
C1122 C 0.91849 0.9336 0.94249 0.0
C1123 C 0.93647 0.94249 0.95885 0.0
C1124 C 0.94282 0.89888 0.93268 0.0
C1125 C 0.95708 0.92863 0.96211 0.0
C1126 C 0.97082 0.86754 0.9169 0.0
C1127 C 0.93282 0.84268 0.894 0.0
N1128 N 0.95974 0.90764 0.949 0.0
N1129 N 0.92926 0.86378 0.90684 0.0
H1130 H 0.98896 0.28023 0.73112 0.0
H1131 H 0.85625 0.32532 0.70799 0.0
H1132 H 0.94851 0.27342 0.66216 0.0
H1133 H 0.87976 0.29746 0.77956 0.0
H1134 H 0.89718 0.32344 0.69303 0.0
H1135 H 0.95488 0.30108 0.75025 0.0
C1136 C 0.97299 0.28327 0.72006 0.0
C1137 C 0.97111 0.27461 0.69535 0.0
C1138 C 0.89342 0.31837 0.71223 0.0
C1139 C 0.9331 0.29915 0.71642 0.0
C1140 C 0.87009 0.31954 0.72085 0.0
C1141 C 0.86442 0.31057 0.74473 0.0
C1142 C 0.91108 0.30827 0.72761 0.0
C1143 C 0.88324 0.30381 0.76071 0.0
C1144 C 0.95376 0.29525 0.73085 0.0
C1145 C 0.95034 0.27925 0.68152 0.0
N1146 N 0.90574 0.30219 0.75165 0.0
N1147 N 0.93213 0.2912 0.69225 0.0
H1148 H 0.50796 0.21947 0.40349 0.0
H1149 H 0.47779 0.13302 0.51955 0.0
H1150 H 0.44203 0.22427 0.44452 0.0
H1151 H 0.54755 0.14068 0.48608 0.0
H1152 H 0.46364 0.16591 0.49252 0.0
H1153 H 0.52158 0.18882 0.43287 0.0
C1154 C 0.49624 0.21395 0.4186 0.0
C1155 C 0.47383 0.22449 0.42159 0.0
C1156 C 0.48209 0.16049 0.49132 0.0
C1157 C 0.48947 0.18946 0.45554 0.0
C1158 C 0.49022 0.14182 0.50681 0.0
C1159 C 0.51384 0.13391 0.5049 0.0
C1160 C 0.49768 0.17113 0.47379 0.0
C1161 C 0.52914 0.14597 0.48807 0.0
C1162 C 0.50412 0.19654 0.4355 0.0
C1163 C 0.45945 0.2166 0.44155 0.0
N1164 N 0.52072 0.1638 0.47303 0.0
N1165 N 0.46754 0.19952 0.45784 0.0
H1166 H 0.58471 0.78688 0.14643 0.0
H1167 H 0.67947 0.70392 0.21795 0.0
H1168 H 0.57129 0.71193 0.16856 0.0
H1169 H 0.69519 0.77805 0.19443 0.0
H1170 H 0.63973 0.70683 0.19954 0.0
H1171 H 0.62544 0.78419 0.16319 0.0
C1172 C 0.59034 0.76985 0.15468 0.0
C1173 C 0.57455 0.74963 0.15618 0.0
C1174 C 0.65185 0.72247 0.19837 0.0
C1175 C 0.62096 0.74648 0.17542 0.0
C1176 C 0.67458 0.72084 0.20893 0.0
C1177 C 0.69073 0.74078 0.20777 0.0
C1178 C 0.64512 0.74422 0.18655 0.0
C1179 C 0.68334 0.76222 0.19579 0.0
C1180 C 0.61357 0.76834 0.16428 0.0
C1181 C 0.5828 0.72802 0.16707 0.0
N1182 N 0.66104 0.76338 0.18565 0.0
N1183 N 0.60538 0.72706 0.17632 0.0
H1184 H 0.98936 0.15898 0.62257 0.0
H1185 H 0.04873 0.06773 0.52483 0.0
H1186 H 0.0459 0.18005 0.57196 0.0
H1187 H 0.99001 0.04687 0.57281 0.0
H1188 H 0.04796 0.10897 0.54216 0.0
H1189 H 0.98931 0.11773 0.60479 0.0
C1190 C 0.00174 0.15494 0.60771 0.0
C1191 C 0.01769 0.17296 0.59874 0.0
C1192 C 0.03522 0.09539 0.54889 0.0
C1193 C 0.01773 0.12586 0.57837 0.0
C1194 C 0.03566 0.0718 0.53901 0.0
C1195 C 0.01942 0.05377 0.54739 0.0
C1196 C 0.01846 0.10104 0.56733 0.0
C1197 C 0.00287 0.06017 0.56579 0.0
C1198 C 0.00169 0.1314 0.59757 0.0
C1199 C 0.03332 0.16674 0.57945 0.0
N1200 N 0.00284 0.08329 0.57517 0.0
N1201 N 0.03296 0.14369 0.56994 0.0
H1202 H 0.53762 0.30849 0.32079 0.0
H1203 H 0.65333 0.23054 0.31043 0.0
H1204 H 0.56783 0.27086 0.38424 0.0
H1205 H 0.64337 0.29351 0.26312 0.0
H1206 H 0.62003 0.24336 0.33613 0.0
H1207 H 0.5748 0.30247 0.29792 0.0
C1208 C 0.55219 0.29928 0.33002 0.0
C1209 C 0.5496 0.28993 0.35433 0.0
C1210 C 0.62524 0.25447 0.32023 0.0
C1211 C 0.59176 0.28269 0.32824 0.0
C1212 C 0.64408 0.24705 0.30542 0.0
C1213 C 0.65097 0.26092 0.28454 0.0
C1214 C 0.6129 0.27564 0.31385 0.0
C1215 C 0.63855 0.28231 0.27908 0.0
C1216 C 0.57336 0.2959 0.31699 0.0
C1217 C 0.56904 0.27827 0.36549 0.0
N1218 N 0.61985 0.28891 0.29351 0.0
N1219 N 0.58918 0.27461 0.35218 0.0
H1220 H 0.45577 0.77434 0.09614 0.0
H1221 H 0.48223 0.8727 0.99044 0.0
H1222 H 0.51638 0.77167 0.04684 0.0
H1223 H 0.43257 0.88144 0.05111 0.0
H1224 H 0.48673 0.82986 0.00221 0.0
H1225 H 0.43944 0.80713 0.07103 0.0
C1226 C 0.46556 0.78055 0.07984 0.0
C1227 C 0.48779 0.7708 0.0739 0.0
C1228 C 0.47446 0.84104 0.01256 0.0
C1229 C 0.46922 0.80848 0.04518 0.0
C1230 C 0.47176 0.86546 0.0058 0.0
C1231 C 0.45741 0.88077 0.02024 0.0
C1232 C 0.46259 0.83196 0.03374 0.0
C1233 C 0.44419 0.87039 0.03982 0.0
C1234 C 0.45616 0.79921 0.06547 0.0
C1235 C 0.49937 0.77902 0.05223 0.0
N1236 N 0.44737 0.8467 0.04623 0.0
N1237 N 0.49015 0.79781 0.03885 0.0
H1238 H 0.95667 0.78611 0.79308 0.0
H1239 H 0.8443 0.74011 0.71235 0.0
H1240 H 0.92605 0.71317 0.79848 0.0
H1241 H 0.86918 0.81525 0.71826 0.0
H1242 H 0.87992 0.72737 0.73531 0.0
H1243 H 0.93067 0.79404 0.75749 0.0
C1244 C 0.94452 0.77167 0.78667 0.0
C1245 C 0.94308 0.74912 0.79911 0.0
C1246 C 0.87775 0.74658 0.73116 0.0
C1247 C 0.91311 0.75819 0.75833 0.0
C1248 C 0.85751 0.75388 0.71795 0.0
C1249 C 0.85356 0.77886 0.71385 0.0
C1250 C 0.89413 0.76438 0.74014 0.0
C1251 C 0.87129 0.79586 0.72142 0.0
C1252 C 0.92973 0.7762 0.76626 0.0
C1253 C 0.92746 0.73091 0.78959 0.0
N1254 N 0.89065 0.78833 0.73447 0.0
N1255 N 0.91272 0.73598 0.76994 0.0
H1256 H 0.92733 0.08195 0.77651 0.0
H1257 H 0.87723 0.04222 0.90953 0.0
H1258 H 0.85503 0.05589 0.78879 0.0
H1259 H 0.94723 0.07523 0.89934 0.0
H1260 H 0.86755 0.0511 0.86599 0.0
H1261 H 0.93367 0.08394 0.82182 0.0
C1262 C 0.91269 0.07691 0.78874 0.0
C1263 C 0.89073 0.06831 0.77887 0.0
C1264 C 0.88496 0.05663 0.87329 0.0
C1265 C 0.89794 0.07042 0.83069 0.0
C1266 C 0.89054 0.05149 0.89816 0.0
C1267 C 0.91322 0.05768 0.908 0.0
C1268 C 0.90225 0.06782 0.85797 0.0
C1269 C 0.9296 0.06997 0.89247 0.0
C1270 C 0.91633 0.07807 0.81461 0.0
C1271 C 0.87233 0.06234 0.79557 0.0
N1272 N 0.9239 0.07437 0.86811 0.0
N1273 N 0.87645 0.06319 0.82067 0.0
H1274 H 0.8014 0.22624 0.53201 0.0
H1275 H 0.7827 0.20877 0.67589 0.0
H1276 H 0.83198 0.16695 0.57394 0.0
H1277 H 0.79156 0.28237 0.6476 0.0
H1278 H 0.79504 0.19289 0.63567 0.0
H1279 H 0.79439 0.24786 0.57164 0.0
C1280 C 0.80714 0.21801 0.54942 0.0
C1281 C 0.81687 0.1945 0.54967 0.0
C1282 C 0.79429 0.21253 0.63824 0.0
C1283 C 0.80841 0.21882 0.59471 0.0
C1284 C 0.78695 0.22167 0.66114 0.0
C1285 C 0.78609 0.24701 0.66522 0.0
C1286 C 0.80048 0.22871 0.61895 0.0
C1287 C 0.792 0.26271 0.64526 0.0
C1288 C 0.80305 0.23034 0.57196 0.0
C1289 C 0.82406 0.18481 0.57279 0.0
N1290 N 0.79886 0.25328 0.62281 0.0
N1291 N 0.81924 0.19678 0.59437 0.0
H1292 H 0.58981 0.97225 0.33247 0.0
H1293 H 0.59931 0.06169 0.45146 0.0
H1294 H 0.64688 0.02574 0.34337 0.0
H1295 H 0.54527 0.0047 0.44208 0.0
H1296 H 0.61604 0.05026 0.41098 0.0
H1297 H 0.57236 0.98521 0.37194 0.0
C1298 C 0.59869 0.98671 0.34318 0.0
C1299 C 0.61986 -0.00211 0.33466 0.0
C1300 C 0.60049 0.04032 0.4178 0.0
C1301 C 0.59996 0.01288 0.37983 0.0
C1302 C 0.5909 0.04686 0.44087 0.0
C1303 C 0.57091 0.03408 0.45024 0.0
C1304 C 0.58997 0.0209 0.40402 0.0
C1305 C 0.56075 0.01502 0.4357 0.0
C1306 C 0.5887 0.99412 0.36572 0.0
C1307 C 0.63056 0.01657 0.34927 0.0
N1308 N 0.57042 0.009 0.41336 0.0
N1309 N 0.62048 0.02349 0.37117 0.0
H1310 H 0.79308 0.78254 0.02247 0.0
H1311 H 0.79794 0.80595 0.16936 0.0
H1312 H 0.74674 0.83009 0.0636 0.0
H1313 H 0.8079 0.73282 0.14126 0.0
H1314 H 0.79319 0.82036 0.12649 0.0
H1315 H 0.80968 0.76808 0.06272 0.0
C1316 C 0.78636 0.78982 0.03988 0.0
C1317 C 0.76841 0.80741 0.03974 0.0
C1318 C 0.79692 0.80124 0.12968 0.0
C1319 C 0.78781 0.79183 0.08515 0.0
C1320 C 0.79978 0.79305 0.15407 0.0
C1321 C 0.80284 0.76812 0.15876 0.0
C1322 C 0.79696 0.78438 0.10984 0.0
C1323 C 0.80541 0.75219 0.1383 0.0
C1324 C 0.79588 0.78166 0.06267 0.0
C1325 C 0.76037 0.81636 0.06274 0.0
N1326 N 0.80189 0.76051 0.11454 0.0
N1327 N 0.77027 0.80864 0.08444 0.0
H1328 H 0.9275 0.97775 0.69309 0.0
H1329 H 0.04131 0.95049 0.61363 0.0
H1330 H -0.00506 0.01711 0.69946 0.0
H1331 H 0.96984 0.92378 0.59781 0.0
H1332 H 0.02912 0.96092 0.65628 0.0
H1333 H 0.94731 0.94521 0.67047 0.0
C1334 C 0.94661 0.97931 0.69017 0.0
C1335 C 0.95947 0.00053 0.6974 0.0
C1336 C 0.01636 0.95181 0.64384 0.0
C1337 C 0.98216 0.9635 0.67122 0.0
C1338 C 0.02341 0.94555 0.61962 0.0
C1339 C 0.00642 0.93654 0.6023 0.0
C1340 C 0.99221 0.94902 0.65045 0.0
C1341 C 0.98336 0.93086 0.61071 0.0
C1342 C 0.95792 0.96068 0.67731 0.0
C1343 C 0.98426 0.00129 0.69372 0.0
N1344 N 0.97676 0.93769 0.63406 0.0
N1345 N -0.00528 0.98332 0.68028 0.0
H1346 H 0.73855 0.12291 0.43312 0.0
H1347 H 0.78537 0.19868 0.31468 0.0
H1348 H 0.8053 0.16399 0.43204 0.0
H1349 H 0.71386 0.1679 0.31997 0.0
H1350 H 0.79464 0.18193 0.35584 0.0
H1351 H 0.73067 0.13571 0.39006 0.0
C1352 C 0.75155 0.13462 0.42384 0.0
C1353 C 0.77257 0.14248 0.43622 0.0
C1354 C 0.77696 0.17874 0.34794 0.0
C1355 C 0.76373 0.15705 0.38694 0.0
C1356 C 0.77166 0.1882 0.32437 0.0
C1357 C 0.74872 0.18487 0.31391 0.0
C1358 C 0.75922 0.16579 0.36115 0.0
C1359 C 0.73173 0.17107 0.32735 0.0
C1360 C 0.74704 0.1419 0.39925 0.0
C1361 C 0.7888 0.1576 0.42326 0.0
N1362 N 0.7373 0.16214 0.35035 0.0
N1363 N 0.78403 0.16438 0.39931 0.0
H1364 H 0.60453 0.93816 0.19501 0.0
H1365 H 0.47997 0.95833 0.12497 0.0
H1366 H 0.54289 0.96417 0.23435 0.0
H1367 H 0.54882 0.966 0.08969 0.0
H1368 H 0.50035 0.95124 0.16528 0.0
H1369 H 0.58124 0.93765 0.15614 0.0
C1370 C 0.58597 0.94334 0.1956 0.0
C1371 C 0.57573 0.95156 0.21792 0.0
C1372 C 0.51087 0.95443 0.14862 0.0
C1373 C 0.54908 0.95109 0.17345 0.0
C1374 C 0.49931 0.95848 0.1257 0.0
C1375 C 0.51275 0.963 0.10405 0.0
C1376 C 0.53594 0.95436 0.14963 0.0
C1377 C 0.53776 0.96291 0.10597 0.0
C1378 C 0.57276 0.9432 0.17336 0.0
C1379 C 0.55156 0.95797 0.2175 0.0
N1380 N 0.54852 0.95856 0.12832 0.0
N1381 N 0.53905 0.95778 0.19552 0.0
H1382 H 0.73128 0.8224 0.91645 0.0
H1383 H 0.79879 0.84931 0.78772 0.0
H1384 H 0.79134 0.87296 0.91078 0.0
H1385 H 0.7318 0.80902 0.79323 0.0
H1386 H 0.79835 0.85596 0.83308 0.0
H1387 H 0.73368 0.81448 0.87165 0.0
C1388 C 0.7451 0.83173 0.90581 0.0
C1389 C 0.76107 0.84848 0.91737 0.0
C1390 C 0.78376 0.84571 0.8243 0.0
C1391 C 0.76381 0.83957 0.86593 0.0
C1392 C 0.78397 0.84191 0.79843 0.0
C1393 C 0.76528 0.82861 0.78663 0.0
C1394 C 0.76481 0.83599 0.83847 0.0
C1395 C 0.74656 0.81945 0.80146 0.0
C1396 C 0.74639 0.82727 0.88018 0.0
C1397 C 0.77862 0.85997 0.90261 0.0
N1398 N 0.74685 0.82326 0.82659 0.0
N1399 N 0.77948 0.85536 0.87759 0.0
H1400 H 0.7385 0.95543 0.98362 0.0
H1401 H 0.8576 -0.00398 0.0569 0.0
H1402 H 0.77865 0.90882 0.03288 0.0
H1403 H 0.83279 0.02914 0.98853 0.0
H1404 H 0.81985 0.97245 0.05917 0.0
H1405 H 0.76469 0.99 -0.00413 0.0
C1406 C 0.75259 0.95255 -0.00274 0.0
C1407 C 0.75681 0.92914 0.0068 0.0
C1408 C 0.82239 0.98549 0.04414 0.0
C1409 C 0.78645 0.96853 0.02111 0.0
C1410 C 0.84377 -0.0009 0.043 0.0
C1411 C 0.84823 0.01419 0.02234 0.0
C1412 C 0.80555 0.9873 0.02456 0.0
C1413 C 0.82996 0.01741 0.00461 0.0
C1414 C 0.76745 0.97227 0.00429 0.0
C1415 C 0.77514 0.92647 0.02464 0.0
N1416 N 0.80951 0.00375 0.0059 0.0
N1417 N 0.78945 0.94588 0.03104 0.0
H1418 H 0.33219 0.54456 0.94632 0.0
H1419 H 0.42527 0.45094 0.00079 0.0
H1420 H 0.3372 0.52023 0.02299 0.0
H1421 H 0.43812 0.49473 0.93503 0.0
H1422 H 0.38344 0.46251 -0.00026 0.0
H1423 H 0.3618 0.51421 0.93451 0.0
C1424 C 0.3391 0.53244 0.96054 0.0
C1425 C 0.33272 0.53516 0.98577 0.0
C1426 C 0.39521 0.469 0.98507 0.0
C1427 C 0.366 0.50038 0.97233 0.0
C1428 C 0.41901 0.46228 0.98556 0.0
C1429 C 0.43513 0.47242 0.96832 0.0
C1430 C 0.38768 0.48628 0.96749 0.0
C1431 C 0.4262 0.48678 0.94881 0.0
C1432 C 0.35593 0.51517 0.95377 0.0
C1433 C 0.34206 0.51901 0.00344 0.0
N1434 N 0.40308 0.49393 0.94932 0.0
N1435 N 0.35841 0.50245 -0.00359 0.0
H1436 H 0.18973 0.50451 0.76024 0.0
H1437 H 0.20464 0.63354 0.69242 0.0
H1438 H 0.13519 0.53558 0.7131 0.0
H1439 H 0.24598 0.60965 0.75592 0.0
H1440 H 0.18608 0.59235 0.68935 0.0
H1441 H 0.21728 0.53725 0.74779 0.0
C1442 C 0.18362 0.51806 0.747 0.0
C1443 C 0.15994 0.51771 0.7382 0.0
C1444 C 0.19969 0.596 0.7035 0.0
C1445 C 0.1914 0.55531 0.724 0.0
C1446 C 0.21035 0.61934 0.70512 0.0
C1447 C 0.22664 0.62474 0.72453 0.0
C1448 C 0.20568 0.57818 0.7213 0.0
C1449 C 0.23335 0.60605 0.7408 0.0
C1450 C 0.19939 0.53673 0.73987 0.0
C1451 C 0.15319 0.53543 0.72067 0.0
N1452 N 0.22268 0.58363 0.73896 0.0
N1453 N 0.16875 0.55384 0.71446 0.0
H1454 H 0.13928 0.41046 0.56714 0.0
H1455 H 0.01496 0.44433 0.50434 0.0
H1456 H 0.12519 0.39969 0.48813 0.0
H1457 H 0.04168 0.47659 0.57339 0.0
H1458 H 0.05353 0.42476 0.49873 0.0
H1459 H 0.10119 0.43091 0.57091 0.0
C1460 C 0.1281 0.41226 0.55061 0.0
C1461 C 0.1354 0.40341 0.52727 0.0
C1462 C 0.05092 0.43629 0.51497 0.0
C1463 C 0.09185 0.42685 0.53146 0.0
C1464 C 0.02896 0.44747 0.51819 0.0
C1465 C 0.02506 0.46206 0.53941 0.0
C1466 C 0.06889 0.43949 0.53328 0.0
C1467 C 0.04385 0.46552 0.55674 0.0
C1468 C 0.10644 0.42409 0.55274 0.0
C1469 C 0.12024 0.40634 0.50645 0.0
N1470 N 0.06485 0.45412 0.55341 0.0
N1471 N 0.09908 0.41777 0.50904 0.0
H1472 H 0.86063 6e-05 0.63009 0.0
H1473 H 0.79353 0.90368 0.71371 0.0
H1474 H 0.83434 0.01683 0.70388 0.0
H1475 H 0.79451 0.8957 0.63329 0.0
H1476 H 0.80726 0.94599 0.70952 0.0
H1477 H 0.83489 0.96329 0.62915 0.0
C1478 C 0.84907 -0.00366 0.64587 0.0
C1479 C 0.85002 0.01132 0.66732 0.0
C1480 C 0.80422 0.93518 0.6927 0.0
C1481 C 0.82085 0.96913 0.66645 0.0
C1482 C 0.79654 0.91095 0.6951 0.0
C1483 C 0.79317 0.89614 0.67381 0.0
C1484 C 0.80917 0.94464 0.66885 0.0
C1485 C 0.797 0.90656 0.65015 0.0
C1486 C 0.8344 0.97531 0.6453 0.0
C1487 C 0.8345 0.00567 0.68709 0.0
N1488 N 0.80527 0.93013 0.64829 0.0
N1489 N 0.82093 0.98479 0.68637 0.0
H1490 H 0.72463 0.16196 0.55283 0.0
H1491 H 0.63687 0.04749 0.57681 0.0
H1492 H 0.74554 0.08678 0.54467 0.0
H1493 H 0.61388 0.11985 0.55734 0.0
H1494 H 0.67837 0.06309 0.57862 0.0
H1495 H 0.6857 0.14773 0.56789 0.0
C1496 C 0.72115 0.14247 0.55447 0.0
C1497 C 0.73814 0.12551 0.54697 0.0
C1498 C 0.66413 0.0756 0.5745 0.0
C1499 C 0.69376 0.10918 0.56432 0.0
C1500 C 0.64052 0.06677 0.57363 0.0
C1501 C 0.62214 0.08241 0.56657 0.0
C1502 C 0.6691 0.10021 0.5686 0.0
C1503 C 0.62768 0.10718 0.56249 0.0
C1504 C 0.69895 0.13438 0.56309 0.0
C1505 C 0.73277 0.10047 0.54982 0.0
N1506 N 0.65071 0.1153 0.56335 0.0
N1507 N 0.7109 0.09303 0.55803 0.0
H1508 H 0.1351 0.39266 0.85781 0.0
H1509 H 0.26457 0.34533 0.82557 0.0
H1510 H 0.18756 0.43066 0.81271 0.0
H1511 H 0.20965 0.29974 0.85842 0.0
H1512 H 0.24071 0.3813 0.83394 0.0
H1513 H 0.16552 0.36286 0.86951 0.0
C1514 C 0.15307 0.39491 0.85066 0.0
C1515 C 0.15872 0.41376 0.83381 0.0
C1516 C 0.23412 0.36355 0.84005 0.0
C1517 C 0.19348 0.38021 0.84735 0.0
C1518 C 0.24791 0.34311 0.83558 0.0
C1519 C 0.239 0.31976 0.84148 0.0
C1520 C 0.211 0.36041 0.84979 0.0
C1521 C 0.2171 0.3176 0.85387 0.0
C1522 C 0.17039 0.37797 0.85738 0.0
C1523 C 0.18228 0.41604 0.82528 0.0
N1524 N 0.20351 0.33767 0.85713 0.0
N1525 N 0.1987 0.39937 0.83197 0.0
H1526 H 0.35945 0.56447 0.20432 0.0
H1527 H 0.34836 0.68916 0.28189 0.0
H1528 H 0.40971 0.58596 0.26263 0.0
H1529 H 0.29241 0.65717 0.23522 0.0
H1530 H 0.37312 0.65373 0.27295 0.0
H1531 H 0.33753 0.60172 0.21189 0.0
C1532 C 0.36609 0.57719 0.21849 0.0
C1533 C 0.38633 0.57194 0.23303 0.0
C1534 C 0.35536 0.65451 0.26481 0.0
C1535 C 0.36104 0.61455 0.24207 0.0
C1536 C 0.34117 0.67463 0.27001 0.0
C1537 C 0.31824 0.6762 0.2593 0.0
C1538 C 0.34661 0.636 0.24864 0.0
C1539 C 0.30993 0.65686 0.24393 0.0
C1540 C 0.35344 0.59839 0.22295 0.0
C1541 C 0.39412 0.58921 0.25105 0.0
N1542 N 0.32414 0.6377 0.23898 0.0
N1543 N 0.38134 0.60968 0.25522 0.0
H1544 H 0.48816 0.72802 0.56332 0.0
H1545 H 0.40499 0.612 0.57002 0.0
H1546 H 0.41799 0.73108 0.59592 0.0
H1547 H 0.45622 0.62173 0.51063 0.0
H1548 H 0.40881 0.65571 0.5796 0.0
H1549 H 0.47666 0.68922 0.54319 0.0
C1550 C 0.47022 0.72068 0.56591 0.0
C1551 C 0.45406 0.73256 0.58144 0.0
C1552 C 0.41887 0.64831 0.56418 0.0
C1553 C 0.44097 0.68819 0.55894 0.0
C1554 C 0.41679 0.62338 0.5588 0.0
C1555 C 0.43054 0.61319 0.53973 0.0
C1556 C 0.43518 0.66295 0.55075 0.0
C1557 C 0.44539 0.6288 0.5256 0.0
C1558 C 0.46364 0.69863 0.55437 0.0
C1559 C 0.43099 0.72242 0.5841 0.0
N1560 N 0.44766 0.65284 0.53171 0.0
N1561 N 0.42525 0.70051 0.57335 0.0
H1562 H 0.57637 0.22559 0.80782 0.0
H1563 H 0.70987 0.19426 0.77038 0.0
H1564 H 0.61344 0.16329 0.83723 0.0
H1565 H 0.67915 0.2659 0.76684 0.0
H1566 H 0.67081 0.1772 0.78302 0.0
H1567 H 0.6099 0.23412 0.7802 0.0
C1568 C 0.59141 0.21344 0.80819 0.0
C1569 C 0.59242 0.19408 0.82534 0.0
C1570 C 0.67261 0.19656 0.77901 0.0
C1571 C 0.63087 0.20387 0.79384 0.0
C1572 C 0.69479 0.20626 0.77175 0.0
C1573 C 0.69769 0.23154 0.768 0.0
C1574 C 0.65332 0.21226 0.78204 0.0
C1575 C 0.67769 0.24636 0.76999 0.0
C1576 C 0.61054 0.21835 0.79241 0.0
C1577 C 0.61213 0.17865 0.82459 0.0
N1578 N 0.65639 0.23652 0.77703 0.0
N1579 N 0.63086 0.18415 0.80939 0.0
H1580 H 0.9675 0.35915 0.05527 0.0
H1581 H 0.06152 0.46589 0.0611 0.0
H1582 H 0.04083 0.347 0.07671 0.0
H1583 H 0.00078 0.46765 0.01072 0.0
H1584 H 0.0555 0.42169 0.06522 0.0
H1585 H 0.97982 0.39824 0.03678 0.0
C1586 C 0.98623 0.36456 0.05575 0.0
C1587 C 0.00312 0.35007 0.06787 0.0
C1588 C 0.0438 0.43169 0.05286 0.0
C1589 C 0.01724 0.39473 0.04712 0.0
C1590 C 0.04717 0.45691 0.05058 0.0
C1591 C 0.0314 0.47048 0.03587 0.0
C1592 C 0.02421 0.42013 0.04079 0.0
C1593 C 0.01325 0.45791 0.02243 0.0
C1594 C 0.99327 0.38679 0.0451 0.0
C1595 C 0.0272 0.35775 0.06773 0.0
N1596 N 0.00983 0.43348 0.02564 0.0
N1597 N 0.03349 0.37984 0.05798 0.0
H1598 H 0.98585 0.69543 0.29478 0.0
H1599 H 0.85312 0.74203 0.31633 0.0
H1600 H 0.95517 0.70756 0.36764 0.0
H1601 H 0.87808 0.71671 0.24458 0.0
H1602 H 0.89207 0.73348 0.33457 0.0
H1603 H 0.94776 0.70625 0.27534 0.0
C1604 C 0.9711 0.70027 0.30669 0.0
C1605 C 0.97368 0.70054 0.33288 0.0
C1606 C 0.88907 0.72987 0.31481 0.0
C1607 C 0.93023 0.71318 0.31077 0.0
C1608 C 0.86684 0.73488 0.30432 0.0
C1609 C 0.86222 0.72996 0.27888 0.0
C1610 C 0.90691 0.71993 0.29979 0.0
C1611 C 0.88078 0.7207 0.2643 0.0
C1612 C 0.94939 0.70647 0.29557 0.0
C1613 C 0.95398 0.707 0.34738 0.0
N1614 N 0.9023 0.7159 0.27499 0.0
N1615 N 0.93313 0.71313 0.33612 0.0
H1616 H 0.55141 0.3102 0.85932 0.0
H1617 H 0.55989 0.38628 0.98754 0.0
H1618 H 0.56069 0.27647 0.93174 0.0
H1619 H 0.53336 0.41493 0.91752 0.0
H1620 H 0.56747 0.34734 0.96643 0.0
H1621 H 0.55244 0.35029 0.87956 0.0
C1622 C 0.55392 0.31122 0.87945 0.0
C1623 C 0.55566 0.28995 0.89391 0.0
C1624 C 0.56012 0.36225 0.95573 0.0
C1625 C 0.55676 0.33576 0.91718 0.0
C1626 C 0.55583 0.38445 0.96773 0.0
C1627 C 0.54571 0.40377 0.95433 0.0
C1628 C 0.55448 0.35951 0.93015 0.0
C1629 C 0.54087 0.40044 0.92868 0.0
C1630 C 0.55443 0.33412 0.891 0.0
C1631 C 0.55904 0.29241 0.91991 0.0
N1632 N 0.54524 0.37872 0.91746 0.0
N1633 N 0.5593 0.31493 0.93076 0.0
H1634 H 0.87995 0.27054 0.09107 0.0
H1635 H 0.82434 0.21867 0.21811 0.0
H1636 H 0.91097 0.28181 0.16473 0.0
H1637 H 0.78358 0.22331 0.14922 0.0
H1638 H 0.85955 0.23381 0.19611 0.0
H1639 H 0.84683 0.24745 0.11012 0.0
C1640 C 0.8797 0.26835 0.11124 0.0
C1641 C 0.89818 0.27823 0.12635 0.0
C1642 C 0.84297 0.23122 0.18572 0.0
C1643 C 0.86079 0.25141 0.14807 0.0
C1644 C 0.82289 0.22234 0.19822 0.0
C1645 C 0.80083 0.22021 0.18562 0.0
C1646 C 0.84101 0.238 0.16046 0.0
C1647 C 0.80016 0.22493 0.15976 0.0
C1648 C 0.8609 0.25504 0.12204 0.0
C1649 C 0.89705 0.27469 0.15234 0.0
N1650 N 0.8199 0.23402 0.14808 0.0
N1651 N 0.87872 0.26149 0.16235 0.0
H1652 H 0.03738 0.63754 0.44962 0.0
H1653 H 0.93636 0.59445 0.54229 0.0
H1654 H 0.9748 0.68012 0.46383 0.0
H1655 H 0.00785 0.56649 0.54583 0.0
H1656 H 0.95088 0.62777 0.51576 0.0
H1657 H 0.02768 0.61224 0.48606 0.0
C1658 C 0.02168 0.64162 0.46046 0.0
C1659 C 0.00671 0.66074 0.45352 0.0
C1660 C 0.9635 0.61463 0.52275 0.0
C1661 C -0.00446 0.63198 0.49513 0.0
C1662 C 0.95522 0.59564 0.53795 0.0
C1663 C 0.97084 0.57749 0.54597 0.0
C1664 C 0.98746 0.61516 0.51514 0.0
C1665 C -0.00486 0.58002 0.53994 0.0
C1666 C 0.01625 0.62731 0.48136 0.0
C1667 C 0.98674 0.66542 0.46838 0.0
N1668 N 0.00262 0.5982 0.5244 0.0
N1669 N 0.98157 0.65095 0.4883 0.0
H1670 H 0.57825 0.78993 0.59704 0.0
H1671 H 0.66787 0.81957 0.71057 0.0
H1672 H 0.55837 0.78516 0.67493 0.0
H1673 H 0.68664 0.82806 0.63269 0.0
H1674 H 0.62665 0.81071 0.69794 0.0
H1675 H 0.61756 0.80573 0.60979 0.0
C1676 C 0.58221 0.79199 0.61685 0.0
C1677 C 0.56503 0.78611 0.63496 0.0
C1678 C 0.63971 0.81483 0.68362 0.0
C1679 C 0.6099 0.80456 0.64966 0.0
C1680 C 0.66324 0.82006 0.69082 0.0
C1681 C 0.68082 0.82418 0.67263 0.0
C1682 C 0.63376 0.81356 0.65804 0.0
C1683 C 0.67373 0.82481 0.64735 0.0
C1684 C 0.60461 0.80124 0.6241 0.0
C1685 C 0.57111 0.78935 0.66034 0.0
N1686 N 0.65078 0.81915 0.64078 0.0
N1687 N 0.59307 0.79835 0.66693 0.0
H1688 H 0.55296 0.561 0.71316 0.0
H1689 H 0.49474 0.47857 0.60391 0.0
H1690 H 0.59081 0.5062 0.67183 0.0
H1691 H 0.46413 0.54631 0.62855 0.0
H1692 H 0.52618 0.48372 0.6354 0.0
H1693 H 0.51723 0.55189 0.68775 0.0
C1694 C 0.55377 0.54706 0.69874 0.0
C1695 C 0.57495 0.53443 0.69448 0.0
C1696 C 0.51244 0.49733 0.63411 0.0
C1697 C 0.53406 0.52371 0.66571 0.0
C1698 C 0.49434 0.49433 0.61624 0.0
C1699 C 0.47694 0.51226 0.61326 0.0
C1700 C 0.51317 0.51836 0.64923 0.0
C1701 C 0.47725 0.53211 0.63005 0.0
C1702 C 0.53335 0.54186 0.68431 0.0
C1703 C 0.57495 0.51652 0.67561 0.0
N1704 N 0.4953 0.5348 0.64714 0.0
N1705 N 0.5548 0.51167 0.66196 0.0
H1706 H 0.75489 0.37916 0.95017 0.0
H1707 H 0.81974 0.28685 0.85917 0.0
H1708 H 0.82255 0.34726 0.9692 0.0
H1709 H 0.74554 0.30605 0.85194 0.0
H1710 H 0.82146 0.30777 0.89981 0.0
H1711 H 0.75174 0.35234 0.91376 0.0
C1712 C 0.76915 0.36653 0.94665 0.0
C1713 C 0.7891 0.36555 0.96264 0.0
C1714 C 0.80475 0.3071 0.88942 0.0
C1715 C 0.78557 0.33465 0.92093 0.0
C1716 C 0.80373 0.29511 0.86626 0.0
C1717 C 0.78255 0.29497 0.85193 0.0
C1718 C 0.78453 0.31915 0.89815 0.0
C1719 C 0.76235 0.30591 0.86213 0.0
C1720 C 0.76725 0.35108 0.92593 0.0
C1721 C 0.8069 0.34865 0.95728 0.0
N1722 N 0.76393 0.31779 0.88443 0.0
N1723 N 0.8048 0.33395 0.93672 0.0
H1724 H 0.93656 0.55552 0.2494 0.0
H1725 H 0.02577 0.52005 0.14014 0.0
H1726 H 0.95294 0.48114 0.22954 0.0
H1727 H 0.98588 0.58681 0.14128 0.0
H1728 H 0.0092 0.50923 0.1809 0.0
H1729 H 0.96476 0.57019 0.21785 0.0
C1730 C 0.94643 0.54226 0.23878 0.0
C1731 C 0.94211 0.51704 0.24178 0.0
C1732 C 0.00442 0.52642 0.17237 0.0
C1733 C 0.97438 0.53377 0.20583 0.0
C1734 C 0.01392 0.5327 0.14915 0.0
C1735 C 0.00687 0.55421 0.13706 0.0
C1736 C 0.988 0.54187 0.18369 0.0
C1737 C 0.99152 0.56989 0.14974 0.0
C1738 C 0.96244 0.55068 0.22073 0.0
C1739 C 0.9555 0.50072 0.22756 0.0
N1740 N 0.9824 0.56329 0.17231 0.0
N1741 N 0.97091 0.50938 0.21 0.0
H1742 H 0.68099 0.61671 0.41307 0.0
H1743 H 0.77647 0.70615 0.34864 0.0
H1744 H 0.75188 0.63064 0.44309 0.0
H1745 H 0.71475 0.67614 0.30922 0.0
H1746 H 0.76596 0.6812 0.38497 0.0
H1747 H 0.69178 0.64014 0.37571 0.0
C1748 C 0.6989 0.62446 0.41169 0.0
C1749 C 0.71554 0.62176 0.43124 0.0
C1750 C 0.75472 0.6801 0.36836 0.0
C1751 C 0.72784 0.64891 0.38883 0.0
C1752 C 0.7606 0.69448 0.34768 0.0
C1753 C 0.74648 0.69322 0.32583 0.0
C1754 C 0.73447 0.66451 0.36728 0.0
C1755 C 0.72619 0.67764 0.32564 0.0
C1756 C 0.70502 0.63787 0.3904 0.0
C1757 C 0.73849 0.6322 0.42846 0.0
N1758 N 0.72077 0.66392 0.34607 0.0
N1759 N 0.74389 0.64552 0.40775 0.0
H1760 H 0.59248 0.51949 0.78674 0.0
H1761 H 0.57378 0.55218 0.93117 0.0
H1762 H 0.64034 0.5676 0.82867 0.0
H1763 H 0.52902 0.50141 0.8888 0.0
H1764 H 0.59554 0.56216 0.89287 0.0
H1765 H 0.5668 0.51624 0.82311 0.0
C1766 C 0.59764 0.52938 0.80364 0.0
C1767 C 0.61876 0.54366 0.80472 0.0
C1768 C 0.58078 0.54905 0.89194 0.0
C1769 C 0.58922 0.54005 0.84659 0.0
C1770 C 0.56824 0.54343 0.91377 0.0
C1771 C 0.54969 0.5257 0.91328 0.0
C1772 C 0.5747 0.53686 0.86949 0.0
C1773 C 0.54333 0.51499 0.89017 0.0
C1774 C 0.58287 0.52757 0.82441 0.0
C1775 C 0.62431 0.55625 0.82707 0.0
N1776 N 0.55595 0.52058 0.86928 0.0
N1777 N 0.60968 0.55404 0.8472 0.0
H1778 H 0.72545 0.33562 0.0339 0.0
H1779 H 0.69816 0.31725 0.17903 0.0
H1780 H 0.74793 0.38659 0.09184 0.0
H1781 H 0.70777 0.25607 0.12888 0.0
H1782 H 0.70477 0.34512 0.14412 0.0
H1783 H 0.70882 0.30844 0.06617 0.0
C1784 C 0.72677 0.34113 0.05339 0.0
C1785 C 0.73827 0.36325 0.06031 0.0
C1786 C 0.70506 0.32557 0.14074 0.0
C1787 C 0.71889 0.33264 0.09697 0.0
C1788 C 0.70112 0.30959 0.16059 0.0
C1789 C 0.7029 0.28421 0.15702 0.0
C1790 C 0.71055 0.31617 0.11708 0.0
C1791 C 0.70655 0.27548 0.13259 0.0
C1792 C 0.71729 0.32565 0.0717 0.0
C1793 C 0.73947 0.36956 0.08577 0.0
N1794 N 0.71055 0.29148 0.11353 0.0
N1795 N 0.72984 0.35435 0.1032 0.0
H1796 H 0.86553 0.53769 0.35489 0.0
H1797 H 0.91773 0.45697 0.4665 0.0
H1798 H 0.89096 0.46405 0.34698 0.0
H1799 H 0.89303 0.53046 0.4778 0.0
H1800 H 0.90477 0.45879 0.42308 0.0
H1801 H 0.8725 0.53509 0.40029 0.0
C1802 C 0.87245 0.52097 0.36269 0.0
C1803 C 0.87789 0.50115 0.34711 0.0
C1804 C 0.90204 0.47454 0.43499 0.0
C1805 C 0.8858 0.49804 0.39877 0.0
C1806 C 0.90948 0.47352 0.45986 0.0
C1807 C 0.90669 0.4937 0.47576 0.0
C1808 C 0.89186 0.49598 0.42574 0.0
C1809 C 0.89559 0.51452 0.46613 0.0
C1810 C 0.87641 0.5195 0.38856 0.0
C1811 C 0.88673 0.4799 0.35818 0.0
N1812 N 0.88875 0.51522 0.44161 0.0
N1813 N 0.89047 0.47897 0.38326 0.0
H1814 H 0.70462 0.7032 0.50996 0.0
H1815 H 0.80329 0.74988 0.60889 0.0
H1816 H 0.75599 0.65802 0.5476 0.0
H1817 H 0.74117 0.79166 0.59004 0.0
H1818 H 0.79264 0.72086 0.57566 0.0
H1819 H 0.72318 0.73946 0.53022 0.0
C1820 C 0.71985 0.70094 0.52234 0.0
C1821 C 0.72855 0.67756 0.52746 0.0
C1822 C 0.78157 0.73664 0.57843 0.0
C1823 C 0.75006 0.71875 0.55003 0.0
C1824 C 0.78776 0.75332 0.59726 0.0
C1825 C 0.77281 0.77288 0.60253 0.0
C1826 C 0.76013 0.73939 0.565 0.0
C1827 C 0.75307 0.77667 0.5867 0.0
C1828 C 0.73045 0.72159 0.53377 0.0
C1829 C 0.74842 0.67563 0.54345 0.0
N1830 N 0.74693 0.75968 0.56895 0.0
N1831 N 0.75843 0.69591 0.55418 0.0
H1832 H 0.63485 0.60223 0.50411 0.0
H1833 H 0.53612 0.49617 0.51808 0.0
H1834 H 0.65258 0.52595 0.50989 0.0
H1835 H 0.52052 0.56918 0.49283 0.0
H1836 H 0.57879 0.50652 0.51637 0.0
H1837 H 0.5926 0.59046 0.50194 0.0
C1838 C 0.62984 0.583 0.50499 0.0
C1839 C 0.64723 0.56503 0.50725 0.0
C1840 C 0.566 0.52016 0.51099 0.0
C1841 C 0.59892 0.55144 0.50472 0.0
C1842 C 0.54164 0.51428 0.51194 0.0
C1843 C 0.52469 0.53188 0.50573 0.0
C1844 C 0.5734 0.54387 0.50406 0.0
C1845 C 0.53291 0.55503 0.49785 0.0
C1846 C 0.60573 0.57628 0.5036 0.0
C1847 C 0.63974 0.54039 0.50815 0.0
N1848 N 0.55666 0.56042 0.49748 0.0
N1849 N 0.61609 0.5343 0.507 0.0
H1850 H 0.22769 0.91683 0.55658 0.0
H1851 H 0.1194 0.99414 0.50319 0.0
H1852 H 0.23376 0.96325 0.49147 0.0
H1853 H 0.11091 0.93039 0.55018 0.0
H1854 H 0.16275 0.98976 0.50545 0.0
H1855 H 0.18641 0.92901 0.56128 0.0
C1856 C 0.22044 0.92981 0.54339 0.0
C1857 C 0.23408 0.93873 0.5233 0.0
C1858 C 0.15136 0.9769 0.51541 0.0
C1859 C 0.18679 0.95268 0.52866 0.0
C1860 C 0.12665 0.97939 0.51422 0.0
C1861 C 0.11153 0.96242 0.52632 0.0
C1862 C 0.16097 0.95749 0.52903 0.0
C1863 C 0.12189 0.9437 0.54033 0.0
C1864 C 0.19684 0.93669 0.54609 0.0
C1865 C 0.22379 0.95573 0.50704 0.0
N1866 N 0.14599 0.94169 0.54123 0.0
N1867 N 0.20061 0.96201 0.50994 0.0
H1868 H 0.37104 0.89634 0.76532 0.0
H1869 H 0.24889 0.81858 0.7511 0.0
H1870 H 0.30715 0.92393 0.7305 0.0
H1871 H 0.31323 0.79061 0.7847 0.0
H1872 H 0.26907 0.85826 0.74609 0.0
H1873 H 0.34968 0.85793 0.77393 0.0
C1874 C 0.35257 0.89427 0.75931 0.0
C1875 C 0.34089 0.91337 0.74711 0.0
C1876 C 0.2787 0.84349 0.75475 0.0
C1877 C 0.31623 0.86953 0.7572 0.0
C1878 C 0.26713 0.82085 0.75779 0.0
C1879 C 0.27943 0.80112 0.76817 0.0
C1880 C 0.30275 0.84644 0.7621 0.0
C1881 C 0.30306 0.80521 0.77646 0.0
C1882 C 0.34034 0.87237 0.76437 0.0
C1883 C 0.3169 0.90968 0.73989 0.0
N1884 N 0.314 0.82734 0.77305 0.0
N1885 N 0.30536 0.8882 0.74507 0.0
H1886 H 0.30268 0.0834 0.08043 0.0
H1887 H 0.37938 0.96429 0.0563 0.0
H1888 H 0.27127 0.01641 0.05071 0.0
H1889 H 0.40708 0.03851 0.05455 0.0
H1890 H 0.33972 0.97999 0.06668 0.0
H1891 H 0.34093 0.06335 0.08417 0.0
C1892 C 0.30373 0.06436 0.07497 0.0
C1893 C 0.28387 0.05171 0.06469 0.0
C1894 C 0.35464 0.9927 0.06442 0.0
C1895 C 0.32769 0.02869 0.06898 0.0
C1896 C 0.37719 0.98381 0.05866 0.0
C1897 C 0.39631 0.00023 0.05436 0.0
C1898 C 0.35155 0.01807 0.06637 0.0
C1899 C 0.39266 0.02531 0.05745 0.0
C1900 C 0.32559 0.05294 0.07713 0.0
C1901 C 0.28624 0.02692 0.0584 0.0
N1902 N 0.3707 0.03347 0.0632 0.0
N1903 N 0.30792 0.01624 0.06032 0.0
H1904 H 0.69924 0.59162 0.70905 0.0
H1905 H 0.70313 0.73587 0.7357 0.0
H1906 H 0.6418 0.63135 0.74262 0.0
H1907 H 0.75683 0.69946 0.69252 0.0
H1908 H 0.68227 0.69681 0.74129 0.0
H1909 H 0.72218 0.63011 0.70528 0.0
C1910 C 0.69145 0.60841 0.71563 0.0
C1911 C 0.66852 0.60827 0.72611 0.0
C1912 C 0.69864 0.6973 0.73064 0.0
C1913 C 0.6947 0.65226 0.72198 0.0
C1914 C 0.71065 0.71964 0.72748 0.0
C1915 C 0.73176 0.72104 0.7135 0.0
C1916 C 0.70776 0.67605 0.7198 0.0
C1917 C 0.74059 0.69929 0.70338 0.0
C1918 C 0.70455 0.63036 0.71347 0.0
C1919 C 0.65934 0.63056 0.73434 0.0
N1920 N 0.72851 0.67768 0.70667 0.0
N1921 N 0.67246 0.6516 0.73212 0.0
H1922 H 0.83676 0.47397 0.97131 0.0
H1923 H 0.92814 0.54203 0.06544 0.0
H1924 H 0.83764 0.46137 0.05116 0.0
H1925 H 0.94031 0.535 0.98596 0.0
H1926 H 0.89041 0.51901 0.06025 0.0
H1927 H 0.87089 0.5022 0.97632 0.0
C1928 C 0.84415 0.47714 0.9899 0.0
C1929 C 0.83448 0.4652 0.01084 0.0
C1930 C 0.90127 0.52275 0.04395 0.0
C1931 C 0.87328 0.49768 0.01671 0.0
C1932 C 0.92267 0.53606 0.04684 0.0
C1933 C 0.93746 0.54024 0.02612 0.0
C1934 C 0.89456 0.51384 0.02015 0.0
C1935 C 0.92955 0.53198 0.00248 0.0
C1936 C 0.8636 0.49326 0.99274 0.0
C1937 C 0.84471 0.47003 0.03449 0.0
N1938 N 0.90868 0.51906 0.00016 0.0
N1939 N 0.86356 0.48597 0.0368 0.0
H1940 H 0.34208 0.06699 0.6827 0.0
H1941 H 0.24635 0.14718 0.75371 0.0
H1942 H 0.29071 0.03812 0.73537 0.0
H1943 H 0.31179 0.1771 0.72283 0.0
H1944 H 0.25589 0.10733 0.73639 0.0
H1945 H 0.32415 0.10727 0.68663 0.0
C1946 C 0.32667 0.06898 0.69461 0.0
C1947 C 0.31806 0.04934 0.70908 0.0
C1948 C 0.26801 0.12269 0.73317 0.0
C1949 C 0.29764 0.09516 0.7136 0.0
C1950 C 0.26262 0.14548 0.74306 0.0
C1951 C 0.27856 0.16544 0.74016 0.0
C1952 C 0.28944 0.11981 0.72022 0.0
C1953 C 0.29918 0.16213 0.72587 0.0
C1954 C 0.31657 0.09198 0.69694 0.0
C1955 C 0.29808 0.05291 0.72419 0.0
N1956 N 0.30417 0.13963 0.71663 0.0
N1957 N 0.28868 0.07547 0.72626 0.0
H1958 H 0.12034 0.90823 0.24388 0.0
H1959 H 0.24777 0.85355 0.20996 0.0
H1960 H 0.17594 0.9522 0.20949 0.0
H1961 H 0.19359 0.81743 0.25448 0.0
H1962 H 0.22082 0.88825 0.20423 0.0
H1963 H 0.14594 0.87306 0.24221 0.0
C1964 C 0.13797 0.9105 0.2359 0.0
C1965 C 0.14609 0.93329 0.22708 0.0
C1966 C 0.2149 0.87261 0.21511 0.0
C1967 C 0.17579 0.89284 0.22523 0.0
C1968 C 0.2302 0.85282 0.21829 0.0
C1969 C 0.22301 0.83272 0.23295 0.0
C1970 C 0.19229 0.87198 0.22642 0.0
C1971 C 0.20008 0.83267 0.24334 0.0
C1972 C 0.15264 0.89034 0.23494 0.0
C1973 C 0.16904 0.93496 0.21664 0.0
N1974 N 0.18566 0.85194 0.23992 0.0
N1975 N 0.18322 0.91501 0.21617 0.0
H1976 H 0.4057 0.33204 0.41853 0.0
H1977 H 0.46916 0.42125 0.51833 0.0
H1978 H 0.48124 0.3333 0.43579 0.0
H1979 H 0.3961 0.42825 0.49307 0.0
H1980 H 0.47112 0.38246 0.49585 0.0
H1981 H 0.39963 0.36136 0.45249 0.0
C1982 C 0.42097 0.33837 0.42954 0.0
C1983 C 0.44406 0.3306 0.42405 0.0
C1984 C 0.45454 0.39232 0.49554 0.0
C1985 C 0.43724 0.36386 0.46295 0.0
C1986 C 0.45337 0.41443 0.50847 0.0
C1987 C 0.43263 0.42834 0.50704 0.0
C1988 C 0.43488 0.38415 0.48104 0.0
C1989 C 0.41263 0.41839 0.49426 0.0
C1990 C 0.41749 0.35503 0.44895 0.0
C1991 C 0.46318 0.33914 0.43909 0.0
N1992 N 0.41438 0.39708 0.48138 0.0
N1993 N 0.45936 0.35546 0.45773 0.0
H1994 H 0.45926 0.81274 0.16724 0.0
H1995 H 0.36939 0.78263 0.27787 0.0
H1996 H 0.46476 0.7517 0.2179 0.0
H1997 H 0.34791 0.81565 0.20799 0.0
H1998 H 0.41098 0.78627 0.26505 0.0
H1999 H 0.42519 0.82736 0.19119 0.0
C2000 C 0.4537 0.80278 0.18379 0.0
C2001 C 0.46448 0.78074 0.19043 0.0
C2002 C 0.39716 0.79329 0.25285 0.0
C2003 C 0.42603 0.79755 0.21787 0.0
C2004 C 0.3734 0.79126 0.26011 0.0
C2005 C 0.35506 0.79804 0.24355 0.0
C2006 C 0.4026 0.80229 0.22899 0.0
C2007 C 0.36144 0.80966 0.22108 0.0
C2008 C 0.4343 0.81113 0.19735 0.0
C2009 C 0.45664 0.76855 0.21197 0.0
N2010 N 0.38474 0.81094 0.21417 0.0
N2011 N 0.43771 0.77701 0.22484 0.0
H2012 H 0.95958 0.713 0.92249 0.0
H2013 H 0.03716 0.67024 0.03533 0.0
H2014 H 0.01467 0.75926 0.95603 0.0
H2015 H 0.96653 0.63986 0.02156 0.0
H2016 H 0.02747 0.70519 0.00907 0.0
H2017 H 0.95992 0.68739 0.96009 0.0
C2018 C 0.97156 0.7179 0.93784 0.0
C2019 C 0.98742 0.73802 0.93595 0.0
C2020 C 0.01383 0.69124 0.01229 0.0
C2021 C 0.98792 0.7089 0.97886 0.0
C2022 C 0.01935 0.67137 0.02736 0.0
C2023 C 0.00266 0.65217 0.03041 0.0
C2024 C 0.99175 0.69148 -0.00042 0.0
C2025 C 0.97985 0.65438 0.01966 0.0
C2026 C 0.97163 0.70341 0.95935 0.0
C2027 C 0.00236 0.74372 0.95651 0.0
N2028 N 0.97524 0.67339 0.00412 0.0
N2029 N 0.00252 0.72902 0.97693 0.0
H2030 H 0.08075 0.26526 0.66667 0.0
H2031 H 0.16892 0.20471 0.76612 0.0
H2032 H 0.06612 0.19639 0.70352 0.0
H2033 H 0.17944 0.27779 0.73706 0.0
H2034 H 0.13128 0.20131 0.74299 0.0
H2035 H 0.11752 0.26989 0.69146 0.0
C2036 C 0.08532 0.25107 0.67989 0.0
C2037 C 0.07039 0.2304 0.68303 0.0
C2038 C 0.14175 0.21815 0.74178 0.0
C2039 C 0.11227 0.23563 0.71148 0.0
C2040 C 0.16325 0.22012 0.75501 0.0
C2041 C 0.17742 0.24154 0.75345 0.0
C2042 C 0.13441 0.23766 0.72672 0.0
C2043 C 0.16909 0.26094 0.73881 0.0
C2044 C 0.10624 0.25379 0.69411 0.0
C2045 C 0.0771 0.21264 0.70049 0.0
N2046 N 0.14819 0.25847 0.72586 0.0
N2047 N 0.09757 0.21565 0.71404 0.0
H2048 H 0.4605 0.68665 0.06905 0.0
H2049 H 0.48089 0.54342 0.071 0.0
H2050 H 0.48264 0.64967 0.13644 0.0
H2051 H 0.50484 0.58885 0.00975 0.0
H2052 H 0.46933 0.58027 0.09383 0.0
H2053 H 0.46409 0.6482 0.04574 0.0
C2054 C 0.46554 0.6703 0.07905 0.0
C2055 C 0.4714 0.67124 0.10466 0.0
C2056 C 0.47692 0.58204 0.0753 0.0
C2057 C 0.47534 0.62754 0.07823 0.0
C2058 C 0.48344 0.56113 0.06225 0.0
C2059 C 0.49396 0.56321 0.03856 0.0
C2060 C 0.4804 0.60504 0.06426 0.0
C2061 C 0.49699 0.58655 0.02809 0.0
C2062 C 0.46777 0.64853 0.06571 0.0
C2063 C 0.4781 0.64964 0.11668 0.0
N2064 N 0.49013 0.60664 0.041 0.0
N2065 N 0.47991 0.62858 0.10332 0.0
H2066 H 0.04888 0.70016 0.83961 0.0
H2067 H 0.16163 0.76446 0.77382 0.0
H2068 H 0.05809 0.77846 0.83247 0.0
H2069 H 0.15706 0.68742 0.79141 0.0
H2070 H 0.12223 0.76963 0.79225 0.0
H2071 H 0.08743 0.69487 0.81948 0.0
C2072 C 0.05903 0.71624 0.83388 0.0
C2073 C 0.05028 0.73978 0.83776 0.0
C2074 C 0.12986 0.7516 0.79201 0.0
C2075 C 0.0943 0.73387 0.81456 0.0
C2076 C 0.1523 0.74861 0.78139 0.0
C2077 C 0.16272 0.72549 0.78117 0.0
C2078 C 0.11774 0.73131 0.80236 0.0
C2079 C 0.1498 0.70561 0.79128 0.0
C2080 C 0.08103 0.71321 0.82236 0.0
C2081 C 0.06419 0.75997 0.82992 0.0
N2082 N 0.12801 0.70899 0.8015 0.0
N2083 N 0.0855 0.75655 0.81863 0.0
H2084 H -0.00385 0.29067 0.5726 0.0
H2085 H 0.90917 0.39395 0.6028 0.0
H2086 H 0.93174 0.2743 0.61373 0.0
H2087 H 0.94583 0.39223 0.53189 0.0
H2088 H 0.91632 0.35014 0.6076 0.0
H2089 H 0.97813 0.32833 0.55741 0.0
C2090 C 0.97808 0.29482 0.57805 0.0
C2091 C 0.96545 0.27953 0.59449 0.0
C2092 C 0.92229 0.35934 0.59076 0.0
C2093 C 0.94504 0.32258 0.5778 0.0
C2094 C 0.91826 0.38431 0.58803 0.0
C2095 C 0.92732 0.3969 0.56717 0.0
C2096 C 0.93587 0.34715 0.57277 0.0
C2097 C 0.93882 0.38341 0.5485 0.0
C2098 C 0.96778 0.31621 0.56935 0.0
C2099 C 0.94207 0.28565 0.60103 0.0
N2100 N 0.94327 0.35939 0.55202 0.0
N2101 N 0.93277 0.30704 0.59311 0.0
H2102 H 0.41683 0.2228 0.31741 0.0
H2103 H 0.31442 0.30921 0.26687 0.0
H2104 H 0.4221 0.30168 0.31474 0.0
H2105 H 0.30731 0.2304 0.26777 0.0
H2106 H 0.35615 0.30599 0.27905 0.0
H2107 H 0.37906 0.22435 0.29396 0.0
C2108 C 0.41021 0.24039 0.31161 0.0
C2109 C 0.42237 0.26217 0.31838 0.0
C2110 C 0.34557 0.28934 0.27642 0.0
C2111 C 0.37937 0.26407 0.29173 0.0
C2112 C 0.32169 0.29119 0.26953 0.0
C2113 C 0.30729 0.27005 0.26672 0.0
C2114 C 0.35512 0.2662 0.28086 0.0
C2115 C 0.31777 0.24716 0.26996 0.0
C2116 C 0.38867 0.24127 0.29827 0.0
C2117 C 0.41312 0.28445 0.31029 0.0
N2118 N 0.34104 0.24584 0.27722 0.0
N2119 N 0.39207 0.28482 0.2976 0.0
H2120 H 0.35078 0.50504 0.31642 0.0
H2121 H 0.44756 0.53973 0.42207 0.0
H2122 H 0.42668 0.50616 0.30268 0.0
H2123 H 0.37637 0.51274 0.43848 0.0
H2124 H 0.43901 0.53414 0.37725 0.0
H2125 H 0.35891 0.51379 0.36063 0.0
C2126 C 0.36916 0.50706 0.32274 0.0
C2127 C 0.3881 0.50475 0.30594 0.0
C2128 C 0.42527 0.52959 0.39072 0.0
C2129 C 0.39748 0.51509 0.35633 0.0
C2130 C 0.43005 0.53296 0.41623 0.0
C2131 C 0.41267 0.52657 0.43397 0.0
C2132 C 0.40288 0.5201 0.383 0.0
C2133 C 0.39033 0.51772 0.42542 0.0
C2134 C 0.37377 0.51206 0.34794 0.0
C2135 C 0.41157 0.50759 0.31509 0.0
N2136 N 0.38608 0.51474 0.40053 0.0
N2137 N 0.41562 0.51274 0.33971 0.0
H2138 H 0.321 0.62574 0.09739 0.0
H2139 H 0.30091 0.75835 0.1512 0.0
H2140 H 0.33085 0.68783 0.04837 0.0
H2141 H 0.25776 0.69475 0.17047 0.0
H2142 H 0.3181 0.73491 0.11655 0.0
H2143 H 0.30662 0.65303 0.12977 0.0
C2144 C 0.32062 0.64519 0.09357 0.0
C2145 C 0.32674 0.65443 0.06993 0.0
C2146 C 0.30464 0.72637 0.12828 0.0
C2147 C 0.31006 0.68571 0.10696 0.0
C2148 C 0.29466 0.73972 0.14789 0.0
C2149 C 0.27805 0.72843 0.16404 0.0
C2150 C 0.29822 0.70159 0.12526 0.0
C2151 C 0.27069 0.70421 0.15881 0.0
C2152 C 0.31217 0.6607 0.11199 0.0
C2153 C 0.32613 0.6799 0.06627 0.0
N2154 N 0.28113 0.69152 0.1402 0.0
N2155 N 0.31765 0.69473 0.08457 0.0
H2156 H 0.0738 0.50701 0.83521 0.0
H2157 H 0.08994 0.58285 0.96227 0.0
H2158 H 0.14186 0.53629 0.86131 0.0
H2159 H 0.02326 0.55058 0.93584 0.0
H2160 H 0.10819 0.57242 0.92217 0.0
H2161 H 0.05415 0.52882 0.86876 0.0
C2162 C 0.08463 0.51813 0.84796 0.0
C2163 C 0.10955 0.51953 0.84571 0.0
C2164 C 0.08947 0.56798 0.92504 0.0
C2165 C 0.08712 0.54455 0.88434 0.0
C2166 C 0.07901 0.57405 0.94786 0.0
C2167 C 0.05517 0.56717 0.95253 0.0
C2168 C 0.07592 0.55503 0.90688 0.0
C2169 C 0.04183 0.55583 0.93321 0.0
C2170 C 0.07337 0.53067 0.8671 0.0
C2171 C 0.12261 0.53452 0.86254 0.0
N2172 N 0.05246 0.54987 0.91137 0.0
N2173 N 0.11125 0.54625 0.88137 0.0
H2174 H 0.27508 0.31833 0.57681 0.0
H2175 H 0.26506 0.32932 0.72551 0.0
H2176 H 0.22143 0.35853 0.61625 0.0
H2177 H 0.29822 0.26764 0.69028 0.0
H2178 H 0.25898 0.34749 0.68442 0.0
H2179 H 0.29181 0.3055 0.6174 0.0
C2180 C 0.26686 0.32444 0.59396 0.0
C2181 C 0.24668 0.33925 0.59322 0.0
C2182 C 0.26791 0.33014 0.68568 0.0
C2183 C 0.26601 0.32532 0.63928 0.0
C2184 C 0.27153 0.31983 0.70913 0.0
C2185 C 0.28169 0.2967 0.71123 0.0
C2186 C 0.2744 0.31722 0.66414 0.0
C2187 C 0.29011 0.28542 0.68943 0.0
C2188 C 0.27644 0.3172 0.61701 0.0
C2189 C 0.23678 0.34681 0.61592 0.0
N2190 N 0.28587 0.29561 0.66662 0.0
N2191 N 0.24658 0.33982 0.63799 0.0
H2192 H 0.42306 0.44176 0.17832 0.0
H2193 H 0.54036 0.45628 0.09731 0.0
H2194 H 0.48557 0.48355 0.20206 0.0
H2195 H 0.47274 0.42676 0.07082 0.0
H2196 H 0.52564 0.45398 0.14048 0.0
H2197 H 0.44598 0.42429 0.14436 0.0
C2198 C 0.44173 0.44708 0.17652 0.0
C2199 C 0.45228 0.46463 0.19258 0.0
C2200 C 0.51433 0.44723 0.12528 0.0
C2201 C 0.47859 0.44486 0.15353 0.0
C2202 C 0.52282 0.44828 0.10073 0.0
C2203 C 0.50757 0.44189 0.08068 0.0
C2204 C 0.49054 0.43968 0.12951 0.0
C2205 C 0.48491 0.43201 0.08589 0.0
C2206 C 0.45484 0.43701 0.15718 0.0
C2207 C 0.47666 0.47037 0.18979 0.0
N2208 N 0.47693 0.43155 0.10979 0.0
N2209 N 0.48891 0.46089 0.17023 0.0
H2210 H 0.28427 0.68319 0.97728 0.0
H2211 H 0.24671 0.65028 0.83758 0.0
H2212 H 0.28437 0.60947 0.948 0.0
H2213 H 0.28465 0.718 0.85462 0.0
H2214 H 0.25309 0.63702 0.8807 0.0
H2215 H 0.27743 0.6984 0.93447 0.0
C2216 C 0.28278 0.67027 0.96188 0.0
C2217 C 0.28494 0.64509 0.96605 0.0
C2218 C 0.26001 0.65477 0.87496 0.0
C2219 C 0.27686 0.66217 0.91767 0.0
C2220 C 0.25631 0.66239 0.85044 0.0
C2221 C 0.26528 0.68521 0.84256 0.0
C2222 C 0.27236 0.67026 0.89184 0.0
C2223 C 0.27765 0.70017 0.85997 0.0
C2224 C 0.27902 0.67893 0.93759 0.0
C2225 C 0.28297 0.62904 0.94555 0.0
N2226 N 0.28073 0.69248 0.88397 0.0
N2227 N 0.27886 0.63785 0.92226 0.0
H2228 H 0.08423 0.45861 0.72014 0.0
H2229 H 0.95174 0.45889 0.67059 0.0
H2230 H 0.02801 0.45171 0.77479 0.0
H2231 H 0.00657 0.50979 0.64546 0.0
H2232 H 0.97777 0.44815 0.70624 0.0
H2233 H 0.05436 0.46697 0.68808 0.0
C2234 C 0.06558 0.45843 0.72537 0.0
C2235 C 0.05865 0.45478 0.7503 0.0
C2236 C 0.98377 0.46186 0.69296 0.0
C2237 C 0.02441 0.46438 0.71355 0.0
C2238 C 0.96896 0.4681 0.67274 0.0
C2239 C 0.97706 0.48507 0.65478 0.0
C2240 C 0.00683 0.4723 0.69471 0.0
C2241 C -0.00043 0.49641 0.65855 0.0
C2242 C 0.04858 0.4634 0.70707 0.0
C2243 C 0.03411 0.45466 0.75582 0.0
N2244 N 0.01378 0.4895 0.67779 0.0
N2245 N 0.01776 0.45953 0.73754 0.0
H2246 H 0.25882 0.3646 0.45627 0.0
H2247 H 0.18231 0.28805 0.3541 0.0
H2248 H 0.19006 0.3311 0.47211 0.0
H2249 H 0.24886 0.32659 0.3393 0.0
H2250 H 0.18564 0.30097 0.39813 0.0
H2251 H 0.25653 0.3477 0.41402 0.0
C2252 C 0.24329 0.35357 0.45092 0.0
C2253 C 0.22455 0.3494 0.4677 0.0
C2254 C 0.19949 0.3065 0.38518 0.0
C2255 C 0.22169 0.33007 0.4192 0.0
C2256 C 0.1976 0.29916 0.36007 0.0
C2257 C 0.21524 0.30635 0.34291 0.0
C2258 C 0.21921 0.32103 0.39308 0.0
C2259 C 0.23471 0.3207 0.35171 0.0
C2260 C 0.24196 0.34394 0.42673 0.0
C2261 C 0.20489 0.33485 0.45973 0.0
N2262 N 0.23611 0.32755 0.3761 0.0
N2263 N 0.20391 0.3258 0.43597 0.0
H2264 H 0.24229 0.44873 0.52263 0.0
H2265 H 0.356 0.49986 0.59489 0.0
H2266 H 0.25412 0.43539 0.60139 0.0
H2267 H 0.33468 0.52302 0.52101 0.0
H2268 H 0.31585 0.48191 0.60086 0.0
H2269 H 0.27304 0.4809 0.52408 0.0
C2270 C 0.25125 0.45275 0.54029 0.0
C2271 C 0.24596 0.43916 0.56181 0.0
C2272 C 0.31977 0.49153 0.58362 0.0
C2273 C 0.28144 0.47579 0.56364 0.0
C2274 C 0.34259 0.50192 0.58033 0.0
C2275 C 0.34862 0.51247 0.55728 0.0
C2276 C 0.30318 0.49172 0.56363 0.0
C2277 C 0.33076 0.5146 0.5389 0.0
C2278 C 0.26875 0.47122 0.54119 0.0
C2279 C 0.25784 0.44535 0.58431 0.0
N2280 N 0.30899 0.50392 0.54229 0.0
N2281 N 0.27539 0.46293 0.58455 0.0
H2282 H 0.84538 0.064 0.44433 0.0
H2283 H 0.91987 0.97573 0.53252 0.0
H2284 H 0.84242 0.06255 0.52514 0.0
H2285 H 0.93592 0.98715 0.45442 0.0
H2286 H 0.88338 -0.00131 0.52717 0.0
H2287 H 0.8714 0.02847 0.4454 0.0
C2288 C 0.85003 0.05608 0.46226 0.0
C2289 C 0.84211 0.06647 0.48472 0.0
C2290 C 0.89464 -0.00417 0.51107 0.0
C2291 C 0.87142 0.02581 0.48602 0.0
C2292 C 0.91541 0.98262 0.51408 0.0
C2293 C 0.93116 0.98004 0.494 0.0
C2294 C 0.88974 0.00681 0.4879 0.0
C2295 C 0.92434 0.98896 0.47043 0.0
C2296 C 0.8648 0.03581 0.46284 0.0
C2297 C 0.84847 0.0554 0.5074 0.0
N2298 N 0.90433 0.00247 0.46812 0.0
N2299 N 0.86286 0.03578 0.50746 0.0
H2300 H 0.68591 0.02144 0.19318 0.0
H2301 H 0.64985 0.15819 0.22519 0.0
H2302 H 0.62912 0.04218 0.24262 0.0
H2303 H 0.71187 0.14107 0.18165 0.0
H2304 H 0.63682 0.11548 0.22286 0.0
H2305 H 0.69123 0.06459 0.18115 0.0
C2306 C 0.67442 0.035 0.20128 0.0
C2307 C 0.65737 0.02834 0.21927 0.0
C2308 C 0.65312 0.12102 0.21345 0.0
C2309 C 0.66311 0.07736 0.20546 0.0
C2310 C 0.66048 0.14544 0.2147 0.0
C2311 C 0.68211 0.15299 0.20393 0.0
C2312 C 0.66776 0.10388 0.20182 0.0
C2313 C 0.69511 0.13586 0.1903 0.0
C2314 C 0.67743 0.05956 0.1944 0.0
C2315 C 0.64282 0.04655 0.22905 0.0
N2316 N 0.68799 0.11189 0.19008 0.0
N2317 N 0.64614 0.07018 0.22215 0.0
H2318 H 0.64718 0.85986 0.93869 0.0
H2319 H 0.57736 0.96727 0.00566 0.0
H2320 H 0.66921 0.89476 0.00812 0.0
H2321 H 0.54142 0.91632 0.95521 0.0
H2322 H 0.61432 0.94554 -0.00024 0.0
H2323 H 0.61064 0.88403 0.93895 0.0
C2324 C 0.64429 0.87247 0.95402 0.0
C2325 C 0.6612 0.87523 0.97347 0.0
C2326 C 0.59839 0.9392 0.98983 0.0
C2327 C 0.61999 0.90313 0.97352 0.0
C2328 C 0.57727 0.95169 0.99306 0.0
C2329 C 0.55612 0.94338 0.98122 0.0
C2330 C 0.59849 0.91826 0.97459 0.0
C2331 C 0.55726 0.92324 0.96486 0.0
C2332 C 0.62352 0.88625 0.95409 0.0
C2333 C 0.65663 0.89187 0.99281 0.0
N2334 N 0.57811 0.91117 0.96218 0.0
N2335 N 0.63656 0.90527 0.99225 0.0
H2336 H 0.31629 0.471 0.23791 0.0
H2337 H 0.24668 0.35544 0.18001 0.0
H2338 H 0.33303 0.43939 0.16611 0.0
H2339 H 0.2372 0.38377 0.25471 0.0
H2340 H 0.27085 0.39204 0.16986 0.0
H2341 H 0.2803 0.44532 0.23948 0.0
C2342 C 0.31227 0.45876 0.22235 0.0
C2343 C 0.32793 0.45691 0.20211 0.0
C2344 C 0.263 0.39048 0.18827 0.0
C2345 C 0.28678 0.42722 0.20388 0.0
C2346 C 0.24907 0.36972 0.19399 0.0
C2347 C 0.24034 0.3665 0.21835 0.0
C2348 C 0.268 0.408 0.20705 0.0
C2349 C 0.24398 0.38542 0.23583 0.0
C2350 C 0.29166 0.44413 0.22322 0.0
C2351 C 0.32157 0.44113 0.18223 0.0
N2352 N 0.25779 0.40519 0.22995 0.0
N2353 N 0.30165 0.42653 0.18381 0.0
H2354 H 0.23117 0.63425 0.07328 0.0
H2355 H 0.12059 0.53975 0.07554 0.0
H2356 H 0.23612 0.55831 0.05176 0.0
H2357 H 0.11358 0.61761 0.06528 0.0
H2358 H 0.16394 0.54574 0.07935 0.0
H2359 H 0.18893 0.62731 0.08274 0.0
C2360 C 0.22347 0.61604 0.07086 0.0
C2361 C 0.23703 0.59689 0.06134 0.0
C2362 C 0.15281 0.5615 0.07663 0.0
C2363 C 0.18893 0.58889 0.0723 0.0
C2364 C 0.12811 0.55815 0.07458 0.0
C2365 C 0.11356 0.5782 0.06972 0.0
C2366 C 0.16287 0.58508 0.07415 0.0
C2367 C 0.12422 0.60162 0.06864 0.0
C2368 C 0.19939 0.61214 0.07623 0.0
C2369 C 0.22618 0.57364 0.05872 0.0
N2370 N 0.1483 0.60441 0.07067 0.0
N2371 N 0.20266 0.57031 0.06403 0.0
H2372 H 0.67862 0.90341 0.328 0.0
H2373 H 0.77824 0.83964 0.24766 0.0
H2374 H 0.70632 0.93102 0.25807 0.0
H2375 H 0.74997 0.80903 0.31588 0.0
H2376 H 0.75926 0.87822 0.25721 0.0
H2377 H 0.71063 0.87366 0.32923 0.0
C2378 C 0.6916 0.90343 0.31306 0.0
C2379 C 0.6895 0.91938 0.29261 0.0
C2380 C 0.75755 0.8633 0.27042 0.0
C2381 C 0.72616 0.88547 0.29398 0.0
C2382 C 0.7685 0.84132 0.26502 0.0
C2383 C 0.76533 0.82114 0.28086 0.0
C2384 C 0.74284 0.86491 0.29151 0.0
C2385 C 0.75273 0.82422 0.30318 0.0
C2386 C 0.7099 0.88647 0.31382 0.0
C2387 C 0.70697 0.91878 0.27396 0.0
N2388 N 0.74141 0.84558 0.30759 0.0
N2389 N 0.72438 0.90191 0.27496 0.0
H2390 H 0.87246 0.08947 0.69745 0.0
H2391 H 0.86079 0.21162 0.77857 0.0
H2392 H 0.92938 0.14268 0.70914 0.0
H2393 H 0.80057 0.16831 0.75124 0.0
H2394 H 0.88754 0.17999 0.76384 0.0
H2395 H 0.84768 0.11202 0.72693 0.0
C2396 C 0.87991 0.10557 0.70671 0.0
C2397 C 0.90296 0.11421 0.70103 0.0
C2398 C 0.86843 0.1772 0.76152 0.0
C2399 C 0.87473 0.14031 0.73432 0.0
C2400 C 0.8531 0.19518 0.77012 0.0
C2401 C 0.82839 0.19287 0.7657 0.0
C2402 C 0.85898 0.15676 0.7485 0.0
C2403 C 0.81953 0.17108 0.75467 0.0
C2404 C 0.86574 0.11852 0.72339 0.0
C2405 C 0.91163 0.13549 0.71304 0.0
N2406 N 0.83483 0.15405 0.74611 0.0
N2407 N 0.89747 0.14789 0.72902 0.0
loop_
_geom_bond_atom_site_label_1
_geom_bond_atom_site_label_2
_geom_bond_distance
_geom_bond_site_symmetry_2
_ccdc_geom_bond_type
C0 O1 1.160 . S
C0 O7 1.185 . S
O1 C0 1.160 . S
O2 Zn3 1.899 . S
O2 C10 1.284 . S
Zn3 O2 1.899 . S
Zn3 O4 2.032 1_455 S
Zn3 O7 2.086 1_455 S
Zn3 O12 1.977 . S
O4 Zn3 2.032 1_655 S
O4 C8 1.278 1_655 S
C5 O6 1.203 . S
C5 O12 1.267 . S
O6 C5 1.203 . S
O7 C0 1.185 . S
O7 Zn3 2.086 1_655 S
C8 O4 1.278 1_455 S
C8 O9 1.211 . S
O9 C8 1.211 . S
C10 O2 1.284 . S
C10 O11 1.273 . S
O11 C10 1.273 . S
O12 Zn3 1.977 . S
O12 C5 1.267 . S
C13 O14 1.160 . S
C13 O20 1.185 . S
O14 C13 1.160 . S
O15 Zn16 1.899 . S
O15 C23 1.284 . S
Zn16 O15 1.899 . S
Zn16 O17 2.032 . S
Zn16 O20 2.086 . S
Zn16 O25 1.977 1_455 S
O17 Zn16 2.032 . S
O17 C21 1.278 . S
C18 O19 1.203 . S
C18 O25 1.267 . S
O19 C18 1.203 . S
O20 C13 1.185 . S
O20 Zn16 2.086 . S
C21 O17 1.278 . S
C21 O22 1.211 1_455 S
O22 C21 1.211 1_655 S
C23 O15 1.284 . S
C23 O24 1.273 1_455 S
O24 C23 1.273 1_655 S
O25 Zn16 1.977 1_655 S
O25 C18 1.267 . S
C26 O27 1.160 . S
C26 O33 1.185 . S
O27 C26 1.160 . S
O28 Zn29 1.899 . S
O28 C36 1.284 . S
Zn29 O28 1.899 . S
Zn29 O30 2.032 . S
Zn29 O33 2.086 . S
Zn29 O38 1.977 . S
O30 Zn29 2.032 . S
O30 C34 1.278 . S
C31 O32 1.203 . S
C31 O38 1.267 . S
O32 C31 1.203 . S
O33 C26 1.185 . S
O33 Zn29 2.086 . S
C34 O30 1.278 . S
C34 O35 1.211 . S
O35 C34 1.211 . S
C36 O28 1.284 . S
C36 O37 1.273 . S
O37 C36 1.273 . S
O38 Zn29 1.977 . S
O38 C31 1.267 . S
C39 O40 1.160 . S
C39 O46 1.185 . S
O40 C39 1.160 . S
O41 Zn42 1.899 . S
O41 C49 1.284 . S
Zn42 O41 1.899 . S
Zn42 O43 2.032 . S
Zn42 O46 2.086 . S
Zn42 O51 1.977 . S
O43 Zn42 2.032 . S
O43 C47 1.278 . S
C44 O45 1.203 . S
C44 O51 1.267 . S
O45 C44 1.203 . S
O46 C39 1.185 . S
O46 Zn42 2.086 . S
C47 O43 1.278 . S
C47 O48 1.211 . S
O48 C47 1.211 . S
C49 O41 1.284 . S
C49 O50 1.273 . S
O50 C49 1.273 . S
O51 Zn42 1.977 . S
O51 C44 1.267 . S
C52 O53 1.160 . S
C52 O59 1.185 . S
O53 C52 1.160 . S
O54 Zn55 1.899 . S
O54 C62 1.284 . S
Zn55 O54 1.899 . S
Zn55 O56 2.032 . S
Zn55 O59 2.086 1_545 S
Zn55 O64 1.977 . S
O56 Zn55 2.032 . S
O56 C60 1.278 . S
C57 O58 1.203 . S
C57 O64 1.267 . S
O58 C57 1.203 . S
O59 C52 1.185 . S
O59 Zn55 2.086 1_565 S
C60 O56 1.278 . S
C60 O61 1.211 . S
O61 C60 1.211 . S
C62 O54 1.284 . S
C62 O63 1.273 . S
O63 C62 1.273 . S
O64 Zn55 1.977 . S
O64 C57 1.267 . S
C65 O66 1.160 . S
C65 O72 1.185 . S
O66 C65 1.160 . S
O67 Zn68 1.899 . S
O67 C75 1.284 . S
Zn68 O67 1.899 . S
Zn68 O69 2.032 . S
Zn68 O72 2.086 . S
Zn68 O77 1.977 . S
O69 Zn68 2.032 . S
O69 C73 1.278 . S
C70 O71 1.203 . S
C70 O77 1.267 . S
O71 C70 1.203 . S
O72 C65 1.185 . S
O72 Zn68 2.086 . S
C73 O69 1.278 . S
C73 O74 1.211 . S
O74 C73 1.211 . S
C75 O67 1.284 . S
C75 O76 1.273 . S
O76 C75 1.273 . S
O77 Zn68 1.977 . S
O77 C70 1.267 . S
C78 O79 1.160 . S
C78 O85 1.185 . S
O79 C78 1.160 . S
O80 Zn81 1.899 . S
O80 C88 1.275 1_545 S
Zn81 O80 1.899 . S
Zn81 O82 2.032 . S
Zn81 O85 2.086 . S
Zn81 O90 1.977 1_545 S
O82 Zn81 2.032 . S
O82 C86 1.278 1_545 S
C83 O84 1.203 . S
C83 O90 1.267 . S
O84 C83 1.203 . S
O85 C78 1.185 . S
O85 Zn81 2.086 . S
C86 O82 1.278 1_565 S
C86 O87 1.211 . S
O87 C86 1.211 . S
C88 O80 1.275 1_565 S
C88 O89 1.290 . S
O89 C88 1.290 . S
O90 Zn81 1.977 1_565 S
O90 C83 1.267 . S
C91 O92 1.160 . S
C91 O98 1.185 . S
O92 C91 1.160 . S
O93 Zn94 1.899 . S
O93 C101 1.284 . S
Zn94 O93 1.899 . S
Zn94 O95 2.032 1_554 S
Zn94 O98 2.086 . S
Zn94 O103 1.977 . S
O95 Zn94 2.032 1_556 S
O95 C99 1.278 . S
C96 O97 1.203 . S
C96 O103 1.267 . S
O97 C96 1.203 . S
O98 C91 1.185 . S
O98 Zn94 2.086 . S
C99 O95 1.278 . S
C99 O100 1.211 . S
O100 C99 1.211 . S
C101 O93 1.284 . S
C101 O102 1.273 . S
O102 C101 1.273 . S
O103 Zn94 1.977 . S
O103 C96 1.267 . S
C104 O105 1.160 . S
C104 O111 1.185 . S
O105 C104 1.160 . S
O106 Zn107 1.899 . S
O106 C114 1.284 . S
Zn107 O106 1.899 . S
Zn107 O108 2.032 1_554 S
Zn107 O111 2.086 . S
Zn107 O116 1.977 . S
O108 Zn107 2.032 1_556 S
O108 C112 1.278 . S
C109 O110 1.203 . S
C109 O116 1.267 . S
O110 C109 1.203 . S
O111 C104 1.185 . S
O111 Zn107 2.086 . S
C112 O108 1.278 . S
C112 O113 1.211 . S
O113 C112 1.211 . S
C114 O106 1.284 . S
C114 O115 1.273 . S
O115 C114 1.273 . S
O116 Zn107 1.977 . S
O116 C109 1.267 . S
C117 O118 1.160 . S
C117 O124 1.185 . S
O118 C117 1.160 . S
O119 Zn120 1.899 . S
O119 C127 1.284 . S
Zn120 O119 1.899 . S
Zn120 O121 2.032 . S
Zn120 O124 2.086 . S
Zn120 O129 1.977 . S
O121 Zn120 2.032 . S
O121 C125 1.278 . S
C122 O123 1.203 . S
C122 O129 1.267 . S
O123 C122 1.203 . S
O124 C117 1.185 . S
O124 Zn120 2.086 . S
C125 O121 1.278 . S
C125 O126 1.211 . S
O126 C125 1.211 . S
C127 O119 1.284 . S
C127 O128 1.273 . S
O128 C127 1.273 . S
O129 Zn120 1.977 . S
O129 C122 1.267 . S
C130 O131 1.160 . S
C130 O137 1.185 . S
O131 C130 1.160 . S
O132 Zn133 1.899 . S
O132 C140 1.284 . S
Zn133 O132 1.899 . S
Zn133 O134 2.032 . S
Zn133 O137 2.086 . S
Zn133 O142 1.977 . S
O134 Zn133 2.032 . S
O134 C138 1.278 . S
C135 O136 1.203 . S
C135 O142 1.267 . S
O136 C135 1.203 . S
O137 C130 1.185 . S
O137 Zn133 2.086 . S
C138 O134 1.278 . S
C138 O139 1.211 . S
O139 C138 1.211 . S
C140 O132 1.284 . S
C140 O141 1.273 . S
O141 C140 1.273 . S
O142 Zn133 1.977 . S
O142 C135 1.267 . S
C143 O144 1.160 . S
C143 O150 1.185 . S
O144 C143 1.160 . S
O145 Zn146 1.899 . S
O145 C153 1.284 . S
Zn146 O145 1.899 . S
Zn146 O147 2.032 . S
Zn146 O150 2.086 . S
Zn146 O155 1.977 . S
O147 Zn146 2.032 . S
O147 C151 1.278 . S
C148 O149 1.203 . S
C148 O155 1.267 . S
O149 C148 1.203 . S
O150 C143 1.185 . S
O150 Zn146 2.086 . S
C151 O147 1.278 . S
C151 O152 1.211 . S
O152 C151 1.211 . S
C153 O145 1.284 . S
C153 O154 1.273 . S
O154 C153 1.273 . S
O155 Zn146 1.977 . S
O155 C148 1.267 . S
C156 O157 1.160 . S
C156 O163 1.185 . S
O157 C156 1.160 . S
O158 Zn159 1.899 . S
O158 C166 1.284 . S
Zn159 O158 1.899 . S
Zn159 O160 2.032 . S
Zn159 O163 2.086 . S
Zn159 O168 1.977 1_455 S
O160 Zn159 2.032 . S
O160 C164 1.278 . S
C161 O162 1.203 . S
C161 O168 1.267 . S
O162 C161 1.203 . S
O163 C156 1.185 . S
O163 Zn159 2.086 . S
C164 O160 1.278 . S
C164 O165 1.211 1_455 S
O165 C164 1.211 1_655 S
C166 O158 1.284 . S
C166 O167 1.273 1_455 S
O167 C166 1.273 1_655 S
O168 Zn159 1.977 1_655 S
O168 C161 1.267 . S
C169 O170 1.160 . S
C169 O176 1.185 . S
O170 C169 1.160 . S
O171 Zn172 1.899 . S
O171 C179 1.284 . S
Zn172 O171 1.899 . S
Zn172 O173 2.032 1_455 S
Zn172 O176 2.086 1_455 S
Zn172 O181 1.977 . S
O173 Zn172 2.032 1_655 S
O173 C177 1.278 1_655 S
C174 O175 1.203 . S
C174 O181 1.267 . S
O175 C174 1.203 . S
O176 C169 1.185 . S
O176 Zn172 2.086 1_655 S
C177 O173 1.278 1_455 S
C177 O178 1.211 . S
O178 C177 1.211 . S
C179 O171 1.284 . S
C179 O180 1.273 . S
O180 C179 1.273 . S
O181 Zn172 1.977 . S
O181 C174 1.267 . S
C182 O183 1.160 . S
C182 O189 1.185 . S
O183 C182 1.160 . S
O184 Zn185 1.899 . S
O184 C192 1.284 . S
Zn185 O184 1.899 . S
Zn185 O186 2.032 . S
Zn185 O189 2.086 . S
Zn185 O194 1.977 . S
O186 Zn185 2.032 . S
O186 C190 1.278 . S
C187 O188 1.203 . S
C187 O194 1.267 . S
O188 C187 1.203 . S
O189 C182 1.185 . S
O189 Zn185 2.086 . S
C190 O186 1.278 . S
C190 O191 1.211 . S
O191 C190 1.211 . S
C192 O184 1.284 . S
C192 O193 1.273 . S
O193 C192 1.273 . S
O194 Zn185 1.977 . S
O194 C187 1.267 . S
C195 O196 1.160 . S
C195 O202 1.185 . S
O196 C195 1.160 . S
O197 Zn198 1.899 . S
O197 C205 1.284 . S
Zn198 O197 1.899 . S
Zn198 O199 2.032 . S
Zn198 O202 2.086 . S
Zn198 O207 1.977 . S
O199 Zn198 2.032 . S
O199 C203 1.278 . S
C200 O201 1.203 . S
C200 O207 1.267 . S
O201 C200 1.203 . S
O202 C195 1.185 . S
O202 Zn198 2.086 . S
C203 O199 1.278 . S
C203 O204 1.211 . S
O204 C203 1.211 . S
C205 O197 1.284 . S
C205 O206 1.273 . S
O206 C205 1.273 . S
O207 Zn198 1.977 . S
O207 C200 1.267 . S
C208 O209 1.160 . S
C208 O215 1.185 . S
O209 C208 1.160 . S
O210 Zn211 1.899 . S
O210 C218 1.284 . S
Zn211 O210 1.899 . S
Zn211 O212 2.032 . S
Zn211 O215 2.086 . S
Zn211 O220 1.977 1_545 S
O212 Zn211 2.032 . S
O212 C216 1.278 . S
C213 O214 1.203 . S
C213 O220 1.267 . S
O214 C213 1.203 . S
O215 C208 1.185 . S
O215 Zn211 2.086 . S
C216 O212 1.278 . S
C216 O217 1.211 1_545 S
O217 C216 1.211 1_565 S
C218 O210 1.284 . S
C218 O219 1.273 . S
O219 C218 1.273 . S
O220 Zn211 1.977 1_565 S
O220 C213 1.267 . S
C221 O222 1.160 . S
C221 O228 1.185 . S
O222 C221 1.160 . S
O223 Zn224 1.899 . S
O223 C231 1.284 . S
Zn224 O223 1.899 . S
Zn224 O225 2.032 . S
Zn224 O228 2.086 . S
Zn224 O233 1.977 . S
O225 Zn224 2.032 . S
O225 C229 1.278 . S
C226 O227 1.203 . S
C226 O233 1.267 . S
O227 C226 1.203 . S
O228 C221 1.185 . S
O228 Zn224 2.086 . S
C229 O225 1.278 . S
C229 O230 1.211 . S
O230 C229 1.211 . S
C231 O223 1.284 . S
C231 O232 1.273 . S
O232 C231 1.273 . S
O233 Zn224 1.977 . S
O233 C226 1.267 . S
C234 O235 1.160 . S
C234 O241 1.185 . S
O235 C234 1.160 . S
O236 Zn237 1.899 . S
O236 C244 1.284 1_565 S
Zn237 O236 1.899 . S
Zn237 O238 2.032 . S
Zn237 O241 2.086 . S
Zn237 O246 1.977 1_565 S
O238 Zn237 2.032 . S
O238 C242 1.278 1_565 S
C239 O240 1.203 . S
C239 O246 1.267 . S
O240 C239 1.203 . S
O241 C234 1.185 . S
O241 Zn237 2.086 . S
C242 O238 1.278 1_545 S
C242 O243 1.211 . S
O243 C242 1.211 . S
C244 O236 1.284 1_545 S
C244 O245 1.273 . S
O245 C244 1.273 . S
O246 Zn237 1.977 1_545 S
O246 C239 1.267 . S
C247 O248 1.160 . S
C247 O254 1.189 . S
O248 C247 1.160 . S
O249 Zn250 1.899 . S
O249 C257 1.284 . S
Zn250 O249 1.899 . S
Zn250 O251 2.032 1_554 S
Zn250 O254 2.088 . S
Zn250 O259 1.982 . S
O251 Zn250 2.032 1_556 S
O251 C255 1.278 . S
C252 O253 1.203 . S
C252 O259 1.275 . S
O253 C252 1.203 . S
O254 C247 1.189 . S
O254 Zn250 2.088 . S
C255 O251 1.278 . S
C255 O256 1.211 . S
O256 C255 1.211 . S
C257 O249 1.284 . S
C257 O258 1.273 . S
O258 C257 1.273 . S
O259 Zn250 1.982 . S
O259 C252 1.275 . S
C260 O261 1.160 . S
C260 O267 1.184 1_554 S
O261 C260 1.160 . S
O262 Zn263 1.899 . S
O262 C270 1.284 . S
Zn263 O262 1.899 . S
Zn263 O264 2.032 1_554 S
Zn263 O267 2.085 1_554 S
Zn263 O272 1.978 1_554 S
O264 Zn263 2.032 1_556 S
O264 C268 1.278 . S
C265 O266 1.203 . S
C265 O272 1.268 1_554 S
O266 C265 1.203 . S
O267 C260 1.184 1_556 S
O267 Zn263 2.085 1_556 S
C268 O264 1.278 . S
C268 O269 1.211 . S
O269 C268 1.211 . S
C270 O262 1.284 . S
C270 O271 1.273 . S
O271 C270 1.273 . S
O272 Zn263 1.978 1_556 S
O272 C265 1.268 1_556 S
C273 O274 1.160 . S
C273 O280 1.185 . S
O274 C273 1.160 . S
O275 Zn276 1.899 . S
O275 C283 1.284 . S
Zn276 O275 1.899 . S
Zn276 O277 2.032 . S
Zn276 O280 2.086 . S
Zn276 O285 1.977 . S
O277 Zn276 2.032 . S
O277 C281 1.278 . S
C278 O279 1.203 . S
C278 O285 1.267 . S
O279 C278 1.203 . S
O280 C273 1.185 . S
O280 Zn276 2.086 . S
C281 O277 1.278 . S
C281 O282 1.211 . S
O282 C281 1.211 . S
C283 O275 1.284 . S
C283 O284 1.273 . S
O284 C283 1.273 . S
O285 Zn276 1.977 . S
O285 C278 1.267 . S
C286 O287 1.160 . S
C286 O293 1.185 . S
O287 C286 1.160 . S
O288 Zn289 1.899 . S
O288 C296 1.284 . S
Zn289 O288 1.899 . S
Zn289 O290 2.032 . S
Zn289 O293 2.086 . S
Zn289 O298 1.977 . S
O290 Zn289 2.032 . S
O290 C294 1.278 . S
C291 O292 1.203 . S
C291 O298 1.267 . S
O292 C291 1.203 . S
O293 C286 1.185 . S
O293 Zn289 2.086 . S
C294 O290 1.278 . S
C294 O295 1.211 . S
O295 C294 1.211 . S
C296 O288 1.284 . S
C296 O297 1.273 . S
O297 C296 1.273 . S
O298 Zn289 1.977 . S
O298 C291 1.267 . S
C299 O300 1.160 . S
C299 O306 1.185 . S
O300 C299 1.160 . S
O301 Zn302 1.899 . S
O301 C309 1.284 . S
Zn302 O301 1.899 . S
Zn302 O303 2.032 . S
Zn302 O306 2.086 . S
Zn302 O311 1.977 . S
O303 Zn302 2.032 . S
O303 C307 1.278 . S
C304 O305 1.203 . S
C304 O311 1.267 . S
O305 C304 1.203 . S
O306 C299 1.185 . S
O306 Zn302 2.086 . S
C307 O303 1.278 . S
C307 O308 1.211 . S
O308 C307 1.211 . S
C309 O301 1.284 . S
C309 O310 1.273 . S
O310 C309 1.273 . S
O311 Zn302 1.977 . S
O311 C304 1.267 . S
O312 Zn313 1.953 . S
O312 C328 1.225 1_455 S
Zn313 O312 1.953 . S
Zn313 O314 1.949 . S
Zn313 O320 1.913 1_554 S
Zn313 O325 1.924 1_454 S
O314 Zn313 1.949 . S
O314 Zn315 1.923 1_545 S
O314 Zn316 1.950 1_455 S
O314 Zn317 1.945 1_444 S
Zn315 O314 1.923 1_565 S
Zn315 O318 1.933 . S
Zn315 O321 1.941 1_565 S
Zn315 O322 1.965 . S
Zn316 O314 1.950 1_655 S
Zn316 O323 1.936 . S
Zn316 O324 1.906 1_545 S
Zn316 O334 1.953 . S
Zn317 O314 1.945 1_666 S
Zn317 O319 1.950 . S
Zn317 O326 1.977 1_556 S
Zn317 O327 1.910 1_565 S
O318 Zn315 1.933 . S
O318 C329 1.226 1_554 S
O319 Zn317 1.950 . S
O319 C329 1.273 1_655 S
O320 Zn313 1.913 1_556 S
O320 C331 1.243 1_556 S
O321 Zn315 1.941 1_545 S
O321 C331 1.283 . S
O322 Zn315 1.965 . S
O322 C330 1.303 1_565 S
O323 Zn316 1.936 . S
O323 C330 1.251 1_655 S
O324 Zn316 1.906 1_565 S
O324 C332 1.304 . S
O325 Zn313 1.924 1_656 S
O325 C333 1.311 . S
O326 Zn317 1.977 1_554 S
O326 C332 1.272 . S
O327 Zn317 1.910 1_545 S
O327 C333 1.231 . S
C328 O312 1.225 1_655 S
C328 O334 1.298 . S
C329 O318 1.226 1_556 S
C329 O319 1.273 1_455 S
C330 O322 1.303 1_545 S
C330 O323 1.251 1_455 S
C331 O320 1.243 1_554 S
C331 O321 1.283 . S
C332 O324 1.304 . S
C332 O326 1.272 . S
C333 O325 1.311 . S
C333 O327 1.231 . S
O334 Zn316 1.953 . S
O334 C328 1.298 . S
O335 Zn336 1.953 . S
O335 C351 1.225 . S
Zn336 O335 1.953 . S
Zn336 O337 1.949 . S
Zn336 O343 1.919 . S
Zn336 O348 1.924 . S
O337 Zn336 1.949 . S
O337 Zn338 1.923 . S
O337 Zn339 1.950 . S
O337 Zn340 1.945 . S
Zn338 O337 1.923 . S
Zn338 O341 1.933 . S
Zn338 O344 1.941 . S
Zn338 O345 1.965 . S
Zn339 O337 1.950 . S
Zn339 O346 1.938 . S
Zn339 O347 1.906 . S
Zn339 O357 1.953 . S
Zn340 O337 1.945 . S
Zn340 O342 1.932 . S
Zn340 O349 1.977 . S
Zn340 O350 1.910 . S
O341 Zn338 1.933 . S
O341 C352 1.226 . S
O342 Zn340 1.932 . S
O342 C352 1.307 . S
O343 Zn336 1.919 . S
O343 C354 1.253 . S
O344 Zn338 1.941 . S
O344 C354 1.283 . S
O345 Zn338 1.965 . S
O345 C353 1.303 . S
O346 Zn339 1.938 . S
O346 C353 1.247 . S
O347 Zn339 1.906 . S
O347 C355 1.304 . S
O348 Zn336 1.924 . S
O348 C356 1.311 . S
O349 Zn340 1.977 . S
O349 C355 1.272 . S
O350 Zn340 1.910 . S
O350 C356 1.231 . S
C351 O335 1.225 . S
C351 O357 1.298 . S
C352 O341 1.226 . S
C352 O342 1.307 . S
C353 O345 1.303 . S
C353 O346 1.247 . S
C354 O343 1.253 . S
C354 O344 1.283 . S
C355 O347 1.304 . S
C355 O349 1.272 . S
C356 O348 1.311 . S
C356 O350 1.231 . S
O357 Zn339 1.953 . S
O357 C351 1.298 . S
O358 Zn359 1.953 . S
O358 C374 1.225 . S
Zn359 O358 1.953 . S
Zn359 O360 1.949 1_565 S
Zn359 O366 1.919 . S
Zn359 O371 1.924 . S
O360 Zn359 1.949 1_545 S
O360 Zn361 1.923 . S
O360 Zn362 1.950 . S
O360 Zn363 1.945 . S
Zn361 O360 1.923 . S
Zn361 O364 1.933 . S
Zn361 O367 1.941 . S
Zn361 O368 1.965 . S
Zn362 O360 1.950 . S
Zn362 O369 1.938 . S
Zn362 O370 1.906 . S
Zn362 O380 1.953 1_545 S
Zn363 O360 1.945 . S
Zn363 O365 1.932 . S
Zn363 O372 1.977 . S
Zn363 O373 1.910 . S
O364 Zn361 1.933 . S
O364 C375 1.226 . S
O365 Zn363 1.932 . S
O365 C375 1.307 . S
O366 Zn359 1.919 . S
O366 C377 1.253 . S
O367 Zn361 1.941 . S
O367 C377 1.283 1_545 S
O368 Zn361 1.965 . S
O368 C376 1.303 . S
O369 Zn362 1.938 . S
O369 C376 1.247 . S
O370 Zn362 1.906 . S
O370 C378 1.304 . S
O371 Zn359 1.924 . S
O371 C379 1.311 . S
O372 Zn363 1.977 . S
O372 C378 1.272 . S
O373 Zn363 1.910 . S
O373 C379 1.231 1_545 S
C374 O358 1.225 . S
C374 O380 1.298 . S
C375 O364 1.226 . S
C375 O365 1.307 . S
C376 O368 1.303 . S
C376 O369 1.247 . S
C377 O366 1.253 . S
C377 O367 1.283 1_565 S
C378 O370 1.304 . S
C378 O372 1.272 . S
C379 O371 1.311 . S
C379 O373 1.231 1_565 S
O380 Zn362 1.953 1_565 S
O380 C374 1.298 . S
O381 Zn382 1.953 . S
O381 C397 1.225 . S
Zn382 O381 1.953 . S
Zn382 O383 1.949 . S
Zn382 O389 1.919 . S
Zn382 O394 1.924 . S
O383 Zn382 1.949 . S
O383 Zn384 1.923 . S
O383 Zn385 1.950 . S
O383 Zn386 1.945 . S
Zn384 O383 1.923 . S
Zn384 O387 1.933 . S
Zn384 O390 1.941 . S
Zn384 O391 1.965 . S
Zn385 O383 1.950 . S
Zn385 O392 1.938 . S
Zn385 O393 1.906 . S
Zn385 O403 1.953 . S
Zn386 O383 1.945 . S
Zn386 O388 1.932 . S
Zn386 O395 1.977 . S
Zn386 O396 1.910 . S
O387 Zn384 1.933 . S
O387 C398 1.226 . S
O388 Zn386 1.932 . S
O388 C398 1.307 . S
O389 Zn382 1.919 . S
O389 C400 1.253 . S
O390 Zn384 1.941 . S
O390 C400 1.283 . S
O391 Zn384 1.965 . S
O391 C399 1.303 . S
O392 Zn385 1.938 . S
O392 C399 1.247 . S
O393 Zn385 1.906 . S
O393 C401 1.304 . S
O394 Zn382 1.924 . S
O394 C402 1.311 . S
O395 Zn386 1.977 . S
O395 C401 1.272 . S
O396 Zn386 1.910 . S
O396 C402 1.231 . S
C397 O381 1.225 . S
C397 O403 1.298 . S
C398 O387 1.226 . S
C398 O388 1.307 . S
C399 O391 1.303 . S
C399 O392 1.247 . S
C400 O389 1.253 . S
C400 O390 1.283 . S
C401 O393 1.304 . S
C401 O395 1.272 . S
C402 O394 1.311 . S
C402 O396 1.231 . S
O403 Zn385 1.953 . S
O403 C397 1.298 . S
O404 Zn405 1.945 1_445 S
O404 C420 1.225 . S
Zn405 O404 1.945 1_665 S
Zn405 O406 1.938 1_665 S
Zn405 O412 1.949 . S
Zn405 O417 1.910 1_565 S
O406 Zn405 1.938 1_445 S
O406 Zn407 1.923 1_545 S
O406 Zn408 1.950 . S
O406 Zn409 1.945 1_455 S
Zn407 O406 1.923 1_565 S
Zn407 O410 1.933 . S
Zn407 O413 1.941 . S
Zn407 O414 1.965 . S
Zn408 O406 1.950 . S
Zn408 O415 1.938 . S
Zn408 O416 1.906 . S
Zn408 O426 1.953 . S
Zn409 O406 1.945 1_655 S
Zn409 O411 1.932 . S
Zn409 O418 1.977 1_655 S
Zn409 O419 1.910 . S
O410 Zn407 1.933 . S
O410 C421 1.226 1_455 S
O411 Zn409 1.932 . S
O411 C421 1.307 1_545 S
O412 Zn405 1.949 . S
O412 C423 1.253 . S
O413 Zn407 1.941 . S
O413 C423 1.283 1_455 S
O414 Zn407 1.965 . S
O414 C422 1.303 . S
O415 Zn408 1.938 . S
O415 C422 1.247 1_545 S
O416 Zn408 1.906 . S
O416 C424 1.304 . S
O417 Zn405 1.910 1_545 S
O417 C425 1.311 . S
O418 Zn409 1.977 1_455 S
O418 C424 1.272 . S
O419 Zn409 1.910 . S
O419 C425 1.231 . S
C420 O404 1.225 . S
C420 O426 1.298 . S
C421 O410 1.226 1_655 S
C421 O411 1.307 1_565 S
C422 O414 1.303 . S
C422 O415 1.247 1_565 S
C423 O412 1.253 . S
C423 O413 1.283 1_655 S
C424 O416 1.304 . S
C424 O418 1.272 . S
C425 O417 1.311 . S
C425 O419 1.231 . S
O426 Zn408 1.953 . S
O426 C420 1.298 . S
O427 Zn428 1.953 . S
O427 C443 1.225 . S
Zn428 O427 1.953 . S
Zn428 O429 1.949 . S
Zn428 O435 1.919 . S
Zn428 O440 1.924 . S
O429 Zn428 1.949 . S
O429 Zn430 1.923 . S
O429 Zn431 1.950 . S
O429 Zn432 1.945 . S
Zn430 O429 1.923 . S
Zn430 O433 1.933 . S
Zn430 O436 1.941 . S
Zn430 O437 1.965 . S
Zn431 O429 1.950 . S
Zn431 O438 1.938 . S
Zn431 O439 1.906 . S
Zn431 O449 1.953 . S
Zn432 O429 1.945 . S
Zn432 O434 1.932 . S
Zn432 O441 1.977 . S
Zn432 O442 1.910 . S
O433 Zn430 1.933 . S
O433 C444 1.226 . S
O434 Zn432 1.932 . S
O434 C444 1.307 . S
O435 Zn428 1.919 . S
O435 C446 1.253 . S
O436 Zn430 1.941 . S
O436 C446 1.283 . S
O437 Zn430 1.965 . S
O437 C445 1.303 . S
O438 Zn431 1.938 . S
O438 C445 1.247 . S
O439 Zn431 1.906 . S
O439 C447 1.304 . S
O440 Zn428 1.924 . S
O440 C448 1.311 . S
O441 Zn432 1.977 . S
O441 C447 1.272 . S
O442 Zn432 1.910 . S
O442 C448 1.231 . S
C443 O427 1.225 . S
C443 O449 1.298 . S
C444 O433 1.226 . S
C444 O434 1.307 . S
C445 O437 1.303 . S
C445 O438 1.247 . S
C446 O435 1.253 . S
C446 O436 1.283 . S
C447 O439 1.304 . S
C447 O441 1.272 . S
C448 O440 1.311 . S
C448 O442 1.231 . S
O449 Zn431 1.953 . S
O449 C443 1.298 . S
O450 Zn451 1.953 . S
O450 C466 1.225 . S
Zn451 O450 1.953 . S
Zn451 O452 1.949 . S
Zn451 O458 1.928 . S
Zn451 O463 1.924 . S
O452 Zn451 1.949 . S
O452 Zn453 1.916 1_544 S
O452 Zn454 1.950 . S
O452 Zn455 1.945 1_554 S
Zn453 O452 1.916 1_566 S
Zn453 O456 1.949 . S
Zn453 O459 1.944 . S
Zn453 O460 1.955 1_556 S
Zn454 O452 1.950 . S
Zn454 O461 1.938 1_545 S
Zn454 O462 1.906 . S
Zn454 O472 1.953 . S
Zn455 O452 1.945 1_556 S
Zn455 O457 1.932 . S
Zn455 O464 1.977 1_556 S
Zn455 O465 1.910 . S
O456 Zn453 1.949 . S
O456 C467 1.226 . S
O457 Zn455 1.932 . S
O457 C467 1.307 1_545 S
O458 Zn451 1.928 . S
O458 C469 1.239 1_544 S
O459 Zn453 1.944 . S
O459 C469 1.283 . S
O460 Zn453 1.955 1_554 S
O460 C468 1.303 . S
O461 Zn454 1.938 1_565 S
O461 C468 1.247 . S
O462 Zn454 1.906 . S
O462 C470 1.304 . S
O463 Zn451 1.924 . S
O463 C471 1.325 . S
O464 Zn455 1.977 1_554 S
O464 C470 1.272 . S
O465 Zn455 1.910 . S
O465 C471 1.216 1_556 S
C466 O450 1.225 . S
C466 O472 1.298 . S
C467 O456 1.226 . S
C467 O457 1.307 1_565 S
C468 O460 1.303 . S
C468 O461 1.247 . S
C469 O458 1.239 1_566 S
C469 O459 1.283 . S
C470 O462 1.304 . S
C470 O464 1.272 . S
C471 O463 1.325 . S
C471 O465 1.216 1_554 S
O472 Zn454 1.953 . S
O472 C466 1.298 . S
O473 Zn474 1.953 . S
O473 C489 1.225 . S
Zn474 O473 1.953 . S
Zn474 O475 1.949 . S
Zn474 O481 1.919 . S
Zn474 O486 1.924 . S
O475 Zn474 1.949 . S
O475 Zn476 1.923 . S
O475 Zn477 1.950 . S
O475 Zn478 1.945 . S
Zn476 O475 1.923 . S
Zn476 O479 1.933 . S
Zn476 O482 1.941 . S
Zn476 O483 1.965 . S
Zn477 O475 1.950 . S
Zn477 O484 1.938 . S
Zn477 O485 1.906 . S
Zn477 O495 1.953 . S
Zn478 O475 1.945 . S
Zn478 O480 1.932 . S
Zn478 O487 1.977 . S
Zn478 O488 1.910 . S
O479 Zn476 1.933 . S
O479 C490 1.226 . S
O480 Zn478 1.932 . S
O480 C490 1.307 . S
O481 Zn474 1.919 . S
O481 C492 1.253 . S
O482 Zn476 1.941 . S
O482 C492 1.283 . S
O483 Zn476 1.965 . S
O483 C491 1.303 . S
O484 Zn477 1.938 . S
O484 C491 1.247 . S
O485 Zn477 1.906 . S
O485 C493 1.304 . S
O486 Zn474 1.924 . S
O486 C494 1.311 . S
O487 Zn478 1.977 . S
O487 C493 1.272 . S
O488 Zn478 1.910 . S
O488 C494 1.231 . S
C489 O473 1.225 . S
C489 O495 1.298 . S
C490 O479 1.226 . S
C490 O480 1.307 . S
C491 O483 1.303 . S
C491 O484 1.247 . S
C492 O481 1.253 . S
C492 O482 1.283 . S
C493 O485 1.304 . S
C493 O487 1.272 . S
C494 O486 1.311 . S
C494 O488 1.231 . S
O495 Zn477 1.953 . S
O495 C489 1.298 . S
O496 Zn497 1.953 . S
O496 C512 1.225 . S
Zn497 O496 1.953 . S
Zn497 O498 1.949 1_556 S
Zn497 O504 1.919 . S
Zn497 O509 1.924 . S
O498 Zn497 1.949 1_554 S
O498 Zn499 1.923 . S
O498 Zn500 1.950 . S
O498 Zn501 1.945 . S
Zn499 O498 1.923 . S
Zn499 O502 1.933 . S
Zn499 O505 1.941 . S
Zn499 O506 1.965 . S
Zn500 O498 1.950 . S
Zn500 O507 1.938 . S
Zn500 O508 1.906 . S
Zn500 O518 1.953 1_554 S
Zn501 O498 1.945 . S
Zn501 O503 1.932 . S
Zn501 O510 1.977 . S
Zn501 O511 1.910 . S
O502 Zn499 1.933 . S
O502 C513 1.226 . S
O503 Zn501 1.932 . S
O503 C513 1.307 . S
O504 Zn497 1.919 . S
O504 C515 1.253 1_556 S
O505 Zn499 1.941 . S
O505 C515 1.284 . S
O506 Zn499 1.965 . S
O506 C514 1.303 . S
O507 Zn500 1.938 . S
O507 C514 1.247 . S
O508 Zn500 1.906 . S
O508 C516 1.304 . S
O509 Zn497 1.924 . S
O509 C517 1.311 . S
O510 Zn501 1.977 . S
O510 C516 1.272 . S
O511 Zn501 1.910 . S
O511 C517 1.231 1_554 S
C512 O496 1.225 . S
C512 O518 1.298 . S
C513 O502 1.226 . S
C513 O503 1.307 . S
C514 O506 1.303 . S
C514 O507 1.247 . S
C515 O504 1.253 1_554 S
C515 O505 1.284 . S
C516 O508 1.304 . S
C516 O510 1.272 . S
C517 O509 1.311 . S
C517 O511 1.231 1_556 S
O518 Zn500 1.953 1_556 S
O518 C512 1.298 . S
O519 Zn520 1.953 . S
O519 C535 1.225 . S
Zn520 O519 1.953 . S
Zn520 O521 1.949 . S
Zn520 O527 1.919 . S
Zn520 O532 1.924 . S
O521 Zn520 1.949 . S
O521 Zn522 1.923 . S
O521 Zn523 1.950 . S
O521 Zn524 1.945 . S
Zn522 O521 1.923 . S
Zn522 O525 1.933 . S
Zn522 O528 1.941 . S
Zn522 O529 1.965 . S
Zn523 O521 1.950 . S
Zn523 O530 1.938 . S
Zn523 O531 1.906 . S
Zn523 O541 1.953 . S
Zn524 O521 1.945 . S
Zn524 O526 1.932 . S
Zn524 O533 1.977 . S
Zn524 O534 1.910 . S
O525 Zn522 1.933 . S
O525 C536 1.226 . S
O526 Zn524 1.932 . S
O526 C536 1.307 . S
O527 Zn520 1.919 . S
O527 C538 1.253 . S
O528 Zn522 1.941 . S
O528 C538 1.283 . S
O529 Zn522 1.965 . S
O529 C537 1.303 . S
O530 Zn523 1.938 . S
O530 C537 1.247 . S
O531 Zn523 1.906 . S
O531 C539 1.304 . S
O532 Zn520 1.924 . S
O532 C540 1.311 . S
O533 Zn524 1.977 . S
O533 C539 1.272 . S
O534 Zn524 1.910 . S
O534 C540 1.231 . S
C535 O519 1.225 . S
C535 O541 1.298 . S
C536 O525 1.226 . S
C536 O526 1.307 . S
C537 O529 1.303 . S
C537 O530 1.247 . S
C538 O527 1.253 . S
C538 O528 1.283 . S
C539 O531 1.304 . S
C539 O533 1.272 . S
C540 O532 1.311 . S
C540 O534 1.231 . S
O541 Zn523 1.953 . S
O541 C535 1.298 . S
O542 Zn543 1.953 . S
O542 C558 1.225 . S
Zn543 O542 1.953 . S
Zn543 O544 1.934 1_455 S
Zn543 O550 1.919 . S
Zn543 O555 1.924 . S
O544 Zn543 1.934 1_655 S
O544 Zn545 1.921 1_655 S
O544 Zn546 1.958 . S
O544 Zn547 1.952 . S
Zn545 O544 1.921 1_455 S
Zn545 O548 1.921 1_455 S
Zn545 O551 1.971 . S
Zn545 O552 1.956 1_455 S
Zn546 O544 1.958 . S
Zn546 O553 1.938 . S
Zn546 O554 1.906 . S
Zn546 O564 1.940 1_655 S
Zn547 O544 1.952 . S
Zn547 O549 1.932 . S
Zn547 O556 1.977 . S
Zn547 O557 1.911 . S
O548 Zn545 1.921 1_655 S
O548 C559 1.226 . S
O549 Zn547 1.932 . S
O549 C559 1.307 . S
O550 Zn543 1.919 . S
O550 C561 1.253 . S
O551 Zn545 1.971 . S
O551 C561 1.283 . S
O552 Zn545 1.956 1_655 S
O552 C560 1.303 . S
O553 Zn546 1.938 . S
O553 C560 1.247 . S
O554 Zn546 1.906 . S
O554 C562 1.304 . S
O555 Zn543 1.924 . S
O555 C563 1.311 . S
O556 Zn547 1.977 . S
O556 C562 1.272 . S
O557 Zn547 1.911 . S
O557 C563 1.230 1_655 S
C558 O542 1.225 . S
C558 O564 1.324 . S
C559 O548 1.226 . S
C559 O549 1.307 . S
C560 O552 1.303 . S
C560 O553 1.247 . S
C561 O550 1.253 . S
C561 O551 1.283 . S
C562 O554 1.304 . S
C562 O556 1.272 . S
C563 O555 1.311 . S
C563 O557 1.230 1_455 S
O564 Zn546 1.940 1_455 S
O564 C558 1.324 . S
O565 Zn566 1.953 . S
O565 C581 1.225 . S
Zn566 O565 1.953 . S
Zn566 O567 1.949 . S
Zn566 O573 1.919 . S
Zn566 O578 1.924 . S
O567 Zn566 1.949 . S
O567 Zn568 1.923 . S
O567 Zn569 1.950 . S
O567 Zn570 1.945 . S
Zn568 O567 1.923 . S
Zn568 O571 1.933 . S
Zn568 O574 1.941 . S
Zn568 O575 1.965 . S
Zn569 O567 1.950 . S
Zn569 O576 1.938 . S
Zn569 O577 1.906 . S
Zn569 O587 1.953 . S
Zn570 O567 1.945 . S
Zn570 O572 1.932 . S
Zn570 O579 1.977 . S
Zn570 O580 1.910 . S
O571 Zn568 1.933 . S
O571 C582 1.226 . S
O572 Zn570 1.932 . S
O572 C582 1.307 . S
O573 Zn566 1.919 . S
O573 C584 1.253 . S
O574 Zn568 1.941 . S
O574 C584 1.283 . S
O575 Zn568 1.965 . S
O575 C583 1.303 . S
O576 Zn569 1.938 . S
O576 C583 1.247 . S
O577 Zn569 1.906 . S
O577 C585 1.304 . S
O578 Zn566 1.924 . S
O578 C586 1.311 . S
O579 Zn570 1.977 . S
O579 C585 1.272 . S
O580 Zn570 1.910 . S
O580 C586 1.231 . S
C581 O565 1.225 . S
C581 O587 1.298 . S
C582 O571 1.226 . S
C582 O572 1.307 . S
C583 O575 1.303 . S
C583 O576 1.247 . S
C584 O573 1.253 . S
C584 O574 1.283 . S
C585 O577 1.304 . S
C585 O579 1.272 . S
C586 O578 1.311 . S
C586 O580 1.231 . S
O587 Zn569 1.953 . S
O587 C581 1.298 . S
O588 Zn589 1.953 . S
O588 C604 1.225 . S
Zn589 O588 1.953 . S
Zn589 O590 1.949 . S
Zn589 O596 1.919 . S
Zn589 O601 1.924 . S
O590 Zn589 1.949 . S
O590 Zn591 1.923 . S
O590 Zn592 1.950 . S
O590 Zn593 1.945 . S
Zn591 O590 1.923 . S
Zn591 O594 1.933 . S
Zn591 O597 1.941 . S
Zn591 O598 1.965 . S
Zn592 O590 1.950 . S
Zn592 O599 1.938 . S
Zn592 O600 1.906 . S
Zn592 O610 1.953 . S
Zn593 O590 1.945 . S
Zn593 O595 1.932 . S
Zn593 O602 1.977 . S
Zn593 O603 1.910 . S
O594 Zn591 1.933 . S
O594 C605 1.226 . S
O595 Zn593 1.932 . S
O595 C605 1.307 . S
O596 Zn589 1.919 . S
O596 C607 1.253 . S
O597 Zn591 1.941 . S
O597 C607 1.283 . S
O598 Zn591 1.965 . S
O598 C606 1.303 . S
O599 Zn592 1.938 . S
O599 C606 1.247 . S
O600 Zn592 1.906 . S
O600 C608 1.304 . S
O601 Zn589 1.924 . S
O601 C609 1.311 . S
O602 Zn593 1.977 . S
O602 C608 1.272 . S
O603 Zn593 1.910 . S
O603 C609 1.231 . S
C604 O588 1.225 . S
C604 O610 1.298 . S
C605 O594 1.226 . S
C605 O595 1.307 . S
C606 O598 1.303 . S
C606 O599 1.247 . S
C607 O596 1.253 . S
C607 O597 1.283 . S
C608 O600 1.304 . S
C608 O602 1.272 . S
C609 O601 1.311 . S
C609 O603 1.231 . S
O610 Zn592 1.953 . S
O610 C604 1.298 . S
O611 Zn612 1.953 . S
O611 C627 1.225 . S
Zn612 O611 1.953 . S
Zn612 O613 1.949 . S
Zn612 O619 1.919 . S
Zn612 O624 1.924 . S
O613 Zn612 1.949 . S
O613 Zn614 1.923 . S
O613 Zn615 1.950 . S
O613 Zn616 1.945 . S
Zn614 O613 1.923 . S
Zn614 O617 1.933 . S
Zn614 O620 1.941 . S
Zn614 O621 1.965 . S
Zn615 O613 1.950 . S
Zn615 O622 1.938 . S
Zn615 O623 1.906 . S
Zn615 O633 1.953 . S
Zn616 O613 1.945 . S
Zn616 O618 1.932 . S
Zn616 O625 1.977 . S
Zn616 O626 1.910 . S
O617 Zn614 1.933 . S
O617 C628 1.226 . S
O618 Zn616 1.932 . S
O618 C628 1.307 . S
O619 Zn612 1.919 . S
O619 C630 1.253 . S
O620 Zn614 1.941 . S
O620 C630 1.283 . S
O621 Zn614 1.965 . S
O621 C629 1.303 . S
O622 Zn615 1.938 . S
O622 C629 1.247 . S
O623 Zn615 1.906 . S
O623 C631 1.304 . S
O624 Zn612 1.924 . S
O624 C632 1.311 . S
O625 Zn616 1.977 . S
O625 C631 1.272 . S
O626 Zn616 1.910 . S
O626 C632 1.231 . S
C627 O611 1.225 . S
C627 O633 1.298 . S
C628 O617 1.226 . S
C628 O618 1.307 . S
C629 O621 1.303 . S
C629 O622 1.247 . S
C630 O619 1.253 . S
C630 O620 1.283 . S
C631 O623 1.304 . S
C631 O625 1.272 . S
C632 O624 1.311 . S
C632 O626 1.231 . S
O633 Zn615 1.953 . S
O633 C627 1.298 . S
O634 Zn635 1.953 . S
O634 C650 1.225 . S
Zn635 O634 1.953 . S
Zn635 O636 1.949 . S
Zn635 O642 1.919 . S
Zn635 O647 1.924 . S
O636 Zn635 1.949 . S
O636 Zn637 1.923 . S
O636 Zn638 1.950 . S
O636 Zn639 1.945 . S
Zn637 O636 1.923 . S
Zn637 O640 1.933 . S
Zn637 O643 1.941 . S
Zn637 O644 1.965 . S
Zn638 O636 1.950 . S
Zn638 O645 1.938 . S
Zn638 O646 1.906 . S
Zn638 O656 1.953 . S
Zn639 O636 1.945 . S
Zn639 O641 1.932 . S
Zn639 O648 1.977 . S
Zn639 O649 1.910 . S
O640 Zn637 1.933 . S
O640 C651 1.226 . S
O641 Zn639 1.932 . S
O641 C651 1.307 . S
O642 Zn635 1.919 . S
O642 C653 1.253 . S
O643 Zn637 1.941 . S
O643 C653 1.283 . S
O644 Zn637 1.965 . S
O644 C652 1.303 . S
O645 Zn638 1.938 . S
O645 C652 1.247 . S
O646 Zn638 1.906 . S
O646 C654 1.304 . S
O647 Zn635 1.924 . S
O647 C655 1.311 . S
O648 Zn639 1.977 . S
O648 C654 1.272 . S
O649 Zn639 1.910 . S
O649 C655 1.231 . S
C650 O634 1.225 . S
C650 O656 1.298 . S
C651 O640 1.226 . S
C651 O641 1.307 . S
C652 O644 1.303 . S
C652 O645 1.247 . S
C653 O642 1.253 . S
C653 O643 1.283 . S
C654 O646 1.304 . S
C654 O648 1.272 . S
C655 O647 1.311 . S
C655 O649 1.231 . S
O656 Zn638 1.953 . S
O656 C650 1.298 . S
O657 Zn658 1.953 1_455 S
O657 C673 1.225 . S
Zn658 O657 1.953 1_655 S
Zn658 O659 1.949 1_655 S
Zn658 O665 1.918 1_554 S
Zn658 O670 1.924 1_654 S
O659 Zn658 1.949 1_455 S
O659 Zn660 1.923 1_455 S
O659 Zn661 1.950 . S
O659 Zn662 1.945 1_554 S
Zn660 O659 1.923 1_655 S
Zn660 O663 1.933 . S
Zn660 O666 1.941 . S
Zn660 O667 1.965 . S
Zn661 O659 1.950 . S
Zn661 O668 1.938 . S
Zn661 O669 1.906 . S
Zn661 O679 1.953 . S
Zn662 O659 1.945 1_556 S
Zn662 O664 1.932 . S
Zn662 O671 1.977 1_556 S
Zn662 O672 1.910 . S
O663 Zn660 1.933 . S
O663 C674 1.226 1_554 S
O664 Zn662 1.932 . S
O664 C674 1.307 1_455 S
O665 Zn658 1.918 1_556 S
O665 C676 1.252 1_556 S
O666 Zn660 1.941 . S
O666 C676 1.283 . S
O667 Zn660 1.965 . S
O667 C675 1.303 . S
O668 Zn661 1.938 . S
O668 C675 1.247 1_455 S
O669 Zn661 1.906 . S
O669 C677 1.304 . S
O670 Zn658 1.924 1_456 S
O670 C678 1.311 . S
O671 Zn662 1.977 1_554 S
O671 C677 1.272 . S
O672 Zn662 1.910 . S
O672 C678 1.231 . S
C673 O657 1.225 . S
C673 O679 1.298 . S
C674 O663 1.226 1_556 S
C674 O664 1.307 1_655 S
C675 O667 1.303 . S
C675 O668 1.247 1_655 S
C676 O665 1.252 1_554 S
C676 O666 1.283 . S
C677 O669 1.304 . S
C677 O671 1.272 . S
C678 O670 1.311 . S
C678 O672 1.231 . S
O679 Zn661 1.953 . S
O679 C673 1.298 . S
H680 C686 0.930 . S
H681 C690 0.930 . S
H682 C695 0.929 . S
H683 C693 0.929 . S
H684 C688 0.929 . S
H685 C694 0.929 . S
C686 H680 0.930 . S
C686 C687 1.367 . S
C686 C694 1.378 . S
C687 C686 1.367 . S
C687 C695 1.433 . S
C688 H684 0.929 . S
C688 C690 1.378 . S
C688 C692 1.350 . S
C689 C692 1.465 . S
C689 C694 1.347 1_655 S
C689 N697 1.428 . S
C690 H681 0.930 . S
C690 C688 1.378 . S
C690 C691 1.367 . S
C691 C690 1.367 . S
C691 C693 1.433 . S
C692 C688 1.350 . S
C692 C689 1.465 . S
C692 N696 1.427 . S
C693 H683 0.929 . S
C693 C691 1.433 . S
C693 N696 1.384 . S
C694 H685 0.929 . S
C694 C686 1.378 . S
C694 C689 1.347 1_455 S
C695 H682 0.929 . S
C695 C687 1.433 . S
C695 N697 1.384 1_455 S
N696 C692 1.427 . S
N696 C693 1.384 . S
N697 C689 1.428 . S
N697 C695 1.384 1_655 S
H698 C704 0.930 . S
H699 C708 0.930 . S
H700 C713 0.929 . S
H701 C711 0.929 . S
H702 C706 0.929 . S
H703 C712 0.929 . S
C704 H698 0.930 . S
C704 C705 1.367 . S
C704 C712 1.378 . S
C705 C704 1.367 . S
C705 C713 1.433 . S
C706 H702 0.929 . S
C706 C708 1.378 . S
C706 C710 1.350 . S
C707 C710 1.463 . S
C707 C712 1.350 . S
C707 N715 1.427 . S
C708 H699 0.930 . S
C708 C706 1.378 . S
C708 C709 1.367 . S
C709 C708 1.367 . S
C709 C711 1.433 . S
C710 C706 1.350 . S
C710 C707 1.463 . S
C710 N714 1.427 . S
C711 H701 0.929 . S
C711 C709 1.433 . S
C711 N714 1.384 . S
C712 H703 0.929 . S
C712 C704 1.378 . S
C712 C707 1.350 . S
C713 H700 0.929 . S
C713 C705 1.433 . S
C713 N715 1.384 . S
N714 C710 1.427 . S
N714 C711 1.384 . S
N715 C707 1.427 . S
N715 C713 1.384 . S
H716 C722 0.930 . S
H717 C726 0.930 . S
H718 C731 0.929 . S
H719 C729 0.929 . S
H720 C724 0.929 . S
H721 C730 0.929 . S
C722 H716 0.930 . S
C722 C723 1.367 . S
C722 C730 1.378 . S
C723 C722 1.367 . S
C723 C731 1.433 . S
C724 H720 0.929 . S
C724 C726 1.378 . S
C724 C728 1.350 . S
C725 C728 1.463 . S
C725 C730 1.350 . S
C725 N733 1.427 . S
C726 H717 0.930 . S
C726 C724 1.378 . S
C726 C727 1.367 . S
C727 C726 1.367 . S
C727 C729 1.433 . S
C728 C724 1.350 . S
C728 C725 1.463 . S
C728 N732 1.427 . S
C729 H719 0.929 . S
C729 C727 1.433 . S
C729 N732 1.384 . S
C730 H721 0.929 . S
C730 C722 1.378 . S
C730 C725 1.350 . S
C731 H718 0.929 . S
C731 C723 1.433 . S
C731 N733 1.384 . S
N732 C728 1.427 . S
N732 C729 1.384 . S
N733 C725 1.427 . S
N733 C731 1.384 . S
H734 C740 0.930 . S
H735 C744 0.930 . S
H736 C749 0.929 . S
H737 C747 0.929 . S
H738 C742 0.929 . S
H739 C748 0.929 . S
C740 H734 0.930 . S
C740 C741 1.367 . S
C740 C748 1.378 . S
C741 C740 1.367 . S
C741 C749 1.433 . S
C742 H738 0.929 . S
C742 C744 1.378 . S
C742 C746 1.350 . S
C743 C746 1.463 . S
C743 C748 1.350 . S
C743 N751 1.427 . S
C744 H735 0.930 . S
C744 C742 1.378 . S
C744 C745 1.367 . S
C745 C744 1.367 . S
C745 C747 1.433 . S
C746 C742 1.350 . S
C746 C743 1.463 . S
C746 N750 1.427 . S
C747 H737 0.929 . S
C747 C745 1.433 . S
C747 N750 1.384 . S
C748 H739 0.929 . S
C748 C740 1.378 . S
C748 C743 1.350 . S
C749 H736 0.929 . S
C749 C741 1.433 . S
C749 N751 1.384 . S
N750 C746 1.427 . S
N750 C747 1.384 . S
N751 C743 1.427 . S
N751 C749 1.384 . S
H752 C758 0.930 . S
H753 C762 0.930 . S
H754 C767 0.929 . S
H755 C765 0.929 . S
H756 C760 0.929 . S
H757 C766 0.929 . S
C758 H752 0.930 . S
C758 C759 1.367 1_655 S
C758 C766 1.378 . S
C759 C758 1.367 1_455 S
C759 C767 1.433 . S
C760 H756 0.929 . S
C760 C762 1.378 . S
C760 C764 1.332 1_455 S
C761 C764 1.459 1_455 S
C761 C766 1.317 1_455 S
C761 N769 1.466 . S
C762 H753 0.930 . S
C762 C760 1.378 . S
C762 C763 1.367 1_455 S
C763 C762 1.367 1_655 S
C763 C765 1.433 . S
C764 C760 1.332 1_655 S
C764 C761 1.459 1_655 S
C764 N768 1.448 . S
C765 H755 0.929 . S
C765 C763 1.433 . S
C765 N768 1.384 . S
C766 H757 0.929 . S
C766 C758 1.378 . S
C766 C761 1.317 1_655 S
C767 H754 0.929 . S
C767 C759 1.433 . S
C767 N769 1.384 . S
N768 C764 1.448 . S
N768 C765 1.384 . S
N769 C761 1.466 . S
N769 C767 1.384 . S
H770 C776 0.930 . S
H771 C780 0.930 . S
H772 C785 0.929 . S
H773 C783 0.929 . S
H774 C778 0.929 . S
H775 C784 0.929 . S
C776 H770 0.930 . S
C776 C777 1.367 . S
C776 C784 1.378 . S
C777 C776 1.367 . S
C777 C785 1.433 . S
C778 H774 0.929 . S
C778 C780 1.378 . S
C778 C782 1.350 . S
C779 C782 1.463 . S
C779 C784 1.350 . S
C779 N787 1.427 . S
C780 H771 0.930 . S
C780 C778 1.378 . S
C780 C781 1.367 . S
C781 C780 1.367 . S
C781 C783 1.433 . S
C782 C778 1.350 . S
C782 C779 1.463 . S
C782 N786 1.427 . S
C783 H773 0.929 . S
C783 C781 1.433 . S
C783 N786 1.384 . S
C784 H775 0.929 . S
C784 C776 1.378 . S
C784 C779 1.350 . S
C785 H772 0.929 . S
C785 C777 1.433 . S
C785 N787 1.384 . S
N786 C782 1.427 . S
N786 C783 1.384 . S
N787 C779 1.427 . S
N787 C785 1.384 . S
H788 C794 0.930 . S
H789 C798 0.930 . S
H790 C803 0.929 . S
H791 C801 0.929 . S
H792 C796 0.929 . S
H793 C802 0.929 . S
C794 H788 0.930 . S
C794 C795 1.367 . S
C794 C802 1.378 . S
C795 C794 1.367 . S
C795 C803 1.433 . S
C796 H792 0.929 . S
C796 C798 1.378 1_556 S
C796 C800 1.350 . S
C797 C800 1.463 . S
C797 C802 1.350 . S
C797 N805 1.427 . S
C798 H789 0.930 . S
C798 C796 1.378 1_554 S
C798 C799 1.367 1_554 S
C799 C798 1.367 1_556 S
C799 C801 1.433 . S
C800 C796 1.350 . S
C800 C797 1.463 . S
C800 N804 1.427 . S
C801 H791 0.929 . S
C801 C799 1.433 . S
C801 N804 1.384 . S
C802 H793 0.929 . S
C802 C794 1.378 . S
C802 C797 1.350 . S
C803 H790 0.929 . S
C803 C795 1.433 . S
C803 N805 1.384 . S
N804 C800 1.427 . S
N804 C801 1.384 . S
N805 C797 1.427 . S
N805 C803 1.384 . S
H806 C812 0.930 . S
H807 C816 0.930 . S
H808 C821 0.929 . S
H809 C819 0.929 . S
H810 C814 0.929 . S
H811 C820 0.929 . S
C812 H806 0.930 . S
C812 C813 1.367 . S
C812 C820 1.378 . S
C813 C812 1.367 . S
C813 C821 1.433 . S
C814 H810 0.929 . S
C814 C816 1.378 . S
C814 C818 1.350 . S
C815 C818 1.463 . S
C815 C820 1.350 . S
C815 N823 1.427 . S
C816 H807 0.930 . S
C816 C814 1.378 . S
C816 C817 1.367 . S
C817 C816 1.367 . S
C817 C819 1.433 . S
C818 C814 1.350 . S
C818 C815 1.463 . S
C818 N822 1.427 . S
C819 H809 0.929 . S
C819 C817 1.433 . S
C819 N822 1.384 . S
C820 H811 0.929 . S
C820 C812 1.378 . S
C820 C815 1.350 . S
C821 H808 0.929 . S
C821 C813 1.433 . S
C821 N823 1.384 . S
N822 C818 1.427 . S
N822 C819 1.384 . S
N823 C815 1.427 . S
N823 C821 1.384 . S
H824 C830 0.930 . S
H825 C834 0.930 . S
H826 C839 0.912 1_565 S
H827 C837 0.929 . S
H828 C832 0.929 . S
H829 C838 0.929 . S
C830 H824 0.930 . S
C830 C831 1.367 . S
C830 C838 1.378 . S
C831 C830 1.367 . S
C831 C839 1.455 . S
C832 H828 0.929 . S
C832 C834 1.378 . S
C832 C836 1.350 1_565 S
C833 C836 1.463 . S
C833 C838 1.350 . S
C833 N841 1.427 1_545 S
C834 H825 0.930 . S
C834 C832 1.378 . S
C834 C835 1.367 1_565 S
C835 C834 1.367 1_545 S
C835 C837 1.433 . S
C836 C832 1.350 1_545 S
C836 C833 1.463 . S
C836 N840 1.427 . S
C837 H827 0.929 . S
C837 C835 1.433 . S
C837 N840 1.384 . S
C838 H829 0.929 . S
C838 C830 1.378 . S
C838 C833 1.350 . S
C839 H826 0.912 1_545 S
C839 C831 1.455 . S
C839 N841 1.381 1_545 S
N840 C836 1.427 . S
N840 C837 1.384 . S
N841 C833 1.427 1_565 S
N841 C839 1.381 1_565 S
H842 C848 0.930 . S
H843 C852 0.930 . S
H844 C857 0.929 . S
H845 C855 0.929 . S
H846 C850 0.929 . S
H847 C856 0.929 . S
C848 H842 0.930 . S
C848 C849 1.367 . S
C848 C856 1.378 . S
C849 C848 1.367 . S
C849 C857 1.433 . S
C850 H846 0.929 . S
C850 C852 1.378 . S
C850 C854 1.350 . S
C851 C854 1.463 . S
C851 C856 1.350 . S
C851 N859 1.427 . S
C852 H843 0.930 . S
C852 C850 1.378 . S
C852 C853 1.367 . S
C853 C852 1.367 . S
C853 C855 1.433 . S
C854 C850 1.350 . S
C854 C851 1.463 . S
C854 N858 1.427 . S
C855 H845 0.929 . S
C855 C853 1.433 . S
C855 N858 1.384 . S
C856 H847 0.929 . S
C856 C848 1.378 . S
C856 C851 1.350 . S
C857 H844 0.929 . S
C857 C849 1.433 . S
C857 N859 1.384 . S
N858 C854 1.427 . S
N858 C855 1.384 . S
N859 C851 1.427 . S
N859 C857 1.384 . S
H860 C866 0.930 . S
H861 C870 0.930 . S
H862 C875 0.929 . S
H863 C873 0.929 . S
H864 C868 0.929 . S
H865 C874 0.928 . S
C866 H860 0.930 . S
C866 C867 1.367 . S
C866 C874 1.378 . S
C867 C866 1.367 . S
C867 C875 1.434 1_565 S
C868 H864 0.929 . S
C868 C870 1.378 . S
C868 C872 1.350 . S
C869 C872 1.463 . S
C869 C874 1.350 1_545 S
C869 N877 1.427 . S
C870 H861 0.930 . S
C870 C868 1.378 . S
C870 C871 1.367 . S
C871 C870 1.367 . S
C871 C873 1.433 . S
C872 C868 1.350 . S
C872 C869 1.463 . S
C872 N876 1.427 . S
C873 H863 0.929 . S
C873 C871 1.433 . S
C873 N876 1.384 . S
C874 H865 0.928 . S
C874 C866 1.378 . S
C874 C869 1.350 1_565 S
C875 H862 0.929 . S
C875 C867 1.434 1_545 S
C875 N877 1.384 . S
N876 C872 1.427 . S
N876 C873 1.384 . S
N877 C869 1.427 . S
N877 C875 1.384 . S
H878 C884 0.930 . S
H879 C888 0.930 . S
H880 C893 0.929 . S
H881 C891 0.929 . S
H882 C886 0.929 . S
H883 C892 0.929 . S
C884 H878 0.930 . S
C884 C885 1.367 . S
C884 C892 1.378 . S
C885 C884 1.367 . S
C885 C893 1.433 . S
C886 H882 0.929 . S
C886 C888 1.378 . S
C886 C890 1.350 . S
C887 C890 1.463 . S
C887 C892 1.350 . S
C887 N895 1.427 . S
C888 H879 0.930 . S
C888 C886 1.378 . S
C888 C889 1.367 . S
C889 C888 1.367 . S
C889 C891 1.433 . S
C890 C886 1.350 . S
C890 C887 1.463 . S
C890 N894 1.427 . S
C891 H881 0.929 . S
C891 C889 1.433 . S
C891 N894 1.384 . S
C892 H883 0.929 . S
C892 C884 1.378 . S
C892 C887 1.350 . S
C893 H880 0.929 . S
C893 C885 1.433 . S
C893 N895 1.384 . S
N894 C890 1.427 . S
N894 C891 1.384 . S
N895 C887 1.427 . S
N895 C893 1.384 . S
H896 C902 0.930 1_565 S
H897 C906 0.930 . S
H898 C911 0.929 . S
H899 C909 0.943 . S
H900 C904 0.929 . S
H901 C910 0.929 1_565 S
C902 H896 0.930 1_545 S
C902 C903 1.367 . S
C902 C910 1.378 . S
C903 C902 1.367 . S
C903 C911 1.433 . S
C904 H900 0.929 . S
C904 C906 1.378 . S
C904 C908 1.350 . S
C905 C908 1.463 . S
C905 C910 1.350 . S
C905 N913 1.427 . S
C906 H897 0.930 . S
C906 C904 1.378 . S
C906 C907 1.367 . S
C907 C906 1.367 . S
C907 C909 1.433 . S
C908 C904 1.350 . S
C908 C905 1.463 . S
C908 N912 1.427 . S
C909 H899 0.943 . S
C909 C907 1.433 . S
C909 N912 1.384 . S
C910 H901 0.929 1_545 S
C910 C902 1.378 . S
C910 C905 1.350 . S
C911 H898 0.929 . S
C911 C903 1.433 . S
C911 N913 1.384 . S
N912 C908 1.427 . S
N912 C909 1.384 . S
N913 C905 1.427 . S
N913 C911 1.384 . S
H914 C920 0.930 . S
H915 C924 0.930 . S
H916 C929 0.929 . S
H917 C927 0.929 . S
H918 C922 0.929 . S
H919 C928 0.929 . S
C920 H914 0.930 . S
C920 C921 1.367 . S
C920 C928 1.378 . S
C921 C920 1.367 . S
C921 C929 1.433 . S
C922 H918 0.929 . S
C922 C924 1.378 . S
C922 C926 1.350 . S
C923 C926 1.463 . S
C923 C928 1.350 . S
C923 N931 1.427 . S
C924 H915 0.930 . S
C924 C922 1.378 . S
C924 C925 1.367 . S
C925 C924 1.367 . S
C925 C927 1.433 . S
C926 C922 1.350 . S
C926 C923 1.463 . S
C926 N930 1.427 . S
C927 H917 0.929 . S
C927 C925 1.433 . S
C927 N930 1.384 . S
C928 H919 0.929 . S
C928 C920 1.378 . S
C928 C923 1.350 . S
C929 H916 0.929 . S
C929 C921 1.433 . S
C929 N931 1.384 . S
N930 C926 1.427 . S
N930 C927 1.384 . S
N931 C923 1.427 . S
N931 C929 1.384 . S
H932 C938 0.930 . S
H933 C942 0.930 . S
H934 C947 0.929 . S
H935 C945 0.929 . S
H936 C940 0.929 . S
H937 C946 0.929 . S
C938 H932 0.930 . S
C938 C939 1.367 . S
C938 C946 1.378 . S
C939 C938 1.367 . S
C939 C947 1.433 1_545 S
C940 H936 0.929 . S
C940 C942 1.378 . S
C940 C944 1.350 . S
C941 C944 1.463 . S
C941 C946 1.350 1_565 S
C941 N949 1.427 . S
C942 H933 0.930 . S
C942 C940 1.378 . S
C942 C943 1.367 . S
C943 C942 1.367 . S
C943 C945 1.433 1_565 S
C944 C940 1.350 . S
C944 C941 1.463 . S
C944 N948 1.427 1_565 S
C945 H935 0.929 . S
C945 C943 1.433 1_545 S
C945 N948 1.384 . S
C946 H937 0.929 . S
C946 C938 1.378 . S
C946 C941 1.350 1_545 S
C947 H934 0.929 . S
C947 C939 1.433 1_565 S
C947 N949 1.384 . S
N948 C944 1.427 1_545 S
N948 C945 1.384 . S
N949 C941 1.427 . S
N949 C947 1.384 . S
H950 C956 0.930 . S
H951 C960 0.930 . S
H952 C965 0.929 . S
H953 C963 0.929 . S
H954 C958 0.929 . S
H955 C964 0.929 . S
C956 H950 0.930 . S
C956 C957 1.367 . S
C956 C964 1.378 . S
C957 C956 1.367 . S
C957 C965 1.433 . S
C958 H954 0.929 . S
C958 C960 1.378 . S
C958 C962 1.350 . S
C959 C962 1.463 . S
C959 C964 1.350 . S
C959 N967 1.427 . S
C960 H951 0.930 . S
C960 C958 1.378 . S
C960 C961 1.367 . S
C961 C960 1.367 . S
C961 C963 1.433 . S
C962 C958 1.350 . S
C962 C959 1.463 . S
C962 N966 1.427 . S
C963 H953 0.929 . S
C963 C961 1.433 . S
C963 N966 1.384 . S
C964 H955 0.929 . S
C964 C956 1.378 . S
C964 C959 1.350 . S
C965 H952 0.929 . S
C965 C957 1.433 . S
C965 N967 1.384 . S
N966 C962 1.427 . S
N966 C963 1.384 . S
N967 C959 1.427 . S
N967 C965 1.384 . S
H968 C974 0.930 . S
H969 C978 0.904 1_565 S
H970 C983 0.929 . S
H971 C981 0.929 . S
H972 C976 0.929 . S
H973 C982 0.929 . S
C974 H968 0.930 . S
C974 C975 1.367 . S
C974 C982 1.378 . S
C975 C974 1.367 . S
C975 C983 1.433 1_554 S
C976 H972 0.929 . S
C976 C978 1.378 . S
C976 C980 1.350 1_556 S
C977 C980 1.463 . S
C977 C982 1.350 . S
C977 N985 1.427 1_554 S
C978 H969 0.904 1_545 S
C978 C976 1.378 . S
C978 C979 1.367 . S
C979 C978 1.367 . S
C979 C981 1.433 1_556 S
C980 C976 1.350 1_554 S
C980 C977 1.463 . S
C980 N984 1.427 . S
C981 H971 0.929 . S
C981 C979 1.433 1_554 S
C981 N984 1.384 . S
C982 H973 0.929 . S
C982 C974 1.378 . S
C982 C977 1.350 . S
C983 H970 0.929 . S
C983 C975 1.433 1_556 S
C983 N985 1.384 . S
N984 C980 1.427 . S
N984 C981 1.384 . S
N985 C977 1.427 1_556 S
N985 C983 1.384 . S
H986 C992 0.930 . S
H987 C996 0.930 . S
H988 C1001 0.929 . S
H989 C999 0.929 . S
H990 C994 0.929 . S
H991 C1000 0.929 . S
C992 H986 0.930 . S
C992 C993 1.367 . S
C992 C1000 1.378 . S
C993 C992 1.367 . S
C993 C1001 1.433 1_554 S
C994 H990 0.929 . S
C994 C996 1.378 . S
C994 C998 1.350 1_556 S
C995 C998 1.463 . S
C995 C1000 1.350 . S
C995 N1003 1.427 1_554 S
C996 H987 0.930 . S
C996 C994 1.378 . S
C996 C997 1.367 1_556 S
C997 C996 1.367 1_554 S
C997 C999 1.433 . S
C998 C994 1.350 1_554 S
C998 C995 1.463 . S
C998 N1002 1.427 . S
C999 H989 0.929 . S
C999 C997 1.433 . S
C999 N1002 1.384 . S
C1000 H991 0.929 . S
C1000 C992 1.378 . S
C1000 C995 1.350 . S
C1001 H988 0.929 . S
C1001 C993 1.433 1_556 S
C1001 N1003 1.384 . S
N1002 C998 1.427 . S
N1002 C999 1.384 . S
N1003 C995 1.427 1_556 S
N1003 C1001 1.384 . S
H1004 C1010 0.930 . S
H1005 C1014 0.930 . S
H1006 C1019 0.929 . S
H1007 C1017 0.929 . S
H1008 C1012 0.929 . S
H1009 C1018 0.929 . S
C1010 H1004 0.930 . S
C1010 C1011 1.367 . S
C1010 C1018 1.378 . S
C1011 C1010 1.367 . S
C1011 C1019 1.433 . S
C1012 H1008 0.929 . S
C1012 C1014 1.378 . S
C1012 C1016 1.350 . S
C1013 C1016 1.463 . S
C1013 C1018 1.350 . S
C1013 N1021 1.427 . S
C1014 H1005 0.930 . S
C1014 C1012 1.378 . S
C1014 C1015 1.367 . S
C1015 C1014 1.367 . S
C1015 C1017 1.433 . S
C1016 C1012 1.350 . S
C1016 C1013 1.463 . S
C1016 N1020 1.427 . S
C1017 H1007 0.929 . S
C1017 C1015 1.433 . S
C1017 N1020 1.384 . S
C1018 H1009 0.929 . S
C1018 C1010 1.378 . S
C1018 C1013 1.350 . S
C1019 H1006 0.929 . S
C1019 C1011 1.433 . S
C1019 N1021 1.384 . S
N1020 C1016 1.427 . S
N1020 C1017 1.384 . S
N1021 C1013 1.427 . S
N1021 C1019 1.384 . S
H1022 C1028 0.930 . S
H1023 C1032 0.930 . S
H1024 C1037 0.929 . S
H1025 C1035 0.929 . S
H1026 C1030 0.929 . S
H1027 C1036 0.929 . S
C1028 H1022 0.930 . S
C1028 C1029 1.367 . S
C1028 C1036 1.378 . S
C1029 C1028 1.367 . S
C1029 C1037 1.433 . S
C1030 H1026 0.929 . S
C1030 C1032 1.378 . S
C1030 C1034 1.350 . S
C1031 C1034 1.463 . S
C1031 C1036 1.350 . S
C1031 N1039 1.427 . S
C1032 H1023 0.930 . S
C1032 C1030 1.378 . S
C1032 C1033 1.367 . S
C1033 C1032 1.367 . S
C1033 C1035 1.433 . S
C1034 C1030 1.350 . S
C1034 C1031 1.463 . S
C1034 N1038 1.427 . S
C1035 H1025 0.929 . S
C1035 C1033 1.433 . S
C1035 N1038 1.384 . S
C1036 H1027 0.929 . S
C1036 C1028 1.378 . S
C1036 C1031 1.350 . S
C1037 H1024 0.929 . S
C1037 C1029 1.433 . S
C1037 N1039 1.384 . S
N1038 C1034 1.427 . S
N1038 C1035 1.384 . S
N1039 C1031 1.427 . S
N1039 C1037 1.384 . S
H1040 C1046 0.930 . S
H1041 C1050 0.930 . S
H1042 C1055 0.929 . S
H1043 C1053 0.929 . S
H1044 C1048 0.929 . S
H1045 C1054 0.929 . S
C1046 H1040 0.930 . S
C1046 C1047 1.367 . S
C1046 C1054 1.378 . S
C1047 C1046 1.367 . S
C1047 C1055 1.433 . S
C1048 H1044 0.929 . S
C1048 C1050 1.378 . S
C1048 C1052 1.350 . S
C1049 C1052 1.463 . S
C1049 C1054 1.350 . S
C1049 N1057 1.427 . S
C1050 H1041 0.930 . S
C1050 C1048 1.378 . S
C1050 C1051 1.367 . S
C1051 C1050 1.367 . S
C1051 C1053 1.433 . S
C1052 C1048 1.350 . S
C1052 C1049 1.463 . S
C1052 N1056 1.427 . S
C1053 H1043 0.929 . S
C1053 C1051 1.433 . S
C1053 N1056 1.384 . S
C1054 H1045 0.929 . S
C1054 C1046 1.378 . S
C1054 C1049 1.350 . S
C1055 H1042 0.929 . S
C1055 C1047 1.433 . S
C1055 N1057 1.384 . S
N1056 C1052 1.427 . S
N1056 C1053 1.384 . S
N1057 C1049 1.427 . S
N1057 C1055 1.384 . S
H1058 C1064 0.930 . S
H1059 C1068 0.930 1_545 S
H1060 C1073 0.929 . S
H1061 C1071 0.929 . S
H1062 C1066 0.929 . S
H1063 C1072 0.929 . S
C1064 H1058 0.930 . S
C1064 C1065 1.367 . S
C1064 C1072 1.378 . S
C1065 C1064 1.367 . S
C1065 C1073 1.433 . S
C1066 H1062 0.929 . S
C1066 C1068 1.378 . S
C1066 C1070 1.350 . S
C1067 C1070 1.463 . S
C1067 C1072 1.350 . S
C1067 N1075 1.427 . S
C1068 H1059 0.930 1_565 S
C1068 C1066 1.378 . S
C1068 C1069 1.367 . S
C1069 C1068 1.367 . S
C1069 C1071 1.433 . S
C1070 C1066 1.350 . S
C1070 C1067 1.463 . S
C1070 N1074 1.427 . S
C1071 H1061 0.929 . S
C1071 C1069 1.433 . S
C1071 N1074 1.384 . S
C1072 H1063 0.929 . S
C1072 C1064 1.378 . S
C1072 C1067 1.350 . S
C1073 H1060 0.929 . S
C1073 C1065 1.433 . S
C1073 N1075 1.384 . S
N1074 C1070 1.427 . S
N1074 C1071 1.384 . S
N1075 C1067 1.427 . S
N1075 C1073 1.384 . S
H1076 C1082 0.930 . S
H1077 C1086 0.930 . S
H1078 C1091 0.929 . S
H1079 C1089 0.929 . S
H1080 C1084 0.929 . S
H1081 C1090 0.929 . S
C1082 H1076 0.930 . S
C1082 C1083 1.367 . S
C1082 C1090 1.378 . S
C1083 C1082 1.367 . S
C1083 C1091 1.433 . S
C1084 H1080 0.929 . S
C1084 C1086 1.378 . S
C1084 C1088 1.350 . S
C1085 C1088 1.463 . S
C1085 C1090 1.350 . S
C1085 N1093 1.427 . S
C1086 H1077 0.930 . S
C1086 C1084 1.378 . S
C1086 C1087 1.367 . S
C1087 C1086 1.367 . S
C1087 C1089 1.433 . S
C1088 C1084 1.350 . S
C1088 C1085 1.463 . S
C1088 N1092 1.427 . S
C1089 H1079 0.929 . S
C1089 C1087 1.433 . S
C1089 N1092 1.384 . S
C1090 H1081 0.929 . S
C1090 C1082 1.378 . S
C1090 C1085 1.350 . S
C1091 H1078 0.929 . S
C1091 C1083 1.433 . S
C1091 N1093 1.384 . S
N1092 C1088 1.427 . S
N1092 C1089 1.384 . S
N1093 C1085 1.427 . S
N1093 C1091 1.384 . S
H1094 C1100 0.930 . S
H1095 C1104 0.930 . S
H1096 C1109 0.929 . S
H1097 C1107 0.929 . S
H1098 C1102 0.929 . S
H1099 C1108 0.929 . S
C1100 H1094 0.930 . S
C1100 C1101 1.367 . S
C1100 C1108 1.378 . S
C1101 C1100 1.367 . S
C1101 C1109 1.433 . S
C1102 H1098 0.929 . S
C1102 C1104 1.378 . S
C1102 C1106 1.350 . S
C1103 C1106 1.463 . S
C1103 C1108 1.350 . S
C1103 N1111 1.427 . S
C1104 H1095 0.930 . S
C1104 C1102 1.378 . S
C1104 C1105 1.367 . S
C1105 C1104 1.367 . S
C1105 C1107 1.433 . S
C1106 C1102 1.350 . S
C1106 C1103 1.463 . S
C1106 N1110 1.427 . S
C1107 H1097 0.929 . S
C1107 C1105 1.433 . S
C1107 N1110 1.384 . S
C1108 H1099 0.929 . S
C1108 C1100 1.378 . S
C1108 C1103 1.350 . S
C1109 H1096 0.929 . S
C1109 C1101 1.433 . S
C1109 N1111 1.384 . S
N1110 C1106 1.427 . S
N1110 C1107 1.384 . S
N1111 C1103 1.427 . S
N1111 C1109 1.384 . S
H1112 C1118 0.930 . S
H1113 C1122 0.930 1_655 S
H1114 C1127 0.929 . S
H1115 C1125 0.929 1_554 S
H1116 C1120 0.929 1_655 S
H1117 C1126 0.929 . S
C1118 H1112 0.930 . S
C1118 C1119 1.367 . S
C1118 C1126 1.378 . S
C1119 C1118 1.367 . S
C1119 C1127 1.433 1_455 S
C1120 H1116 0.929 1_455 S
C1120 C1122 1.378 . S
C1120 C1124 1.350 . S
C1121 C1124 1.463 . S
C1121 C1126 1.350 . S
C1121 N1129 1.427 1_455 S
C1122 H1113 0.930 1_455 S
C1122 C1120 1.378 . S
C1122 C1123 1.367 . S
C1123 C1122 1.367 . S
C1123 C1125 1.433 . S
C1124 C1120 1.350 . S
C1124 C1121 1.463 . S
C1124 N1128 1.427 . S
C1125 H1115 0.929 1_556 S
C1125 C1123 1.433 . S
C1125 N1128 1.384 . S
C1126 H1117 0.929 . S
C1126 C1118 1.378 . S
C1126 C1121 1.350 . S
C1127 H1114 0.929 . S
C1127 C1119 1.433 1_655 S
C1127 N1129 1.384 . S
N1128 C1124 1.427 . S
N1128 C1125 1.384 . S
N1129 C1121 1.427 1_655 S
N1129 C1127 1.384 . S
H1130 C1136 0.930 . S
H1131 C1140 0.930 . S
H1132 C1145 0.929 . S
H1133 C1143 0.929 . S
H1134 C1138 0.929 . S
H1135 C1144 0.929 . S
C1136 H1130 0.930 . S
C1136 C1137 1.367 . S
C1136 C1144 1.378 . S
C1137 C1136 1.367 . S
C1137 C1145 1.433 . S
C1138 H1134 0.929 . S
C1138 C1140 1.378 . S
C1138 C1142 1.350 . S
C1139 C1142 1.463 . S
C1139 C1144 1.350 . S
C1139 N1147 1.427 . S
C1140 H1131 0.930 . S
C1140 C1138 1.378 . S
C1140 C1141 1.367 . S
C1141 C1140 1.367 . S
C1141 C1143 1.433 . S
C1142 C1138 1.350 . S
C1142 C1139 1.463 . S
C1142 N1146 1.427 . S
C1143 H1133 0.929 . S
C1143 C1141 1.433 . S
C1143 N1146 1.384 . S
C1144 H1135 0.929 . S
C1144 C1136 1.378 . S
C1144 C1139 1.350 . S
C1145 H1132 0.929 . S
C1145 C1137 1.433 . S
C1145 N1147 1.384 . S
N1146 C1142 1.427 . S
N1146 C1143 1.384 . S
N1147 C1139 1.427 . S
N1147 C1145 1.384 . S
H1148 C1154 0.930 . S
H1149 C1158 0.930 . S
H1150 C1163 0.929 . S
H1151 C1161 0.929 . S
H1152 C1156 0.929 . S
H1153 C1162 0.929 . S
C1154 H1148 0.930 . S
C1154 C1155 1.367 . S
C1154 C1162 1.378 . S
C1155 C1154 1.367 . S
C1155 C1163 1.433 . S
C1156 H1152 0.929 . S
C1156 C1158 1.378 . S
C1156 C1160 1.350 . S
C1157 C1160 1.463 . S
C1157 C1162 1.350 . S
C1157 N1165 1.427 . S
C1158 H1149 0.930 . S
C1158 C1156 1.378 . S
C1158 C1159 1.367 . S
C1159 C1158 1.367 . S
C1159 C1161 1.433 . S
C1160 C1156 1.350 . S
C1160 C1157 1.463 . S
C1160 N1164 1.427 . S
C1161 H1151 0.929 . S
C1161 C1159 1.433 . S
C1161 N1164 1.384 . S
C1162 H1153 0.929 . S
C1162 C1154 1.378 . S
C1162 C1157 1.350 . S
C1163 H1150 0.929 . S
C1163 C1155 1.433 . S
C1163 N1165 1.384 . S
N1164 C1160 1.427 . S
N1164 C1161 1.384 . S
N1165 C1157 1.427 . S
N1165 C1163 1.384 . S
H1166 C1172 0.930 . S
H1167 C1176 0.930 . S
H1168 C1181 0.929 . S
H1169 C1179 0.929 . S
H1170 C1174 0.929 . S
H1171 C1180 0.929 . S
C1172 H1166 0.930 . S
C1172 C1173 1.367 . S
C1172 C1180 1.378 . S
C1173 C1172 1.367 . S
C1173 C1181 1.433 . S
C1174 H1170 0.929 . S
C1174 C1176 1.378 . S
C1174 C1178 1.350 . S
C1175 C1178 1.463 . S
C1175 C1180 1.350 . S
C1175 N1183 1.427 . S
C1176 H1167 0.930 . S
C1176 C1174 1.378 . S
C1176 C1177 1.367 . S
C1177 C1176 1.367 . S
C1177 C1179 1.433 . S
C1178 C1174 1.350 . S
C1178 C1175 1.463 . S
C1178 N1182 1.427 . S
C1179 H1169 0.929 . S
C1179 C1177 1.433 . S
C1179 N1182 1.384 . S
C1180 H1171 0.929 . S
C1180 C1172 1.378 . S
C1180 C1175 1.350 . S
C1181 H1168 0.929 . S
C1181 C1173 1.433 . S
C1181 N1183 1.384 . S
N1182 C1178 1.427 . S
N1182 C1179 1.384 . S
N1183 C1175 1.427 . S
N1183 C1181 1.384 . S
H1184 C1190 0.918 1_655 S
H1185 C1194 0.930 . S
H1186 C1199 0.929 . S
H1187 C1197 0.929 . S
H1188 C1192 0.929 . S
H1189 C1198 0.929 . S
C1190 H1184 0.918 1_455 S
C1190 C1191 1.367 . S
C1190 C1198 1.378 . S
C1191 C1190 1.367 . S
C1191 C1199 1.433 . S
C1192 H1188 0.929 . S
C1192 C1194 1.378 . S
C1192 C1196 1.350 . S
C1193 C1196 1.463 . S
C1193 C1198 1.350 . S
C1193 N1201 1.427 . S
C1194 H1185 0.930 . S
C1194 C1192 1.378 . S
C1194 C1195 1.367 . S
C1195 C1194 1.367 . S
C1195 C1197 1.433 . S
C1196 C1192 1.350 . S
C1196 C1193 1.463 . S
C1196 N1200 1.427 . S
C1197 H1187 0.929 . S
C1197 C1195 1.433 . S
C1197 N1200 1.384 . S
C1198 H1189 0.929 . S
C1198 C1190 1.378 . S
C1198 C1193 1.350 . S
C1199 H1186 0.929 . S
C1199 C1191 1.433 . S
C1199 N1201 1.384 . S
N1200 C1196 1.427 . S
N1200 C1197 1.384 . S
N1201 C1193 1.427 . S
N1201 C1199 1.384 . S
H1202 C1208 0.930 . S
H1203 C1212 0.930 . S
H1204 C1217 0.929 . S
H1205 C1215 0.929 . S
H1206 C1210 0.929 . S
H1207 C1216 0.929 . S
C1208 H1202 0.930 . S
C1208 C1209 1.367 . S
C1208 C1216 1.378 . S
C1209 C1208 1.367 . S
C1209 C1217 1.433 . S
C1210 H1206 0.929 . S
C1210 C1212 1.378 . S
C1210 C1214 1.350 . S
C1211 C1214 1.463 . S
C1211 C1216 1.350 . S
C1211 N1219 1.427 . S
C1212 H1203 0.930 . S
C1212 C1210 1.378 . S
C1212 C1213 1.367 . S
C1213 C1212 1.367 . S
C1213 C1215 1.433 . S
C1214 C1210 1.350 . S
C1214 C1211 1.463 . S
C1214 N1218 1.427 . S
C1215 H1205 0.929 . S
C1215 C1213 1.433 . S
C1215 N1218 1.384 . S
C1216 H1207 0.929 . S
C1216 C1208 1.378 . S
C1216 C1211 1.350 . S
C1217 H1204 0.929 . S
C1217 C1209 1.433 . S
C1217 N1219 1.384 . S
N1218 C1214 1.427 . S
N1218 C1215 1.384 . S
N1219 C1211 1.427 . S
N1219 C1217 1.384 . S
H1220 C1226 0.930 . S
H1221 C1230 0.930 . S
H1222 C1235 0.929 . S
H1223 C1233 0.929 . S
H1224 C1228 0.929 . S
H1225 C1234 0.929 . S
C1226 H1220 0.930 . S
C1226 C1227 1.367 . S
C1226 C1234 1.378 . S
C1227 C1226 1.367 . S
C1227 C1235 1.433 . S
C1228 H1224 0.929 . S
C1228 C1230 1.378 . S
C1228 C1232 1.350 . S
C1229 C1232 1.463 . S
C1229 C1234 1.350 . S
C1229 N1237 1.427 . S
C1230 H1221 0.930 . S
C1230 C1228 1.378 . S
C1230 C1231 1.367 . S
C1231 C1230 1.367 . S
C1231 C1233 1.433 . S
C1232 C1228 1.350 . S
C1232 C1229 1.463 . S
C1232 N1236 1.427 . S
C1233 H1223 0.929 . S
C1233 C1231 1.433 . S
C1233 N1236 1.384 . S
C1234 H1225 0.929 . S
C1234 C1226 1.378 . S
C1234 C1229 1.350 . S
C1235 H1222 0.929 . S
C1235 C1227 1.433 . S
C1235 N1237 1.384 . S
N1236 C1232 1.427 . S
N1236 C1233 1.384 . S
N1237 C1229 1.427 . S
N1237 C1235 1.384 . S
H1238 C1244 0.930 . S
H1239 C1248 0.930 . S
H1240 C1253 0.929 . S
H1241 C1251 0.929 . S
H1242 C1246 0.929 . S
H1243 C1252 0.929 . S
C1244 H1238 0.930 . S
C1244 C1245 1.367 . S
C1244 C1252 1.378 . S
C1245 C1244 1.367 . S
C1245 C1253 1.433 . S
C1246 H1242 0.929 . S
C1246 C1248 1.378 . S
C1246 C1250 1.350 . S
C1247 C1250 1.463 . S
C1247 C1252 1.350 . S
C1247 N1255 1.427 . S
C1248 H1239 0.930 . S
C1248 C1246 1.378 . S
C1248 C1249 1.367 . S
C1249 C1248 1.367 . S
C1249 C1251 1.433 . S
C1250 C1246 1.350 . S
C1250 C1247 1.463 . S
C1250 N1254 1.427 . S
C1251 H1241 0.929 . S
C1251 C1249 1.433 . S
C1251 N1254 1.384 . S
C1252 H1243 0.929 . S
C1252 C1244 1.378 . S
C1252 C1247 1.350 . S
C1253 H1240 0.929 . S
C1253 C1245 1.433 . S
C1253 N1255 1.384 . S
N1254 C1250 1.427 . S
N1254 C1251 1.384 . S
N1255 C1247 1.427 . S
N1255 C1253 1.384 . S
H1256 C1262 0.930 . S
H1257 C1266 0.930 . S
H1258 C1271 0.941 . S
H1259 C1269 0.929 . S
H1260 C1264 0.929 1_565 S
H1261 C1270 0.929 . S
C1262 H1256 0.930 . S
C1262 C1263 1.367 . S
C1262 C1270 1.378 . S
C1263 C1262 1.367 . S
C1263 C1271 1.423 1_545 S
C1264 H1260 0.929 1_545 S
C1264 C1266 1.378 . S
C1264 C1268 1.350 . S
C1265 C1268 1.463 . S
C1265 C1270 1.350 . S
C1265 N1273 1.427 . S
C1266 H1257 0.930 . S
C1266 C1264 1.378 . S
C1266 C1267 1.367 . S
C1267 C1266 1.367 . S
C1267 C1269 1.433 . S
C1268 C1264 1.350 . S
C1268 C1265 1.463 . S
C1268 N1272 1.427 . S
C1269 H1259 0.929 . S
C1269 C1267 1.433 . S
C1269 N1272 1.384 . S
C1270 H1261 0.929 . S
C1270 C1262 1.378 . S
C1270 C1265 1.350 . S
C1271 H1258 0.941 . S
C1271 C1263 1.423 1_565 S
C1271 N1273 1.382 1_565 S
N1272 C1268 1.427 . S
N1272 C1269 1.384 . S
N1273 C1265 1.427 . S
N1273 C1271 1.382 1_545 S
H1274 C1280 0.930 . S
H1275 C1284 0.930 . S
H1276 C1289 0.929 . S
H1277 C1287 0.929 . S
H1278 C1282 0.929 . S
H1279 C1288 0.929 . S
C1280 H1274 0.930 . S
C1280 C1281 1.367 . S
C1280 C1288 1.378 . S
C1281 C1280 1.367 . S
C1281 C1289 1.433 . S
C1282 H1278 0.929 . S
C1282 C1284 1.378 . S
C1282 C1286 1.350 . S
C1283 C1286 1.463 . S
C1283 C1288 1.350 . S
C1283 N1291 1.427 . S
C1284 H1275 0.930 . S
C1284 C1282 1.378 . S
C1284 C1285 1.367 . S
C1285 C1284 1.367 . S
C1285 C1287 1.433 . S
C1286 C1282 1.350 . S
C1286 C1283 1.463 . S
C1286 N1290 1.427 . S
C1287 H1277 0.929 . S
C1287 C1285 1.433 . S
C1287 N1290 1.384 . S
C1288 H1279 0.929 . S
C1288 C1280 1.378 . S
C1288 C1283 1.350 . S
C1289 H1276 0.929 . S
C1289 C1281 1.433 . S
C1289 N1291 1.384 . S
N1290 C1286 1.427 . S
N1290 C1287 1.384 . S
N1291 C1283 1.427 . S
N1291 C1289 1.384 . S
H1292 C1298 0.930 . S
H1293 C1302 0.930 . S
H1294 C1307 0.929 . S
H1295 C1305 0.929 . S
H1296 C1300 0.929 . S
H1297 C1306 0.929 . S
C1298 H1292 0.930 . S
C1298 C1299 1.367 . S
C1298 C1306 1.378 . S
C1299 C1298 1.367 . S
C1299 C1307 1.433 1_565 S
C1300 H1296 0.929 . S
C1300 C1302 1.378 . S
C1300 C1304 1.350 1_545 S
C1301 C1304 1.463 . S
C1301 C1306 1.350 . S
C1301 N1309 1.427 1_565 S
C1302 H1293 0.930 . S
C1302 C1300 1.378 . S
C1302 C1303 1.367 1_545 S
C1303 C1302 1.367 1_565 S
C1303 C1305 1.433 . S
C1304 C1300 1.350 1_565 S
C1304 C1301 1.463 . S
C1304 N1308 1.427 . S
C1305 H1295 0.929 . S
C1305 C1303 1.433 . S
C1305 N1308 1.384 . S
C1306 H1297 0.929 . S
C1306 C1298 1.378 . S
C1306 C1301 1.350 . S
C1307 H1294 0.929 . S
C1307 C1299 1.433 1_545 S
C1307 N1309 1.384 . S
N1308 C1304 1.427 . S
N1308 C1305 1.384 . S
N1309 C1301 1.427 1_545 S
N1309 C1307 1.384 . S
H1310 C1316 0.930 . S
H1311 C1320 0.930 . S
H1312 C1325 0.929 . S
H1313 C1323 0.929 . S
H1314 C1318 0.929 . S
H1315 C1324 0.929 . S
C1316 H1310 0.930 . S
C1316 C1317 1.367 . S
C1316 C1324 1.378 . S
C1317 C1316 1.367 . S
C1317 C1325 1.433 . S
C1318 H1314 0.929 . S
C1318 C1320 1.378 . S
C1318 C1322 1.350 . S
C1319 C1322 1.463 . S
C1319 C1324 1.350 . S
C1319 N1327 1.427 . S
C1320 H1311 0.930 . S
C1320 C1318 1.378 . S
C1320 C1321 1.367 . S
C1321 C1320 1.367 . S
C1321 C1323 1.433 . S
C1322 C1318 1.350 . S
C1322 C1319 1.463 . S
C1322 N1326 1.427 . S
C1323 H1313 0.929 . S
C1323 C1321 1.433 . S
C1323 N1326 1.384 . S
C1324 H1315 0.929 . S
C1324 C1316 1.378 . S
C1324 C1319 1.350 . S
C1325 H1312 0.929 . S
C1325 C1317 1.433 . S
C1325 N1327 1.384 . S
N1326 C1322 1.427 . S
N1326 C1323 1.384 . S
N1327 C1319 1.427 . S
N1327 C1325 1.384 . S
H1328 C1334 0.930 . S
H1329 C1338 0.930 . S
H1330 C1343 0.929 . S
H1331 C1341 0.929 . S
H1332 C1336 0.929 . S
H1333 C1342 0.929 . S
C1334 H1328 0.930 . S
C1334 C1335 1.367 1_565 S
C1334 C1342 1.378 . S
C1335 C1334 1.367 1_545 S
C1335 C1343 1.433 . S
C1336 H1332 0.929 . S
C1336 C1338 1.378 . S
C1336 C1340 1.350 . S
C1337 C1340 1.463 . S
C1337 C1342 1.350 1_545 S
C1337 N1345 1.427 . S
C1338 H1329 0.930 . S
C1338 C1336 1.378 . S
C1338 C1339 1.367 1_545 S
C1339 C1338 1.367 1_565 S
C1339 C1341 1.433 . S
C1340 C1336 1.350 . S
C1340 C1337 1.463 . S
C1340 N1344 1.427 1_545 S
C1341 H1331 0.929 . S
C1341 C1339 1.433 . S
C1341 N1344 1.384 . S
C1342 H1333 0.929 . S
C1342 C1334 1.378 . S
C1342 C1337 1.350 1_565 S
C1343 H1330 0.929 . S
C1343 C1335 1.433 . S
C1343 N1345 1.384 . S
N1344 C1340 1.427 1_565 S
N1344 C1341 1.384 . S
N1345 C1337 1.427 . S
N1345 C1343 1.384 . S
H1346 C1352 0.930 . S
H1347 C1356 0.930 . S
H1348 C1361 0.929 . S
H1349 C1359 0.929 . S
H1350 C1354 0.929 . S
H1351 C1360 0.929 . S
C1352 H1346 0.930 . S
C1352 C1353 1.367 . S
C1352 C1360 1.378 . S
C1353 C1352 1.367 . S
C1353 C1361 1.433 . S
C1354 H1350 0.929 . S
C1354 C1356 1.378 . S
C1354 C1358 1.350 . S
C1355 C1358 1.463 . S
C1355 C1360 1.350 . S
C1355 N1363 1.427 . S
C1356 H1347 0.930 . S
C1356 C1354 1.378 . S
C1356 C1357 1.367 . S
C1357 C1356 1.367 . S
C1357 C1359 1.433 . S
C1358 C1354 1.350 . S
C1358 C1355 1.463 . S
C1358 N1362 1.427 . S
C1359 H1349 0.929 . S
C1359 C1357 1.433 . S
C1359 N1362 1.384 . S
C1360 H1351 0.929 . S
C1360 C1352 1.378 . S
C1360 C1355 1.350 . S
C1361 H1348 0.929 . S
C1361 C1353 1.433 . S
C1361 N1363 1.384 . S
N1362 C1358 1.427 . S
N1362 C1359 1.384 . S
N1363 C1355 1.427 . S
N1363 C1361 1.384 . S
H1364 C1370 0.930 . S
H1365 C1374 0.930 . S
H1366 C1379 0.929 . S
H1367 C1377 0.929 . S
H1368 C1372 0.929 . S
H1369 C1378 0.929 . S
C1370 H1364 0.930 . S
C1370 C1371 1.367 . S
C1370 C1378 1.378 . S
C1371 C1370 1.367 . S
C1371 C1379 1.433 . S
C1372 H1368 0.929 . S
C1372 C1374 1.378 . S
C1372 C1376 1.350 . S
C1373 C1376 1.463 . S
C1373 C1378 1.350 . S
C1373 N1381 1.427 . S
C1374 H1365 0.930 . S
C1374 C1372 1.378 . S
C1374 C1375 1.367 . S
C1375 C1374 1.367 . S
C1375 C1377 1.433 . S
C1376 C1372 1.350 . S
C1376 C1373 1.463 . S
C1376 N1380 1.427 . S
C1377 H1367 0.929 . S
C1377 C1375 1.433 . S
C1377 N1380 1.384 . S
C1378 H1369 0.929 . S
C1378 C1370 1.378 . S
C1378 C1373 1.350 . S
C1379 H1366 0.929 . S
C1379 C1371 1.433 . S
C1379 N1381 1.384 . S
N1380 C1376 1.427 . S
N1380 C1377 1.384 . S
N1381 C1373 1.427 . S
N1381 C1379 1.384 . S
H1382 C1388 0.930 . S
H1383 C1392 0.930 . S
H1384 C1397 0.929 . S
H1385 C1395 0.929 . S
H1386 C1390 0.929 . S
H1387 C1396 0.929 . S
C1388 H1382 0.930 . S
C1388 C1389 1.367 . S
C1388 C1396 1.378 . S
C1389 C1388 1.367 . S
C1389 C1397 1.433 . S
C1390 H1386 0.929 . S
C1390 C1392 1.378 . S
C1390 C1394 1.350 . S
C1391 C1394 1.463 . S
C1391 C1396 1.350 . S
C1391 N1399 1.427 . S
C1392 H1383 0.930 . S
C1392 C1390 1.378 . S
C1392 C1393 1.367 . S
C1393 C1392 1.367 . S
C1393 C1395 1.433 . S
C1394 C1390 1.350 . S
C1394 C1391 1.463 . S
C1394 N1398 1.427 . S
C1395 H1385 0.929 . S
C1395 C1393 1.433 . S
C1395 N1398 1.384 . S
C1396 H1387 0.929 . S
C1396 C1388 1.378 . S
C1396 C1391 1.350 . S
C1397 H1384 0.929 . S
C1397 C1389 1.433 . S
C1397 N1399 1.384 . S
N1398 C1394 1.427 . S
N1398 C1395 1.384 . S
N1399 C1391 1.427 . S
N1399 C1397 1.384 . S
H1400 C1406 0.930 . S
H1401 C1410 0.930 1_556 S
H1402 C1415 0.929 . S
H1403 C1413 0.929 . S
H1404 C1408 0.929 1_556 S
H1405 C1414 0.929 . S
C1406 H1400 0.930 . S
C1406 C1407 1.367 . S
C1406 C1414 1.378 . S
C1407 C1406 1.367 . S
C1407 C1415 1.433 1_554 S
C1408 H1404 0.929 1_554 S
C1408 C1410 1.378 . S
C1408 C1412 1.350 . S
C1409 C1412 1.463 . S
C1409 C1414 1.350 . S
C1409 N1417 1.427 1_554 S
C1410 H1401 0.930 1_554 S
C1410 C1408 1.378 . S
C1410 C1411 1.367 . S
C1411 C1410 1.367 . S
C1411 C1413 1.433 . S
C1412 C1408 1.350 . S
C1412 C1409 1.463 . S
C1412 N1416 1.427 . S
C1413 H1403 0.929 . S
C1413 C1411 1.433 . S
C1413 N1416 1.384 . S
C1414 H1405 0.929 . S
C1414 C1406 1.378 . S
C1414 C1409 1.350 . S
C1415 H1402 0.929 . S
C1415 C1407 1.433 1_556 S
C1415 N1417 1.384 . S
N1416 C1412 1.427 . S
N1416 C1413 1.384 . S
N1417 C1409 1.427 1_556 S
N1417 C1415 1.384 . S
H1418 C1424 0.930 . S
H1419 C1428 0.930 . S
H1420 C1433 0.929 . S
H1421 C1431 0.929 . S
H1422 C1426 0.929 . S
H1423 C1432 0.929 . S
C1424 H1418 0.930 . S
C1424 C1425 1.367 . S
C1424 C1432 1.378 . S
C1425 C1424 1.367 . S
C1425 C1433 1.433 1_556 S
C1426 H1422 0.929 . S
C1426 C1428 1.378 . S
C1426 C1430 1.350 1_554 S
C1427 C1430 1.463 . S
C1427 C1432 1.350 . S
C1427 N1435 1.427 1_556 S
C1428 H1419 0.930 . S
C1428 C1426 1.378 . S
C1428 C1429 1.367 1_554 S
C1429 C1428 1.367 1_556 S
C1429 C1431 1.433 . S
C1430 C1426 1.350 1_556 S
C1430 C1427 1.463 . S
C1430 N1434 1.427 . S
C1431 H1421 0.929 . S
C1431 C1429 1.433 . S
C1431 N1434 1.384 . S
C1432 H1423 0.929 . S
C1432 C1424 1.378 . S
C1432 C1427 1.350 . S
C1433 H1420 0.929 . S
C1433 C1425 1.433 1_554 S
C1433 N1435 1.384 . S
N1434 C1430 1.427 . S
N1434 C1431 1.384 . S
N1435 C1427 1.427 1_554 S
N1435 C1433 1.384 . S
H1436 C1442 0.930 . S
H1437 C1446 0.930 . S
H1438 C1451 0.929 . S
H1439 C1449 0.929 . S
H1440 C1444 0.929 . S
H1441 C1450 0.929 . S
C1442 H1436 0.930 . S
C1442 C1443 1.367 . S
C1442 C1450 1.378 . S
C1443 C1442 1.367 . S
C1443 C1451 1.433 . S
C1444 H1440 0.929 . S
C1444 C1446 1.378 . S
C1444 C1448 1.350 . S
C1445 C1448 1.463 . S
C1445 C1450 1.350 . S
C1445 N1453 1.427 . S
C1446 H1437 0.930 . S
C1446 C1444 1.378 . S
C1446 C1447 1.367 . S
C1447 C1446 1.367 . S
C1447 C1449 1.433 . S
C1448 C1444 1.350 . S
C1448 C1445 1.463 . S
C1448 N1452 1.427 . S
C1449 H1439 0.929 . S
C1449 C1447 1.433 . S
C1449 N1452 1.384 . S
C1450 H1441 0.929 . S
C1450 C1442 1.378 . S
C1450 C1445 1.350 . S
C1451 H1438 0.929 . S
C1451 C1443 1.433 . S
C1451 N1453 1.384 . S
N1452 C1448 1.427 . S
N1452 C1449 1.384 . S
N1453 C1445 1.427 . S
N1453 C1451 1.384 . S
H1454 C1460 0.930 . S
H1455 C1464 0.930 . S
H1456 C1469 0.929 . S
H1457 C1467 0.929 . S
H1458 C1462 0.929 . S
H1459 C1468 0.929 . S
C1460 H1454 0.930 . S
C1460 C1461 1.367 . S
C1460 C1468 1.378 . S
C1461 C1460 1.367 . S
C1461 C1469 1.433 . S
C1462 H1458 0.929 . S
C1462 C1464 1.378 . S
C1462 C1466 1.350 . S
C1463 C1466 1.463 . S
C1463 C1468 1.350 . S
C1463 N1471 1.427 . S
C1464 H1455 0.930 . S
C1464 C1462 1.378 . S
C1464 C1465 1.367 . S
C1465 C1464 1.367 . S
C1465 C1467 1.433 . S
C1466 C1462 1.350 . S
C1466 C1463 1.463 . S
C1466 N1470 1.427 . S
C1467 H1457 0.929 . S
C1467 C1465 1.433 . S
C1467 N1470 1.384 . S
C1468 H1459 0.929 . S
C1468 C1460 1.378 . S
C1468 C1463 1.350 . S
C1469 H1456 0.929 . S
C1469 C1461 1.433 . S
C1469 N1471 1.384 . S
N1470 C1466 1.427 . S
N1470 C1467 1.384 . S
N1471 C1463 1.427 . S
N1471 C1469 1.384 . S
H1472 C1478 0.930 . S
H1473 C1482 0.930 . S
H1474 C1487 0.929 . S
H1475 C1485 0.929 . S
H1476 C1480 0.929 . S
H1477 C1486 0.929 . S
C1478 H1472 0.930 . S
C1478 C1479 1.367 . S
C1478 C1486 1.378 . S
C1479 C1478 1.367 . S
C1479 C1487 1.433 . S
C1480 H1476 0.929 . S
C1480 C1482 1.378 . S
C1480 C1484 1.350 . S
C1481 C1484 1.463 . S
C1481 C1486 1.350 . S
C1481 N1489 1.427 . S
C1482 H1473 0.930 . S
C1482 C1480 1.378 . S
C1482 C1483 1.367 . S
C1483 C1482 1.367 . S
C1483 C1485 1.433 . S
C1484 C1480 1.350 . S
C1484 C1481 1.463 . S
C1484 N1488 1.427 . S
C1485 H1475 0.929 . S
C1485 C1483 1.433 . S
C1485 N1488 1.384 . S
C1486 H1477 0.929 . S
C1486 C1478 1.378 . S
C1486 C1481 1.350 . S
C1487 H1474 0.929 . S
C1487 C1479 1.433 . S
C1487 N1489 1.384 . S
N1488 C1484 1.427 . S
N1488 C1485 1.384 . S
N1489 C1481 1.427 . S
N1489 C1487 1.384 . S
H1490 C1496 0.930 . S
H1491 C1500 0.930 . S
H1492 C1505 0.929 . S
H1493 C1503 0.929 . S
H1494 C1498 0.929 . S
H1495 C1504 0.929 . S
C1496 H1490 0.930 . S
C1496 C1497 1.367 . S
C1496 C1504 1.378 . S
C1497 C1496 1.367 . S
C1497 C1505 1.433 . S
C1498 H1494 0.929 . S
C1498 C1500 1.378 . S
C1498 C1502 1.350 . S
C1499 C1502 1.463 . S
C1499 C1504 1.350 . S
C1499 N1507 1.427 . S
C1500 H1491 0.930 . S
C1500 C1498 1.378 . S
C1500 C1501 1.367 . S
C1501 C1500 1.367 . S
C1501 C1503 1.433 . S
C1502 C1498 1.350 . S
C1502 C1499 1.463 . S
C1502 N1506 1.427 . S
C1503 H1493 0.929 . S
C1503 C1501 1.433 . S
C1503 N1506 1.384 . S
C1504 H1495 0.929 . S
C1504 C1496 1.378 . S
C1504 C1499 1.350 . S
C1505 H1492 0.929 . S
C1505 C1497 1.433 . S
C1505 N1507 1.384 . S
N1506 C1502 1.427 . S
N1506 C1503 1.384 . S
N1507 C1499 1.427 . S
N1507 C1505 1.384 . S
H1508 C1514 0.930 . S
H1509 C1518 0.930 . S
H1510 C1523 0.929 . S
H1511 C1521 0.929 . S
H1512 C1516 0.929 . S
H1513 C1522 0.929 . S
C1514 H1508 0.930 . S
C1514 C1515 1.367 . S
C1514 C1522 1.378 . S
C1515 C1514 1.367 . S
C1515 C1523 1.433 . S
C1516 H1512 0.929 . S
C1516 C1518 1.378 . S
C1516 C1520 1.350 . S
C1517 C1520 1.463 . S
C1517 C1522 1.350 . S
C1517 N1525 1.427 . S
C1518 H1509 0.930 . S
C1518 C1516 1.378 . S
C1518 C1519 1.367 . S
C1519 C1518 1.367 . S
C1519 C1521 1.433 . S
C1520 C1516 1.350 . S
C1520 C1517 1.463 . S
C1520 N1524 1.427 . S
C1521 H1511 0.929 . S
C1521 C1519 1.433 . S
C1521 N1524 1.384 . S
C1522 H1513 0.929 . S
C1522 C1514 1.378 . S
C1522 C1517 1.350 . S
C1523 H1510 0.929 . S
C1523 C1515 1.433 . S
C1523 N1525 1.384 . S
N1524 C1520 1.427 . S
N1524 C1521 1.384 . S
N1525 C1517 1.427 . S
N1525 C1523 1.384 . S
H1526 C1532 0.930 . S
H1527 C1536 0.930 . S
H1528 C1541 0.929 . S
H1529 C1539 0.929 . S
H1530 C1534 0.929 . S
H1531 C1540 0.929 . S
C1532 H1526 0.930 . S
C1532 C1533 1.367 . S
C1532 C1540 1.378 . S
C1533 C1532 1.367 . S
C1533 C1541 1.433 . S
C1534 H1530 0.929 . S
C1534 C1536 1.378 . S
C1534 C1538 1.350 . S
C1535 C1538 1.463 . S
C1535 C1540 1.350 . S
C1535 N1543 1.427 . S
C1536 H1527 0.930 . S
C1536 C1534 1.378 . S
C1536 C1537 1.367 . S
C1537 C1536 1.367 . S
C1537 C1539 1.433 . S
C1538 C1534 1.350 . S
C1538 C1535 1.463 . S
C1538 N1542 1.427 . S
C1539 H1529 0.929 . S
C1539 C1537 1.433 . S
C1539 N1542 1.384 . S
C1540 H1531 0.929 . S
C1540 C1532 1.378 . S
C1540 C1535 1.350 . S
C1541 H1528 0.929 . S
C1541 C1533 1.433 . S
C1541 N1543 1.384 . S
N1542 C1538 1.427 . S
N1542 C1539 1.384 . S
N1543 C1535 1.427 . S
N1543 C1541 1.384 . S
H1544 C1550 0.930 . S
H1545 C1554 0.930 . S
H1546 C1559 0.929 . S
H1547 C1557 0.929 . S
H1548 C1552 0.929 . S
H1549 C1558 0.929 . S
C1550 H1544 0.930 . S
C1550 C1551 1.367 . S
C1550 C1558 1.378 . S
C1551 C1550 1.367 . S
C1551 C1559 1.433 . S
C1552 H1548 0.929 . S
C1552 C1554 1.378 . S
C1552 C1556 1.350 . S
C1553 C1556 1.463 . S
C1553 C1558 1.350 . S
C1553 N1561 1.427 . S
C1554 H1545 0.930 . S
C1554 C1552 1.378 . S
C1554 C1555 1.367 . S
C1555 C1554 1.367 . S
C1555 C1557 1.433 . S
C1556 C1552 1.350 . S
C1556 C1553 1.463 . S
C1556 N1560 1.427 . S
C1557 H1547 0.929 . S
C1557 C1555 1.433 . S
C1557 N1560 1.384 . S
C1558 H1549 0.929 . S
C1558 C1550 1.378 . S
C1558 C1553 1.350 . S
C1559 H1546 0.929 . S
C1559 C1551 1.433 . S
C1559 N1561 1.384 . S
N1560 C1556 1.427 . S
N1560 C1557 1.384 . S
N1561 C1553 1.427 . S
N1561 C1559 1.384 . S
H1562 C1568 0.930 . S
H1563 C1572 0.930 . S
H1564 C1577 0.929 . S
H1565 C1575 0.929 . S
H1566 C1570 0.929 . S
H1567 C1576 0.929 . S
C1568 H1562 0.930 . S
C1568 C1569 1.367 . S
C1568 C1576 1.378 . S
C1569 C1568 1.367 . S
C1569 C1577 1.433 . S
C1570 H1566 0.929 . S
C1570 C1572 1.378 . S
C1570 C1574 1.350 . S
C1571 C1574 1.463 . S
C1571 C1576 1.350 . S
C1571 N1579 1.427 . S
C1572 H1563 0.930 . S
C1572 C1570 1.378 . S
C1572 C1573 1.367 . S
C1573 C1572 1.367 . S
C1573 C1575 1.433 . S
C1574 C1570 1.350 . S
C1574 C1571 1.463 . S
C1574 N1578 1.427 . S
C1575 H1565 0.929 . S
C1575 C1573 1.433 . S
C1575 N1578 1.384 . S
C1576 H1567 0.929 . S
C1576 C1568 1.378 . S
C1576 C1571 1.350 . S
C1577 H1564 0.929 . S
C1577 C1569 1.433 . S
C1577 N1579 1.384 . S
N1578 C1574 1.427 . S
N1578 C1575 1.384 . S
N1579 C1571 1.427 . S
N1579 C1577 1.384 . S
H1580 C1586 0.942 . S
H1581 C1590 0.930 . S
H1582 C1595 0.929 . S
H1583 C1593 0.929 . S
H1584 C1588 0.929 . S
H1585 C1594 0.929 1_655 S
C1586 H1580 0.942 . S
C1586 C1587 1.359 1_655 S
C1586 C1594 1.374 1_655 S
C1587 C1586 1.359 1_455 S
C1587 C1595 1.433 . S
C1588 H1584 0.929 . S
C1588 C1590 1.378 . S
C1588 C1592 1.350 . S
C1589 C1592 1.463 . S
C1589 C1594 1.350 . S
C1589 N1597 1.427 . S
C1590 H1581 0.930 . S
C1590 C1588 1.378 . S
C1590 C1591 1.367 . S
C1591 C1590 1.367 . S
C1591 C1593 1.433 . S
C1592 C1588 1.350 . S
C1592 C1589 1.463 . S
C1592 N1596 1.427 . S
C1593 H1583 0.929 . S
C1593 C1591 1.433 . S
C1593 N1596 1.384 . S
C1594 H1585 0.929 1_455 S
C1594 C1586 1.374 1_455 S
C1594 C1589 1.350 . S
C1595 H1582 0.929 . S
C1595 C1587 1.433 . S
C1595 N1597 1.384 . S
N1596 C1592 1.427 . S
N1596 C1593 1.384 . S
N1597 C1589 1.427 . S
N1597 C1595 1.384 . S
H1598 C1604 0.930 . S
H1599 C1608 0.930 . S
H1600 C1613 0.929 . S
H1601 C1611 0.929 . S
H1602 C1606 0.929 . S
H1603 C1612 0.929 . S
C1604 H1598 0.930 . S
C1604 C1605 1.367 . S
C1604 C1612 1.378 . S
C1605 C1604 1.367 . S
C1605 C1613 1.433 . S
C1606 H1602 0.929 . S
C1606 C1608 1.378 . S
C1606 C1610 1.350 . S
C1607 C1610 1.463 . S
C1607 C1612 1.350 . S
C1607 N1615 1.427 . S
C1608 H1599 0.930 . S
C1608 C1606 1.378 . S
C1608 C1609 1.367 . S
C1609 C1608 1.367 . S
C1609 C1611 1.433 . S
C1610 C1606 1.350 . S
C1610 C1607 1.463 . S
C1610 N1614 1.427 . S
C1611 H1601 0.929 . S
C1611 C1609 1.433 . S
C1611 N1614 1.384 . S
C1612 H1603 0.929 . S
C1612 C1604 1.378 . S
C1612 C1607 1.350 . S
C1613 H1600 0.929 . S
C1613 C1605 1.433 . S
C1613 N1615 1.384 . S
N1614 C1610 1.427 . S
N1614 C1611 1.384 . S
N1615 C1607 1.427 . S
N1615 C1613 1.384 . S
H1616 C1622 0.930 . S
H1617 C1626 0.930 . S
H1618 C1631 0.929 . S
H1619 C1629 0.929 . S
H1620 C1624 0.929 . S
H1621 C1630 0.929 . S
C1622 H1616 0.930 . S
C1622 C1623 1.367 . S
C1622 C1630 1.378 . S
C1623 C1622 1.367 . S
C1623 C1631 1.433 . S
C1624 H1620 0.929 . S
C1624 C1626 1.378 . S
C1624 C1628 1.350 . S
C1625 C1628 1.463 . S
C1625 C1630 1.350 . S
C1625 N1633 1.427 . S
C1626 H1617 0.930 . S
C1626 C1624 1.378 . S
C1626 C1627 1.367 . S
C1627 C1626 1.367 . S
C1627 C1629 1.433 1_556 S
C1628 C1624 1.350 . S
C1628 C1625 1.463 . S
C1628 N1632 1.427 . S
C1629 H1619 0.929 . S
C1629 C1627 1.433 1_554 S
C1629 N1632 1.384 1_554 S
C1630 H1621 0.929 . S
C1630 C1622 1.378 . S
C1630 C1625 1.350 . S
C1631 H1618 0.929 . S
C1631 C1623 1.433 . S
C1631 N1633 1.384 . S
N1632 C1628 1.427 . S
N1632 C1629 1.384 1_556 S
N1633 C1625 1.427 . S
N1633 C1631 1.384 . S
H1634 C1640 0.930 . S
H1635 C1644 0.930 . S
H1636 C1649 0.929 . S
H1637 C1647 0.929 . S
H1638 C1642 0.929 . S
H1639 C1648 0.929 . S
C1640 H1634 0.930 . S
C1640 C1641 1.367 . S
C1640 C1648 1.378 . S
C1641 C1640 1.367 . S
C1641 C1649 1.433 . S
C1642 H1638 0.929 . S
C1642 C1644 1.378 . S
C1642 C1646 1.350 . S
C1643 C1646 1.463 . S
C1643 C1648 1.350 . S
C1643 N1651 1.427 . S
C1644 H1635 0.930 . S
C1644 C1642 1.378 . S
C1644 C1645 1.367 . S
C1645 C1644 1.367 . S
C1645 C1647 1.433 . S
C1646 C1642 1.350 . S
C1646 C1643 1.463 . S
C1646 N1650 1.427 . S
C1647 H1637 0.929 . S
C1647 C1645 1.433 . S
C1647 N1650 1.384 . S
C1648 H1639 0.929 . S
C1648 C1640 1.378 . S
C1648 C1643 1.350 . S
C1649 H1636 0.929 . S
C1649 C1641 1.433 . S
C1649 N1651 1.384 . S
N1650 C1646 1.427 . S
N1650 C1647 1.384 . S
N1651 C1643 1.427 . S
N1651 C1649 1.384 . S
H1652 C1658 0.930 . S
H1653 C1662 0.930 . S
H1654 C1667 0.929 . S
H1655 C1665 0.929 . S
H1656 C1660 0.929 1_655 S
H1657 C1666 0.929 . S
C1658 H1652 0.930 . S
C1658 C1659 1.367 . S
C1658 C1666 1.378 . S
C1659 C1658 1.367 . S
C1659 C1667 1.433 1_455 S
C1660 H1656 0.929 1_455 S
C1660 C1662 1.378 . S
C1660 C1664 1.350 . S
C1661 C1664 1.463 . S
C1661 C1666 1.350 . S
C1661 N1669 1.424 1_455 S
C1662 H1653 0.930 . S
C1662 C1660 1.378 . S
C1662 C1663 1.367 . S
C1663 C1662 1.367 . S
C1663 C1665 1.433 . S
C1664 C1660 1.350 . S
C1664 C1661 1.463 . S
C1664 N1668 1.427 . S
C1665 H1655 0.929 . S
C1665 C1663 1.433 . S
C1665 N1668 1.384 . S
C1666 H1657 0.929 . S
C1666 C1658 1.378 . S
C1666 C1661 1.350 . S
C1667 H1654 0.929 . S
C1667 C1659 1.433 1_655 S
C1667 N1669 1.384 . S
N1668 C1664 1.427 . S
N1668 C1665 1.384 . S
N1669 C1661 1.424 1_655 S
N1669 C1667 1.384 . S
H1670 C1676 0.930 . S
H1671 C1680 0.930 . S
H1672 C1685 0.929 . S
H1673 C1683 0.929 . S
H1674 C1678 0.929 . S
H1675 C1684 0.929 . S
C1676 H1670 0.930 . S
C1676 C1677 1.367 . S
C1676 C1684 1.378 . S
C1677 C1676 1.367 . S
C1677 C1685 1.433 . S
C1678 H1674 0.929 . S
C1678 C1680 1.378 . S
C1678 C1682 1.350 . S
C1679 C1682 1.463 . S
C1679 C1684 1.350 . S
C1679 N1687 1.427 . S
C1680 H1671 0.930 . S
C1680 C1678 1.378 . S
C1680 C1681 1.367 . S
C1681 C1680 1.367 . S
C1681 C1683 1.433 . S
C1682 C1678 1.350 . S
C1682 C1679 1.463 . S
C1682 N1686 1.427 . S
C1683 H1673 0.929 . S
C1683 C1681 1.433 . S
C1683 N1686 1.384 . S
C1684 H1675 0.929 . S
C1684 C1676 1.378 . S
C1684 C1679 1.350 . S
C1685 H1672 0.929 . S
C1685 C1677 1.433 . S
C1685 N1687 1.384 . S
N1686 C1682 1.427 . S
N1686 C1683 1.384 . S
N1687 C1679 1.427 . S
N1687 C1685 1.384 . S
H1688 C1694 0.930 . S
H1689 C1698 0.930 . S
H1690 C1703 0.929 . S
H1691 C1701 0.929 . S
H1692 C1696 0.929 . S
H1693 C1702 0.929 . S
C1694 H1688 0.930 . S
C1694 C1695 1.367 . S
C1694 C1702 1.378 . S
C1695 C1694 1.367 . S
C1695 C1703 1.433 . S
C1696 H1692 0.929 . S
C1696 C1698 1.378 . S
C1696 C1700 1.350 . S
C1697 C1700 1.463 . S
C1697 C1702 1.350 . S
C1697 N1705 1.427 . S
C1698 H1689 0.930 . S
C1698 C1696 1.378 . S
C1698 C1699 1.367 . S
C1699 C1698 1.367 . S
C1699 C1701 1.433 . S
C1700 C1696 1.350 . S
C1700 C1697 1.463 . S
C1700 N1704 1.427 . S
C1701 H1691 0.929 . S
C1701 C1699 1.433 . S
C1701 N1704 1.384 . S
C1702 H1693 0.929 . S
C1702 C1694 1.378 . S
C1702 C1697 1.350 . S
C1703 H1690 0.929 . S
C1703 C1695 1.433 . S
C1703 N1705 1.384 . S
N1704 C1700 1.427 . S
N1704 C1701 1.384 . S
N1705 C1697 1.427 . S
N1705 C1703 1.384 . S
H1706 C1712 0.930 . S
H1707 C1716 0.930 . S
H1708 C1721 0.929 . S
H1709 C1719 0.929 . S
H1710 C1714 0.929 . S
H1711 C1720 0.929 . S
C1712 H1706 0.930 . S
C1712 C1713 1.367 . S
C1712 C1720 1.378 . S
C1713 C1712 1.367 . S
C1713 C1721 1.433 . S
C1714 H1710 0.929 . S
C1714 C1716 1.378 . S
C1714 C1718 1.350 . S
C1715 C1718 1.463 . S
C1715 C1720 1.350 . S
C1715 N1723 1.427 . S
C1716 H1707 0.930 . S
C1716 C1714 1.378 . S
C1716 C1717 1.367 . S
C1717 C1716 1.367 . S
C1717 C1719 1.433 . S
C1718 C1714 1.350 . S
C1718 C1715 1.463 . S
C1718 N1722 1.427 . S
C1719 H1709 0.929 . S
C1719 C1717 1.433 . S
C1719 N1722 1.384 . S
C1720 H1711 0.929 . S
C1720 C1712 1.378 . S
C1720 C1715 1.350 . S
C1721 H1708 0.929 . S
C1721 C1713 1.433 . S
C1721 N1723 1.384 . S
N1722 C1718 1.427 . S
N1722 C1719 1.384 . S
N1723 C1715 1.427 . S
N1723 C1721 1.384 . S
H1724 C1730 0.930 . S
H1725 C1734 0.930 . S
H1726 C1739 0.929 . S
H1727 C1737 0.929 . S
H1728 C1732 0.929 . S
H1729 C1738 0.929 . S
C1730 H1724 0.930 . S
C1730 C1731 1.367 . S
C1730 C1738 1.378 . S
C1731 C1730 1.367 . S
C1731 C1739 1.433 . S
C1732 H1728 0.929 . S
C1732 C1734 1.378 . S
C1732 C1736 1.350 . S
C1733 C1736 1.463 . S
C1733 C1738 1.350 . S
C1733 N1741 1.427 . S
C1734 H1725 0.930 . S
C1734 C1732 1.378 . S
C1734 C1735 1.367 . S
C1735 C1734 1.367 . S
C1735 C1737 1.433 . S
C1736 C1732 1.350 . S
C1736 C1733 1.463 . S
C1736 N1740 1.427 . S
C1737 H1727 0.929 . S
C1737 C1735 1.433 . S
C1737 N1740 1.384 . S
C1738 H1729 0.929 . S
C1738 C1730 1.378 . S
C1738 C1733 1.350 . S
C1739 H1726 0.929 . S
C1739 C1731 1.433 . S
C1739 N1741 1.384 . S
N1740 C1736 1.427 . S
N1740 C1737 1.384 . S
N1741 C1733 1.427 . S
N1741 C1739 1.384 . S
H1742 C1748 0.930 . S
H1743 C1752 0.930 . S
H1744 C1757 0.929 . S
H1745 C1755 0.929 . S
H1746 C1750 0.929 . S
H1747 C1756 0.929 . S
C1748 H1742 0.930 . S
C1748 C1749 1.367 . S
C1748 C1756 1.378 . S
C1749 C1748 1.367 . S
C1749 C1757 1.433 . S
C1750 H1746 0.929 . S
C1750 C1752 1.378 . S
C1750 C1754 1.350 . S
C1751 C1754 1.463 . S
C1751 C1756 1.350 . S
C1751 N1759 1.427 . S
C1752 H1743 0.930 . S
C1752 C1750 1.378 . S
C1752 C1753 1.367 . S
C1753 C1752 1.367 . S
C1753 C1755 1.433 . S
C1754 C1750 1.350 . S
C1754 C1751 1.463 . S
C1754 N1758 1.427 . S
C1755 H1745 0.929 . S
C1755 C1753 1.433 . S
C1755 N1758 1.384 . S
C1756 H1747 0.929 . S
C1756 C1748 1.378 . S
C1756 C1751 1.350 . S
C1757 H1744 0.929 . S
C1757 C1749 1.433 . S
C1757 N1759 1.384 . S
N1758 C1754 1.427 . S
N1758 C1755 1.384 . S
N1759 C1751 1.427 . S
N1759 C1757 1.384 . S
H1760 C1766 0.930 . S
H1761 C1770 0.930 . S
H1762 C1775 0.929 . S
H1763 C1773 0.929 . S
H1764 C1768 0.929 . S
H1765 C1774 0.929 . S
C1766 H1760 0.930 . S
C1766 C1767 1.367 . S
C1766 C1774 1.378 . S
C1767 C1766 1.367 . S
C1767 C1775 1.433 . S
C1768 H1764 0.929 . S
C1768 C1770 1.378 . S
C1768 C1772 1.350 . S
C1769 C1772 1.463 . S
C1769 C1774 1.350 . S
C1769 N1777 1.427 . S
C1770 H1761 0.930 . S
C1770 C1768 1.378 . S
C1770 C1771 1.367 . S
C1771 C1770 1.367 . S
C1771 C1773 1.433 . S
C1772 C1768 1.350 . S
C1772 C1769 1.463 . S
C1772 N1776 1.427 . S
C1773 H1763 0.929 . S
C1773 C1771 1.433 . S
C1773 N1776 1.384 . S
C1774 H1765 0.929 . S
C1774 C1766 1.378 . S
C1774 C1769 1.350 . S
C1775 H1762 0.929 . S
C1775 C1767 1.433 . S
C1775 N1777 1.384 . S
N1776 C1772 1.427 . S
N1776 C1773 1.384 . S
N1777 C1769 1.427 . S
N1777 C1775 1.384 . S
H1778 C1784 0.930 . S
H1779 C1788 0.930 . S
H1780 C1793 0.929 . S
H1781 C1791 0.929 . S
H1782 C1786 0.929 . S
H1783 C1792 0.929 . S
C1784 H1778 0.930 . S
C1784 C1785 1.367 . S
C1784 C1792 1.378 . S
C1785 C1784 1.367 . S
C1785 C1793 1.433 . S
C1786 H1782 0.929 . S
C1786 C1788 1.378 . S
C1786 C1790 1.350 . S
C1787 C1790 1.463 . S
C1787 C1792 1.350 . S
C1787 N1795 1.427 . S
C1788 H1779 0.930 . S
C1788 C1786 1.378 . S
C1788 C1789 1.367 . S
C1789 C1788 1.367 . S
C1789 C1791 1.433 . S
C1790 C1786 1.350 . S
C1790 C1787 1.463 . S
C1790 N1794 1.427 . S
C1791 H1781 0.929 . S
C1791 C1789 1.433 . S
C1791 N1794 1.384 . S
C1792 H1783 0.929 . S
C1792 C1784 1.378 . S
C1792 C1787 1.350 . S
C1793 H1780 0.929 . S
C1793 C1785 1.433 . S
C1793 N1795 1.384 . S
N1794 C1790 1.427 . S
N1794 C1791 1.384 . S
N1795 C1787 1.427 . S
N1795 C1793 1.384 . S
H1796 C1802 0.930 . S
H1797 C1806 0.930 . S
H1798 C1811 0.929 . S
H1799 C1809 0.929 . S
H1800 C1804 0.929 . S
H1801 C1810 0.929 . S
C1802 H1796 0.930 . S
C1802 C1803 1.367 . S
C1802 C1810 1.378 . S
C1803 C1802 1.367 . S
C1803 C1811 1.433 . S
C1804 H1800 0.929 . S
C1804 C1806 1.378 . S
C1804 C1808 1.350 . S
C1805 C1808 1.463 . S
C1805 C1810 1.350 . S
C1805 N1813 1.427 . S
C1806 H1797 0.930 . S
C1806 C1804 1.378 . S
C1806 C1807 1.367 . S
C1807 C1806 1.367 . S
C1807 C1809 1.433 . S
C1808 C1804 1.350 . S
C1808 C1805 1.463 . S
C1808 N1812 1.427 . S
C1809 H1799 0.929 . S
C1809 C1807 1.433 . S
C1809 N1812 1.384 . S
C1810 H1801 0.929 . S
C1810 C1802 1.378 . S
C1810 C1805 1.350 . S
C1811 H1798 0.929 . S
C1811 C1803 1.433 . S
C1811 N1813 1.384 . S
N1812 C1808 1.427 . S
N1812 C1809 1.384 . S
N1813 C1805 1.427 . S
N1813 C1811 1.384 . S
H1814 C1820 0.930 . S
H1815 C1824 0.930 . S
H1816 C1829 0.929 . S
H1817 C1827 0.929 . S
H1818 C1822 0.929 . S
H1819 C1828 0.929 . S
C1820 H1814 0.930 . S
C1820 C1821 1.367 . S
C1820 C1828 1.378 . S
C1821 C1820 1.367 . S
C1821 C1829 1.433 . S
C1822 H1818 0.929 . S
C1822 C1824 1.378 . S
C1822 C1826 1.350 . S
C1823 C1826 1.463 . S
C1823 C1828 1.350 . S
C1823 N1831 1.427 . S
C1824 H1815 0.930 . S
C1824 C1822 1.378 . S
C1824 C1825 1.367 . S
C1825 C1824 1.367 . S
C1825 C1827 1.433 . S
C1826 C1822 1.350 . S
C1826 C1823 1.463 . S
C1826 N1830 1.427 . S
C1827 H1817 0.929 . S
C1827 C1825 1.433 . S
C1827 N1830 1.384 . S
C1828 H1819 0.929 . S
C1828 C1820 1.378 . S
C1828 C1823 1.350 . S
C1829 H1816 0.929 . S
C1829 C1821 1.433 . S
C1829 N1831 1.384 . S
N1830 C1826 1.427 . S
N1830 C1827 1.384 . S
N1831 C1823 1.427 . S
N1831 C1829 1.384 . S
H1832 C1838 0.930 . S
H1833 C1842 0.930 . S
H1834 C1847 0.929 . S
H1835 C1845 0.929 . S
H1836 C1840 0.929 . S
H1837 C1846 0.929 . S
C1838 H1832 0.930 . S
C1838 C1839 1.367 . S
C1838 C1846 1.378 . S
C1839 C1838 1.367 . S
C1839 C1847 1.433 . S
C1840 H1836 0.929 . S
C1840 C1842 1.378 . S
C1840 C1844 1.350 . S
C1841 C1844 1.463 . S
C1841 C1846 1.350 . S
C1841 N1849 1.427 . S
C1842 H1833 0.930 . S
C1842 C1840 1.378 . S
C1842 C1843 1.367 . S
C1843 C1842 1.367 . S
C1843 C1845 1.433 . S
C1844 C1840 1.350 . S
C1844 C1841 1.463 . S
C1844 N1848 1.427 . S
C1845 H1835 0.929 . S
C1845 C1843 1.433 . S
C1845 N1848 1.384 . S
C1846 H1837 0.929 . S
C1846 C1838 1.378 . S
C1846 C1841 1.350 . S
C1847 H1834 0.929 . S
C1847 C1839 1.433 . S
C1847 N1849 1.384 . S
N1848 C1844 1.427 . S
N1848 C1845 1.384 . S
N1849 C1841 1.427 . S
N1849 C1847 1.384 . S
H1850 C1856 0.930 . S
H1851 C1860 0.930 . S
H1852 C1865 0.929 . S
H1853 C1863 0.929 1_545 S
H1854 C1858 0.929 . S
H1855 C1864 0.929 . S
C1856 H1850 0.930 . S
C1856 C1857 1.367 . S
C1856 C1864 1.378 . S
C1857 C1856 1.367 . S
C1857 C1865 1.433 . S
C1858 H1854 0.929 . S
C1858 C1860 1.378 . S
C1858 C1862 1.350 . S
C1859 C1862 1.463 . S
C1859 C1864 1.350 . S
C1859 N1867 1.427 . S
C1860 H1851 0.930 . S
C1860 C1858 1.378 . S
C1860 C1861 1.367 . S
C1861 C1860 1.367 . S
C1861 C1863 1.433 . S
C1862 C1858 1.350 . S
C1862 C1859 1.463 . S
C1862 N1866 1.427 . S
C1863 H1853 0.929 1_565 S
C1863 C1861 1.433 . S
C1863 N1866 1.384 . S
C1864 H1855 0.929 . S
C1864 C1856 1.378 . S
C1864 C1859 1.350 . S
C1865 H1852 0.929 . S
C1865 C1857 1.433 . S
C1865 N1867 1.384 . S
N1866 C1862 1.427 . S
N1866 C1863 1.384 . S
N1867 C1859 1.427 . S
N1867 C1865 1.384 . S
H1868 C1874 0.930 . S
H1869 C1878 0.930 . S
H1870 C1883 0.929 . S
H1871 C1881 0.929 . S
H1872 C1876 0.929 . S
H1873 C1882 0.929 . S
C1874 H1868 0.930 . S
C1874 C1875 1.367 . S
C1874 C1882 1.378 . S
C1875 C1874 1.367 . S
C1875 C1883 1.433 . S
C1876 H1872 0.929 . S
C1876 C1878 1.378 . S
C1876 C1880 1.350 . S
C1877 C1880 1.463 . S
C1877 C1882 1.350 . S
C1877 N1885 1.427 . S
C1878 H1869 0.930 . S
C1878 C1876 1.378 . S
C1878 C1879 1.367 . S
C1879 C1878 1.367 . S
C1879 C1881 1.433 . S
C1880 C1876 1.350 . S
C1880 C1877 1.463 . S
C1880 N1884 1.427 . S
C1881 H1871 0.929 . S
C1881 C1879 1.433 . S
C1881 N1884 1.384 . S
C1882 H1873 0.929 . S
C1882 C1874 1.378 . S
C1882 C1877 1.350 . S
C1883 H1870 0.929 . S
C1883 C1875 1.433 . S
C1883 N1885 1.384 . S
N1884 C1880 1.427 . S
N1884 C1881 1.384 . S
N1885 C1877 1.427 . S
N1885 C1883 1.384 . S
H1886 C1892 0.930 . S
H1887 C1896 0.945 . S
H1888 C1901 0.929 . S
H1889 C1899 0.929 . S
H1890 C1894 0.929 1_556 S
H1891 C1900 0.929 . S
C1892 H1886 0.930 . S
C1892 C1893 1.367 . S
C1892 C1900 1.378 . S
C1893 C1892 1.367 . S
C1893 C1901 1.433 1_554 S
C1894 H1890 0.929 1_554 S
C1894 C1896 1.378 . S
C1894 C1898 1.350 . S
C1895 C1898 1.463 . S
C1895 C1900 1.350 . S
C1895 N1903 1.402 1_554 S
C1896 H1887 0.945 . S
C1896 C1894 1.378 . S
C1896 C1897 1.367 . S
C1897 C1896 1.367 . S
C1897 C1899 1.433 . S
C1898 C1894 1.350 . S
C1898 C1895 1.463 . S
C1898 N1902 1.427 . S
C1899 H1889 0.929 . S
C1899 C1897 1.433 . S
C1899 N1902 1.384 . S
C1900 H1891 0.929 . S
C1900 C1892 1.378 . S
C1900 C1895 1.350 . S
C1901 H1888 0.929 . S
C1901 C1893 1.433 1_556 S
C1901 N1903 1.390 . S
N1902 C1898 1.427 . S
N1902 C1899 1.384 . S
N1903 C1895 1.402 1_556 S
N1903 C1901 1.390 . S
H1904 C1910 0.930 . S
H1905 C1914 0.930 . S
H1906 C1919 0.929 . S
H1907 C1917 0.929 . S
H1908 C1912 0.929 . S
H1909 C1918 0.929 . S
C1910 H1904 0.930 . S
C1910 C1911 1.367 . S
C1910 C1918 1.378 . S
C1911 C1910 1.367 . S
C1911 C1919 1.433 . S
C1912 H1908 0.929 . S
C1912 C1914 1.378 . S
C1912 C1916 1.350 . S
C1913 C1916 1.463 . S
C1913 C1918 1.350 . S
C1913 N1921 1.427 . S
C1914 H1905 0.930 . S
C1914 C1912 1.378 . S
C1914 C1915 1.367 . S
C1915 C1914 1.367 . S
C1915 C1917 1.433 . S
C1916 C1912 1.350 . S
C1916 C1913 1.463 . S
C1916 N1920 1.427 . S
C1917 H1907 0.929 . S
C1917 C1915 1.433 . S
C1917 N1920 1.384 . S
C1918 H1909 0.929 . S
C1918 C1910 1.378 . S
C1918 C1913 1.350 . S
C1919 H1906 0.929 . S
C1919 C1911 1.433 . S
C1919 N1921 1.384 . S
N1920 C1916 1.427 . S
N1920 C1917 1.384 . S
N1921 C1913 1.427 . S
N1921 C1919 1.384 . S
H1922 C1928 0.930 . S
H1923 C1932 0.930 . S
H1924 C1937 0.929 . S
H1925 C1935 0.929 . S
H1926 C1930 0.929 . S
H1927 C1936 0.929 . S
C1928 H1922 0.930 . S
C1928 C1929 1.367 . S
C1928 C1936 1.378 . S
C1929 C1928 1.367 . S
C1929 C1937 1.433 1_554 S
C1930 H1926 0.929 . S
C1930 C1932 1.378 . S
C1930 C1934 1.350 1_556 S
C1931 C1934 1.463 . S
C1931 C1936 1.350 . S
C1931 N1939 1.427 1_554 S
C1932 H1923 0.930 . S
C1932 C1930 1.378 . S
C1932 C1933 1.367 . S
C1933 C1932 1.367 . S
C1933 C1935 1.433 1_556 S
C1934 C1930 1.350 1_554 S
C1934 C1931 1.463 . S
C1934 N1938 1.427 . S
C1935 H1925 0.929 . S
C1935 C1933 1.433 1_554 S
C1935 N1938 1.384 . S
C1936 H1927 0.929 . S
C1936 C1928 1.378 . S
C1936 C1931 1.350 . S
C1937 H1924 0.929 . S
C1937 C1929 1.433 1_556 S
C1937 N1939 1.384 . S
N1938 C1934 1.427 . S
N1938 C1935 1.384 . S
N1939 C1931 1.427 1_556 S
N1939 C1937 1.384 . S
H1940 C1946 0.930 . S
H1941 C1950 0.930 . S
H1942 C1955 0.929 . S
H1943 C1953 0.929 . S
H1944 C1948 0.929 . S
H1945 C1954 0.929 . S
C1946 H1940 0.930 . S
C1946 C1947 1.367 . S
C1946 C1954 1.378 . S
C1947 C1946 1.367 . S
C1947 C1955 1.433 . S
C1948 H1944 0.929 . S
C1948 C1950 1.378 . S
C1948 C1952 1.350 . S
C1949 C1952 1.463 . S
C1949 C1954 1.350 . S
C1949 N1957 1.427 . S
C1950 H1941 0.930 . S
C1950 C1948 1.378 . S
C1950 C1951 1.367 . S
C1951 C1950 1.367 . S
C1951 C1953 1.433 . S
C1952 C1948 1.350 . S
C1952 C1949 1.463 . S
C1952 N1956 1.427 . S
C1953 H1943 0.929 . S
C1953 C1951 1.433 . S
C1953 N1956 1.384 . S
C1954 H1945 0.929 . S
C1954 C1946 1.378 . S
C1954 C1949 1.350 . S
C1955 H1942 0.929 . S
C1955 C1947 1.433 . S
C1955 N1957 1.384 . S
N1956 C1952 1.427 . S
N1956 C1953 1.384 . S
N1957 C1949 1.427 . S
N1957 C1955 1.384 . S
H1958 C1964 0.930 . S
H1959 C1968 0.930 . S
H1960 C1973 0.929 . S
H1961 C1971 0.929 . S
H1962 C1966 0.929 . S
H1963 C1972 0.929 . S
C1964 H1958 0.930 . S
C1964 C1965 1.367 . S
C1964 C1972 1.378 . S
C1965 C1964 1.367 . S
C1965 C1973 1.433 . S
C1966 H1962 0.929 . S
C1966 C1968 1.378 . S
C1966 C1970 1.350 . S
C1967 C1970 1.463 . S
C1967 C1972 1.350 . S
C1967 N1975 1.427 . S
C1968 H1959 0.930 . S
C1968 C1966 1.378 . S
C1968 C1969 1.367 . S
C1969 C1968 1.367 . S
C1969 C1971 1.433 . S
C1970 C1966 1.350 . S
C1970 C1967 1.463 . S
C1970 N1974 1.427 . S
C1971 H1961 0.929 . S
C1971 C1969 1.433 . S
C1971 N1974 1.384 . S
C1972 H1963 0.929 . S
C1972 C1964 1.378 . S
C1972 C1967 1.350 . S
C1973 H1960 0.929 . S
C1973 C1965 1.433 . S
C1973 N1975 1.384 . S
N1974 C1970 1.427 . S
N1974 C1971 1.384 . S
N1975 C1967 1.427 . S
N1975 C1973 1.384 . S
H1976 C1982 0.930 . S
H1977 C1986 0.930 . S
H1978 C1991 0.929 . S
H1979 C1989 0.929 . S
H1980 C1984 0.929 . S
H1981 C1990 0.929 . S
C1982 H1976 0.930 . S
C1982 C1983 1.367 . S
C1982 C1990 1.378 . S
C1983 C1982 1.367 . S
C1983 C1991 1.433 . S
C1984 H1980 0.929 . S
C1984 C1986 1.378 . S
C1984 C1988 1.350 . S
C1985 C1988 1.463 . S
C1985 C1990 1.350 . S
C1985 N1993 1.427 . S
C1986 H1977 0.930 . S
C1986 C1984 1.378 . S
C1986 C1987 1.367 . S
C1987 C1986 1.367 . S
C1987 C1989 1.433 . S
C1988 C1984 1.350 . S
C1988 C1985 1.463 . S
C1988 N1992 1.427 . S
C1989 H1979 0.929 . S
C1989 C1987 1.433 . S
C1989 N1992 1.384 . S
C1990 H1981 0.929 . S
C1990 C1982 1.378 . S
C1990 C1985 1.350 . S
C1991 H1978 0.929 . S
C1991 C1983 1.433 . S
C1991 N1993 1.384 . S
N1992 C1988 1.427 . S
N1992 C1989 1.384 . S
N1993 C1985 1.427 . S
N1993 C1991 1.384 . S
H1994 C2000 0.930 . S
H1995 C2004 0.930 . S
H1996 C2009 0.929 . S
H1997 C2007 0.929 . S
H1998 C2002 0.929 . S
H1999 C2008 0.929 . S
C2000 H1994 0.930 . S
C2000 C2001 1.367 . S
C2000 C2008 1.378 . S
C2001 C2000 1.367 . S
C2001 C2009 1.433 . S
C2002 H1998 0.929 . S
C2002 C2004 1.378 . S
C2002 C2006 1.350 . S
C2003 C2006 1.463 . S
C2003 C2008 1.350 . S
C2003 N2011 1.427 . S
C2004 H1995 0.930 . S
C2004 C2002 1.378 . S
C2004 C2005 1.367 . S
C2005 C2004 1.367 . S
C2005 C2007 1.433 . S
C2006 C2002 1.350 . S
C2006 C2003 1.463 . S
C2006 N2010 1.427 . S
C2007 H1997 0.929 . S
C2007 C2005 1.433 . S
C2007 N2010 1.384 . S
C2008 H1999 0.929 . S
C2008 C2000 1.378 . S
C2008 C2003 1.350 . S
C2009 H1996 0.929 . S
C2009 C2001 1.433 . S
C2009 N2011 1.384 . S
N2010 C2006 1.427 . S
N2010 C2007 1.384 . S
N2011 C2003 1.427 . S
N2011 C2009 1.384 . S
H2012 C2018 0.930 . S
H2013 C2022 0.930 1_554 S
H2014 C2027 0.929 . S
H2015 C2025 0.929 . S
H2016 C2020 0.929 . S
H2017 C2026 0.929 . S
C2018 H2012 0.930 . S
C2018 C2019 1.367 . S
C2018 C2026 1.378 . S
C2019 C2018 1.367 . S
C2019 C2027 1.433 1_455 S
C2020 H2016 0.929 . S
C2020 C2022 1.378 . S
C2020 C2024 1.350 . S
C2021 C2024 1.463 . S
C2021 C2026 1.350 1_655 S
C2021 N2029 1.427 . S
C2022 H2013 0.930 1_556 S
C2022 C2020 1.378 . S
C2022 C2023 1.367 . S
C2023 C2022 1.367 . S
C2023 C2025 1.433 1_655 S
C2024 C2020 1.350 . S
C2024 C2021 1.463 . S
C2024 N2028 1.427 1_655 S
C2025 H2015 0.929 . S
C2025 C2023 1.433 1_455 S
C2025 N2028 1.384 . S
C2026 H2017 0.929 . S
C2026 C2018 1.378 . S
C2026 C2021 1.350 1_455 S
C2027 H2014 0.929 . S
C2027 C2019 1.433 1_655 S
C2027 N2029 1.384 . S
N2028 C2024 1.427 1_455 S
N2028 C2025 1.384 . S
N2029 C2021 1.427 . S
N2029 C2027 1.384 . S
H2030 C2036 0.930 . S
H2031 C2040 0.930 . S
H2032 C2045 0.929 . S
H2033 C2043 0.929 . S
H2034 C2038 0.929 . S
H2035 C2044 0.929 . S
C2036 H2030 0.930 . S
C2036 C2037 1.367 . S
C2036 C2044 1.378 . S
C2037 C2036 1.367 . S
C2037 C2045 1.433 . S
C2038 H2034 0.929 . S
C2038 C2040 1.378 . S
C2038 C2042 1.350 . S
C2039 C2042 1.463 . S
C2039 C2044 1.350 . S
C2039 N2047 1.427 . S
C2040 H2031 0.930 . S
C2040 C2038 1.378 . S
C2040 C2041 1.367 . S
C2041 C2040 1.367 . S
C2041 C2043 1.433 . S
C2042 C2038 1.350 . S
C2042 C2039 1.463 . S
C2042 N2046 1.427 . S
C2043 H2033 0.929 . S
C2043 C2041 1.433 . S
C2043 N2046 1.384 . S
C2044 H2035 0.929 . S
C2044 C2036 1.378 . S
C2044 C2039 1.350 . S
C2045 H2032 0.929 . S
C2045 C2037 1.433 . S
C2045 N2047 1.384 . S
N2046 C2042 1.427 . S
N2046 C2043 1.384 . S
N2047 C2039 1.427 . S
N2047 C2045 1.384 . S
H2048 C2054 0.930 . S
H2049 C2058 0.930 . S
H2050 C2063 0.929 . S
H2051 C2061 0.929 . S
H2052 C2056 0.929 . S
H2053 C2062 0.929 . S
C2054 H2048 0.930 . S
C2054 C2055 1.367 . S
C2054 C2062 1.378 . S
C2055 C2054 1.367 . S
C2055 C2063 1.433 . S
C2056 H2052 0.929 . S
C2056 C2058 1.378 . S
C2056 C2060 1.350 . S
C2057 C2060 1.463 . S
C2057 C2062 1.350 . S
C2057 N2065 1.427 . S
C2058 H2049 0.930 . S
C2058 C2056 1.378 . S
C2058 C2059 1.367 . S
C2059 C2058 1.367 . S
C2059 C2061 1.433 . S
C2060 C2056 1.350 . S
C2060 C2057 1.463 . S
C2060 N2064 1.427 . S
C2061 H2051 0.929 . S
C2061 C2059 1.433 . S
C2061 N2064 1.384 . S
C2062 H2053 0.929 . S
C2062 C2054 1.378 . S
C2062 C2057 1.350 . S
C2063 H2050 0.929 . S
C2063 C2055 1.433 . S
C2063 N2065 1.384 . S
N2064 C2060 1.427 . S
N2064 C2061 1.384 . S
N2065 C2057 1.427 . S
N2065 C2063 1.384 . S
H2066 C2072 0.930 . S
H2067 C2076 0.930 . S
H2068 C2081 0.929 . S
H2069 C2079 0.929 . S
H2070 C2074 0.929 . S
H2071 C2080 0.929 . S
C2072 H2066 0.930 . S
C2072 C2073 1.367 . S
C2072 C2080 1.378 . S
C2073 C2072 1.367 . S
C2073 C2081 1.433 . S
C2074 H2070 0.929 . S
C2074 C2076 1.378 . S
C2074 C2078 1.350 . S
C2075 C2078 1.463 . S
C2075 C2080 1.350 . S
C2075 N2083 1.427 . S
C2076 H2067 0.930 . S
C2076 C2074 1.378 . S
C2076 C2077 1.367 . S
C2077 C2076 1.367 . S
C2077 C2079 1.433 . S
C2078 C2074 1.350 . S
C2078 C2075 1.463 . S
C2078 N2082 1.427 . S
C2079 H2069 0.929 . S
C2079 C2077 1.433 . S
C2079 N2082 1.384 . S
C2080 H2071 0.929 . S
C2080 C2072 1.378 . S
C2080 C2075 1.350 . S
C2081 H2068 0.929 . S
C2081 C2073 1.433 . S
C2081 N2083 1.384 . S
N2082 C2078 1.427 . S
N2082 C2079 1.384 . S
N2083 C2075 1.427 . S
N2083 C2081 1.384 . S
H2084 C2090 0.930 . S
H2085 C2094 0.930 . S
H2086 C2099 0.929 . S
H2087 C2097 0.929 . S
H2088 C2092 0.929 . S
H2089 C2098 0.929 . S
C2090 H2084 0.930 . S
C2090 C2091 1.367 1_655 S
C2090 C2098 1.378 . S
C2091 C2090 1.367 1_455 S
C2091 C2099 1.433 . S
C2092 H2088 0.929 . S
C2092 C2094 1.378 . S
C2092 C2096 1.350 1_455 S
C2093 C2096 1.467 . S
C2093 C2098 1.364 . S
C2093 N2101 1.409 1_655 S
C2094 H2085 0.930 . S
C2094 C2092 1.378 . S
C2094 C2095 1.367 1_455 S
C2095 C2094 1.367 1_655 S
C2095 C2097 1.433 . S
C2096 C2092 1.350 1_655 S
C2096 C2093 1.467 . S
C2096 N2100 1.427 . S
C2097 H2087 0.929 . S
C2097 C2095 1.433 . S
C2097 N2100 1.384 . S
C2098 H2089 0.929 . S
C2098 C2090 1.378 . S
C2098 C2093 1.364 . S
C2099 H2086 0.929 . S
C2099 C2091 1.433 . S
C2099 N2101 1.384 . S
N2100 C2096 1.427 . S
N2100 C2097 1.384 . S
N2101 C2093 1.409 1_455 S
N2101 C2099 1.384 . S
H2102 C2108 0.930 . S
H2103 C2112 0.930 . S
H2104 C2117 0.929 . S
H2105 C2115 0.929 . S
H2106 C2110 0.929 . S
H2107 C2116 0.929 . S
C2108 H2102 0.930 . S
C2108 C2109 1.367 . S
C2108 C2116 1.378 . S
C2109 C2108 1.367 . S
C2109 C2117 1.433 . S
C2110 H2106 0.929 . S
C2110 C2112 1.378 . S
C2110 C2114 1.350 . S
C2111 C2114 1.463 . S
C2111 C2116 1.350 . S
C2111 N2119 1.427 . S
C2112 H2103 0.930 . S
C2112 C2110 1.378 . S
C2112 C2113 1.367 . S
C2113 C2112 1.367 . S
C2113 C2115 1.433 . S
C2114 C2110 1.350 . S
C2114 C2111 1.463 . S
C2114 N2118 1.427 . S
C2115 H2105 0.929 . S
C2115 C2113 1.433 . S
C2115 N2118 1.384 . S
C2116 H2107 0.929 . S
C2116 C2108 1.378 . S
C2116 C2111 1.350 . S
C2117 H2104 0.929 . S
C2117 C2109 1.433 . S
C2117 N2119 1.384 . S
N2118 C2114 1.427 . S
N2118 C2115 1.384 . S
N2119 C2111 1.427 . S
N2119 C2117 1.384 . S
H2120 C2126 0.930 . S
H2121 C2130 0.930 . S
H2122 C2135 0.929 . S
H2123 C2133 0.929 . S
H2124 C2128 0.929 . S
H2125 C2134 0.929 . S
C2126 H2120 0.930 . S
C2126 C2127 1.367 . S
C2126 C2134 1.378 . S
C2127 C2126 1.367 . S
C2127 C2135 1.433 . S
C2128 H2124 0.929 . S
C2128 C2130 1.378 . S
C2128 C2132 1.350 . S
C2129 C2132 1.463 . S
C2129 C2134 1.350 . S
C2129 N2137 1.427 . S
C2130 H2121 0.930 . S
C2130 C2128 1.378 . S
C2130 C2131 1.367 . S
C2131 C2130 1.367 . S
C2131 C2133 1.433 . S
C2132 C2128 1.350 . S
C2132 C2129 1.463 . S
C2132 N2136 1.427 . S
C2133 H2123 0.929 . S
C2133 C2131 1.433 . S
C2133 N2136 1.384 . S
C2134 H2125 0.929 . S
C2134 C2126 1.378 . S
C2134 C2129 1.350 . S
C2135 H2122 0.929 . S
C2135 C2127 1.433 . S
C2135 N2137 1.384 . S
N2136 C2132 1.427 . S
N2136 C2133 1.384 . S
N2137 C2129 1.427 . S
N2137 C2135 1.384 . S
H2138 C2144 0.930 . S
H2139 C2148 0.930 . S
H2140 C2153 0.929 . S
H2141 C2151 0.929 . S
H2142 C2146 0.929 . S
H2143 C2152 0.929 . S
C2144 H2138 0.930 . S
C2144 C2145 1.367 . S
C2144 C2152 1.378 . S
C2145 C2144 1.367 . S
C2145 C2153 1.433 . S
C2146 H2142 0.929 . S
C2146 C2148 1.378 . S
C2146 C2150 1.350 . S
C2147 C2150 1.463 . S
C2147 C2152 1.350 . S
C2147 N2155 1.427 . S
C2148 H2139 0.930 . S
C2148 C2146 1.378 . S
C2148 C2149 1.367 . S
C2149 C2148 1.367 . S
C2149 C2151 1.433 . S
C2150 C2146 1.350 . S
C2150 C2147 1.463 . S
C2150 N2154 1.427 . S
C2151 H2141 0.929 . S
C2151 C2149 1.433 . S
C2151 N2154 1.384 . S
C2152 H2143 0.929 . S
C2152 C2144 1.378 . S
C2152 C2147 1.350 . S
C2153 H2140 0.929 . S
C2153 C2145 1.433 . S
C2153 N2155 1.384 . S
N2154 C2150 1.427 . S
N2154 C2151 1.384 . S
N2155 C2147 1.427 . S
N2155 C2153 1.384 . S
H2156 C2162 0.930 . S
H2157 C2166 0.930 . S
H2158 C2171 0.929 . S
H2159 C2169 0.929 . S
H2160 C2164 0.929 . S
H2161 C2170 0.929 . S
C2162 H2156 0.930 . S
C2162 C2163 1.367 . S
C2162 C2170 1.378 . S
C2163 C2162 1.367 . S
C2163 C2171 1.433 . S
C2164 H2160 0.929 . S
C2164 C2166 1.378 . S
C2164 C2168 1.350 . S
C2165 C2168 1.463 . S
C2165 C2170 1.350 . S
C2165 N2173 1.427 . S
C2166 H2157 0.930 . S
C2166 C2164 1.378 . S
C2166 C2167 1.367 . S
C2167 C2166 1.367 . S
C2167 C2169 1.433 . S
C2168 C2164 1.350 . S
C2168 C2165 1.463 . S
C2168 N2172 1.427 . S
C2169 H2159 0.929 . S
C2169 C2167 1.433 . S
C2169 N2172 1.384 . S
C2170 H2161 0.929 . S
C2170 C2162 1.378 . S
C2170 C2165 1.350 . S
C2171 H2158 0.929 . S
C2171 C2163 1.433 . S
C2171 N2173 1.384 . S
N2172 C2168 1.427 . S
N2172 C2169 1.384 . S
N2173 C2165 1.427 . S
N2173 C2171 1.384 . S
H2174 C2180 0.930 . S
H2175 C2184 0.930 . S
H2176 C2189 0.929 . S
H2177 C2187 0.929 . S
H2178 C2182 0.929 . S
H2179 C2188 0.929 . S
C2180 H2174 0.930 . S
C2180 C2181 1.367 . S
C2180 C2188 1.378 . S
C2181 C2180 1.367 . S
C2181 C2189 1.433 . S
C2182 H2178 0.929 . S
C2182 C2184 1.378 . S
C2182 C2186 1.350 . S
C2183 C2186 1.463 . S
C2183 C2188 1.350 . S
C2183 N2191 1.427 . S
C2184 H2175 0.930 . S
C2184 C2182 1.378 . S
C2184 C2185 1.367 . S
C2185 C2184 1.367 . S
C2185 C2187 1.433 . S
C2186 C2182 1.350 . S
C2186 C2183 1.463 . S
C2186 N2190 1.427 . S
C2187 H2177 0.929 . S
C2187 C2185 1.433 . S
C2187 N2190 1.384 . S
C2188 H2179 0.929 . S
C2188 C2180 1.378 . S
C2188 C2183 1.350 . S
C2189 H2176 0.929 . S
C2189 C2181 1.433 . S
C2189 N2191 1.384 . S
N2190 C2186 1.427 . S
N2190 C2187 1.384 . S
N2191 C2183 1.427 . S
N2191 C2189 1.384 . S
H2192 C2198 0.930 . S
H2193 C2202 0.930 . S
H2194 C2207 0.929 . S
H2195 C2205 0.929 . S
H2196 C2200 0.929 . S
H2197 C2206 0.929 . S
C2198 H2192 0.930 . S
C2198 C2199 1.367 . S
C2198 C2206 1.378 . S
C2199 C2198 1.367 . S
C2199 C2207 1.433 . S
C2200 H2196 0.929 . S
C2200 C2202 1.378 . S
C2200 C2204 1.350 . S
C2201 C2204 1.463 . S
C2201 C2206 1.350 . S
C2201 N2209 1.427 . S
C2202 H2193 0.930 . S
C2202 C2200 1.378 . S
C2202 C2203 1.367 . S
C2203 C2202 1.367 . S
C2203 C2205 1.433 . S
C2204 C2200 1.350 . S
C2204 C2201 1.463 . S
C2204 N2208 1.427 . S
C2205 H2195 0.929 . S
C2205 C2203 1.433 . S
C2205 N2208 1.384 . S
C2206 H2197 0.929 . S
C2206 C2198 1.378 . S
C2206 C2201 1.350 . S
C2207 H2194 0.929 . S
C2207 C2199 1.433 . S
C2207 N2209 1.384 . S
N2208 C2204 1.427 . S
N2208 C2205 1.384 . S
N2209 C2201 1.427 . S
N2209 C2207 1.384 . S
H2210 C2216 0.930 . S
H2211 C2220 0.930 . S
H2212 C2225 0.929 . S
H2213 C2223 0.929 . S
H2214 C2218 0.929 . S
H2215 C2224 0.929 . S
C2216 H2210 0.930 . S
C2216 C2217 1.367 . S
C2216 C2224 1.378 . S
C2217 C2216 1.367 . S
C2217 C2225 1.433 . S
C2218 H2214 0.929 . S
C2218 C2220 1.378 . S
C2218 C2222 1.350 . S
C2219 C2222 1.463 . S
C2219 C2224 1.350 . S
C2219 N2227 1.427 . S
C2220 H2211 0.930 . S
C2220 C2218 1.378 . S
C2220 C2221 1.367 . S
C2221 C2220 1.367 . S
C2221 C2223 1.433 . S
C2222 C2218 1.350 . S
C2222 C2219 1.463 . S
C2222 N2226 1.427 . S
C2223 H2213 0.929 . S
C2223 C2221 1.433 . S
C2223 N2226 1.384 . S
C2224 H2215 0.929 . S
C2224 C2216 1.378 . S
C2224 C2219 1.350 . S
C2225 H2212 0.929 . S
C2225 C2217 1.433 . S
C2225 N2227 1.384 . S
N2226 C2222 1.427 . S
N2226 C2223 1.384 . S
N2227 C2219 1.427 . S
N2227 C2225 1.384 . S
H2228 C2234 0.930 . S
H2229 C2238 0.930 . S
H2230 C2243 0.929 . S
H2231 C2241 0.929 . S
H2232 C2236 0.929 . S
H2233 C2242 0.929 . S
C2234 H2228 0.930 . S
C2234 C2235 1.367 . S
C2234 C2242 1.378 . S
C2235 C2234 1.367 . S
C2235 C2243 1.433 . S
C2236 H2232 0.929 . S
C2236 C2238 1.378 . S
C2236 C2240 1.350 . S
C2237 C2240 1.463 . S
C2237 C2242 1.350 . S
C2237 N2245 1.427 . S
C2238 H2229 0.930 . S
C2238 C2236 1.378 . S
C2238 C2239 1.367 . S
C2239 C2238 1.367 . S
C2239 C2241 1.433 . S
C2240 C2236 1.350 . S
C2240 C2237 1.463 . S
C2240 N2244 1.427 . S
C2241 H2231 0.929 . S
C2241 C2239 1.433 . S
C2241 N2244 1.384 . S
C2242 H2233 0.929 . S
C2242 C2234 1.378 . S
C2242 C2237 1.350 . S
C2243 H2230 0.929 . S
C2243 C2235 1.433 . S
C2243 N2245 1.384 . S
N2244 C2240 1.427 . S
N2244 C2241 1.384 . S
N2245 C2237 1.427 . S
N2245 C2243 1.384 . S
H2246 C2252 0.930 . S
H2247 C2256 0.930 . S
H2248 C2261 0.929 . S
H2249 C2259 0.929 . S
H2250 C2254 0.929 . S
H2251 C2260 0.929 . S
C2252 H2246 0.930 . S
C2252 C2253 1.367 . S
C2252 C2260 1.378 . S
C2253 C2252 1.367 . S
C2253 C2261 1.433 . S
C2254 H2250 0.929 . S
C2254 C2256 1.378 . S
C2254 C2258 1.350 . S
C2255 C2258 1.463 . S
C2255 C2260 1.350 . S
C2255 N2263 1.427 . S
C2256 H2247 0.930 . S
C2256 C2254 1.378 . S
C2256 C2257 1.367 . S
C2257 C2256 1.367 . S
C2257 C2259 1.433 . S
C2258 C2254 1.350 . S
C2258 C2255 1.463 . S
C2258 N2262 1.427 . S
C2259 H2249 0.929 . S
C2259 C2257 1.433 . S
C2259 N2262 1.384 . S
C2260 H2251 0.929 . S
C2260 C2252 1.378 . S
C2260 C2255 1.350 . S
C2261 H2248 0.929 . S
C2261 C2253 1.433 . S
C2261 N2263 1.384 . S
N2262 C2258 1.427 . S
N2262 C2259 1.384 . S
N2263 C2255 1.427 . S
N2263 C2261 1.384 . S
H2264 C2270 0.930 . S
H2265 C2274 0.930 . S
H2266 C2279 0.929 . S
H2267 C2277 0.929 . S
H2268 C2272 0.929 . S
H2269 C2278 0.929 . S
C2270 H2264 0.930 . S
C2270 C2271 1.367 . S
C2270 C2278 1.378 . S
C2271 C2270 1.367 . S
C2271 C2279 1.433 . S
C2272 H2268 0.929 . S
C2272 C2274 1.378 . S
C2272 C2276 1.350 . S
C2273 C2276 1.463 . S
C2273 C2278 1.350 . S
C2273 N2281 1.427 . S
C2274 H2265 0.930 . S
C2274 C2272 1.378 . S
C2274 C2275 1.367 . S
C2275 C2274 1.367 . S
C2275 C2277 1.433 . S
C2276 C2272 1.350 . S
C2276 C2273 1.463 . S
C2276 N2280 1.427 . S
C2277 H2267 0.929 . S
C2277 C2275 1.433 . S
C2277 N2280 1.384 . S
C2278 H2269 0.929 . S
C2278 C2270 1.378 . S
C2278 C2273 1.350 . S
C2279 H2266 0.929 . S
C2279 C2271 1.433 . S
C2279 N2281 1.384 . S
N2280 C2276 1.427 . S
N2280 C2277 1.384 . S
N2281 C2273 1.427 . S
N2281 C2279 1.384 . S
H2282 C2288 0.930 . S
H2283 C2292 0.930 . S
H2284 C2297 0.929 . S
H2285 C2295 0.929 . S
H2286 C2290 0.929 . S
H2287 C2296 0.929 . S
C2288 H2282 0.930 . S
C2288 C2289 1.367 . S
C2288 C2296 1.378 . S
C2289 C2288 1.367 . S
C2289 C2297 1.433 . S
C2290 H2286 0.929 . S
C2290 C2292 1.378 . S
C2290 C2294 1.350 . S
C2291 C2294 1.463 . S
C2291 C2296 1.350 . S
C2291 N2299 1.427 . S
C2292 H2283 0.930 . S
C2292 C2290 1.378 . S
C2292 C2293 1.367 . S
C2293 C2292 1.367 . S
C2293 C2295 1.433 . S
C2294 C2290 1.350 . S
C2294 C2291 1.463 . S
C2294 N2298 1.427 . S
C2295 H2285 0.929 . S
C2295 C2293 1.433 . S
C2295 N2298 1.384 . S
C2296 H2287 0.929 . S
C2296 C2288 1.378 . S
C2296 C2291 1.350 . S
C2297 H2284 0.929 . S
C2297 C2289 1.433 . S
C2297 N2299 1.384 . S
N2298 C2294 1.427 . S
N2298 C2295 1.384 . S
N2299 C2291 1.427 . S
N2299 C2297 1.384 . S
H2300 C2306 0.930 . S
H2301 C2310 0.930 . S
H2302 C2315 0.929 . S
H2303 C2313 0.929 . S
H2304 C2308 0.929 . S
H2305 C2314 0.929 . S
C2306 H2300 0.930 . S
C2306 C2307 1.367 . S
C2306 C2314 1.378 . S
C2307 C2306 1.367 . S
C2307 C2315 1.433 . S
C2308 H2304 0.929 . S
C2308 C2310 1.378 . S
C2308 C2312 1.350 . S
C2309 C2312 1.463 . S
C2309 C2314 1.350 . S
C2309 N2317 1.427 . S
C2310 H2301 0.930 . S
C2310 C2308 1.378 . S
C2310 C2311 1.367 . S
C2311 C2310 1.367 . S
C2311 C2313 1.433 . S
C2312 C2308 1.350 . S
C2312 C2309 1.463 . S
C2312 N2316 1.427 . S
C2313 H2303 0.929 . S
C2313 C2311 1.433 . S
C2313 N2316 1.384 . S
C2314 H2305 0.929 . S
C2314 C2306 1.378 . S
C2314 C2309 1.350 . S
C2315 H2302 0.929 . S
C2315 C2307 1.433 . S
C2315 N2317 1.384 . S
N2316 C2312 1.427 . S
N2316 C2313 1.384 . S
N2317 C2309 1.427 . S
N2317 C2315 1.384 . S
H2318 C2324 0.930 . S
H2319 C2328 0.928 1_544 S
H2320 C2333 0.929 . S
H2321 C2331 0.929 . S
H2322 C2326 0.929 1_554 S
H2323 C2332 0.929 . S
C2324 H2318 0.930 . S
C2324 C2325 1.365 . S
C2324 C2332 1.378 . S
C2325 C2324 1.365 . S
C2325 C2333 1.435 1_556 S
C2326 H2322 0.929 1_556 S
C2326 C2328 1.378 . S
C2326 C2330 1.350 . S
C2327 C2330 1.463 . S
C2327 C2332 1.350 . S
C2327 N2335 1.427 1_556 S
C2328 H2319 0.928 1_566 S
C2328 C2326 1.378 . S
C2328 C2329 1.367 . S
C2329 C2328 1.367 . S
C2329 C2331 1.433 . S
C2330 C2326 1.350 . S
C2330 C2327 1.463 . S
C2330 N2334 1.427 . S
C2331 H2321 0.929 . S
C2331 C2329 1.433 . S
C2331 N2334 1.384 . S
C2332 H2323 0.929 . S
C2332 C2324 1.378 . S
C2332 C2327 1.350 . S
C2333 H2320 0.929 . S
C2333 C2325 1.435 1_554 S
C2333 N2335 1.384 . S
N2334 C2330 1.427 . S
N2334 C2331 1.384 . S
N2335 C2327 1.427 1_554 S
N2335 C2333 1.384 . S
H2336 C2342 0.930 . S
H2337 C2346 0.930 . S
H2338 C2351 0.929 . S
H2339 C2349 0.929 . S
H2340 C2344 0.929 . S
H2341 C2350 0.929 . S
C2342 H2336 0.930 . S
C2342 C2343 1.367 . S
C2342 C2350 1.378 . S
C2343 C2342 1.367 . S
C2343 C2351 1.433 . S
C2344 H2340 0.929 . S
C2344 C2346 1.378 . S
C2344 C2348 1.350 . S
C2345 C2348 1.463 . S
C2345 C2350 1.350 . S
C2345 N2353 1.427 . S
C2346 H2337 0.930 . S
C2346 C2344 1.378 . S
C2346 C2347 1.367 . S
C2347 C2346 1.367 . S
C2347 C2349 1.433 . S
C2348 C2344 1.350 . S
C2348 C2345 1.463 . S
C2348 N2352 1.427 . S
C2349 H2339 0.929 . S
C2349 C2347 1.433 . S
C2349 N2352 1.384 . S
C2350 H2341 0.929 . S
C2350 C2342 1.378 . S
C2350 C2345 1.350 . S
C2351 H2338 0.929 . S
C2351 C2343 1.433 . S
C2351 N2353 1.384 . S
N2352 C2348 1.427 . S
N2352 C2349 1.384 . S
N2353 C2345 1.427 . S
N2353 C2351 1.384 . S
H2354 C2360 0.929 1_556 S
H2355 C2364 0.930 . S
H2356 C2369 0.929 . S
H2357 C2367 0.929 . S
H2358 C2362 0.929 . S
H2359 C2368 0.929 . S
C2360 H2354 0.929 1_554 S
C2360 C2361 1.367 . S
C2360 C2368 1.378 . S
C2361 C2360 1.367 . S
C2361 C2369 1.433 . S
C2362 H2358 0.929 . S
C2362 C2364 1.378 . S
C2362 C2366 1.350 . S
C2363 C2366 1.463 . S
C2363 C2368 1.350 . S
C2363 N2371 1.427 . S
C2364 H2355 0.930 . S
C2364 C2362 1.378 . S
C2364 C2365 1.367 . S
C2365 C2364 1.367 . S
C2365 C2367 1.433 . S
C2366 C2362 1.350 . S
C2366 C2363 1.463 . S
C2366 N2370 1.427 . S
C2367 H2357 0.929 . S
C2367 C2365 1.433 . S
C2367 N2370 1.384 . S
C2368 H2359 0.929 . S
C2368 C2360 1.378 . S
C2368 C2363 1.350 . S
C2369 H2356 0.929 . S
C2369 C2361 1.433 . S
C2369 N2371 1.384 . S
N2370 C2366 1.427 . S
N2370 C2367 1.384 . S
N2371 C2363 1.427 . S
N2371 C2369 1.384 . S
H2372 C2378 0.930 . S
H2373 C2382 0.930 . S
H2374 C2387 0.929 . S
H2375 C2385 0.929 . S
H2376 C2380 0.929 . S
H2377 C2386 0.929 . S
C2378 H2372 0.930 . S
C2378 C2379 1.367 . S
C2378 C2386 1.378 . S
C2379 C2378 1.367 . S
C2379 C2387 1.433 . S
C2380 H2376 0.929 . S
C2380 C2382 1.378 . S
C2380 C2384 1.350 . S
C2381 C2384 1.463 . S
C2381 C2386 1.350 . S
C2381 N2389 1.427 . S
C2382 H2373 0.930 . S
C2382 C2380 1.378 . S
C2382 C2383 1.367 . S
C2383 C2382 1.367 . S
C2383 C2385 1.433 . S
C2384 C2380 1.350 . S
C2384 C2381 1.463 . S
C2384 N2388 1.427 . S
C2385 H2375 0.929 . S
C2385 C2383 1.433 . S
C2385 N2388 1.384 . S
C2386 H2377 0.929 . S
C2386 C2378 1.378 . S
C2386 C2381 1.350 . S
C2387 H2374 0.929 . S
C2387 C2379 1.433 . S
C2387 N2389 1.384 . S
N2388 C2384 1.427 . S
N2388 C2385 1.384 . S
N2389 C2381 1.427 . S
N2389 C2387 1.384 . S
H2390 C2396 0.930 . S
H2391 C2400 0.930 . S
H2392 C2405 0.929 . S
H2393 C2403 0.929 . S
H2394 C2398 0.929 . S
H2395 C2404 0.929 . S
C2396 H2390 0.930 . S
C2396 C2397 1.367 . S
C2396 C2404 1.378 . S
C2397 C2396 1.367 . S
C2397 C2405 1.433 . S
C2398 H2394 0.929 . S
C2398 C2400 1.378 . S
C2398 C2402 1.350 . S
C2399 C2402 1.463 . S
C2399 C2404 1.350 . S
C2399 N2407 1.427 . S
C2400 H2391 0.930 . S
C2400 C2398 1.378 . S
C2400 C2401 1.367 . S
C2401 C2400 1.367 . S
C2401 C2403 1.433 . S
C2402 C2398 1.350 . S
C2402 C2399 1.463 . S
C2402 N2406 1.427 . S
C2403 H2393 0.929 . S
C2403 C2401 1.433 . S
C2403 N2406 1.384 . S
C2404 H2395 0.929 . S
C2404 C2396 1.378 . S
C2404 C2399 1.350 . S
C2405 H2392 0.929 . S
C2405 C2397 1.433 . S
C2405 N2407 1.384 . S
N2406 C2402 1.427 . S
N2406 C2403 1.384 . S
N2407 C2399 1.427 . S
N2407 C2405 1.384 . S
C691 C328 1.079 . S
C687 C10 1.095 . S
C705 C13 1.227 . S
C709 C356 1.173 . S
C723 C34 1.067 . S
C727 C374 1.085 . S
C745 C400 1.218 . S
C741 C44 1.325 . S
C759 C21 1.345 . S
C763 C423 1.261 . S
C781 C443 0.988 . S
C777 C26 0.974 . S
C799 C471 1.269 1_556 S
C795 C49 1.353 . S
C813 C5 1.041 . S
C817 C489 1.030 . S
C831 C62 1.260 . S
C835 C330 1.263 . S
C849 C73 0.971 . S
C853 C352 0.970 . S
C871 C376 1.285 . S
C867 C88 1.275 . S
C889 C397 1.017 . S
C885 C99 1.015 . S
C903 C60 1.033 . S
C907 C420 1.035 . S
C925 C445 1.269 . S
C921 C75 1.260 . S
C943 C467 0.981 . S
C939 C86 0.976 1_545 S
C961 C491 1.273 . S
C957 C101 1.265 . S
C979 C331 0.901 1_556 S
C975 C96 0.917 . S
C997 C514 1.078 . S
C993 C104 1.031 . S
C1011 C122 0.894 . S
C1015 C538 0.862 . S
C1033 C562 1.034 . S
C1029 C130 1.035 . S
C1047 C57 0.860 . S
C1051 C492 0.845 . S
C1069 C377 0.922 . S
C1065 C70 0.949 . S
C1083 C117 0.966 . S
C1087 C583 1.002 . S
C1105 C608 0.973 . S
C1101 C143 0.956 . S
C1119 C164 1.180 . S
C1123 C329 1.170 . S
C1141 C606 1.026 . S
C1137 C169 1.009 . S
C1155 C192 1.190 . S
C1159 C375 1.179 . S
C1173 C200 0.999 . S
C1177 C585 1.000 . S
C1195 C424 1.035 . S
C1191 C179 1.075 . S
C1213 C536 1.069 . S
C1209 C182 1.081 . S
C1231 C468 1.126 . S
C1227 C203 1.109 . S
C1249 C628 1.138 . S
C1245 C161 1.129 . S
C1267 C333 0.921 . S
C1263 C216 0.983 . S
C1281 C231 1.326 . S
C1285 C604 1.299 . S
C1303 C379 0.944 . S
C1299 C242 1.011 1_565 S
C1317 C257 1.305 . S
C1321 C582 1.282 . S
C1335 C218 1.330 . S
C1339 C421 1.299 . S
C1353 C229 0.979 . S
C1357 C540 0.944 . S
C1375 C466 1.298 . S
C1371 C244 1.321 . S
C1389 C255 0.983 . S
C1393 C632 0.923 . S
C1407 C252 1.299 . S
C1411 C332 1.292 . S
C1425 C260 1.220 1_556 S
C1429 C517 1.139 . S
C1443 C278 1.268 . S
C1447 C447 1.259 . S
C1461 C286 1.216 . S
C1465 C561 1.107 . S
C1483 C631 1.224 . S
C1479 C213 1.235 . S
C1501 C378 1.308 . S
C1497 C226 1.314 . S
C1519 C402 1.082 . S
C1515 C273 1.136 . S
C1537 C354 1.079 . S
C1533 C299 1.163 . S
C1551 C36 1.097 . S
C1555 C650 1.083 . S
C1573 C609 1.187 . S
C1569 C39 1.232 . S
C1591 C673 1.092 . S
C1587 C8 1.076 . S
C1605 C18 1.325 . S
C1609 C584 1.234 . S
C1623 C47 1.348 . S
C1627 C515 1.261 1_556 S
C1645 C535 0.988 . S
C1641 C0 0.964 . S
C1663 C563 1.277 . S
C1659 C23 1.354 . S
C1681 C627 1.045 . S
C1677 C31 1.032 . S
C1699 C652 1.262 . S
C1695 C153 1.258 . S
C1713 C112 0.973 . S
C1717 C605 0.973 . S
C1731 C127 1.275 . S
C1735 C675 1.287 . S
C1753 C581 1.017 . S
C1749 C138 1.003 . S
C1771 C512 1.040 . S
C1767 C151 1.032 . S
C1785 C114 1.258 . S
C1789 C537 1.265 . S
C1807 C559 0.967 . S
C1803 C125 0.970 . S
C1821 C140 1.259 . S
C1825 C629 1.269 . S
C1843 C653 0.867 . S
C1839 C135 0.931 . S
C1861 C422 1.079 . S
C1857 C65 1.041 . S
C1879 C446 0.842 . S
C1875 C83 0.893 . S
C1893 C91 1.009 . S
C1897 C470 1.043 . S
C1915 C630 0.849 . S
C1911 C148 0.865 . S
C1929 C109 0.945 . S
C1933 C676 0.923 1_556 S
C1951 C399 1.000 . S
C1947 C78 0.962 . S
C1969 C355 0.974 . S
C1965 C52 0.955 . S
C1983 C190 1.167 . S
C1987 C651 1.180 . S
C2005 C353 1.024 . S
C2001 C195 1.009 . S
C2023 C674 1.180 . S
C2019 C166 1.190 . S
C2037 C174 1.015 . S
C2041 C401 1.017 . S
C2055 C205 1.072 . S
C2059 C516 1.042 . S
C2073 C156 1.073 . S
C2077 C444 1.073 . S
C2091 C177 1.123 . S
C2095 C560 1.134 . S
C2109 C187 1.120 . S
C2113 C490 1.125 . S
C2131 C655 0.946 . S
C2127 C307 0.983 . S
C2145 C270 1.331 . S
C2149 C351 1.311 . S
C2167 C678 0.942 . S
C2163 C281 1.006 . S
C2181 C296 1.304 . S
C2185 C398 1.280 . S
C2199 C309 1.330 . S
C2203 C513 1.299 . S
C2221 C448 0.951 . S
C2217 C268 0.990 . S
C2235 C283 1.318 . S
C2239 C558 1.290 . S
C2257 C494 0.939 . S
C2253 C294 0.971 . S
C2275 C654 1.309 . S
C2271 C291 1.312 . S
C2293 C425 1.141 . S
C2289 C221 1.215 . S
C2307 C239 1.254 . S
C2311 C539 1.237 . S
C2329 C469 1.121 . S
C2325 C247 1.209 1_556 S
C2347 C493 1.240 . S
C2343 C304 1.248 . S
C2361 C265 1.316 . S
C2365 C677 1.311 . S
C2383 C586 1.071 . S
C2379 C234 1.148 . S
C2401 C607 1.085 . S
C2397 C208 1.160 . S
