# Generated by pormake.
# Topology pyr, (3,6)-cn, num edge types: 1
# Building blocks:
#     Node 0, Type 0, BuildingBlock: WUSLED_clean_sbu_0, # of connection points: 3
#     Node 1, Type 0, BuildingBlock: WUSLED_clean_sbu_0, # of connection points: 3
#     Node 2, Type 0, BuildingBlock: WUSLED_clean_sbu_0, # of connection points: 3
#     Node 3, Type 0, BuildingBlock: WUSLED_clean_sbu_0, # of connection points: 3
#     Node 4, Type 0, BuildingBlock: WUSLED_clean_sbu_0, # of connection points: 3
#     Node 5, Type 0, BuildingBlock: WUSLED_clean_sbu_0, # of connection points: 3
#     Node 6, Type 0, BuildingBlock: WUSLED_clean_sbu_0, # of connection points: 3
#     Node 7, Type 0, BuildingBlock: WUSLED_clean_sbu_0, # of connection points: 3
#     Node 8, Type 1, BuildingBlock: MIDCAF_clean_sbu_0, # of connection points: 6
#     Node 9, Type 1, BuildingBlock: MIDCAF_clean_sbu_0, # of connection points: 6
#     Node 10, Type 1, BuildingBlock: MIDCAF_clean_sbu_0, # of connection points: 6
#     Node 11, Type 1, BuildingBlock: MIDCAF_clean_sbu_0, # of connection points: 6
#     Edge 12, Type (0, 1), BuildingBlock: KIFKEQ_clean_linker_1, # of connection points: 2
#     Edge 13, Type (0, 1), BuildingBlock: KIFKEQ_clean_linker_1, # of connection points: 2
#     Edge 14, Type (0, 1), BuildingBlock: KIFKEQ_clean_linker_1, # of connection points: 2
#     Edge 15, Type (0, 1), BuildingBlock: KIFKEQ_clean_linker_1, # of connection points: 2
#     Edge 16, Type (0, 1), BuildingBlock: KIFKEQ_clean_linker_1, # of connection points: 2
#     Edge 17, Type (0, 1), BuildingBlock: KIFKEQ_clean_linker_1, # of connection points: 2
#     Edge 18, Type (0, 1), BuildingBlock: KIFKEQ_clean_linker_1, # of connection points: 2
#     Edge 19, Type (0, 1), BuildingBlock: KIFKEQ_clean_linker_1, # of connection points: 2
#     Edge 20, Type (0, 1), BuildingBlock: KIFKEQ_clean_linker_1, # of connection points: 2
#     Edge 21, Type (0, 1), BuildingBlock: KIFKEQ_clean_linker_1, # of connection points: 2
#     Edge 22, Type (0, 1), BuildingBlock: KIFKEQ_clean_linker_1, # of connection points: 2
#     Edge 23, Type (0, 1), BuildingBlock: KIFKEQ_clean_linker_1, # of connection points: 2
#     Edge 24, Type (0, 1), BuildingBlock: KIFKEQ_clean_linker_1, # of connection points: 2
#     Edge 25, Type (0, 1), BuildingBlock: KIFKEQ_clean_linker_1, # of connection points: 2
#     Edge 26, Type (0, 1), BuildingBlock: KIFKEQ_clean_linker_1, # of connection points: 2
#     Edge 27, Type (0, 1), BuildingBlock: KIFKEQ_clean_linker_1, # of connection points: 2
#     Edge 28, Type (0, 1), BuildingBlock: KIFKEQ_clean_linker_1, # of connection points: 2
#     Edge 29, Type (0, 1), BuildingBlock: KIFKEQ_clean_linker_1, # of connection points: 2
#     Edge 30, Type (0, 1), BuildingBlock: KIFKEQ_clean_linker_1, # of connection points: 2
#     Edge 31, Type (0, 1), BuildingBlock: KIFKEQ_clean_linker_1, # of connection points: 2
#     Edge 32, Type (0, 1), BuildingBlock: KIFKEQ_clean_linker_1, # of connection points: 2
#     Edge 33, Type (0, 1), BuildingBlock: KIFKEQ_clean_linker_1, # of connection points: 2
#     Edge 34, Type (0, 1), BuildingBlock: KIFKEQ_clean_linker_1, # of connection points: 2
#     Edge 35, Type (0, 1), BuildingBlock: KIFKEQ_clean_linker_1, # of connection points: 2
# Relax obj value: 0.020
# Max RMSD: 0.063
# Mean RMSD: 0.028
data_MOF--net-pyr--node1-WUSLED_clean_sbu_0--node2-MIDCAF_clean_sbu_0--edge1-KIFKEQ_clean_linker_1
_symmetry_space_group_name_H-M    P1
_symmetry_Int_Tables_number       1
_symmetry_cell_setting            triclinic
loop_
_symmetry_equiv_pos_as_xyz
'x, y, z'
_cell_length_a     46.961795
_cell_length_b     47.134527
_cell_length_c     47.145136
_cell_angle_alpha  89.669227
_cell_angle_beta   90.380743
_cell_angle_gamma 90.621225
loop_
_atom_site_label
_atom_site_type_symbol
_atom_site_fract_x
_atom_site_fract_y
_atom_site_fract_z
_atom_type_partial_charge
C0 C 0.21219 0.28855 0.17619 0.0
C1 C 0.18494 0.28503 0.16407 0.0
C2 C 0.18108 0.33616 0.15636 0.0
C3 C 0.16963 0.30849 0.15429 0.0
C4 C 0.20836 0.33963 0.16849 0.0
C5 C 0.22373 0.31612 0.17818 0.0
U6 U 0.22855 0.22505 0.22576 0.0
O7 O 0.24254 0.182 0.21534 0.0
O8 O 0.2699 0.20947 0.24147 0.0
C9 C 0.26735 0.1852 0.22803 0.0
C10 C 0.2294 0.26377 0.18533 0.0
C11 C 0.29226 0.17626 0.21157 0.0
C12 C 0.32121 0.17829 0.16903 0.0
C13 C 0.29836 0.18826 0.18498 0.0
C14 C 0.33248 0.14462 0.20633 0.0
C15 C 0.33841 0.1561 0.17937 0.0
C16 C 0.30961 0.15459 0.22222 0.0
C17 C 0.1785 0.20898 0.28913 0.0
C18 C 0.18234 0.19647 0.33931 0.0
C19 C 0.14311 0.17794 0.31128 0.0
C20 C 0.15352 0.19238 0.28743 0.0
C21 C 0.15724 0.17993 0.33763 0.0
C22 C 0.19281 0.21086 0.31539 0.0
C23 C 0.18798 0.22565 0.26397 0.0
O24 O 0.24366 0.26643 0.2093 0.0
O25 O 0.21767 0.23849 0.18231 0.0
O26 O 0.18516 0.21324 0.23919 0.0
O27 O 0.21187 0.24031 0.26638 0.0
H28 H 0.17545 0.26411 0.16183 0.0
H29 H 0.14895 0.30483 0.14462 0.0
H30 H 0.2178 0.36057 0.17074 0.0
H31 H 0.24479 0.31951 0.18713 0.0
H32 H 0.32539 0.18793 0.14856 0.0
H33 H 0.28525 0.20509 0.17644 0.0
H34 H 0.34499 0.12734 0.21485 0.0
H35 H 0.30516 0.145 0.24269 0.0
H36 H 0.19363 0.19882 0.35927 0.0
H37 H 0.12401 0.16506 0.30898 0.0
H38 H 0.14181 0.19073 0.26761 0.0
H39 H 0.21191 0.22375 0.31764 0.0
C40 C 0.25651 0.84426 0.68103 0.0
C41 C 0.22927 0.83594 0.6904 0.0
C42 C 0.20753 0.87523 0.66453 0.0
C43 C 0.20512 0.85128 0.68235 0.0
C44 C 0.23485 0.88396 0.65575 0.0
C45 C 0.259 0.86863 0.66381 0.0
U46 U 0.32393 0.82279 0.72361 0.0
O47 O 0.33897 0.78021 0.73544 0.0
O48 O 0.36516 0.80764 0.70812 0.0
C49 C 0.36169 0.78223 0.71936 0.0
C50 C 0.28159 0.82608 0.68697 0.0
C51 C 0.36811 0.75745 0.70114 0.0
C52 C 0.3694 0.70612 0.69486 0.0
C53 C 0.36053 0.72987 0.71004 0.0
C54 C 0.39319 0.73693 0.66112 0.0
C55 C 0.3863 0.70929 0.67049 0.0
C56 C 0.3843 0.76068 0.6763 0.0
C57 C 0.34684 0.86745 0.78863 0.0
C58 C 0.39353 0.86914 0.81133 0.0
C59 C 0.35348 0.89187 0.83352 0.0
C60 C 0.3358 0.88298 0.81122 0.0
C61 C 0.38268 0.88544 0.83371 0.0
C62 C 0.37576 0.86019 0.78901 0.0
C63 C 0.328 0.86041 0.76445 0.0
O64 O 0.30691 0.83739 0.68251 0.0
O65 O 0.28066 0.81022 0.71001 0.0
O66 O 0.313 0.83682 0.76671 0.0
O67 O 0.33876 0.86435 0.73903 0.0
H68 H 0.22648 0.81713 0.70343 0.0
H69 H 0.18448 0.84409 0.68977 0.0
H70 H 0.23754 0.90199 0.64165 0.0
H71 H 0.27954 0.87547 0.65581 0.0
H72 H 0.36339 0.68522 0.70254 0.0
H73 H 0.34835 0.72653 0.72922 0.0
H74 H 0.40652 0.74024 0.64272 0.0
H75 H 0.39091 0.78154 0.66899 0.0
H76 H 0.41583 0.86353 0.81093 0.0
H77 H 0.34441 0.90472 0.85008 0.0
H78 H 0.31356 0.88887 0.81128 0.0
H79 H 0.38469 0.84806 0.77183 0.0
C80 C 0.68506 0.3377 0.75419 0.0
C81 C 0.70049 0.3616 0.74491 0.0
C82 C 0.66546 0.3699 0.70727 0.0
C83 C 0.6908 0.37754 0.72166 0.0
C84 C 0.65031 0.34568 0.71656 0.0
C85 C 0.66002 0.32978 0.73979 0.0
U86 U 0.73622 0.32399 0.81647 0.0
O87 O 0.72692 0.31079 0.86029 0.0
O88 O 0.75259 0.28354 0.83321 0.0
C89 C 0.73961 0.28624 0.85765 0.0
C90 C 0.69446 0.3211 0.77907 0.0
C91 C 0.72317 0.26133 0.86755 0.0
C92 C 0.68171 0.2301 0.86474 0.0
C93 C 0.69779 0.25293 0.85402 0.0
C94 C 0.71653 0.2235 0.90226 0.0
C95 C 0.6907 0.21529 0.88923 0.0
C96 C 0.73256 0.24631 0.89152 0.0
C97 C 0.79962 0.37477 0.82911 0.0
C98 C 0.83213 0.37072 0.86928 0.0
C99 C 0.83851 0.40874 0.83506 0.0
C100 C 0.81488 0.39872 0.81974 0.0
C101 C 0.84738 0.39498 0.86013 0.0
C102 C 0.80845 0.36072 0.85391 0.0
C103 C 0.77431 0.3652 0.81304 0.0
O104 O 0.71862 0.3076 0.77628 0.0
O105 O 0.69226 0.33388 0.80364 0.0
O106 O 0.74986 0.3677 0.82614 0.0
O107 O 0.77667 0.34095 0.79966 0.0
H108 H 0.71992 0.368 0.75573 0.0
H109 H 0.70324 0.39581 0.7149 0.0
H110 H 0.63056 0.33936 0.7063 0.0
H111 H 0.64779 0.31142 0.74672 0.0
H112 H 0.66213 0.22417 0.85394 0.0
H113 H 0.69024 0.26425 0.83541 0.0
H114 H 0.72394 0.21292 0.92133 0.0
H115 H 0.75207 0.25256 0.90228 0.0
H116 H 0.83811 0.35979 0.88865 0.0
H117 H 0.84992 0.42723 0.82718 0.0
H118 H 0.80841 0.4098 0.80059 0.0
H119 H 0.79684 0.34223 0.86153 0.0
C120 C 0.76214 0.67705 0.33024 0.0
C121 C 0.76617 0.66641 0.35789 0.0
C122 C 0.7151 0.65775 0.36279 0.0
C123 C 0.74298 0.65685 0.3739 0.0
C124 C 0.7111 0.66828 0.33507 0.0
C125 C 0.73437 0.67773 0.31898 0.0
U126 U 0.82472 0.72772 0.31387 0.0
O127 O 0.86831 0.71835 0.3002 0.0
O128 O 0.84057 0.74408 0.27299 0.0
C129 C 0.86508 0.73104 0.27552 0.0
C130 C 0.78661 0.68649 0.31263 0.0
C131 C 0.87414 0.71465 0.25073 0.0
C132 C 0.8685 0.67462 0.21882 0.0
C133 C 0.85893 0.69048 0.24185 0.0
C134 C 0.9084 0.70711 0.21313 0.0
C135 C 0.89351 0.68261 0.20428 0.0
C136 C 0.89879 0.72293 0.23614 0.0
C137 C 0.83945 0.79087 0.36393 0.0
C138 C 0.88288 0.81282 0.38242 0.0
C139 C 0.84053 0.84104 0.37624 0.0
C140 C 0.8258 0.81713 0.36611 0.0
C141 C 0.86926 0.8392 0.38466 0.0
C142 C 0.86821 0.78899 0.37212 0.0
C143 C 0.82296 0.76557 0.35454 0.0
O144 O 0.78353 0.71049 0.29862 0.0
O145 O 0.81211 0.68382 0.32399 0.0
O146 O 0.8354 0.74084 0.35733 0.0
O147 O 0.80873 0.76814 0.33056 0.0
H148 H 0.78726 0.66526 0.36722 0.0
H149 H 0.74703 0.64836 0.39492 0.0
H150 H 0.68996 0.66957 0.32589 0.0
H151 H 0.73063 0.6856 0.29765 0.0
H152 H 0.85628 0.65611 0.21239 0.0
H153 H 0.8398 0.68379 0.25286 0.0
H154 H 0.9279 0.7137 0.20275 0.0
H155 H 0.91086 0.74149 0.24278 0.0
H156 H 0.90481 0.81036 0.38915 0.0
H157 H 0.82941 0.861 0.37729 0.0
H158 H 0.8036 0.81913 0.36009 0.0
H159 H 0.87937 0.76905 0.37093 0.0
C160 C 0.88481 0.81566 0.93104 0.0
C161 C 0.90259 0.79915 0.91415 0.0
C162 C 0.91203 0.76745 0.95422 0.0
C163 C 0.91597 0.77523 0.92558 0.0
C164 C 0.89407 0.78409 0.97099 0.0
C165 C 0.88061 0.80794 0.95948 0.0
U166 U 0.87852 0.87575 0.87626 0.0
O167 O 0.84045 0.89385 0.85594 0.0
O168 O 0.86803 0.92071 0.88249 0.0
C169 C 0.84403 0.91867 0.86813 0.0
C170 C 0.87071 0.84106 0.91947 0.0
C171 C 0.81881 0.93029 0.88221 0.0
C172 C 0.7798 0.9259 0.91566 0.0
C173 C 0.80364 0.91439 0.90243 0.0
C174 C 0.78612 0.96936 0.88867 0.0
C175 C 0.77075 0.9536 0.90901 0.0
C176 C 0.80989 0.9578 0.87542 0.0
C177 C 0.93342 0.88131 0.81589 0.0
C178 C 0.92834 0.9035 0.76938 0.0
C179 C 0.97536 0.89551 0.78901 0.0
C180 C 0.96312 0.88344 0.81328 0.0
C181 C 0.95814 0.90558 0.76668 0.0
C182 C 0.91609 0.89159 0.79378 0.0
C183 C 0.92124 0.86779 0.84152 0.0
O184 O 0.88544 0.86485 0.92128 0.0
O185 O 0.85788 0.83791 0.89479 0.0
O186 O 0.89623 0.85526 0.83858 0.0
O187 O 0.92365 0.88236 0.86512 0.0
H188 H 0.90613 0.80476 0.89212 0.0
H189 H 0.92928 0.76274 0.91188 0.0
H190 H 0.89083 0.77905 0.99318 0.0
H191 H 0.86704 0.82051 0.97289 0.0
H192 H 0.76831 0.91297 0.93091 0.0
H193 H 0.81021 0.89309 0.90796 0.0
H194 H 0.78009 0.99085 0.8833 0.0
H195 H 0.82143 0.97044 0.85994 0.0
H196 H 0.91445 0.91144 0.75278 0.0
H197 H 0.99836 0.89659 0.78754 0.0
H198 H 0.97689 0.87557 0.83003 0.0
H199 H 0.8931 0.89038 0.79532 0.0
C200 C 0.61945 0.17396 0.31339 0.0
C201 C 0.61857 0.1443 0.3106 0.0
C202 C 0.59385 0.1487 0.26512 0.0
C203 C 0.60579 0.13182 0.28678 0.0
C204 C 0.59531 0.17839 0.26772 0.0
C205 C 0.60789 0.19087 0.29169 0.0
U206 U 0.67381 0.17828 0.37458 0.0
O207 O 0.69495 0.21538 0.39384 0.0
O208 O 0.66698 0.18819 0.41966 0.0
C209 C 0.68208 0.2118 0.41832 0.0
C210 C 0.63152 0.18757 0.33902 0.0
C211 C 0.66886 0.23713 0.4308 0.0
C212 C 0.64714 0.28363 0.4264 0.0
C213 C 0.65887 0.25958 0.41386 0.0
C214 C 0.65476 0.26295 0.47293 0.0
C215 C 0.64496 0.28561 0.45611 0.0
C216 C 0.66666 0.23902 0.46039 0.0
C217 C 0.73266 0.12216 0.38058 0.0
C218 C 0.75823 0.10673 0.42291 0.0
C219 C 0.77812 0.0982 0.37652 0.0
C220 C 0.75456 0.11126 0.36387 0.0
C221 C 0.78014 0.09558 0.40619 0.0
C222 C 0.73478 0.11999 0.41025 0.0
C223 C 0.70764 0.13502 0.36655 0.0
O224 O 0.62867 0.17329 0.3629 0.0
O225 O 0.65681 0.19945 0.33625 0.0
O226 O 0.71187 0.16006 0.35481 0.0
O227 O 0.68334 0.13302 0.38016 0.0
H228 H 0.62756 0.13077 0.32693 0.0
H229 H 0.60546 0.1089 0.2852 0.0
H230 H 0.58622 0.19197 0.2515 0.0
H231 H 0.60833 0.21378 0.29343 0.0
H232 H 0.63941 0.30052 0.41282 0.0
H233 H 0.66014 0.25859 0.39096 0.0
H234 H 0.65361 0.26387 0.49584 0.0
H235 H 0.67429 0.22199 0.47387 0.0
H236 H 0.75936 0.10547 0.44584 0.0
H237 H 0.7945 0.08969 0.36304 0.0
H238 H 0.75334 0.11267 0.34094 0.0
H239 H 0.71829 0.12843 0.42365 0.0
C240 C 0.3217 0.61885 0.16839 0.0
C241 C 0.29924 0.63553 0.15807 0.0
C242 C 0.2726 0.59295 0.14437 0.0
C243 C 0.27489 0.6227 0.14629 0.0
C244 C 0.29526 0.57638 0.15452 0.0
C245 C 0.31949 0.58921 0.16647 0.0
U246 U 0.3813 0.6756 0.17325 0.0
O247 O 0.40002 0.69639 0.21073 0.0
O248 O 0.42677 0.67011 0.18365 0.0
C249 C 0.42492 0.68438 0.20742 0.0
C250 C 0.34737 0.63166 0.18164 0.0
C251 C 0.4376 0.67076 0.23279 0.0
C252 C 0.47997 0.65576 0.2586 0.0
C253 C 0.46729 0.6681 0.23465 0.0
C254 C 0.43342 0.64864 0.27939 0.0
C255 C 0.4632 0.64599 0.28133 0.0
C256 C 0.42073 0.66079 0.25532 0.0
C257 C 0.38529 0.73628 0.11849 0.0
C258 C 0.41116 0.78095 0.12402 0.0
C259 C 0.39576 0.76586 0.07731 0.0
C260 C 0.38371 0.74127 0.08917 0.0
C261 C 0.40954 0.78608 0.09459 0.0
C262 C 0.39926 0.75624 0.13584 0.0
C263 C 0.37203 0.71033 0.13042 0.0
O264 O 0.3709 0.63035 0.1668 0.0
O265 O 0.3441 0.65625 0.1942 0.0
O266 O 0.35982 0.7129 0.15529 0.0
O267 O 0.38692 0.68702 0.12819 0.0
H268 H 0.30048 0.65846 0.15912 0.0
H269 H 0.25801 0.63609 0.13828 0.0
H270 H 0.2941 0.55344 0.15356 0.0
H271 H 0.33652 0.57593 0.17437 0.0
H272 H 0.50296 0.65422 0.2595 0.0
H273 H 0.48073 0.67571 0.21756 0.0
H274 H 0.41987 0.64094 0.29633 0.0
H275 H 0.39775 0.66238 0.25438 0.0
H276 H 0.42198 0.79588 0.13787 0.0
H277 H 0.39392 0.76924 0.05463 0.0
H278 H 0.37302 0.72615 0.07541 0.0
H279 H 0.40095 0.75274 0.15852 0.0
C280 C 0.13953 0.30638 0.64945 0.0
C281 C 0.14425 0.30949 0.62018 0.0
C282 C 0.12971 0.2603 0.61243 0.0
C283 C 0.13923 0.28669 0.60181 0.0
C284 C 0.12571 0.25717 0.64184 0.0
C285 C 0.13052 0.27999 0.66012 0.0
U286 U 0.17837 0.37371 0.67447 0.0
O287 O 0.16144 0.41362 0.69091 0.0
O288 O 0.18923 0.38751 0.71785 0.0
C289 C 0.1723 0.40951 0.71637 0.0
C290 C 0.14327 0.33033 0.66919 0.0
C291 C 0.15283 0.41316 0.74055 0.0
C292 C 0.10519 0.41524 0.76051 0.0
C293 C 0.12316 0.40996 0.73756 0.0
C294 C 0.14633 0.42598 0.78993 0.0
C295 C 0.11657 0.42355 0.78691 0.0
C296 C 0.16422 0.4209 0.76698 0.0
C297 C 0.2432 0.39976 0.63106 0.0
C298 C 0.26975 0.44378 0.63844 0.0
C299 C 0.28407 0.41114 0.6018 0.0
C300 C 0.26183 0.39276 0.60923 0.0
C301 C 0.28813 0.43705 0.61602 0.0
C302 C 0.24735 0.42527 0.64586 0.0
C303 C 0.21943 0.38023 0.63736 0.0
O304 O 0.16624 0.32966 0.68524 0.0
O305 O 0.13787 0.35571 0.65889 0.0
O306 O 0.19373 0.39044 0.63366 0.0
O307 O 0.22199 0.3648 0.66052 0.0
H308 H 0.15148 0.32961 0.61147 0.0
H309 H 0.14272 0.2897 0.5793 0.0
H310 H 0.11799 0.2373 0.65069 0.0
H311 H 0.12676 0.27715 0.68262 0.0
H312 H 0.08239 0.41295 0.75756 0.0
H313 H 0.11381 0.40376 0.71743 0.0
H314 H 0.1558 0.43274 0.80981 0.0
H315 H 0.18702 0.42355 0.76975 0.0
H316 H 0.27227 0.4636 0.64974 0.0
H317 H 0.29815 0.40499 0.58486 0.0
H318 H 0.25905 0.37307 0.59771 0.0
H319 H 0.23312 0.43096 0.66286 0.0
Zn320 Zn 0.98992 0.05733 0.55765 0.0
Zn321 Zn 0.05224 0.99358 0.49147 0.0
Zn322 Zn 0.02099 0.02552 0.52471 0.0
C323 C 0.07158 0.04916 0.48318 0.0
C324 C 0.99583 0.98617 0.47369 0.0
O325 O 0.02254 1.00726 0.56862 0.0
O326 O 0.99561 0.03607 0.59349 0.0
C327 C 0.0328 0.09252 0.53636 0.0
O328 O 0.05237 0.05366 0.50208 0.0
O329 O 0.07624 0.0242 0.47499 0.0
O330 O 0.02067 0.97813 0.46791 0.0
O331 O 0.99186 1.00412 0.49382 0.0
O332 O 0.0113 0.09325 0.55225 0.0
O333 O 0.03949 0.06925 0.52387 0.0
O334 O 0.97629 0.02523 0.50775 0.0
O335 O 0.95322 0.05281 0.5374 0.0
C336 C 0.95321 0.03761 0.51545 0.0
O337 O 0.04325 0.99376 0.5521 0.0
O338 O 0.06873 0.96923 0.52172 0.0
C339 C 0.01088 0.01424 0.59227 0.0
C340 C 0.06133 0.97405 0.54692 0.0
Zn341 Zn 0.502 0.05976 0.99517 0.0
Zn342 Zn 0.56117 0.99565 0.05687 0.0
Zn343 Zn 0.53006 0.02783 0.02473 0.0
C344 C 0.59724 0.01437 0.01443 0.0
C345 C 0.51653 0.96141 0.03683 0.0
O346 O 0.50576 0.05709 0.05316 0.0
O347 O 0.47402 0.07341 0.02266 0.0
C348 C 0.55677 0.07701 0.98569 0.0
O349 O 0.5746 0.02826 0.0076 0.0
O350 O 0.59725 0.99814 0.03579 0.0
O351 O 0.53786 0.96066 0.05322 0.0
O352 O 0.51062 0.98435 0.02294 0.0
O353 O 0.53212 0.08729 0.985 0.0
O354 O 0.56057 0.05219 0.99675 0.0
O355 O 0.50084 0.99996 0.99899 0.0
O356 O 0.49001 0.03168 0.96627 0.0
C357 C 0.48978 1.00618 0.97461 0.0
O358 O 0.528 0.04513 0.06883 0.0
O359 O 0.55797 0.01757 0.09224 0.0
C360 C 0.48303 0.07145 0.04786 0.0
C361 C 0.54149 0.03855 0.09188 0.0
Zn362 Zn 0.56341 0.55903 0.5535 0.0
Zn363 Zn 0.49583 0.49391 0.49014 0.0
Zn364 Zn 0.52957 0.52614 0.52216 0.0
C365 C 0.53845 0.45857 0.51147 0.0
C366 C 0.51736 0.53613 0.4545 0.0
O367 O 0.50255 0.54877 0.55356 0.0
O368 O 0.53322 0.57574 0.57725 0.0
C369 C 0.58068 0.5028 0.56268 0.0
O370 O 0.54636 0.48201 0.52333 0.0
O371 O 0.51625 0.45777 0.49621 0.0
O372 O 0.50141 0.51442 0.4538 0.0
O373 O 0.52992 0.54333 0.47787 0.0
O374 O 0.58661 0.52793 0.56998 0.0
O375 O 0.56054 0.49802 0.54449 0.0
O376 O 0.55189 0.55671 0.49347 0.0
O377 O 0.5795 0.58218 0.52202 0.0
C378 C 0.5708 0.57642 0.49729 0.0
O379 O 0.48588 0.52786 0.54003 0.0
O380 O 0.46022 0.50062 0.51124 0.0
C381 C 0.5079 0.56755 0.57275 0.0
C382 C 0.46191 0.51629 0.53281 0.0
Zn383 Zn 0.0642 0.56051 0.99188 0.0
Zn384 Zn 0.9977 0.4944 0.05429 0.0
Zn385 Zn 0.03099 0.52756 0.02294 0.0
C386 C 0.05355 0.48536 0.07315 0.0
C387 C 0.98919 0.47775 0.99793 0.0
O388 O 0.0138 0.57162 0.02406 0.0
O389 O 0.04371 0.59646 0.99738 0.0
C390 C 0.09876 0.53849 0.03468 0.0
O391 O 0.05857 0.5045 0.05407 0.0
O392 O 0.0283 0.47717 0.07779 0.0
O393 O 0.9808 0.47199 0.02272 0.0
O394 O 0.00839 0.4972 0.99403 0.0
O395 O 0.10005 0.55459 0.01323 0.0
O396 O 0.075 0.52617 0.04129 0.0
O397 O 0.03045 0.51082 0.97881 0.0
O398 O 0.05894 0.54035 0.95551 0.0
C399 C 0.04311 0.51854 0.95576 0.0
O400 O 0.99987 0.55522 0.04495 0.0
O401 O 0.97466 0.52504 0.07098 0.0
C402 C 0.02156 0.5953 0.01238 0.0
C403 C 0.98008 0.55022 0.06325 0.0
H404 H 0.10139 0.17263 0.35341 0.0
H405 H 0.18717 0.15272 0.37987 0.0
H406 H 0.08267 0.14469 0.39279 0.0
H407 H 0.16846 0.12601 0.42013 0.0
H408 H 0.12329 0.04693 0.45811 0.0
H409 H 0.14489 0.08159 0.42646 0.0
H410 H 0.07655 0.13967 0.44334 0.0
H411 H 0.05426 0.10417 0.47441 0.0
C412 C 0.11631 0.16246 0.36771 0.0
C413 C 0.14584 0.16469 0.36312 0.0
C414 C 0.10554 0.14678 0.39065 0.0
C415 C 0.12399 0.13294 0.40971 0.0
C416 C 0.15355 0.13604 0.40571 0.0
C417 C 0.16432 0.15164 0.38272 0.0
C418 C 0.11309 0.06728 0.4555 0.0
C419 C 0.08704 0.07276 0.46882 0.0
C420 C 0.12561 0.08732 0.43742 0.0
C421 C 0.11244 0.11347 0.43208 0.0
C422 C 0.08711 0.11961 0.44663 0.0
C423 C 0.07453 0.09944 0.4648 0.0
H424 H 0.43629 0.90794 0.82739 0.0
H425 H 0.37243 0.89047 0.89085 0.0
H426 H 0.46529 0.93258 0.86267 0.0
H427 H 0.40109 0.91609 0.92597 0.0
H428 H 0.46895 0.95239 0.98708 0.0
H429 H 0.44612 0.91874 0.95434 0.0
H430 H 0.45919 0.9782 0.88549 0.0
H431 H 0.48209 0.01112 0.91784 0.0
C432 C 0.42861 0.9089 0.84897 0.0
C433 C 0.40184 0.89741 0.85614 0.0
C434 C 0.44514 0.92332 0.86916 0.0
C435 C 0.43536 0.92666 0.89708 0.0
C436 C 0.40932 0.91385 0.9047 0.0
C437 C 0.39274 0.89944 0.88446 0.0
C438 C 0.46731 0.95797 0.96497 0.0
C439 C 0.47734 0.98445 0.95527 0.0
C440 C 0.45404 0.93883 0.94618 0.0
C441 C 0.45092 0.9457 0.9172 0.0
C442 C 0.46159 0.97193 0.90751 0.0
C443 C 0.47451 0.99099 0.92623 0.0
H444 H 0.66536 0.42779 0.70292 0.0
H445 H 0.64015 0.35222 0.6574 0.0
H446 H 0.64679 0.45697 0.66458 0.0
H447 H 0.62139 0.38163 0.61879 0.0
H448 H 0.56086 0.44908 0.57534 0.0
H449 H 0.58275 0.41495 0.608 0.0
H450 H 0.65637 0.47011 0.61619 0.0
H451 H 0.63437 0.50415 0.58414 0.0
C452 C 0.65624 0.41734 0.68454 0.0
C453 C 0.65446 0.38759 0.68328 0.0
C454 C 0.64555 0.43412 0.66246 0.0
C455 C 0.63279 0.42169 0.63838 0.0
C456 C 0.63088 0.39192 0.63708 0.0
C457 C 0.64163 0.37508 0.65925 0.0
C458 C 0.58203 0.4535 0.58355 0.0
C459 C 0.59581 0.47939 0.57731 0.0
C460 C 0.59456 0.43399 0.60236 0.0
C461 C 0.62109 0.44006 0.61526 0.0
C462 C 0.6356 0.46508 0.60733 0.0
C463 C 0.62308 0.48451 0.58874 0.0
H464 H 0.89465 0.62474 0.20111 0.0
H465 H 0.91787 0.70037 0.15412 0.0
H466 H 0.91355 0.5956 0.16348 0.0
H467 H 0.937 0.671 0.11625 0.0
H468 H 0.99901 0.60432 0.07516 0.0
H469 H 0.97648 0.63835 0.10679 0.0
H470 H 0.90387 0.58194 0.11518 0.0
H471 H 0.92649 0.54803 0.08411 0.0
C472 C 0.90339 0.63519 0.18254 0.0
C473 C 0.90454 0.66495 0.18066 0.0
C474 C 0.91427 0.61845 0.16088 0.0
C475 C 0.92661 0.63092 0.13664 0.0
C476 C 0.92784 0.66069 0.1347 0.0
C477 C 0.91689 0.67751 0.15643 0.0
C478 C 0.97791 0.59961 0.08316 0.0
C479 C 0.9646 0.57343 0.0773 0.0
C480 C 0.96502 0.61905 0.10138 0.0
C481 C 0.93861 0.61261 0.11404 0.0
C482 C 0.92455 0.58727 0.10647 0.0
C483 C 0.93742 0.5679 0.08847 0.0
H484 H 0.33742 0.14585 0.1224 0.0
H485 H 0.39194 0.13897 0.19621 0.0
H486 H 0.37478 0.12648 0.09316 0.0
H487 H 0.42963 0.11943 0.1667 0.0
H488 H 0.47584 0.05624 0.10415 0.0
H489 H 0.44249 0.07742 0.13778 0.0
H490 H 0.42054 0.14085 0.07509 0.0
H491 H 0.45309 0.11963 0.04183 0.0
C492 C 0.35753 0.14056 0.13237 0.0
C493 C 0.36168 0.14431 0.16165 0.0
C494 C 0.37903 0.12938 0.11557 0.0
C495 C 0.40542 0.12166 0.12748 0.0
C496 C 0.40953 0.12499 0.15685 0.0
C497 C 0.38792 0.13622 0.17374 0.0
C498 C 0.46425 0.07502 0.09789 0.0
C499 C 0.46685 0.08608 0.07027 0.0
C500 C 0.4451 0.08714 0.11708 0.0
C501 C 0.42831 0.11048 0.10891 0.0
C502 C 0.43242 0.12241 0.08186 0.0
C503 C 0.45126 0.11032 0.06282 0.0
H504 H 0.1571 0.85111 0.64706 0.0
H505 H 0.19924 0.93246 0.65657 0.0
H506 H 0.11665 0.87422 0.62453 0.0
H507 H 0.15907 0.95548 0.63307 0.0
H508 H 0.07595 0.99203 0.60052 0.0
H509 H 0.10756 0.9678 0.63431 0.0
H510 H 0.11145 0.89606 0.57791 0.0
H511 H 0.07995 0.91999 0.54468 0.0
C512 C 0.15758 0.87399 0.64482 0.0
C513 C 0.18162 0.88986 0.65349 0.0
C514 C 0.13444 0.88722 0.63164 0.0
C515 C 0.13467 0.91669 0.62676 0.0
C516 C 0.15806 0.93278 0.63666 0.0
C517 C 0.18128 0.91952 0.64981 0.0
C518 C 0.08294 0.97076 0.59583 0.0
C519 C 0.07549 0.95789 0.56997 0.0
C520 C 0.10129 0.95701 0.615 0.0
C521 C 0.11221 0.93005 0.60875 0.0
C522 C 0.10329 0.91665 0.58361 0.0
C523 C 0.0853 0.93043 0.56445 0.0
H524 H 0.88975 0.36515 0.88696 0.0
H525 H 0.86077 0.45055 0.8716 0.0
H526 H 0.9285 0.38365 0.91648 0.0
H527 H 0.89937 0.46901 0.90113 0.0
H528 H 0.9809 0.49748 0.9435 0.0
H529 H 0.95044 0.47626 0.90681 0.0
H530 H 0.93278 0.40512 0.9624 0.0
H531 H 0.96376 0.42578 0.99837 0.0
C532 C 0.8916 0.38786 0.8899 0.0
C533 C 0.87197 0.4063 0.877 0.0
C534 C 0.91389 0.3985 0.90677 0.0
C535 C 0.91711 0.42786 0.91128 0.0
C536 C 0.89791 0.44634 0.89778 0.0
C537 C 0.87566 0.43571 0.88088 0.0
C538 C 0.97122 0.47687 0.94747 0.0
C539 C 0.97487 0.46325 0.97381 0.0
C540 C 0.95342 0.46491 0.92661 0.0
C541 C 0.9389 0.43906 0.93168 0.0
C542 C 0.94377 0.42486 0.95753 0.0
C543 C 0.96145 0.43681 0.9783 0.0
H544 H 0.70696 0.66507 0.41969 0.0
H545 H 0.66721 0.62797 0.34556 0.0
H546 H 0.66852 0.64696 0.44886 0.0
H547 H 0.62758 0.61114 0.3747 0.0
H548 H 0.58412 0.55485 0.44523 0.0
H549 H 0.61621 0.57629 0.41031 0.0
H550 H 0.62034 0.65293 0.46018 0.0
H551 H 0.58937 0.631 0.49538 0.0
C552 C 0.68995 0.65312 0.40953 0.0
C553 C 0.69044 0.64784 0.38023 0.0
C554 C 0.66753 0.6431 0.42626 0.0
C555 C 0.64466 0.62772 0.4142 0.0
C556 C 0.64487 0.62273 0.38479 0.0
C557 C 0.66748 0.63267 0.36802 0.0
C558 C 0.5914 0.57651 0.44829 0.0
C559 C 0.58452 0.59118 0.47313 0.0
C560 C 0.60983 0.58884 0.42829 0.0
C561 C 0.62151 0.61616 0.43271 0.0
C562 C 0.61259 0.63154 0.45648 0.0
C563 C 0.59458 0.6191 0.47656 0.0
H564 H 0.12368 0.34494 0.16032 0.0
H565 H 0.20084 0.38416 0.12871 0.0
H566 H 0.09622 0.38421 0.14178 0.0
H567 H 0.17336 0.42452 0.11142 0.0
H568 H 0.10656 0.47163 0.05353 0.0
H569 H 0.13963 0.43792 0.07522 0.0
H570 H 0.08583 0.43232 0.14913 0.0
H571 H 0.05255 0.46496 0.12697 0.0
C572 C 0.13487 0.36198 0.14947 0.0
C573 C 0.16455 0.36114 0.14594 0.0
C574 C 0.11911 0.38487 0.13919 0.0
C575 C 0.13251 0.40785 0.12526 0.0
C576 C 0.16225 0.40719 0.12188 0.0
C577 C 0.17806 0.38414 0.13211 0.0
C578 C 0.10225 0.46368 0.07469 0.0
C579 C 0.07685 0.47069 0.08844 0.0
C580 C 0.12117 0.44429 0.08715 0.0
C581 C 0.1151 0.43174 0.1137 0.0
C582 C 0.09079 0.44072 0.12829 0.0
C583 C 0.07183 0.45971 0.11573 0.0
H584 H 0.63278 0.21452 0.89454 0.0
H585 H 0.70723 0.16462 0.91347 0.0
H586 H 0.60298 0.17923 0.91802 0.0
H587 H 0.67724 0.12953 0.93799 0.0
H588 H 0.6037 0.06117 0.95467 0.0
H589 H 0.63801 0.09301 0.93096 0.0
H590 H 0.59597 0.16517 0.96727 0.0
H591 H 0.56222 0.1336 0.9906 0.0
C592 C 0.64281 0.19588 0.90344 0.0
C593 C 0.67247 0.19255 0.90212 0.0
C594 C 0.62573 0.17576 0.91727 0.0
C595 C 0.63777 0.15172 0.93028 0.0
C596 C 0.66731 0.1478 0.92821 0.0
C597 C 0.68449 0.16805 0.91438 0.0
C598 C 0.60245 0.08373 0.95815 0.0
C599 C 0.58037 0.09484 0.97451 0.0
C600 C 0.62188 0.10202 0.94441 0.0
C601 C 0.61937 0.1317 0.94676 0.0
C602 C 0.5981 0.14252 0.96435 0.0
C603 C 0.57886 0.12438 0.9779 0.0
H604 H 0.84948 0.88165 0.41914 0.0
H605 H 0.92495 0.85429 0.37557 0.0
H606 H 0.8759 0.92231 0.43799 0.0
H607 H 0.95165 0.89354 0.39577 0.0
H608 H 0.99316 0.97383 0.41779 0.0
H609 H 0.9592 0.94248 0.39411 0.0
H610 H 0.91159 0.93443 0.472 0.0
H611 H 0.945 0.96725 0.49514 0.0
C612 C 0.87165 0.88433 0.41343 0.0
C613 C 0.88504 0.86451 0.39583 0.0
C614 C 0.88691 0.90752 0.42455 0.0
C615 C 0.91597 0.91145 0.41842 0.0
C616 C 0.9292 0.89172 0.40061 0.0
C617 C 0.91395 0.86876 0.38936 0.0
C618 C 0.97497 0.96593 0.42959 0.0
C619 C 0.97179 0.97273 0.45831 0.0
C620 C 0.95567 0.94765 0.41615 0.0
C621 C 0.93306 0.93509 0.43131 0.0
C622 C 0.92869 0.94361 0.45957 0.0
C623 C 0.94782 0.96244 0.4729 0.0
H624 H 0.40745 0.66109 0.69515 0.0
H625 H 0.3931 0.70021 0.61328 0.0
H626 H 0.43142 0.62186 0.67238 0.0
H627 H 0.41807 0.66131 0.59056 0.0
H628 H 0.45322 0.57925 0.55524 0.0
H629 H 0.41894 0.60971 0.57926 0.0
H630 H 0.47758 0.61896 0.64967 0.0
H631 H 0.51125 0.58849 0.62602 0.0
C632 C 0.40896 0.66115 0.67224 0.0
C633 C 0.39844 0.68401 0.65611 0.0
C634 C 0.42298 0.63872 0.65919 0.0
C635 C 0.42691 0.6385 0.62965 0.0
C636 C 0.41526 0.66067 0.61333 0.0
C637 C 0.40125 0.68318 0.62641 0.0
C638 C 0.45831 0.58712 0.57621 0.0
C639 C 0.48488 0.58141 0.58878 0.0
C640 C 0.43887 0.60486 0.58982 0.0
C641 C 0.44555 0.61692 0.61636 0.0
C642 C 0.47152 0.60986 0.62944 0.0
C643 C 0.49094 0.59247 0.61579 0.0
H644 H 1.00298 0.94314 0.76385 0.0
H645 H 0.94283 0.89742 0.71108 0.0
H646 H 0.02273 0.96633 0.72179 0.0
H647 H 0.96224 0.92104 0.66907 0.0
H648 H 0.01309 0.95614 0.59547 0.0
H649 H 1.00523 0.92684 0.63799 0.0
H650 H 1.00357 1.00255 0.6891 0.0
H651 H 0.01142 0.0315 0.64694 0.0
C652 C 0.9942 0.93777 0.74325 0.0
C653 C 0.97117 0.91857 0.74087 0.0
C654 C 1.00543 0.95117 0.71916 0.0
C655 C 0.99407 0.94555 0.69206 0.0
C656 C 0.9717 0.92562 0.68958 0.0
C657 C 0.96032 0.91238 0.7137 0.0
C658 C 0.01189 0.96635 0.61594 0.0
C659 C 0.01279 0.99608 0.61791 0.0
C660 C 1.00709 0.94965 0.64022 0.0
C661 C 1.00349 0.96239 0.6669 0.0
C662 C 1.00642 0.992 0.66899 0.0
C663 C 0.01084 0.00862 0.64478 0.0
H664 H 0.55702 0.10339 0.26429 0.0
H665 H 0.59919 0.16366 0.20905 0.0
H666 H 0.53706 0.07906 0.22311 0.0
H667 H 0.57962 0.13904 0.16773 0.0
H668 H 0.53107 0.09577 0.09664 0.0
H669 H 0.53806 0.12489 0.1392 0.0
H670 H 0.55691 0.04929 0.18779 0.0
H671 H 0.5494 0.02061 0.1459 0.0
C672 C 0.56203 0.11144 0.24332 0.0
C673 C 0.58002 0.13523 0.23996 0.0
C674 C 0.55054 0.09753 0.21969 0.0
C675 C 0.5569 0.10689 0.19201 0.0
C676 C 0.57394 0.13141 0.18868 0.0
C677 C 0.58531 0.14546 0.21238 0.0
C678 C 0.53592 0.08543 0.11664 0.0
C679 C 0.53984 0.05593 0.1179 0.0
C680 C 0.54024 0.10209 0.14094 0.0
C681 C 0.54832 0.0895 0.16694 0.0
C682 C 0.55045 0.0598 0.16835 0.0
C683 C 0.54631 0.04331 0.1442 0.0
H684 H 0.45058 0.65462 0.33725 0.0
H685 H 0.50624 0.60724 0.28297 0.0
H686 H 0.47039 0.63042 0.37874 0.0
H687 H 0.5264 0.5834 0.32453 0.0
H688 H 0.51455 0.51867 0.39989 0.0
H689 H 0.50653 0.54774 0.35783 0.0
H690 H 0.51434 0.62346 0.40857 0.0
H691 H 0.52228 0.59409 0.45096 0.0
C692 C 0.46718 0.63917 0.3342 0.0
C693 C 0.47664 0.63268 0.30677 0.0
C694 C 0.47881 0.62558 0.35801 0.0
C695 C 0.5 0.605 0.35495 0.0
C696 C 0.51001 0.59907 0.32759 0.0
C697 C 0.49855 0.61283 0.3038 0.0
C698 C 0.51526 0.54155 0.40197 0.0
C699 C 0.51898 0.5541 0.42871 0.0
C700 C 0.51076 0.55823 0.37783 0.0
C701 C 0.50952 0.58792 0.37987 0.0
C702 C 0.51487 0.60061 0.40638 0.0
C703 C 0.51974 0.58384 0.43058 0.0
H704 H 0.1226 0.40996 0.84321 0.0
H705 H 0.06799 0.45512 0.78479 0.0
H706 H 0.09614 0.42899 0.88303 0.0
H707 H 0.04104 0.47357 0.82463 0.0
H708 H 0.04488 0.53714 0.90139 0.0
H709 H 0.05537 0.50937 0.85954 0.0
H710 H 0.05072 0.43242 0.90961 0.0
H711 H 0.04026 0.46057 0.95182 0.0
C712 C 0.10463 0.42357 0.83886 0.0
C713 C 0.09768 0.43135 0.81083 0.0
C714 C 0.08921 0.43418 0.86168 0.0
C715 C 0.06656 0.45295 0.85703 0.0
C716 C 0.05853 0.45936 0.82893 0.0
C717 C 0.07388 0.44863 0.80609 0.0
C718 C 0.04527 0.51421 0.9033 0.0
C719 C 0.04197 0.50101 0.92987 0.0
C720 C 0.05116 0.49825 0.87926 0.0
C721 C 0.05421 0.46867 0.88126 0.0
C722 C 0.04883 0.45522 0.90747 0.0
C723 C 0.04258 0.47126 0.93157 0.0
H724 H 0.75557 0.94815 0.96479 0.0
H725 H 0.729 0.98747 0.8861 0.0
H726 H 0.71427 0.96745 0.98832 0.0
H727 H 0.68821 0.008 0.91008 0.0
H728 H 0.60032 1.00569 0.95745 0.0
H729 H 0.6431 0.99401 0.93071 0.0
H730 H 0.69471 0.01059 1.00516 0.0
H731 H 0.65185 0.02139 0.03181 0.0
C732 C 0.74094 0.96094 0.95247 0.0
C733 C 0.74565 0.96608 0.92347 0.0
C734 C 0.71742 0.97244 0.96611 0.0
C735 C 0.69794 0.98956 0.95121 0.0
C736 C 0.70266 0.99483 0.92221 0.0
C737 C 0.72624 0.98326 0.90853 0.0
C738 C 0.62095 1.0077 0.96771 0.0
C739 C 0.6229 0.01473 0.99654 0.0
C740 C 0.64548 1.0009 0.95247 0.0
C741 C 0.67239 1.00088 0.96588 0.0
C742 C 0.67433 0.00972 0.9943 0.0
C743 C 0.64985 0.01629 0.0095 0.0
H744 H 0.77999 0.0573 0.45006 0.0
H745 H 0.83662 0.10168 0.39284 0.0
H746 H 0.82081 0.03617 0.47405 0.0
H747 H 0.87753 0.081 0.41711 0.0
H748 H 0.94789 0.03094 0.45767 0.0
H749 H 0.90513 0.03933 0.42889 0.0
H750 H 0.85697 0.053 0.50532 0.0
H751 H 0.8991 0.04373 0.5337 0.0
C752 C 0.80118 0.06258 0.44264 0.0
C753 C 0.80504 0.08143 0.41973 0.0
C754 C 0.82462 0.05043 0.45635 0.0
C755 C 0.85257 0.05697 0.44769 0.0
C756 C 0.85637 0.07509 0.42415 0.0
C757 C 0.83289 0.08711 0.4103 0.0
C758 C 0.92791 0.03476 0.46825 0.0
C759 C 0.92687 0.03666 0.49795 0.0
C760 C 0.90349 0.04 0.45177 0.0
C761 C 0.87758 0.04718 0.46472 0.0
C762 C 0.87634 0.04729 0.4945 0.0
C763 C 0.90062 0.04212 0.51085 0.0
H764 H 0.2705 0.5488 0.10687 0.0
H765 H 0.21656 0.60622 0.15245 0.0
H766 H 0.22862 0.52828 0.08343 0.0
H767 H 0.17473 0.58602 0.12862 0.0
H768 H 0.10166 0.53411 0.09269 0.0
H769 H 0.14413 0.54214 0.12237 0.0
H770 H 0.19582 0.54762 0.04707 0.0
H771 H 0.15371 0.53968 0.01774 0.0
C772 C 0.24968 0.5568 0.11217 0.0
C773 C 0.24691 0.57932 0.13138 0.0
C774 C 0.2257 0.54512 0.09864 0.0
C775 C 0.19833 0.55551 0.10415 0.0
C776 C 0.19545 0.57731 0.12414 0.0
C777 C 0.21946 0.58915 0.1375 0.0
C778 C 0.12226 0.53617 0.08264 0.0
C779 C 0.12441 0.53639 0.05293 0.0
C780 C 0.1465 0.54107 0.09957 0.0
C781 C 0.17331 0.54582 0.08706 0.0
C782 C 0.1756 0.54389 0.05744 0.0
C783 C 0.15143 0.53941 0.0406 0.0
H784 H 0.30276 0.45095 0.56194 0.0
H785 H 0.32569 0.46805 0.64906 0.0
H786 H 0.34337 0.47845 0.54595 0.0
H787 H 0.36613 0.49709 0.63295 0.0
H788 H 0.45658 0.50223 0.58855 0.0
H789 H 0.41189 0.48973 0.61207 0.0
H790 H 0.36496 0.523 0.54023 0.0
H791 H 0.40969 0.53362 0.51629 0.0
C792 C 0.31636 0.46091 0.57773 0.0
C793 C 0.31121 0.45688 0.60678 0.0
C794 C 0.33951 0.47719 0.56854 0.0
C795 C 0.35817 0.49024 0.58811 0.0
C796 C 0.35239 0.4872 0.61726 0.0
C797 C 0.32908 0.47075 0.6265 0.0
C798 C 0.43663 0.50773 0.57835 0.0
C799 C 0.4364 0.51856 0.55058 0.0
C800 C 0.41096 0.50055 0.59177 0.0
C801 C 0.38471 0.50451 0.57769 0.0
C802 C 0.38473 0.51867 0.55131 0.0
C803 C 0.41031 0.52516 0.5377 0.0
H804 H 0.89199 0.72798 0.99285 0.0
H805 H 0.96646 0.75035 0.9439 0.0
H806 H 0.91731 0.6876 0.01329 0.0
H807 H 0.99104 0.70948 0.96304 0.0
H808 H 0.04007 0.64978 0.01472 0.0
H809 H 0.01255 0.69225 1.00524 0.0
H810 H 0.93555 0.64133 1.00109 0.0
H811 H 0.96329 0.5988 0.01175 0.0
C812 C 0.91376 0.72438 0.98648 0.0
C813 C 0.92713 0.74251 0.96665 0.0
C814 C 0.92817 0.70103 0.99802 0.0
C815 C 0.95634 0.6953 0.99006 0.0
C816 C 0.9696 0.71345 0.9702 0.0
C817 C 0.95527 0.73673 0.95878 0.0
C818 C 0.01715 0.64778 0.01251 0.0
C819 C 1.00384 0.62099 0.01371 0.0
C820 C 1.00138 0.67208 1.00675 0.0
C821 C 0.97191 0.67018 1.00149 0.0
C822 C 0.95821 0.64363 1.00493 0.0
C823 C 0.97406 0.61923 0.01111 0.0
H824 H 0.40707 0.84048 0.11454 0.0
H825 H 0.44102 0.79102 0.04602 0.0
H826 H 0.43002 0.883 0.09514 0.0
H827 H 0.46347 0.83368 0.02627 0.0
H828 H 0.53213 0.90675 0.03066 0.0
H829 H 0.50356 0.86443 0.04095 0.0
H830 H 0.43008 0.91685 0.0546 0.0
H831 H 0.45901 0.95933 0.04437 0.0
C832 C 0.41933 0.8387 0.09526 0.0
C833 C 0.42236 0.81229 0.08196 0.0
C834 C 0.43217 0.86316 0.08392 0.0
C835 C 0.44854 0.86178 0.0591 0.0
C836 C 0.45113 0.83546 0.04549 0.0
C837 C 0.43811 0.81104 0.05673 0.0
C838 C 0.50965 0.9091 0.03503 0.0
C839 C 0.49764 0.9362 0.03634 0.0
C840 C 0.49326 0.88488 0.04093 0.0
C841 C 0.46456 0.88724 0.04877 0.0
C842 C 0.4522 0.91435 0.04888 0.0
C843 C 0.46861 0.93861 0.0427 0.0
H844 H 0.10039 0.26279 0.56211 0.0
H845 H 0.14194 0.20395 0.61897 0.0
H846 H 0.08205 0.22311 0.53409 0.0
H847 H 0.12303 0.1643 0.59142 0.0
H848 H 0.09107 0.09558 0.53504 0.0
H849 H 0.12036 0.13761 0.54596 0.0
H850 H 0.04459 0.18876 0.54688 0.0
H851 H 0.01571 0.14709 0.53605 0.0
C852 C 0.10615 0.24143 0.56827 0.0
C853 C 0.1223 0.23651 0.59301 0.0
C854 C 0.0955 0.21868 0.5523 0.0
C855 C 0.10088 0.19053 0.56063 0.0
C856 C 0.11866 0.1857 0.58424 0.0
C857 C 0.12919 0.20842 0.60028 0.0
C858 C 0.08092 0.11603 0.5366 0.0
C859 C 0.05115 0.11812 0.53496 0.0
C860 C 0.09761 0.14002 0.5431 0.0
C861 C 0.08477 0.16647 0.54763 0.0
C862 C 0.05525 0.16884 0.54336 0.0
C863 C 0.03864 0.14491 0.53727 0.0
H864 H 0.65387 0.3416 0.44247 0.0
H865 H 0.60705 0.28716 0.49997 0.0
H866 H 0.63063 0.38303 0.4624 0.0
H867 H 0.58422 0.32863 0.52026 0.0
H868 H 0.52008 0.40389 0.51001 0.0
H869 H 0.5484 0.36191 0.50143 0.0
H870 H 0.62529 0.41283 0.50603 0.0
H871 H 0.59667 0.45513 0.51458 0.0
C872 C 0.63875 0.3385 0.45948 0.0
C873 C 0.63214 0.31103 0.46945 0.0
C874 C 0.62572 0.36227 0.47118 0.0
C875 C 0.60559 0.35915 0.49296 0.0
C876 C 0.59954 0.33175 0.50342 0.0
C877 C 0.61273 0.308 0.49188 0.0
C878 C 0.54308 0.40602 0.5099 0.0
C879 C 0.55616 0.4328 0.51289 0.0
C880 C 0.55934 0.38192 0.50507 0.0
C881 C 0.5891 0.38404 0.50275 0.0
C882 C 0.60236 0.41058 0.50738 0.0
C883 C 0.58603 0.43474 0.51259 0.0
loop_
_geom_bond_atom_site_label_1
_geom_bond_atom_site_label_2
_geom_bond_distance
_geom_bond_site_symmetry_2
_ccdc_geom_bond_type
C0 C1 1.264 . S
C0 C5 1.479 . S
C0 C10 1.465 . S
C1 C0 1.264 . S
C1 C3 1.339 . S
C1 H28 0.931 . S
C2 C3 1.395 . S
C2 C4 1.320 . S
C3 C1 1.339 . S
C3 C2 1.395 . S
C3 H29 0.929 . S
C4 C2 1.320 . S
C4 C5 1.405 . S
C4 H30 0.930 . S
C5 C0 1.479 . S
C5 C4 1.405 . S
C5 H31 0.931 . S
U6 O7 2.454 . S
U6 O8 2.458 . S
U6 C9 2.984 . S
U6 C10 2.847 . S
U6 C23 2.882 . S
U6 O24 2.441 . S
U6 O25 2.420 . S
U6 O26 2.455 . S
U6 O27 2.449 . S
O7 U6 2.454 . S
O7 C9 1.353 . S
O8 U6 2.458 . S
O8 C9 1.286 . S
C9 U6 2.984 . S
C9 O7 1.353 . S
C9 O8 1.286 . S
C9 C11 1.363 . S
C10 C0 1.465 . S
C10 U6 2.847 . S
C10 O24 1.249 . S
C10 O25 1.202 . S
C11 C9 1.363 . S
C11 C13 1.408 . S
C11 C16 1.342 . S
C12 C13 1.310 . S
C12 C15 1.461 . S
C12 H32 0.932 . S
C13 C11 1.408 . S
C13 C12 1.310 . S
C13 H33 0.930 . S
C14 C15 1.474 . S
C14 C16 1.285 . S
C14 H34 0.929 . S
C15 C12 1.461 . S
C15 C14 1.474 . S
C16 C11 1.342 . S
C16 C14 1.285 . S
C16 H35 0.930 . S
C17 C20 1.424 . S
C17 C22 1.245 . S
C17 C23 1.428 . S
C18 C21 1.260 . S
C18 C22 1.477 . S
C18 H36 0.932 . S
C19 C20 1.384 . S
C19 C21 1.479 . S
C19 H37 0.929 . S
C20 C17 1.424 . S
C20 C19 1.384 . S
C20 H38 0.928 . S
C21 C18 1.260 . S
C21 C19 1.479 . S
C22 C17 1.245 . S
C22 C18 1.477 . S
C22 H39 0.932 . S
C23 U6 2.882 . S
C23 C17 1.428 . S
C23 O26 1.301 . S
C23 O27 1.282 . S
O24 U6 2.441 . S
O24 C10 1.249 . S
O25 U6 2.420 . S
O25 C10 1.202 . S
O26 U6 2.455 . S
O26 C23 1.301 . S
O27 U6 2.449 . S
O27 C23 1.282 . S
H28 C1 0.931 . S
H29 C3 0.929 . S
H30 C4 0.930 . S
H31 C5 0.931 . S
H32 C12 0.932 . S
H33 C13 0.930 . S
H34 C14 0.929 . S
H35 C16 0.930 . S
H36 C18 0.932 . S
H37 C19 0.929 . S
H38 C20 0.928 . S
H39 C22 0.932 . S
C40 C41 1.264 . S
C40 C45 1.479 . S
C40 C50 1.465 . S
C41 C40 1.264 . S
C41 C43 1.339 . S
C41 H68 0.931 . S
C42 C43 1.395 . S
C42 C44 1.320 . S
C43 C41 1.339 . S
C43 C42 1.395 . S
C43 H69 0.929 . S
C44 C42 1.320 . S
C44 C45 1.405 . S
C44 H70 0.930 . S
C45 C40 1.479 . S
C45 C44 1.405 . S
C45 H71 0.931 . S
U46 O47 2.454 . S
U46 O48 2.458 . S
U46 C49 2.984 . S
U46 C50 2.847 . S
U46 C63 2.882 . S
U46 O64 2.441 . S
U46 O65 2.420 . S
U46 O66 2.455 . S
U46 O67 2.449 . S
O47 U46 2.454 . S
O47 C49 1.353 . S
O48 U46 2.458 . S
O48 C49 1.286 . S
C49 U46 2.984 . S
C49 O47 1.353 . S
C49 O48 1.286 . S
C49 C51 1.363 . S
C50 C40 1.465 . S
C50 U46 2.847 . S
C50 O64 1.249 . S
C50 O65 1.202 . S
C51 C49 1.363 . S
C51 C53 1.408 . S
C51 C56 1.342 . S
C52 C53 1.310 . S
C52 C55 1.461 . S
C52 H72 0.932 . S
C53 C51 1.408 . S
C53 C52 1.310 . S
C53 H73 0.930 . S
C54 C55 1.474 . S
C54 C56 1.285 . S
C54 H74 0.929 . S
C55 C52 1.461 . S
C55 C54 1.474 . S
C56 C51 1.342 . S
C56 C54 1.285 . S
C56 H75 0.930 . S
C57 C60 1.424 . S
C57 C62 1.245 . S
C57 C63 1.428 . S
C58 C61 1.260 . S
C58 C62 1.477 . S
C58 H76 0.932 . S
C59 C60 1.384 . S
C59 C61 1.479 . S
C59 H77 0.929 . S
C60 C57 1.424 . S
C60 C59 1.384 . S
C60 H78 0.928 . S
C61 C58 1.260 . S
C61 C59 1.479 . S
C62 C57 1.245 . S
C62 C58 1.477 . S
C62 H79 0.932 . S
C63 U46 2.882 . S
C63 C57 1.428 . S
C63 O66 1.301 . S
C63 O67 1.282 . S
O64 U46 2.441 . S
O64 C50 1.249 . S
O65 U46 2.420 . S
O65 C50 1.202 . S
O66 U46 2.455 . S
O66 C63 1.301 . S
O67 U46 2.449 . S
O67 C63 1.282 . S
H68 C41 0.931 . S
H69 C43 0.929 . S
H70 C44 0.930 . S
H71 C45 0.931 . S
H72 C52 0.932 . S
H73 C53 0.930 . S
H74 C54 0.929 . S
H75 C56 0.930 . S
H76 C58 0.932 . S
H77 C59 0.929 . S
H78 C60 0.928 . S
H79 C62 0.932 . S
C80 C81 1.264 . S
C80 C85 1.479 . S
C80 C90 1.465 . S
C81 C80 1.264 . S
C81 C83 1.339 . S
C81 H108 0.931 . S
C82 C83 1.395 . S
C82 C84 1.320 . S
C83 C81 1.339 . S
C83 C82 1.395 . S
C83 H109 0.929 . S
C84 C82 1.320 . S
C84 C85 1.405 . S
C84 H110 0.930 . S
C85 C80 1.479 . S
C85 C84 1.405 . S
C85 H111 0.931 . S
U86 O87 2.454 . S
U86 O88 2.458 . S
U86 C89 2.984 . S
U86 C90 2.847 . S
U86 C103 2.882 . S
U86 O104 2.441 . S
U86 O105 2.420 . S
U86 O106 2.455 . S
U86 O107 2.449 . S
O87 U86 2.454 . S
O87 C89 1.353 . S
O88 U86 2.458 . S
O88 C89 1.286 . S
C89 U86 2.984 . S
C89 O87 1.353 . S
C89 O88 1.286 . S
C89 C91 1.363 . S
C90 C80 1.465 . S
C90 U86 2.847 . S
C90 O104 1.249 . S
C90 O105 1.202 . S
C91 C89 1.363 . S
C91 C93 1.408 . S
C91 C96 1.342 . S
C92 C93 1.310 . S
C92 C95 1.461 . S
C92 H112 0.932 . S
C93 C91 1.408 . S
C93 C92 1.310 . S
C93 H113 0.930 . S
C94 C95 1.474 . S
C94 C96 1.285 . S
C94 H114 0.929 . S
C95 C92 1.461 . S
C95 C94 1.474 . S
C96 C91 1.342 . S
C96 C94 1.285 . S
C96 H115 0.930 . S
C97 C100 1.424 . S
C97 C102 1.245 . S
C97 C103 1.428 . S
C98 C101 1.260 . S
C98 C102 1.477 . S
C98 H116 0.932 . S
C99 C100 1.384 . S
C99 C101 1.479 . S
C99 H117 0.929 . S
C100 C97 1.424 . S
C100 C99 1.384 . S
C100 H118 0.928 . S
C101 C98 1.260 . S
C101 C99 1.479 . S
C102 C97 1.245 . S
C102 C98 1.477 . S
C102 H119 0.932 . S
C103 U86 2.882 . S
C103 C97 1.428 . S
C103 O106 1.301 . S
C103 O107 1.282 . S
O104 U86 2.441 . S
O104 C90 1.249 . S
O105 U86 2.420 . S
O105 C90 1.202 . S
O106 U86 2.455 . S
O106 C103 1.301 . S
O107 U86 2.449 . S
O107 C103 1.282 . S
H108 C81 0.931 . S
H109 C83 0.929 . S
H110 C84 0.930 . S
H111 C85 0.931 . S
H112 C92 0.932 . S
H113 C93 0.930 . S
H114 C94 0.929 . S
H115 C96 0.930 . S
H116 C98 0.932 . S
H117 C99 0.929 . S
H118 C100 0.928 . S
H119 C102 0.932 . S
C120 C121 1.264 . S
C120 C125 1.479 . S
C120 C130 1.465 . S
C121 C120 1.264 . S
C121 C123 1.339 . S
C121 H148 0.931 . S
C122 C123 1.395 . S
C122 C124 1.320 . S
C123 C121 1.339 . S
C123 C122 1.395 . S
C123 H149 0.929 . S
C124 C122 1.320 . S
C124 C125 1.405 . S
C124 H150 0.930 . S
C125 C120 1.479 . S
C125 C124 1.405 . S
C125 H151 0.931 . S
U126 O127 2.454 . S
U126 O128 2.458 . S
U126 C129 2.984 . S
U126 C130 2.847 . S
U126 C143 2.882 . S
U126 O144 2.441 . S
U126 O145 2.420 . S
U126 O146 2.455 . S
U126 O147 2.449 . S
O127 U126 2.454 . S
O127 C129 1.353 . S
O128 U126 2.458 . S
O128 C129 1.286 . S
C129 U126 2.984 . S
C129 O127 1.353 . S
C129 O128 1.286 . S
C129 C131 1.363 . S
C130 C120 1.465 . S
C130 U126 2.847 . S
C130 O144 1.249 . S
C130 O145 1.202 . S
C131 C129 1.363 . S
C131 C133 1.408 . S
C131 C136 1.342 . S
C132 C133 1.310 . S
C132 C135 1.461 . S
C132 H152 0.932 . S
C133 C131 1.408 . S
C133 C132 1.310 . S
C133 H153 0.930 . S
C134 C135 1.474 . S
C134 C136 1.285 . S
C134 H154 0.929 . S
C135 C132 1.461 . S
C135 C134 1.474 . S
C136 C131 1.342 . S
C136 C134 1.285 . S
C136 H155 0.930 . S
C137 C140 1.424 . S
C137 C142 1.245 . S
C137 C143 1.428 . S
C138 C141 1.260 . S
C138 C142 1.477 . S
C138 H156 0.932 . S
C139 C140 1.384 . S
C139 C141 1.479 . S
C139 H157 0.929 . S
C140 C137 1.424 . S
C140 C139 1.384 . S
C140 H158 0.928 . S
C141 C138 1.260 . S
C141 C139 1.479 . S
C142 C137 1.245 . S
C142 C138 1.477 . S
C142 H159 0.932 . S
C143 U126 2.882 . S
C143 C137 1.428 . S
C143 O146 1.301 . S
C143 O147 1.282 . S
O144 U126 2.441 . S
O144 C130 1.249 . S
O145 U126 2.420 . S
O145 C130 1.202 . S
O146 U126 2.455 . S
O146 C143 1.301 . S
O147 U126 2.449 . S
O147 C143 1.282 . S
H148 C121 0.931 . S
H149 C123 0.929 . S
H150 C124 0.930 . S
H151 C125 0.931 . S
H152 C132 0.932 . S
H153 C133 0.930 . S
H154 C134 0.929 . S
H155 C136 0.930 . S
H156 C138 0.932 . S
H157 C139 0.929 . S
H158 C140 0.928 . S
H159 C142 0.932 . S
C160 C161 1.264 . S
C160 C165 1.479 . S
C160 C170 1.465 . S
C161 C160 1.264 . S
C161 C163 1.339 1_655 S
C161 H188 0.931 . S
C162 C163 1.395 1_655 S
C162 C164 1.320 . S
C163 C161 1.339 1_455 S
C163 C162 1.395 1_455 S
C163 H189 0.929 . S
C164 C162 1.320 . S
C164 C165 1.405 . S
C164 H190 0.930 1_556 S
C165 C160 1.479 . S
C165 C164 1.405 . S
C165 H191 0.931 . S
U166 O167 2.454 . S
U166 O168 2.458 . S
U166 C169 2.984 . S
U166 C170 2.847 . S
U166 C183 2.882 . S
U166 O184 2.441 . S
U166 O185 2.420 . S
U166 O186 2.455 . S
U166 O187 2.449 . S
O167 U166 2.454 . S
O167 C169 1.353 . S
O168 U166 2.458 . S
O168 C169 1.286 . S
C169 U166 2.984 . S
C169 O167 1.353 . S
C169 O168 1.286 . S
C169 C171 1.363 . S
C170 C160 1.465 . S
C170 U166 2.847 . S
C170 O184 1.249 . S
C170 O185 1.202 . S
C171 C169 1.363 . S
C171 C173 1.408 . S
C171 C176 1.342 . S
C172 C173 1.310 1_554 S
C172 C175 1.461 1_554 S
C172 H192 0.932 . S
C173 C171 1.408 . S
C173 C172 1.310 1_556 S
C173 H193 0.930 . S
C174 C175 1.474 . S
C174 C176 1.285 . S
C174 H194 0.929 1_565 S
C175 C172 1.461 1_556 S
C175 C174 1.474 . S
C176 C171 1.342 . S
C176 C174 1.285 . S
C176 H195 0.930 . S
C177 C180 1.424 . S
C177 C182 1.245 . S
C177 C183 1.428 . S
C178 C181 1.260 . S
C178 C182 1.477 . S
C178 H196 0.932 1_565 S
C179 C180 1.384 . S
C179 C181 1.479 . S
C179 H197 0.929 1_655 S
C180 C177 1.424 . S
C180 C179 1.384 . S
C180 H198 0.928 . S
C181 C178 1.260 . S
C181 C179 1.479 . S
C182 C177 1.245 . S
C182 C178 1.477 . S
C182 H199 0.932 . S
C183 U166 2.882 . S
C183 C177 1.428 . S
C183 O186 1.301 . S
C183 O187 1.282 . S
O184 U166 2.441 . S
O184 C170 1.249 . S
O185 U166 2.420 . S
O185 C170 1.202 . S
O186 U166 2.455 . S
O186 C183 1.301 . S
O187 U166 2.449 . S
O187 C183 1.282 . S
H188 C161 0.931 . S
H189 C163 0.929 . S
H190 C164 0.930 1_554 S
H191 C165 0.931 . S
H192 C172 0.932 . S
H193 C173 0.930 . S
H194 C174 0.929 1_545 S
H195 C176 0.930 . S
H196 C178 0.932 1_545 S
H197 C179 0.929 1_455 S
H198 C180 0.928 . S
H199 C182 0.932 . S
C200 C201 1.264 . S
C200 C205 1.479 . S
C200 C210 1.465 . S
C201 C200 1.264 . S
C201 C203 1.339 . S
C201 H228 0.931 . S
C202 C203 1.395 . S
C202 C204 1.320 . S
C203 C201 1.339 . S
C203 C202 1.395 . S
C203 H229 0.929 . S
C204 C202 1.320 . S
C204 C205 1.405 . S
C204 H230 0.930 . S
C205 C200 1.479 . S
C205 C204 1.405 . S
C205 H231 0.931 . S
U206 O207 2.454 . S
U206 O208 2.458 . S
U206 C209 2.984 . S
U206 C210 2.847 . S
U206 C223 2.882 . S
U206 O224 2.441 . S
U206 O225 2.420 . S
U206 O226 2.455 . S
U206 O227 2.449 . S
O207 U206 2.454 . S
O207 C209 1.353 . S
O208 U206 2.458 . S
O208 C209 1.286 . S
C209 U206 2.984 . S
C209 O207 1.353 . S
C209 O208 1.286 . S
C209 C211 1.363 . S
C210 C200 1.465 . S
C210 U206 2.847 . S
C210 O224 1.249 . S
C210 O225 1.202 . S
C211 C209 1.363 . S
C211 C213 1.408 . S
C211 C216 1.342 . S
C212 C213 1.310 . S
C212 C215 1.461 . S
C212 H232 0.932 . S
C213 C211 1.408 . S
C213 C212 1.310 . S
C213 H233 0.930 . S
C214 C215 1.474 . S
C214 C216 1.285 . S
C214 H234 0.929 . S
C215 C212 1.461 . S
C215 C214 1.474 . S
C216 C211 1.342 . S
C216 C214 1.285 . S
C216 H235 0.930 . S
C217 C220 1.424 . S
C217 C222 1.245 . S
C217 C223 1.428 . S
C218 C221 1.260 . S
C218 C222 1.477 . S
C218 H236 0.932 . S
C219 C220 1.384 . S
C219 C221 1.479 . S
C219 H237 0.929 . S
C220 C217 1.424 . S
C220 C219 1.384 . S
C220 H238 0.928 . S
C221 C218 1.260 . S
C221 C219 1.479 . S
C222 C217 1.245 . S
C222 C218 1.477 . S
C222 H239 0.932 . S
C223 U206 2.882 . S
C223 C217 1.428 . S
C223 O226 1.301 . S
C223 O227 1.282 . S
O224 U206 2.441 . S
O224 C210 1.249 . S
O225 U206 2.420 . S
O225 C210 1.202 . S
O226 U206 2.455 . S
O226 C223 1.301 . S
O227 U206 2.449 . S
O227 C223 1.282 . S
H228 C201 0.931 . S
H229 C203 0.929 . S
H230 C204 0.930 . S
H231 C205 0.931 . S
H232 C212 0.932 . S
H233 C213 0.930 . S
H234 C214 0.929 . S
H235 C216 0.930 . S
H236 C218 0.932 . S
H237 C219 0.929 . S
H238 C220 0.928 . S
H239 C222 0.932 . S
C240 C241 1.264 . S
C240 C245 1.479 . S
C240 C250 1.465 . S
C241 C240 1.264 . S
C241 C243 1.339 . S
C241 H268 0.931 . S
C242 C243 1.395 . S
C242 C244 1.320 . S
C243 C241 1.339 . S
C243 C242 1.395 . S
C243 H269 0.929 . S
C244 C242 1.320 . S
C244 C245 1.405 . S
C244 H270 0.930 . S
C245 C240 1.479 . S
C245 C244 1.405 . S
C245 H271 0.931 . S
U246 O247 2.454 . S
U246 O248 2.458 . S
U246 C249 2.984 . S
U246 C250 2.847 . S
U246 C263 2.882 . S
U246 O264 2.441 . S
U246 O265 2.420 . S
U246 O266 2.455 . S
U246 O267 2.449 . S
O247 U246 2.454 . S
O247 C249 1.353 . S
O248 U246 2.458 . S
O248 C249 1.286 . S
C249 U246 2.984 . S
C249 O247 1.353 . S
C249 O248 1.286 . S
C249 C251 1.363 . S
C250 C240 1.465 . S
C250 U246 2.847 . S
C250 O264 1.249 . S
C250 O265 1.202 . S
C251 C249 1.363 . S
C251 C253 1.408 . S
C251 C256 1.342 . S
C252 C253 1.310 . S
C252 C255 1.461 . S
C252 H272 0.932 . S
C253 C251 1.408 . S
C253 C252 1.310 . S
C253 H273 0.930 . S
C254 C255 1.474 . S
C254 C256 1.285 . S
C254 H274 0.929 . S
C255 C252 1.461 . S
C255 C254 1.474 . S
C256 C251 1.342 . S
C256 C254 1.285 . S
C256 H275 0.930 . S
C257 C260 1.424 . S
C257 C262 1.245 . S
C257 C263 1.428 . S
C258 C261 1.260 . S
C258 C262 1.477 . S
C258 H276 0.932 . S
C259 C260 1.384 . S
C259 C261 1.479 . S
C259 H277 0.929 . S
C260 C257 1.424 . S
C260 C259 1.384 . S
C260 H278 0.928 . S
C261 C258 1.260 . S
C261 C259 1.479 . S
C262 C257 1.245 . S
C262 C258 1.477 . S
C262 H279 0.932 . S
C263 U246 2.882 . S
C263 C257 1.428 . S
C263 O266 1.301 . S
C263 O267 1.282 . S
O264 U246 2.441 . S
O264 C250 1.249 . S
O265 U246 2.420 . S
O265 C250 1.202 . S
O266 U246 2.455 . S
O266 C263 1.301 . S
O267 U246 2.449 . S
O267 C263 1.282 . S
H268 C241 0.931 . S
H269 C243 0.929 . S
H270 C244 0.930 . S
H271 C245 0.931 . S
H272 C252 0.932 . S
H273 C253 0.930 . S
H274 C254 0.929 . S
H275 C256 0.930 . S
H276 C258 0.932 . S
H277 C259 0.929 . S
H278 C260 0.928 . S
H279 C262 0.932 . S
C280 C281 1.264 . S
C280 C285 1.479 . S
C280 C290 1.465 . S
C281 C280 1.264 . S
C281 C283 1.339 . S
C281 H308 0.931 . S
C282 C283 1.395 . S
C282 C284 1.320 . S
C283 C281 1.339 . S
C283 C282 1.395 . S
C283 H309 0.929 . S
C284 C282 1.320 . S
C284 C285 1.405 . S
C284 H310 0.930 . S
C285 C280 1.479 . S
C285 C284 1.405 . S
C285 H311 0.931 . S
U286 O287 2.454 . S
U286 O288 2.458 . S
U286 C289 2.984 . S
U286 C290 2.847 . S
U286 C303 2.882 . S
U286 O304 2.441 . S
U286 O305 2.420 . S
U286 O306 2.455 . S
U286 O307 2.449 . S
O287 U286 2.454 . S
O287 C289 1.353 . S
O288 U286 2.458 . S
O288 C289 1.286 . S
C289 U286 2.984 . S
C289 O287 1.353 . S
C289 O288 1.286 . S
C289 C291 1.363 . S
C290 C280 1.465 . S
C290 U286 2.847 . S
C290 O304 1.249 . S
C290 O305 1.202 . S
C291 C289 1.363 . S
C291 C293 1.408 . S
C291 C296 1.342 . S
C292 C293 1.310 . S
C292 C295 1.461 . S
C292 H312 0.932 . S
C293 C291 1.408 . S
C293 C292 1.310 . S
C293 H313 0.930 . S
C294 C295 1.474 . S
C294 C296 1.285 . S
C294 H314 0.929 . S
C295 C292 1.461 . S
C295 C294 1.474 . S
C296 C291 1.342 . S
C296 C294 1.285 . S
C296 H315 0.930 . S
C297 C300 1.424 . S
C297 C302 1.245 . S
C297 C303 1.428 . S
C298 C301 1.260 . S
C298 C302 1.477 . S
C298 H316 0.932 . S
C299 C300 1.384 . S
C299 C301 1.479 . S
C299 H317 0.929 . S
C300 C297 1.424 . S
C300 C299 1.384 . S
C300 H318 0.928 . S
C301 C298 1.260 . S
C301 C299 1.479 . S
C302 C297 1.245 . S
C302 C298 1.477 . S
C302 H319 0.932 . S
C303 U286 2.882 . S
C303 C297 1.428 . S
C303 O306 1.301 . S
C303 O307 1.282 . S
O304 U286 2.441 . S
O304 C290 1.249 . S
O305 U286 2.420 . S
O305 C290 1.202 . S
O306 U286 2.455 . S
O306 C303 1.301 . S
O307 U286 2.449 . S
O307 C303 1.282 . S
H308 C281 0.931 . S
H309 C283 0.929 . S
H310 C284 0.930 . S
H311 C285 0.931 . S
H312 C292 0.932 . S
H313 C293 0.930 . S
H314 C294 0.929 . S
H315 C296 0.930 . S
H316 C298 0.932 . S
H317 C299 0.929 . S
H318 C300 0.928 . S
H319 C302 0.932 . S
Zn320 O326 1.920 . S
Zn320 O332 1.898 . S
Zn320 O335 1.905 . S
Zn321 O329 1.905 1_565 S
Zn321 O330 1.898 . S
Zn321 O338 1.920 . S
Zn322 O325 2.080 1_455 S
Zn322 O328 2.114 . S
Zn322 O331 2.120 1_445 S
Zn322 O333 2.120 . S
Zn322 O334 2.114 1_455 S
Zn322 O337 2.080 . S
C323 O328 1.166 . S
C323 O329 1.182 . S
C324 O330 1.167 1_655 S
C324 O331 1.299 . S
O325 Zn322 2.080 1_655 S
O325 C339 1.305 . S
O326 Zn320 1.920 . S
O326 C339 1.234 . S
C327 O332 1.167 1_455 S
C327 O333 1.299 . S
O328 Zn322 2.114 . S
O328 C323 1.166 . S
O329 Zn321 1.905 1_545 S
O329 C323 1.182 . S
O330 Zn321 1.898 . S
O330 C324 1.167 1_455 S
O331 Zn322 2.120 1_665 S
O331 C324 1.299 . S
O332 Zn320 1.898 . S
O332 C327 1.167 1_655 S
O333 Zn322 2.120 . S
O333 C327 1.299 . S
O334 Zn322 2.114 1_655 S
O334 C336 1.166 . S
O335 Zn320 1.905 . S
O335 C336 1.182 . S
C336 O334 1.166 . S
C336 O335 1.182 . S
O337 Zn322 2.080 . S
O337 C340 1.305 1_545 S
O338 Zn321 1.920 . S
O338 C340 1.234 . S
C339 O325 1.305 . S
C339 O326 1.234 . S
C340 O337 1.305 1_565 S
C340 O338 1.234 . S
Zn341 O347 1.920 1_556 S
Zn341 O353 1.898 . S
Zn341 O356 1.905 . S
Zn342 O350 1.905 . S
Zn342 O351 1.898 . S
Zn342 O359 1.920 . S
Zn343 O346 2.080 . S
Zn343 O349 2.114 1_545 S
Zn343 O352 2.120 1_545 S
Zn343 O354 2.120 . S
Zn343 O355 2.114 1_544 S
Zn343 O358 2.080 . S
C344 O349 1.166 . S
C344 O350 1.182 . S
C345 O351 1.167 . S
C345 O352 1.299 . S
O346 Zn343 2.080 . S
O346 C360 1.305 . S
O347 Zn341 1.920 1_554 S
O347 C360 1.234 . S
C348 O353 1.167 . S
C348 O354 1.299 1_556 S
O349 Zn343 2.114 1_565 S
O349 C344 1.166 . S
O350 Zn342 1.905 . S
O350 C344 1.182 . S
O351 Zn342 1.898 . S
O351 C345 1.167 . S
O352 Zn343 2.120 1_565 S
O352 C345 1.299 . S
O353 Zn341 1.898 . S
O353 C348 1.167 . S
O354 Zn343 2.120 . S
O354 C348 1.299 1_554 S
O355 Zn343 2.114 1_566 S
O355 C357 1.166 . S
O356 Zn341 1.905 . S
O356 C357 1.182 1_545 S
C357 O355 1.166 . S
C357 O356 1.182 1_565 S
O358 Zn343 2.080 . S
O358 C361 1.305 . S
O359 Zn342 1.920 . S
O359 C361 1.234 1_565 S
C360 O346 1.305 . S
C360 O347 1.234 . S
C361 O358 1.305 . S
C361 O359 1.234 1_545 S
Zn362 O368 1.920 . S
Zn362 O374 1.898 . S
Zn362 O377 1.905 . S
Zn363 O371 1.905 . S
Zn363 O372 1.898 . S
Zn363 O380 1.920 . S
Zn364 O367 2.080 . S
Zn364 O370 2.114 . S
Zn364 O373 2.120 . S
Zn364 O375 2.120 . S
Zn364 O376 2.114 . S
Zn364 O379 2.080 . S
C365 O370 1.166 . S
C365 O371 1.182 . S
C366 O372 1.167 . S
C366 O373 1.299 . S
O367 Zn364 2.080 . S
O367 C381 1.305 . S
O368 Zn362 1.920 . S
O368 C381 1.234 . S
C369 O374 1.167 . S
C369 O375 1.299 . S
O370 Zn364 2.114 . S
O370 C365 1.166 . S
O371 Zn363 1.905 . S
O371 C365 1.182 . S
O372 Zn363 1.898 . S
O372 C366 1.167 . S
O373 Zn364 2.120 . S
O373 C366 1.299 . S
O374 Zn362 1.898 . S
O374 C369 1.167 . S
O375 Zn364 2.120 . S
O375 C369 1.299 . S
O376 Zn364 2.114 . S
O376 C378 1.166 . S
O377 Zn362 1.905 . S
O377 C378 1.182 . S
C378 O376 1.166 . S
C378 O377 1.182 . S
O379 Zn364 2.080 . S
O379 C382 1.305 . S
O380 Zn363 1.920 . S
O380 C382 1.234 . S
C381 O367 1.305 . S
C381 O368 1.234 . S
C382 O379 1.305 . S
C382 O380 1.234 . S
Zn383 O389 1.920 . S
Zn383 O395 1.898 . S
Zn383 O398 1.905 . S
Zn384 O392 1.905 1_655 S
Zn384 O393 1.898 . S
Zn384 O401 1.920 . S
Zn385 O388 2.080 1_554 S
Zn385 O391 2.114 . S
Zn385 O394 2.120 1_454 S
Zn385 O396 2.120 . S
Zn385 O397 2.114 1_554 S
Zn385 O400 2.080 . S
C386 O391 1.166 . S
C386 O392 1.182 . S
C387 O393 1.167 1_556 S
C387 O394 1.299 . S
O388 Zn385 2.080 1_556 S
O388 C402 1.305 . S
O389 Zn383 1.920 . S
O389 C402 1.234 . S
C390 O395 1.167 1_554 S
C390 O396 1.299 . S
O391 Zn385 2.114 . S
O391 C386 1.166 . S
O392 Zn384 1.905 1_455 S
O392 C386 1.182 . S
O393 Zn384 1.898 . S
O393 C387 1.167 1_554 S
O394 Zn385 2.120 1_656 S
O394 C387 1.299 . S
O395 Zn383 1.898 . S
O395 C390 1.167 1_556 S
O396 Zn385 2.120 . S
O396 C390 1.299 . S
O397 Zn385 2.114 1_556 S
O397 C399 1.166 . S
O398 Zn383 1.905 . S
O398 C399 1.182 . S
C399 O397 1.166 . S
C399 O398 1.182 . S
O400 Zn385 2.080 . S
O400 C403 1.305 1_455 S
O401 Zn384 1.920 . S
O401 C403 1.234 . S
C402 O388 1.305 . S
C402 O389 1.234 . S
C403 O400 1.305 1_655 S
C403 O401 1.234 . S
H404 C412 0.950 . S
H405 C417 0.950 . S
H406 C414 0.950 . S
H407 C416 0.950 . S
H408 C418 0.950 . S
H409 C420 0.950 . S
H410 C422 0.950 . S
H411 C423 0.950 . S
C412 H404 0.950 . S
C412 C413 1.386 . S
C412 C414 1.391 . S
C413 C412 1.386 . S
C413 C417 1.393 . S
C414 H406 0.950 . S
C414 C412 1.391 . S
C414 C415 1.400 . S
C415 C414 1.400 . S
C415 C416 1.398 . S
C415 C421 1.491 . S
C416 H407 0.950 . S
C416 C415 1.398 . S
C416 C417 1.391 . S
C417 H405 0.950 . S
C417 C413 1.393 . S
C417 C416 1.391 . S
C418 H408 0.950 . S
C418 C419 1.386 . S
C418 C420 1.391 . S
C419 C418 1.386 . S
C419 C423 1.393 . S
C420 H409 0.950 . S
C420 C418 1.391 . S
C420 C421 1.400 . S
C421 C415 1.491 . S
C421 C420 1.400 . S
C421 C422 1.398 . S
C422 H410 0.950 . S
C422 C421 1.398 . S
C422 C423 1.391 . S
C423 H411 0.950 . S
C423 C419 1.393 . S
C423 C422 1.391 . S
H424 C432 0.950 . S
H425 C437 0.950 . S
H426 C434 0.950 . S
H427 C436 0.950 . S
H428 C438 0.950 . S
H429 C440 0.950 . S
H430 C442 0.950 . S
H431 C443 0.950 . S
C432 H424 0.950 . S
C432 C433 1.386 . S
C432 C434 1.391 . S
C433 C432 1.386 . S
C433 C437 1.393 . S
C434 H426 0.950 . S
C434 C432 1.391 . S
C434 C435 1.400 . S
C435 C434 1.400 . S
C435 C436 1.398 . S
C435 C441 1.491 . S
C436 H427 0.950 . S
C436 C435 1.398 . S
C436 C437 1.391 . S
C437 H425 0.950 . S
C437 C433 1.393 . S
C437 C436 1.391 . S
C438 H428 0.950 . S
C438 C439 1.386 . S
C438 C440 1.391 . S
C439 C438 1.386 . S
C439 C443 1.393 . S
C440 H429 0.950 . S
C440 C438 1.391 . S
C440 C441 1.400 . S
C441 C435 1.491 . S
C441 C440 1.400 . S
C441 C442 1.398 . S
C442 H430 0.950 . S
C442 C441 1.398 . S
C442 C443 1.391 . S
C443 H431 0.950 . S
C443 C439 1.393 . S
C443 C442 1.391 . S
H444 C452 0.950 . S
H445 C457 0.950 . S
H446 C454 0.950 . S
H447 C456 0.950 . S
H448 C458 0.950 . S
H449 C460 0.950 . S
H450 C462 0.950 . S
H451 C463 0.950 . S
C452 H444 0.950 . S
C452 C453 1.386 . S
C452 C454 1.391 . S
C453 C452 1.386 . S
C453 C457 1.393 . S
C454 H446 0.950 . S
C454 C452 1.391 . S
C454 C455 1.400 . S
C455 C454 1.400 . S
C455 C456 1.398 . S
C455 C461 1.491 . S
C456 H447 0.950 . S
C456 C455 1.398 . S
C456 C457 1.391 . S
C457 H445 0.950 . S
C457 C453 1.393 . S
C457 C456 1.391 . S
C458 H448 0.950 . S
C458 C459 1.386 . S
C458 C460 1.391 . S
C459 C458 1.386 . S
C459 C463 1.393 . S
C460 H449 0.950 . S
C460 C458 1.391 . S
C460 C461 1.400 . S
C461 C455 1.491 . S
C461 C460 1.400 . S
C461 C462 1.398 . S
C462 H450 0.950 . S
C462 C461 1.398 . S
C462 C463 1.391 . S
C463 H451 0.950 . S
C463 C459 1.393 . S
C463 C462 1.391 . S
H464 C472 0.950 . S
H465 C477 0.950 . S
H466 C474 0.950 . S
H467 C476 0.950 . S
H468 C478 0.980 . S
H469 C480 0.950 . S
H470 C482 0.950 . S
H471 C483 0.950 . S
C472 H464 0.950 . S
C472 C473 1.386 . S
C472 C474 1.391 . S
C473 C472 1.386 . S
C473 C477 1.393 . S
C474 H466 0.950 . S
C474 C472 1.391 . S
C474 C475 1.400 . S
C475 C474 1.400 . S
C475 C476 1.398 . S
C475 C481 1.491 . S
C476 H467 0.950 . S
C476 C475 1.398 . S
C476 C477 1.391 . S
C477 H465 0.950 . S
C477 C473 1.393 . S
C477 C476 1.391 . S
C478 H468 0.980 . S
C478 C479 1.373 1_455 S
C478 C480 1.375 1_455 S
C479 C478 1.373 1_655 S
C479 C483 1.393 . S
C480 H469 0.950 . S
C480 C478 1.375 1_655 S
C480 C481 1.400 . S
C481 C475 1.491 . S
C481 C480 1.400 . S
C481 C482 1.398 . S
C482 H470 0.950 . S
C482 C481 1.398 . S
C482 C483 1.391 . S
C483 H471 0.950 . S
C483 C479 1.393 . S
C483 C482 1.391 . S
H484 C492 0.950 . S
H485 C497 0.950 . S
H486 C494 0.950 . S
H487 C496 0.950 . S
H488 C498 0.950 . S
H489 C500 0.950 . S
H490 C502 0.950 . S
H491 C503 0.950 . S
C492 H484 0.950 . S
C492 C493 1.386 . S
C492 C494 1.391 . S
C493 C492 1.386 . S
C493 C497 1.393 . S
C494 H486 0.950 . S
C494 C492 1.391 . S
C494 C495 1.400 . S
C495 C494 1.400 . S
C495 C496 1.398 . S
C495 C501 1.491 . S
C496 H487 0.950 . S
C496 C495 1.398 . S
C496 C497 1.391 . S
C497 H485 0.950 . S
C497 C493 1.393 . S
C497 C496 1.391 . S
C498 H488 0.950 . S
C498 C499 1.386 . S
C498 C500 1.391 . S
C499 C498 1.386 . S
C499 C503 1.393 . S
C500 H489 0.950 . S
C500 C498 1.391 . S
C500 C501 1.400 . S
C501 C495 1.491 . S
C501 C500 1.400 . S
C501 C502 1.398 . S
C502 H490 0.950 . S
C502 C501 1.398 . S
C502 C503 1.391 . S
C503 H491 0.950 . S
C503 C499 1.393 . S
C503 C502 1.391 . S
H504 C512 0.950 . S
H505 C517 0.950 . S
H506 C514 0.950 . S
H507 C516 0.950 . S
H508 C518 0.960 . S
H509 C520 0.950 . S
H510 C522 0.950 . S
H511 C523 0.950 . S
C512 H504 0.950 . S
C512 C513 1.386 . S
C512 C514 1.391 . S
C513 C512 1.386 . S
C513 C517 1.393 . S
C514 H506 0.950 . S
C514 C512 1.391 . S
C514 C515 1.400 . S
C515 C514 1.400 . S
C515 C516 1.398 . S
C515 C521 1.491 . S
C516 H507 0.950 . S
C516 C515 1.398 . S
C516 C517 1.391 . S
C517 H505 0.950 . S
C517 C513 1.393 . S
C517 C516 1.391 . S
C518 H508 0.960 . S
C518 C519 1.386 . S
C518 C520 1.391 . S
C519 C518 1.386 . S
C519 C523 1.393 . S
C520 H509 0.950 . S
C520 C518 1.391 . S
C520 C521 1.400 . S
C521 C515 1.491 . S
C521 C520 1.400 . S
C521 C522 1.398 . S
C522 H510 0.950 . S
C522 C521 1.398 . S
C522 C523 1.391 . S
C523 H511 0.950 . S
C523 C519 1.393 . S
C523 C522 1.391 . S
H524 C532 0.950 . S
H525 C537 0.950 . S
H526 C534 0.950 . S
H527 C536 0.950 . S
H528 C538 0.950 . S
H529 C540 0.950 . S
H530 C542 0.950 . S
H531 C543 0.950 . S
C532 H524 0.950 . S
C532 C533 1.386 . S
C532 C534 1.391 . S
C533 C532 1.386 . S
C533 C537 1.393 . S
C534 H526 0.950 . S
C534 C532 1.391 . S
C534 C535 1.400 . S
C535 C534 1.400 . S
C535 C536 1.398 . S
C535 C541 1.491 . S
C536 H527 0.950 . S
C536 C535 1.398 . S
C536 C537 1.391 . S
C537 H525 0.950 . S
C537 C533 1.393 . S
C537 C536 1.391 . S
C538 H528 0.950 . S
C538 C539 1.386 . S
C538 C540 1.391 . S
C539 C538 1.386 . S
C539 C543 1.393 . S
C540 H529 0.950 . S
C540 C538 1.391 . S
C540 C541 1.400 . S
C541 C535 1.491 . S
C541 C540 1.400 . S
C541 C542 1.398 . S
C542 H530 0.950 . S
C542 C541 1.398 . S
C542 C543 1.391 . S
C543 H531 0.950 . S
C543 C539 1.393 . S
C543 C542 1.391 . S
H544 C552 0.950 . S
H545 C557 0.950 . S
H546 C554 0.950 . S
H547 C556 0.950 . S
H548 C558 0.950 . S
H549 C560 0.950 . S
H550 C562 0.950 . S
H551 C563 0.950 . S
C552 H544 0.950 . S
C552 C553 1.386 . S
C552 C554 1.391 . S
C553 C552 1.386 . S
C553 C557 1.393 . S
C554 H546 0.950 . S
C554 C552 1.391 . S
C554 C555 1.400 . S
C555 C554 1.400 . S
C555 C556 1.398 . S
C555 C561 1.491 . S
C556 H547 0.950 . S
C556 C555 1.398 . S
C556 C557 1.391 . S
C557 H545 0.950 . S
C557 C553 1.393 . S
C557 C556 1.391 . S
C558 H548 0.950 . S
C558 C559 1.386 . S
C558 C560 1.391 . S
C559 C558 1.386 . S
C559 C563 1.393 . S
C560 H549 0.950 . S
C560 C558 1.391 . S
C560 C561 1.400 . S
C561 C555 1.491 . S
C561 C560 1.400 . S
C561 C562 1.398 . S
C562 H550 0.950 . S
C562 C561 1.398 . S
C562 C563 1.391 . S
C563 H551 0.950 . S
C563 C559 1.393 . S
C563 C562 1.391 . S
H564 C572 0.950 . S
H565 C577 0.950 . S
H566 C574 0.950 . S
H567 C576 0.950 . S
H568 C578 0.950 . S
H569 C580 0.950 . S
H570 C582 0.950 . S
H571 C583 0.950 . S
C572 H564 0.950 . S
C572 C573 1.386 . S
C572 C574 1.391 . S
C573 C572 1.386 . S
C573 C577 1.393 . S
C574 H566 0.950 . S
C574 C572 1.391 . S
C574 C575 1.400 . S
C575 C574 1.400 . S
C575 C576 1.398 . S
C575 C581 1.491 . S
C576 H567 0.950 . S
C576 C575 1.398 . S
C576 C577 1.391 . S
C577 H565 0.950 . S
C577 C573 1.393 . S
C577 C576 1.391 . S
C578 H568 0.950 . S
C578 C579 1.386 . S
C578 C580 1.391 . S
C579 C578 1.386 . S
C579 C583 1.393 . S
C580 H569 0.950 . S
C580 C578 1.391 . S
C580 C581 1.400 . S
C581 C575 1.491 . S
C581 C580 1.400 . S
C581 C582 1.398 . S
C582 H570 0.950 . S
C582 C581 1.398 . S
C582 C583 1.391 . S
C583 H571 0.950 . S
C583 C579 1.393 . S
C583 C582 1.391 . S
H584 C592 0.950 . S
H585 C597 0.950 . S
H586 C594 0.950 . S
H587 C596 0.950 . S
H588 C598 0.950 . S
H589 C600 0.950 . S
H590 C602 0.950 . S
H591 C603 0.950 . S
C592 H584 0.950 . S
C592 C593 1.386 . S
C592 C594 1.391 . S
C593 C592 1.386 . S
C593 C597 1.393 . S
C594 H586 0.950 . S
C594 C592 1.391 . S
C594 C595 1.400 . S
C595 C594 1.400 . S
C595 C596 1.398 . S
C595 C601 1.491 . S
C596 H587 0.950 . S
C596 C595 1.398 . S
C596 C597 1.391 . S
C597 H585 0.950 . S
C597 C593 1.393 . S
C597 C596 1.391 . S
C598 H588 0.950 . S
C598 C599 1.386 . S
C598 C600 1.391 . S
C599 C598 1.386 . S
C599 C603 1.393 . S
C600 H589 0.950 . S
C600 C598 1.391 . S
C600 C601 1.400 . S
C601 C595 1.491 . S
C601 C600 1.400 . S
C601 C602 1.398 . S
C602 H590 0.950 . S
C602 C601 1.398 . S
C602 C603 1.391 . S
C603 H591 0.950 . S
C603 C599 1.393 . S
C603 C602 1.391 . S
H604 C612 0.950 . S
H605 C617 0.950 . S
H606 C614 0.950 . S
H607 C616 0.950 . S
H608 C618 0.950 . S
H609 C620 0.950 . S
H610 C622 0.950 . S
H611 C623 0.950 . S
C612 H604 0.950 . S
C612 C613 1.386 . S
C612 C614 1.391 . S
C613 C612 1.386 . S
C613 C617 1.393 . S
C614 H606 0.950 . S
C614 C612 1.391 . S
C614 C615 1.400 . S
C615 C614 1.400 . S
C615 C616 1.398 . S
C615 C621 1.491 . S
C616 H607 0.950 . S
C616 C615 1.398 . S
C616 C617 1.391 . S
C617 H605 0.950 . S
C617 C613 1.393 . S
C617 C616 1.391 . S
C618 H608 0.950 . S
C618 C619 1.386 . S
C618 C620 1.391 . S
C619 C618 1.386 . S
C619 C623 1.393 . S
C620 H609 0.950 . S
C620 C618 1.391 . S
C620 C621 1.400 . S
C621 C615 1.491 . S
C621 C620 1.400 . S
C621 C622 1.398 . S
C622 H610 0.950 . S
C622 C621 1.398 . S
C622 C623 1.391 . S
C623 H611 0.950 . S
C623 C619 1.393 . S
C623 C622 1.391 . S
H624 C632 0.950 . S
H625 C637 0.950 . S
H626 C634 0.950 . S
H627 C636 0.950 . S
H628 C638 0.950 . S
H629 C640 0.950 . S
H630 C642 0.950 . S
H631 C643 0.950 . S
C632 H624 0.950 . S
C632 C633 1.386 . S
C632 C634 1.391 . S
C633 C632 1.386 . S
C633 C637 1.393 . S
C634 H626 0.950 . S
C634 C632 1.391 . S
C634 C635 1.400 . S
C635 C634 1.400 . S
C635 C636 1.398 . S
C635 C641 1.491 . S
C636 H627 0.950 . S
C636 C635 1.398 . S
C636 C637 1.391 . S
C637 H625 0.950 . S
C637 C633 1.393 . S
C637 C636 1.391 . S
C638 H628 0.950 . S
C638 C639 1.386 . S
C638 C640 1.391 . S
C639 C638 1.386 . S
C639 C643 1.393 . S
C640 H629 0.950 . S
C640 C638 1.391 . S
C640 C641 1.400 . S
C641 C635 1.491 . S
C641 C640 1.400 . S
C641 C642 1.398 . S
C642 H630 0.950 . S
C642 C641 1.398 . S
C642 C643 1.391 . S
C643 H631 0.950 . S
C643 C639 1.393 . S
C643 C642 1.391 . S
H644 C652 0.950 . S
H645 C657 0.950 . S
H646 C654 0.950 . S
H647 C656 0.950 . S
H648 C658 0.950 . S
H649 C660 0.950 . S
H650 C662 0.950 . S
H651 C663 0.950 . S
C652 H644 0.950 . S
C652 C653 1.386 1_455 S
C652 C654 1.391 . S
C653 C652 1.386 1_655 S
C653 C657 1.393 1_545 S
C654 H646 0.950 . S
C654 C652 1.391 . S
C654 C655 1.400 1_455 S
C655 C654 1.400 1_655 S
C655 C656 1.398 1_545 S
C655 C661 1.491 . S
C656 H647 0.950 . S
C656 C655 1.398 1_565 S
C656 C657 1.391 . S
C657 H645 0.950 . S
C657 C653 1.393 1_565 S
C657 C656 1.391 . S
C658 H648 0.950 . S
C658 C659 1.386 1_565 S
C658 C660 1.391 . S
C659 C658 1.386 1_545 S
C659 C663 1.393 1_655 S
C660 H649 0.950 . S
C660 C658 1.391 . S
C660 C661 1.400 1_565 S
C661 C655 1.491 . S
C661 C660 1.400 1_545 S
C661 C662 1.398 1_655 S
C662 H650 0.950 . S
C662 C661 1.398 1_455 S
C662 C663 1.391 . S
C663 H651 0.950 . S
C663 C659 1.393 1_455 S
C663 C662 1.391 . S
H664 C672 0.932 1_565 S
H665 C677 0.950 . S
H666 C674 0.950 1_565 S
H667 C676 0.950 . S
H668 C678 0.950 . S
H669 C680 0.950 . S
H670 C682 0.950 1_565 S
H671 C683 0.950 1_565 S
C672 H664 0.932 1_545 S
C672 C673 1.386 . S
C672 C674 1.391 . S
C673 C672 1.386 . S
C673 C677 1.393 . S
C674 H666 0.950 1_545 S
C674 C672 1.391 . S
C674 C675 1.400 . S
C675 C674 1.400 . S
C675 C676 1.398 . S
C675 C681 1.491 . S
C676 H667 0.950 . S
C676 C675 1.398 . S
C676 C677 1.391 . S
C677 H665 0.950 . S
C677 C673 1.393 . S
C677 C676 1.391 . S
C678 H668 0.950 . S
C678 C679 1.386 . S
C678 C680 1.391 . S
C679 C678 1.386 . S
C679 C683 1.393 . S
C680 H669 0.950 . S
C680 C678 1.391 . S
C680 C681 1.400 . S
C681 C675 1.491 . S
C681 C680 1.400 . S
C681 C682 1.398 . S
C682 H670 0.950 1_545 S
C682 C681 1.398 . S
C682 C683 1.391 . S
C683 H671 0.950 1_545 S
C683 C679 1.393 . S
C683 C682 1.391 . S
H684 C692 0.950 . S
H685 C697 0.950 . S
H686 C694 0.950 . S
H687 C696 0.950 . S
H688 C698 0.950 . S
H689 C700 0.950 . S
H690 C702 0.950 . S
H691 C703 0.950 . S
C692 H684 0.950 . S
C692 C693 1.386 . S
C692 C694 1.391 . S
C693 C692 1.386 . S
C693 C697 1.393 . S
C694 H686 0.950 . S
C694 C692 1.391 . S
C694 C695 1.400 . S
C695 C694 1.400 . S
C695 C696 1.398 . S
C695 C701 1.491 . S
C696 H687 0.950 . S
C696 C695 1.398 . S
C696 C697 1.391 . S
C697 H685 0.950 . S
C697 C693 1.393 . S
C697 C696 1.391 . S
C698 H688 0.950 . S
C698 C699 1.386 . S
C698 C700 1.391 . S
C699 C698 1.386 . S
C699 C703 1.393 . S
C700 H689 0.950 . S
C700 C698 1.391 . S
C700 C701 1.400 . S
C701 C695 1.491 . S
C701 C700 1.400 . S
C701 C702 1.398 . S
C702 H690 0.950 . S
C702 C701 1.398 . S
C702 C703 1.391 . S
C703 H691 0.950 . S
C703 C699 1.393 . S
C703 C702 1.391 . S
H704 C712 0.950 . S
H705 C717 0.950 . S
H706 C714 0.950 . S
H707 C716 0.950 . S
H708 C718 0.950 . S
H709 C720 0.950 . S
H710 C722 0.950 . S
H711 C723 0.950 . S
C712 H704 0.950 . S
C712 C713 1.386 . S
C712 C714 1.391 . S
C713 C712 1.386 . S
C713 C717 1.393 . S
C714 H706 0.950 . S
C714 C712 1.391 . S
C714 C715 1.400 . S
C715 C714 1.400 . S
C715 C716 1.398 . S
C715 C721 1.491 . S
C716 H707 0.950 . S
C716 C715 1.398 . S
C716 C717 1.391 . S
C717 H705 0.950 . S
C717 C713 1.393 . S
C717 C716 1.391 . S
C718 H708 0.950 . S
C718 C719 1.386 . S
C718 C720 1.391 . S
C719 C718 1.386 . S
C719 C723 1.393 . S
C720 H709 0.950 . S
C720 C718 1.391 . S
C720 C721 1.400 . S
C721 C715 1.491 . S
C721 C720 1.400 . S
C721 C722 1.398 . S
C722 H710 0.950 . S
C722 C721 1.398 . S
C722 C723 1.391 . S
C723 H711 0.950 . S
C723 C719 1.393 . S
C723 C722 1.391 . S
H724 C732 0.950 1_545 S
H725 C737 0.950 . S
H726 C734 0.950 1_545 S
H727 C736 0.950 . S
H728 C738 0.950 . S
H729 C740 0.950 . S
H730 C742 0.950 . S
H731 C743 0.950 . S
C732 H724 0.950 1_565 S
C732 C733 1.418 . S
C732 C734 1.391 . S
C733 C732 1.418 . S
C733 C737 1.364 1_554 S
C734 H726 0.950 1_565 S
C734 C732 1.391 . S
C734 C735 1.400 . S
C735 C734 1.400 . S
C735 C736 1.398 1_554 S
C735 C741 1.491 . S
C736 H727 0.950 . S
C736 C735 1.398 1_556 S
C736 C737 1.391 . S
C737 H725 0.950 . S
C737 C733 1.364 1_556 S
C737 C736 1.391 . S
C738 H728 0.950 . S
C738 C739 1.386 1_556 S
C738 C740 1.391 . S
C739 C738 1.386 1_554 S
C739 C743 1.393 . S
C740 H729 0.950 . S
C740 C738 1.391 . S
C740 C741 1.400 1_556 S
C741 C735 1.491 . S
C741 C740 1.400 1_554 S
C741 C742 1.398 . S
C742 H730 0.950 . S
C742 C741 1.398 . S
C742 C743 1.391 . S
C743 H731 0.950 . S
C743 C739 1.393 . S
C743 C742 1.391 . S
H744 C752 0.950 . S
H745 C757 0.950 . S
H746 C754 0.950 . S
H747 C756 0.950 . S
H748 C758 0.950 . S
H749 C760 0.950 . S
H750 C762 0.950 . S
H751 C763 0.950 . S
C752 H744 0.950 . S
C752 C753 1.386 . S
C752 C754 1.391 . S
C753 C752 1.386 . S
C753 C757 1.393 . S
C754 H746 0.950 . S
C754 C752 1.391 . S
C754 C755 1.400 . S
C755 C754 1.400 . S
C755 C756 1.398 . S
C755 C761 1.491 . S
C756 H747 0.950 . S
C756 C755 1.398 . S
C756 C757 1.391 . S
C757 H745 0.950 . S
C757 C753 1.393 . S
C757 C756 1.391 . S
C758 H748 0.950 . S
C758 C759 1.386 . S
C758 C760 1.391 . S
C759 C758 1.386 . S
C759 C763 1.393 . S
C760 H749 0.950 . S
C760 C758 1.391 . S
C760 C761 1.400 . S
C761 C755 1.491 . S
C761 C760 1.400 . S
C761 C762 1.398 . S
C762 H750 0.950 . S
C762 C761 1.398 . S
C762 C763 1.391 . S
C763 H751 0.950 . S
C763 C759 1.393 . S
C763 C762 1.391 . S
H764 C772 0.950 . S
H765 C777 0.950 . S
H766 C774 0.950 . S
H767 C776 0.950 . S
H768 C778 0.950 . S
H769 C780 0.950 . S
H770 C782 0.950 . S
H771 C783 0.950 . S
C772 H764 0.950 . S
C772 C773 1.386 . S
C772 C774 1.391 . S
C773 C772 1.386 . S
C773 C777 1.393 . S
C774 H766 0.950 . S
C774 C772 1.391 . S
C774 C775 1.400 . S
C775 C774 1.400 . S
C775 C776 1.398 . S
C775 C781 1.491 . S
C776 H767 0.950 . S
C776 C775 1.398 . S
C776 C777 1.391 . S
C777 H765 0.950 . S
C777 C773 1.393 . S
C777 C776 1.391 . S
C778 H768 0.950 . S
C778 C779 1.386 . S
C778 C780 1.391 . S
C779 C778 1.386 . S
C779 C783 1.393 . S
C780 H769 0.950 . S
C780 C778 1.391 . S
C780 C781 1.400 . S
C781 C775 1.491 . S
C781 C780 1.400 . S
C781 C782 1.398 . S
C782 H770 0.950 . S
C782 C781 1.398 . S
C782 C783 1.391 . S
C783 H771 0.950 . S
C783 C779 1.393 . S
C783 C782 1.391 . S
H784 C792 0.950 . S
H785 C797 0.950 . S
H786 C794 0.950 . S
H787 C796 0.950 . S
H788 C798 0.950 . S
H789 C800 0.950 . S
H790 C802 0.950 . S
H791 C803 0.950 . S
C792 H784 0.950 . S
C792 C793 1.386 . S
C792 C794 1.391 . S
C793 C792 1.386 . S
C793 C797 1.393 . S
C794 H786 0.950 . S
C794 C792 1.391 . S
C794 C795 1.400 . S
C795 C794 1.400 . S
C795 C796 1.398 . S
C795 C801 1.491 . S
C796 H787 0.950 . S
C796 C795 1.398 . S
C796 C797 1.391 . S
C797 H785 0.950 . S
C797 C793 1.393 . S
C797 C796 1.391 . S
C798 H788 0.950 . S
C798 C799 1.386 . S
C798 C800 1.391 . S
C799 C798 1.386 . S
C799 C803 1.393 . S
C800 H789 0.950 . S
C800 C798 1.391 . S
C800 C801 1.400 . S
C801 C795 1.491 . S
C801 C800 1.400 . S
C801 C802 1.398 . S
C802 H790 0.950 . S
C802 C801 1.398 . S
C802 C803 1.391 . S
C803 H791 0.950 . S
C803 C799 1.393 . S
C803 C802 1.391 . S
H804 C812 0.950 . S
H805 C817 0.950 . S
H806 C814 0.950 . S
H807 C816 0.950 . S
H808 C818 0.950 1_554 S
H809 C820 0.950 1_554 S
H810 C822 0.950 . S
H811 C823 0.950 . S
C812 H804 0.950 . S
C812 C813 1.386 1_655 S
C812 C814 1.391 . S
C813 C812 1.386 1_455 S
C813 C817 1.393 . S
C814 H806 0.950 . S
C814 C812 1.391 . S
C814 C815 1.400 1_655 S
C815 C814 1.400 1_455 S
C815 C816 1.398 . S
C815 C821 1.491 . S
C816 H807 0.950 . S
C816 C815 1.398 . S
C816 C817 1.391 . S
C817 H805 0.950 . S
C817 C813 1.393 . S
C817 C816 1.391 . S
C818 H808 0.950 1_556 S
C818 C819 1.386 . S
C818 C820 1.391 . S
C819 C818 1.386 . S
C819 C823 1.393 1_455 S
C820 H809 0.950 1_556 S
C820 C818 1.391 . S
C820 C821 1.400 . S
C821 C815 1.491 . S
C821 C820 1.400 . S
C821 C822 1.398 1_455 S
C822 H810 0.950 . S
C822 C821 1.398 1_655 S
C822 C823 1.391 . S
C823 H811 0.950 . S
C823 C819 1.393 1_655 S
C823 C822 1.391 . S
H824 C832 0.950 . S
H825 C837 0.950 . S
H826 C834 0.950 . S
H827 C836 0.950 . S
H828 C838 0.950 . S
H829 C840 0.950 . S
H830 C842 0.950 . S
H831 C843 0.950 . S
C832 H824 0.950 . S
C832 C833 1.386 . S
C832 C834 1.391 . S
C833 C832 1.386 . S
C833 C837 1.393 . S
C834 H826 0.950 . S
C834 C832 1.391 . S
C834 C835 1.400 . S
C835 C834 1.400 . S
C835 C836 1.398 . S
C835 C841 1.491 . S
C836 H827 0.950 . S
C836 C835 1.398 . S
C836 C837 1.391 . S
C837 H825 0.950 . S
C837 C833 1.393 . S
C837 C836 1.391 . S
C838 H828 0.950 . S
C838 C839 1.386 . S
C838 C840 1.391 . S
C839 C838 1.386 . S
C839 C843 1.393 . S
C840 H829 0.950 . S
C840 C838 1.391 . S
C840 C841 1.400 . S
C841 C835 1.491 . S
C841 C840 1.400 . S
C841 C842 1.398 . S
C842 H830 0.950 . S
C842 C841 1.398 . S
C842 C843 1.391 . S
C843 H831 0.950 . S
C843 C839 1.393 . S
C843 C842 1.391 . S
H844 C852 0.950 . S
H845 C857 0.950 . S
H846 C854 0.950 . S
H847 C856 0.950 . S
H848 C858 0.950 . S
H849 C860 0.950 . S
H850 C862 0.950 . S
H851 C863 0.950 . S
C852 H844 0.950 . S
C852 C853 1.386 . S
C852 C854 1.391 . S
C853 C852 1.386 . S
C853 C857 1.393 . S
C854 H846 0.950 . S
C854 C852 1.391 . S
C854 C855 1.400 . S
C855 C854 1.400 . S
C855 C856 1.398 . S
C855 C861 1.491 . S
C856 H847 0.950 . S
C856 C855 1.398 . S
C856 C857 1.391 . S
C857 H845 0.950 . S
C857 C853 1.393 . S
C857 C856 1.391 . S
C858 H848 0.950 . S
C858 C859 1.386 . S
C858 C860 1.391 . S
C859 C858 1.386 . S
C859 C863 1.393 . S
C860 H849 0.950 . S
C860 C858 1.391 . S
C860 C861 1.400 . S
C861 C855 1.491 . S
C861 C860 1.400 . S
C861 C862 1.398 . S
C862 H850 0.950 . S
C862 C861 1.398 . S
C862 C863 1.391 . S
C863 H851 0.950 . S
C863 C859 1.393 . S
C863 C862 1.391 . S
H864 C872 0.950 . S
H865 C877 0.950 . S
H866 C874 0.950 . S
H867 C876 0.950 . S
H868 C878 0.950 . S
H869 C880 0.950 . S
H870 C882 0.950 . S
H871 C883 0.950 . S
C872 H864 0.950 . S
C872 C873 1.386 . S
C872 C874 1.391 . S
C873 C872 1.386 . S
C873 C877 1.393 . S
C874 H866 0.950 . S
C874 C872 1.391 . S
C874 C875 1.400 . S
C875 C874 1.400 . S
C875 C876 1.398 . S
C875 C881 1.491 . S
C876 H867 0.950 . S
C876 C875 1.398 . S
C876 C877 1.391 . S
C877 H865 0.950 . S
C877 C873 1.393 . S
C877 C876 1.391 . S
C878 H868 0.950 . S
C878 C879 1.386 . S
C878 C880 1.391 . S
C879 C878 1.386 . S
C879 C883 1.393 . S
C880 H869 0.950 . S
C880 C878 1.391 . S
C880 C881 1.400 . S
C881 C875 1.491 . S
C881 C880 1.400 . S
C881 C882 1.398 . S
C882 H870 0.950 . S
C882 C881 1.398 . S
C882 C883 1.391 . S
C883 H871 0.950 . S
C883 C879 1.393 . S
C883 C882 1.391 . S
C413 C21 1.557 . S
C419 C323 1.454 . S
C433 C61 1.527 . S
C439 C357 1.444 . S
C459 C369 1.345 . S
C453 C82 1.440 . S
C473 C135 1.522 . S
C479 C403 1.410 . S
C499 C360 1.425 . S
C493 C15 1.538 . S
C519 C340 1.423 . S
C513 C42 1.528 . S
C539 C387 1.377 . S
C533 C101 1.490 . S
C559 C378 1.369 . S
C553 C122 1.473 . S
C573 C2 1.558 . S
C579 C386 1.439 . S
C599 C348 1.366 . S
C593 C95 1.457 . S
C613 C141 1.512 . S
C619 C324 1.429 . S
C633 C55 1.507 . S
C639 C381 1.394 . S
C659 C339 1.717 . S
C653 C181 1.745 1_545 S
C673 C202 1.721 . S
C679 C361 1.691 . S
C693 C255 1.761 . S
C699 C366 1.688 . S
C713 C295 1.796 . S
C719 C399 1.721 . S
C733 C175 1.784 1_554 S
C739 C344 1.709 . S
C759 C336 1.752 . S
C753 C221 1.776 . S
C779 C390 1.668 . S
C773 C242 1.684 . S
C799 C382 1.705 . S
C793 C301 1.858 . S
C813 C162 1.687 1_455 S
C819 C402 1.686 . S
C839 C345 1.725 . S
C833 C261 1.723 . S
C859 C327 1.687 . S
C853 C282 1.812 . S
C873 C215 1.814 . S
C879 C365 1.739 . S
