# Generated by pormake.
# Topology tph, (6,8)-cn, num edge types: 1
# Building blocks:
#     Node 0, Type 0, BuildingBlock: OJICUG_clean_sbu_0, # of connection points: 6
#     Node 1, Type 0, BuildingBlock: OJICUG_clean_sbu_0, # of connection points: 6
#     Node 2, Type 0, BuildingBlock: OJICUG_clean_sbu_0, # of connection points: 6
#     Node 3, Type 0, BuildingBlock: OJICUG_clean_sbu_0, # of connection points: 6
#     Node 4, Type 0, BuildingBlock: OJICUG_clean_sbu_0, # of connection points: 6
#     Node 5, Type 0, BuildingBlock: OJICUG_clean_sbu_0, # of connection points: 6
#     Node 6, Type 0, BuildingBlock: OJICUG_clean_sbu_0, # of connection points: 6
#     Node 7, Type 0, BuildingBlock: OJICUG_clean_sbu_0, # of connection points: 6
#     Node 8, Type 0, BuildingBlock: OJICUG_clean_sbu_0, # of connection points: 6
#     Node 9, Type 0, BuildingBlock: OJICUG_clean_sbu_0, # of connection points: 6
#     Node 10, Type 0, BuildingBlock: OJICUG_clean_sbu_0, # of connection points: 6
#     Node 11, Type 0, BuildingBlock: OJICUG_clean_sbu_0, # of connection points: 6
#     Node 12, Type 0, BuildingBlock: OJICUG_clean_sbu_0, # of connection points: 6
#     Node 13, Type 0, BuildingBlock: OJICUG_clean_sbu_0, # of connection points: 6
#     Node 14, Type 0, BuildingBlock: OJICUG_clean_sbu_0, # of connection points: 6
#     Node 15, Type 0, BuildingBlock: OJICUG_clean_sbu_0, # of connection points: 6
#     Node 16, Type 1, BuildingBlock: TAGTUT_clean_sbu_1, # of connection points: 8
#     Node 17, Type 1, BuildingBlock: TAGTUT_clean_sbu_1, # of connection points: 8
#     Node 18, Type 1, BuildingBlock: TAGTUT_clean_sbu_1, # of connection points: 8
#     Node 19, Type 1, BuildingBlock: TAGTUT_clean_sbu_1, # of connection points: 8
#     Node 20, Type 1, BuildingBlock: TAGTUT_clean_sbu_1, # of connection points: 8
#     Node 21, Type 1, BuildingBlock: TAGTUT_clean_sbu_1, # of connection points: 8
#     Node 22, Type 1, BuildingBlock: TAGTUT_clean_sbu_1, # of connection points: 8
#     Node 23, Type 1, BuildingBlock: TAGTUT_clean_sbu_1, # of connection points: 8
#     Node 24, Type 1, BuildingBlock: TAGTUT_clean_sbu_1, # of connection points: 8
#     Node 25, Type 1, BuildingBlock: TAGTUT_clean_sbu_1, # of connection points: 8
#     Node 26, Type 1, BuildingBlock: TAGTUT_clean_sbu_1, # of connection points: 8
#     Node 27, Type 1, BuildingBlock: TAGTUT_clean_sbu_1, # of connection points: 8
#     Edge 28, Type (0, 1), BuildingBlock: ZUJKAS_clean_linker_0, # of connection points: 2
#     Edge 29, Type (0, 1), BuildingBlock: ZUJKAS_clean_linker_0, # of connection points: 2
#     Edge 30, Type (0, 1), BuildingBlock: ZUJKAS_clean_linker_0, # of connection points: 2
#     Edge 31, Type (0, 1), BuildingBlock: ZUJKAS_clean_linker_0, # of connection points: 2
#     Edge 32, Type (0, 1), BuildingBlock: ZUJKAS_clean_linker_0, # of connection points: 2
#     Edge 33, Type (0, 1), BuildingBlock: ZUJKAS_clean_linker_0, # of connection points: 2
#     Edge 34, Type (0, 1), BuildingBlock: ZUJKAS_clean_linker_0, # of connection points: 2
#     Edge 35, Type (0, 1), BuildingBlock: ZUJKAS_clean_linker_0, # of connection points: 2
#     Edge 36, Type (0, 1), BuildingBlock: ZUJKAS_clean_linker_0, # of connection points: 2
#     Edge 37, Type (0, 1), BuildingBlock: ZUJKAS_clean_linker_0, # of connection points: 2
#     Edge 38, Type (0, 1), BuildingBlock: ZUJKAS_clean_linker_0, # of connection points: 2
#     Edge 39, Type (0, 1), BuildingBlock: ZUJKAS_clean_linker_0, # of connection points: 2
#     Edge 40, Type (0, 1), BuildingBlock: ZUJKAS_clean_linker_0, # of connection points: 2
#     Edge 41, Type (0, 1), BuildingBlock: ZUJKAS_clean_linker_0, # of connection points: 2
#     Edge 42, Type (0, 1), BuildingBlock: ZUJKAS_clean_linker_0, # of connection points: 2
#     Edge 43, Type (0, 1), BuildingBlock: ZUJKAS_clean_linker_0, # of connection points: 2
#     Edge 44, Type (0, 1), BuildingBlock: ZUJKAS_clean_linker_0, # of connection points: 2
#     Edge 45, Type (0, 1), BuildingBlock: ZUJKAS_clean_linker_0, # of connection points: 2
#     Edge 46, Type (0, 1), BuildingBlock: ZUJKAS_clean_linker_0, # of connection points: 2
#     Edge 47, Type (0, 1), BuildingBlock: ZUJKAS_clean_linker_0, # of connection points: 2
#     Edge 48, Type (0, 1), BuildingBlock: ZUJKAS_clean_linker_0, # of connection points: 2
#     Edge 49, Type (0, 1), BuildingBlock: ZUJKAS_clean_linker_0, # of connection points: 2
#     Edge 50, Type (0, 1), BuildingBlock: ZUJKAS_clean_linker_0, # of connection points: 2
#     Edge 51, Type (0, 1), BuildingBlock: ZUJKAS_clean_linker_0, # of connection points: 2
#     Edge 52, Type (0, 1), BuildingBlock: ZUJKAS_clean_linker_0, # of connection points: 2
#     Edge 53, Type (0, 1), BuildingBlock: ZUJKAS_clean_linker_0, # of connection points: 2
#     Edge 54, Type (0, 1), BuildingBlock: ZUJKAS_clean_linker_0, # of connection points: 2
#     Edge 55, Type (0, 1), BuildingBlock: ZUJKAS_clean_linker_0, # of connection points: 2
#     Edge 56, Type (0, 1), BuildingBlock: ZUJKAS_clean_linker_0, # of connection points: 2
#     Edge 57, Type (0, 1), BuildingBlock: ZUJKAS_clean_linker_0, # of connection points: 2
#     Edge 58, Type (0, 1), BuildingBlock: ZUJKAS_clean_linker_0, # of connection points: 2
#     Edge 59, Type (0, 1), BuildingBlock: ZUJKAS_clean_linker_0, # of connection points: 2
#     Edge 60, Type (0, 1), BuildingBlock: ZUJKAS_clean_linker_0, # of connection points: 2
#     Edge 61, Type (0, 1), BuildingBlock: ZUJKAS_clean_linker_0, # of connection points: 2
#     Edge 62, Type (0, 1), BuildingBlock: ZUJKAS_clean_linker_0, # of connection points: 2
#     Edge 63, Type (0, 1), BuildingBlock: ZUJKAS_clean_linker_0, # of connection points: 2
#     Edge 64, Type (0, 1), BuildingBlock: ZUJKAS_clean_linker_0, # of connection points: 2
#     Edge 65, Type (0, 1), BuildingBlock: ZUJKAS_clean_linker_0, # of connection points: 2
#     Edge 66, Type (0, 1), BuildingBlock: ZUJKAS_clean_linker_0, # of connection points: 2
#     Edge 67, Type (0, 1), BuildingBlock: ZUJKAS_clean_linker_0, # of connection points: 2
#     Edge 68, Type (0, 1), BuildingBlock: ZUJKAS_clean_linker_0, # of connection points: 2
#     Edge 69, Type (0, 1), BuildingBlock: ZUJKAS_clean_linker_0, # of connection points: 2
#     Edge 70, Type (0, 1), BuildingBlock: ZUJKAS_clean_linker_0, # of connection points: 2
#     Edge 71, Type (0, 1), BuildingBlock: ZUJKAS_clean_linker_0, # of connection points: 2
#     Edge 72, Type (0, 1), BuildingBlock: ZUJKAS_clean_linker_0, # of connection points: 2
#     Edge 73, Type (0, 1), BuildingBlock: ZUJKAS_clean_linker_0, # of connection points: 2
#     Edge 74, Type (0, 1), BuildingBlock: ZUJKAS_clean_linker_0, # of connection points: 2
#     Edge 75, Type (0, 1), BuildingBlock: ZUJKAS_clean_linker_0, # of connection points: 2
#     Edge 76, Type (0, 1), BuildingBlock: ZUJKAS_clean_linker_0, # of connection points: 2
#     Edge 77, Type (0, 1), BuildingBlock: ZUJKAS_clean_linker_0, # of connection points: 2
#     Edge 78, Type (0, 1), BuildingBlock: ZUJKAS_clean_linker_0, # of connection points: 2
#     Edge 79, Type (0, 1), BuildingBlock: ZUJKAS_clean_linker_0, # of connection points: 2
#     Edge 80, Type (0, 1), BuildingBlock: ZUJKAS_clean_linker_0, # of connection points: 2
#     Edge 81, Type (0, 1), BuildingBlock: ZUJKAS_clean_linker_0, # of connection points: 2
#     Edge 82, Type (0, 1), BuildingBlock: ZUJKAS_clean_linker_0, # of connection points: 2
#     Edge 83, Type (0, 1), BuildingBlock: ZUJKAS_clean_linker_0, # of connection points: 2
#     Edge 84, Type (0, 1), BuildingBlock: ZUJKAS_clean_linker_0, # of connection points: 2
#     Edge 85, Type (0, 1), BuildingBlock: ZUJKAS_clean_linker_0, # of connection points: 2
#     Edge 86, Type (0, 1), BuildingBlock: ZUJKAS_clean_linker_0, # of connection points: 2
#     Edge 87, Type (0, 1), BuildingBlock: ZUJKAS_clean_linker_0, # of connection points: 2
#     Edge 88, Type (0, 1), BuildingBlock: ZUJKAS_clean_linker_0, # of connection points: 2
#     Edge 89, Type (0, 1), BuildingBlock: ZUJKAS_clean_linker_0, # of connection points: 2
#     Edge 90, Type (0, 1), BuildingBlock: ZUJKAS_clean_linker_0, # of connection points: 2
#     Edge 91, Type (0, 1), BuildingBlock: ZUJKAS_clean_linker_0, # of connection points: 2
#     Edge 92, Type (0, 1), BuildingBlock: ZUJKAS_clean_linker_0, # of connection points: 2
#     Edge 93, Type (0, 1), BuildingBlock: ZUJKAS_clean_linker_0, # of connection points: 2
#     Edge 94, Type (0, 1), BuildingBlock: ZUJKAS_clean_linker_0, # of connection points: 2
#     Edge 95, Type (0, 1), BuildingBlock: ZUJKAS_clean_linker_0, # of connection points: 2
#     Edge 96, Type (0, 1), BuildingBlock: ZUJKAS_clean_linker_0, # of connection points: 2
#     Edge 97, Type (0, 1), BuildingBlock: ZUJKAS_clean_linker_0, # of connection points: 2
#     Edge 98, Type (0, 1), BuildingBlock: ZUJKAS_clean_linker_0, # of connection points: 2
#     Edge 99, Type (0, 1), BuildingBlock: ZUJKAS_clean_linker_0, # of connection points: 2
#     Edge 100, Type (0, 1), BuildingBlock: ZUJKAS_clean_linker_0, # of connection points: 2
#     Edge 101, Type (0, 1), BuildingBlock: ZUJKAS_clean_linker_0, # of connection points: 2
#     Edge 102, Type (0, 1), BuildingBlock: ZUJKAS_clean_linker_0, # of connection points: 2
#     Edge 103, Type (0, 1), BuildingBlock: ZUJKAS_clean_linker_0, # of connection points: 2
#     Edge 104, Type (0, 1), BuildingBlock: ZUJKAS_clean_linker_0, # of connection points: 2
#     Edge 105, Type (0, 1), BuildingBlock: ZUJKAS_clean_linker_0, # of connection points: 2
#     Edge 106, Type (0, 1), BuildingBlock: ZUJKAS_clean_linker_0, # of connection points: 2
#     Edge 107, Type (0, 1), BuildingBlock: ZUJKAS_clean_linker_0, # of connection points: 2
#     Edge 108, Type (0, 1), BuildingBlock: ZUJKAS_clean_linker_0, # of connection points: 2
#     Edge 109, Type (0, 1), BuildingBlock: ZUJKAS_clean_linker_0, # of connection points: 2
#     Edge 110, Type (0, 1), BuildingBlock: ZUJKAS_clean_linker_0, # of connection points: 2
#     Edge 111, Type (0, 1), BuildingBlock: ZUJKAS_clean_linker_0, # of connection points: 2
#     Edge 112, Type (0, 1), BuildingBlock: ZUJKAS_clean_linker_0, # of connection points: 2
#     Edge 113, Type (0, 1), BuildingBlock: ZUJKAS_clean_linker_0, # of connection points: 2
#     Edge 114, Type (0, 1), BuildingBlock: ZUJKAS_clean_linker_0, # of connection points: 2
#     Edge 115, Type (0, 1), BuildingBlock: ZUJKAS_clean_linker_0, # of connection points: 2
#     Edge 116, Type (0, 1), BuildingBlock: ZUJKAS_clean_linker_0, # of connection points: 2
#     Edge 117, Type (0, 1), BuildingBlock: ZUJKAS_clean_linker_0, # of connection points: 2
#     Edge 118, Type (0, 1), BuildingBlock: ZUJKAS_clean_linker_0, # of connection points: 2
#     Edge 119, Type (0, 1), BuildingBlock: ZUJKAS_clean_linker_0, # of connection points: 2
#     Edge 120, Type (0, 1), BuildingBlock: ZUJKAS_clean_linker_0, # of connection points: 2
#     Edge 121, Type (0, 1), BuildingBlock: ZUJKAS_clean_linker_0, # of connection points: 2
#     Edge 122, Type (0, 1), BuildingBlock: ZUJKAS_clean_linker_0, # of connection points: 2
#     Edge 123, Type (0, 1), BuildingBlock: ZUJKAS_clean_linker_0, # of connection points: 2
# Relax obj value: 0.203
# Max RMSD: 0.314
# Mean RMSD: 0.271
data_MOF--net-tph--node1-OJICUG_clean_sbu_0--node2-TAGTUT_clean_sbu_1--edge1-ZUJKAS_clean_linker_0
_symmetry_space_group_name_H-M    P1
_symmetry_Int_Tables_number       1
_symmetry_cell_setting            triclinic
loop_
_symmetry_equiv_pos_as_xyz
'x, y, z'
_cell_length_a     60.864789
_cell_length_b     60.277717
_cell_length_c     59.549191
_cell_angle_alpha  90.199418
_cell_angle_beta   92.245281
_cell_angle_gamma 90.278427
loop_
_atom_site_label
_atom_site_type_symbol
_atom_site_fract_x
_atom_site_fract_y
_atom_site_fract_z
_atom_type_partial_charge
Sc0 Sc 0.15955 0.19136 0.17359 0.0
Sc1 Sc 0.19946 0.15081 0.17488 0.0
Sc2 Sc 0.19726 0.18993 0.13181 0.0
O3 O 0.18571 0.1773 0.16002 0.0
C4 C 0.14884 0.19972 0.12148 0.0
C5 C 0.147 0.14213 0.1761 0.0
C6 C 0.20065 0.13733 0.12389 0.0
C7 C 0.18607 0.17425 0.21751 0.0
C8 C 0.18656 0.23254 0.16303 0.0
C9 C 0.24152 0.17795 0.15837 0.0
O10 O 0.14581 0.20458 0.14192 0.0
O11 O 0.16685 0.13701 0.18192 0.0
O12 O 0.20207 0.15722 0.11672 0.0
O13 O 0.16837 0.18096 0.20777 0.0
O14 O 0.19215 0.22414 0.14423 0.0
O15 O 0.23289 0.16199 0.16904 0.0
O16 O 0.17795 0.2211 0.17832 0.0
O17 O 0.20203 0.16731 0.20653 0.0
O18 O 0.23031 0.19085 0.14559 0.0
O19 O 0.14166 0.16122 0.16869 0.0
O20 O 0.16551 0.18905 0.11568 0.0
O21 O 0.19835 0.13255 0.14437 0.0
Sc22 Sc 0.43249 0.61605 0.06546 0.0
Sc23 Sc 0.40443 0.56617 0.07086 0.0
Sc24 Sc 0.44491 0.58151 0.11156 0.0
O25 O 0.42767 0.58777 0.08258 0.0
C26 C 0.4816 0.60248 0.0799 0.0
C27 C 0.42632 0.57806 0.02673 0.0
C28 C 0.43889 0.53239 0.09484 0.0
C29 C 0.38268 0.61222 0.05549 0.0
C30 C 0.43677 0.63347 0.11619 0.0
C31 C 0.39399 0.57081 0.122 0.0
O32 O 0.4674 0.61156 0.06668 0.0
O33 O 0.42096 0.56265 0.04007 0.0
O34 O 0.45135 0.54749 0.10314 0.0
O35 O 0.39839 0.62378 0.06368 0.0
O36 O 0.44045 0.61433 0.12419 0.0
O37 O 0.38749 0.56991 0.1014 0.0
O38 O 0.43434 0.63702 0.0952 0.0
O39 O 0.38348 0.59118 0.05447 0.0
O40 O 0.41437 0.57258 0.12828 0.0
O41 O 0.42955 0.59816 0.03324 0.0
O42 O 0.47637 0.59094 0.09696 0.0
O43 O 0.42088 0.53682 0.08427 0.0
Sc44 Sc 0.85722 0.29816 0.20523 0.0
Sc45 Sc 0.826 0.31084 0.15674 0.0
Sc46 Sc 0.82378 0.34565 0.20347 0.0
O47 O 0.83571 0.31832 0.18863 0.0
C48 C 0.82481 0.31182 0.24408 0.0
C49 C 0.82946 0.26257 0.17872 0.0
C50 C 0.7814 0.324 0.17714 0.0
C51 C 0.87614 0.30173 0.15568 0.0
C52 C 0.87477 0.34545 0.22039 0.0
C53 C 0.82677 0.36399 0.15467 0.0
O54 O 0.84063 0.30044 0.2368 0.0
O55 O 0.82677 0.27521 0.16179 0.0
O56 O 0.79029 0.33874 0.19015 0.0
O57 O 0.87693 0.29359 0.17549 0.0
O58 O 0.85615 0.35505 0.21792 0.0
O59 O 0.82331 0.34495 0.14599 0.0
O60 O 0.87792 0.32531 0.21516 0.0
O61 O 0.85921 0.3111 0.14707 0.0
O62 O 0.83022 0.36679 0.17562 0.0
O63 O 0.83785 0.26934 0.19733 0.0
O64 O 0.81599 0.32766 0.23307 0.0
O65 O 0.79248 0.31075 0.16545 0.0
Sc66 Sc 0.60726 0.93861 0.0786 0.0
Sc67 Sc 0.57239 0.89421 0.06171 0.0
Sc68 Sc 0.56105 0.92553 0.11008 0.0
O69 O 0.58009 0.9196 0.08335 0.0
C70 C 0.6091 0.93441 0.13209 0.0
C71 C 0.62482 0.89036 0.0663 0.0
C72 C 0.56415 0.87254 0.10956 0.0
C73 C 0.58818 0.93144 0.02799 0.0
C74 C 0.57192 0.97482 0.0936 0.0
C75 C 0.52428 0.91092 0.07285 0.0
O76 O 0.61796 0.93772 0.11342 0.0
O77 O 0.60575 0.88311 0.06078 0.0
O78 O 0.56113 0.89098 0.11946 0.0
O79 O 0.59999 0.94159 0.04291 0.0
O80 O 0.55968 0.96084 0.10329 0.0
O81 O 0.53771 0.9013 0.06027 0.0
O82 O 0.5894 0.9692 0.08391 0.0
O83 O 0.57656 0.91447 0.0323 0.0
O84 O 0.53043 0.92092 0.0909 0.0
O85 O 0.62823 0.91 0.07363 0.0
O86 O 0.58875 0.93009 0.13348 0.0
O87 O 0.56815 0.87113 0.08879 0.0
Sc88 Sc 0.18241 0.84931 0.31078 0.0
Sc89 Sc 0.14504 0.80799 0.32228 0.0
Sc90 Sc 0.19463 0.81213 0.35336 0.0
O91 O 0.1739 0.82313 0.32909 0.0
C92 C 0.22892 0.82576 0.3193 0.0
C93 C 0.16309 0.81932 0.27356 0.0
C94 C 0.17588 0.76711 0.33033 0.0
C95 C 0.12998 0.85538 0.31333 0.0
C96 C 0.19682 0.86563 0.35802 0.0
C97 C 0.14996 0.80512 0.37641 0.0
O98 O 0.21777 0.8428 0.31355 0.0
O99 O 0.14728 0.81348 0.28585 0.0
O100 O 0.18783 0.77723 0.34529 0.0
O101 O 0.14832 0.85997 0.3047 0.0
O102 O 0.20379 0.84627 0.36352 0.0
O103 O 0.13962 0.80089 0.35776 0.0
O104 O 0.185 0.8692 0.34033 0.0
O105 O 0.12754 0.83843 0.32558 0.0
O106 O 0.16955 0.81252 0.37742 0.0
O107 O 0.18015 0.82932 0.28134 0.0
O108 O 0.22097 0.81032 0.33087 0.0
O109 O 0.16096 0.77681 0.31856 0.0
Sc110 Sc 0.07219 0.60798 0.9426 0.0
Sc111 Sc 0.06294 0.58261 0.88984 0.0
Sc112 Sc 0.10727 0.56628 0.92509 0.0
O113 O 0.08068 0.58559 0.9192 0.0
C114 C 0.12325 0.61247 0.94716 0.0
C115 C 0.06297 0.63452 0.89656 0.0
C116 C 0.11308 0.57869 0.8744 0.0
C117 C 0.02532 0.59054 0.92609 0.0
C118 C 0.08887 0.56656 0.97282 0.0
C119 C 0.07332 0.5325 0.90026 0.0
O120 O 0.10469 0.62187 0.94479 0.0
O121 O 0.06437 0.61762 0.88387 0.0
O122 O 0.12103 0.57625 0.89426 0.0
O123 O 0.03874 0.59621 0.94206 0.0
O124 O 0.0957 0.55538 0.95643 0.0
O125 O 0.05977 0.54729 0.89362 0.0
O126 O 0.08077 0.58596 0.9706 0.0
O127 O 0.03154 0.5864 0.90625 0.0
O128 O 0.0919 0.53723 0.90968 0.0
O129 O 0.06376 0.63325 0.91792 0.0
O130 O 0.12622 0.59213 0.94248 0.0
O131 O 0.09237 0.57898 0.86978 0.0
Sc132 Sc 0.85114 0.68848 0.30641 0.0
Sc133 Sc 0.80615 0.65282 0.3099 0.0
Sc134 Sc 0.81795 0.69204 0.35246 0.0
O135 O 0.82486 0.67786 0.32287 0.0
C136 C 0.86906 0.69145 0.35727 0.0
C137 C 0.85541 0.63714 0.3015 0.0
C138 C 0.8081 0.64057 0.36128 0.0
C139 C 0.81651 0.6781 0.26591 0.0
C140 C 0.83286 0.73348 0.32243 0.0
C141 C 0.77041 0.68562 0.33081 0.0
O142 O 0.87111 0.69487 0.33643 0.0
O143 O 0.83468 0.634 0.29927 0.0
O144 O 0.80935 0.6607 0.36784 0.0
O145 O 0.83538 0.68393 0.27374 0.0
O146 O 0.8264 0.72522 0.34079 0.0
O147 O 0.77566 0.6684 0.31971 0.0
O148 O 0.83947 0.72166 0.30638 0.0
O149 O 0.80238 0.66866 0.2778 0.0
O150 O 0.78446 0.6975 0.34175 0.0
O151 O 0.86409 0.65583 0.30621 0.0
O152 O 0.8507 0.68721 0.36568 0.0
O153 O 0.80848 0.63496 0.34074 0.0
Sc154 Sc 0.94127 0.92608 0.8891 0.0
Sc155 Sc 0.89501 0.94144 0.91937 0.0
Sc156 Sc 0.9263 0.89459 0.93589 0.0
O157 O 0.92095 0.92083 0.91492 0.0
C158 C 0.93585 0.87329 0.88817 0.0
C159 C 0.89428 0.93613 0.86586 0.0
C160 C 0.8737 0.89427 0.93052 0.0
C161 C 0.93188 0.97591 0.90431 0.0
C162 C 0.97567 0.91096 0.9277 0.0
C163 C 0.91251 0.93271 0.97016 0.0
O164 O 0.94106 0.89175 0.87961 0.0
O165 O 0.8851 0.94061 0.88417 0.0
O166 O 0.89209 0.88525 0.93545 0.0
O167 O 0.94348 0.96124 0.89508 0.0
O168 O 0.9615 0.90043 0.93876 0.0
O169 O 0.9021 0.94411 0.95524 0.0
O170 O 0.97064 0.92165 0.90988 0.0
O171 O 0.91427 0.97125 0.91423 0.0
O172 O 0.92249 0.9148 0.9656 0.0
O173 O 0.91435 0.93061 0.86511 0.0
O174 O 0.92978 0.87148 0.90829 0.0
O175 O 0.87213 0.91438 0.92427 0.0
Sc176 Sc 0.39495 0.4408 0.42119 0.0
Sc177 Sc 0.42651 0.39393 0.43705 0.0
Sc178 Sc 0.44149 0.42633 0.39092 0.0
O179 O 0.42107 0.42048 0.41653 0.0
C180 C 0.3944 0.43565 0.36765 0.0
C181 C 0.37394 0.39327 0.43149 0.0
C182 C 0.43684 0.37349 0.38919 0.0
C183 C 0.41241 0.43149 0.47188 0.0
C184 C 0.4313 0.47592 0.40652 0.0
C185 C 0.47575 0.41126 0.42952 0.0
O186 O 0.3852 0.44019 0.38594 0.0
O187 O 0.39235 0.38426 0.43634 0.0
O188 O 0.44218 0.39213 0.38113 0.0
O189 O 0.40197 0.44305 0.45711 0.0
O190 O 0.44299 0.46149 0.39703 0.0
O191 O 0.46166 0.40011 0.44011 0.0
O192 O 0.41385 0.47091 0.41653 0.0
O193 O 0.42246 0.41367 0.46706 0.0
O194 O 0.47073 0.42237 0.41197 0.0
O195 O 0.37229 0.41348 0.42563 0.0
O196 O 0.41452 0.4303 0.36688 0.0
O197 O 0.43023 0.37127 0.40907 0.0
Sc198 Sc 0.35449 0.79739 0.70282 0.0
Sc199 Sc 0.31807 0.8082 0.65702 0.0
Sc200 Sc 0.32268 0.84615 0.70183 0.0
O201 O 0.33182 0.81727 0.68724 0.0
C202 C 0.32563 0.81353 0.74369 0.0
C203 C 0.32223 0.76115 0.68148 0.0
C204 C 0.27694 0.82622 0.6815 0.0
C205 C 0.36776 0.796 0.65101 0.0
C206 C 0.37463 0.84503 0.71372 0.0
C207 C 0.32257 0.86104 0.65126 0.0
O208 O 0.33975 0.80058 0.73545 0.0
O209 O 0.31572 0.77344 0.66529 0.0
O210 O 0.28781 0.84063 0.69318 0.0
O211 O 0.37195 0.79234 0.67185 0.0
O212 O 0.35634 0.85526 0.71216 0.0
O213 O 0.31807 0.84166 0.64381 0.0
O214 O 0.37626 0.82439 0.71011 0.0
O215 O 0.34935 0.80304 0.64333 0.0
O216 O 0.32665 0.86503 0.67194 0.0
O217 O 0.33515 0.76799 0.69726 0.0
O218 O 0.31765 0.83008 0.73313 0.0
O219 O 0.2859 0.81229 0.66879 0.0
Sc220 Sc 0.10739 0.43902 0.58026 0.0
Sc221 Sc 0.07199 0.39581 0.56142 0.0
Sc222 Sc 0.06059 0.42569 0.61069 0.0
O223 O 0.07986 0.4203 0.58405 0.0
C224 C 0.10841 0.43377 0.63365 0.0
C225 C 0.12437 0.39095 0.56706 0.0
C226 C 0.06249 0.37268 0.60826 0.0
C227 C 0.08898 0.43358 0.52913 0.0
C228 C 0.07222 0.47523 0.59522 0.0
C229 C 0.02393 0.41266 0.57277 0.0
O230 O 0.11734 0.43782 0.6152 0.0
O231 O 0.10537 0.3844 0.56029 0.0
O232 O 0.05962 0.39083 0.61875 0.0
O233 O 0.10126 0.44249 0.54448 0.0
O234 O 0.05996 0.46118 0.60479 0.0
O235 O 0.03732 0.40313 0.56007 0.0
O236 O 0.08972 0.46974 0.58547 0.0
O237 O 0.07633 0.41722 0.53284 0.0
O238 O 0.03012 0.42226 0.59103 0.0
O239 O 0.12788 0.41011 0.57556 0.0
O240 O 0.08811 0.42901 0.63471 0.0
O241 O 0.06719 0.37187 0.58764 0.0
Sc242 Sc 0.93219 0.11394 0.565 0.0
Sc243 Sc 0.90247 0.06531 0.57137 0.0
Sc244 Sc 0.94416 0.07956 0.61093 0.0
O245 O 0.92663 0.0861 0.58238 0.0
C246 C 0.98075 0.09909 0.57802 0.0
C247 C 0.92283 0.07652 0.52651 0.0
C248 C 0.93724 0.03101 0.59397 0.0
C249 C 0.88224 0.11245 0.55721 0.0
C250 C 0.93711 0.13133 0.61559 0.0
C251 C 0.89362 0.06886 0.62271 0.0
O252 O 0.96657 0.10706 0.56405 0.0
O253 O 0.91808 0.06113 0.5401 0.0
O254 O 0.95057 0.0459 0.60123 0.0
O255 O 0.89854 0.12311 0.56554 0.0
O256 O 0.93887 0.11202 0.6238 0.0
O257 O 0.88626 0.0693 0.60238 0.0
O258 O 0.93686 0.13491 0.59454 0.0
O259 O 0.88216 0.09137 0.55564 0.0
O260 O 0.91422 0.06988 0.62814 0.0
O261 O 0.92657 0.09652 0.53294 0.0
O262 O 0.97542 0.08965 0.5963 0.0
O263 O 0.91865 0.03572 0.58467 0.0
Sc264 Sc 0.69325 0.69322 0.62945 0.0
Sc265 Sc 0.66058 0.70306 0.67445 0.0
Sc266 Sc 0.69485 0.65764 0.67523 0.0
O267 O 0.68307 0.68448 0.65968 0.0
C268 C 0.69009 0.64029 0.62557 0.0
C269 C 0.64587 0.70736 0.62248 0.0
C270 C 0.64242 0.65611 0.68229 0.0
C271 C 0.6892 0.73954 0.65673 0.0
C272 C 0.73778 0.67919 0.65368 0.0
C273 C 0.68894 0.6858 0.71717 0.0
O274 O 0.69492 0.65899 0.61697 0.0
O275 O 0.64565 0.71483 0.64253 0.0
O276 O 0.66188 0.64854 0.68602 0.0
O277 O 0.69131 0.72882 0.63829 0.0
O278 O 0.7285 0.66444 0.66552 0.0
O279 O 0.67152 0.69444 0.7086 0.0
O280 O 0.72698 0.69258 0.64103 0.0
O281 O 0.68296 0.73024 0.67451 0.0
O282 O 0.70251 0.67577 0.70527 0.0
O283 O 0.66018 0.69361 0.61654 0.0
O284 O 0.68798 0.63769 0.64646 0.0
O285 O 0.63867 0.67547 0.67456 0.0
Sc286 Sc 0.68379 0.34791 0.80875 0.0
Sc287 Sc 0.64495 0.30862 0.82182 0.0
Sc288 Sc 0.69389 0.31268 0.85369 0.0
O289 O 0.67419 0.32312 0.82833 0.0
C290 C 0.72938 0.3227 0.81923 0.0
C291 C 0.66256 0.3181 0.77268 0.0
C292 C 0.67438 0.26744 0.83162 0.0
C293 C 0.63164 0.35642 0.81222 0.0
C294 C 0.69852 0.36607 0.85558 0.0
C295 C 0.64898 0.30732 0.87587 0.0
O296 O 0.71881 0.33941 0.81146 0.0
O297 O 0.64668 0.31362 0.78536 0.0
O298 O 0.68589 0.27772 0.84685 0.0
O299 O 0.64997 0.36 0.80301 0.0
O300 O 0.70412 0.34674 0.86254 0.0
O301 O 0.63928 0.30184 0.85725 0.0
O302 O 0.6877 0.36925 0.83719 0.0
O303 O 0.62863 0.33972 0.8247 0.0
O304 O 0.66826 0.31544 0.87697 0.0
O305 O 0.6804 0.32679 0.78012 0.0
O306 O 0.72082 0.30889 0.83232 0.0
O307 O 0.66035 0.27716 0.81872 0.0
Sc308 Sc 0.57035 0.11091 0.4403 0.0
Sc309 Sc 0.56211 0.08273 0.38907 0.0
Sc310 Sc 0.60357 0.06597 0.428 0.0
O311 O 0.57856 0.08647 0.41905 0.0
C312 C 0.6209 0.11279 0.44778 0.0
C313 C 0.56347 0.13503 0.39277 0.0
C314 C 0.61308 0.07569 0.37709 0.0
C315 C 0.52348 0.09352 0.42341 0.0
C316 C 0.58283 0.0709 0.47422 0.0
C317 C 0.56997 0.03256 0.40213 0.0
O318 O 0.60339 0.12322 0.44254 0.0
O319 O 0.56464 0.11739 0.38115 0.0
O320 O 0.61975 0.07312 0.39745 0.0
O321 O 0.53657 0.10033 0.43921 0.0
O322 O 0.58917 0.0577 0.45914 0.0
O323 O 0.55766 0.04765 0.39383 0.0
O324 O 0.57698 0.09076 0.46991 0.0
O325 O 0.5301 0.08791 0.40404 0.0
O326 O 0.58784 0.03686 0.41311 0.0
O327 O 0.56364 0.13491 0.41411 0.0
O328 O 0.62269 0.09189 0.4453 0.0
O329 O 0.59268 0.07756 0.37127 0.0
Sc330 Sc 0.35296 0.19323 0.80499 0.0
Sc331 Sc 0.3082 0.15613 0.80702 0.0
Sc332 Sc 0.3195 0.19342 0.85186 0.0
O333 O 0.3268 0.18097 0.82125 0.0
C334 C 0.37155 0.19102 0.85582 0.0
C335 C 0.35697 0.14175 0.79461 0.0
C336 C 0.30996 0.14151 0.85819 0.0
C337 C 0.31774 0.18615 0.76453 0.0
C338 C 0.33418 0.2372 0.82603 0.0
C339 C 0.27181 0.1872 0.82904 0.0
O340 O 0.37434 0.19265 0.83484 0.0
O341 O 0.33688 0.13698 0.79768 0.0
O342 O 0.31347 0.16095 0.86597 0.0
O343 O 0.33506 0.19501 0.77323 0.0
O344 O 0.32498 0.22768 0.84226 0.0
O345 O 0.27742 0.17193 0.81552 0.0
O346 O 0.34403 0.2267 0.811 0.0
O347 O 0.30613 0.17222 0.77487 0.0
O348 O 0.28545 0.19708 0.84238 0.0
O349 O 0.36476 0.16118 0.79692 0.0
O350 O 0.3527 0.1906 0.86419 0.0
O351 O 0.30831 0.13735 0.83731 0.0
C352 C 0.97944 0.26505 0.95004 0.0
C353 C 0.04318 0.26458 0.92461 0.0
C354 C 0.01133 0.30679 0.85327 0.0
Mg355 Mg 0.00287 0.23551 0.91548 0.0
O356 O 0.99034 0.25593 0.89554 0.0
Mg357 Mg 0.99693 0.28811 0.90218 0.0
Mg358 Mg 1.00003 0.25426 0.86392 0.0
O359 O 0.00955 0.25266 0.8326 0.0
Mg360 Mg 1.00024 0.27424 0.81217 0.0
Mg361 Mg 0.00242 0.22077 0.82551 0.0
C362 C 0.99037 0.20213 0.87522 0.0
C363 C 0.04436 0.22411 0.86102 0.0
O364 O 0.9818 0.28189 0.93707 0.0
O365 O 0.98579 0.24552 0.94474 0.0
O366 O 0.03102 0.28124 0.91961 0.0
O367 O 0.03643 0.24474 0.92135 0.0
O368 O 0.99584 0.20559 0.89601 0.0
O369 O 0.98785 0.21809 0.86099 0.0
C370 C 0.95554 0.2842 0.86563 0.0
O371 O 0.9662 0.26946 0.85491 0.0
O372 O 0.96329 0.29314 0.8839 0.0
O373 O 0.01888 0.22671 0.79083 0.0
O374 O 0.02064 0.2638 0.78596 0.0
O375 O 0.96902 0.22944 0.80798 0.0
C376 C 0.02493 0.24394 0.77988 0.0
O377 O 0.96729 0.26583 0.80133 0.0
O378 O 0.0073 0.30405 0.83209 0.0
C379 C 0.95877 0.24645 0.8002 0.0
O380 O 0.01167 0.29032 0.86694 0.0
O381 O 0.03467 0.23941 0.87205 0.0
O382 O 0.03523 0.2148 0.84363 0.0
C383 C 0.48176 0.76899 0.451 0.0
C384 C 0.54414 0.76685 0.42298 0.0
C385 C 0.50695 0.80715 0.35136 0.0
Mg386 Mg 0.50336 0.73768 0.41672 0.0
O387 O 0.49045 0.75753 0.39648 0.0
Mg388 Mg 0.49719 0.79 0.40144 0.0
Mg389 Mg 0.49786 0.75479 0.36428 0.0
O390 O 0.50471 0.75266 0.33206 0.0
Mg391 Mg 0.49018 0.77325 0.31336 0.0
Mg392 Mg 0.49759 0.72043 0.32669 0.0
C393 C 0.48924 0.70298 0.3781 0.0
C394 C 0.54209 0.72535 0.35872 0.0
O395 O 0.48409 0.7853 0.43737 0.0
O396 O 0.48721 0.74906 0.44613 0.0
O397 O 0.53202 0.78341 0.41745 0.0
O398 O 0.53709 0.74696 0.42104 0.0
O399 O 0.49552 0.70711 0.39856 0.0
O400 O 0.48607 0.71849 0.36349 0.0
C401 C 0.45372 0.78468 0.36777 0.0
O402 O 0.46342 0.76889 0.35767 0.0
O403 O 0.46285 0.79502 0.38462 0.0
O404 O 0.51032 0.7262 0.2903 0.0
O405 O 0.50467 0.7626 0.28319 0.0
O406 O 0.46267 0.72756 0.31178 0.0
C407 C 0.51105 0.74326 0.27736 0.0
O408 O 0.45629 0.76381 0.30862 0.0
O409 O 0.49976 0.80398 0.33099 0.0
C410 C 0.44994 0.74369 0.30634 0.0
O411 O 0.50941 0.79096 0.36522 0.0
O412 O 0.53295 0.74062 0.37024 0.0
O413 O 0.53195 0.71565 0.34211 0.0
C414 C 0.98845 0.74557 0.55327 0.0
C415 C 0.05174 0.75357 0.58157 0.0
C416 C 0.02674 0.70322 0.65001 0.0
Mg417 Mg 0.00851 0.77653 0.59027 0.0
O418 O 0.99911 0.75362 0.60852 0.0
Mg419 Mg 0.00928 0.7229 0.60094 0.0
Mg420 Mg 0.00918 0.75482 0.64071 0.0
O421 O 0.01932 0.75615 0.67267 0.0
Mg422 Mg 0.01366 0.73278 0.69201 0.0
Mg423 Mg 0.00941 0.78682 0.68068 0.0
C424 C 0.9935 0.80612 0.63129 0.0
C425 C 0.04974 0.79014 0.64673 0.0
O426 O 0.99308 0.72883 0.56586 0.0
O427 O 0.99231 0.76566 0.55944 0.0
O428 O 0.04208 0.7351 0.58553 0.0
O429 O 0.0427 0.77212 0.58558 0.0
O430 O 0.99856 0.8045 0.61061 0.0
O431 O 0.99343 0.78928 0.6446 0.0
C432 C 0.96776 0.72063 0.63443 0.0
O433 O 0.977 0.73597 0.64657 0.0
O434 O 0.97659 0.71312 0.61668 0.0
O435 O 0.02751 0.78156 0.71588 0.0
O436 O 0.0338 0.74486 0.71957 0.0
O437 O 0.97815 0.77354 0.69675 0.0
C438 C 0.03579 0.7649 0.72665 0.0
O439 O 0.98036 0.73695 0.70239 0.0
O440 O 0.0236 0.7047 0.6712 0.0
C441 C 0.97016 0.75535 0.70402 0.0
O442 O 0.02445 0.72014 0.63696 0.0
O443 O 0.04161 0.77389 0.635 0.0
O444 O 0.04044 0.79762 0.66413 0.0
C445 C 0.94988 0.02979 0.23495 0.0
C446 C 0.93158 0.96316 0.24789 0.0
C447 C 0.85767 0.98215 0.19757 0.0
Mg448 Mg 0.91945 0.00755 0.26902 0.0
O449 O 0.89824 0.01265 0.24632 0.0
Mg450 Mg 0.9047 0.00162 0.21537 0.0
Mg451 Mg 0.86839 0.99933 0.24915 0.0
O452 O 0.83848 0.98657 0.2518 0.0
Mg453 Mg 0.81711 0.99202 0.22916 0.0
Mg454 Mg 0.83191 0.99517 0.28345 0.0
C455 C 0.8792 0.01803 0.30021 0.0
C456 C 0.87115 0.95867 0.28483 0.0
O457 O 0.9373 0.02196 0.21893 0.0
O458 O 0.94572 0.02709 0.25573 0.0
O459 O 0.92484 0.97085 0.22877 0.0
O460 O 0.92888 0.97374 0.26613 0.0
O461 O 0.89998 0.01607 0.29767 0.0
O462 O 0.86488 0.01544 0.28391 0.0
C463 C 0.8659 0.03905 0.21271 0.0
O464 O 0.85699 0.02991 0.22958 0.0
O465 O 0.88372 0.03164 0.20455 0.0
O466 O 0.7998 0.97303 0.27853 0.0
O467 O 0.79464 0.96805 0.24106 0.0
O468 O 0.81012 0.02465 0.27274 0.0
C469 C 0.78943 0.96426 0.26134 0.0
O470 O 0.80105 0.02343 0.23607 0.0
O471 O 0.83691 0.98536 0.19961 0.0
C472 C 0.79959 0.03235 0.2555 0.0
O473 O 0.87133 0.98316 0.21462 0.0
O474 O 0.88015 0.96808 0.26819 0.0
O475 O 0.85341 0.96597 0.29297 0.0
C476 C 0.25994 0.94846 0.98534 0.0
C477 C 0.21598 0.92893 0.03489 0.0
C478 C 0.19985 0.85647 0.98713 0.0
Mg479 Mg 0.26331 0.91663 0.02649 0.0
O480 O 0.25471 0.89651 0.00399 0.0
Mg481 Mg 0.2271 0.9032 0.98574 0.0
Mg482 Mg 0.24817 0.86563 0.01335 0.0
O483 O 0.24151 0.83484 0.02225 0.0
Mg484 Mg 0.23043 0.81546 5e-05 0.0
Mg485 Mg 0.26997 0.82766 0.03863 0.0
C486 C 0.29501 0.87638 0.04028 0.0
C487 C 0.24135 0.86292 0.06703 0.0
O488 O 0.24464 0.93616 0.97625 0.0
O489 O 0.26955 0.94378 0.00428 0.0
O490 O 0.21152 0.9227 0.01465 0.0
O491 O 0.23475 0.92529 0.04443 0.0
O492 O 0.2899 0.897 0.04183 0.0
O493 O 0.28304 0.8625 0.02865 0.0
C494 C 0.25497 0.86551 0.95946 0.0
O495 O 0.25898 0.85599 0.97836 0.0
O496 O 0.24346 0.88326 0.95794 0.0
O497 O 0.25403 0.79319 0.04674 0.0
O498 O 0.22512 0.78838 0.02218 0.0
O499 O 0.284 0.8098 0.00802 0.0
C500 C 0.23732 0.78202 0.03894 0.0
O501 O 0.25774 0.80436 0.98114 0.0
O502 O 0.20322 0.83547 0.98561 0.0
C503 C 0.2775 0.80198 0.98884 0.0
O504 O 0.21359 0.86937 0.99769 0.0
O505 O 0.237 0.874 0.04899 0.0
O506 O 0.25362 0.84565 0.06715 0.0
C507 C 0.05604 0.52677 0.2625 0.0
C508 C 0.07491 0.45944 0.25802 0.0
C509 C 0.1485 0.4835 0.30445 0.0
Mg510 Mg 0.08663 0.50085 0.23155 0.0
O511 O 0.1079 0.50916 0.25311 0.0
Mg512 Mg 0.10162 0.50194 0.28513 0.0
Mg513 Mg 0.13803 0.49628 0.25148 0.0
O514 O 0.16802 0.48391 0.25018 0.0
Mg515 Mg 0.18933 0.4906 0.27265 0.0
Mg516 Mg 0.1746 0.49 0.218 0.0
C517 C 0.12668 0.50839 0.19912 0.0
C518 C 0.13654 0.4522 0.21928 0.0
O519 O 0.06864 0.52124 0.27942 0.0
O520 O 0.06034 0.52153 0.24225 0.0
O521 O 0.08193 0.46958 0.27587 0.0
O522 O 0.07733 0.46762 0.23857 0.0
O523 O 0.10605 0.50596 0.20233 0.0
O524 O 0.14125 0.50901 0.21541 0.0
C525 C 0.13978 0.54038 0.28342 0.0
O526 O 0.14911 0.52929 0.26799 0.0
O527 O 0.12197 0.5336 0.29213 0.0
O528 O 0.20657 0.46881 0.22449 0.0
O529 O 0.21168 0.46581 0.26214 0.0
O530 O 0.1958 0.52073 0.22702 0.0
C531 C 0.2168 0.46091 0.24204 0.0
O532 O 0.20519 0.52155 0.26368 0.0
O533 O 0.16938 0.48613 0.30262 0.0
C534 C 0.20633 0.52952 0.24385 0.0
O535 O 0.13511 0.48383 0.28722 0.0
O536 O 0.12713 0.4624 0.23529 0.0
O537 O 0.15391 0.45973 0.21054 0.0
C538 C 0.76773 0.55616 0.02459 0.0
C539 C 0.75725 0.5711 0.95487 0.0
C540 C 0.80244 0.64616 0.97474 0.0
Mg541 Mg 0.73359 0.58451 0.99728 0.0
O542 O 0.75447 0.60656 0.00279 0.0
Mg543 Mg 0.78581 0.60015 0.99545 0.0
Mg544 Mg 0.75109 0.63655 0.98912 0.0
O545 O 0.74865 0.6667 0.97634 0.0
Mg546 Mg 0.77098 0.68692 0.98474 0.0
Mg547 Mg 0.71766 0.67412 0.98386 0.0
C548 C 0.70075 0.62531 0.0049 0.0
C549 C 0.71784 0.63557 0.94529 0.0
O550 O 0.78295 0.56863 0.01712 0.0
O551 O 0.74727 0.55952 0.01979 0.0
O552 O 0.77525 0.5785 0.96408 0.0
O553 O 0.73874 0.57384 0.96379 0.0
O554 O 0.70456 0.60438 0.0034 0.0
O555 O 0.71613 0.64001 0.00298 0.0
C556 C 0.78421 0.63972 0.03285 0.0
O557 O 0.76799 0.64819 0.02159 0.0
O558 O 0.79379 0.622 0.02639 0.0
O559 O 0.72335 0.70759 0.96353 0.0
O560 O 0.76019 0.71184 0.96187 0.0
O561 O 0.72796 0.69426 0.01547 0.0
C562 C 0.74051 0.718 0.95683 0.0
O563 O 0.76413 0.70084 0.01731 0.0
O564 O 0.80036 0.66712 0.97817 0.0
C565 C 0.745 0.70309 0.02516 0.0
O566 O 0.78587 0.63288 0.97554 0.0
O567 O 0.73377 0.62553 0.95576 0.0
O568 O 0.70951 0.65354 0.95273 0.0
C569 C 0.26599 0.05613 0.52542 0.0
C570 C 0.25549 0.07134 0.45618 0.0
C571 C 0.30118 0.14607 0.47544 0.0
Mg572 Mg 0.23213 0.08522 0.49852 0.0
O573 O 0.25327 0.10695 0.50442 0.0
Mg574 Mg 0.28447 0.10022 0.49671 0.0
Mg575 Mg 0.25003 0.1368 0.49037 0.0
O576 O 0.2476 0.16678 0.47713 0.0
Mg577 Mg 0.26996 0.18707 0.48528 0.0
Mg578 Mg 0.21666 0.17444 0.48463 0.0
C579 C 0.19976 0.12623 0.50643 0.0
C580 C 0.21624 0.13498 0.44701 0.0
O581 O 0.2814 0.0686 0.51829 0.0
O582 O 0.24559 0.0598 0.5206 0.0
O583 O 0.27358 0.07847 0.46545 0.0
O584 O 0.237 0.07458 0.46497 0.0
O585 O 0.20326 0.10526 0.50484 0.0
O586 O 0.21528 0.14075 0.50447 0.0
C587 C 0.28347 0.14028 0.53381 0.0
O588 O 0.26731 0.14877 0.52248 0.0
O589 O 0.29283 0.12233 0.52759 0.0
O590 O 0.22235 0.20748 0.46353 0.0
O591 O 0.25921 0.21159 0.46198 0.0
O592 O 0.22709 0.19504 0.51587 0.0
C593 C 0.23957 0.21768 0.45668 0.0
O594 O 0.26326 0.20149 0.51771 0.0
O595 O 0.29917 0.16707 0.47871 0.0
C596 C 0.24413 0.20387 0.52553 0.0
O597 O 0.28462 0.13282 0.47656 0.0
O598 O 0.2323 0.1252 0.45749 0.0
O599 O 0.2081 0.15321 0.45401 0.0
C600 C 0.44631 0.53606 0.73434 0.0
C601 C 0.43297 0.46863 0.75062 0.0
C602 C 0.35771 0.48091 0.69918 0.0
Mg603 Mg 0.41794 0.51323 0.76971 0.0
O604 O 0.39629 0.51489 0.74696 0.0
Mg605 Mg 0.40343 0.50362 0.71634 0.0
Mg606 Mg 0.36716 0.5002 0.75032 0.0
O607 O 0.33774 0.48633 0.75315 0.0
Mg608 Mg 0.31662 0.49087 0.72994 0.0
Mg609 Mg 0.33045 0.49646 0.78418 0.0
C610 C 0.37702 0.52255 0.80035 0.0
C611 C 0.37078 0.46119 0.78773 0.0
O612 O 0.4346 0.52615 0.71886 0.0
O613 O 0.44221 0.53441 0.75523 0.0
O614 O 0.42545 0.47471 0.73115 0.0
O615 O 0.42997 0.48012 0.76826 0.0
O616 O 0.39788 0.52227 0.79776 0.0
O617 O 0.36294 0.51738 0.78443 0.0
C618 C 0.36259 0.53871 0.71265 0.0
O619 O 0.35438 0.52947 0.72983 0.0
O620 O 0.38069 0.53209 0.70447 0.0
O621 O 0.29863 0.47363 0.77956 0.0
O622 O 0.29396 0.46731 0.74224 0.0
O623 O 0.30856 0.52516 0.77171 0.0
C624 C 0.2885 0.46422 0.76257 0.0
O625 O 0.30032 0.52251 0.73495 0.0
O626 O 0.33684 0.48347 0.70094 0.0
C627 C 0.29849 0.53223 0.75392 0.0
O628 O 0.37119 0.48312 0.71628 0.0
O629 O 0.37991 0.47015 0.77087 0.0
O630 O 0.35259 0.46823 0.79514 0.0
C631 C 0.76123 0.44763 0.4881 0.0
C632 C 0.71718 0.42795 0.53706 0.0
C633 C 0.69982 0.35651 0.48789 0.0
Mg634 Mg 0.76416 0.41482 0.52844 0.0
O635 O 0.75548 0.39527 0.50543 0.0
Mg636 Mg 0.72787 0.4028 0.48752 0.0
Mg637 Mg 0.74801 0.36452 0.51456 0.0
O638 O 0.7404 0.33402 0.52342 0.0
Mg639 Mg 0.72887 0.3145 0.50156 0.0
Mg640 Mg 0.76783 0.32598 0.54108 0.0
C641 C 0.79485 0.37376 0.54223 0.0
C642 C 0.74022 0.36293 0.56818 0.0
O643 O 0.7458 0.43567 0.47877 0.0
O644 O 0.77086 0.44241 0.50688 0.0
O645 O 0.71261 0.42217 0.5167 0.0
O646 O 0.73581 0.42363 0.54657 0.0
O647 O 0.79013 0.39447 0.54378 0.0
O648 O 0.78277 0.3601 0.53041 0.0
C649 C 0.75498 0.36482 0.46072 0.0
O650 O 0.75864 0.35472 0.47941 0.0
O651 O 0.74404 0.38297 0.45962 0.0
O652 O 0.74958 0.29273 0.54972 0.0
O653 O 0.72093 0.28906 0.52468 0.0
O654 O 0.78197 0.30669 0.51142 0.0
C655 C 0.73215 0.2826 0.54206 0.0
O656 O 0.75633 0.30111 0.48401 0.0
O657 O 0.70276 0.33544 0.48633 0.0
C658 C 0.77586 0.29845 0.4923 0.0
O659 O 0.71367 0.36908 0.49873 0.0
O660 O 0.73655 0.37365 0.54983 0.0
O661 O 0.75183 0.34523 0.56894 0.0
C662 C 0.5566 0.02693 0.76204 0.0
C663 C 0.57601 0.96039 0.75416 0.0
C664 C 0.64915 0.98034 0.80256 0.0
Mg665 Mg 0.58796 0.00316 0.72993 0.0
O666 O 0.60888 0.01041 0.75235 0.0
Mg667 Mg 0.60218 0.00146 0.78379 0.0
Mg668 Mg 0.63901 0.99751 0.75051 0.0
O669 O 0.66893 0.98494 0.74863 0.0
Mg670 Mg 0.69031 0.98886 0.77156 0.0
Mg671 Mg 0.67598 0.99328 0.7171 0.0
C672 C 0.62865 0.01315 0.69895 0.0
C673 C 0.63756 0.95571 0.71525 0.0
O674 O 0.56913 0.02066 0.77873 0.0
O675 O 0.56121 0.02296 0.74157 0.0
O676 O 0.58273 0.96968 0.77257 0.0
O677 O 0.57876 0.96944 0.73515 0.0
O678 O 0.60791 0.01026 0.70123 0.0
O679 O 0.64278 0.01251 0.71558 0.0
C680 C 0.64044 0.03986 0.78467 0.0
O681 O 0.65008 0.02941 0.76902 0.0
O682 O 0.62236 0.03283 0.79263 0.0
O683 O 0.70784 0.97167 0.72195 0.0
O684 O 0.71247 0.96489 0.75907 0.0
O685 O 0.69748 0.02302 0.72876 0.0
C686 C 0.71791 0.96212 0.73868 0.0
O687 O 0.70675 0.02022 0.76536 0.0
O688 O 0.67014 0.9817 0.80073 0.0
C689 C 0.70821 0.02992 0.74637 0.0
O690 O 0.63568 0.98328 0.78563 0.0
O691 O 0.62807 0.96471 0.73192 0.0
O692 O 0.65506 0.9638 0.70725 0.0
C693 C 0.49194 0.23813 0.05004 0.0
C694 C 0.5544 0.24993 0.07917 0.0
C695 C 0.52785 0.20272 0.14951 0.0
Mg696 Mg 0.50995 0.27233 0.08491 0.0
O697 O 0.50175 0.25066 0.10508 0.0
Mg698 Mg 0.51256 0.21963 0.09974 0.0
Mg699 Mg 0.51171 0.25402 0.13723 0.0
O700 O 0.52148 0.25713 0.16911 0.0
Mg701 Mg 0.51507 0.23487 0.18951 0.0
Mg702 Mg 0.512 0.28835 0.17536 0.0
C703 C 0.49603 0.30482 0.12442 0.0
C704 C 0.5527 0.28901 0.1416 0.0
O705 O 0.49753 0.2227 0.06389 0.0
O706 O 0.49388 0.25882 0.05487 0.0
O707 O 0.54551 0.23142 0.08444 0.0
O708 O 0.54428 0.26829 0.08083 0.0
O709 O 0.50037 0.3015 0.10372 0.0
O710 O 0.49608 0.28896 0.13895 0.0
C711 C 0.47055 0.21936 0.13271 0.0
O712 O 0.47959 0.23551 0.14387 0.0
O713 O 0.47955 0.2107 0.11557 0.0
O714 O 0.53 0.28446 0.21092 0.0
O715 O 0.53561 0.2478 0.21624 0.0
O716 O 0.48041 0.27677 0.19221 0.0
C717 C 0.53803 0.26808 0.22237 0.0
O718 O 0.48208 0.24054 0.19991 0.0
O719 O 0.52379 0.20517 0.17041 0.0
C720 C 0.4722 0.25918 0.20061 0.0
O721 O 0.52708 0.21928 0.1359 0.0
O722 O 0.54435 0.27236 0.13066 0.0
O723 O 0.54336 0.2976 0.15845 0.0
H724 H 0.07211 0.33043 0.59421 0.0
H725 H 0.06722 0.29567 0.61477 0.0
H726 H 0.04222 0.33234 0.67049 0.0
H727 H 0.04695 0.36697 0.65028 0.0
H728 H 0.08604 0.28386 0.65803 0.0
H729 H 0.99529 0.28357 0.65736 0.0
H730 H 0.01071 0.29975 0.63783 0.0
H731 H 0.00644 0.31008 0.66572 0.0
C732 C 0.06547 0.33109 0.61081 0.0
C733 C 0.05984 0.35154 0.62055 0.0
C734 C 0.0627 0.31121 0.62249 0.0
C735 C 0.05398 0.31145 0.64392 0.0
C736 C 0.04854 0.33178 0.65374 0.0
H737 H 0.06119 0.26546 0.76724 0.0
H738 H 0.07123 0.27221 0.72878 0.0
C739 C 0.05142 0.35161 0.6422 0.0
C740 C 0.05131 0.29078 0.65688 0.0
H741 H 0.01379 0.26513 0.68894 0.0
C742 C 0.07018 0.27926 0.66434 0.0
C743 C 0.03057 0.2843 0.66452 0.0
C744 C 0.00957 0.29492 0.65573 0.0
C745 C 0.06909 0.26319 0.68128 0.0
C746 C 0.04872 0.25894 0.69114 0.0
C747 C 0.02952 0.26853 0.68167 0.0
C748 C 0.04741 0.24911 0.71386 0.0
C749 C 0.08996 0.25187 0.68932 0.0
C750 C 0.03119 0.23325 0.71851 0.0
C751 C 0.02546 0.22935 0.74072 0.0
C752 C 0.03569 0.24152 0.75838 0.0
C753 C 0.05324 0.25576 0.75386 0.0
C754 C 0.05908 0.25949 0.73182 0.0
H755 H 0.10081 0.24887 0.67506 0.0
H756 H 0.09907 0.26284 0.70149 0.0
H757 H 0.08654 0.23581 0.69761 0.0
H758 H 0.0218 0.22525 0.70491 0.0
H759 H 0.01162 0.21857 0.74383 0.0
H760 H 0.63377 0.68935 0.58205 0.0
H761 H 0.61978 0.70901 0.54879 0.0
H762 H 0.61437 0.76899 0.58777 0.0
H763 H 0.62854 0.74935 0.62142 0.0
H764 H 0.57718 0.75657 0.55365 0.0
H765 H 0.66076 0.75792 0.51979 0.0
H766 H 0.65231 0.73141 0.53028 0.0
H767 H 0.65591 0.75445 0.54933 0.0
C768 C 0.62918 0.70661 0.58371 0.0
C769 C 0.63239 0.71784 0.60431 0.0
C770 C 0.62134 0.71784 0.56466 0.0
C771 C 0.6166 0.74052 0.56579 0.0
C772 C 0.6182 0.75151 0.58661 0.0
H773 H 0.55547 0.80415 0.44719 0.0
H774 H 0.57783 0.80416 0.48217 0.0
C775 C 0.62607 0.74022 0.60582 0.0
C776 C 0.6108 0.75251 0.54481 0.0
H777 H 0.6307 0.76365 0.49322 0.0
C778 C 0.58891 0.75873 0.54057 0.0
C779 C 0.62627 0.75527 0.52792 0.0
C780 C 0.6502 0.7496 0.53205 0.0
C781 C 0.58167 0.76603 0.51919 0.0
C782 C 0.59691 0.7675 0.50182 0.0
C783 C 0.6191 0.7626 0.50655 0.0
C784 C 0.58936 0.77057 0.4781 0.0
C785 C 0.55747 0.77049 0.51491 0.0
C786 C 0.59028 0.7525 0.46325 0.0
C787 C 0.57773 0.7525 0.44314 0.0
C788 C 0.56398 0.77054 0.43769 0.0
C789 C 0.56569 0.78988 0.45099 0.0
C790 C 0.57828 0.78985 0.47115 0.0
H791 H 0.54749 0.76553 0.52932 0.0
H792 H 0.55498 0.78848 0.51196 0.0
H793 H 0.55118 0.76141 0.4997 0.0
H794 H 0.59903 0.73757 0.46817 0.0
H795 H 0.57705 0.73749 0.43306 0.0
H796 H 0.93203 0.12847 0.66068 0.0
H797 H 0.92313 0.15781 0.68665 0.0
H798 H 0.92412 0.20571 0.63312 0.0
H799 H 0.93299 0.17608 0.60646 0.0
H800 H 0.94924 0.21685 0.67387 0.0
H801 H 0.8645 0.19174 0.69225 0.0
H802 H 0.88294 0.16859 0.69278 0.0
H803 H 0.87775 0.1834 0.66692 0.0
C804 C 0.9304 0.14518 0.65422 0.0
C805 C 0.93327 0.14986 0.63138 0.0
C806 C 0.92501 0.16192 0.66912 0.0
C807 C 0.92235 0.18377 0.66166 0.0
C808 C 0.9257 0.18881 0.63905 0.0
H809 H 0.93741 0.27692 0.77305 0.0
H810 H 0.91957 0.26775 0.73672 0.0
C811 C 0.93093 0.17191 0.62393 0.0
C812 C 0.91796 0.2012 0.67839 0.0
H813 H 0.88537 0.21038 0.72278 0.0
C814 C 0.93493 0.21617 0.68414 0.0
C815 C 0.89919 0.20022 0.69163 0.0
C816 C 0.87996 0.18525 0.68543 0.0
C817 C 0.93485 0.22829 0.70429 0.0
C818 C 0.91701 0.22564 0.71871 0.0
C819 C 0.89899 0.21238 0.71174 0.0
C820 C 0.91926 0.23238 0.74261 0.0
C821 C 0.95494 0.24196 0.71104 0.0
C822 C 0.92262 0.21576 0.7588 0.0
C823 C 0.93268 0.2209 0.77962 0.0
C824 C 0.93972 0.24273 0.78437 0.0
C825 C 0.93278 0.25982 0.76967 0.0
C826 C 0.92265 0.25463 0.74881 0.0
H827 H 0.9682 0.24047 0.69882 0.0
H828 H 0.95035 0.25971 0.71217 0.0
H829 H 0.96164 0.23673 0.72781 0.0
H830 H 0.91974 0.19848 0.75448 0.0
H831 H 0.93724 0.20739 0.79078 0.0
H832 H 0.4127 0.80167 0.65553 0.0
H833 H 0.43894 0.79977 0.62501 0.0
H834 H 0.38649 0.77868 0.57888 0.0
H835 H 0.36047 0.78086 0.60877 0.0
H836 H 0.4504 0.76507 0.59359 0.0
H837 H 0.41009 0.83628 0.55109 0.0
H838 H 0.40585 0.82957 0.58015 0.0
H839 H 0.3906 0.81519 0.55798 0.0
C840 C 0.40696 0.79632 0.63893 0.0
C841 C 0.38455 0.79177 0.63436 0.0
C842 C 0.42188 0.79532 0.62156 0.0
C843 C 0.41445 0.78967 0.59963 0.0
C844 C 0.3924 0.78366 0.59556 0.0
H845 H 0.46441 0.7393 0.48001 0.0
H846 H 0.45196 0.74642 0.51777 0.0
C847 C 0.37758 0.78485 0.61267 0.0
C848 C 0.42907 0.79069 0.58042 0.0
H849 H 0.43068 0.81199 0.52758 0.0
C850 C 0.44646 0.77562 0.57929 0.0
C851 C 0.42425 0.80487 0.56203 0.0
C852 C 0.40683 0.82256 0.56294 0.0
C853 C 0.45809 0.77322 0.55951 0.0
C854 C 0.45166 0.7858 0.54031 0.0
C855 C 0.43539 0.80204 0.54212 0.0
C856 C 0.4603 0.78139 0.51778 0.0
C857 C 0.47689 0.75701 0.55933 0.0
C858 C 0.46827 0.79886 0.50477 0.0
C859 C 0.47483 0.79494 0.48289 0.0
C860 C 0.47368 0.77344 0.47366 0.0
C861 C 0.46565 0.75601 0.48669 0.0
C862 C 0.45881 0.76 0.50843 0.0
H863 H 0.48484 0.75537 0.57636 0.0
H864 H 0.47048 0.74041 0.55422 0.0
H865 H 0.48953 0.76216 0.54742 0.0
H866 H 0.46935 0.81555 0.51154 0.0
H867 H 0.48111 0.80869 0.47334 0.0
H868 H 0.06894 0.67584 0.91574 0.0
H869 H 0.06493 0.71201 0.89708 0.0
H870 H 0.04664 0.6789 0.83479 0.0
H871 H 0.05065 0.643 0.85301 0.0
H872 H 0.08818 0.72629 0.85699 0.0
H873 H 0.99788 0.72645 0.84345 0.0
H874 H 0.0117 0.71002 0.86504 0.0
H875 H 0.00957 0.70015 0.83645 0.0
C876 C 0.06389 0.67631 0.8981 0.0
C877 C 0.06011 0.65652 0.88586 0.0
C878 C 0.06163 0.69696 0.88751 0.0
C879 C 0.05516 0.69806 0.86469 0.0
C880 C 0.05128 0.67838 0.85253 0.0
H881 H 0.07132 0.74405 0.74492 0.0
H882 H 0.07879 0.7381 0.78478 0.0
C883 C 0.05375 0.65785 0.86296 0.0
C884 C 0.05349 0.71944 0.85267 0.0
H885 H 0.01879 0.74543 0.81529 0.0
C886 C 0.0729 0.73107 0.8484 0.0
C887 C 0.03348 0.72608 0.84199 0.0
C888 C 0.01192 0.71516 0.84715 0.0
C889 C 0.07321 0.74733 0.83157 0.0
C890 C 0.05373 0.75163 0.81859 0.0
C891 C 0.03385 0.74204 0.82498 0.0
C892 C 0.05423 0.76127 0.79572 0.0
C893 C 0.09467 0.75865 0.82688 0.0
C894 C 0.03854 0.77699 0.78842 0.0
C895 C 0.03424 0.78041 0.76541 0.0
C896 C 0.04539 0.76789 0.74953 0.0
C897 C 0.06258 0.75395 0.75687 0.0
C898 C 0.06698 0.75069 0.77974 0.0
H899 H 0.10439 0.76167 0.84279 0.0
H900 H 0.10454 0.74767 0.81624 0.0
H901 H 0.09206 0.7747 0.8181 0.0
H902 H 0.02837 0.78519 0.80042 0.0
H903 H 0.0207 0.79103 0.76014 0.0
H904 H 0.87435 0.67626 0.4001 0.0
H905 H 0.90356 0.68637 0.42755 0.0
H906 H 0.93631 0.72387 0.3771 0.0
H907 H 0.9072 0.71373 0.34929 0.0
H908 H 0.95776 0.68642 0.42208 0.0
H909 H 0.912 0.76548 0.43332 0.0
H910 H 0.89739 0.74078 0.42401 0.0
H911 H 0.91602 0.75408 0.40572 0.0
C912 C 0.88797 0.6863 0.3947 0.0
C913 C 0.88837 0.69446 0.37265 0.0
C914 C 0.90466 0.69193 0.41034 0.0
C915 C 0.92187 0.70585 0.40419 0.0
C916 C 0.9231 0.713 0.38195 0.0
H917 H 0.98941 0.77356 0.51736 0.0
H918 H 0.97795 0.76529 0.4784 0.0
C919 C 0.90647 0.70721 0.36617 0.0
C920 C 0.93667 0.71497 0.42194 0.0
H921 H 0.9382 0.75584 0.46153 0.0
C922 C 0.95393 0.70185 0.43048 0.0
C923 C 0.93163 0.7352 0.43252 0.0
C924 C 0.91329 0.74985 0.42352 0.0
C925 C 0.96557 0.70789 0.45034 0.0
C926 C 0.95915 0.7271 0.4621 0.0
C927 C 0.94294 0.74102 0.45258 0.0
C928 C 0.9672 0.7318 0.48531 0.0
C929 C 0.9842 0.69336 0.45879 0.0
C930 C 0.96441 0.7159 0.50212 0.0
C931 C 0.97096 0.72052 0.52431 0.0
C932 C 0.98003 0.74131 0.53015 0.0
C933 C 0.9823 0.75745 0.51338 0.0
C934 C 0.97596 0.7527 0.49111 0.0
H935 H 0.99222 0.68501 0.44463 0.0
H936 H 0.99682 0.70303 0.46867 0.0
H937 H 0.97761 0.68022 0.46971 0.0
H938 H 0.9569 0.69997 0.49813 0.0
H939 H 0.96886 0.70783 0.53689 0.0
H940 H 0.95762 0.86845 0.84951 0.0
H941 H 0.95502 0.83792 0.82271 0.0
H942 H 0.91162 0.80266 0.86578 0.0
H943 H 0.91405 0.83349 0.893 0.0
H944 H 0.96449 0.79081 0.83033 0.0
H945 H 0.8779 0.8085 0.80223 0.0
H946 H 0.89473 0.8292 0.81671 0.0
H947 H 0.88484 0.80574 0.83179 0.0
C948 C 0.94762 0.85418 0.85347 0.0
C949 C 0.93594 0.85348 0.87337 0.0
C950 C 0.94619 0.83671 0.83812 0.0
C951 C 0.93296 0.81818 0.84217 0.0
C952 C 0.92175 0.81696 0.86229 0.0
H953 H 0.95693 0.72417 0.73427 0.0
H954 H 0.94076 0.73314 0.77006 0.0
C955 C 0.92329 0.83449 0.87786 0.0
C956 C 0.93089 0.80071 0.82468 0.0
H957 H 0.89828 0.7852 0.77928 0.0
C958 C 0.94984 0.78897 0.81948 0.0
C959 C 0.91175 0.79861 0.81058 0.0
C960 C 0.89108 0.81116 0.81542 0.0
C961 C 0.95079 0.77652 0.79962 0.0
C962 C 0.93201 0.77541 0.78477 0.0
C963 C 0.91253 0.78589 0.79079 0.0
C964 C 0.93385 0.76727 0.76138 0.0
C965 C 0.97251 0.76636 0.79379 0.0
C966 C 0.93305 0.78276 0.74384 0.0
C967 C 0.94203 0.77764 0.72326 0.0
C968 C 0.95218 0.75701 0.72004 0.0
C969 C 0.94965 0.74037 0.73631 0.0
C970 C 0.94056 0.74551 0.75691 0.0
H971 H 0.98612 0.77147 0.80572 0.0
H972 H 0.97115 0.74801 0.79428 0.0
H973 H 0.977 0.77123 0.77659 0.0
H974 H 0.92761 0.79958 0.74681 0.0
H975 H 0.94324 0.79071 0.71092 0.0
H976 H 0.16611 0.81468 0.41881 0.0
H977 H 0.15198 0.80258 0.45443 0.0
H978 H 0.09703 0.77077 0.41941 0.0
H979 H 0.11107 0.78288 0.38332 0.0
H980 H 0.08584 0.79612 0.45761 0.0
H981 H 0.15434 0.73839 0.47815 0.0
H982 H 0.16318 0.76589 0.47111 0.0
H983 H 0.14891 0.74908 0.45018 0.0
C984 C 0.15096 0.80517 0.41853 0.0
C985 C 0.13983 0.79963 0.39805 0.0
C986 C 0.143 0.79812 0.43899 0.0
C987 C 0.12378 0.78531 0.43955 0.0
C988 C 0.11208 0.78043 0.4193 0.0
H989 H 0.06492 0.72078 0.55319 0.0
H990 H 0.08536 0.72679 0.51915 0.0
C991 C 0.12007 0.78746 0.3987 0.0
C992 C 0.11581 0.7775 0.46141 0.0
H993 H 0.13072 0.7472 0.50802 0.0
C994 C 0.09557 0.7853 0.46854 0.0
C995 C 0.12846 0.7632 0.47559 0.0
C996 C 0.14984 0.75345 0.46833 0.0
C997 C 0.08796 0.77978 0.48977 0.0
C998 C 0.10104 0.76627 0.50432 0.0
C999 C 0.12094 0.75784 0.49695 0.0
C1000 C 0.0939 0.76084 0.52716 0.0
C1001 C 0.06598 0.78849 0.4966 0.0
C1002 C 0.09334 0.7775 0.54361 0.0
C1003 C 0.08184 0.7741 0.56316 0.0
C1004 C 0.07055 0.754 0.56648 0.0
C1005 C 0.0734 0.73645 0.55121 0.0
C1006 C 0.08495 0.7399 0.53162 0.0
H1007 H 0.0562 0.79528 0.48207 0.0
H1008 H 0.05628 0.77517 0.50449 0.0
H1009 H 0.06865 0.80195 0.50918 0.0
H1010 H 0.10044 0.79368 0.54057 0.0
H1011 H 0.08016 0.78788 0.57469 0.0
H1012 H 0.60748 0.07266 0.33081 0.0
H1013 H 0.63634 0.07155 0.30305 0.0
H1014 H 0.68594 0.07854 0.35628 0.0
H1015 H 0.65755 0.07975 0.38392 0.0
H1016 H 0.69259 0.10632 0.31794 0.0
H1017 H 0.67788 0.01777 0.29445 0.0
H1018 H 0.65468 0.03616 0.29279 0.0
H1019 H 0.66733 0.02972 0.31968 0.0
C1020 C 0.62452 0.07408 0.33659 0.0
C1021 C 0.6301 0.07612 0.3597 0.0
C1022 C 0.64101 0.07333 0.3207 0.0
C1023 C 0.66335 0.07473 0.3276 0.0
C1024 C 0.66886 0.07738 0.35053 0.0
H1025 H 0.79498 0.05942 0.29186 0.0
H1026 H 0.76049 0.07359 0.30534 0.0
C1027 C 0.65251 0.07798 0.36636 0.0
C1028 C 0.68128 0.07295 0.31133 0.0
H1029 H 0.708 0.03556 0.27901 0.0
C1030 C 0.6958 0.09094 0.30916 0.0
C1031 C 0.68543 0.05295 0.29975 0.0
C1032 C 0.67066 0.03294 0.30177 0.0
C1033 C 0.71466 0.08927 0.29633 0.0
C1034 C 0.71949 0.06888 0.28577 0.0
C1035 C 0.70438 0.05122 0.28705 0.0
C1036 C 0.74105 0.06457 0.27544 0.0
C1037 C 0.72934 0.10935 0.29444 0.0
C1038 C 0.74197 0.05528 0.2538 0.0
C1039 C 0.76185 0.0471 0.24599 0.0
C1040 C 0.78115 0.04773 0.25983 0.0
C1041 C 0.7805 0.05872 0.2807 0.0
C1042 C 0.76069 0.06691 0.28845 0.0
H1043 H 0.71979 0.12493 0.29576 0.0
H1044 H 0.74189 0.10928 0.30847 0.0
H1045 H 0.7379 0.10943 0.27831 0.0
H1046 H 0.72707 0.05322 0.24343 0.0
H1047 H 0.7616 0.03855 0.22995 0.0
H1048 H 0.29943 0.09871 0.84732 0.0
H1049 H 0.29336 0.06792 0.87254 0.0
H1050 H 0.30817 0.11028 0.92971 0.0
H1051 H 0.31397 0.14166 0.90445 0.0
H1052 H 0.32196 0.04878 0.90398 0.0
H1053 H 0.24816 0.08345 0.94371 0.0
H1054 H 0.259 0.09499 0.91847 0.0
H1055 H 0.27251 0.10045 0.94528 0.0
C1056 C 0.30144 0.10163 0.86525 0.0
C1057 C 0.30708 0.12277 0.87385 0.0
C1058 C 0.29798 0.08393 0.87964 0.0
C1059 C 0.30007 0.08689 0.90296 0.0
C1060 C 0.3061 0.10779 0.91173 0.0
H1061 H 0.2881 0.98079 0.00144 0.0
H1062 H 0.2988 0.01496 0.9827 0.0
C1063 C 0.30951 0.12565 0.89728 0.0
C1064 C 0.29577 0.06783 0.91774 0.0
H1065 H 0.25958 0.04779 0.9552 0.0
C1066 C 0.30846 0.04863 0.91535 0.0
C1067 C 0.27805 0.0677 0.93243 0.0
C1068 C 0.26349 0.08766 0.93509 0.0
C1069 C 0.30359 0.02913 0.92692 0.0
C1070 C 0.28565 0.02891 0.94118 0.0
C1071 C 0.27332 0.0482 0.94414 0.0
C1072 C 0.27899 0.00843 0.9525 0.0
C1073 C 0.31723 0.00866 0.92351 0.0
C1074 C 0.26431 0.99362 0.94156 0.0
C1075 C 0.2581 0.97405 0.95216 0.0
C1076 C 0.26657 0.96903 0.97385 0.0
C1077 C 0.28132 0.98405 0.9847 0.0
C1078 C 0.28744 0.00362 0.9741 0.0
H1079 H 0.33132 0.01185 0.91264 0.0
H1080 H 0.3236 0.00238 0.94001 0.0
H1081 H 0.30675 0.99541 0.91566 0.0
H1082 H 0.25771 0.99719 0.92481 0.0
H1083 H 0.24674 0.96288 0.94333 0.0
H1084 H 0.40497 0.41931 0.32638 0.0
H1085 H 0.3821 0.41942 0.29156 0.0
H1086 H 0.33081 0.45305 0.32596 0.0
H1087 H 0.35335 0.45306 0.3607 0.0
H1088 H 0.33898 0.40025 0.28499 0.0
H1089 H 0.33904 0.49036 0.26851 0.0
H1090 H 0.35966 0.47714 0.2865 0.0
H1091 H 0.3334 0.48443 0.29724 0.0
C1092 C 0.38889 0.42693 0.32649 0.0
C1093 C 0.38101 0.43626 0.34635 0.0
C1094 C 0.37588 0.42693 0.30658 0.0
C1095 C 0.35497 0.43656 0.30615 0.0
C1096 C 0.34711 0.44592 0.32587 0.0
H1097 H 0.23097 0.4268 0.268 0.0
H1098 H 0.26897 0.41554 0.2738 0.0
C1099 C 0.35997 0.44578 0.34577 0.0
C1100 C 0.34051 0.43598 0.28562 0.0
H1101 H 0.30671 0.46993 0.2548 0.0
C1102 C 0.33232 0.41544 0.27784 0.0
C1103 C 0.33237 0.45573 0.27578 0.0
C1104 C 0.34176 0.47815 0.28227 0.0
C1105 C 0.31432 0.4143 0.26238 0.0
C1106 C 0.30418 0.43418 0.25496 0.0
C1107 C 0.3142 0.4546 0.26064 0.0
C1108 C 0.28108 0.43471 0.24609 0.0
C1109 C 0.30558 0.39183 0.25519 0.0
C1110 C 0.27487 0.44846 0.22792 0.0
C1111 C 0.25294 0.45503 0.22464 0.0
C1112 C 0.23712 0.44811 0.23972 0.0
C1113 C 0.24291 0.43239 0.2562 0.0
C1114 C 0.26468 0.42577 0.25938 0.0
H1115 H 0.3193 0.37997 0.25331 0.0
H1116 H 0.29499 0.38519 0.26839 0.0
H1117 H 0.2958 0.39266 0.23908 0.0
H1118 H 0.28726 0.45566 0.21753 0.0
H1119 H 0.2489 0.46728 0.2119 0.0
H1120 H 0.6796 0.40675 0.855 0.0
H1121 H 0.69453 0.44121 0.87102 0.0
H1122 H 0.75006 0.40571 0.8998 0.0
H1123 H 0.73512 0.37083 0.88377 0.0
H1124 H 0.70808 0.44987 0.91962 0.0
H1125 H 0.77473 0.45816 0.85853 0.0
H1126 H 0.75043 0.44153 0.85236 0.0
H1127 H 0.77092 0.43196 0.87242 0.0
C1128 C 0.69488 0.40617 0.86493 0.0
C1129 C 0.70622 0.38607 0.86808 0.0
C1130 C 0.70339 0.42589 0.87402 0.0
C1131 C 0.72351 0.42599 0.88625 0.0
C1132 C 0.7346 0.40592 0.89015 0.0
H1133 H 0.78945 0.54095 0.94751 0.0
H1134 H 0.78371 0.50539 0.92811 0.0
C1135 C 0.72595 0.38602 0.8812 0.0
C1136 C 0.73259 0.44735 0.89472 0.0
H1137 H 0.77002 0.48794 0.88363 0.0
C1138 C 0.72174 0.45812 0.91192 0.0
C1139 C 0.75044 0.45796 0.8846 0.0
C1140 C 0.76238 0.44697 0.86588 0.0
C1141 C 0.72803 0.47947 0.91909 0.0
C1142 C 0.74525 0.49056 0.9083 0.0
C1143 C 0.75664 0.4795 0.8916 0.0
C1144 C 0.75135 0.51367 0.91445 0.0
C1145 C 0.71615 0.48998 0.93818 0.0
C1146 C 0.73578 0.53063 0.91167 0.0
C1147 C 0.73897 0.55089 0.92276 0.0
C1148 C 0.75788 0.55454 0.9366 0.0
C1149 C 0.77474 0.53864 0.9369 0.0
C1150 C 0.77142 0.51823 0.92596 0.0
H1151 H 0.70748 0.4774 0.94822 0.0
H1152 H 0.72775 0.49936 0.94955 0.0
H1153 H 0.70369 0.50174 0.93123 0.0
H1154 H 0.72037 0.52754 0.90243 0.0
H1155 H 0.72579 0.56293 0.92211 0.0
H1156 H 0.65271 0.94527 0.13598 0.0
H1157 H 0.67619 0.94703 0.16997 0.0
H1158 H 0.62152 0.92819 0.20979 0.0
H1159 H 0.59765 0.92621 0.17563 0.0
H1160 H 0.66894 0.97427 0.20946 0.0
H1161 H 0.67235 0.88366 0.22755 0.0
H1162 H 0.66429 0.89392 0.2 0.0
H1163 H 0.64601 0.89668 0.22271 0.0
C1164 C 0.64556 0.94145 0.15189 0.0
C1165 C 0.62323 0.93557 0.15298 0.0
C1166 C 0.65904 0.94251 0.17134 0.0
C1167 C 0.65062 0.93763 0.19235 0.0
C1168 C 0.62837 0.93181 0.19368 0.0
H1169 H 0.75633 0.97405 0.28951 0.0
H1170 H 0.71752 0.96446 0.28174 0.0
C1171 C 0.61476 0.93079 0.17414 0.0
C1172 C 0.66554 0.93895 0.21258 0.0
H1173 H 0.69771 0.90662 0.24726 0.0
C1174 C 0.6749 0.95961 0.21823 0.0
C1175 C 0.6731 0.91974 0.22393 0.0
C1176 C 0.66356 0.89716 0.21833 0.0
C1177 C 0.69294 0.96141 0.23354 0.0
C1178 C 0.70159 0.94194 0.2438 0.0
C1179 C 0.69099 0.9215 0.23952 0.0
C1180 C 0.72407 0.94188 0.25447 0.0
C1181 C 0.70376 0.98387 0.2369 0.0
C1182 C 0.74062 0.93055 0.24343 0.0
C1183 C 0.76267 0.93568 0.24811 0.0
C1184 C 0.76854 0.95222 0.2639 0.0
C1185 C 0.75223 0.9612 0.27726 0.0
C1186 C 0.73003 0.95597 0.2726 0.0
H1187 H 0.6965 0.99664 0.22548 0.0
H1188 H 0.70173 0.98955 0.25444 0.0
H1189 H 0.72163 0.98286 0.23397 0.0
H1190 H 0.73649 0.91943 0.22954 0.0
H1191 H 0.77496 0.92841 0.23769 0.0
H1192 H 0.22218 0.0989 0.13033 0.0
H1193 H 0.21549 0.06403 0.1103 0.0
H1194 H 0.17138 0.0972 0.06312 0.0
H1195 H 0.17826 0.13256 0.08322 0.0
H1196 H 0.16993 0.0467 0.10564 0.0
H1197 H 0.21197 0.05587 0.02457 0.0
H1198 H 0.22047 0.07201 0.04904 0.0
H1199 H 0.19493 0.07801 0.03438 0.0
C1200 C 0.21154 0.09891 0.1153 0.0
C1201 C 0.20076 0.11837 0.10825 0.0
C1202 C 0.20763 0.07898 0.10397 0.0
C1203 C 0.1928 0.07804 0.08541 0.0
C1204 C 0.18296 0.09767 0.07739 0.0
H1205 H 0.18157 0.95137 0.01473 0.0
H1206 H 0.16789 0.98732 0.02674 0.0
C1207 C 0.18702 0.11783 0.08872 0.0
C1208 C 0.18678 0.05603 0.07592 0.0
H1209 H 0.19892 0.02046 0.03365 0.0
C1210 C 0.17583 0.04102 0.08966 0.0
C1211 C 0.19428 0.04882 0.05502 0.0
C1212 C 0.20613 0.06439 0.03978 0.0
C1213 C 0.17346 0.01859 0.08369 0.0
C1214 C 0.18254 0.01097 0.06362 0.0
C1215 C 0.19198 0.02633 0.04907 0.0
C1216 C 0.18552 0.98703 0.05897 0.0
C1217 C 0.162 0.0031 0.0993 0.0
C1218 C 0.199 0.97438 0.07364 0.0
C1219 C 0.2069 0.95381 0.06684 0.0
C1220 C 0.20163 0.94564 0.04514 0.0
C1221 C 0.1861 0.95719 0.03151 0.0
C1222 C 0.17831 0.97784 0.03829 0.0
H1223 H 0.14955 0.01206 0.10899 0.0
H1224 H 0.15379 0.9892 0.08994 0.0
H1225 H 0.17428 0.99607 0.11152 0.0
H1226 H 0.20499 0.98122 0.08958 0.0
H1227 H 0.21869 0.94531 0.07782 0.0
H1228 H 0.39876 0.56832 0.16847 0.0
H1229 H 0.36922 0.56565 0.1955 0.0
H1230 H 0.32072 0.56914 0.14097 0.0
H1231 H 0.34958 0.57164 0.11414 0.0
H1232 H 0.33027 0.59533 0.2023 0.0
H1233 H 0.30748 0.51016 0.17439 0.0
H1234 H 0.33377 0.52259 0.16882 0.0
H1235 H 0.3098 0.5294 0.15164 0.0
C1236 C 0.3818 0.56855 0.16227 0.0
C1237 C 0.37667 0.56988 0.13903 0.0
C1238 C 0.36496 0.56711 0.17774 0.0
C1239 C 0.34278 0.56692 0.17019 0.0
C1240 C 0.3377 0.56892 0.14715 0.0
H1241 H 0.21078 0.55447 0.20606 0.0
H1242 H 0.24559 0.56732 0.19164 0.0
C1243 C 0.35435 0.57032 0.13179 0.0
C1244 C 0.32459 0.56383 0.18585 0.0
H1245 H 0.28071 0.52991 0.19474 0.0
C1246 C 0.31963 0.58087 0.201 0.0
C1247 C 0.31076 0.54492 0.18417 0.0
C1248 C 0.31579 0.52561 0.16904 0.0
C1249 C 0.30051 0.57991 0.21363 0.0
C1250 C 0.28613 0.56155 0.21093 0.0
C1251 C 0.29164 0.54414 0.19654 0.0
C1252 C 0.26475 0.56005 0.22202 0.0
C1253 C 0.29522 0.59879 0.22911 0.0
C1254 C 0.26379 0.55287 0.24435 0.0
C1255 C 0.2438 0.54556 0.25275 0.0
C1256 C 0.22455 0.54501 0.23878 0.0
C1257 C 0.22525 0.55453 0.21726 0.0
C1258 C 0.24518 0.56184 0.20893 0.0
H1259 H 0.30768 0.61231 0.22879 0.0
H1260 H 0.27883 0.60568 0.22425 0.0
H1261 H 0.29438 0.59255 0.24657 0.0
H1262 H 0.27874 0.55123 0.25467 0.0
H1263 H 0.24395 0.53826 0.26935 0.0
H1264 H 0.83523 0.40737 0.1661 0.0
H1265 H 0.8269 0.44027 0.14356 0.0
H1266 H 0.80434 0.39869 0.08819 0.0
H1267 H 0.81296 0.36566 0.11038 0.0
H1268 H 0.82897 0.43459 0.07474 0.0
H1269 H 0.76367 0.46089 0.13152 0.0
H1270 H 0.79015 0.45738 0.14537 0.0
H1271 H 0.77606 0.43378 0.13301 0.0
C1272 C 0.82872 0.40517 0.14905 0.0
C1273 C 0.82453 0.38383 0.14016 0.0
C1274 C 0.82384 0.42402 0.13625 0.0
C1275 C 0.8145 0.42188 0.11444 0.0
C1276 C 0.81136 0.40067 0.10508 0.0
H1277 H 0.74163 0.52215 0.0388 0.0
H1278 H 0.75315 0.48938 0.06027 0.0
C1279 C 0.81634 0.3818 0.11781 0.0
C1280 C 0.80737 0.44172 0.10158 0.0
H1281 H 0.77261 0.48596 0.10263 0.0
C1282 C 0.81665 0.44584 0.0808 0.0
C1283 C 0.79097 0.45609 0.10937 0.0
C1284 C 0.77945 0.45176 0.13093 0.0
C1285 C 0.81022 0.46419 0.06773 0.0
C1286 C 0.79441 0.479 0.07592 0.0
C1287 C 0.78488 0.47469 0.09653 0.0
C1288 C 0.78744 0.49904 0.06328 0.0
C1289 C 0.82011 0.4673 0.0451 0.0
C1290 C 0.80282 0.51551 0.05831 0.0
C1291 C 0.79633 0.53418 0.04601 0.0
C1292 C 0.77425 0.53687 0.03862 0.0
C1293 C 0.75875 0.52061 0.0442 0.0
C1294 C 0.7653 0.50186 0.05644 0.0
H1295 H 0.82707 0.45159 0.03872 0.0
H1296 H 0.80768 0.4735 0.03252 0.0
H1297 H 0.83365 0.47966 0.04668 0.0
H1298 H 0.81987 0.51392 0.06394 0.0
H1299 H 0.80868 0.54647 0.04223 0.0
H1300 H 0.38376 0.62095 0.01145 0.0
H1301 H 0.36485 0.65147 0.99202 0.0
H1302 H 0.32569 0.66208 0.04995 0.0
H1303 H 0.34577 0.63239 0.06992 0.0
H1304 H 0.32598 0.66588 0.97846 0.0
H1305 H 0.35775 0.71967 0.04805 0.0
H1306 H 0.36511 0.69087 0.04596 0.0
H1307 H 0.33943 0.69876 0.05774 0.0
C1308 C 0.37056 0.62934 0.01969 0.0
C1309 C 0.36604 0.62437 0.04206 0.0
C1310 C 0.35984 0.64686 0.00864 0.0
C1311 C 0.34435 0.65959 0.01978 0.0
C1312 C 0.33812 0.65298 0.04129 0.0
H1313 H 0.26209 0.76392 0.96964 0.0
H1314 H 0.28084 0.72866 0.97221 0.0
C1315 C 0.34927 0.63579 0.05257 0.0
C1316 C 0.33664 0.68097 0.00991 0.0
H1317 H 0.33302 0.73621 0.02156 0.0
C1318 C 0.32761 0.68131 0.98782 0.0
C1319 C 0.33952 0.70128 0.02174 0.0
C1320 C 0.35121 0.70271 0.04456 0.0
C1321 C 0.32076 0.70125 0.97755 0.0
C1322 C 0.32228 0.72132 0.98998 0.0
C1323 C 0.33179 0.72096 0.01187 0.0
C1324 C 0.31271 0.74268 0.98176 0.0
C1325 C 0.31237 0.70053 0.95339 0.0
C1326 C 0.32441 0.76269 0.98526 0.0
C1327 C 0.31344 0.78303 0.98451 0.0
C1328 C 0.29067 0.78373 0.97977 0.0
C1329 C 0.2797 0.76404 0.97309 0.0
C1330 C 0.29049 0.74367 0.97455 0.0
H1331 H 0.32051 0.68711 0.94399 0.0
H1332 H 0.29448 0.69684 0.95282 0.0
H1333 H 0.31515 0.71651 0.94471 0.0
H1334 H 0.34163 0.76246 0.9906 0.0
H1335 H 0.3223 0.79792 0.98976 0.0
H1336 H 0.3313 0.40449 0.41912 0.0
H1337 H 0.29829 0.38108 0.42069 0.0
H1338 H 0.33772 0.32736 0.44733 0.0
H1339 H 0.37059 0.35042 0.44601 0.0
H1340 H 0.28911 0.33967 0.39957 0.0
H1341 H 0.2883 0.33237 0.49201 0.0
H1342 H 0.30403 0.35344 0.4782 0.0
H1343 H 0.31472 0.32579 0.48148 0.0
C1344 C 0.33294 0.38773 0.42546 0.0
C1345 C 0.35367 0.37944 0.43258 0.0
C1346 C 0.31404 0.37438 0.42629 0.0
C1347 C 0.31548 0.35261 0.43448 0.0
C1348 C 0.33613 0.34426 0.4414 0.0
H1349 H 0.26008 0.22955 0.41923 0.0
H1350 H 0.27145 0.26718 0.41065 0.0
C1351 C 0.35497 0.35749 0.44051 0.0
C1352 C 0.29572 0.33809 0.43533 0.0
H1353 H 0.26951 0.3034 0.47072 0.0
C1354 C 0.28446 0.33206 0.41518 0.0
C1355 C 0.28922 0.32859 0.45573 0.0
C1356 C 0.29955 0.33556 0.47811 0.0
C1357 C 0.26816 0.3154 0.41469 0.0
C1358 C 0.26329 0.30427 0.43482 0.0
C1359 C 0.27325 0.3117 0.45519 0.0
C1360 C 0.25094 0.28286 0.43497 0.0
C1361 C 0.25682 0.30949 0.3925 0.0
C1362 C 0.23476 0.27896 0.45079 0.0
C1363 C 0.22817 0.25722 0.45569 0.0
C1364 C 0.23786 0.23915 0.44498 0.0
C1365 C 0.25212 0.24323 0.42746 0.0
C1366 C 0.25864 0.26485 0.42254 0.0
H1367 H 0.25502 0.32438 0.38164 0.0
H1368 H 0.267 0.29735 0.38354 0.0
H1369 H 0.24031 0.30211 0.39477 0.0
H1370 H 0.22864 0.29254 0.46068 0.0
H1371 H 0.21752 0.25451 0.46958 0.0
H1372 H 0.62503 0.38253 0.77489 0.0
H1373 H 0.59073 0.40072 0.76228 0.0
H1374 H 0.55978 0.37874 0.82221 0.0
H1375 H 0.5938 0.36058 0.83493 0.0
H1376 H 0.54788 0.37762 0.75579 0.0
H1377 H 0.54629 0.44647 0.81791 0.0
H1378 H 0.57122 0.43197 0.81157 0.0
H1379 H 0.55172 0.41951 0.82963 0.0
C1380 C 0.61107 0.38198 0.78561 0.0
C1381 C 0.6122 0.37019 0.80599 0.0
C1382 C 0.59144 0.39221 0.77828 0.0
C1383 C 0.57276 0.39113 0.79135 0.0
C1384 C 0.57406 0.37995 0.81197 0.0
H1385 H 0.44071 0.44178 0.7867 0.0
H1386 H 0.47387 0.41999 0.79461 0.0
C1387 C 0.59354 0.36957 0.8192 0.0
C1388 C 0.55156 0.40086 0.78322 0.0
H1389 H 0.51354 0.4398 0.7961 0.0
C1390 C 0.54039 0.39133 0.76445 0.0
C1391 C 0.54183 0.41864 0.79463 0.0
C1392 C 0.55341 0.42992 0.81445 0.0
C1393 C 0.51939 0.39873 0.75719 0.0
C1394 C 0.50953 0.41639 0.76878 0.0
C1395 C 0.52095 0.42611 0.78733 0.0
C1396 C 0.48753 0.42545 0.76206 0.0
C1397 C 0.50771 0.38711 0.73765 0.0
C1398 C 0.4836 0.43487 0.74073 0.0
C1399 C 0.46441 0.44704 0.73602 0.0
C1400 C 0.44906 0.45034 0.75275 0.0
C1401 C 0.45227 0.43953 0.77349 0.0
C1402 C 0.47128 0.42719 0.77807 0.0
H1403 H 0.51437 0.37022 0.73498 0.0
H1404 H 0.48979 0.38573 0.74023 0.0
H1405 H 0.51007 0.3968 0.72211 0.0
H1406 H 0.49601 0.43413 0.72821 0.0
H1407 H 0.46257 0.45544 0.72002 0.0
H1408 H 0.64409 0.09851 0.48488 0.0
H1409 H 0.66531 0.12169 0.51188 0.0
H1410 H 0.65757 0.17766 0.46731 0.0
H1411 H 0.63538 0.15486 0.44094 0.0
H1412 H 0.70132 0.14604 0.51426 0.0
H1413 H 0.63063 0.20167 0.52228 0.0
H1414 H 0.62844 0.17576 0.50712 0.0
H1415 H 0.63788 0.20053 0.49345 0.0
C1416 C 0.64738 0.11564 0.48066 0.0
C1417 C 0.63805 0.125 0.46092 0.0
C1418 C 0.65936 0.1289 0.49617 0.0
C1419 C 0.66234 0.15161 0.492 0.0
C1420 C 0.65472 0.16039 0.4713 0.0
H1421 H 0.75199 0.24717 0.52677 0.0
H1422 H 0.73539 0.21069 0.52282 0.0
C1423 C 0.64233 0.14732 0.45609 0.0
C1424 C 0.67256 0.16648 0.50942 0.0
H1425 H 0.66622 0.2175 0.53279 0.0
C1426 C 0.69352 0.16151 0.51868 0.0
C1427 C 0.66198 0.18609 0.51626 0.0
C1428 C 0.63838 0.19115 0.50946 0.0
C1429 C 0.705 0.1767 0.5328 0.0
C1430 C 0.69562 0.19774 0.53695 0.0
C1431 C 0.67381 0.20166 0.52945 0.0
C1432 C 0.70896 0.21713 0.5452 0.0
C1433 C 0.72719 0.17008 0.5427 0.0
C1434 C 0.69996 0.23321 0.55939 0.0
C1435 C 0.70911 0.25457 0.56088 0.0
C1436 C 0.72783 0.25978 0.54893 0.0
C1437 C 0.73816 0.2431 0.5369 0.0
C1438 C 0.72864 0.22211 0.53472 0.0
H1439 H 0.72699 0.15236 0.54776 0.0
H1440 H 0.73971 0.17183 0.52975 0.0
H1441 H 0.73219 0.18033 0.55759 0.0
H1442 H 0.68474 0.2299 0.56762 0.0
H1443 H 0.70055 0.26743 0.56975 0.0
H1444 H 0.86142 0.61185 0.26413 0.0
H1445 H 0.89389 0.589 0.25741 0.0
H1446 H 0.91673 0.59919 0.32622 0.0
H1447 H 0.8848 0.62246 0.33265 0.0
H1448 H 0.9463 0.6128 0.29631 0.0
H1449 H 0.91715 0.52773 0.27431 0.0
H1450 H 0.90376 0.54942 0.25842 0.0
H1451 H 0.90015 0.54764 0.28816 0.0
C1452 C 0.87298 0.6084 0.27797 0.0
C1453 C 0.8707 0.61865 0.29892 0.0
C1454 C 0.89152 0.5954 0.27414 0.0
C1455 C 0.90771 0.59234 0.29135 0.0
C1456 C 0.90446 0.60132 0.31272 0.0
H1457 H 0.04062 0.54136 0.30263 0.0
H1458 H 0.0046 0.55739 0.30931 0.0
C1459 C 0.88619 0.61448 0.31643 0.0
C1460 C 0.92935 0.58259 0.28655 0.0
H1461 H 0.95477 0.53588 0.26825 0.0
C1462 C 0.94814 0.59592 0.29032 0.0
C1463 C 0.93169 0.56067 0.27851 0.0
C1464 C 0.91215 0.54543 0.27477 0.0
C1465 C 0.96921 0.58796 0.28627 0.0
C1466 C 0.97158 0.56601 0.27842 0.0
C1467 C 0.95282 0.55271 0.27435 0.0
C1468 C 0.99348 0.55662 0.27435 0.0
C1469 C 0.98877 0.6032 0.29007 0.0
C1470 C 0.99908 0.55087 0.25251 0.0
C1471 C 0.01966 0.54181 0.2486 0.0
C1472 C 0.03498 0.53811 0.26653 0.0
C1473 C 0.02931 0.54407 0.28842 0.0
C1474 C 0.00874 0.55323 0.29228 0.0
H1475 H 0.98378 0.62086 0.2913 0.0
H1476 H 0.99761 0.59865 0.30603 0.0
H1477 H 1.0004 0.60151 0.27627 0.0
H1478 H 0.9875 0.55339 0.23847 0.0
H1479 H 0.02337 0.53733 0.23153 0.0
H1480 H 0.1639 0.39082 0.59127 0.0
H1481 H 0.19237 0.36199 0.59111 0.0
H1482 H 0.15457 0.32593 0.54018 0.0
H1483 H 0.12618 0.35432 0.54028 0.0
H1484 H 0.18436 0.31367 0.59936 0.0
H1485 H 0.2184 0.33108 0.51619 0.0
H1486 H 0.20349 0.35154 0.53173 0.0
H1487 H 0.18888 0.33023 0.51602 0.0
C1488 C 0.16182 0.3769 0.57981 0.0
C1489 C 0.14275 0.37491 0.56576 0.0
C1490 C 0.17804 0.36041 0.57984 0.0
C1491 C 0.17563 0.34192 0.56553 0.0
C1492 C 0.15687 0.34017 0.55119 0.0
H1493 H 0.20816 0.20941 0.55093 0.0
H1494 H 0.19615 0.24443 0.56669 0.0
C1495 C 0.14061 0.35642 0.55133 0.0
C1496 C 0.19203 0.32377 0.5659 0.0
H1497 H 0.22492 0.29485 0.53127 0.0
C1498 C 0.19363 0.30977 0.58468 0.0
C1499 C 0.2043 0.31885 0.54687 0.0
C1500 C 0.2039 0.33381 0.52661 0.0
C1501 C 0.20605 0.29013 0.5843 0.0
C1502 C 0.21696 0.28434 0.56457 0.0
C1503 C 0.21654 0.29918 0.54641 0.0
C1504 C 0.22655 0.26198 0.56107 0.0
C1505 C 0.20688 0.2755 0.60479 0.0
C1506 C 0.24802 0.25978 0.55354 0.0
C1507 C 0.25499 0.23963 0.5445 0.0
C1508 C 0.24041 0.22146 0.54245 0.0
C1509 C 0.21978 0.22308 0.55218 0.0
C1510 C 0.21289 0.24316 0.5613 0.0
H1511 H 0.20482 0.28537 0.62035 0.0
H1512 H 0.1932 0.26328 0.60343 0.0
H1513 H 0.22263 0.26631 0.60635 0.0
H1514 H 0.25886 0.27408 0.55319 0.0
H1515 H 0.27096 0.23904 0.53712 0.0
H1516 H 0.60106 0.67046 0.68973 0.0
H1517 H 0.56893 0.64842 0.69834 0.0
H1518 H 0.60742 0.58865 0.69527 0.0
H1519 H 0.6401 0.61083 0.68727 0.0
H1520 H 0.54806 0.61763 0.67355 0.0
H1521 H 0.57805 0.58072 0.75431 0.0
H1522 H 0.59229 0.60313 0.741 0.0
H1523 H 0.59517 0.57511 0.73111 0.0
C1524 C 0.6028 0.65262 0.69095 0.0
C1525 C 0.62317 0.64238 0.68783 0.0
C1526 C 0.58437 0.64004 0.69589 0.0
C1527 C 0.58578 0.61691 0.69768 0.0
C1528 C 0.60605 0.60653 0.69446 0.0
H1529 H 0.46701 0.53464 0.69443 0.0
H1530 H 0.50099 0.55348 0.68494 0.0
C1531 C 0.62468 0.61919 0.68979 0.0
C1532 C 0.5657 0.60393 0.7023 0.0
H1533 H 0.54336 0.56838 0.73972 0.0
C1534 C 0.54703 0.60683 0.68801 0.0
C1535 C 0.56433 0.59007 0.72132 0.0
C1536 C 0.58344 0.58718 0.73795 0.0
C1537 C 0.52695 0.59649 0.69233 0.0
C1538 C 0.52568 0.58228 0.7111 0.0
C1539 C 0.5444 0.57919 0.72528 0.0
C1540 C 0.50495 0.57093 0.7167 0.0
C1541 C 0.50715 0.60155 0.67719 0.0
C1542 C 0.49611 0.57407 0.73789 0.0
C1543 C 0.47684 0.56307 0.74349 0.0
C1544 C 0.46597 0.54876 0.72796 0.0
C1545 C 0.47478 0.54578 0.70667 0.0
C1546 C 0.4942 0.55659 0.70119 0.0
H1547 H 0.50929 0.61731 0.66788 0.0
H1548 H 0.50482 0.58803 0.66462 0.0
H1549 H 0.49201 0.60277 0.68691 0.0
H1550 H 0.50416 0.58504 0.75013 0.0
H1551 H 0.47053 0.56571 0.76004 0.0
H1552 H 0.41644 0.82937 0.71256 0.0
H1553 H 0.45046 0.84797 0.72411 0.0
H1554 H 0.41435 0.90656 0.74141 0.0
H1555 H 0.37973 0.88799 0.72953 0.0
H1556 H 0.45068 0.91558 0.7167 0.0
H1557 H 0.47427 0.86046 0.78756 0.0
H1558 H 0.46823 0.84516 0.76216 0.0
H1559 H 0.44683 0.8608 0.77487 0.0
C1560 C 0.41553 0.84618 0.71894 0.0
C1561 C 0.39521 0.85711 0.72029 0.0
C1562 C 0.43509 0.85673 0.72571 0.0
C1563 C 0.4349 0.8784 0.7342 0.0
C1564 C 0.41479 0.88967 0.73518 0.0
H1565 H 0.55143 0.94737 0.78931 0.0
H1566 H 0.51734 0.92576 0.78621 0.0
C1567 C 0.39505 0.87908 0.72833 0.0
C1568 C 0.45601 0.88942 0.74079 0.0
H1569 H 0.50343 0.88242 0.7726 0.0
C1570 C 0.4621 0.9085 0.72912 0.0
C1571 C 0.47079 0.88032 0.75722 0.0
C1572 C 0.46461 0.86069 0.77134 0.0
C1573 C 0.48296 0.91815 0.7327 0.0
C1574 C 0.49828 0.90815 0.74801 0.0
C1575 C 0.49184 0.88971 0.76049 0.0
C1576 C 0.52093 0.91696 0.75131 0.0
C1577 C 0.48843 0.93898 0.72003 0.0
C1578 C 0.53495 0.91776 0.73319 0.0
C1579 C 0.55445 0.93006 0.73488 0.0
C1580 C 0.56026 0.94166 0.75479 0.0
C1581 C 0.54743 0.93867 0.77372 0.0
C1582 C 0.52783 0.92645 0.77195 0.0
H1583 H 0.47336 0.94761 0.71364 0.0
H1584 H 0.49828 0.95067 0.73084 0.0
H1585 H 0.49825 0.93455 0.70537 0.0
H1586 H 0.53015 0.91001 0.71729 0.0
H1587 H 0.56412 0.9318 0.72009 0.0
H1588 H 0.55524 0.86838 0.15399 0.0
H1589 H 0.55364 0.83453 0.176 0.0
H1590 H 0.56955 0.79576 0.11791 0.0
H1591 H 0.57092 0.82969 0.09545 0.0
H1592 H 0.53529 0.77785 0.14007 0.0
H1593 H 0.6034 0.79631 0.20089 0.0
H1594 H 0.58507 0.81946 0.19907 0.0
H1595 H 0.59975 0.81117 0.17472 0.0
C1596 C 0.55853 0.85273 0.14582 0.0
C1597 C 0.56326 0.85184 0.12292 0.0
C1598 C 0.55781 0.83337 0.15852 0.0
C1599 C 0.56201 0.81268 0.14873 0.0
C1600 C 0.56653 0.8116 0.12584 0.0
H1601 H 0.5498 0.72594 0.2633 0.0
H1602 H 0.5657 0.73304 0.22661 0.0
C1603 C 0.56725 0.83102 0.11305 0.0
C1604 C 0.5602 0.79231 0.16241 0.0
H1605 H 0.57355 0.77348 0.21498 0.0
C1606 C 0.54409 0.77647 0.1562 0.0
C1607 C 0.57225 0.7899 0.18304 0.0
C1608 C 0.59127 0.805 0.18967 0.0
C1609 C 0.53787 0.75997 0.17131 0.0
C1610 C 0.54765 0.75974 0.19327 0.0
C1611 C 0.56566 0.7738 0.19833 0.0
C1612 C 0.53666 0.74921 0.21237 0.0
C1613 C 0.52005 0.74373 0.16397 0.0
C1614 C 0.51483 0.75505 0.21624 0.0
C1615 C 0.50589 0.75103 0.23697 0.0
C1616 C 0.51857 0.74115 0.25433 0.0
C1617 C 0.5397 0.73341 0.25002 0.0
C1618 C 0.54877 0.73754 0.22913 0.0
H1619 H 0.52182 0.73891 0.14611 0.0
H1620 H 0.52039 0.72852 0.17445 0.0
H1621 H 0.50376 0.75175 0.16518 0.0
H1622 H 0.50527 0.76459 0.20401 0.0
H1623 H 0.48955 0.75716 0.24 0.0
H1624 H 0.14152 0.1835 0.07935 0.0
H1625 H 0.12637 0.20348 0.04679 0.0
H1626 H 0.11081 0.25887 0.08923 0.0
H1627 H 0.12599 0.23882 0.12219 0.0
H1628 H 0.07769 0.24689 0.05448 0.0
H1629 H 0.1607 0.25691 0.02096 0.0
H1630 H 0.15453 0.22878 0.02837 0.0
H1631 H 0.15629 0.2498 0.0499 0.0
C1632 C 0.1345 0.19977 0.08186 0.0
C1633 C 0.13506 0.20967 0.10327 0.0
C1634 C 0.12604 0.21122 0.06322 0.0
C1635 C 0.11814 0.23287 0.06558 0.0
C1636 C 0.11716 0.24227 0.08711 0.0
H1637 H 0.05342 0.30053 0.9512 0.0
H1638 H 0.07594 0.29918 0.98606 0.0
C1639 C 0.1256 0.23072 0.10591 0.0
C1640 C 0.11143 0.24549 0.04524 0.0
H1641 H 0.13017 0.26108 0.99432 0.0
C1642 C 0.08917 0.25056 0.0415 0.0
C1643 C 0.12658 0.25036 0.02849 0.0
C1644 C 0.15091 0.24639 0.03219 0.0
C1645 C 0.08133 0.25871 0.02065 0.0
C1646 C 0.09631 0.26217 0.00334 0.0
C1647 C 0.11878 0.25843 0.00763 0.0
C1648 C 0.08837 0.26625 0.97995 0.0
C1649 C 0.05689 0.26204 0.01679 0.0
C1650 C 0.08959 0.24904 0.96415 0.0
C1651 C 0.07689 0.24979 0.94416 0.0
C1652 C 0.06274 0.26776 0.93978 0.0
C1653 C 0.06399 0.28635 0.95416 0.0
C1654 C 0.07669 0.28554 0.97422 0.0
H1655 H 0.04733 0.25587 0.03103 0.0
H1656 H 0.05346 0.27999 0.01468 0.0
H1657 H 0.05095 0.25337 0.00121 0.0
H1658 H 0.09877 0.23412 0.96817 0.0
H1659 H 0.07653 0.23537 0.93323 0.0
H1660 H 0.41579 0.67346 0.10927 0.0
H1661 H 0.40679 0.70098 0.13813 0.0
H1662 H 0.44126 0.66195 0.18857 0.0
H1663 H 0.45031 0.63459 0.16024 0.0
H1664 H 0.38779 0.67978 0.19024 0.0
H1665 H 0.45869 0.73797 0.18404 0.0
H1666 H 0.4461 0.7244 0.1596 0.0
H1667 H 0.46317 0.70886 0.17898 0.0
C1668 C 0.42176 0.67096 0.12645 0.0
C1669 C 0.4337 0.65177 0.13246 0.0
C1670 C 0.41647 0.6866 0.14288 0.0
C1671 C 0.42324 0.68329 0.16541 0.0
C1672 C 0.43581 0.66466 0.17125 0.0
H1673 H 0.43039 0.70347 0.29772 0.0
H1674 H 0.41412 0.69303 0.26134 0.0
C1675 C 0.44099 0.64907 0.155 0.0
C1676 C 0.41693 0.6986 0.18344 0.0
H1677 H 0.43929 0.73873 0.21768 0.0
C1678 C 0.39861 0.69318 0.19595 0.0
C1679 C 0.43103 0.71604 0.1907 0.0
C1680 C 0.45085 0.72237 0.17766 0.0
C1681 C 0.39497 0.7037 0.21656 0.0
C1682 C 0.41024 0.71976 0.22489 0.0
C1683 C 0.42748 0.72648 0.21133 0.0
C1684 C 0.4115 0.72667 0.24886 0.0
C1685 C 0.37545 0.69675 0.22971 0.0
C1686 C 0.41392 0.74915 0.2547 0.0
C1687 C 0.42329 0.75521 0.27568 0.0
C1688 C 0.43088 0.73877 0.29082 0.0
C1689 C 0.42513 0.71653 0.2863 0.0
C1690 C 0.41568 0.71051 0.2654 0.0
H1691 H 0.36143 0.69178 0.21824 0.0
H1692 H 0.37996 0.68214 0.24016 0.0
H1693 H 0.37006 0.71027 0.24092 0.0
H1694 H 0.41062 0.76191 0.24227 0.0
H1695 H 0.42709 0.77256 0.27873 0.0
H1696 H 0.8926 0.33253 0.12818 0.0
H1697 H 0.91529 0.32563 0.09597 0.0
H1698 H 0.92276 0.25732 0.11602 0.0
H1699 H 0.90025 0.26431 0.14875 0.0
H1700 H 0.96169 0.27948 0.0949 0.0
H1701 H 0.88214 0.28676 0.04649 0.0
H1702 H 0.88872 0.30981 0.06479 0.0
H1703 H 0.88377 0.28292 0.07656 0.0
C1704 C 0.89973 0.31624 0.12615 0.0
C1705 C 0.89463 0.29889 0.14077 0.0
C1706 C 0.91259 0.31231 0.10774 0.0
C1707 C 0.92026 0.29089 0.10344 0.0
C1708 C 0.91688 0.27395 0.1191 0.0
H1709 H 0.97618 0.23456 0.98371 0.0
H1710 H 0.96285 0.24044 0.02138 0.0
C1711 C 0.90416 0.27796 0.13779 0.0
C1712 C 0.92909 0.28582 0.08125 0.0
H1713 H 0.91422 0.28468 0.02539 0.0
C1714 C 0.95136 0.28044 0.07968 0.0
C1715 C 0.91544 0.28701 0.0615 0.0
C1716 C 0.89114 0.29174 0.06232 0.0
C1717 C 0.96052 0.27689 0.05866 0.0
C1718 C 0.94692 0.27856 0.03891 0.0
C1719 C 0.9246 0.28359 0.04057 0.0
C1720 C 0.95541 0.27514 0.01624 0.0
C1721 C 0.98473 0.27195 0.05764 0.0
C1722 C 0.95507 0.29258 0.0007 0.0
C1723 C 0.96256 0.2893 0.97906 0.0
C1724 C 0.97035 0.2684 0.97252 0.0
C1725 C 0.9703 0.25087 0.98811 0.0
C1726 C 0.96289 0.25422 0.00975 0.0
H1727 H 0.99375 0.27592 0.07375 0.0
H1728 H 0.98692 0.25403 0.05406 0.0
H1729 H 0.99221 0.28148 0.04394 0.0
H1730 H 0.94912 0.3088 0.00539 0.0
H1731 H 0.96236 0.30315 0.96752 0.0
H1732 H 0.56765 0.17698 0.41073 0.0
H1733 H 0.56423 0.21245 0.39081 0.0
H1734 H 0.55167 0.17732 0.32842 0.0
H1735 H 0.55511 0.14196 0.34795 0.0
H1736 H 0.58953 0.22712 0.35201 0.0
H1737 H 0.49982 0.22257 0.33359 0.0
H1738 H 0.51335 0.20696 0.35598 0.0
H1739 H 0.51356 0.19708 0.32744 0.0
C1740 C 0.56408 0.1768 0.39277 0.0
C1741 C 0.56158 0.15659 0.38095 0.0
C1742 C 0.56217 0.19708 0.38146 0.0
C1743 C 0.55739 0.19743 0.35826 0.0
C1744 C 0.55503 0.17735 0.34642 0.0
H1745 H 0.57524 0.24994 0.23994 0.0
H1746 H 0.58241 0.24258 0.27959 0.0
C1747 C 0.55713 0.15714 0.35761 0.0
C1748 C 0.55541 0.21856 0.34583 0.0
H1749 H 0.52091 0.24412 0.30791 0.0
C1750 C 0.57439 0.23132 0.34281 0.0
C1751 C 0.53554 0.22442 0.33439 0.0
C1752 C 0.51433 0.21218 0.33817 0.0
C1753 C 0.57454 0.24827 0.32668 0.0
C1754 C 0.55534 0.25218 0.31312 0.0
C1755 C 0.53575 0.2411 0.31809 0.0
C1756 C 0.55608 0.26337 0.29101 0.0
C1757 C 0.59557 0.26097 0.32347 0.0
C1758 C 0.53962 0.27846 0.28411 0.0
C1759 C 0.53553 0.28271 0.26122 0.0
C1760 C 0.54772 0.2717 0.24508 0.0
C1761 C 0.56576 0.25875 0.25213 0.0
C1762 C 0.56993 0.25463 0.2749 0.0
H1763 H 0.60458 0.26362 0.33986 0.0
H1764 H 0.60639 0.25114 0.31269 0.0
H1765 H 0.59244 0.27732 0.31546 0.0
H1766 H 0.52863 0.28527 0.29622 0.0
H1767 H 0.5213 0.29249 0.25615 0.0
H1768 H 0.41511 0.19793 0.84687 0.0
H1769 H 0.44614 0.20032 0.87441 0.0
H1770 H 0.40221 0.18599 0.92767 0.0
H1771 H 0.37163 0.18301 0.90067 0.0
H1772 H 0.45058 0.23001 0.90782 0.0
H1773 H 0.45281 0.147 0.94536 0.0
H1774 H 0.43864 0.15233 0.91871 0.0
H1775 H 0.42497 0.15646 0.94475 0.0
C1776 C 0.41222 0.19483 0.86441 0.0
C1777 C 0.39088 0.1904 0.87158 0.0
C1778 C 0.42993 0.19619 0.88008 0.0
C1779 C 0.42654 0.1929 0.90301 0.0
C1780 C 0.40537 0.18792 0.91001 0.0
H1781 H 0.46315 0.25901 0.02088 0.0
H1782 H 0.45264 0.24749 0.98248 0.0
C1783 C 0.38779 0.18651 0.8945 0.0
C1784 C 0.4441 0.19717 0.92029 0.0
H1785 H 0.46139 0.17799 0.97158 0.0
C1786 C 0.45356 0.21843 0.92149 0.0
C1787 C 0.44858 0.18188 0.93778 0.0
C1788 C 0.44088 0.15807 0.93639 0.0
C1789 C 0.4654 0.22556 0.94088 0.0
C1790 C 0.46704 0.21128 0.95968 0.0
C1791 C 0.45962 0.18925 0.95746 0.0
C1792 C 0.47453 0.21919 0.98229 0.0
C1793 C 0.47544 0.24849 0.94114 0.0
C1794 C 0.48962 0.20666 0.99527 0.0
C1795 C 0.49488 0.2127 0.01744 0.0
C1796 C 0.48543 0.23159 0.02693 0.0
C1797 C 0.47066 0.24441 0.01388 0.0
C1798 C 0.46495 0.23801 0.99184 0.0
H1799 H 0.48073 0.25314 0.92413 0.0
H1800 H 0.46291 0.26072 0.94606 0.0
H1801 H 0.48984 0.24971 0.95312 0.0
H1802 H 0.49716 0.19204 0.98834 0.0
H1803 H 0.50662 0.20274 0.02706 0.0
H1804 H 0.46127 0.36882 0.35233 0.0
H1805 H 0.45893 0.3395 0.32413 0.0
H1806 H 0.41103 0.30486 0.36255 0.0
H1807 H 0.41322 0.33447 0.39116 0.0
H1808 H 0.46529 0.29177 0.32916 0.0
H1809 H 0.38115 0.31581 0.29811 0.0
H1810 H 0.39833 0.33456 0.31482 0.0
H1811 H 0.38625 0.31084 0.32768 0.0
C1812 C 0.45037 0.35489 0.35499 0.0
C1813 C 0.43733 0.35405 0.37394 0.0
C1814 C 0.44909 0.33811 0.33884 0.0
C1815 C 0.43464 0.32017 0.34114 0.0
C1816 C 0.42213 0.31872 0.36041 0.0
H1817 H 0.45659 0.22851 0.23018 0.0
H1818 H 0.44054 0.23781 0.26596 0.0
C1819 C 0.42354 0.33553 0.37679 0.0
C1820 C 0.43249 0.30376 0.32261 0.0
H1821 H 0.40107 0.29207 0.27522 0.0
C1822 C 0.45103 0.29124 0.31763 0.0
C1823 C 0.4139 0.30339 0.3076 0.0
C1824 C 0.39372 0.31687 0.31212 0.0
C1825 C 0.45214 0.27959 0.29728 0.0
C1826 C 0.43396 0.28015 0.28166 0.0
C1827 C 0.41485 0.2915 0.28731 0.0
C1828 C 0.43622 0.27256 0.25813 0.0
C1829 C 0.47349 0.26838 0.29193 0.0
C1830 C 0.4369 0.28849 0.24106 0.0
C1831 C 0.44583 0.28321 0.22048 0.0
C1832 C 0.45445 0.26195 0.21678 0.0
C1833 C 0.45055 0.24518 0.2326 0.0
C1834 C 0.44152 0.25049 0.25319 0.0
H1835 H 0.48688 0.27219 0.3046 0.0
H1836 H 0.47103 0.25014 0.29153 0.0
H1837 H 0.47896 0.27363 0.27517 0.0
H1838 H 0.43257 0.30557 0.24439 0.0
H1839 H 0.44813 0.29645 0.20852 0.0
H1840 H 0.61673 0.2766 0.88373 0.0
H1841 H 0.60389 0.26476 0.92045 0.0
H1842 H 0.64563 0.31394 0.95332 0.0
H1843 H 0.65863 0.32579 0.91693 0.0
H1844 H 0.63768 0.25178 0.96088 0.0
H1845 H 0.57893 0.32031 0.97604 0.0
H1846 H 0.58539 0.31142 0.94805 0.0
H1847 H 0.60505 0.32732 0.96462 0.0
C1848 C 0.62287 0.28515 0.89874 0.0
C1849 C 0.63869 0.30215 0.8974 0.0
C1850 C 0.61568 0.27823 0.91968 0.0
C1851 C 0.62395 0.28843 0.9395 0.0
C1852 C 0.63912 0.30587 0.93817 0.0
H1853 H 0.58569 0.28225 0.07696 0.0
H1854 H 0.60764 0.28953 0.04429 0.0
C1855 C 0.64647 0.31263 0.91735 0.0
C1856 C 0.61715 0.28072 0.96174 0.0
H1857 H 0.58571 0.29514 0.00551 0.0
C1858 C 0.62627 0.26115 0.97069 0.0
C1859 C 0.60252 0.29318 0.97448 0.0
C1860 C 0.59224 0.3142 0.9654 0.0
C1861 C 0.62123 0.2538 0.99231 0.0
C1862 C 0.60636 0.26617 0.00503 0.0
C1863 C 0.5973 0.28575 0.99592 0.0
C1864 C 0.59881 0.25879 0.02726 0.0
C1865 C 0.63223 0.23317 0.00144 0.0
C1866 C 0.58782 0.23838 0.02933 0.0
C1867 C 0.57569 0.23395 0.0483 0.0
C1868 C 0.57392 0.25011 0.06521 0.0
C1869 C 0.58679 0.26948 0.06421 0.0
C1870 C 0.59918 0.27374 0.04543 0.0
H1871 H 0.64813 0.23017 0.99343 0.0
H1872 H 0.63525 0.23427 0.01992 0.0
H1873 H 0.62142 0.21864 0.99771 0.0
H1874 H 0.58694 0.22671 0.01546 0.0
H1875 H 0.56571 0.21902 0.04842 0.0
H1876 H 0.10774 0.56705 0.82949 0.0
H1877 H 0.13692 0.56444 0.80201 0.0
H1878 H 0.18374 0.59132 0.85112 0.0
H1879 H 0.1551 0.59383 0.87843 0.0
H1880 H 0.17214 0.59819 0.78605 0.0
H1881 H 0.20425 0.52618 0.83485 0.0
H1882 H 0.17641 0.536 0.83686 0.0
H1883 H 0.19869 0.55031 0.85145 0.0
C1884 C 0.12415 0.57283 0.83422 0.0
C1885 C 0.12915 0.58034 0.85626 0.0
C1886 C 0.1408 0.57133 0.81853 0.0
C1887 C 0.16254 0.57745 0.82465 0.0
C1888 C 0.16714 0.58631 0.84611 0.0
H1889 H 0.29481 0.56271 0.7875 0.0
H1890 H 0.26031 0.57705 0.80112 0.0
C1891 C 0.1507 0.58766 0.86173 0.0
C1892 C 0.18109 0.57269 0.80986 0.0
H1893 H 0.22787 0.54177 0.80831 0.0
C1894 C 0.1842 0.58568 0.79067 0.0
C1895 C 0.19677 0.5563 0.81589 0.0
C1896 C 0.19385 0.54123 0.83577 0.0
C1897 C 0.20315 0.58325 0.77794 0.0
C1898 C 0.21924 0.56751 0.78464 0.0
C1899 C 0.21566 0.55407 0.80336 0.0
C1900 C 0.24024 0.5646 0.77304 0.0
C1901 C 0.20632 0.59798 0.75792 0.0
C1902 C 0.24062 0.55396 0.75204 0.0
C1903 C 0.26046 0.54583 0.74408 0.0
C1904 C 0.28015 0.54797 0.75718 0.0
C1905 C 0.27997 0.56072 0.77701 0.0
C1906 C 0.26021 0.56886 0.78489 0.0
H1907 H 0.19368 0.61119 0.75649 0.0
H1908 H 0.22288 0.60582 0.75906 0.0
H1909 H 0.20533 0.58778 0.74236 0.0
H1910 H 0.22539 0.55029 0.74271 0.0
H1911 H 0.25992 0.53593 0.72885 0.0
H1912 H 0.79969 0.64442 0.4062 0.0
H1913 H 0.79459 0.61412 0.43299 0.0
H1914 H 0.80605 0.56628 0.38079 0.0
H1915 H 0.81133 0.59607 0.35414 0.0
H1916 H 0.76259 0.57992 0.42872 0.0
H1917 H 0.84685 0.54565 0.43305 0.0
H1918 H 0.84081 0.57315 0.42263 0.0
H1919 H 0.83646 0.54932 0.40469 0.0
C1920 C 0.80135 0.62744 0.40051 0.0
C1921 C 0.80588 0.62269 0.37801 0.0
C1922 C 0.79842 0.6102 0.41581 0.0
C1923 C 0.80029 0.58803 0.40889 0.0
C1924 C 0.805 0.58329 0.38656 0.0
H1925 H 0.74423 0.46563 0.44898 0.0
H1926 H 0.754 0.50109 0.4322 0.0
C1927 C 0.80782 0.6004 0.3713 0.0
C1928 C 0.79597 0.56957 0.42436 0.0
H1929 H 0.81789 0.52112 0.44409 0.0
C1930 C 0.77476 0.56723 0.43244 0.0
C1931 C 0.81198 0.55322 0.42937 0.0
C1932 C 0.83537 0.55554 0.42217 0.0
C1933 C 0.76876 0.54828 0.44438 0.0
C1934 C 0.78433 0.53118 0.44796 0.0
C1935 C 0.80589 0.53412 0.441 0.0
C1936 C 0.77839 0.5098 0.45821 0.0
C1937 C 0.74576 0.54659 0.45282 0.0
C1938 C 0.78937 0.50269 0.47799 0.0
C1939 C 0.78399 0.48236 0.48752 0.0
C1940 C 0.76758 0.46869 0.47736 0.0
C1941 C 0.75687 0.47574 0.4573 0.0
C1942 C 0.76229 0.49609 0.44779 0.0
H1943 H 0.73819 0.56322 0.45455 0.0
H1944 H 0.73536 0.53683 0.44062 0.0
H1945 H 0.74568 0.53808 0.46933 0.0
H1946 H 0.80199 0.51297 0.48615 0.0
H1947 H 0.79261 0.47747 0.50296 0.0
H1948 H 0.90576 0.92247 0.82388 0.0
H1949 H 0.88345 0.9242 0.78878 0.0
H1950 H 0.83064 0.95389 0.82435 0.0
H1951 H 0.85266 0.95236 0.85937 0.0
H1952 H 0.84188 0.90438 0.7794 0.0
H1953 H 0.8379 0.99536 0.77029 0.0
H1954 H 0.85855 0.98185 0.78801 0.0
H1955 H 0.83157 0.98703 0.7982 0.0
C1956 C 0.88945 0.92954 0.82421 0.0
C1957 C 0.88103 0.93736 0.84448 0.0
C1958 C 0.87677 0.93049 0.80413 0.0
C1959 C 0.8556 0.93955 0.80392 0.0
C1960 C 0.84715 0.94729 0.82408 0.0
H1961 H 0.73296 0.92607 0.76121 0.0
H1962 H 0.77138 0.91638 0.76704 0.0
C1963 C 0.85972 0.94624 0.84413 0.0
C1964 C 0.84153 0.93996 0.78311 0.0
H1965 H 0.80676 0.97456 0.75424 0.0
C1966 C 0.83459 0.91974 0.77338 0.0
C1967 C 0.83261 0.96001 0.77471 0.0
C1968 C 0.84075 0.9823 0.78319 0.0
C1969 C 0.81707 0.91896 0.75734 0.0
C1970 C 0.80607 0.93883 0.75133 0.0
C1971 C 0.81488 0.9592 0.75901 0.0
C1972 C 0.78318 0.93885 0.74179 0.0
C1973 C 0.80975 0.89675 0.74797 0.0
C1974 C 0.77671 0.95396 0.72487 0.0
C1975 C 0.75453 0.95963 0.7216 0.0
C1976 C 0.7387 0.95039 0.73541 0.0
C1977 C 0.74489 0.93341 0.75037 0.0
C1978 C 0.76693 0.92772 0.75357 0.0
H1979 H 0.82419 0.88595 0.7454 0.0
H1980 H 0.7993 0.88831 0.76023 0.0
H1981 H 0.80026 0.89843 0.73176 0.0
H1982 H 0.78896 0.96285 0.71566 0.0
H1983 H 0.7502 0.97293 0.71009 0.0
H1984 H 0.23479 0.87105 0.38407 0.0
H1985 H 0.24911 0.90597 0.4006 0.0
H1986 H 0.19036 0.9397 0.37703 0.0
H1987 H 0.17601 0.90521 0.36068 0.0
H1988 H 0.25575 0.94709 0.37513 0.0
H1989 H 0.19806 0.95765 0.44411 0.0
H1990 H 0.20267 0.93115 0.43087 0.0
H1991 H 0.18472 0.95113 0.41745 0.0
C1992 C 0.22475 0.88582 0.38291 0.0
C1993 C 0.20424 0.88537 0.37115 0.0
C1994 C 0.23303 0.90575 0.39215 0.0
C1995 C 0.22074 0.92536 0.39008 0.0
C1996 C 0.2 0.92472 0.37901 0.0
H1997 H 0.22342 0.06242 0.42426 0.0
H1998 H 0.21806 0.02694 0.4048 0.0
C1999 C 0.19184 0.90498 0.36965 0.0
C2000 C 0.22963 0.94687 0.39851 0.0
H2001 H 0.21774 0.9899 0.43321 0.0
C2002 C 0.24769 0.9564 0.38805 0.0
C2003 C 0.21903 0.95892 0.41531 0.0
C2004 C 0.20017 0.94914 0.42776 0.0
C2005 C 0.25479 0.97813 0.39331 0.0
C2006 C 0.24362 0.99044 0.40953 0.0
C2007 C 0.22606 0.98056 0.42049 0.0
C2008 C 0.24961 0.0136 0.41577 0.0
C2009 C 0.27361 0.98805 0.38096 0.0
C2010 C 0.26971 0.01838 0.42717 0.0
C2011 C 0.27293 0.03882 0.4381 0.0
C2012 C 0.25591 0.05454 0.43807 0.0
C2013 C 0.23677 0.05058 0.42465 0.0
C2014 C 0.23365 0.03026 0.41363 0.0
H2015 H 0.27726 0.97834 0.36566 0.0
H2016 H 0.26994 0.00543 0.37602 0.0
H2017 H 0.28857 0.98825 0.39221 0.0
H2018 H 0.28215 0.0057 0.42925 0.0
H2019 H 0.28776 0.0413 0.44847 0.0
H2020 H 0.09805 0.42141 0.6766 0.0
H2021 H 0.12194 0.42338 0.71082 0.0
H2022 H 0.17426 0.45023 0.67227 0.0
H2023 H 0.15083 0.44841 0.6383 0.0
H2024 H 0.16484 0.40313 0.71906 0.0
H2025 H 0.16861 0.49457 0.72507 0.0
H2026 H 0.14723 0.48007 0.70892 0.0
H2027 H 0.17366 0.48487 0.69722 0.0
C2028 C 0.11461 0.42784 0.67544 0.0
C2029 C 0.12244 0.43485 0.65465 0.0
C2030 C 0.12822 0.42891 0.69501 0.0
C2031 C 0.14973 0.43728 0.69412 0.0
C2032 C 0.15758 0.4441 0.67341 0.0
H2033 H 0.27476 0.42716 0.74046 0.0
H2034 H 0.23661 0.41704 0.7324 0.0
C2035 C 0.14414 0.44292 0.65394 0.0
C2036 C 0.16461 0.43856 0.71442 0.0
H2037 H 0.19967 0.47478 0.74157 0.0
C2038 C 0.1721 0.41882 0.72448 0.0
C2039 C 0.17365 0.45903 0.72194 0.0
C2040 C 0.1652 0.48086 0.71289 0.0
C2041 C 0.18994 0.41893 0.74023 0.0
C2042 C 0.20072 0.43924 0.74569 0.0
C2043 C 0.19168 0.45912 0.73733 0.0
C2044 C 0.22332 0.44019 0.75619 0.0
C2045 C 0.19757 0.39719 0.75014 0.0
C2046 C 0.22887 0.4559 0.77305 0.0
C2047 C 0.25092 0.46178 0.77765 0.0
C2048 C 0.26762 0.45217 0.76526 0.0
C2049 C 0.2622 0.43472 0.75034 0.0
C2050 C 0.24028 0.42884 0.74579 0.0
H2051 H 0.18336 0.38597 0.75268 0.0
H2052 H 0.20845 0.38882 0.73824 0.0
H2053 H 0.20675 0.39957 0.76646 0.0
H2054 H 0.2161 0.46496 0.78125 0.0
H2055 H 0.25462 0.47549 0.78902 0.0
H2056 H 0.66699 0.6035 0.63581 0.0
H2057 H 0.66564 0.56816 0.61627 0.0
H2058 H 0.70358 0.59574 0.56331 0.0
H2059 H 0.70555 0.63156 0.58335 0.0
H2060 H 0.65122 0.55295 0.57503 0.0
H2061 H 0.74206 0.54508 0.58693 0.0
H2062 H 0.72689 0.56673 0.60028 0.0
H2063 H 0.73255 0.56862 0.57096 0.0
C2064 C 0.67501 0.60222 0.61993 0.0
C2065 C 0.68687 0.62022 0.61139 0.0
C2066 C 0.67403 0.58198 0.60867 0.0
C2067 C 0.68484 0.57916 0.58857 0.0
C2068 C 0.69547 0.59748 0.57908 0.0
H2069 H 0.68508 0.4532 0.5166 0.0
H2070 H 0.67358 0.48961 0.52931 0.0
C2071 C 0.69649 0.61794 0.59044 0.0
C2072 C 0.68639 0.55646 0.5791 0.0
H2073 H 0.72286 0.51457 0.57151 0.0
C2074 C 0.66688 0.54457 0.57401 0.0
C2075 C 0.70683 0.54548 0.57824 0.0
C2076 C 0.7283 0.557 0.58454 0.0
C2077 C 0.66724 0.52187 0.56854 0.0
C2078 C 0.68768 0.51092 0.56781 0.0
C2079 C 0.70718 0.52297 0.57232 0.0
C2080 C 0.68965 0.48703 0.56225 0.0
C2081 C 0.64577 0.50967 0.56438 0.0
C2082 C 0.70162 0.47298 0.57692 0.0
C2083 C 0.70844 0.45216 0.56963 0.0
C2084 C 0.70347 0.4451 0.54748 0.0
C2085 C 0.68927 0.45811 0.53376 0.0
C2086 C 0.68263 0.47903 0.541 0.0
H2087 H 0.63182 0.51869 0.57164 0.0
H2088 H 0.64237 0.5081 0.546 0.0
H2089 H 0.6465 0.49272 0.57162 0.0
H2090 H 0.70703 0.47877 0.59348 0.0
H2091 H 0.71917 0.44248 0.58069 0.0
H2092 H 0.85033 0.05728 0.61753 0.0
H2093 H 0.82269 0.05575 0.646 0.0
H2094 H 0.87131 0.07523 0.69689 0.0
H2095 H 0.89946 0.07676 0.66833 0.0
H2096 H 0.82942 0.02907 0.69269 0.0
H2097 H 0.81244 0.11981 0.69533 0.0
H2098 H 0.82188 0.10696 0.67004 0.0
H2099 H 0.84026 0.10968 0.69413 0.0
C2100 C 0.8553 0.06124 0.63475 0.0
C2101 C 0.87722 0.06718 0.64057 0.0
C2102 C 0.83942 0.06033 0.65101 0.0
C2103 C 0.84493 0.06548 0.67349 0.0
C2104 C 0.86675 0.07126 0.67958 0.0
H2105 H 0.74604 0.03452 0.77256 0.0
H2106 H 0.78155 0.0468 0.75916 0.0
C2107 C 0.88281 0.07204 0.66325 0.0
C2108 C 0.82754 0.06457 0.69025 0.0
H2109 H 0.78793 0.09621 0.71372 0.0
C2110 C 0.82062 0.04376 0.69776 0.0
C2111 C 0.81601 0.08377 0.69655 0.0
C2112 C 0.82288 0.10642 0.68869 0.0
C2113 C 0.80194 0.04152 0.71075 0.0
C2114 C 0.78991 0.06068 0.71646 0.0
C2115 C 0.79727 0.08159 0.70952 0.0
C2116 C 0.76834 0.05879 0.72724 0.0
C2117 C 0.7945 0.01852 0.71717 0.0
C2118 C 0.74895 0.0631 0.71452 0.0
C2119 C 0.72857 0.05623 0.72218 0.0
C2120 C 0.72721 0.04491 0.74273 0.0
C2121 C 0.74639 0.04315 0.75665 0.0
C2122 C 0.7668 0.04993 0.7489 0.0
H2123 H 0.8037 0.00533 0.70854 0.0
H2124 H 0.79714 0.01628 0.73556 0.0
H2125 H 0.77668 0.01625 0.71303 0.0
H2126 H 0.74972 0.07011 0.69784 0.0
H2127 H 0.71416 0.05801 0.71108 0.0
H2128 H 0.33556 0.90386 0.65953 0.0
H2129 H 0.32728 0.93637 0.63649 0.0
H2130 H 0.29683 0.89451 0.5852 0.0
H2131 H 0.30522 0.86172 0.60803 0.0
H2132 H 0.32289 0.92985 0.56848 0.0
H2133 H 0.26328 0.95874 0.63034 0.0
H2134 H 0.2904 0.95368 0.64213 0.0
H2135 H 0.27431 0.93099 0.63058 0.0
C2136 C 0.32735 0.90146 0.64323 0.0
C2137 C 0.32078 0.88017 0.63577 0.0
C2138 C 0.32256 0.92009 0.63014 0.0
C2139 C 0.31099 0.91783 0.60944 0.0
C2140 C 0.30561 0.89656 0.60126 0.0
H2141 H 0.23895 0.02315 0.54016 0.0
H2142 H 0.24976 0.98909 0.55976 0.0
C2143 C 0.31047 0.87785 0.61432 0.0
C2144 C 0.30358 0.93775 0.59692 0.0
H2145 H 0.27142 0.9837 0.60105 0.0
C2146 C 0.31159 0.94162 0.57552 0.0
C2147 C 0.28852 0.9528 0.60604 0.0
C2148 C 0.27843 0.94881 0.62844 0.0
C2149 C 0.30536 0.96053 0.5632 0.0
C2150 C 0.29101 0.97606 0.57274 0.0
C2151 C 0.28259 0.97187 0.5939 0.0
C2152 C 0.28454 0.99679 0.56108 0.0
C2153 C 0.31395 0.96359 0.53998 0.0
C2154 C 0.30048 0.01261 0.55583 0.0
C2155 C 0.2944 0.03208 0.54464 0.0
C2156 C 0.27219 0.03619 0.53864 0.0
C2157 C 0.25619 0.02054 0.5445 0.0
C2158 C 0.26233 0.00104 0.55565 0.0
H2159 H 0.31968 0.94768 0.53283 0.0
H2160 H 0.30114 0.97067 0.52835 0.0
H2161 H 0.32813 0.97525 0.54092 0.0
H2162 H 0.31766 0.00989 0.56038 0.0
H2163 H 0.30716 0.0438 0.54056 0.0
H2164 H 0.86228 0.1049 0.51596 0.0
H2165 H 0.84159 0.13233 0.49314 0.0
H2166 H 0.84419 0.17786 0.5492 0.0
H2167 H 0.86486 0.15079 0.57185 0.0
H2168 H 0.8017 0.17357 0.52303 0.0
H2169 H 0.8748 0.19133 0.47235 0.0
H2170 H 0.86585 0.16304 0.47594 0.0
H2171 H 0.87753 0.17815 0.4995 0.0
C2172 C 0.85772 0.12047 0.52359 0.0
C2173 C 0.86498 0.12573 0.5457 0.0
C2174 C 0.84622 0.1362 0.51046 0.0
C2175 C 0.84172 0.15719 0.51943 0.0
C2176 C 0.84764 0.16179 0.54196 0.0
H2177 H 0.81913 0.28972 0.50282 0.0
H2178 H 0.83573 0.25305 0.50127 0.0
C2179 C 0.85929 0.14628 0.55493 0.0
C2180 C 0.83181 0.17511 0.5055 0.0
H2181 H 0.84564 0.21682 0.46984 0.0
C2182 C 0.81097 0.18268 0.51085 0.0
C2183 C 0.84421 0.18708 0.48994 0.0
C2184 C 0.86689 0.17966 0.484 0.0
C2185 C 0.80267 0.20265 0.50213 0.0
C2186 C 0.81539 0.21522 0.48726 0.0
C2187 C 0.83581 0.20704 0.48097 0.0
C2188 C 0.80904 0.23827 0.4813 0.0
C2189 C 0.78128 0.21118 0.51057 0.0
C2190 C 0.78941 0.2426 0.46896 0.0
C2191 C 0.77982 0.26365 0.46978 0.0
C2192 C 0.78969 0.28058 0.48315 0.0
C2193 C 0.8109 0.27699 0.49268 0.0
C2194 C 0.82046 0.25598 0.49181 0.0
H2195 H 0.77488 0.2007 0.52419 0.0
H2196 H 0.78363 0.22832 0.51711 0.0
H2197 H 0.76874 0.21161 0.49654 0.0
H2198 H 0.78051 0.22921 0.46045 0.0
H2199 H 0.76359 0.26582 0.46202 0.0
H2200 H 0.83091 0.9056 0.91881 0.0
H2201 H 0.79786 0.88233 0.92115 0.0
H2202 H 0.83755 0.82864 0.94745 0.0
H2203 H 0.87042 0.85156 0.94539 0.0
H2204 H 0.78807 0.84119 0.90045 0.0
H2205 H 0.78903 0.83343 0.99286 0.0
H2206 H 0.80465 0.85446 0.97886 0.0
H2207 H 0.81525 0.82675 0.98192 0.0
C2208 C 0.83259 0.88888 0.92525 0.0
C2209 C 0.8534 0.88056 0.93204 0.0
C2210 C 0.81367 0.87561 0.92653 0.0
C2211 C 0.81518 0.85388 0.93486 0.0
C2212 C 0.8359 0.84552 0.94146 0.0
H2213 H 0.76046 0.73076 0.91935 0.0
H2214 H 0.77138 0.76862 0.91119 0.0
C2215 C 0.85475 0.85867 0.94012 0.0
C2216 C 0.79544 0.83938 0.93607 0.0
H2217 H 0.77021 0.80424 0.97179 0.0
C2218 C 0.7838 0.83344 0.91611 0.0
C2219 C 0.78939 0.82971 0.95655 0.0
C2220 C 0.80009 0.8366 0.97879 0.0
C2221 C 0.76762 0.81667 0.91584 0.0
C2222 C 0.76329 0.8053 0.93599 0.0
C2223 C 0.77357 0.81269 0.95623 0.0
C2224 C 0.75123 0.78373 0.93619 0.0
C2225 C 0.75585 0.81087 0.89384 0.0
C2226 C 0.73547 0.77942 0.95233 0.0
C2227 C 0.72913 0.75755 0.95698 0.0
C2228 C 0.73866 0.73974 0.94569 0.0
C2229 C 0.75258 0.74423 0.928 0.0
C2230 C 0.75884 0.76598 0.92332 0.0
H2231 H 0.75362 0.82586 0.88321 0.0
H2232 H 0.76596 0.79898 0.88448 0.0
H2233 H 0.7395 0.80326 0.89642 0.0
H2234 H 0.72945 0.79278 0.9626 0.0
H2235 H 0.71877 0.75451 0.97105 0.0
H2236 H 0.12354 0.88093 0.27576 0.0
H2237 H 0.0889 0.89661 0.26119 0.0
H2238 H 0.05644 0.87365 0.31994 0.0
H2239 H 0.09087 0.85734 0.33429 0.0
H2240 H 0.03324 0.86268 0.28234 0.0
H2241 H 0.05666 0.95159 0.27823 0.0
H2242 H 0.07434 0.93383 0.26292 0.0
H2243 H 0.07351 0.93141 0.293 0.0
C2244 C 0.10915 0.87965 0.28584 0.0
C2245 C 0.11002 0.86799 0.30628 0.0
C2246 C 0.08932 0.88864 0.27746 0.0
C2247 C 0.07005 0.88653 0.28955 0.0
C2248 C 0.07106 0.87548 0.31028 0.0
H2249 H 0.9384 0.93438 0.28261 0.0
H2250 H 0.97129 0.91198 0.28967 0.0
C2251 C 0.0908 0.86627 0.31853 0.0
C2252 C 0.0486 0.89488 0.28023 0.0
H2253 H 0.02213 0.94148 0.26139 0.0
C2254 C 0.03084 0.87993 0.27778 0.0
C2255 C 0.04543 0.91736 0.27416 0.0
C2256 C 0.06342 0.93453 0.2774 0.0
C2257 C 0.01002 0.88687 0.26958 0.0
C2258 C 0.00687 0.90933 0.2637 0.0
C2259 C 0.02468 0.92419 0.26569 0.0
C2260 C 0.98488 0.91838 0.25728 0.0
C2261 C 0.99153 0.87018 0.2673 0.0
C2262 C 0.98116 0.92867 0.23637 0.0
C2263 C 0.96219 0.94129 0.23217 0.0
C2264 C 0.94692 0.9442 0.24905 0.0
C2265 C 0.94986 0.9324 0.26927 0.0
C2266 C 0.96866 0.91958 0.27334 0.0
H2267 H 0.99777 0.85289 0.26701 0.0
H2268 H 0.98081 0.87187 0.28186 0.0
H2269 H 0.98131 0.87314 0.25175 0.0
H2270 H 0.99353 0.92799 0.22379 0.0
H2271 H 0.96054 0.95038 0.21653 0.0
H2272 H 0.15102 0.59762 0.98058 0.0
H2273 H 0.17442 0.62043 0.00603 0.0
H2274 H 0.15914 0.67808 0.96567 0.0
H2275 H 0.1347 0.6556 0.94111 0.0
H2276 H 0.20915 0.64592 0.00558 0.0
H2277 H 0.13864 0.69851 0.02473 0.0
H2278 H 0.13546 0.67338 0.00842 0.0
H2279 H 0.14255 0.69917 0.9951 0.0
C2280 C 0.15304 0.6151 0.97695 0.0
C2281 C 0.14099 0.62498 0.95904 0.0
C2282 C 0.1663 0.62812 0.99156 0.0
C2283 C 0.1679 0.65111 0.98824 0.0
C2284 C 0.15743 0.66054 0.96911 0.0
H2285 H 0.25834 0.7483 0.02073 0.0
H2286 H 0.24329 0.7113 0.01603 0.0
C2287 C 0.14372 0.64768 0.95491 0.0
C2288 C 0.17962 0.66556 0.00509 0.0
H2289 H 0.17448 0.71503 0.0319 0.0
C2290 C 0.2015 0.66087 0.0117 0.0
C2291 C 0.16938 0.68442 0.01417 0.0
C2292 C 0.14513 0.68897 0.01045 0.0
C2293 C 0.21396 0.67564 0.02546 0.0
C2294 C 0.20457 0.69608 0.03187 0.0
C2295 C 0.1821 0.69967 0.02685 0.0
C2296 C 0.21798 0.71533 0.04041 0.0
C2297 C 0.23705 0.66914 0.03272 0.0
C2298 C 0.20949 0.7301 0.05627 0.0
C2299 C 0.2176 0.75183 0.05817 0.0
C2300 C 0.23491 0.75867 0.04498 0.0
C2301 C 0.24529 0.74313 0.03148 0.0
C2302 C 0.23669 0.72177 0.02889 0.0
H2303 H 0.23776 0.65114 0.0366 0.0
H2304 H 0.24819 0.67211 0.01871 0.0
H2305 H 0.24317 0.67857 0.04776 0.0
H2306 H 0.19518 0.72558 0.06553 0.0
H2307 H 0.20913 0.76373 0.06836 0.0
H2308 H 0.35991 0.09872 0.80987 0.0
H2309 H 0.39161 0.07382 0.80589 0.0
H2310 H 0.42145 0.12145 0.7625 0.0
H2311 H 0.39025 0.14616 0.76642 0.0
H2312 H 0.41613 0.05747 0.76315 0.0
H2313 H 0.46293 0.11347 0.82204 0.0
H2314 H 0.43324 0.11215 0.82061 0.0
H2315 H 0.44766 0.12718 0.79971 0.0
C2316 C 0.37296 0.10349 0.79898 0.0
C2317 C 0.37278 0.12441 0.78861 0.0
C2318 C 0.39105 0.08936 0.79682 0.0
C2319 C 0.40894 0.09605 0.78419 0.0
C2320 C 0.4079 0.11615 0.77251 0.0
H2321 H 0.52626 0.04371 0.7315 0.0
H2322 H 0.48988 0.0583 0.73872 0.0
C2323 C 0.39006 0.13021 0.77475 0.0
C2324 C 0.42969 0.08337 0.78449 0.0
H2325 H 0.48389 0.08832 0.80075 0.0
C2326 C 0.43091 0.06394 0.77163 0.0
C2327 C 0.44885 0.09178 0.7958 0.0
C2328 C 0.44819 0.1122 0.8105 0.0
C2329 C 0.45113 0.05325 0.76891 0.0
C2330 C 0.47057 0.06255 0.779 0.0
C2331 C 0.46906 0.08133 0.79281 0.0
C2332 C 0.49273 0.05367 0.77473 0.0
C2333 C 0.4515 0.03223 0.75512 0.0
C2334 C 0.50685 0.04713 0.79268 0.0
C2335 C 0.52786 0.03905 0.78865 0.0
C2336 C 0.53519 0.03744 0.76658 0.0
C2337 C 0.52117 0.04458 0.74871 0.0
C2338 C 0.50022 0.0527 0.75277 0.0
H2339 H 0.43527 0.0237 0.75468 0.0
H2340 H 0.4554 0.03641 0.73758 0.0
H2341 H 0.46419 0.02058 0.76186 0.0
H2342 H 0.50151 0.048 0.8098 0.0
H2343 H 0.53816 0.03369 0.80283 0.0
H2344 H 0.62581 0.85247 0.04144 0.0
H2345 H 0.65438 0.82436 0.04138 0.0
H2346 H 0.69455 0.86365 0.08775 0.0
H2347 H 0.66575 0.8922 0.08798 0.0
H2348 H 0.70061 0.82923 0.03067 0.0
H2349 H 0.68736 0.80065 0.11805 0.0
H2350 H 0.66689 0.81648 0.10237 0.0
H2351 H 0.6915 0.82983 0.11315 0.0
C2352 C 0.64074 0.85531 0.05157 0.0
C2353 C 0.64341 0.87459 0.06482 0.0
C2354 C 0.65709 0.8392 0.05146 0.0
C2355 C 0.67647 0.8418 0.06472 0.0
C2356 C 0.67959 0.86124 0.07756 0.0
H2357 H 0.77244 0.73761 0.03768 0.0
H2358 H 0.76048 0.77318 0.05272 0.0
C2359 C 0.6632 0.87759 0.07754 0.0
C2360 C 0.69287 0.82364 0.06511 0.0
H2361 H 0.71013 0.77885 0.09601 0.0
C2362 C 0.70316 0.81848 0.0451 0.0
C2363 C 0.69591 0.80955 0.08391 0.0
C2364 C 0.68482 0.8142 0.10563 0.0
C2365 C 0.71555 0.79903 0.043 0.0
C2366 C 0.71797 0.78448 0.06157 0.0
C2367 C 0.70847 0.79015 0.08191 0.0
C2368 C 0.72746 0.76199 0.05892 0.0
C2369 C 0.72468 0.7935 0.02042 0.0
C2370 C 0.71349 0.74343 0.05932 0.0
C2371 C 0.72032 0.72301 0.05094 0.0
C2372 C 0.74123 0.72083 0.04192 0.0
C2373 C 0.75617 0.73868 0.04433 0.0
C2374 C 0.74929 0.75915 0.05272 0.0
H2375 H 0.71844 0.80481 0.00695 0.0
H2376 H 0.74287 0.79493 0.02151 0.0
H2377 H 0.72038 0.77619 0.01545 0.0
H2378 H 0.69664 0.74517 0.06428 0.0
H2379 H 0.70847 0.70955 0.0496 0.0
H2380 H 0.10508 0.14376 0.1585 0.0
H2381 H 0.07359 0.12176 0.1694 0.0
H2382 H 0.11566 0.08294 0.21374 0.0
H2383 H 0.14759 0.10501 0.20294 0.0
H2384 H 0.08055 0.05863 0.18581 0.0
H2385 H 0.05062 0.13012 0.23496 0.0
H2386 H 0.05758 0.13648 0.20662 0.0
H2387 H 0.07873 0.12788 0.22657 0.0
C2388 C 0.10779 0.13039 0.17039 0.0
C2389 C 0.12884 0.12634 0.18009 0.0
C2390 C 0.08973 0.11786 0.17659 0.0
C2391 C 0.0923 0.10106 0.19264 0.0
C2392 C 0.11341 0.09598 0.20141 0.0
H2393 H 0.98154 0.04738 0.2639 0.0
H2394 H 0.01698 0.06336 0.25453 0.0
C2395 C 0.13161 0.10856 0.19517 0.0
C2396 C 0.0726 0.08986 0.20102 0.0
H2397 H 0.02562 0.10015 0.22864 0.0
C2398 C 0.0686 0.06758 0.19535 0.0
C2399 C 0.05725 0.10157 0.2137 0.0
C2400 C 0.06127 0.12529 0.22103 0.0
C2401 C 0.04913 0.0569 0.20137 0.0
C2402 C 0.03326 0.06898 0.21307 0.0
C2403 C 0.0377 0.09101 0.21945 0.0
C2404 C 0.01177 0.05922 0.21862 0.0
C2405 C 0.04573 0.0328 0.19519 0.0
C2406 C 0.99688 0.05209 0.20148 0.0
C2407 C 0.97656 0.04301 0.20674 0.0
C2408 C 0.97069 0.04098 0.22927 0.0
C2409 C 0.98548 0.04865 0.24637 0.0
C2410 C 0.00579 0.05774 0.24107 0.0
H2411 H 0.06155 0.02448 0.19195 0.0
H2412 H 0.03746 0.02372 0.20871 0.0
H2413 H 0.03514 0.03164 0.17963 0.0
H2414 H 1.00097 0.05361 0.18401 0.0
H2415 H 0.96558 0.03736 0.19312 0.0
H2416 H 0.90528 0.32935 0.24998 0.0
H2417 H 0.93977 0.3467 0.26294 0.0
H2418 H 0.9229 0.40555 0.22507 0.0
H2419 H 0.88771 0.38841 0.21277 0.0
H2420 H 0.97188 0.35727 0.23754 0.0
H2421 H 0.94673 0.43299 0.28236 0.0
H2422 H 0.92754 0.41107 0.2747 0.0
H2423 H 0.93483 0.43161 0.25436 0.0
C2424 C 0.90873 0.34619 0.24479 0.0
C2425 C 0.8939 0.35757 0.23035 0.0
C2426 C 0.92846 0.35607 0.25219 0.0
C2427 C 0.93397 0.37747 0.2451 0.0
C2428 C 0.91884 0.38921 0.2312 0.0
H2429 H 0.06054 0.43151 0.2244 0.0
H2430 H 0.02763 0.4085 0.22421 0.0
C2431 C 0.89878 0.37942 0.2241 0.0
C2432 C 0.95634 0.38643 0.25061 0.0
H2433 H 0.98425 0.43173 0.2714 0.0
C2434 C 0.97455 0.37345 0.24522 0.0
C2435 C 0.95992 0.40735 0.26099 0.0
C2436 C 0.94121 0.42145 0.26866 0.0
C2437 C 0.99615 0.38111 0.24919 0.0
C2438 C 0.99971 0.40261 0.2582 0.0
C2439 C 0.98155 0.41527 0.26438 0.0
C2440 C 0.02184 0.41311 0.25956 0.0
C2441 C 0.01492 0.36603 0.24364 0.0
C2442 C 0.02995 0.42299 0.27964 0.0
C2443 C 0.04879 0.43641 0.27977 0.0
C2444 C 0.05967 0.44034 0.25973 0.0
C2445 C 0.05253 0.42892 0.24012 0.0
C2446 C 0.03371 0.41562 0.23999 0.0
H2447 H 0.01011 0.3483 0.24506 0.0
H2448 H 0.01945 0.36894 0.22601 0.0
H2449 H 0.02962 0.36916 0.25486 0.0
H2450 H 0.02106 0.42124 0.29495 0.0
H2451 H 0.05379 0.445 0.29516 0.0
H2452 H 0.25448 0.22369 0.84889 0.0
H2453 H 0.21622 0.23003 0.85774 0.0
H2454 H 0.19721 0.16941 0.82344 0.0
H2455 H 0.23566 0.16274 0.81461 0.0
H2456 H 0.17768 0.23355 0.82985 0.0
H2457 H 0.17431 0.16158 0.88763 0.0
H2458 H 0.19987 0.17275 0.87803 0.0
H2459 H 0.18308 0.1552 0.85988 0.0
C2460 C 0.24218 0.21176 0.84301 0.0
C2461 C 0.24821 0.19258 0.83119 0.0
C2462 C 0.2203 0.21543 0.84812 0.0
C2463 C 0.20398 0.19996 0.84169 0.0
C2464 C 0.20968 0.18133 0.82896 0.0
H2465 H 0.06569 0.18649 0.84969 0.0
H2466 H 0.10528 0.18125 0.84888 0.0
C2467 C 0.23161 0.17767 0.82371 0.0
C2468 C 0.18109 0.20327 0.84864 0.0
H2469 H 0.14076 0.18039 0.87963 0.0
C2470 C 0.16962 0.22204 0.84086 0.0
C2471 C 0.17074 0.18831 0.86318 0.0
C2472 C 0.18264 0.16841 0.87287 0.0
C2473 C 0.14775 0.22581 0.84649 0.0
C2474 C 0.13725 0.21063 0.86074 0.0
C2475 C 0.1489 0.1921 0.86889 0.0
C2476 C 0.11351 0.21245 0.86524 0.0
C2477 C 0.13579 0.24547 0.83636 0.0
C2478 C 0.10495 0.23118 0.87593 0.0
C2479 C 0.08214 0.23426 0.87645 0.0
C2480 C 0.06769 0.21864 0.86622 0.0
C2481 C 0.07639 0.199 0.85743 0.0
C2482 C 0.09905 0.19594 0.85696 0.0
H2483 H 0.14483 0.25299 0.82241 0.0
H2484 H 0.11911 0.24057 0.82985 0.0
H2485 H 0.13391 0.25835 0.84949 0.0
H2486 H 0.11587 0.24389 0.88291 0.0
H2487 H 0.07594 0.24951 0.88344 0.0
H2488 H 0.40723 0.51276 0.41705 0.0
H2489 H 0.41533 0.55147 0.40804 0.0
H2490 H 0.47675 0.53172 0.38055 0.0
H2491 H 0.46876 0.49306 0.38916 0.0
H2492 H 0.44927 0.57867 0.42149 0.0
H2493 H 0.44907 0.56753 0.32913 0.0
H2494 H 0.43855 0.54671 0.34768 0.0
H2495 H 0.46764 0.54908 0.34382 0.0
C2496 C 0.42255 0.51663 0.40925 0.0
C2497 C 0.43725 0.49969 0.40371 0.0
C2498 C 0.42709 0.53878 0.40399 0.0
C2499 C 0.44636 0.54442 0.39303 0.0
C2500 C 0.46146 0.52769 0.38834 0.0
H2501 H 0.51397 0.66808 0.39138 0.0
H2502 H 0.5025 0.62924 0.3919 0.0
C2503 C 0.45694 0.50558 0.39353 0.0
C2504 C 0.45105 0.56787 0.38712 0.0
H2505 H 0.46447 0.60167 0.34361 0.0
C2506 C 0.45236 0.58371 0.40442 0.0
C2507 C 0.45475 0.57456 0.36477 0.0
C2508 C 0.45221 0.55863 0.34524 0.0
C2509 C 0.45818 0.60581 0.40017 0.0
C2510 C 0.46314 0.61219 0.37807 0.0
C2511 C 0.46093 0.59664 0.36056 0.0
C2512 C 0.47173 0.63471 0.37342 0.0
C2513 C 0.45923 0.62215 0.41945 0.0
C2514 C 0.45888 0.65038 0.3615 0.0
C2515 C 0.46559 0.6727 0.3609 0.0
C2516 C 0.48513 0.67945 0.37236 0.0
C2517 C 0.49877 0.66332 0.38253 0.0
C2518 C 0.49219 0.64115 0.38295 0.0
H2519 H 0.44974 0.61623 0.43385 0.0
H2520 H 0.47661 0.62439 0.42538 0.0
H2521 H 0.45278 0.63858 0.41407 0.0
H2522 H 0.44307 0.64565 0.35391 0.0
H2523 H 0.45471 0.68486 0.35312 0.0
H2524 H 0.75443 0.28624 0.82779 0.0
H2525 H 0.79419 0.28356 0.82836 0.0
H2526 H 0.79856 0.34985 0.80177 0.0
H2527 H 0.75834 0.35303 0.80193 0.0
H2528 H 0.82565 0.28608 0.79856 0.0
H2529 H 0.83468 0.35577 0.85983 0.0
H2530 H 0.80831 0.34379 0.85191 0.0
H2531 H 0.82154 0.36252 0.83323 0.0
C2532 C 0.76372 0.30026 0.82184 0.0
C2533 C 0.75314 0.32004 0.81522 0.0
C2534 C 0.78655 0.29864 0.8221 0.0
C2535 C 0.79945 0.31667 0.81563 0.0
C2536 C 0.78896 0.33591 0.8074 0.0
H2537 H 0.94232 0.29098 0.82196 0.0
H2538 H 0.90564 0.3009 0.80719 0.0
C2539 C 0.76596 0.33763 0.80727 0.0
C2540 C 0.82373 0.31536 0.81915 0.0
H2541 H 0.86665 0.33657 0.85126 0.0
C2542 C 0.83472 0.29727 0.80986 0.0
C2543 C 0.83546 0.32983 0.83414 0.0
C2544 C 0.82444 0.34898 0.84554 0.0
C2545 C 0.85677 0.29265 0.81587 0.0
C2546 C 0.86842 0.30697 0.83111 0.0
C2547 C 0.85771 0.32561 0.83961 0.0
C2548 C 0.89111 0.30203 0.8398 0.0
C2549 C 0.8669 0.27177 0.80685 0.0
C2550 C 0.89551 0.30031 0.86309 0.0
C2551 C 0.91658 0.29494 0.87152 0.0
C2552 C 0.93356 0.29089 0.85679 0.0
C2553 C 0.92933 0.29318 0.83357 0.0
C2554 C 0.90835 0.29891 0.82514 0.0
H2555 H 0.8542 0.25988 0.80025 0.0
H2556 H 0.87757 0.27611 0.79282 0.0
H2557 H 0.87713 0.26332 0.82005 0.0
H2558 H 0.88252 0.30275 0.87477 0.0
H2559 H 0.91944 0.29339 0.88951 0.0
H2560 H 0.59375 0.99524 0.41282 0.0
H2561 H 0.58293 0.95651 0.4065 0.0
H2562 H 0.52041 0.97756 0.37775 0.0
H2563 H 0.53098 0.01636 0.38396 0.0
H2564 H 0.51933 0.94116 0.41098 0.0
H2565 H 0.57721 0.92735 0.34226 0.0
H2566 H 0.58868 0.93931 0.36787 0.0
H2567 H 0.56911 0.95475 0.35098 0.0
C2568 C 0.57767 0.99169 0.40518 0.0
C2569 C 0.5633 0.009 0.39877 0.0
C2570 C 0.57155 0.96953 0.40155 0.0
C2571 C 0.55096 0.96423 0.39151 0.0
C2572 C 0.5364 0.98135 0.38549 0.0
H2573 H 0.50184 0.8453 0.32709 0.0
H2574 H 0.51222 0.88297 0.33835 0.0
C2575 C 0.54253 0.00353 0.38899 0.0
C2576 C 0.54473 0.94084 0.38684 0.0
H2577 H 0.5564 0.89653 0.35356 0.0
C2578 C 0.52746 0.93133 0.39851 0.0
C2579 C 0.5553 0.92819 0.37043 0.0
C2580 C 0.57352 0.93786 0.35699 0.0
C2581 C 0.5205 0.9094 0.3942 0.0
C2582 C 0.53113 0.89675 0.37784 0.0
C2583 C 0.54839 0.90627 0.36619 0.0
C2584 C 0.52398 0.8739 0.37177 0.0
C2585 C 0.50151 0.90004 0.40673 0.0
C2586 C 0.52715 0.8563 0.3869 0.0
C2587 C 0.52131 0.83461 0.38049 0.0
C2588 C 0.51217 0.83018 0.35884 0.0
C2589 C 0.5088 0.848 0.3439 0.0
C2590 C 0.51474 0.86959 0.35028 0.0
H2591 H 0.49279 0.91307 0.4161 0.0
H2592 H 0.48956 0.89165 0.39491 0.0
H2593 H 0.50775 0.88748 0.41894 0.0
H2594 H 0.53454 0.85928 0.40349 0.0
H2595 H 0.52437 0.82134 0.39236 0.0
H2596 H 0.25074 0.79034 0.67491 0.0
H2597 H 0.2111 0.78964 0.66787 0.0
H2598 H 0.20833 0.86012 0.68015 0.0
H2599 H 0.24851 0.86101 0.68706 0.0
H2600 H 0.17651 0.80277 0.69477 0.0
H2601 H 0.1801 0.8517 0.61575 0.0
H2602 H 0.20424 0.83945 0.62911 0.0
H2603 H 0.19246 0.86391 0.64084 0.0
C2604 C 0.24171 0.80569 0.67638 0.0
C2605 C 0.25271 0.82578 0.68134 0.0
C2606 C 0.21906 0.80525 0.67235 0.0
C2607 C 0.2069 0.82487 0.67306 0.0
C2608 C 0.21757 0.84486 0.67914 0.0
H2609 H 0.06552 0.83121 0.65729 0.0
H2610 H 0.10418 0.84228 0.66024 0.0
C2611 C 0.24041 0.84531 0.68335 0.0
C2612 C 0.18317 0.82396 0.6668 0.0
H2613 H 0.14543 0.83753 0.62511 0.0
C2614 C 0.16966 0.81053 0.67966 0.0
C2615 C 0.17442 0.83396 0.64694 0.0
C2616 C 0.1885 0.84797 0.6322 0.0
C2617 C 0.14767 0.80655 0.67303 0.0
C2618 C 0.13906 0.81615 0.65297 0.0
C2619 C 0.1523 0.83007 0.64036 0.0
C2620 C 0.11604 0.81203 0.6455 0.0
C2621 C 0.13376 0.79189 0.68734 0.0
C2622 C 0.11 0.79185 0.63509 0.0
C2623 C 0.08786 0.78547 0.63327 0.0
C2624 C 0.07169 0.79913 0.64218 0.0
C2625 C 0.07771 0.82024 0.65056 0.0
C2626 C 0.09975 0.82665 0.65219 0.0
H2627 H 0.14244 0.78715 0.70335 0.0
H2628 H 0.11827 0.80049 0.69128 0.0
H2629 H 0.12923 0.77653 0.67788 0.0
H2630 H 0.12249 0.7804 0.62987 0.0
H2631 H 0.08368 0.76914 0.62671 0.0
H2632 H 0.03205 0.49347 0.60309 0.0
H2633 H 0.02314 0.53267 0.60784 0.0
H2634 H 0.09061 0.55035 0.59673 0.0
H2635 H 0.09936 0.5113 0.59096 0.0
H2636 H 0.03624 0.55997 0.63853 0.0
H2637 H 0.06149 0.59583 0.55829 0.0
H2638 H 0.05947 0.56629 0.56252 0.0
H2639 H 0.08381 0.58131 0.57201 0.0
C2640 C 0.04493 0.50574 0.6013 0.0
C2641 C 0.06641 0.49918 0.59653 0.0
C2642 C 0.03981 0.5282 0.60405 0.0
C2643 C 0.05608 0.54471 0.60233 0.0
C2644 C 0.07753 0.53817 0.59745 0.0
H2645 H 0.0508 0.67123 0.67115 0.0
H2646 H 0.05784 0.63349 0.65846 0.0
C2647 C 0.08257 0.51573 0.59431 0.0
C2648 C 0.05093 0.56844 0.60733 0.0
H2649 H 0.05695 0.62169 0.58861 0.0
C2650 C 0.0406 0.57339 0.62743 0.0
C2651 C 0.0562 0.58613 0.5928 0.0
C2652 C 0.06562 0.5821 0.5701 0.0
C2653 C 0.03595 0.59533 0.63367 0.0
C2654 C 0.04254 0.6131 0.61988 0.0
C2655 C 0.05224 0.60818 0.59943 0.0
C2656 C 0.03973 0.63679 0.62664 0.0
C2657 C 0.02365 0.59913 0.65487 0.0
C2658 C 0.02828 0.65182 0.6125 0.0
C2659 C 0.02464 0.67372 0.61957 0.0
C2660 C 0.0323 0.68098 0.64096 0.0
C2661 C 0.04441 0.66611 0.65469 0.0
C2662 C 0.04831 0.64443 0.64751 0.0
H2663 H 0.01357 0.58441 0.65908 0.0
H2664 H 0.03562 0.60207 0.6691 0.0
H2665 H 0.01265 0.61373 0.65327 0.0
H2666 H 0.02161 0.64644 0.59624 0.0
H2667 H 0.01507 0.68456 0.60865 0.0
H2668 H 0.76782 0.65853 0.68239 0.0
H2669 H 0.80797 0.66308 0.68379 0.0
H2670 H 0.80293 0.70805 0.6277 0.0
H2671 H 0.76313 0.704 0.62639 0.0
H2672 H 0.83903 0.65484 0.65208 0.0
H2673 H 0.83869 0.74409 0.6738 0.0
H2674 H 0.8146 0.72672 0.67564 0.0
H2675 H 0.82191 0.7382 0.64905 0.0
C2676 C 0.77527 0.66941 0.67038 0.0
C2677 C 0.76216 0.68107 0.65444 0.0
C2678 C 0.79821 0.67198 0.67121 0.0
C2679 C 0.8084 0.68628 0.65616 0.0
C2680 C 0.7954 0.6974 0.63988 0.0
H2681 H 0.93958 0.69416 0.60911 0.0
H2682 H 0.90184 0.68393 0.61704 0.0
C2683 C 0.77258 0.69496 0.6391 0.0
C2684 C 0.83262 0.68957 0.65708 0.0
H2685 H 0.87202 0.73007 0.65908 0.0
C2686 C 0.84631 0.67124 0.65391 0.0
C2687 C 0.84217 0.7109 0.65992 0.0
C2688 C 0.82859 0.73106 0.66504 0.0
C2689 C 0.86918 0.67383 0.65241 0.0
C2690 C 0.87853 0.69539 0.65362 0.0
C2691 C 0.86491 0.71355 0.65786 0.0
C2692 C 0.90216 0.69978 0.64975 0.0
C2693 C 0.88306 0.65342 0.64958 0.0
C2694 C 0.91492 0.71241 0.66529 0.0
C2695 C 0.9364 0.71866 0.66059 0.0
C2696 C 0.94568 0.71235 0.64028 0.0
C2697 C 0.93308 0.69917 0.62501 0.0
C2698 C 0.91149 0.69313 0.62961 0.0
H2699 H 0.87506 0.63852 0.65663 0.0
H2700 H 0.8851 0.65032 0.6314 0.0
H2701 H 0.89961 0.65548 0.65787 0.0
H2702 H 0.90808 0.71785 0.6809 0.0
H2703 H 0.94555 0.72881 0.6727 0.0
H2704 H 0.97753 0.01335 0.60568 0.0
H2705 H 0.98593 0.97494 0.61583 0.0
H2706 H 0.91775 0.95707 0.60397 0.0
H2707 H 0.90937 0.99519 0.59305 0.0
H2708 H 0.97193 0.95027 0.64948 0.0
H2709 H 0.94635 0.90932 0.56914 0.0
H2710 H 0.94918 0.93901 0.5717 0.0
H2711 H 0.92469 0.92529 0.58065 0.0
C2712 C 0.96437 0.00117 0.6049 0.0
C2713 C 0.9428 0.00737 0.59831 0.0
C2714 C 0.96919 0.97922 0.61082 0.0
C2715 C 0.95256 0.96295 0.61041 0.0
C2716 C 0.93101 0.9691 0.60386 0.0
H2717 H 0.9533 0.82145 0.64171 0.0
H2718 H 0.94218 0.86061 0.64082 0.0
C2719 C 0.92623 0.99098 0.59765 0.0
C2720 C 0.95768 0.93976 0.61745 0.0
H2721 H 0.95406 0.88566 0.6002 0.0
C2722 C 0.96805 0.93617 0.63866 0.0
C2723 C 0.95265 0.92127 0.60338 0.0
C2724 C 0.94281 0.92389 0.57987 0.0
C2725 C 0.97344 0.91468 0.64613 0.0
C2726 C 0.96828 0.8963 0.63211 0.0
C2727 C 0.95771 0.8998 0.61107 0.0
C2728 C 0.97523 0.87338 0.63796 0.0
C2729 C 0.98461 0.9117 0.66896 0.0
C2730 C 0.99753 0.86768 0.63747 0.0
C2731 C 0.00384 0.8454 0.6379 0.0
C2732 C 0.98798 0.8285 0.63913 0.0
C2733 C 0.96585 0.83424 0.64139 0.0
C2734 C 0.9595 0.85656 0.64064 0.0
H2735 H 0.98337 0.9268 0.67958 0.0
H2736 H 0.97735 0.89742 0.67784 0.0
H2737 H 0.00229 0.90814 0.66687 0.0
H2738 H 0.0099 0.88034 0.63503 0.0
H2739 H 0.02092 0.8413 0.63556 0.0
H2740 H 0.8223 0.23305 0.21217 0.0
H2741 H 0.82064 0.19268 0.20903 0.0
H2742 H 0.8244 0.19734 0.13707 0.0
H2743 H 0.82592 0.23794 0.13997 0.0
H2744 H 0.792 0.1603 0.1766 0.0
H2745 H 0.88275 0.16537 0.16692 0.0
H2746 H 0.86806 0.18758 0.17999 0.0
H2747 H 0.86472 0.183 0.1503 0.0
C2748 C 0.82231 0.22555 0.19562 0.0
C2749 C 0.82454 0.23864 0.17634 0.0
C2750 C 0.82122 0.20251 0.19386 0.0
C2751 C 0.82248 0.19218 0.17286 0.0
C2752 C 0.82332 0.20514 0.15341 0.0
H2753 H 0.87266 0.05711 0.17151 0.0
H2754 H 0.8583 0.09216 0.15672 0.0
C2755 C 0.82421 0.22828 0.15511 0.0
C2756 C 0.82608 0.16805 0.172 0.0
H2757 H 0.86769 0.13049 0.17383 0.0
C2758 C 0.80845 0.15361 0.17555 0.0
C2759 C 0.84753 0.15953 0.17048 0.0
C2760 C 0.86697 0.17455 0.16675 0.0
C2761 C 0.8119 0.13076 0.17846 0.0
C2762 C 0.83363 0.12244 0.17855 0.0
C2763 C 0.85104 0.13683 0.17379 0.0
C2764 C 0.8392 0.09955 0.18572 0.0
C2765 C 0.79227 0.1159 0.18169 0.0
C2766 C 0.83299 0.09185 0.20679 0.0
C2767 C 0.84096 0.07171 0.21516 0.0
C2768 C 0.85574 0.05915 0.20285 0.0
C2769 C 0.86147 0.06654 0.18148 0.0
C2770 C 0.8532 0.08651 0.17297 0.0
H2771 H 0.77741 0.1225 0.17261 0.0
H2772 H 0.79524 0.09875 0.1757 0.0
H2773 H 0.78873 0.11532 0.19982 0.0
H2774 H 0.8228 0.10187 0.21729 0.0
H2775 H 0.8363 0.06651 0.23171 0.0
H2776 H 0.48973 0.92661 0.09658 0.0
H2777 H 0.45097 0.91618 0.09175 0.0
H2778 H 0.46566 0.87672 0.03378 0.0
H2779 H 0.50436 0.88732 0.03815 0.0
H2780 H 0.42773 0.90043 0.02747 0.0
H2781 H 0.42687 0.8556 0.10853 0.0
H2782 H 0.43568 0.88396 0.11142 0.0
H2783 H 0.45201 0.86464 0.09622 0.0
C2784 C 0.48473 0.91595 0.0826 0.0
C2785 C 0.50032 0.90768 0.06788 0.0
C2786 C 0.46257 0.90979 0.08003 0.0
C2787 C 0.45553 0.89512 0.06281 0.0
C2788 C 0.47077 0.88781 0.04737 0.0
H2789 H 0.32327 0.84652 0.02228 0.0
H2790 H 0.36337 0.84649 0.02871 0.0
C2791 C 0.49292 0.894 0.04987 0.0
C2792 C 0.43229 0.88737 0.06089 0.0
H2793 H 0.39199 0.86175 0.08989 0.0
C2794 C 0.41998 0.89173 0.041 0.0
C2795 C 0.42224 0.87586 0.07852 0.0
C2796 C 0.43493 0.86952 0.09979 0.0
C2797 C 0.39766 0.88579 0.03861 0.0
C2798 C 0.38745 0.87484 0.05648 0.0
C2799 C 0.39988 0.87 0.07618 0.0
C2800 C 0.36339 0.87054 0.0558 0.0
C2801 C 0.38491 0.89216 0.01737 0.0
C2802 C 0.35011 0.88277 0.06997 0.0
C2803 C 0.3273 0.88271 0.06643 0.0
C2804 C 0.31734 0.8703 0.04873 0.0
C2805 C 0.33046 0.85617 0.03611 0.0
C2806 C 0.35339 0.85636 0.03958 0.0
H2807 H 0.39427 0.90382 0.00689 0.0
H2808 H 0.38118 0.87703 0.00723 0.0
H2809 H 0.36906 0.89999 0.02141 0.0
H2810 H 0.35746 0.89367 0.0827 0.0
H2811 H 0.31759 0.89368 0.07648 0.0
H2812 H 0.19077 0.25491 0.20254 0.0
H2813 H 0.17955 0.29297 0.20962 0.0
H2814 H 0.16912 0.30339 0.13838 0.0
H2815 H 0.17992 0.26488 0.13117 0.0
H2816 H 0.19286 0.33398 0.19711 0.0
H2817 H 0.10853 0.31624 0.16218 0.0
H2818 H 0.12853 0.29468 0.16744 0.0
H2819 H 0.13015 0.31191 0.14298 0.0
C2820 C 0.18659 0.26545 0.18831 0.0
C2821 C 0.18609 0.25686 0.1663 0.0
C2822 C 0.18008 0.28719 0.1924 0.0
C2823 C 0.17286 0.30082 0.1746 0.0
C2824 C 0.17407 0.29294 0.15242 0.0
H2825 H 0.1318 0.43676 0.17674 0.0
H2826 H 0.13657 0.39808 0.16553 0.0
C2827 C 0.18063 0.27107 0.14829 0.0
C2828 C 0.16319 0.32277 0.17968 0.0
H2829 H 0.11554 0.35269 0.17565 0.0
C2830 C 0.17597 0.33805 0.1924 0.0
C2831 C 0.14103 0.32798 0.1737 0.0
C2832 C 0.12615 0.31181 0.16099 0.0
C2833 C 0.16729 0.35842 0.19917 0.0
C2834 C 0.14517 0.36357 0.19327 0.0
C2835 C 0.13241 0.3485 0.18034 0.0
C2836 C 0.13578 0.38529 0.19935 0.0
C2837 C 0.18194 0.37447 0.21237 0.0
C2838 C 0.13213 0.39062 0.2219 0.0
C2839 C 0.12902 0.41274 0.22832 0.0
C2840 C 0.12983 0.42967 0.21224 0.0
C2841 C 0.131 0.42394 0.18941 0.0
C2842 C 0.13386 0.40188 0.183 0.0
H2843 H 0.19948 0.3694 0.21265 0.0
H2844 H 0.18057 0.39139 0.20515 0.0
H2845 H 0.17662 0.3753 0.22996 0.0
H2846 H 0.13346 0.37795 0.23473 0.0
H2847 H 0.12846 0.41677 0.24603 0.0
H2848 H 0.51825 0.57579 0.08686 0.0
H2849 H 0.55595 0.58368 0.07544 0.0
H2850 H 0.5354 0.64831 0.05212 0.0
H2851 H 0.49801 0.64018 0.06252 0.0
H2852 H 0.55754 0.63 0.0215 0.0
H2853 H 0.60549 0.62026 0.10174 0.0
H2854 H 0.58993 0.59584 0.09414 0.0
H2855 H 0.57584 0.62118 0.10043 0.0
C2856 C 0.52192 0.59174 0.07954 0.0
C2857 C 0.50507 0.60725 0.07543 0.0
C2858 C 0.54352 0.59634 0.07312 0.0
C2859 C 0.54875 0.61675 0.06302 0.0
C2860 C 0.53197 0.63242 0.05972 0.0
H2861 H 0.68558 0.6557 0.03533 0.0
H2862 H 0.64795 0.65706 0.04927 0.0
C2863 C 0.51049 0.62771 0.06569 0.0
C2864 C 0.57107 0.62151 0.05435 0.0
H2865 H 0.62616 0.62246 0.06842 0.0
C2866 C 0.57248 0.62852 0.03192 0.0
C2867 C 0.59071 0.62005 0.06786 0.0
C2868 C 0.59046 0.61415 0.09244 0.0
C2869 C 0.59276 0.63353 0.02256 0.0
C2870 C 0.61247 0.63084 0.03566 0.0
C2871 C 0.61112 0.62446 0.05827 0.0
C2872 C 0.63457 0.63263 0.02566 0.0
C2873 C 0.59276 0.64179 0.99866 0.0
C2874 C 0.6395 0.61898 0.00742 0.0
C2875 C 0.66072 0.61842 -0.00062 0.0
C2876 C 0.67774 0.63133 0.00943 0.0
C2877 C 0.67271 0.64591 0.02696 0.0
C2878 C 0.65129 0.64644 0.03511 0.0
H2879 H 0.5772 0.65051 0.99403 0.0
H2880 H 0.60674 0.65327 0.99604 0.0
H2881 H 0.59412 0.62743 0.98709 0.0
H2882 H 0.62718 0.60782 7e-05 0.0
H2883 H 0.66414 0.60681 0.98603 0.0
H2884 H 0.83849 0.75686 0.28408 0.0
H2885 H 0.8497 0.79548 0.28094 0.0
H2886 H 0.84473 0.80401 0.3525 0.0
H2887 H 0.83392 0.76495 0.35596 0.0
H2888 H 0.82939 0.83396 0.29201 0.0
H2889 H 0.90791 0.8242 0.34183 0.0
H2890 H 0.89163 0.8008 0.33183 0.0
H2891 H 0.8836 0.8162 0.35603 0.0
C2892 C 0.83957 0.76694 0.29918 0.0
C2893 C 0.83553 0.75775 0.32032 0.0
C2894 C 0.84603 0.78901 0.29734 0.0
C2895 C 0.84861 0.80239 0.31655 0.0
C2896 C 0.84339 0.79373 0.33755 0.0
H2897 H 0.86761 0.94179 0.32669 0.0
H2898 H 0.86775 0.90238 0.33603 0.0
C2899 C 0.83691 0.77153 0.33945 0.0
C2900 C 0.85674 0.82538 0.31424 0.0
H2901 H 0.89919 0.86052 0.32908 0.0
C2902 C 0.84467 0.83973 0.30006 0.0
C2903 C 0.87679 0.83276 0.32468 0.0
C2904 C 0.89088 0.81767 0.3393 0.0
C2905 C 0.85196 0.86137 0.29619 0.0
C2906 C 0.87194 0.86877 0.30664 0.0
C2907 C 0.88402 0.85457 0.32094 0.0
C2908 C 0.87928 0.89187 0.30383 0.0
C2909 C 0.8381 0.87636 0.28116 0.0
C2910 C 0.88725 0.89892 0.28323 0.0
C2911 C 0.8873 0.92148 0.27785 0.0
C2912 C 0.87906 0.93701 0.29298 0.0
C2913 C 0.87375 0.93006 0.31463 0.0
C2914 C 0.8739 0.90759 0.32003 0.0
H2915 H 0.82186 0.86885 0.2764 0.0
H2916 H 0.83535 0.89248 0.28966 0.0
H2917 H 0.84689 0.8798 0.26556 0.0
H2918 H 0.8915 0.88689 0.27057 0.0
H2919 H 0.89154 0.92642 0.26108 0.0
H2920 H 0.01134 0.92106 0.90305 0.0
H2921 H 0.04999 0.91416 0.91273 0.0
H2922 H 0.03256 0.89069 0.97805 0.0
H2923 H 0.99365 0.89676 0.96816 0.0
H2924 H 0.07887 0.92877 0.94375 0.0
H2925 H 0.06621 0.83861 0.95599 0.0
H2926 H 0.04491 0.85632 0.94438 0.0
H2927 H 0.05024 0.85515 0.97432 0.0
C2928 C 0.01567 0.91457 0.91956 0.0
C2929 C 0.99929 0.90922 0.93473 0.0
C2930 C 0.03784 0.91062 0.92507 0.0
C2931 C 0.0442 0.90138 0.94591 0.0
C2932 C 0.02803 0.89717 0.96158 0.0
H2933 H 0.17904 0.89409 0.00026 0.0
H2934 H 0.142 0.90615 0.98915 0.0
C2935 C 0.00578 0.90081 0.95597 0.0
C2936 C 0.06767 0.89568 0.95088 0.0
H2937 H 0.10151 0.85292 0.9664 0.0
C2938 C 0.08384 0.91216 0.94864 0.0
C2939 C 0.07425 0.87389 0.95678 0.0
C2940 C 0.05803 0.85492 0.95778 0.0
C2941 C 0.10631 0.90755 0.9524 0.0
C2942 C 0.11279 0.886 0.95926 0.0
C2943 C 0.09662 0.86949 0.96128 0.0
C2944 C 0.13615 0.88001 0.96454 0.0
C2945 C 0.12285 0.92571 0.94841 0.0
C2946 C 0.1453 0.86115 0.95465 0.0
C2947 C 0.16636 0.85397 0.96133 0.0
C2948 C 0.17885 0.86563 0.97788 0.0
C2949 C 0.17003 0.88497 0.98716 0.0
C2950 C 0.14881 0.89194 0.98076 0.0
H2951 H 0.11613 0.93824 0.93637 0.0
H2952 H 0.12692 0.93438 0.96451 0.0
H2953 H 0.13825 0.91894 0.94177 0.0
H2954 H 0.1359 0.85164 0.94212 0.0
H2955 H 0.17269 0.839 0.95386 0.0
H2956 H 0.20509 0.7384 0.35172 0.0
H2957 H 0.2082 0.69821 0.34553 0.0
H2958 H 0.15567 0.70111 0.29491 0.0
H2959 H 0.15273 0.74078 0.30049 0.0
H2960 H 0.17768 0.66573 0.35101 0.0
H2961 H 0.20083 0.66605 0.26252 0.0
H2962 H 0.20247 0.69067 0.27988 0.0
H2963 H 0.17685 0.6827 0.2658 0.0
C2964 C 0.19439 0.73048 0.33909 0.0
C2965 C 0.17873 0.74293 0.32656 0.0
C2966 C 0.19619 0.70753 0.33559 0.0
C2967 C 0.1825 0.69673 0.3194 0.0
C2968 C 0.16687 0.70914 0.307 0.0
H2969 H 0.12111 0.57188 0.30958 0.0
H2970 H 0.13588 0.60818 0.32023 0.0
C2971 C 0.1651 0.73191 0.31041 0.0
C2972 C 0.18317 0.67232 0.31614 0.0
H2973 H 0.18134 0.63311 0.27467 0.0
C2974 C 0.17897 0.65851 0.33441 0.0
C2975 C 0.18542 0.66275 0.29461 0.0
C2976 C 0.1919 0.67634 0.27467 0.0
C2977 C 0.17521 0.63565 0.33138 0.0
C2978 C 0.17502 0.62655 0.30941 0.0
C2979 C 0.181 0.64007 0.29147 0.0
C2980 C 0.16694 0.60369 0.30429 0.0
C2981 C 0.17112 0.62164 0.35175 0.0
C2982 C 0.17914 0.58919 0.29115 0.0
C2983 C 0.17048 0.56852 0.28456 0.0
C2984 C 0.14946 0.56188 0.29105 0.0
C2985 C 0.13744 0.57631 0.30446 0.0
C2986 C 0.14598 0.59705 0.31079 0.0
H2987 H 0.18002 0.62847 0.36691 0.0
H2988 H 0.15331 0.62178 0.35506 0.0
H2989 H 0.17634 0.6042 0.34929 0.0
H2990 H 0.19526 0.59399 0.28572 0.0
H2991 H 0.18017 0.55786 0.27422 0.0
H2992 H 0.00595 0.59738 0.96634 0.0
H2993 H 0.96706 0.60214 0.97312 0.0
H2994 H 0.95095 0.58911 0.90317 0.0
H2995 H 0.99007 0.58468 0.89605 0.0
H2996 H 0.93096 0.62616 0.9176 0.0
H2997 H 0.91678 0.55884 0.97822 0.0
H2998 H 0.9396 0.57616 0.98699 0.0
H2999 H 0.94095 0.55999 0.96161 0.0
C3000 C 0.9942 0.59516 0.95237 0.0
C3001 C 1.00133 0.59062 0.93059 0.0
C3002 C 0.97184 0.59775 0.95636 0.0
C3003 C 0.95592 0.5957 0.93876 0.0
C3004 C 0.96287 0.59066 0.91708 0.0
H3005 H 0.81383 0.60382 0.96196 0.0
H3006 H 0.85026 0.59041 0.95231 0.0
C3007 C 0.98529 0.58805 0.91305 0.0
C3008 C 0.93232 0.60056 0.94274 0.0
H3009 H 0.89002 0.58809 0.97684 0.0
C3010 C 0.92196 0.61764 0.93039 0.0
C3011 C 0.92034 0.58931 0.95921 0.0
C3012 C 0.92991 0.5699 0.9721 0.0
C3013 C 0.90039 0.62433 0.93463 0.0
C3014 C 0.8889 0.61399 0.95203 0.0
C3015 C 0.89889 0.59628 0.96375 0.0
C3016 C 0.86681 0.62179 0.95865 0.0
C3017 C 0.89011 0.64245 0.92037 0.0
C3018 C 0.864 0.64371 0.966 0.0
C3019 C 0.84324 0.65141 0.97154 0.0
C3020 C 0.8247 0.63733 0.97009 0.0
C3021 C 0.82766 0.61515 0.96335 0.0
C3022 C 0.84851 0.60745 0.95777 0.0
H3023 H 0.89804 0.64385 0.90394 0.0
H3024 H 0.87224 0.63946 0.91724 0.0
H3025 H 0.89227 0.65857 0.92926 0.0
H3026 H 0.87792 0.65497 0.96738 0.0
H3027 H 0.84174 0.66853 0.97683 0.0
H3028 H 0.19207 0.80258 0.24497 0.0
H3029 H 0.19469 0.81262 0.20544 0.0
H3030 H 0.13255 0.84648 0.20746 0.0
H3031 H 0.12972 0.83609 0.24718 0.0
H3032 H 0.16397 0.81027 0.1637 0.0
H3033 H 0.18353 0.89464 0.19809 0.0
H3034 H 0.18506 0.87038 0.21575 0.0
H3035 H 0.1588 0.8807 0.20611 0.0
C3036 C 0.17849 0.81124 0.23667 0.0
C3037 C 0.16062 0.8184 0.24894 0.0
C3038 C 0.18004 0.81709 0.21416 0.0
C3039 C 0.16394 0.8305 0.20368 0.0
C3040 C 0.14513 0.83614 0.21533 0.0
H3041 H 0.20001 0.8801 0.07006 0.0
H3042 H 0.17652 0.87655 0.10253 0.0
C3043 C 0.14341 0.82999 0.23788 0.0
C3044 C 0.1688 0.84087 0.18195 0.0
H3045 H 0.19283 0.88735 0.16092 0.0
C3046 C 0.16961 0.82733 0.16282 0.0
C3047 C 0.17637 0.86309 0.18102 0.0
C3048 C 0.17603 0.87817 0.20128 0.0
C3049 C 0.17893 0.83509 0.14312 0.0
C3050 C 0.18781 0.85679 0.14272 0.0
C3051 C 0.18584 0.87078 0.16134 0.0
C3052 C 0.20233 0.86354 0.12464 0.0
C3053 C 0.18067 0.8196 0.12333 0.0
C3054 C 0.22472 0.85836 0.12681 0.0
C3055 C 0.23807 0.86023 0.10841 0.0
C3056 C 0.22926 0.86746 0.08755 0.0
C3057 C 0.20727 0.87462 0.08598 0.0
C3058 C 0.19381 0.87249 0.10443 0.0
H3059 H 0.17124 0.80397 0.12552 0.0
H3060 H 0.1745 0.82789 0.10771 0.0
H3061 H 0.19819 0.81538 0.12114 0.0
H3062 H 0.23154 0.85148 0.14234 0.0
H3063 H 0.25494 0.85465 0.11011 0.0
H3064 H 0.1523 0.17667 0.24657 0.0
H3065 H 0.15318 0.16518 0.28598 0.0
H3066 H 0.22263 0.1522 0.28333 0.0
H3067 H 0.22199 0.16352 0.24404 0.0
H3068 H 0.19644 0.11634 0.30065 0.0
H3069 H 0.18142 0.19782 0.34151 0.0
H3070 H 0.16251 0.18991 0.3189 0.0
H3071 H 0.19072 0.19558 0.31318 0.0
C3072 C 0.16785 0.17181 0.25448 0.0
C3073 C 0.18707 0.17099 0.24213 0.0
C3074 C 0.16829 0.16517 0.27696 0.0
C3075 C 0.18795 0.15778 0.28743 0.0
C3076 C 0.20728 0.15771 0.27543 0.0
H3077 H 0.24055 0.11671 0.41432 0.0
H3078 H 0.23043 0.11686 0.37419 0.0
C3079 C 0.20688 0.16432 0.25302 0.0
C3080 C 0.18846 0.14961 0.31077 0.0
H3081 H 0.18453 0.16672 0.36497 0.0
C3082 C 0.19369 0.12726 0.31478 0.0
C3083 C 0.18477 0.16393 0.32901 0.0
C3084 C 0.17969 0.1882 0.32559 0.0
C3085 C 0.19556 0.11887 0.33673 0.0
C3086 C 0.19245 0.13334 0.35502 0.0
C3087 C 0.18672 0.15557 0.3509 0.0
C3088 C 0.19667 0.12667 0.37868 0.0
C3089 C 0.20085 0.09466 0.3401 0.0
C3090 C 0.18082 0.13113 0.39454 0.0
C3091 C 0.18671 0.13146 0.41738 0.0
C3092 C 0.20847 0.12713 0.42469 0.0
C3093 C 0.22364 0.12001 0.40907 0.0
C3094 C 0.21783 0.12004 0.38612 0.0
H3095 H 0.19541 0.0846 0.32521 0.0
H3096 H 0.21891 0.09275 0.34246 0.0
H3097 H 0.19297 0.08795 0.35517 0.0
H3098 H 0.16439 0.13617 0.38916 0.0
H3099 H 0.17469 0.13682 0.42919 0.0
H3100 H 0.42558 0.53719 0.00668 0.0
H3101 H 0.41491 0.52849 0.96777 0.0
H3102 H 0.41196 0.59827 0.95237 0.0
H3103 H 0.42233 0.60723 0.99152 0.0
H3104 H 0.37385 0.57507 0.93886 0.0
H3105 H 0.44769 0.53175 0.90976 0.0
H3106 H 0.43786 0.52075 0.93548 0.0
H3107 H 0.44824 0.54873 0.9348 0.0
C3108 C 0.42319 0.55074 0.99495 0.0
C3109 C 0.42484 0.57294 0.0023 0.0
C3110 C 0.41711 0.5457 0.97265 0.0
C3111 C 0.41271 0.56271 0.95712 0.0
C3112 C 0.4153 0.58488 0.96408 0.0
H3113 H 0.36955 0.56324 0.8173 0.0
H3114 H 0.37439 0.57326 0.85706 0.0
C3115 C 0.42145 0.58997 0.98644 0.0
C3116 C 0.40392 0.55723 0.93413 0.0
H3117 H 0.41491 0.52764 0.88696 0.0
C3118 C 0.38288 0.56483 0.92742 0.0
C3119 C 0.41566 0.54378 0.91929 0.0
C3120 C 0.43869 0.53595 0.92508 0.0
C3121 C 0.37309 0.55895 0.90643 0.0
C3122 C 0.38475 0.54529 0.89172 0.0
C3123 C 0.40584 0.53785 0.89839 0.0
C3124 C 0.37612 0.53934 0.86879 0.0
C3125 C 0.35021 0.56702 0.90036 0.0
C3126 C 0.37458 0.51696 0.86222 0.0
C3127 C 0.37164 0.51125 0.83951 0.0
C3128 C 0.37018 0.52785 0.82307 0.0
C3129 C 0.36989 0.55018 0.82977 0.0
C3130 C 0.37282 0.55591 0.85249 0.0
H3131 H 0.34128 0.57193 0.91551 0.0
H3132 H 0.35132 0.58177 0.88937 0.0
H3133 H 0.34049 0.55406 0.89107 0.0
H3134 H 0.37722 0.50392 0.87449 0.0
H3135 H 0.37262 0.49395 0.83464 0.0
H3136 H 0.78509 0.32217 0.26066 0.0
H3137 H 0.77555 0.32356 0.30007 0.0
H3138 H 0.83852 0.2957 0.31956 0.0
H3139 H 0.84827 0.29417 0.27996 0.0
H3140 H 0.77649 0.2899 0.33744 0.0
H3141 H 0.83556 0.36061 0.3477 0.0
H3142 H 0.82528 0.35137 0.32038 0.0
H3143 H 0.84524 0.33511 0.33583 0.0
C3144 C 0.79676 0.31588 0.27326 0.0
C3145 C 0.81754 0.30829 0.26722 0.0
C3146 C 0.79124 0.31662 0.29576 0.0
C3147 C 0.80643 0.30997 0.31266 0.0
C3148 C 0.82664 0.30101 0.30668 0.0
H3149 H 0.78114 0.32822 0.45628 0.0
H3150 H 0.79467 0.3123 0.42158 0.0
C3151 C 0.83213 0.30005 0.28407 0.0
C3152 C 0.80183 0.31485 0.33636 0.0
H3153 H 0.81306 0.35299 0.37783 0.0
C3154 C 0.78474 0.30339 0.3465 0.0
C3155 C 0.8125 0.33267 0.34793 0.0
C3156 C 0.83061 0.34582 0.33749 0.0
C3157 C 0.77769 0.30967 0.36778 0.0
C3158 C 0.78789 0.32792 0.37895 0.0
C3159 C 0.80538 0.33896 0.36913 0.0
C3160 C 0.77941 0.33701 0.39996 0.0
C3161 C 0.75878 0.29749 0.37786 0.0
C3162 C 0.76647 0.35618 0.39918 0.0
C3163 C 0.75853 0.36519 0.4189 0.0
C3164 C 0.76351 0.35525 0.43981 0.0
C3165 C 0.7767 0.33611 0.44048 0.0
C3166 C 0.78452 0.32701 0.4207 0.0
H3167 H 0.75218 0.28399 0.36673 0.0
H3168 H 0.76428 0.2902 0.39422 0.0
H3169 H 0.74533 0.30929 0.38118 0.0
H3170 H 0.76247 0.36413 0.38326 0.0
H3171 H 0.74847 0.37994 0.4177 0.0
H3172 H 0.11751 0.46476 0.51372 0.0
H3173 H 0.12331 0.4752 0.47496 0.0
H3174 H 0.07061 0.43151 0.45234 0.0
H3175 H 0.065 0.42043 0.49121 0.0
H3176 H 0.10661 0.42511 0.42884 0.0
H3177 H 0.09033 0.51519 0.43202 0.0
H3178 H 0.1105 0.50711 0.45312 0.0
H3179 H 0.08279 0.49664 0.45419 0.0
C3180 C 0.10687 0.45757 0.50061 0.0
C3181 C 0.09076 0.44171 0.5057 0.0
C3182 C 0.11014 0.46371 0.47838 0.0
C3183 C 0.09717 0.45445 0.46069 0.0
C3184 C 0.08074 0.43899 0.46571 0.0
H3185 H 0.10757 0.46861 0.31496 0.0
H3186 H 0.09355 0.4621 0.35235 0.0
C3187 C 0.07753 0.4327 0.48797 0.0
C3188 C 0.10202 0.4596 0.43697 0.0
H3189 H 0.11075 0.50235 0.40071 0.0
C3190 C 0.10717 0.44198 0.42261 0.0
C3191 C 0.10276 0.48162 0.42877 0.0
C3192 C 0.09607 0.50118 0.44278 0.0
C3193 C 0.11382 0.44585 0.40063 0.0
C3194 C 0.11533 0.46788 0.3928 0.0
C3195 C 0.10972 0.48548 0.40688 0.0
C3196 C 0.12335 0.47287 0.3702 0.0
C3197 C 0.11987 0.42644 0.38609 0.0
C3198 C 0.14463 0.48138 0.36792 0.0
C3199 C 0.15274 0.48506 0.34658 0.0
C3200 C 0.1396 0.48051 0.32711 0.0
C3201 C 0.11808 0.47245 0.32954 0.0
C3202 C 0.11006 0.46861 0.35089 0.0
H3203 H 0.12018 0.41056 0.39551 0.0
H3204 H 0.1077 0.42487 0.37179 0.0
H3205 H 0.13626 0.42925 0.37901 0.0
H3206 H 0.15511 0.48478 0.38267 0.0
H3207 H 0.16934 0.49136 0.34535 0.0
H3208 H 0.34393 0.20496 0.73344 0.0
H3209 H 0.33818 0.20373 0.69271 0.0
H3210 H 0.27385 0.17502 0.70024 0.0
H3211 H 0.2796 0.17569 0.74102 0.0
H3212 H 0.30049 0.14932 0.67565 0.0
H3213 H 0.30173 0.23583 0.64422 0.0
H3214 H 0.32458 0.22917 0.66294 0.0
H3215 H 0.2972 0.22916 0.67324 0.0
C3216 C 0.32828 0.19896 0.72649 0.0
C3217 C 0.31234 0.1901 0.74047 0.0
C3218 C 0.32499 0.1984 0.70316 0.0
C3219 C 0.30558 0.18932 0.69349 0.0
C3220 C 0.28896 0.18206 0.70743 0.0
H3221 H 0.26158 0.17208 0.55645 0.0
H3222 H 0.26965 0.18581 0.59432 0.0
C3223 C 0.2923 0.18243 0.73073 0.0
C3224 C 0.30394 0.18428 0.6692 0.0
H3225 H 0.30522 0.2071 0.6169 0.0
C3226 C 0.30142 0.16197 0.6628 0.0
C3227 C 0.30523 0.20083 0.65255 0.0
C3228 C 0.30713 0.22512 0.65853 0.0
C3229 C 0.30003 0.15569 0.64016 0.0
C3230 C 0.3018 0.17215 0.62347 0.0
C3231 C 0.30427 0.19451 0.62981 0.0
C3232 C 0.29927 0.16647 0.59939 0.0
C3233 C 0.29603 0.13156 0.63434 0.0
C3234 C 0.31373 0.15166 0.58941 0.0
C3235 C 0.30913 0.14367 0.56767 0.0
C3236 C 0.29012 0.15061 0.55556 0.0
C3237 C 0.27645 0.1665 0.56519 0.0
C3238 C 0.28101 0.17438 0.58689 0.0
H3239 H 0.29017 0.12201 0.6489 0.0
H3240 H 0.28369 0.12982 0.6202 0.0
H3241 H 0.31162 0.124 0.62913 0.0
H3242 H 0.32812 0.14567 0.59875 0.0
H3243 H 0.32009 0.13161 0.56063 0.0
H3244 H 0.39395 0.46895 0.48948 0.0
H3245 H 0.38915 0.47787 0.52905 0.0
H3246 H 0.42358 0.41825 0.5486 0.0
H3247 H 0.42839 0.40905 0.50909 0.0
H3248 H 0.38306 0.42283 0.5684 0.0
H3249 H 0.43256 0.49991 0.57897 0.0
H3250 H 0.41328 0.50035 0.55535 0.0
H3251 H 0.43567 0.481 0.55572 0.0
C3252 C 0.40081 0.45785 0.50215 0.0
C3253 C 0.41154 0.43822 0.49596 0.0
C3254 C 0.39815 0.46307 0.52482 0.0
C3255 C 0.40619 0.44885 0.54184 0.0
C3256 C 0.41733 0.42953 0.53577 0.0
H3257 H 0.4004 0.47266 0.68749 0.0
H3258 H 0.41359 0.46476 0.64991 0.0
C3259 C 0.42009 0.42432 0.51312 0.0
C3260 C 0.40148 0.45324 0.56579 0.0
H3261 H 0.40786 0.49157 0.60808 0.0
C3262 C 0.38866 0.43777 0.57713 0.0
C3263 C 0.40894 0.47263 0.57727 0.0
C3264 C 0.42355 0.48935 0.56631 0.0
C3265 C 0.3825 0.44151 0.59931 0.0
C3266 C 0.38918 0.46132 0.61046 0.0
C3267 C 0.40262 0.47646 0.59945 0.0
C3268 C 0.3815 0.46692 0.63317 0.0
C3269 C 0.36875 0.42427 0.61066 0.0
C3270 C 0.35917 0.47109 0.63617 0.0
C3271 C 0.3516 0.47579 0.65752 0.0
C3272 C 0.3662 0.47644 0.67647 0.0
C3273 C 0.38868 0.4725 0.67335 0.0
C3274 C 0.39627 0.46792 0.65187 0.0
H3275 H 0.36938 0.40793 0.60202 0.0
H3276 H 0.37435 0.42217 0.62849 0.0
H3277 H 0.35137 0.42978 0.61034 0.0
H3278 H 0.34753 0.47066 0.62194 0.0
H3279 H 0.33421 0.47881 0.65913 0.0
H3280 H 0.58477 0.09784 0.51121 0.0
H3281 H 0.59788 0.0881 0.54909 0.0
H3282 H 0.60212 0.01942 0.52923 0.0
H3283 H 0.58961 0.0291 0.49101 0.0
H3284 H 0.58308 0.0614 0.58065 0.0
H3285 H 0.66376 0.03065 0.55419 0.0
H3286 H 0.64508 0.04548 0.53544 0.0
H3287 H 0.64103 0.01634 0.5405 0.0
C3288 C 0.58813 0.08058 0.51493 0.0
C3289 C 0.58629 0.06426 0.498 0.0
C3290 C 0.5958 0.07508 0.53659 0.0
C3291 C 0.60166 0.05316 0.54179 0.0
C3292 C 0.59844 0.03658 0.52536 0.0
H3293 H 0.62218 0.98519 0.66406 0.0
H3294 H 0.62098 0.99573 0.6244 0.0
C3295 C 0.591 0.04209 0.5036 0.0
C3296 C 0.611 0.04772 0.56445 0.0
H3297 H 0.65464 0.02306 0.59219 0.0
C3298 C 0.59884 0.05327 0.58317 0.0
C3299 C 0.63172 0.0373 0.56772 0.0
C3300 C 0.64627 0.0323 0.54841 0.0
C3301 C 0.60643 0.04797 0.60499 0.0
C3302 C 0.6267 0.03683 0.60816 0.0
C3303 C 0.63914 0.03165 0.58959 0.0
C3304 C 0.63383 0.02878 0.63061 0.0
C3305 C 0.59246 0.05366 0.62458 0.0
C3306 C 0.6427 0.0435 0.64693 0.0
C3307 C 0.64374 0.03734 0.6696 0.0
C3308 C 0.63567 0.01656 0.67597 0.0
C3309 C 0.62874 0.00119 0.65938 0.0
C3310 C 0.62798 0.00722 0.6368 0.0
H3311 H 0.57664 0.06147 0.61914 0.0
H3312 H 0.58889 0.03846 0.63428 0.0
H3313 H 0.6016 0.06531 0.63606 0.0
H3314 H 0.64715 0.06026 0.64236 0.0
H3315 H 0.64876 0.04953 0.68222 0.0
H3316 H 0.75316 0.72261 0.35005 0.0
H3317 H 0.71486 0.72951 0.35824 0.0
H3318 H 0.69569 0.66836 0.32504 0.0
H3319 H 0.73413 0.66103 0.317 0.0
H3320 H 0.67745 0.73358 0.33038 0.0
H3321 H 0.67053 0.66168 0.38766 0.0
H3322 H 0.69662 0.67182 0.37842 0.0
H3323 H 0.67952 0.65462 0.36018 0.0
C3324 C 0.74084 0.71063 0.34432 0.0
C3325 C 0.74683 0.69111 0.33303 0.0
C3326 C 0.71893 0.71463 0.34906 0.0
C3327 C 0.70252 0.69921 0.34272 0.0
C3328 C 0.7082 0.68022 0.33056 0.0
H3329 H 0.56359 0.68878 0.34451 0.0
H3330 H 0.60317 0.68317 0.34426 0.0
C3331 C 0.73017 0.67617 0.32577 0.0
C3332 C 0.67949 0.70306 0.34895 0.0
H3333 H 0.63735 0.68066 0.37776 0.0
C3334 C 0.66872 0.72214 0.3409 0.0
C3335 C 0.66824 0.68818 0.36287 0.0
C3336 C 0.67935 0.66803 0.37299 0.0
C3337 C 0.64669 0.72628 0.34561 0.0
C3338 C 0.63528 0.71112 0.35908 0.0
C3339 C 0.6462 0.6923 0.36756 0.0
C3340 C 0.6114 0.71335 0.3625 0.0
C3341 C 0.63553 0.74636 0.33537 0.0
C3342 C 0.60286 0.73171 0.3738 0.0
C3343 C 0.58008 0.73501 0.37402 0.0
C3344 C 0.56561 0.71999 0.36284 0.0
C3345 C 0.57428 0.70084 0.35301 0.0
C3346 C 0.59692 0.69755 0.35288 0.0
H3347 H 0.64546 0.75417 0.32224 0.0
H3348 H 0.61917 0.74179 0.32776 0.0
H3349 H 0.63298 0.75888 0.3487 0.0
H3350 H 0.61381 0.74388 0.38172 0.0
H3351 H 0.57392 0.74986 0.38184 0.0
H3352 H 0.90824 0.01316 0.91446 0.0
H3353 H 0.91676 0.05166 0.90501 0.0
H3354 H 0.97795 0.03088 0.87772 0.0
H3355 H 0.96954 0.99242 0.88678 0.0
H3356 H 0.95117 0.07858 0.91816 0.0
H3357 H 0.95046 0.06639 0.82589 0.0
H3358 H 0.93974 0.04594 0.84471 0.0
H3359 H 0.96884 0.04791 0.8408 0.0
C3360 C 0.92361 0.01676 0.90662 0.0
C3361 C 0.93811 0.99958 0.90127 0.0
C3362 C 0.92839 0.03879 0.9011 0.0
C3363 C 0.9477 0.04408 0.89008 0.0
C3364 C 0.96262 0.02712 0.88558 0.0
H3365 H 0.01606 0.1673 0.88635 0.0
H3366 H 0.0048 0.12835 0.88656 0.0
C3367 C 0.95786 0.00513 0.89101 0.0
C3368 C 0.95263 0.0674 0.88389 0.0
H3369 H 0.96598 0.10063 0.8399 0.0
C3370 C 0.95418 0.08341 0.90102 0.0
C3371 C 0.95626 0.07381 0.86144 0.0
C3372 C 0.95353 0.05767 0.84211 0.0
C3373 C 0.96011 0.10542 0.89648 0.0
C3374 C 0.96491 0.11153 0.87427 0.0
C3375 C 0.96254 0.0958 0.85694 0.0
C3376 C 0.97342 0.134 0.86931 0.0
C3377 C 0.96147 0.12197 0.91557 0.0
C3378 C 0.96009 0.14981 0.85816 0.0
C3379 C 0.96667 0.17217 0.85775 0.0
C3380 C 0.98655 0.17881 0.86861 0.0
C3381 C 1.00064 0.16257 0.87789 0.0
C3382 C 0.99418 0.14036 0.87814 0.0
H3383 H 0.95246 0.11612 0.93032 0.0
H3384 H 0.97897 0.12449 0.92098 0.0
H3385 H 0.95469 0.13825 0.91016 0.0
H3386 H 0.94402 0.14514 0.85118 0.0
H3387 H 0.95543 0.18443 0.85072 0.0
H3388 H 0.25376 0.78878 0.31502 0.0
H3389 H 0.29386 0.78662 0.31677 0.0
H3390 H 0.2982 0.85801 0.31714 0.0
H3391 H 0.25788 0.86037 0.31522 0.0
H3392 H 0.33043 0.80975 0.28969 0.0
H3393 H 0.32465 0.83229 0.3802 0.0
H3394 H 0.30139 0.8212 0.36402 0.0
H3395 H 0.31043 0.8491 0.35939 0.0
C3396 C 0.26323 0.80404 0.31488 0.0
C3397 C 0.2527 0.82476 0.31518 0.0
C3398 C 0.28613 0.80276 0.31581 0.0
C3399 C 0.2989 0.82214 0.31727 0.0
C3400 C 0.28854 0.84288 0.31603 0.0
H3401 H 0.43402 0.82495 0.37265 0.0
H3402 H 0.3977 0.8363 0.35794 0.0
C3403 C 0.26554 0.8442 0.31484 0.0
C3404 C 0.32268 0.82033 0.32299 0.0
H3405 H 0.35909 0.82167 0.36797 0.0
C3406 C 0.33685 0.81263 0.3067 0.0
C3407 C 0.33089 0.82411 0.3452 0.0
C3408 C 0.31615 0.83205 0.36335 0.0
C3409 C 0.35911 0.80832 0.31217 0.0
C3410 C 0.36712 0.81113 0.33468 0.0
C3411 C 0.353 0.81948 0.35075 0.0
C3412 C 0.38971 0.80462 0.34232 0.0
C3413 C 0.37375 0.80089 0.29372 0.0
C3414 C 0.39726 0.78297 0.3387 0.0
C3415 C 0.41807 0.77652 0.34692 0.0
C3416 C 0.43159 0.79146 0.35933 0.0
C3417 C 0.42392 0.81303 0.36324 0.0
C3418 C 0.40322 0.81956 0.35475 0.0
H3419 H 0.36763 0.80704 0.27707 0.0
H3420 H 0.39093 0.80676 0.29676 0.0
H3421 H 0.37377 0.78249 0.29293 0.0
H3422 H 0.3869 0.77086 0.32989 0.0
H3423 H 0.42337 0.75968 0.34395 0.0
H3424 H 0.0981 0.49587 0.91101 0.0
H3425 H 0.08762 0.45686 0.90658 0.0
H3426 H 0.0241 0.47612 0.87886 0.0
H3427 H 0.03428 0.51523 0.88332 0.0
H3428 H 0.02344 0.44147 0.91259 0.0
H3429 H 0.08164 0.42463 0.84486 0.0
H3430 H 0.09337 0.43708 0.87008 0.0
H3431 H 0.07402 0.4524 0.85278 0.0
C3432 C 0.0819 0.49188 0.90392 0.0
C3433 C 0.0671 0.50877 0.89736 0.0
C3434 C 0.07596 0.46955 0.9014 0.0
C3435 C 0.05517 0.46365 0.89224 0.0
C3436 C 0.04024 0.48037 0.88596 0.0
H3437 H 0.0063 0.34525 0.8298 0.0
H3438 H 0.01663 0.38262 0.84173 0.0
C3439 C 0.04616 0.50272 0.88842 0.0
C3440 C 0.04908 0.44003 0.88873 0.0
H3441 H 0.06086 0.39438 0.85745 0.0
C3442 C 0.03167 0.43109 0.90065 0.0
C3443 C 0.05981 0.42664 0.87305 0.0
C3444 C 0.07815 0.43563 0.85929 0.0
C3445 C 0.02459 0.40907 0.89712 0.0
C3446 C 0.03527 0.39576 0.88135 0.0
C3447 C 0.05283 0.40464 0.86965 0.0
C3448 C 0.02748 0.37313 0.87532 0.0
C3449 C 0.00533 0.40037 0.90968 0.0
C3450 C 0.02991 0.35539 0.89042 0.0
C3451 C 0.02402 0.33379 0.88362 0.0
C3452 C 0.01569 0.32967 0.86161 0.0
C3453 C 0.01276 0.3477 0.84684 0.0
C3454 C 0.01865 0.36913 0.85361 0.0
H3455 H 0.99699 0.41369 0.91901 0.0
H3456 H 0.99317 0.39231 0.89786 0.0
H3457 H 0.01117 0.38764 0.92191 0.0
H3458 H 0.03693 0.35814 0.9072 0.0
H3459 H 0.02662 0.32031 0.89536 0.0
H3460 H 0.75748 0.29015 0.15808 0.0
H3461 H 0.71824 0.28906 0.14888 0.0
H3462 H 0.71071 0.35338 0.17941 0.0
H3463 H 0.75039 0.35472 0.18887 0.0
H3464 H 0.67875 0.32079 0.19088 0.0
H3465 H 0.6873 0.32563 0.09869 0.0
H3466 H 0.70378 0.30435 0.11187 0.0
H3467 H 0.70933 0.333 0.11858 0.0
C3468 C 0.74758 0.30414 0.16292 0.0
C3469 C 0.75717 0.32268 0.17401 0.0
C3470 C 0.72514 0.3035 0.15748 0.0
C3471 C 0.71174 0.3214 0.16288 0.0
C3472 C 0.72093 0.33955 0.17482 0.0
H3473 H 0.56926 0.33025 0.14987 0.0
H3474 H 0.60805 0.34088 0.15194 0.0
C3475 C 0.74353 0.34023 0.18032 0.0
C3476 C 0.68803 0.32057 0.15642 0.0
H3477 H 0.65223 0.31378 0.11122 0.0
C3478 C 0.67287 0.31962 0.17348 0.0
C3479 C 0.68052 0.31891 0.13366 0.0
C3480 C 0.69606 0.32073 0.11462 0.0
C3481 C 0.65042 0.3161 0.16846 0.0
C3482 C 0.64295 0.31395 0.14571 0.0
C3483 C 0.65805 0.31542 0.12861 0.0
C3484 C 0.61957 0.30937 0.13968 0.0
C3485 C 0.63501 0.3138 0.18759 0.0
C3486 C 0.61317 0.28873 0.13047 0.0
C3487 C 0.59093 0.28267 0.12901 0.0
C3488 C 0.57493 0.29718 0.1369 0.0
C3489 C 0.58129 0.31861 0.14402 0.0
C3490 C 0.60343 0.32469 0.1453 0.0
H3491 H 0.64402 0.31099 0.20392 0.0
H3492 H 0.62533 0.32925 0.18906 0.0
H3493 H 0.62331 0.29983 0.18446 0.0
H3494 H 0.62545 0.27678 0.12583 0.0
H3495 H 0.58648 0.26607 0.1234 0.0
H3496 H 0.53479 0.99383 0.11004 0.0
H3497 H 0.52736 0.03327 0.11547 0.0
H3498 H 0.58893 0.05001 0.08628 0.0
H3499 H 0.5966 0.0106 0.08079 0.0
H3500 H 0.58256 0.07069 0.12804 0.0
H3501 H 0.51005 0.08226 0.06996 0.0
H3502 H 0.50773 0.05928 0.08889 0.0
H3503 H 0.52828 0.05882 0.06802 0.0
C3504 C 0.54667 0.00585 0.10447 0.0
C3505 C 0.56633 0.99888 0.09495 0.0
C3506 C 0.54231 0.02846 0.1075 0.0
C3507 C 0.55747 0.04466 0.10109 0.0
C3508 C 0.57692 0.03783 0.09126 0.0
H3509 H 0.53947 0.18952 0.10702 0.0
H3510 H 0.54694 0.15176 0.094 0.0
C3511 C 0.58125 0.01523 0.08809 0.0
C3512 C 0.55371 0.06859 0.10603 0.0
H3513 H 0.518 0.11148 0.09623 0.0
C3514 C 0.56854 0.07964 0.12093 0.0
C3515 C 0.53552 0.08038 0.09662 0.0
C3516 C 0.51956 0.06968 0.07982 0.0
C3517 C 0.56529 0.10186 0.12723 0.0
C3518 C 0.54666 0.11338 0.1185 0.0
C3519 C 0.5322 0.1026 0.10303 0.0
C3520 C 0.54154 0.13629 0.12604 0.0
C3521 C 0.58178 0.11286 0.14329 0.0
C3522 C 0.53574 0.14013 0.14827 0.0
C3523 C 0.53123 0.16161 0.1557 0.0
C3524 C 0.5324 0.17989 0.14109 0.0
C3525 C 0.53811 0.17595 0.11872 0.0
C3526 C 0.54248 0.15434 0.11124 0.0
H3527 H 0.59755 0.10367 0.14444 0.0
H3528 H 0.58512 0.13018 0.13805 0.0
H3529 H 0.57497 0.11342 0.1603 0.0
H3530 H 0.53469 0.12644 0.15993 0.0
H3531 H 0.52685 0.16384 0.17301 0.0
H3532 H 0.27231 0.15643 0.18555 0.0
H3533 H 0.31236 0.16159 0.18652 0.0
H3534 H 0.30553 0.21132 0.13487 0.0
H3535 H 0.26585 0.20677 0.13414 0.0
H3536 H 0.34158 0.15547 0.15375 0.0
H3537 H 0.34439 0.24321 0.18073 0.0
H3538 H 0.31987 0.22643 0.18228 0.0
H3539 H 0.32661 0.23954 0.15627 0.0
C3540 C 0.27933 0.16864 0.17458 0.0
C3541 C 0.26575 0.1813 0.15991 0.0
C3542 C 0.30223 0.17153 0.17512 0.0
C3543 C 0.31194 0.18716 0.16107 0.0
C3544 C 0.29843 0.19962 0.14633 0.0
H3545 H 0.44085 0.19438 0.10762 0.0
H3546 H 0.40327 0.18465 0.11687 0.0
C3547 C 0.27565 0.19688 0.14586 0.0
C3548 C 0.3362 0.19002 0.16097 0.0
H3549 H 0.37641 0.22969 0.16269 0.0
C3550 C 0.34927 0.17163 0.15603 0.0
C3551 C 0.34633 0.21101 0.16437 0.0
C3552 C 0.33358 0.2311 0.17145 0.0
C3553 C 0.37203 0.17389 0.15334 0.0
C3554 C 0.38185 0.19521 0.15506 0.0
C3555 C 0.36891 0.21337 0.16104 0.0
C3556 C 0.40531 0.19935 0.15014 0.0
C3557 C 0.38525 0.15337 0.14876 0.0
C3558 C 0.41896 0.21121 0.16553 0.0
C3559 C 0.4403 0.2172 0.16006 0.0
C3560 C 0.44857 0.21137 0.13914 0.0
C3561 C 0.43511 0.19895 0.12398 0.0
C3562 C 0.41362 0.19322 0.12933 0.0
H3563 H 0.37736 0.13832 0.15564 0.0
H3564 H 0.38616 0.15103 0.13033 0.0
H3565 H 0.40224 0.15476 0.15615 0.0
H3566 H 0.41296 0.21622 0.18167 0.0
H3567 H 0.45017 0.22671 0.17213 0.0
H3568 H 0.41517 0.49491 0.08298 0.0
H3569 H 0.42367 0.45641 0.09262 0.0
H3570 H 0.48439 0.47752 0.12597 0.0
H3571 H 0.47593 0.51607 0.11673 0.0
H3572 H 0.45806 0.43058 0.08144 0.0
H3573 H 0.45761 0.43931 0.17407 0.0
H3574 H 0.4468 0.46035 0.15522 0.0
H3575 H 0.47594 0.45844 0.16121 0.0
C3576 C 0.43038 0.49142 0.09232 0.0
C3577 C 0.4448 0.50874 0.09911 0.0
C3578 C 0.43517 0.46935 0.0979 0.0
C3579 C 0.45443 0.46405 0.11049 0.0
C3580 C 0.46913 0.4812 0.1168 0.0
H3581 H 0.52169 0.33991 0.11554 0.0
H3582 H 0.51088 0.37889 0.11516 0.0
C3583 C 0.46435 0.50327 0.11126 0.0
C3584 C 0.45955 0.44052 0.11622 0.0
H3585 H 0.47254 0.40555 0.15994 0.0
C3586 C 0.46103 0.42512 0.09862 0.0
C3587 C 0.46317 0.43323 0.13868 0.0
C3588 C 0.46059 0.44864 0.15841 0.0
C3589 C 0.46674 0.40292 0.10278 0.0
C3590 C 0.47139 0.39589 0.12512 0.0
C3591 C 0.46919 0.41103 0.14283 0.0
C3592 C 0.47948 0.37309 0.12991 0.0
C3593 C 0.46794 0.38711 0.08315 0.0
C3594 C 0.46599 0.35705 0.13966 0.0
C3595 C 0.47231 0.33463 0.14016 0.0
C3596 C 0.49215 0.32812 0.13085 0.0
C3597 C 0.50633 0.34451 0.12285 0.0
C3598 C 0.50011 0.36677 0.12249 0.0
H3599 H 0.45905 0.39357 0.06791 0.0
H3600 H 0.48541 0.3847 0.0791 0.0
H3601 H 0.46092 0.37067 0.08735 0.0
H3602 H 0.45001 0.36163 0.14554 0.0
H3603 H 0.46098 0.32226 0.14612 0.0
H3604 H 0.32472 0.73192 0.71628 0.0
H3605 H 0.32293 0.69153 0.7138 0.0
H3606 H 0.30582 0.69567 0.64304 0.0
H3607 H 0.30744 0.73628 0.64527 0.0
H3608 H 0.28438 0.65799 0.67973 0.0
H3609 H 0.37429 0.66574 0.66696 0.0
H3610 H 0.3624 0.6841 0.68706 0.0
H3611 H 0.35496 0.68679 0.65777 0.0
C3612 C 0.32004 0.72432 0.70028 0.0
C3613 C 0.31655 0.73728 0.6809 0.0
C3614 C 0.31891 0.70126 0.69894 0.0
C3615 C 0.31433 0.6908 0.67824 0.0
C3616 C 0.30924 0.70359 0.65916 0.0
H3617 H 0.36872 0.5578 0.67169 0.0
H3618 H 0.35285 0.59249 0.65752 0.0
C3619 C 0.31022 0.72675 0.6605 0.0
C3620 C 0.31837 0.66683 0.67624 0.0
H3621 H 0.36086 0.63038 0.67628 0.0
C3622 C 0.301 0.65179 0.67853 0.0
C3623 C 0.34001 0.65897 0.6743 0.0
C3624 C 0.35907 0.67465 0.67125 0.0
C3625 C 0.30498 0.6289 0.68018 0.0
C3626 C 0.32693 0.62116 0.6801 0.0
C3627 C 0.34404 0.63624 0.67638 0.0
C3628 C 0.33306 0.59818 0.68641 0.0
C3629 C 0.28569 0.61336 0.68234 0.0
C3630 C 0.32691 0.58962 0.70715 0.0
C3631 C 0.33578 0.56975 0.71516 0.0
C3632 C 0.35136 0.55826 0.70281 0.0
C3633 C 0.35691 0.56638 0.68168 0.0
C3634 C 0.34777 0.58614 0.67352 0.0
H3635 H 0.27082 0.61995 0.67329 0.0
H3636 H 0.28922 0.59659 0.67565 0.0
H3637 H 0.28183 0.61186 0.70033 0.0
H3638 H 0.31618 0.59888 0.71778 0.0
H3639 H 0.33123 0.56402 0.73157 0.0
H3640 H 0.98951 0.42845 0.59661 0.0
H3641 H 0.95071 0.41814 0.59191 0.0
H3642 H 0.96491 0.3794 0.53331 0.0
H3643 H 0.00378 0.38943 0.53788 0.0
H3644 H 0.92015 0.42348 0.55546 0.0
H3645 H 0.9346 0.33435 0.5741 0.0
H3646 H 0.95508 0.35553 0.58017 0.0
H3647 H 0.95037 0.34561 0.5519 0.0
C3648 C 0.98441 0.41798 0.58252 0.0
C3649 C 0.99993 0.40967 0.56774 0.0
C3650 C 0.9622 0.41201 0.57993 0.0
C3651 C 0.95502 0.39753 0.56261 0.0
C3652 C 0.97019 0.39013 0.54714 0.0
H3653 H 0.82487 0.34853 0.52088 0.0
H3654 H 0.86489 0.35152 0.52719 0.0
C3655 C 0.9924 0.39612 0.54966 0.0
C3656 C 0.93166 0.39018 0.56084 0.0
H3657 H 0.89811 0.34457 0.56343 0.0
C3658 C 0.91534 0.40625 0.55726 0.0
C3659 C 0.92541 0.36764 0.5631 0.0
C3660 C 0.94223 0.34975 0.56772 0.0
C3661 C 0.89297 0.40042 0.55567 0.0
C3662 C 0.88667 0.37793 0.55826 0.0
C3663 C 0.90298 0.36178 0.56159 0.0
C3664 C 0.86312 0.37123 0.5575 0.0
C3665 C 0.87626 0.41839 0.55086 0.0
C3666 C 0.84897 0.37986 0.57335 0.0
C3667 C 0.82621 0.37818 0.56978 0.0
C3668 C 0.8172 0.36758 0.55044 0.0
C3669 C 0.83135 0.35658 0.53604 0.0
C3670 C 0.85423 0.35848 0.53951 0.0
H3671 H 0.88393 0.43348 0.54381 0.0
H3672 H 0.86307 0.41246 0.53887 0.0
H3673 H 0.86857 0.42318 0.56674 0.0
H3674 H 0.85551 0.38935 0.5876 0.0
H3675 H 0.81567 0.3868 0.58113 0.0
H3676 H 0.67153 0.76614 0.62387 0.0
H3677 H 0.65911 0.80447 0.62902 0.0
H3678 H 0.69043 0.80596 0.69518 0.0
H3679 H 0.70255 0.76762 0.69034 0.0
H3680 H 0.63241 0.81423 0.67449 0.0
H3681 H 0.70517 0.86703 0.65727 0.0
H3682 H 0.7003 0.84063 0.64339 0.0
H3683 H 0.70958 0.84142 0.67231 0.0
C3684 C 0.67654 0.77496 0.63913 0.0
C3685 C 0.68816 0.764 0.65666 0.0
C3686 C 0.66918 0.79672 0.64215 0.0
C3687 C 0.67374 0.80787 0.66254 0.0
C3688 C 0.68677 0.79757 0.67935 0.0
H3689 H 0.62795 0.91799 0.73824 0.0
H3690 H 0.63195 0.8803 0.72323 0.0
C3691 C 0.69384 0.77577 0.67648 0.0
C3692 C 0.66342 0.82945 0.66728 0.0
H3693 H 0.67495 0.88455 0.67341 0.0
C3694 C 0.64155 0.8297 0.67403 0.0
C3695 C 0.67547 0.84944 0.66671 0.0
C3696 C 0.69893 0.84985 0.65945 0.0
C3697 C 0.63158 0.84952 0.68074 0.0
C3698 C 0.64385 0.86947 0.68071 0.0
C3699 C 0.66554 0.86922 0.6734 0.0
C3700 C 0.63505 0.89085 0.68877 0.0
C3701 C 0.60809 0.84903 0.68788 0.0
C3702 C 0.63427 0.90909 0.67423 0.0
C3703 C 0.63198 0.93049 0.68276 0.0
C3704 C 0.63046 0.93403 0.70599 0.0
C3705 C 0.62873 0.91566 0.72024 0.0
C3706 C 0.63116 0.89413 0.71167 0.0
H3707 H 0.59942 0.83364 0.68215 0.0
H3708 H 0.60791 0.84972 0.7065 0.0
H3709 H 0.59893 0.86361 0.68117 0.0
H3710 H 0.6372 0.90693 0.65653 0.0
H3711 H 0.6335 0.94441 0.67146 0.0
H3712 H 0.01811 0.092 0.60522 0.0
H3713 H 0.05639 0.10092 0.59662 0.0
H3714 H 0.03495 0.12264 0.53051 0.0
H3715 H 0.99713 0.11396 0.53876 0.0
H3716 H 0.08271 0.08535 0.5622 0.0
H3717 H 0.07087 0.17594 0.55409 0.0
H3718 H 0.05125 0.1581 0.56726 0.0
H3719 H 0.05123 0.16034 0.53713 0.0
C3720 C 0.02157 0.09856 0.58882 0.0
C3721 C 0.00437 0.1024 0.57281 0.0
C3722 C 0.04345 0.10377 0.58397 0.0
C3723 C 0.0485 0.11306 0.56312 0.0
C3724 C 0.03146 0.11616 0.54694 0.0
H3725 H 0.16241 0.11124 0.48576 0.0
H3726 H 0.12587 0.11076 0.50131 0.0
C3727 C 0.00975 0.11097 0.5517 0.0
C3728 C 0.07152 0.11889 0.55762 0.0
H3729 H 0.10301 0.16099 0.53725 0.0
C3730 C 0.08723 0.10197 0.55711 0.0
C3731 C 0.0776 0.14065 0.5512 0.0
C3732 C 0.06191 0.15985 0.55265 0.0
C3733 C 0.10836 0.10592 0.54917 0.0
C3734 C 0.1139 0.12731 0.54129 0.0
C3735 C 0.09867 0.14455 0.54299 0.0
C3736 C 0.13494 0.1314 0.52999 0.0
C3737 C 0.12449 0.087 0.54884 0.0
C3738 C 0.15183 0.14448 0.5401 0.0
C3739 C 0.17282 0.14506 0.53097 0.0
C3740 C 0.17706 0.13255 0.51166 0.0
C3741 C 0.15957 0.12112 0.50061 0.0
C3742 C 0.13874 0.12063 0.50961 0.0
H3743 H 0.12 0.07357 0.56057 0.0
H3744 H 0.12452 0.07987 0.53163 0.0
H3745 H 0.14141 0.09285 0.55341 0.0
H3746 H 0.14919 0.15306 0.55577 0.0
H3747 H 0.18609 0.15369 0.54003 0.0
H3748 H 0.33815 0.26253 0.78895 0.0
H3749 H 0.34796 0.3017 0.78757 0.0
H3750 H 0.34386 0.30645 0.85958 0.0
H3751 H 0.3342 0.26684 0.86116 0.0
H3752 H 0.3263 0.33961 0.80238 0.0
H3753 H 0.40743 0.32747 0.84711 0.0
H3754 H 0.39124 0.30459 0.83571 0.0
H3755 H 0.38355 0.31793 0.8612 0.0
C3756 C 0.33903 0.27195 0.80449 0.0
C3757 C 0.3356 0.26161 0.82519 0.0
C3758 C 0.34468 0.29431 0.80367 0.0
C3759 C 0.34712 0.30676 0.82351 0.0
C3760 C 0.34247 0.29691 0.84414 0.0
H3761 H 0.36825 0.44702 0.83068 0.0
H3762 H 0.36787 0.40819 0.8422 0.0
C3763 C 0.33667 0.27442 0.84498 0.0
C3764 C 0.35497 0.32992 0.82218 0.0
H3765 H 0.3992 0.36369 0.83433 0.0
C3766 C 0.34217 0.34491 0.80948 0.0
C3767 C 0.37579 0.33664 0.83133 0.0
C3768 C 0.39045 0.32084 0.84449 0.0
C3769 C 0.34968 0.36645 0.80549 0.0
C3770 C 0.37059 0.37307 0.81433 0.0
C3771 C 0.38329 0.35833 0.82744 0.0
C3772 C 0.37871 0.39573 0.81044 0.0
C3773 C 0.33526 0.38205 0.79173 0.0
C3774 C 0.38653 0.40148 0.78936 0.0
C3775 C 0.3869 0.42372 0.78275 0.0
C3776 C 0.3791 0.44017 0.79711 0.0
C3777 C 0.37409 0.43454 0.81923 0.0
C3778 C 0.37392 0.4124 0.82587 0.0
H3779 H 0.31869 0.37492 0.78774 0.0
H3780 H 0.3333 0.39795 0.80089 0.0
H3781 H 0.34319 0.38583 0.7757 0.0
H3782 H 0.39026 0.3887 0.77728 0.0
H3783 H 0.39086 0.42765 0.76563 0.0
H3784 H 0.49341 0.39746 0.47023 0.0
H3785 H 0.53232 0.39237 0.48082 0.0
H3786 H 0.55017 0.41542 0.41546 0.0
H3787 H 0.51154 0.42139 0.40514 0.0
H3788 H 0.55995 0.36503 0.46384 0.0
H3789 H 0.59379 0.44938 0.45329 0.0
H3790 H 0.56461 0.44397 0.45321 0.0
H3791 H 0.57966 0.43996 0.42804 0.0
C3792 C 0.50565 0.40182 0.45827 0.0
C3793 C 0.49932 0.40993 0.43688 0.0
C3794 C 0.52791 0.39888 0.46432 0.0
C3795 C 0.54431 0.40382 0.44908 0.0
C3796 C 0.53799 0.41212 0.42781 0.0
H3797 H 0.672 0.33951 0.45489 0.0
H3798 H 0.6349 0.3522 0.44439 0.0
C3799 C 0.5158 0.41539 0.42187 0.0
C3800 C 0.56778 0.39863 0.45473 0.0
H3801 H 0.62003 0.41971 0.45449 0.0
C3802 C 0.57304 0.37709 0.46199 0.0
C3803 C 0.58494 0.41437 0.45262 0.0
C3804 C 0.58044 0.43826 0.4466 0.0
C3805 C 0.59488 0.37073 0.46677 0.0
C3806 C 0.61213 0.38608 0.46338 0.0
C3807 C 0.60688 0.40779 0.45664 0.0
C3808 C 0.63564 0.38005 0.46748 0.0
C3809 C 0.59911 0.34773 0.47589 0.0
C3810 C 0.64901 0.39237 0.48276 0.0
C3811 C 0.67044 0.38546 0.48836 0.0
C3812 C 0.67887 0.36601 0.4789 0.0
C3813 C 0.6659 0.35442 0.46266 0.0
C3814 C 0.64461 0.36154 0.4568 0.0
H3815 H 0.58437 0.34082 0.48386 0.0
H3816 H 0.60319 0.3365 0.46187 0.0
H3817 H 0.61303 0.34773 0.4885 0.0
H3818 H 0.64256 0.40681 0.49109 0.0
H3819 H 0.67992 0.39469 0.50103 0.0
H3820 H 0.6491 0.2402 0.80462 0.0
H3821 H 0.65163 0.20034 0.80017 0.0
H3822 H 0.70727 0.19892 0.84727 0.0
H3823 H 0.70459 0.2393 0.85232 0.0
H3824 H 0.68541 0.17549 0.78498 0.0
H3825 H 0.66605 0.15214 0.87245 0.0
H3826 H 0.6619 0.17987 0.86184 0.0
H3827 H 0.68915 0.17038 0.86914 0.0
C3828 C 0.66194 0.23158 0.81413 0.0
C3829 C 0.67662 0.24307 0.82892 0.0
C3830 C 0.66337 0.20869 0.81149 0.0
C3831 C 0.67951 0.1966 0.82349 0.0
C3832 C 0.69445 0.2079 0.83811 0.0
H3833 H 0.68172 0.0568 0.77867 0.0
H3834 H 0.69599 0.09323 0.79037 0.0
C3835 C 0.69295 0.23097 0.84089 0.0
C3836 C 0.68016 0.17219 0.82033 0.0
H3837 H 0.66869 0.12327 0.84621 0.0
C3838 C 0.6821 0.16398 0.79841 0.0
C3839 C 0.67575 0.15729 0.8379 0.0
C3840 C 0.67293 0.16526 0.86166 0.0
C3841 C 0.67842 0.1415 0.79328 0.0
C3842 C 0.67333 0.12666 0.81073 0.0
C3843 C 0.67263 0.13467 0.83288 0.0
C3844 C 0.66611 0.10349 0.80594 0.0
C3845 C 0.67855 0.13424 0.76898 0.0
C3846 C 0.64501 0.09668 0.81179 0.0
C3847 C 0.63698 0.07574 0.80551 0.0
C3848 C 0.64983 0.0612 0.79306 0.0
C3849 C 0.6713 0.0677 0.78797 0.0
C3850 C 0.67945 0.08858 0.79456 0.0
H3851 H 0.67797 0.14858 0.75729 0.0
H3852 H 0.69387 0.12494 0.76608 0.0
H3853 H 0.66434 0.12319 0.7647 0.0
H3854 H 0.63442 0.10787 0.82061 0.0
H3855 H 0.6204 0.07127 0.80977 0.0
H3856 H 0.50392 0.10092 0.46334 0.0
H3857 H 0.46497 0.10475 0.47007 0.0
H3858 H 0.44911 0.09023 0.40037 0.0
H3859 H 0.4884 0.08669 0.39327 0.0
H3860 H 0.42793 0.12701 0.41468 0.0
H3861 H 0.4163 0.0596 0.47578 0.0
H3862 H 0.43875 0.0775 0.48428 0.0
H3863 H 0.44023 0.06135 0.45889 0.0
C3864 C 0.49224 0.09823 0.44939 0.0
C3865 C 0.49947 0.09349 0.4277 0.0
C3866 C 0.46984 0.10027 0.45337 0.0
C3867 C 0.45397 0.09745 0.43585 0.0
C3868 C 0.46102 0.09233 0.41422 0.0
H3869 H 0.31233 0.10368 0.46258 0.0
H3870 H 0.34847 0.09042 0.45174 0.0
C3871 C 0.48351 0.09025 0.4102 0.0
C3872 C 0.43028 0.10157 0.43995 0.0
H3873 H 0.389 0.08846 0.47506 0.0
C3874 C 0.41935 0.11835 0.42768 0.0
C3875 C 0.41886 0.09013 0.4567 0.0
C3876 C 0.42907 0.07098 0.4695 0.0
C3877 C 0.39778 0.12467 0.43239 0.0
C3878 C 0.38691 0.11424 0.45016 0.0
C3879 C 0.39741 0.09672 0.46169 0.0
C3880 C 0.36503 0.1219 0.45749 0.0
C3881 C 0.38689 0.14257 0.41832 0.0
C3882 C 0.36237 0.1438 0.46494 0.0
C3883 C 0.3418 0.15141 0.47117 0.0
C3884 C 0.3233 0.13724 0.47031 0.0
C3885 C 0.32614 0.11506 0.46352 0.0
C3886 C 0.34681 0.10746 0.45724 0.0
H3887 H 0.39431 0.14394 0.40162 0.0
H3888 H 0.36898 0.13935 0.41574 0.0
H3889 H 0.38911 0.15877 0.42703 0.0
H3890 H 0.37626 0.15512 0.46585 0.0
H3891 H 0.34039 0.16853 0.47648 0.0
H3892 H 0.63055 0.33939 0.74845 0.0
H3893 H 0.63295 0.35072 0.70901 0.0
H3894 H 0.69031 0.30978 0.70279 0.0
H3895 H 0.68832 0.299 0.74223 0.0
H3896 H 0.67605 0.37239 0.69804 0.0
H3897 H 0.65235 0.302 0.64167 0.0
H3898 H 0.64134 0.30557 0.66923 0.0
H3899 H 0.66849 0.29461 0.66646 0.0
C3900 C 0.64298 0.33198 0.73828 0.0
C3901 C 0.65911 0.31811 0.74815 0.0
C3902 C 0.64445 0.33862 0.71587 0.0
C3903 C 0.66174 0.33099 0.70303 0.0
C3904 C 0.67667 0.31558 0.71235 0.0
H3905 H 0.75396 0.35818 0.61179 0.0
H3906 H 0.73045 0.3565 0.64411 0.0
C3907 C 0.67548 0.30935 0.73481 0.0
C3908 C 0.66678 0.34169 0.68152 0.0
H3909 H 0.6768 0.3293 0.62698 0.0
C3910 C 0.67562 0.36326 0.6823 0.0
C3911 C 0.66625 0.32971 0.66111 0.0
C3912 C 0.65643 0.30673 0.6594 0.0
C3913 C 0.68553 0.37246 0.66355 0.0
C3914 C 0.6864 0.35982 0.64365 0.0
C3915 C 0.67605 0.33896 0.64233 0.0
C3916 C 0.70089 0.36615 0.62539 0.0
C3917 C 0.69617 0.39505 0.66545 0.0
C3918 C 0.69215 0.37312 0.60446 0.0
C3919 C 0.70569 0.37458 0.58603 0.0
C3920 C 0.72794 0.36846 0.58828 0.0
C3921 C 0.73689 0.36303 0.60964 0.0
C3922 C 0.72348 0.36202 0.62808 0.0
H3923 H 0.69048 0.40447 0.68019 0.0
H3924 H 0.71427 0.39308 0.66734 0.0
H3925 H 0.6926 0.40482 0.64996 0.0
H3926 H 0.6747 0.37624 0.60212 0.0
H3927 H 0.69834 0.37858 0.56969 0.0
H3928 H 0.65792 0.69158 0.74875 0.0
H3929 H 0.66062 0.6797 0.78799 0.0
H3930 H 0.72854 0.66214 0.78042 0.0
H3931 H 0.72602 0.67379 0.74121 0.0
H3932 H 0.70228 0.62762 0.79745 0.0
H3933 H 0.69236 0.70692 0.84384 0.0
H3934 H 0.67167 0.70141 0.82216 0.0
H3935 H 0.69966 0.70598 0.81475 0.0
C3936 C 0.67361 0.68579 0.75559 0.0
C3937 C 0.69172 0.68354 0.74182 0.0
C3938 C 0.67509 0.67893 0.778 0.0
C3939 C 0.69476 0.66998 0.78701 0.0
C3940 C 0.71319 0.66888 0.77369 0.0
H3941 H 0.74345 0.61885 0.91282 0.0
H3942 H 0.73539 0.62228 0.87243 0.0
C3943 C 0.71172 0.67567 0.75133 0.0
C3944 C 0.69583 0.6605 0.80986 0.0
H3945 H 0.69241 0.67402 0.86516 0.0
C3946 C 0.7001 0.63772 0.81231 0.0
C3947 C 0.69292 0.67373 0.8291 0.0
C3948 C 0.68908 0.6984 0.82746 0.0
C3949 C 0.70147 0.62778 0.8336 0.0
C3950 C 0.69872 0.64107 0.85284 0.0
C3951 C 0.69427 0.66381 0.85033 0.0
C3952 C 0.70159 0.63239 0.87596 0.0
C3953 C 0.70564 0.60319 0.83531 0.0
C3954 C 0.68496 0.63578 0.89122 0.0
C3955 C 0.68961 0.63408 0.91424 0.0
C3956 C 0.71096 0.62889 0.9223 0.0
C3957 C 0.72683 0.62275 0.907 0.0
C3958 C 0.72223 0.62473 0.88389 0.0
H3959 H 0.70092 0.59445 0.81937 0.0
H3960 H 0.72345 0.60041 0.83887 0.0
H3961 H 0.69644 0.59572 0.84917 0.0
H3962 H 0.6689 0.64158 0.88542 0.0
H3963 H 0.67706 0.63874 0.92575 0.0
H3964 H 0.91604 0.10616 0.49223 0.0
H3965 H 0.90369 0.09775 0.45355 0.0
H3966 H 0.9102 0.02778 0.46692 0.0
H3967 H 0.92212 0.03597 0.50572 0.0
H3968 H 0.92147 0.07544 0.41881 0.0
H3969 H 0.8464 0.03189 0.44497 0.0
H3970 H 0.86345 0.0483 0.46421 0.0
H3971 H 0.87108 0.02032 0.45741 0.0
C3972 C 0.91526 0.08898 0.48685 0.0
C3973 C 0.91991 0.07172 0.50215 0.0
C3974 C 0.90802 0.08421 0.46476 0.0
C3975 C 0.90535 0.06213 0.45758 0.0
C3976 C 0.91143 0.04492 0.47234 0.0
H3977 H 0.88512 0.99162 0.33621 0.0
H3978 H 0.88668 0.00394 0.37546 0.0
C3979 C 0.9185 0.04965 0.49445 0.0
C3980 C 0.89606 0.05701 0.43472 0.0
H3981 H 0.85571 0.02723 0.40649 0.0
C3982 C 0.90691 0.06518 0.4161 0.0
C3983 C 0.8769 0.04378 0.43124 0.0
C3984 C 0.86364 0.03575 0.45052 0.0
C3985 C 0.89977 0.05958 0.3941 0.0
C3986 C 0.88117 0.04562 0.39067 0.0
C3987 C 0.86991 0.03798 0.40923 0.0
C3988 C 0.87484 0.03698 0.36804 0.0
C3989 C 0.91273 0.06781 0.37467 0.0
C3990 C 0.86639 0.05111 0.35113 0.0
C3991 C 0.86515 0.04395 0.32871 0.0
C3992 C 0.87247 0.02267 0.32311 0.0
C3993 C 0.8791 0.00799 0.34027 0.0
C3994 C 0.88012 0.01505 0.36263 0.0
H3995 H 0.92825 0.07625 0.38034 0.0
H3996 H 0.91679 0.05379 0.36343 0.0
H3997 H 0.90262 0.07976 0.36465 0.0
H3998 H 0.86217 0.06808 0.35507 0.0
H3999 H 0.8604 0.05563 0.31563 0.0
H4000 H 0.3475 0.79247 0.77889 0.0
H4001 H 0.33715 0.79222 0.81843 0.0
H4002 H 0.27769 0.82759 0.80022 0.0
H4003 H 0.28765 0.82771 0.76113 0.0
H4004 H 0.33141 0.83037 0.84371 0.0
H4005 H 0.25503 0.78059 0.84202 0.0
H4006 H 0.27427 0.77944 0.8197 0.0
H4007 H 0.25407 0.80117 0.82036 0.0
C4008 C 0.33197 0.79968 0.78331 0.0
C4009 C 0.31845 0.8102 0.76692 0.0
C4010 C 0.32613 0.79959 0.80587 0.0
C4011 C 0.30651 0.80963 0.81222 0.0
C4012 C 0.29265 0.81931 0.7957 0.0
H4013 H 0.24206 0.87376 0.91581 0.0
H4014 H 0.25632 0.85704 0.88187 0.0
C4015 C 0.29851 0.81955 0.77333 0.0
C4016 C 0.30132 0.81242 0.83619 0.0
H4017 H 0.25872 0.80845 0.87161 0.0
C4018 C 0.31578 0.82507 0.85007 0.0
C4019 C 0.28092 0.8055 0.84445 0.0
C4020 C 0.26531 0.79072 0.83089 0.0
C4021 C 0.30967 0.83237 0.87136 0.0
C4022 C 0.28865 0.82671 0.87891 0.0
C4023 C 0.27474 0.81296 0.86562 0.0
C4024 C 0.2801 0.83638 0.89968 0.0
C4025 C 0.32513 0.84718 0.88507 0.0
C4026 C 0.28876 0.83022 0.9209 0.0
C4027 C 0.28067 0.83977 0.94033 0.0
C4028 C 0.26374 0.8556 0.93887 0.0
C4029 C 0.25514 0.8617 0.91754 0.0
C4030 C 0.26319 0.85209 0.89814 0.0
H4031 H 0.33978 0.85212 0.87567 0.0
H4032 H 0.31647 0.8624 0.89035 0.0
H4033 H 0.33083 0.83833 0.90052 0.0
H4034 H 0.30176 0.81803 0.92241 0.0
H4035 H 0.28785 0.83492 0.95647 0.0
H4036 H 0.57924 0.90681 0.99001 0.0
H4037 H 0.58723 0.91651 0.95136 0.0
H4038 H 0.6081 0.98182 0.97331 0.0
H4039 H 0.60103 0.97191 0.01217 0.0
H4040 H 0.57382 0.9465 0.92155 0.0
H4041 H 0.66202 0.96146 0.94326 0.0
H4042 H 0.64354 0.94963 0.96292 0.0
H4043 H 0.6443 0.97918 0.95854 0.0
C4044 C 0.58531 0.92333 0.98661 0.0
C4045 C 0.58977 0.93849 0.00424 0.0
C4046 C 0.5899 0.92885 0.96447 0.0
C4047 C 0.59887 0.94969 0.95946 0.0
C4048 C 0.60192 0.96537 0.97683 0.0
H4049 H 0.61281 0.99785 0.82204 0.0
H4050 H 0.59982 0.99051 0.85955 0.0
C4051 C 0.59769 0.95975 -0.00097 0.0
C4052 C 0.60575 0.95462 0.93627 0.0
H4053 H 0.64976 0.97071 0.90627 0.0
C4054 C 0.59044 0.95176 0.91819 0.0
C4055 C 0.62756 0.96107 0.93179 0.0
C4056 C 0.64536 0.96279 0.95011 0.0
C4057 C 0.59628 0.95528 0.89585 0.0
C4058 C 0.61787 0.96254 0.89148 0.0
C4059 C 0.63316 0.96534 0.90957 0.0
C4060 C 0.62529 0.96675 0.86832 0.0
C4061 C 0.57942 0.95049 0.87718 0.0
C4062 C 0.64435 0.95645 0.86086 0.0
C4063 C 0.652 0.96094 0.83951 0.0
C4064 C 0.64061 0.97561 0.825 0.0
C4065 C 0.62156 0.98594 0.83245 0.0
C4066 C 0.61409 0.98172 0.85397 0.0
H4067 H 0.56651 0.93885 0.8827 0.0
H4068 H 0.57122 0.96619 0.87207 0.0
H4069 H 0.58717 0.94327 0.86227 0.0
H4070 H 0.65338 0.94491 0.87161 0.0
H4071 H 0.66677 0.95276 0.83426 0.0
H4072 H 0.8438 0.69436 0.23446 0.0
H4073 H 0.83777 0.69383 0.19382 0.0
H4074 H 0.77232 0.66787 0.20138 0.0
H4075 H 0.77829 0.66789 0.24218 0.0
H4076 H 0.7973 0.64225 0.17465 0.0
H4077 H 0.80188 0.73021 0.14825 0.0
H4078 H 0.8247 0.72184 0.16622 0.0
H4079 H 0.79747 0.72214 0.17691 0.0
C4080 C 0.82794 0.68892 0.22757 0.0
C4081 C 0.81161 0.68091 0.24159 0.0
C4082 C 0.82448 0.68882 0.2043 0.0
C4083 C 0.80455 0.681 0.19466 0.0
C4084 C 0.7878 0.67405 0.20859 0.0
H4085 H 0.76208 0.67112 0.05585 0.0
H4086 H 0.76915 0.68318 0.09449 0.0
C4087 C 0.79126 0.67404 0.23188 0.0
C4088 C 0.80229 0.67734 0.17018 0.0
H4089 H 0.80503 0.70287 0.11931 0.0
C4090 C 0.79884 0.65553 0.16254 0.0
C4091 C 0.8043 0.69472 0.15451 0.0
C4092 C 0.80708 0.71858 0.16185 0.0
C4093 C 0.79751 0.65053 0.13959 0.0
C4094 C 0.80026 0.66778 0.12391 0.0
C4095 C 0.80338 0.68968 0.13147 0.0
C4096 C 0.79844 0.66338 0.09956 0.0
C4097 C 0.79278 0.6269 0.13233 0.0
C4098 C 0.81315 0.64896 0.0894 0.0
C4099 C 0.80916 0.64198 0.06724 0.0
C4100 C 0.7905 0.6495 0.05492 0.0
C4101 C 0.77668 0.66512 0.06477 0.0
C4102 C 0.78065 0.67202 0.08689 0.0
H4103 H 0.78624 0.61681 0.14618 0.0
H4104 H 0.78072 0.62636 0.11785 0.0
H4105 H 0.80822 0.61908 0.12704 0.0
H4106 H 0.82718 0.64242 0.09892 0.0
H4107 H 0.82023 0.63012 0.06005 0.0
H4108 H 0.92788 0.9104 0.0077 0.0
H4109 H 0.92216 0.91966 0.04704 0.0
H4110 H 0.88882 0.97963 0.02668 0.0
H4111 H 0.89444 0.97062 0.98723 0.0
H4112 H 0.91983 0.98371 0.06591 0.0
H4113 H 0.85908 0.91499 0.07253 0.0
H4114 H 0.88538 0.9076 0.06204 0.0
H4115 H 0.86748 0.92552 0.04583 0.0
C4116 C 0.91956 0.92572 0.01151 0.0
C4117 C 0.91145 0.93964 0.99415 0.0
C4118 C 0.91625 0.93093 0.03405 0.0
C4119 C 0.90481 0.95018 0.03976 0.0
C4120 C 0.89762 0.96465 0.02263 0.0
H4121 H 0.83416 0.98329 0.15749 0.0
H4122 H 0.84707 0.97597 0.11994 0.0
C4123 C 0.90083 0.95942 6e-05 0.0
C4124 C 0.89925 0.95461 0.06343 0.0
H4125 H 0.86731 0.93581 0.10537 0.0
C4126 C 0.90845 0.9732 0.07462 0.0
C4127 C 0.88422 0.94098 0.07464 0.0
C4128 C 0.87328 0.92123 0.06318 0.0
C4129 C 0.90301 0.97849 0.09677 0.0
C4130 C 0.88805 0.96478 0.10799 0.0
C4131 C 0.87888 0.94621 0.09678 0.0
C4132 C 0.88078 0.96997 0.13096 0.0
C4133 C 0.91283 0.99898 0.10783 0.0
C4134 C 0.89544 0.96894 0.14973 0.0
C4135 C 0.88808 0.97301 0.17138 0.0
C4136 C 0.8659 0.97826 0.17467 0.0
C4137 C 0.85134 0.97934 0.15573 0.0
C4138 C 0.85869 0.97516 0.13417 0.0
H4139 H 0.92094 0.00989 0.0956 0.0
H4140 H 0.89997 0.00863 0.11623 0.0
H4141 H 0.92533 0.994 0.1209 0.0
H4142 H 0.91249 0.96459 0.14767 0.0
H4143 H 0.89971 0.9717 0.18552 0.0
H4144 H 0.12467 0.54257 0.98483 0.0
H4145 H 0.13765 0.53212 0.02232 0.0
H4146 H 0.07992 0.56122 0.04999 0.0
H4147 H 0.06747 0.57319 0.01217 0.0
H4148 H 0.11437 0.57178 0.0748 0.0
H4149 H 0.11923 0.48155 0.05856 0.0
H4150 H 0.13608 0.49691 0.04009 0.0
H4151 H 0.10664 0.50034 0.03851 0.0
C4152 C 0.11446 0.54641 0.99882 0.0
C4153 C 0.09476 0.55828 0.99553 0.0
C4154 C 0.12193 0.54035 0.0203 0.0
C4155 C 0.1095 0.54525 0.03897 0.0
C4156 C 0.08972 0.55707 0.03579 0.0
H4157 H 0.10787 0.48559 0.16465 0.0
H4158 H 0.10925 0.49455 0.12515 0.0
C4159 C 0.08251 0.56376 0.01423 0.0
C4160 C 0.11757 0.53863 0.06182 0.0
H4161 H 0.13587 0.49445 0.09283 0.0
C4162 C 0.11898 0.55485 0.0788 0.0
C4163 C 0.12372 0.51653 0.06698 0.0
C4164 C 0.12113 0.49783 0.05012 0.0
C4165 C 0.12555 0.54946 0.10097 0.0
C4166 C 0.13185 0.52739 0.10608 0.0
C4167 C 0.13138 0.51142 0.08884 0.0
C4168 C 0.13478 0.51954 0.12961 0.0
C4169 C 0.12443 0.56721 0.11884 0.0
C4170 C 0.14965 0.52961 0.1453 0.0
C4171 C 0.14864 0.52466 0.16826 0.0
C4172 C 0.13289 0.50947 0.17552 0.0
C4173 C 0.11987 0.49772 0.15951 0.0
C4174 C 0.12071 0.50277 0.13685 0.0
H4175 H 0.11527 0.58205 0.11273 0.0
H4176 H 0.11631 0.56077 0.13388 0.0
H4177 H 0.14134 0.57259 0.12401 0.0
H4178 H 0.16118 0.54207 0.13998 0.0
H4179 H 0.15895 0.5338 0.18034 0.0
loop_
_geom_bond_atom_site_label_1
_geom_bond_atom_site_label_2
_geom_bond_distance
_geom_bond_site_symmetry_2
_ccdc_geom_bond_type
Sc0 O3 2.025 . S
Sc0 O10 2.105 . S
Sc0 O13 2.105 . S
Sc0 O16 2.105 . S
Sc0 O19 2.105 . S
Sc1 O3 2.025 . S
Sc1 O11 2.105 . S
Sc1 O15 2.105 . S
Sc1 O17 2.105 . S
Sc1 O21 2.105 . S
Sc2 O3 2.025 . S
Sc2 O12 2.105 . S
Sc2 O14 2.105 . S
Sc2 O18 2.105 . S
Sc2 O20 2.105 . S
O3 Sc0 2.025 . S
O3 Sc1 2.025 . S
O3 Sc2 2.025 . S
C4 O10 1.268 . S
C4 O20 1.268 . S
C5 O11 1.268 . S
C5 O19 1.268 . S
C6 O12 1.268 . S
C6 O21 1.268 . S
C7 O13 1.268 . S
C7 O17 1.268 . S
C8 O14 1.268 . S
C8 O16 1.268 . S
C9 O15 1.268 . S
C9 O18 1.268 . S
O10 Sc0 2.105 . S
O10 C4 1.268 . S
O11 Sc1 2.105 . S
O11 C5 1.268 . S
O12 Sc2 2.105 . S
O12 C6 1.268 . S
O13 Sc0 2.105 . S
O13 C7 1.268 . S
O14 Sc2 2.105 . S
O14 C8 1.268 . S
O15 Sc1 2.105 . S
O15 C9 1.268 . S
O16 Sc0 2.105 . S
O16 C8 1.268 . S
O17 Sc1 2.105 . S
O17 C7 1.268 . S
O18 Sc2 2.105 . S
O18 C9 1.268 . S
O19 Sc0 2.105 . S
O19 C5 1.268 . S
O20 Sc2 2.105 . S
O20 C4 1.268 . S
O21 Sc1 2.105 . S
O21 C6 1.268 . S
Sc22 O25 2.025 . S
Sc22 O32 2.105 . S
Sc22 O35 2.105 . S
Sc22 O38 2.105 . S
Sc22 O41 2.105 . S
Sc23 O25 2.025 . S
Sc23 O33 2.105 . S
Sc23 O37 2.105 . S
Sc23 O39 2.105 . S
Sc23 O43 2.105 . S
Sc24 O25 2.025 . S
Sc24 O34 2.105 . S
Sc24 O36 2.105 . S
Sc24 O40 2.105 . S
Sc24 O42 2.105 . S
O25 Sc22 2.025 . S
O25 Sc23 2.025 . S
O25 Sc24 2.025 . S
C26 O32 1.268 . S
C26 O42 1.268 . S
C27 O33 1.268 . S
C27 O41 1.268 . S
C28 O34 1.268 . S
C28 O43 1.268 . S
C29 O35 1.268 . S
C29 O39 1.268 . S
C30 O36 1.268 . S
C30 O38 1.268 . S
C31 O37 1.268 . S
C31 O40 1.268 . S
O32 Sc22 2.105 . S
O32 C26 1.268 . S
O33 Sc23 2.105 . S
O33 C27 1.268 . S
O34 Sc24 2.105 . S
O34 C28 1.268 . S
O35 Sc22 2.105 . S
O35 C29 1.268 . S
O36 Sc24 2.105 . S
O36 C30 1.268 . S
O37 Sc23 2.105 . S
O37 C31 1.268 . S
O38 Sc22 2.105 . S
O38 C30 1.268 . S
O39 Sc23 2.105 . S
O39 C29 1.268 . S
O40 Sc24 2.105 . S
O40 C31 1.268 . S
O41 Sc22 2.105 . S
O41 C27 1.268 . S
O42 Sc24 2.105 . S
O42 C26 1.268 . S
O43 Sc23 2.105 . S
O43 C28 1.268 . S
Sc44 O47 2.025 . S
Sc44 O54 2.105 . S
Sc44 O57 2.105 . S
Sc44 O60 2.105 . S
Sc44 O63 2.105 . S
Sc45 O47 2.025 . S
Sc45 O55 2.105 . S
Sc45 O59 2.105 . S
Sc45 O61 2.105 . S
Sc45 O65 2.105 . S
Sc46 O47 2.025 . S
Sc46 O56 2.105 . S
Sc46 O58 2.105 . S
Sc46 O62 2.105 . S
Sc46 O64 2.105 . S
O47 Sc44 2.025 . S
O47 Sc45 2.025 . S
O47 Sc46 2.025 . S
C48 O54 1.268 . S
C48 O64 1.268 . S
C49 O55 1.268 . S
C49 O63 1.268 . S
C50 O56 1.268 . S
C50 O65 1.268 . S
C51 O57 1.268 . S
C51 O61 1.268 . S
C52 O58 1.268 . S
C52 O60 1.268 . S
C53 O59 1.268 . S
C53 O62 1.268 . S
O54 Sc44 2.105 . S
O54 C48 1.268 . S
O55 Sc45 2.105 . S
O55 C49 1.268 . S
O56 Sc46 2.105 . S
O56 C50 1.268 . S
O57 Sc44 2.105 . S
O57 C51 1.268 . S
O58 Sc46 2.105 . S
O58 C52 1.268 . S
O59 Sc45 2.105 . S
O59 C53 1.268 . S
O60 Sc44 2.105 . S
O60 C52 1.268 . S
O61 Sc45 2.105 . S
O61 C51 1.268 . S
O62 Sc46 2.105 . S
O62 C53 1.268 . S
O63 Sc44 2.105 . S
O63 C49 1.268 . S
O64 Sc46 2.105 . S
O64 C48 1.268 . S
O65 Sc45 2.105 . S
O65 C50 1.268 . S
Sc66 O69 2.025 . S
Sc66 O76 2.105 . S
Sc66 O79 2.105 . S
Sc66 O82 2.105 . S
Sc66 O85 2.105 . S
Sc67 O69 2.025 . S
Sc67 O77 2.105 . S
Sc67 O81 2.105 . S
Sc67 O83 2.105 . S
Sc67 O87 2.105 . S
Sc68 O69 2.025 . S
Sc68 O78 2.105 . S
Sc68 O80 2.105 . S
Sc68 O84 2.105 . S
Sc68 O86 2.105 . S
O69 Sc66 2.025 . S
O69 Sc67 2.025 . S
O69 Sc68 2.025 . S
C70 O76 1.268 . S
C70 O86 1.268 . S
C71 O77 1.268 . S
C71 O85 1.268 . S
C72 O78 1.268 . S
C72 O87 1.268 . S
C73 O79 1.268 . S
C73 O83 1.268 . S
C74 O80 1.268 . S
C74 O82 1.268 . S
C75 O81 1.268 . S
C75 O84 1.268 . S
O76 Sc66 2.105 . S
O76 C70 1.268 . S
O77 Sc67 2.105 . S
O77 C71 1.268 . S
O78 Sc68 2.105 . S
O78 C72 1.268 . S
O79 Sc66 2.105 . S
O79 C73 1.268 . S
O80 Sc68 2.105 . S
O80 C74 1.268 . S
O81 Sc67 2.105 . S
O81 C75 1.268 . S
O82 Sc66 2.105 . S
O82 C74 1.268 . S
O83 Sc67 2.105 . S
O83 C73 1.268 . S
O84 Sc68 2.105 . S
O84 C75 1.268 . S
O85 Sc66 2.105 . S
O85 C71 1.268 . S
O86 Sc68 2.105 . S
O86 C70 1.268 . S
O87 Sc67 2.105 . S
O87 C72 1.268 . S
Sc88 O91 2.025 . S
Sc88 O98 2.105 . S
Sc88 O101 2.105 . S
Sc88 O104 2.105 . S
Sc88 O107 2.105 . S
Sc89 O91 2.025 . S
Sc89 O99 2.105 . S
Sc89 O103 2.105 . S
Sc89 O105 2.105 . S
Sc89 O109 2.105 . S
Sc90 O91 2.025 . S
Sc90 O100 2.105 . S
Sc90 O102 2.105 . S
Sc90 O106 2.105 . S
Sc90 O108 2.105 . S
O91 Sc88 2.025 . S
O91 Sc89 2.025 . S
O91 Sc90 2.025 . S
C92 O98 1.268 . S
C92 O108 1.268 . S
C93 O99 1.268 . S
C93 O107 1.268 . S
C94 O100 1.268 . S
C94 O109 1.268 . S
C95 O101 1.268 . S
C95 O105 1.268 . S
C96 O102 1.268 . S
C96 O104 1.268 . S
C97 O103 1.268 . S
C97 O106 1.268 . S
O98 Sc88 2.105 . S
O98 C92 1.268 . S
O99 Sc89 2.105 . S
O99 C93 1.268 . S
O100 Sc90 2.105 . S
O100 C94 1.268 . S
O101 Sc88 2.105 . S
O101 C95 1.268 . S
O102 Sc90 2.105 . S
O102 C96 1.268 . S
O103 Sc89 2.105 . S
O103 C97 1.268 . S
O104 Sc88 2.105 . S
O104 C96 1.268 . S
O105 Sc89 2.105 . S
O105 C95 1.268 . S
O106 Sc90 2.105 . S
O106 C97 1.268 . S
O107 Sc88 2.105 . S
O107 C93 1.268 . S
O108 Sc90 2.105 . S
O108 C92 1.268 . S
O109 Sc89 2.105 . S
O109 C94 1.268 . S
Sc110 O113 2.025 . S
Sc110 O120 2.105 . S
Sc110 O123 2.105 . S
Sc110 O126 2.105 . S
Sc110 O129 2.105 . S
Sc111 O113 2.025 . S
Sc111 O121 2.105 . S
Sc111 O125 2.105 . S
Sc111 O127 2.105 . S
Sc111 O131 2.105 . S
Sc112 O113 2.025 . S
Sc112 O122 2.105 . S
Sc112 O124 2.105 . S
Sc112 O128 2.105 . S
Sc112 O130 2.105 . S
O113 Sc110 2.025 . S
O113 Sc111 2.025 . S
O113 Sc112 2.025 . S
C114 O120 1.268 . S
C114 O130 1.268 . S
C115 O121 1.268 . S
C115 O129 1.268 . S
C116 O122 1.268 . S
C116 O131 1.268 . S
C117 O123 1.268 . S
C117 O127 1.268 . S
C118 O124 1.268 . S
C118 O126 1.268 . S
C119 O125 1.268 . S
C119 O128 1.268 . S
O120 Sc110 2.105 . S
O120 C114 1.268 . S
O121 Sc111 2.105 . S
O121 C115 1.268 . S
O122 Sc112 2.105 . S
O122 C116 1.268 . S
O123 Sc110 2.105 . S
O123 C117 1.268 . S
O124 Sc112 2.105 . S
O124 C118 1.268 . S
O125 Sc111 2.105 . S
O125 C119 1.268 . S
O126 Sc110 2.105 . S
O126 C118 1.268 . S
O127 Sc111 2.105 . S
O127 C117 1.268 . S
O128 Sc112 2.105 . S
O128 C119 1.268 . S
O129 Sc110 2.105 . S
O129 C115 1.268 . S
O130 Sc112 2.105 . S
O130 C114 1.268 . S
O131 Sc111 2.105 . S
O131 C116 1.268 . S
Sc132 O135 2.025 . S
Sc132 O142 2.105 . S
Sc132 O145 2.105 . S
Sc132 O148 2.105 . S
Sc132 O151 2.105 . S
Sc133 O135 2.025 . S
Sc133 O143 2.105 . S
Sc133 O147 2.105 . S
Sc133 O149 2.105 . S
Sc133 O153 2.105 . S
Sc134 O135 2.025 . S
Sc134 O144 2.105 . S
Sc134 O146 2.105 . S
Sc134 O150 2.105 . S
Sc134 O152 2.105 . S
O135 Sc132 2.025 . S
O135 Sc133 2.025 . S
O135 Sc134 2.025 . S
C136 O142 1.268 . S
C136 O152 1.268 . S
C137 O143 1.268 . S
C137 O151 1.268 . S
C138 O144 1.268 . S
C138 O153 1.268 . S
C139 O145 1.268 . S
C139 O149 1.268 . S
C140 O146 1.268 . S
C140 O148 1.268 . S
C141 O147 1.268 . S
C141 O150 1.268 . S
O142 Sc132 2.105 . S
O142 C136 1.268 . S
O143 Sc133 2.105 . S
O143 C137 1.268 . S
O144 Sc134 2.105 . S
O144 C138 1.268 . S
O145 Sc132 2.105 . S
O145 C139 1.268 . S
O146 Sc134 2.105 . S
O146 C140 1.268 . S
O147 Sc133 2.105 . S
O147 C141 1.268 . S
O148 Sc132 2.105 . S
O148 C140 1.268 . S
O149 Sc133 2.105 . S
O149 C139 1.268 . S
O150 Sc134 2.105 . S
O150 C141 1.268 . S
O151 Sc132 2.105 . S
O151 C137 1.268 . S
O152 Sc134 2.105 . S
O152 C136 1.268 . S
O153 Sc133 2.105 . S
O153 C138 1.268 . S
Sc154 O157 2.025 . S
Sc154 O164 2.105 . S
Sc154 O167 2.105 . S
Sc154 O170 2.105 . S
Sc154 O173 2.105 . S
Sc155 O157 2.025 . S
Sc155 O165 2.105 . S
Sc155 O169 2.105 . S
Sc155 O171 2.105 . S
Sc155 O175 2.105 . S
Sc156 O157 2.025 . S
Sc156 O166 2.105 . S
Sc156 O168 2.105 . S
Sc156 O172 2.105 . S
Sc156 O174 2.105 . S
O157 Sc154 2.025 . S
O157 Sc155 2.025 . S
O157 Sc156 2.025 . S
C158 O164 1.268 . S
C158 O174 1.268 . S
C159 O165 1.268 . S
C159 O173 1.268 . S
C160 O166 1.268 . S
C160 O175 1.268 . S
C161 O167 1.268 . S
C161 O171 1.268 . S
C162 O168 1.268 . S
C162 O170 1.268 . S
C163 O169 1.268 . S
C163 O172 1.268 . S
O164 Sc154 2.105 . S
O164 C158 1.268 . S
O165 Sc155 2.105 . S
O165 C159 1.268 . S
O166 Sc156 2.105 . S
O166 C160 1.268 . S
O167 Sc154 2.105 . S
O167 C161 1.268 . S
O168 Sc156 2.105 . S
O168 C162 1.268 . S
O169 Sc155 2.105 . S
O169 C163 1.268 . S
O170 Sc154 2.105 . S
O170 C162 1.268 . S
O171 Sc155 2.105 . S
O171 C161 1.268 . S
O172 Sc156 2.105 . S
O172 C163 1.268 . S
O173 Sc154 2.105 . S
O173 C159 1.268 . S
O174 Sc156 2.105 . S
O174 C158 1.268 . S
O175 Sc155 2.105 . S
O175 C160 1.268 . S
Sc176 O179 2.025 . S
Sc176 O186 2.105 . S
Sc176 O189 2.105 . S
Sc176 O192 2.105 . S
Sc176 O195 2.105 . S
Sc177 O179 2.025 . S
Sc177 O187 2.105 . S
Sc177 O191 2.105 . S
Sc177 O193 2.105 . S
Sc177 O197 2.105 . S
Sc178 O179 2.025 . S
Sc178 O188 2.105 . S
Sc178 O190 2.105 . S
Sc178 O194 2.105 . S
Sc178 O196 2.105 . S
O179 Sc176 2.025 . S
O179 Sc177 2.025 . S
O179 Sc178 2.025 . S
C180 O186 1.268 . S
C180 O196 1.268 . S
C181 O187 1.268 . S
C181 O195 1.268 . S
C182 O188 1.268 . S
C182 O197 1.268 . S
C183 O189 1.268 . S
C183 O193 1.268 . S
C184 O190 1.268 . S
C184 O192 1.268 . S
C185 O191 1.268 . S
C185 O194 1.268 . S
O186 Sc176 2.105 . S
O186 C180 1.268 . S
O187 Sc177 2.105 . S
O187 C181 1.268 . S
O188 Sc178 2.105 . S
O188 C182 1.268 . S
O189 Sc176 2.105 . S
O189 C183 1.268 . S
O190 Sc178 2.105 . S
O190 C184 1.268 . S
O191 Sc177 2.105 . S
O191 C185 1.268 . S
O192 Sc176 2.105 . S
O192 C184 1.268 . S
O193 Sc177 2.105 . S
O193 C183 1.268 . S
O194 Sc178 2.105 . S
O194 C185 1.268 . S
O195 Sc176 2.105 . S
O195 C181 1.268 . S
O196 Sc178 2.105 . S
O196 C180 1.268 . S
O197 Sc177 2.105 . S
O197 C182 1.268 . S
Sc198 O201 2.025 . S
Sc198 O208 2.105 . S
Sc198 O211 2.105 . S
Sc198 O214 2.105 . S
Sc198 O217 2.105 . S
Sc199 O201 2.025 . S
Sc199 O209 2.105 . S
Sc199 O213 2.105 . S
Sc199 O215 2.105 . S
Sc199 O219 2.105 . S
Sc200 O201 2.025 . S
Sc200 O210 2.105 . S
Sc200 O212 2.105 . S
Sc200 O216 2.105 . S
Sc200 O218 2.105 . S
O201 Sc198 2.025 . S
O201 Sc199 2.025 . S
O201 Sc200 2.025 . S
C202 O208 1.268 . S
C202 O218 1.268 . S
C203 O209 1.268 . S
C203 O217 1.268 . S
C204 O210 1.268 . S
C204 O219 1.268 . S
C205 O211 1.268 . S
C205 O215 1.268 . S
C206 O212 1.268 . S
C206 O214 1.268 . S
C207 O213 1.268 . S
C207 O216 1.268 . S
O208 Sc198 2.105 . S
O208 C202 1.268 . S
O209 Sc199 2.105 . S
O209 C203 1.268 . S
O210 Sc200 2.105 . S
O210 C204 1.268 . S
O211 Sc198 2.105 . S
O211 C205 1.268 . S
O212 Sc200 2.105 . S
O212 C206 1.268 . S
O213 Sc199 2.105 . S
O213 C207 1.268 . S
O214 Sc198 2.105 . S
O214 C206 1.268 . S
O215 Sc199 2.105 . S
O215 C205 1.268 . S
O216 Sc200 2.105 . S
O216 C207 1.268 . S
O217 Sc198 2.105 . S
O217 C203 1.268 . S
O218 Sc200 2.105 . S
O218 C202 1.268 . S
O219 Sc199 2.105 . S
O219 C204 1.268 . S
Sc220 O223 2.025 . S
Sc220 O230 2.105 . S
Sc220 O233 2.105 . S
Sc220 O236 2.105 . S
Sc220 O239 2.105 . S
Sc221 O223 2.025 . S
Sc221 O231 2.105 . S
Sc221 O235 2.105 . S
Sc221 O237 2.105 . S
Sc221 O241 2.105 . S
Sc222 O223 2.025 . S
Sc222 O232 2.105 . S
Sc222 O234 2.105 . S
Sc222 O238 2.105 . S
Sc222 O240 2.105 . S
O223 Sc220 2.025 . S
O223 Sc221 2.025 . S
O223 Sc222 2.025 . S
C224 O230 1.268 . S
C224 O240 1.268 . S
C225 O231 1.268 . S
C225 O239 1.268 . S
C226 O232 1.268 . S
C226 O241 1.268 . S
C227 O233 1.268 . S
C227 O237 1.268 . S
C228 O234 1.268 . S
C228 O236 1.268 . S
C229 O235 1.268 . S
C229 O238 1.268 . S
O230 Sc220 2.105 . S
O230 C224 1.268 . S
O231 Sc221 2.105 . S
O231 C225 1.268 . S
O232 Sc222 2.105 . S
O232 C226 1.268 . S
O233 Sc220 2.105 . S
O233 C227 1.268 . S
O234 Sc222 2.105 . S
O234 C228 1.268 . S
O235 Sc221 2.105 . S
O235 C229 1.268 . S
O236 Sc220 2.105 . S
O236 C228 1.268 . S
O237 Sc221 2.105 . S
O237 C227 1.268 . S
O238 Sc222 2.105 . S
O238 C229 1.268 . S
O239 Sc220 2.105 . S
O239 C225 1.268 . S
O240 Sc222 2.105 . S
O240 C224 1.268 . S
O241 Sc221 2.105 . S
O241 C226 1.268 . S
Sc242 O245 2.025 . S
Sc242 O252 2.105 . S
Sc242 O255 2.105 . S
Sc242 O258 2.105 . S
Sc242 O261 2.105 . S
Sc243 O245 2.025 . S
Sc243 O253 2.105 . S
Sc243 O257 2.105 . S
Sc243 O259 2.105 . S
Sc243 O263 2.105 . S
Sc244 O245 2.025 . S
Sc244 O254 2.105 . S
Sc244 O256 2.105 . S
Sc244 O260 2.105 . S
Sc244 O262 2.105 . S
O245 Sc242 2.025 . S
O245 Sc243 2.025 . S
O245 Sc244 2.025 . S
C246 O252 1.268 . S
C246 O262 1.268 . S
C247 O253 1.268 . S
C247 O261 1.268 . S
C248 O254 1.268 . S
C248 O263 1.268 . S
C249 O255 1.268 . S
C249 O259 1.268 . S
C250 O256 1.268 . S
C250 O258 1.268 . S
C251 O257 1.268 . S
C251 O260 1.268 . S
O252 Sc242 2.105 . S
O252 C246 1.268 . S
O253 Sc243 2.105 . S
O253 C247 1.268 . S
O254 Sc244 2.105 . S
O254 C248 1.268 . S
O255 Sc242 2.105 . S
O255 C249 1.268 . S
O256 Sc244 2.105 . S
O256 C250 1.268 . S
O257 Sc243 2.105 . S
O257 C251 1.268 . S
O258 Sc242 2.105 . S
O258 C250 1.268 . S
O259 Sc243 2.105 . S
O259 C249 1.268 . S
O260 Sc244 2.105 . S
O260 C251 1.268 . S
O261 Sc242 2.105 . S
O261 C247 1.268 . S
O262 Sc244 2.105 . S
O262 C246 1.268 . S
O263 Sc243 2.105 . S
O263 C248 1.268 . S
Sc264 O267 2.025 . S
Sc264 O274 2.105 . S
Sc264 O277 2.105 . S
Sc264 O280 2.105 . S
Sc264 O283 2.105 . S
Sc265 O267 2.025 . S
Sc265 O275 2.105 . S
Sc265 O279 2.105 . S
Sc265 O281 2.105 . S
Sc265 O285 2.105 . S
Sc266 O267 2.025 . S
Sc266 O276 2.105 . S
Sc266 O278 2.105 . S
Sc266 O282 2.105 . S
Sc266 O284 2.105 . S
O267 Sc264 2.025 . S
O267 Sc265 2.025 . S
O267 Sc266 2.025 . S
C268 O274 1.268 . S
C268 O284 1.268 . S
C269 O275 1.268 . S
C269 O283 1.268 . S
C270 O276 1.268 . S
C270 O285 1.268 . S
C271 O277 1.268 . S
C271 O281 1.268 . S
C272 O278 1.268 . S
C272 O280 1.268 . S
C273 O279 1.268 . S
C273 O282 1.268 . S
O274 Sc264 2.105 . S
O274 C268 1.268 . S
O275 Sc265 2.105 . S
O275 C269 1.268 . S
O276 Sc266 2.105 . S
O276 C270 1.268 . S
O277 Sc264 2.105 . S
O277 C271 1.268 . S
O278 Sc266 2.105 . S
O278 C272 1.268 . S
O279 Sc265 2.105 . S
O279 C273 1.268 . S
O280 Sc264 2.105 . S
O280 C272 1.268 . S
O281 Sc265 2.105 . S
O281 C271 1.268 . S
O282 Sc266 2.105 . S
O282 C273 1.268 . S
O283 Sc264 2.105 . S
O283 C269 1.268 . S
O284 Sc266 2.105 . S
O284 C268 1.268 . S
O285 Sc265 2.105 . S
O285 C270 1.268 . S
Sc286 O289 2.025 . S
Sc286 O296 2.105 . S
Sc286 O299 2.105 . S
Sc286 O302 2.105 . S
Sc286 O305 2.105 . S
Sc287 O289 2.025 . S
Sc287 O297 2.105 . S
Sc287 O301 2.105 . S
Sc287 O303 2.105 . S
Sc287 O307 2.105 . S
Sc288 O289 2.025 . S
Sc288 O298 2.105 . S
Sc288 O300 2.105 . S
Sc288 O304 2.105 . S
Sc288 O306 2.105 . S
O289 Sc286 2.025 . S
O289 Sc287 2.025 . S
O289 Sc288 2.025 . S
C290 O296 1.268 . S
C290 O306 1.268 . S
C291 O297 1.268 . S
C291 O305 1.268 . S
C292 O298 1.268 . S
C292 O307 1.268 . S
C293 O299 1.268 . S
C293 O303 1.268 . S
C294 O300 1.268 . S
C294 O302 1.268 . S
C295 O301 1.268 . S
C295 O304 1.268 . S
O296 Sc286 2.105 . S
O296 C290 1.268 . S
O297 Sc287 2.105 . S
O297 C291 1.268 . S
O298 Sc288 2.105 . S
O298 C292 1.268 . S
O299 Sc286 2.105 . S
O299 C293 1.268 . S
O300 Sc288 2.105 . S
O300 C294 1.268 . S
O301 Sc287 2.105 . S
O301 C295 1.268 . S
O302 Sc286 2.105 . S
O302 C294 1.268 . S
O303 Sc287 2.105 . S
O303 C293 1.268 . S
O304 Sc288 2.105 . S
O304 C295 1.268 . S
O305 Sc286 2.105 . S
O305 C291 1.268 . S
O306 Sc288 2.105 . S
O306 C290 1.268 . S
O307 Sc287 2.105 . S
O307 C292 1.268 . S
Sc308 O311 2.025 . S
Sc308 O318 2.105 . S
Sc308 O321 2.105 . S
Sc308 O324 2.105 . S
Sc308 O327 2.105 . S
Sc309 O311 2.025 . S
Sc309 O319 2.105 . S
Sc309 O323 2.105 . S
Sc309 O325 2.105 . S
Sc309 O329 2.105 . S
Sc310 O311 2.025 . S
Sc310 O320 2.105 . S
Sc310 O322 2.105 . S
Sc310 O326 2.105 . S
Sc310 O328 2.105 . S
O311 Sc308 2.025 . S
O311 Sc309 2.025 . S
O311 Sc310 2.025 . S
C312 O318 1.268 . S
C312 O328 1.268 . S
C313 O319 1.268 . S
C313 O327 1.268 . S
C314 O320 1.268 . S
C314 O329 1.268 . S
C315 O321 1.268 . S
C315 O325 1.268 . S
C316 O322 1.268 . S
C316 O324 1.268 . S
C317 O323 1.268 . S
C317 O326 1.268 . S
O318 Sc308 2.105 . S
O318 C312 1.268 . S
O319 Sc309 2.105 . S
O319 C313 1.268 . S
O320 Sc310 2.105 . S
O320 C314 1.268 . S
O321 Sc308 2.105 . S
O321 C315 1.268 . S
O322 Sc310 2.105 . S
O322 C316 1.268 . S
O323 Sc309 2.105 . S
O323 C317 1.268 . S
O324 Sc308 2.105 . S
O324 C316 1.268 . S
O325 Sc309 2.105 . S
O325 C315 1.268 . S
O326 Sc310 2.105 . S
O326 C317 1.268 . S
O327 Sc308 2.105 . S
O327 C313 1.268 . S
O328 Sc310 2.105 . S
O328 C312 1.268 . S
O329 Sc309 2.105 . S
O329 C314 1.268 . S
Sc330 O333 2.025 . S
Sc330 O340 2.105 . S
Sc330 O343 2.105 . S
Sc330 O346 2.105 . S
Sc330 O349 2.105 . S
Sc331 O333 2.025 . S
Sc331 O341 2.105 . S
Sc331 O345 2.105 . S
Sc331 O347 2.105 . S
Sc331 O351 2.105 . S
Sc332 O333 2.025 . S
Sc332 O342 2.105 . S
Sc332 O344 2.105 . S
Sc332 O348 2.105 . S
Sc332 O350 2.105 . S
O333 Sc330 2.025 . S
O333 Sc331 2.025 . S
O333 Sc332 2.025 . S
C334 O340 1.268 . S
C334 O350 1.268 . S
C335 O341 1.268 . S
C335 O349 1.268 . S
C336 O342 1.268 . S
C336 O351 1.268 . S
C337 O343 1.268 . S
C337 O347 1.268 . S
C338 O344 1.268 . S
C338 O346 1.268 . S
C339 O345 1.268 . S
C339 O348 1.268 . S
O340 Sc330 2.105 . S
O340 C334 1.268 . S
O341 Sc331 2.105 . S
O341 C335 1.268 . S
O342 Sc332 2.105 . S
O342 C336 1.268 . S
O343 Sc330 2.105 . S
O343 C337 1.268 . S
O344 Sc332 2.105 . S
O344 C338 1.268 . S
O345 Sc331 2.105 . S
O345 C339 1.268 . S
O346 Sc330 2.105 . S
O346 C338 1.268 . S
O347 Sc331 2.105 . S
O347 C337 1.268 . S
O348 Sc332 2.105 . S
O348 C339 1.268 . S
O349 Sc330 2.105 . S
O349 C335 1.268 . S
O350 Sc332 2.105 . S
O350 C334 1.268 . S
O351 Sc331 2.105 . S
O351 C336 1.268 . S
C352 O364 1.241 . S
C352 O365 1.280 . S
C353 O366 1.277 . S
C353 O367 1.245 . S
C354 O378 1.247 . S
C354 O380 1.289 . S
Mg355 O356 1.926 1_455 S
Mg355 O365 1.984 1_455 S
Mg355 O367 1.988 . S
Mg355 O368 2.061 1_455 S
O356 Mg355 1.926 1_655 S
O356 Mg357 1.986 . S
O356 Mg358 1.917 1_655 S
Mg357 O356 1.986 . S
Mg357 O364 2.042 . S
Mg357 O366 2.041 1_655 S
Mg357 O372 2.038 . S
Mg357 O380 2.238 1_655 S
Mg358 O356 1.917 1_455 S
Mg358 O359 1.917 . S
Mg358 O369 2.106 1_455 S
Mg358 O371 2.079 1_455 S
Mg358 O380 2.106 . S
Mg358 O381 2.079 . S
O359 Mg358 1.917 . S
O359 Mg360 1.926 1_455 S
O359 Mg361 1.986 . S
Mg360 O359 1.926 1_655 S
Mg360 O374 1.984 1_655 S
Mg360 O377 1.988 . S
Mg360 O378 2.061 1_655 S
Mg361 O359 1.986 . S
Mg361 O369 2.238 1_455 S
Mg361 O373 2.042 . S
Mg361 O375 2.041 1_455 S
Mg361 O382 2.038 . S
C362 O368 1.247 . S
C362 O369 1.289 . S
C363 O381 1.245 . S
C363 O382 1.274 . S
O364 C352 1.241 . S
O364 Mg357 2.042 . S
O365 C352 1.280 . S
O365 Mg355 1.984 1_655 S
O366 C353 1.277 . S
O366 Mg357 2.041 1_455 S
O367 C353 1.245 . S
O367 Mg355 1.988 . S
O368 Mg355 2.061 1_655 S
O368 C362 1.247 . S
O369 Mg358 2.106 1_655 S
O369 Mg361 2.238 1_655 S
O369 C362 1.289 . S
C370 O371 1.245 . S
C370 O372 1.274 . S
O371 Mg358 2.079 1_655 S
O371 C370 1.245 . S
O372 Mg357 2.038 . S
O372 C370 1.274 . S
O373 Mg361 2.042 . S
O373 C376 1.241 . S
O374 Mg360 1.984 1_455 S
O374 C376 1.280 . S
O375 Mg361 2.041 1_655 S
O375 C379 1.277 . S
C376 O373 1.241 . S
C376 O374 1.280 . S
O377 Mg360 1.988 . S
O377 C379 1.245 . S
O378 C354 1.247 . S
O378 Mg360 2.061 1_455 S
C379 O375 1.277 . S
C379 O377 1.245 . S
O380 C354 1.289 . S
O380 Mg357 2.238 1_455 S
O380 Mg358 2.106 . S
O381 Mg358 2.079 . S
O381 C363 1.245 . S
O382 Mg361 2.038 . S
O382 C363 1.274 . S
C383 O395 1.241 . S
C383 O396 1.280 . S
C384 O397 1.277 . S
C384 O398 1.245 . S
C385 O409 1.247 . S
C385 O411 1.289 . S
Mg386 O387 1.926 . S
Mg386 O396 1.984 . S
Mg386 O398 1.988 . S
Mg386 O399 2.061 . S
O387 Mg386 1.926 . S
O387 Mg388 1.986 . S
O387 Mg389 1.917 . S
Mg388 O387 1.986 . S
Mg388 O395 2.042 . S
Mg388 O397 2.041 . S
Mg388 O403 2.038 . S
Mg388 O411 2.238 . S
Mg389 O387 1.917 . S
Mg389 O390 1.917 . S
Mg389 O400 2.106 . S
Mg389 O402 2.079 . S
Mg389 O411 2.106 . S
Mg389 O412 2.079 . S
O390 Mg389 1.917 . S
O390 Mg391 1.926 . S
O390 Mg392 1.986 . S
Mg391 O390 1.926 . S
Mg391 O405 1.984 . S
Mg391 O408 1.988 . S
Mg391 O409 2.061 . S
Mg392 O390 1.986 . S
Mg392 O400 2.238 . S
Mg392 O404 2.042 . S
Mg392 O406 2.041 . S
Mg392 O413 2.038 . S
C393 O399 1.247 . S
C393 O400 1.289 . S
C394 O412 1.245 . S
C394 O413 1.274 . S
O395 C383 1.241 . S
O395 Mg388 2.042 . S
O396 C383 1.280 . S
O396 Mg386 1.984 . S
O397 C384 1.277 . S
O397 Mg388 2.041 . S
O398 C384 1.245 . S
O398 Mg386 1.988 . S
O399 Mg386 2.061 . S
O399 C393 1.247 . S
O400 Mg389 2.106 . S
O400 Mg392 2.238 . S
O400 C393 1.289 . S
C401 O402 1.245 . S
C401 O403 1.274 . S
O402 Mg389 2.079 . S
O402 C401 1.245 . S
O403 Mg388 2.038 . S
O403 C401 1.274 . S
O404 Mg392 2.042 . S
O404 C407 1.241 . S
O405 Mg391 1.984 . S
O405 C407 1.280 . S
O406 Mg392 2.041 . S
O406 C410 1.277 . S
C407 O404 1.241 . S
C407 O405 1.280 . S
O408 Mg391 1.988 . S
O408 C410 1.245 . S
O409 C385 1.247 . S
O409 Mg391 2.061 . S
C410 O406 1.277 . S
C410 O408 1.245 . S
O411 C385 1.289 . S
O411 Mg388 2.238 . S
O411 Mg389 2.106 . S
O412 Mg389 2.079 . S
O412 C394 1.245 . S
O413 Mg392 2.038 . S
O413 C394 1.274 . S
C414 O426 1.241 . S
C414 O427 1.280 . S
C415 O428 1.277 . S
C415 O429 1.245 . S
C416 O440 1.247 . S
C416 O442 1.289 . S
Mg417 O418 1.926 1_455 S
Mg417 O427 1.984 1_455 S
Mg417 O429 1.988 . S
Mg417 O430 2.061 . S
O418 Mg417 1.926 1_655 S
O418 Mg419 1.986 . S
O418 Mg420 1.917 1_655 S
Mg419 O418 1.986 . S
Mg419 O426 2.042 . S
Mg419 O428 2.041 1_655 S
Mg419 O434 2.038 . S
Mg419 O442 2.238 1_655 S
Mg420 O418 1.917 1_455 S
Mg420 O421 1.917 . S
Mg420 O431 2.106 1_455 S
Mg420 O433 2.079 1_455 S
Mg420 O442 2.106 . S
Mg420 O443 2.079 . S
O421 Mg420 1.917 . S
O421 Mg422 1.926 1_455 S
O421 Mg423 1.986 . S
Mg422 O421 1.926 1_655 S
Mg422 O436 1.984 1_655 S
Mg422 O439 1.988 . S
Mg422 O440 2.061 1_655 S
Mg423 O421 1.986 . S
Mg423 O431 2.236 1_455 S
Mg423 O435 2.042 . S
Mg423 O437 2.041 1_455 S
Mg423 O444 2.038 . S
C424 O430 1.247 1_655 S
C424 O431 1.289 . S
C425 O443 1.245 . S
C425 O444 1.274 . S
O426 C414 1.241 . S
O426 Mg419 2.042 . S
O427 C414 1.280 . S
O427 Mg417 1.984 1_655 S
O428 C415 1.277 . S
O428 Mg419 2.041 1_455 S
O429 C415 1.245 . S
O429 Mg417 1.988 . S
O430 Mg417 2.061 . S
O430 C424 1.247 1_455 S
O431 Mg420 2.106 1_655 S
O431 Mg423 2.236 1_655 S
O431 C424 1.289 . S
C432 O433 1.245 . S
C432 O434 1.274 . S
O433 Mg420 2.079 1_655 S
O433 C432 1.245 . S
O434 Mg419 2.038 . S
O434 C432 1.274 . S
O435 Mg423 2.042 . S
O435 C438 1.241 . S
O436 Mg422 1.984 1_455 S
O436 C438 1.280 . S
O437 Mg423 2.041 1_655 S
O437 C441 1.277 . S
C438 O435 1.241 . S
C438 O436 1.280 . S
O439 Mg422 1.988 . S
O439 C441 1.245 . S
O440 C416 1.247 . S
O440 Mg422 2.061 1_455 S
C441 O437 1.277 . S
C441 O439 1.245 . S
O442 C416 1.289 . S
O442 Mg419 2.238 1_455 S
O442 Mg420 2.106 . S
O443 Mg420 2.079 . S
O443 C425 1.245 . S
O444 Mg423 2.038 . S
O444 C425 1.274 . S
C445 O457 1.241 . S
C445 O458 1.280 . S
C446 O459 1.277 . S
C446 O460 1.245 . S
C447 O471 1.247 . S
C447 O473 1.289 . S
Mg448 O449 1.926 1_565 S
Mg448 O458 1.984 1_565 S
Mg448 O460 1.988 . S
Mg448 O461 2.061 1_565 S
O449 Mg448 1.926 1_545 S
O449 Mg450 1.986 . S
O449 Mg451 1.923 . S
Mg450 O449 1.986 . S
Mg450 O457 2.042 . S
Mg450 O459 2.041 1_545 S
Mg450 O465 2.038 . S
Mg450 O473 2.238 1_545 S
Mg451 O449 1.923 . S
Mg451 O452 1.911 1_545 S
Mg451 O462 2.109 . S
Mg451 O464 2.104 . S
Mg451 O473 2.104 1_545 S
Mg451 O474 2.053 1_545 S
O452 Mg451 1.911 1_565 S
O452 Mg453 1.926 1_565 S
O452 Mg454 1.986 . S
Mg453 O452 1.926 1_545 S
Mg453 O467 1.984 1_545 S
Mg453 O470 1.988 . S
Mg453 O471 2.061 1_545 S
Mg454 O452 1.986 . S
Mg454 O462 2.238 1_565 S
Mg454 O466 2.042 . S
Mg454 O468 2.041 1_565 S
Mg454 O475 2.038 . S
C455 O461 1.247 . S
C455 O462 1.289 . S
C456 O474 1.245 . S
C456 O475 1.274 . S
O457 C445 1.241 . S
O457 Mg450 2.042 . S
O458 C445 1.280 . S
O458 Mg448 1.984 1_545 S
O459 C446 1.277 . S
O459 Mg450 2.041 1_565 S
O460 C446 1.245 . S
O460 Mg448 1.988 . S
O461 Mg448 2.061 1_545 S
O461 C455 1.247 . S
O462 Mg451 2.109 . S
O462 Mg454 2.238 1_545 S
O462 C455 1.289 . S
C463 O464 1.245 . S
C463 O465 1.274 . S
O464 Mg451 2.104 . S
O464 C463 1.245 . S
O465 Mg450 2.038 . S
O465 C463 1.274 . S
O466 Mg454 2.042 . S
O466 C469 1.241 . S
O467 Mg453 1.984 1_565 S
O467 C469 1.280 . S
O468 Mg454 2.041 1_545 S
O468 C472 1.277 . S
C469 O466 1.241 . S
C469 O467 1.280 . S
O470 Mg453 1.988 . S
O470 C472 1.245 . S
O471 C447 1.247 . S
O471 Mg453 2.061 1_565 S
C472 O468 1.277 . S
C472 O470 1.245 . S
O473 C447 1.289 . S
O473 Mg450 2.238 1_565 S
O473 Mg451 2.104 1_565 S
O474 Mg451 2.053 1_565 S
O474 C456 1.245 . S
O475 Mg454 2.038 . S
O475 C456 1.274 . S
C476 O488 1.241 . S
C476 O489 1.280 . S
C477 O490 1.277 . S
C477 O491 1.245 . S
C478 O502 1.247 . S
C478 O504 1.289 . S
Mg479 O480 1.928 . S
Mg479 O489 1.984 1_554 S
Mg479 O491 1.988 . S
Mg479 O492 2.061 . S
O480 Mg479 1.928 . S
O480 Mg481 1.984 1_554 S
O480 Mg482 1.917 . S
Mg481 O480 1.984 1_556 S
Mg481 O488 2.042 . S
Mg481 O490 2.041 1_556 S
Mg481 O496 2.038 . S
Mg481 O504 2.238 . S
Mg482 O480 1.917 . S
Mg482 O483 1.917 . S
Mg482 O493 2.106 . S
Mg482 O495 2.079 1_554 S
Mg482 O504 2.106 1_554 S
Mg482 O505 2.079 . S
O483 Mg482 1.917 . S
O483 Mg484 1.926 1_554 S
O483 Mg485 1.986 . S
Mg484 O483 1.926 1_556 S
Mg484 O498 1.984 1_556 S
Mg484 O501 1.988 . S
Mg484 O502 2.061 . S
Mg485 O483 1.986 . S
Mg485 O493 2.238 . S
Mg485 O497 2.042 . S
Mg485 O499 2.041 . S
Mg485 O506 2.038 . S
C486 O492 1.247 . S
C486 O493 1.289 . S
C487 O505 1.245 . S
C487 O506 1.274 . S
O488 C476 1.241 . S
O488 Mg481 2.042 . S
O489 C476 1.280 . S
O489 Mg479 1.984 1_556 S
O490 C477 1.277 . S
O490 Mg481 2.041 1_554 S
O491 C477 1.245 . S
O491 Mg479 1.988 . S
O492 Mg479 2.061 . S
O492 C486 1.247 . S
O493 Mg482 2.106 . S
O493 Mg485 2.238 . S
O493 C486 1.289 . S
C494 O495 1.245 . S
C494 O496 1.274 . S
O495 Mg482 2.079 1_556 S
O495 C494 1.245 . S
O496 Mg481 2.038 . S
O496 C494 1.274 . S
O497 Mg485 2.042 . S
O497 C500 1.241 . S
O498 Mg484 1.984 1_554 S
O498 C500 1.280 . S
O499 Mg485 2.041 . S
O499 C503 1.277 1_554 S
C500 O497 1.241 . S
C500 O498 1.280 . S
O501 Mg484 1.988 . S
O501 C503 1.245 . S
O502 C478 1.247 . S
O502 Mg484 2.061 . S
C503 O499 1.277 1_556 S
C503 O501 1.245 . S
O504 C478 1.289 . S
O504 Mg481 2.238 . S
O504 Mg482 2.106 1_556 S
O505 Mg482 2.079 . S
O505 C487 1.245 . S
O506 Mg485 2.038 . S
O506 C487 1.274 . S
C507 O519 1.241 . S
C507 O520 1.280 . S
C508 O521 1.277 . S
C508 O522 1.245 . S
C509 O533 1.247 . S
C509 O535 1.289 . S
Mg510 O511 1.926 . S
Mg510 O520 1.984 . S
Mg510 O522 1.988 . S
Mg510 O523 2.061 . S
O511 Mg510 1.926 . S
O511 Mg512 1.986 . S
O511 Mg513 1.917 . S
Mg512 O511 1.986 . S
Mg512 O519 2.042 . S
Mg512 O521 2.041 . S
Mg512 O527 2.038 . S
Mg512 O535 2.238 . S
Mg513 O511 1.917 . S
Mg513 O514 1.917 . S
Mg513 O524 2.106 . S
Mg513 O526 2.079 . S
Mg513 O535 2.106 . S
Mg513 O536 2.079 . S
O514 Mg513 1.917 . S
O514 Mg515 1.926 . S
O514 Mg516 1.986 . S
Mg515 O514 1.926 . S
Mg515 O529 1.984 . S
Mg515 O532 1.988 . S
Mg515 O533 2.061 . S
Mg516 O514 1.986 . S
Mg516 O524 2.238 . S
Mg516 O528 2.042 . S
Mg516 O530 2.041 . S
Mg516 O537 2.038 . S
C517 O523 1.247 . S
C517 O524 1.289 . S
C518 O536 1.245 . S
C518 O537 1.274 . S
O519 C507 1.241 . S
O519 Mg512 2.042 . S
O520 C507 1.280 . S
O520 Mg510 1.984 . S
O521 C508 1.277 . S
O521 Mg512 2.041 . S
O522 C508 1.245 . S
O522 Mg510 1.988 . S
O523 Mg510 2.061 . S
O523 C517 1.247 . S
O524 Mg513 2.106 . S
O524 Mg516 2.238 . S
O524 C517 1.289 . S
C525 O526 1.245 . S
C525 O527 1.274 . S
O526 Mg513 2.079 . S
O526 C525 1.245 . S
O527 Mg512 2.038 . S
O527 C525 1.274 . S
O528 Mg516 2.042 . S
O528 C531 1.241 . S
O529 Mg515 1.984 . S
O529 C531 1.280 . S
O530 Mg516 2.041 . S
O530 C534 1.277 . S
C531 O528 1.241 . S
C531 O529 1.280 . S
O532 Mg515 1.988 . S
O532 C534 1.245 . S
O533 C509 1.247 . S
O533 Mg515 2.061 . S
C534 O530 1.277 . S
C534 O532 1.245 . S
O535 C509 1.289 . S
O535 Mg512 2.238 . S
O535 Mg513 2.106 . S
O536 Mg513 2.079 . S
O536 C518 1.245 . S
O537 Mg516 2.038 . S
O537 C518 1.274 . S
C538 O550 1.241 . S
C538 O551 1.280 . S
C539 O552 1.277 . S
C539 O553 1.245 . S
C540 O564 1.249 . S
C540 O566 1.289 . S
Mg541 O542 1.926 1_556 S
Mg541 O551 1.984 1_556 S
Mg541 O553 1.988 . S
Mg541 O554 2.058 1_556 S
O542 Mg541 1.926 1_554 S
O542 Mg543 1.986 . S
O542 Mg544 1.917 . S
Mg543 O542 1.986 . S
Mg543 O550 2.042 . S
Mg543 O552 2.041 1_554 S
Mg543 O558 2.038 . S
Mg543 O566 2.238 1_554 S
Mg544 O542 1.917 . S
Mg544 O545 1.917 1_554 S
Mg544 O555 2.106 . S
Mg544 O557 2.079 . S
Mg544 O566 2.106 1_554 S
Mg544 O567 2.079 1_554 S
O545 Mg544 1.917 1_556 S
O545 Mg546 1.926 1_556 S
O545 Mg547 1.986 . S
Mg546 O545 1.926 1_554 S
Mg546 O560 1.984 1_554 S
Mg546 O563 1.988 . S
Mg546 O564 2.061 1_554 S
Mg547 O545 1.986 . S
Mg547 O555 2.238 1_556 S
Mg547 O559 2.042 . S
Mg547 O561 2.041 1_556 S
Mg547 O568 2.038 . S
C548 O554 1.252 . S
C548 O555 1.289 . S
C549 O567 1.245 . S
C549 O568 1.274 . S
O550 C538 1.241 . S
O550 Mg543 2.042 . S
O551 C538 1.280 . S
O551 Mg541 1.984 1_554 S
O552 C539 1.277 . S
O552 Mg543 2.041 1_556 S
O553 C539 1.245 . S
O553 Mg541 1.988 . S
O554 Mg541 2.058 1_554 S
O554 C548 1.252 . S
O555 Mg544 2.106 . S
O555 Mg547 2.238 1_554 S
O555 C548 1.289 . S
C556 O557 1.245 . S
C556 O558 1.274 . S
O557 Mg544 2.079 . S
O557 C556 1.245 . S
O558 Mg543 2.038 . S
O558 C556 1.274 . S
O559 Mg547 2.042 . S
O559 C562 1.241 . S
O560 Mg546 1.984 1_556 S
O560 C562 1.280 . S
O561 Mg547 2.041 1_554 S
O561 C565 1.277 . S
C562 O559 1.241 . S
C562 O560 1.280 . S
O563 Mg546 1.988 . S
O563 C565 1.245 . S
O564 C540 1.249 . S
O564 Mg546 2.061 1_556 S
C565 O561 1.277 . S
C565 O563 1.245 . S
O566 C540 1.289 . S
O566 Mg543 2.238 1_556 S
O566 Mg544 2.106 1_556 S
O567 Mg544 2.079 1_556 S
O567 C549 1.245 . S
O568 Mg547 2.038 . S
O568 C549 1.274 . S
C569 O581 1.241 . S
C569 O582 1.280 . S
C570 O583 1.277 . S
C570 O584 1.245 . S
C571 O595 1.247 . S
C571 O597 1.289 . S
Mg572 O573 1.926 . S
Mg572 O582 1.984 . S
Mg572 O584 1.988 . S
Mg572 O585 2.061 . S
O573 Mg572 1.926 . S
O573 Mg574 1.986 . S
O573 Mg575 1.917 . S
Mg574 O573 1.986 . S
Mg574 O581 2.042 . S
Mg574 O583 2.041 . S
Mg574 O589 2.038 . S
Mg574 O597 2.238 . S
Mg575 O573 1.917 . S
Mg575 O576 1.917 . S
Mg575 O586 2.106 . S
Mg575 O588 2.079 . S
Mg575 O597 2.106 . S
Mg575 O598 2.079 . S
O576 Mg575 1.917 . S
O576 Mg577 1.926 . S
O576 Mg578 1.986 . S
Mg577 O576 1.926 . S
Mg577 O591 1.984 . S
Mg577 O594 1.988 . S
Mg577 O595 2.061 . S
Mg578 O576 1.986 . S
Mg578 O586 2.238 . S
Mg578 O590 2.042 . S
Mg578 O592 2.041 . S
Mg578 O599 2.038 . S
C579 O585 1.247 . S
C579 O586 1.289 . S
C580 O598 1.245 . S
C580 O599 1.274 . S
O581 C569 1.241 . S
O581 Mg574 2.042 . S
O582 C569 1.280 . S
O582 Mg572 1.984 . S
O583 C570 1.277 . S
O583 Mg574 2.041 . S
O584 C570 1.245 . S
O584 Mg572 1.988 . S
O585 Mg572 2.061 . S
O585 C579 1.247 . S
O586 Mg575 2.106 . S
O586 Mg578 2.238 . S
O586 C579 1.289 . S
C587 O588 1.245 . S
C587 O589 1.274 . S
O588 Mg575 2.079 . S
O588 C587 1.245 . S
O589 Mg574 2.038 . S
O589 C587 1.274 . S
O590 Mg578 2.042 . S
O590 C593 1.241 . S
O591 Mg577 1.984 . S
O591 C593 1.280 . S
O592 Mg578 2.041 . S
O592 C596 1.277 . S
C593 O590 1.241 . S
C593 O591 1.280 . S
O594 Mg577 1.988 . S
O594 C596 1.245 . S
O595 C571 1.247 . S
O595 Mg577 2.061 . S
C596 O592 1.277 . S
C596 O594 1.245 . S
O597 C571 1.289 . S
O597 Mg574 2.238 . S
O597 Mg575 2.106 . S
O598 Mg575 2.079 . S
O598 C580 1.245 . S
O599 Mg578 2.038 . S
O599 C580 1.274 . S
C600 O612 1.241 . S
C600 O613 1.280 . S
C601 O614 1.277 . S
C601 O615 1.245 . S
C602 O626 1.247 . S
C602 O628 1.289 . S
Mg603 O604 1.926 . S
Mg603 O613 1.984 . S
Mg603 O615 1.988 . S
Mg603 O616 2.061 . S
O604 Mg603 1.926 . S
O604 Mg605 1.986 . S
O604 Mg606 1.917 . S
Mg605 O604 1.986 . S
Mg605 O612 2.042 . S
Mg605 O614 2.041 . S
Mg605 O620 2.038 . S
Mg605 O628 2.238 . S
Mg606 O604 1.917 . S
Mg606 O607 1.917 . S
Mg606 O617 2.106 . S
Mg606 O619 2.079 . S
Mg606 O628 2.106 . S
Mg606 O629 2.079 . S
O607 Mg606 1.917 . S
O607 Mg608 1.926 . S
O607 Mg609 1.986 . S
Mg608 O607 1.926 . S
Mg608 O622 1.984 . S
Mg608 O625 1.988 . S
Mg608 O626 2.061 . S
Mg609 O607 1.986 . S
Mg609 O617 2.238 . S
Mg609 O621 2.042 . S
Mg609 O623 2.041 . S
Mg609 O630 2.038 . S
C610 O616 1.247 . S
C610 O617 1.289 . S
C611 O629 1.245 . S
C611 O630 1.274 . S
O612 C600 1.241 . S
O612 Mg605 2.042 . S
O613 C600 1.280 . S
O613 Mg603 1.984 . S
O614 C601 1.277 . S
O614 Mg605 2.041 . S
O615 C601 1.245 . S
O615 Mg603 1.988 . S
O616 Mg603 2.061 . S
O616 C610 1.247 . S
O617 Mg606 2.106 . S
O617 Mg609 2.238 . S
O617 C610 1.289 . S
C618 O619 1.245 . S
C618 O620 1.274 . S
O619 Mg606 2.079 . S
O619 C618 1.245 . S
O620 Mg605 2.038 . S
O620 C618 1.274 . S
O621 Mg609 2.042 . S
O621 C624 1.241 . S
O622 Mg608 1.984 . S
O622 C624 1.280 . S
O623 Mg609 2.041 . S
O623 C627 1.277 . S
C624 O621 1.241 . S
C624 O622 1.280 . S
O625 Mg608 1.988 . S
O625 C627 1.245 . S
O626 C602 1.247 . S
O626 Mg608 2.061 . S
C627 O623 1.277 . S
C627 O625 1.245 . S
O628 C602 1.289 . S
O628 Mg605 2.238 . S
O628 Mg606 2.106 . S
O629 Mg606 2.079 . S
O629 C611 1.245 . S
O630 Mg609 2.038 . S
O630 C611 1.274 . S
C631 O643 1.241 . S
C631 O644 1.280 . S
C632 O645 1.277 . S
C632 O646 1.245 . S
C633 O657 1.247 . S
C633 O659 1.289 . S
Mg634 O635 1.926 . S
Mg634 O644 1.984 . S
Mg634 O646 1.988 . S
Mg634 O647 2.061 . S
O635 Mg634 1.926 . S
O635 Mg636 1.986 . S
O635 Mg637 1.917 . S
Mg636 O635 1.986 . S
Mg636 O643 2.042 . S
Mg636 O645 2.041 . S
Mg636 O651 2.038 . S
Mg636 O659 2.238 . S
Mg637 O635 1.917 . S
Mg637 O638 1.917 . S
Mg637 O648 2.106 . S
Mg637 O650 2.079 . S
Mg637 O659 2.106 . S
Mg637 O660 2.079 . S
O638 Mg637 1.917 . S
O638 Mg639 1.926 . S
O638 Mg640 1.986 . S
Mg639 O638 1.926 . S
Mg639 O653 1.984 . S
Mg639 O656 1.988 . S
Mg639 O657 2.061 . S
Mg640 O638 1.986 . S
Mg640 O648 2.238 . S
Mg640 O652 2.042 . S
Mg640 O654 2.041 . S
Mg640 O661 2.038 . S
C641 O647 1.247 . S
C641 O648 1.289 . S
C642 O660 1.245 . S
C642 O661 1.274 . S
O643 C631 1.241 . S
O643 Mg636 2.042 . S
O644 C631 1.280 . S
O644 Mg634 1.984 . S
O645 C632 1.277 . S
O645 Mg636 2.041 . S
O646 C632 1.245 . S
O646 Mg634 1.988 . S
O647 Mg634 2.061 . S
O647 C641 1.247 . S
O648 Mg637 2.106 . S
O648 Mg640 2.238 . S
O648 C641 1.289 . S
C649 O650 1.245 . S
C649 O651 1.274 . S
O650 Mg637 2.079 . S
O650 C649 1.245 . S
O651 Mg636 2.038 . S
O651 C649 1.274 . S
O652 Mg640 2.042 . S
O652 C655 1.241 . S
O653 Mg639 1.984 . S
O653 C655 1.280 . S
O654 Mg640 2.041 . S
O654 C658 1.277 . S
C655 O652 1.241 . S
C655 O653 1.280 . S
O656 Mg639 1.988 . S
O656 C658 1.245 . S
O657 C633 1.247 . S
O657 Mg639 2.061 . S
C658 O654 1.277 . S
C658 O656 1.245 . S
O659 C633 1.289 . S
O659 Mg636 2.238 . S
O659 Mg637 2.106 . S
O660 Mg637 2.079 . S
O660 C642 1.245 . S
O661 Mg640 2.038 . S
O661 C642 1.274 . S
C662 O674 1.241 . S
C662 O675 1.280 . S
C663 O676 1.277 . S
C663 O677 1.245 . S
C664 O688 1.247 . S
C664 O690 1.289 . S
Mg665 O666 1.926 1_565 S
Mg665 O675 1.984 1_565 S
Mg665 O677 1.988 . S
Mg665 O678 2.061 1_565 S
O666 Mg665 1.926 1_545 S
O666 Mg667 1.986 . S
O666 Mg668 1.925 . S
Mg667 O666 1.986 . S
Mg667 O674 2.042 . S
Mg667 O676 2.041 1_545 S
Mg667 O682 2.038 . S
Mg667 O690 2.238 1_545 S
Mg668 O666 1.925 . S
Mg668 O669 1.910 1_545 S
Mg668 O679 2.110 . S
Mg668 O681 2.113 . S
Mg668 O690 2.103 1_545 S
Mg668 O691 2.045 1_545 S
O669 Mg668 1.910 1_565 S
O669 Mg670 1.926 1_565 S
O669 Mg671 1.986 . S
Mg670 O669 1.926 1_545 S
Mg670 O684 1.984 1_545 S
Mg670 O687 1.988 . S
Mg670 O688 2.061 1_545 S
Mg671 O669 1.986 . S
Mg671 O679 2.238 1_565 S
Mg671 O683 2.042 . S
Mg671 O685 2.041 1_565 S
Mg671 O692 2.038 . S
C672 O678 1.247 . S
C672 O679 1.289 . S
C673 O691 1.245 . S
C673 O692 1.274 . S
O674 C662 1.241 . S
O674 Mg667 2.042 . S
O675 C662 1.280 . S
O675 Mg665 1.984 1_545 S
O676 C663 1.277 . S
O676 Mg667 2.041 1_565 S
O677 C663 1.245 . S
O677 Mg665 1.988 . S
O678 Mg665 2.061 1_545 S
O678 C672 1.247 . S
O679 Mg668 2.110 . S
O679 Mg671 2.238 1_545 S
O679 C672 1.289 . S
C680 O681 1.245 . S
C680 O682 1.274 . S
O681 Mg668 2.113 . S
O681 C680 1.245 . S
O682 Mg667 2.038 . S
O682 C680 1.274 . S
O683 Mg671 2.042 . S
O683 C686 1.241 . S
O684 Mg670 1.984 1_565 S
O684 C686 1.280 . S
O685 Mg671 2.041 1_545 S
O685 C689 1.277 . S
C686 O683 1.241 . S
C686 O684 1.280 . S
O687 Mg670 1.988 . S
O687 C689 1.245 . S
O688 C664 1.247 . S
O688 Mg670 2.061 1_565 S
C689 O685 1.277 . S
C689 O687 1.245 . S
O690 C664 1.289 . S
O690 Mg667 2.238 1_565 S
O690 Mg668 2.103 1_565 S
O691 Mg668 2.045 1_565 S
O691 C673 1.245 . S
O692 Mg671 2.038 . S
O692 C673 1.274 . S
C693 O705 1.241 . S
C693 O706 1.280 . S
C694 O707 1.277 . S
C694 O708 1.245 . S
C695 O719 1.247 . S
C695 O721 1.289 . S
Mg696 O697 1.926 . S
Mg696 O706 1.984 . S
Mg696 O708 1.988 . S
Mg696 O709 2.061 . S
O697 Mg696 1.926 . S
O697 Mg698 1.986 . S
O697 Mg699 1.917 . S
Mg698 O697 1.986 . S
Mg698 O705 2.042 . S
Mg698 O707 2.041 . S
Mg698 O713 2.038 . S
Mg698 O721 2.238 . S
Mg699 O697 1.917 . S
Mg699 O700 1.917 . S
Mg699 O710 2.106 . S
Mg699 O712 2.079 . S
Mg699 O721 2.106 . S
Mg699 O722 2.079 . S
O700 Mg699 1.917 . S
O700 Mg701 1.926 . S
O700 Mg702 1.986 . S
Mg701 O700 1.926 . S
Mg701 O715 1.984 . S
Mg701 O718 1.988 . S
Mg701 O719 2.061 . S
Mg702 O700 1.986 . S
Mg702 O710 2.238 . S
Mg702 O714 2.042 . S
Mg702 O716 2.041 . S
Mg702 O723 2.038 . S
C703 O709 1.247 . S
C703 O710 1.289 . S
C704 O722 1.245 . S
C704 O723 1.274 . S
O705 C693 1.241 . S
O705 Mg698 2.042 . S
O706 C693 1.280 . S
O706 Mg696 1.984 . S
O707 C694 1.277 . S
O707 Mg698 2.041 . S
O708 C694 1.245 . S
O708 Mg696 1.988 . S
O709 Mg696 2.061 . S
O709 C703 1.247 . S
O710 Mg699 2.106 . S
O710 Mg702 2.238 . S
O710 C703 1.289 . S
C711 O712 1.245 . S
C711 O713 1.274 . S
O712 Mg699 2.079 . S
O712 C711 1.245 . S
O713 Mg698 2.038 . S
O713 C711 1.274 . S
O714 Mg702 2.042 . S
O714 C717 1.241 . S
O715 Mg701 1.984 . S
O715 C717 1.280 . S
O716 Mg702 2.041 . S
O716 C720 1.277 . S
C717 O714 1.241 . S
C717 O715 1.280 . S
O718 Mg701 1.988 . S
O718 C720 1.245 . S
O719 C695 1.247 . S
O719 Mg701 2.061 . S
C720 O716 1.277 . S
C720 O718 1.245 . S
O721 C695 1.289 . S
O721 Mg698 2.238 . S
O721 Mg699 2.106 . S
O722 Mg699 2.079 . S
O722 C704 1.245 . S
O723 Mg702 2.038 . S
O723 C704 1.274 . S
H724 C732 0.929 . S
H725 C734 0.930 . S
H726 C736 0.930 . S
H727 C739 0.929 . S
H728 C742 0.930 . S
H729 C744 0.960 . S
H730 C744 0.960 . S
H731 C744 0.960 . S
C732 H724 0.929 . S
C732 C733 1.377 . S
C732 C734 1.384 . S
C733 C732 1.377 . S
C733 C739 1.390 . S
C734 H725 0.930 . S
C734 C732 1.384 . S
C734 C735 1.372 . S
C735 C734 1.372 . S
C735 C736 1.400 . S
C735 C740 1.490 . S
C736 H726 0.930 . S
C736 C735 1.400 . S
C736 C739 1.386 . S
H737 C753 0.930 . S
H738 C754 0.931 . S
C739 H727 0.929 . S
C739 C733 1.390 . S
C739 C736 1.386 . S
C740 C735 1.490 . S
C740 C742 1.395 . S
C740 C743 1.403 . S
H741 C747 0.930 . S
C742 H728 0.930 . S
C742 C740 1.395 . S
C742 C745 1.403 . S
C743 C740 1.403 . S
C743 C744 1.524 . S
C743 C747 1.400 . S
C744 H729 0.960 . S
C744 H730 0.960 . S
C744 H731 0.960 . S
C744 C743 1.524 . S
C745 C742 1.403 . S
C745 C746 1.392 . S
C745 C749 1.495 . S
C746 C745 1.392 . S
C746 C747 1.385 . S
C746 C748 1.478 . S
C747 H741 0.930 . S
C747 C743 1.400 . S
C747 C746 1.385 . S
C748 C746 1.478 . S
C748 C750 1.381 . S
C748 C754 1.383 . S
C749 C745 1.495 . S
C749 H755 0.959 . S
C749 H756 0.961 . S
C749 H757 0.960 . S
C750 C748 1.381 . S
C750 C751 1.394 . S
C750 H758 0.930 . S
C751 C750 1.394 . S
C751 C752 1.383 . S
C751 H759 0.929 . S
C752 C751 1.383 . S
C752 C753 1.377 . S
C753 H737 0.930 . S
C753 C752 1.377 . S
C753 C754 1.379 . S
C754 H738 0.931 . S
C754 C748 1.383 . S
C754 C753 1.379 . S
H755 C749 0.959 . S
H756 C749 0.961 . S
H757 C749 0.960 . S
H758 C750 0.930 . S
H759 C751 0.929 . S
H760 C768 0.929 . S
H761 C770 0.930 . S
H762 C772 0.930 . S
H763 C775 0.929 . S
H764 C778 0.930 . S
H765 C780 0.960 . S
H766 C780 0.960 . S
H767 C780 0.960 . S
C768 H760 0.929 . S
C768 C769 1.377 . S
C768 C770 1.384 . S
C769 C768 1.377 . S
C769 C775 1.390 . S
C770 H761 0.930 . S
C770 C768 1.384 . S
C770 C771 1.372 . S
C771 C770 1.372 . S
C771 C772 1.400 . S
C771 C776 1.490 . S
C772 H762 0.930 . S
C772 C771 1.400 . S
C772 C775 1.386 . S
H773 C789 0.930 . S
H774 C790 0.931 . S
C775 H763 0.929 . S
C775 C769 1.390 . S
C775 C772 1.386 . S
C776 C771 1.490 . S
C776 C778 1.395 . S
C776 C779 1.403 . S
H777 C783 0.930 . S
C778 H764 0.930 . S
C778 C776 1.395 . S
C778 C781 1.403 . S
C779 C776 1.403 . S
C779 C780 1.524 . S
C779 C783 1.400 . S
C780 H765 0.960 . S
C780 H766 0.960 . S
C780 H767 0.960 . S
C780 C779 1.524 . S
C781 C778 1.403 . S
C781 C782 1.392 . S
C781 C785 1.495 . S
C782 C781 1.392 . S
C782 C783 1.385 . S
C782 C784 1.478 . S
C783 H777 0.930 . S
C783 C779 1.400 . S
C783 C782 1.385 . S
C784 C782 1.478 . S
C784 C786 1.381 . S
C784 C790 1.383 . S
C785 C781 1.495 . S
C785 H791 0.959 . S
C785 H792 0.961 . S
C785 H793 0.960 . S
C786 C784 1.381 . S
C786 C787 1.394 . S
C786 H794 0.930 . S
C787 C786 1.394 . S
C787 C788 1.383 . S
C787 H795 0.929 . S
C788 C787 1.383 . S
C788 C789 1.377 . S
C789 H773 0.930 . S
C789 C788 1.377 . S
C789 C790 1.379 . S
C790 H774 0.931 . S
C790 C784 1.383 . S
C790 C789 1.379 . S
H791 C785 0.959 . S
H792 C785 0.961 . S
H793 C785 0.960 . S
H794 C786 0.930 . S
H795 C787 0.929 . S
H796 C804 0.929 . S
H797 C806 0.930 . S
H798 C808 0.930 . S
H799 C811 0.929 . S
H800 C814 0.930 . S
H801 C816 0.960 . S
H802 C816 0.960 . S
H803 C816 0.960 . S
C804 H796 0.929 . S
C804 C805 1.377 . S
C804 C806 1.384 . S
C805 C804 1.377 . S
C805 C811 1.390 . S
C806 H797 0.930 . S
C806 C804 1.384 . S
C806 C807 1.372 . S
C807 C806 1.372 . S
C807 C808 1.400 . S
C807 C812 1.490 . S
C808 H798 0.930 . S
C808 C807 1.400 . S
C808 C811 1.386 . S
H809 C825 0.930 . S
H810 C826 0.931 . S
C811 H799 0.929 . S
C811 C805 1.390 . S
C811 C808 1.386 . S
C812 C807 1.490 . S
C812 C814 1.395 . S
C812 C815 1.403 . S
H813 C819 0.930 . S
C814 H800 0.930 . S
C814 C812 1.395 . S
C814 C817 1.403 . S
C815 C812 1.403 . S
C815 C816 1.524 . S
C815 C819 1.400 . S
C816 H801 0.960 . S
C816 H802 0.960 . S
C816 H803 0.960 . S
C816 C815 1.524 . S
C817 C814 1.403 . S
C817 C818 1.392 . S
C817 C821 1.495 . S
C818 C817 1.392 . S
C818 C819 1.385 . S
C818 C820 1.478 . S
C819 H813 0.930 . S
C819 C815 1.400 . S
C819 C818 1.385 . S
C820 C818 1.478 . S
C820 C822 1.381 . S
C820 C826 1.383 . S
C821 C817 1.495 . S
C821 H827 0.959 1_655 S
C821 H828 0.961 . S
C821 H829 0.960 . S
C822 C820 1.381 . S
C822 C823 1.394 . S
C822 H830 0.930 . S
C823 C822 1.394 . S
C823 C824 1.383 . S
C823 H831 0.929 . S
C824 C823 1.383 . S
C824 C825 1.377 . S
C825 H809 0.930 . S
C825 C824 1.377 . S
C825 C826 1.379 . S
C826 H810 0.931 . S
C826 C820 1.383 . S
C826 C825 1.379 . S
H827 C821 0.959 1_455 S
H828 C821 0.961 . S
H829 C821 0.960 . S
H830 C822 0.930 . S
H831 C823 0.929 . S
H832 C840 0.929 . S
H833 C842 0.930 . S
H834 C844 0.930 . S
H835 C847 0.929 . S
H836 C850 0.930 . S
H837 C852 0.960 . S
H838 C852 0.960 . S
H839 C852 0.960 . S
C840 H832 0.929 . S
C840 C841 1.377 . S
C840 C842 1.384 . S
C841 C840 1.377 . S
C841 C847 1.390 . S
C842 H833 0.930 . S
C842 C840 1.384 . S
C842 C843 1.372 . S
C843 C842 1.372 . S
C843 C844 1.400 . S
C843 C848 1.490 . S
C844 H834 0.930 . S
C844 C843 1.400 . S
C844 C847 1.386 . S
H845 C861 0.930 . S
H846 C862 0.931 . S
C847 H835 0.929 . S
C847 C841 1.390 . S
C847 C844 1.386 . S
C848 C843 1.490 . S
C848 C850 1.395 . S
C848 C851 1.403 . S
H849 C855 0.930 . S
C850 H836 0.930 . S
C850 C848 1.395 . S
C850 C853 1.403 . S
C851 C848 1.403 . S
C851 C852 1.524 . S
C851 C855 1.400 . S
C852 H837 0.960 . S
C852 H838 0.960 . S
C852 H839 0.960 . S
C852 C851 1.524 . S
C853 C850 1.403 . S
C853 C854 1.392 . S
C853 C857 1.495 . S
C854 C853 1.392 . S
C854 C855 1.385 . S
C854 C856 1.478 . S
C855 H849 0.930 . S
C855 C851 1.400 . S
C855 C854 1.385 . S
C856 C854 1.478 . S
C856 C858 1.381 . S
C856 C862 1.383 . S
C857 C853 1.495 . S
C857 H863 0.959 . S
C857 H864 0.961 . S
C857 H865 0.960 . S
C858 C856 1.381 . S
C858 C859 1.394 . S
C858 H866 0.930 . S
C859 C858 1.394 . S
C859 C860 1.383 . S
C859 H867 0.929 . S
C860 C859 1.383 . S
C860 C861 1.377 . S
C861 H845 0.930 . S
C861 C860 1.377 . S
C861 C862 1.379 . S
C862 H846 0.931 . S
C862 C856 1.383 . S
C862 C861 1.379 . S
H863 C857 0.959 . S
H864 C857 0.961 . S
H865 C857 0.960 . S
H866 C858 0.930 . S
H867 C859 0.929 . S
H868 C876 0.929 . S
H869 C878 0.930 . S
H870 C880 0.930 . S
H871 C883 0.929 . S
H872 C886 0.930 . S
H873 C888 0.960 . S
H874 C888 0.960 . S
H875 C888 0.960 . S
C876 H868 0.929 . S
C876 C877 1.377 . S
C876 C878 1.384 . S
C877 C876 1.377 . S
C877 C883 1.390 . S
C878 H869 0.930 . S
C878 C876 1.384 . S
C878 C879 1.372 . S
C879 C878 1.372 . S
C879 C880 1.400 . S
C879 C884 1.490 . S
C880 H870 0.930 . S
C880 C879 1.400 . S
C880 C883 1.386 . S
H881 C897 0.930 . S
H882 C898 0.931 . S
C883 H871 0.929 . S
C883 C877 1.390 . S
C883 C880 1.386 . S
C884 C879 1.490 . S
C884 C886 1.395 . S
C884 C887 1.403 . S
H885 C891 0.930 . S
C886 H872 0.930 . S
C886 C884 1.395 . S
C886 C889 1.403 . S
C887 C884 1.403 . S
C887 C888 1.524 . S
C887 C891 1.400 . S
C888 H873 0.960 . S
C888 H874 0.960 . S
C888 H875 0.960 . S
C888 C887 1.524 . S
C889 C886 1.403 . S
C889 C890 1.392 . S
C889 C893 1.495 . S
C890 C889 1.392 . S
C890 C891 1.385 . S
C890 C892 1.478 . S
C891 H885 0.930 . S
C891 C887 1.400 . S
C891 C890 1.385 . S
C892 C890 1.478 . S
C892 C894 1.381 . S
C892 C898 1.383 . S
C893 C889 1.495 . S
C893 H899 0.959 . S
C893 H900 0.961 . S
C893 H901 0.960 . S
C894 C892 1.381 . S
C894 C895 1.394 . S
C894 H902 0.930 . S
C895 C894 1.394 . S
C895 C896 1.383 . S
C895 H903 0.929 . S
C896 C895 1.383 . S
C896 C897 1.377 . S
C897 H881 0.930 . S
C897 C896 1.377 . S
C897 C898 1.379 . S
C898 H882 0.931 . S
C898 C892 1.383 . S
C898 C897 1.379 . S
H899 C893 0.959 . S
H900 C893 0.961 . S
H901 C893 0.960 . S
H902 C894 0.930 . S
H903 C895 0.929 . S
H904 C912 0.929 . S
H905 C914 0.930 . S
H906 C916 0.930 . S
H907 C919 0.929 . S
H908 C922 0.930 . S
H909 C924 0.960 . S
H910 C924 0.960 . S
H911 C924 0.960 . S
C912 H904 0.929 . S
C912 C913 1.377 . S
C912 C914 1.384 . S
C913 C912 1.377 . S
C913 C919 1.390 . S
C914 H905 0.930 . S
C914 C912 1.384 . S
C914 C915 1.372 . S
C915 C914 1.372 . S
C915 C916 1.400 . S
C915 C920 1.490 . S
C916 H906 0.930 . S
C916 C915 1.400 . S
C916 C919 1.386 . S
H917 C933 0.930 . S
H918 C934 0.931 . S
C919 H907 0.929 . S
C919 C913 1.390 . S
C919 C916 1.386 . S
C920 C915 1.490 . S
C920 C922 1.395 . S
C920 C923 1.403 . S
H921 C927 0.930 . S
C922 H908 0.930 . S
C922 C920 1.395 . S
C922 C925 1.403 . S
C923 C920 1.403 . S
C923 C924 1.524 . S
C923 C927 1.400 . S
C924 H909 0.960 . S
C924 H910 0.960 . S
C924 H911 0.960 . S
C924 C923 1.524 . S
C925 C922 1.403 . S
C925 C926 1.392 . S
C925 C929 1.495 . S
C926 C925 1.392 . S
C926 C927 1.385 . S
C926 C928 1.478 . S
C927 H921 0.930 . S
C927 C923 1.400 . S
C927 C926 1.385 . S
C928 C926 1.478 . S
C928 C930 1.381 . S
C928 C934 1.383 . S
C929 C925 1.495 . S
C929 H935 0.959 . S
C929 H936 0.961 . S
C929 H937 0.960 . S
C930 C928 1.381 . S
C930 C931 1.394 . S
C930 H938 0.930 . S
C931 C930 1.394 . S
C931 C932 1.383 . S
C931 H939 0.929 . S
C932 C931 1.383 . S
C932 C933 1.377 . S
C933 H917 0.930 . S
C933 C932 1.377 . S
C933 C934 1.379 . S
C934 H918 0.931 . S
C934 C928 1.383 . S
C934 C933 1.379 . S
H935 C929 0.959 . S
H936 C929 0.961 . S
H937 C929 0.960 . S
H938 C930 0.930 . S
H939 C931 0.929 . S
H940 C948 0.929 . S
H941 C950 0.930 . S
H942 C952 0.930 . S
H943 C955 0.929 . S
H944 C958 0.930 . S
H945 C960 0.960 . S
H946 C960 0.960 . S
H947 C960 0.960 . S
C948 H940 0.929 . S
C948 C949 1.377 . S
C948 C950 1.384 . S
C949 C948 1.377 . S
C949 C955 1.390 . S
C950 H941 0.930 . S
C950 C948 1.384 . S
C950 C951 1.372 . S
C951 C950 1.372 . S
C951 C952 1.400 . S
C951 C956 1.490 . S
C952 H942 0.930 . S
C952 C951 1.400 . S
C952 C955 1.386 . S
H953 C969 0.930 . S
H954 C970 0.931 . S
C955 H943 0.929 . S
C955 C949 1.390 . S
C955 C952 1.386 . S
C956 C951 1.490 . S
C956 C958 1.395 . S
C956 C959 1.403 . S
H957 C963 0.930 . S
C958 H944 0.930 . S
C958 C956 1.395 . S
C958 C961 1.403 . S
C959 C956 1.403 . S
C959 C960 1.524 . S
C959 C963 1.400 . S
C960 H945 0.960 . S
C960 H946 0.960 . S
C960 H947 0.960 . S
C960 C959 1.524 . S
C961 C958 1.403 . S
C961 C962 1.392 . S
C961 C965 1.495 . S
C962 C961 1.392 . S
C962 C963 1.385 . S
C962 C964 1.478 . S
C963 H957 0.930 . S
C963 C959 1.400 . S
C963 C962 1.385 . S
C964 C962 1.478 . S
C964 C966 1.381 . S
C964 C970 1.383 . S
C965 C961 1.495 . S
C965 H971 0.959 . S
C965 H972 0.961 . S
C965 H973 0.960 . S
C966 C964 1.381 . S
C966 C967 1.394 . S
C966 H974 0.930 . S
C967 C966 1.394 . S
C967 C968 1.383 . S
C967 H975 0.929 . S
C968 C967 1.383 . S
C968 C969 1.377 . S
C969 H953 0.930 . S
C969 C968 1.377 . S
C969 C970 1.379 . S
C970 H954 0.931 . S
C970 C964 1.383 . S
C970 C969 1.379 . S
H971 C965 0.959 . S
H972 C965 0.961 . S
H973 C965 0.960 . S
H974 C966 0.930 . S
H975 C967 0.929 . S
H976 C984 0.929 . S
H977 C986 0.930 . S
H978 C988 0.930 . S
H979 C991 0.929 . S
H980 C994 0.930 . S
H981 C996 0.960 . S
H982 C996 0.960 . S
H983 C996 0.960 . S
C984 H976 0.929 . S
C984 C985 1.377 . S
C984 C986 1.384 . S
C985 C984 1.377 . S
C985 C991 1.390 . S
C986 H977 0.930 . S
C986 C984 1.384 . S
C986 C987 1.372 . S
C987 C986 1.372 . S
C987 C988 1.400 . S
C987 C992 1.490 . S
C988 H978 0.930 . S
C988 C987 1.400 . S
C988 C991 1.386 . S
H989 C1005 0.930 . S
H990 C1006 0.931 . S
C991 H979 0.929 . S
C991 C985 1.390 . S
C991 C988 1.386 . S
C992 C987 1.490 . S
C992 C994 1.395 . S
C992 C995 1.403 . S
H993 C999 0.930 . S
C994 H980 0.930 . S
C994 C992 1.395 . S
C994 C997 1.403 . S
C995 C992 1.403 . S
C995 C996 1.524 . S
C995 C999 1.400 . S
C996 H981 0.960 . S
C996 H982 0.960 . S
C996 H983 0.960 . S
C996 C995 1.524 . S
C997 C994 1.403 . S
C997 C998 1.392 . S
C997 C1001 1.495 . S
C998 C997 1.392 . S
C998 C999 1.385 . S
C998 C1000 1.478 . S
C999 H993 0.930 . S
C999 C995 1.400 . S
C999 C998 1.385 . S
C1000 C998 1.478 . S
C1000 C1002 1.381 . S
C1000 C1006 1.383 . S
C1001 C997 1.495 . S
C1001 H1007 0.959 . S
C1001 H1008 0.961 . S
C1001 H1009 0.960 . S
C1002 C1000 1.381 . S
C1002 C1003 1.394 . S
C1002 H1010 0.930 . S
C1003 C1002 1.394 . S
C1003 C1004 1.383 . S
C1003 H1011 0.929 . S
C1004 C1003 1.383 . S
C1004 C1005 1.377 . S
C1005 H989 0.930 . S
C1005 C1004 1.377 . S
C1005 C1006 1.379 . S
C1006 H990 0.931 . S
C1006 C1000 1.383 . S
C1006 C1005 1.379 . S
H1007 C1001 0.959 . S
H1008 C1001 0.961 . S
H1009 C1001 0.960 . S
H1010 C1002 0.930 . S
H1011 C1003 0.929 . S
H1012 C1020 0.929 . S
H1013 C1022 0.930 . S
H1014 C1024 0.930 . S
H1015 C1027 0.929 . S
H1016 C1030 0.930 . S
H1017 C1032 0.960 . S
H1018 C1032 0.960 . S
H1019 C1032 0.960 . S
C1020 H1012 0.929 . S
C1020 C1021 1.377 . S
C1020 C1022 1.384 . S
C1021 C1020 1.377 . S
C1021 C1027 1.390 . S
C1022 H1013 0.930 . S
C1022 C1020 1.384 . S
C1022 C1023 1.372 . S
C1023 C1022 1.372 . S
C1023 C1024 1.400 . S
C1023 C1028 1.490 . S
C1024 H1014 0.930 . S
C1024 C1023 1.400 . S
C1024 C1027 1.386 . S
H1025 C1041 0.930 . S
H1026 C1042 0.931 . S
C1027 H1015 0.929 . S
C1027 C1021 1.390 . S
C1027 C1024 1.386 . S
C1028 C1023 1.490 . S
C1028 C1030 1.395 . S
C1028 C1031 1.403 . S
H1029 C1035 0.930 . S
C1030 H1016 0.930 . S
C1030 C1028 1.395 . S
C1030 C1033 1.403 . S
C1031 C1028 1.403 . S
C1031 C1032 1.524 . S
C1031 C1035 1.400 . S
C1032 H1017 0.960 . S
C1032 H1018 0.960 . S
C1032 H1019 0.960 . S
C1032 C1031 1.524 . S
C1033 C1030 1.403 . S
C1033 C1034 1.392 . S
C1033 C1037 1.495 . S
C1034 C1033 1.392 . S
C1034 C1035 1.385 . S
C1034 C1036 1.478 . S
C1035 H1029 0.930 . S
C1035 C1031 1.400 . S
C1035 C1034 1.385 . S
C1036 C1034 1.478 . S
C1036 C1038 1.381 . S
C1036 C1042 1.383 . S
C1037 C1033 1.495 . S
C1037 H1043 0.959 . S
C1037 H1044 0.961 . S
C1037 H1045 0.960 . S
C1038 C1036 1.381 . S
C1038 C1039 1.394 . S
C1038 H1046 0.930 . S
C1039 C1038 1.394 . S
C1039 C1040 1.383 . S
C1039 H1047 0.929 . S
C1040 C1039 1.383 . S
C1040 C1041 1.377 . S
C1041 H1025 0.930 . S
C1041 C1040 1.377 . S
C1041 C1042 1.379 . S
C1042 H1026 0.931 . S
C1042 C1036 1.383 . S
C1042 C1041 1.379 . S
H1043 C1037 0.959 . S
H1044 C1037 0.961 . S
H1045 C1037 0.960 . S
H1046 C1038 0.930 . S
H1047 C1039 0.929 . S
H1048 C1056 0.929 . S
H1049 C1058 0.930 . S
H1050 C1060 0.930 . S
H1051 C1063 0.929 . S
H1052 C1066 0.930 . S
H1053 C1068 0.960 . S
H1054 C1068 0.960 . S
H1055 C1068 0.960 . S
C1056 H1048 0.929 . S
C1056 C1057 1.377 . S
C1056 C1058 1.384 . S
C1057 C1056 1.377 . S
C1057 C1063 1.390 . S
C1058 H1049 0.930 . S
C1058 C1056 1.384 . S
C1058 C1059 1.372 . S
C1059 C1058 1.372 . S
C1059 C1060 1.400 . S
C1059 C1064 1.490 . S
C1060 H1050 0.930 . S
C1060 C1059 1.400 . S
C1060 C1063 1.386 . S
H1061 C1077 0.930 . S
H1062 C1078 0.931 . S
C1063 H1051 0.929 . S
C1063 C1057 1.390 . S
C1063 C1060 1.386 . S
C1064 C1059 1.490 . S
C1064 C1066 1.395 . S
C1064 C1067 1.403 . S
H1065 C1071 0.930 . S
C1066 H1052 0.930 . S
C1066 C1064 1.395 . S
C1066 C1069 1.403 . S
C1067 C1064 1.403 . S
C1067 C1068 1.524 . S
C1067 C1071 1.400 . S
C1068 H1053 0.960 . S
C1068 H1054 0.960 . S
C1068 H1055 0.960 . S
C1068 C1067 1.524 . S
C1069 C1066 1.403 . S
C1069 C1070 1.392 . S
C1069 C1073 1.495 . S
C1070 C1069 1.392 . S
C1070 C1071 1.385 . S
C1070 C1072 1.478 . S
C1071 H1065 0.930 . S
C1071 C1067 1.400 . S
C1071 C1070 1.385 . S
C1072 C1070 1.478 . S
C1072 C1074 1.381 1_545 S
C1072 C1078 1.383 . S
C1073 C1069 1.495 . S
C1073 H1079 0.959 . S
C1073 H1080 0.961 . S
C1073 H1081 0.960 1_545 S
C1074 C1072 1.381 1_565 S
C1074 C1075 1.394 . S
C1074 H1082 0.930 . S
C1075 C1074 1.394 . S
C1075 C1076 1.383 . S
C1075 H1083 0.929 . S
C1076 C1075 1.383 . S
C1076 C1077 1.377 . S
C1077 H1061 0.930 . S
C1077 C1076 1.377 . S
C1077 C1078 1.379 1_565 S
C1078 H1062 0.931 . S
C1078 C1072 1.383 . S
C1078 C1077 1.379 1_545 S
H1079 C1073 0.959 . S
H1080 C1073 0.961 . S
H1081 C1073 0.960 1_565 S
H1082 C1074 0.930 . S
H1083 C1075 0.929 . S
H1084 C1092 0.929 . S
H1085 C1094 0.930 . S
H1086 C1096 0.930 . S
H1087 C1099 0.929 . S
H1088 C1102 0.930 . S
H1089 C1104 0.960 . S
H1090 C1104 0.960 . S
H1091 C1104 0.960 . S
C1092 H1084 0.929 . S
C1092 C1093 1.377 . S
C1092 C1094 1.384 . S
C1093 C1092 1.377 . S
C1093 C1099 1.390 . S
C1094 H1085 0.930 . S
C1094 C1092 1.384 . S
C1094 C1095 1.372 . S
C1095 C1094 1.372 . S
C1095 C1096 1.400 . S
C1095 C1100 1.490 . S
C1096 H1086 0.930 . S
C1096 C1095 1.400 . S
C1096 C1099 1.386 . S
H1097 C1113 0.930 . S
H1098 C1114 0.931 . S
C1099 H1087 0.929 . S
C1099 C1093 1.390 . S
C1099 C1096 1.386 . S
C1100 C1095 1.490 . S
C1100 C1102 1.395 . S
C1100 C1103 1.403 . S
H1101 C1107 0.930 . S
C1102 H1088 0.930 . S
C1102 C1100 1.395 . S
C1102 C1105 1.403 . S
C1103 C1100 1.403 . S
C1103 C1104 1.524 . S
C1103 C1107 1.400 . S
C1104 H1089 0.960 . S
C1104 H1090 0.960 . S
C1104 H1091 0.960 . S
C1104 C1103 1.524 . S
C1105 C1102 1.403 . S
C1105 C1106 1.392 . S
C1105 C1109 1.495 . S
C1106 C1105 1.392 . S
C1106 C1107 1.385 . S
C1106 C1108 1.478 . S
C1107 H1101 0.930 . S
C1107 C1103 1.400 . S
C1107 C1106 1.385 . S
C1108 C1106 1.478 . S
C1108 C1110 1.381 . S
C1108 C1114 1.383 . S
C1109 C1105 1.495 . S
C1109 H1115 0.959 . S
C1109 H1116 0.961 . S
C1109 H1117 0.960 . S
C1110 C1108 1.381 . S
C1110 C1111 1.394 . S
C1110 H1118 0.930 . S
C1111 C1110 1.394 . S
C1111 C1112 1.383 . S
C1111 H1119 0.929 . S
C1112 C1111 1.383 . S
C1112 C1113 1.377 . S
C1113 H1097 0.930 . S
C1113 C1112 1.377 . S
C1113 C1114 1.379 . S
C1114 H1098 0.931 . S
C1114 C1108 1.383 . S
C1114 C1113 1.379 . S
H1115 C1109 0.959 . S
H1116 C1109 0.961 . S
H1117 C1109 0.960 . S
H1118 C1110 0.930 . S
H1119 C1111 0.929 . S
H1120 C1128 0.929 . S
H1121 C1130 0.930 . S
H1122 C1132 0.930 . S
H1123 C1135 0.929 . S
H1124 C1138 0.930 . S
H1125 C1140 0.960 . S
H1126 C1140 0.960 . S
H1127 C1140 0.960 . S
C1128 H1120 0.929 . S
C1128 C1129 1.377 . S
C1128 C1130 1.384 . S
C1129 C1128 1.377 . S
C1129 C1135 1.390 . S
C1130 H1121 0.930 . S
C1130 C1128 1.384 . S
C1130 C1131 1.372 . S
C1131 C1130 1.372 . S
C1131 C1132 1.400 . S
C1131 C1136 1.490 . S
C1132 H1122 0.930 . S
C1132 C1131 1.400 . S
C1132 C1135 1.386 . S
H1133 C1149 0.930 . S
H1134 C1150 0.931 . S
C1135 H1123 0.929 . S
C1135 C1129 1.390 . S
C1135 C1132 1.386 . S
C1136 C1131 1.490 . S
C1136 C1138 1.395 . S
C1136 C1139 1.403 . S
H1137 C1143 0.930 . S
C1138 H1124 0.930 . S
C1138 C1136 1.395 . S
C1138 C1141 1.403 . S
C1139 C1136 1.403 . S
C1139 C1140 1.524 . S
C1139 C1143 1.400 . S
C1140 H1125 0.960 . S
C1140 H1126 0.960 . S
C1140 H1127 0.960 . S
C1140 C1139 1.524 . S
C1141 C1138 1.403 . S
C1141 C1142 1.392 . S
C1141 C1145 1.495 . S
C1142 C1141 1.392 . S
C1142 C1143 1.385 . S
C1142 C1144 1.478 . S
C1143 H1137 0.930 . S
C1143 C1139 1.400 . S
C1143 C1142 1.385 . S
C1144 C1142 1.478 . S
C1144 C1146 1.381 . S
C1144 C1150 1.383 . S
C1145 C1141 1.495 . S
C1145 H1151 0.959 . S
C1145 H1152 0.961 . S
C1145 H1153 0.960 . S
C1146 C1144 1.381 . S
C1146 C1147 1.394 . S
C1146 H1154 0.930 . S
C1147 C1146 1.394 . S
C1147 C1148 1.383 . S
C1147 H1155 0.929 . S
C1148 C1147 1.383 . S
C1148 C1149 1.377 . S
C1149 H1133 0.930 . S
C1149 C1148 1.377 . S
C1149 C1150 1.379 . S
C1150 H1134 0.931 . S
C1150 C1144 1.383 . S
C1150 C1149 1.379 . S
H1151 C1145 0.959 . S
H1152 C1145 0.961 . S
H1153 C1145 0.960 . S
H1154 C1146 0.930 . S
H1155 C1147 0.929 . S
H1156 C1164 0.929 . S
H1157 C1166 0.930 . S
H1158 C1168 0.930 . S
H1159 C1171 0.929 . S
H1160 C1174 0.930 . S
H1161 C1176 0.960 . S
H1162 C1176 0.960 . S
H1163 C1176 0.960 . S
C1164 H1156 0.929 . S
C1164 C1165 1.377 . S
C1164 C1166 1.384 . S
C1165 C1164 1.377 . S
C1165 C1171 1.390 . S
C1166 H1157 0.930 . S
C1166 C1164 1.384 . S
C1166 C1167 1.372 . S
C1167 C1166 1.372 . S
C1167 C1168 1.400 . S
C1167 C1172 1.490 . S
C1168 H1158 0.930 . S
C1168 C1167 1.400 . S
C1168 C1171 1.386 . S
H1169 C1185 0.930 . S
H1170 C1186 0.931 . S
C1171 H1159 0.929 . S
C1171 C1165 1.390 . S
C1171 C1168 1.386 . S
C1172 C1167 1.490 . S
C1172 C1174 1.395 . S
C1172 C1175 1.403 . S
H1173 C1179 0.930 . S
C1174 H1160 0.930 . S
C1174 C1172 1.395 . S
C1174 C1177 1.403 . S
C1175 C1172 1.403 . S
C1175 C1176 1.524 . S
C1175 C1179 1.400 . S
C1176 H1161 0.960 . S
C1176 H1162 0.960 . S
C1176 H1163 0.960 . S
C1176 C1175 1.524 . S
C1177 C1174 1.403 . S
C1177 C1178 1.392 . S
C1177 C1181 1.495 . S
C1178 C1177 1.392 . S
C1178 C1179 1.385 . S
C1178 C1180 1.478 . S
C1179 H1173 0.930 . S
C1179 C1175 1.400 . S
C1179 C1178 1.385 . S
C1180 C1178 1.478 . S
C1180 C1182 1.381 . S
C1180 C1186 1.383 . S
C1181 C1177 1.495 . S
C1181 H1187 0.959 . S
C1181 H1188 0.961 . S
C1181 H1189 0.960 . S
C1182 C1180 1.381 . S
C1182 C1183 1.394 . S
C1182 H1190 0.930 . S
C1183 C1182 1.394 . S
C1183 C1184 1.383 . S
C1183 H1191 0.929 . S
C1184 C1183 1.383 . S
C1184 C1185 1.377 . S
C1185 H1169 0.930 . S
C1185 C1184 1.377 . S
C1185 C1186 1.379 . S
C1186 H1170 0.931 . S
C1186 C1180 1.383 . S
C1186 C1185 1.379 . S
H1187 C1181 0.959 . S
H1188 C1181 0.961 . S
H1189 C1181 0.960 . S
H1190 C1182 0.930 . S
H1191 C1183 0.929 . S
H1192 C1200 0.929 . S
H1193 C1202 0.930 . S
H1194 C1204 0.930 . S
H1195 C1207 0.929 . S
H1196 C1210 0.930 . S
H1197 C1212 0.960 . S
H1198 C1212 0.960 . S
H1199 C1212 0.960 . S
C1200 H1192 0.929 . S
C1200 C1201 1.377 . S
C1200 C1202 1.384 . S
C1201 C1200 1.377 . S
C1201 C1207 1.390 . S
C1202 H1193 0.930 . S
C1202 C1200 1.384 . S
C1202 C1203 1.372 . S
C1203 C1202 1.372 . S
C1203 C1204 1.400 . S
C1203 C1208 1.490 . S
C1204 H1194 0.930 . S
C1204 C1203 1.400 . S
C1204 C1207 1.386 . S
H1205 C1221 0.930 . S
H1206 C1222 0.931 . S
C1207 H1195 0.929 . S
C1207 C1201 1.390 . S
C1207 C1204 1.386 . S
C1208 C1203 1.490 . S
C1208 C1210 1.395 . S
C1208 C1211 1.403 . S
H1209 C1215 0.930 . S
C1210 H1196 0.930 . S
C1210 C1208 1.395 . S
C1210 C1213 1.403 . S
C1211 C1208 1.403 . S
C1211 C1212 1.524 . S
C1211 C1215 1.400 . S
C1212 H1197 0.960 . S
C1212 H1198 0.960 . S
C1212 H1199 0.960 . S
C1212 C1211 1.524 . S
C1213 C1210 1.403 . S
C1213 C1214 1.392 . S
C1213 C1217 1.495 . S
C1214 C1213 1.392 . S
C1214 C1215 1.385 . S
C1214 C1216 1.478 . S
C1215 H1209 0.930 . S
C1215 C1211 1.400 . S
C1215 C1214 1.385 . S
C1216 C1214 1.478 . S
C1216 C1218 1.381 1_545 S
C1216 C1222 1.383 . S
C1217 C1213 1.495 . S
C1217 H1223 0.959 . S
C1217 H1224 0.961 . S
C1217 H1225 0.962 1_545 S
C1218 C1216 1.381 1_565 S
C1218 C1219 1.394 . S
C1218 H1226 0.930 . S
C1219 C1218 1.394 . S
C1219 C1220 1.383 . S
C1219 H1227 0.929 . S
C1220 C1219 1.383 . S
C1220 C1221 1.377 . S
C1221 H1205 0.930 . S
C1221 C1220 1.377 . S
C1221 C1222 1.379 1_565 S
C1222 H1206 0.931 . S
C1222 C1216 1.383 . S
C1222 C1221 1.379 1_545 S
H1223 C1217 0.959 . S
H1224 C1217 0.961 . S
H1225 C1217 0.962 1_565 S
H1226 C1218 0.930 . S
H1227 C1219 0.929 . S
H1228 C1236 0.929 . S
H1229 C1238 0.930 . S
H1230 C1240 0.930 . S
H1231 C1243 0.929 . S
H1232 C1246 0.930 . S
H1233 C1248 0.960 . S
H1234 C1248 0.960 . S
H1235 C1248 0.960 . S
C1236 H1228 0.929 . S
C1236 C1237 1.377 . S
C1236 C1238 1.384 . S
C1237 C1236 1.377 . S
C1237 C1243 1.390 . S
C1238 H1229 0.930 . S
C1238 C1236 1.384 . S
C1238 C1239 1.372 . S
C1239 C1238 1.372 . S
C1239 C1240 1.400 . S
C1239 C1244 1.490 . S
C1240 H1230 0.930 . S
C1240 C1239 1.400 . S
C1240 C1243 1.386 . S
H1241 C1257 0.930 . S
H1242 C1258 0.931 . S
C1243 H1231 0.929 . S
C1243 C1237 1.390 . S
C1243 C1240 1.386 . S
C1244 C1239 1.490 . S
C1244 C1246 1.395 . S
C1244 C1247 1.403 . S
H1245 C1251 0.930 . S
C1246 H1232 0.930 . S
C1246 C1244 1.395 . S
C1246 C1249 1.403 . S
C1247 C1244 1.403 . S
C1247 C1248 1.524 . S
C1247 C1251 1.400 . S
C1248 H1233 0.960 . S
C1248 H1234 0.960 . S
C1248 H1235 0.960 . S
C1248 C1247 1.524 . S
C1249 C1246 1.403 . S
C1249 C1250 1.392 . S
C1249 C1253 1.495 . S
C1250 C1249 1.392 . S
C1250 C1251 1.385 . S
C1250 C1252 1.478 . S
C1251 H1245 0.930 . S
C1251 C1247 1.400 . S
C1251 C1250 1.385 . S
C1252 C1250 1.478 . S
C1252 C1254 1.381 . S
C1252 C1258 1.383 . S
C1253 C1249 1.495 . S
C1253 H1259 0.959 . S
C1253 H1260 0.961 . S
C1253 H1261 0.960 . S
C1254 C1252 1.381 . S
C1254 C1255 1.394 . S
C1254 H1262 0.930 . S
C1255 C1254 1.394 . S
C1255 C1256 1.383 . S
C1255 H1263 0.929 . S
C1256 C1255 1.383 . S
C1256 C1257 1.377 . S
C1257 H1241 0.930 . S
C1257 C1256 1.377 . S
C1257 C1258 1.379 . S
C1258 H1242 0.931 . S
C1258 C1252 1.383 . S
C1258 C1257 1.379 . S
H1259 C1253 0.959 . S
H1260 C1253 0.961 . S
H1261 C1253 0.960 . S
H1262 C1254 0.930 . S
H1263 C1255 0.929 . S
H1264 C1272 0.929 . S
H1265 C1274 0.930 . S
H1266 C1276 0.930 . S
H1267 C1279 0.929 . S
H1268 C1282 0.930 . S
H1269 C1284 0.960 . S
H1270 C1284 0.960 . S
H1271 C1284 0.960 . S
C1272 H1264 0.929 . S
C1272 C1273 1.377 . S
C1272 C1274 1.384 . S
C1273 C1272 1.377 . S
C1273 C1279 1.390 . S
C1274 H1265 0.930 . S
C1274 C1272 1.384 . S
C1274 C1275 1.372 . S
C1275 C1274 1.372 . S
C1275 C1276 1.400 . S
C1275 C1280 1.490 . S
C1276 H1266 0.930 . S
C1276 C1275 1.400 . S
C1276 C1279 1.386 . S
H1277 C1293 0.930 . S
H1278 C1294 0.931 . S
C1279 H1267 0.929 . S
C1279 C1273 1.390 . S
C1279 C1276 1.386 . S
C1280 C1275 1.490 . S
C1280 C1282 1.395 . S
C1280 C1283 1.403 . S
H1281 C1287 0.930 . S
C1282 H1268 0.930 . S
C1282 C1280 1.395 . S
C1282 C1285 1.403 . S
C1283 C1280 1.403 . S
C1283 C1284 1.524 . S
C1283 C1287 1.400 . S
C1284 H1269 0.960 . S
C1284 H1270 0.960 . S
C1284 H1271 0.960 . S
C1284 C1283 1.524 . S
C1285 C1282 1.403 . S
C1285 C1286 1.392 . S
C1285 C1289 1.495 . S
C1286 C1285 1.392 . S
C1286 C1287 1.385 . S
C1286 C1288 1.478 . S
C1287 H1281 0.930 . S
C1287 C1283 1.400 . S
C1287 C1286 1.385 . S
C1288 C1286 1.478 . S
C1288 C1290 1.381 . S
C1288 C1294 1.383 . S
C1289 C1285 1.495 . S
C1289 H1295 0.959 . S
C1289 H1296 0.961 . S
C1289 H1297 0.960 . S
C1290 C1288 1.381 . S
C1290 C1291 1.394 . S
C1290 H1298 0.930 . S
C1291 C1290 1.394 . S
C1291 C1292 1.383 . S
C1291 H1299 0.929 . S
C1292 C1291 1.383 . S
C1292 C1293 1.377 . S
C1293 H1277 0.930 . S
C1293 C1292 1.377 . S
C1293 C1294 1.379 . S
C1294 H1278 0.931 . S
C1294 C1288 1.383 . S
C1294 C1293 1.379 . S
H1295 C1289 0.959 . S
H1296 C1289 0.961 . S
H1297 C1289 0.960 . S
H1298 C1290 0.930 . S
H1299 C1291 0.929 . S
H1300 C1308 0.929 . S
H1301 C1310 0.930 . S
H1302 C1312 0.930 . S
H1303 C1315 0.929 . S
H1304 C1318 0.930 1_556 S
H1305 C1320 0.960 . S
H1306 C1320 0.960 . S
H1307 C1320 0.960 . S
C1308 H1300 0.929 . S
C1308 C1309 1.377 . S
C1308 C1310 1.384 . S
C1309 C1308 1.377 . S
C1309 C1315 1.390 . S
C1310 H1301 0.930 . S
C1310 C1308 1.384 . S
C1310 C1311 1.372 . S
C1311 C1310 1.372 . S
C1311 C1312 1.400 . S
C1311 C1316 1.490 . S
C1312 H1302 0.930 . S
C1312 C1311 1.400 . S
C1312 C1315 1.386 . S
H1313 C1329 0.930 1_554 S
H1314 C1330 0.931 . S
C1315 H1303 0.929 . S
C1315 C1309 1.390 . S
C1315 C1312 1.386 . S
C1316 C1311 1.490 . S
C1316 C1318 1.395 . S
C1316 C1319 1.403 . S
H1317 C1323 0.930 . S
C1318 H1304 0.930 1_554 S
C1318 C1316 1.395 . S
C1318 C1321 1.403 1_554 S
C1319 C1316 1.403 . S
C1319 C1320 1.524 . S
C1319 C1323 1.400 . S
C1320 H1305 0.960 . S
C1320 H1306 0.960 . S
C1320 H1307 0.960 . S
C1320 C1319 1.524 . S
C1321 C1318 1.403 1_556 S
C1321 C1322 1.392 1_556 S
C1321 C1325 1.495 . S
C1322 C1321 1.392 1_554 S
C1322 C1323 1.385 . S
C1322 C1324 1.478 1_554 S
C1323 H1317 0.930 . S
C1323 C1319 1.400 . S
C1323 C1322 1.385 . S
C1324 C1322 1.478 1_556 S
C1324 C1326 1.381 . S
C1324 C1330 1.383 1_556 S
C1325 C1321 1.495 . S
C1325 H1331 0.959 . S
C1325 H1332 0.961 . S
C1325 H1333 0.960 . S
C1326 C1324 1.381 . S
C1326 C1327 1.394 . S
C1326 H1334 0.930 . S
C1327 C1326 1.394 . S
C1327 C1328 1.383 . S
C1327 H1335 0.929 . S
C1328 C1327 1.383 . S
C1328 C1329 1.377 . S
C1329 H1313 0.930 1_556 S
C1329 C1328 1.377 . S
C1329 C1330 1.379 1_556 S
C1330 H1314 0.931 . S
C1330 C1324 1.383 1_554 S
C1330 C1329 1.379 1_554 S
H1331 C1325 0.959 . S
H1332 C1325 0.961 . S
H1333 C1325 0.960 . S
H1334 C1326 0.930 . S
H1335 C1327 0.929 . S
H1336 C1344 0.929 . S
H1337 C1346 0.930 . S
H1338 C1348 0.930 . S
H1339 C1351 0.929 . S
H1340 C1354 0.930 . S
H1341 C1356 0.960 . S
H1342 C1356 0.960 . S
H1343 C1356 0.960 . S
C1344 H1336 0.929 . S
C1344 C1345 1.377 . S
C1344 C1346 1.384 . S
C1345 C1344 1.377 . S
C1345 C1351 1.390 . S
C1346 H1337 0.930 . S
C1346 C1344 1.384 . S
C1346 C1347 1.372 . S
C1347 C1346 1.372 . S
C1347 C1348 1.400 . S
C1347 C1352 1.490 . S
C1348 H1338 0.930 . S
C1348 C1347 1.400 . S
C1348 C1351 1.386 . S
H1349 C1365 0.930 . S
H1350 C1366 0.931 . S
C1351 H1339 0.929 . S
C1351 C1345 1.390 . S
C1351 C1348 1.386 . S
C1352 C1347 1.490 . S
C1352 C1354 1.395 . S
C1352 C1355 1.403 . S
H1353 C1359 0.930 . S
C1354 H1340 0.930 . S
C1354 C1352 1.395 . S
C1354 C1357 1.403 . S
C1355 C1352 1.403 . S
C1355 C1356 1.524 . S
C1355 C1359 1.400 . S
C1356 H1341 0.960 . S
C1356 H1342 0.960 . S
C1356 H1343 0.960 . S
C1356 C1355 1.524 . S
C1357 C1354 1.403 . S
C1357 C1358 1.392 . S
C1357 C1361 1.495 . S
C1358 C1357 1.392 . S
C1358 C1359 1.385 . S
C1358 C1360 1.478 . S
C1359 H1353 0.930 . S
C1359 C1355 1.400 . S
C1359 C1358 1.385 . S
C1360 C1358 1.478 . S
C1360 C1362 1.381 . S
C1360 C1366 1.383 . S
C1361 C1357 1.495 . S
C1361 H1367 0.959 . S
C1361 H1368 0.961 . S
C1361 H1369 0.960 . S
C1362 C1360 1.381 . S
C1362 C1363 1.394 . S
C1362 H1370 0.930 . S
C1363 C1362 1.394 . S
C1363 C1364 1.383 . S
C1363 H1371 0.929 . S
C1364 C1363 1.383 . S
C1364 C1365 1.377 . S
C1365 H1349 0.930 . S
C1365 C1364 1.377 . S
C1365 C1366 1.379 . S
C1366 H1350 0.931 . S
C1366 C1360 1.383 . S
C1366 C1365 1.379 . S
H1367 C1361 0.959 . S
H1368 C1361 0.961 . S
H1369 C1361 0.960 . S
H1370 C1362 0.930 . S
H1371 C1363 0.929 . S
H1372 C1380 0.929 . S
H1373 C1382 0.930 . S
H1374 C1384 0.930 . S
H1375 C1387 0.929 . S
H1376 C1390 0.930 . S
H1377 C1392 0.960 . S
H1378 C1392 0.960 . S
H1379 C1392 0.960 . S
C1380 H1372 0.929 . S
C1380 C1381 1.377 . S
C1380 C1382 1.384 . S
C1381 C1380 1.377 . S
C1381 C1387 1.390 . S
C1382 H1373 0.930 . S
C1382 C1380 1.384 . S
C1382 C1383 1.372 . S
C1383 C1382 1.372 . S
C1383 C1384 1.400 . S
C1383 C1388 1.490 . S
C1384 H1374 0.930 . S
C1384 C1383 1.400 . S
C1384 C1387 1.386 . S
H1385 C1401 0.930 . S
H1386 C1402 0.931 . S
C1387 H1375 0.929 . S
C1387 C1381 1.390 . S
C1387 C1384 1.386 . S
C1388 C1383 1.490 . S
C1388 C1390 1.395 . S
C1388 C1391 1.403 . S
H1389 C1395 0.930 . S
C1390 H1376 0.930 . S
C1390 C1388 1.395 . S
C1390 C1393 1.403 . S
C1391 C1388 1.403 . S
C1391 C1392 1.524 . S
C1391 C1395 1.400 . S
C1392 H1377 0.960 . S
C1392 H1378 0.960 . S
C1392 H1379 0.960 . S
C1392 C1391 1.524 . S
C1393 C1390 1.403 . S
C1393 C1394 1.392 . S
C1393 C1397 1.495 . S
C1394 C1393 1.392 . S
C1394 C1395 1.385 . S
C1394 C1396 1.478 . S
C1395 H1389 0.930 . S
C1395 C1391 1.400 . S
C1395 C1394 1.385 . S
C1396 C1394 1.478 . S
C1396 C1398 1.381 . S
C1396 C1402 1.383 . S
C1397 C1393 1.495 . S
C1397 H1403 0.959 . S
C1397 H1404 0.961 . S
C1397 H1405 0.960 . S
C1398 C1396 1.381 . S
C1398 C1399 1.394 . S
C1398 H1406 0.930 . S
C1399 C1398 1.394 . S
C1399 C1400 1.383 . S
C1399 H1407 0.929 . S
C1400 C1399 1.383 . S
C1400 C1401 1.377 . S
C1401 H1385 0.930 . S
C1401 C1400 1.377 . S
C1401 C1402 1.379 . S
C1402 H1386 0.931 . S
C1402 C1396 1.383 . S
C1402 C1401 1.379 . S
H1403 C1397 0.959 . S
H1404 C1397 0.961 . S
H1405 C1397 0.960 . S
H1406 C1398 0.930 . S
H1407 C1399 0.929 . S
H1408 C1416 0.929 . S
H1409 C1418 0.930 . S
H1410 C1420 0.930 . S
H1411 C1423 0.929 . S
H1412 C1426 0.930 . S
H1413 C1428 0.960 . S
H1414 C1428 0.960 . S
H1415 C1428 0.960 . S
C1416 H1408 0.929 . S
C1416 C1417 1.377 . S
C1416 C1418 1.384 . S
C1417 C1416 1.377 . S
C1417 C1423 1.390 . S
C1418 H1409 0.930 . S
C1418 C1416 1.384 . S
C1418 C1419 1.372 . S
C1419 C1418 1.372 . S
C1419 C1420 1.400 . S
C1419 C1424 1.490 . S
C1420 H1410 0.930 . S
C1420 C1419 1.400 . S
C1420 C1423 1.386 . S
H1421 C1437 0.930 . S
H1422 C1438 0.931 . S
C1423 H1411 0.929 . S
C1423 C1417 1.390 . S
C1423 C1420 1.386 . S
C1424 C1419 1.490 . S
C1424 C1426 1.395 . S
C1424 C1427 1.403 . S
H1425 C1431 0.930 . S
C1426 H1412 0.930 . S
C1426 C1424 1.395 . S
C1426 C1429 1.403 . S
C1427 C1424 1.403 . S
C1427 C1428 1.524 . S
C1427 C1431 1.400 . S
C1428 H1413 0.960 . S
C1428 H1414 0.960 . S
C1428 H1415 0.960 . S
C1428 C1427 1.524 . S
C1429 C1426 1.403 . S
C1429 C1430 1.392 . S
C1429 C1433 1.495 . S
C1430 C1429 1.392 . S
C1430 C1431 1.385 . S
C1430 C1432 1.478 . S
C1431 H1425 0.930 . S
C1431 C1427 1.400 . S
C1431 C1430 1.385 . S
C1432 C1430 1.478 . S
C1432 C1434 1.381 . S
C1432 C1438 1.383 . S
C1433 C1429 1.495 . S
C1433 H1439 0.959 . S
C1433 H1440 0.961 . S
C1433 H1441 0.960 . S
C1434 C1432 1.381 . S
C1434 C1435 1.394 . S
C1434 H1442 0.930 . S
C1435 C1434 1.394 . S
C1435 C1436 1.383 . S
C1435 H1443 0.929 . S
C1436 C1435 1.383 . S
C1436 C1437 1.377 . S
C1437 H1421 0.930 . S
C1437 C1436 1.377 . S
C1437 C1438 1.379 . S
C1438 H1422 0.931 . S
C1438 C1432 1.383 . S
C1438 C1437 1.379 . S
H1439 C1433 0.959 . S
H1440 C1433 0.961 . S
H1441 C1433 0.960 . S
H1442 C1434 0.930 . S
H1443 C1435 0.929 . S
H1444 C1452 0.929 . S
H1445 C1454 0.930 . S
H1446 C1456 0.930 . S
H1447 C1459 0.929 . S
H1448 C1462 0.930 . S
H1449 C1464 0.960 . S
H1450 C1464 0.960 . S
H1451 C1464 0.960 . S
C1452 H1444 0.929 . S
C1452 C1453 1.377 . S
C1452 C1454 1.384 . S
C1453 C1452 1.377 . S
C1453 C1459 1.390 . S
C1454 H1445 0.930 . S
C1454 C1452 1.384 . S
C1454 C1455 1.372 . S
C1455 C1454 1.372 . S
C1455 C1456 1.400 . S
C1455 C1460 1.490 . S
C1456 H1446 0.930 . S
C1456 C1455 1.400 . S
C1456 C1459 1.386 . S
H1457 C1473 0.930 . S
H1458 C1474 0.931 . S
C1459 H1447 0.929 . S
C1459 C1453 1.390 . S
C1459 C1456 1.386 . S
C1460 C1455 1.490 . S
C1460 C1462 1.395 . S
C1460 C1463 1.403 . S
H1461 C1467 0.930 . S
C1462 H1448 0.930 . S
C1462 C1460 1.395 . S
C1462 C1465 1.403 . S
C1463 C1460 1.403 . S
C1463 C1464 1.524 . S
C1463 C1467 1.400 . S
C1464 H1449 0.960 . S
C1464 H1450 0.960 . S
C1464 H1451 0.960 . S
C1464 C1463 1.524 . S
C1465 C1462 1.403 . S
C1465 C1466 1.392 . S
C1465 C1469 1.495 . S
C1466 C1465 1.392 . S
C1466 C1467 1.385 . S
C1466 C1468 1.497 . S
C1467 H1461 0.930 . S
C1467 C1463 1.400 . S
C1467 C1466 1.385 . S
C1468 C1466 1.497 . S
C1468 C1470 1.374 1_655 S
C1468 C1474 1.371 1_655 S
C1469 C1465 1.495 . S
C1469 H1475 0.959 . S
C1469 H1476 0.961 1_655 S
C1469 H1477 0.960 . S
C1470 C1468 1.374 1_455 S
C1470 C1471 1.394 . S
C1470 H1478 0.930 1_455 S
C1471 C1470 1.394 . S
C1471 C1472 1.383 . S
C1471 H1479 0.929 . S
C1472 C1471 1.383 . S
C1472 C1473 1.377 . S
C1473 H1457 0.930 . S
C1473 C1472 1.377 . S
C1473 C1474 1.379 . S
C1474 H1458 0.931 . S
C1474 C1468 1.371 1_455 S
C1474 C1473 1.379 . S
H1475 C1469 0.959 . S
H1476 C1469 0.961 1_455 S
H1477 C1469 0.960 . S
H1478 C1470 0.930 1_655 S
H1479 C1471 0.929 . S
H1480 C1488 0.929 . S
H1481 C1490 0.930 . S
H1482 C1492 0.930 . S
H1483 C1495 0.929 . S
H1484 C1498 0.930 . S
H1485 C1500 0.960 . S
H1486 C1500 0.960 . S
H1487 C1500 0.960 . S
C1488 H1480 0.929 . S
C1488 C1489 1.377 . S
C1488 C1490 1.384 . S
C1489 C1488 1.377 . S
C1489 C1495 1.390 . S
C1490 H1481 0.930 . S
C1490 C1488 1.384 . S
C1490 C1491 1.372 . S
C1491 C1490 1.372 . S
C1491 C1492 1.400 . S
C1491 C1496 1.490 . S
C1492 H1482 0.930 . S
C1492 C1491 1.400 . S
C1492 C1495 1.386 . S
H1493 C1509 0.930 . S
H1494 C1510 0.931 . S
C1495 H1483 0.929 . S
C1495 C1489 1.390 . S
C1495 C1492 1.386 . S
C1496 C1491 1.490 . S
C1496 C1498 1.395 . S
C1496 C1499 1.403 . S
H1497 C1503 0.930 . S
C1498 H1484 0.930 . S
C1498 C1496 1.395 . S
C1498 C1501 1.403 . S
C1499 C1496 1.403 . S
C1499 C1500 1.524 . S
C1499 C1503 1.400 . S
C1500 H1485 0.960 . S
C1500 H1486 0.960 . S
C1500 H1487 0.960 . S
C1500 C1499 1.524 . S
C1501 C1498 1.403 . S
C1501 C1502 1.392 . S
C1501 C1505 1.495 . S
C1502 C1501 1.392 . S
C1502 C1503 1.385 . S
C1502 C1504 1.478 . S
C1503 H1497 0.930 . S
C1503 C1499 1.400 . S
C1503 C1502 1.385 . S
C1504 C1502 1.478 . S
C1504 C1506 1.381 . S
C1504 C1510 1.383 . S
C1505 C1501 1.495 . S
C1505 H1511 0.959 . S
C1505 H1512 0.961 . S
C1505 H1513 0.960 . S
C1506 C1504 1.381 . S
C1506 C1507 1.394 . S
C1506 H1514 0.930 . S
C1507 C1506 1.394 . S
C1507 C1508 1.383 . S
C1507 H1515 0.929 . S
C1508 C1507 1.383 . S
C1508 C1509 1.377 . S
C1509 H1493 0.930 . S
C1509 C1508 1.377 . S
C1509 C1510 1.379 . S
C1510 H1494 0.931 . S
C1510 C1504 1.383 . S
C1510 C1509 1.379 . S
H1511 C1505 0.959 . S
H1512 C1505 0.961 . S
H1513 C1505 0.960 . S
H1514 C1506 0.930 . S
H1515 C1507 0.929 . S
H1516 C1524 0.929 . S
H1517 C1526 0.930 . S
H1518 C1528 0.930 . S
H1519 C1531 0.929 . S
H1520 C1534 0.930 . S
H1521 C1536 0.960 . S
H1522 C1536 0.960 . S
H1523 C1536 0.960 . S
C1524 H1516 0.929 . S
C1524 C1525 1.377 . S
C1524 C1526 1.384 . S
C1525 C1524 1.377 . S
C1525 C1531 1.390 . S
C1526 H1517 0.930 . S
C1526 C1524 1.384 . S
C1526 C1527 1.372 . S
C1527 C1526 1.372 . S
C1527 C1528 1.400 . S
C1527 C1532 1.490 . S
C1528 H1518 0.930 . S
C1528 C1527 1.400 . S
C1528 C1531 1.386 . S
H1529 C1545 0.930 . S
H1530 C1546 0.931 . S
C1531 H1519 0.929 . S
C1531 C1525 1.390 . S
C1531 C1528 1.386 . S
C1532 C1527 1.490 . S
C1532 C1534 1.395 . S
C1532 C1535 1.403 . S
H1533 C1539 0.930 . S
C1534 H1520 0.930 . S
C1534 C1532 1.395 . S
C1534 C1537 1.403 . S
C1535 C1532 1.403 . S
C1535 C1536 1.524 . S
C1535 C1539 1.400 . S
C1536 H1521 0.960 . S
C1536 H1522 0.960 . S
C1536 H1523 0.960 . S
C1536 C1535 1.524 . S
C1537 C1534 1.403 . S
C1537 C1538 1.392 . S
C1537 C1541 1.495 . S
C1538 C1537 1.392 . S
C1538 C1539 1.385 . S
C1538 C1540 1.478 . S
C1539 H1533 0.930 . S
C1539 C1535 1.400 . S
C1539 C1538 1.385 . S
C1540 C1538 1.478 . S
C1540 C1542 1.381 . S
C1540 C1546 1.383 . S
C1541 C1537 1.495 . S
C1541 H1547 0.959 . S
C1541 H1548 0.961 . S
C1541 H1549 0.960 . S
C1542 C1540 1.381 . S
C1542 C1543 1.394 . S
C1542 H1550 0.930 . S
C1543 C1542 1.394 . S
C1543 C1544 1.383 . S
C1543 H1551 0.929 . S
C1544 C1543 1.383 . S
C1544 C1545 1.377 . S
C1545 H1529 0.930 . S
C1545 C1544 1.377 . S
C1545 C1546 1.379 . S
C1546 H1530 0.931 . S
C1546 C1540 1.383 . S
C1546 C1545 1.379 . S
H1547 C1541 0.959 . S
H1548 C1541 0.961 . S
H1549 C1541 0.960 . S
H1550 C1542 0.930 . S
H1551 C1543 0.929 . S
H1552 C1560 0.929 . S
H1553 C1562 0.930 . S
H1554 C1564 0.930 . S
H1555 C1567 0.929 . S
H1556 C1570 0.930 . S
H1557 C1572 0.960 . S
H1558 C1572 0.960 . S
H1559 C1572 0.960 . S
C1560 H1552 0.929 . S
C1560 C1561 1.377 . S
C1560 C1562 1.384 . S
C1561 C1560 1.377 . S
C1561 C1567 1.390 . S
C1562 H1553 0.930 . S
C1562 C1560 1.384 . S
C1562 C1563 1.372 . S
C1563 C1562 1.372 . S
C1563 C1564 1.400 . S
C1563 C1568 1.490 . S
C1564 H1554 0.930 . S
C1564 C1563 1.400 . S
C1564 C1567 1.386 . S
H1565 C1581 0.930 . S
H1566 C1582 0.931 . S
C1567 H1555 0.929 . S
C1567 C1561 1.390 . S
C1567 C1564 1.386 . S
C1568 C1563 1.490 . S
C1568 C1570 1.395 . S
C1568 C1571 1.403 . S
H1569 C1575 0.930 . S
C1570 H1556 0.930 . S
C1570 C1568 1.395 . S
C1570 C1573 1.403 . S
C1571 C1568 1.403 . S
C1571 C1572 1.524 . S
C1571 C1575 1.400 . S
C1572 H1557 0.960 . S
C1572 H1558 0.960 . S
C1572 H1559 0.960 . S
C1572 C1571 1.524 . S
C1573 C1570 1.403 . S
C1573 C1574 1.392 . S
C1573 C1577 1.495 . S
C1574 C1573 1.392 . S
C1574 C1575 1.385 . S
C1574 C1576 1.478 . S
C1575 H1569 0.930 . S
C1575 C1571 1.400 . S
C1575 C1574 1.385 . S
C1576 C1574 1.478 . S
C1576 C1578 1.381 . S
C1576 C1582 1.383 . S
C1577 C1573 1.495 . S
C1577 H1583 0.959 . S
C1577 H1584 0.961 . S
C1577 H1585 0.960 . S
C1578 C1576 1.381 . S
C1578 C1579 1.394 . S
C1578 H1586 0.930 . S
C1579 C1578 1.394 . S
C1579 C1580 1.383 . S
C1579 H1587 0.929 . S
C1580 C1579 1.383 . S
C1580 C1581 1.377 . S
C1581 H1565 0.930 . S
C1581 C1580 1.377 . S
C1581 C1582 1.379 . S
C1582 H1566 0.931 . S
C1582 C1576 1.383 . S
C1582 C1581 1.379 . S
H1583 C1577 0.959 . S
H1584 C1577 0.961 . S
H1585 C1577 0.960 . S
H1586 C1578 0.930 . S
H1587 C1579 0.929 . S
H1588 C1596 0.929 . S
H1589 C1598 0.930 . S
H1590 C1600 0.930 . S
H1591 C1603 0.929 . S
H1592 C1606 0.930 . S
H1593 C1608 0.960 . S
H1594 C1608 0.960 . S
H1595 C1608 0.960 . S
C1596 H1588 0.929 . S
C1596 C1597 1.377 . S
C1596 C1598 1.384 . S
C1597 C1596 1.377 . S
C1597 C1603 1.390 . S
C1598 H1589 0.930 . S
C1598 C1596 1.384 . S
C1598 C1599 1.372 . S
C1599 C1598 1.372 . S
C1599 C1600 1.400 . S
C1599 C1604 1.490 . S
C1600 H1590 0.930 . S
C1600 C1599 1.400 . S
C1600 C1603 1.386 . S
H1601 C1617 0.930 . S
H1602 C1618 0.931 . S
C1603 H1591 0.929 . S
C1603 C1597 1.390 . S
C1603 C1600 1.386 . S
C1604 C1599 1.490 . S
C1604 C1606 1.395 . S
C1604 C1607 1.403 . S
H1605 C1611 0.930 . S
C1606 H1592 0.930 . S
C1606 C1604 1.395 . S
C1606 C1609 1.403 . S
C1607 C1604 1.403 . S
C1607 C1608 1.524 . S
C1607 C1611 1.400 . S
C1608 H1593 0.960 . S
C1608 H1594 0.960 . S
C1608 H1595 0.960 . S
C1608 C1607 1.524 . S
C1609 C1606 1.403 . S
C1609 C1610 1.392 . S
C1609 C1613 1.495 . S
C1610 C1609 1.392 . S
C1610 C1611 1.385 . S
C1610 C1612 1.478 . S
C1611 H1605 0.930 . S
C1611 C1607 1.400 . S
C1611 C1610 1.385 . S
C1612 C1610 1.478 . S
C1612 C1614 1.381 . S
C1612 C1618 1.383 . S
C1613 C1609 1.495 . S
C1613 H1619 0.959 . S
C1613 H1620 0.961 . S
C1613 H1621 0.960 . S
C1614 C1612 1.381 . S
C1614 C1615 1.394 . S
C1614 H1622 0.930 . S
C1615 C1614 1.394 . S
C1615 C1616 1.383 . S
C1615 H1623 0.929 . S
C1616 C1615 1.383 . S
C1616 C1617 1.377 . S
C1617 H1601 0.930 . S
C1617 C1616 1.377 . S
C1617 C1618 1.379 . S
C1618 H1602 0.931 . S
C1618 C1612 1.383 . S
C1618 C1617 1.379 . S
H1619 C1613 0.959 . S
H1620 C1613 0.961 . S
H1621 C1613 0.960 . S
H1622 C1614 0.930 . S
H1623 C1615 0.929 . S
H1624 C1632 0.929 . S
H1625 C1634 0.930 . S
H1626 C1636 0.930 . S
H1627 C1639 0.929 . S
H1628 C1642 0.930 . S
H1629 C1644 0.960 . S
H1630 C1644 0.960 . S
H1631 C1644 0.960 . S
C1632 H1624 0.929 . S
C1632 C1633 1.377 . S
C1632 C1634 1.384 . S
C1633 C1632 1.377 . S
C1633 C1639 1.390 . S
C1634 H1625 0.930 . S
C1634 C1632 1.384 . S
C1634 C1635 1.372 . S
C1635 C1634 1.372 . S
C1635 C1636 1.400 . S
C1635 C1640 1.490 . S
C1636 H1626 0.930 . S
C1636 C1635 1.400 . S
C1636 C1639 1.386 . S
H1637 C1653 0.930 . S
H1638 C1654 0.931 1_554 S
C1639 H1627 0.929 . S
C1639 C1633 1.390 . S
C1639 C1636 1.386 . S
C1640 C1635 1.490 . S
C1640 C1642 1.395 . S
C1640 C1643 1.403 . S
H1641 C1647 0.930 . S
C1642 H1628 0.930 . S
C1642 C1640 1.395 . S
C1642 C1645 1.403 . S
C1643 C1640 1.403 . S
C1643 C1644 1.524 . S
C1643 C1647 1.400 . S
C1644 H1629 0.960 . S
C1644 H1630 0.960 . S
C1644 H1631 0.960 . S
C1644 C1643 1.524 . S
C1645 C1642 1.403 . S
C1645 C1646 1.392 . S
C1645 C1649 1.495 . S
C1646 C1645 1.392 . S
C1646 C1647 1.385 . S
C1646 C1648 1.478 1_554 S
C1647 H1641 0.930 . S
C1647 C1643 1.400 . S
C1647 C1646 1.385 . S
C1648 C1646 1.478 1_556 S
C1648 C1650 1.381 . S
C1648 C1654 1.383 . S
C1649 C1645 1.495 . S
C1649 H1655 0.959 . S
C1649 H1656 0.961 . S
C1649 H1657 0.960 . S
C1650 C1648 1.381 . S
C1650 C1651 1.394 . S
C1650 H1658 0.930 . S
C1651 C1650 1.394 . S
C1651 C1652 1.383 . S
C1651 H1659 0.929 . S
C1652 C1651 1.383 . S
C1652 C1653 1.377 . S
C1653 H1637 0.930 . S
C1653 C1652 1.377 . S
C1653 C1654 1.379 . S
C1654 H1638 0.931 1_556 S
C1654 C1648 1.383 . S
C1654 C1653 1.379 . S
H1655 C1649 0.959 . S
H1656 C1649 0.961 . S
H1657 C1649 0.960 . S
H1658 C1650 0.930 . S
H1659 C1651 0.929 . S
H1660 C1668 0.929 . S
H1661 C1670 0.930 . S
H1662 C1672 0.930 . S
H1663 C1675 0.929 . S
H1664 C1678 0.930 . S
H1665 C1680 0.960 . S
H1666 C1680 0.960 . S
H1667 C1680 0.960 . S
C1668 H1660 0.929 . S
C1668 C1669 1.377 . S
C1668 C1670 1.384 . S
C1669 C1668 1.377 . S
C1669 C1675 1.390 . S
C1670 H1661 0.930 . S
C1670 C1668 1.384 . S
C1670 C1671 1.372 . S
C1671 C1670 1.372 . S
C1671 C1672 1.400 . S
C1671 C1676 1.490 . S
C1672 H1662 0.930 . S
C1672 C1671 1.400 . S
C1672 C1675 1.386 . S
H1673 C1689 0.930 . S
H1674 C1690 0.931 . S
C1675 H1663 0.929 . S
C1675 C1669 1.390 . S
C1675 C1672 1.386 . S
C1676 C1671 1.490 . S
C1676 C1678 1.395 . S
C1676 C1679 1.403 . S
H1677 C1683 0.930 . S
C1678 H1664 0.930 . S
C1678 C1676 1.395 . S
C1678 C1681 1.403 . S
C1679 C1676 1.403 . S
C1679 C1680 1.524 . S
C1679 C1683 1.400 . S
C1680 H1665 0.960 . S
C1680 H1666 0.960 . S
C1680 H1667 0.960 . S
C1680 C1679 1.524 . S
C1681 C1678 1.403 . S
C1681 C1682 1.392 . S
C1681 C1685 1.495 . S
C1682 C1681 1.392 . S
C1682 C1683 1.385 . S
C1682 C1684 1.478 . S
C1683 H1677 0.930 . S
C1683 C1679 1.400 . S
C1683 C1682 1.385 . S
C1684 C1682 1.478 . S
C1684 C1686 1.381 . S
C1684 C1690 1.383 . S
C1685 C1681 1.495 . S
C1685 H1691 0.959 . S
C1685 H1692 0.961 . S
C1685 H1693 0.960 . S
C1686 C1684 1.381 . S
C1686 C1687 1.394 . S
C1686 H1694 0.930 . S
C1687 C1686 1.394 . S
C1687 C1688 1.383 . S
C1687 H1695 0.929 . S
C1688 C1687 1.383 . S
C1688 C1689 1.377 . S
C1689 H1673 0.930 . S
C1689 C1688 1.377 . S
C1689 C1690 1.379 . S
C1690 H1674 0.931 . S
C1690 C1684 1.383 . S
C1690 C1689 1.379 . S
H1691 C1685 0.959 . S
H1692 C1685 0.961 . S
H1693 C1685 0.960 . S
H1694 C1686 0.930 . S
H1695 C1687 0.929 . S
H1696 C1704 0.929 . S
H1697 C1706 0.930 . S
H1698 C1708 0.930 . S
H1699 C1711 0.929 . S
H1700 C1714 0.930 . S
H1701 C1716 0.960 . S
H1702 C1716 0.960 . S
H1703 C1716 0.960 . S
C1704 H1696 0.929 . S
C1704 C1705 1.377 . S
C1704 C1706 1.384 . S
C1705 C1704 1.377 . S
C1705 C1711 1.390 . S
C1706 H1697 0.930 . S
C1706 C1704 1.384 . S
C1706 C1707 1.372 . S
C1707 C1706 1.372 . S
C1707 C1708 1.400 . S
C1707 C1712 1.490 . S
C1708 H1698 0.930 . S
C1708 C1707 1.400 . S
C1708 C1711 1.386 . S
H1709 C1725 0.930 . S
H1710 C1726 0.931 . S
C1711 H1699 0.929 . S
C1711 C1705 1.390 . S
C1711 C1708 1.386 . S
C1712 C1707 1.490 . S
C1712 C1714 1.395 . S
C1712 C1715 1.403 . S
H1713 C1719 0.930 . S
C1714 H1700 0.930 . S
C1714 C1712 1.395 . S
C1714 C1717 1.403 . S
C1715 C1712 1.403 . S
C1715 C1716 1.524 . S
C1715 C1719 1.400 . S
C1716 H1701 0.960 . S
C1716 H1702 0.960 . S
C1716 H1703 0.960 . S
C1716 C1715 1.524 . S
C1717 C1714 1.403 . S
C1717 C1718 1.392 . S
C1717 C1721 1.495 . S
C1718 C1717 1.392 . S
C1718 C1719 1.385 . S
C1718 C1720 1.478 . S
C1719 H1713 0.930 . S
C1719 C1715 1.400 . S
C1719 C1718 1.385 . S
C1720 C1718 1.478 . S
C1720 C1722 1.381 . S
C1720 C1726 1.383 . S
C1721 C1717 1.495 . S
C1721 H1727 0.959 . S
C1721 H1728 0.961 . S
C1721 H1729 0.960 . S
C1722 C1720 1.381 . S
C1722 C1723 1.394 1_554 S
C1722 H1730 0.930 . S
C1723 C1722 1.394 1_556 S
C1723 C1724 1.383 . S
C1723 H1731 0.929 . S
C1724 C1723 1.383 . S
C1724 C1725 1.377 . S
C1725 H1709 0.930 . S
C1725 C1724 1.377 . S
C1725 C1726 1.379 1_556 S
C1726 H1710 0.931 . S
C1726 C1720 1.383 . S
C1726 C1725 1.379 1_554 S
H1727 C1721 0.959 . S
H1728 C1721 0.961 . S
H1729 C1721 0.960 . S
H1730 C1722 0.930 . S
H1731 C1723 0.929 . S
H1732 C1740 0.929 . S
H1733 C1742 0.930 . S
H1734 C1744 0.930 . S
H1735 C1747 0.929 . S
H1736 C1750 0.930 . S
H1737 C1752 0.960 . S
H1738 C1752 0.960 . S
H1739 C1752 0.960 . S
C1740 H1732 0.929 . S
C1740 C1741 1.377 . S
C1740 C1742 1.384 . S
C1741 C1740 1.377 . S
C1741 C1747 1.390 . S
C1742 H1733 0.930 . S
C1742 C1740 1.384 . S
C1742 C1743 1.372 . S
C1743 C1742 1.372 . S
C1743 C1744 1.400 . S
C1743 C1748 1.490 . S
C1744 H1734 0.930 . S
C1744 C1743 1.400 . S
C1744 C1747 1.386 . S
H1745 C1761 0.930 . S
H1746 C1762 0.931 . S
C1747 H1735 0.929 . S
C1747 C1741 1.390 . S
C1747 C1744 1.386 . S
C1748 C1743 1.490 . S
C1748 C1750 1.395 . S
C1748 C1751 1.403 . S
H1749 C1755 0.930 . S
C1750 H1736 0.930 . S
C1750 C1748 1.395 . S
C1750 C1753 1.403 . S
C1751 C1748 1.403 . S
C1751 C1752 1.524 . S
C1751 C1755 1.400 . S
C1752 H1737 0.960 . S
C1752 H1738 0.960 . S
C1752 H1739 0.960 . S
C1752 C1751 1.524 . S
C1753 C1750 1.403 . S
C1753 C1754 1.392 . S
C1753 C1757 1.495 . S
C1754 C1753 1.392 . S
C1754 C1755 1.385 . S
C1754 C1756 1.478 . S
C1755 H1749 0.930 . S
C1755 C1751 1.400 . S
C1755 C1754 1.385 . S
C1756 C1754 1.478 . S
C1756 C1758 1.381 . S
C1756 C1762 1.383 . S
C1757 C1753 1.495 . S
C1757 H1763 0.959 . S
C1757 H1764 0.961 . S
C1757 H1765 0.960 . S
C1758 C1756 1.381 . S
C1758 C1759 1.394 . S
C1758 H1766 0.930 . S
C1759 C1758 1.394 . S
C1759 C1760 1.383 . S
C1759 H1767 0.929 . S
C1760 C1759 1.383 . S
C1760 C1761 1.377 . S
C1761 H1745 0.930 . S
C1761 C1760 1.377 . S
C1761 C1762 1.379 . S
C1762 H1746 0.931 . S
C1762 C1756 1.383 . S
C1762 C1761 1.379 . S
H1763 C1757 0.959 . S
H1764 C1757 0.961 . S
H1765 C1757 0.960 . S
H1766 C1758 0.930 . S
H1767 C1759 0.929 . S
H1768 C1776 0.929 . S
H1769 C1778 0.930 . S
H1770 C1780 0.930 . S
H1771 C1783 0.929 . S
H1772 C1786 0.930 . S
H1773 C1788 0.960 . S
H1774 C1788 0.960 . S
H1775 C1788 0.960 . S
C1776 H1768 0.929 . S
C1776 C1777 1.377 . S
C1776 C1778 1.384 . S
C1777 C1776 1.377 . S
C1777 C1783 1.390 . S
C1778 H1769 0.930 . S
C1778 C1776 1.384 . S
C1778 C1779 1.372 . S
C1779 C1778 1.372 . S
C1779 C1780 1.400 . S
C1779 C1784 1.490 . S
C1780 H1770 0.930 . S
C1780 C1779 1.400 . S
C1780 C1783 1.386 . S
H1781 C1797 0.930 . S
H1782 C1798 0.931 . S
C1783 H1771 0.929 . S
C1783 C1777 1.390 . S
C1783 C1780 1.386 . S
C1784 C1779 1.490 . S
C1784 C1786 1.395 . S
C1784 C1787 1.403 . S
H1785 C1791 0.930 . S
C1786 H1772 0.930 . S
C1786 C1784 1.395 . S
C1786 C1789 1.403 . S
C1787 C1784 1.403 . S
C1787 C1788 1.524 . S
C1787 C1791 1.400 . S
C1788 H1773 0.960 . S
C1788 H1774 0.960 . S
C1788 H1775 0.960 . S
C1788 C1787 1.524 . S
C1789 C1786 1.403 . S
C1789 C1790 1.392 . S
C1789 C1793 1.495 . S
C1790 C1789 1.392 . S
C1790 C1791 1.385 . S
C1790 C1792 1.478 . S
C1791 H1785 0.930 . S
C1791 C1787 1.400 . S
C1791 C1790 1.385 . S
C1792 C1790 1.478 . S
C1792 C1794 1.381 1_556 S
C1792 C1798 1.383 1_556 S
C1793 C1789 1.495 . S
C1793 H1799 0.959 . S
C1793 H1800 0.961 . S
C1793 H1801 0.960 . S
C1794 C1792 1.381 1_554 S
C1794 C1795 1.394 . S
C1794 H1802 0.930 1_554 S
C1795 C1794 1.394 . S
C1795 C1796 1.383 . S
C1795 H1803 0.929 . S
C1796 C1795 1.383 . S
C1796 C1797 1.377 . S
C1797 H1781 0.930 . S
C1797 C1796 1.377 . S
C1797 C1798 1.379 . S
C1798 H1782 0.931 . S
C1798 C1792 1.383 1_554 S
C1798 C1797 1.379 . S
H1799 C1793 0.959 . S
H1800 C1793 0.961 . S
H1801 C1793 0.960 . S
H1802 C1794 0.930 1_556 S
H1803 C1795 0.929 . S
H1804 C1812 0.929 . S
H1805 C1814 0.930 . S
H1806 C1816 0.930 . S
H1807 C1819 0.929 . S
H1808 C1822 0.930 . S
H1809 C1824 0.960 . S
H1810 C1824 0.960 . S
H1811 C1824 0.960 . S
C1812 H1804 0.929 . S
C1812 C1813 1.377 . S
C1812 C1814 1.384 . S
C1813 C1812 1.377 . S
C1813 C1819 1.390 . S
C1814 H1805 0.930 . S
C1814 C1812 1.384 . S
C1814 C1815 1.372 . S
C1815 C1814 1.372 . S
C1815 C1816 1.400 . S
C1815 C1820 1.490 . S
C1816 H1806 0.930 . S
C1816 C1815 1.400 . S
C1816 C1819 1.386 . S
H1817 C1833 0.930 . S
H1818 C1834 0.931 . S
C1819 H1807 0.929 . S
C1819 C1813 1.390 . S
C1819 C1816 1.386 . S
C1820 C1815 1.490 . S
C1820 C1822 1.395 . S
C1820 C1823 1.403 . S
H1821 C1827 0.930 . S
C1822 H1808 0.930 . S
C1822 C1820 1.395 . S
C1822 C1825 1.403 . S
C1823 C1820 1.403 . S
C1823 C1824 1.524 . S
C1823 C1827 1.400 . S
C1824 H1809 0.960 . S
C1824 H1810 0.960 . S
C1824 H1811 0.960 . S
C1824 C1823 1.524 . S
C1825 C1822 1.403 . S
C1825 C1826 1.392 . S
C1825 C1829 1.495 . S
C1826 C1825 1.392 . S
C1826 C1827 1.385 . S
C1826 C1828 1.478 . S
C1827 H1821 0.930 . S
C1827 C1823 1.400 . S
C1827 C1826 1.385 . S
C1828 C1826 1.478 . S
C1828 C1830 1.381 . S
C1828 C1834 1.383 . S
C1829 C1825 1.495 . S
C1829 H1835 0.959 . S
C1829 H1836 0.961 . S
C1829 H1837 0.960 . S
C1830 C1828 1.381 . S
C1830 C1831 1.394 . S
C1830 H1838 0.930 . S
C1831 C1830 1.394 . S
C1831 C1832 1.383 . S
C1831 H1839 0.929 . S
C1832 C1831 1.383 . S
C1832 C1833 1.377 . S
C1833 H1817 0.930 . S
C1833 C1832 1.377 . S
C1833 C1834 1.379 . S
C1834 H1818 0.931 . S
C1834 C1828 1.383 . S
C1834 C1833 1.379 . S
H1835 C1829 0.959 . S
H1836 C1829 0.961 . S
H1837 C1829 0.960 . S
H1838 C1830 0.930 . S
H1839 C1831 0.929 . S
H1840 C1848 0.929 . S
H1841 C1850 0.930 . S
H1842 C1852 0.930 . S
H1843 C1855 0.929 . S
H1844 C1858 0.930 . S
H1845 C1860 0.960 . S
H1846 C1860 0.960 . S
H1847 C1860 0.960 . S
C1848 H1840 0.929 . S
C1848 C1849 1.377 . S
C1848 C1850 1.384 . S
C1849 C1848 1.377 . S
C1849 C1855 1.390 . S
C1850 H1841 0.930 . S
C1850 C1848 1.384 . S
C1850 C1851 1.372 . S
C1851 C1850 1.372 . S
C1851 C1852 1.400 . S
C1851 C1856 1.490 . S
C1852 H1842 0.930 . S
C1852 C1851 1.400 . S
C1852 C1855 1.386 . S
H1853 C1869 0.930 . S
H1854 C1870 0.931 . S
C1855 H1843 0.929 . S
C1855 C1849 1.390 . S
C1855 C1852 1.386 . S
C1856 C1851 1.490 . S
C1856 C1858 1.395 . S
C1856 C1859 1.403 . S
H1857 C1863 0.930 . S
C1858 H1844 0.930 . S
C1858 C1856 1.395 . S
C1858 C1861 1.403 . S
C1859 C1856 1.403 . S
C1859 C1860 1.524 . S
C1859 C1863 1.400 . S
C1860 H1845 0.960 . S
C1860 H1846 0.960 . S
C1860 H1847 0.960 . S
C1860 C1859 1.524 . S
C1861 C1858 1.403 . S
C1861 C1862 1.392 . S
C1861 C1865 1.495 . S
C1862 C1861 1.392 . S
C1862 C1863 1.385 . S
C1862 C1864 1.478 . S
C1863 H1857 0.930 . S
C1863 C1859 1.400 . S
C1863 C1862 1.385 . S
C1864 C1862 1.478 . S
C1864 C1866 1.381 1_556 S
C1864 C1870 1.383 1_556 S
C1865 C1861 1.495 . S
C1865 H1871 0.959 . S
C1865 H1872 0.961 . S
C1865 H1873 0.960 . S
C1866 C1864 1.381 1_554 S
C1866 C1867 1.394 . S
C1866 H1874 0.930 1_554 S
C1867 C1866 1.394 . S
C1867 C1868 1.383 . S
C1867 H1875 0.929 . S
C1868 C1867 1.383 . S
C1868 C1869 1.377 . S
C1869 H1853 0.930 . S
C1869 C1868 1.377 . S
C1869 C1870 1.379 . S
C1870 H1854 0.931 . S
C1870 C1864 1.383 1_554 S
C1870 C1869 1.379 . S
H1871 C1865 0.959 . S
H1872 C1865 0.961 . S
H1873 C1865 0.960 . S
H1874 C1866 0.930 1_556 S
H1875 C1867 0.929 . S
H1876 C1884 0.929 . S
H1877 C1886 0.930 . S
H1878 C1888 0.930 . S
H1879 C1891 0.929 . S
H1880 C1894 0.930 . S
H1881 C1896 0.960 . S
H1882 C1896 0.960 . S
H1883 C1896 0.960 . S
C1884 H1876 0.929 . S
C1884 C1885 1.377 . S
C1884 C1886 1.384 . S
C1885 C1884 1.377 . S
C1885 C1891 1.390 . S
C1886 H1877 0.930 . S
C1886 C1884 1.384 . S
C1886 C1887 1.372 . S
C1887 C1886 1.372 . S
C1887 C1888 1.400 . S
C1887 C1892 1.490 . S
C1888 H1878 0.930 . S
C1888 C1887 1.400 . S
C1888 C1891 1.386 . S
H1889 C1905 0.930 . S
H1890 C1906 0.931 . S
C1891 H1879 0.929 . S
C1891 C1885 1.390 . S
C1891 C1888 1.386 . S
C1892 C1887 1.490 . S
C1892 C1894 1.395 . S
C1892 C1895 1.403 . S
H1893 C1899 0.930 . S
C1894 H1880 0.930 . S
C1894 C1892 1.395 . S
C1894 C1897 1.403 . S
C1895 C1892 1.403 . S
C1895 C1896 1.524 . S
C1895 C1899 1.400 . S
C1896 H1881 0.960 . S
C1896 H1882 0.960 . S
C1896 H1883 0.960 . S
C1896 C1895 1.524 . S
C1897 C1894 1.403 . S
C1897 C1898 1.392 . S
C1897 C1901 1.495 . S
C1898 C1897 1.392 . S
C1898 C1899 1.385 . S
C1898 C1900 1.478 . S
C1899 H1893 0.930 . S
C1899 C1895 1.400 . S
C1899 C1898 1.385 . S
C1900 C1898 1.478 . S
C1900 C1902 1.381 . S
C1900 C1906 1.383 . S
C1901 C1897 1.495 . S
C1901 H1907 0.959 . S
C1901 H1908 0.961 . S
C1901 H1909 0.960 . S
C1902 C1900 1.381 . S
C1902 C1903 1.394 . S
C1902 H1910 0.930 . S
C1903 C1902 1.394 . S
C1903 C1904 1.383 . S
C1903 H1911 0.929 . S
C1904 C1903 1.383 . S
C1904 C1905 1.377 . S
C1905 H1889 0.930 . S
C1905 C1904 1.377 . S
C1905 C1906 1.379 . S
C1906 H1890 0.931 . S
C1906 C1900 1.383 . S
C1906 C1905 1.379 . S
H1907 C1901 0.959 . S
H1908 C1901 0.961 . S
H1909 C1901 0.960 . S
H1910 C1902 0.930 . S
H1911 C1903 0.929 . S
H1912 C1920 0.929 . S
H1913 C1922 0.930 . S
H1914 C1924 0.930 . S
H1915 C1927 0.929 . S
H1916 C1930 0.930 . S
H1917 C1932 0.960 . S
H1918 C1932 0.960 . S
H1919 C1932 0.960 . S
C1920 H1912 0.929 . S
C1920 C1921 1.377 . S
C1920 C1922 1.384 . S
C1921 C1920 1.377 . S
C1921 C1927 1.390 . S
C1922 H1913 0.930 . S
C1922 C1920 1.384 . S
C1922 C1923 1.372 . S
C1923 C1922 1.372 . S
C1923 C1924 1.400 . S
C1923 C1928 1.490 . S
C1924 H1914 0.930 . S
C1924 C1923 1.400 . S
C1924 C1927 1.386 . S
H1925 C1941 0.930 . S
H1926 C1942 0.931 . S
C1927 H1915 0.929 . S
C1927 C1921 1.390 . S
C1927 C1924 1.386 . S
C1928 C1923 1.490 . S
C1928 C1930 1.395 . S
C1928 C1931 1.403 . S
H1929 C1935 0.930 . S
C1930 H1916 0.930 . S
C1930 C1928 1.395 . S
C1930 C1933 1.403 . S
C1931 C1928 1.403 . S
C1931 C1932 1.524 . S
C1931 C1935 1.400 . S
C1932 H1917 0.960 . S
C1932 H1918 0.960 . S
C1932 H1919 0.960 . S
C1932 C1931 1.524 . S
C1933 C1930 1.403 . S
C1933 C1934 1.392 . S
C1933 C1937 1.495 . S
C1934 C1933 1.392 . S
C1934 C1935 1.385 . S
C1934 C1936 1.478 . S
C1935 H1929 0.930 . S
C1935 C1931 1.400 . S
C1935 C1934 1.385 . S
C1936 C1934 1.478 . S
C1936 C1938 1.381 . S
C1936 C1942 1.383 . S
C1937 C1933 1.495 . S
C1937 H1943 0.959 . S
C1937 H1944 0.961 . S
C1937 H1945 0.960 . S
C1938 C1936 1.381 . S
C1938 C1939 1.394 . S
C1938 H1946 0.930 . S
C1939 C1938 1.394 . S
C1939 C1940 1.383 . S
C1939 H1947 0.929 . S
C1940 C1939 1.383 . S
C1940 C1941 1.377 . S
C1941 H1925 0.930 . S
C1941 C1940 1.377 . S
C1941 C1942 1.379 . S
C1942 H1926 0.931 . S
C1942 C1936 1.383 . S
C1942 C1941 1.379 . S
H1943 C1937 0.959 . S
H1944 C1937 0.961 . S
H1945 C1937 0.960 . S
H1946 C1938 0.930 . S
H1947 C1939 0.929 . S
H1948 C1956 0.929 . S
H1949 C1958 0.930 . S
H1950 C1960 0.930 . S
H1951 C1963 0.929 . S
H1952 C1966 0.930 . S
H1953 C1968 0.960 . S
H1954 C1968 0.960 . S
H1955 C1968 0.960 . S
C1956 H1948 0.929 . S
C1956 C1957 1.377 . S
C1956 C1958 1.384 . S
C1957 C1956 1.377 . S
C1957 C1963 1.390 . S
C1958 H1949 0.930 . S
C1958 C1956 1.384 . S
C1958 C1959 1.372 . S
C1959 C1958 1.372 . S
C1959 C1960 1.400 . S
C1959 C1964 1.490 . S
C1960 H1950 0.930 . S
C1960 C1959 1.400 . S
C1960 C1963 1.386 . S
H1961 C1977 0.930 . S
H1962 C1978 0.931 . S
C1963 H1951 0.929 . S
C1963 C1957 1.390 . S
C1963 C1960 1.386 . S
C1964 C1959 1.490 . S
C1964 C1966 1.395 . S
C1964 C1967 1.403 . S
H1965 C1971 0.930 . S
C1966 H1952 0.930 . S
C1966 C1964 1.395 . S
C1966 C1969 1.403 . S
C1967 C1964 1.403 . S
C1967 C1968 1.524 . S
C1967 C1971 1.400 . S
C1968 H1953 0.960 . S
C1968 H1954 0.960 . S
C1968 H1955 0.960 . S
C1968 C1967 1.524 . S
C1969 C1966 1.403 . S
C1969 C1970 1.392 . S
C1969 C1973 1.495 . S
C1970 C1969 1.392 . S
C1970 C1971 1.385 . S
C1970 C1972 1.478 . S
C1971 H1965 0.930 . S
C1971 C1967 1.400 . S
C1971 C1970 1.385 . S
C1972 C1970 1.478 . S
C1972 C1974 1.381 . S
C1972 C1978 1.383 . S
C1973 C1969 1.495 . S
C1973 H1979 0.959 . S
C1973 H1980 0.961 . S
C1973 H1981 0.960 . S
C1974 C1972 1.381 . S
C1974 C1975 1.394 . S
C1974 H1982 0.930 . S
C1975 C1974 1.394 . S
C1975 C1976 1.383 . S
C1975 H1983 0.929 . S
C1976 C1975 1.383 . S
C1976 C1977 1.377 . S
C1977 H1961 0.930 . S
C1977 C1976 1.377 . S
C1977 C1978 1.379 . S
C1978 H1962 0.931 . S
C1978 C1972 1.383 . S
C1978 C1977 1.379 . S
H1979 C1973 0.959 . S
H1980 C1973 0.961 . S
H1981 C1973 0.960 . S
H1982 C1974 0.930 . S
H1983 C1975 0.929 . S
H1984 C1992 0.929 . S
H1985 C1994 0.930 . S
H1986 C1996 0.930 . S
H1987 C1999 0.929 . S
H1988 C2002 0.930 . S
H1989 C2004 0.960 . S
H1990 C2004 0.960 . S
H1991 C2004 0.960 . S
C1992 H1984 0.929 . S
C1992 C1993 1.377 . S
C1992 C1994 1.384 . S
C1993 C1992 1.377 . S
C1993 C1999 1.390 . S
C1994 H1985 0.930 . S
C1994 C1992 1.384 . S
C1994 C1995 1.372 . S
C1995 C1994 1.372 . S
C1995 C1996 1.400 . S
C1995 C2000 1.490 . S
C1996 H1986 0.930 . S
C1996 C1995 1.400 . S
C1996 C1999 1.386 . S
H1997 C2013 0.930 . S
H1998 C2014 0.931 . S
C1999 H1987 0.929 . S
C1999 C1993 1.390 . S
C1999 C1996 1.386 . S
C2000 C1995 1.490 . S
C2000 C2002 1.395 . S
C2000 C2003 1.403 . S
H2001 C2007 0.930 . S
C2002 H1988 0.930 . S
C2002 C2000 1.395 . S
C2002 C2005 1.403 . S
C2003 C2000 1.403 . S
C2003 C2004 1.524 . S
C2003 C2007 1.400 . S
C2004 H1989 0.960 . S
C2004 H1990 0.960 . S
C2004 H1991 0.960 . S
C2004 C2003 1.524 . S
C2005 C2002 1.403 . S
C2005 C2006 1.392 . S
C2005 C2009 1.495 . S
C2006 C2005 1.392 . S
C2006 C2007 1.385 . S
C2006 C2008 1.478 . S
C2007 H2001 0.930 . S
C2007 C2003 1.400 . S
C2007 C2006 1.385 . S
C2008 C2006 1.478 . S
C2008 C2010 1.381 . S
C2008 C2014 1.383 1_565 S
C2009 C2005 1.495 . S
C2009 H2015 0.959 . S
C2009 H2016 0.961 . S
C2009 H2017 0.960 . S
C2010 C2008 1.381 . S
C2010 C2011 1.394 1_565 S
C2010 H2018 0.930 . S
C2011 C2010 1.394 1_545 S
C2011 C2012 1.383 . S
C2011 H2019 0.929 . S
C2012 C2011 1.383 . S
C2012 C2013 1.377 . S
C2013 H1997 0.930 . S
C2013 C2012 1.377 . S
C2013 C2014 1.379 . S
C2014 H1998 0.931 . S
C2014 C2008 1.383 1_545 S
C2014 C2013 1.379 . S
H2015 C2009 0.959 . S
H2016 C2009 0.961 . S
H2017 C2009 0.960 . S
H2018 C2010 0.930 . S
H2019 C2011 0.929 . S
H2020 C2028 0.929 . S
H2021 C2030 0.930 . S
H2022 C2032 0.930 . S
H2023 C2035 0.929 . S
H2024 C2038 0.930 . S
H2025 C2040 0.960 . S
H2026 C2040 0.960 . S
H2027 C2040 0.960 . S
C2028 H2020 0.929 . S
C2028 C2029 1.377 . S
C2028 C2030 1.384 . S
C2029 C2028 1.377 . S
C2029 C2035 1.390 . S
C2030 H2021 0.930 . S
C2030 C2028 1.384 . S
C2030 C2031 1.372 . S
C2031 C2030 1.372 . S
C2031 C2032 1.400 . S
C2031 C2036 1.490 . S
C2032 H2022 0.930 . S
C2032 C2031 1.400 . S
C2032 C2035 1.386 . S
H2033 C2049 0.930 . S
H2034 C2050 0.931 . S
C2035 H2023 0.929 . S
C2035 C2029 1.390 . S
C2035 C2032 1.386 . S
C2036 C2031 1.490 . S
C2036 C2038 1.395 . S
C2036 C2039 1.403 . S
H2037 C2043 0.930 . S
C2038 H2024 0.930 . S
C2038 C2036 1.395 . S
C2038 C2041 1.403 . S
C2039 C2036 1.403 . S
C2039 C2040 1.524 . S
C2039 C2043 1.400 . S
C2040 H2025 0.960 . S
C2040 H2026 0.960 . S
C2040 H2027 0.960 . S
C2040 C2039 1.524 . S
C2041 C2038 1.403 . S
C2041 C2042 1.392 . S
C2041 C2045 1.495 . S
C2042 C2041 1.392 . S
C2042 C2043 1.385 . S
C2042 C2044 1.478 . S
C2043 H2037 0.930 . S
C2043 C2039 1.400 . S
C2043 C2042 1.385 . S
C2044 C2042 1.478 . S
C2044 C2046 1.381 . S
C2044 C2050 1.383 . S
C2045 C2041 1.495 . S
C2045 H2051 0.959 . S
C2045 H2052 0.961 . S
C2045 H2053 0.960 . S
C2046 C2044 1.381 . S
C2046 C2047 1.394 . S
C2046 H2054 0.930 . S
C2047 C2046 1.394 . S
C2047 C2048 1.383 . S
C2047 H2055 0.929 . S
C2048 C2047 1.383 . S
C2048 C2049 1.377 . S
C2049 H2033 0.930 . S
C2049 C2048 1.377 . S
C2049 C2050 1.379 . S
C2050 H2034 0.931 . S
C2050 C2044 1.383 . S
C2050 C2049 1.379 . S
H2051 C2045 0.959 . S
H2052 C2045 0.961 . S
H2053 C2045 0.960 . S
H2054 C2046 0.930 . S
H2055 C2047 0.929 . S
H2056 C2064 0.929 . S
H2057 C2066 0.930 . S
H2058 C2068 0.930 . S
H2059 C2071 0.929 . S
H2060 C2074 0.930 . S
H2061 C2076 0.960 . S
H2062 C2076 0.960 . S
H2063 C2076 0.960 . S
C2064 H2056 0.929 . S
C2064 C2065 1.377 . S
C2064 C2066 1.384 . S
C2065 C2064 1.377 . S
C2065 C2071 1.390 . S
C2066 H2057 0.930 . S
C2066 C2064 1.384 . S
C2066 C2067 1.372 . S
C2067 C2066 1.372 . S
C2067 C2068 1.400 . S
C2067 C2072 1.490 . S
C2068 H2058 0.930 . S
C2068 C2067 1.400 . S
C2068 C2071 1.386 . S
H2069 C2085 0.930 . S
H2070 C2086 0.931 . S
C2071 H2059 0.929 . S
C2071 C2065 1.390 . S
C2071 C2068 1.386 . S
C2072 C2067 1.490 . S
C2072 C2074 1.395 . S
C2072 C2075 1.403 . S
H2073 C2079 0.930 . S
C2074 H2060 0.930 . S
C2074 C2072 1.395 . S
C2074 C2077 1.403 . S
C2075 C2072 1.403 . S
C2075 C2076 1.524 . S
C2075 C2079 1.400 . S
C2076 H2061 0.960 . S
C2076 H2062 0.960 . S
C2076 H2063 0.960 . S
C2076 C2075 1.524 . S
C2077 C2074 1.403 . S
C2077 C2078 1.392 . S
C2077 C2081 1.495 . S
C2078 C2077 1.392 . S
C2078 C2079 1.385 . S
C2078 C2080 1.478 . S
C2079 H2073 0.930 . S
C2079 C2075 1.400 . S
C2079 C2078 1.385 . S
C2080 C2078 1.478 . S
C2080 C2082 1.381 . S
C2080 C2086 1.383 . S
C2081 C2077 1.495 . S
C2081 H2087 0.959 . S
C2081 H2088 0.961 . S
C2081 H2089 0.960 . S
C2082 C2080 1.381 . S
C2082 C2083 1.394 . S
C2082 H2090 0.930 . S
C2083 C2082 1.394 . S
C2083 C2084 1.383 . S
C2083 H2091 0.929 . S
C2084 C2083 1.383 . S
C2084 C2085 1.377 . S
C2085 H2069 0.930 . S
C2085 C2084 1.377 . S
C2085 C2086 1.379 . S
C2086 H2070 0.931 . S
C2086 C2080 1.383 . S
C2086 C2085 1.379 . S
H2087 C2081 0.959 . S
H2088 C2081 0.961 . S
H2089 C2081 0.960 . S
H2090 C2082 0.930 . S
H2091 C2083 0.929 . S
H2092 C2100 0.929 . S
H2093 C2102 0.930 . S
H2094 C2104 0.930 . S
H2095 C2107 0.929 . S
H2096 C2110 0.930 . S
H2097 C2112 0.960 . S
H2098 C2112 0.960 . S
H2099 C2112 0.960 . S
C2100 H2092 0.929 . S
C2100 C2101 1.377 . S
C2100 C2102 1.384 . S
C2101 C2100 1.377 . S
C2101 C2107 1.390 . S
C2102 H2093 0.930 . S
C2102 C2100 1.384 . S
C2102 C2103 1.372 . S
C2103 C2102 1.372 . S
C2103 C2104 1.400 . S
C2103 C2108 1.490 . S
C2104 H2094 0.930 . S
C2104 C2103 1.400 . S
C2104 C2107 1.386 . S
H2105 C2121 0.930 . S
H2106 C2122 0.931 . S
C2107 H2095 0.929 . S
C2107 C2101 1.390 . S
C2107 C2104 1.386 . S
C2108 C2103 1.490 . S
C2108 C2110 1.395 . S
C2108 C2111 1.403 . S
H2109 C2115 0.930 . S
C2110 H2096 0.930 . S
C2110 C2108 1.395 . S
C2110 C2113 1.403 . S
C2111 C2108 1.403 . S
C2111 C2112 1.524 . S
C2111 C2115 1.400 . S
C2112 H2097 0.960 . S
C2112 H2098 0.960 . S
C2112 H2099 0.960 . S
C2112 C2111 1.524 . S
C2113 C2110 1.403 . S
C2113 C2114 1.392 . S
C2113 C2117 1.495 . S
C2114 C2113 1.392 . S
C2114 C2115 1.385 . S
C2114 C2116 1.478 . S
C2115 H2109 0.930 . S
C2115 C2111 1.400 . S
C2115 C2114 1.385 . S
C2116 C2114 1.478 . S
C2116 C2118 1.381 . S
C2116 C2122 1.383 . S
C2117 C2113 1.495 . S
C2117 H2123 0.959 . S
C2117 H2124 0.961 . S
C2117 H2125 0.960 . S
C2118 C2116 1.381 . S
C2118 C2119 1.394 . S
C2118 H2126 0.930 . S
C2119 C2118 1.394 . S
C2119 C2120 1.383 . S
C2119 H2127 0.929 . S
C2120 C2119 1.383 . S
C2120 C2121 1.377 . S
C2121 H2105 0.930 . S
C2121 C2120 1.377 . S
C2121 C2122 1.379 . S
C2122 H2106 0.931 . S
C2122 C2116 1.383 . S
C2122 C2121 1.379 . S
H2123 C2117 0.959 . S
H2124 C2117 0.961 . S
H2125 C2117 0.960 . S
H2126 C2118 0.930 . S
H2127 C2119 0.929 . S
H2128 C2136 0.929 . S
H2129 C2138 0.930 . S
H2130 C2140 0.930 . S
H2131 C2143 0.929 . S
H2132 C2146 0.930 . S
H2133 C2148 0.960 . S
H2134 C2148 0.960 . S
H2135 C2148 0.960 . S
C2136 H2128 0.929 . S
C2136 C2137 1.377 . S
C2136 C2138 1.384 . S
C2137 C2136 1.377 . S
C2137 C2143 1.390 . S
C2138 H2129 0.930 . S
C2138 C2136 1.384 . S
C2138 C2139 1.372 . S
C2139 C2138 1.372 . S
C2139 C2140 1.400 . S
C2139 C2144 1.490 . S
C2140 H2130 0.930 . S
C2140 C2139 1.400 . S
C2140 C2143 1.386 . S
H2141 C2157 0.930 . S
H2142 C2158 0.931 . S
C2143 H2131 0.929 . S
C2143 C2137 1.390 . S
C2143 C2140 1.386 . S
C2144 C2139 1.490 . S
C2144 C2146 1.395 . S
C2144 C2147 1.403 . S
H2145 C2151 0.930 . S
C2146 H2132 0.930 . S
C2146 C2144 1.395 . S
C2146 C2149 1.403 . S
C2147 C2144 1.403 . S
C2147 C2148 1.524 . S
C2147 C2151 1.400 . S
C2148 H2133 0.960 . S
C2148 H2134 0.960 . S
C2148 H2135 0.960 . S
C2148 C2147 1.524 . S
C2149 C2146 1.403 . S
C2149 C2150 1.392 . S
C2149 C2153 1.495 . S
C2150 C2149 1.392 . S
C2150 C2151 1.385 . S
C2150 C2152 1.478 . S
C2151 H2145 0.930 . S
C2151 C2147 1.400 . S
C2151 C2150 1.385 . S
C2152 C2150 1.478 . S
C2152 C2154 1.381 1_565 S
C2152 C2158 1.383 . S
C2153 C2149 1.495 . S
C2153 H2159 0.959 . S
C2153 H2160 0.961 . S
C2153 H2161 0.960 . S
C2154 C2152 1.381 1_545 S
C2154 C2155 1.394 . S
C2154 H2162 0.930 . S
C2155 C2154 1.394 . S
C2155 C2156 1.383 . S
C2155 H2163 0.929 . S
C2156 C2155 1.383 . S
C2156 C2157 1.377 . S
C2157 H2141 0.930 . S
C2157 C2156 1.377 . S
C2157 C2158 1.379 1_545 S
C2158 H2142 0.931 . S
C2158 C2152 1.383 . S
C2158 C2157 1.379 1_565 S
H2159 C2153 0.959 . S
H2160 C2153 0.961 . S
H2161 C2153 0.960 . S
H2162 C2154 0.930 . S
H2163 C2155 0.929 . S
H2164 C2172 0.929 . S
H2165 C2174 0.930 . S
H2166 C2176 0.930 . S
H2167 C2179 0.929 . S
H2168 C2182 0.930 . S
H2169 C2184 0.960 . S
H2170 C2184 0.960 . S
H2171 C2184 0.960 . S
C2172 H2164 0.929 . S
C2172 C2173 1.377 . S
C2172 C2174 1.384 . S
C2173 C2172 1.377 . S
C2173 C2179 1.390 . S
C2174 H2165 0.930 . S
C2174 C2172 1.384 . S
C2174 C2175 1.372 . S
C2175 C2174 1.372 . S
C2175 C2176 1.400 . S
C2175 C2180 1.490 . S
C2176 H2166 0.930 . S
C2176 C2175 1.400 . S
C2176 C2179 1.386 . S
H2177 C2193 0.930 . S
H2178 C2194 0.931 . S
C2179 H2167 0.929 . S
C2179 C2173 1.390 . S
C2179 C2176 1.386 . S
C2180 C2175 1.490 . S
C2180 C2182 1.395 . S
C2180 C2183 1.403 . S
H2181 C2187 0.930 . S
C2182 H2168 0.930 . S
C2182 C2180 1.395 . S
C2182 C2185 1.403 . S
C2183 C2180 1.403 . S
C2183 C2184 1.524 . S
C2183 C2187 1.400 . S
C2184 H2169 0.960 . S
C2184 H2170 0.960 . S
C2184 H2171 0.960 . S
C2184 C2183 1.524 . S
C2185 C2182 1.403 . S
C2185 C2186 1.392 . S
C2185 C2189 1.495 . S
C2186 C2185 1.392 . S
C2186 C2187 1.385 . S
C2186 C2188 1.478 . S
C2187 H2181 0.930 . S
C2187 C2183 1.400 . S
C2187 C2186 1.385 . S
C2188 C2186 1.478 . S
C2188 C2190 1.381 . S
C2188 C2194 1.383 . S
C2189 C2185 1.495 . S
C2189 H2195 0.959 . S
C2189 H2196 0.961 . S
C2189 H2197 0.960 . S
C2190 C2188 1.381 . S
C2190 C2191 1.394 . S
C2190 H2198 0.930 . S
C2191 C2190 1.394 . S
C2191 C2192 1.383 . S
C2191 H2199 0.929 . S
C2192 C2191 1.383 . S
C2192 C2193 1.377 . S
C2193 H2177 0.930 . S
C2193 C2192 1.377 . S
C2193 C2194 1.379 . S
C2194 H2178 0.931 . S
C2194 C2188 1.383 . S
C2194 C2193 1.379 . S
H2195 C2189 0.959 . S
H2196 C2189 0.961 . S
H2197 C2189 0.960 . S
H2198 C2190 0.930 . S
H2199 C2191 0.929 . S
H2200 C2208 0.929 . S
H2201 C2210 0.930 . S
H2202 C2212 0.930 . S
H2203 C2215 0.929 . S
H2204 C2218 0.930 . S
H2205 C2220 0.960 . S
H2206 C2220 0.960 . S
H2207 C2220 0.960 . S
C2208 H2200 0.929 . S
C2208 C2209 1.377 . S
C2208 C2210 1.384 . S
C2209 C2208 1.377 . S
C2209 C2215 1.390 . S
C2210 H2201 0.930 . S
C2210 C2208 1.384 . S
C2210 C2211 1.372 . S
C2211 C2210 1.372 . S
C2211 C2212 1.400 . S
C2211 C2216 1.490 . S
C2212 H2202 0.930 . S
C2212 C2211 1.400 . S
C2212 C2215 1.386 . S
H2213 C2229 0.930 . S
H2214 C2230 0.931 . S
C2215 H2203 0.929 . S
C2215 C2209 1.390 . S
C2215 C2212 1.386 . S
C2216 C2211 1.490 . S
C2216 C2218 1.395 . S
C2216 C2219 1.403 . S
H2217 C2223 0.930 . S
C2218 H2204 0.930 . S
C2218 C2216 1.395 . S
C2218 C2221 1.403 . S
C2219 C2216 1.403 . S
C2219 C2220 1.524 . S
C2219 C2223 1.400 . S
C2220 H2205 0.960 . S
C2220 H2206 0.960 . S
C2220 H2207 0.960 . S
C2220 C2219 1.524 . S
C2221 C2218 1.403 . S
C2221 C2222 1.392 . S
C2221 C2225 1.495 . S
C2222 C2221 1.392 . S
C2222 C2223 1.385 . S
C2222 C2224 1.478 . S
C2223 H2217 0.930 . S
C2223 C2219 1.400 . S
C2223 C2222 1.385 . S
C2224 C2222 1.478 . S
C2224 C2226 1.381 . S
C2224 C2230 1.383 . S
C2225 C2221 1.495 . S
C2225 H2231 0.959 . S
C2225 H2232 0.961 . S
C2225 H2233 0.960 . S
C2226 C2224 1.381 . S
C2226 C2227 1.394 . S
C2226 H2234 0.930 . S
C2227 C2226 1.394 . S
C2227 C2228 1.383 . S
C2227 H2235 0.929 . S
C2228 C2227 1.383 . S
C2228 C2229 1.377 . S
C2229 H2213 0.930 . S
C2229 C2228 1.377 . S
C2229 C2230 1.379 . S
C2230 H2214 0.931 . S
C2230 C2224 1.383 . S
C2230 C2229 1.379 . S
H2231 C2225 0.959 . S
H2232 C2225 0.961 . S
H2233 C2225 0.960 . S
H2234 C2226 0.930 . S
H2235 C2227 0.929 . S
H2236 C2244 0.929 . S
H2237 C2246 0.930 . S
H2238 C2248 0.930 . S
H2239 C2251 0.929 . S
H2240 C2254 0.930 . S
H2241 C2256 0.960 . S
H2242 C2256 0.960 . S
H2243 C2256 0.960 . S
C2244 H2236 0.929 . S
C2244 C2245 1.377 . S
C2244 C2246 1.384 . S
C2245 C2244 1.377 . S
C2245 C2251 1.390 . S
C2246 H2237 0.930 . S
C2246 C2244 1.384 . S
C2246 C2247 1.372 . S
C2247 C2246 1.372 . S
C2247 C2248 1.400 . S
C2247 C2252 1.490 . S
C2248 H2238 0.930 . S
C2248 C2247 1.400 . S
C2248 C2251 1.386 . S
H2249 C2265 0.930 . S
H2250 C2266 0.931 . S
C2251 H2239 0.929 . S
C2251 C2245 1.390 . S
C2251 C2248 1.386 . S
C2252 C2247 1.490 . S
C2252 C2254 1.395 . S
C2252 C2255 1.403 . S
H2253 C2259 0.930 . S
C2254 H2240 0.930 . S
C2254 C2252 1.395 . S
C2254 C2257 1.403 . S
C2255 C2252 1.403 . S
C2255 C2256 1.524 . S
C2255 C2259 1.400 . S
C2256 H2241 0.960 . S
C2256 H2242 0.960 . S
C2256 H2243 0.960 . S
C2256 C2255 1.524 . S
C2257 C2254 1.403 . S
C2257 C2258 1.392 . S
C2257 C2261 1.495 . S
C2258 C2257 1.392 . S
C2258 C2259 1.385 . S
C2258 C2260 1.478 1_455 S
C2259 H2253 0.930 . S
C2259 C2255 1.400 . S
C2259 C2258 1.385 . S
C2260 C2258 1.478 1_655 S
C2260 C2262 1.381 . S
C2260 C2266 1.383 . S
C2261 C2257 1.495 . S
C2261 H2267 0.959 . S
C2261 H2268 0.961 1_455 S
C2261 H2269 0.960 1_455 S
C2262 C2260 1.381 . S
C2262 C2263 1.394 . S
C2262 H2270 0.930 . S
C2263 C2262 1.394 . S
C2263 C2264 1.383 . S
C2263 H2271 0.929 . S
C2264 C2263 1.383 . S
C2264 C2265 1.377 . S
C2265 H2249 0.930 . S
C2265 C2264 1.377 . S
C2265 C2266 1.379 . S
C2266 H2250 0.931 . S
C2266 C2260 1.383 . S
C2266 C2265 1.379 . S
H2267 C2261 0.959 . S
H2268 C2261 0.961 1_655 S
H2269 C2261 0.960 1_655 S
H2270 C2262 0.930 . S
H2271 C2263 0.929 . S
H2272 C2280 0.929 . S
H2273 C2282 0.930 1_554 S
H2274 C2284 0.930 . S
H2275 C2287 0.929 . S
H2276 C2290 0.930 . S
H2277 C2292 0.960 . S
H2278 C2292 0.960 . S
H2279 C2292 0.960 . S
C2280 H2272 0.929 . S
C2280 C2281 1.377 . S
C2280 C2282 1.384 . S
C2281 C2280 1.377 . S
C2281 C2287 1.390 . S
C2282 H2273 0.930 1_556 S
C2282 C2280 1.384 . S
C2282 C2283 1.372 . S
C2283 C2282 1.372 . S
C2283 C2284 1.400 . S
C2283 C2288 1.490 . S
C2284 H2274 0.930 . S
C2284 C2283 1.400 . S
C2284 C2287 1.386 . S
H2285 C2301 0.930 . S
H2286 C2302 0.931 1_556 S
C2287 H2275 0.929 . S
C2287 C2281 1.390 . S
C2287 C2284 1.386 . S
C2288 C2283 1.490 . S
C2288 C2290 1.395 1_556 S
C2288 C2291 1.403 . S
H2289 C2295 0.930 . S
C2290 H2276 0.930 . S
C2290 C2288 1.395 1_554 S
C2290 C2293 1.403 . S
C2291 C2288 1.403 . S
C2291 C2292 1.524 . S
C2291 C2295 1.400 . S
C2292 H2277 0.960 . S
C2292 H2278 0.960 . S
C2292 H2279 0.960 . S
C2292 C2291 1.524 . S
C2293 C2290 1.403 . S
C2293 C2294 1.392 . S
C2293 C2297 1.495 . S
C2294 C2293 1.392 . S
C2294 C2295 1.385 1_554 S
C2294 C2296 1.478 . S
C2295 H2289 0.930 . S
C2295 C2291 1.400 . S
C2295 C2294 1.385 1_556 S
C2296 C2294 1.478 . S
C2296 C2298 1.381 . S
C2296 C2302 1.383 . S
C2297 C2293 1.495 . S
C2297 H2303 0.959 . S
C2297 H2304 0.961 . S
C2297 H2305 0.960 . S
C2298 C2296 1.381 . S
C2298 C2299 1.394 . S
C2298 H2306 0.930 . S
C2299 C2298 1.394 . S
C2299 C2300 1.383 . S
C2299 H2307 0.929 . S
C2300 C2299 1.383 . S
C2300 C2301 1.377 . S
C2301 H2285 0.930 . S
C2301 C2300 1.377 . S
C2301 C2302 1.379 . S
C2302 H2286 0.931 1_554 S
C2302 C2296 1.383 . S
C2302 C2301 1.379 . S
H2303 C2297 0.959 . S
H2304 C2297 0.961 . S
H2305 C2297 0.960 . S
H2306 C2298 0.930 . S
H2307 C2299 0.929 . S
H2308 C2316 0.929 . S
H2309 C2318 0.930 . S
H2310 C2320 0.930 . S
H2311 C2323 0.929 . S
H2312 C2326 0.930 . S
H2313 C2328 0.960 . S
H2314 C2328 0.960 . S
H2315 C2328 0.960 . S
C2316 H2308 0.929 . S
C2316 C2317 1.377 . S
C2316 C2318 1.384 . S
C2317 C2316 1.377 . S
C2317 C2323 1.390 . S
C2318 H2309 0.930 . S
C2318 C2316 1.384 . S
C2318 C2319 1.372 . S
C2319 C2318 1.372 . S
C2319 C2320 1.400 . S
C2319 C2324 1.490 . S
C2320 H2310 0.930 . S
C2320 C2319 1.400 . S
C2320 C2323 1.386 . S
H2321 C2337 0.930 . S
H2322 C2338 0.931 . S
C2323 H2311 0.929 . S
C2323 C2317 1.390 . S
C2323 C2320 1.386 . S
C2324 C2319 1.490 . S
C2324 C2326 1.395 . S
C2324 C2327 1.403 . S
H2325 C2331 0.930 . S
C2326 H2312 0.930 . S
C2326 C2324 1.395 . S
C2326 C2329 1.403 . S
C2327 C2324 1.403 . S
C2327 C2328 1.524 . S
C2327 C2331 1.400 . S
C2328 H2313 0.960 . S
C2328 H2314 0.960 . S
C2328 H2315 0.960 . S
C2328 C2327 1.524 . S
C2329 C2326 1.403 . S
C2329 C2330 1.392 . S
C2329 C2333 1.495 . S
C2330 C2329 1.392 . S
C2330 C2331 1.385 . S
C2330 C2332 1.478 . S
C2331 H2325 0.930 . S
C2331 C2327 1.400 . S
C2331 C2330 1.385 . S
C2332 C2330 1.478 . S
C2332 C2334 1.381 . S
C2332 C2338 1.383 . S
C2333 C2329 1.495 . S
C2333 H2339 0.959 . S
C2333 H2340 0.961 . S
C2333 H2341 0.960 . S
C2334 C2332 1.381 . S
C2334 C2335 1.394 . S
C2334 H2342 0.930 . S
C2335 C2334 1.394 . S
C2335 C2336 1.383 . S
C2335 H2343 0.929 . S
C2336 C2335 1.383 . S
C2336 C2337 1.377 . S
C2337 H2321 0.930 . S
C2337 C2336 1.377 . S
C2337 C2338 1.379 . S
C2338 H2322 0.931 . S
C2338 C2332 1.383 . S
C2338 C2337 1.379 . S
H2339 C2333 0.959 . S
H2340 C2333 0.961 . S
H2341 C2333 0.960 . S
H2342 C2334 0.930 . S
H2343 C2335 0.929 . S
H2344 C2352 0.929 . S
H2345 C2354 0.930 . S
H2346 C2356 0.930 . S
H2347 C2359 0.929 . S
H2348 C2362 0.930 . S
H2349 C2364 0.960 . S
H2350 C2364 0.960 . S
H2351 C2364 0.960 . S
C2352 H2344 0.929 . S
C2352 C2353 1.377 . S
C2352 C2354 1.384 . S
C2353 C2352 1.377 . S
C2353 C2359 1.390 . S
C2354 H2345 0.930 . S
C2354 C2352 1.384 . S
C2354 C2355 1.372 . S
C2355 C2354 1.372 . S
C2355 C2356 1.400 . S
C2355 C2360 1.490 . S
C2356 H2346 0.930 . S
C2356 C2355 1.400 . S
C2356 C2359 1.386 . S
H2357 C2373 0.930 . S
H2358 C2374 0.931 . S
C2359 H2347 0.929 . S
C2359 C2353 1.390 . S
C2359 C2356 1.386 . S
C2360 C2355 1.490 . S
C2360 C2362 1.395 . S
C2360 C2363 1.403 . S
H2361 C2367 0.930 . S
C2362 H2348 0.930 . S
C2362 C2360 1.395 . S
C2362 C2365 1.403 . S
C2363 C2360 1.403 . S
C2363 C2364 1.524 . S
C2363 C2367 1.400 . S
C2364 H2349 0.960 . S
C2364 H2350 0.960 . S
C2364 H2351 0.960 . S
C2364 C2363 1.524 . S
C2365 C2362 1.403 . S
C2365 C2366 1.392 . S
C2365 C2369 1.495 . S
C2366 C2365 1.392 . S
C2366 C2367 1.385 . S
C2366 C2368 1.478 . S
C2367 H2361 0.930 . S
C2367 C2363 1.400 . S
C2367 C2366 1.385 . S
C2368 C2366 1.478 . S
C2368 C2370 1.381 . S
C2368 C2374 1.383 . S
C2369 C2365 1.495 . S
C2369 H2375 0.959 . S
C2369 H2376 0.961 . S
C2369 H2377 0.960 . S
C2370 C2368 1.381 . S
C2370 C2371 1.394 . S
C2370 H2378 0.930 . S
C2371 C2370 1.394 . S
C2371 C2372 1.383 . S
C2371 H2379 0.929 . S
C2372 C2371 1.383 . S
C2372 C2373 1.377 . S
C2373 H2357 0.930 . S
C2373 C2372 1.377 . S
C2373 C2374 1.379 . S
C2374 H2358 0.931 . S
C2374 C2368 1.383 . S
C2374 C2373 1.379 . S
H2375 C2369 0.959 . S
H2376 C2369 0.961 . S
H2377 C2369 0.960 . S
H2378 C2370 0.930 . S
H2379 C2371 0.929 . S
H2380 C2388 0.929 . S
H2381 C2390 0.930 . S
H2382 C2392 0.930 . S
H2383 C2395 0.929 . S
H2384 C2398 0.930 . S
H2385 C2400 0.960 . S
H2386 C2400 0.960 . S
H2387 C2400 0.960 . S
C2388 H2380 0.929 . S
C2388 C2389 1.377 . S
C2388 C2390 1.384 . S
C2389 C2388 1.377 . S
C2389 C2395 1.390 . S
C2390 H2381 0.930 . S
C2390 C2388 1.384 . S
C2390 C2391 1.372 . S
C2391 C2390 1.372 . S
C2391 C2392 1.400 . S
C2391 C2396 1.490 . S
C2392 H2382 0.930 . S
C2392 C2391 1.400 . S
C2392 C2395 1.386 . S
H2393 C2409 0.930 . S
H2394 C2410 0.931 . S
C2395 H2383 0.929 . S
C2395 C2389 1.390 . S
C2395 C2392 1.386 . S
C2396 C2391 1.490 . S
C2396 C2398 1.395 . S
C2396 C2399 1.403 . S
H2397 C2403 0.930 . S
C2398 H2384 0.930 . S
C2398 C2396 1.395 . S
C2398 C2401 1.403 . S
C2399 C2396 1.403 . S
C2399 C2400 1.524 . S
C2399 C2403 1.400 . S
C2400 H2385 0.960 . S
C2400 H2386 0.960 . S
C2400 H2387 0.960 . S
C2400 C2399 1.524 . S
C2401 C2398 1.403 . S
C2401 C2402 1.392 . S
C2401 C2405 1.495 . S
C2402 C2401 1.392 . S
C2402 C2403 1.385 . S
C2402 C2404 1.478 . S
C2403 H2397 0.930 . S
C2403 C2399 1.400 . S
C2403 C2402 1.385 . S
C2404 C2402 1.478 . S
C2404 C2406 1.381 1_455 S
C2404 C2410 1.383 . S
C2405 C2401 1.495 . S
C2405 H2411 0.959 . S
C2405 H2412 0.961 . S
C2405 H2413 0.960 . S
C2406 C2404 1.381 1_655 S
C2406 C2407 1.394 . S
C2406 H2414 0.930 . S
C2407 C2406 1.394 . S
C2407 C2408 1.383 . S
C2407 H2415 0.929 . S
C2408 C2407 1.383 . S
C2408 C2409 1.377 . S
C2409 H2393 0.930 . S
C2409 C2408 1.377 . S
C2409 C2410 1.379 1_655 S
C2410 H2394 0.931 . S
C2410 C2404 1.383 . S
C2410 C2409 1.379 1_455 S
H2411 C2405 0.959 . S
H2412 C2405 0.961 . S
H2413 C2405 0.960 . S
H2414 C2406 0.930 . S
H2415 C2407 0.929 . S
H2416 C2424 0.929 . S
H2417 C2426 0.930 . S
H2418 C2428 0.930 . S
H2419 C2431 0.929 . S
H2420 C2434 0.930 . S
H2421 C2436 0.960 . S
H2422 C2436 0.960 . S
H2423 C2436 0.960 . S
C2424 H2416 0.929 . S
C2424 C2425 1.377 . S
C2424 C2426 1.384 . S
C2425 C2424 1.377 . S
C2425 C2431 1.390 . S
C2426 H2417 0.930 . S
C2426 C2424 1.384 . S
C2426 C2427 1.372 . S
C2427 C2426 1.372 . S
C2427 C2428 1.400 . S
C2427 C2432 1.490 . S
C2428 H2418 0.930 . S
C2428 C2427 1.400 . S
C2428 C2431 1.386 . S
H2429 C2445 0.930 . S
H2430 C2446 0.931 . S
C2431 H2419 0.929 . S
C2431 C2425 1.390 . S
C2431 C2428 1.386 . S
C2432 C2427 1.490 . S
C2432 C2434 1.395 . S
C2432 C2435 1.403 . S
H2433 C2439 0.930 . S
C2434 H2420 0.930 . S
C2434 C2432 1.395 . S
C2434 C2437 1.403 . S
C2435 C2432 1.403 . S
C2435 C2436 1.524 . S
C2435 C2439 1.400 . S
C2436 H2421 0.960 . S
C2436 H2422 0.960 . S
C2436 H2423 0.960 . S
C2436 C2435 1.524 . S
C2437 C2434 1.403 . S
C2437 C2438 1.392 . S
C2437 C2441 1.495 1_655 S
C2438 C2437 1.392 . S
C2438 C2439 1.385 . S
C2438 C2440 1.478 1_655 S
C2439 H2433 0.930 . S
C2439 C2435 1.400 . S
C2439 C2438 1.385 . S
C2440 C2438 1.478 1_455 S
C2440 C2442 1.381 . S
C2440 C2446 1.383 . S
C2441 C2437 1.495 1_455 S
C2441 H2447 0.964 . S
C2441 H2448 0.961 . S
C2441 H2449 0.960 . S
C2442 C2440 1.381 . S
C2442 C2443 1.394 . S
C2442 H2450 0.930 . S
C2443 C2442 1.394 . S
C2443 C2444 1.383 . S
C2443 H2451 0.929 . S
C2444 C2443 1.383 . S
C2444 C2445 1.377 . S
C2445 H2429 0.930 . S
C2445 C2444 1.377 . S
C2445 C2446 1.379 . S
C2446 H2430 0.931 . S
C2446 C2440 1.383 . S
C2446 C2445 1.379 . S
H2447 C2441 0.964 . S
H2448 C2441 0.961 . S
H2449 C2441 0.960 . S
H2450 C2442 0.930 . S
H2451 C2443 0.929 . S
H2452 C2460 0.929 . S
H2453 C2462 0.930 . S
H2454 C2464 0.930 . S
H2455 C2467 0.929 . S
H2456 C2470 0.930 . S
H2457 C2472 0.960 . S
H2458 C2472 0.960 . S
H2459 C2472 0.960 . S
C2460 H2452 0.929 . S
C2460 C2461 1.377 . S
C2460 C2462 1.384 . S
C2461 C2460 1.377 . S
C2461 C2467 1.390 . S
C2462 H2453 0.930 . S
C2462 C2460 1.384 . S
C2462 C2463 1.372 . S
C2463 C2462 1.372 . S
C2463 C2464 1.400 . S
C2463 C2468 1.490 . S
C2464 H2454 0.930 . S
C2464 C2463 1.400 . S
C2464 C2467 1.386 . S
H2465 C2481 0.930 . S
H2466 C2482 0.931 . S
C2467 H2455 0.929 . S
C2467 C2461 1.390 . S
C2467 C2464 1.386 . S
C2468 C2463 1.490 . S
C2468 C2470 1.395 . S
C2468 C2471 1.403 . S
H2469 C2475 0.930 . S
C2470 H2456 0.930 . S
C2470 C2468 1.395 . S
C2470 C2473 1.403 . S
C2471 C2468 1.403 . S
C2471 C2472 1.524 . S
C2471 C2475 1.400 . S
C2472 H2457 0.960 . S
C2472 H2458 0.960 . S
C2472 H2459 0.960 . S
C2472 C2471 1.524 . S
C2473 C2470 1.403 . S
C2473 C2474 1.392 . S
C2473 C2477 1.495 . S
C2474 C2473 1.392 . S
C2474 C2475 1.385 . S
C2474 C2476 1.478 . S
C2475 H2469 0.930 . S
C2475 C2471 1.400 . S
C2475 C2474 1.385 . S
C2476 C2474 1.478 . S
C2476 C2478 1.381 . S
C2476 C2482 1.383 . S
C2477 C2473 1.495 . S
C2477 H2483 0.959 . S
C2477 H2484 0.961 . S
C2477 H2485 0.960 . S
C2478 C2476 1.381 . S
C2478 C2479 1.394 . S
C2478 H2486 0.930 . S
C2479 C2478 1.394 . S
C2479 C2480 1.383 . S
C2479 H2487 0.929 . S
C2480 C2479 1.383 . S
C2480 C2481 1.377 . S
C2481 H2465 0.930 . S
C2481 C2480 1.377 . S
C2481 C2482 1.379 . S
C2482 H2466 0.931 . S
C2482 C2476 1.383 . S
C2482 C2481 1.379 . S
H2483 C2477 0.959 . S
H2484 C2477 0.961 . S
H2485 C2477 0.960 . S
H2486 C2478 0.930 . S
H2487 C2479 0.929 . S
H2488 C2496 0.929 . S
H2489 C2498 0.930 . S
H2490 C2500 0.930 . S
H2491 C2503 0.929 . S
H2492 C2506 0.930 . S
H2493 C2508 0.960 . S
H2494 C2508 0.960 . S
H2495 C2508 0.960 . S
C2496 H2488 0.929 . S
C2496 C2497 1.377 . S
C2496 C2498 1.384 . S
C2497 C2496 1.377 . S
C2497 C2503 1.390 . S
C2498 H2489 0.930 . S
C2498 C2496 1.384 . S
C2498 C2499 1.372 . S
C2499 C2498 1.372 . S
C2499 C2500 1.400 . S
C2499 C2504 1.490 . S
C2500 H2490 0.930 . S
C2500 C2499 1.400 . S
C2500 C2503 1.386 . S
H2501 C2517 0.930 . S
H2502 C2518 0.931 . S
C2503 H2491 0.929 . S
C2503 C2497 1.390 . S
C2503 C2500 1.386 . S
C2504 C2499 1.490 . S
C2504 C2506 1.395 . S
C2504 C2507 1.403 . S
H2505 C2511 0.930 . S
C2506 H2492 0.930 . S
C2506 C2504 1.395 . S
C2506 C2509 1.403 . S
C2507 C2504 1.403 . S
C2507 C2508 1.524 . S
C2507 C2511 1.400 . S
C2508 H2493 0.960 . S
C2508 H2494 0.960 . S
C2508 H2495 0.960 . S
C2508 C2507 1.524 . S
C2509 C2506 1.403 . S
C2509 C2510 1.392 . S
C2509 C2513 1.495 . S
C2510 C2509 1.392 . S
C2510 C2511 1.385 . S
C2510 C2512 1.478 . S
C2511 H2505 0.930 . S
C2511 C2507 1.400 . S
C2511 C2510 1.385 . S
C2512 C2510 1.478 . S
C2512 C2514 1.381 . S
C2512 C2518 1.383 . S
C2513 C2509 1.495 . S
C2513 H2519 0.959 . S
C2513 H2520 0.961 . S
C2513 H2521 0.960 . S
C2514 C2512 1.381 . S
C2514 C2515 1.394 . S
C2514 H2522 0.930 . S
C2515 C2514 1.394 . S
C2515 C2516 1.383 . S
C2515 H2523 0.929 . S
C2516 C2515 1.383 . S
C2516 C2517 1.377 . S
C2517 H2501 0.930 . S
C2517 C2516 1.377 . S
C2517 C2518 1.379 . S
C2518 H2502 0.931 . S
C2518 C2512 1.383 . S
C2518 C2517 1.379 . S
H2519 C2513 0.959 . S
H2520 C2513 0.961 . S
H2521 C2513 0.960 . S
H2522 C2514 0.930 . S
H2523 C2515 0.929 . S
H2524 C2532 0.929 . S
H2525 C2534 0.930 . S
H2526 C2536 0.930 . S
H2527 C2539 0.929 . S
H2528 C2542 0.930 . S
H2529 C2544 0.960 . S
H2530 C2544 0.960 . S
H2531 C2544 0.960 . S
C2532 H2524 0.929 . S
C2532 C2533 1.377 . S
C2532 C2534 1.384 . S
C2533 C2532 1.377 . S
C2533 C2539 1.390 . S
C2534 H2525 0.930 . S
C2534 C2532 1.384 . S
C2534 C2535 1.372 . S
C2535 C2534 1.372 . S
C2535 C2536 1.400 . S
C2535 C2540 1.490 . S
C2536 H2526 0.930 . S
C2536 C2535 1.400 . S
C2536 C2539 1.386 . S
H2537 C2553 0.930 . S
H2538 C2554 0.931 . S
C2539 H2527 0.929 . S
C2539 C2533 1.390 . S
C2539 C2536 1.386 . S
C2540 C2535 1.490 . S
C2540 C2542 1.395 . S
C2540 C2543 1.403 . S
H2541 C2547 0.930 . S
C2542 H2528 0.930 . S
C2542 C2540 1.395 . S
C2542 C2545 1.403 . S
C2543 C2540 1.403 . S
C2543 C2544 1.524 . S
C2543 C2547 1.400 . S
C2544 H2529 0.960 . S
C2544 H2530 0.960 . S
C2544 H2531 0.960 . S
C2544 C2543 1.524 . S
C2545 C2542 1.403 . S
C2545 C2546 1.392 . S
C2545 C2549 1.495 . S
C2546 C2545 1.392 . S
C2546 C2547 1.385 . S
C2546 C2548 1.478 . S
C2547 H2541 0.930 . S
C2547 C2543 1.400 . S
C2547 C2546 1.385 . S
C2548 C2546 1.478 . S
C2548 C2550 1.381 . S
C2548 C2554 1.383 . S
C2549 C2545 1.495 . S
C2549 H2555 0.959 . S
C2549 H2556 0.961 . S
C2549 H2557 0.960 . S
C2550 C2548 1.381 . S
C2550 C2551 1.394 . S
C2550 H2558 0.930 . S
C2551 C2550 1.394 . S
C2551 C2552 1.383 . S
C2551 H2559 0.929 . S
C2552 C2551 1.383 . S
C2552 C2553 1.377 . S
C2553 H2537 0.930 . S
C2553 C2552 1.377 . S
C2553 C2554 1.379 . S
C2554 H2538 0.931 . S
C2554 C2548 1.383 . S
C2554 C2553 1.379 . S
H2555 C2549 0.959 . S
H2556 C2549 0.961 . S
H2557 C2549 0.960 . S
H2558 C2550 0.930 . S
H2559 C2551 0.929 . S
H2560 C2568 0.929 . S
H2561 C2570 0.930 . S
H2562 C2572 0.930 . S
H2563 C2575 0.929 1_545 S
H2564 C2578 0.930 . S
H2565 C2580 0.960 . S
H2566 C2580 0.960 . S
H2567 C2580 0.960 . S
C2568 H2560 0.929 . S
C2568 C2569 1.377 1_565 S
C2568 C2570 1.384 . S
C2569 C2568 1.377 1_545 S
C2569 C2575 1.390 1_545 S
C2570 H2561 0.930 . S
C2570 C2568 1.384 . S
C2570 C2571 1.372 . S
C2571 C2570 1.372 . S
C2571 C2572 1.400 . S
C2571 C2576 1.490 . S
C2572 H2562 0.930 . S
C2572 C2571 1.400 . S
C2572 C2575 1.386 . S
H2573 C2589 0.930 . S
H2574 C2590 0.931 . S
C2575 H2563 0.929 1_565 S
C2575 C2569 1.390 1_565 S
C2575 C2572 1.386 . S
C2576 C2571 1.490 . S
C2576 C2578 1.395 . S
C2576 C2579 1.403 . S
H2577 C2583 0.930 . S
C2578 H2564 0.930 . S
C2578 C2576 1.395 . S
C2578 C2581 1.403 . S
C2579 C2576 1.403 . S
C2579 C2580 1.524 . S
C2579 C2583 1.400 . S
C2580 H2565 0.960 . S
C2580 H2566 0.960 . S
C2580 H2567 0.960 . S
C2580 C2579 1.524 . S
C2581 C2578 1.403 . S
C2581 C2582 1.392 . S
C2581 C2585 1.495 . S
C2582 C2581 1.392 . S
C2582 C2583 1.385 . S
C2582 C2584 1.478 . S
C2583 H2577 0.930 . S
C2583 C2579 1.400 . S
C2583 C2582 1.385 . S
C2584 C2582 1.478 . S
C2584 C2586 1.381 . S
C2584 C2590 1.383 . S
C2585 C2581 1.495 . S
C2585 H2591 0.959 . S
C2585 H2592 0.961 . S
C2585 H2593 0.960 . S
C2586 C2584 1.381 . S
C2586 C2587 1.394 . S
C2586 H2594 0.930 . S
C2587 C2586 1.394 . S
C2587 C2588 1.383 . S
C2587 H2595 0.929 . S
C2588 C2587 1.383 . S
C2588 C2589 1.377 . S
C2589 H2573 0.930 . S
C2589 C2588 1.377 . S
C2589 C2590 1.379 . S
C2590 H2574 0.931 . S
C2590 C2584 1.383 . S
C2590 C2589 1.379 . S
H2591 C2585 0.959 . S
H2592 C2585 0.961 . S
H2593 C2585 0.960 . S
H2594 C2586 0.930 . S
H2595 C2587 0.929 . S
H2596 C2604 0.929 . S
H2597 C2606 0.930 . S
H2598 C2608 0.930 . S
H2599 C2611 0.929 . S
H2600 C2614 0.930 . S
H2601 C2616 0.960 . S
H2602 C2616 0.960 . S
H2603 C2616 0.960 . S
C2604 H2596 0.929 . S
C2604 C2605 1.377 . S
C2604 C2606 1.384 . S
C2605 C2604 1.377 . S
C2605 C2611 1.390 . S
C2606 H2597 0.930 . S
C2606 C2604 1.384 . S
C2606 C2607 1.372 . S
C2607 C2606 1.372 . S
C2607 C2608 1.400 . S
C2607 C2612 1.490 . S
C2608 H2598 0.930 . S
C2608 C2607 1.400 . S
C2608 C2611 1.386 . S
H2609 C2625 0.930 . S
H2610 C2626 0.931 . S
C2611 H2599 0.929 . S
C2611 C2605 1.390 . S
C2611 C2608 1.386 . S
C2612 C2607 1.490 . S
C2612 C2614 1.395 . S
C2612 C2615 1.403 . S
H2613 C2619 0.930 . S
C2614 H2600 0.930 . S
C2614 C2612 1.395 . S
C2614 C2617 1.403 . S
C2615 C2612 1.403 . S
C2615 C2616 1.524 . S
C2615 C2619 1.400 . S
C2616 H2601 0.960 . S
C2616 H2602 0.960 . S
C2616 H2603 0.960 . S
C2616 C2615 1.524 . S
C2617 C2614 1.403 . S
C2617 C2618 1.392 . S
C2617 C2621 1.495 . S
C2618 C2617 1.392 . S
C2618 C2619 1.385 . S
C2618 C2620 1.478 . S
C2619 H2613 0.930 . S
C2619 C2615 1.400 . S
C2619 C2618 1.385 . S
C2620 C2618 1.478 . S
C2620 C2622 1.381 . S
C2620 C2626 1.383 . S
C2621 C2617 1.495 . S
C2621 H2627 0.959 . S
C2621 H2628 0.961 . S
C2621 H2629 0.960 . S
C2622 C2620 1.381 . S
C2622 C2623 1.394 . S
C2622 H2630 0.930 . S
C2623 C2622 1.394 . S
C2623 C2624 1.383 . S
C2623 H2631 0.929 . S
C2624 C2623 1.383 . S
C2624 C2625 1.377 . S
C2625 H2609 0.930 . S
C2625 C2624 1.377 . S
C2625 C2626 1.379 . S
C2626 H2610 0.931 . S
C2626 C2620 1.383 . S
C2626 C2625 1.379 . S
H2627 C2621 0.959 . S
H2628 C2621 0.961 . S
H2629 C2621 0.960 . S
H2630 C2622 0.930 . S
H2631 C2623 0.929 . S
H2632 C2640 0.929 . S
H2633 C2642 0.930 . S
H2634 C2644 0.930 . S
H2635 C2647 0.929 . S
H2636 C2650 0.930 . S
H2637 C2652 0.960 . S
H2638 C2652 0.960 . S
H2639 C2652 0.960 . S
C2640 H2632 0.929 . S
C2640 C2641 1.377 . S
C2640 C2642 1.384 . S
C2641 C2640 1.377 . S
C2641 C2647 1.390 . S
C2642 H2633 0.930 . S
C2642 C2640 1.384 . S
C2642 C2643 1.372 . S
C2643 C2642 1.372 . S
C2643 C2644 1.400 . S
C2643 C2648 1.490 . S
C2644 H2634 0.930 . S
C2644 C2643 1.400 . S
C2644 C2647 1.386 . S
H2645 C2661 0.930 . S
H2646 C2662 0.931 . S
C2647 H2635 0.929 . S
C2647 C2641 1.390 . S
C2647 C2644 1.386 . S
C2648 C2643 1.490 . S
C2648 C2650 1.395 . S
C2648 C2651 1.403 . S
H2649 C2655 0.930 . S
C2650 H2636 0.930 . S
C2650 C2648 1.395 . S
C2650 C2653 1.403 . S
C2651 C2648 1.403 . S
C2651 C2652 1.524 . S
C2651 C2655 1.400 . S
C2652 H2637 0.960 . S
C2652 H2638 0.960 . S
C2652 H2639 0.960 . S
C2652 C2651 1.524 . S
C2653 C2650 1.403 . S
C2653 C2654 1.392 . S
C2653 C2657 1.495 . S
C2654 C2653 1.392 . S
C2654 C2655 1.385 . S
C2654 C2656 1.478 . S
C2655 H2649 0.930 . S
C2655 C2651 1.400 . S
C2655 C2654 1.385 . S
C2656 C2654 1.478 . S
C2656 C2658 1.381 . S
C2656 C2662 1.383 . S
C2657 C2653 1.495 . S
C2657 H2663 0.959 . S
C2657 H2664 0.961 . S
C2657 H2665 0.930 1_455 S
C2658 C2656 1.381 . S
C2658 C2659 1.394 . S
C2658 H2666 0.930 . S
C2659 C2658 1.394 . S
C2659 C2660 1.383 . S
C2659 H2667 0.929 1_455 S
C2660 C2659 1.383 . S
C2660 C2661 1.377 . S
C2661 H2645 0.930 . S
C2661 C2660 1.377 . S
C2661 C2662 1.379 . S
C2662 H2646 0.931 . S
C2662 C2656 1.383 . S
C2662 C2661 1.379 . S
H2663 C2657 0.959 . S
H2664 C2657 0.961 . S
H2665 C2657 0.930 1_655 S
H2666 C2658 0.930 . S
H2667 C2659 0.929 1_655 S
H2668 C2676 0.929 . S
H2669 C2678 0.930 . S
H2670 C2680 0.930 . S
H2671 C2683 0.929 . S
H2672 C2686 0.930 . S
H2673 C2688 0.960 . S
H2674 C2688 0.960 . S
H2675 C2688 0.960 . S
C2676 H2668 0.929 . S
C2676 C2677 1.377 . S
C2676 C2678 1.384 . S
C2677 C2676 1.377 . S
C2677 C2683 1.390 . S
C2678 H2669 0.930 . S
C2678 C2676 1.384 . S
C2678 C2679 1.372 . S
C2679 C2678 1.372 . S
C2679 C2680 1.400 . S
C2679 C2684 1.490 . S
C2680 H2670 0.930 . S
C2680 C2679 1.400 . S
C2680 C2683 1.386 . S
H2681 C2697 0.930 . S
H2682 C2698 0.931 . S
C2683 H2671 0.929 . S
C2683 C2677 1.390 . S
C2683 C2680 1.386 . S
C2684 C2679 1.490 . S
C2684 C2686 1.395 . S
C2684 C2687 1.403 . S
H2685 C2691 0.930 . S
C2686 H2672 0.930 . S
C2686 C2684 1.395 . S
C2686 C2689 1.403 . S
C2687 C2684 1.403 . S
C2687 C2688 1.524 . S
C2687 C2691 1.400 . S
C2688 H2673 0.960 . S
C2688 H2674 0.960 . S
C2688 H2675 0.960 . S
C2688 C2687 1.524 . S
C2689 C2686 1.403 . S
C2689 C2690 1.392 . S
C2689 C2693 1.495 . S
C2690 C2689 1.392 . S
C2690 C2691 1.385 . S
C2690 C2692 1.478 . S
C2691 H2685 0.930 . S
C2691 C2687 1.400 . S
C2691 C2690 1.385 . S
C2692 C2690 1.478 . S
C2692 C2694 1.381 . S
C2692 C2698 1.383 . S
C2693 C2689 1.495 . S
C2693 H2699 0.959 . S
C2693 H2700 0.961 . S
C2693 H2701 0.960 . S
C2694 C2692 1.381 . S
C2694 C2695 1.394 . S
C2694 H2702 0.930 . S
C2695 C2694 1.394 . S
C2695 C2696 1.383 . S
C2695 H2703 0.929 . S
C2696 C2695 1.383 . S
C2696 C2697 1.377 . S
C2697 H2681 0.930 . S
C2697 C2696 1.377 . S
C2697 C2698 1.379 . S
C2698 H2682 0.931 . S
C2698 C2692 1.383 . S
C2698 C2697 1.379 . S
H2699 C2693 0.959 . S
H2700 C2693 0.961 . S
H2701 C2693 0.960 . S
H2702 C2694 0.930 . S
H2703 C2695 0.929 . S
H2704 C2712 0.929 . S
H2705 C2714 0.930 . S
H2706 C2716 0.930 . S
H2707 C2719 0.929 . S
H2708 C2722 0.930 . S
H2709 C2724 0.960 . S
H2710 C2724 0.960 . S
H2711 C2724 0.960 . S
C2712 H2704 0.929 . S
C2712 C2713 1.377 . S
C2712 C2714 1.384 1_545 S
C2713 C2712 1.377 . S
C2713 C2719 1.390 1_545 S
C2714 H2705 0.930 . S
C2714 C2712 1.384 1_565 S
C2714 C2715 1.372 . S
C2715 C2714 1.372 . S
C2715 C2716 1.400 . S
C2715 C2720 1.490 . S
C2716 H2706 0.930 . S
C2716 C2715 1.400 . S
C2716 C2719 1.386 . S
H2717 C2733 0.930 . S
H2718 C2734 0.931 . S
C2719 H2707 0.929 . S
C2719 C2713 1.390 1_565 S
C2719 C2716 1.386 . S
C2720 C2715 1.490 . S
C2720 C2722 1.395 . S
C2720 C2723 1.403 . S
H2721 C2727 0.930 . S
C2722 H2708 0.930 . S
C2722 C2720 1.395 . S
C2722 C2725 1.403 . S
C2723 C2720 1.403 . S
C2723 C2724 1.524 . S
C2723 C2727 1.400 . S
C2724 H2709 0.960 . S
C2724 H2710 0.960 . S
C2724 H2711 0.960 . S
C2724 C2723 1.524 . S
C2725 C2722 1.403 . S
C2725 C2726 1.392 . S
C2725 C2729 1.495 . S
C2726 C2725 1.392 . S
C2726 C2727 1.385 . S
C2726 C2728 1.478 . S
C2727 H2721 0.930 . S
C2727 C2723 1.400 . S
C2727 C2726 1.385 . S
C2728 C2726 1.478 . S
C2728 C2730 1.381 . S
C2728 C2734 1.383 . S
C2729 C2725 1.495 . S
C2729 H2735 0.959 . S
C2729 H2736 0.961 . S
C2729 H2737 0.960 . S
C2730 C2728 1.381 . S
C2730 C2731 1.394 . S
C2730 H2738 0.930 1_655 S
C2731 C2730 1.394 . S
C2731 C2732 1.383 . S
C2731 H2739 0.929 1_655 S
C2732 C2731 1.383 . S
C2732 C2733 1.377 . S
C2733 H2717 0.930 . S
C2733 C2732 1.377 . S
C2733 C2734 1.379 . S
C2734 H2718 0.931 . S
C2734 C2728 1.383 . S
C2734 C2733 1.379 . S
H2735 C2729 0.959 . S
H2736 C2729 0.961 . S
H2737 C2729 0.960 . S
H2738 C2730 0.930 1_455 S
H2739 C2731 0.929 1_455 S
H2740 C2748 0.929 . S
H2741 C2750 0.930 . S
H2742 C2752 0.930 . S
H2743 C2755 0.929 . S
H2744 C2758 0.930 . S
H2745 C2760 0.960 . S
H2746 C2760 0.960 . S
H2747 C2760 0.960 . S
C2748 H2740 0.929 . S
C2748 C2749 1.377 . S
C2748 C2750 1.384 . S
C2749 C2748 1.377 . S
C2749 C2755 1.390 . S
C2750 H2741 0.930 . S
C2750 C2748 1.384 . S
C2750 C2751 1.372 . S
C2751 C2750 1.372 . S
C2751 C2752 1.400 . S
C2751 C2756 1.490 . S
C2752 H2742 0.930 . S
C2752 C2751 1.400 . S
C2752 C2755 1.386 . S
H2753 C2769 0.930 . S
H2754 C2770 0.931 . S
C2755 H2743 0.929 . S
C2755 C2749 1.390 . S
C2755 C2752 1.386 . S
C2756 C2751 1.490 . S
C2756 C2758 1.395 . S
C2756 C2759 1.403 . S
H2757 C2763 0.930 . S
C2758 H2744 0.930 . S
C2758 C2756 1.395 . S
C2758 C2761 1.403 . S
C2759 C2756 1.403 . S
C2759 C2760 1.524 . S
C2759 C2763 1.400 . S
C2760 H2745 0.960 . S
C2760 H2746 0.960 . S
C2760 H2747 0.960 . S
C2760 C2759 1.524 . S
C2761 C2758 1.403 . S
C2761 C2762 1.392 . S
C2761 C2765 1.495 . S
C2762 C2761 1.392 . S
C2762 C2763 1.385 . S
C2762 C2764 1.478 . S
C2763 H2757 0.930 . S
C2763 C2759 1.400 . S
C2763 C2762 1.385 . S
C2764 C2762 1.478 . S
C2764 C2766 1.381 . S
C2764 C2770 1.383 . S
C2765 C2761 1.495 . S
C2765 H2771 0.959 . S
C2765 H2772 0.961 . S
C2765 H2773 0.960 . S
C2766 C2764 1.381 . S
C2766 C2767 1.394 . S
C2766 H2774 0.930 . S
C2767 C2766 1.394 . S
C2767 C2768 1.383 . S
C2767 H2775 0.929 . S
C2768 C2767 1.383 . S
C2768 C2769 1.377 . S
C2769 H2753 0.930 . S
C2769 C2768 1.377 . S
C2769 C2770 1.379 . S
C2770 H2754 0.931 . S
C2770 C2764 1.383 . S
C2770 C2769 1.379 . S
H2771 C2765 0.959 . S
H2772 C2765 0.961 . S
H2773 C2765 0.960 . S
H2774 C2766 0.930 . S
H2775 C2767 0.929 . S
H2776 C2784 0.929 . S
H2777 C2786 0.930 . S
H2778 C2788 0.930 . S
H2779 C2791 0.929 . S
H2780 C2794 0.930 . S
H2781 C2796 0.960 . S
H2782 C2796 0.960 . S
H2783 C2796 0.960 . S
C2784 H2776 0.929 . S
C2784 C2785 1.377 . S
C2784 C2786 1.384 . S
C2785 C2784 1.377 . S
C2785 C2791 1.390 . S
C2786 H2777 0.930 . S
C2786 C2784 1.384 . S
C2786 C2787 1.372 . S
C2787 C2786 1.372 . S
C2787 C2788 1.400 . S
C2787 C2792 1.490 . S
C2788 H2778 0.930 . S
C2788 C2787 1.400 . S
C2788 C2791 1.386 . S
H2789 C2805 0.930 . S
H2790 C2806 0.931 . S
C2791 H2779 0.929 . S
C2791 C2785 1.390 . S
C2791 C2788 1.386 . S
C2792 C2787 1.490 . S
C2792 C2794 1.395 . S
C2792 C2795 1.403 . S
H2793 C2799 0.930 . S
C2794 H2780 0.930 . S
C2794 C2792 1.395 . S
C2794 C2797 1.403 . S
C2795 C2792 1.403 . S
C2795 C2796 1.524 . S
C2795 C2799 1.400 . S
C2796 H2781 0.960 . S
C2796 H2782 0.960 . S
C2796 H2783 0.960 . S
C2796 C2795 1.524 . S
C2797 C2794 1.403 . S
C2797 C2798 1.392 . S
C2797 C2801 1.495 . S
C2798 C2797 1.392 . S
C2798 C2799 1.385 . S
C2798 C2800 1.478 . S
C2799 H2793 0.930 . S
C2799 C2795 1.400 . S
C2799 C2798 1.385 . S
C2800 C2798 1.478 . S
C2800 C2802 1.381 . S
C2800 C2806 1.383 . S
C2801 C2797 1.495 . S
C2801 H2807 0.959 1_554 S
C2801 H2808 0.961 1_554 S
C2801 H2809 0.960 . S
C2802 C2800 1.381 . S
C2802 C2803 1.394 . S
C2802 H2810 0.930 . S
C2803 C2802 1.394 . S
C2803 C2804 1.383 . S
C2803 H2811 0.929 . S
C2804 C2803 1.383 . S
C2804 C2805 1.377 . S
C2805 H2789 0.930 . S
C2805 C2804 1.377 . S
C2805 C2806 1.379 . S
C2806 H2790 0.931 . S
C2806 C2800 1.383 . S
C2806 C2805 1.379 . S
H2807 C2801 0.959 1_556 S
H2808 C2801 0.961 1_556 S
H2809 C2801 0.960 . S
H2810 C2802 0.930 . S
H2811 C2803 0.929 . S
H2812 C2820 0.929 . S
H2813 C2822 0.930 . S
H2814 C2824 0.930 . S
H2815 C2827 0.929 . S
H2816 C2830 0.930 . S
H2817 C2832 0.960 . S
H2818 C2832 0.960 . S
H2819 C2832 0.960 . S
C2820 H2812 0.929 . S
C2820 C2821 1.377 . S
C2820 C2822 1.384 . S
C2821 C2820 1.377 . S
C2821 C2827 1.390 . S
C2822 H2813 0.930 . S
C2822 C2820 1.384 . S
C2822 C2823 1.372 . S
C2823 C2822 1.372 . S
C2823 C2824 1.400 . S
C2823 C2828 1.490 . S
C2824 H2814 0.930 . S
C2824 C2823 1.400 . S
C2824 C2827 1.386 . S
H2825 C2841 0.930 . S
H2826 C2842 0.931 . S
C2827 H2815 0.929 . S
C2827 C2821 1.390 . S
C2827 C2824 1.386 . S
C2828 C2823 1.490 . S
C2828 C2830 1.395 . S
C2828 C2831 1.403 . S
H2829 C2835 0.930 . S
C2830 H2816 0.930 . S
C2830 C2828 1.395 . S
C2830 C2833 1.403 . S
C2831 C2828 1.403 . S
C2831 C2832 1.524 . S
C2831 C2835 1.400 . S
C2832 H2817 0.960 . S
C2832 H2818 0.960 . S
C2832 H2819 0.960 . S
C2832 C2831 1.524 . S
C2833 C2830 1.403 . S
C2833 C2834 1.392 . S
C2833 C2837 1.495 . S
C2834 C2833 1.392 . S
C2834 C2835 1.385 . S
C2834 C2836 1.478 . S
C2835 H2829 0.930 . S
C2835 C2831 1.400 . S
C2835 C2834 1.385 . S
C2836 C2834 1.478 . S
C2836 C2838 1.381 . S
C2836 C2842 1.383 . S
C2837 C2833 1.495 . S
C2837 H2843 0.959 . S
C2837 H2844 0.961 . S
C2837 H2845 0.960 . S
C2838 C2836 1.381 . S
C2838 C2839 1.394 . S
C2838 H2846 0.930 . S
C2839 C2838 1.394 . S
C2839 C2840 1.383 . S
C2839 H2847 0.929 . S
C2840 C2839 1.383 . S
C2840 C2841 1.377 . S
C2841 H2825 0.930 . S
C2841 C2840 1.377 . S
C2841 C2842 1.379 . S
C2842 H2826 0.931 . S
C2842 C2836 1.383 . S
C2842 C2841 1.379 . S
H2843 C2837 0.959 . S
H2844 C2837 0.961 . S
H2845 C2837 0.960 . S
H2846 C2838 0.930 . S
H2847 C2839 0.929 . S
H2848 C2856 0.929 . S
H2849 C2858 0.930 . S
H2850 C2860 0.930 . S
H2851 C2863 0.929 . S
H2852 C2866 0.930 . S
H2853 C2868 0.960 . S
H2854 C2868 0.960 . S
H2855 C2868 0.960 . S
C2856 H2848 0.929 . S
C2856 C2857 1.377 . S
C2856 C2858 1.384 . S
C2857 C2856 1.377 . S
C2857 C2863 1.390 . S
C2858 H2849 0.930 . S
C2858 C2856 1.384 . S
C2858 C2859 1.372 . S
C2859 C2858 1.372 . S
C2859 C2860 1.400 . S
C2859 C2864 1.490 . S
C2860 H2850 0.930 . S
C2860 C2859 1.400 . S
C2860 C2863 1.386 . S
H2861 C2877 0.930 . S
H2862 C2878 0.931 . S
C2863 H2851 0.929 . S
C2863 C2857 1.390 . S
C2863 C2860 1.386 . S
C2864 C2859 1.490 . S
C2864 C2866 1.395 . S
C2864 C2867 1.403 . S
H2865 C2871 0.930 . S
C2866 H2852 0.930 . S
C2866 C2864 1.395 . S
C2866 C2869 1.403 . S
C2867 C2864 1.403 . S
C2867 C2868 1.524 . S
C2867 C2871 1.400 . S
C2868 H2853 0.960 . S
C2868 H2854 0.960 . S
C2868 H2855 0.960 . S
C2868 C2867 1.524 . S
C2869 C2866 1.403 . S
C2869 C2870 1.392 . S
C2869 C2873 1.495 1_554 S
C2870 C2869 1.392 . S
C2870 C2871 1.385 . S
C2870 C2872 1.478 . S
C2871 H2865 0.930 . S
C2871 C2867 1.400 . S
C2871 C2870 1.385 . S
C2872 C2870 1.478 . S
C2872 C2874 1.381 . S
C2872 C2878 1.383 . S
C2873 C2869 1.495 1_556 S
C2873 H2879 0.959 . S
C2873 H2880 0.961 . S
C2873 H2881 0.960 . S
C2874 C2872 1.381 . S
C2874 C2875 1.394 . S
C2874 H2882 0.930 . S
C2875 C2874 1.394 . S
C2875 C2876 1.383 . S
C2875 H2883 0.929 . S
C2876 C2875 1.383 . S
C2876 C2877 1.377 . S
C2877 H2861 0.930 . S
C2877 C2876 1.377 . S
C2877 C2878 1.379 . S
C2878 H2862 0.931 . S
C2878 C2872 1.383 . S
C2878 C2877 1.379 . S
H2879 C2873 0.959 . S
H2880 C2873 0.961 . S
H2881 C2873 0.960 . S
H2882 C2874 0.930 . S
H2883 C2875 0.929 . S
H2884 C2892 0.929 . S
H2885 C2894 0.930 . S
H2886 C2896 0.930 . S
H2887 C2899 0.929 . S
H2888 C2902 0.930 . S
H2889 C2904 0.960 . S
H2890 C2904 0.960 . S
H2891 C2904 0.960 . S
C2892 H2884 0.929 . S
C2892 C2893 1.377 . S
C2892 C2894 1.384 . S
C2893 C2892 1.377 . S
C2893 C2899 1.390 . S
C2894 H2885 0.930 . S
C2894 C2892 1.384 . S
C2894 C2895 1.372 . S
C2895 C2894 1.372 . S
C2895 C2896 1.400 . S
C2895 C2900 1.490 . S
C2896 H2886 0.930 . S
C2896 C2895 1.400 . S
C2896 C2899 1.386 . S
H2897 C2913 0.930 . S
H2898 C2914 0.931 . S
C2899 H2887 0.929 . S
C2899 C2893 1.390 . S
C2899 C2896 1.386 . S
C2900 C2895 1.490 . S
C2900 C2902 1.395 . S
C2900 C2903 1.403 . S
H2901 C2907 0.930 . S
C2902 H2888 0.930 . S
C2902 C2900 1.395 . S
C2902 C2905 1.403 . S
C2903 C2900 1.403 . S
C2903 C2904 1.524 . S
C2903 C2907 1.400 . S
C2904 H2889 0.960 . S
C2904 H2890 0.960 . S
C2904 H2891 0.960 . S
C2904 C2903 1.524 . S
C2905 C2902 1.403 . S
C2905 C2906 1.392 . S
C2905 C2909 1.495 . S
C2906 C2905 1.392 . S
C2906 C2907 1.385 . S
C2906 C2908 1.478 . S
C2907 H2901 0.930 . S
C2907 C2903 1.400 . S
C2907 C2906 1.385 . S
C2908 C2906 1.478 . S
C2908 C2910 1.381 . S
C2908 C2914 1.383 . S
C2909 C2905 1.495 . S
C2909 H2915 0.959 . S
C2909 H2916 0.961 . S
C2909 H2917 0.960 . S
C2910 C2908 1.381 . S
C2910 C2911 1.394 . S
C2910 H2918 0.930 . S
C2911 C2910 1.394 . S
C2911 C2912 1.383 . S
C2911 H2919 0.929 . S
C2912 C2911 1.383 . S
C2912 C2913 1.377 . S
C2913 H2897 0.930 . S
C2913 C2912 1.377 . S
C2913 C2914 1.379 . S
C2914 H2898 0.931 . S
C2914 C2908 1.383 . S
C2914 C2913 1.379 . S
H2915 C2909 0.959 . S
H2916 C2909 0.961 . S
H2917 C2909 0.960 . S
H2918 C2910 0.930 . S
H2919 C2911 0.929 . S
H2920 C2928 0.929 . S
H2921 C2930 0.930 . S
H2922 C2932 0.930 . S
H2923 C2935 0.929 1_655 S
H2924 C2938 0.930 . S
H2925 C2940 0.960 . S
H2926 C2940 0.960 . S
H2927 C2940 0.960 . S
C2928 H2920 0.929 . S
C2928 C2929 1.377 1_455 S
C2928 C2930 1.384 . S
C2929 C2928 1.377 1_655 S
C2929 C2935 1.390 1_655 S
C2930 H2921 0.930 . S
C2930 C2928 1.384 . S
C2930 C2931 1.372 . S
C2931 C2930 1.372 . S
C2931 C2932 1.400 . S
C2931 C2936 1.490 . S
C2932 H2922 0.930 . S
C2932 C2931 1.400 . S
C2932 C2935 1.386 . S
H2933 C2949 0.930 1_554 S
H2934 C2950 0.931 . S
C2935 H2923 0.929 1_455 S
C2935 C2929 1.390 1_455 S
C2935 C2932 1.386 . S
C2936 C2931 1.490 . S
C2936 C2938 1.395 . S
C2936 C2939 1.403 . S
H2937 C2943 0.930 . S
C2938 H2924 0.930 . S
C2938 C2936 1.395 . S
C2938 C2941 1.403 . S
C2939 C2936 1.403 . S
C2939 C2940 1.524 . S
C2939 C2943 1.400 . S
C2940 H2925 0.960 . S
C2940 H2926 0.960 . S
C2940 H2927 0.960 . S
C2940 C2939 1.524 . S
C2941 C2938 1.403 . S
C2941 C2942 1.392 . S
C2941 C2945 1.495 . S
C2942 C2941 1.392 . S
C2942 C2943 1.385 . S
C2942 C2944 1.478 . S
C2943 H2937 0.930 . S
C2943 C2939 1.400 . S
C2943 C2942 1.385 . S
C2944 C2942 1.478 . S
C2944 C2946 1.381 . S
C2944 C2950 1.383 . S
C2945 C2941 1.495 . S
C2945 H2951 0.959 . S
C2945 H2952 0.961 . S
C2945 H2953 0.960 . S
C2946 C2944 1.381 . S
C2946 C2947 1.394 . S
C2946 H2954 0.930 . S
C2947 C2946 1.394 . S
C2947 C2948 1.383 . S
C2947 H2955 0.929 . S
C2948 C2947 1.383 . S
C2948 C2949 1.377 . S
C2949 H2933 0.930 1_556 S
C2949 C2948 1.377 . S
C2949 C2950 1.379 . S
C2950 H2934 0.931 . S
C2950 C2944 1.383 . S
C2950 C2949 1.379 . S
H2951 C2945 0.959 . S
H2952 C2945 0.961 . S
H2953 C2945 0.960 . S
H2954 C2946 0.930 . S
H2955 C2947 0.929 . S
H2956 C2964 0.929 . S
H2957 C2966 0.930 . S
H2958 C2968 0.930 . S
H2959 C2971 0.929 . S
H2960 C2974 0.930 . S
H2961 C2976 0.960 . S
H2962 C2976 0.960 . S
H2963 C2976 0.960 . S
C2964 H2956 0.929 . S
C2964 C2965 1.377 . S
C2964 C2966 1.384 . S
C2965 C2964 1.377 . S
C2965 C2971 1.390 . S
C2966 H2957 0.930 . S
C2966 C2964 1.384 . S
C2966 C2967 1.372 . S
C2967 C2966 1.372 . S
C2967 C2968 1.400 . S
C2967 C2972 1.490 . S
C2968 H2958 0.930 . S
C2968 C2967 1.400 . S
C2968 C2971 1.386 . S
H2969 C2985 0.930 . S
H2970 C2986 0.931 . S
C2971 H2959 0.929 . S
C2971 C2965 1.390 . S
C2971 C2968 1.386 . S
C2972 C2967 1.490 . S
C2972 C2974 1.395 . S
C2972 C2975 1.403 . S
H2973 C2979 0.930 . S
C2974 H2960 0.930 . S
C2974 C2972 1.395 . S
C2974 C2977 1.403 . S
C2975 C2972 1.403 . S
C2975 C2976 1.524 . S
C2975 C2979 1.400 . S
C2976 H2961 0.960 . S
C2976 H2962 0.960 . S
C2976 H2963 0.960 . S
C2976 C2975 1.524 . S
C2977 C2974 1.403 . S
C2977 C2978 1.392 . S
C2977 C2981 1.495 . S
C2978 C2977 1.392 . S
C2978 C2979 1.385 . S
C2978 C2980 1.478 . S
C2979 H2973 0.930 . S
C2979 C2975 1.400 . S
C2979 C2978 1.385 . S
C2980 C2978 1.478 . S
C2980 C2982 1.381 . S
C2980 C2986 1.383 . S
C2981 C2977 1.495 . S
C2981 H2987 0.959 . S
C2981 H2988 0.961 . S
C2981 H2989 0.960 . S
C2982 C2980 1.381 . S
C2982 C2983 1.394 . S
C2982 H2990 0.930 . S
C2983 C2982 1.394 . S
C2983 C2984 1.383 . S
C2983 H2991 0.929 . S
C2984 C2983 1.383 . S
C2984 C2985 1.377 . S
C2985 H2969 0.930 . S
C2985 C2984 1.377 . S
C2985 C2986 1.379 . S
C2986 H2970 0.931 . S
C2986 C2980 1.383 . S
C2986 C2985 1.379 . S
H2987 C2981 0.959 . S
H2988 C2981 0.961 . S
H2989 C2981 0.960 . S
H2990 C2982 0.930 . S
H2991 C2983 0.929 . S
H2992 C3000 0.929 1_455 S
H2993 C3002 0.930 . S
H2994 C3004 0.930 . S
H2995 C3007 0.929 . S
H2996 C3010 0.930 . S
H2997 C3012 0.960 1_554 S
H2998 C3012 0.960 1_554 S
H2999 C3012 0.960 . S
C3000 H2992 0.929 1_655 S
C3000 C3001 1.377 1_655 S
C3000 C3002 1.384 . S
C3001 C3000 1.377 1_455 S
C3001 C3007 1.390 1_455 S
C3002 H2993 0.930 . S
C3002 C3000 1.384 . S
C3002 C3003 1.372 . S
C3003 C3002 1.372 . S
C3003 C3004 1.400 . S
C3003 C3008 1.490 . S
C3004 H2994 0.930 . S
C3004 C3003 1.400 . S
C3004 C3007 1.386 . S
H3005 C3021 0.930 . S
H3006 C3022 0.931 . S
C3007 H2995 0.929 . S
C3007 C3001 1.390 1_655 S
C3007 C3004 1.386 . S
C3008 C3003 1.490 . S
C3008 C3010 1.395 . S
C3008 C3011 1.403 . S
H3009 C3015 0.930 . S
C3010 H2996 0.930 . S
C3010 C3008 1.395 . S
C3010 C3013 1.403 . S
C3011 C3008 1.403 . S
C3011 C3012 1.524 . S
C3011 C3015 1.400 . S
C3012 H2997 0.960 1_556 S
C3012 H2998 0.960 1_556 S
C3012 H2999 0.960 . S
C3012 C3011 1.524 . S
C3013 C3010 1.403 . S
C3013 C3014 1.392 . S
C3013 C3017 1.495 . S
C3014 C3013 1.392 . S
C3014 C3015 1.385 . S
C3014 C3016 1.478 . S
C3015 H3009 0.930 . S
C3015 C3011 1.400 . S
C3015 C3014 1.385 . S
C3016 C3014 1.478 . S
C3016 C3018 1.381 . S
C3016 C3022 1.383 . S
C3017 C3013 1.495 . S
C3017 H3023 0.959 . S
C3017 H3024 0.961 . S
C3017 H3025 0.960 . S
C3018 C3016 1.381 . S
C3018 C3019 1.394 . S
C3018 H3026 0.930 . S
C3019 C3018 1.394 . S
C3019 C3020 1.383 . S
C3019 H3027 0.929 . S
C3020 C3019 1.383 . S
C3020 C3021 1.377 . S
C3021 H3005 0.930 . S
C3021 C3020 1.377 . S
C3021 C3022 1.379 . S
C3022 H3006 0.931 . S
C3022 C3016 1.383 . S
C3022 C3021 1.379 . S
H3023 C3017 0.959 . S
H3024 C3017 0.961 . S
H3025 C3017 0.960 . S
H3026 C3018 0.930 . S
H3027 C3019 0.929 . S
H3028 C3036 0.929 . S
H3029 C3038 0.930 . S
H3030 C3040 0.930 . S
H3031 C3043 0.929 . S
H3032 C3046 0.930 . S
H3033 C3048 0.960 . S
H3034 C3048 0.960 . S
H3035 C3048 0.960 . S
C3036 H3028 0.929 . S
C3036 C3037 1.377 . S
C3036 C3038 1.384 . S
C3037 C3036 1.377 . S
C3037 C3043 1.390 . S
C3038 H3029 0.930 . S
C3038 C3036 1.384 . S
C3038 C3039 1.372 . S
C3039 C3038 1.372 . S
C3039 C3040 1.400 . S
C3039 C3044 1.490 . S
C3040 H3030 0.930 . S
C3040 C3039 1.400 . S
C3040 C3043 1.386 . S
H3041 C3057 0.930 . S
H3042 C3058 0.931 . S
C3043 H3031 0.929 . S
C3043 C3037 1.390 . S
C3043 C3040 1.386 . S
C3044 C3039 1.490 . S
C3044 C3046 1.395 . S
C3044 C3047 1.403 . S
H3045 C3051 0.930 . S
C3046 H3032 0.930 . S
C3046 C3044 1.395 . S
C3046 C3049 1.403 . S
C3047 C3044 1.403 . S
C3047 C3048 1.524 . S
C3047 C3051 1.400 . S
C3048 H3033 0.960 . S
C3048 H3034 0.960 . S
C3048 H3035 0.960 . S
C3048 C3047 1.524 . S
C3049 C3046 1.403 . S
C3049 C3050 1.392 . S
C3049 C3053 1.495 . S
C3050 C3049 1.392 . S
C3050 C3051 1.385 . S
C3050 C3052 1.478 . S
C3051 H3045 0.930 . S
C3051 C3047 1.400 . S
C3051 C3050 1.385 . S
C3052 C3050 1.478 . S
C3052 C3054 1.381 . S
C3052 C3058 1.383 . S
C3053 C3049 1.495 . S
C3053 H3059 0.959 . S
C3053 H3060 0.961 . S
C3053 H3061 0.960 . S
C3054 C3052 1.381 . S
C3054 C3055 1.394 . S
C3054 H3062 0.930 . S
C3055 C3054 1.394 . S
C3055 C3056 1.383 . S
C3055 H3063 0.929 . S
C3056 C3055 1.383 . S
C3056 C3057 1.377 . S
C3057 H3041 0.930 . S
C3057 C3056 1.377 . S
C3057 C3058 1.379 . S
C3058 H3042 0.931 . S
C3058 C3052 1.383 . S
C3058 C3057 1.379 . S
H3059 C3053 0.959 . S
H3060 C3053 0.961 . S
H3061 C3053 0.960 . S
H3062 C3054 0.930 . S
H3063 C3055 0.929 . S
H3064 C3072 0.929 . S
H3065 C3074 0.930 . S
H3066 C3076 0.930 . S
H3067 C3079 0.929 . S
H3068 C3082 0.930 . S
H3069 C3084 0.960 . S
H3070 C3084 0.960 . S
H3071 C3084 0.960 . S
C3072 H3064 0.929 . S
C3072 C3073 1.377 . S
C3072 C3074 1.384 . S
C3073 C3072 1.377 . S
C3073 C3079 1.390 . S
C3074 H3065 0.930 . S
C3074 C3072 1.384 . S
C3074 C3075 1.372 . S
C3075 C3074 1.372 . S
C3075 C3076 1.400 . S
C3075 C3080 1.490 . S
C3076 H3066 0.930 . S
C3076 C3075 1.400 . S
C3076 C3079 1.386 . S
H3077 C3093 0.930 . S
H3078 C3094 0.931 . S
C3079 H3067 0.929 . S
C3079 C3073 1.390 . S
C3079 C3076 1.386 . S
C3080 C3075 1.490 . S
C3080 C3082 1.395 . S
C3080 C3083 1.403 . S
H3081 C3087 0.930 . S
C3082 H3068 0.930 . S
C3082 C3080 1.395 . S
C3082 C3085 1.403 . S
C3083 C3080 1.403 . S
C3083 C3084 1.524 . S
C3083 C3087 1.400 . S
C3084 H3069 0.960 . S
C3084 H3070 0.960 . S
C3084 H3071 0.960 . S
C3084 C3083 1.524 . S
C3085 C3082 1.403 . S
C3085 C3086 1.392 . S
C3085 C3089 1.495 . S
C3086 C3085 1.392 . S
C3086 C3087 1.385 . S
C3086 C3088 1.478 . S
C3087 H3081 0.930 . S
C3087 C3083 1.400 . S
C3087 C3086 1.385 . S
C3088 C3086 1.478 . S
C3088 C3090 1.381 . S
C3088 C3094 1.383 . S
C3089 C3085 1.495 . S
C3089 H3095 0.959 . S
C3089 H3096 0.961 . S
C3089 H3097 0.960 . S
C3090 C3088 1.381 . S
C3090 C3091 1.394 . S
C3090 H3098 0.930 . S
C3091 C3090 1.394 . S
C3091 C3092 1.383 . S
C3091 H3099 0.929 . S
C3092 C3091 1.383 . S
C3092 C3093 1.377 . S
C3093 H3077 0.930 . S
C3093 C3092 1.377 . S
C3093 C3094 1.379 . S
C3094 H3078 0.931 . S
C3094 C3088 1.383 . S
C3094 C3093 1.379 . S
H3095 C3089 0.959 . S
H3096 C3089 0.961 . S
H3097 C3089 0.960 . S
H3098 C3090 0.930 . S
H3099 C3091 0.929 . S
H3100 C3108 0.929 1_554 S
H3101 C3110 0.930 . S
H3102 C3112 0.930 . S
H3103 C3115 0.929 . S
H3104 C3118 0.930 . S
H3105 C3120 0.960 . S
H3106 C3120 0.960 . S
H3107 C3120 0.960 . S
C3108 H3100 0.929 1_556 S
C3108 C3109 1.377 . S
C3108 C3110 1.384 . S
C3109 C3108 1.377 . S
C3109 C3115 1.390 . S
C3110 H3101 0.930 . S
C3110 C3108 1.384 . S
C3110 C3111 1.372 . S
C3111 C3110 1.372 . S
C3111 C3112 1.400 . S
C3111 C3116 1.490 . S
C3112 H3102 0.930 . S
C3112 C3111 1.400 . S
C3112 C3115 1.386 . S
H3113 C3129 0.930 . S
H3114 C3130 0.931 . S
C3115 H3103 0.929 . S
C3115 C3109 1.390 . S
C3115 C3112 1.386 . S
C3116 C3111 1.490 . S
C3116 C3118 1.395 . S
C3116 C3119 1.403 . S
H3117 C3123 0.930 . S
C3118 H3104 0.930 . S
C3118 C3116 1.395 . S
C3118 C3121 1.403 . S
C3119 C3116 1.403 . S
C3119 C3120 1.524 . S
C3119 C3123 1.400 . S
C3120 H3105 0.960 . S
C3120 H3106 0.960 . S
C3120 H3107 0.960 . S
C3120 C3119 1.524 . S
C3121 C3118 1.403 . S
C3121 C3122 1.392 . S
C3121 C3125 1.495 . S
C3122 C3121 1.392 . S
C3122 C3123 1.385 . S
C3122 C3124 1.478 . S
C3123 H3117 0.930 . S
C3123 C3119 1.400 . S
C3123 C3122 1.385 . S
C3124 C3122 1.478 . S
C3124 C3126 1.381 . S
C3124 C3130 1.383 . S
C3125 C3121 1.495 . S
C3125 H3131 0.959 . S
C3125 H3132 0.961 . S
C3125 H3133 0.960 . S
C3126 C3124 1.381 . S
C3126 C3127 1.394 . S
C3126 H3134 0.930 . S
C3127 C3126 1.394 . S
C3127 C3128 1.383 . S
C3127 H3135 0.929 . S
C3128 C3127 1.383 . S
C3128 C3129 1.377 . S
C3129 H3113 0.930 . S
C3129 C3128 1.377 . S
C3129 C3130 1.379 . S
C3130 H3114 0.931 . S
C3130 C3124 1.383 . S
C3130 C3129 1.379 . S
H3131 C3125 0.959 . S
H3132 C3125 0.961 . S
H3133 C3125 0.960 . S
H3134 C3126 0.930 . S
H3135 C3127 0.929 . S
H3136 C3144 0.929 . S
H3137 C3146 0.930 . S
H3138 C3148 0.930 . S
H3139 C3151 0.929 . S
H3140 C3154 0.930 . S
H3141 C3156 0.960 . S
H3142 C3156 0.960 . S
H3143 C3156 0.960 . S
C3144 H3136 0.929 . S
C3144 C3145 1.377 . S
C3144 C3146 1.384 . S
C3145 C3144 1.377 . S
C3145 C3151 1.390 . S
C3146 H3137 0.930 . S
C3146 C3144 1.384 . S
C3146 C3147 1.372 . S
C3147 C3146 1.372 . S
C3147 C3148 1.400 . S
C3147 C3152 1.490 . S
C3148 H3138 0.930 . S
C3148 C3147 1.400 . S
C3148 C3151 1.386 . S
H3149 C3165 0.930 . S
H3150 C3166 0.931 . S
C3151 H3139 0.929 . S
C3151 C3145 1.390 . S
C3151 C3148 1.386 . S
C3152 C3147 1.490 . S
C3152 C3154 1.395 . S
C3152 C3155 1.403 . S
H3153 C3159 0.930 . S
C3154 H3140 0.930 . S
C3154 C3152 1.395 . S
C3154 C3157 1.403 . S
C3155 C3152 1.403 . S
C3155 C3156 1.524 . S
C3155 C3159 1.400 . S
C3156 H3141 0.960 . S
C3156 H3142 0.960 . S
C3156 H3143 0.960 . S
C3156 C3155 1.524 . S
C3157 C3154 1.403 . S
C3157 C3158 1.392 . S
C3157 C3161 1.495 . S
C3158 C3157 1.392 . S
C3158 C3159 1.385 . S
C3158 C3160 1.478 . S
C3159 H3153 0.930 . S
C3159 C3155 1.400 . S
C3159 C3158 1.385 . S
C3160 C3158 1.478 . S
C3160 C3162 1.381 . S
C3160 C3166 1.383 . S
C3161 C3157 1.495 . S
C3161 H3167 0.959 . S
C3161 H3168 0.961 . S
C3161 H3169 0.960 . S
C3162 C3160 1.381 . S
C3162 C3163 1.394 . S
C3162 H3170 0.930 . S
C3163 C3162 1.394 . S
C3163 C3164 1.383 . S
C3163 H3171 0.929 . S
C3164 C3163 1.383 . S
C3164 C3165 1.377 . S
C3165 H3149 0.930 . S
C3165 C3164 1.377 . S
C3165 C3166 1.379 . S
C3166 H3150 0.931 . S
C3166 C3160 1.383 . S
C3166 C3165 1.379 . S
H3167 C3161 0.959 . S
H3168 C3161 0.961 . S
H3169 C3161 0.960 . S
H3170 C3162 0.930 . S
H3171 C3163 0.929 . S
H3172 C3180 0.929 . S
H3173 C3182 0.930 . S
H3174 C3184 0.930 . S
H3175 C3187 0.929 . S
H3176 C3190 0.930 . S
H3177 C3192 0.960 . S
H3178 C3192 0.960 . S
H3179 C3192 0.960 . S
C3180 H3172 0.929 . S
C3180 C3181 1.377 . S
C3180 C3182 1.384 . S
C3181 C3180 1.377 . S
C3181 C3187 1.390 . S
C3182 H3173 0.930 . S
C3182 C3180 1.384 . S
C3182 C3183 1.372 . S
C3183 C3182 1.372 . S
C3183 C3184 1.400 . S
C3183 C3188 1.490 . S
C3184 H3174 0.930 . S
C3184 C3183 1.400 . S
C3184 C3187 1.386 . S
H3185 C3201 0.930 . S
H3186 C3202 0.931 . S
C3187 H3175 0.929 . S
C3187 C3181 1.390 . S
C3187 C3184 1.386 . S
C3188 C3183 1.490 . S
C3188 C3190 1.395 . S
C3188 C3191 1.403 . S
H3189 C3195 0.930 . S
C3190 H3176 0.930 . S
C3190 C3188 1.395 . S
C3190 C3193 1.403 . S
C3191 C3188 1.403 . S
C3191 C3192 1.524 . S
C3191 C3195 1.400 . S
C3192 H3177 0.960 . S
C3192 H3178 0.960 . S
C3192 H3179 0.960 . S
C3192 C3191 1.524 . S
C3193 C3190 1.403 . S
C3193 C3194 1.392 . S
C3193 C3197 1.495 . S
C3194 C3193 1.392 . S
C3194 C3195 1.385 . S
C3194 C3196 1.478 . S
C3195 H3189 0.930 . S
C3195 C3191 1.400 . S
C3195 C3194 1.385 . S
C3196 C3194 1.478 . S
C3196 C3198 1.381 . S
C3196 C3202 1.383 . S
C3197 C3193 1.495 . S
C3197 H3203 0.959 . S
C3197 H3204 0.961 . S
C3197 H3205 0.960 . S
C3198 C3196 1.381 . S
C3198 C3199 1.394 . S
C3198 H3206 0.930 . S
C3199 C3198 1.394 . S
C3199 C3200 1.383 . S
C3199 H3207 0.929 . S
C3200 C3199 1.383 . S
C3200 C3201 1.377 . S
C3201 H3185 0.930 . S
C3201 C3200 1.377 . S
C3201 C3202 1.379 . S
C3202 H3186 0.931 . S
C3202 C3196 1.383 . S
C3202 C3201 1.379 . S
H3203 C3197 0.959 . S
H3204 C3197 0.961 . S
H3205 C3197 0.960 . S
H3206 C3198 0.930 . S
H3207 C3199 0.929 . S
H3208 C3216 0.929 . S
H3209 C3218 0.930 . S
H3210 C3220 0.930 . S
H3211 C3223 0.929 . S
H3212 C3226 0.930 . S
H3213 C3228 0.960 . S
H3214 C3228 0.960 . S
H3215 C3228 0.960 . S
C3216 H3208 0.929 . S
C3216 C3217 1.377 . S
C3216 C3218 1.384 . S
C3217 C3216 1.377 . S
C3217 C3223 1.390 . S
C3218 H3209 0.930 . S
C3218 C3216 1.384 . S
C3218 C3219 1.372 . S
C3219 C3218 1.372 . S
C3219 C3220 1.400 . S
C3219 C3224 1.490 . S
C3220 H3210 0.930 . S
C3220 C3219 1.400 . S
C3220 C3223 1.386 . S
H3221 C3237 0.930 . S
H3222 C3238 0.931 . S
C3223 H3211 0.929 . S
C3223 C3217 1.390 . S
C3223 C3220 1.386 . S
C3224 C3219 1.490 . S
C3224 C3226 1.395 . S
C3224 C3227 1.403 . S
H3225 C3231 0.930 . S
C3226 H3212 0.930 . S
C3226 C3224 1.395 . S
C3226 C3229 1.403 . S
C3227 C3224 1.403 . S
C3227 C3228 1.524 . S
C3227 C3231 1.400 . S
C3228 H3213 0.960 . S
C3228 H3214 0.960 . S
C3228 H3215 0.960 . S
C3228 C3227 1.524 . S
C3229 C3226 1.403 . S
C3229 C3230 1.392 . S
C3229 C3233 1.495 . S
C3230 C3229 1.392 . S
C3230 C3231 1.385 . S
C3230 C3232 1.478 . S
C3231 H3225 0.930 . S
C3231 C3227 1.400 . S
C3231 C3230 1.385 . S
C3232 C3230 1.478 . S
C3232 C3234 1.381 . S
C3232 C3238 1.383 . S
C3233 C3229 1.495 . S
C3233 H3239 0.959 . S
C3233 H3240 0.961 . S
C3233 H3241 0.960 . S
C3234 C3232 1.381 . S
C3234 C3235 1.394 . S
C3234 H3242 0.930 . S
C3235 C3234 1.394 . S
C3235 C3236 1.383 . S
C3235 H3243 0.929 . S
C3236 C3235 1.383 . S
C3236 C3237 1.377 . S
C3237 H3221 0.930 . S
C3237 C3236 1.377 . S
C3237 C3238 1.379 . S
C3238 H3222 0.931 . S
C3238 C3232 1.383 . S
C3238 C3237 1.379 . S
H3239 C3233 0.959 . S
H3240 C3233 0.961 . S
H3241 C3233 0.960 . S
H3242 C3234 0.930 . S
H3243 C3235 0.929 . S
H3244 C3252 0.929 . S
H3245 C3254 0.930 . S
H3246 C3256 0.930 . S
H3247 C3259 0.929 . S
H3248 C3262 0.930 . S
H3249 C3264 0.960 . S
H3250 C3264 0.960 . S
H3251 C3264 0.960 . S
C3252 H3244 0.929 . S
C3252 C3253 1.377 . S
C3252 C3254 1.384 . S
C3253 C3252 1.377 . S
C3253 C3259 1.390 . S
C3254 H3245 0.930 . S
C3254 C3252 1.384 . S
C3254 C3255 1.372 . S
C3255 C3254 1.372 . S
C3255 C3256 1.400 . S
C3255 C3260 1.490 . S
C3256 H3246 0.930 . S
C3256 C3255 1.400 . S
C3256 C3259 1.386 . S
H3257 C3273 0.930 . S
H3258 C3274 0.931 . S
C3259 H3247 0.929 . S
C3259 C3253 1.390 . S
C3259 C3256 1.386 . S
C3260 C3255 1.490 . S
C3260 C3262 1.395 . S
C3260 C3263 1.403 . S
H3261 C3267 0.930 . S
C3262 H3248 0.930 . S
C3262 C3260 1.395 . S
C3262 C3265 1.403 . S
C3263 C3260 1.403 . S
C3263 C3264 1.524 . S
C3263 C3267 1.400 . S
C3264 H3249 0.960 . S
C3264 H3250 0.960 . S
C3264 H3251 0.960 . S
C3264 C3263 1.524 . S
C3265 C3262 1.403 . S
C3265 C3266 1.392 . S
C3265 C3269 1.495 . S
C3266 C3265 1.392 . S
C3266 C3267 1.385 . S
C3266 C3268 1.478 . S
C3267 H3261 0.930 . S
C3267 C3263 1.400 . S
C3267 C3266 1.385 . S
C3268 C3266 1.478 . S
C3268 C3270 1.381 . S
C3268 C3274 1.383 . S
C3269 C3265 1.495 . S
C3269 H3275 0.959 . S
C3269 H3276 0.961 . S
C3269 H3277 0.960 . S
C3270 C3268 1.381 . S
C3270 C3271 1.394 . S
C3270 H3278 0.930 . S
C3271 C3270 1.394 . S
C3271 C3272 1.383 . S
C3271 H3279 0.929 . S
C3272 C3271 1.383 . S
C3272 C3273 1.377 . S
C3273 H3257 0.930 . S
C3273 C3272 1.377 . S
C3273 C3274 1.379 . S
C3274 H3258 0.931 . S
C3274 C3268 1.383 . S
C3274 C3273 1.379 . S
H3275 C3269 0.959 . S
H3276 C3269 0.961 . S
H3277 C3269 0.960 . S
H3278 C3270 0.930 . S
H3279 C3271 0.929 . S
H3280 C3288 0.929 . S
H3281 C3290 0.930 . S
H3282 C3292 0.930 . S
H3283 C3295 0.929 . S
H3284 C3298 0.930 . S
H3285 C3300 0.960 . S
H3286 C3300 0.960 . S
H3287 C3300 0.960 . S
C3288 H3280 0.929 . S
C3288 C3289 1.377 . S
C3288 C3290 1.384 . S
C3289 C3288 1.377 . S
C3289 C3295 1.390 . S
C3290 H3281 0.930 . S
C3290 C3288 1.384 . S
C3290 C3291 1.372 . S
C3291 C3290 1.372 . S
C3291 C3292 1.400 . S
C3291 C3296 1.490 . S
C3292 H3282 0.930 . S
C3292 C3291 1.400 . S
C3292 C3295 1.386 . S
H3293 C3309 0.930 1_565 S
H3294 C3310 0.931 . S
C3295 H3283 0.929 . S
C3295 C3289 1.390 . S
C3295 C3292 1.386 . S
C3296 C3291 1.490 . S
C3296 C3298 1.395 . S
C3296 C3299 1.403 . S
H3297 C3303 0.930 . S
C3298 H3284 0.930 . S
C3298 C3296 1.395 . S
C3298 C3301 1.403 . S
C3299 C3296 1.403 . S
C3299 C3300 1.524 . S
C3299 C3303 1.400 . S
C3300 H3285 0.960 . S
C3300 H3286 0.960 . S
C3300 H3287 0.960 . S
C3300 C3299 1.524 . S
C3301 C3298 1.403 . S
C3301 C3302 1.392 . S
C3301 C3305 1.495 . S
C3302 C3301 1.392 . S
C3302 C3303 1.385 . S
C3302 C3304 1.478 . S
C3303 H3297 0.930 . S
C3303 C3299 1.400 . S
C3303 C3302 1.385 . S
C3304 C3302 1.478 . S
C3304 C3306 1.381 . S
C3304 C3310 1.383 . S
C3305 C3301 1.495 . S
C3305 H3311 0.959 . S
C3305 H3312 0.961 . S
C3305 H3313 0.960 . S
C3306 C3304 1.381 . S
C3306 C3307 1.394 . S
C3306 H3314 0.930 . S
C3307 C3306 1.394 . S
C3307 C3308 1.383 . S
C3307 H3315 0.929 . S
C3308 C3307 1.383 . S
C3308 C3309 1.377 . S
C3309 H3293 0.930 1_545 S
C3309 C3308 1.377 . S
C3309 C3310 1.379 . S
C3310 H3294 0.931 . S
C3310 C3304 1.383 . S
C3310 C3309 1.379 . S
H3311 C3305 0.959 . S
H3312 C3305 0.961 . S
H3313 C3305 0.960 . S
H3314 C3306 0.930 . S
H3315 C3307 0.929 . S
H3316 C3324 0.929 . S
H3317 C3326 0.930 . S
H3318 C3328 0.930 . S
H3319 C3331 0.929 . S
H3320 C3334 0.930 . S
H3321 C3336 0.960 . S
H3322 C3336 0.960 . S
H3323 C3336 0.960 . S
C3324 H3316 0.929 . S
C3324 C3325 1.377 . S
C3324 C3326 1.384 . S
C3325 C3324 1.377 . S
C3325 C3331 1.390 . S
C3326 H3317 0.930 . S
C3326 C3324 1.384 . S
C3326 C3327 1.372 . S
C3327 C3326 1.372 . S
C3327 C3328 1.400 . S
C3327 C3332 1.490 . S
C3328 H3318 0.930 . S
C3328 C3327 1.400 . S
C3328 C3331 1.386 . S
H3329 C3345 0.930 . S
H3330 C3346 0.931 . S
C3331 H3319 0.929 . S
C3331 C3325 1.390 . S
C3331 C3328 1.386 . S
C3332 C3327 1.490 . S
C3332 C3334 1.395 . S
C3332 C3335 1.403 . S
H3333 C3339 0.930 . S
C3334 H3320 0.930 . S
C3334 C3332 1.395 . S
C3334 C3337 1.403 . S
C3335 C3332 1.403 . S
C3335 C3336 1.524 . S
C3335 C3339 1.400 . S
C3336 H3321 0.960 . S
C3336 H3322 0.960 . S
C3336 H3323 0.960 . S
C3336 C3335 1.524 . S
C3337 C3334 1.403 . S
C3337 C3338 1.392 . S
C3337 C3341 1.495 . S
C3338 C3337 1.392 . S
C3338 C3339 1.385 . S
C3338 C3340 1.478 . S
C3339 H3333 0.930 . S
C3339 C3335 1.400 . S
C3339 C3338 1.385 . S
C3340 C3338 1.478 . S
C3340 C3342 1.381 . S
C3340 C3346 1.383 . S
C3341 C3337 1.495 . S
C3341 H3347 0.959 . S
C3341 H3348 0.961 . S
C3341 H3349 0.960 . S
C3342 C3340 1.381 . S
C3342 C3343 1.394 . S
C3342 H3350 0.930 . S
C3343 C3342 1.394 . S
C3343 C3344 1.383 . S
C3343 H3351 0.929 . S
C3344 C3343 1.383 . S
C3344 C3345 1.377 . S
C3345 H3329 0.930 . S
C3345 C3344 1.377 . S
C3345 C3346 1.379 . S
C3346 H3330 0.931 . S
C3346 C3340 1.383 . S
C3346 C3345 1.379 . S
H3347 C3341 0.959 . S
H3348 C3341 0.961 . S
H3349 C3341 0.960 . S
H3350 C3342 0.930 . S
H3351 C3343 0.929 . S
H3352 C3360 0.929 . S
H3353 C3362 0.930 . S
H3354 C3364 0.930 . S
H3355 C3367 0.929 1_565 S
H3356 C3370 0.930 . S
H3357 C3372 0.960 . S
H3358 C3372 0.960 . S
H3359 C3372 0.960 . S
C3360 H3352 0.929 . S
C3360 C3361 1.377 1_545 S
C3360 C3362 1.384 . S
C3361 C3360 1.377 1_565 S
C3361 C3367 1.390 1_565 S
C3362 H3353 0.930 . S
C3362 C3360 1.384 . S
C3362 C3363 1.372 . S
C3363 C3362 1.372 . S
C3363 C3364 1.400 . S
C3363 C3368 1.490 . S
C3364 H3354 0.930 . S
C3364 C3363 1.400 . S
C3364 C3367 1.386 . S
H3365 C3381 0.930 1_455 S
H3366 C3382 0.931 . S
C3367 H3355 0.929 1_545 S
C3367 C3361 1.390 1_545 S
C3367 C3364 1.386 . S
C3368 C3363 1.490 . S
C3368 C3370 1.395 . S
C3368 C3371 1.403 . S
H3369 C3375 0.930 . S
C3370 H3356 0.930 . S
C3370 C3368 1.395 . S
C3370 C3373 1.403 . S
C3371 C3368 1.403 . S
C3371 C3372 1.524 . S
C3371 C3375 1.400 . S
C3372 H3357 0.960 . S
C3372 H3358 0.960 . S
C3372 H3359 0.960 . S
C3372 C3371 1.524 . S
C3373 C3370 1.403 . S
C3373 C3374 1.392 . S
C3373 C3377 1.495 . S
C3374 C3373 1.392 . S
C3374 C3375 1.385 . S
C3374 C3376 1.478 . S
C3375 H3369 0.930 . S
C3375 C3371 1.400 . S
C3375 C3374 1.385 . S
C3376 C3374 1.478 . S
C3376 C3378 1.381 . S
C3376 C3382 1.383 . S
C3377 C3373 1.495 . S
C3377 H3383 0.959 . S
C3377 H3384 0.961 . S
C3377 H3385 0.960 . S
C3378 C3376 1.381 . S
C3378 C3379 1.394 . S
C3378 H3386 0.930 . S
C3379 C3378 1.394 . S
C3379 C3380 1.383 . S
C3379 H3387 0.929 . S
C3380 C3379 1.383 . S
C3380 C3381 1.377 . S
C3381 H3365 0.930 1_655 S
C3381 C3380 1.377 . S
C3381 C3382 1.379 . S
C3382 H3366 0.931 . S
C3382 C3376 1.383 . S
C3382 C3381 1.379 . S
H3383 C3377 0.959 . S
H3384 C3377 0.961 . S
H3385 C3377 0.960 . S
H3386 C3378 0.930 . S
H3387 C3379 0.929 . S
H3388 C3396 0.929 . S
H3389 C3398 0.930 . S
H3390 C3400 0.930 . S
H3391 C3403 0.929 . S
H3392 C3406 0.930 . S
H3393 C3408 0.960 . S
H3394 C3408 0.960 . S
H3395 C3408 0.960 . S
C3396 H3388 0.929 . S
C3396 C3397 1.377 . S
C3396 C3398 1.384 . S
C3397 C3396 1.377 . S
C3397 C3403 1.390 . S
C3398 H3389 0.930 . S
C3398 C3396 1.384 . S
C3398 C3399 1.372 . S
C3399 C3398 1.372 . S
C3399 C3400 1.400 . S
C3399 C3404 1.490 . S
C3400 H3390 0.930 . S
C3400 C3399 1.400 . S
C3400 C3403 1.386 . S
H3401 C3417 0.930 . S
H3402 C3418 0.931 . S
C3403 H3391 0.929 . S
C3403 C3397 1.390 . S
C3403 C3400 1.386 . S
C3404 C3399 1.490 . S
C3404 C3406 1.395 . S
C3404 C3407 1.403 . S
H3405 C3411 0.930 . S
C3406 H3392 0.930 . S
C3406 C3404 1.395 . S
C3406 C3409 1.403 . S
C3407 C3404 1.403 . S
C3407 C3408 1.524 . S
C3407 C3411 1.400 . S
C3408 H3393 0.960 . S
C3408 H3394 0.960 . S
C3408 H3395 0.960 . S
C3408 C3407 1.524 . S
C3409 C3406 1.403 . S
C3409 C3410 1.392 . S
C3409 C3413 1.495 . S
C3410 C3409 1.392 . S
C3410 C3411 1.385 . S
C3410 C3412 1.478 . S
C3411 H3405 0.930 . S
C3411 C3407 1.400 . S
C3411 C3410 1.385 . S
C3412 C3410 1.478 . S
C3412 C3414 1.381 . S
C3412 C3418 1.383 . S
C3413 C3409 1.495 . S
C3413 H3419 0.959 . S
C3413 H3420 0.961 . S
C3413 H3421 0.960 . S
C3414 C3412 1.381 . S
C3414 C3415 1.394 . S
C3414 H3422 0.930 . S
C3415 C3414 1.394 . S
C3415 C3416 1.383 . S
C3415 H3423 0.929 . S
C3416 C3415 1.383 . S
C3416 C3417 1.377 . S
C3417 H3401 0.930 . S
C3417 C3416 1.377 . S
C3417 C3418 1.379 . S
C3418 H3402 0.931 . S
C3418 C3412 1.383 . S
C3418 C3417 1.379 . S
H3419 C3413 0.959 . S
H3420 C3413 0.961 . S
H3421 C3413 0.960 . S
H3422 C3414 0.930 . S
H3423 C3415 0.929 . S
H3424 C3432 0.929 . S
H3425 C3434 0.930 . S
H3426 C3436 0.930 . S
H3427 C3439 0.929 . S
H3428 C3442 0.930 . S
H3429 C3444 0.960 . S
H3430 C3444 0.960 . S
H3431 C3444 0.960 . S
C3432 H3424 0.929 . S
C3432 C3433 1.377 . S
C3432 C3434 1.384 . S
C3433 C3432 1.377 . S
C3433 C3439 1.390 . S
C3434 H3425 0.930 . S
C3434 C3432 1.384 . S
C3434 C3435 1.372 . S
C3435 C3434 1.372 . S
C3435 C3436 1.400 . S
C3435 C3440 1.490 . S
C3436 H3426 0.930 . S
C3436 C3435 1.400 . S
C3436 C3439 1.386 . S
H3437 C3453 0.930 . S
H3438 C3454 0.931 . S
C3439 H3427 0.929 . S
C3439 C3433 1.390 . S
C3439 C3436 1.386 . S
C3440 C3435 1.490 . S
C3440 C3442 1.395 . S
C3440 C3443 1.403 . S
H3441 C3447 0.930 . S
C3442 H3428 0.930 . S
C3442 C3440 1.395 . S
C3442 C3445 1.403 . S
C3443 C3440 1.403 . S
C3443 C3444 1.524 . S
C3443 C3447 1.400 . S
C3444 H3429 0.960 . S
C3444 H3430 0.960 . S
C3444 H3431 0.960 . S
C3444 C3443 1.524 . S
C3445 C3442 1.403 . S
C3445 C3446 1.392 . S
C3445 C3449 1.495 . S
C3446 C3445 1.392 . S
C3446 C3447 1.385 . S
C3446 C3448 1.478 . S
C3447 H3441 0.930 . S
C3447 C3443 1.400 . S
C3447 C3446 1.385 . S
C3448 C3446 1.478 . S
C3448 C3450 1.381 . S
C3448 C3454 1.383 . S
C3449 C3445 1.495 . S
C3449 H3455 0.959 1_455 S
C3449 H3456 0.961 1_455 S
C3449 H3457 0.960 . S
C3450 C3448 1.381 . S
C3450 C3451 1.394 . S
C3450 H3458 0.930 . S
C3451 C3450 1.394 . S
C3451 C3452 1.383 . S
C3451 H3459 0.929 . S
C3452 C3451 1.383 . S
C3452 C3453 1.377 . S
C3453 H3437 0.930 . S
C3453 C3452 1.377 . S
C3453 C3454 1.379 . S
C3454 H3438 0.931 . S
C3454 C3448 1.383 . S
C3454 C3453 1.379 . S
H3455 C3449 0.959 1_655 S
H3456 C3449 0.961 1_655 S
H3457 C3449 0.960 . S
H3458 C3450 0.930 . S
H3459 C3451 0.929 . S
H3460 C3468 0.929 . S
H3461 C3470 0.930 . S
H3462 C3472 0.930 . S
H3463 C3475 0.929 . S
H3464 C3478 0.930 . S
H3465 C3480 0.960 . S
H3466 C3480 0.960 . S
H3467 C3480 0.960 . S
C3468 H3460 0.929 . S
C3468 C3469 1.377 . S
C3468 C3470 1.384 . S
C3469 C3468 1.377 . S
C3469 C3475 1.390 . S
C3470 H3461 0.930 . S
C3470 C3468 1.384 . S
C3470 C3471 1.372 . S
C3471 C3470 1.372 . S
C3471 C3472 1.400 . S
C3471 C3476 1.490 . S
C3472 H3462 0.930 . S
C3472 C3471 1.400 . S
C3472 C3475 1.386 . S
H3473 C3489 0.930 . S
H3474 C3490 0.931 . S
C3475 H3463 0.929 . S
C3475 C3469 1.390 . S
C3475 C3472 1.386 . S
C3476 C3471 1.490 . S
C3476 C3478 1.395 . S
C3476 C3479 1.403 . S
H3477 C3483 0.930 . S
C3478 H3464 0.930 . S
C3478 C3476 1.395 . S
C3478 C3481 1.403 . S
C3479 C3476 1.403 . S
C3479 C3480 1.524 . S
C3479 C3483 1.400 . S
C3480 H3465 0.960 . S
C3480 H3466 0.960 . S
C3480 H3467 0.960 . S
C3480 C3479 1.524 . S
C3481 C3478 1.403 . S
C3481 C3482 1.392 . S
C3481 C3485 1.495 . S
C3482 C3481 1.392 . S
C3482 C3483 1.385 . S
C3482 C3484 1.478 . S
C3483 H3477 0.930 . S
C3483 C3479 1.400 . S
C3483 C3482 1.385 . S
C3484 C3482 1.478 . S
C3484 C3486 1.381 . S
C3484 C3490 1.383 . S
C3485 C3481 1.495 . S
C3485 H3491 0.959 . S
C3485 H3492 0.961 . S
C3485 H3493 0.960 . S
C3486 C3484 1.381 . S
C3486 C3487 1.394 . S
C3486 H3494 0.930 . S
C3487 C3486 1.394 . S
C3487 C3488 1.383 . S
C3487 H3495 0.929 . S
C3488 C3487 1.383 . S
C3488 C3489 1.377 . S
C3489 H3473 0.930 . S
C3489 C3488 1.377 . S
C3489 C3490 1.379 . S
C3490 H3474 0.931 . S
C3490 C3484 1.383 . S
C3490 C3489 1.379 . S
H3491 C3485 0.959 . S
H3492 C3485 0.961 . S
H3493 C3485 0.960 . S
H3494 C3486 0.930 . S
H3495 C3487 0.929 . S
H3496 C3504 0.929 1_565 S
H3497 C3506 0.930 . S
H3498 C3508 0.930 . S
H3499 C3511 0.929 . S
H3500 C3514 0.930 . S
H3501 C3516 0.960 . S
H3502 C3516 0.960 . S
H3503 C3516 0.960 . S
C3504 H3496 0.929 1_545 S
C3504 C3505 1.377 1_545 S
C3504 C3506 1.384 . S
C3505 C3504 1.377 1_565 S
C3505 C3511 1.390 1_565 S
C3506 H3497 0.930 . S
C3506 C3504 1.384 . S
C3506 C3507 1.372 . S
C3507 C3506 1.372 . S
C3507 C3508 1.400 . S
C3507 C3512 1.490 . S
C3508 H3498 0.930 . S
C3508 C3507 1.400 . S
C3508 C3511 1.386 . S
H3509 C3525 0.930 . S
H3510 C3526 0.931 . S
C3511 H3499 0.929 . S
C3511 C3505 1.390 1_545 S
C3511 C3508 1.386 . S
C3512 C3507 1.490 . S
C3512 C3514 1.395 . S
C3512 C3515 1.403 . S
H3513 C3519 0.930 . S
C3514 H3500 0.930 . S
C3514 C3512 1.395 . S
C3514 C3517 1.403 . S
C3515 C3512 1.403 . S
C3515 C3516 1.524 . S
C3515 C3519 1.400 . S
C3516 H3501 0.960 . S
C3516 H3502 0.960 . S
C3516 H3503 0.960 . S
C3516 C3515 1.524 . S
C3517 C3514 1.403 . S
C3517 C3518 1.392 . S
C3517 C3521 1.495 . S
C3518 C3517 1.392 . S
C3518 C3519 1.385 . S
C3518 C3520 1.478 . S
C3519 H3513 0.930 . S
C3519 C3515 1.400 . S
C3519 C3518 1.385 . S
C3520 C3518 1.478 . S
C3520 C3522 1.381 . S
C3520 C3526 1.383 . S
C3521 C3517 1.495 . S
C3521 H3527 0.959 . S
C3521 H3528 0.961 . S
C3521 H3529 0.960 . S
C3522 C3520 1.381 . S
C3522 C3523 1.394 . S
C3522 H3530 0.930 . S
C3523 C3522 1.394 . S
C3523 C3524 1.383 . S
C3523 H3531 0.929 . S
C3524 C3523 1.383 . S
C3524 C3525 1.377 . S
C3525 H3509 0.930 . S
C3525 C3524 1.377 . S
C3525 C3526 1.379 . S
C3526 H3510 0.931 . S
C3526 C3520 1.383 . S
C3526 C3525 1.379 . S
H3527 C3521 0.959 . S
H3528 C3521 0.961 . S
H3529 C3521 0.960 . S
H3530 C3522 0.930 . S
H3531 C3523 0.929 . S
H3532 C3540 0.929 . S
H3533 C3542 0.930 . S
H3534 C3544 0.930 . S
H3535 C3547 0.929 . S
H3536 C3550 0.930 . S
H3537 C3552 0.960 . S
H3538 C3552 0.960 . S
H3539 C3552 0.960 . S
C3540 H3532 0.929 . S
C3540 C3541 1.377 . S
C3540 C3542 1.384 . S
C3541 C3540 1.377 . S
C3541 C3547 1.390 . S
C3542 H3533 0.930 . S
C3542 C3540 1.384 . S
C3542 C3543 1.372 . S
C3543 C3542 1.372 . S
C3543 C3544 1.400 . S
C3543 C3548 1.490 . S
C3544 H3534 0.930 . S
C3544 C3543 1.400 . S
C3544 C3547 1.386 . S
H3545 C3561 0.930 . S
H3546 C3562 0.931 . S
C3547 H3535 0.929 . S
C3547 C3541 1.390 . S
C3547 C3544 1.386 . S
C3548 C3543 1.490 . S
C3548 C3550 1.395 . S
C3548 C3551 1.403 . S
H3549 C3555 0.930 . S
C3550 H3536 0.930 . S
C3550 C3548 1.395 . S
C3550 C3553 1.403 . S
C3551 C3548 1.403 . S
C3551 C3552 1.524 . S
C3551 C3555 1.400 . S
C3552 H3537 0.960 . S
C3552 H3538 0.960 . S
C3552 H3539 0.960 . S
C3552 C3551 1.524 . S
C3553 C3550 1.403 . S
C3553 C3554 1.392 . S
C3553 C3557 1.495 . S
C3554 C3553 1.392 . S
C3554 C3555 1.385 . S
C3554 C3556 1.478 . S
C3555 H3549 0.930 . S
C3555 C3551 1.400 . S
C3555 C3554 1.385 . S
C3556 C3554 1.478 . S
C3556 C3558 1.381 . S
C3556 C3562 1.383 . S
C3557 C3553 1.495 . S
C3557 H3563 0.959 . S
C3557 H3564 0.961 . S
C3557 H3565 0.960 . S
C3558 C3556 1.381 . S
C3558 C3559 1.394 . S
C3558 H3566 0.930 . S
C3559 C3558 1.394 . S
C3559 C3560 1.383 . S
C3559 H3567 0.929 . S
C3560 C3559 1.383 . S
C3560 C3561 1.377 . S
C3561 H3545 0.930 . S
C3561 C3560 1.377 . S
C3561 C3562 1.379 . S
C3562 H3546 0.931 . S
C3562 C3556 1.383 . S
C3562 C3561 1.379 . S
H3563 C3557 0.959 . S
H3564 C3557 0.961 . S
H3565 C3557 0.960 . S
H3566 C3558 0.930 . S
H3567 C3559 0.929 . S
H3568 C3576 0.929 . S
H3569 C3578 0.930 . S
H3570 C3580 0.930 . S
H3571 C3583 0.929 . S
H3572 C3586 0.930 . S
H3573 C3588 0.960 . S
H3574 C3588 0.960 . S
H3575 C3588 0.960 . S
C3576 H3568 0.929 . S
C3576 C3577 1.377 . S
C3576 C3578 1.384 . S
C3577 C3576 1.377 . S
C3577 C3583 1.390 . S
C3578 H3569 0.930 . S
C3578 C3576 1.384 . S
C3578 C3579 1.372 . S
C3579 C3578 1.372 . S
C3579 C3580 1.400 . S
C3579 C3584 1.490 . S
C3580 H3570 0.930 . S
C3580 C3579 1.400 . S
C3580 C3583 1.386 . S
H3581 C3597 0.930 . S
H3582 C3598 0.931 . S
C3583 H3571 0.929 . S
C3583 C3577 1.390 . S
C3583 C3580 1.386 . S
C3584 C3579 1.490 . S
C3584 C3586 1.395 . S
C3584 C3587 1.403 . S
H3585 C3591 0.930 . S
C3586 H3572 0.930 . S
C3586 C3584 1.395 . S
C3586 C3589 1.403 . S
C3587 C3584 1.403 . S
C3587 C3588 1.524 . S
C3587 C3591 1.400 . S
C3588 H3573 0.960 . S
C3588 H3574 0.960 . S
C3588 H3575 0.960 . S
C3588 C3587 1.524 . S
C3589 C3586 1.403 . S
C3589 C3590 1.392 . S
C3589 C3593 1.495 . S
C3590 C3589 1.392 . S
C3590 C3591 1.385 . S
C3590 C3592 1.478 . S
C3591 H3585 0.930 . S
C3591 C3587 1.400 . S
C3591 C3590 1.385 . S
C3592 C3590 1.478 . S
C3592 C3594 1.381 . S
C3592 C3598 1.383 . S
C3593 C3589 1.495 . S
C3593 H3599 0.959 . S
C3593 H3600 0.961 . S
C3593 H3601 0.960 . S
C3594 C3592 1.381 . S
C3594 C3595 1.394 . S
C3594 H3602 0.930 . S
C3595 C3594 1.394 . S
C3595 C3596 1.383 . S
C3595 H3603 0.929 . S
C3596 C3595 1.383 . S
C3596 C3597 1.377 . S
C3597 H3581 0.930 . S
C3597 C3596 1.377 . S
C3597 C3598 1.379 . S
C3598 H3582 0.931 . S
C3598 C3592 1.383 . S
C3598 C3597 1.379 . S
H3599 C3593 0.959 . S
H3600 C3593 0.961 . S
H3601 C3593 0.960 . S
H3602 C3594 0.930 . S
H3603 C3595 0.929 . S
H3604 C3612 0.929 . S
H3605 C3614 0.930 . S
H3606 C3616 0.930 . S
H3607 C3619 0.929 . S
H3608 C3622 0.930 . S
H3609 C3624 0.960 . S
H3610 C3624 0.960 . S
H3611 C3624 0.960 . S
C3612 H3604 0.929 . S
C3612 C3613 1.377 . S
C3612 C3614 1.384 . S
C3613 C3612 1.377 . S
C3613 C3619 1.390 . S
C3614 H3605 0.930 . S
C3614 C3612 1.384 . S
C3614 C3615 1.372 . S
C3615 C3614 1.372 . S
C3615 C3616 1.400 . S
C3615 C3620 1.490 . S
C3616 H3606 0.930 . S
C3616 C3615 1.400 . S
C3616 C3619 1.386 . S
H3617 C3633 0.930 . S
H3618 C3634 0.931 . S
C3619 H3607 0.929 . S
C3619 C3613 1.390 . S
C3619 C3616 1.386 . S
C3620 C3615 1.490 . S
C3620 C3622 1.395 . S
C3620 C3623 1.403 . S
H3621 C3627 0.930 . S
C3622 H3608 0.930 . S
C3622 C3620 1.395 . S
C3622 C3625 1.403 . S
C3623 C3620 1.403 . S
C3623 C3624 1.524 . S
C3623 C3627 1.400 . S
C3624 H3609 0.960 . S
C3624 H3610 0.960 . S
C3624 H3611 0.960 . S
C3624 C3623 1.524 . S
C3625 C3622 1.403 . S
C3625 C3626 1.392 . S
C3625 C3629 1.495 . S
C3626 C3625 1.392 . S
C3626 C3627 1.385 . S
C3626 C3628 1.478 . S
C3627 H3621 0.930 . S
C3627 C3623 1.400 . S
C3627 C3626 1.385 . S
C3628 C3626 1.478 . S
C3628 C3630 1.381 . S
C3628 C3634 1.383 . S
C3629 C3625 1.495 . S
C3629 H3635 0.959 . S
C3629 H3636 0.961 . S
C3629 H3637 0.960 . S
C3630 C3628 1.381 . S
C3630 C3631 1.394 . S
C3630 H3638 0.930 . S
C3631 C3630 1.394 . S
C3631 C3632 1.383 . S
C3631 H3639 0.929 . S
C3632 C3631 1.383 . S
C3632 C3633 1.377 . S
C3633 H3617 0.930 . S
C3633 C3632 1.377 . S
C3633 C3634 1.379 . S
C3634 H3618 0.931 . S
C3634 C3628 1.383 . S
C3634 C3633 1.379 . S
H3635 C3629 0.959 . S
H3636 C3629 0.961 . S
H3637 C3629 0.960 . S
H3638 C3630 0.930 . S
H3639 C3631 0.929 . S
H3640 C3648 0.929 . S
H3641 C3650 0.930 . S
H3642 C3652 0.930 . S
H3643 C3655 0.922 1_455 S
H3644 C3658 0.930 . S
H3645 C3660 0.960 . S
H3646 C3660 0.960 . S
H3647 C3660 0.960 . S
C3648 H3640 0.929 . S
C3648 C3649 1.377 1_655 S
C3648 C3650 1.384 . S
C3649 C3648 1.377 1_455 S
C3649 C3655 1.387 1_455 S
C3650 H3641 0.930 . S
C3650 C3648 1.384 . S
C3650 C3651 1.372 . S
C3651 C3650 1.372 . S
C3651 C3652 1.400 . S
C3651 C3656 1.490 . S
C3652 H3642 0.930 . S
C3652 C3651 1.400 . S
C3652 C3655 1.395 . S
H3653 C3669 0.930 . S
H3654 C3670 0.931 . S
C3655 H3643 0.922 1_655 S
C3655 C3649 1.387 1_655 S
C3655 C3652 1.395 . S
C3656 C3651 1.490 . S
C3656 C3658 1.395 . S
C3656 C3659 1.403 . S
H3657 C3663 0.930 . S
C3658 H3644 0.930 . S
C3658 C3656 1.395 . S
C3658 C3661 1.403 . S
C3659 C3656 1.403 . S
C3659 C3660 1.524 . S
C3659 C3663 1.400 . S
C3660 H3645 0.960 . S
C3660 H3646 0.960 . S
C3660 H3647 0.960 . S
C3660 C3659 1.524 . S
C3661 C3658 1.403 . S
C3661 C3662 1.392 . S
C3661 C3665 1.495 . S
C3662 C3661 1.392 . S
C3662 C3663 1.385 . S
C3662 C3664 1.478 . S
C3663 H3657 0.930 . S
C3663 C3659 1.400 . S
C3663 C3662 1.385 . S
C3664 C3662 1.478 . S
C3664 C3666 1.381 . S
C3664 C3670 1.383 . S
C3665 C3661 1.495 . S
C3665 H3671 0.959 . S
C3665 H3672 0.961 . S
C3665 H3673 0.960 . S
C3666 C3664 1.381 . S
C3666 C3667 1.394 . S
C3666 H3674 0.930 . S
C3667 C3666 1.394 . S
C3667 C3668 1.383 . S
C3667 H3675 0.929 . S
C3668 C3667 1.383 . S
C3668 C3669 1.377 . S
C3669 H3653 0.930 . S
C3669 C3668 1.377 . S
C3669 C3670 1.379 . S
C3670 H3654 0.931 . S
C3670 C3664 1.383 . S
C3670 C3669 1.379 . S
H3671 C3665 0.959 . S
H3672 C3665 0.961 . S
H3673 C3665 0.960 . S
H3674 C3666 0.930 . S
H3675 C3667 0.929 . S
H3676 C3684 0.929 . S
H3677 C3686 0.930 . S
H3678 C3688 0.930 . S
H3679 C3691 0.929 . S
H3680 C3694 0.930 . S
H3681 C3696 0.960 . S
H3682 C3696 0.960 . S
H3683 C3696 0.960 . S
C3684 H3676 0.929 . S
C3684 C3685 1.377 . S
C3684 C3686 1.384 . S
C3685 C3684 1.377 . S
C3685 C3691 1.390 . S
C3686 H3677 0.930 . S
C3686 C3684 1.384 . S
C3686 C3687 1.372 . S
C3687 C3686 1.372 . S
C3687 C3688 1.400 . S
C3687 C3692 1.490 . S
C3688 H3678 0.930 . S
C3688 C3687 1.400 . S
C3688 C3691 1.386 . S
H3689 C3705 0.930 . S
H3690 C3706 0.931 . S
C3691 H3679 0.929 . S
C3691 C3685 1.390 . S
C3691 C3688 1.386 . S
C3692 C3687 1.490 . S
C3692 C3694 1.395 . S
C3692 C3695 1.403 . S
H3693 C3699 0.930 . S
C3694 H3680 0.930 . S
C3694 C3692 1.395 . S
C3694 C3697 1.403 . S
C3695 C3692 1.403 . S
C3695 C3696 1.524 . S
C3695 C3699 1.400 . S
C3696 H3681 0.960 . S
C3696 H3682 0.960 . S
C3696 H3683 0.960 . S
C3696 C3695 1.524 . S
C3697 C3694 1.403 . S
C3697 C3698 1.392 . S
C3697 C3701 1.495 . S
C3698 C3697 1.392 . S
C3698 C3699 1.385 . S
C3698 C3700 1.478 . S
C3699 H3693 0.930 . S
C3699 C3695 1.400 . S
C3699 C3698 1.385 . S
C3700 C3698 1.478 . S
C3700 C3702 1.381 . S
C3700 C3706 1.383 . S
C3701 C3697 1.495 . S
C3701 H3707 0.959 . S
C3701 H3708 0.961 . S
C3701 H3709 0.960 . S
C3702 C3700 1.381 . S
C3702 C3703 1.394 . S
C3702 H3710 0.930 . S
C3703 C3702 1.394 . S
C3703 C3704 1.383 . S
C3703 H3711 0.929 . S
C3704 C3703 1.383 . S
C3704 C3705 1.377 . S
C3705 H3689 0.930 . S
C3705 C3704 1.377 . S
C3705 C3706 1.379 . S
C3706 H3690 0.931 . S
C3706 C3700 1.383 . S
C3706 C3705 1.379 . S
H3707 C3701 0.959 . S
H3708 C3701 0.961 . S
H3709 C3701 0.960 . S
H3710 C3702 0.930 . S
H3711 C3703 0.929 . S
H3712 C3720 0.929 . S
H3713 C3722 0.930 . S
H3714 C3724 0.930 . S
H3715 C3727 0.929 1_655 S
H3716 C3730 0.930 . S
H3717 C3732 0.960 . S
H3718 C3732 0.960 . S
H3719 C3732 0.960 . S
C3720 H3712 0.929 . S
C3720 C3721 1.377 1_455 S
C3720 C3722 1.384 . S
C3721 C3720 1.377 1_655 S
C3721 C3727 1.390 1_655 S
C3722 H3713 0.930 . S
C3722 C3720 1.384 . S
C3722 C3723 1.372 . S
C3723 C3722 1.372 . S
C3723 C3724 1.400 . S
C3723 C3728 1.490 . S
C3724 H3714 0.930 . S
C3724 C3723 1.400 . S
C3724 C3727 1.386 . S
H3725 C3741 0.930 . S
H3726 C3742 0.931 . S
C3727 H3715 0.929 1_455 S
C3727 C3721 1.390 1_455 S
C3727 C3724 1.386 . S
C3728 C3723 1.490 . S
C3728 C3730 1.395 . S
C3728 C3731 1.403 . S
H3729 C3735 0.930 . S
C3730 H3716 0.930 . S
C3730 C3728 1.395 . S
C3730 C3733 1.403 . S
C3731 C3728 1.403 . S
C3731 C3732 1.524 . S
C3731 C3735 1.400 . S
C3732 H3717 0.960 . S
C3732 H3718 0.960 . S
C3732 H3719 0.960 . S
C3732 C3731 1.524 . S
C3733 C3730 1.403 . S
C3733 C3734 1.392 . S
C3733 C3737 1.495 . S
C3734 C3733 1.392 . S
C3734 C3735 1.385 . S
C3734 C3736 1.478 . S
C3735 H3729 0.930 . S
C3735 C3731 1.400 . S
C3735 C3734 1.385 . S
C3736 C3734 1.478 . S
C3736 C3738 1.381 . S
C3736 C3742 1.383 . S
C3737 C3733 1.495 . S
C3737 H3743 0.959 . S
C3737 H3744 0.961 . S
C3737 H3745 0.960 . S
C3738 C3736 1.381 . S
C3738 C3739 1.394 . S
C3738 H3746 0.930 . S
C3739 C3738 1.394 . S
C3739 C3740 1.383 . S
C3739 H3747 0.929 . S
C3740 C3739 1.383 . S
C3740 C3741 1.377 . S
C3741 H3725 0.930 . S
C3741 C3740 1.377 . S
C3741 C3742 1.379 . S
C3742 H3726 0.931 . S
C3742 C3736 1.383 . S
C3742 C3741 1.379 . S
H3743 C3737 0.959 . S
H3744 C3737 0.961 . S
H3745 C3737 0.960 . S
H3746 C3738 0.930 . S
H3747 C3739 0.929 . S
H3748 C3756 0.929 . S
H3749 C3758 0.930 . S
H3750 C3760 0.930 . S
H3751 C3763 0.929 . S
H3752 C3766 0.930 . S
H3753 C3768 0.960 . S
H3754 C3768 0.960 . S
H3755 C3768 0.960 . S
C3756 H3748 0.929 . S
C3756 C3757 1.377 . S
C3756 C3758 1.384 . S
C3757 C3756 1.377 . S
C3757 C3763 1.390 . S
C3758 H3749 0.930 . S
C3758 C3756 1.384 . S
C3758 C3759 1.372 . S
C3759 C3758 1.372 . S
C3759 C3760 1.400 . S
C3759 C3764 1.490 . S
C3760 H3750 0.930 . S
C3760 C3759 1.400 . S
C3760 C3763 1.386 . S
H3761 C3777 0.930 . S
H3762 C3778 0.931 . S
C3763 H3751 0.929 . S
C3763 C3757 1.390 . S
C3763 C3760 1.386 . S
C3764 C3759 1.490 . S
C3764 C3766 1.395 . S
C3764 C3767 1.403 . S
H3765 C3771 0.930 . S
C3766 H3752 0.930 . S
C3766 C3764 1.395 . S
C3766 C3769 1.403 . S
C3767 C3764 1.403 . S
C3767 C3768 1.524 . S
C3767 C3771 1.400 . S
C3768 H3753 0.960 . S
C3768 H3754 0.960 . S
C3768 H3755 0.960 . S
C3768 C3767 1.524 . S
C3769 C3766 1.403 . S
C3769 C3770 1.392 . S
C3769 C3773 1.495 . S
C3770 C3769 1.392 . S
C3770 C3771 1.385 . S
C3770 C3772 1.478 . S
C3771 H3765 0.930 . S
C3771 C3767 1.400 . S
C3771 C3770 1.385 . S
C3772 C3770 1.478 . S
C3772 C3774 1.381 . S
C3772 C3778 1.383 . S
C3773 C3769 1.495 . S
C3773 H3779 0.959 . S
C3773 H3780 0.961 . S
C3773 H3781 0.960 . S
C3774 C3772 1.381 . S
C3774 C3775 1.394 . S
C3774 H3782 0.930 . S
C3775 C3774 1.394 . S
C3775 C3776 1.383 . S
C3775 H3783 0.929 . S
C3776 C3775 1.383 . S
C3776 C3777 1.377 . S
C3777 H3761 0.930 . S
C3777 C3776 1.377 . S
C3777 C3778 1.379 . S
C3778 H3762 0.931 . S
C3778 C3772 1.383 . S
C3778 C3777 1.379 . S
H3779 C3773 0.959 . S
H3780 C3773 0.961 . S
H3781 C3773 0.960 . S
H3782 C3774 0.930 . S
H3783 C3775 0.929 . S
H3784 C3792 0.929 . S
H3785 C3794 0.930 . S
H3786 C3796 0.930 . S
H3787 C3799 0.929 . S
H3788 C3802 0.930 . S
H3789 C3804 0.960 . S
H3790 C3804 0.960 . S
H3791 C3804 0.960 . S
C3792 H3784 0.929 . S
C3792 C3793 1.377 . S
C3792 C3794 1.384 . S
C3793 C3792 1.377 . S
C3793 C3799 1.390 . S
C3794 H3785 0.930 . S
C3794 C3792 1.384 . S
C3794 C3795 1.372 . S
C3795 C3794 1.372 . S
C3795 C3796 1.400 . S
C3795 C3800 1.490 . S
C3796 H3786 0.930 . S
C3796 C3795 1.400 . S
C3796 C3799 1.386 . S
H3797 C3813 0.930 . S
H3798 C3814 0.931 . S
C3799 H3787 0.929 . S
C3799 C3793 1.390 . S
C3799 C3796 1.386 . S
C3800 C3795 1.490 . S
C3800 C3802 1.395 . S
C3800 C3803 1.403 . S
H3801 C3807 0.930 . S
C3802 H3788 0.930 . S
C3802 C3800 1.395 . S
C3802 C3805 1.403 . S
C3803 C3800 1.403 . S
C3803 C3804 1.524 . S
C3803 C3807 1.400 . S
C3804 H3789 0.960 . S
C3804 H3790 0.960 . S
C3804 H3791 0.960 . S
C3804 C3803 1.524 . S
C3805 C3802 1.403 . S
C3805 C3806 1.392 . S
C3805 C3809 1.495 . S
C3806 C3805 1.392 . S
C3806 C3807 1.385 . S
C3806 C3808 1.478 . S
C3807 H3801 0.930 . S
C3807 C3803 1.400 . S
C3807 C3806 1.385 . S
C3808 C3806 1.478 . S
C3808 C3810 1.381 . S
C3808 C3814 1.383 . S
C3809 C3805 1.495 . S
C3809 H3815 0.959 . S
C3809 H3816 0.961 . S
C3809 H3817 0.960 . S
C3810 C3808 1.381 . S
C3810 C3811 1.394 . S
C3810 H3818 0.930 . S
C3811 C3810 1.394 . S
C3811 C3812 1.383 . S
C3811 H3819 0.929 . S
C3812 C3811 1.383 . S
C3812 C3813 1.377 . S
C3813 H3797 0.930 . S
C3813 C3812 1.377 . S
C3813 C3814 1.379 . S
C3814 H3798 0.931 . S
C3814 C3808 1.383 . S
C3814 C3813 1.379 . S
H3815 C3809 0.959 . S
H3816 C3809 0.961 . S
H3817 C3809 0.960 . S
H3818 C3810 0.930 . S
H3819 C3811 0.929 . S
H3820 C3828 0.929 . S
H3821 C3830 0.930 . S
H3822 C3832 0.930 . S
H3823 C3835 0.929 . S
H3824 C3838 0.930 . S
H3825 C3840 0.960 . S
H3826 C3840 0.960 . S
H3827 C3840 0.960 . S
C3828 H3820 0.929 . S
C3828 C3829 1.377 . S
C3828 C3830 1.384 . S
C3829 C3828 1.377 . S
C3829 C3835 1.390 . S
C3830 H3821 0.930 . S
C3830 C3828 1.384 . S
C3830 C3831 1.372 . S
C3831 C3830 1.372 . S
C3831 C3832 1.400 . S
C3831 C3836 1.490 . S
C3832 H3822 0.930 . S
C3832 C3831 1.400 . S
C3832 C3835 1.386 . S
H3833 C3849 0.930 . S
H3834 C3850 0.931 . S
C3835 H3823 0.929 . S
C3835 C3829 1.390 . S
C3835 C3832 1.386 . S
C3836 C3831 1.490 . S
C3836 C3838 1.395 . S
C3836 C3839 1.403 . S
H3837 C3843 0.930 . S
C3838 H3824 0.930 . S
C3838 C3836 1.395 . S
C3838 C3841 1.403 . S
C3839 C3836 1.403 . S
C3839 C3840 1.524 . S
C3839 C3843 1.400 . S
C3840 H3825 0.960 . S
C3840 H3826 0.960 . S
C3840 H3827 0.960 . S
C3840 C3839 1.524 . S
C3841 C3838 1.403 . S
C3841 C3842 1.392 . S
C3841 C3845 1.495 . S
C3842 C3841 1.392 . S
C3842 C3843 1.385 . S
C3842 C3844 1.478 . S
C3843 H3837 0.930 . S
C3843 C3839 1.400 . S
C3843 C3842 1.385 . S
C3844 C3842 1.478 . S
C3844 C3846 1.381 . S
C3844 C3850 1.383 . S
C3845 C3841 1.495 . S
C3845 H3851 0.959 . S
C3845 H3852 0.961 . S
C3845 H3853 0.960 . S
C3846 C3844 1.381 . S
C3846 C3847 1.394 . S
C3846 H3854 0.930 . S
C3847 C3846 1.394 . S
C3847 C3848 1.383 . S
C3847 H3855 0.929 . S
C3848 C3847 1.383 . S
C3848 C3849 1.377 . S
C3849 H3833 0.930 . S
C3849 C3848 1.377 . S
C3849 C3850 1.379 . S
C3850 H3834 0.931 . S
C3850 C3844 1.383 . S
C3850 C3849 1.379 . S
H3851 C3845 0.959 . S
H3852 C3845 0.961 . S
H3853 C3845 0.960 . S
H3854 C3846 0.930 . S
H3855 C3847 0.929 . S
H3856 C3864 0.929 . S
H3857 C3866 0.930 . S
H3858 C3868 0.930 . S
H3859 C3871 0.929 . S
H3860 C3874 0.930 . S
H3861 C3876 0.960 . S
H3862 C3876 0.960 . S
H3863 C3876 0.960 . S
C3864 H3856 0.929 . S
C3864 C3865 1.377 . S
C3864 C3866 1.384 . S
C3865 C3864 1.377 . S
C3865 C3871 1.390 . S
C3866 H3857 0.930 . S
C3866 C3864 1.384 . S
C3866 C3867 1.372 . S
C3867 C3866 1.372 . S
C3867 C3868 1.400 . S
C3867 C3872 1.490 . S
C3868 H3858 0.930 . S
C3868 C3867 1.400 . S
C3868 C3871 1.386 . S
H3869 C3885 0.930 . S
H3870 C3886 0.931 . S
C3871 H3859 0.929 . S
C3871 C3865 1.390 . S
C3871 C3868 1.386 . S
C3872 C3867 1.490 . S
C3872 C3874 1.395 . S
C3872 C3875 1.403 . S
H3873 C3879 0.930 . S
C3874 H3860 0.930 . S
C3874 C3872 1.395 . S
C3874 C3877 1.403 . S
C3875 C3872 1.403 . S
C3875 C3876 1.524 . S
C3875 C3879 1.400 . S
C3876 H3861 0.960 . S
C3876 H3862 0.960 . S
C3876 H3863 0.960 . S
C3876 C3875 1.524 . S
C3877 C3874 1.403 . S
C3877 C3878 1.392 . S
C3877 C3881 1.495 . S
C3878 C3877 1.392 . S
C3878 C3879 1.385 . S
C3878 C3880 1.478 . S
C3879 H3873 0.930 . S
C3879 C3875 1.400 . S
C3879 C3878 1.385 . S
C3880 C3878 1.478 . S
C3880 C3882 1.381 . S
C3880 C3886 1.383 . S
C3881 C3877 1.495 . S
C3881 H3887 0.959 . S
C3881 H3888 0.961 . S
C3881 H3889 0.960 . S
C3882 C3880 1.381 . S
C3882 C3883 1.394 . S
C3882 H3890 0.930 . S
C3883 C3882 1.394 . S
C3883 C3884 1.383 . S
C3883 H3891 0.929 . S
C3884 C3883 1.383 . S
C3884 C3885 1.377 . S
C3885 H3869 0.930 . S
C3885 C3884 1.377 . S
C3885 C3886 1.379 . S
C3886 H3870 0.931 . S
C3886 C3880 1.383 . S
C3886 C3885 1.379 . S
H3887 C3881 0.959 . S
H3888 C3881 0.961 . S
H3889 C3881 0.960 . S
H3890 C3882 0.930 . S
H3891 C3883 0.929 . S
H3892 C3900 0.929 . S
H3893 C3902 0.930 . S
H3894 C3904 0.930 . S
H3895 C3907 0.929 . S
H3896 C3910 0.930 . S
H3897 C3912 0.960 . S
H3898 C3912 0.960 . S
H3899 C3912 0.960 . S
C3900 H3892 0.929 . S
C3900 C3901 1.377 . S
C3900 C3902 1.384 . S
C3901 C3900 1.377 . S
C3901 C3907 1.390 . S
C3902 H3893 0.930 . S
C3902 C3900 1.384 . S
C3902 C3903 1.372 . S
C3903 C3902 1.372 . S
C3903 C3904 1.400 . S
C3903 C3908 1.490 . S
C3904 H3894 0.930 . S
C3904 C3903 1.400 . S
C3904 C3907 1.386 . S
H3905 C3921 0.930 . S
H3906 C3922 0.931 . S
C3907 H3895 0.929 . S
C3907 C3901 1.390 . S
C3907 C3904 1.386 . S
C3908 C3903 1.490 . S
C3908 C3910 1.395 . S
C3908 C3911 1.403 . S
H3909 C3915 0.930 . S
C3910 H3896 0.930 . S
C3910 C3908 1.395 . S
C3910 C3913 1.403 . S
C3911 C3908 1.403 . S
C3911 C3912 1.524 . S
C3911 C3915 1.400 . S
C3912 H3897 0.960 . S
C3912 H3898 0.960 . S
C3912 H3899 0.960 . S
C3912 C3911 1.524 . S
C3913 C3910 1.403 . S
C3913 C3914 1.392 . S
C3913 C3917 1.495 . S
C3914 C3913 1.392 . S
C3914 C3915 1.385 . S
C3914 C3916 1.478 . S
C3915 H3909 0.930 . S
C3915 C3911 1.400 . S
C3915 C3914 1.385 . S
C3916 C3914 1.478 . S
C3916 C3918 1.381 . S
C3916 C3922 1.383 . S
C3917 C3913 1.495 . S
C3917 H3923 0.959 . S
C3917 H3924 0.961 . S
C3917 H3925 0.960 . S
C3918 C3916 1.381 . S
C3918 C3919 1.394 . S
C3918 H3926 0.930 . S
C3919 C3918 1.394 . S
C3919 C3920 1.383 . S
C3919 H3927 0.929 . S
C3920 C3919 1.383 . S
C3920 C3921 1.377 . S
C3921 H3905 0.930 . S
C3921 C3920 1.377 . S
C3921 C3922 1.379 . S
C3922 H3906 0.931 . S
C3922 C3916 1.383 . S
C3922 C3921 1.379 . S
H3923 C3917 0.959 . S
H3924 C3917 0.961 . S
H3925 C3917 0.960 . S
H3926 C3918 0.930 . S
H3927 C3919 0.929 . S
H3928 C3936 0.929 . S
H3929 C3938 0.930 . S
H3930 C3940 0.930 . S
H3931 C3943 0.929 . S
H3932 C3946 0.930 . S
H3933 C3948 0.960 . S
H3934 C3948 0.960 . S
H3935 C3948 0.960 . S
C3936 H3928 0.929 . S
C3936 C3937 1.377 . S
C3936 C3938 1.384 . S
C3937 C3936 1.377 . S
C3937 C3943 1.390 . S
C3938 H3929 0.930 . S
C3938 C3936 1.384 . S
C3938 C3939 1.372 . S
C3939 C3938 1.372 . S
C3939 C3940 1.400 . S
C3939 C3944 1.490 . S
C3940 H3930 0.930 . S
C3940 C3939 1.400 . S
C3940 C3943 1.386 . S
H3941 C3957 0.930 . S
H3942 C3958 0.931 . S
C3943 H3931 0.929 . S
C3943 C3937 1.390 . S
C3943 C3940 1.386 . S
C3944 C3939 1.490 . S
C3944 C3946 1.395 . S
C3944 C3947 1.403 . S
H3945 C3951 0.930 . S
C3946 H3932 0.930 . S
C3946 C3944 1.395 . S
C3946 C3949 1.403 . S
C3947 C3944 1.403 . S
C3947 C3948 1.524 . S
C3947 C3951 1.400 . S
C3948 H3933 0.960 . S
C3948 H3934 0.960 . S
C3948 H3935 0.960 . S
C3948 C3947 1.524 . S
C3949 C3946 1.403 . S
C3949 C3950 1.392 . S
C3949 C3953 1.495 . S
C3950 C3949 1.392 . S
C3950 C3951 1.385 . S
C3950 C3952 1.478 . S
C3951 H3945 0.930 . S
C3951 C3947 1.400 . S
C3951 C3950 1.385 . S
C3952 C3950 1.478 . S
C3952 C3954 1.381 . S
C3952 C3958 1.383 . S
C3953 C3949 1.495 . S
C3953 H3959 0.959 . S
C3953 H3960 0.961 . S
C3953 H3961 0.960 . S
C3954 C3952 1.381 . S
C3954 C3955 1.394 . S
C3954 H3962 0.930 . S
C3955 C3954 1.394 . S
C3955 C3956 1.383 . S
C3955 H3963 0.929 . S
C3956 C3955 1.383 . S
C3956 C3957 1.377 . S
C3957 H3941 0.930 . S
C3957 C3956 1.377 . S
C3957 C3958 1.379 . S
C3958 H3942 0.931 . S
C3958 C3952 1.383 . S
C3958 C3957 1.379 . S
H3959 C3953 0.959 . S
H3960 C3953 0.961 . S
H3961 C3953 0.960 . S
H3962 C3954 0.930 . S
H3963 C3955 0.929 . S
H3964 C3972 0.929 . S
H3965 C3974 0.930 . S
H3966 C3976 0.930 . S
H3967 C3979 0.929 . S
H3968 C3982 0.930 . S
H3969 C3984 0.960 . S
H3970 C3984 0.960 . S
H3971 C3984 0.960 . S
C3972 H3964 0.929 . S
C3972 C3973 1.377 . S
C3972 C3974 1.384 . S
C3973 C3972 1.377 . S
C3973 C3979 1.390 . S
C3974 H3965 0.930 . S
C3974 C3972 1.384 . S
C3974 C3975 1.372 . S
C3975 C3974 1.372 . S
C3975 C3976 1.400 . S
C3975 C3980 1.490 . S
C3976 H3966 0.930 . S
C3976 C3975 1.400 . S
C3976 C3979 1.386 . S
H3977 C3993 0.921 1_565 S
H3978 C3994 0.931 . S
C3979 H3967 0.929 . S
C3979 C3973 1.390 . S
C3979 C3976 1.386 . S
C3980 C3975 1.490 . S
C3980 C3982 1.395 . S
C3980 C3983 1.403 . S
H3981 C3987 0.930 . S
C3982 H3968 0.930 . S
C3982 C3980 1.395 . S
C3982 C3985 1.403 . S
C3983 C3980 1.403 . S
C3983 C3984 1.524 . S
C3983 C3987 1.400 . S
C3984 H3969 0.960 . S
C3984 H3970 0.960 . S
C3984 H3971 0.960 . S
C3984 C3983 1.524 . S
C3985 C3982 1.403 . S
C3985 C3986 1.392 . S
C3985 C3989 1.495 . S
C3986 C3985 1.392 . S
C3986 C3987 1.385 . S
C3986 C3988 1.478 . S
C3987 H3981 0.930 . S
C3987 C3983 1.400 . S
C3987 C3986 1.385 . S
C3988 C3986 1.478 . S
C3988 C3990 1.381 . S
C3988 C3994 1.383 . S
C3989 C3985 1.495 . S
C3989 H3995 0.959 . S
C3989 H3996 0.961 . S
C3989 H3997 0.960 . S
C3990 C3988 1.381 . S
C3990 C3991 1.394 . S
C3990 H3998 0.930 . S
C3991 C3990 1.394 . S
C3991 C3992 1.383 . S
C3991 H3999 0.929 . S
C3992 C3991 1.383 . S
C3992 C3993 1.377 . S
C3993 H3977 0.921 1_545 S
C3993 C3992 1.377 . S
C3993 C3994 1.379 . S
C3994 H3978 0.931 . S
C3994 C3988 1.383 . S
C3994 C3993 1.379 . S
H3995 C3989 0.959 . S
H3996 C3989 0.961 . S
H3997 C3989 0.960 . S
H3998 C3990 0.930 . S
H3999 C3991 0.929 . S
H4000 C4008 0.929 . S
H4001 C4010 0.930 . S
H4002 C4012 0.930 . S
H4003 C4015 0.929 . S
H4004 C4018 0.930 . S
H4005 C4020 0.960 . S
H4006 C4020 0.960 . S
H4007 C4020 0.960 . S
C4008 H4000 0.929 . S
C4008 C4009 1.377 . S
C4008 C4010 1.384 . S
C4009 C4008 1.377 . S
C4009 C4015 1.390 . S
C4010 H4001 0.930 . S
C4010 C4008 1.384 . S
C4010 C4011 1.372 . S
C4011 C4010 1.372 . S
C4011 C4012 1.400 . S
C4011 C4016 1.490 . S
C4012 H4002 0.930 . S
C4012 C4011 1.400 . S
C4012 C4015 1.386 . S
H4013 C4029 0.930 . S
H4014 C4030 0.931 . S
C4015 H4003 0.929 . S
C4015 C4009 1.390 . S
C4015 C4012 1.386 . S
C4016 C4011 1.490 . S
C4016 C4018 1.395 . S
C4016 C4019 1.403 . S
H4017 C4023 0.930 . S
C4018 H4004 0.930 . S
C4018 C4016 1.395 . S
C4018 C4021 1.403 . S
C4019 C4016 1.403 . S
C4019 C4020 1.524 . S
C4019 C4023 1.400 . S
C4020 H4005 0.960 . S
C4020 H4006 0.960 . S
C4020 H4007 0.960 . S
C4020 C4019 1.524 . S
C4021 C4018 1.403 . S
C4021 C4022 1.392 . S
C4021 C4025 1.495 . S
C4022 C4021 1.392 . S
C4022 C4023 1.385 . S
C4022 C4024 1.478 . S
C4023 H4017 0.930 . S
C4023 C4019 1.400 . S
C4023 C4022 1.385 . S
C4024 C4022 1.478 . S
C4024 C4026 1.381 . S
C4024 C4030 1.383 . S
C4025 C4021 1.495 . S
C4025 H4031 0.959 . S
C4025 H4032 0.961 . S
C4025 H4033 0.960 . S
C4026 C4024 1.381 . S
C4026 C4027 1.394 . S
C4026 H4034 0.930 . S
C4027 C4026 1.394 . S
C4027 C4028 1.383 . S
C4027 H4035 0.929 . S
C4028 C4027 1.383 . S
C4028 C4029 1.377 . S
C4029 H4013 0.930 . S
C4029 C4028 1.377 . S
C4029 C4030 1.379 . S
C4030 H4014 0.931 . S
C4030 C4024 1.383 . S
C4030 C4029 1.379 . S
H4031 C4025 0.959 . S
H4032 C4025 0.961 . S
H4033 C4025 0.960 . S
H4034 C4026 0.930 . S
H4035 C4027 0.929 . S
H4036 C4044 0.929 . S
H4037 C4046 0.930 . S
H4038 C4048 0.930 . S
H4039 C4051 0.929 1_554 S
H4040 C4054 0.930 . S
H4041 C4056 0.960 . S
H4042 C4056 0.960 . S
H4043 C4056 0.960 . S
C4044 H4036 0.929 . S
C4044 C4045 1.346 1_556 S
C4044 C4046 1.384 . S
C4045 C4044 1.346 1_554 S
C4045 C4051 1.374 1_554 S
C4046 H4037 0.930 . S
C4046 C4044 1.384 . S
C4046 C4047 1.372 . S
C4047 C4046 1.372 . S
C4047 C4048 1.400 . S
C4047 C4052 1.490 . S
C4048 H4038 0.930 . S
C4048 C4047 1.400 . S
C4048 C4051 1.386 . S
H4049 C4065 0.930 1_545 S
H4050 C4066 0.931 . S
C4051 H4039 0.929 1_556 S
C4051 C4045 1.374 1_556 S
C4051 C4048 1.386 . S
C4052 C4047 1.490 . S
C4052 C4054 1.395 . S
C4052 C4055 1.403 . S
H4053 C4059 0.930 . S
C4054 H4040 0.930 . S
C4054 C4052 1.395 . S
C4054 C4057 1.403 . S
C4055 C4052 1.403 . S
C4055 C4056 1.524 . S
C4055 C4059 1.400 . S
C4056 H4041 0.960 . S
C4056 H4042 0.960 . S
C4056 H4043 0.960 . S
C4056 C4055 1.524 . S
C4057 C4054 1.403 . S
C4057 C4058 1.392 . S
C4057 C4061 1.495 . S
C4058 C4057 1.392 . S
C4058 C4059 1.385 . S
C4058 C4060 1.478 . S
C4059 H4053 0.930 . S
C4059 C4055 1.400 . S
C4059 C4058 1.385 . S
C4060 C4058 1.478 . S
C4060 C4062 1.381 . S
C4060 C4066 1.383 . S
C4061 C4057 1.495 . S
C4061 H4067 0.959 . S
C4061 H4068 0.961 . S
C4061 H4069 0.960 . S
C4062 C4060 1.381 . S
C4062 C4063 1.394 . S
C4062 H4070 0.930 . S
C4063 C4062 1.394 . S
C4063 C4064 1.383 . S
C4063 H4071 0.929 . S
C4064 C4063 1.383 . S
C4064 C4065 1.377 . S
C4065 H4049 0.930 1_565 S
C4065 C4064 1.377 . S
C4065 C4066 1.379 . S
C4066 H4050 0.931 . S
C4066 C4060 1.383 . S
C4066 C4065 1.379 . S
H4067 C4061 0.959 . S
H4068 C4061 0.961 . S
H4069 C4061 0.960 . S
H4070 C4062 0.930 . S
H4071 C4063 0.929 . S
H4072 C4080 0.929 . S
H4073 C4082 0.930 . S
H4074 C4084 0.930 . S
H4075 C4087 0.929 . S
H4076 C4090 0.930 . S
H4077 C4092 0.960 . S
H4078 C4092 0.960 . S
H4079 C4092 0.960 . S
C4080 H4072 0.929 . S
C4080 C4081 1.377 . S
C4080 C4082 1.384 . S
C4081 C4080 1.377 . S
C4081 C4087 1.390 . S
C4082 H4073 0.930 . S
C4082 C4080 1.384 . S
C4082 C4083 1.372 . S
C4083 C4082 1.372 . S
C4083 C4084 1.400 . S
C4083 C4088 1.490 . S
C4084 H4074 0.930 . S
C4084 C4083 1.400 . S
C4084 C4087 1.386 . S
H4085 C4101 0.930 . S
H4086 C4102 0.931 . S
C4087 H4075 0.929 . S
C4087 C4081 1.390 . S
C4087 C4084 1.386 . S
C4088 C4083 1.490 . S
C4088 C4090 1.395 . S
C4088 C4091 1.403 . S
H4089 C4095 0.930 . S
C4090 H4076 0.930 . S
C4090 C4088 1.395 . S
C4090 C4093 1.403 . S
C4091 C4088 1.403 . S
C4091 C4092 1.524 . S
C4091 C4095 1.400 . S
C4092 H4077 0.960 . S
C4092 H4078 0.960 . S
C4092 H4079 0.960 . S
C4092 C4091 1.524 . S
C4093 C4090 1.403 . S
C4093 C4094 1.392 . S
C4093 C4097 1.495 . S
C4094 C4093 1.392 . S
C4094 C4095 1.385 . S
C4094 C4096 1.478 . S
C4095 H4089 0.930 . S
C4095 C4091 1.400 . S
C4095 C4094 1.385 . S
C4096 C4094 1.478 . S
C4096 C4098 1.381 . S
C4096 C4102 1.383 . S
C4097 C4093 1.495 . S
C4097 H4103 0.959 . S
C4097 H4104 0.961 . S
C4097 H4105 0.960 . S
C4098 C4096 1.381 . S
C4098 C4099 1.394 . S
C4098 H4106 0.930 . S
C4099 C4098 1.394 . S
C4099 C4100 1.383 . S
C4099 H4107 0.929 . S
C4100 C4099 1.383 . S
C4100 C4101 1.377 . S
C4101 H4085 0.930 . S
C4101 C4100 1.377 . S
C4101 C4102 1.379 . S
C4102 H4086 0.931 . S
C4102 C4096 1.383 . S
C4102 C4101 1.379 . S
H4103 C4097 0.959 . S
H4104 C4097 0.961 . S
H4105 C4097 0.960 . S
H4106 C4098 0.930 . S
H4107 C4099 0.929 . S
H4108 C4116 0.929 . S
H4109 C4118 0.930 . S
H4110 C4120 0.930 . S
H4111 C4123 0.929 1_556 S
H4112 C4126 0.930 . S
H4113 C4128 0.960 . S
H4114 C4128 0.960 . S
H4115 C4128 0.960 . S
C4116 H4108 0.929 . S
C4116 C4117 1.377 1_554 S
C4116 C4118 1.384 . S
C4117 C4116 1.377 1_556 S
C4117 C4123 1.390 1_556 S
C4118 H4109 0.930 . S
C4118 C4116 1.384 . S
C4118 C4119 1.372 . S
C4119 C4118 1.372 . S
C4119 C4120 1.400 . S
C4119 C4124 1.490 . S
C4120 H4110 0.930 . S
C4120 C4119 1.400 . S
C4120 C4123 1.386 . S
H4121 C4137 0.930 . S
H4122 C4138 0.931 . S
C4123 H4111 0.929 1_554 S
C4123 C4117 1.390 1_554 S
C4123 C4120 1.386 . S
C4124 C4119 1.490 . S
C4124 C4126 1.395 . S
C4124 C4127 1.403 . S
H4125 C4131 0.930 . S
C4126 H4112 0.930 . S
C4126 C4124 1.395 . S
C4126 C4129 1.403 . S
C4127 C4124 1.403 . S
C4127 C4128 1.524 . S
C4127 C4131 1.400 . S
C4128 H4113 0.960 . S
C4128 H4114 0.960 . S
C4128 H4115 0.960 . S
C4128 C4127 1.524 . S
C4129 C4126 1.403 . S
C4129 C4130 1.392 . S
C4129 C4133 1.495 . S
C4130 C4129 1.392 . S
C4130 C4131 1.385 . S
C4130 C4132 1.478 . S
C4131 H4125 0.930 . S
C4131 C4127 1.400 . S
C4131 C4130 1.385 . S
C4132 C4130 1.478 . S
C4132 C4134 1.381 . S
C4132 C4138 1.383 . S
C4133 C4129 1.495 . S
C4133 H4139 0.959 . S
C4133 H4140 0.961 1_565 S
C4133 H4141 0.960 . S
C4134 C4132 1.381 . S
C4134 C4135 1.394 . S
C4134 H4142 0.930 . S
C4135 C4134 1.394 . S
C4135 C4136 1.383 . S
C4135 H4143 0.929 . S
C4136 C4135 1.383 . S
C4136 C4137 1.377 . S
C4137 H4121 0.930 . S
C4137 C4136 1.377 . S
C4137 C4138 1.379 . S
C4138 H4122 0.931 . S
C4138 C4132 1.383 . S
C4138 C4137 1.379 . S
H4139 C4133 0.959 . S
H4140 C4133 0.961 1_545 S
H4141 C4133 0.960 . S
H4142 C4134 0.930 . S
H4143 C4135 0.929 . S
H4144 C4152 0.929 . S
H4145 C4154 0.930 . S
H4146 C4156 0.930 . S
H4147 C4159 0.929 . S
H4148 C4162 0.930 . S
H4149 C4164 0.960 . S
H4150 C4164 0.960 . S
H4151 C4164 0.960 . S
C4152 H4144 0.929 . S
C4152 C4153 1.377 . S
C4152 C4154 1.384 . S
C4153 C4152 1.377 . S
C4153 C4159 1.390 . S
C4154 H4145 0.930 . S
C4154 C4152 1.384 . S
C4154 C4155 1.372 . S
C4155 C4154 1.372 . S
C4155 C4156 1.400 . S
C4155 C4160 1.490 . S
C4156 H4146 0.930 . S
C4156 C4155 1.400 . S
C4156 C4159 1.386 . S
H4157 C4173 0.930 . S
H4158 C4174 0.931 . S
C4159 H4147 0.929 . S
C4159 C4153 1.390 . S
C4159 C4156 1.386 . S
C4160 C4155 1.490 . S
C4160 C4162 1.395 . S
C4160 C4163 1.403 . S
H4161 C4167 0.930 . S
C4162 H4148 0.930 . S
C4162 C4160 1.395 . S
C4162 C4165 1.403 . S
C4163 C4160 1.403 . S
C4163 C4164 1.524 . S
C4163 C4167 1.400 . S
C4164 H4149 0.960 . S
C4164 H4150 0.960 . S
C4164 H4151 0.960 . S
C4164 C4163 1.524 . S
C4165 C4162 1.403 . S
C4165 C4166 1.392 . S
C4165 C4169 1.495 . S
C4166 C4165 1.392 . S
C4166 C4167 1.385 . S
C4166 C4168 1.478 . S
C4167 H4161 0.930 . S
C4167 C4163 1.400 . S
C4167 C4166 1.385 . S
C4168 C4166 1.478 . S
C4168 C4170 1.381 . S
C4168 C4174 1.383 . S
C4169 C4165 1.495 . S
C4169 H4175 0.959 . S
C4169 H4176 0.961 . S
C4169 H4177 0.960 . S
C4170 C4168 1.381 . S
C4170 C4171 1.394 . S
C4170 H4178 0.930 . S
C4171 C4170 1.394 . S
C4171 C4172 1.383 . S
C4171 H4179 0.929 . S
C4172 C4171 1.383 . S
C4172 C4173 1.377 . S
C4173 H4157 0.930 . S
C4173 C4172 1.377 . S
C4173 C4174 1.379 . S
C4174 H4158 0.931 . S
C4174 C4168 1.383 . S
C4174 C4173 1.379 . S
H4175 C4169 0.959 . S
H4176 C4169 0.961 . S
H4177 C4169 0.960 . S
H4178 C4170 0.930 . S
H4179 C4171 0.929 . S
C752 C376 0.981 . S
C733 C226 1.032 . S
C788 C384 1.029 . S
C769 C269 1.117 . S
C824 C379 1.137 . S
C805 C250 1.259 . S
C841 C205 1.705 . S
C860 C383 1.597 . S
C896 C438 1.251 . S
C877 C115 1.380 . S
C913 C136 1.123 . S
C932 C414 1.065 . S
C968 C441 1.005 . S
C949 C158 1.084 . S
C985 C97 1.733 . S
C1004 C415 1.585 . S
C1021 C314 1.753 . S
C1040 C472 1.674 . S
C1057 C336 1.437 . S
C1076 C476 1.411 . S
C1112 C531 0.870 . S
C1093 C180 0.854 . S
C1148 C539 1.613 . S
C1129 C294 1.764 . S
C1184 C469 0.897 . S
C1165 C70 0.961 . S
C1220 C477 1.613 . S
C1201 C6 1.649 . S
C1237 C31 1.703 . S
C1256 C534 1.625 . S
C1273 C53 1.593 . S
C1292 C538 1.488 . S
C1309 C29 1.266 . S
C1328 C503 1.187 . S
C1364 C593 1.067 . S
C1345 C181 1.097 . S
C1381 C293 1.615 . S
C1400 C601 1.524 . S
C1436 C655 1.043 . S
C1417 C312 1.154 . S
C1453 C137 1.475 . S
C1472 C507 1.432 . S
C1508 C596 1.058 . S
C1489 C225 1.081 . S
C1544 C600 1.454 . S
C1525 C270 1.526 . S
C1580 C663 1.333 . S
C1561 C206 1.428 . S
C1597 C72 1.033 . S
C1616 C407 0.932 . S
C1633 C4 1.111 . S
C1652 C353 0.992 . S
C1688 C410 1.206 . S
C1669 C30 1.259 . S
C1705 C51 1.704 . S
C1724 C352 1.583 . S
C1741 C313 1.380 . S
C1760 C717 1.251 . S
C1777 C334 1.136 . S
C1796 C693 1.064 . S
C1832 C720 0.994 . S
C1813 C182 1.079 . S
C1849 C295 1.741 . S
C1868 C694 1.626 . S
C1885 C116 1.748 . S
C1904 C627 1.651 . S
C1940 C631 1.354 . S
C1921 C138 1.442 . S
C1976 C686 0.799 . S
C1957 C159 0.852 . S
C2012 C570 1.684 . S
C1993 C96 1.766 . S
C2048 C624 0.900 . S
C2029 C224 0.950 . S
C2065 C268 1.650 . S
C2084 C632 1.610 . S
C2101 C251 1.707 . S
C2120 C689 1.602 . S
C2156 C569 1.481 . S
C2137 C207 1.600 . S
C2173 C249 1.265 . S
C2192 C658 1.098 . S
C2228 C562 1.001 . S
C2209 C160 1.091 . S
C2245 C95 1.610 . S
C2264 C446 1.537 . S
C2281 C114 1.153 . S
C2300 C500 1.035 . S
C2317 C335 1.482 . S
C2336 C662 1.398 . S
C2353 C71 1.072 . S
C2372 C565 0.995 . S
C2389 C5 1.527 . S
C2408 C445 1.411 . S
C2444 C508 1.361 . S
C2425 C52 1.431 . S
C2480 C363 1.670 . S
C2461 C339 1.691 . S
C2516 C393 1.862 . S
C2497 C184 1.910 . S
C2552 C370 1.618 . S
C2533 C290 1.555 . S
C2588 C385 2.033 . S
C2569 C317 1.994 . S
C2624 C425 1.545 . S
C2605 C204 1.554 . S
C2641 C228 2.145 . S
C2660 C416 2.162 . S
C2677 C272 1.732 . S
C2696 C432 1.773 . S
C2713 C248 2.091 . S
C2732 C424 2.070 . S
C2768 C463 1.239 . S
C2749 C49 1.205 . S
C2804 C486 1.809 . S
C2785 C75 1.840 . S
C2821 C8 1.118 . S
C2840 C518 1.058 . S
C2876 C548 1.831 . S
C2857 C26 1.886 . S
C2893 C140 1.170 . S
C2912 C456 1.113 . S
C2948 C478 1.951 . S
C2929 C162 1.936 . S
C2984 C525 1.124 . S
C2965 C94 1.121 . S
C3001 C117 1.935 . S
C3020 C540 1.957 . S
C3056 C487 1.263 . S
C3037 C93 1.300 . S
C3073 C7 1.387 . S
C3092 C580 1.381 . S
C3109 C27 1.340 1_556 S
C3128 C610 1.348 . S
C3145 C48 1.140 . S
C3164 C649 1.186 . S
C3200 C509 1.785 . S
C3181 C227 1.736 . S
C3236 C587 1.226 . S
C3217 C337 1.200 . S
C3253 C183 1.871 . S
C3272 C602 1.911 . S
C3308 C672 1.093 . S
C3289 C316 1.102 . S
C3344 C394 1.650 . S
C3325 C141 1.698 . S
C3361 C161 1.910 . S
C3380 C362 1.874 . S
C3397 C92 1.559 . S
C3416 C401 1.595 . S
C3433 C119 1.995 . S
C3452 C354 2.030 . S
C3488 C704 1.510 . S
C3469 C50 1.561 . S
C3524 C695 2.179 . S
C3505 C74 2.139 . S
C3541 C9 1.731 . S
C3560 C711 1.775 . S
C3577 C28 2.084 . S
C3596 C703 2.046 . S
C3613 C203 1.198 . S
C3632 C618 1.257 . S
C3668 C641 1.784 . S
C3649 C229 1.835 . S
C3704 C673 1.142 . S
C3685 C271 1.118 . S
C3721 C246 1.884 . S
C3740 C579 1.823 . S
C3776 C611 1.146 . S
C3757 C338 1.163 . S
C3793 C185 1.941 . S
C3812 C633 1.942 . S
C3848 C680 1.163 . S
C3829 C292 1.106 . S
C3865 C315 1.937 . S
C3884 C571 1.946 . S
C3901 C291 1.309 . S
C3920 C642 1.316 . S
C3937 C273 1.393 . S
C3956 C549 1.410 . S
C3992 C455 1.286 . S
C3973 C247 1.339 . S
C4009 C202 1.152 . S
C4028 C494 1.202 . S
C4045 C73 1.784 . S
C4064 C664 1.787 . S
C4081 C139 1.197 . S
C4100 C556 1.230 . S
C4136 C447 1.901 . S
C4117 C163 1.874 . S
C4153 C118 1.103 1_554 S
C4172 C517 1.112 . S
