# Generated by pormake.
# Topology ibd, (4,6)-cn, num edge types: 1
# Building blocks:
#     Node 0, Type 0, BuildingBlock: KUFVIS_clean_sbu_0, # of connection points: 4
#     Node 1, Type 0, BuildingBlock: KUFVIS_clean_sbu_0, # of connection points: 4
#     Node 2, Type 0, BuildingBlock: KUFVIS_clean_sbu_0, # of connection points: 4
#     Node 3, Type 0, BuildingBlock: KUFVIS_clean_sbu_0, # of connection points: 4
#     Node 4, Type 0, BuildingBlock: KUFVIS_clean_sbu_0, # of connection points: 4
#     Node 5, Type 0, BuildingBlock: KUFVIS_clean_sbu_0, # of connection points: 4
#     Node 6, Type 0, BuildingBlock: KUFVIS_clean_sbu_0, # of connection points: 4
#     Node 7, Type 0, BuildingBlock: KUFVIS_clean_sbu_0, # of connection points: 4
#     Node 8, Type 0, BuildingBlock: KUFVIS_clean_sbu_0, # of connection points: 4
#     Node 9, Type 0, BuildingBlock: KUFVIS_clean_sbu_0, # of connection points: 4
#     Node 10, Type 0, BuildingBlock: KUFVIS_clean_sbu_0, # of connection points: 4
#     Node 11, Type 0, BuildingBlock: KUFVIS_clean_sbu_0, # of connection points: 4
#     Node 12, Type 0, BuildingBlock: KUFVIS_clean_sbu_0, # of connection points: 4
#     Node 13, Type 0, BuildingBlock: KUFVIS_clean_sbu_0, # of connection points: 4
#     Node 14, Type 0, BuildingBlock: KUFVIS_clean_sbu_0, # of connection points: 4
#     Node 15, Type 0, BuildingBlock: KUFVIS_clean_sbu_0, # of connection points: 4
#     Node 16, Type 0, BuildingBlock: KUFVIS_clean_sbu_0, # of connection points: 4
#     Node 17, Type 0, BuildingBlock: KUFVIS_clean_sbu_0, # of connection points: 4
#     Node 18, Type 0, BuildingBlock: KUFVIS_clean_sbu_0, # of connection points: 4
#     Node 19, Type 0, BuildingBlock: KUFVIS_clean_sbu_0, # of connection points: 4
#     Node 20, Type 0, BuildingBlock: KUFVIS_clean_sbu_0, # of connection points: 4
#     Node 21, Type 0, BuildingBlock: KUFVIS_clean_sbu_0, # of connection points: 4
#     Node 22, Type 0, BuildingBlock: KUFVIS_clean_sbu_0, # of connection points: 4
#     Node 23, Type 0, BuildingBlock: KUFVIS_clean_sbu_0, # of connection points: 4
#     Node 24, Type 1, BuildingBlock: OJICUG_clean_sbu_0, # of connection points: 6
#     Node 25, Type 1, BuildingBlock: OJICUG_clean_sbu_0, # of connection points: 6
#     Node 26, Type 1, BuildingBlock: OJICUG_clean_sbu_0, # of connection points: 6
#     Node 27, Type 1, BuildingBlock: OJICUG_clean_sbu_0, # of connection points: 6
#     Node 28, Type 1, BuildingBlock: OJICUG_clean_sbu_0, # of connection points: 6
#     Node 29, Type 1, BuildingBlock: OJICUG_clean_sbu_0, # of connection points: 6
#     Node 30, Type 1, BuildingBlock: OJICUG_clean_sbu_0, # of connection points: 6
#     Node 31, Type 1, BuildingBlock: OJICUG_clean_sbu_0, # of connection points: 6
#     Node 32, Type 1, BuildingBlock: OJICUG_clean_sbu_0, # of connection points: 6
#     Node 33, Type 1, BuildingBlock: OJICUG_clean_sbu_0, # of connection points: 6
#     Node 34, Type 1, BuildingBlock: OJICUG_clean_sbu_0, # of connection points: 6
#     Node 35, Type 1, BuildingBlock: OJICUG_clean_sbu_0, # of connection points: 6
#     Node 36, Type 1, BuildingBlock: OJICUG_clean_sbu_0, # of connection points: 6
#     Node 37, Type 1, BuildingBlock: OJICUG_clean_sbu_0, # of connection points: 6
#     Node 38, Type 1, BuildingBlock: OJICUG_clean_sbu_0, # of connection points: 6
#     Node 39, Type 1, BuildingBlock: OJICUG_clean_sbu_0, # of connection points: 6
#     Edge 40, Type (0, 1), BuildingBlock: XIVTED_clean_linker_0, # of connection points: 2
#     Edge 41, Type (0, 1), BuildingBlock: XIVTED_clean_linker_0, # of connection points: 2
#     Edge 42, Type (0, 1), BuildingBlock: XIVTED_clean_linker_0, # of connection points: 2
#     Edge 43, Type (0, 1), BuildingBlock: XIVTED_clean_linker_0, # of connection points: 2
#     Edge 44, Type (0, 1), BuildingBlock: XIVTED_clean_linker_0, # of connection points: 2
#     Edge 45, Type (0, 1), BuildingBlock: XIVTED_clean_linker_0, # of connection points: 2
#     Edge 46, Type (0, 1), BuildingBlock: XIVTED_clean_linker_0, # of connection points: 2
#     Edge 47, Type (0, 1), BuildingBlock: XIVTED_clean_linker_0, # of connection points: 2
#     Edge 48, Type (0, 1), BuildingBlock: XIVTED_clean_linker_0, # of connection points: 2
#     Edge 49, Type (0, 1), BuildingBlock: XIVTED_clean_linker_0, # of connection points: 2
#     Edge 50, Type (0, 1), BuildingBlock: XIVTED_clean_linker_0, # of connection points: 2
#     Edge 51, Type (0, 1), BuildingBlock: XIVTED_clean_linker_0, # of connection points: 2
#     Edge 52, Type (0, 1), BuildingBlock: XIVTED_clean_linker_0, # of connection points: 2
#     Edge 53, Type (0, 1), BuildingBlock: XIVTED_clean_linker_0, # of connection points: 2
#     Edge 54, Type (0, 1), BuildingBlock: XIVTED_clean_linker_0, # of connection points: 2
#     Edge 55, Type (0, 1), BuildingBlock: XIVTED_clean_linker_0, # of connection points: 2
#     Edge 56, Type (0, 1), BuildingBlock: XIVTED_clean_linker_0, # of connection points: 2
#     Edge 57, Type (0, 1), BuildingBlock: XIVTED_clean_linker_0, # of connection points: 2
#     Edge 58, Type (0, 1), BuildingBlock: XIVTED_clean_linker_0, # of connection points: 2
#     Edge 59, Type (0, 1), BuildingBlock: XIVTED_clean_linker_0, # of connection points: 2
#     Edge 60, Type (0, 1), BuildingBlock: XIVTED_clean_linker_0, # of connection points: 2
#     Edge 61, Type (0, 1), BuildingBlock: XIVTED_clean_linker_0, # of connection points: 2
#     Edge 62, Type (0, 1), BuildingBlock: XIVTED_clean_linker_0, # of connection points: 2
#     Edge 63, Type (0, 1), BuildingBlock: XIVTED_clean_linker_0, # of connection points: 2
#     Edge 64, Type (0, 1), BuildingBlock: XIVTED_clean_linker_0, # of connection points: 2
#     Edge 65, Type (0, 1), BuildingBlock: XIVTED_clean_linker_0, # of connection points: 2
#     Edge 66, Type (0, 1), BuildingBlock: XIVTED_clean_linker_0, # of connection points: 2
#     Edge 67, Type (0, 1), BuildingBlock: XIVTED_clean_linker_0, # of connection points: 2
#     Edge 68, Type (0, 1), BuildingBlock: XIVTED_clean_linker_0, # of connection points: 2
#     Edge 69, Type (0, 1), BuildingBlock: XIVTED_clean_linker_0, # of connection points: 2
#     Edge 70, Type (0, 1), BuildingBlock: XIVTED_clean_linker_0, # of connection points: 2
#     Edge 71, Type (0, 1), BuildingBlock: XIVTED_clean_linker_0, # of connection points: 2
#     Edge 72, Type (0, 1), BuildingBlock: XIVTED_clean_linker_0, # of connection points: 2
#     Edge 73, Type (0, 1), BuildingBlock: XIVTED_clean_linker_0, # of connection points: 2
#     Edge 74, Type (0, 1), BuildingBlock: XIVTED_clean_linker_0, # of connection points: 2
#     Edge 75, Type (0, 1), BuildingBlock: XIVTED_clean_linker_0, # of connection points: 2
#     Edge 76, Type (0, 1), BuildingBlock: XIVTED_clean_linker_0, # of connection points: 2
#     Edge 77, Type (0, 1), BuildingBlock: XIVTED_clean_linker_0, # of connection points: 2
#     Edge 78, Type (0, 1), BuildingBlock: XIVTED_clean_linker_0, # of connection points: 2
#     Edge 79, Type (0, 1), BuildingBlock: XIVTED_clean_linker_0, # of connection points: 2
#     Edge 80, Type (0, 1), BuildingBlock: XIVTED_clean_linker_0, # of connection points: 2
#     Edge 81, Type (0, 1), BuildingBlock: XIVTED_clean_linker_0, # of connection points: 2
#     Edge 82, Type (0, 1), BuildingBlock: XIVTED_clean_linker_0, # of connection points: 2
#     Edge 83, Type (0, 1), BuildingBlock: XIVTED_clean_linker_0, # of connection points: 2
#     Edge 84, Type (0, 1), BuildingBlock: XIVTED_clean_linker_0, # of connection points: 2
#     Edge 85, Type (0, 1), BuildingBlock: XIVTED_clean_linker_0, # of connection points: 2
#     Edge 86, Type (0, 1), BuildingBlock: XIVTED_clean_linker_0, # of connection points: 2
#     Edge 87, Type (0, 1), BuildingBlock: XIVTED_clean_linker_0, # of connection points: 2
#     Edge 88, Type (0, 1), BuildingBlock: XIVTED_clean_linker_0, # of connection points: 2
#     Edge 89, Type (0, 1), BuildingBlock: XIVTED_clean_linker_0, # of connection points: 2
#     Edge 90, Type (0, 1), BuildingBlock: XIVTED_clean_linker_0, # of connection points: 2
#     Edge 91, Type (0, 1), BuildingBlock: XIVTED_clean_linker_0, # of connection points: 2
#     Edge 92, Type (0, 1), BuildingBlock: XIVTED_clean_linker_0, # of connection points: 2
#     Edge 93, Type (0, 1), BuildingBlock: XIVTED_clean_linker_0, # of connection points: 2
#     Edge 94, Type (0, 1), BuildingBlock: XIVTED_clean_linker_0, # of connection points: 2
#     Edge 95, Type (0, 1), BuildingBlock: XIVTED_clean_linker_0, # of connection points: 2
#     Edge 96, Type (0, 1), BuildingBlock: XIVTED_clean_linker_0, # of connection points: 2
#     Edge 97, Type (0, 1), BuildingBlock: XIVTED_clean_linker_0, # of connection points: 2
#     Edge 98, Type (0, 1), BuildingBlock: XIVTED_clean_linker_0, # of connection points: 2
#     Edge 99, Type (0, 1), BuildingBlock: XIVTED_clean_linker_0, # of connection points: 2
#     Edge 100, Type (0, 1), BuildingBlock: XIVTED_clean_linker_0, # of connection points: 2
#     Edge 101, Type (0, 1), BuildingBlock: XIVTED_clean_linker_0, # of connection points: 2
#     Edge 102, Type (0, 1), BuildingBlock: XIVTED_clean_linker_0, # of connection points: 2
#     Edge 103, Type (0, 1), BuildingBlock: XIVTED_clean_linker_0, # of connection points: 2
#     Edge 104, Type (0, 1), BuildingBlock: XIVTED_clean_linker_0, # of connection points: 2
#     Edge 105, Type (0, 1), BuildingBlock: XIVTED_clean_linker_0, # of connection points: 2
#     Edge 106, Type (0, 1), BuildingBlock: XIVTED_clean_linker_0, # of connection points: 2
#     Edge 107, Type (0, 1), BuildingBlock: XIVTED_clean_linker_0, # of connection points: 2
#     Edge 108, Type (0, 1), BuildingBlock: XIVTED_clean_linker_0, # of connection points: 2
#     Edge 109, Type (0, 1), BuildingBlock: XIVTED_clean_linker_0, # of connection points: 2
#     Edge 110, Type (0, 1), BuildingBlock: XIVTED_clean_linker_0, # of connection points: 2
#     Edge 111, Type (0, 1), BuildingBlock: XIVTED_clean_linker_0, # of connection points: 2
#     Edge 112, Type (0, 1), BuildingBlock: XIVTED_clean_linker_0, # of connection points: 2
#     Edge 113, Type (0, 1), BuildingBlock: XIVTED_clean_linker_0, # of connection points: 2
#     Edge 114, Type (0, 1), BuildingBlock: XIVTED_clean_linker_0, # of connection points: 2
#     Edge 115, Type (0, 1), BuildingBlock: XIVTED_clean_linker_0, # of connection points: 2
#     Edge 116, Type (0, 1), BuildingBlock: XIVTED_clean_linker_0, # of connection points: 2
#     Edge 117, Type (0, 1), BuildingBlock: XIVTED_clean_linker_0, # of connection points: 2
#     Edge 118, Type (0, 1), BuildingBlock: XIVTED_clean_linker_0, # of connection points: 2
#     Edge 119, Type (0, 1), BuildingBlock: XIVTED_clean_linker_0, # of connection points: 2
#     Edge 120, Type (0, 1), BuildingBlock: XIVTED_clean_linker_0, # of connection points: 2
#     Edge 121, Type (0, 1), BuildingBlock: XIVTED_clean_linker_0, # of connection points: 2
#     Edge 122, Type (0, 1), BuildingBlock: XIVTED_clean_linker_0, # of connection points: 2
#     Edge 123, Type (0, 1), BuildingBlock: XIVTED_clean_linker_0, # of connection points: 2
#     Edge 124, Type (0, 1), BuildingBlock: XIVTED_clean_linker_0, # of connection points: 2
#     Edge 125, Type (0, 1), BuildingBlock: XIVTED_clean_linker_0, # of connection points: 2
#     Edge 126, Type (0, 1), BuildingBlock: XIVTED_clean_linker_0, # of connection points: 2
#     Edge 127, Type (0, 1), BuildingBlock: XIVTED_clean_linker_0, # of connection points: 2
#     Edge 128, Type (0, 1), BuildingBlock: XIVTED_clean_linker_0, # of connection points: 2
#     Edge 129, Type (0, 1), BuildingBlock: XIVTED_clean_linker_0, # of connection points: 2
#     Edge 130, Type (0, 1), BuildingBlock: XIVTED_clean_linker_0, # of connection points: 2
#     Edge 131, Type (0, 1), BuildingBlock: XIVTED_clean_linker_0, # of connection points: 2
#     Edge 132, Type (0, 1), BuildingBlock: XIVTED_clean_linker_0, # of connection points: 2
#     Edge 133, Type (0, 1), BuildingBlock: XIVTED_clean_linker_0, # of connection points: 2
#     Edge 134, Type (0, 1), BuildingBlock: XIVTED_clean_linker_0, # of connection points: 2
#     Edge 135, Type (0, 1), BuildingBlock: XIVTED_clean_linker_0, # of connection points: 2
# Relax obj value: 0.372
# Max RMSD: 0.291
# Mean RMSD: 0.281
data_MOF--net-ibd--node1-KUFVIS_clean_sbu_0--node2-OJICUG_clean_sbu_0--edge1-XIVTED_clean_linker_0
_symmetry_space_group_name_H-M    P1
_symmetry_Int_Tables_number       1
_symmetry_cell_setting            triclinic
loop_
_symmetry_equiv_pos_as_xyz
'x, y, z'
_cell_length_a     48.877562
_cell_length_b     48.841071
_cell_length_c     48.86086
_cell_angle_alpha  91.239038
_cell_angle_beta   91.3224
_cell_angle_gamma 91.335175
loop_
_atom_site_label
_atom_site_type_symbol
_atom_site_fract_x
_atom_site_fract_y
_atom_site_fract_z
_atom_type_partial_charge
Mn0 Mn 0.01818 0.249 0.37788 0.0
Mn1 Mn 0.05457 0.30833 0.38372 0.0
C2 C 0.04392 0.25858 0.41681 0.0
C3 C 0.97817 0.22384 0.38323 0.0
C4 C 0.07161 0.25967 0.3492 0.0
O5 O 0.00157 0.27231 0.34825 0.0
O6 O 0.02373 0.31274 0.35688 0.0
C7 C 0.01304 0.34345 0.40896 0.0
N8 N 0.03822 0.33208 0.41 0.0
C9 C 0.04857 0.35352 0.45396 0.0
C10 C 0.02283 0.3656 0.45327 0.0
C11 C 0.00498 0.36051 0.43069 0.0
C12 C 0.05555 0.33684 0.43163 0.0
H13 H -0.00083 0.33947 0.39174 0.0
C14 C 0.0052 0.2979 0.34431 0.0
O15 O -0.00379 0.21603 0.36579 0.0
O16 O 0.98277 0.24692 0.39638 0.0
N17 N 0.0845 0.30672 0.40964 0.0
C18 C 0.10807 0.29251 0.40777 0.0
C19 C 0.12788 0.29489 0.42903 0.0
C20 C 0.1233 0.31189 0.45194 0.0
C21 C 0.099 0.32649 0.45332 0.0
C22 C 0.08011 0.32353 0.43139 0.0
H23 H 0.11171 0.27934 0.39028 0.0
O24 O 0.03664 0.23348 0.41059 0.0
O25 O 0.03559 0.27724 0.40021 0.0
O26 O 0.05231 0.24357 0.35612 0.0
O27 O 0.0736 0.28488 0.35674 0.0
C28 C 0.09256 0.34349 0.47582 0.0
C29 C 0.06735 0.35696 0.47615 0.0
H30 H 0.01646 0.37862 0.47006 0.0
H31 H 0.98502 0.36964 0.43007 0.0
H32 H 0.14657 0.28352 0.42783 0.0
H33 H 0.13849 0.31343 0.46843 0.0
H34 H 0.10669 0.34603 0.49314 0.0
H35 H 0.06249 0.36969 0.49373 0.0
Mn36 Mn 0.01132 0.7422 0.62898 0.0
Mn37 Mn 0.96599 0.70451 0.66364 0.0
C38 C -0.00276 0.69975 0.61171 0.0
C39 C 0.02096 0.77662 0.5986 0.0
C40 C 0.02553 0.71409 0.68144 0.0
O41 O -0.00485 0.76927 0.656 0.0
O42 O 0.96013 0.74387 0.67231 0.0
C43 C 0.91339 0.72025 0.63798 0.0
N44 N 0.93156 0.70056 0.64446 0.0
C45 C 0.90215 0.66522 0.62394 0.0
C46 C 0.88304 0.68511 0.6172 0.0
C47 C 0.88871 0.71274 0.62423 0.0
C48 C 0.92625 0.67388 0.63796 0.0
H49 H 0.91775 0.74153 0.64318 0.0
C50 C 0.97346 0.7666 0.66988 0.0
O51 O 0.03848 0.76998 0.61752 0.0
O52 O -0.00245 0.76342 0.5975 0.0
N53 N 0.9697 0.66614 0.65624 0.0
C54 C 0.99126 0.6499 0.6621 0.0
C55 C 0.98949 0.62186 0.65514 0.0
C56 C 0.9656 0.61081 0.64225 0.0
C57 C 0.94368 0.62792 0.63643 0.0
C58 C 0.94652 0.65566 0.64407 0.0
H59 H 0.00971 0.65828 0.6719 0.0
O60 O 0.01991 0.71104 0.60366 0.0
O61 O 0.98352 0.71392 0.62929 0.0
O62 O 0.03324 0.72527 0.65964 0.0
O63 O 0.0007 0.70687 0.68563 0.0
C64 C 0.91938 0.61866 0.62278 0.0
C65 C 0.89861 0.63729 0.61657 0.0
H66 H 0.86412 0.67945 0.60633 0.0
H67 H 0.87414 0.72823 0.61894 0.0
H68 H 0.00654 0.6088 0.65961 0.0
H69 H 0.96442 0.58922 0.63669 0.0
H70 H 0.91662 0.59733 0.61657 0.0
H71 H 0.88023 0.63 0.60566 0.0
Mn72 Mn 0.48823 0.73653 0.87996 0.0
Mn73 Mn 0.52925 0.79286 0.88068 0.0
C74 C 0.5141 0.74781 0.91845 0.0
C75 C 0.44535 0.71698 0.88628 0.0
C76 C 0.54148 0.74005 0.84997 0.0
O77 O 0.47449 0.75809 0.8478 0.0
O78 O 0.49829 0.79794 0.85437 0.0
C79 C 0.49257 0.83447 0.90361 0.0
N80 N 0.51639 0.8206 0.90503 0.0
C81 C 0.53184 0.84694 0.94486 0.0
C82 C 0.50752 0.86159 0.94376 0.0
C83 C 0.48776 0.85525 0.92311 0.0
C84 C 0.53548 0.82643 0.92489 0.0
H85 H 0.47737 0.82973 0.88771 0.0
C86 C 0.47927 0.7832 0.84252 0.0
O87 O 0.46283 0.70507 0.87062 0.0
O88 O 0.45263 0.74037 0.89759 0.0
N89 N 0.55958 0.79041 0.90596 0.0
C90 C 0.58101 0.77307 0.90532 0.0
C91 C 0.60198 0.7758 0.92539 0.0
C92 C 0.60085 0.79648 0.94574 0.0
C93 C 0.57868 0.81418 0.94589 0.0
C94 C 0.55835 0.81043 0.92541 0.0
H95 H 0.58208 0.75722 0.88967 0.0
O96 O 0.50462 0.72294 0.91476 0.0
O97 O 0.50785 0.76517 0.89972 0.0
O98 O 0.52191 0.72562 0.85923 0.0
O99 O 0.54491 0.76563 0.8553 0.0
C100 C 0.57577 0.83515 0.96579 0.0
C101 C 0.5524 0.85156 0.96522 0.0
H102 H 0.50371 0.8776 0.95879 0.0
H103 H 0.46889 0.8664 0.92219 0.0
H104 H 0.619 0.76202 0.92516 0.0
H105 H 0.61702 0.79846 0.96124 0.0
H106 H 0.59118 0.83856 0.98186 0.0
H107 H 0.55021 0.86737 0.98087 0.0
Mn108 Mn 0.50717 0.20545 0.12445 0.0
Mn109 Mn 0.46197 0.16569 0.15691 0.0
C110 C 0.49272 0.16406 0.10474 0.0
C111 C 0.51677 0.24091 0.09506 0.0
C112 C 0.52104 0.17586 0.17603 0.0
O113 O 0.49033 0.23108 0.15231 0.0
O114 O 0.45536 0.20449 0.16723 0.0
C115 C 0.40863 0.1811 0.13265 0.0
N116 N 0.42776 0.16181 0.13732 0.0
C117 C 0.39977 0.12693 0.11415 0.0
C118 C 0.37979 0.14644 0.10904 0.0
C119 C 0.38425 0.17364 0.11833 0.0
C120 C 0.42358 0.13552 0.12869 0.0
H121 H 0.41201 0.20203 0.13969 0.0
C122 C 0.46853 0.22746 0.16588 0.0
O123 O 0.5342 0.23393 0.11395 0.0
O124 O 0.49343 0.22765 0.09362 0.0
N125 N 0.46685 0.1279 0.14746 0.0
C126 C 0.4886 0.11185 0.15314 0.0
C127 C 0.4877 0.08419 0.14465 0.0
C128 C 0.46447 0.07332 0.13042 0.0
C129 C 0.44233 0.09024 0.12482 0.0
C130 C 0.44434 0.11761 0.13391 0.0
H131 H 0.5065 0.12008 0.16406 0.0
O132 O 0.51591 0.17532 0.09802 0.0
O133 O 0.47941 0.17724 0.12333 0.0
O134 O 0.52899 0.18767 0.15466 0.0
O135 O 0.4963 0.16792 0.17937 0.0
C136 C 0.41845 0.08107 0.11038 0.0
C137 C 0.39717 0.0994 0.10506 0.0
H138 H 0.36102 0.1408 0.09788 0.0
H139 H 0.36894 0.18882 0.11443 0.0
H140 H 0.50487 0.07127 0.14905 0.0
H141 H 0.46389 0.05199 0.12383 0.0
H142 H 0.41629 0.06 0.10312 0.0
H143 H 0.37899 0.09215 0.09377 0.0
Mn144 Mn 0.9891 0.73865 0.13669 0.0
Mn145 Mn 0.02329 0.7908 0.10731 0.0
C146 C 0.02952 0.75639 0.1561 0.0
C147 C 0.95819 0.72061 0.16721 0.0
C148 C 0.02275 0.73234 0.08528 0.0
O149 O 0.95986 0.75432 0.11163 0.0
O150 O 0.98433 0.78973 0.09456 0.0
C151 C -0.00482 0.83739 0.13329 0.0
N152 N 0.0187 0.82412 0.12779 0.0
C153 C 0.04587 0.85873 0.15234 0.0
C154 C 0.02198 0.87301 0.15782 0.0
C155 C -0.00348 0.86222 0.14834 0.0
C156 C 0.04331 0.83426 0.13691 0.0
H157 H 0.97555 0.82896 0.12645 0.0
C158 C 0.9621 0.77553 0.09689 0.0
O159 O 0.9655 0.70678 0.14574 0.0
O160 O 0.96742 0.74571 0.16994 0.0
N161 N 0.061 0.79418 0.11867 0.0
C162 C 0.08164 0.77645 0.11424 0.0
C163 C 0.10824 0.78335 0.1239 0.0
C164 C 0.11335 0.80834 0.13805 0.0
C165 C 0.09177 0.8262 0.14248 0.0
C166 C 0.06573 0.81837 0.13213 0.0
H167 H 0.07776 0.75706 0.10372 0.0
O168 O 0.02164 0.73146 0.161 0.0
O169 O 0.01394 0.76979 0.13954 0.0
O170 O 0.00769 0.72245 0.10362 0.0
O171 O 0.03016 0.75756 0.08468 0.0
C172 C 0.09494 0.85112 0.15741 0.0
C173 C 0.07201 0.86739 0.16231 0.0
H174 H 0.02289 0.89201 0.16968 0.0
H175 H 0.97795 0.87293 0.15279 0.0
H176 H 0.12474 0.76934 0.12061 0.0
H177 H 0.13384 0.81345 0.14574 0.0
H178 H 0.11482 0.8577 0.16569 0.0
H179 H 0.07462 0.88623 0.17429 0.0
Mn180 Mn 0.51232 0.76196 0.37719 0.0
Mn181 Mn 0.45421 0.72369 0.36852 0.0
C182 C 0.50397 0.7375 0.33709 0.0
C183 C 0.5379 0.80204 0.3733 0.0
C184 C 0.50273 0.70653 0.40301 0.0
O185 O 0.4879 0.77711 0.40684 0.0
O186 O 0.44914 0.7524 0.39713 0.0
C187 C 0.41847 0.7662 0.34583 0.0
N188 N 0.43009 0.74122 0.34339 0.0
C189 C 0.40751 0.73248 0.29968 0.0
C190 C 0.39519 0.75806 0.30179 0.0
C191 C 0.40077 0.77502 0.32493 0.0
C192 C 0.42504 0.72483 0.32111 0.0
H193 H 0.42272 0.77933 0.36356 0.0
C194 C 0.46263 0.77129 0.41057 0.0
O195 O 0.54485 0.78365 0.39076 0.0
O196 O 0.51489 0.79812 0.3598 0.0
N197 N 0.45621 0.69541 0.34091 0.0
C198 C 0.47046 0.67176 0.34157 0.0
C199 C 0.46736 0.65263 0.31977 0.0
C200 C 0.44947 0.65786 0.29769 0.0
C201 C 0.43482 0.68219 0.2976 0.0
C202 C 0.43865 0.70045 0.31993 0.0
H203 H 0.48411 0.66754 0.35856 0.0
O204 O 0.52883 0.74487 0.34416 0.0
O205 O 0.48487 0.74471 0.35359 0.0
O206 O 0.5179 0.72719 0.39799 0.0
O207 O 0.478 0.70348 0.39424 0.0
C208 C 0.41681 0.6892 0.27606 0.0
C209 C 0.40332 0.71441 0.27701 0.0
H210 H 0.38153 0.76494 0.28571 0.0
H211 H 0.39143 0.79484 0.32666 0.0
H212 H 0.47875 0.63389 0.31999 0.0
H213 H 0.44728 0.64314 0.28083 0.0
H214 H 0.41347 0.67552 0.2585 0.0
H215 H 0.38986 0.71976 0.26013 0.0
Mn216 Mn 0.53384 0.24987 0.61243 0.0
Mn217 Mn 0.58153 0.28527 0.57802 0.0
C218 C 0.57705 0.25787 0.63195 0.0
C219 C 0.49792 0.24526 0.64254 0.0
C220 C 0.56265 0.22736 0.56271 0.0
O221 O 0.51112 0.27074 0.58462 0.0
O222 O 0.54456 0.29655 0.56589 0.0
C223 C 0.57328 0.34237 0.59719 0.0
N224 N 0.58975 0.32038 0.59467 0.0
C225 C 0.62817 0.3459 0.6147 0.0
C226 C 0.61162 0.36881 0.61751 0.0
C227 C 0.58405 0.36701 0.60876 0.0
C228 C 0.61633 0.32191 0.60296 0.0
H229 H 0.55209 0.34111 0.59048 0.0
C230 C 0.5193 0.28981 0.56897 0.0
O231 O 0.50188 0.22743 0.62313 0.0
O232 O 0.51416 0.26676 0.64381 0.0
N233 N 0.61796 0.27613 0.58903 0.0
C234 C 0.63097 0.25198 0.58554 0.0
C235 C 0.65858 0.25018 0.59372 0.0
C236 C 0.67255 0.27323 0.60531 0.0
C237 C 0.65873 0.29787 0.60868 0.0
C238 C 0.63123 0.29845 0.60011 0.0
H239 H 0.62042 0.23425 0.57643 0.0
O240 O 0.56219 0.23679 0.63879 0.0
O241 O 0.56659 0.27272 0.61279 0.0
O242 O 0.5473 0.22426 0.58296 0.0
O243 O 0.57562 0.24967 0.55819 0.0
C244 C 0.67117 0.32188 0.62025 0.0
C245 C 0.65589 0.34587 0.62327 0.0
H246 H 0.61985 0.38786 0.62641 0.0
H247 H 0.57114 0.3846 0.61087 0.0
H248 H 0.66912 0.23111 0.59097 0.0
H249 H 0.69386 0.27177 0.61155 0.0
H250 H 0.69244 0.32208 0.62698 0.0
H251 H 0.66564 0.36415 0.63233 0.0
Mn252 Mn -0.00166 0.25814 0.87751 0.0
Mn253 Mn 0.94069 0.21878 0.87577 0.0
C254 C 0.98647 0.23302 0.83875 0.0
C255 C 0.02126 0.29946 0.87154 0.0
C256 C 0.99277 0.20389 0.90607 0.0
O257 O 0.97695 0.27263 0.90962 0.0
O258 O 0.93703 0.24888 0.90325 0.0
C259 C 0.90154 0.25865 0.85391 0.0
N260 N 0.91395 0.23405 0.85175 0.0
C261 C 0.88852 0.22236 0.8102 0.0
C262 C 0.87535 0.24752 0.81207 0.0
C263 C 0.88195 0.26576 0.83399 0.0
C264 C 0.90784 0.21639 0.83069 0.0
H265 H 0.90661 0.27278 0.87068 0.0
C266 C 0.95198 0.26759 0.91534 0.0
O267 O 0.03104 0.2812 0.88776 0.0
O268 O -0.00257 0.29428 0.86002 0.0
N269 N 0.9416 0.18917 0.84947 0.0
C270 C 0.95697 0.16626 0.85001 0.0
C271 C 0.95319 0.14609 0.82924 0.0
C272 C 0.93354 0.1496 0.80826 0.0
C273 C 0.9178 0.17323 0.80825 0.0
C274 C 0.92233 0.19253 0.82959 0.0
H275 H 0.97205 0.16338 0.86611 0.0
O276 O 0.01164 0.24139 0.84286 0.0
O277 O 0.96912 0.23986 0.85726 0.0
O278 O 0.00732 0.22378 0.89777 0.0
O279 O 0.96716 0.20083 0.90068 0.0
C280 C 0.89809 0.17859 0.78768 0.0
C281 C 0.88354 0.20319 0.78859 0.0
H282 H 0.8603 0.25312 0.7967 0.0
H283 H 0.87197 0.28526 0.8355 0.0
H284 H 0.96544 0.12792 0.82938 0.0
H285 H 0.93086 0.13412 0.79214 0.0
H286 H 0.89424 0.1641 0.77084 0.0
H287 H 0.86874 0.20726 0.77243 0.0
Mn288 Mn 0.38972 0.98548 0.22389 0.0
Mn289 Mn 0.39418 0.02996 0.27736 0.0
C290 C 0.43015 0.00927 0.23315 0.0
C291 C 0.39258 0.94066 0.20797 0.0
C292 C 0.36401 0.0412 0.22378 0.0
O293 O 0.35666 0.97593 0.24628 0.0
O294 O 0.36531 0.00179 0.28441 0.0
C295 C 0.41468 0.99327 0.32028 0.0
N296 N 0.41773 0.01639 0.30547 0.0
C297 C 0.45953 0.02908 0.33 0.0
C298 C 0.45676 0.00548 0.34563 0.0
C299 C 0.43429 0.98744 0.34066 0.0
C300 C 0.43943 0.03373 0.30987 0.0
H301 H 0.39743 0.97936 0.31653 0.0
C302 C 0.35168 0.98303 0.2709 0.0
O303 O 0.37833 0.9583 0.19453 0.0
O304 O 0.40461 0.94903 0.23064 0.0
N305 N 0.42175 0.058 0.27327 0.0
C306 C 0.42211 0.07917 0.25555 0.0
C307 C 0.44355 0.09884 0.25745 0.0
C308 C 0.46419 0.09672 0.27772 0.0
C309 C 0.46329 0.07486 0.29585 0.0
C310 C 0.44143 0.05589 0.29297 0.0
H311 H 0.40618 0.08108 0.2401 0.0
O312 O 0.42561 -0.00189 0.2091 0.0
O313 O 0.41114 0.00564 0.25088 0.0
O314 O 0.37144 0.01991 0.21066 0.0
O315 O 0.37006 0.046 0.24908 0.0
C316 C 0.48334 0.07102 0.31651 0.0
C317 C 0.4816 0.04803 0.33341 0.0
H318 H 0.47183 0.00092 0.36137 0.0
H319 H 0.43207 0.96912 0.35256 0.0
H320 H 0.44411 0.11563 0.24337 0.0
H321 H 0.4807 0.1119 0.27909 0.0
H322 H 0.50039 0.08545 0.31935 0.0
H323 H 0.49742 0.04504 0.34887 0.0
Mn324 Mn 0.24159 0.13385 0.49845 0.0
Mn325 Mn 0.19905 0.17089 0.45992 0.0
C326 C 0.19798 0.117 0.48769 0.0
C327 C 0.27507 0.10162 0.50396 0.0
C328 C 0.21534 0.18555 0.51884 0.0
O329 O 0.26723 0.16063 0.47972 0.0
O330 O 0.2374 0.18005 0.45025 0.0
C331 C 0.20866 0.14917 0.40398 0.0
N332 N 0.19131 0.15384 0.42491 0.0
C333 C 0.15321 0.13403 0.39871 0.0
C334 C 0.17065 0.1292 0.37682 0.0
C335 C 0.1985 0.13677 0.3795 0.0
C336 C 0.16444 0.14675 0.4225 0.0
H337 H 0.23013 0.15457 0.40606 0.0
C338 C 0.26175 0.17589 0.45948 0.0
O339 O 0.27144 0.12078 0.52221 0.0
O340 O 0.26004 0.10192 0.48169 0.0
N341 N 0.16157 0.16248 0.46762 0.0
C342 C 0.14792 0.16678 0.49127 0.0
C343 C 0.12009 0.15922 0.49242 0.0
C344 C 0.10659 0.14729 0.46928 0.0
C345 C 0.12108 0.14299 0.44519 0.0
C346 C 0.14874 0.15112 0.44519 0.0
H347 H 0.15819 0.17584 0.50917 0.0
O348 O 0.211 0.10881 0.5094 0.0
O349 O 0.21065 0.13558 0.47383 0.0
O350 O 0.22817 0.16385 0.52348 0.0
O351 O 0.20486 0.19095 0.49547 0.0
C352 C 0.10925 0.13056 0.42131 0.0
C353 C 0.1253 0.12611 0.39808 0.0
H354 H 0.16294 0.11939 0.358 0.0
H355 H 0.21213 0.1329 0.36278 0.0
H356 H 0.10907 0.16252 0.51112 0.0
H357 H 0.08516 0.14134 0.4703 0.0
H358 H 0.0879 0.12408 0.4207 0.0
H359 H 0.11606 0.11621 0.37997 0.0
Mn360 Mn 0.12022 0.01154 0.76831 0.0
Mn361 Mn 0.1015 0.06669 0.80564 0.0
C362 C 0.14734 0.05092 0.77026 0.0
C363 C 0.1429 0.97084 0.76158 0.0
C364 C 0.0753 0.05034 0.75086 0.0
O365 O 0.09319 0.99504 0.79452 0.0
O366 O 0.08217 0.03315 0.8185 0.0
C367 C 0.12474 0.05221 0.85982 0.0
N368 N 0.12318 0.0699 0.83869 0.0
C369 C 0.15513 0.10149 0.8615 0.0
C370 C 0.15696 0.08367 0.88355 0.0
C371 C 0.14171 0.05892 0.88269 0.0
C372 C 0.13762 0.09387 0.8394 0.0
H373 H 0.11318 0.0331 0.85924 0.0
C374 C 0.08053 0.00719 0.8137 0.0
O375 O 0.12192 0.9771 0.74646 0.0
O376 O 0.14978 0.98758 0.78176 0.0
N377 N 0.11958 0.10005 0.79553 0.0
C378 C 0.11752 0.1137 0.77157 0.0
C379 C 0.13253 0.13827 0.76855 0.0
C380 C 0.14954 0.14852 0.79015 0.0
C381 C 0.15141 0.13406 0.81458 0.0
C382 C 0.13576 0.10982 0.81651 0.0
H383 H 0.10479 0.10573 0.75476 0.0
O384 O 0.14839 0.03416 0.74933 0.0
O385 O 0.12985 0.04455 0.78881 0.0
O386 O 0.08944 0.02921 0.74706 0.0
O387 O 0.07814 0.06611 0.77195 0.0
C388 C 0.16875 0.14239 0.8368 0.0
C389 C 0.17058 0.12613 0.86026 0.0
H390 H 0.17023 0.08864 0.9011 0.0
H391 H 0.14311 0.04499 0.89957 0.0
H392 H 0.13115 0.14918 0.74955 0.0
H393 H 0.16131 0.16732 0.78763 0.0
H394 H 0.18113 0.16102 0.83588 0.0
H395 H 0.18434 0.13252 0.87702 0.0
Mn396 Mn 0.25407 0.88394 0.0141 0.0
Mn397 Mn 0.21375 0.87558 0.95746 0.0
C398 C 0.23021 0.84347 0.00636 0.0
C399 C 0.29611 0.88142 0.03642 0.0
C400 C 0.1983 0.90919 0.0073 0.0
O401 O 0.26681 0.91452 0.98965 0.0
O402 O 0.24245 0.90403 0.9509 0.0
C403 C 0.25415 0.85248 0.91965 0.0
N404 N 0.2298 0.85026 0.93251 0.0
C405 C 0.2197 0.80647 0.9106 0.0
C406 C 0.24459 0.80836 0.89699 0.0
C407 C 0.26192 0.83144 0.9016 0.0
C408 C 0.21306 0.82805 0.92837 0.0
H409 H 0.26757 0.87016 0.92317 0.0
C410 C 0.26102 0.91797 0.96435 0.0
O411 O 0.27751 0.89766 0.04541 0.0
O412 O 0.29076 0.86788 0.01369 0.0
N413 N 0.18543 0.84818 0.96095 0.0
C414 C 0.16262 0.849 0.97644 0.0
C415 C 0.1433 0.82727 0.97448 0.0
C416 C 0.14749 0.80504 0.95646 0.0
C417 C 0.17099 0.80475 0.94055 0.0
C418 C 0.18945 0.82708 0.94324 0.0
H419 H 0.15917 0.86608 0.99022 0.0
O420 O 0.23905 0.85011 0.03089 0.0
O421 O 0.236 0.86048 0.98715 0.0
O422 O 0.21905 0.90344 0.02203 0.0
O423 O 0.19499 0.90149 0.98224 0.0
C424 C 0.17699 0.78303 0.92238 0.0
C425 C 0.20139 0.78382 0.90752 0.0
H426 H 0.25069 0.79216 0.8831 0.0
H427 H 0.28123 0.83299 0.89127 0.0
H428 H 0.12521 0.82764 0.98683 0.0
H429 H 0.1326 0.78827 0.95509 0.0
H430 H 0.16316 0.76544 0.91995 0.0
H431 H 0.20598 0.76681 0.89393 0.0
Mn432 Mn 0.25522 0.38925 0.99077 0.0
Mn433 Mn 0.31418 0.3934 0.028 0.0
C434 C 0.26446 0.42699 0.01823 0.0
C435 C 0.23107 0.3954 0.95027 0.0
C436 C 0.2652 0.3583 0.04304 0.0
O437 O 0.27841 0.35998 0.9738 0.0
O438 O 0.31874 0.3678 -0.00372 0.0
C439 C 0.34944 0.42057 0.98775 0.0
N440 N 0.33814 0.42035 0.01296 0.0
C441 C 0.36022 0.46349 0.0256 0.0
C442 C 0.37224 0.46408 -0.00017 0.0
C443 C 0.36678 0.44255 0.98081 0.0
C444 C 0.34317 0.44102 0.03138 0.0
H445 H 0.34519 0.40413 0.97301 0.0
C446 C 0.30385 0.3557 0.97753 0.0
O447 O 0.22276 0.37766 0.96785 0.0
O448 O 0.25387 0.40876 0.95583 0.0
N449 N 0.3127 0.41783 0.05911 0.0
C450 C 0.29888 0.41456 0.08277 0.0
C451 C 0.30192 0.43448 0.10386 0.0
C452 C 0.31926 0.45744 0.10049 0.0
C453 C 0.33352 0.4602 0.07611 0.0
C454 C 0.3299 0.43955 0.05592 0.0
H455 H 0.28556 0.39695 0.08553 0.0
O456 O 0.23951 0.42136 0.00998 0.0
O457 O 0.28327 0.41079 0.00952 0.0
O458 O 0.24924 0.36631 0.0241 0.0
O459 O 0.29044 0.3656 0.04554 0.0
C460 C 0.35089 0.48283 0.07088 0.0
C461 C 0.36415 0.48452 0.04562 0.0
H462 H 0.38554 0.48105 0.99436 0.0
H463 H 0.37587 0.44293 0.96083 0.0
H464 H 0.29085 0.43219 0.12263 0.0
H465 H 0.32132 0.4729 0.11669 0.0
H466 H 0.35393 0.49921 0.08603 0.0
H467 H 0.37719 0.50218 0.04171 0.0
Mn468 Mn 0.73057 0.12638 0.03514 0.0
Mn469 Mn 0.76434 0.10113 0.08965 0.0
C470 C 0.74194 0.1544 0.07246 0.0
C471 C 0.72865 0.14632 0.9925 0.0
C472 C 0.70443 0.08861 0.07603 0.0
O473 O 0.74658 0.09134 0.02011 0.0
O474 O 0.77204 0.07823 0.05661 0.0
C475 C 0.82178 0.11164 0.07414 0.0
N476 N 0.80115 0.11526 0.09203 0.0
C477 C 0.83046 0.14288 0.12235 0.0
C478 C 0.85209 0.13921 0.10438 0.0
C479 C 0.84771 0.12356 0.08015 0.0
C480 C 0.80516 0.1302 0.11546 0.0
H481 H 0.81844 0.09989 0.05535 0.0
C482 C 0.76377 0.07562 0.03153 0.0
O483 O 0.70861 0.13134 0.00131 0.0
O484 O 0.75049 0.14897 0.00813 0.0
N485 N 0.75874 0.12224 0.12244 0.0
C486 C 0.73519 0.12574 0.13635 0.0
C487 C 0.73571 0.14204 0.16039 0.0
C488 C 0.76041 0.15458 0.16986 0.0
C489 C 0.78438 0.15068 0.15519 0.0
C490 C 0.78267 0.13399 0.13152 0.0
H491 H 0.71612 0.11632 0.12907 0.0
O492 O 0.72177 0.16058 0.05611 0.0
O493 O 0.75433 0.13189 0.06662 0.0
O494 O 0.70273 0.10438 0.05586 0.0
O495 O 0.72656 0.0853 0.08985 0.0
C496 C 0.80976 0.16323 0.16279 0.0
C497 C 0.83279 0.1593 0.14641 0.0
H498 H 0.87204 0.14862 0.10879 0.0
H499 H 0.86424 0.12082 0.06607 0.0
H500 H 0.7171 0.14506 0.17153 0.0
H501 H 0.76067 0.16736 0.18827 0.0
H502 H 0.81169 0.17628 0.18097 0.0
H503 H 0.85208 0.16942 0.15222 0.0
Mn504 Mn 0.12818 0.49659 0.22663 0.0
Mn505 Mn 0.15558 0.46955 0.16997 0.0
C506 C 0.10339 0.49535 0.18583 0.0
C507 C 0.10332 0.49203 0.26629 0.0
C508 C 0.17458 0.52363 0.19671 0.0
O509 O 0.15874 0.47302 0.24117 0.0
O510 O 0.17156 0.45128 0.2023 0.0
C511 C 0.13532 0.41196 0.16971 0.0
N512 N 0.13648 0.43683 0.15762 0.0
C513 C 0.10806 0.42016 0.11968 0.0
C514 C 0.10646 0.39442 0.13179 0.0
C515 C 0.1202 0.3903 0.15688 0.0
C516 C 0.12373 0.44089 0.13324 0.0
H517 H 0.14573 0.40873 0.18906 0.0
C518 C 0.17215 0.4547 0.22844 0.0
O519 O 0.12106 0.51191 0.26359 0.0
O520 O 0.10053 0.47429 0.24618 0.0
N521 N 0.14032 0.48584 0.13793 0.0
C522 C 0.14252 0.51231 0.12984 0.0
C523 C 0.12919 0.52008 0.10556 0.0
C524 C 0.11369 0.5006 0.08989 0.0
C525 C 0.11167 0.4735 0.09866 0.0
C526 C 0.12558 0.4669 0.12292 0.0
H527 H 0.15422 0.52742 0.14189 0.0
O528 O 0.09795 0.51335 0.20481 0.0
O529 O 0.12386 0.47979 0.19119 0.0
O530 O 0.15561 0.52528 0.21393 0.0
O531 O 0.17715 0.50318 0.18034 0.0
C532 C 0.09598 0.4529 0.08454 0.0
C533 C 0.09421 0.42624 0.09502 0.0
H534 H 0.09458 0.37774 0.1221 0.0
H535 H 0.11904 0.3705 0.16636 0.0
H536 H 0.13075 0.54106 0.09899 0.0
H537 H 0.10327 0.50672 0.07129 0.0
H538 H 0.08497 0.45741 0.06574 0.0
H539 H 0.08186 0.41066 0.08413 0.0
Mn540 Mn 0.76616 0.86452 0.48209 0.0
Mn541 Mn 0.82044 0.86733 0.52608 0.0
C542 C 0.77494 0.90331 0.50829 0.0
C543 C 0.74657 0.87056 0.43912 0.0
C544 C 0.76769 0.83598 0.53678 0.0
O545 O 0.78929 0.83312 0.46928 0.0
O546 O 0.82666 0.8393 0.49692 0.0
C547 C 0.86241 0.88903 0.48902 0.0
N548 N 0.84815 0.89139 0.51253 0.0
C549 C 0.87226 0.93341 0.52536 0.0
C550 C 0.88733 0.93134 0.50136 0.0
C551 C 0.88233 0.90908 0.48309 0.0
C552 C 0.85272 0.91277 0.53021 0.0
H553 H 0.85857 0.872 0.47487 0.0
C554 C 0.81356 0.8272 0.4769 0.0
O555 O 0.73568 0.8538 0.45628 0.0
O556 O 0.76969 0.88253 0.4464 0.0
N557 N 0.81715 0.89396 0.55509 0.0
C558 C 0.80014 0.89349 0.5768 0.0
C559 C 0.80224 0.91454 0.59683 0.0
C560 C 0.8219 0.93574 0.59445 0.0
C561 C 0.83934 0.93567 0.57206 0.0
C562 C 0.83646 0.91401 0.55286 0.0
H563 H 0.78503 0.87723 0.57879 0.0
O564 O 0.75061 0.89854 0.49787 0.0
O565 O 0.7934 0.88541 0.50281 0.0
O566 O 0.75483 0.84348 0.51541 0.0
O567 O 0.79273 0.8425 0.54226 0.0
C568 C 0.85918 0.95644 0.56782 0.0
C569 C 0.87556 0.95537 0.54444 0.0
H570 H 0.90264 0.94682 0.49665 0.0
H571 H 0.89379 0.90741 0.46446 0.0
H572 H 0.7887 0.91446 0.61404 0.0
H573 H 0.82332 0.95204 0.60983 0.0
H574 H 0.86176 0.97352 0.58223 0.0
H575 H 0.89049 0.97165 0.54122 0.0
Mn576 Mn 0.8692 0.02546 0.24464 0.0
Mn577 Mn 0.8717 0.97 0.20302 0.0
C578 C 0.83171 0.01296 0.2175 0.0
C579 C 0.8618 0.04361 0.28785 0.0
C580 C 0.90151 0.02401 0.19294 0.0
O581 O 0.90207 0.00493 0.25873 0.0
O582 O 0.89682 0.96498 0.23491 0.0
C583 C 0.84764 0.92776 0.23841 0.0
N584 N 0.84714 0.94173 0.21459 0.0
C585 C 0.80753 0.91579 0.19787 0.0
C586 C 0.8077 0.90102 0.22216 0.0
C587 C 0.82779 0.90711 0.24256 0.0
C588 C 0.82777 0.93622 0.19494 0.0
H589 H 0.86305 0.93238 0.25414 0.0
C590 C 0.90807 0.97998 0.25408 0.0
O591 O 0.87708 0.05659 0.27075 0.0
O592 O 0.85109 0.02015 0.27986 0.0
N593 N 0.84766 0.97241 0.17169 0.0
C594 C 0.84941 0.98954 0.15013 0.0
C595 C 0.83038 0.9866 0.12822 0.0
C596 C 0.80992 0.96594 0.12858 0.0
C597 C 0.80863 0.94843 0.1509 0.0
C598 C 0.82815 0.95233 0.17214 0.0
H599 H 0.86521 0.00532 0.14961 0.0
O600 O 0.83397 0.03772 0.22764 0.0
O601 O 0.85118 -0.00339 0.224 0.0
O602 O 0.89026 0.03783 0.21176 0.0
O603 O 0.89739 -0.00176 0.18906 0.0
C604 C 0.78855 0.92747 0.15305 0.0
C605 C 0.78786 0.9113 0.17661 0.0
H606 H 0.7924 0.8851 0.22545 0.0
H607 H 0.82798 0.89589 0.26142 0.0
H608 H 0.8315 0.00021 0.11107 0.0
H609 H 0.79521 0.96381 0.1117 0.0
H610 H 0.77329 0.92385 0.13687 0.0
H611 H 0.772 0.8956 0.17826 0.0
Mn612 Mn 0.23069 0.62486 0.51556 0.0
Mn613 Mn 0.27297 0.58924 0.55567 0.0
C614 C 0.24461 0.64284 0.55777 0.0
C615 C 0.22408 0.65525 0.48041 0.0
C616 C 0.21315 0.57383 0.54393 0.0
O617 O 0.24637 0.59617 0.48994 0.0
O618 O 0.28021 0.57961 0.51688 0.0
C619 C 0.32776 0.6115 0.54229 0.0
N620 N 0.30808 0.60682 0.56102 0.0
C621 C 0.33649 0.62698 0.59732 0.0
C622 C 0.35709 0.63197 0.57843 0.0
C623 C 0.35269 0.6242 0.55079 0.0
C624 C 0.31219 0.61397 0.58771 0.0
H625 H 0.3244 0.60571 0.52101 0.0
C626 C 0.26755 0.58176 0.49375 0.0
O627 O 0.20527 0.63738 0.48658 0.0
O628 O 0.24707 0.65501 0.49426 0.0
N629 N 0.26757 0.59786 0.59355 0.0
C630 C 0.24492 0.59342 0.60873 0.0
C631 C 0.2455 0.60113 0.6366 0.0
C632 C 0.26932 0.61332 0.64855 0.0
C633 C 0.29236 0.61772 0.63251 0.0
C634 C 0.29066 0.60943 0.6049 0.0
H635 H 0.22653 0.58414 0.59966 0.0
O636 O 0.22257 0.65149 0.54573 0.0
O637 O 0.25754 0.62397 0.54459 0.0
O638 O 0.20654 0.59585 0.53248 0.0
O639 O 0.23753 0.56879 0.55193 0.0
C640 C 0.31679 0.63044 0.64273 0.0
C641 C 0.33885 0.63505 0.62516 0.0
H642 H 0.37624 0.642 0.58485 0.0
H643 H 0.36844 0.6281 0.53607 0.0
H644 H 0.2276 0.59774 0.64882 0.0
H645 H 0.26962 0.6194 0.67001 0.0
H646 H 0.31871 0.63707 0.664 0.0
H647 H 0.35739 0.64517 0.63317 0.0
Mn648 Mn 0.37107 0.51716 0.75981 0.0
Mn649 Mn 0.36623 0.46223 0.71684 0.0
C650 C 0.33147 0.50846 0.73452 0.0
C651 C 0.36617 0.53756 0.8025 0.0
C652 C 0.39814 0.51429 0.70456 0.0
O653 O 0.40241 0.49352 0.77253 0.0
O654 O 0.39447 0.45582 0.74572 0.0
C655 C 0.34436 0.4213 0.75499 0.0
N656 N 0.3419 0.43524 0.73125 0.0
C657 C 0.29947 0.41147 0.71927 0.0
C658 C 0.30164 0.39676 0.74352 0.0
C659 C 0.32414 0.40176 0.76149 0.0
C660 C 0.32022 0.43074 0.71393 0.0
H661 H 0.3616 0.4251 0.76889 0.0
C662 C 0.40729 0.46882 0.76537 0.0
O663 O 0.38265 0.54801 0.78486 0.0
O664 O 0.35383 0.51445 0.79588 0.0
N665 N 0.33917 0.46566 0.68822 0.0
C666 C 0.33961 0.48229 0.66618 0.0
C667 C 0.31835 0.48008 0.64635 0.0
C668 C 0.29702 0.46067 0.64925 0.0
C669 C 0.29711 0.44364 0.67199 0.0
C670 C 0.3189 0.44668 0.69101 0.0
H671 H 0.35603 0.49712 0.66372 0.0
O672 O 0.33681 0.53292 0.74436 0.0
O673 O 0.3493 0.48997 0.74 0.0
O674 O 0.39141 0.52763 0.72588 0.0
O675 O 0.3912 0.48921 0.69976 0.0
C676 C 0.2763 0.42396 0.67666 0.0
C677 C 0.27738 0.40801 0.70037 0.0
H678 H 0.28607 0.38169 0.74863 0.0
H679 H 0.32589 0.39057 0.78031 0.0
H680 H 0.31843 0.4933 0.62886 0.0
H681 H 0.28064 0.45908 0.63395 0.0
H682 H 0.25918 0.42115 0.66231 0.0
H683 H 0.26105 0.39324 0.70394 0.0
Mn684 Mn 0.61622 0.00432 0.72084 0.0
Mn685 Mn 0.63791 0.97029 0.66497 0.0
C686 C 0.58722 -0.00344 0.68364 0.0
C687 C 0.59637 0.00587 0.76338 0.0
C688 C 0.65497 0.02885 0.67987 0.0
O689 O 0.64983 0.9854 0.73481 0.0
O690 O 0.66135 0.96077 0.69719 0.0
C691 C 0.62424 0.91335 0.68022 0.0
N692 N 0.62136 0.93444 0.66269 0.0
C693 C 0.5903 0.90756 0.63346 0.0
C694 C 0.59314 0.88548 0.65108 0.0
C695 C 0.61017 0.8884 0.67457 0.0
C696 C 0.60515 0.9318 0.63993 0.0
H697 H 0.63707 0.91559 0.69845 0.0
C698 C 0.66471 0.96816 0.72245 0.0
O699 O 0.61287 0.02522 0.75559 0.0
O700 O 0.5924 0.98485 0.7469 0.0
N701 N 0.6163 0.97766 0.6329 0.0
C702 C 0.61403 0.00159 0.61929 0.0
C703 C 0.59679 0.00252 0.59596 0.0
C704 C 0.58203 0.97889 0.5869 0.0
C705 C 0.58468 0.9545 0.60125 0.0
C706 C 0.60242 0.95472 0.62418 0.0
H707 H 0.62508 0.01989 0.62635 0.0
O708 O 0.58288 0.01668 0.70069 0.0
O709 O 0.6086 0.98211 0.68877 0.0
O710 O 0.64032 0.03105 0.70085 0.0
O711 O 0.65585 0.00711 0.66494 0.0
C712 C 0.5699 0.93019 0.59409 0.0
C713 C 0.57273 0.90673 0.61017 0.0
H714 H 0.58207 0.8663 0.64697 0.0
H715 H 0.6123 0.87151 0.68838 0.0
H716 H 0.59473 0.02147 0.5851 0.0
H717 H 0.56851 0.97978 0.56908 0.0
H718 H 0.55599 0.92943 0.5765 0.0
H719 H 0.56094 0.88829 0.60469 0.0
Mn720 Mn 0.74391 0.62348 0.98496 0.0
Mn721 Mn 0.68949 0.64393 0.94758 0.0
C722 C 0.70374 0.59738 0.98233 0.0
C723 C 0.78325 0.59885 0.99258 0.0
C724 C 0.70727 0.67041 0.00183 0.0
O725 O 0.76142 0.64982 0.95851 0.0
O726 O 0.7236 0.66169 0.93429 0.0
C727 C 0.70256 0.61942 0.89355 0.0
N728 N 0.68521 0.62185 0.91486 0.0
C729 C 0.65269 0.59013 0.89308 0.0
C730 C 0.67011 0.5875 0.87083 0.0
C731 C 0.69516 0.60218 0.87109 0.0
C732 C 0.66097 0.60792 0.91474 0.0
H733 H 0.72197 0.63039 0.89374 0.0
C734 C 0.74959 0.66251 0.93905 0.0
O735 O 0.77801 0.62053 0.0071 0.0
O736 O 0.7666 0.5926 0.97213 0.0
N737 N 0.65581 0.62696 0.95834 0.0
C738 C 0.64265 0.62966 0.9825 0.0
C739 C 0.61792 0.61516 0.98617 0.0
C740 C 0.60703 0.59794 0.96504 0.0
C741 C 0.62104 0.59532 0.94044 0.0
C742 C 0.64547 0.6105 0.93784 0.0
H743 H 0.65114 0.64252 -0.00105 0.0
O744 O 0.71992 0.59596 0.00369 0.0
O745 O 0.71085 0.61514 0.96436 0.0
O746 O 0.7276 0.65523 0.00581 0.0
O747 O 0.69119 0.66793 0.98094 0.0
C748 C 0.61206 0.5777 0.91867 0.0
C749 C 0.62785 0.57515 0.89499 0.0
H750 H 0.66463 0.57396 0.85361 0.0
H751 H 0.70882 0.60009 0.85409 0.0
H752 H 0.60736 0.6171 0.00532 0.0
H753 H 0.58809 0.58657 0.96806 0.0
H754 H 0.59326 0.56568 0.92012 0.0
H755 H 0.62096 0.56118 0.8786 0.0
Mn756 Mn 0.88535 0.49204 0.74717 0.0
Mn757 Mn 0.88199 0.53432 0.80229 0.0
C758 C 0.92133 0.52159 0.75815 0.0
C759 C 0.89518 0.44958 0.72839 0.0
C760 C 0.85118 0.54298 0.74864 0.0
O761 O 0.85415 0.47603 0.76869 0.0
O762 O 0.85748 0.5019 0.80748 0.0
C763 C 0.90707 0.49934 0.84428 0.0
N764 N 0.90697 0.52321 0.83037 0.0
C765 C 0.94671 0.5405 0.85576 0.0
C766 C 0.94714 0.51617 0.87046 0.0
C767 C 0.92728 0.49548 0.86464 0.0
C768 C 0.92609 0.54318 0.83569 0.0
H769 H 0.89188 0.48335 0.83982 0.0
C770 C 0.84748 0.48153 0.79326 0.0
O771 O 0.87804 0.46555 0.71632 0.0
O772 O 0.90606 0.45808 0.75163 0.0
N773 N 0.90524 0.56627 0.79994 0.0
C774 C 0.90264 0.58803 0.78316 0.0
C775 C 0.92122 0.61034 0.78604 0.0
C776 C 0.94212 0.61015 0.80624 0.0
C777 C 0.94424 0.58765 0.82344 0.0
C778 C 0.92504 0.56607 0.81972 0.0
H779 H 0.88655 0.58838 0.76768 0.0
O780 O 0.91879 0.51116 0.73354 0.0
O781 O 0.90306 0.51399 0.77543 0.0
O782 O 0.86187 0.52347 0.73531 0.0
O783 O 0.85599 0.5479 0.77414 0.0
C784 C 0.96485 0.58563 0.84389 0.0
C785 C 0.96617 0.56202 0.85995 0.0
H786 H 0.96274 0.51308 0.88613 0.0
H787 H 0.92756 0.47659 0.87581 0.0
H788 H 0.91944 0.62764 0.77269 0.0
H789 H 0.9565 0.62732 0.80829 0.0
H790 H 0.98 0.60198 0.84721 0.0
H791 H 0.98235 0.56053 0.87532 0.0
Mn792 Mn 0.71872 0.3545 0.52927 0.0
Mn793 Mn 0.6845 0.34895 0.46915 0.0
C794 C 0.69495 0.31459 0.51839 0.0
C795 C 0.76029 0.35201 0.55224 0.0
C796 C 0.6661 0.38292 0.51784 0.0
O797 O 0.73319 0.38607 0.50714 0.0
O798 O 0.71624 0.37495 0.46498 0.0
C799 C 0.72557 0.32222 0.43464 0.0
N800 N 0.70026 0.32203 0.44573 0.0
C801 C 0.6886 0.27848 0.42402 0.0
C802 C 0.71448 0.2783 0.41223 0.0
C803 C 0.73306 0.30024 0.41761 0.0
C804 C 0.68224 0.30099 0.44073 0.0
H805 H 0.73997 0.33898 0.43884 0.0
C806 C 0.73237 0.38902 0.48126 0.0
O807 O 0.74104 0.367 0.56206 0.0
O808 O 0.75523 0.33856 0.52946 0.0
N809 N 0.65385 0.32386 0.47074 0.0
C810 C 0.63037 0.32631 0.48503 0.0
C811 C 0.60995 0.30563 0.48253 0.0
C812 C 0.61377 0.28275 0.46527 0.0
C813 C 0.63802 0.28072 0.45065 0.0
C814 C 0.65761 0.30203 0.45387 0.0
H815 H 0.62724 0.34383 0.49831 0.0
O816 O 0.70237 0.31996 0.54365 0.0
O817 O 0.70253 0.33238 0.50054 0.0
O818 O 0.68329 0.37399 0.53523 0.0
O819 O 0.66628 0.37678 0.49224 0.0
C820 C 0.64377 0.25813 0.43349 0.0
C821 C 0.66907 0.25696 0.42026 0.0
H822 H 0.72039 0.26131 0.39921 0.0
H823 H 0.75312 0.30018 0.40871 0.0
H824 H 0.59133 0.3073 0.49397 0.0
H825 H 0.59808 0.26672 0.4636 0.0
H826 H 0.62904 0.24132 0.43068 0.0
H827 H 0.67343 0.23926 0.40749 0.0
Mn828 Mn 0.62951 0.54912 0.2481 0.0
Mn829 Mn 0.60708 0.60083 0.28685 0.0
C830 C 0.65929 0.58467 0.26088 0.0
C831 C 0.64862 0.50629 0.2437 0.0
C832 C 0.58845 0.58854 0.22798 0.0
O833 O 0.59465 0.53428 0.26516 0.0
O834 O 0.58738 0.56695 0.29779 0.0
C835 C 0.6247 0.58825 0.34345 0.0
N836 N 0.62606 0.60479 0.3214 0.0
C837 C 0.65789 0.63573 0.34523 0.0
C838 C 0.65703 0.61889 0.3681 0.0
C839 C 0.64029 0.5951 0.36722 0.0
C840 C 0.64165 0.62804 0.32223 0.0
H841 H 0.61202 0.56985 0.34279 0.0
C842 C 0.58254 0.54333 0.28639 0.0
O843 O 0.63317 0.51605 0.22447 0.0
O844 O 0.65187 0.52088 0.26612 0.0
N845 N 0.62613 0.6339 0.27739 0.0
C846 C 0.6256 0.64728 0.25321 0.0
C847 C 0.64175 0.67117 0.25047 0.0
C848 C 0.65831 0.68103 0.27257 0.0
C849 C 0.65854 0.66692 0.29725 0.0
C850 C 0.64187 0.64332 0.29885 0.0
H851 H 0.61304 0.63975 0.2361 0.0
O852 O 0.66396 0.56973 0.23922 0.0
O853 O 0.6368 0.57871 0.27324 0.0
O854 O 0.60732 0.57218 0.22229 0.0
O855 O 0.58554 0.59906 0.25185 0.0
C856 C 0.67497 0.67512 0.32019 0.0
C857 C 0.67461 0.65956 0.34418 0.0
H858 H 0.66924 0.62396 0.38637 0.0
H859 H 0.63952 0.582 0.38478 0.0
H860 H 0.64151 0.68191 0.23132 0.0
H861 H 0.67087 0.69937 0.27031 0.0
H862 H 0.6881 0.69325 0.31954 0.0
H863 H 0.68748 0.66595 0.36161 0.0
Sc864 Sc 0.10936 0.16887 0.12585 0.0
Sc865 Sc 0.13753 0.10964 0.15329 0.0
Sc866 Sc 0.16031 0.13414 0.0905 0.0
O867 O 0.13578 0.13758 0.12326 0.0
C868 C 0.10393 0.15262 0.06299 0.0
C869 C 0.07373 0.11798 0.14636 0.0
C870 C 0.14174 0.0727 0.09866 0.0
C871 C 0.13084 0.16582 0.18719 0.0
C872 C 0.16368 0.19774 0.10369 0.0
C873 C 0.20008 0.11753 0.14009 0.0
O874 O 0.09398 0.16141 0.08513 0.0
O875 O 0.09415 0.10328 0.15175 0.0
O876 O 0.14801 0.09243 0.08338 0.0
O877 O 0.12214 0.17906 0.16687 0.0
O878 O 0.17434 0.17573 0.09532 0.0
O879 O 0.18109 0.11366 0.15695 0.0
O880 O 0.1397 0.1986 0.11323 0.0
O881 O 0.13557 0.14031 0.18588 0.0
O882 O 0.19559 0.12298 0.11506 0.0
O883 O 0.07604 0.14265 0.13873 0.0
O884 O 0.1283 0.14428 0.06141 0.0
O885 O 0.13958 0.07539 0.12449 0.0
Sc886 Sc 0.15203 0.88418 0.40936 0.0
Sc887 Sc 0.09911 0.8482 0.37347 0.0
Sc888 Sc 0.12541 0.90911 0.34811 0.0
O889 O 0.12557 0.88044 0.37703 0.0
C890 C 0.1348 0.94523 0.40318 0.0
C891 C 0.09688 0.86183 0.43641 0.0
C892 C 0.06277 0.89788 0.35333 0.0
C893 C 0.15369 0.8209 0.39681 0.0
C894 C 0.18825 0.90348 0.35917 0.0
C895 C 0.11572 0.85365 0.31252 0.0
O896 O 0.13971 0.92517 0.41849 0.0
O897 O 0.08461 0.85538 0.41391 0.0
O898 O 0.08269 0.91488 0.35222 0.0
O899 O 0.16625 0.8433 0.40313 0.0
O900 O 0.16816 0.90504 0.34241 0.0
O901 O 0.11183 0.83847 0.33288 0.0
O902 O 0.18547 0.89889 0.38456 0.0
O903 O 0.1289 0.81978 0.38822 0.0
O904 O 0.11816 0.87961 0.31479 0.0
O905 O 0.12179 0.87012 0.43787 0.0
O906 O 0.13215 0.94263 0.37728 0.0
O907 O 0.06581 0.87254 0.35788 0.0
Sc908 Sc 0.37932 0.85114 0.62914 0.0
Sc909 Sc 0.31578 0.87173 0.60354 0.0
Sc910 Sc 0.35212 0.91188 0.65344 0.0
O911 O 0.34901 0.87828 0.62863 0.0
C912 C 0.37571 0.86533 0.69154 0.0
C913 C 0.32592 0.81206 0.62376 0.0
C914 C 0.29027 0.89394 0.6594 0.0
C915 C 0.36579 0.85384 0.56624 0.0
C916 C 0.4123 0.9086 0.6336 0.0
C917 C 0.32627 0.93519 0.59808 0.0
O918 O 0.37751 0.84772 0.67229 0.0
O919 O 0.30954 0.83088 0.6176 0.0
O920 O 0.31287 0.90301 0.66964 0.0
O921 O 0.38288 0.85291 0.58608 0.0
O922 O 0.39164 0.92284 0.63892 0.0
O923 O 0.31936 0.91205 0.58744 0.0
O924 O 0.41126 0.88254 0.63232 0.0
O925 O 0.34029 0.85763 0.56936 0.0
O926 O 0.33567 0.93811 0.62249 0.0
O927 O 0.35168 0.81606 0.62596 0.0
O928 O 0.36973 0.89017 0.68761 0.0
O929 O 0.28751 0.88481 0.63481 0.0
Sc930 Sc 0.38408 0.10529 0.82551 0.0
Sc931 Sc 0.42418 0.1526 0.86581 0.0
Sc932 Sc 0.3588 0.1331 0.88628 0.0
O933 O 0.38899 0.1304 0.85902 0.0
C934 C 0.32453 0.12809 0.82944 0.0
C935 C 0.41425 0.15888 0.80197 0.0
C936 C 0.37825 0.19458 0.88377 0.0
C937 C 0.44597 0.09559 0.84272 0.0
C938 C 0.3586 0.06969 0.87338 0.0
C939 C 0.4121 0.13333 0.92545 0.0
O940 O 0.34431 0.12035 0.81501 0.0
O941 O 0.42262 0.16833 0.82521 0.0
O942 O 0.35916 0.1766 0.88446 0.0
O943 O 0.42305 0.08714 0.83264 0.0
O944 O 0.35663 0.08988 0.8899 0.0
O945 O 0.42895 0.13816 0.90669 0.0
O946 O 0.36597 0.07205 0.84865 0.0
O947 O 0.44967 0.11937 0.85343 0.0
O948 O 0.38633 0.13376 0.92149 0.0
O949 O 0.4015 0.13587 0.79887 0.0
O950 O 0.32681 0.13202 0.8552 0.0
O951 O 0.40312 0.18881 0.87973 0.0
Sc952 Sc 0.64964 0.35954 0.91333 0.0
Sc953 Sc 0.59907 0.3248 0.87238 0.0
Sc954 Sc 0.62702 0.38744 0.85207 0.0
O955 O 0.62511 0.35722 0.87936 0.0
C956 C 0.63277 0.42071 0.90957 0.0
C957 C 0.59382 0.33377 0.93614 0.0
C958 C 0.56365 0.376 0.85373 0.0
C959 C 0.65349 0.29719 0.89603 0.0
C960 C 0.68908 0.38192 0.86718 0.0
C961 C 0.62007 0.33429 0.81272 0.0
O962 O 0.63672 0.39993 0.92418 0.0
O963 O 0.58289 0.32797 0.91281 0.0
O964 O 0.584 0.39255 0.85312 0.0
O965 O 0.66453 0.31945 0.90518 0.0
O966 O 0.67018 0.38414 0.84922 0.0
O967 O 0.61309 0.31816 0.83149 0.0
O968 O 0.68456 0.3761 0.89196 0.0
O969 O 0.62925 0.2957 0.88576 0.0
O970 O 0.62333 0.35997 0.81683 0.0
O971 O 0.61814 0.34342 0.93915 0.0
O972 O 0.63125 0.4192 0.88352 0.0
O973 O 0.56594 0.35045 0.85796 0.0
Sc974 Sc 0.88807 0.36096 0.13886 0.0
Sc975 Sc 0.86531 0.42452 0.16176 0.0
Sc976 Sc 0.82652 0.38545 0.11285 0.0
O977 O 0.85987 0.39028 0.13792 0.0
C978 C 0.87421 0.36218 0.07594 0.0
C979 C 0.92488 0.41627 0.14114 0.0
C980 C 0.8415 0.44784 0.1054 0.0
C981 C 0.88712 0.37745 0.20101 0.0
C982 C 0.83182 0.32567 0.13433 0.0
C983 C 0.80225 0.41222 0.1675 0.0
O984 O 0.89143 0.36084 0.09561 0.0
O985 O 0.90545 0.43209 0.14669 0.0
O986 O 0.83361 0.42467 0.09553 0.0
O987 O 0.88697 0.3591 0.18226 0.0
O988 O 0.81697 0.34563 0.1279 0.0
O989 O 0.82527 0.41952 0.1783 0.0
O990 O 0.85777 0.32787 0.1369 0.0
O991 O 0.8821 0.40247 0.19647 0.0
O992 O 0.79968 0.40205 0.14332 0.0
O993 O 0.922 0.39028 0.14045 0.0
O994 O 0.84925 0.36811 0.07922 0.0
O995 O 0.85049 0.45122 0.12996 0.0
Sc996 Sc 0.89021 0.56099 0.35859 0.0
Sc997 Sc 0.93241 0.60837 0.39619 0.0
Sc998 Sc 0.86725 0.59129 0.41904 0.0
O999 O 0.89683 0.5866 0.39142 0.0
C1000 C 0.83299 0.58866 0.36255 0.0
C1001 C 0.92073 0.61251 0.33251 0.0
C1002 C 0.88805 0.65212 0.41307 0.0
C1003 C 0.95192 0.54977 0.37348 0.0
C1004 C 0.862 0.52812 0.40734 0.0
C1005 C 0.92171 0.59428 0.45738 0.0
O1006 O 0.85233 0.57978 0.34822 0.0
O1007 O 0.92915 0.62295 0.35528 0.0
O1008 O 0.86873 0.63458 0.41509 0.0
O1009 O 0.9283 0.54082 0.36563 0.0
O1010 O 0.86331 0.54816 0.42435 0.0
O1011 O 0.93837 0.59638 0.4379 0.0
O1012 O 0.86916 0.53008 0.38249 0.0
O1013 O 0.95625 0.57391 0.3833 0.0
O1014 O 0.89587 0.59371 0.45345 0.0
O1015 O 0.90895 0.58902 0.33039 0.0
O1016 O 0.8346 0.59071 0.38852 0.0
O1017 O 0.91277 0.64569 0.40922 0.0
Sc1018 Sc 0.90112 0.84906 0.87941 0.0
Sc1019 Sc 0.83299 0.86758 0.89112 0.0
Sc1020 Sc 0.87807 0.91444 0.8622 0.0
O1021 O 0.87085 0.87694 0.87767 0.0
C1022 C 0.93539 0.9036 0.89242 0.0
C1023 C 0.87122 0.84174 0.93643 0.0
C1024 C 0.84112 0.93004 0.91136 0.0
C1025 C 0.85 0.81028 0.86456 0.0
C1026 C 0.90837 0.87557 0.82068 0.0
C1027 C 0.81748 0.90078 0.83921 0.0
O1028 O 0.93161 0.87807 0.89563 0.0
O1029 O 0.84948 0.85412 0.92983 0.0
O1030 O 0.86255 0.93507 0.89789 0.0
O1031 O 0.87547 0.81567 0.86338 0.0
O1032 O 0.89398 0.89652 0.82518 0.0
O1033 O 0.81324 0.87986 0.85365 0.0
O1034 O 0.9136 0.85773 0.83855 0.0
O1035 O 0.83311 0.82677 0.87466 0.0
O1036 O 0.83884 0.91594 0.84195 0.0
O1037 O 0.89088 0.83782 0.92027 0.0
O1038 O 0.91821 0.91835 0.88017 0.0
O1039 O 0.82765 0.90751 0.90919 0.0
Sc1040 Sc 0.84425 0.14773 0.57748 0.0
Sc1041 Sc 0.91117 0.1638 0.59712 0.0
Sc1042 Sc 0.87391 0.1143 0.63234 0.0
O1043 O 0.87657 0.14164 0.60234 0.0
C1044 C 0.81468 0.13645 0.63382 0.0
C1045 C 0.86519 0.20743 0.58953 0.0
C1046 C 0.90788 0.16448 0.66076 0.0
C1047 C 0.89384 0.15191 0.5366 0.0
C1048 C 0.8422 0.08431 0.5814 0.0
C1049 C 0.93457 0.10634 0.61664 0.0
O1050 O 0.81481 0.14085 0.60835 0.0
O1051 O 0.88987 0.20059 0.58633 0.0
O1052 O 0.89663 0.1407 0.66105 0.0
O1053 O 0.8689 0.15518 0.54236 0.0
O1054 O 0.85113 0.08539 0.60613 0.0
O1055 O 0.93721 0.13095 0.60897 0.0
O1056 O 0.84165 0.10506 0.56604 0.0
O1057 O 0.91265 0.15048 0.5549 0.0
O1058 O 0.91134 0.0952 0.62094 0.0
O1059 O 0.84538 0.19012 0.58944 0.0
O1060 O 0.8362 0.13047 0.64727 0.0
O1061 O 0.91149 0.17782 0.63901 0.0
Sc1062 Sc 0.66012 0.08014 0.34399 0.0
Sc1063 Sc 0.65842 0.07534 0.41406 0.0
Sc1064 Sc 0.61094 0.11452 0.37972 0.0
O1065 O 0.64317 0.09038 0.37923 0.0
C1066 C 0.64064 0.1413 0.33248 0.0
C1067 C 0.71155 0.08877 0.38031 0.0
C1068 C 0.64844 0.13542 0.43123 0.0
C1069 C 0.66133 0.02444 0.37671 0.0
C1070 C 0.59902 0.07537 0.3271 0.0
C1071 C 0.59538 0.08093 0.42762 0.0
O1072 O 0.65064 0.11852 0.32519 0.0
O1073 O 0.69995 0.07529 0.39906 0.0
O1074 O 0.62628 0.13573 0.41683 0.0
O1075 O 0.67023 0.03961 0.35778 0.0
O1076 O 0.59326 0.09578 0.34249 0.0
O1077 O 0.6198 0.07582 0.43506 0.0
O1078 O 0.62195 0.06361 0.32804 0.0
O1079 O 0.65112 0.03432 0.39845 0.0
O1080 O 0.58955 0.0844 0.40259 0.0
O1081 O 0.69844 0.09691 0.35936 0.0
O1082 O 0.63098 0.14518 0.35613 0.0
O1083 O 0.66552 0.11615 0.42971 0.0
Sc1084 Sc 0.63398 0.87529 0.11067 0.0
Sc1085 Sc 0.60278 0.82954 0.15508 0.0
Sc1086 Sc 0.59841 0.90064 0.16594 0.0
O1087 O 0.6119 0.86849 0.14425 0.0
C1088 C 0.66157 0.91525 0.15414 0.0
C1089 C 0.6586 0.81837 0.1303 0.0
C1090 C 0.61254 0.85929 0.21342 0.0
C1091 C 0.59245 0.83028 0.09017 0.0
C1092 C 0.59803 0.92908 0.10999 0.0
C1093 C 0.54658 0.85969 0.16282 0.0
O1094 O 0.66454 0.89742 0.13499 0.0
O1095 O 0.64415 0.81644 0.15143 0.0
O1096 O 0.60914 0.883 0.20411 0.0
O1097 O 0.60291 0.85402 0.08651 0.0
O1098 O 0.58523 0.92339 0.13136 0.0
O1099 O 0.56003 0.83807 0.15903 0.0
O1100 O 0.61687 0.91416 0.10114 0.0
O1101 O 0.59401 0.81768 0.11274 0.0
O1102 O 0.55752 0.88345 0.16625 0.0
O1103 O 0.65571 0.83754 0.11344 0.0
O1104 O 0.63889 0.91961 0.16584 0.0
O1105 O 0.61061 0.83766 0.19839 0.0
Sc1106 Sc 0.33622 0.6685 0.0994 0.0
Sc1107 Sc 0.4064 0.67493 0.10014 0.0
Sc1108 Sc 0.37521 0.62777 0.14213 0.0
O1109 O 0.37258 0.65697 0.11425 0.0
C1110 C 0.32129 0.65332 0.1609 0.0
C1111 C 0.36581 0.7245 0.10496 0.0
C1112 C 0.41981 0.67368 0.16232 0.0
C1113 C 0.37262 0.66697 0.04667 0.0
C1114 C 0.32928 0.60495 0.09914 0.0
C1115 C 0.42806 0.61493 0.11165 0.0
O1116 O 0.31499 0.66074 0.13683 0.0
O1117 O 0.38687 0.71374 0.09479 0.0
O1118 O 0.40733 0.65061 0.16478 0.0
O1119 O 0.35176 0.67588 0.0589 0.0
O1120 O 0.34359 0.60281 0.12117 0.0
O1121 O 0.43153 0.63974 0.10506 0.0
O1122 O 0.3268 0.62726 0.08643 0.0
O1123 O 0.39471 0.66149 0.05945 0.0
O1124 O 0.40517 0.60573 0.11961 0.0
O1125 O 0.3453 0.71016 0.11234 0.0
O1126 O 0.34544 0.64663 0.16759 0.0
O1127 O 0.41854 0.68781 0.14074 0.0
Sc1128 Sc 0.15527 0.60329 0.85029 0.0
Sc1129 Sc 0.16065 0.6035 0.92057 0.0
Sc1130 Sc 0.11347 0.64514 0.88889 0.0
O1131 O 0.14299 0.61757 0.88649 0.0
C1132 C 0.14099 0.66517 0.83604 0.0
C1133 C 0.2109 0.60723 0.88063 0.0
C1134 C 0.15914 0.66567 0.93351 0.0
C1135 C 0.15351 0.55002 0.88678 0.0
C1136 C 0.09182 0.60323 0.8415 0.0
C1137 C 0.10038 0.61507 0.9415 0.0
O1138 O 0.14885 0.64128 0.82965 0.0
O1139 O 0.19967 0.59754 0.90168 0.0
O1140 O 0.13582 0.6677 0.92143 0.0
O1141 O 0.16159 0.56266 0.86577 0.0
O1142 O 0.08909 0.62464 0.85654 0.0
O1143 O 0.12527 0.60904 0.94538 0.0
O1144 O 0.11426 0.59076 0.83931 0.0
O1145 O 0.14763 0.5625 0.90897 0.0
O1146 O 0.09124 0.62182 0.91818 0.0
O1147 O 0.19696 0.61548 0.86024 0.0
O1148 O 0.13247 0.67122 0.85972 0.0
O1149 O 0.1735 0.64427 0.9322 0.0
Sc1150 Sc 0.14437 0.37316 0.62332 0.0
Sc1151 Sc 0.1014 0.33457 0.66354 0.0
Sc1152 Sc 0.09785 0.40504 0.66477 0.0
O1153 O 0.11467 0.37102 0.65049 0.0
C1154 C 0.15898 0.42334 0.6647 0.0
C1155 C 0.16474 0.32363 0.65312 0.0
C1156 C 0.10302 0.36782 0.71766 0.0
C1157 C 0.10612 0.32296 0.6015 0.0
C1158 C 0.10887 0.42031 0.60248 0.0
C1159 C 0.04649 0.36772 0.65927 0.0
O1160 O 0.16321 0.4093 0.64297 0.0
O1161 O 0.14051 0.31536 0.65806 0.0
O1162 O 0.09329 0.38819 0.7051 0.0
O1163 O 0.12821 0.33736 0.60082 0.0
O1164 O 0.10148 0.42634 0.62664 0.0
O1165 O 0.05981 0.34795 0.66908 0.0
O1166 O 0.12055 0.39803 0.59671 0.0
O1167 O 0.09075 0.32243 0.6222 0.0
O1168 O 0.05819 0.38967 0.65165 0.0
O1169 O 0.17004 0.34858 0.64835 0.0
O1170 O 0.13699 0.4215 0.678 0.0
O1171 O 0.11183 0.34676 0.70508 0.0
Sc1172 Sc 0.60035 0.65602 0.6238 0.0
Sc1173 Sc 0.6237 0.59592 0.65342 0.0
Sc1174 Sc 0.65406 0.61995 0.59397 0.0
O1175 O 0.62612 0.62408 0.62376 0.0
C1176 C 0.60108 0.63944 0.56083 0.0
C1177 C 0.56144 0.60547 0.6394 0.0
C1178 C 0.63374 0.55868 0.60036 0.0
C1179 C 0.61378 0.65164 0.68691 0.0
C1180 C 0.65717 0.68385 0.60632 0.0
C1181 C 0.68752 0.60376 0.64821 0.0
O1182 O 0.58924 0.64873 0.58178 0.0
O1183 O 0.58089 0.59004 0.64605 0.0
O1184 O 0.6421 0.57813 0.58569 0.0
O1185 O 0.60895 0.66592 0.66604 0.0
O1186 O 0.66815 0.66151 0.59944 0.0
O1187 O 0.6665 0.59978 0.66249 0.0
O1188 O 0.63248 0.68523 0.61391 0.0
O1189 O 0.61759 0.62601 0.68543 0.0
O1190 O 0.68622 0.609 0.62279 0.0
O1191 O 0.56501 0.63052 0.63339 0.0
O1192 O 0.62524 0.63027 0.56168 0.0
O1193 O 0.62881 0.56179 0.62561 0.0
Sc1194 Sc 0.34871 0.36969 0.39161 0.0
Sc1195 Sc 0.37213 0.40307 0.33428 0.0
Sc1196 Sc 0.41684 0.36421 0.37356 0.0
O1197 O 0.3794 0.37928 0.36643 0.0
C1198 C 0.40028 0.37347 0.43316 0.0
C1199 C 0.34116 0.43209 0.38417 0.0
C1200 C 0.43151 0.42394 0.35173 0.0
C1201 C 0.31576 0.37232 0.33491 0.0
C1202 C 0.37588 0.31372 0.38423 0.0
C1203 C 0.41032 0.35701 0.3094 0.0
O1204 O 0.37554 0.36653 0.42741 0.0
O1205 O 0.34913 0.43113 0.35946 0.0
O1206 O 0.43825 0.40146 0.36238 0.0
O1207 O 0.31644 0.3707 0.36077 0.0
O1208 O 0.3999 0.32456 0.38569 0.0
O1209 O 0.39439 0.37709 0.30686 0.0
O1210 O 0.35425 0.32752 0.38216 0.0
O1211 O 0.33637 0.37988 0.32158 0.0
O1212 O 0.41913 0.34867 0.33238 0.0
O1213 O 0.34224 0.41202 0.40037 0.0
O1214 O 0.41724 0.37941 0.41486 0.0
O1215 O 0.40753 0.42833 0.34271 0.0
H1216 H 0.09044 0.20792 0.34854 0.0
H1217 H 0.13578 0.22109 0.19592 0.0
H1218 H 0.09861 0.28507 0.30786 0.0
H1219 H 0.13274 0.14476 0.23883 0.0
H1220 H 0.13224 0.24591 0.23939 0.0
H1221 H 0.11599 0.18599 0.31227 0.0
C1222 C 0.09804 0.22032 0.3321 0.0
C1223 C 0.09189 0.24816 0.33071 0.0
C1224 C 0.1328 0.22376 0.23941 0.0
C1225 C 0.1207 0.22314 0.28889 0.0
C1226 C 0.1347 0.20953 0.21457 0.0
C1227 C 0.13377 0.18076 0.21371 0.0
C1228 C 0.12956 0.20913 0.26355 0.0
C1229 C 0.13307 0.16692 0.23852 0.0
C1230 C 0.11267 0.2078 0.31142 0.0
C1231 C 0.10268 0.26346 0.30942 0.0
N1232 N 0.13042 0.18124 0.26241 0.0
N1233 N 0.11607 0.25058 0.28892 0.0
H1234 H 0.0664 0.81004 0.59849 0.0
H1235 H 0.04307 0.84644 0.44221 0.0
H1236 H 0.99252 0.78914 0.55181 0.0
H1237 H 0.11695 0.86705 0.4892 0.0
H1238 H 0.02107 0.83275 0.48417 0.0
H1239 H 0.08184 0.83826 0.56104 0.0
C1240 C 0.05326 0.81167 0.58047 0.0
C1241 C 0.02837 0.79686 0.578 0.0
C1242 C 0.04199 0.84059 0.48535 0.0
C1243 C 0.04601 0.82891 0.53498 0.0
C1244 C 0.05461 0.8484 0.46137 0.0
C1245 C 0.08213 0.85738 0.46207 0.0
C1246 C 0.05702 0.8416 0.51019 0.0
C1247 C 0.09584 0.85987 0.48759 0.0
C1248 C 0.06208 0.8278 0.55909 0.0
C1249 C 0.012 0.79999 0.55439 0.0
N1250 N 0.08326 0.85164 0.51057 0.0
N1251 N 0.02131 0.81537 0.53358 0.0
H1252 H 0.43562 0.75985 0.81398 0.0
H1253 H 0.4019 0.89538 0.73266 0.0
H1254 H 0.47996 0.83685 0.82691 0.0
H1255 H 0.3677 0.81502 0.71249 0.0
H1256 H 0.42367 0.87674 0.77376 0.0
H1257 H 0.40459 0.78209 0.78238 0.0
C1258 C 0.43893 0.78142 0.81013 0.0
C1259 C 0.46074 0.79639 0.82282 0.0
C1260 C 0.41101 0.86334 0.76055 0.0
C1261 C 0.42503 0.82204 0.78675 0.0
C1262 C 0.39842 0.87401 0.7373 0.0
C1263 C 0.38346 0.85653 0.71909 0.0
C1264 C 0.40834 0.83516 0.76544 0.0
C1265 C 0.37954 0.82902 0.72586 0.0
C1266 C 0.42107 0.79415 0.79218 0.0
C1267 C 0.46368 0.8244 0.8173 0.0
N1268 N 0.39218 0.8191 0.74835 0.0
N1269 N 0.4461 0.8363 0.79951 0.0
H1270 H 0.51192 0.12094 0.07462 0.0
H1271 H 0.46482 0.12185 0.94083 0.0
H1272 H 0.44135 0.17092 0.08549 0.0
H1273 H 0.38411 0.13167 0.97334 0.0
H1274 H 0.48317 0.11783 0.98732 0.0
H1275 H 0.49101 0.10248 0.03157 0.0
C1276 C 0.4916 0.12717 0.06848 0.0
C1277 C 0.47797 0.14689 0.08395 0.0
C1278 C 0.46133 0.11998 0.98429 0.0
C1279 C 0.45456 0.12696 0.03469 0.0
C1280 C 0.45087 0.12274 0.95772 0.0
C1281 C 0.42296 0.12771 0.9532 0.0
C1282 C 0.44376 0.12247 0.0065 0.0
C1283 C 0.40582 0.12826 0.97584 0.0
C1284 C 0.47985 0.11695 0.04384 0.0
C1285 C 0.452 0.15486 0.07492 0.0
N1286 N 0.41661 0.12629 0.00155 0.0
N1287 N 0.44122 0.14498 0.05084 0.0
H1288 H 0.07961 0.74011 0.17584 0.0
H1289 H 0.1022 0.878 0.26445 0.0
H1290 H 0.0212 0.80461 0.18162 0.0
H1291 H 0.1233 0.7999 0.29786 0.0
H1292 H 0.08759 0.85456 0.22171 0.0
H1293 H 0.10907 0.76513 0.21037 0.0
C1294 C 0.07335 0.75974 0.18396 0.0
C1295 C 0.04861 0.771 0.17523 0.0
C1296 C 0.09611 0.84272 0.23822 0.0
C1297 C 0.08179 0.79937 0.21383 0.0
C1298 C 0.10453 0.85605 0.26256 0.0
C1299 C 0.11337 0.84078 0.28493 0.0
C1300 C 0.09693 0.81407 0.23617 0.0
C1301 C 0.11603 0.81234 0.28124 0.0
C1302 C 0.09007 0.77393 0.20342 0.0
C1303 C 0.04077 0.79596 0.18688 0.0
N1304 N 0.10746 0.79978 0.25738 0.0
N1305 N 0.05742 0.80946 0.20537 0.0
H1306 H 0.48246 0.81224 0.44566 0.0
H1307 H 0.34019 0.82832 0.52157 0.0
H1308 H 0.40801 0.7677 0.42157 0.0
H1309 H 0.41652 0.86707 0.54894 0.0
H1310 H 0.36268 0.81203 0.48005 0.0
H1311 H 0.45683 0.83784 0.47958 0.0
C1312 C 0.46076 0.80784 0.44744 0.0
C1313 C 0.44753 0.78747 0.43097 0.0
C1314 C 0.37437 0.82445 0.495 0.0
C1315 C 0.41799 0.81684 0.46966 0.0
C1316 C 0.36147 0.8339 0.51853 0.0
C1317 C 0.37667 0.84864 0.53881 0.0
C1318 C 0.40252 0.82994 0.49188 0.0
C1319 C 0.4042 0.85531 0.53397 0.0
C1320 C 0.44609 0.82254 0.46676 0.0
C1321 C 0.41924 0.78292 0.43405 0.0
N1322 N 0.41631 0.84567 0.51117 0.0
N1323 N 0.40548 0.79736 0.45313 0.0
H1324 H 0.49363 0.27018 0.69312 0.0
H1325 H 0.40266 0.14581 0.74782 0.0
H1326 H 0.45813 0.20528 0.64149 0.0
H1327 H 0.44028 0.20914 0.80017 0.0
H1328 H 0.41686 0.17128 0.7079 0.0
H1329 H 0.46775 0.2526 0.7316 0.0
C1330 C 0.47993 0.25263 0.68973 0.0
C1331 C 0.47831 0.23894 0.6642 0.0
C1332 C 0.4218 0.17972 0.72814 0.0
C1333 C 0.44903 0.21846 0.7081 0.0
C1334 C 0.41371 0.16514 0.75098 0.0
C1335 C 0.42061 0.17507 0.77748 0.0
C1336 C 0.43698 0.20439 0.73176 0.0
C1337 C 0.43477 0.20043 0.78019 0.0
C1338 C 0.4653 0.24246 0.71173 0.0
C1339 C 0.46027 0.21625 0.66094 0.0
N1340 N 0.44269 0.21405 0.75765 0.0
N1341 N 0.44662 0.20652 0.6827 0.0
H1342 H 0.04484 0.18631 0.90327 0.0
H1343 H 0.04826 0.15539 0.06041 0.0
H1344 H 0.97205 0.17915 0.95106 0.0
H1345 H 0.11867 0.14762 0.00924 0.0
H1346 H 0.01908 0.15777 0.01955 0.0
H1347 H 0.07092 0.16485 0.93975 0.0
C1348 C 0.03426 0.17963 0.92128 0.0
C1349 C 0.00644 0.1849 0.92451 0.0
C1350 C 0.04085 0.15521 0.0172 0.0
C1351 C 0.03619 0.16099 0.96657 0.0
C1352 C 0.0576 0.1541 0.04054 0.0
C1353 C 0.08606 0.15196 0.03822 0.0
C1354 C 0.05264 0.15458 0.9913 0.0
C1355 C 0.09689 0.14969 0.01197 0.0
C1356 C 0.04914 0.1674 0.94211 0.0
C1357 C 0.99355 0.17557 0.94796 0.0
N1358 N 0.08019 0.1515 0.9895 0.0
N1359 N 0.00871 0.1646 0.96846 0.0
H1360 H 0.33625 0.0841 0.24594 0.0
H1361 H 0.24497 0.10371 0.11051 0.0
H1362 H 0.35014 0.04189 0.16905 0.0
H1363 H 0.21976 0.12396 0.19245 0.0
H1364 H 0.29023 0.09221 0.12908 0.0
H1365 H 0.3006 0.11025 0.22348 0.0
C1366 C 0.33212 0.08057 0.22426 0.0
C1367 C 0.34573 0.06023 0.20953 0.0
C1368 C 0.27485 0.09956 0.14287 0.0
C1369 C 0.30495 0.09012 0.18378 0.0
C1370 C 0.2491 0.10618 0.13231 0.0
C1371 C 0.22848 0.11427 0.15006 0.0
C1372 C 0.27995 0.10137 0.17127 0.0
C1373 C 0.23492 0.11725 0.17811 0.0
C1374 C 0.31172 0.0955 0.21148 0.0
C1375 C 0.33973 0.05691 0.18137 0.0
N1376 N 0.26002 0.11059 0.18787 0.0
N1377 N 0.31951 0.07145 0.16947 0.0
H1378 H 0.19721 0.10117 0.43455 0.0
H1379 H 0.13339 0.95955 0.45783 0.0
H1380 H 0.15707 0.08616 0.51049 0.0
H1381 H 0.13425 0.99439 0.37733 0.0
H1382 H 0.13904 0.00566 0.47805 0.0
H1383 H 0.17125 0.06364 0.41292 0.0
C1384 C 0.18175 0.09092 0.44632 0.0
C1385 C 0.17818 0.09782 0.47394 0.0
C1386 C 0.13737 0.00319 0.45599 0.0
C1387 C 0.15037 0.05254 0.45001 0.0
C1388 C 0.13439 0.97687 0.4444 0.0
C1389 C 0.13404 0.97301 0.4158 0.0
C1390 C 0.14048 0.02566 0.43884 0.0
C1391 C 0.13491 -0.00372 0.39945 0.0
C1392 C 0.16727 0.069 0.43407 0.0
C1393 C 0.15982 0.08189 0.4889 0.0
N1394 N 0.13864 0.02155 0.41121 0.0
N1395 N 0.14693 0.05955 0.47687 0.0
H1396 H 0.19123 0.95595 0.78551 0.0
H1397 H 0.28983 0.88952 0.71469 0.0
H1398 H 0.13607 0.93587 0.71742 0.0
H1399 H 0.23625 0.90023 0.64455 0.0
H1400 H 0.25177 0.89771 0.7447 0.0
H1401 H 0.22596 0.92859 0.76429 0.0
C1402 C 0.18613 0.94501 0.76648 0.0
C1403 C 0.16091 0.94859 0.753 0.0
C1404 C 0.24821 0.89861 0.72283 0.0
C1405 C 0.20066 0.91686 0.72831 0.0
C1406 C 0.26995 0.89369 0.70563 0.0
C1407 C 0.2663 0.895 0.67712 0.0
C1408 C 0.22276 0.90565 0.71144 0.0
C1409 C 0.23999 0.89948 0.66644 0.0
C1410 C 0.20605 0.92917 0.75427 0.0
C1411 C 0.15542 0.93395 0.72837 0.0
N1412 N 0.21929 0.90515 0.68365 0.0
N1413 N 0.17535 0.9192 0.71652 0.0
H1414 H 0.25767 0.92988 0.9097 0.0
H1415 H 0.36946 0.0509 0.9239 0.0
H1416 H 0.30247 0.9519 0.98456 0.0
H1417 H 0.32895 0.02805 0.84717 0.0
H1418 H 0.34858 0.01109 0.94491 0.0
H1419 H 0.28576 0.96294 0.88534 0.0
C1420 C 0.27334 0.94167 0.92107 0.0
C1421 C 0.27748 0.93827 0.94935 0.0
C1422 C 0.34445 0.01445 0.92339 0.0
C1423 C 0.30989 0.9759 0.92143 0.0
C1424 C 0.35646 0.03712 0.91137 0.0
C1425 C 0.35067 0.04277 0.88388 0.0
C1426 C 0.32609 -0.00249 0.90792 0.0
C1427 C 0.3339 0.02428 0.86845 0.0
C1428 C 0.28949 0.96041 0.90706 0.0
C1429 C 0.29832 0.95392 0.96285 0.0
N1430 N 0.32177 0.00261 0.88084 0.0
N1431 N 0.31362 0.9721 0.94878 0.0
H1432 H 0.31587 0.94421 0.2489 0.0
H1433 H 0.23364 0.92469 0.38698 0.0
H1434 H 0.33722 0.98751 0.32477 0.0
H1435 H 0.20494 0.89585 0.30701 0.0
H1436 H 0.27629 0.94096 0.36658 0.0
H1437 H 0.27927 0.92008 0.272 0.0
C1438 C 0.3129 0.94868 0.27042 0.0
C1439 C 0.32947 0.96822 0.28481 0.0
C1440 C 0.26073 0.93078 0.35362 0.0
C1441 C 0.28759 0.94044 0.31144 0.0
C1442 C 0.23654 0.92133 0.36526 0.0
C1443 C 0.21567 0.90927 0.34856 0.0
C1444 C 0.26399 0.92786 0.32521 0.0
C1445 C 0.22037 0.90545 0.32054 0.0
C1446 C 0.292 0.93482 0.28362 0.0
C1447 C 0.32474 0.97288 0.31276 0.0
N1448 N 0.24394 0.91489 0.30973 0.0
N1449 N 0.30412 0.95917 0.32516 0.0
H1450 H 0.27475 0.05099 0.47883 0.0
H1451 H 0.3447 0.98736 0.61078 0.0
H1452 H 0.31323 0.09861 0.54513 0.0
H1453 H 0.30358 0.93898 0.54642 0.0
H1454 H 0.34026 0.0278 0.58297 0.0
H1455 H 0.29335 0.00948 0.49841 0.0
C1456 C 0.28775 0.0528 0.49707 0.0
C1457 C 0.29203 0.07813 0.51073 0.0
C1458 C 0.33235 0.00832 0.57483 0.0
C1459 C 0.31284 0.03088 0.53344 0.0
C1460 C 0.3347 0.9852 0.59081 0.0
C1461 C 0.32405 0.95977 0.58116 0.0
C1462 C 0.31908 0.00611 0.54906 0.0
C1463 C 0.31178 0.95822 0.55487 0.0
C1464 C 0.29816 0.02908 0.50837 0.0
C1465 C 0.30903 0.07937 0.53424 0.0
N1466 N 0.30938 0.98114 0.53984 0.0
N1467 N 0.31846 0.056 0.54511 0.0
H1468 H 0.17441 0.05472 0.81862 0.0
H1469 H 0.30922 0.11771 0.77548 0.0
H1470 H 0.17551 0.08592 0.73682 0.0
H1471 H 0.2762 0.13857 0.85432 0.0
H1472 H 0.26274 0.10606 0.75843 0.0
H1473 H 0.21442 0.08322 0.83088 0.0
C1474 C 0.1827 0.06825 0.80344 0.0
C1475 C 0.17091 0.06917 0.77714 0.0
C1476 C 0.26575 0.11397 0.7792 0.0
C1477 C 0.21778 0.10051 0.79049 0.0
C1478 C 0.29223 0.12054 0.78901 0.0
C1479 C 0.29676 0.12833 0.81666 0.0
C1480 C 0.24396 0.11481 0.79731 0.0
C1481 C 0.27387 0.132 0.83308 0.0
C1482 C 0.20561 0.08436 0.8104 0.0
C1483 C 0.18367 0.08541 0.75759 0.0
N1484 N 0.24854 0.12449 0.82337 0.0
N1485 N 0.20676 0.10041 0.76459 0.0
H1486 H 0.18462 0.91138 0.06079 0.0
H1487 H 0.13067 0.06052 0.04477 0.0
H1488 H 0.16621 0.94735 0.98284 0.0
H1489 H 0.14476 0.02253 0.12264 0.0
H1490 H 0.13302 0.01585 0.022 0.0
H1491 H 0.15942 0.9474 0.08357 0.0
C1492 C 0.17483 0.92669 0.04844 0.0
C1493 C 0.17807 0.92694 0.02 0.0
C1494 C 0.13516 0.01715 0.04411 0.0
C1495 C 0.14962 0.96844 0.04593 0.0
C1496 C 0.13396 0.0427 0.05713 0.0
C1497 C 0.13836 0.04532 0.08557 0.0
C1498 C 0.1412 0.99412 0.05958 0.0
C1499 C 0.14176 0.02149 0.10062 0.0
C1500 C 0.16039 0.94721 0.06145 0.0
C1501 C 0.16449 0.94673 0.00487 0.0
N1502 N 0.14368 -0.00309 0.08736 0.0
N1503 N 0.15136 0.96715 0.01811 0.0
H1504 H 0.29034 0.31509 0.06702 0.0
H1505 H 0.14667 0.25052 0.11064 0.0
H1506 H 0.21352 0.35663 0.0618 0.0
H1507 H 0.21843 0.20331 0.09439 0.0
H1508 H 0.17398 0.29251 0.10517 0.0
H1509 H 0.26718 0.27728 0.09021 0.0
C1510 C 0.26878 0.31652 0.07139 0.0
C1511 C 0.2536 0.33856 0.06206 0.0
C1512 C 0.18376 0.27292 0.10308 0.0
C1513 C 0.22716 0.29576 0.08821 0.0
C1514 C 0.16818 0.24896 0.10612 0.0
C1515 C 0.18013 0.22337 0.10232 0.0
C1516 C 0.21145 0.27123 0.09633 0.0
C1517 C 0.2082 0.2226 0.09687 0.0
C1518 C 0.25556 0.29494 0.08442 0.0
C1519 C 0.22576 0.3396 0.0682 0.0
N1520 N 0.22286 0.2462 0.09378 0.0
N1521 N 0.21333 0.31831 0.08061 0.0
H1522 H 0.76063 0.18899 0.97494 0.0
H1523 H 0.63525 0.24385 0.88815 0.0
H1524 H 0.6872 0.14148 0.95433 0.0
H1525 H 0.70714 0.29248 0.91211 0.0
H1526 H 0.65901 0.20275 0.90197 0.0
H1527 H 0.74683 0.22292 0.94157 0.0
C1528 C 0.74197 0.18534 0.96289 0.0
C1529 C 0.72468 0.16279 0.96787 0.0
C1530 C 0.66973 0.22239 0.90379 0.0
C1531 C 0.70854 0.20162 0.93009 0.0
C1532 C 0.65616 0.24588 0.8959 0.0
C1533 C 0.66892 0.27176 0.89968 0.0
C1534 C 0.69618 0.22483 0.91566 0.0
C1535 C 0.6962 0.27304 0.90946 0.0
C1536 C 0.73401 0.20478 0.94393 0.0
C1537 C 0.70084 0.15893 0.95154 0.0
N1538 N 0.70874 0.24998 0.91753 0.0
N1539 N 0.6932 0.17844 0.93376 0.0
H1540 H 0.06684 0.52438 0.15489 0.0
H1541 H 0.97261 0.38988 0.13125 0.0
H1542 H 0.08676 0.44285 0.17935 0.0
H1543 H 0.93982 0.47085 0.14086 0.0
H1544 H 0.01862 0.41029 0.13117 0.0
H1545 H 0.02389 0.50567 0.1335 0.0
C1546 C 0.06269 0.50249 0.15478 0.0
C1547 C 0.0808 0.48493 0.1679 0.0
C1548 C 0.00126 0.42358 0.13288 0.0
C1549 C 0.03229 0.46366 0.14398 0.0
C1550 C 0.975 0.41195 0.13302 0.0
C1551 C 0.95235 0.42859 0.13695 0.0
C1552 C 0.00493 0.45199 0.13678 0.0
C1553 C 0.95674 0.45716 0.1385 0.0
C1554 C 0.03831 0.49189 0.1427 0.0
C1555 C 0.07416 0.45689 0.16817 0.0
N1556 N 0.98261 0.46797 0.13889 0.0
N1557 N 0.05052 0.44714 0.1564 0.0
H1558 H 0.79287 0.795 0.43439 0.0
H1559 H 0.91995 0.69501 0.43399 0.0
H1560 H 0.86551 0.80846 0.48551 0.0
H1561 H 0.83992 0.67491 0.39899 0.0
H1562 H 0.90449 0.74149 0.4446 0.0
H1563 H 0.81426 0.75576 0.41293 0.0
C1564 C 0.81337 0.78984 0.44104 0.0
C1565 C 0.82717 0.80476 0.4622 0.0
C1566 C 0.8905 0.72694 0.43428 0.0
C1567 C 0.85177 0.75979 0.43764 0.0
C1568 C 0.89933 0.70055 0.42813 0.0
C1569 C 0.88099 0.6811 0.41607 0.0
C1570 C 0.86332 0.73376 0.42798 0.0
C1571 C 0.85452 0.6892 0.40881 0.0
C1572 C 0.82558 0.76742 0.42873 0.0
C1573 C 0.85389 0.79728 0.4696 0.0
N1574 N 0.84643 0.71485 0.41506 0.0
N1575 N 0.86524 0.77511 0.45751 0.0
H1576 H 0.94151 0.00111 0.16216 0.0
H1577 H 0.02411 0.14318 0.14898 0.0
H1578 H 0.90991 0.07922 0.18779 0.0
H1579 H 0.06062 0.06349 0.1466 0.0
H1580 H 0.97898 0.12078 0.15273 0.0
H1581 H 0.98169 0.02486 0.1445 0.0
C1582 C 0.94272 0.02327 0.16358 0.0
C1583 C 0.92264 0.03816 0.17703 0.0
C1584 C -0.00308 0.10828 0.1512 0.0
C1585 C 0.96859 0.06535 0.15713 0.0
C1586 C 0.02264 0.12103 0.14913 0.0
C1587 C 0.04619 0.10519 0.14799 0.0
C1588 C -0.00518 0.07957 0.15177 0.0
C1589 C 0.04308 0.07654 0.14799 0.0
C1590 C 0.96575 0.0368 0.15366 0.0
C1591 C 0.92522 0.06688 0.17809 0.0
N1592 N 0.0179 0.06467 0.14996 0.0
N1593 N 0.94799 0.07954 0.16861 0.0
H1594 H 0.2971 0.66032 0.55684 0.0
H1595 H 0.27231 0.79559 0.62901 0.0
H1596 H 0.22325 0.66901 0.6023 0.0
H1597 H 0.35398 0.76423 0.6239 0.0
H1598 H 0.25375 0.74885 0.62369 0.0
H1599 H 0.3191 0.69625 0.58495 0.0
C1600 C 0.28595 0.66891 0.57373 0.0
C1601 C 0.25882 0.66082 0.57818 0.0
C1602 C 0.27574 0.75217 0.62447 0.0
C1603 C 0.28298 0.70399 0.6088 0.0
C1604 C 0.28636 0.77886 0.62725 0.0
C1605 C 0.31471 0.78389 0.62604 0.0
C1606 C 0.29359 0.73056 0.61992 0.0
C1607 C 0.33197 0.76138 0.62436 0.0
C1608 C 0.29839 0.68977 0.58956 0.0
C1609 C 0.24448 0.67434 0.59876 0.0
N1610 N 0.32109 0.73573 0.62067 0.0
N1611 N 0.25659 0.69577 0.61304 0.0
H1612 H 0.05787 0.45926 0.2732 0.0
H1613 H 0.00543 0.55966 0.38949 0.0
H1614 H 0.10669 0.52411 0.31273 0.0
H1615 H 0.95344 0.50146 0.34373 0.0
H1616 H 0.04544 0.53785 0.37075 0.0
H1617 H 0.02284 0.46568 0.30756 0.0
C1618 C 0.06149 0.47445 0.28944 0.0
C1619 C 0.08492 0.49161 0.2898 0.0
C1620 C 0.02529 0.52954 0.36516 0.0
C1621 C 0.04494 0.49917 0.32897 0.0
C1622 C 0.00238 0.54198 0.37589 0.0
C1623 C 0.97596 0.53289 0.36759 0.0
C1624 C 0.02178 0.508 0.34581 0.0
C1625 C 0.97338 0.50953 0.35034 0.0
C1626 C 0.04145 0.47815 0.30901 0.0
C1627 C 0.08868 0.51079 0.3114 0.0
N1628 N -0.00399 0.49824 0.33958 0.0
N1629 N 0.06869 0.51434 0.32988 0.0
H1630 H 0.41954 0.41444 0.76081 0.0
H1631 H 0.54688 0.42748 0.86493 0.0
H1632 H 0.44239 0.48873 0.80617 0.0
H1633 H 0.51954 0.35074 0.82705 0.0
H1634 H 0.50623 0.44914 0.84663 0.0
H1635 H 0.45406 0.39004 0.78681 0.0
C1636 C 0.43181 0.42569 0.7762 0.0
C1637 C 0.42821 0.45384 0.78106 0.0
C1638 C 0.50884 0.42749 0.84256 0.0
C1639 C 0.46768 0.42581 0.81107 0.0
C1640 C 0.53204 0.41509 0.85305 0.0
C1641 C 0.53667 0.38735 0.84721 0.0
C1642 C 0.49027 0.41216 0.82574 0.0
C1643 C 0.5167 0.37218 0.83199 0.0
C1644 C 0.45141 0.41164 0.79117 0.0
C1645 C 0.44453 0.46713 0.80153 0.0
N1646 N 0.49451 0.38492 0.82137 0.0
N1647 N 0.46366 0.45303 0.81564 0.0
H1648 H 0.00417 0.80946 0.69175 0.0
H1649 H 0.87923 0.87233 0.77251 0.0
H1650 H 0.92103 0.77812 0.68337 0.0
H1651 H 0.96067 0.86599 0.80715 0.0
H1652 H 0.89538 0.85279 0.72907 0.0
H1653 H 0.98863 0.84512 0.72352 0.0
C1654 C 0.98258 0.81048 0.6961 0.0
C1655 C 0.96388 0.7906 0.68536 0.0
C1656 C 0.9098 0.85643 0.746 0.0
C1657 C 0.9461 0.83134 0.72109 0.0
C1658 C 0.90068 0.86767 0.77059 0.0
C1659 C 0.91872 0.87045 0.79321 0.0
C1660 C 0.93715 0.84854 0.74416 0.0
C1661 C 0.94622 0.86389 0.79005 0.0
C1662 C 0.97379 0.83074 0.7142 0.0
C1663 C 0.93614 0.79281 0.69163 0.0
N1664 N 0.95462 0.85303 0.76598 0.0
N1665 N 0.92808 0.81272 0.70928 0.0
H1666 H 0.97991 0.16829 0.38534 0.0
H1667 H 0.94144 0.13543 0.51327 0.0
H1668 H 0.9288 0.23675 0.40382 0.0
H1669 H 0.86296 0.16983 0.49365 0.0
H1670 H 0.9554 0.14337 0.46634 0.0
H1671 H 0.9535 0.14036 0.41692 0.0
C1672 C 0.9624 0.17709 0.39516 0.0
C1673 C 0.95679 0.20496 0.39263 0.0
C1674 C 0.93479 0.14829 0.47206 0.0
C1675 C 0.92718 0.17356 0.42878 0.0
C1676 C 0.92698 0.14414 0.49896 0.0
C1677 C 0.90123 0.15248 0.50751 0.0
C1678 C 0.91688 0.16131 0.45386 0.0
C1679 C 0.88315 0.16338 0.48804 0.0
C1680 C 0.94764 0.16126 0.41341 0.0
C1681 C 0.93399 0.21543 0.40573 0.0
N1682 N 0.89161 0.1682 0.46231 0.0
N1683 N 0.92022 0.1998 0.42367 0.0
H1684 H 0.51039 0.17003 0.23021 0.0
H1685 H 0.65966 0.14404 0.2802 0.0
H1686 H 0.57705 0.17766 0.17417 0.0
H1687 H 0.59933 0.17806 0.33357 0.0
H1688 H 0.63185 0.15734 0.24066 0.0
H1689 H 0.54354 0.17068 0.26837 0.0
C1690 C 0.532 0.17161 0.22591 0.0
C1691 C 0.54098 0.17365 0.19897 0.0
C1692 C 0.62513 0.16255 0.26105 0.0
C1693 C 0.57896 0.17483 0.24255 0.0
C1694 C 0.6411 0.15521 0.28364 0.0
C1695 C 0.63145 0.15923 0.31027 0.0
C1696 C 0.59929 0.17358 0.26526 0.0
C1697 C 0.6074 0.17405 0.31347 0.0
C1698 C 0.55088 0.17242 0.24771 0.0
C1699 C 0.56927 0.176 0.19464 0.0
N1700 N 0.59168 0.17991 0.29121 0.0
N1701 N 0.58732 0.17627 0.21623 0.0
H1702 H 0.55573 0.7271 0.94922 0.0
H1703 H 0.55586 0.85199 0.05489 0.0
H1704 H 0.49327 0.78791 0.94945 0.0
H1705 H 0.59716 0.77727 0.07329 0.0
H1706 H 0.53327 0.82888 0.01541 0.0
H1707 H 0.57253 0.74492 0.99418 0.0
C1708 C 0.54562 0.74415 0.95889 0.0
C1709 C 0.524 0.75699 0.94552 0.0
C1710 C 0.54731 0.81752 0.02802 0.0
C1711 C 0.54236 0.77689 -0.00359 0.0
C1712 C 0.56017 0.83071 0.05043 0.0
C1713 C 0.57833 0.8164 0.067 0.0
C1714 C 0.55353 0.79022 0.02165 0.0
C1715 C 0.58316 0.78882 0.06079 0.0
C1716 C 0.55502 0.75418 0.98444 0.0
C1717 C 0.5108 0.77835 0.95887 0.0
N1718 N 0.57112 0.77664 0.03823 0.0
N1719 N 0.52044 0.78796 0.98349 0.0
H1720 H 0.00318 0.18829 0.81008 0.0
H1721 H 0.91414 0.21839 0.6763 0.0
H1722 H 0.9505 0.25766 0.80554 0.0
H1723 H 0.92898 0.13632 0.70326 0.0
H1724 H 0.93611 0.23651 0.71886 0.0
H1725 H 0.98545 0.17233 0.76476 0.0
C1726 C 0.98798 0.20011 0.79937 0.0
C1727 C 0.97736 0.22359 0.81153 0.0
C1728 C 0.93448 0.21456 0.71531 0.0
C1729 C 0.95796 0.20635 0.76016 0.0
C1730 C 0.92198 0.20426 0.6912 0.0
C1731 C 0.91958 0.1759 0.68655 0.0
C1732 C 0.94519 0.19631 0.73432 0.0
C1733 C 0.93011 0.15835 0.70633 0.0
C1734 C 0.97794 0.19111 0.77373 0.0
C1735 C 0.95837 0.2389 0.79689 0.0
N1736 N 0.94269 0.16886 0.72935 0.0
N1737 N 0.94909 0.22993 0.77187 0.0
H1738 H 0.55778 0.1732 0.57421 0.0
H1739 H 0.56049 0.12295 0.41872 0.0
H1740 H 0.5721 0.22801 0.50762 0.0
H1741 H 0.59573 0.075 0.48327 0.0
H1742 H 0.54944 0.15814 0.45262 0.0
H1743 H 0.55896 0.13421 0.54188 0.0
C1744 C 0.56111 0.17702 0.55277 0.0
C1745 C 0.56489 0.20385 0.54352 0.0
C1746 C 0.55899 0.13958 0.45935 0.0
C1747 C 0.56543 0.15951 0.5066 0.0
C1748 C 0.56494 0.11923 0.44012 0.0
C1749 C 0.57949 0.0961 0.44812 0.0
C1750 C 0.56701 0.13647 0.48678 0.0
C1751 C 0.58477 0.09262 0.4762 0.0
C1752 C 0.56172 0.1548 0.53444 0.0
C1753 C 0.56925 0.20765 0.51558 0.0
N1754 N 0.57883 0.1128 0.49455 0.0
N1755 N 0.56918 0.18568 0.49801 0.0
H1756 H 0.52896 0.8519 0.35121 0.0
H1757 H 0.61009 0.90052 0.25213 0.0
H1758 H 0.59264 0.79531 0.37043 0.0
H1759 H 0.62017 0.81308 0.24375 0.0
H1760 H 0.60163 0.8951 0.30074 0.0
H1761 H 0.55909 0.87378 0.31856 0.0
C1762 C 0.54975 0.84493 0.34946 0.0
C1763 C 0.55829 0.82167 0.36321 0.0
C1764 C 0.60636 0.87728 0.2883 0.0
C1765 C 0.59237 0.84578 0.32538 0.0
C1766 C 0.6112 0.88023 0.26054 0.0
C1767 C 0.61485 0.857 0.24354 0.0
C1768 C 0.60543 0.851 0.29915 0.0
C1769 C 0.61669 0.83143 0.25588 0.0
C1770 C 0.56697 0.85738 0.33083 0.0
C1771 C 0.58531 0.8132 0.36009 0.0
N1772 N 0.61148 0.82904 0.28293 0.0
N1773 N 0.60106 0.82452 0.34058 0.0
H1774 H 0.92501 0.74256 0.06843 0.0
H1775 H 0.86468 0.86792 0.98577 0.0
H1776 H 0.94611 0.82734 0.08673 0.0
H1777 H 0.88413 0.79 0.94891 0.0
H1778 H 0.8775 0.85007 0.03097 0.0
H1779 H 0.89258 0.75734 0.03279 0.0
C1780 C 0.92217 0.76425 0.06553 0.0
C1781 C 0.93845 0.78379 0.08014 0.0
C1782 C 0.87825 0.83675 0.01299 0.0
C1783 C 0.90153 0.80067 0.04003 0.0
C1784 C 0.87096 0.84687 0.98737 0.0
C1785 C 0.87389 0.83043 0.96386 0.0
C1786 C 0.88789 0.80995 0.01484 0.0
C1787 C 0.8821 0.80333 0.96672 0.0
C1788 C 0.90381 0.77263 0.04522 0.0
C1789 C 0.93417 0.81165 0.07561 0.0
N1790 N 0.88902 0.79395 0.99179 0.0
N1791 N 0.91627 0.81928 0.05574 0.0
H1792 H 0.68728 0.91755 0.71635 0.0
H1793 H 0.81054 0.95174 0.8196 0.0
H1794 H 0.69402 0.9929 0.76415 0.0
H1795 H 0.77575 0.86959 0.8146 0.0
H1796 H 0.7738 0.96701 0.78959 0.0
H1797 H 0.72542 0.89937 0.74371 0.0
C1798 C 0.69683 0.93023 0.73251 0.0
C1799 C 0.68753 0.95669 0.73817 0.0
C1800 C 0.77432 0.94562 0.79499 0.0
C1801 C 0.73097 0.93638 0.76875 0.0
C1802 C 0.79532 0.93682 0.81197 0.0
C1803 C 0.79609 0.90935 0.81971 0.0
C1804 C 0.75416 0.9268 0.78529 0.0
C1805 C 0.77572 0.89098 0.80926 0.0
C1806 C 0.71838 0.91983 0.74808 0.0
C1807 C 0.70046 0.97233 0.7593 0.0
N1808 N 0.75548 0.90005 0.79241 0.0
N1809 N 0.7217 0.96201 0.77369 0.0
H1810 H 0.75177 0.93034 0.55075 0.0
H1811 H 0.82199 0.04212 0.61093 0.0
H1812 H 0.81282 0.93845 0.48904 0.0
H1813 H 0.83588 0.06677 0.52792 0.0
H1814 H 0.8022 -0.00121 0.59337 0.0
H1815 H 0.76519 0.97613 0.56902 0.0
C1816 C 0.76807 0.94184 0.54124 0.0
C1817 C 0.78216 0.93055 0.51931 0.0
C1818 C 0.80918 0.01386 0.57902 0.0
C1819 C 0.79718 0.98238 0.53941 0.0
C1820 C 0.82084 0.03842 0.58899 0.0
C1821 C 0.83059 0.05803 0.5708 0.0
C1822 C 0.80754 0.00878 0.55069 0.0
C1823 C 0.82847 0.05222 0.54259 0.0
C1824 C 0.77577 0.96774 0.55162 0.0
C1825 C 0.80236 0.94632 0.50675 0.0
N1826 N 0.81744 0.02787 0.53336 0.0
N1827 N 0.80941 0.97155 0.51708 0.0
H1828 H 0.85873 0.09811 0.30065 0.0
H1829 H 0.74835 0.05781 0.40833 0.0
H1830 H 0.84571 0.01783 0.33371 0.0
H1831 H 0.7434 0.12494 0.35253 0.0
H1832 H 0.79688 0.05386 0.39829 0.0
H1833 H 0.83072 0.11743 0.3369 0.0
C1834 C 0.85086 0.08472 0.31617 0.0
C1835 C 0.85361 0.05628 0.31381 0.0
C1836 C 0.78532 0.06999 0.38892 0.0
C1837 C 0.82177 0.07806 0.35492 0.0
C1838 C 0.75763 0.07225 0.39459 0.0
C1839 C 0.74166 0.09102 0.38036 0.0
C1840 C 0.79693 0.08663 0.36898 0.0
C1841 C 0.75483 0.10952 0.36317 0.0
C1842 C 0.83485 0.09573 0.33677 0.0
C1843 C 0.84328 0.03981 0.33447 0.0
N1844 N 0.78162 0.10649 0.35749 0.0
N1845 N 0.82728 0.05087 0.3539 0.0
H1846 H 0.69062 0.0648 0.12436 0.0
H1847 H 0.60887 0.94779 0.05888 0.0
H1848 H 0.66308 0.07306 0.04039 0.0
H1849 H 0.5884 0.97499 0.14033 0.0
H1850 H 0.62669 0.9939 0.04994 0.0
H1851 H 0.65297 0.03167 0.13094 0.0
C1852 C 0.67644 0.05995 0.10748 0.0
C1853 C 0.68009 0.07146 0.08176 0.0
C1854 C 0.61739 0.98997 0.06942 0.0
C1855 C 0.63746 0.03359 0.08901 0.0
C1856 C 0.60708 0.96374 0.07445 0.0
C1857 C 0.59757 0.95748 0.10049 0.0
C1858 C 0.6189 0.00957 0.09087 0.0
C1859 C 0.59575 0.97889 0.12002 0.0
C1860 C 0.65487 0.04129 0.11128 0.0
C1861 C 0.66104 0.06461 0.06056 0.0
N1862 N 0.60733 0.00379 0.11519 0.0
N1863 N 0.64091 0.04559 0.06445 0.0
H1864 H 0.67315 0.04539 0.63019 0.0
H1865 H 0.80291 0.11863 0.68547 0.0
H1866 H 0.67955 0.06434 0.71684 0.0
H1867 H 0.7645 0.14516 0.61033 0.0
H1868 H 0.75873 0.09924 0.69903 0.0
H1869 H 0.70794 0.08113 0.62228 0.0
C1870 C 0.68166 0.0573 0.64746 0.0
C1871 C 0.67363 0.05195 0.67416 0.0
C1872 C 0.75997 0.10998 0.67992 0.0
C1873 C 0.71348 0.09223 0.6654 0.0
C1874 C 0.78513 0.1211 0.67219 0.0
C1875 C 0.78764 0.13278 0.64634 0.0
C1876 C 0.73757 0.11016 0.66142 0.0
C1877 C 0.76376 0.13566 0.63012 0.0
C1878 C 0.70129 0.07776 0.64296 0.0
C1879 C 0.68519 0.06796 0.69591 0.0
N1880 N 0.73988 0.12364 0.63754 0.0
N1881 N 0.70504 0.08704 0.69113 0.0
H1882 H 0.76547 0.89832 0.39531 0.0
H1883 H 0.69007 -0.00327 0.33778 0.0
H1884 H 0.69129 0.86695 0.43054 0.0
H1885 H 0.64406 0.98418 0.41109 0.0
H1886 H 0.70578 0.94975 0.34016 0.0
H1887 H 0.73847 0.92935 0.36805 0.0
C1888 C 0.74336 0.89719 0.39643 0.0
C1889 C 0.73062 0.88063 0.41568 0.0
C1890 C 0.69204 0.95724 0.35554 0.0
C1891 C 0.69954 0.91629 0.38489 0.0
C1892 C 0.68296 0.98404 0.3542 0.0
C1893 C 0.66654 0.99477 0.37491 0.0
C1894 C 0.68472 0.94119 0.37779 0.0
C1895 C 0.6574 0.97708 0.39519 0.0
C1896 C 0.72785 0.91488 0.38075 0.0
C1897 C 0.70194 0.87976 0.41623 0.0
N1898 N 0.66699 0.95127 0.39637 0.0
N1899 N 0.68738 0.89816 0.40182 0.0
H1900 H 0.80143 0.97604 0.24367 0.0
H1901 H 0.70105 0.93742 0.12233 0.0
H1902 H 0.80134 0.02577 0.17187 0.0
H1903 H 0.67543 0.93205 0.20599 0.0
H1904 H 0.7405 0.96625 0.138 0.0
H1905 H 0.75744 0.95548 0.22861 0.0
C1906 C 0.79194 0.98261 0.22472 0.0
C1907 C 0.80494 0.002 0.20853 0.0
C1908 C 0.72609 0.95883 0.1528 0.0
C1909 C 0.75506 0.97877 0.1913 0.0
C1910 C 0.70388 0.94223 0.14397 0.0
C1911 C 0.68535 0.93222 0.16303 0.0
C1912 C 0.73009 0.96449 0.18087 0.0
C1913 C 0.68945 0.93932 0.19076 0.0
C1914 C 0.76687 0.97109 0.21628 0.0
C1915 C 0.79187 0.01045 0.1845 0.0
N1916 N 0.71171 0.95468 0.19895 0.0
N1917 N 0.76768 -0.00171 0.17618 0.0
H1918 H 0.8131 0.05106 0.03886 0.0
H1919 H 0.78784 0.93823 0.92251 0.0
H1920 H 0.74131 0.05042 0.98561 0.0
H1921 H 0.86929 0.97068 0.94076 0.0
H1922 H 0.76918 0.97379 0.95206 0.0
H1923 H 0.8329 0.0159 0.00929 0.0
C1924 C 0.80146 0.04346 0.02105 0.0
C1925 C 0.77554 0.05371 0.0146 0.0
C1926 C 0.79112 0.97311 0.94956 0.0
C1927 C 0.79792 0.01347 0.98115 0.0
C1928 C 0.80181 0.95278 0.93288 0.0
C1929 C 0.83015 0.95156 0.92928 0.0
C1930 C 0.80891 0.99198 0.96322 0.0
C1931 C 0.84731 0.97106 0.94297 0.0
C1932 C 0.81286 0.02358 0.00417 0.0
C1933 C 0.76139 0.04318 0.99124 0.0
N1934 N 0.83641 0.99042 0.95963 0.0
N1935 N 0.77268 0.02344 0.97546 0.0
H1936 H 0.73495 0.68066 0.88841 0.0
H1937 H 0.80106 0.79381 0.84179 0.0
H1938 H 0.80331 0.67975 0.94597 0.0
H1939 H 0.875 0.76318 0.8784 0.0
H1940 H 0.77745 0.75116 0.85173 0.0
H1941 H 0.76215 0.7086 0.85828 0.0
C1942 C 0.75565 0.68654 0.89487 0.0
C1943 C 0.76658 0.6785 0.92021 0.0
C1944 C 0.79912 0.75295 0.85657 0.0
C1945 C 0.79767 0.71139 0.88599 0.0
C1946 C 0.81263 0.77746 0.85078 0.0
C1947 C 0.83984 0.78205 0.85961 0.0
C1948 C 0.81291 0.73308 0.87167 0.0
C1949 C 0.85394 0.76038 0.87132 0.0
C1950 C 0.77118 0.70263 0.8776 0.0
C1951 C 0.79384 0.68595 0.92692 0.0
N1952 N 0.84006 0.73708 0.87783 0.0
N1953 N 0.80832 0.70234 0.91009 0.0
H1954 H 0.34553 0.86265 0.02094 0.0
H1955 H 0.32697 0.75679 0.12827 0.0
H1956 H 0.29762 0.8798 0.092 0.0
H1957 H 0.4013 0.76118 0.08226 0.0
H1958 H 0.32072 0.80555 0.12093 0.0
H1959 H 0.37289 0.83142 0.0478 0.0
C1960 C 0.34154 0.86065 0.04254 0.0
C1961 C 0.31893 0.87312 0.05415 0.0
C1962 C 0.33878 0.79599 0.11304 0.0
C1963 C 0.34912 0.83661 0.08458 0.0
C1964 C 0.34219 0.76807 0.11699 0.0
C1965 C 0.36414 0.75467 0.10504 0.0
C1966 C 0.35711 0.81037 0.09651 0.0
C1967 C 0.38362 0.77047 0.09122 0.0
C1968 C 0.35707 0.84273 0.0579 0.0
C1969 C 0.31467 0.87014 0.08222 0.0
N1970 N 0.37927 0.79734 0.08672 0.0
N1971 N 0.32896 0.85129 0.0963 0.0
H1972 H 0.95543 0.50056 0.79541 0.0
H1973 H 0.04826 0.63085 0.8206 0.0
H1974 H 0.94689 0.56851 0.74129 0.0
H1975 H 0.08099 0.54989 0.8277 0.0
H1976 H 0.00787 0.61071 0.79612 0.0
H1977 H -0.00092 0.52035 0.81263 0.0
C1978 C 0.9629 0.51971 0.78723 0.0
C1979 C 0.94759 0.53346 0.76757 0.0
C1980 C 0.02412 0.59753 0.80285 0.0
C1981 C -0.00296 0.556 0.78692 0.0
C1982 C 0.04692 0.6089 0.81698 0.0
C1983 C 0.06779 0.59191 0.82624 0.0
C1984 C 0.02203 0.56906 0.79879 0.0
C1985 C 0.06531 0.56365 0.82085 0.0
C1986 C 0.98777 0.53083 0.79684 0.0
C1987 C 0.95815 0.55777 0.75692 0.0
N1988 N 0.0426 0.55303 0.80781 0.0
N1989 N 0.98218 0.56872 0.76719 0.0
H1990 H 0.21338 0.17458 0.57325 0.0
H1991 H 0.20756 0.33167 0.61889 0.0
H1992 H 0.21188 0.24129 0.51676 0.0
H1993 H 0.16421 0.26828 0.66186 0.0
H1994 H 0.22541 0.29677 0.58814 0.0
H1995 H 0.20929 0.20761 0.61138 0.0
C1996 C 0.21237 0.19619 0.5689 0.0
C1997 C 0.21271 0.20528 0.54183 0.0
C1998 C 0.21255 0.29053 0.60477 0.0
C1999 C 0.20888 0.24292 0.58525 0.0
C2000 C 0.20259 0.31036 0.62261 0.0
C2001 C 0.18373 0.30296 0.64261 0.0
C2002 C 0.20407 0.26313 0.60734 0.0
C2003 C 0.17828 0.27494 0.64641 0.0
C2004 C 0.21012 0.21492 0.59063 0.0
C2005 C 0.21133 0.23345 0.53731 0.0
N2006 N 0.18803 0.256 0.62858 0.0
N2007 N 0.20956 0.25133 0.55885 0.0
H2008 H 0.07548 0.9511 0.81518 0.0
H2009 H 0.94857 0.95546 0.91037 0.0
H2010 H 0.04813 0.02499 0.85519 0.0
H2011 H 0.98426 0.88023 0.88256 0.0
H2012 H 0.99033 0.98034 0.89858 0.0
H2013 H 0.04685 0.92415 0.84532 0.0
C2014 C 0.06351 0.96169 0.8303 0.0
C2015 C 0.06379 0.99043 0.83219 0.0
C2016 C 0.98944 0.95828 0.89576 0.0
C2017 C 0.03117 0.95961 0.86701 0.0
C2018 C 0.9657 0.94405 0.90281 0.0
C2019 C 0.96289 0.91589 0.89699 0.0
C2020 C 0.01014 0.94426 0.88223 0.0
C2021 C 0.9856 0.90201 0.88721 0.0
C2022 C 0.04737 0.94625 0.84771 0.0
C2023 C 0.04824 0.00293 0.85259 0.0
N2024 N 0.00804 0.91647 0.87932 0.0
N2025 N 0.03232 0.98746 0.86894 0.0
H2026 H 0.64919 0.28486 0.53195 0.0
H2027 H 0.69861 0.15178 0.45169 0.0
H2028 H 0.7244 0.28066 0.48789 0.0
H2029 H 0.61317 0.17235 0.45317 0.0
H2030 H 0.70983 0.19325 0.47878 0.0
H2031 H 0.63725 0.2376 0.51594 0.0
C2032 C 0.6631 0.27386 0.519 0.0
C2033 C 0.68721 0.28656 0.51019 0.0
C2034 C 0.6886 0.18843 0.47343 0.0
C2035 C 0.67461 0.2331 0.4932 0.0
C2036 C 0.68217 0.16481 0.45803 0.0
C2037 C 0.65498 0.15891 0.44981 0.0
C2038 C 0.66769 0.20604 0.48096 0.0
C2039 C 0.63446 0.17647 0.45872 0.0
C2040 C 0.65641 0.24711 0.51004 0.0
C2041 C 0.7052 0.2716 0.49426 0.0
N2042 N 0.64125 0.19944 0.47378 0.0
N2043 N 0.69849 0.24561 0.48615 0.0
H2044 H 0.88853 0.43409 0.67441 0.0
H2045 H 0.01014 0.39621 0.62853 0.0
H2046 H 0.92495 0.40889 0.75083 0.0
H2047 H 0.01458 0.33856 0.69407 0.0
H2048 H 0.96277 0.40452 0.63948 0.0
H2049 H 0.91696 0.40147 0.65001 0.0
C2050 C 0.90201 0.42121 0.6861 0.0
C2051 C 0.90529 0.42489 0.71455 0.0
C2052 C 0.97358 0.38918 0.65082 0.0
C2053 C 0.93819 0.38835 0.68688 0.0
C2054 C 0.00082 0.38469 0.64474 0.0
C2055 C 0.01644 0.36726 0.6609 0.0
C2056 C 0.96213 0.37654 0.67361 0.0
C2057 C 0.00333 0.35252 0.68137 0.0
C2058 C 0.9184 0.4028 0.67214 0.0
C2059 C 0.92253 0.4073 0.72877 0.0
N2060 N 0.97714 0.35817 0.68774 0.0
N2061 N 0.9388 0.39016 0.71471 0.0
H2062 H 0.59329 0.58988 0.17223 0.0
H2063 H 0.43271 0.5732 0.14766 0.0
H2064 H 0.53409 0.59295 0.23634 0.0
H2065 H 0.48041 0.62343 0.09386 0.0
H2066 H 0.47438 0.56358 0.17369 0.0
H2067 H 0.55544 0.58903 0.13796 0.0
C2068 C 0.57237 0.59065 0.17903 0.0
C2069 C 0.56671 0.5919 0.20708 0.0
C2070 C 0.47573 0.57609 0.1557 0.0
C2071 C 0.52387 0.58945 0.16838 0.0
C2072 C 0.45203 0.58131 0.14055 0.0
C2073 C 0.45294 0.59983 0.11898 0.0
C2074 C 0.50048 0.58897 0.14886 0.0
C2075 C 0.47874 0.60951 0.11072 0.0
C2076 C 0.55095 0.58992 0.15956 0.0
C2077 C 0.53934 0.5925 0.21492 0.0
N2078 N 0.50154 0.60441 0.12605 0.0
N2079 N 0.5189 0.59098 0.19566 0.0
H2080 H 0.54942 0.68524 0.84218 0.0
H2081 H 0.6164 0.70651 0.6994 0.0
H2082 H 0.57632 0.76456 0.81437 0.0
H2083 H 0.60838 0.62733 0.7365 0.0
H2084 H 0.60678 0.7283 0.74337 0.0
H2085 H 0.57552 0.66359 0.80612 0.0
C2086 C 0.56105 0.6981 0.82865 0.0
C2087 C 0.56022 0.72675 0.83089 0.0
C2088 C 0.60758 0.70617 0.74202 0.0
C2089 C 0.58999 0.70212 0.78949 0.0
C2090 C 0.61296 0.69371 0.71689 0.0
C2091 C 0.61259 0.66505 0.71415 0.0
C2092 C 0.60135 0.68984 0.76444 0.0
C2093 C 0.60851 0.6495 0.73759 0.0
C2094 C 0.57608 0.68572 0.80815 0.0
C2095 C 0.57611 0.74239 0.81316 0.0
N2096 N 0.60253 0.66209 0.76166 0.0
N2097 N 0.58996 0.72987 0.79285 0.0
H2098 H 0.56171 0.27515 0.09583 0.0
H2099 H 0.54154 0.3123 0.93922 0.0
H2100 H 0.48908 0.25301 0.04769 0.0
H2101 H 0.61098 0.33966 0.98979 0.0
H2102 H 0.51921 0.29561 0.98 0.0
H2103 H 0.57721 0.30398 0.05884 0.0
C2104 C 0.54886 0.27663 0.07759 0.0
C2105 C 0.52426 0.26139 0.07464 0.0
C2106 C 0.53919 0.30557 0.98221 0.0
C2107 C 0.54201 0.29411 0.03207 0.0
C2108 C 0.55199 0.31511 0.9589 0.0
C2109 C 0.57843 0.32699 0.96095 0.0
C2110 C 0.55298 0.30777 0.00772 0.0
C2111 C 0.59077 0.33032 0.98709 0.0
C2112 C 0.55771 0.29311 0.05646 0.0
C2113 C 0.50829 0.26427 0.0507 0.0
N2114 N 0.57809 0.32044 0.00938 0.0
N2115 N 0.51764 0.28 0.03014 0.0
H2116 H 0.00407 0.35226 0.33071 0.0
H2117 H 0.87829 0.3287 0.2252 0.0
H2118 H 0.96159 0.27466 0.31543 0.0
H2119 H 0.92003 0.40689 0.23767 0.0
H2120 H 0.9045 0.31066 0.26348 0.0
H2121 H 0.97081 0.37414 0.30064 0.0
C2122 C 0.98785 0.33977 0.321 0.0
C2123 C 0.98588 0.31145 0.32543 0.0
C2124 C 0.90771 0.3319 0.25821 0.0
C2125 C 0.94751 0.33652 0.29132 0.0
C2126 C 0.89258 0.34225 0.23648 0.0
C2127 C 0.89719 0.36923 0.22819 0.0
C2128 C 0.92796 0.34851 0.27153 0.0
C2129 C 0.91585 0.38598 0.24351 0.0
C2130 C 0.96876 0.35235 0.30399 0.0
C2131 C 0.9642 0.29646 0.3125 0.0
N2132 N 0.93097 0.37518 0.2642 0.0
N2133 N 0.94598 0.30916 0.29602 0.0
H2134 H 0.94647 0.69814 0.58912 0.0
H2135 H 0.8928 0.598 0.50474 0.0
H2136 H 0.02033 0.65201 0.59446 0.0
H2137 H 0.97548 0.59874 0.47523 0.0
H2138 H 0.91014 0.61672 0.54869 0.0
H2139 H 0.92634 0.66326 0.55798 0.0
C2140 C 0.95803 0.68003 0.58449 0.0
C2141 C 0.98449 0.67713 0.59535 0.0
C2142 C 0.92445 0.61237 0.53265 0.0
C2143 C 0.96221 0.63775 0.55863 0.0
C2144 C 0.91465 0.60149 0.5076 0.0
C2145 C 0.93259 0.59767 0.48586 0.0
C2146 C 0.95232 0.61949 0.53592 0.0
C2147 C 0.96078 0.60205 0.49114 0.0
C2148 C 0.94659 0.66016 0.56666 0.0
C2149 C -0.0005 0.6544 0.58706 0.0
N2150 N 0.96976 0.61326 0.51553 0.0
N2151 N 0.98826 0.63565 0.56881 0.0
H2152 H 0.58214 0.31157 0.64657 0.0
H2153 H 0.6222 0.28025 0.79628 0.0
H2154 H 0.61108 0.23202 0.6679 0.0
H2155 H 0.62557 0.3623 0.76508 0.0
H2156 H 0.62222 0.26204 0.74929 0.0
H2157 H 0.60326 0.33098 0.68793 0.0
C2158 C 0.59441 0.29841 0.6591 0.0
C2159 C 0.59586 0.27032 0.65301 0.0
C2160 C 0.62346 0.28401 0.75277 0.0
C2161 C 0.61771 0.292 0.70242 0.0
C2162 C 0.62322 0.29446 0.7796 0.0
C2163 C 0.62328 0.32289 0.78466 0.0
C2164 C 0.62334 0.30211 0.73085 0.0
C2165 C 0.62509 0.34025 0.76221 0.0
C2166 C 0.60594 0.30944 0.68327 0.0
C2167 C 0.60991 0.25389 0.67161 0.0
N2168 N 0.62456 0.32959 0.7363 0.0
N2169 N 0.61979 0.26486 0.69583 0.0
H2170 H 0.89804 0.26792 0.92942 0.0
H2171 H 0.92561 0.36891 0.05713 0.0
H2172 H 0.97658 0.30674 0.94928 0.0
H2173 H 0.84496 0.33827 0.0328 0.0
H2174 H 0.94364 0.34966 0.0151 0.0
H2175 H 0.87747 0.29588 0.96499 0.0
C2176 C 0.91101 0.2823 0.94124 0.0
C2177 C 0.93921 0.2847 0.93657 0.0
C2178 C 0.92194 0.34738 0.0187 0.0
C2179 C 0.91564 0.31692 0.97718 0.0
C2180 C 0.91163 0.35837 0.0427 0.0
C2181 C 0.88384 0.35479 0.04854 0.0
C2182 C 0.90441 0.33233 0.00057 0.0
C2183 C 0.86654 0.34136 0.02904 0.0
C2184 C 0.89916 0.2984 0.96143 0.0
C2185 C 0.95483 0.30398 0.95229 0.0
N2186 N 0.87722 0.33017 0.00603 0.0
N2187 N 0.94285 0.31919 0.97203 0.0
H2188 H 0.93597 0.66872 0.16709 0.0
H2189 H 0.93695 0.66633 0.32978 0.0
H2190 H 0.95001 0.74054 0.219 0.0
H2191 H 0.9101 0.59706 0.27874 0.0
H2192 H 0.94009 0.69406 0.28917 0.0
H2193 H 0.9231 0.64282 0.20722 0.0
C2194 C 0.93579 0.6792 0.18685 0.0
C2195 C 0.94437 0.70675 0.18977 0.0
C2196 C 0.93341 0.67283 0.28682 0.0
C2197 C 0.93024 0.6771 0.23581 0.0
C2198 C 0.93182 0.65686 0.31002 0.0
C2199 C 0.92348 0.62917 0.30771 0.0
C2200 C 0.92684 0.66107 0.26097 0.0
C2201 C 0.91678 0.61824 0.28152 0.0
C2202 C 0.92858 0.66435 0.20978 0.0
C2203 C 0.94367 0.7193 0.21582 0.0
N2204 N 0.91878 0.63419 0.25914 0.0
N2205 N 0.93716 0.70426 0.23791 0.0
H2206 H 0.47736 0.6755 0.44151 0.0
H2207 H 0.62139 0.63717 0.50888 0.0
H2208 H 0.55557 0.69102 0.405 0.0
H2209 H 0.5459 0.64209 0.55275 0.0
H2210 H 0.5956 0.6435 0.46598 0.0
H2211 H 0.50046 0.64936 0.47726 0.0
C2212 C 0.49926 0.67279 0.44066 0.0
C2213 C 0.51474 0.68588 0.42081 0.0
C2214 C 0.58469 0.6428 0.485 0.0
C2215 C 0.54115 0.65637 0.46131 0.0
C2216 C 0.59939 0.63921 0.50945 0.0
C2217 C 0.58585 0.63984 0.53443 0.0
C2218 C 0.55633 0.64685 0.48565 0.0
C2219 C 0.55726 0.64222 0.53399 0.0
C2220 C 0.51245 0.65805 0.46107 0.0
C2221 C 0.54304 0.68173 0.42043 0.0
N2222 N 0.54349 0.64594 0.51001 0.0
N2223 N 0.55541 0.66764 0.44063 0.0
H2224 H 0.81266 0.5767 0.77019 0.0
H2225 H 0.73751 0.59595 0.62501 0.0
H2226 H 0.84389 0.54712 0.69332 0.0
H2227 H 0.69903 0.60712 0.70303 0.0
H2228 H 0.78098 0.58811 0.64923 0.0
H2229 H 0.77544 0.59839 0.74506 0.0
C2230 C 0.81194 0.5751 0.74804 0.0
C2231 C 0.83105 0.55959 0.73387 0.0
C2232 C 0.76303 0.59255 0.66098 0.0
C2233 C 0.78862 0.58425 0.70508 0.0
C2234 C 0.73826 0.59705 0.64718 0.0
C2235 C 0.71453 0.60165 0.66204 0.0
C2236 C 0.76401 0.59289 0.68976 0.0
C2237 C 0.7167 0.60307 0.69075 0.0
C2238 C 0.79066 0.5874 0.73372 0.0
C2239 C 0.82925 0.5584 0.70512 0.0
N2240 N 0.74095 0.5985 0.70366 0.0
N2241 N 0.80822 0.57031 0.69169 0.0
H2242 H 0.705 0.57227 0.9332 0.0
H2243 H 0.63869 0.43388 0.96459 0.0
H2244 H 0.66716 0.56608 0.01171 0.0
H2245 H 0.62792 0.47038 0.88539 0.0
H2246 H 0.64926 0.47952 0.98455 0.0
H2247 H 0.6791 0.53207 0.91689 0.0
C2248 C 0.69062 0.56276 0.94683 0.0
C2249 C 0.68711 0.57323 0.97337 0.0
C2250 C 0.64385 0.47746 0.96297 0.0
C2251 C 0.65852 0.52606 0.95529 0.0
C2252 C 0.63796 0.45146 0.95148 0.0
C2253 C 0.63319 0.44816 0.92307 0.0
C2254 C 0.64533 0.50003 0.94581 0.0
C2255 C 0.63212 0.47175 0.90724 0.0
C2256 C 0.67595 0.53971 0.93753 0.0
C2257 C 0.66972 0.55895 0.99082 0.0
N2258 N 0.63877 0.4966 0.91872 0.0
N2259 N 0.65607 0.53575 0.98151 0.0
H2260 H 0.64408 0.46999 0.20044 0.0
H2261 H 0.79859 0.42961 0.22103 0.0
H2262 H 0.69189 0.48824 0.27421 0.0
H2263 H 0.74873 0.40617 0.14981 0.0
H2264 H 0.75746 0.44347 0.24442 0.0
H2265 H 0.679 0.43837 0.18571 0.0
C2266 C 0.66164 0.46686 0.21384 0.0
C2267 C 0.66542 0.48219 0.23829 0.0
C2268 C 0.75546 0.43494 0.22381 0.0
C2269 C 0.70573 0.44651 0.22132 0.0
C2270 C 0.77898 0.42711 0.21037 0.0
C2271 C 0.77723 0.41729 0.18315 0.0
C2272 C 0.73001 0.43321 0.20986 0.0
C2273 C 0.75117 0.41405 0.17062 0.0
C2274 C 0.68164 0.44885 0.20538 0.0
C2275 C 0.68836 0.47709 0.25502 0.0
N2276 N 0.72865 0.42241 0.18393 0.0
N2277 N 0.70797 0.4601 0.24594 0.0
H2278 H 0.76961 0.42228 0.50915 0.0
H2279 H 0.8337 0.4888 0.3762 0.0
H2280 H 0.74183 0.3997 0.42696 0.0
H2281 H 0.85813 0.51031 0.45951 0.0
H2282 H 0.80326 0.45272 0.39342 0.0
H2283 H 0.80433 0.45222 0.49041 0.0
C2284 C 0.77066 0.42368 0.4871 0.0
C2285 C 0.75252 0.40847 0.46965 0.0
C2286 C 0.81558 0.46513 0.40785 0.0
C2287 C 0.79276 0.44291 0.4479 0.0
C2288 C 0.83316 0.48552 0.39804 0.0
C2289 C 0.84828 0.50274 0.41648 0.0
C2290 C 0.81327 0.46198 0.43624 0.0
C2291 C 0.84662 0.49773 0.44456 0.0
C2292 C 0.79069 0.44077 0.47638 0.0
C2293 C 0.7552 0.41116 0.44123 0.0
N2294 N 0.82927 0.47802 0.45355 0.0
N2295 N 0.77492 0.42811 0.43122 0.0
H2296 H 0.83116 0.48233 0.84664 0.0
H2297 H 0.71086 0.37348 0.81727 0.0
H2298 H 0.81857 0.43821 0.76957 0.0
H2299 H 0.73034 0.40691 0.89801 0.0
H2300 H 0.7534 0.39337 0.80084 0.0
H2301 H 0.79696 0.45236 0.86704 0.0
C2302 C 0.82127 0.46634 0.83399 0.0
C2303 C 0.82745 0.4631 0.80619 0.0
C2304 C 0.74867 0.39605 0.82226 0.0
C2305 C 0.78848 0.42863 0.82952 0.0
C2306 C 0.7244 0.38467 0.83163 0.0
C2307 C 0.71703 0.38892 0.85891 0.0
C2308 C 0.76541 0.41226 0.84018 0.0
C2309 C 0.73534 0.40327 0.87679 0.0
C2310 C 0.80188 0.44911 0.84574 0.0
C2311 C 0.81427 0.44174 0.79098 0.0
N2312 N 0.75854 0.41493 0.86697 0.0
N2313 N 0.79524 0.4255 0.80279 0.0
H2314 H 0.82355 0.60784 0.03162 0.0
H2315 H 0.85073 0.50231 0.11879 0.0
H2316 H 0.78769 0.54485 0.97792 0.0
H2317 H 0.82955 0.44777 0.05044 0.0
H2318 H 0.84569 0.54108 0.08896 0.0
H2319 H 0.84613 0.57281 0.0579 0.0
C2320 C 0.82082 0.58659 0.0251 0.0
C2321 C 0.80319 0.57918 0.00296 0.0
C2322 C 0.84273 0.52074 0.08014 0.0
C2323 C 0.82775 0.53869 0.03388 0.0
C2324 C 0.84534 0.49848 0.0974 0.0
C2325 C 0.84015 0.47172 0.08728 0.0
C2326 C 0.83499 0.51619 0.05243 0.0
C2327 C 0.83335 0.46803 0.05933 0.0
C2328 C 0.83336 0.56645 0.04047 0.0
C2329 C 0.80081 0.55146 0.99507 0.0
N2330 N 0.83073 0.48998 0.04302 0.0
N2331 N 0.81249 0.53218 0.01087 0.0
H2332 H 0.70266 0.61589 0.24311 0.0
H2333 H 0.78376 0.59966 0.38541 0.0
H2334 H 0.67119 0.57538 0.31365 0.0
H2335 H 0.82401 0.59635 0.30763 0.0
H2336 H 0.74068 0.60865 0.36133 0.0
H2337 H 0.74601 0.62542 0.269 0.0
C2338 C 0.70448 0.61005 0.26433 0.0
C2339 C 0.68295 0.59596 0.27676 0.0
C2340 C 0.75909 0.60632 0.34964 0.0
C2341 C 0.7318 0.60649 0.30604 0.0
C2342 C 0.78364 0.60109 0.36332 0.0
C2343 C 0.80738 0.59652 0.34846 0.0
C2344 C 0.75829 0.60715 0.32096 0.0
C2345 C 0.80604 0.59907 0.31985 0.0
C2346 C 0.72908 0.61537 0.27896 0.0
C2347 C 0.68657 0.58777 0.30387 0.0
N2348 N 0.78177 0.60392 0.30694 0.0
N2349 N 0.71044 0.59322 0.31761 0.0
H2350 H 0.64299 0.42369 0.48835 0.0
H2351 H 0.62128 0.5103 0.6252 0.0
H2352 H 0.64771 0.39083 0.56959 0.0
H2353 H 0.63507 0.54481 0.54585 0.0
H2354 H 0.61687 0.46489 0.60348 0.0
H2355 H 0.62449 0.46577 0.50762 0.0
C2356 C 0.63936 0.42501 0.51012 0.0
C2357 C 0.64767 0.40421 0.52757 0.0
C2358 C 0.62054 0.48247 0.59083 0.0
C2359 C 0.627 0.45217 0.54966 0.0
C2360 C 0.62322 0.50839 0.60321 0.0
C2361 C 0.6293 0.53132 0.58741 0.0
C2362 C 0.62393 0.4795 0.56249 0.0
C2363 C 0.63106 0.52764 0.55894 0.0
C2364 C 0.629 0.44909 0.52113 0.0
C2365 C 0.64228 0.40681 0.55557 0.0
N2366 N 0.62871 0.50216 0.54743 0.0
N2367 N 0.63277 0.43065 0.56586 0.0
H2368 H 0.78842 0.79713 0.57072 0.0
H2369 H 0.63945 0.73662 0.60312 0.0
H2370 H 0.71284 0.83372 0.54485 0.0
H2371 H 0.71286 0.68909 0.60483 0.0
H2372 H 0.66736 0.77749 0.59379 0.0
H2373 H 0.76189 0.76268 0.59541 0.0
C2374 C 0.76631 0.79821 0.57068 0.0
C2375 C 0.75273 0.8179 0.55533 0.0
C2376 C 0.67733 0.75814 0.59656 0.0
C2377 C 0.72245 0.77888 0.58341 0.0
C2378 C 0.66144 0.73484 0.60193 0.0
C2379 C 0.67379 0.70933 0.60419 0.0
C2380 C 0.70573 0.75589 0.59369 0.0
C2381 C 0.70242 0.70826 0.60265 0.0
C2382 C 0.7512 0.77854 0.58464 0.0
C2383 C 0.72406 0.8185 0.556 0.0
N2384 N 0.7174 0.73116 0.59726 0.0
N2385 N 0.70985 0.79911 0.56959 0.0
H2386 H 0.25579 0.70036 0.46925 0.0
H2387 H 0.13424 0.76869 0.38562 0.0
H2388 H 0.17937 0.65903 0.44636 0.0
H2389 H 0.2053 0.81356 0.41843 0.0
H2390 H 0.15522 0.72609 0.39892 0.0
H2391 H 0.24226 0.73933 0.44186 0.0
C2392 C 0.23638 0.69929 0.45808 0.0
C2393 C 0.21844 0.67667 0.46042 0.0
C2394 C 0.16635 0.74524 0.40295 0.0
C2395 C 0.20282 0.72113 0.42928 0.0
C2396 C 0.15438 0.76963 0.39537 0.0
C2397 C 0.16777 0.79486 0.40142 0.0
C2398 C 0.19186 0.74603 0.41676 0.0
C2399 C 0.19402 0.79465 0.41372 0.0
C2400 C 0.22864 0.72157 0.44252 0.0
C2401 C 0.19363 0.67626 0.44542 0.0
N2402 N 0.20506 0.77063 0.4213 0.0
N2403 N 0.18641 0.69832 0.43073 0.0
H2404 H 0.55289 0.02248 0.64793 0.0
H2405 H 0.42256 0.96385 0.63048 0.0
H2406 H 0.56836 0.9446 0.68434 0.0
H2407 H 0.46296 0.8861 0.6306 0.0
H2408 H 0.46705 0.98726 0.63397 0.0
H2409 H 0.51111 0.00242 0.6257 0.0
C2410 C 0.54763 0.00108 0.65081 0.0
C2411 C 0.56418 0.98488 0.66732 0.0
C2412 C 0.46628 0.96512 0.63234 0.0
C2413 C 0.51658 0.96219 0.64309 0.0
C2414 C 0.44081 0.95168 0.63068 0.0
C2415 C 0.43899 0.92293 0.6309 0.0
C2416 C 0.49004 0.94965 0.63438 0.0
C2417 C 0.46332 0.90828 0.63082 0.0
C2418 C 0.52383 0.98971 0.63834 0.0
C2419 C 0.55651 0.95747 0.67101 0.0
N2420 N 0.48783 0.92182 0.63316 0.0
N2421 N 0.53329 0.94697 0.65895 0.0
H2422 H 0.28047 0.32786 0.93344 0.0
H2423 H 0.41032 0.23522 0.90854 0.0
H2424 H 0.35697 0.33841 0.97904 0.0
H2425 H 0.32942 0.21829 0.87414 0.0
H2426 H 0.39434 0.27898 0.92702 0.0
H2427 H 0.30132 0.29333 0.90465 0.0
C2428 C 0.30168 0.32299 0.93741 0.0
C2429 C 0.31682 0.33574 0.95908 0.0
C2430 C 0.38025 0.26584 0.91505 0.0
C2431 C 0.34086 0.29613 0.926 0.0
C2432 C 0.3894 0.24101 0.90436 0.0
C2433 C 0.371 0.22302 0.89023 0.0
C2434 C 0.35264 0.27259 0.91132 0.0
C2435 C 0.34412 0.2314 0.88537 0.0
C2436 C 0.31361 0.3033 0.92086 0.0
C2437 C 0.34438 0.32884 0.96283 0.0
N2438 N 0.33568 0.25546 0.89614 0.0
N2439 N 0.35546 0.30928 0.94661 0.0
H2440 H 0.40401 0.56933 0.69788 0.0
H2441 H 0.54672 0.55225 0.62935 0.0
H2442 H 0.43321 0.49186 0.66774 0.0
H2443 H 0.51295 0.63097 0.64883 0.0
H2444 H 0.50205 0.53066 0.63586 0.0
H2445 H 0.43962 0.59296 0.6728 0.0
C2446 C 0.41774 0.55729 0.68567 0.0
C2447 C 0.41616 0.52855 0.68545 0.0
C2448 C 0.5042 0.55269 0.63834 0.0
C2449 C 0.45711 0.55549 0.65688 0.0
C2450 C 0.52975 0.56503 0.63478 0.0
C2451 C 0.5336 0.59334 0.63925 0.0
C2452 C 0.48243 0.56871 0.64696 0.0
C2453 C 0.51086 0.60902 0.64555 0.0
C2454 C 0.43801 0.57083 0.67126 0.0
C2455 C 0.43399 0.51403 0.66878 0.0
N2456 N 0.48629 0.59639 0.64978 0.0
N2457 N 0.45413 0.52765 0.65558 0.0
H2458 H 0.79525 0.16883 0.07184 0.0
H2459 H 0.85622 0.27626 0.14206 0.0
H2460 H 0.71935 0.19077 0.10863 0.0
H2461 H 0.77702 0.31227 0.13014 0.0
H2462 H 0.83478 0.23088 0.13522 0.0
H2463 H 0.8183 0.20705 0.096 0.0
C2464 C 0.78367 0.18125 0.08586 0.0
C2465 C 0.7557 0.17607 0.08927 0.0
C2466 C 0.82214 0.24877 0.13419 0.0
C2467 C 0.7817 0.22054 0.11637 0.0
C2468 C 0.83431 0.27468 0.1383 0.0
C2469 C 0.81856 0.2982 0.13576 0.0
C2470 C 0.79413 0.24645 0.12724 0.0
C2471 C 0.79012 0.29476 0.13153 0.0
C2472 C 0.79684 0.20307 0.0997 0.0
C2473 C 0.74115 0.19382 0.10614 0.0
N2474 N 0.77886 0.26935 0.12696 0.0
N2475 N 0.75431 0.21558 0.11892 0.0
H2476 H 0.55071 0.97649 0.77751 0.0
H2477 H 0.49926 0.10649 0.85913 0.0
H2478 H 0.60208 0.04589 0.80304 0.0
H2479 H 0.44649 0.04262 0.82303 0.0
H2480 H 0.53864 0.0779 0.85103 0.0
H2481 H 0.51497 0.99314 0.8073 0.0
C2482 C 0.55481 0.99477 0.79002 0.0
C2483 C 0.57901 0.01033 0.78721 0.0
C2484 C 0.51839 0.07 0.84524 0.0
C2485 C 0.53817 0.02968 0.82083 0.0
C2486 C 0.49587 0.08637 0.84975 0.0
C2487 C 0.46957 0.07729 0.84101 0.0
C2488 C 0.5146 0.04445 0.83181 0.0
C2489 C 0.46644 0.05078 0.8295 0.0
C2490 C 0.53432 0.00437 0.80689 0.0
C2491 C 0.58339 0.03367 0.80411 0.0
N2492 N 0.48874 0.03547 0.82485 0.0
N2493 N 0.56289 0.043 0.81977 0.0
H2494 H 0.93933 0.00483 0.29518 0.0
H2495 H 0.01879 0.86866 0.33124 0.0
H2496 H 0.92247 0.92613 0.2554 0.0
H2497 H 0.04495 0.95004 0.35832 0.0
H2498 H 0.97737 0.88784 0.31092 0.0
H2499 H 0.97277 0.98347 0.32514 0.0
C2500 C 0.94263 0.98307 0.29271 0.0
C2501 C 0.92834 0.96734 0.27243 0.0
C2502 C 0.99202 0.9014 0.32166 0.0
C2503 C 0.96643 0.94275 0.30687 0.0
C2504 C 0.01552 0.89045 0.33344 0.0
C2505 C 0.03546 0.90789 0.34605 0.0
C2506 C 0.98854 0.92988 0.32273 0.0
C2507 C 0.03027 0.93596 0.34833 0.0
C2508 C 0.96166 0.97087 0.30991 0.0
C2509 C 0.93328 0.93915 0.27046 0.0
N2510 N 0.00743 0.94613 0.33651 0.0
N2511 N 0.95203 0.92778 0.28738 0.0
H2512 H 0.41583 0.23761 0.17937 0.0
H2513 H 0.38149 0.35004 0.26109 0.0
H2514 H 0.49861 0.26961 0.18961 0.0
H2515 H 0.45797 0.33065 0.30132 0.0
H2516 H 0.39445 0.32212 0.22128 0.0
H2517 H 0.40037 0.27364 0.21054 0.0
C2518 C 0.43065 0.25247 0.18788 0.0
C2519 C 0.45852 0.25069 0.18205 0.0
C2520 C 0.40833 0.32413 0.23886 0.0
C2521 C 0.44106 0.29164 0.21751 0.0
C2522 C 0.40108 0.34011 0.26141 0.0
C2523 C 0.41857 0.34223 0.28456 0.0
C2524 C 0.43336 0.31066 0.23949 0.0
C2525 C 0.44375 0.3291 0.284 0.0
C2526 C 0.42179 0.27312 0.20541 0.0
C2527 C 0.47692 0.27041 0.19354 0.0
N2528 N 0.45045 0.31387 0.26173 0.0
N2529 N 0.46793 0.2898 0.21126 0.0
H2530 H 0.39817 0.73971 0.90277 0.0
H2531 H 0.33498 0.68853 0.01105 0.0
H2532 H 0.4371 0.66208 0.89204 0.0
H2533 H 0.40858 0.64132 0.01331 0.0
H2534 H 0.33919 0.69236 0.9615 0.0
H2535 H 0.36732 0.7191 0.93511 0.0
C2536 C 0.39935 0.71795 0.90635 0.0
C2537 C 0.42059 0.7027 0.89546 0.0
C2538 C 0.35425 0.68097 0.97284 0.0
C2539 C 0.38582 0.67898 0.93284 0.0
C2540 C 0.35186 0.67871 0.00111 0.0
C2541 C 0.37215 0.66558 0.01646 0.0
C2542 C 0.37717 0.67015 0.96003 0.0
C2543 C 0.39306 0.65255 0.00242 0.0
C2544 C 0.38162 0.70606 0.92481 0.0
C2545 C 0.4212 0.6746 0.90045 0.0
N2546 N 0.39528 0.65555 0.97504 0.0
N2547 N 0.40474 0.66382 0.91969 0.0
H2548 H 0.08047 0.7067 0.67628 0.0
H2549 H 0.10817 0.70982 0.83763 0.0
H2550 H 0.01782 0.71496 0.73654 0.0
H2551 H 0.15662 0.66179 0.78242 0.0
H2552 H 0.08281 0.72713 0.79839 0.0
H2553 H 0.11479 0.70302 0.71344 0.0
C2554 C 0.07397 0.70779 0.69732 0.0
C2555 C 0.04625 0.71077 0.70343 0.0
C2556 C 0.09946 0.7133 0.79491 0.0
C2557 C 0.08535 0.70755 0.74567 0.0
C2558 C 0.11422 0.70362 0.81727 0.0
C2559 C 0.13403 0.68359 0.81339 0.0
C2560 C 0.10486 0.70325 0.76855 0.0
C2561 C 0.14108 0.6767 0.78641 0.0
C2562 C 0.09354 0.70583 0.7184 0.0
C2563 C 0.03891 0.71222 0.73097 0.0
N2564 N 0.1261 0.6861 0.76496 0.0
N2565 N 0.05838 0.71067 0.7511 0.0
H2566 H 0.01799 0.29001 0.45328 0.0
H2567 H 0.13828 0.30342 0.56086 0.0
H2568 H 0.08942 0.24091 0.44384 0.0
H2569 H 0.05406 0.30841 0.58498 0.0
H2570 H 0.12267 0.28357 0.51656 0.0
H2571 H 0.03248 0.3009 0.50061 0.0
C2572 C 0.03686 0.28172 0.46128 0.0
C2573 C 0.05315 0.26539 0.44475 0.0
C2574 C 0.10772 0.28861 0.53179 0.0
C2575 C 0.06951 0.27724 0.4985 0.0
C2576 C 0.11654 0.30003 0.55693 0.0
C2577 C 0.09736 0.30773 0.57643 0.0
C2578 C 0.07959 0.28547 0.52607 0.0
C2579 C 0.06948 0.30274 0.57048 0.0
C2580 C 0.04491 0.28762 0.48824 0.0
C2581 C 0.07684 0.2542 0.45603 0.0
N2582 N 0.06137 0.29233 0.54557 0.0
N2583 N 0.08471 0.26079 0.48224 0.0
H2584 H 0.52208 0.69306 0.30852 0.0
H2585 H 0.4322 0.72704 0.17561 0.0
H2586 H 0.47266 0.7646 0.30148 0.0
H2587 H 0.44691 0.64439 0.20088 0.0
H2588 H 0.45942 0.74435 0.21521 0.0
H2589 H 0.50706 0.67851 0.26179 0.0
C2590 C 0.50833 0.70574 0.29692 0.0
C2591 C 0.49756 0.72933 0.30879 0.0
C2592 C 0.4569 0.72243 0.21183 0.0
C2593 C 0.48135 0.71369 0.25592 0.0
C2594 C 0.44138 0.71257 0.18937 0.0
C2595 C 0.43698 0.6843 0.18537 0.0
C2596 C 0.46842 0.70387 0.23003 0.0
C2597 C 0.44941 0.66637 0.20365 0.0
C2598 C 0.49988 0.69756 0.27045 0.0
C2599 C 0.48052 0.74573 0.29307 0.0
N2600 N 0.46459 0.67648 0.22532 0.0
N2601 N 0.47269 0.73747 0.2674 0.0
H2602 H 0.07189 0.7335 0.05968 0.0
H2603 H 0.04539 0.62585 0.94445 0.0
H2604 H -0.00453 0.68769 0.06282 0.0
H2605 H 0.11988 0.6239 0.99371 0.0
H2606 H 0.02423 0.65243 0.98133 0.0
H2607 H 0.08858 0.69921 0.02708 0.0
C2608 C 0.05859 0.71636 0.05338 0.0
C2609 C 0.03241 0.71322 0.06409 0.0
C2610 C 0.045 0.64554 0.98409 0.0
C2611 C 0.05111 0.67448 0.02673 0.0
C2612 C 0.05702 0.63027 0.96323 0.0
C2613 C 0.08457 0.62287 0.9658 0.0
C2614 C 0.06093 0.65395 0.00711 0.0
C2615 C 0.09868 0.62924 0.99063 0.0
C2616 C 0.06816 0.69679 0.03501 0.0
C2617 C 0.01592 0.69063 0.05517 0.0
N2618 N 0.08696 0.64509 0.00999 0.0
N2619 N 0.02544 0.67216 0.0367 0.0
H2620 H 0.00517 0.34645 0.84751 0.0
H2621 H 0.08107 0.4068 0.75126 0.0
H2622 H 0.07696 0.30249 0.87183 0.0
H2623 H 0.11919 0.3279 0.75297 0.0
H2624 H 0.06783 0.40112 0.79867 0.0
H2625 H 0.03302 0.37367 0.81711 0.0
C2626 C 0.02704 0.34332 0.84725 0.0
C2627 C 0.03872 0.32189 0.86169 0.0
C2628 C 0.07937 0.38524 0.78872 0.0
C2629 C 0.07069 0.35256 0.82669 0.0
C2630 C 0.08702 0.38843 0.76166 0.0
C2631 C 0.10034 0.36726 0.74773 0.0
C2632 C 0.08498 0.36068 0.80182 0.0
C2633 C 0.10821 0.34437 0.76259 0.0
C2634 C 0.04304 0.35896 0.82995 0.0
C2635 C 0.06713 0.31867 0.86075 0.0
N2636 N 0.09997 0.34146 0.78874 0.0
N2637 N 0.08203 0.33316 0.84268 0.0
H2638 H 0.52761 0.3386 0.54414 0.0
H2639 H 0.3809 0.33828 0.47145 0.0
H2640 H 0.46414 0.27847 0.56038 0.0
H2641 H 0.44581 0.39739 0.45745 0.0
H2642 H 0.40712 0.32148 0.51063 0.0
H2643 H 0.49472 0.36468 0.51842 0.0
C2644 C 0.5067 0.33081 0.54233 0.0
C2645 C 0.49877 0.30598 0.55411 0.0
C2646 C 0.41532 0.33854 0.49937 0.0
C2647 C 0.46077 0.336 0.52435 0.0
C2648 C 0.40025 0.34834 0.47716 0.0
C2649 C 0.41147 0.36894 0.46092 0.0
C2650 C 0.44167 0.3495 0.50524 0.0
C2651 C 0.43664 0.38114 0.46915 0.0
C2652 C 0.48783 0.34589 0.52771 0.0
C2653 C 0.47122 0.29733 0.55139 0.0
N2654 N 0.45107 0.37094 0.49047 0.0
N2655 N 0.45324 0.31216 0.53644 0.0
H2656 H 0.17421 0.44959 0.28423 0.0
H2657 H 0.30599 0.36053 0.28071 0.0
H2658 H 0.20741 0.41616 0.20976 0.0
H2659 H 0.26534 0.38232 0.35529 0.0
H2660 H 0.26537 0.37312 0.25447 0.0
H2661 H 0.20323 0.41944 0.31065 0.0
C2662 C 0.18756 0.4359 0.27341 0.0
C2663 C 0.18881 0.43588 0.24474 0.0
C2664 C 0.26503 0.37457 0.27661 0.0
C2665 C 0.22192 0.40112 0.27488 0.0
C2666 C 0.28819 0.36726 0.29159 0.0
C2667 C 0.2892 0.37104 0.32012 0.0
C2668 C 0.24304 0.38623 0.29028 0.0
C2669 C 0.2655 0.37943 0.33326 0.0
C2670 C 0.20393 0.41848 0.28851 0.0
C2671 C 0.20607 0.41725 0.23184 0.0
N2672 N 0.24358 0.38746 0.31817 0.0
N2673 N 0.2222 0.40089 0.24703 0.0
H2674 H 0.24612 0.44841 0.06611 0.0
H2675 H 0.31681 0.59432 0.04541 0.0
H2676 H 0.2961 0.46655 -0.00301 0.0
H2677 H 0.31141 0.55933 0.12559 0.0
H2678 H 0.29731 0.55176 0.02524 0.0
H2679 H 0.25844 0.49392 0.08621 0.0
C2680 C 0.25964 0.46209 0.05528 0.0
C2681 C 0.27108 0.45378 0.03057 0.0
C2682 C 0.30021 0.55359 0.04726 0.0
C2683 C 0.28407 0.5054 0.05242 0.0
C2684 C 0.3112 0.57779 0.05878 0.0
C2685 C 0.31586 0.58015 0.08715 0.0
C2686 C 0.29339 0.53189 0.0643 0.0
C2687 C 0.30837 0.55812 0.10357 0.0
C2688 C 0.26656 0.48784 0.06661 0.0
C2689 C 0.28772 0.47217 0.0166 0.0
N2690 N 0.29741 0.53478 0.09188 0.0
N2691 N 0.29384 0.49723 0.02779 0.0
H2692 H 0.36544 0.59314 0.80765 0.0
H2693 H 0.24582 0.57904 0.91355 0.0
H2694 H 0.34406 0.5191 0.84957 0.0
H2695 H 0.24453 0.63121 0.84328 0.0
H2696 H 0.29357 0.56906 0.90484 0.0
H2697 H 0.33396 0.61836 0.83653 0.0
C2698 C 0.35508 0.58242 0.82376 0.0
C2699 C 0.3567 0.5539 0.82587 0.0
C2700 C 0.28297 0.58323 0.89179 0.0
C2701 C 0.32092 0.5825 0.85864 0.0
C2702 C 0.25569 0.5889 0.89663 0.0
C2703 C 0.2409 0.60535 0.87857 0.0
C2704 C 0.29558 0.59427 0.86893 0.0
C2705 C 0.25495 0.61784 0.85727 0.0
C2706 C 0.33699 0.59681 0.84004 0.0
C2707 C 0.34288 0.54101 0.84701 0.0
N2708 N 0.28146 0.61171 0.85277 0.0
N2709 N 0.32509 0.55534 0.8623 0.0
H2710 H 0.15887 0.58011 0.55456 0.0
H2711 H 0.13192 0.41879 0.55186 0.0
H2712 H 0.21908 0.519 0.5383 0.0
H2713 H 0.09113 0.47312 0.60781 0.0
H2714 H 0.15181 0.45854 0.52976 0.0
H2715 H 0.12415 0.54328 0.5594 0.0
C2716 C 0.16466 0.55897 0.55181 0.0
C2717 C 0.19187 0.55239 0.54659 0.0
C2718 C 0.13787 0.46168 0.5464 0.0
C2719 C 0.15241 0.51074 0.55091 0.0
C2720 C 0.12632 0.43902 0.55896 0.0
C2721 C 0.11083 0.44261 0.58258 0.0
C2722 C 0.1336 0.48795 0.55734 0.0
C2723 C 0.10373 0.46938 0.59025 0.0
C2724 C 0.1449 0.53812 0.55439 0.0
C2725 C 0.19842 0.52482 0.54294 0.0
N2726 N 0.11581 0.49115 0.57812 0.0
N2727 N 0.17881 0.50498 0.54518 0.0
H2728 H 0.22913 0.51869 0.18968 0.0
H2729 H 0.26695 0.66658 0.15748 0.0
H2730 H 0.16748 0.57879 0.20403 0.0
H2731 H 0.32365 0.61729 0.20288 0.0
H2732 H 0.22921 0.63724 0.17284 0.0
H2733 H 0.26404 0.55543 0.19039 0.0
C2734 C 0.22298 0.53967 0.19288 0.0
C2735 C 0.19547 0.54584 0.19663 0.0
C2736 C 0.24987 0.63348 0.18007 0.0
C2737 C 0.23515 0.58782 0.19741 0.0
C2738 C 0.27142 0.65027 0.17146 0.0
C2739 C 0.29863 0.644 0.1783 0.0
C2740 C 0.25578 0.6101 0.19506 0.0
C2741 C 0.30311 0.6227 0.19665 0.0
C2742 C 0.24289 0.56053 0.19365 0.0
C2743 C 0.18856 0.57332 0.20104 0.0
N2744 N 0.282 0.60592 0.20362 0.0
N2745 N 0.20827 0.59348 0.20082 0.0
H2746 H 0.24596 0.41777 0.90223 0.0
H2747 H 0.17189 0.51634 0.84587 0.0
H2748 H 0.1754 0.39473 0.94859 0.0
H2749 H 0.13707 0.51453 0.92631 0.0
H2750 H 0.18249 0.46797 0.84958 0.0
H2751 H 0.21764 0.44793 0.8753 0.0
C2752 C 0.2242 0.41822 0.90591 0.0
C2753 C 0.21304 0.40435 0.92795 0.0
C2754 C 0.1722 0.47812 0.86621 0.0
C2755 C 0.18058 0.43915 0.89774 0.0
C2756 C 0.16609 0.50573 0.86417 0.0
C2757 C 0.15462 0.51982 0.88636 0.0
C2758 C 0.16692 0.46466 0.89066 0.0
C2759 C 0.1468 0.50475 0.90911 0.0
C2760 C 0.20792 0.43537 0.89044 0.0
C2761 C 0.18478 0.40543 0.93191 0.0
N2762 N 0.15357 0.47806 0.91089 0.0
N2763 N 0.16965 0.42348 0.91764 0.0
H2764 H 0.29792 0.47274 0.75881 0.0
H2765 H 0.19691 0.45148 0.63555 0.0
H2766 H 0.30173 0.52802 0.69139 0.0
H2767 H 0.17102 0.43706 0.71797 0.0
H2768 H 0.23603 0.47879 0.65414 0.0
H2769 H 0.25191 0.45787 0.74343 0.0
C2770 C 0.28886 0.48175 0.74077 0.0
C2771 C 0.30357 0.50087 0.72571 0.0
C2772 C 0.22151 0.46998 0.66807 0.0
C2773 C 0.25133 0.48426 0.70819 0.0
C2774 C 0.1994 0.45426 0.65754 0.0
C2775 C 0.18102 0.44182 0.67534 0.0
C2776 C 0.22561 0.47241 0.69651 0.0
C2777 C 0.18485 0.44626 0.70361 0.0
C2778 C 0.26261 0.47353 0.73219 0.0
C2779 C 0.29098 0.51269 0.703 0.0
N2780 N 0.2071 0.46076 0.71338 0.0
N2781 N 0.26563 0.50368 0.69442 0.0
H2782 H 0.23675 0.55226 0.45608 0.0
H2783 H 0.36227 0.48411 0.38198 0.0
H2784 H 0.3203 0.57318 0.47993 0.0
H2785 H 0.29275 0.43696 0.40918 0.0
H2786 H 0.34297 0.5255 0.40307 0.0
H2787 H 0.25359 0.51838 0.42297 0.0
C2788 C 0.25861 0.5502 0.45379 0.0
C2789 C 0.27726 0.56516 0.47078 0.0
C2790 C 0.33186 0.5061 0.40393 0.0
C2791 C 0.29637 0.52723 0.43308 0.0
C2792 C 0.34277 0.48267 0.39201 0.0
C2793 C 0.3291 0.45734 0.39433 0.0
C2794 C 0.30685 0.50402 0.41732 0.0
C2795 C 0.30394 0.45622 0.40741 0.0
C2796 C 0.26812 0.53091 0.43509 0.0
C2797 C 0.30536 0.56172 0.46731 0.0
N2798 N 0.29353 0.47932 0.41845 0.0
N2799 N 0.31415 0.54297 0.44882 0.0
H2800 H 0.26181 0.19261 0.40679 0.0
H2801 H 0.39419 0.28477 0.42768 0.0
H2802 H 0.31384 0.18866 0.47913 0.0
H2803 H 0.34648 0.2774 0.35254 0.0
H2804 H 0.37211 0.24254 0.44346 0.0
H2805 H 0.29805 0.21677 0.38372 0.0
C2806 C 0.28097 0.19673 0.41783 0.0
C2807 C 0.28461 0.18903 0.44511 0.0
C2808 C 0.36718 0.2496 0.42312 0.0
C2809 C 0.32638 0.21729 0.4188 0.0
C2810 C 0.38001 0.27349 0.41402 0.0
C2811 C 0.37179 0.28447 0.38896 0.0
C2812 C 0.34602 0.23705 0.407 0.0
C2813 C 0.35309 0.26954 0.37211 0.0
C2814 C 0.30182 0.21043 0.40454 0.0
C2815 C 0.3101 0.19455 0.45817 0.0
N2816 N 0.34044 0.24684 0.38164 0.0
N2817 N 0.32989 0.20889 0.44506 0.0
H2818 H 0.76658 0.34301 0.60672 0.0
H2819 H 0.89176 0.25176 0.56801 0.0
H2820 H 0.81109 0.34825 0.53185 0.0
H2821 H 0.8251 0.22921 0.61998 0.0
H2822 H 0.8763 0.29926 0.56919 0.0
H2823 H 0.80326 0.3156 0.62625 0.0
C2824 C 0.78473 0.33955 0.59493 0.0
C2825 C 0.78571 0.34702 0.56749 0.0
C2826 C 0.86558 0.28399 0.58092 0.0
C2827 C 0.82707 0.31568 0.58926 0.0
C2828 C 0.87424 0.25695 0.5801 0.0
C2829 C 0.85901 0.23655 0.59311 0.0
C2830 C 0.84184 0.29047 0.59513 0.0
C2831 C 0.83679 0.24427 0.60889 0.0
C2832 C 0.80553 0.32378 0.60597 0.0
C2833 C 0.80951 0.34213 0.55294 0.0
N2834 N 0.82863 0.27059 0.60917 0.0
N2835 N 0.82908 0.32613 0.56378 0.0
H2836 H 0.46104 0.98451 0.27076 0.0
H2837 H 0.56402 0.10507 0.2962 0.0
H2838 H 0.46242 0.05098 0.2142 0.0
H2839 H 0.58675 0.02222 0.31325 0.0
H2840 H 0.5265 0.08709 0.26626 0.0
H2841 H 0.50675 -0.00138 0.28767 0.0
C2842 C 0.47119 0.00206 0.26189 0.0
C2843 C 0.458 0.01723 0.24181 0.0
C2844 C 0.53998 0.07291 0.27625 0.0
C2845 C 0.50993 0.03335 0.26075 0.0
C2846 C 0.56111 0.0831 0.29347 0.0
C2847 C 0.57803 0.06498 0.30741 0.0
C2848 C 0.53526 0.04452 0.27391 0.0
C2849 C 0.57391 0.03676 0.30296 0.0
C2850 C 0.49728 0.00991 0.27127 0.0
C2851 C 0.47197 0.0393 0.23024 0.0
N2852 N 0.55248 0.02733 0.28703 0.0
N2853 N 0.49713 0.04723 0.24041 0.0
H2854 H 0.74556 0.70136 0.03038 0.0
H2855 H 0.6416 0.76538 0.13425 0.0
H2856 H 0.65827 0.68775 0.02118 0.0
H2857 H 0.70565 0.81615 0.10113 0.0
H2858 H 0.65532 0.72747 0.10438 0.0
H2859 H 0.73766 0.73567 0.06669 0.0
C2860 C 0.72475 0.70555 0.03609 0.0
C2861 C 0.70247 0.69182 0.02277 0.0
C2862 C 0.66678 0.74672 0.10427 0.0
C2863 C 0.69356 0.73006 0.06465 0.0
C2864 C 0.65932 0.7682 0.1216 0.0
C2865 C 0.67262 0.7939 0.12018 0.0
C2866 C 0.68806 0.75083 0.08598 0.0
C2867 C 0.695 0.7966 0.10287 0.0
C2868 C 0.72035 0.72501 0.05673 0.0
C2869 C 0.67595 0.698 0.03083 0.0
N2870 N 0.70199 0.7753 0.08627 0.0
N2871 N 0.67221 0.71652 0.05151 0.0
H2872 H 0.57213 0.53618 0.34045 0.0
H2873 H 0.42955 0.46325 0.31333 0.0
H2874 H 0.54452 0.51132 0.25895 0.0
H2875 H 0.48255 0.43114 0.37635 0.0
H2876 H 0.46707 0.49292 0.29904 0.0
H2877 H 0.53506 0.50786 0.35936 0.0
C2878 C 0.55826 0.52476 0.32662 0.0
C2879 C 0.56123 0.5259 0.29816 0.0
C2880 C 0.47029 0.47956 0.31617 0.0
C2881 C 0.51897 0.49451 0.31945 0.0
C2882 C 0.44891 0.46278 0.32454 0.0
C2883 C 0.45301 0.44454 0.346 0.0
C2884 C 0.49575 0.47857 0.32969 0.0
C2885 C 0.47865 0.44477 0.3596 0.0
C2886 C 0.53734 0.50865 0.33739 0.0
C2887 C 0.54293 0.51075 0.28101 0.0
N2888 N 0.49921 0.46164 0.35121 0.0
N2889 N 0.52226 0.49592 0.29193 0.0
H2890 H 0.25492 0.8077 0.97315 0.0
H2891 H 0.13057 0.70536 0.95969 0.0
H2892 H 0.18661 0.81543 0.02673 0.0
H2893 H 0.21271 0.67976 0.9435 0.0
H2894 H 0.14959 0.74644 0.98343 0.0
H2895 H 0.23934 0.76103 0.96082 0.0
C2896 C 0.23661 0.79937 0.98229 0.0
C2897 C 0.22133 0.81533 0.00011 0.0
C2898 C 0.16338 0.73161 0.97497 0.0
C2899 C 0.20361 0.7624 0.98647 0.0
C2900 C 0.15259 0.70837 0.96125 0.0
C2901 C 0.17016 0.68943 0.9494 0.0
C2902 C 0.19182 0.73614 0.97614 0.0
C2903 C 0.1985 0.69398 0.95229 0.0
C2904 C 0.22792 0.77277 0.97553 0.0
C2905 C 0.19836 0.80369 0.0123 0.0
N2906 N 0.20849 0.71718 0.96499 0.0
N2907 N 0.18971 0.77794 0.00474 0.0
H2908 H 0.40695 0.89491 0.23503 0.0
H2909 H 0.51293 0.88337 0.12641 0.0
H2910 H 0.3949 0.92598 0.15386 0.0
H2911 H 0.51283 0.83165 0.19668 0.0
H2912 H 0.4636 0.88819 0.12993 0.0
H2913 H 0.43652 0.85997 0.21655 0.0
C2914 C 0.40974 0.89368 0.21311 0.0
C2915 C 0.39949 0.91392 0.19604 0.0
C2916 C 0.47406 0.87517 0.14424 0.0
C2917 C 0.43406 0.87485 0.17494 0.0
C2918 C 0.50223 0.87261 0.14229 0.0
C2919 C 0.51669 0.85772 0.16173 0.0
C2920 C 0.46057 0.8637 0.16652 0.0
C2921 C 0.50219 0.8437 0.18163 0.0
C2922 C 0.4267 0.87374 0.20252 0.0
C2923 C 0.40309 0.91112 0.16779 0.0
N2924 N 0.4749 0.84768 0.18405 0.0
N2925 N 0.42096 0.89255 0.15818 0.0
H2926 H 0.05652 0.1009 0.7379 0.0
H2927 H 0.9396 0.05375 0.63523 0.0
H2928 H 0.04889 0.01535 0.71414 0.0
H2929 H 0.98572 0.12922 0.62466 0.0
H2930 H 0.97621 0.03823 0.66593 0.0
H2931 H 0.02557 0.11186 0.6998 0.0
C2932 C 0.04825 0.08444 0.72476 0.0
C2933 C 0.05536 0.05721 0.72909 0.0
C2934 C 0.97842 0.05792 0.65635 0.0
C2935 C 0.01994 0.06957 0.68573 0.0
C2936 C 0.95766 0.06675 0.63872 0.0
C2937 C 0.95929 0.09305 0.62766 0.0
C2938 C 0.00051 0.07578 0.66332 0.0
C2939 C 0.9833 0.10893 0.63289 0.0
C2940 C 0.03084 0.09072 0.70291 0.0
C2941 C 0.04404 0.03665 0.71138 0.0
N2942 N 0.00261 0.10035 0.6509 0.0
N2943 N 0.02661 0.04321 0.69059 0.0
loop_
_geom_bond_atom_site_label_1
_geom_bond_atom_site_label_2
_geom_bond_distance
_geom_bond_site_symmetry_2
_ccdc_geom_bond_type
Mn0 O5 2.095 1_455 S
Mn0 O15 2.162 1_455 S
Mn0 O16 2.297 1_455 S
Mn0 O24 2.385 . S
Mn0 O25 2.209 . S
Mn0 O26 2.094 . S
Mn1 O6 2.121 1_455 S
Mn1 N8 2.257 . S
Mn1 N17 2.282 . S
Mn1 O25 2.215 . S
Mn1 O27 2.117 . S
C2 O24 1.234 . S
C2 O25 1.283 . S
C3 O15 1.281 . S
C3 O16 1.236 . S
C4 O26 1.240 . S
C4 O27 1.264 . S
O5 Mn0 2.095 1_655 S
O5 C14 1.250 . S
O6 Mn1 2.121 1_655 S
O6 C14 1.258 . S
C7 N8 1.326 . S
C7 C11 1.460 . S
C7 H13 0.929 . S
N8 Mn1 2.257 . S
N8 C7 1.326 . S
N8 C12 1.362 . S
C9 C10 1.258 . S
C9 C12 1.431 . S
C9 C29 1.449 . S
C10 C9 1.258 . S
C10 C11 1.477 . S
C10 H30 0.931 . S
C11 C7 1.460 . S
C11 C10 1.477 . S
C11 H31 0.930 . S
C12 N8 1.362 . S
C12 C9 1.431 . S
C12 C22 1.476 . S
H13 C7 0.929 . S
C14 O5 1.250 . S
C14 O6 1.258 . S
O15 Mn0 2.162 1_655 S
O15 C3 1.281 . S
O16 Mn0 2.297 1_655 S
O16 C3 1.236 . S
N17 Mn1 2.282 . S
N17 C18 1.328 . S
N17 C22 1.318 . S
C18 N17 1.328 . S
C18 C19 1.457 . S
C18 H23 0.929 . S
C19 C18 1.457 . S
C19 C20 1.291 . S
C19 H32 0.931 . S
C20 C19 1.291 . S
C20 C21 1.373 . S
C20 H33 0.929 . S
C21 C20 1.373 . S
C21 C22 1.396 . S
C21 C28 1.403 . S
C22 C12 1.476 . S
C22 N17 1.318 . S
C22 C21 1.396 . S
H23 C18 0.929 . S
O24 Mn0 2.385 . S
O24 C2 1.234 . S
O25 Mn0 2.209 . S
O25 Mn1 2.215 . S
O25 C2 1.283 . S
O26 Mn0 2.094 . S
O26 C4 1.240 . S
O27 Mn1 2.117 . S
O27 C4 1.264 . S
C28 C21 1.403 . S
C28 C29 1.399 . S
C28 H34 0.929 . S
C29 C9 1.449 . S
C29 C28 1.399 . S
C29 H35 0.930 . S
H30 C10 0.931 . S
H31 C11 0.930 . S
H32 C19 0.931 . S
H33 C20 0.929 . S
H34 C28 0.929 . S
H35 C29 0.930 . S
Mn36 O41 2.095 . S
Mn36 O51 2.162 . S
Mn36 O52 2.297 . S
Mn36 O60 2.385 . S
Mn36 O61 2.209 1_455 S
Mn36 O62 2.094 . S
Mn37 O42 2.121 . S
Mn37 N44 2.257 . S
Mn37 N53 2.282 . S
Mn37 O61 2.215 . S
Mn37 O63 2.117 1_655 S
C38 O60 1.234 1_655 S
C38 O61 1.283 . S
C39 O51 1.281 . S
C39 O52 1.236 . S
C40 O62 1.240 . S
C40 O63 1.264 . S
O41 Mn36 2.095 . S
O41 C50 1.250 1_455 S
O42 Mn37 2.121 . S
O42 C50 1.258 . S
C43 N44 1.326 . S
C43 C47 1.460 . S
C43 H49 0.929 . S
N44 Mn37 2.257 . S
N44 C43 1.326 . S
N44 C48 1.362 . S
C45 C46 1.258 . S
C45 C48 1.431 . S
C45 C65 1.449 . S
C46 C45 1.258 . S
C46 C47 1.477 . S
C46 H66 0.931 . S
C47 C43 1.460 . S
C47 C46 1.477 . S
C47 H67 0.930 . S
C48 N44 1.362 . S
C48 C45 1.431 . S
C48 C58 1.476 . S
H49 C43 0.929 . S
C50 O41 1.250 1_655 S
C50 O42 1.258 . S
O51 Mn36 2.162 . S
O51 C39 1.281 . S
O52 Mn36 2.297 . S
O52 C39 1.236 . S
N53 Mn37 2.282 . S
N53 C54 1.328 . S
N53 C58 1.318 . S
C54 N53 1.328 . S
C54 C55 1.457 . S
C54 H59 0.929 . S
C55 C54 1.457 . S
C55 C56 1.291 . S
C55 H68 0.931 . S
C56 C55 1.291 . S
C56 C57 1.373 . S
C56 H69 0.929 . S
C57 C56 1.373 . S
C57 C58 1.396 . S
C57 C64 1.403 . S
C58 C48 1.476 . S
C58 N53 1.318 . S
C58 C57 1.396 . S
H59 C54 0.929 . S
O60 Mn36 2.385 . S
O60 C38 1.234 1_455 S
O61 Mn36 2.209 1_655 S
O61 Mn37 2.215 . S
O61 C38 1.283 . S
O62 Mn36 2.094 . S
O62 C40 1.240 . S
O63 Mn37 2.117 1_455 S
O63 C40 1.264 . S
C64 C57 1.403 . S
C64 C65 1.399 . S
C64 H70 0.929 . S
C65 C45 1.449 . S
C65 C64 1.399 . S
C65 H71 0.930 . S
H66 C46 0.931 . S
H67 C47 0.930 . S
H68 C55 0.931 . S
H69 C56 0.929 . S
H70 C64 0.929 . S
H71 C65 0.930 . S
Mn72 O77 2.095 . S
Mn72 O87 2.162 . S
Mn72 O88 2.297 . S
Mn72 O96 2.385 . S
Mn72 O97 2.209 . S
Mn72 O98 2.094 . S
Mn73 O78 2.121 . S
Mn73 N80 2.257 . S
Mn73 N89 2.282 . S
Mn73 O97 2.215 . S
Mn73 O99 2.117 . S
C74 O96 1.234 . S
C74 O97 1.283 . S
C75 O87 1.281 . S
C75 O88 1.236 . S
C76 O98 1.240 . S
C76 O99 1.264 . S
O77 Mn72 2.095 . S
O77 C86 1.250 . S
O78 Mn73 2.121 . S
O78 C86 1.258 . S
C79 N80 1.326 . S
C79 C83 1.460 . S
C79 H85 0.929 . S
N80 Mn73 2.257 . S
N80 C79 1.326 . S
N80 C84 1.362 . S
C81 C82 1.258 . S
C81 C84 1.431 . S
C81 C101 1.449 . S
C82 C81 1.258 . S
C82 C83 1.477 . S
C82 H102 0.931 . S
C83 C79 1.460 . S
C83 C82 1.477 . S
C83 H103 0.930 . S
C84 N80 1.362 . S
C84 C81 1.431 . S
C84 C94 1.476 . S
H85 C79 0.929 . S
C86 O77 1.250 . S
C86 O78 1.258 . S
O87 Mn72 2.162 . S
O87 C75 1.281 . S
O88 Mn72 2.297 . S
O88 C75 1.236 . S
N89 Mn73 2.282 . S
N89 C90 1.328 . S
N89 C94 1.318 . S
C90 N89 1.328 . S
C90 C91 1.457 . S
C90 H95 0.929 . S
C91 C90 1.457 . S
C91 C92 1.291 . S
C91 H104 0.931 . S
C92 C91 1.291 . S
C92 C93 1.373 . S
C92 H105 0.929 . S
C93 C92 1.373 . S
C93 C94 1.396 . S
C93 C100 1.403 . S
C94 C84 1.476 . S
C94 N89 1.318 . S
C94 C93 1.396 . S
H95 C90 0.929 . S
O96 Mn72 2.385 . S
O96 C74 1.234 . S
O97 Mn72 2.209 . S
O97 Mn73 2.215 . S
O97 C74 1.283 . S
O98 Mn72 2.094 . S
O98 C76 1.240 . S
O99 Mn73 2.117 . S
O99 C76 1.264 . S
C100 C93 1.403 . S
C100 C101 1.399 . S
C100 H106 0.929 . S
C101 C81 1.449 . S
C101 C100 1.399 . S
C101 H107 0.930 . S
H102 C82 0.931 . S
H103 C83 0.930 . S
H104 C91 0.931 . S
H105 C92 0.929 . S
H106 C100 0.929 . S
H107 C101 0.930 . S
Mn108 O113 2.095 . S
Mn108 O123 2.162 . S
Mn108 O124 2.297 . S
Mn108 O132 2.385 . S
Mn108 O133 2.209 . S
Mn108 O134 2.094 . S
Mn109 O114 2.121 . S
Mn109 N116 2.257 . S
Mn109 N125 2.282 . S
Mn109 O133 2.215 . S
Mn109 O135 2.117 . S
C110 O132 1.234 . S
C110 O133 1.283 . S
C111 O123 1.281 . S
C111 O124 1.236 . S
C112 O134 1.240 . S
C112 O135 1.264 . S
O113 Mn108 2.095 . S
O113 C122 1.250 . S
O114 Mn109 2.121 . S
O114 C122 1.258 . S
C115 N116 1.326 . S
C115 C119 1.460 . S
C115 H121 0.929 . S
N116 Mn109 2.257 . S
N116 C115 1.326 . S
N116 C120 1.362 . S
C117 C118 1.258 . S
C117 C120 1.431 . S
C117 C137 1.449 . S
C118 C117 1.258 . S
C118 C119 1.477 . S
C118 H138 0.931 . S
C119 C115 1.460 . S
C119 C118 1.477 . S
C119 H139 0.930 . S
C120 N116 1.362 . S
C120 C117 1.431 . S
C120 C130 1.476 . S
H121 C115 0.929 . S
C122 O113 1.250 . S
C122 O114 1.258 . S
O123 Mn108 2.162 . S
O123 C111 1.281 . S
O124 Mn108 2.297 . S
O124 C111 1.236 . S
N125 Mn109 2.282 . S
N125 C126 1.328 . S
N125 C130 1.318 . S
C126 N125 1.328 . S
C126 C127 1.457 . S
C126 H131 0.929 . S
C127 C126 1.457 . S
C127 C128 1.291 . S
C127 H140 0.931 . S
C128 C127 1.291 . S
C128 C129 1.373 . S
C128 H141 0.929 . S
C129 C128 1.373 . S
C129 C130 1.396 . S
C129 C136 1.403 . S
C130 C120 1.476 . S
C130 N125 1.318 . S
C130 C129 1.396 . S
H131 C126 0.929 . S
O132 Mn108 2.385 . S
O132 C110 1.234 . S
O133 Mn108 2.209 . S
O133 Mn109 2.215 . S
O133 C110 1.283 . S
O134 Mn108 2.094 . S
O134 C112 1.240 . S
O135 Mn109 2.117 . S
O135 C112 1.264 . S
C136 C129 1.403 . S
C136 C137 1.399 . S
C136 H142 0.929 . S
C137 C117 1.449 . S
C137 C136 1.399 . S
C137 H143 0.930 . S
H138 C118 0.931 . S
H139 C119 0.930 . S
H140 C127 0.931 . S
H141 C128 0.929 . S
H142 C136 0.929 . S
H143 C137 0.930 . S
Mn144 O149 2.095 . S
Mn144 O159 2.162 . S
Mn144 O160 2.297 . S
Mn144 O168 2.385 1_655 S
Mn144 O169 2.209 1_655 S
Mn144 O170 2.094 1_655 S
Mn145 O150 2.121 1_455 S
Mn145 N152 2.257 . S
Mn145 N161 2.282 . S
Mn145 O169 2.215 . S
Mn145 O171 2.117 . S
C146 O168 1.234 . S
C146 O169 1.283 . S
C147 O159 1.281 . S
C147 O160 1.236 . S
C148 O170 1.240 . S
C148 O171 1.264 . S
O149 Mn144 2.095 . S
O149 C158 1.250 . S
O150 Mn145 2.121 1_655 S
O150 C158 1.258 . S
C151 N152 1.326 . S
C151 C155 1.460 . S
C151 H157 0.920 1_455 S
N152 Mn145 2.257 . S
N152 C151 1.326 . S
N152 C156 1.362 . S
C153 C154 1.258 . S
C153 C156 1.431 . S
C153 C173 1.449 . S
C154 C153 1.258 . S
C154 C155 1.477 . S
C154 H174 0.931 . S
C155 C151 1.460 . S
C155 C154 1.477 . S
C155 H175 0.930 . S
C156 N152 1.362 . S
C156 C153 1.431 . S
C156 C166 1.476 . S
H157 C151 0.920 1_655 S
C158 O149 1.250 . S
C158 O150 1.258 . S
O159 Mn144 2.162 . S
O159 C147 1.281 . S
O160 Mn144 2.297 . S
O160 C147 1.236 . S
N161 Mn145 2.282 . S
N161 C162 1.328 . S
N161 C166 1.318 . S
C162 N161 1.328 . S
C162 C163 1.457 . S
C162 H167 0.929 . S
C163 C162 1.457 . S
C163 C164 1.291 . S
C163 H176 0.931 . S
C164 C163 1.291 . S
C164 C165 1.373 . S
C164 H177 0.929 . S
C165 C164 1.373 . S
C165 C166 1.396 . S
C165 C172 1.403 . S
C166 C156 1.476 . S
C166 N161 1.318 . S
C166 C165 1.396 . S
H167 C162 0.929 . S
O168 Mn144 2.385 1_455 S
O168 C146 1.234 . S
O169 Mn144 2.209 1_455 S
O169 Mn145 2.215 . S
O169 C146 1.283 . S
O170 Mn144 2.094 1_455 S
O170 C148 1.240 . S
O171 Mn145 2.117 . S
O171 C148 1.264 . S
C172 C165 1.403 . S
C172 C173 1.399 . S
C172 H178 0.929 . S
C173 C153 1.449 . S
C173 C172 1.399 . S
C173 H179 0.930 . S
H174 C154 0.931 . S
H175 C155 0.930 . S
H176 C163 0.931 . S
H177 C164 0.929 . S
H178 C172 0.929 . S
H179 C173 0.930 . S
Mn180 O185 2.095 . S
Mn180 O195 2.162 . S
Mn180 O196 2.297 . S
Mn180 O204 2.385 . S
Mn180 O205 2.209 . S
Mn180 O206 2.094 . S
Mn181 O186 2.121 . S
Mn181 N188 2.257 . S
Mn181 N197 2.282 . S
Mn181 O205 2.215 . S
Mn181 O207 2.117 . S
C182 O204 1.234 . S
C182 O205 1.283 . S
C183 O195 1.281 . S
C183 O196 1.236 . S
C184 O206 1.240 . S
C184 O207 1.264 . S
O185 Mn180 2.095 . S
O185 C194 1.250 . S
O186 Mn181 2.121 . S
O186 C194 1.258 . S
C187 N188 1.326 . S
C187 C191 1.460 . S
C187 H193 0.929 . S
N188 Mn181 2.257 . S
N188 C187 1.326 . S
N188 C192 1.362 . S
C189 C190 1.258 . S
C189 C192 1.431 . S
C189 C209 1.449 . S
C190 C189 1.258 . S
C190 C191 1.477 . S
C190 H210 0.931 . S
C191 C187 1.460 . S
C191 C190 1.477 . S
C191 H211 0.930 . S
C192 N188 1.362 . S
C192 C189 1.431 . S
C192 C202 1.476 . S
H193 C187 0.929 . S
C194 O185 1.250 . S
C194 O186 1.258 . S
O195 Mn180 2.162 . S
O195 C183 1.281 . S
O196 Mn180 2.297 . S
O196 C183 1.236 . S
N197 Mn181 2.282 . S
N197 C198 1.328 . S
N197 C202 1.318 . S
C198 N197 1.328 . S
C198 C199 1.457 . S
C198 H203 0.929 . S
C199 C198 1.457 . S
C199 C200 1.291 . S
C199 H212 0.931 . S
C200 C199 1.291 . S
C200 C201 1.373 . S
C200 H213 0.929 . S
C201 C200 1.373 . S
C201 C202 1.396 . S
C201 C208 1.403 . S
C202 C192 1.476 . S
C202 N197 1.318 . S
C202 C201 1.396 . S
H203 C198 0.929 . S
O204 Mn180 2.385 . S
O204 C182 1.234 . S
O205 Mn180 2.209 . S
O205 Mn181 2.215 . S
O205 C182 1.283 . S
O206 Mn180 2.094 . S
O206 C184 1.240 . S
O207 Mn181 2.117 . S
O207 C184 1.264 . S
C208 C201 1.403 . S
C208 C209 1.399 . S
C208 H214 0.929 . S
C209 C189 1.449 . S
C209 C208 1.399 . S
C209 H215 0.930 . S
H210 C190 0.931 . S
H211 C191 0.930 . S
H212 C199 0.931 . S
H213 C200 0.929 . S
H214 C208 0.929 . S
H215 C209 0.930 . S
Mn216 O221 2.095 . S
Mn216 O231 2.162 . S
Mn216 O232 2.297 . S
Mn216 O240 2.385 . S
Mn216 O241 2.209 . S
Mn216 O242 2.094 . S
Mn217 O222 2.121 . S
Mn217 N224 2.257 . S
Mn217 N233 2.282 . S
Mn217 O241 2.215 . S
Mn217 O243 2.117 . S
C218 O240 1.234 . S
C218 O241 1.283 . S
C219 O231 1.281 . S
C219 O232 1.236 . S
C220 O242 1.240 . S
C220 O243 1.264 . S
O221 Mn216 2.095 . S
O221 C230 1.250 . S
O222 Mn217 2.121 . S
O222 C230 1.258 . S
C223 N224 1.326 . S
C223 C227 1.460 . S
C223 H229 0.929 . S
N224 Mn217 2.257 . S
N224 C223 1.326 . S
N224 C228 1.362 . S
C225 C226 1.258 . S
C225 C228 1.431 . S
C225 C245 1.449 . S
C226 C225 1.258 . S
C226 C227 1.477 . S
C226 H246 0.931 . S
C227 C223 1.460 . S
C227 C226 1.477 . S
C227 H247 0.930 . S
C228 N224 1.362 . S
C228 C225 1.431 . S
C228 C238 1.476 . S
H229 C223 0.929 . S
C230 O221 1.250 . S
C230 O222 1.258 . S
O231 Mn216 2.162 . S
O231 C219 1.281 . S
O232 Mn216 2.297 . S
O232 C219 1.236 . S
N233 Mn217 2.282 . S
N233 C234 1.328 . S
N233 C238 1.318 . S
C234 N233 1.328 . S
C234 C235 1.457 . S
C234 H239 0.929 . S
C235 C234 1.457 . S
C235 C236 1.291 . S
C235 H248 0.931 . S
C236 C235 1.291 . S
C236 C237 1.373 . S
C236 H249 0.929 . S
C237 C236 1.373 . S
C237 C238 1.396 . S
C237 C244 1.403 . S
C238 C228 1.476 . S
C238 N233 1.318 . S
C238 C237 1.396 . S
H239 C234 0.929 . S
O240 Mn216 2.385 . S
O240 C218 1.234 . S
O241 Mn216 2.209 . S
O241 Mn217 2.215 . S
O241 C218 1.283 . S
O242 Mn216 2.094 . S
O242 C220 1.240 . S
O243 Mn217 2.117 . S
O243 C220 1.264 . S
C244 C237 1.403 . S
C244 C245 1.399 . S
C244 H250 0.929 . S
C245 C225 1.449 . S
C245 C244 1.399 . S
C245 H251 0.930 . S
H246 C226 0.931 . S
H247 C227 0.930 . S
H248 C235 0.931 . S
H249 C236 0.929 . S
H250 C244 0.929 . S
H251 C245 0.930 . S
Mn252 O257 2.095 . S
Mn252 O267 2.162 . S
Mn252 O268 2.297 . S
Mn252 O276 2.385 . S
Mn252 O277 2.209 1_455 S
Mn252 O278 2.094 . S
Mn253 O258 2.121 . S
Mn253 N260 2.257 . S
Mn253 N269 2.282 . S
Mn253 O277 2.215 . S
Mn253 O279 2.117 1_655 S
C254 O276 1.234 1_655 S
C254 O277 1.283 . S
C255 O267 1.281 . S
C255 O268 1.236 . S
C256 O278 1.240 . S
C256 O279 1.264 . S
O257 Mn252 2.095 . S
O257 C266 1.250 1_455 S
O258 Mn253 2.121 . S
O258 C266 1.258 . S
C259 N260 1.326 . S
C259 C263 1.460 . S
C259 H265 0.929 . S
N260 Mn253 2.257 . S
N260 C259 1.326 . S
N260 C264 1.362 . S
C261 C262 1.258 . S
C261 C264 1.431 . S
C261 C281 1.449 . S
C262 C261 1.258 . S
C262 C263 1.477 . S
C262 H282 0.931 . S
C263 C259 1.460 . S
C263 C262 1.477 . S
C263 H283 0.930 . S
C264 N260 1.362 . S
C264 C261 1.431 . S
C264 C274 1.476 . S
H265 C259 0.929 . S
C266 O257 1.250 1_655 S
C266 O258 1.258 . S
O267 Mn252 2.162 . S
O267 C255 1.281 . S
O268 Mn252 2.297 . S
O268 C255 1.236 . S
N269 Mn253 2.282 . S
N269 C270 1.328 . S
N269 C274 1.318 . S
C270 N269 1.328 . S
C270 C271 1.457 . S
C270 H275 0.929 . S
C271 C270 1.457 . S
C271 C272 1.291 . S
C271 H284 0.931 . S
C272 C271 1.291 . S
C272 C273 1.373 . S
C272 H285 0.929 . S
C273 C272 1.373 . S
C273 C274 1.396 . S
C273 C280 1.403 . S
C274 C264 1.476 . S
C274 N269 1.318 . S
C274 C273 1.396 . S
H275 C270 0.929 . S
O276 Mn252 2.385 . S
O276 C254 1.234 1_455 S
O277 Mn252 2.209 1_655 S
O277 Mn253 2.215 . S
O277 C254 1.283 . S
O278 Mn252 2.094 . S
O278 C256 1.240 . S
O279 Mn253 2.117 1_455 S
O279 C256 1.264 . S
C280 C273 1.403 . S
C280 C281 1.399 . S
C280 H286 0.929 . S
C281 C261 1.449 . S
C281 C280 1.399 . S
C281 H287 0.930 . S
H282 C262 0.931 . S
H283 C263 0.930 . S
H284 C271 0.931 . S
H285 C272 0.929 . S
H286 C280 0.929 . S
H287 C281 0.930 . S
Mn288 O293 2.095 1_545 S
Mn288 O303 2.162 1_545 S
Mn288 O304 2.297 1_545 S
Mn288 O312 2.385 . S
Mn288 O313 2.209 . S
Mn288 O314 2.094 . S
Mn289 O294 2.121 1_545 S
Mn289 N296 2.257 . S
Mn289 N305 2.282 . S
Mn289 O313 2.215 . S
Mn289 O315 2.117 . S
C290 O312 1.234 . S
C290 O313 1.283 . S
C291 O303 1.281 . S
C291 O304 1.236 . S
C292 O314 1.240 . S
C292 O315 1.264 . S
O293 Mn288 2.095 1_565 S
O293 C302 1.250 . S
O294 Mn289 2.121 1_565 S
O294 C302 1.258 . S
C295 N296 1.326 . S
C295 C299 1.460 . S
C295 H301 0.929 . S
N296 Mn289 2.257 . S
N296 C295 1.326 . S
N296 C300 1.362 . S
C297 C298 1.258 . S
C297 C300 1.431 . S
C297 C317 1.449 . S
C298 C297 1.258 . S
C298 C299 1.477 . S
C298 H318 0.931 . S
C299 C295 1.460 . S
C299 C298 1.477 . S
C299 H319 0.930 . S
C300 N296 1.362 . S
C300 C297 1.431 . S
C300 C310 1.476 . S
H301 C295 0.929 . S
C302 O293 1.250 . S
C302 O294 1.258 . S
O303 Mn288 2.162 1_565 S
O303 C291 1.281 . S
O304 Mn288 2.297 1_565 S
O304 C291 1.236 . S
N305 Mn289 2.282 . S
N305 C306 1.328 . S
N305 C310 1.318 . S
C306 N305 1.328 . S
C306 C307 1.457 . S
C306 H311 0.929 . S
C307 C306 1.457 . S
C307 C308 1.291 . S
C307 H320 0.931 . S
C308 C307 1.291 . S
C308 C309 1.373 . S
C308 H321 0.929 . S
C309 C308 1.373 . S
C309 C310 1.396 . S
C309 C316 1.403 . S
C310 C300 1.476 . S
C310 N305 1.318 . S
C310 C309 1.396 . S
H311 C306 0.929 . S
O312 Mn288 2.385 . S
O312 C290 1.234 . S
O313 Mn288 2.209 . S
O313 Mn289 2.215 . S
O313 C290 1.283 . S
O314 Mn288 2.094 . S
O314 C292 1.240 . S
O315 Mn289 2.117 . S
O315 C292 1.264 . S
C316 C309 1.403 . S
C316 C317 1.399 . S
C316 H322 0.929 . S
C317 C297 1.449 . S
C317 C316 1.399 . S
C317 H323 0.930 . S
H318 C298 0.931 . S
H319 C299 0.930 . S
H320 C307 0.931 . S
H321 C308 0.929 . S
H322 C316 0.929 . S
H323 C317 0.930 . S
Mn324 O329 2.095 . S
Mn324 O339 2.162 . S
Mn324 O340 2.297 . S
Mn324 O348 2.385 . S
Mn324 O349 2.209 . S
Mn324 O350 2.094 . S
Mn325 O330 2.121 . S
Mn325 N332 2.257 . S
Mn325 N341 2.282 . S
Mn325 O349 2.215 . S
Mn325 O351 2.117 . S
C326 O348 1.234 . S
C326 O349 1.283 . S
C327 O339 1.281 . S
C327 O340 1.236 . S
C328 O350 1.240 . S
C328 O351 1.264 . S
O329 Mn324 2.095 . S
O329 C338 1.250 . S
O330 Mn325 2.121 . S
O330 C338 1.258 . S
C331 N332 1.326 . S
C331 C335 1.460 . S
C331 H337 0.929 . S
N332 Mn325 2.257 . S
N332 C331 1.326 . S
N332 C336 1.362 . S
C333 C334 1.258 . S
C333 C336 1.431 . S
C333 C353 1.449 . S
C334 C333 1.258 . S
C334 C335 1.477 . S
C334 H354 0.931 . S
C335 C331 1.460 . S
C335 C334 1.477 . S
C335 H355 0.930 . S
C336 N332 1.362 . S
C336 C333 1.431 . S
C336 C346 1.476 . S
H337 C331 0.929 . S
C338 O329 1.250 . S
C338 O330 1.258 . S
O339 Mn324 2.162 . S
O339 C327 1.281 . S
O340 Mn324 2.297 . S
O340 C327 1.236 . S
N341 Mn325 2.282 . S
N341 C342 1.328 . S
N341 C346 1.318 . S
C342 N341 1.328 . S
C342 C343 1.457 . S
C342 H347 0.929 . S
C343 C342 1.457 . S
C343 C344 1.291 . S
C343 H356 0.931 . S
C344 C343 1.291 . S
C344 C345 1.373 . S
C344 H357 0.929 . S
C345 C344 1.373 . S
C345 C346 1.396 . S
C345 C352 1.403 . S
C346 C336 1.476 . S
C346 N341 1.318 . S
C346 C345 1.396 . S
H347 C342 0.929 . S
O348 Mn324 2.385 . S
O348 C326 1.234 . S
O349 Mn324 2.209 . S
O349 Mn325 2.215 . S
O349 C326 1.283 . S
O350 Mn324 2.094 . S
O350 C328 1.240 . S
O351 Mn325 2.117 . S
O351 C328 1.264 . S
C352 C345 1.403 . S
C352 C353 1.399 . S
C352 H358 0.929 . S
C353 C333 1.449 . S
C353 C352 1.399 . S
C353 H359 0.930 . S
H354 C334 0.931 . S
H355 C335 0.930 . S
H356 C343 0.931 . S
H357 C344 0.929 . S
H358 C352 0.929 . S
H359 C353 0.930 . S
Mn360 O365 2.095 . S
Mn360 O375 2.162 . S
Mn360 O376 2.297 . S
Mn360 O384 2.385 1_565 S
Mn360 O385 2.209 1_565 S
Mn360 O386 2.094 1_565 S
Mn361 O366 2.121 1_545 S
Mn361 N368 2.257 . S
Mn361 N377 2.282 . S
Mn361 O385 2.215 . S
Mn361 O387 2.117 . S
C362 O384 1.234 . S
C362 O385 1.283 . S
C363 O375 1.281 . S
C363 O376 1.236 . S
C364 O386 1.240 . S
C364 O387 1.264 . S
O365 Mn360 2.095 . S
O365 C374 1.250 . S
O366 Mn361 2.121 1_565 S
O366 C374 1.258 . S
C367 N368 1.326 . S
C367 C371 1.460 . S
C367 H373 0.920 1_545 S
N368 Mn361 2.257 . S
N368 C367 1.326 . S
N368 C372 1.362 . S
C369 C370 1.258 . S
C369 C372 1.431 . S
C369 C389 1.449 . S
C370 C369 1.258 . S
C370 C371 1.477 . S
C370 H390 0.931 . S
C371 C367 1.460 . S
C371 C370 1.477 . S
C371 H391 0.930 . S
C372 N368 1.362 . S
C372 C369 1.431 . S
C372 C382 1.476 . S
H373 C367 0.920 1_565 S
C374 O365 1.250 . S
C374 O366 1.258 . S
O375 Mn360 2.162 . S
O375 C363 1.281 . S
O376 Mn360 2.297 . S
O376 C363 1.236 . S
N377 Mn361 2.282 . S
N377 C378 1.328 . S
N377 C382 1.318 . S
C378 N377 1.328 . S
C378 C379 1.457 . S
C378 H383 0.929 . S
C379 C378 1.457 . S
C379 C380 1.291 . S
C379 H392 0.931 . S
C380 C379 1.291 . S
C380 C381 1.373 . S
C380 H393 0.929 . S
C381 C380 1.373 . S
C381 C382 1.396 . S
C381 C388 1.403 . S
C382 C372 1.476 . S
C382 N377 1.318 . S
C382 C381 1.396 . S
H383 C378 0.929 . S
O384 Mn360 2.385 1_545 S
O384 C362 1.234 . S
O385 Mn360 2.209 1_545 S
O385 Mn361 2.215 . S
O385 C362 1.283 . S
O386 Mn360 2.094 1_545 S
O386 C364 1.240 . S
O387 Mn361 2.117 . S
O387 C364 1.264 . S
C388 C381 1.403 . S
C388 C389 1.399 . S
C388 H394 0.929 . S
C389 C369 1.449 . S
C389 C388 1.399 . S
C389 H395 0.930 . S
H390 C370 0.931 . S
H391 C371 0.930 . S
H392 C379 0.931 . S
H393 C380 0.929 . S
H394 C388 0.929 . S
H395 C389 0.930 . S
Mn396 O401 2.095 . S
Mn396 O411 2.162 . S
Mn396 O412 2.297 . S
Mn396 O420 2.385 . S
Mn396 O421 2.209 1_554 S
Mn396 O422 2.094 . S
Mn397 O402 2.121 . S
Mn397 N404 2.257 . S
Mn397 N413 2.282 . S
Mn397 O421 2.215 . S
Mn397 O423 2.117 1_556 S
C398 O420 1.234 1_556 S
C398 O421 1.283 . S
C399 O411 1.281 . S
C399 O412 1.236 . S
C400 O422 1.240 . S
C400 O423 1.264 . S
O401 Mn396 2.095 . S
O401 C410 1.250 1_554 S
O402 Mn397 2.121 . S
O402 C410 1.258 . S
C403 N404 1.326 . S
C403 C407 1.460 . S
C403 H409 0.929 . S
N404 Mn397 2.257 . S
N404 C403 1.326 . S
N404 C408 1.362 . S
C405 C406 1.258 . S
C405 C408 1.431 . S
C405 C425 1.449 . S
C406 C405 1.258 . S
C406 C407 1.477 . S
C406 H426 0.931 . S
C407 C403 1.460 . S
C407 C406 1.477 . S
C407 H427 0.930 . S
C408 N404 1.362 . S
C408 C405 1.431 . S
C408 C418 1.476 . S
H409 C403 0.929 . S
C410 O401 1.250 1_556 S
C410 O402 1.258 . S
O411 Mn396 2.162 . S
O411 C399 1.281 . S
O412 Mn396 2.297 . S
O412 C399 1.236 . S
N413 Mn397 2.282 . S
N413 C414 1.328 . S
N413 C418 1.318 . S
C414 N413 1.328 . S
C414 C415 1.457 . S
C414 H419 0.929 . S
C415 C414 1.457 . S
C415 C416 1.291 . S
C415 H428 0.931 . S
C416 C415 1.291 . S
C416 C417 1.373 . S
C416 H429 0.929 . S
C417 C416 1.373 . S
C417 C418 1.396 . S
C417 C424 1.403 . S
C418 C408 1.476 . S
C418 N413 1.318 . S
C418 C417 1.396 . S
H419 C414 0.929 . S
O420 Mn396 2.385 . S
O420 C398 1.234 1_554 S
O421 Mn396 2.209 1_556 S
O421 Mn397 2.215 . S
O421 C398 1.283 . S
O422 Mn396 2.094 . S
O422 C400 1.240 . S
O423 Mn397 2.117 1_554 S
O423 C400 1.264 . S
C424 C417 1.403 . S
C424 C425 1.399 . S
C424 H430 0.929 . S
C425 C405 1.449 . S
C425 C424 1.399 . S
C425 H431 0.930 . S
H426 C406 0.931 . S
H427 C407 0.930 . S
H428 C415 0.931 . S
H429 C416 0.929 . S
H430 C424 0.929 . S
H431 C425 0.930 . S
Mn432 O437 2.095 1_554 S
Mn432 O447 2.162 1_554 S
Mn432 O448 2.297 1_554 S
Mn432 O456 2.385 . S
Mn432 O457 2.209 . S
Mn432 O458 2.094 . S
Mn433 O438 2.121 1_554 S
Mn433 N440 2.257 . S
Mn433 N449 2.282 . S
Mn433 O457 2.215 . S
Mn433 O459 2.117 . S
C434 O456 1.234 . S
C434 O457 1.283 . S
C435 O447 1.281 . S
C435 O448 1.236 . S
C436 O458 1.240 . S
C436 O459 1.264 . S
O437 Mn432 2.095 1_556 S
O437 C446 1.250 . S
O438 Mn433 2.121 1_556 S
O438 C446 1.258 . S
C439 N440 1.326 . S
C439 C443 1.460 . S
C439 H445 0.929 . S
N440 Mn433 2.257 . S
N440 C439 1.326 . S
N440 C444 1.362 . S
C441 C442 1.258 . S
C441 C444 1.431 . S
C441 C461 1.449 . S
C442 C441 1.258 . S
C442 C443 1.477 . S
C442 H462 0.931 . S
C443 C439 1.460 . S
C443 C442 1.477 . S
C443 H463 0.930 . S
C444 N440 1.362 . S
C444 C441 1.431 . S
C444 C454 1.476 . S
H445 C439 0.929 . S
C446 O437 1.250 . S
C446 O438 1.258 . S
O447 Mn432 2.162 1_556 S
O447 C435 1.281 . S
O448 Mn432 2.297 1_556 S
O448 C435 1.236 . S
N449 Mn433 2.282 . S
N449 C450 1.328 . S
N449 C454 1.318 . S
C450 N449 1.328 . S
C450 C451 1.457 . S
C450 H455 0.929 . S
C451 C450 1.457 . S
C451 C452 1.291 . S
C451 H464 0.931 . S
C452 C451 1.291 . S
C452 C453 1.373 . S
C452 H465 0.929 . S
C453 C452 1.373 . S
C453 C454 1.396 . S
C453 C460 1.403 . S
C454 C444 1.476 . S
C454 N449 1.318 . S
C454 C453 1.396 . S
H455 C450 0.929 . S
O456 Mn432 2.385 . S
O456 C434 1.234 . S
O457 Mn432 2.209 . S
O457 Mn433 2.215 . S
O457 C434 1.283 . S
O458 Mn432 2.094 . S
O458 C436 1.240 . S
O459 Mn433 2.117 . S
O459 C436 1.264 . S
C460 C453 1.403 . S
C460 C461 1.399 . S
C460 H466 0.929 . S
C461 C441 1.449 . S
C461 C460 1.399 . S
C461 H467 0.930 . S
H462 C442 0.931 . S
H463 C443 0.930 . S
H464 C451 0.931 . S
H465 C452 0.929 . S
H466 C460 0.929 . S
H467 C461 0.930 . S
Mn468 O473 2.095 . S
Mn468 O483 2.162 . S
Mn468 O484 2.297 . S
Mn468 O492 2.385 1_556 S
Mn468 O493 2.209 1_556 S
Mn468 O494 2.094 1_556 S
Mn469 O474 2.121 1_554 S
Mn469 N476 2.257 . S
Mn469 N485 2.282 . S
Mn469 O493 2.215 . S
Mn469 O495 2.117 . S
C470 O492 1.234 . S
C470 O493 1.283 . S
C471 O483 1.281 . S
C471 O484 1.236 . S
C472 O494 1.240 . S
C472 O495 1.264 . S
O473 Mn468 2.095 . S
O473 C482 1.250 . S
O474 Mn469 2.121 1_556 S
O474 C482 1.258 . S
C475 N476 1.326 . S
C475 C479 1.460 . S
C475 H481 0.920 1_554 S
N476 Mn469 2.257 . S
N476 C475 1.326 . S
N476 C480 1.362 . S
C477 C478 1.258 . S
C477 C480 1.431 . S
C477 C497 1.449 . S
C478 C477 1.258 . S
C478 C479 1.477 . S
C478 H498 0.931 . S
C479 C475 1.460 . S
C479 C478 1.477 . S
C479 H499 0.930 . S
C480 N476 1.362 . S
C480 C477 1.431 . S
C480 C490 1.476 . S
H481 C475 0.920 1_556 S
C482 O473 1.250 . S
C482 O474 1.258 . S
O483 Mn468 2.162 . S
O483 C471 1.281 . S
O484 Mn468 2.297 . S
O484 C471 1.236 . S
N485 Mn469 2.282 . S
N485 C486 1.328 . S
N485 C490 1.318 . S
C486 N485 1.328 . S
C486 C487 1.457 . S
C486 H491 0.929 . S
C487 C486 1.457 . S
C487 C488 1.291 . S
C487 H500 0.931 . S
C488 C487 1.291 . S
C488 C489 1.373 . S
C488 H501 0.929 . S
C489 C488 1.373 . S
C489 C490 1.396 . S
C489 C496 1.403 . S
C490 C480 1.476 . S
C490 N485 1.318 . S
C490 C489 1.396 . S
H491 C486 0.929 . S
O492 Mn468 2.385 1_554 S
O492 C470 1.234 . S
O493 Mn468 2.209 1_554 S
O493 Mn469 2.215 . S
O493 C470 1.283 . S
O494 Mn468 2.094 1_554 S
O494 C472 1.240 . S
O495 Mn469 2.117 . S
O495 C472 1.264 . S
C496 C489 1.403 . S
C496 C497 1.399 . S
C496 H502 0.929 . S
C497 C477 1.449 . S
C497 C496 1.399 . S
C497 H503 0.930 . S
H498 C478 0.931 . S
H499 C479 0.930 . S
H500 C487 0.931 . S
H501 C488 0.929 . S
H502 C496 0.929 . S
H503 C497 0.930 . S
Mn504 O509 2.095 . S
Mn504 O519 2.162 . S
Mn504 O520 2.297 . S
Mn504 O528 2.385 . S
Mn504 O529 2.209 . S
Mn504 O530 2.094 . S
Mn505 O510 2.121 . S
Mn505 N512 2.257 . S
Mn505 N521 2.282 . S
Mn505 O529 2.215 . S
Mn505 O531 2.117 . S
C506 O528 1.234 . S
C506 O529 1.283 . S
C507 O519 1.281 . S
C507 O520 1.236 . S
C508 O530 1.240 . S
C508 O531 1.264 . S
O509 Mn504 2.095 . S
O509 C518 1.250 . S
O510 Mn505 2.121 . S
O510 C518 1.258 . S
C511 N512 1.326 . S
C511 C515 1.460 . S
C511 H517 0.929 . S
N512 Mn505 2.257 . S
N512 C511 1.326 . S
N512 C516 1.362 . S
C513 C514 1.258 . S
C513 C516 1.431 . S
C513 C533 1.449 . S
C514 C513 1.258 . S
C514 C515 1.477 . S
C514 H534 0.931 . S
C515 C511 1.460 . S
C515 C514 1.477 . S
C515 H535 0.930 . S
C516 N512 1.362 . S
C516 C513 1.431 . S
C516 C526 1.476 . S
H517 C511 0.929 . S
C518 O509 1.250 . S
C518 O510 1.258 . S
O519 Mn504 2.162 . S
O519 C507 1.281 . S
O520 Mn504 2.297 . S
O520 C507 1.236 . S
N521 Mn505 2.282 . S
N521 C522 1.328 . S
N521 C526 1.318 . S
C522 N521 1.328 . S
C522 C523 1.457 . S
C522 H527 0.929 . S
C523 C522 1.457 . S
C523 C524 1.291 . S
C523 H536 0.931 . S
C524 C523 1.291 . S
C524 C525 1.373 . S
C524 H537 0.929 . S
C525 C524 1.373 . S
C525 C526 1.396 . S
C525 C532 1.403 . S
C526 C516 1.476 . S
C526 N521 1.318 . S
C526 C525 1.396 . S
H527 C522 0.929 . S
O528 Mn504 2.385 . S
O528 C506 1.234 . S
O529 Mn504 2.209 . S
O529 Mn505 2.215 . S
O529 C506 1.283 . S
O530 Mn504 2.094 . S
O530 C508 1.240 . S
O531 Mn505 2.117 . S
O531 C508 1.264 . S
C532 C525 1.403 . S
C532 C533 1.399 . S
C532 H538 0.929 . S
C533 C513 1.449 . S
C533 C532 1.399 . S
C533 H539 0.930 . S
H534 C514 0.931 . S
H535 C515 0.930 . S
H536 C523 0.931 . S
H537 C524 0.929 . S
H538 C532 0.929 . S
H539 C533 0.930 . S
Mn540 O545 2.095 . S
Mn540 O555 2.162 . S
Mn540 O556 2.297 . S
Mn540 O564 2.385 . S
Mn540 O565 2.209 . S
Mn540 O566 2.094 . S
Mn541 O546 2.121 . S
Mn541 N548 2.257 . S
Mn541 N557 2.282 . S
Mn541 O565 2.215 . S
Mn541 O567 2.117 . S
C542 O564 1.234 . S
C542 O565 1.283 . S
C543 O555 1.281 . S
C543 O556 1.236 . S
C544 O566 1.240 . S
C544 O567 1.264 . S
O545 Mn540 2.095 . S
O545 C554 1.250 . S
O546 Mn541 2.121 . S
O546 C554 1.258 . S
C547 N548 1.326 . S
C547 C551 1.460 . S
C547 H553 0.929 . S
N548 Mn541 2.257 . S
N548 C547 1.326 . S
N548 C552 1.362 . S
C549 C550 1.258 . S
C549 C552 1.431 . S
C549 C569 1.449 . S
C550 C549 1.258 . S
C550 C551 1.477 . S
C550 H570 0.931 . S
C551 C547 1.460 . S
C551 C550 1.477 . S
C551 H571 0.930 . S
C552 N548 1.362 . S
C552 C549 1.431 . S
C552 C562 1.476 . S
H553 C547 0.929 . S
C554 O545 1.250 . S
C554 O546 1.258 . S
O555 Mn540 2.162 . S
O555 C543 1.281 . S
O556 Mn540 2.297 . S
O556 C543 1.236 . S
N557 Mn541 2.282 . S
N557 C558 1.328 . S
N557 C562 1.318 . S
C558 N557 1.328 . S
C558 C559 1.457 . S
C558 H563 0.929 . S
C559 C558 1.457 . S
C559 C560 1.291 . S
C559 H572 0.931 . S
C560 C559 1.291 . S
C560 C561 1.373 . S
C560 H573 0.929 . S
C561 C560 1.373 . S
C561 C562 1.396 . S
C561 C568 1.403 . S
C562 C552 1.476 . S
C562 N557 1.318 . S
C562 C561 1.396 . S
H563 C558 0.929 . S
O564 Mn540 2.385 . S
O564 C542 1.234 . S
O565 Mn540 2.209 . S
O565 Mn541 2.215 . S
O565 C542 1.283 . S
O566 Mn540 2.094 . S
O566 C544 1.240 . S
O567 Mn541 2.117 . S
O567 C544 1.264 . S
C568 C561 1.403 . S
C568 C569 1.399 . S
C568 H574 0.929 . S
C569 C549 1.449 . S
C569 C568 1.399 . S
C569 H575 0.930 . S
H570 C550 0.931 . S
H571 C551 0.930 . S
H572 C559 0.931 . S
H573 C560 0.929 . S
H574 C568 0.929 . S
H575 C569 0.930 . S
Mn576 O581 2.095 . S
Mn576 O591 2.162 . S
Mn576 O592 2.297 . S
Mn576 O600 2.385 . S
Mn576 O601 2.209 1_545 S
Mn576 O602 2.094 . S
Mn577 O582 2.121 . S
Mn577 N584 2.257 . S
Mn577 N593 2.282 . S
Mn577 O601 2.215 . S
Mn577 O603 2.117 1_565 S
C578 O600 1.234 1_565 S
C578 O601 1.283 . S
C579 O591 1.281 . S
C579 O592 1.236 . S
C580 O602 1.240 . S
C580 O603 1.264 . S
O581 Mn576 2.095 . S
O581 C590 1.250 1_545 S
O582 Mn577 2.121 . S
O582 C590 1.258 . S
C583 N584 1.326 . S
C583 C587 1.460 . S
C583 H589 0.929 . S
N584 Mn577 2.257 . S
N584 C583 1.326 . S
N584 C588 1.362 . S
C585 C586 1.258 . S
C585 C588 1.431 . S
C585 C605 1.449 . S
C586 C585 1.258 . S
C586 C587 1.477 . S
C586 H606 0.931 . S
C587 C583 1.460 . S
C587 C586 1.477 . S
C587 H607 0.930 . S
C588 N584 1.362 . S
C588 C585 1.431 . S
C588 C598 1.476 . S
H589 C583 0.929 . S
C590 O581 1.250 1_565 S
C590 O582 1.258 . S
O591 Mn576 2.162 . S
O591 C579 1.281 . S
O592 Mn576 2.297 . S
O592 C579 1.236 . S
N593 Mn577 2.282 . S
N593 C594 1.328 . S
N593 C598 1.318 . S
C594 N593 1.328 . S
C594 C595 1.457 . S
C594 H599 0.929 . S
C595 C594 1.457 . S
C595 C596 1.291 . S
C595 H608 0.931 . S
C596 C595 1.291 . S
C596 C597 1.373 . S
C596 H609 0.929 . S
C597 C596 1.373 . S
C597 C598 1.396 . S
C597 C604 1.403 . S
C598 C588 1.476 . S
C598 N593 1.318 . S
C598 C597 1.396 . S
H599 C594 0.929 . S
O600 Mn576 2.385 . S
O600 C578 1.234 1_545 S
O601 Mn576 2.209 1_565 S
O601 Mn577 2.215 . S
O601 C578 1.283 . S
O602 Mn576 2.094 . S
O602 C580 1.240 . S
O603 Mn577 2.117 1_545 S
O603 C580 1.264 . S
C604 C597 1.403 . S
C604 C605 1.399 . S
C604 H610 0.929 . S
C605 C585 1.449 . S
C605 C604 1.399 . S
C605 H611 0.930 . S
H606 C586 0.931 . S
H607 C587 0.930 . S
H608 C595 0.931 . S
H609 C596 0.929 . S
H610 C604 0.929 . S
H611 C605 0.930 . S
Mn612 O617 2.095 . S
Mn612 O627 2.162 . S
Mn612 O628 2.297 . S
Mn612 O636 2.385 . S
Mn612 O637 2.209 . S
Mn612 O638 2.094 . S
Mn613 O618 2.121 . S
Mn613 N620 2.257 . S
Mn613 N629 2.282 . S
Mn613 O637 2.215 . S
Mn613 O639 2.117 . S
C614 O636 1.234 . S
C614 O637 1.283 . S
C615 O627 1.281 . S
C615 O628 1.236 . S
C616 O638 1.240 . S
C616 O639 1.264 . S
O617 Mn612 2.095 . S
O617 C626 1.250 . S
O618 Mn613 2.121 . S
O618 C626 1.258 . S
C619 N620 1.326 . S
C619 C623 1.460 . S
C619 H625 0.929 . S
N620 Mn613 2.257 . S
N620 C619 1.326 . S
N620 C624 1.362 . S
C621 C622 1.258 . S
C621 C624 1.431 . S
C621 C641 1.449 . S
C622 C621 1.258 . S
C622 C623 1.477 . S
C622 H642 0.931 . S
C623 C619 1.460 . S
C623 C622 1.477 . S
C623 H643 0.930 . S
C624 N620 1.362 . S
C624 C621 1.431 . S
C624 C634 1.476 . S
H625 C619 0.929 . S
C626 O617 1.250 . S
C626 O618 1.258 . S
O627 Mn612 2.162 . S
O627 C615 1.281 . S
O628 Mn612 2.297 . S
O628 C615 1.236 . S
N629 Mn613 2.282 . S
N629 C630 1.328 . S
N629 C634 1.318 . S
C630 N629 1.328 . S
C630 C631 1.457 . S
C630 H635 0.929 . S
C631 C630 1.457 . S
C631 C632 1.291 . S
C631 H644 0.931 . S
C632 C631 1.291 . S
C632 C633 1.373 . S
C632 H645 0.929 . S
C633 C632 1.373 . S
C633 C634 1.396 . S
C633 C640 1.403 . S
C634 C624 1.476 . S
C634 N629 1.318 . S
C634 C633 1.396 . S
H635 C630 0.929 . S
O636 Mn612 2.385 . S
O636 C614 1.234 . S
O637 Mn612 2.209 . S
O637 Mn613 2.215 . S
O637 C614 1.283 . S
O638 Mn612 2.094 . S
O638 C616 1.240 . S
O639 Mn613 2.117 . S
O639 C616 1.264 . S
C640 C633 1.403 . S
C640 C641 1.399 . S
C640 H646 0.929 . S
C641 C621 1.449 . S
C641 C640 1.399 . S
C641 H647 0.930 . S
H642 C622 0.931 . S
H643 C623 0.930 . S
H644 C631 0.931 . S
H645 C632 0.929 . S
H646 C640 0.929 . S
H647 C641 0.930 . S
Mn648 O653 2.095 . S
Mn648 O663 2.162 . S
Mn648 O664 2.297 . S
Mn648 O672 2.385 . S
Mn648 O673 2.209 . S
Mn648 O674 2.094 . S
Mn649 O654 2.121 . S
Mn649 N656 2.257 . S
Mn649 N665 2.282 . S
Mn649 O673 2.215 . S
Mn649 O675 2.117 . S
C650 O672 1.234 . S
C650 O673 1.283 . S
C651 O663 1.281 . S
C651 O664 1.236 . S
C652 O674 1.240 . S
C652 O675 1.264 . S
O653 Mn648 2.095 . S
O653 C662 1.250 . S
O654 Mn649 2.121 . S
O654 C662 1.258 . S
C655 N656 1.326 . S
C655 C659 1.460 . S
C655 H661 0.929 . S
N656 Mn649 2.257 . S
N656 C655 1.326 . S
N656 C660 1.362 . S
C657 C658 1.258 . S
C657 C660 1.431 . S
C657 C677 1.449 . S
C658 C657 1.258 . S
C658 C659 1.477 . S
C658 H678 0.931 . S
C659 C655 1.460 . S
C659 C658 1.477 . S
C659 H679 0.930 . S
C660 N656 1.362 . S
C660 C657 1.431 . S
C660 C670 1.476 . S
H661 C655 0.929 . S
C662 O653 1.250 . S
C662 O654 1.258 . S
O663 Mn648 2.162 . S
O663 C651 1.281 . S
O664 Mn648 2.297 . S
O664 C651 1.236 . S
N665 Mn649 2.282 . S
N665 C666 1.328 . S
N665 C670 1.318 . S
C666 N665 1.328 . S
C666 C667 1.457 . S
C666 H671 0.929 . S
C667 C666 1.457 . S
C667 C668 1.291 . S
C667 H680 0.931 . S
C668 C667 1.291 . S
C668 C669 1.373 . S
C668 H681 0.929 . S
C669 C668 1.373 . S
C669 C670 1.396 . S
C669 C676 1.403 . S
C670 C660 1.476 . S
C670 N665 1.318 . S
C670 C669 1.396 . S
H671 C666 0.929 . S
O672 Mn648 2.385 . S
O672 C650 1.234 . S
O673 Mn648 2.209 . S
O673 Mn649 2.215 . S
O673 C650 1.283 . S
O674 Mn648 2.094 . S
O674 C652 1.240 . S
O675 Mn649 2.117 . S
O675 C652 1.264 . S
C676 C669 1.403 . S
C676 C677 1.399 . S
C676 H682 0.929 . S
C677 C657 1.449 . S
C677 C676 1.399 . S
C677 H683 0.930 . S
H678 C658 0.931 . S
H679 C659 0.930 . S
H680 C667 0.931 . S
H681 C668 0.929 . S
H682 C676 0.929 . S
H683 C677 0.930 . S
Mn684 O689 2.095 . S
Mn684 O699 2.162 . S
Mn684 O700 2.297 . S
Mn684 O708 2.385 . S
Mn684 O709 2.209 1_545 S
Mn684 O710 2.094 . S
Mn685 O690 2.121 . S
Mn685 N692 2.257 . S
Mn685 N701 2.282 . S
Mn685 O709 2.215 . S
Mn685 O711 2.117 1_565 S
C686 O708 1.234 1_565 S
C686 O709 1.283 . S
C687 O699 1.281 . S
C687 O700 1.236 . S
C688 O710 1.240 . S
C688 O711 1.264 . S
O689 Mn684 2.095 . S
O689 C698 1.250 1_545 S
O690 Mn685 2.121 . S
O690 C698 1.258 . S
C691 N692 1.326 . S
C691 C695 1.460 . S
C691 H697 0.929 . S
N692 Mn685 2.257 . S
N692 C691 1.326 . S
N692 C696 1.362 . S
C693 C694 1.258 . S
C693 C696 1.431 . S
C693 C713 1.449 . S
C694 C693 1.258 . S
C694 C695 1.477 . S
C694 H714 0.931 . S
C695 C691 1.460 . S
C695 C694 1.477 . S
C695 H715 0.930 . S
C696 N692 1.362 . S
C696 C693 1.431 . S
C696 C706 1.476 . S
H697 C691 0.929 . S
C698 O689 1.250 1_565 S
C698 O690 1.258 . S
O699 Mn684 2.162 . S
O699 C687 1.281 . S
O700 Mn684 2.297 . S
O700 C687 1.236 . S
N701 Mn685 2.282 . S
N701 C702 1.328 . S
N701 C706 1.318 . S
C702 N701 1.328 . S
C702 C703 1.457 . S
C702 H707 0.929 . S
C703 C702 1.457 . S
C703 C704 1.291 . S
C703 H716 0.931 . S
C704 C703 1.291 . S
C704 C705 1.373 . S
C704 H717 0.929 . S
C705 C704 1.373 . S
C705 C706 1.396 . S
C705 C712 1.403 . S
C706 C696 1.476 . S
C706 N701 1.318 . S
C706 C705 1.396 . S
H707 C702 0.929 . S
O708 Mn684 2.385 . S
O708 C686 1.234 1_545 S
O709 Mn684 2.209 1_565 S
O709 Mn685 2.215 . S
O709 C686 1.283 . S
O710 Mn684 2.094 . S
O710 C688 1.240 . S
O711 Mn685 2.117 1_545 S
O711 C688 1.264 . S
C712 C705 1.403 . S
C712 C713 1.399 . S
C712 H718 0.929 . S
C713 C693 1.449 . S
C713 C712 1.399 . S
C713 H719 0.930 . S
H714 C694 0.931 . S
H715 C695 0.930 . S
H716 C703 0.931 . S
H717 C704 0.929 . S
H718 C712 0.929 . S
H719 C713 0.930 . S
Mn720 O725 2.095 . S
Mn720 O735 2.162 . S
Mn720 O736 2.297 . S
Mn720 O744 2.385 . S
Mn720 O745 2.209 1_554 S
Mn720 O746 2.094 . S
Mn721 O726 2.121 . S
Mn721 N728 2.257 . S
Mn721 N737 2.282 . S
Mn721 O745 2.215 . S
Mn721 O747 2.117 1_556 S
C722 O744 1.234 1_556 S
C722 O745 1.283 . S
C723 O735 1.281 . S
C723 O736 1.236 . S
C724 O746 1.240 . S
C724 O747 1.264 . S
O725 Mn720 2.095 . S
O725 C734 1.250 1_554 S
O726 Mn721 2.121 . S
O726 C734 1.258 . S
C727 N728 1.326 . S
C727 C731 1.460 . S
C727 H733 0.929 . S
N728 Mn721 2.257 . S
N728 C727 1.326 . S
N728 C732 1.362 . S
C729 C730 1.258 . S
C729 C732 1.431 . S
C729 C749 1.449 . S
C730 C729 1.258 . S
C730 C731 1.477 . S
C730 H750 0.931 . S
C731 C727 1.460 . S
C731 C730 1.477 . S
C731 H751 0.930 . S
C732 N728 1.362 . S
C732 C729 1.431 . S
C732 C742 1.476 . S
H733 C727 0.929 . S
C734 O725 1.250 1_556 S
C734 O726 1.258 . S
O735 Mn720 2.162 . S
O735 C723 1.281 . S
O736 Mn720 2.297 . S
O736 C723 1.236 . S
N737 Mn721 2.282 . S
N737 C738 1.328 . S
N737 C742 1.318 . S
C738 N737 1.328 . S
C738 C739 1.457 . S
C738 H743 0.929 . S
C739 C738 1.457 . S
C739 C740 1.291 . S
C739 H752 0.931 . S
C740 C739 1.291 . S
C740 C741 1.373 . S
C740 H753 0.929 . S
C741 C740 1.373 . S
C741 C742 1.396 . S
C741 C748 1.403 . S
C742 C732 1.476 . S
C742 N737 1.318 . S
C742 C741 1.396 . S
H743 C738 0.929 . S
O744 Mn720 2.385 . S
O744 C722 1.234 1_554 S
O745 Mn720 2.209 1_556 S
O745 Mn721 2.215 . S
O745 C722 1.283 . S
O746 Mn720 2.094 . S
O746 C724 1.240 . S
O747 Mn721 2.117 1_554 S
O747 C724 1.264 . S
C748 C741 1.403 . S
C748 C749 1.399 . S
C748 H754 0.929 . S
C749 C729 1.449 . S
C749 C748 1.399 . S
C749 H755 0.930 . S
H750 C730 0.931 . S
H751 C731 0.930 . S
H752 C739 0.931 . S
H753 C740 0.929 . S
H754 C748 0.929 . S
H755 C749 0.930 . S
Mn756 O761 2.095 . S
Mn756 O771 2.162 . S
Mn756 O772 2.297 . S
Mn756 O780 2.385 . S
Mn756 O781 2.209 . S
Mn756 O782 2.094 . S
Mn757 O762 2.121 . S
Mn757 N764 2.257 . S
Mn757 N773 2.282 . S
Mn757 O781 2.215 . S
Mn757 O783 2.117 . S
C758 O780 1.234 . S
C758 O781 1.283 . S
C759 O771 1.281 . S
C759 O772 1.236 . S
C760 O782 1.240 . S
C760 O783 1.264 . S
O761 Mn756 2.095 . S
O761 C770 1.250 . S
O762 Mn757 2.121 . S
O762 C770 1.258 . S
C763 N764 1.326 . S
C763 C767 1.460 . S
C763 H769 0.929 . S
N764 Mn757 2.257 . S
N764 C763 1.326 . S
N764 C768 1.362 . S
C765 C766 1.258 . S
C765 C768 1.431 . S
C765 C785 1.449 . S
C766 C765 1.258 . S
C766 C767 1.477 . S
C766 H786 0.931 . S
C767 C763 1.460 . S
C767 C766 1.477 . S
C767 H787 0.930 . S
C768 N764 1.362 . S
C768 C765 1.431 . S
C768 C778 1.476 . S
H769 C763 0.929 . S
C770 O761 1.250 . S
C770 O762 1.258 . S
O771 Mn756 2.162 . S
O771 C759 1.281 . S
O772 Mn756 2.297 . S
O772 C759 1.236 . S
N773 Mn757 2.282 . S
N773 C774 1.328 . S
N773 C778 1.318 . S
C774 N773 1.328 . S
C774 C775 1.457 . S
C774 H779 0.929 . S
C775 C774 1.457 . S
C775 C776 1.291 . S
C775 H788 0.931 . S
C776 C775 1.291 . S
C776 C777 1.373 . S
C776 H789 0.929 . S
C777 C776 1.373 . S
C777 C778 1.396 . S
C777 C784 1.403 . S
C778 C768 1.476 . S
C778 N773 1.318 . S
C778 C777 1.396 . S
H779 C774 0.929 . S
O780 Mn756 2.385 . S
O780 C758 1.234 . S
O781 Mn756 2.209 . S
O781 Mn757 2.215 . S
O781 C758 1.283 . S
O782 Mn756 2.094 . S
O782 C760 1.240 . S
O783 Mn757 2.117 . S
O783 C760 1.264 . S
C784 C777 1.403 . S
C784 C785 1.399 . S
C784 H790 0.929 . S
C785 C765 1.449 . S
C785 C784 1.399 . S
C785 H791 0.930 . S
H786 C766 0.931 . S
H787 C767 0.930 . S
H788 C775 0.931 . S
H789 C776 0.929 . S
H790 C784 0.929 . S
H791 C785 0.930 . S
Mn792 O797 2.095 . S
Mn792 O807 2.162 . S
Mn792 O808 2.297 . S
Mn792 O816 2.385 . S
Mn792 O817 2.209 . S
Mn792 O818 2.094 . S
Mn793 O798 2.121 . S
Mn793 N800 2.257 . S
Mn793 N809 2.282 . S
Mn793 O817 2.215 . S
Mn793 O819 2.117 . S
C794 O816 1.234 . S
C794 O817 1.283 . S
C795 O807 1.281 . S
C795 O808 1.236 . S
C796 O818 1.240 . S
C796 O819 1.264 . S
O797 Mn792 2.095 . S
O797 C806 1.250 . S
O798 Mn793 2.121 . S
O798 C806 1.258 . S
C799 N800 1.326 . S
C799 C803 1.460 . S
C799 H805 0.929 . S
N800 Mn793 2.257 . S
N800 C799 1.326 . S
N800 C804 1.362 . S
C801 C802 1.258 . S
C801 C804 1.431 . S
C801 C821 1.449 . S
C802 C801 1.258 . S
C802 C803 1.477 . S
C802 H822 0.931 . S
C803 C799 1.460 . S
C803 C802 1.477 . S
C803 H823 0.930 . S
C804 N800 1.362 . S
C804 C801 1.431 . S
C804 C814 1.476 . S
H805 C799 0.929 . S
C806 O797 1.250 . S
C806 O798 1.258 . S
O807 Mn792 2.162 . S
O807 C795 1.281 . S
O808 Mn792 2.297 . S
O808 C795 1.236 . S
N809 Mn793 2.282 . S
N809 C810 1.328 . S
N809 C814 1.318 . S
C810 N809 1.328 . S
C810 C811 1.457 . S
C810 H815 0.929 . S
C811 C810 1.457 . S
C811 C812 1.291 . S
C811 H824 0.931 . S
C812 C811 1.291 . S
C812 C813 1.373 . S
C812 H825 0.929 . S
C813 C812 1.373 . S
C813 C814 1.396 . S
C813 C820 1.403 . S
C814 C804 1.476 . S
C814 N809 1.318 . S
C814 C813 1.396 . S
H815 C810 0.929 . S
O816 Mn792 2.385 . S
O816 C794 1.234 . S
O817 Mn792 2.209 . S
O817 Mn793 2.215 . S
O817 C794 1.283 . S
O818 Mn792 2.094 . S
O818 C796 1.240 . S
O819 Mn793 2.117 . S
O819 C796 1.264 . S
C820 C813 1.403 . S
C820 C821 1.399 . S
C820 H826 0.929 . S
C821 C801 1.449 . S
C821 C820 1.399 . S
C821 H827 0.930 . S
H822 C802 0.931 . S
H823 C803 0.930 . S
H824 C811 0.931 . S
H825 C812 0.929 . S
H826 C820 0.929 . S
H827 C821 0.930 . S
Mn828 O833 2.095 . S
Mn828 O843 2.162 . S
Mn828 O844 2.297 . S
Mn828 O852 2.385 . S
Mn828 O853 2.209 . S
Mn828 O854 2.094 . S
Mn829 O834 2.121 . S
Mn829 N836 2.257 . S
Mn829 N845 2.282 . S
Mn829 O853 2.215 . S
Mn829 O855 2.117 . S
C830 O852 1.234 . S
C830 O853 1.283 . S
C831 O843 1.281 . S
C831 O844 1.236 . S
C832 O854 1.240 . S
C832 O855 1.264 . S
O833 Mn828 2.095 . S
O833 C842 1.250 . S
O834 Mn829 2.121 . S
O834 C842 1.258 . S
C835 N836 1.326 . S
C835 C839 1.460 . S
C835 H841 0.929 . S
N836 Mn829 2.257 . S
N836 C835 1.326 . S
N836 C840 1.362 . S
C837 C838 1.258 . S
C837 C840 1.431 . S
C837 C857 1.449 . S
C838 C837 1.258 . S
C838 C839 1.477 . S
C838 H858 0.931 . S
C839 C835 1.460 . S
C839 C838 1.477 . S
C839 H859 0.930 . S
C840 N836 1.362 . S
C840 C837 1.431 . S
C840 C850 1.476 . S
H841 C835 0.929 . S
C842 O833 1.250 . S
C842 O834 1.258 . S
O843 Mn828 2.162 . S
O843 C831 1.281 . S
O844 Mn828 2.297 . S
O844 C831 1.236 . S
N845 Mn829 2.282 . S
N845 C846 1.328 . S
N845 C850 1.318 . S
C846 N845 1.328 . S
C846 C847 1.457 . S
C846 H851 0.929 . S
C847 C846 1.457 . S
C847 C848 1.291 . S
C847 H860 0.931 . S
C848 C847 1.291 . S
C848 C849 1.373 . S
C848 H861 0.929 . S
C849 C848 1.373 . S
C849 C850 1.396 . S
C849 C856 1.403 . S
C850 C840 1.476 . S
C850 N845 1.318 . S
C850 C849 1.396 . S
H851 C846 0.929 . S
O852 Mn828 2.385 . S
O852 C830 1.234 . S
O853 Mn828 2.209 . S
O853 Mn829 2.215 . S
O853 C830 1.283 . S
O854 Mn828 2.094 . S
O854 C832 1.240 . S
O855 Mn829 2.117 . S
O855 C832 1.264 . S
C856 C849 1.403 . S
C856 C857 1.399 . S
C856 H862 0.929 . S
C857 C837 1.449 . S
C857 C856 1.399 . S
C857 H863 0.930 . S
H858 C838 0.931 . S
H859 C839 0.930 . S
H860 C847 0.931 . S
H861 C848 0.929 . S
H862 C856 0.929 . S
H863 C857 0.930 . S
Sc864 O867 2.025 . S
Sc864 O874 2.105 . S
Sc864 O877 2.105 . S
Sc864 O880 2.105 . S
Sc864 O883 2.105 . S
Sc865 O867 2.025 . S
Sc865 O875 2.105 . S
Sc865 O879 2.105 . S
Sc865 O881 2.105 . S
Sc865 O885 2.105 . S
Sc866 O867 2.025 . S
Sc866 O876 2.105 . S
Sc866 O878 2.105 . S
Sc866 O882 2.105 . S
Sc866 O884 2.105 . S
O867 Sc864 2.025 . S
O867 Sc865 2.025 . S
O867 Sc866 2.025 . S
C868 O874 1.268 . S
C868 O884 1.268 . S
C869 O875 1.268 . S
C869 O883 1.268 . S
C870 O876 1.268 . S
C870 O885 1.268 . S
C871 O877 1.268 . S
C871 O881 1.268 . S
C872 O878 1.268 . S
C872 O880 1.268 . S
C873 O879 1.268 . S
C873 O882 1.268 . S
O874 Sc864 2.105 . S
O874 C868 1.268 . S
O875 Sc865 2.105 . S
O875 C869 1.268 . S
O876 Sc866 2.105 . S
O876 C870 1.268 . S
O877 Sc864 2.105 . S
O877 C871 1.268 . S
O878 Sc866 2.105 . S
O878 C872 1.268 . S
O879 Sc865 2.105 . S
O879 C873 1.268 . S
O880 Sc864 2.105 . S
O880 C872 1.268 . S
O881 Sc865 2.105 . S
O881 C871 1.268 . S
O882 Sc866 2.105 . S
O882 C873 1.268 . S
O883 Sc864 2.105 . S
O883 C869 1.268 . S
O884 Sc866 2.105 . S
O884 C868 1.268 . S
O885 Sc865 2.105 . S
O885 C870 1.268 . S
Sc886 O889 2.025 . S
Sc886 O896 2.105 . S
Sc886 O899 2.105 . S
Sc886 O902 2.105 . S
Sc886 O905 2.105 . S
Sc887 O889 2.025 . S
Sc887 O897 2.105 . S
Sc887 O901 2.105 . S
Sc887 O903 2.105 . S
Sc887 O907 2.105 . S
Sc888 O889 2.025 . S
Sc888 O898 2.105 . S
Sc888 O900 2.105 . S
Sc888 O904 2.105 . S
Sc888 O906 2.105 . S
O889 Sc886 2.025 . S
O889 Sc887 2.025 . S
O889 Sc888 2.025 . S
C890 O896 1.268 . S
C890 O906 1.268 . S
C891 O897 1.268 . S
C891 O905 1.268 . S
C892 O898 1.268 . S
C892 O907 1.268 . S
C893 O899 1.268 . S
C893 O903 1.268 . S
C894 O900 1.268 . S
C894 O902 1.268 . S
C895 O901 1.268 . S
C895 O904 1.268 . S
O896 Sc886 2.105 . S
O896 C890 1.268 . S
O897 Sc887 2.105 . S
O897 C891 1.268 . S
O898 Sc888 2.105 . S
O898 C892 1.268 . S
O899 Sc886 2.105 . S
O899 C893 1.268 . S
O900 Sc888 2.105 . S
O900 C894 1.268 . S
O901 Sc887 2.105 . S
O901 C895 1.268 . S
O902 Sc886 2.105 . S
O902 C894 1.268 . S
O903 Sc887 2.105 . S
O903 C893 1.268 . S
O904 Sc888 2.105 . S
O904 C895 1.268 . S
O905 Sc886 2.105 . S
O905 C891 1.268 . S
O906 Sc888 2.105 . S
O906 C890 1.268 . S
O907 Sc887 2.105 . S
O907 C892 1.268 . S
Sc908 O911 2.025 . S
Sc908 O918 2.105 . S
Sc908 O921 2.105 . S
Sc908 O924 2.105 . S
Sc908 O927 2.105 . S
Sc909 O911 2.025 . S
Sc909 O919 2.105 . S
Sc909 O923 2.105 . S
Sc909 O925 2.105 . S
Sc909 O929 2.105 . S
Sc910 O911 2.025 . S
Sc910 O920 2.105 . S
Sc910 O922 2.105 . S
Sc910 O926 2.105 . S
Sc910 O928 2.105 . S
O911 Sc908 2.025 . S
O911 Sc909 2.025 . S
O911 Sc910 2.025 . S
C912 O918 1.268 . S
C912 O928 1.268 . S
C913 O919 1.268 . S
C913 O927 1.268 . S
C914 O920 1.268 . S
C914 O929 1.268 . S
C915 O921 1.268 . S
C915 O925 1.268 . S
C916 O922 1.268 . S
C916 O924 1.268 . S
C917 O923 1.268 . S
C917 O926 1.268 . S
O918 Sc908 2.105 . S
O918 C912 1.268 . S
O919 Sc909 2.105 . S
O919 C913 1.268 . S
O920 Sc910 2.105 . S
O920 C914 1.268 . S
O921 Sc908 2.105 . S
O921 C915 1.268 . S
O922 Sc910 2.105 . S
O922 C916 1.268 . S
O923 Sc909 2.105 . S
O923 C917 1.268 . S
O924 Sc908 2.105 . S
O924 C916 1.268 . S
O925 Sc909 2.105 . S
O925 C915 1.268 . S
O926 Sc910 2.105 . S
O926 C917 1.268 . S
O927 Sc908 2.105 . S
O927 C913 1.268 . S
O928 Sc910 2.105 . S
O928 C912 1.268 . S
O929 Sc909 2.105 . S
O929 C914 1.268 . S
Sc930 O933 2.025 . S
Sc930 O940 2.105 . S
Sc930 O943 2.105 . S
Sc930 O946 2.105 . S
Sc930 O949 2.105 . S
Sc931 O933 2.025 . S
Sc931 O941 2.105 . S
Sc931 O945 2.105 . S
Sc931 O947 2.105 . S
Sc931 O951 2.105 . S
Sc932 O933 2.025 . S
Sc932 O942 2.105 . S
Sc932 O944 2.105 . S
Sc932 O948 2.105 . S
Sc932 O950 2.105 . S
O933 Sc930 2.025 . S
O933 Sc931 2.025 . S
O933 Sc932 2.025 . S
C934 O940 1.268 . S
C934 O950 1.268 . S
C935 O941 1.268 . S
C935 O949 1.268 . S
C936 O942 1.268 . S
C936 O951 1.268 . S
C937 O943 1.268 . S
C937 O947 1.268 . S
C938 O944 1.268 . S
C938 O946 1.268 . S
C939 O945 1.268 . S
C939 O948 1.268 . S
O940 Sc930 2.105 . S
O940 C934 1.268 . S
O941 Sc931 2.105 . S
O941 C935 1.268 . S
O942 Sc932 2.105 . S
O942 C936 1.268 . S
O943 Sc930 2.105 . S
O943 C937 1.268 . S
O944 Sc932 2.105 . S
O944 C938 1.268 . S
O945 Sc931 2.105 . S
O945 C939 1.268 . S
O946 Sc930 2.105 . S
O946 C938 1.268 . S
O947 Sc931 2.105 . S
O947 C937 1.268 . S
O948 Sc932 2.105 . S
O948 C939 1.268 . S
O949 Sc930 2.105 . S
O949 C935 1.268 . S
O950 Sc932 2.105 . S
O950 C934 1.268 . S
O951 Sc931 2.105 . S
O951 C936 1.268 . S
Sc952 O955 2.025 . S
Sc952 O962 2.105 . S
Sc952 O965 2.105 . S
Sc952 O968 2.105 . S
Sc952 O971 2.105 . S
Sc953 O955 2.025 . S
Sc953 O963 2.105 . S
Sc953 O967 2.105 . S
Sc953 O969 2.105 . S
Sc953 O973 2.105 . S
Sc954 O955 2.025 . S
Sc954 O964 2.105 . S
Sc954 O966 2.105 . S
Sc954 O970 2.105 . S
Sc954 O972 2.105 . S
O955 Sc952 2.025 . S
O955 Sc953 2.025 . S
O955 Sc954 2.025 . S
C956 O962 1.268 . S
C956 O972 1.268 . S
C957 O963 1.268 . S
C957 O971 1.268 . S
C958 O964 1.268 . S
C958 O973 1.268 . S
C959 O965 1.268 . S
C959 O969 1.268 . S
C960 O966 1.268 . S
C960 O968 1.268 . S
C961 O967 1.268 . S
C961 O970 1.268 . S
O962 Sc952 2.105 . S
O962 C956 1.268 . S
O963 Sc953 2.105 . S
O963 C957 1.268 . S
O964 Sc954 2.105 . S
O964 C958 1.268 . S
O965 Sc952 2.105 . S
O965 C959 1.268 . S
O966 Sc954 2.105 . S
O966 C960 1.268 . S
O967 Sc953 2.105 . S
O967 C961 1.268 . S
O968 Sc952 2.105 . S
O968 C960 1.268 . S
O969 Sc953 2.105 . S
O969 C959 1.268 . S
O970 Sc954 2.105 . S
O970 C961 1.268 . S
O971 Sc952 2.105 . S
O971 C957 1.268 . S
O972 Sc954 2.105 . S
O972 C956 1.268 . S
O973 Sc953 2.105 . S
O973 C958 1.268 . S
Sc974 O977 2.025 . S
Sc974 O984 2.105 . S
Sc974 O987 2.105 . S
Sc974 O990 2.105 . S
Sc974 O993 2.105 . S
Sc975 O977 2.025 . S
Sc975 O985 2.105 . S
Sc975 O989 2.105 . S
Sc975 O991 2.105 . S
Sc975 O995 2.105 . S
Sc976 O977 2.025 . S
Sc976 O986 2.105 . S
Sc976 O988 2.105 . S
Sc976 O992 2.105 . S
Sc976 O994 2.105 . S
O977 Sc974 2.025 . S
O977 Sc975 2.025 . S
O977 Sc976 2.025 . S
C978 O984 1.268 . S
C978 O994 1.268 . S
C979 O985 1.268 . S
C979 O993 1.268 . S
C980 O986 1.268 . S
C980 O995 1.268 . S
C981 O987 1.268 . S
C981 O991 1.268 . S
C982 O988 1.268 . S
C982 O990 1.268 . S
C983 O989 1.268 . S
C983 O992 1.268 . S
O984 Sc974 2.105 . S
O984 C978 1.268 . S
O985 Sc975 2.105 . S
O985 C979 1.268 . S
O986 Sc976 2.105 . S
O986 C980 1.268 . S
O987 Sc974 2.105 . S
O987 C981 1.268 . S
O988 Sc976 2.105 . S
O988 C982 1.268 . S
O989 Sc975 2.105 . S
O989 C983 1.268 . S
O990 Sc974 2.105 . S
O990 C982 1.268 . S
O991 Sc975 2.105 . S
O991 C981 1.268 . S
O992 Sc976 2.105 . S
O992 C983 1.268 . S
O993 Sc974 2.105 . S
O993 C979 1.268 . S
O994 Sc976 2.105 . S
O994 C978 1.268 . S
O995 Sc975 2.105 . S
O995 C980 1.268 . S
Sc996 O999 2.025 . S
Sc996 O1006 2.105 . S
Sc996 O1009 2.105 . S
Sc996 O1012 2.105 . S
Sc996 O1015 2.105 . S
Sc997 O999 2.025 . S
Sc997 O1007 2.105 . S
Sc997 O1011 2.105 . S
Sc997 O1013 2.105 . S
Sc997 O1017 2.105 . S
Sc998 O999 2.025 . S
Sc998 O1008 2.105 . S
Sc998 O1010 2.105 . S
Sc998 O1014 2.105 . S
Sc998 O1016 2.105 . S
O999 Sc996 2.025 . S
O999 Sc997 2.025 . S
O999 Sc998 2.025 . S
C1000 O1006 1.268 . S
C1000 O1016 1.268 . S
C1001 O1007 1.268 . S
C1001 O1015 1.268 . S
C1002 O1008 1.268 . S
C1002 O1017 1.268 . S
C1003 O1009 1.268 . S
C1003 O1013 1.268 . S
C1004 O1010 1.268 . S
C1004 O1012 1.268 . S
C1005 O1011 1.268 . S
C1005 O1014 1.268 . S
O1006 Sc996 2.105 . S
O1006 C1000 1.268 . S
O1007 Sc997 2.105 . S
O1007 C1001 1.268 . S
O1008 Sc998 2.105 . S
O1008 C1002 1.268 . S
O1009 Sc996 2.105 . S
O1009 C1003 1.268 . S
O1010 Sc998 2.105 . S
O1010 C1004 1.268 . S
O1011 Sc997 2.105 . S
O1011 C1005 1.268 . S
O1012 Sc996 2.105 . S
O1012 C1004 1.268 . S
O1013 Sc997 2.105 . S
O1013 C1003 1.268 . S
O1014 Sc998 2.105 . S
O1014 C1005 1.268 . S
O1015 Sc996 2.105 . S
O1015 C1001 1.268 . S
O1016 Sc998 2.105 . S
O1016 C1000 1.268 . S
O1017 Sc997 2.105 . S
O1017 C1002 1.268 . S
Sc1018 O1021 2.025 . S
Sc1018 O1028 2.105 . S
Sc1018 O1031 2.105 . S
Sc1018 O1034 2.105 . S
Sc1018 O1037 2.105 . S
Sc1019 O1021 2.025 . S
Sc1019 O1029 2.105 . S
Sc1019 O1033 2.105 . S
Sc1019 O1035 2.105 . S
Sc1019 O1039 2.105 . S
Sc1020 O1021 2.025 . S
Sc1020 O1030 2.105 . S
Sc1020 O1032 2.105 . S
Sc1020 O1036 2.105 . S
Sc1020 O1038 2.105 . S
O1021 Sc1018 2.025 . S
O1021 Sc1019 2.025 . S
O1021 Sc1020 2.025 . S
C1022 O1028 1.268 . S
C1022 O1038 1.268 . S
C1023 O1029 1.268 . S
C1023 O1037 1.268 . S
C1024 O1030 1.268 . S
C1024 O1039 1.268 . S
C1025 O1031 1.268 . S
C1025 O1035 1.268 . S
C1026 O1032 1.268 . S
C1026 O1034 1.268 . S
C1027 O1033 1.268 . S
C1027 O1036 1.268 . S
O1028 Sc1018 2.105 . S
O1028 C1022 1.268 . S
O1029 Sc1019 2.105 . S
O1029 C1023 1.268 . S
O1030 Sc1020 2.105 . S
O1030 C1024 1.268 . S
O1031 Sc1018 2.105 . S
O1031 C1025 1.268 . S
O1032 Sc1020 2.105 . S
O1032 C1026 1.268 . S
O1033 Sc1019 2.105 . S
O1033 C1027 1.268 . S
O1034 Sc1018 2.105 . S
O1034 C1026 1.268 . S
O1035 Sc1019 2.105 . S
O1035 C1025 1.268 . S
O1036 Sc1020 2.105 . S
O1036 C1027 1.268 . S
O1037 Sc1018 2.105 . S
O1037 C1023 1.268 . S
O1038 Sc1020 2.105 . S
O1038 C1022 1.268 . S
O1039 Sc1019 2.105 . S
O1039 C1024 1.268 . S
Sc1040 O1043 2.025 . S
Sc1040 O1050 2.105 . S
Sc1040 O1053 2.105 . S
Sc1040 O1056 2.105 . S
Sc1040 O1059 2.105 . S
Sc1041 O1043 2.025 . S
Sc1041 O1051 2.105 . S
Sc1041 O1055 2.105 . S
Sc1041 O1057 2.105 . S
Sc1041 O1061 2.105 . S
Sc1042 O1043 2.025 . S
Sc1042 O1052 2.105 . S
Sc1042 O1054 2.105 . S
Sc1042 O1058 2.105 . S
Sc1042 O1060 2.105 . S
O1043 Sc1040 2.025 . S
O1043 Sc1041 2.025 . S
O1043 Sc1042 2.025 . S
C1044 O1050 1.268 . S
C1044 O1060 1.268 . S
C1045 O1051 1.268 . S
C1045 O1059 1.268 . S
C1046 O1052 1.268 . S
C1046 O1061 1.268 . S
C1047 O1053 1.268 . S
C1047 O1057 1.268 . S
C1048 O1054 1.268 . S
C1048 O1056 1.268 . S
C1049 O1055 1.268 . S
C1049 O1058 1.268 . S
O1050 Sc1040 2.105 . S
O1050 C1044 1.268 . S
O1051 Sc1041 2.105 . S
O1051 C1045 1.268 . S
O1052 Sc1042 2.105 . S
O1052 C1046 1.268 . S
O1053 Sc1040 2.105 . S
O1053 C1047 1.268 . S
O1054 Sc1042 2.105 . S
O1054 C1048 1.268 . S
O1055 Sc1041 2.105 . S
O1055 C1049 1.268 . S
O1056 Sc1040 2.105 . S
O1056 C1048 1.268 . S
O1057 Sc1041 2.105 . S
O1057 C1047 1.268 . S
O1058 Sc1042 2.105 . S
O1058 C1049 1.268 . S
O1059 Sc1040 2.105 . S
O1059 C1045 1.268 . S
O1060 Sc1042 2.105 . S
O1060 C1044 1.268 . S
O1061 Sc1041 2.105 . S
O1061 C1046 1.268 . S
Sc1062 O1065 2.025 . S
Sc1062 O1072 2.105 . S
Sc1062 O1075 2.105 . S
Sc1062 O1078 2.105 . S
Sc1062 O1081 2.105 . S
Sc1063 O1065 2.025 . S
Sc1063 O1073 2.105 . S
Sc1063 O1077 2.105 . S
Sc1063 O1079 2.105 . S
Sc1063 O1083 2.105 . S
Sc1064 O1065 2.025 . S
Sc1064 O1074 2.105 . S
Sc1064 O1076 2.105 . S
Sc1064 O1080 2.105 . S
Sc1064 O1082 2.105 . S
O1065 Sc1062 2.025 . S
O1065 Sc1063 2.025 . S
O1065 Sc1064 2.025 . S
C1066 O1072 1.268 . S
C1066 O1082 1.268 . S
C1067 O1073 1.268 . S
C1067 O1081 1.268 . S
C1068 O1074 1.268 . S
C1068 O1083 1.268 . S
C1069 O1075 1.268 . S
C1069 O1079 1.268 . S
C1070 O1076 1.268 . S
C1070 O1078 1.268 . S
C1071 O1077 1.268 . S
C1071 O1080 1.268 . S
O1072 Sc1062 2.105 . S
O1072 C1066 1.268 . S
O1073 Sc1063 2.105 . S
O1073 C1067 1.268 . S
O1074 Sc1064 2.105 . S
O1074 C1068 1.268 . S
O1075 Sc1062 2.105 . S
O1075 C1069 1.268 . S
O1076 Sc1064 2.105 . S
O1076 C1070 1.268 . S
O1077 Sc1063 2.105 . S
O1077 C1071 1.268 . S
O1078 Sc1062 2.105 . S
O1078 C1070 1.268 . S
O1079 Sc1063 2.105 . S
O1079 C1069 1.268 . S
O1080 Sc1064 2.105 . S
O1080 C1071 1.268 . S
O1081 Sc1062 2.105 . S
O1081 C1067 1.268 . S
O1082 Sc1064 2.105 . S
O1082 C1066 1.268 . S
O1083 Sc1063 2.105 . S
O1083 C1068 1.268 . S
Sc1084 O1087 2.025 . S
Sc1084 O1094 2.105 . S
Sc1084 O1097 2.105 . S
Sc1084 O1100 2.105 . S
Sc1084 O1103 2.105 . S
Sc1085 O1087 2.025 . S
Sc1085 O1095 2.105 . S
Sc1085 O1099 2.105 . S
Sc1085 O1101 2.105 . S
Sc1085 O1105 2.105 . S
Sc1086 O1087 2.025 . S
Sc1086 O1096 2.105 . S
Sc1086 O1098 2.105 . S
Sc1086 O1102 2.105 . S
Sc1086 O1104 2.105 . S
O1087 Sc1084 2.025 . S
O1087 Sc1085 2.025 . S
O1087 Sc1086 2.025 . S
C1088 O1094 1.268 . S
C1088 O1104 1.268 . S
C1089 O1095 1.268 . S
C1089 O1103 1.268 . S
C1090 O1096 1.268 . S
C1090 O1105 1.268 . S
C1091 O1097 1.268 . S
C1091 O1101 1.268 . S
C1092 O1098 1.268 . S
C1092 O1100 1.268 . S
C1093 O1099 1.268 . S
C1093 O1102 1.268 . S
O1094 Sc1084 2.105 . S
O1094 C1088 1.268 . S
O1095 Sc1085 2.105 . S
O1095 C1089 1.268 . S
O1096 Sc1086 2.105 . S
O1096 C1090 1.268 . S
O1097 Sc1084 2.105 . S
O1097 C1091 1.268 . S
O1098 Sc1086 2.105 . S
O1098 C1092 1.268 . S
O1099 Sc1085 2.105 . S
O1099 C1093 1.268 . S
O1100 Sc1084 2.105 . S
O1100 C1092 1.268 . S
O1101 Sc1085 2.105 . S
O1101 C1091 1.268 . S
O1102 Sc1086 2.105 . S
O1102 C1093 1.268 . S
O1103 Sc1084 2.105 . S
O1103 C1089 1.268 . S
O1104 Sc1086 2.105 . S
O1104 C1088 1.268 . S
O1105 Sc1085 2.105 . S
O1105 C1090 1.268 . S
Sc1106 O1109 2.025 . S
Sc1106 O1116 2.105 . S
Sc1106 O1119 2.105 . S
Sc1106 O1122 2.105 . S
Sc1106 O1125 2.105 . S
Sc1107 O1109 2.025 . S
Sc1107 O1117 2.105 . S
Sc1107 O1121 2.105 . S
Sc1107 O1123 2.105 . S
Sc1107 O1127 2.105 . S
Sc1108 O1109 2.025 . S
Sc1108 O1118 2.105 . S
Sc1108 O1120 2.105 . S
Sc1108 O1124 2.105 . S
Sc1108 O1126 2.105 . S
O1109 Sc1106 2.025 . S
O1109 Sc1107 2.025 . S
O1109 Sc1108 2.025 . S
C1110 O1116 1.268 . S
C1110 O1126 1.268 . S
C1111 O1117 1.268 . S
C1111 O1125 1.268 . S
C1112 O1118 1.268 . S
C1112 O1127 1.268 . S
C1113 O1119 1.268 . S
C1113 O1123 1.268 . S
C1114 O1120 1.268 . S
C1114 O1122 1.268 . S
C1115 O1121 1.268 . S
C1115 O1124 1.268 . S
O1116 Sc1106 2.105 . S
O1116 C1110 1.268 . S
O1117 Sc1107 2.105 . S
O1117 C1111 1.268 . S
O1118 Sc1108 2.105 . S
O1118 C1112 1.268 . S
O1119 Sc1106 2.105 . S
O1119 C1113 1.268 . S
O1120 Sc1108 2.105 . S
O1120 C1114 1.268 . S
O1121 Sc1107 2.105 . S
O1121 C1115 1.268 . S
O1122 Sc1106 2.105 . S
O1122 C1114 1.268 . S
O1123 Sc1107 2.105 . S
O1123 C1113 1.268 . S
O1124 Sc1108 2.105 . S
O1124 C1115 1.268 . S
O1125 Sc1106 2.105 . S
O1125 C1111 1.268 . S
O1126 Sc1108 2.105 . S
O1126 C1110 1.268 . S
O1127 Sc1107 2.105 . S
O1127 C1112 1.268 . S
Sc1128 O1131 2.025 . S
Sc1128 O1138 2.105 . S
Sc1128 O1141 2.105 . S
Sc1128 O1144 2.105 . S
Sc1128 O1147 2.105 . S
Sc1129 O1131 2.025 . S
Sc1129 O1139 2.105 . S
Sc1129 O1143 2.105 . S
Sc1129 O1145 2.105 . S
Sc1129 O1149 2.105 . S
Sc1130 O1131 2.025 . S
Sc1130 O1140 2.105 . S
Sc1130 O1142 2.105 . S
Sc1130 O1146 2.105 . S
Sc1130 O1148 2.105 . S
O1131 Sc1128 2.025 . S
O1131 Sc1129 2.025 . S
O1131 Sc1130 2.025 . S
C1132 O1138 1.268 . S
C1132 O1148 1.268 . S
C1133 O1139 1.268 . S
C1133 O1147 1.268 . S
C1134 O1140 1.268 . S
C1134 O1149 1.268 . S
C1135 O1141 1.268 . S
C1135 O1145 1.268 . S
C1136 O1142 1.268 . S
C1136 O1144 1.268 . S
C1137 O1143 1.268 . S
C1137 O1146 1.268 . S
O1138 Sc1128 2.105 . S
O1138 C1132 1.268 . S
O1139 Sc1129 2.105 . S
O1139 C1133 1.268 . S
O1140 Sc1130 2.105 . S
O1140 C1134 1.268 . S
O1141 Sc1128 2.105 . S
O1141 C1135 1.268 . S
O1142 Sc1130 2.105 . S
O1142 C1136 1.268 . S
O1143 Sc1129 2.105 . S
O1143 C1137 1.268 . S
O1144 Sc1128 2.105 . S
O1144 C1136 1.268 . S
O1145 Sc1129 2.105 . S
O1145 C1135 1.268 . S
O1146 Sc1130 2.105 . S
O1146 C1137 1.268 . S
O1147 Sc1128 2.105 . S
O1147 C1133 1.268 . S
O1148 Sc1130 2.105 . S
O1148 C1132 1.268 . S
O1149 Sc1129 2.105 . S
O1149 C1134 1.268 . S
Sc1150 O1153 2.025 . S
Sc1150 O1160 2.105 . S
Sc1150 O1163 2.105 . S
Sc1150 O1166 2.105 . S
Sc1150 O1169 2.105 . S
Sc1151 O1153 2.025 . S
Sc1151 O1161 2.105 . S
Sc1151 O1165 2.105 . S
Sc1151 O1167 2.105 . S
Sc1151 O1171 2.105 . S
Sc1152 O1153 2.025 . S
Sc1152 O1162 2.105 . S
Sc1152 O1164 2.105 . S
Sc1152 O1168 2.105 . S
Sc1152 O1170 2.105 . S
O1153 Sc1150 2.025 . S
O1153 Sc1151 2.025 . S
O1153 Sc1152 2.025 . S
C1154 O1160 1.268 . S
C1154 O1170 1.268 . S
C1155 O1161 1.268 . S
C1155 O1169 1.268 . S
C1156 O1162 1.268 . S
C1156 O1171 1.268 . S
C1157 O1163 1.268 . S
C1157 O1167 1.268 . S
C1158 O1164 1.268 . S
C1158 O1166 1.268 . S
C1159 O1165 1.268 . S
C1159 O1168 1.268 . S
O1160 Sc1150 2.105 . S
O1160 C1154 1.268 . S
O1161 Sc1151 2.105 . S
O1161 C1155 1.268 . S
O1162 Sc1152 2.105 . S
O1162 C1156 1.268 . S
O1163 Sc1150 2.105 . S
O1163 C1157 1.268 . S
O1164 Sc1152 2.105 . S
O1164 C1158 1.268 . S
O1165 Sc1151 2.105 . S
O1165 C1159 1.268 . S
O1166 Sc1150 2.105 . S
O1166 C1158 1.268 . S
O1167 Sc1151 2.105 . S
O1167 C1157 1.268 . S
O1168 Sc1152 2.105 . S
O1168 C1159 1.268 . S
O1169 Sc1150 2.105 . S
O1169 C1155 1.268 . S
O1170 Sc1152 2.105 . S
O1170 C1154 1.268 . S
O1171 Sc1151 2.105 . S
O1171 C1156 1.268 . S
Sc1172 O1175 2.025 . S
Sc1172 O1182 2.105 . S
Sc1172 O1185 2.105 . S
Sc1172 O1188 2.105 . S
Sc1172 O1191 2.105 . S
Sc1173 O1175 2.025 . S
Sc1173 O1183 2.105 . S
Sc1173 O1187 2.105 . S
Sc1173 O1189 2.105 . S
Sc1173 O1193 2.105 . S
Sc1174 O1175 2.025 . S
Sc1174 O1184 2.105 . S
Sc1174 O1186 2.105 . S
Sc1174 O1190 2.105 . S
Sc1174 O1192 2.105 . S
O1175 Sc1172 2.025 . S
O1175 Sc1173 2.025 . S
O1175 Sc1174 2.025 . S
C1176 O1182 1.268 . S
C1176 O1192 1.268 . S
C1177 O1183 1.268 . S
C1177 O1191 1.268 . S
C1178 O1184 1.268 . S
C1178 O1193 1.268 . S
C1179 O1185 1.268 . S
C1179 O1189 1.268 . S
C1180 O1186 1.268 . S
C1180 O1188 1.268 . S
C1181 O1187 1.268 . S
C1181 O1190 1.268 . S
O1182 Sc1172 2.105 . S
O1182 C1176 1.268 . S
O1183 Sc1173 2.105 . S
O1183 C1177 1.268 . S
O1184 Sc1174 2.105 . S
O1184 C1178 1.268 . S
O1185 Sc1172 2.105 . S
O1185 C1179 1.268 . S
O1186 Sc1174 2.105 . S
O1186 C1180 1.268 . S
O1187 Sc1173 2.105 . S
O1187 C1181 1.268 . S
O1188 Sc1172 2.105 . S
O1188 C1180 1.268 . S
O1189 Sc1173 2.105 . S
O1189 C1179 1.268 . S
O1190 Sc1174 2.105 . S
O1190 C1181 1.268 . S
O1191 Sc1172 2.105 . S
O1191 C1177 1.268 . S
O1192 Sc1174 2.105 . S
O1192 C1176 1.268 . S
O1193 Sc1173 2.105 . S
O1193 C1178 1.268 . S
Sc1194 O1197 2.025 . S
Sc1194 O1204 2.105 . S
Sc1194 O1207 2.105 . S
Sc1194 O1210 2.105 . S
Sc1194 O1213 2.105 . S
Sc1195 O1197 2.025 . S
Sc1195 O1205 2.105 . S
Sc1195 O1209 2.105 . S
Sc1195 O1211 2.105 . S
Sc1195 O1215 2.105 . S
Sc1196 O1197 2.025 . S
Sc1196 O1206 2.105 . S
Sc1196 O1208 2.105 . S
Sc1196 O1212 2.105 . S
Sc1196 O1214 2.105 . S
O1197 Sc1194 2.025 . S
O1197 Sc1195 2.025 . S
O1197 Sc1196 2.025 . S
C1198 O1204 1.268 . S
C1198 O1214 1.268 . S
C1199 O1205 1.268 . S
C1199 O1213 1.268 . S
C1200 O1206 1.268 . S
C1200 O1215 1.268 . S
C1201 O1207 1.268 . S
C1201 O1211 1.268 . S
C1202 O1208 1.268 . S
C1202 O1210 1.268 . S
C1203 O1209 1.268 . S
C1203 O1212 1.268 . S
O1204 Sc1194 2.105 . S
O1204 C1198 1.268 . S
O1205 Sc1195 2.105 . S
O1205 C1199 1.268 . S
O1206 Sc1196 2.105 . S
O1206 C1200 1.268 . S
O1207 Sc1194 2.105 . S
O1207 C1201 1.268 . S
O1208 Sc1196 2.105 . S
O1208 C1202 1.268 . S
O1209 Sc1195 2.105 . S
O1209 C1203 1.268 . S
O1210 Sc1194 2.105 . S
O1210 C1202 1.268 . S
O1211 Sc1195 2.105 . S
O1211 C1201 1.268 . S
O1212 Sc1196 2.105 . S
O1212 C1203 1.268 . S
O1213 Sc1194 2.105 . S
O1213 C1199 1.268 . S
O1214 Sc1196 2.105 . S
O1214 C1198 1.268 . S
O1215 Sc1195 2.105 . S
O1215 C1200 1.268 . S
H1216 C1222 0.930 . S
H1217 C1226 0.930 . S
H1218 C1231 0.929 . S
H1219 C1229 0.929 . S
H1220 C1224 0.929 . S
H1221 C1230 0.929 . S
C1222 H1216 0.930 . S
C1222 C1223 1.367 . S
C1222 C1230 1.378 . S
C1223 C1222 1.367 . S
C1223 C1231 1.433 . S
C1224 H1220 0.929 . S
C1224 C1226 1.378 . S
C1224 C1228 1.350 . S
C1225 C1228 1.463 . S
C1225 C1230 1.350 . S
C1225 N1233 1.427 . S
C1226 H1217 0.930 . S
C1226 C1224 1.378 . S
C1226 C1227 1.367 . S
C1227 C1226 1.367 . S
C1227 C1229 1.433 . S
C1228 C1224 1.350 . S
C1228 C1225 1.463 . S
C1228 N1232 1.427 . S
C1229 H1219 0.929 . S
C1229 C1227 1.433 . S
C1229 N1232 1.384 . S
C1230 H1221 0.929 . S
C1230 C1222 1.378 . S
C1230 C1225 1.350 . S
C1231 H1218 0.929 . S
C1231 C1223 1.433 . S
C1231 N1233 1.384 . S
N1232 C1228 1.427 . S
N1232 C1229 1.384 . S
N1233 C1225 1.427 . S
N1233 C1231 1.384 . S
H1234 C1240 0.930 . S
H1235 C1244 0.930 . S
H1236 C1249 0.929 . S
H1237 C1247 0.929 . S
H1238 C1242 0.929 . S
H1239 C1248 0.929 . S
C1240 H1234 0.930 . S
C1240 C1241 1.367 . S
C1240 C1248 1.378 . S
C1241 C1240 1.367 . S
C1241 C1249 1.433 . S
C1242 H1238 0.929 . S
C1242 C1244 1.378 . S
C1242 C1246 1.350 . S
C1243 C1246 1.463 . S
C1243 C1248 1.350 . S
C1243 N1251 1.427 . S
C1244 H1235 0.930 . S
C1244 C1242 1.378 . S
C1244 C1245 1.367 . S
C1245 C1244 1.367 . S
C1245 C1247 1.433 . S
C1246 C1242 1.350 . S
C1246 C1243 1.463 . S
C1246 N1250 1.427 . S
C1247 H1237 0.929 . S
C1247 C1245 1.433 . S
C1247 N1250 1.384 . S
C1248 H1239 0.929 . S
C1248 C1240 1.378 . S
C1248 C1243 1.350 . S
C1249 H1236 0.929 . S
C1249 C1241 1.433 . S
C1249 N1251 1.384 . S
N1250 C1246 1.427 . S
N1250 C1247 1.384 . S
N1251 C1243 1.427 . S
N1251 C1249 1.384 . S
H1252 C1258 0.930 . S
H1253 C1262 0.930 . S
H1254 C1267 0.929 . S
H1255 C1265 0.929 . S
H1256 C1260 0.929 . S
H1257 C1266 0.929 . S
C1258 H1252 0.930 . S
C1258 C1259 1.367 . S
C1258 C1266 1.378 . S
C1259 C1258 1.367 . S
C1259 C1267 1.433 . S
C1260 H1256 0.929 . S
C1260 C1262 1.378 . S
C1260 C1264 1.350 . S
C1261 C1264 1.463 . S
C1261 C1266 1.350 . S
C1261 N1269 1.427 . S
C1262 H1253 0.930 . S
C1262 C1260 1.378 . S
C1262 C1263 1.367 . S
C1263 C1262 1.367 . S
C1263 C1265 1.433 . S
C1264 C1260 1.350 . S
C1264 C1261 1.463 . S
C1264 N1268 1.427 . S
C1265 H1255 0.929 . S
C1265 C1263 1.433 . S
C1265 N1268 1.384 . S
C1266 H1257 0.929 . S
C1266 C1258 1.378 . S
C1266 C1261 1.350 . S
C1267 H1254 0.929 . S
C1267 C1259 1.433 . S
C1267 N1269 1.384 . S
N1268 C1264 1.427 . S
N1268 C1265 1.384 . S
N1269 C1261 1.427 . S
N1269 C1267 1.384 . S
H1270 C1276 0.930 . S
H1271 C1280 0.930 . S
H1272 C1285 0.929 . S
H1273 C1283 0.929 . S
H1274 C1278 0.929 . S
H1275 C1284 0.929 . S
C1276 H1270 0.930 . S
C1276 C1277 1.367 . S
C1276 C1284 1.378 . S
C1277 C1276 1.367 . S
C1277 C1285 1.433 . S
C1278 H1274 0.929 . S
C1278 C1280 1.378 . S
C1278 C1282 1.350 1_556 S
C1279 C1282 1.463 . S
C1279 C1284 1.350 . S
C1279 N1287 1.427 . S
C1280 H1271 0.930 . S
C1280 C1278 1.378 . S
C1280 C1281 1.367 . S
C1281 C1280 1.367 . S
C1281 C1283 1.433 . S
C1282 C1278 1.350 1_554 S
C1282 C1279 1.463 . S
C1282 N1286 1.427 . S
C1283 H1273 0.929 . S
C1283 C1281 1.433 . S
C1283 N1286 1.384 1_556 S
C1284 H1275 0.929 . S
C1284 C1276 1.378 . S
C1284 C1279 1.350 . S
C1285 H1272 0.929 . S
C1285 C1277 1.433 . S
C1285 N1287 1.384 . S
N1286 C1282 1.427 . S
N1286 C1283 1.384 1_554 S
N1287 C1279 1.427 . S
N1287 C1285 1.384 . S
H1288 C1294 0.930 . S
H1289 C1298 0.930 . S
H1290 C1303 0.929 . S
H1291 C1301 0.929 . S
H1292 C1296 0.929 . S
H1293 C1302 0.929 . S
C1294 H1288 0.930 . S
C1294 C1295 1.367 . S
C1294 C1302 1.378 . S
C1295 C1294 1.367 . S
C1295 C1303 1.433 . S
C1296 H1292 0.929 . S
C1296 C1298 1.378 . S
C1296 C1300 1.350 . S
C1297 C1300 1.463 . S
C1297 C1302 1.350 . S
C1297 N1305 1.427 . S
C1298 H1289 0.930 . S
C1298 C1296 1.378 . S
C1298 C1299 1.367 . S
C1299 C1298 1.367 . S
C1299 C1301 1.433 . S
C1300 C1296 1.350 . S
C1300 C1297 1.463 . S
C1300 N1304 1.427 . S
C1301 H1291 0.929 . S
C1301 C1299 1.433 . S
C1301 N1304 1.384 . S
C1302 H1293 0.929 . S
C1302 C1294 1.378 . S
C1302 C1297 1.350 . S
C1303 H1290 0.929 . S
C1303 C1295 1.433 . S
C1303 N1305 1.384 . S
N1304 C1300 1.427 . S
N1304 C1301 1.384 . S
N1305 C1297 1.427 . S
N1305 C1303 1.384 . S
H1306 C1312 0.930 . S
H1307 C1316 0.930 . S
H1308 C1321 0.929 . S
H1309 C1319 0.929 . S
H1310 C1314 0.929 . S
H1311 C1320 0.929 . S
C1312 H1306 0.930 . S
C1312 C1313 1.367 . S
C1312 C1320 1.378 . S
C1313 C1312 1.367 . S
C1313 C1321 1.433 . S
C1314 H1310 0.929 . S
C1314 C1316 1.378 . S
C1314 C1318 1.350 . S
C1315 C1318 1.463 . S
C1315 C1320 1.350 . S
C1315 N1323 1.427 . S
C1316 H1307 0.930 . S
C1316 C1314 1.378 . S
C1316 C1317 1.367 . S
C1317 C1316 1.367 . S
C1317 C1319 1.433 . S
C1318 C1314 1.350 . S
C1318 C1315 1.463 . S
C1318 N1322 1.427 . S
C1319 H1309 0.929 . S
C1319 C1317 1.433 . S
C1319 N1322 1.384 . S
C1320 H1311 0.929 . S
C1320 C1312 1.378 . S
C1320 C1315 1.350 . S
C1321 H1308 0.929 . S
C1321 C1313 1.433 . S
C1321 N1323 1.384 . S
N1322 C1318 1.427 . S
N1322 C1319 1.384 . S
N1323 C1315 1.427 . S
N1323 C1321 1.384 . S
H1324 C1330 0.930 . S
H1325 C1334 0.930 . S
H1326 C1339 0.929 . S
H1327 C1337 0.929 . S
H1328 C1332 0.929 . S
H1329 C1338 0.929 . S
C1330 H1324 0.930 . S
C1330 C1331 1.367 . S
C1330 C1338 1.378 . S
C1331 C1330 1.367 . S
C1331 C1339 1.433 . S
C1332 H1328 0.929 . S
C1332 C1334 1.378 . S
C1332 C1336 1.350 . S
C1333 C1336 1.463 . S
C1333 C1338 1.350 . S
C1333 N1341 1.427 . S
C1334 H1325 0.930 . S
C1334 C1332 1.378 . S
C1334 C1335 1.367 . S
C1335 C1334 1.367 . S
C1335 C1337 1.433 . S
C1336 C1332 1.350 . S
C1336 C1333 1.463 . S
C1336 N1340 1.427 . S
C1337 H1327 0.929 . S
C1337 C1335 1.433 . S
C1337 N1340 1.384 . S
C1338 H1329 0.929 . S
C1338 C1330 1.378 . S
C1338 C1333 1.350 . S
C1339 H1326 0.929 . S
C1339 C1331 1.433 . S
C1339 N1341 1.384 . S
N1340 C1336 1.427 . S
N1340 C1337 1.384 . S
N1341 C1333 1.427 . S
N1341 C1339 1.384 . S
H1342 C1348 0.930 . S
H1343 C1352 0.930 . S
H1344 C1357 0.929 . S
H1345 C1355 0.929 . S
H1346 C1350 0.929 . S
H1347 C1356 0.929 . S
C1348 H1342 0.930 . S
C1348 C1349 1.367 . S
C1348 C1356 1.378 . S
C1349 C1348 1.367 . S
C1349 C1357 1.433 . S
C1350 H1346 0.929 . S
C1350 C1352 1.378 . S
C1350 C1354 1.350 . S
C1351 C1354 1.463 1_556 S
C1351 C1356 1.350 . S
C1351 N1359 1.427 . S
C1352 H1343 0.930 . S
C1352 C1350 1.378 . S
C1352 C1353 1.367 . S
C1353 C1352 1.367 . S
C1353 C1355 1.433 . S
C1354 C1350 1.350 . S
C1354 C1351 1.463 1_554 S
C1354 N1358 1.427 . S
C1355 H1345 0.929 . S
C1355 C1353 1.433 . S
C1355 N1358 1.384 . S
C1356 H1347 0.929 . S
C1356 C1348 1.378 . S
C1356 C1351 1.350 . S
C1357 H1344 0.929 . S
C1357 C1349 1.433 . S
C1357 N1359 1.384 . S
N1358 C1354 1.427 . S
N1358 C1355 1.384 . S
N1359 C1351 1.427 . S
N1359 C1357 1.384 . S
H1360 C1366 0.930 . S
H1361 C1370 0.930 . S
H1362 C1375 0.929 . S
H1363 C1373 0.929 . S
H1364 C1368 0.929 . S
H1365 C1374 0.929 . S
C1366 H1360 0.930 . S
C1366 C1367 1.367 . S
C1366 C1374 1.378 . S
C1367 C1366 1.367 . S
C1367 C1375 1.433 . S
C1368 H1364 0.929 . S
C1368 C1370 1.378 . S
C1368 C1372 1.350 . S
C1369 C1372 1.463 . S
C1369 C1374 1.350 . S
C1369 N1377 1.427 . S
C1370 H1361 0.930 . S
C1370 C1368 1.378 . S
C1370 C1371 1.367 . S
C1371 C1370 1.367 . S
C1371 C1373 1.433 . S
C1372 C1368 1.350 . S
C1372 C1369 1.463 . S
C1372 N1376 1.427 . S
C1373 H1363 0.929 . S
C1373 C1371 1.433 . S
C1373 N1376 1.384 . S
C1374 H1365 0.929 . S
C1374 C1366 1.378 . S
C1374 C1369 1.350 . S
C1375 H1362 0.929 . S
C1375 C1367 1.433 . S
C1375 N1377 1.384 . S
N1376 C1372 1.427 . S
N1376 C1373 1.384 . S
N1377 C1369 1.427 . S
N1377 C1375 1.384 . S
H1378 C1384 0.930 . S
H1379 C1388 0.930 . S
H1380 C1393 0.929 . S
H1381 C1391 0.929 . S
H1382 C1386 0.929 . S
H1383 C1392 0.929 . S
C1384 H1378 0.930 . S
C1384 C1385 1.367 . S
C1384 C1392 1.378 . S
C1385 C1384 1.367 . S
C1385 C1393 1.433 . S
C1386 H1382 0.929 . S
C1386 C1388 1.378 . S
C1386 C1390 1.350 1_565 S
C1387 C1390 1.463 . S
C1387 C1392 1.350 . S
C1387 N1395 1.427 . S
C1388 H1379 0.930 . S
C1388 C1386 1.378 . S
C1388 C1389 1.367 . S
C1389 C1388 1.367 . S
C1389 C1391 1.433 . S
C1390 C1386 1.350 1_545 S
C1390 C1387 1.463 . S
C1390 N1394 1.427 . S
C1391 H1381 0.929 . S
C1391 C1389 1.433 . S
C1391 N1394 1.384 1_565 S
C1392 H1383 0.929 . S
C1392 C1384 1.378 . S
C1392 C1387 1.350 . S
C1393 H1380 0.929 . S
C1393 C1385 1.433 . S
C1393 N1395 1.384 . S
N1394 C1390 1.427 . S
N1394 C1391 1.384 1_545 S
N1395 C1387 1.427 . S
N1395 C1393 1.384 . S
H1396 C1402 0.930 . S
H1397 C1406 0.930 . S
H1398 C1411 0.929 . S
H1399 C1409 0.929 . S
H1400 C1404 0.929 . S
H1401 C1410 0.929 . S
C1402 H1396 0.930 . S
C1402 C1403 1.367 . S
C1402 C1410 1.378 . S
C1403 C1402 1.367 . S
C1403 C1411 1.433 . S
C1404 H1400 0.929 . S
C1404 C1406 1.378 . S
C1404 C1408 1.350 . S
C1405 C1408 1.463 . S
C1405 C1410 1.350 . S
C1405 N1413 1.427 . S
C1406 H1397 0.930 . S
C1406 C1404 1.378 . S
C1406 C1407 1.367 . S
C1407 C1406 1.367 . S
C1407 C1409 1.433 . S
C1408 C1404 1.350 . S
C1408 C1405 1.463 . S
C1408 N1412 1.427 . S
C1409 H1399 0.929 . S
C1409 C1407 1.433 . S
C1409 N1412 1.384 . S
C1410 H1401 0.929 . S
C1410 C1402 1.378 . S
C1410 C1405 1.350 . S
C1411 H1398 0.929 . S
C1411 C1403 1.433 . S
C1411 N1413 1.384 . S
N1412 C1408 1.427 . S
N1412 C1409 1.384 . S
N1413 C1405 1.427 . S
N1413 C1411 1.384 . S
H1414 C1420 0.930 . S
H1415 C1424 0.930 . S
H1416 C1429 0.929 1_554 S
H1417 C1427 0.929 . S
H1418 C1422 0.929 . S
H1419 C1428 0.929 . S
C1420 H1414 0.930 . S
C1420 C1421 1.367 . S
C1420 C1428 1.378 . S
C1421 C1420 1.367 . S
C1421 C1429 1.433 . S
C1422 H1418 0.929 . S
C1422 C1424 1.378 . S
C1422 C1426 1.350 . S
C1423 C1426 1.463 1_565 S
C1423 C1428 1.350 . S
C1423 N1431 1.427 . S
C1424 H1415 0.930 . S
C1424 C1422 1.378 . S
C1424 C1425 1.367 . S
C1425 C1424 1.367 . S
C1425 C1427 1.433 . S
C1426 C1422 1.350 . S
C1426 C1423 1.463 1_545 S
C1426 N1430 1.427 . S
C1427 H1417 0.929 . S
C1427 C1425 1.433 . S
C1427 N1430 1.384 . S
C1428 H1419 0.929 . S
C1428 C1420 1.378 . S
C1428 C1423 1.350 . S
C1429 H1416 0.929 1_556 S
C1429 C1421 1.433 . S
C1429 N1431 1.384 . S
N1430 C1426 1.427 . S
N1430 C1427 1.384 . S
N1431 C1423 1.427 . S
N1431 C1429 1.384 . S
H1432 C1438 0.930 . S
H1433 C1442 0.930 . S
H1434 C1447 0.929 . S
H1435 C1445 0.929 . S
H1436 C1440 0.929 . S
H1437 C1446 0.929 . S
C1438 H1432 0.930 . S
C1438 C1439 1.367 . S
C1438 C1446 1.378 . S
C1439 C1438 1.367 . S
C1439 C1447 1.433 . S
C1440 H1436 0.929 . S
C1440 C1442 1.378 . S
C1440 C1444 1.350 . S
C1441 C1444 1.463 . S
C1441 C1446 1.350 . S
C1441 N1449 1.427 . S
C1442 H1433 0.930 . S
C1442 C1440 1.378 . S
C1442 C1443 1.367 . S
C1443 C1442 1.367 . S
C1443 C1445 1.433 . S
C1444 C1440 1.350 . S
C1444 C1441 1.463 . S
C1444 N1448 1.427 . S
C1445 H1435 0.929 . S
C1445 C1443 1.433 . S
C1445 N1448 1.384 . S
C1446 H1437 0.929 . S
C1446 C1438 1.378 . S
C1446 C1441 1.350 . S
C1447 H1434 0.929 . S
C1447 C1439 1.433 . S
C1447 N1449 1.384 . S
N1448 C1444 1.427 . S
N1448 C1445 1.384 . S
N1449 C1441 1.427 . S
N1449 C1447 1.384 . S
H1450 C1456 0.930 . S
H1451 C1460 0.930 . S
H1452 C1465 0.929 . S
H1453 C1463 0.929 . S
H1454 C1458 0.929 . S
H1455 C1464 0.929 . S
C1456 H1450 0.930 . S
C1456 C1457 1.367 . S
C1456 C1464 1.378 . S
C1457 C1456 1.367 . S
C1457 C1465 1.433 . S
C1458 H1454 0.929 . S
C1458 C1460 1.378 1_545 S
C1458 C1462 1.350 . S
C1459 C1462 1.463 . S
C1459 C1464 1.350 . S
C1459 N1467 1.427 . S
C1460 H1451 0.930 . S
C1460 C1458 1.378 1_565 S
C1460 C1461 1.367 . S
C1461 C1460 1.367 . S
C1461 C1463 1.433 . S
C1462 C1458 1.350 . S
C1462 C1459 1.463 . S
C1462 N1466 1.427 1_545 S
C1463 H1453 0.929 . S
C1463 C1461 1.433 . S
C1463 N1466 1.384 . S
C1464 H1455 0.929 . S
C1464 C1456 1.378 . S
C1464 C1459 1.350 . S
C1465 H1452 0.929 . S
C1465 C1457 1.433 . S
C1465 N1467 1.384 . S
N1466 C1462 1.427 1_565 S
N1466 C1463 1.384 . S
N1467 C1459 1.427 . S
N1467 C1465 1.384 . S
H1468 C1474 0.930 . S
H1469 C1478 0.930 . S
H1470 C1483 0.929 . S
H1471 C1481 0.929 . S
H1472 C1476 0.929 . S
H1473 C1482 0.929 . S
C1474 H1468 0.930 . S
C1474 C1475 1.367 . S
C1474 C1482 1.378 . S
C1475 C1474 1.367 . S
C1475 C1483 1.433 . S
C1476 H1472 0.929 . S
C1476 C1478 1.378 . S
C1476 C1480 1.350 . S
C1477 C1480 1.463 . S
C1477 C1482 1.350 . S
C1477 N1485 1.427 . S
C1478 H1469 0.930 . S
C1478 C1476 1.378 . S
C1478 C1479 1.367 . S
C1479 C1478 1.367 . S
C1479 C1481 1.433 . S
C1480 C1476 1.350 . S
C1480 C1477 1.463 . S
C1480 N1484 1.427 . S
C1481 H1471 0.929 . S
C1481 C1479 1.433 . S
C1481 N1484 1.384 . S
C1482 H1473 0.929 . S
C1482 C1474 1.378 . S
C1482 C1477 1.350 . S
C1483 H1470 0.929 . S
C1483 C1475 1.433 . S
C1483 N1485 1.384 . S
N1484 C1480 1.427 . S
N1484 C1481 1.384 . S
N1485 C1477 1.427 . S
N1485 C1483 1.384 . S
H1486 C1492 0.930 . S
H1487 C1496 0.930 . S
H1488 C1501 0.929 . S
H1489 C1499 0.929 . S
H1490 C1494 0.929 1_565 S
H1491 C1500 0.929 . S
C1492 H1486 0.930 . S
C1492 C1493 1.367 . S
C1492 C1500 1.378 . S
C1493 C1492 1.367 . S
C1493 C1501 1.433 . S
C1494 H1490 0.929 1_545 S
C1494 C1496 1.378 . S
C1494 C1498 1.350 . S
C1495 C1498 1.463 1_565 S
C1495 C1500 1.350 . S
C1495 N1503 1.427 . S
C1496 H1487 0.930 . S
C1496 C1494 1.378 . S
C1496 C1497 1.367 . S
C1497 C1496 1.367 . S
C1497 C1499 1.433 . S
C1498 C1494 1.350 . S
C1498 C1495 1.463 1_545 S
C1498 N1502 1.427 . S
C1499 H1489 0.929 . S
C1499 C1497 1.433 . S
C1499 N1502 1.384 . S
C1500 H1491 0.929 . S
C1500 C1492 1.378 . S
C1500 C1495 1.350 . S
C1501 H1488 0.929 . S
C1501 C1493 1.433 . S
C1501 N1503 1.384 . S
N1502 C1498 1.427 . S
N1502 C1499 1.384 . S
N1503 C1495 1.427 . S
N1503 C1501 1.384 . S
H1504 C1510 0.930 . S
H1505 C1514 0.930 . S
H1506 C1519 0.929 . S
H1507 C1517 0.929 . S
H1508 C1512 0.929 . S
H1509 C1518 0.929 . S
C1510 H1504 0.930 . S
C1510 C1511 1.367 . S
C1510 C1518 1.378 . S
C1511 C1510 1.367 . S
C1511 C1519 1.433 . S
C1512 H1508 0.929 . S
C1512 C1514 1.378 . S
C1512 C1516 1.350 . S
C1513 C1516 1.463 . S
C1513 C1518 1.350 . S
C1513 N1521 1.427 . S
C1514 H1505 0.930 . S
C1514 C1512 1.378 . S
C1514 C1515 1.367 . S
C1515 C1514 1.367 . S
C1515 C1517 1.433 . S
C1516 C1512 1.350 . S
C1516 C1513 1.463 . S
C1516 N1520 1.427 . S
C1517 H1507 0.929 . S
C1517 C1515 1.433 . S
C1517 N1520 1.384 . S
C1518 H1509 0.929 . S
C1518 C1510 1.378 . S
C1518 C1513 1.350 . S
C1519 H1506 0.929 . S
C1519 C1511 1.433 . S
C1519 N1521 1.384 . S
N1520 C1516 1.427 . S
N1520 C1517 1.384 . S
N1521 C1513 1.427 . S
N1521 C1519 1.384 . S
H1522 C1528 0.930 . S
H1523 C1532 0.930 . S
H1524 C1537 0.929 . S
H1525 C1535 0.929 . S
H1526 C1530 0.929 . S
H1527 C1536 0.929 . S
C1528 H1522 0.930 . S
C1528 C1529 1.367 . S
C1528 C1536 1.378 . S
C1529 C1528 1.367 . S
C1529 C1537 1.433 . S
C1530 H1526 0.929 . S
C1530 C1532 1.378 . S
C1530 C1534 1.350 . S
C1531 C1534 1.463 . S
C1531 C1536 1.350 . S
C1531 N1539 1.427 . S
C1532 H1523 0.930 . S
C1532 C1530 1.378 . S
C1532 C1533 1.367 . S
C1533 C1532 1.367 . S
C1533 C1535 1.433 . S
C1534 C1530 1.350 . S
C1534 C1531 1.463 . S
C1534 N1538 1.427 . S
C1535 H1525 0.929 . S
C1535 C1533 1.433 . S
C1535 N1538 1.384 . S
C1536 H1527 0.929 . S
C1536 C1528 1.378 . S
C1536 C1531 1.350 . S
C1537 H1524 0.929 . S
C1537 C1529 1.433 . S
C1537 N1539 1.384 . S
N1538 C1534 1.427 . S
N1538 C1535 1.384 . S
N1539 C1531 1.427 . S
N1539 C1537 1.384 . S
H1540 C1546 0.930 . S
H1541 C1550 0.930 . S
H1542 C1555 0.929 . S
H1543 C1553 0.929 . S
H1544 C1548 0.929 . S
H1545 C1554 0.929 . S
C1546 H1540 0.930 . S
C1546 C1547 1.367 . S
C1546 C1554 1.378 . S
C1547 C1546 1.367 . S
C1547 C1555 1.433 . S
C1548 H1544 0.929 . S
C1548 C1550 1.378 . S
C1548 C1552 1.350 1_655 S
C1549 C1552 1.463 . S
C1549 C1554 1.350 . S
C1549 N1557 1.427 . S
C1550 H1541 0.930 . S
C1550 C1548 1.378 . S
C1550 C1551 1.367 . S
C1551 C1550 1.367 . S
C1551 C1553 1.433 . S
C1552 C1548 1.350 1_455 S
C1552 C1549 1.463 . S
C1552 N1556 1.427 . S
C1553 H1543 0.929 . S
C1553 C1551 1.433 . S
C1553 N1556 1.384 1_655 S
C1554 H1545 0.929 . S
C1554 C1546 1.378 . S
C1554 C1549 1.350 . S
C1555 H1542 0.929 . S
C1555 C1547 1.433 . S
C1555 N1557 1.384 . S
N1556 C1552 1.427 . S
N1556 C1553 1.384 1_455 S
N1557 C1549 1.427 . S
N1557 C1555 1.384 . S
H1558 C1564 0.930 . S
H1559 C1568 0.930 . S
H1560 C1573 0.929 . S
H1561 C1571 0.929 . S
H1562 C1566 0.929 . S
H1563 C1572 0.929 . S
C1564 H1558 0.930 . S
C1564 C1565 1.367 . S
C1564 C1572 1.378 . S
C1565 C1564 1.367 . S
C1565 C1573 1.433 . S
C1566 H1562 0.929 . S
C1566 C1568 1.378 . S
C1566 C1570 1.350 . S
C1567 C1570 1.463 . S
C1567 C1572 1.350 . S
C1567 N1575 1.427 . S
C1568 H1559 0.930 . S
C1568 C1566 1.378 . S
C1568 C1569 1.367 . S
C1569 C1568 1.367 . S
C1569 C1571 1.433 . S
C1570 C1566 1.350 . S
C1570 C1567 1.463 . S
C1570 N1574 1.427 . S
C1571 H1561 0.929 . S
C1571 C1569 1.433 . S
C1571 N1574 1.384 . S
C1572 H1563 0.929 . S
C1572 C1564 1.378 . S
C1572 C1567 1.350 . S
C1573 H1560 0.929 . S
C1573 C1565 1.433 . S
C1573 N1575 1.384 . S
N1574 C1570 1.427 . S
N1574 C1571 1.384 . S
N1575 C1567 1.427 . S
N1575 C1573 1.384 . S
H1576 C1582 0.930 . S
H1577 C1586 0.930 . S
H1578 C1591 0.929 . S
H1579 C1589 0.929 . S
H1580 C1584 0.929 . S
H1581 C1590 0.929 . S
C1582 H1576 0.930 . S
C1582 C1583 1.367 . S
C1582 C1590 1.378 . S
C1583 C1582 1.367 . S
C1583 C1591 1.433 . S
C1584 H1580 0.929 . S
C1584 C1586 1.378 . S
C1584 C1588 1.350 . S
C1585 C1588 1.463 1_655 S
C1585 C1590 1.350 . S
C1585 N1593 1.427 . S
C1586 H1577 0.930 . S
C1586 C1584 1.378 . S
C1586 C1587 1.367 . S
C1587 C1586 1.367 . S
C1587 C1589 1.433 . S
C1588 C1584 1.350 . S
C1588 C1585 1.463 1_455 S
C1588 N1592 1.427 . S
C1589 H1579 0.929 . S
C1589 C1587 1.433 . S
C1589 N1592 1.384 . S
C1590 H1581 0.929 . S
C1590 C1582 1.378 . S
C1590 C1585 1.350 . S
C1591 H1578 0.929 . S
C1591 C1583 1.433 . S
C1591 N1593 1.384 . S
N1592 C1588 1.427 . S
N1592 C1589 1.384 . S
N1593 C1585 1.427 . S
N1593 C1591 1.384 . S
H1594 C1600 0.930 . S
H1595 C1604 0.930 . S
H1596 C1609 0.929 . S
H1597 C1607 0.929 . S
H1598 C1602 0.929 . S
H1599 C1608 0.929 . S
C1600 H1594 0.930 . S
C1600 C1601 1.367 . S
C1600 C1608 1.378 . S
C1601 C1600 1.367 . S
C1601 C1609 1.433 . S
C1602 H1598 0.929 . S
C1602 C1604 1.378 . S
C1602 C1606 1.350 . S
C1603 C1606 1.463 . S
C1603 C1608 1.350 . S
C1603 N1611 1.427 . S
C1604 H1595 0.930 . S
C1604 C1602 1.378 . S
C1604 C1605 1.367 . S
C1605 C1604 1.367 . S
C1605 C1607 1.433 . S
C1606 C1602 1.350 . S
C1606 C1603 1.463 . S
C1606 N1610 1.427 . S
C1607 H1597 0.929 . S
C1607 C1605 1.433 . S
C1607 N1610 1.384 . S
C1608 H1599 0.929 . S
C1608 C1600 1.378 . S
C1608 C1603 1.350 . S
C1609 H1596 0.929 . S
C1609 C1601 1.433 . S
C1609 N1611 1.384 . S
N1610 C1606 1.427 . S
N1610 C1607 1.384 . S
N1611 C1603 1.427 . S
N1611 C1609 1.384 . S
H1612 C1618 0.930 . S
H1613 C1622 0.930 . S
H1614 C1627 0.929 . S
H1615 C1625 0.929 . S
H1616 C1620 0.929 1_455 S
H1617 C1626 0.929 . S
C1618 H1612 0.930 . S
C1618 C1619 1.367 . S
C1618 C1626 1.378 . S
C1619 C1618 1.367 . S
C1619 C1627 1.433 . S
C1620 H1616 0.929 1_655 S
C1620 C1622 1.378 . S
C1620 C1624 1.350 1_655 S
C1621 C1624 1.463 . S
C1621 C1626 1.350 . S
C1621 N1629 1.427 . S
C1622 H1613 0.930 . S
C1622 C1620 1.378 . S
C1622 C1623 1.367 . S
C1623 C1622 1.367 . S
C1623 C1625 1.433 . S
C1624 C1620 1.350 1_455 S
C1624 C1621 1.463 . S
C1624 N1628 1.427 1_455 S
C1625 H1615 0.929 . S
C1625 C1623 1.433 . S
C1625 N1628 1.384 . S
C1626 H1617 0.929 . S
C1626 C1618 1.378 . S
C1626 C1621 1.350 . S
C1627 H1614 0.929 . S
C1627 C1619 1.433 . S
C1627 N1629 1.384 . S
N1628 C1624 1.427 1_655 S
N1628 C1625 1.384 . S
N1629 C1621 1.427 . S
N1629 C1627 1.384 . S
H1630 C1636 0.930 . S
H1631 C1640 0.930 . S
H1632 C1645 0.929 . S
H1633 C1643 0.929 . S
H1634 C1638 0.929 . S
H1635 C1644 0.929 . S
C1636 H1630 0.930 . S
C1636 C1637 1.367 . S
C1636 C1644 1.378 . S
C1637 C1636 1.367 . S
C1637 C1645 1.433 . S
C1638 H1634 0.929 . S
C1638 C1640 1.378 . S
C1638 C1642 1.350 . S
C1639 C1642 1.463 . S
C1639 C1644 1.350 . S
C1639 N1647 1.427 . S
C1640 H1631 0.930 . S
C1640 C1638 1.378 . S
C1640 C1641 1.367 . S
C1641 C1640 1.367 . S
C1641 C1643 1.433 . S
C1642 C1638 1.350 . S
C1642 C1639 1.463 . S
C1642 N1646 1.427 . S
C1643 H1633 0.929 . S
C1643 C1641 1.433 . S
C1643 N1646 1.384 . S
C1644 H1635 0.929 . S
C1644 C1636 1.378 . S
C1644 C1639 1.350 . S
C1645 H1632 0.929 . S
C1645 C1637 1.433 . S
C1645 N1647 1.384 . S
N1646 C1642 1.427 . S
N1646 C1643 1.384 . S
N1647 C1639 1.427 . S
N1647 C1645 1.384 . S
H1648 C1654 0.930 . S
H1649 C1658 0.930 . S
H1650 C1663 0.929 . S
H1651 C1661 0.929 . S
H1652 C1656 0.929 . S
H1653 C1662 0.929 . S
C1654 H1648 0.930 . S
C1654 C1655 1.367 . S
C1654 C1662 1.378 . S
C1655 C1654 1.367 . S
C1655 C1663 1.433 . S
C1656 H1652 0.929 . S
C1656 C1658 1.378 . S
C1656 C1660 1.350 . S
C1657 C1660 1.463 . S
C1657 C1662 1.350 . S
C1657 N1665 1.427 . S
C1658 H1649 0.930 . S
C1658 C1656 1.378 . S
C1658 C1659 1.367 . S
C1659 C1658 1.367 . S
C1659 C1661 1.433 . S
C1660 C1656 1.350 . S
C1660 C1657 1.463 . S
C1660 N1664 1.427 . S
C1661 H1651 0.929 . S
C1661 C1659 1.433 . S
C1661 N1664 1.384 . S
C1662 H1653 0.929 . S
C1662 C1654 1.378 . S
C1662 C1657 1.350 . S
C1663 H1650 0.929 . S
C1663 C1655 1.433 . S
C1663 N1665 1.384 . S
N1664 C1660 1.427 . S
N1664 C1661 1.384 . S
N1665 C1657 1.427 . S
N1665 C1663 1.384 . S
H1666 C1672 0.930 . S
H1667 C1676 0.930 . S
H1668 C1681 0.929 . S
H1669 C1679 0.929 . S
H1670 C1674 0.929 . S
H1671 C1680 0.929 . S
C1672 H1666 0.930 . S
C1672 C1673 1.367 . S
C1672 C1680 1.378 . S
C1673 C1672 1.367 . S
C1673 C1681 1.433 . S
C1674 H1670 0.929 . S
C1674 C1676 1.378 . S
C1674 C1678 1.350 . S
C1675 C1678 1.463 . S
C1675 C1680 1.350 . S
C1675 N1683 1.427 . S
C1676 H1667 0.930 . S
C1676 C1674 1.378 . S
C1676 C1677 1.367 . S
C1677 C1676 1.367 . S
C1677 C1679 1.433 . S
C1678 C1674 1.350 . S
C1678 C1675 1.463 . S
C1678 N1682 1.427 . S
C1679 H1669 0.929 . S
C1679 C1677 1.433 . S
C1679 N1682 1.384 . S
C1680 H1671 0.929 . S
C1680 C1672 1.378 . S
C1680 C1675 1.350 . S
C1681 H1668 0.929 . S
C1681 C1673 1.433 . S
C1681 N1683 1.384 . S
N1682 C1678 1.427 . S
N1682 C1679 1.384 . S
N1683 C1675 1.427 . S
N1683 C1681 1.384 . S
H1684 C1690 0.930 . S
H1685 C1694 0.930 . S
H1686 C1699 0.929 . S
H1687 C1697 0.929 . S
H1688 C1692 0.929 . S
H1689 C1698 0.929 . S
C1690 H1684 0.930 . S
C1690 C1691 1.367 . S
C1690 C1698 1.378 . S
C1691 C1690 1.367 . S
C1691 C1699 1.433 . S
C1692 H1688 0.929 . S
C1692 C1694 1.378 . S
C1692 C1696 1.350 . S
C1693 C1696 1.463 . S
C1693 C1698 1.350 . S
C1693 N1701 1.427 . S
C1694 H1685 0.930 . S
C1694 C1692 1.378 . S
C1694 C1695 1.367 . S
C1695 C1694 1.367 . S
C1695 C1697 1.433 . S
C1696 C1692 1.350 . S
C1696 C1693 1.463 . S
C1696 N1700 1.427 . S
C1697 H1687 0.929 . S
C1697 C1695 1.433 . S
C1697 N1700 1.384 . S
C1698 H1689 0.929 . S
C1698 C1690 1.378 . S
C1698 C1693 1.350 . S
C1699 H1686 0.929 . S
C1699 C1691 1.433 . S
C1699 N1701 1.384 . S
N1700 C1696 1.427 . S
N1700 C1697 1.384 . S
N1701 C1693 1.427 . S
N1701 C1699 1.384 . S
H1702 C1708 0.930 . S
H1703 C1712 0.930 . S
H1704 C1717 0.929 . S
H1705 C1715 0.929 . S
H1706 C1710 0.929 . S
H1707 C1716 0.929 . S
C1708 H1702 0.930 . S
C1708 C1709 1.367 . S
C1708 C1716 1.378 . S
C1709 C1708 1.367 . S
C1709 C1717 1.433 . S
C1710 H1706 0.929 . S
C1710 C1712 1.378 . S
C1710 C1714 1.348 . S
C1711 C1714 1.466 1_556 S
C1711 C1716 1.350 . S
C1711 N1719 1.427 . S
C1712 H1703 0.930 . S
C1712 C1710 1.378 . S
C1712 C1713 1.367 . S
C1713 C1712 1.367 . S
C1713 C1715 1.433 . S
C1714 C1710 1.348 . S
C1714 C1711 1.466 1_554 S
C1714 N1718 1.426 . S
C1715 H1705 0.929 . S
C1715 C1713 1.433 . S
C1715 N1718 1.384 . S
C1716 H1707 0.929 . S
C1716 C1708 1.378 . S
C1716 C1711 1.350 . S
C1717 H1704 0.929 . S
C1717 C1709 1.433 . S
C1717 N1719 1.384 . S
N1718 C1714 1.426 . S
N1718 C1715 1.384 . S
N1719 C1711 1.427 . S
N1719 C1717 1.384 . S
H1720 C1726 0.930 . S
H1721 C1730 0.930 . S
H1722 C1735 0.929 . S
H1723 C1733 0.929 . S
H1724 C1728 0.929 . S
H1725 C1734 0.929 . S
C1726 H1720 0.930 . S
C1726 C1727 1.367 . S
C1726 C1734 1.378 . S
C1727 C1726 1.367 . S
C1727 C1735 1.433 . S
C1728 H1724 0.929 . S
C1728 C1730 1.378 . S
C1728 C1732 1.350 . S
C1729 C1732 1.463 . S
C1729 C1734 1.350 . S
C1729 N1737 1.427 . S
C1730 H1721 0.930 . S
C1730 C1728 1.378 . S
C1730 C1731 1.367 . S
C1731 C1730 1.367 . S
C1731 C1733 1.433 . S
C1732 C1728 1.350 . S
C1732 C1729 1.463 . S
C1732 N1736 1.427 . S
C1733 H1723 0.929 . S
C1733 C1731 1.433 . S
C1733 N1736 1.384 . S
C1734 H1725 0.929 . S
C1734 C1726 1.378 . S
C1734 C1729 1.350 . S
C1735 H1722 0.929 . S
C1735 C1727 1.433 . S
C1735 N1737 1.384 . S
N1736 C1732 1.427 . S
N1736 C1733 1.384 . S
N1737 C1729 1.427 . S
N1737 C1735 1.384 . S
H1738 C1744 0.930 . S
H1739 C1748 0.930 . S
H1740 C1753 0.929 . S
H1741 C1751 0.929 . S
H1742 C1746 0.929 . S
H1743 C1752 0.929 . S
C1744 H1738 0.930 . S
C1744 C1745 1.367 . S
C1744 C1752 1.378 . S
C1745 C1744 1.367 . S
C1745 C1753 1.433 . S
C1746 H1742 0.929 . S
C1746 C1748 1.378 . S
C1746 C1750 1.350 . S
C1747 C1750 1.463 . S
C1747 C1752 1.350 . S
C1747 N1755 1.427 . S
C1748 H1739 0.930 . S
C1748 C1746 1.378 . S
C1748 C1749 1.367 . S
C1749 C1748 1.367 . S
C1749 C1751 1.433 . S
C1750 C1746 1.350 . S
C1750 C1747 1.463 . S
C1750 N1754 1.427 . S
C1751 H1741 0.929 . S
C1751 C1749 1.433 . S
C1751 N1754 1.384 . S
C1752 H1743 0.929 . S
C1752 C1744 1.378 . S
C1752 C1747 1.350 . S
C1753 H1740 0.929 . S
C1753 C1745 1.433 . S
C1753 N1755 1.384 . S
N1754 C1750 1.427 . S
N1754 C1751 1.384 . S
N1755 C1747 1.427 . S
N1755 C1753 1.384 . S
H1756 C1762 0.930 . S
H1757 C1766 0.930 . S
H1758 C1771 0.929 . S
H1759 C1769 0.929 . S
H1760 C1764 0.929 . S
H1761 C1770 0.929 . S
C1762 H1756 0.930 . S
C1762 C1763 1.367 . S
C1762 C1770 1.378 . S
C1763 C1762 1.367 . S
C1763 C1771 1.433 . S
C1764 H1760 0.929 . S
C1764 C1766 1.378 . S
C1764 C1768 1.350 . S
C1765 C1768 1.463 . S
C1765 C1770 1.350 . S
C1765 N1773 1.427 . S
C1766 H1757 0.930 . S
C1766 C1764 1.378 . S
C1766 C1767 1.367 . S
C1767 C1766 1.367 . S
C1767 C1769 1.433 . S
C1768 C1764 1.350 . S
C1768 C1765 1.463 . S
C1768 N1772 1.427 . S
C1769 H1759 0.929 . S
C1769 C1767 1.433 . S
C1769 N1772 1.384 . S
C1770 H1761 0.929 . S
C1770 C1762 1.378 . S
C1770 C1765 1.350 . S
C1771 H1758 0.929 . S
C1771 C1763 1.433 . S
C1771 N1773 1.384 . S
N1772 C1768 1.427 . S
N1772 C1769 1.384 . S
N1773 C1765 1.427 . S
N1773 C1771 1.384 . S
H1774 C1780 0.930 . S
H1775 C1784 0.930 . S
H1776 C1789 0.929 . S
H1777 C1787 0.929 . S
H1778 C1782 0.929 . S
H1779 C1788 0.929 . S
C1780 H1774 0.930 . S
C1780 C1781 1.367 . S
C1780 C1788 1.378 . S
C1781 C1780 1.367 . S
C1781 C1789 1.433 . S
C1782 H1778 0.929 . S
C1782 C1784 1.378 1_554 S
C1782 C1786 1.350 . S
C1783 C1786 1.463 . S
C1783 C1788 1.350 . S
C1783 N1791 1.427 . S
C1784 H1775 0.930 . S
C1784 C1782 1.378 1_556 S
C1784 C1785 1.367 . S
C1785 C1784 1.367 . S
C1785 C1787 1.433 . S
C1786 C1782 1.350 . S
C1786 C1783 1.463 . S
C1786 N1790 1.427 1_554 S
C1787 H1777 0.929 . S
C1787 C1785 1.433 . S
C1787 N1790 1.384 . S
C1788 H1779 0.929 . S
C1788 C1780 1.378 . S
C1788 C1783 1.350 . S
C1789 H1776 0.929 . S
C1789 C1781 1.433 . S
C1789 N1791 1.384 . S
N1790 C1786 1.427 1_556 S
N1790 C1787 1.384 . S
N1791 C1783 1.427 . S
N1791 C1789 1.384 . S
H1792 C1798 0.930 . S
H1793 C1802 0.930 . S
H1794 C1807 0.893 1_545 S
H1795 C1805 0.929 . S
H1796 C1800 0.929 . S
H1797 C1806 0.929 . S
C1798 H1792 0.930 . S
C1798 C1799 1.367 . S
C1798 C1806 1.378 . S
C1799 C1798 1.367 . S
C1799 C1807 1.433 . S
C1800 H1796 0.929 . S
C1800 C1802 1.378 . S
C1800 C1804 1.350 . S
C1801 C1804 1.463 . S
C1801 C1806 1.350 . S
C1801 N1809 1.427 . S
C1802 H1793 0.930 . S
C1802 C1800 1.378 . S
C1802 C1803 1.367 . S
C1803 C1802 1.367 . S
C1803 C1805 1.433 . S
C1804 C1800 1.350 . S
C1804 C1801 1.463 . S
C1804 N1808 1.427 . S
C1805 H1795 0.929 . S
C1805 C1803 1.433 . S
C1805 N1808 1.384 . S
C1806 H1797 0.929 . S
C1806 C1798 1.378 . S
C1806 C1801 1.350 . S
C1807 H1794 0.893 1_565 S
C1807 C1799 1.433 . S
C1807 N1809 1.384 . S
N1808 C1804 1.427 . S
N1808 C1805 1.384 . S
N1809 C1801 1.427 . S
N1809 C1807 1.384 . S
H1810 C1816 0.930 . S
H1811 C1820 0.930 . S
H1812 C1825 0.929 . S
H1813 C1823 0.929 . S
H1814 C1818 0.929 . S
H1815 C1824 0.929 . S
C1816 H1810 0.930 . S
C1816 C1817 1.367 . S
C1816 C1824 1.378 . S
C1817 C1816 1.367 . S
C1817 C1825 1.433 . S
C1818 H1814 0.929 . S
C1818 C1820 1.378 1_565 S
C1818 C1822 1.352 . S
C1819 C1822 1.475 . S
C1819 C1824 1.350 . S
C1819 N1827 1.427 . S
C1820 H1811 0.930 . S
C1820 C1818 1.378 1_545 S
C1820 C1821 1.367 . S
C1821 C1820 1.367 . S
C1821 C1823 1.433 . S
C1822 C1818 1.352 . S
C1822 C1819 1.475 . S
C1822 N1826 1.412 1_565 S
C1823 H1813 0.929 . S
C1823 C1821 1.433 . S
C1823 N1826 1.384 . S
C1824 H1815 0.929 . S
C1824 C1816 1.378 . S
C1824 C1819 1.350 . S
C1825 H1812 0.929 . S
C1825 C1817 1.433 . S
C1825 N1827 1.384 . S
N1826 C1822 1.412 1_545 S
N1826 C1823 1.384 . S
N1827 C1819 1.427 . S
N1827 C1825 1.384 . S
H1828 C1834 0.930 . S
H1829 C1838 0.930 . S
H1830 C1843 0.929 . S
H1831 C1841 0.929 . S
H1832 C1836 0.929 . S
H1833 C1842 0.929 . S
C1834 H1828 0.930 . S
C1834 C1835 1.367 . S
C1834 C1842 1.378 . S
C1835 C1834 1.367 . S
C1835 C1843 1.433 . S
C1836 H1832 0.929 . S
C1836 C1838 1.378 . S
C1836 C1840 1.350 . S
C1837 C1840 1.463 . S
C1837 C1842 1.350 . S
C1837 N1845 1.427 . S
C1838 H1829 0.930 . S
C1838 C1836 1.378 . S
C1838 C1839 1.367 . S
C1839 C1838 1.367 . S
C1839 C1841 1.433 . S
C1840 C1836 1.350 . S
C1840 C1837 1.463 . S
C1840 N1844 1.427 . S
C1841 H1831 0.929 . S
C1841 C1839 1.433 . S
C1841 N1844 1.384 . S
C1842 H1833 0.929 . S
C1842 C1834 1.378 . S
C1842 C1837 1.350 . S
C1843 H1830 0.929 . S
C1843 C1835 1.433 . S
C1843 N1845 1.384 . S
N1844 C1840 1.427 . S
N1844 C1841 1.384 . S
N1845 C1837 1.427 . S
N1845 C1843 1.384 . S
H1846 C1852 0.930 . S
H1847 C1856 0.930 . S
H1848 C1861 0.929 . S
H1849 C1859 0.929 . S
H1850 C1854 0.929 1_545 S
H1851 C1860 0.929 . S
C1852 H1846 0.930 . S
C1852 C1853 1.367 . S
C1852 C1860 1.378 . S
C1853 C1852 1.367 . S
C1853 C1861 1.433 . S
C1854 H1850 0.929 1_565 S
C1854 C1856 1.378 . S
C1854 C1858 1.350 1_565 S
C1855 C1858 1.463 . S
C1855 C1860 1.350 . S
C1855 N1863 1.427 . S
C1856 H1847 0.930 . S
C1856 C1854 1.378 . S
C1856 C1857 1.367 . S
C1857 C1856 1.367 . S
C1857 C1859 1.433 . S
C1858 C1854 1.350 1_545 S
C1858 C1855 1.463 . S
C1858 N1862 1.427 1_545 S
C1859 H1849 0.929 . S
C1859 C1857 1.433 . S
C1859 N1862 1.384 . S
C1860 H1851 0.929 . S
C1860 C1852 1.378 . S
C1860 C1855 1.350 . S
C1861 H1848 0.929 . S
C1861 C1853 1.433 . S
C1861 N1863 1.384 . S
N1862 C1858 1.427 1_565 S
N1862 C1859 1.384 . S
N1863 C1855 1.427 . S
N1863 C1861 1.384 . S
H1864 C1870 0.930 . S
H1865 C1874 0.930 . S
H1866 C1879 0.929 . S
H1867 C1877 0.929 . S
H1868 C1872 0.929 . S
H1869 C1878 0.929 . S
C1870 H1864 0.930 . S
C1870 C1871 1.367 . S
C1870 C1878 1.378 . S
C1871 C1870 1.367 . S
C1871 C1879 1.433 . S
C1872 H1868 0.929 . S
C1872 C1874 1.378 . S
C1872 C1876 1.350 . S
C1873 C1876 1.463 . S
C1873 C1878 1.350 . S
C1873 N1881 1.427 . S
C1874 H1865 0.930 . S
C1874 C1872 1.378 . S
C1874 C1875 1.367 . S
C1875 C1874 1.367 . S
C1875 C1877 1.433 . S
C1876 C1872 1.350 . S
C1876 C1873 1.463 . S
C1876 N1880 1.427 . S
C1877 H1867 0.929 . S
C1877 C1875 1.433 . S
C1877 N1880 1.384 . S
C1878 H1869 0.929 . S
C1878 C1870 1.378 . S
C1878 C1873 1.350 . S
C1879 H1866 0.929 . S
C1879 C1871 1.433 . S
C1879 N1881 1.384 . S
N1880 C1876 1.427 . S
N1880 C1877 1.384 . S
N1881 C1873 1.427 . S
N1881 C1879 1.384 . S
H1882 C1888 0.930 . S
H1883 C1892 0.930 . S
H1884 C1897 0.929 . S
H1885 C1895 0.929 . S
H1886 C1890 0.929 1_565 S
H1887 C1896 0.929 1_545 S
C1888 H1882 0.930 . S
C1888 C1889 1.367 . S
C1888 C1896 1.378 . S
C1889 C1888 1.367 . S
C1889 C1897 1.433 . S
C1890 H1886 0.929 1_545 S
C1890 C1892 1.378 . S
C1890 C1894 1.350 . S
C1891 C1894 1.463 1_565 S
C1891 C1896 1.350 . S
C1891 N1899 1.427 . S
C1892 H1883 0.930 . S
C1892 C1890 1.378 . S
C1892 C1893 1.367 . S
C1893 C1892 1.367 . S
C1893 C1895 1.433 . S
C1894 C1890 1.350 . S
C1894 C1891 1.463 1_545 S
C1894 N1898 1.427 . S
C1895 H1885 0.929 . S
C1895 C1893 1.433 . S
C1895 N1898 1.384 . S
C1896 H1887 0.929 1_565 S
C1896 C1888 1.378 . S
C1896 C1891 1.350 . S
C1897 H1884 0.929 . S
C1897 C1889 1.433 . S
C1897 N1899 1.384 . S
N1898 C1894 1.427 . S
N1898 C1895 1.384 . S
N1899 C1891 1.427 . S
N1899 C1897 1.384 . S
H1900 C1906 0.930 . S
H1901 C1910 0.930 . S
H1902 C1915 0.929 . S
H1903 C1913 0.929 . S
H1904 C1908 0.929 . S
H1905 C1914 0.929 . S
C1906 H1900 0.930 . S
C1906 C1907 1.367 . S
C1906 C1914 1.378 . S
C1907 C1906 1.367 . S
C1907 C1915 1.433 . S
C1908 H1904 0.929 . S
C1908 C1910 1.378 . S
C1908 C1912 1.350 . S
C1909 C1912 1.463 . S
C1909 C1914 1.350 . S
C1909 N1917 1.427 . S
C1910 H1901 0.930 . S
C1910 C1908 1.378 . S
C1910 C1911 1.367 . S
C1911 C1910 1.367 . S
C1911 C1913 1.433 . S
C1912 C1908 1.350 . S
C1912 C1909 1.463 . S
C1912 N1916 1.427 . S
C1913 H1903 0.929 . S
C1913 C1911 1.433 . S
C1913 N1916 1.384 . S
C1914 H1905 0.929 . S
C1914 C1906 1.378 . S
C1914 C1909 1.350 . S
C1915 H1902 0.929 . S
C1915 C1907 1.433 . S
C1915 N1917 1.384 . S
N1916 C1912 1.427 . S
N1916 C1913 1.384 . S
N1917 C1909 1.427 . S
N1917 C1915 1.384 . S
H1918 C1924 0.930 . S
H1919 C1928 0.930 . S
H1920 C1933 0.929 . S
H1921 C1931 0.929 . S
H1922 C1926 0.929 . S
H1923 C1932 0.929 . S
C1924 H1918 0.930 . S
C1924 C1925 1.367 . S
C1924 C1932 1.378 . S
C1925 C1924 1.367 . S
C1925 C1933 1.433 . S
C1926 H1922 0.929 . S
C1926 C1928 1.378 . S
C1926 C1930 1.350 1_565 S
C1927 C1930 1.463 . S
C1927 C1932 1.350 . S
C1927 N1935 1.427 . S
C1928 H1919 0.930 . S
C1928 C1926 1.378 . S
C1928 C1929 1.367 . S
C1929 C1928 1.367 . S
C1929 C1931 1.433 . S
C1930 C1926 1.350 1_545 S
C1930 C1927 1.463 . S
C1930 N1934 1.427 . S
C1931 H1921 0.929 . S
C1931 C1929 1.433 . S
C1931 N1934 1.384 1_565 S
C1932 H1923 0.929 . S
C1932 C1924 1.378 . S
C1932 C1927 1.350 . S
C1933 H1920 0.929 . S
C1933 C1925 1.433 . S
C1933 N1935 1.384 . S
N1934 C1930 1.427 . S
N1934 C1931 1.384 1_545 S
N1935 C1927 1.427 . S
N1935 C1933 1.384 . S
H1936 C1942 0.930 . S
H1937 C1946 0.930 . S
H1938 C1951 0.929 . S
H1939 C1949 0.929 . S
H1940 C1944 0.929 . S
H1941 C1950 0.929 . S
C1942 H1936 0.930 . S
C1942 C1943 1.367 . S
C1942 C1950 1.378 . S
C1943 C1942 1.367 . S
C1943 C1951 1.433 . S
C1944 H1940 0.929 . S
C1944 C1946 1.378 . S
C1944 C1948 1.350 . S
C1945 C1948 1.463 . S
C1945 C1950 1.350 . S
C1945 N1953 1.427 . S
C1946 H1937 0.930 . S
C1946 C1944 1.378 . S
C1946 C1947 1.367 . S
C1947 C1946 1.367 . S
C1947 C1949 1.433 . S
C1948 C1944 1.350 . S
C1948 C1945 1.463 . S
C1948 N1952 1.427 . S
C1949 H1939 0.929 . S
C1949 C1947 1.433 . S
C1949 N1952 1.384 . S
C1950 H1941 0.929 . S
C1950 C1942 1.378 . S
C1950 C1945 1.350 . S
C1951 H1938 0.929 . S
C1951 C1943 1.433 . S
C1951 N1953 1.384 . S
N1952 C1948 1.427 . S
N1952 C1949 1.384 . S
N1953 C1945 1.427 . S
N1953 C1951 1.384 . S
H1954 C1960 0.930 . S
H1955 C1964 0.930 . S
H1956 C1969 0.929 . S
H1957 C1967 0.929 . S
H1958 C1962 0.929 . S
H1959 C1968 0.929 . S
C1960 H1954 0.930 . S
C1960 C1961 1.367 . S
C1960 C1968 1.378 . S
C1961 C1960 1.367 . S
C1961 C1969 1.433 . S
C1962 H1958 0.929 . S
C1962 C1964 1.378 . S
C1962 C1966 1.350 . S
C1963 C1966 1.463 . S
C1963 C1968 1.350 . S
C1963 N1971 1.427 . S
C1964 H1955 0.930 . S
C1964 C1962 1.378 . S
C1964 C1965 1.367 . S
C1965 C1964 1.367 . S
C1965 C1967 1.433 . S
C1966 C1962 1.350 . S
C1966 C1963 1.463 . S
C1966 N1970 1.427 . S
C1967 H1957 0.929 . S
C1967 C1965 1.433 . S
C1967 N1970 1.384 . S
C1968 H1959 0.929 . S
C1968 C1960 1.378 . S
C1968 C1963 1.350 . S
C1969 H1956 0.929 . S
C1969 C1961 1.433 . S
C1969 N1971 1.384 . S
N1970 C1966 1.427 . S
N1970 C1967 1.384 . S
N1971 C1963 1.427 . S
N1971 C1969 1.384 . S
H1972 C1978 0.930 . S
H1973 C1982 0.930 . S
H1974 C1987 0.929 . S
H1975 C1985 0.929 . S
H1976 C1980 0.929 1_655 S
H1977 C1986 0.929 . S
C1978 H1972 0.930 . S
C1978 C1979 1.367 . S
C1978 C1986 1.378 . S
C1979 C1978 1.367 . S
C1979 C1987 1.433 . S
C1980 H1976 0.929 1_455 S
C1980 C1982 1.378 . S
C1980 C1984 1.350 1_455 S
C1981 C1984 1.464 . S
C1981 C1986 1.350 . S
C1981 N1989 1.427 . S
C1982 H1973 0.930 . S
C1982 C1980 1.378 . S
C1982 C1983 1.367 . S
C1983 C1982 1.367 . S
C1983 C1985 1.433 . S
C1984 C1980 1.350 1_655 S
C1984 C1981 1.464 . S
C1984 N1988 1.426 1_655 S
C1985 H1975 0.929 . S
C1985 C1983 1.433 . S
C1985 N1988 1.384 . S
C1986 H1977 0.929 . S
C1986 C1978 1.378 . S
C1986 C1981 1.350 . S
C1987 H1974 0.929 . S
C1987 C1979 1.433 . S
C1987 N1989 1.384 . S
N1988 C1984 1.426 1_455 S
N1988 C1985 1.384 . S
N1989 C1981 1.427 . S
N1989 C1987 1.384 . S
H1990 C1996 0.930 . S
H1991 C2000 0.930 . S
H1992 C2005 0.929 . S
H1993 C2003 0.929 . S
H1994 C1998 0.929 . S
H1995 C2004 0.929 . S
C1996 H1990 0.930 . S
C1996 C1997 1.367 . S
C1996 C2004 1.378 . S
C1997 C1996 1.367 . S
C1997 C2005 1.433 . S
C1998 H1994 0.929 . S
C1998 C2000 1.378 . S
C1998 C2002 1.350 . S
C1999 C2002 1.463 . S
C1999 C2004 1.350 . S
C1999 N2007 1.427 . S
C2000 H1991 0.930 . S
C2000 C1998 1.378 . S
C2000 C2001 1.367 . S
C2001 C2000 1.367 . S
C2001 C2003 1.433 . S
C2002 C1998 1.350 . S
C2002 C1999 1.463 . S
C2002 N2006 1.427 . S
C2003 H1993 0.929 . S
C2003 C2001 1.433 . S
C2003 N2006 1.384 . S
C2004 H1995 0.929 . S
C2004 C1996 1.378 . S
C2004 C1999 1.350 . S
C2005 H1992 0.929 . S
C2005 C1997 1.433 . S
C2005 N2007 1.384 . S
N2006 C2002 1.427 . S
N2006 C2003 1.384 . S
N2007 C1999 1.427 . S
N2007 C2005 1.384 . S
H2008 C2014 0.930 . S
H2009 C2018 0.930 . S
H2010 C2023 0.929 . S
H2011 C2021 0.929 . S
H2012 C2016 0.929 . S
H2013 C2022 0.929 . S
C2014 H2008 0.930 . S
C2014 C2015 1.367 . S
C2014 C2022 1.378 . S
C2015 C2014 1.367 . S
C2015 C2023 1.433 . S
C2016 H2012 0.929 . S
C2016 C2018 1.378 . S
C2016 C2020 1.350 1_655 S
C2017 C2020 1.463 . S
C2017 C2022 1.350 . S
C2017 N2025 1.427 . S
C2018 H2009 0.930 . S
C2018 C2016 1.378 . S
C2018 C2019 1.367 . S
C2019 C2018 1.367 . S
C2019 C2021 1.433 . S
C2020 C2016 1.350 1_455 S
C2020 C2017 1.463 . S
C2020 N2024 1.427 . S
C2021 H2011 0.929 . S
C2021 C2019 1.433 . S
C2021 N2024 1.384 1_655 S
C2022 H2013 0.929 . S
C2022 C2014 1.378 . S
C2022 C2017 1.350 . S
C2023 H2010 0.929 . S
C2023 C2015 1.433 . S
C2023 N2025 1.384 . S
N2024 C2020 1.427 . S
N2024 C2021 1.384 1_455 S
N2025 C2017 1.427 . S
N2025 C2023 1.384 . S
H2026 C2032 0.930 . S
H2027 C2036 0.930 . S
H2028 C2041 0.929 . S
H2029 C2039 0.929 . S
H2030 C2034 0.929 . S
H2031 C2040 0.929 . S
C2032 H2026 0.930 . S
C2032 C2033 1.367 . S
C2032 C2040 1.378 . S
C2033 C2032 1.367 . S
C2033 C2041 1.433 . S
C2034 H2030 0.929 . S
C2034 C2036 1.378 . S
C2034 C2038 1.350 . S
C2035 C2038 1.463 . S
C2035 C2040 1.350 . S
C2035 N2043 1.427 . S
C2036 H2027 0.930 . S
C2036 C2034 1.378 . S
C2036 C2037 1.367 . S
C2037 C2036 1.367 . S
C2037 C2039 1.433 . S
C2038 C2034 1.350 . S
C2038 C2035 1.463 . S
C2038 N2042 1.427 . S
C2039 H2029 0.929 . S
C2039 C2037 1.433 . S
C2039 N2042 1.384 . S
C2040 H2031 0.929 . S
C2040 C2032 1.378 . S
C2040 C2035 1.350 . S
C2041 H2028 0.929 . S
C2041 C2033 1.433 . S
C2041 N2043 1.384 . S
N2042 C2038 1.427 . S
N2042 C2039 1.384 . S
N2043 C2035 1.427 . S
N2043 C2041 1.384 . S
H2044 C2050 0.930 . S
H2045 C2054 0.930 . S
H2046 C2059 0.929 . S
H2047 C2057 0.929 . S
H2048 C2052 0.929 . S
H2049 C2058 0.929 . S
C2050 H2044 0.930 . S
C2050 C2051 1.367 . S
C2050 C2058 1.378 . S
C2051 C2050 1.367 . S
C2051 C2059 1.433 . S
C2052 H2048 0.929 . S
C2052 C2054 1.378 . S
C2052 C2056 1.350 . S
C2053 C2056 1.463 1_655 S
C2053 C2058 1.350 . S
C2053 N2061 1.427 . S
C2054 H2045 0.930 . S
C2054 C2052 1.378 . S
C2054 C2055 1.367 . S
C2055 C2054 1.367 . S
C2055 C2057 1.433 . S
C2056 C2052 1.350 . S
C2056 C2053 1.463 1_455 S
C2056 N2060 1.427 . S
C2057 H2047 0.929 . S
C2057 C2055 1.433 . S
C2057 N2060 1.384 . S
C2058 H2049 0.929 . S
C2058 C2050 1.378 . S
C2058 C2053 1.350 . S
C2059 H2046 0.929 . S
C2059 C2051 1.433 . S
C2059 N2061 1.384 . S
N2060 C2056 1.427 . S
N2060 C2057 1.384 . S
N2061 C2053 1.427 . S
N2061 C2059 1.384 . S
H2062 C2068 0.930 . S
H2063 C2072 0.930 . S
H2064 C2077 0.929 . S
H2065 C2075 0.929 . S
H2066 C2070 0.929 . S
H2067 C2076 0.929 . S
C2068 H2062 0.930 . S
C2068 C2069 1.367 . S
C2068 C2076 1.378 . S
C2069 C2068 1.367 . S
C2069 C2077 1.433 . S
C2070 H2066 0.929 . S
C2070 C2072 1.378 . S
C2070 C2074 1.350 . S
C2071 C2074 1.463 . S
C2071 C2076 1.350 . S
C2071 N2079 1.427 . S
C2072 H2063 0.930 . S
C2072 C2070 1.378 . S
C2072 C2073 1.367 . S
C2073 C2072 1.367 . S
C2073 C2075 1.433 . S
C2074 C2070 1.350 . S
C2074 C2071 1.463 . S
C2074 N2078 1.427 . S
C2075 H2065 0.929 . S
C2075 C2073 1.433 . S
C2075 N2078 1.384 . S
C2076 H2067 0.929 . S
C2076 C2068 1.378 . S
C2076 C2071 1.350 . S
C2077 H2064 0.929 . S
C2077 C2069 1.433 . S
C2077 N2079 1.384 . S
N2078 C2074 1.427 . S
N2078 C2075 1.384 . S
N2079 C2071 1.427 . S
N2079 C2077 1.384 . S
H2080 C2086 0.930 . S
H2081 C2090 0.930 . S
H2082 C2095 0.929 . S
H2083 C2093 0.929 . S
H2084 C2088 0.929 . S
H2085 C2094 0.929 . S
C2086 H2080 0.930 . S
C2086 C2087 1.367 . S
C2086 C2094 1.378 . S
C2087 C2086 1.367 . S
C2087 C2095 1.433 . S
C2088 H2084 0.929 . S
C2088 C2090 1.378 . S
C2088 C2092 1.350 . S
C2089 C2092 1.463 . S
C2089 C2094 1.350 . S
C2089 N2097 1.427 . S
C2090 H2081 0.930 . S
C2090 C2088 1.378 . S
C2090 C2091 1.367 . S
C2091 C2090 1.367 . S
C2091 C2093 1.433 . S
C2092 C2088 1.350 . S
C2092 C2089 1.463 . S
C2092 N2096 1.427 . S
C2093 H2083 0.929 . S
C2093 C2091 1.433 . S
C2093 N2096 1.384 . S
C2094 H2085 0.929 . S
C2094 C2086 1.378 . S
C2094 C2089 1.350 . S
C2095 H2082 0.929 . S
C2095 C2087 1.433 . S
C2095 N2097 1.384 . S
N2096 C2092 1.427 . S
N2096 C2093 1.384 . S
N2097 C2089 1.427 . S
N2097 C2095 1.384 . S
H2098 C2104 0.930 . S
H2099 C2108 0.930 . S
H2100 C2113 0.929 . S
H2101 C2111 0.929 . S
H2102 C2106 0.929 . S
H2103 C2112 0.929 . S
C2104 H2098 0.930 . S
C2104 C2105 1.367 . S
C2104 C2112 1.378 . S
C2105 C2104 1.367 . S
C2105 C2113 1.433 . S
C2106 H2102 0.929 . S
C2106 C2108 1.378 . S
C2106 C2110 1.350 1_556 S
C2107 C2110 1.463 . S
C2107 C2112 1.350 . S
C2107 N2115 1.427 . S
C2108 H2099 0.930 . S
C2108 C2106 1.378 . S
C2108 C2109 1.367 . S
C2109 C2108 1.367 . S
C2109 C2111 1.433 . S
C2110 C2106 1.350 1_554 S
C2110 C2107 1.463 . S
C2110 N2114 1.427 . S
C2111 H2101 0.929 . S
C2111 C2109 1.433 . S
C2111 N2114 1.384 1_556 S
C2112 H2103 0.929 . S
C2112 C2104 1.378 . S
C2112 C2107 1.350 . S
C2113 H2100 0.929 . S
C2113 C2105 1.433 . S
C2113 N2115 1.384 . S
N2114 C2110 1.427 . S
N2114 C2111 1.384 1_554 S
N2115 C2107 1.427 . S
N2115 C2113 1.384 . S
H2116 C2122 0.930 . S
H2117 C2126 0.930 . S
H2118 C2131 0.929 . S
H2119 C2129 0.929 . S
H2120 C2124 0.929 . S
H2121 C2130 0.929 . S
C2122 H2116 0.930 . S
C2122 C2123 1.367 . S
C2122 C2130 1.378 . S
C2123 C2122 1.367 . S
C2123 C2131 1.433 . S
C2124 H2120 0.929 . S
C2124 C2126 1.378 . S
C2124 C2128 1.350 . S
C2125 C2128 1.463 . S
C2125 C2130 1.350 . S
C2125 N2133 1.427 . S
C2126 H2117 0.930 . S
C2126 C2124 1.378 . S
C2126 C2127 1.367 . S
C2127 C2126 1.367 . S
C2127 C2129 1.433 . S
C2128 C2124 1.350 . S
C2128 C2125 1.463 . S
C2128 N2132 1.427 . S
C2129 H2119 0.929 . S
C2129 C2127 1.433 . S
C2129 N2132 1.384 . S
C2130 H2121 0.929 . S
C2130 C2122 1.378 . S
C2130 C2125 1.350 . S
C2131 H2118 0.929 . S
C2131 C2123 1.433 . S
C2131 N2133 1.384 . S
N2132 C2128 1.427 . S
N2132 C2129 1.384 . S
N2133 C2125 1.427 . S
N2133 C2131 1.384 . S
H2134 C2140 0.930 . S
H2135 C2144 0.930 . S
H2136 C2149 0.929 . S
H2137 C2147 0.929 . S
H2138 C2142 0.929 . S
H2139 C2148 0.929 . S
C2140 H2134 0.930 . S
C2140 C2141 1.367 . S
C2140 C2148 1.378 . S
C2141 C2140 1.367 . S
C2141 C2149 1.433 . S
C2142 H2138 0.929 . S
C2142 C2144 1.378 . S
C2142 C2146 1.350 . S
C2143 C2146 1.463 . S
C2143 C2148 1.350 . S
C2143 N2151 1.427 . S
C2144 H2135 0.930 . S
C2144 C2142 1.378 . S
C2144 C2145 1.367 . S
C2145 C2144 1.367 . S
C2145 C2147 1.433 . S
C2146 C2142 1.350 . S
C2146 C2143 1.463 . S
C2146 N2150 1.427 . S
C2147 H2137 0.929 . S
C2147 C2145 1.433 . S
C2147 N2150 1.384 . S
C2148 H2139 0.929 . S
C2148 C2140 1.378 . S
C2148 C2143 1.350 . S
C2149 H2136 0.929 . S
C2149 C2141 1.433 . S
C2149 N2151 1.384 . S
N2150 C2146 1.427 . S
N2150 C2147 1.384 . S
N2151 C2143 1.427 . S
N2151 C2149 1.384 . S
H2152 C2158 0.930 . S
H2153 C2162 0.930 . S
H2154 C2167 0.929 . S
H2155 C2165 0.929 . S
H2156 C2160 0.929 . S
H2157 C2166 0.929 . S
C2158 H2152 0.930 . S
C2158 C2159 1.367 . S
C2158 C2166 1.378 . S
C2159 C2158 1.367 . S
C2159 C2167 1.433 . S
C2160 H2156 0.929 . S
C2160 C2162 1.378 . S
C2160 C2164 1.350 . S
C2161 C2164 1.463 . S
C2161 C2166 1.350 . S
C2161 N2169 1.427 . S
C2162 H2153 0.930 . S
C2162 C2160 1.378 . S
C2162 C2163 1.367 . S
C2163 C2162 1.367 . S
C2163 C2165 1.433 . S
C2164 C2160 1.350 . S
C2164 C2161 1.463 . S
C2164 N2168 1.427 . S
C2165 H2155 0.929 . S
C2165 C2163 1.433 . S
C2165 N2168 1.384 . S
C2166 H2157 0.929 . S
C2166 C2158 1.378 . S
C2166 C2161 1.350 . S
C2167 H2154 0.929 . S
C2167 C2159 1.433 . S
C2167 N2169 1.384 . S
N2168 C2164 1.427 . S
N2168 C2165 1.384 . S
N2169 C2161 1.427 . S
N2169 C2167 1.384 . S
H2170 C2176 0.930 . S
H2171 C2180 0.930 . S
H2172 C2185 0.929 1_455 S
H2173 C2183 0.929 . S
H2174 C2178 0.929 . S
H2175 C2184 0.929 . S
C2176 H2170 0.930 . S
C2176 C2177 1.367 . S
C2176 C2184 1.378 . S
C2177 C2176 1.367 . S
C2177 C2185 1.433 . S
C2178 H2174 0.929 . S
C2178 C2180 1.378 . S
C2178 C2182 1.350 . S
C2179 C2182 1.463 1_556 S
C2179 C2184 1.350 . S
C2179 N2187 1.427 . S
C2180 H2171 0.930 . S
C2180 C2178 1.378 . S
C2180 C2181 1.367 . S
C2181 C2180 1.367 . S
C2181 C2183 1.433 . S
C2182 C2178 1.350 . S
C2182 C2179 1.463 1_554 S
C2182 N2186 1.426 1_554 S
C2183 H2173 0.929 . S
C2183 C2181 1.433 . S
C2183 N2186 1.369 1_554 S
C2184 H2175 0.929 . S
C2184 C2176 1.378 . S
C2184 C2179 1.350 . S
C2185 H2172 0.929 1_655 S
C2185 C2177 1.433 . S
C2185 N2187 1.384 . S
N2186 C2182 1.426 1_556 S
N2186 C2183 1.369 1_556 S
N2187 C2179 1.427 . S
N2187 C2185 1.384 . S
H2188 C2194 0.930 . S
H2189 C2198 0.930 . S
H2190 C2203 0.929 . S
H2191 C2201 0.929 . S
H2192 C2196 0.929 . S
H2193 C2202 0.929 . S
C2194 H2188 0.930 . S
C2194 C2195 1.367 . S
C2194 C2202 1.378 . S
C2195 C2194 1.367 . S
C2195 C2203 1.433 . S
C2196 H2192 0.929 . S
C2196 C2198 1.378 . S
C2196 C2200 1.350 . S
C2197 C2200 1.463 . S
C2197 C2202 1.350 . S
C2197 N2205 1.427 . S
C2198 H2189 0.930 . S
C2198 C2196 1.378 . S
C2198 C2199 1.367 . S
C2199 C2198 1.367 . S
C2199 C2201 1.433 . S
C2200 C2196 1.350 . S
C2200 C2197 1.463 . S
C2200 N2204 1.427 . S
C2201 H2191 0.929 . S
C2201 C2199 1.433 . S
C2201 N2204 1.384 . S
C2202 H2193 0.929 . S
C2202 C2194 1.378 . S
C2202 C2197 1.350 . S
C2203 H2190 0.929 . S
C2203 C2195 1.433 . S
C2203 N2205 1.384 . S
N2204 C2200 1.427 . S
N2204 C2201 1.384 . S
N2205 C2197 1.427 . S
N2205 C2203 1.384 . S
H2206 C2212 0.930 . S
H2207 C2216 0.930 . S
H2208 C2221 0.929 . S
H2209 C2219 0.929 . S
H2210 C2214 0.929 . S
H2211 C2220 0.929 . S
C2212 H2206 0.930 . S
C2212 C2213 1.367 . S
C2212 C2220 1.378 . S
C2213 C2212 1.367 . S
C2213 C2221 1.433 . S
C2214 H2210 0.929 . S
C2214 C2216 1.378 . S
C2214 C2218 1.350 . S
C2215 C2218 1.463 . S
C2215 C2220 1.350 . S
C2215 N2223 1.427 . S
C2216 H2207 0.930 . S
C2216 C2214 1.378 . S
C2216 C2217 1.367 . S
C2217 C2216 1.367 . S
C2217 C2219 1.433 . S
C2218 C2214 1.350 . S
C2218 C2215 1.463 . S
C2218 N2222 1.427 . S
C2219 H2209 0.929 . S
C2219 C2217 1.433 . S
C2219 N2222 1.384 . S
C2220 H2211 0.929 . S
C2220 C2212 1.378 . S
C2220 C2215 1.350 . S
C2221 H2208 0.929 . S
C2221 C2213 1.433 . S
C2221 N2223 1.384 . S
N2222 C2218 1.427 . S
N2222 C2219 1.384 . S
N2223 C2215 1.427 . S
N2223 C2221 1.384 . S
H2224 C2230 0.930 . S
H2225 C2234 0.930 . S
H2226 C2239 0.929 . S
H2227 C2237 0.929 . S
H2228 C2232 0.929 . S
H2229 C2238 0.929 . S
C2230 H2224 0.930 . S
C2230 C2231 1.367 . S
C2230 C2238 1.378 . S
C2231 C2230 1.367 . S
C2231 C2239 1.433 . S
C2232 H2228 0.929 . S
C2232 C2234 1.378 . S
C2232 C2236 1.350 . S
C2233 C2236 1.463 . S
C2233 C2238 1.350 . S
C2233 N2241 1.427 . S
C2234 H2225 0.930 . S
C2234 C2232 1.378 . S
C2234 C2235 1.367 . S
C2235 C2234 1.367 . S
C2235 C2237 1.433 . S
C2236 C2232 1.350 . S
C2236 C2233 1.463 . S
C2236 N2240 1.427 . S
C2237 H2227 0.929 . S
C2237 C2235 1.433 . S
C2237 N2240 1.384 . S
C2238 H2229 0.929 . S
C2238 C2230 1.378 . S
C2238 C2233 1.350 . S
C2239 H2226 0.929 . S
C2239 C2231 1.433 . S
C2239 N2241 1.384 . S
N2240 C2236 1.427 . S
N2240 C2237 1.384 . S
N2241 C2233 1.427 . S
N2241 C2239 1.384 . S
H2242 C2248 0.930 . S
H2243 C2252 0.930 . S
H2244 C2257 0.929 . S
H2245 C2255 0.929 . S
H2246 C2250 0.929 . S
H2247 C2256 0.929 . S
C2248 H2242 0.930 . S
C2248 C2249 1.367 . S
C2248 C2256 1.378 . S
C2249 C2248 1.367 . S
C2249 C2257 1.433 . S
C2250 H2246 0.929 . S
C2250 C2252 1.378 . S
C2250 C2254 1.350 . S
C2251 C2254 1.463 . S
C2251 C2256 1.350 . S
C2251 N2259 1.427 . S
C2252 H2243 0.930 . S
C2252 C2250 1.378 . S
C2252 C2253 1.367 . S
C2253 C2252 1.367 . S
C2253 C2255 1.433 . S
C2254 C2250 1.350 . S
C2254 C2251 1.463 . S
C2254 N2258 1.427 . S
C2255 H2245 0.929 . S
C2255 C2253 1.433 . S
C2255 N2258 1.384 . S
C2256 H2247 0.929 . S
C2256 C2248 1.378 . S
C2256 C2251 1.350 . S
C2257 H2244 0.929 . S
C2257 C2249 1.433 . S
C2257 N2259 1.384 . S
N2258 C2254 1.427 . S
N2258 C2255 1.384 . S
N2259 C2251 1.427 . S
N2259 C2257 1.384 . S
H2260 C2266 0.930 . S
H2261 C2270 0.930 . S
H2262 C2275 0.929 . S
H2263 C2273 0.929 . S
H2264 C2268 0.929 . S
H2265 C2274 0.929 . S
C2266 H2260 0.930 . S
C2266 C2267 1.367 . S
C2266 C2274 1.378 . S
C2267 C2266 1.367 . S
C2267 C2275 1.433 . S
C2268 H2264 0.929 . S
C2268 C2270 1.378 . S
C2268 C2272 1.350 . S
C2269 C2272 1.463 . S
C2269 C2274 1.350 . S
C2269 N2277 1.427 . S
C2270 H2261 0.930 . S
C2270 C2268 1.378 . S
C2270 C2271 1.367 . S
C2271 C2270 1.367 . S
C2271 C2273 1.433 . S
C2272 C2268 1.350 . S
C2272 C2269 1.463 . S
C2272 N2276 1.427 . S
C2273 H2263 0.929 . S
C2273 C2271 1.433 . S
C2273 N2276 1.384 . S
C2274 H2265 0.929 . S
C2274 C2266 1.378 . S
C2274 C2269 1.350 . S
C2275 H2262 0.929 . S
C2275 C2267 1.433 . S
C2275 N2277 1.384 . S
N2276 C2272 1.427 . S
N2276 C2273 1.384 . S
N2277 C2269 1.427 . S
N2277 C2275 1.384 . S
H2278 C2284 0.930 . S
H2279 C2288 0.930 . S
H2280 C2293 0.929 . S
H2281 C2291 0.929 . S
H2282 C2286 0.929 . S
H2283 C2292 0.929 . S
C2284 H2278 0.930 . S
C2284 C2285 1.367 . S
C2284 C2292 1.378 . S
C2285 C2284 1.367 . S
C2285 C2293 1.433 . S
C2286 H2282 0.929 . S
C2286 C2288 1.378 . S
C2286 C2290 1.350 . S
C2287 C2290 1.463 . S
C2287 C2292 1.350 . S
C2287 N2295 1.427 . S
C2288 H2279 0.930 . S
C2288 C2286 1.378 . S
C2288 C2289 1.367 . S
C2289 C2288 1.367 . S
C2289 C2291 1.433 . S
C2290 C2286 1.350 . S
C2290 C2287 1.463 . S
C2290 N2294 1.427 . S
C2291 H2281 0.929 . S
C2291 C2289 1.433 . S
C2291 N2294 1.384 . S
C2292 H2283 0.929 . S
C2292 C2284 1.378 . S
C2292 C2287 1.350 . S
C2293 H2280 0.929 . S
C2293 C2285 1.433 . S
C2293 N2295 1.384 . S
N2294 C2290 1.427 . S
N2294 C2291 1.384 . S
N2295 C2287 1.427 . S
N2295 C2293 1.384 . S
H2296 C2302 0.930 . S
H2297 C2306 0.930 . S
H2298 C2311 0.929 . S
H2299 C2309 0.929 . S
H2300 C2304 0.929 . S
H2301 C2310 0.929 . S
C2302 H2296 0.930 . S
C2302 C2303 1.367 . S
C2302 C2310 1.378 . S
C2303 C2302 1.367 . S
C2303 C2311 1.433 . S
C2304 H2300 0.929 . S
C2304 C2306 1.378 . S
C2304 C2308 1.350 . S
C2305 C2308 1.463 . S
C2305 C2310 1.350 . S
C2305 N2313 1.427 . S
C2306 H2297 0.930 . S
C2306 C2304 1.378 . S
C2306 C2307 1.367 . S
C2307 C2306 1.367 . S
C2307 C2309 1.433 . S
C2308 C2304 1.350 . S
C2308 C2305 1.463 . S
C2308 N2312 1.427 . S
C2309 H2299 0.929 . S
C2309 C2307 1.433 . S
C2309 N2312 1.384 . S
C2310 H2301 0.929 . S
C2310 C2302 1.378 . S
C2310 C2305 1.350 . S
C2311 H2298 0.929 . S
C2311 C2303 1.433 . S
C2311 N2313 1.384 . S
N2312 C2308 1.427 . S
N2312 C2309 1.384 . S
N2313 C2305 1.427 . S
N2313 C2311 1.384 . S
H2314 C2320 0.930 . S
H2315 C2324 0.930 . S
H2316 C2329 0.929 . S
H2317 C2327 0.929 . S
H2318 C2322 0.929 . S
H2319 C2328 0.929 . S
C2320 H2314 0.930 . S
C2320 C2321 1.367 . S
C2320 C2328 1.378 . S
C2321 C2320 1.367 . S
C2321 C2329 1.433 . S
C2322 H2318 0.929 . S
C2322 C2324 1.378 . S
C2322 C2326 1.350 . S
C2323 C2326 1.463 . S
C2323 C2328 1.350 . S
C2323 N2331 1.427 . S
C2324 H2315 0.930 . S
C2324 C2322 1.378 . S
C2324 C2325 1.367 . S
C2325 C2324 1.367 . S
C2325 C2327 1.433 . S
C2326 C2322 1.350 . S
C2326 C2323 1.463 . S
C2326 N2330 1.427 . S
C2327 H2317 0.929 . S
C2327 C2325 1.433 . S
C2327 N2330 1.384 . S
C2328 H2319 0.929 . S
C2328 C2320 1.378 . S
C2328 C2323 1.350 . S
C2329 H2316 0.929 . S
C2329 C2321 1.433 . S
C2329 N2331 1.384 . S
N2330 C2326 1.427 . S
N2330 C2327 1.384 . S
N2331 C2323 1.427 . S
N2331 C2329 1.384 . S
H2332 C2338 0.930 . S
H2333 C2342 0.930 . S
H2334 C2347 0.929 . S
H2335 C2345 0.929 . S
H2336 C2340 0.929 . S
H2337 C2346 0.929 . S
C2338 H2332 0.930 . S
C2338 C2339 1.367 . S
C2338 C2346 1.378 . S
C2339 C2338 1.367 . S
C2339 C2347 1.433 . S
C2340 H2336 0.929 . S
C2340 C2342 1.378 . S
C2340 C2344 1.350 . S
C2341 C2344 1.463 . S
C2341 C2346 1.350 . S
C2341 N2349 1.427 . S
C2342 H2333 0.930 . S
C2342 C2340 1.378 . S
C2342 C2343 1.367 . S
C2343 C2342 1.367 . S
C2343 C2345 1.433 . S
C2344 C2340 1.350 . S
C2344 C2341 1.463 . S
C2344 N2348 1.427 . S
C2345 H2335 0.929 . S
C2345 C2343 1.433 . S
C2345 N2348 1.384 . S
C2346 H2337 0.929 . S
C2346 C2338 1.378 . S
C2346 C2341 1.350 . S
C2347 H2334 0.929 . S
C2347 C2339 1.433 . S
C2347 N2349 1.384 . S
N2348 C2344 1.427 . S
N2348 C2345 1.384 . S
N2349 C2341 1.427 . S
N2349 C2347 1.384 . S
H2350 C2356 0.930 . S
H2351 C2360 0.930 . S
H2352 C2365 0.929 . S
H2353 C2363 0.929 . S
H2354 C2358 0.929 . S
H2355 C2364 0.929 . S
C2356 H2350 0.930 . S
C2356 C2357 1.367 . S
C2356 C2364 1.378 . S
C2357 C2356 1.367 . S
C2357 C2365 1.433 . S
C2358 H2354 0.929 . S
C2358 C2360 1.378 . S
C2358 C2362 1.350 . S
C2359 C2362 1.463 . S
C2359 C2364 1.350 . S
C2359 N2367 1.427 . S
C2360 H2351 0.930 . S
C2360 C2358 1.378 . S
C2360 C2361 1.367 . S
C2361 C2360 1.367 . S
C2361 C2363 1.433 . S
C2362 C2358 1.350 . S
C2362 C2359 1.463 . S
C2362 N2366 1.427 . S
C2363 H2353 0.929 . S
C2363 C2361 1.433 . S
C2363 N2366 1.384 . S
C2364 H2355 0.929 . S
C2364 C2356 1.378 . S
C2364 C2359 1.350 . S
C2365 H2352 0.929 . S
C2365 C2357 1.433 . S
C2365 N2367 1.384 . S
N2366 C2362 1.427 . S
N2366 C2363 1.384 . S
N2367 C2359 1.427 . S
N2367 C2365 1.384 . S
H2368 C2374 0.930 . S
H2369 C2378 0.930 . S
H2370 C2383 0.929 . S
H2371 C2381 0.929 . S
H2372 C2376 0.929 . S
H2373 C2382 0.929 . S
C2374 H2368 0.930 . S
C2374 C2375 1.367 . S
C2374 C2382 1.378 . S
C2375 C2374 1.367 . S
C2375 C2383 1.433 . S
C2376 H2372 0.929 . S
C2376 C2378 1.378 . S
C2376 C2380 1.350 . S
C2377 C2380 1.463 . S
C2377 C2382 1.350 . S
C2377 N2385 1.427 . S
C2378 H2369 0.930 . S
C2378 C2376 1.378 . S
C2378 C2379 1.367 . S
C2379 C2378 1.367 . S
C2379 C2381 1.433 . S
C2380 C2376 1.350 . S
C2380 C2377 1.463 . S
C2380 N2384 1.427 . S
C2381 H2371 0.929 . S
C2381 C2379 1.433 . S
C2381 N2384 1.384 . S
C2382 H2373 0.929 . S
C2382 C2374 1.378 . S
C2382 C2377 1.350 . S
C2383 H2370 0.929 . S
C2383 C2375 1.433 . S
C2383 N2385 1.384 . S
N2384 C2380 1.427 . S
N2384 C2381 1.384 . S
N2385 C2377 1.427 . S
N2385 C2383 1.384 . S
H2386 C2392 0.930 . S
H2387 C2396 0.930 . S
H2388 C2401 0.929 . S
H2389 C2399 0.929 . S
H2390 C2394 0.929 . S
H2391 C2400 0.929 . S
C2392 H2386 0.930 . S
C2392 C2393 1.367 . S
C2392 C2400 1.378 . S
C2393 C2392 1.367 . S
C2393 C2401 1.433 . S
C2394 H2390 0.929 . S
C2394 C2396 1.378 . S
C2394 C2398 1.350 . S
C2395 C2398 1.463 . S
C2395 C2400 1.350 . S
C2395 N2403 1.427 . S
C2396 H2387 0.930 . S
C2396 C2394 1.378 . S
C2396 C2397 1.367 . S
C2397 C2396 1.367 . S
C2397 C2399 1.433 . S
C2398 C2394 1.350 . S
C2398 C2395 1.463 . S
C2398 N2402 1.427 . S
C2399 H2389 0.929 . S
C2399 C2397 1.433 . S
C2399 N2402 1.384 . S
C2400 H2391 0.929 . S
C2400 C2392 1.378 . S
C2400 C2395 1.350 . S
C2401 H2388 0.929 . S
C2401 C2393 1.433 . S
C2401 N2403 1.384 . S
N2402 C2398 1.427 . S
N2402 C2399 1.384 . S
N2403 C2395 1.427 . S
N2403 C2401 1.384 . S
H2404 C2410 0.930 . S
H2405 C2414 0.930 . S
H2406 C2419 0.929 . S
H2407 C2417 0.929 . S
H2408 C2412 0.929 . S
H2409 C2418 0.929 . S
C2410 H2404 0.930 . S
C2410 C2411 1.367 . S
C2410 C2418 1.378 . S
C2411 C2410 1.367 . S
C2411 C2419 1.433 . S
C2412 H2408 0.929 . S
C2412 C2414 1.378 . S
C2412 C2416 1.350 . S
C2413 C2416 1.463 . S
C2413 C2418 1.350 . S
C2413 N2421 1.427 . S
C2414 H2405 0.930 . S
C2414 C2412 1.378 . S
C2414 C2415 1.367 . S
C2415 C2414 1.367 . S
C2415 C2417 1.433 . S
C2416 C2412 1.350 . S
C2416 C2413 1.463 . S
C2416 N2420 1.427 . S
C2417 H2407 0.929 . S
C2417 C2415 1.433 . S
C2417 N2420 1.384 . S
C2418 H2409 0.929 . S
C2418 C2410 1.378 . S
C2418 C2413 1.350 . S
C2419 H2406 0.929 . S
C2419 C2411 1.433 . S
C2419 N2421 1.384 . S
N2420 C2416 1.427 . S
N2420 C2417 1.384 . S
N2421 C2413 1.427 . S
N2421 C2419 1.384 . S
H2422 C2428 0.930 . S
H2423 C2432 0.930 . S
H2424 C2437 0.929 . S
H2425 C2435 0.929 . S
H2426 C2430 0.929 . S
H2427 C2436 0.929 . S
C2428 H2422 0.930 . S
C2428 C2429 1.367 . S
C2428 C2436 1.378 . S
C2429 C2428 1.367 . S
C2429 C2437 1.433 . S
C2430 H2426 0.929 . S
C2430 C2432 1.378 . S
C2430 C2434 1.350 . S
C2431 C2434 1.463 . S
C2431 C2436 1.350 . S
C2431 N2439 1.427 . S
C2432 H2423 0.930 . S
C2432 C2430 1.378 . S
C2432 C2433 1.367 . S
C2433 C2432 1.367 . S
C2433 C2435 1.433 . S
C2434 C2430 1.350 . S
C2434 C2431 1.463 . S
C2434 N2438 1.427 . S
C2435 H2425 0.929 . S
C2435 C2433 1.433 . S
C2435 N2438 1.384 . S
C2436 H2427 0.929 . S
C2436 C2428 1.378 . S
C2436 C2431 1.350 . S
C2437 H2424 0.929 . S
C2437 C2429 1.433 . S
C2437 N2439 1.384 . S
N2438 C2434 1.427 . S
N2438 C2435 1.384 . S
N2439 C2431 1.427 . S
N2439 C2437 1.384 . S
H2440 C2446 0.930 . S
H2441 C2450 0.930 . S
H2442 C2455 0.929 . S
H2443 C2453 0.929 . S
H2444 C2448 0.929 . S
H2445 C2454 0.929 . S
C2446 H2440 0.930 . S
C2446 C2447 1.367 . S
C2446 C2454 1.378 . S
C2447 C2446 1.367 . S
C2447 C2455 1.433 . S
C2448 H2444 0.929 . S
C2448 C2450 1.378 . S
C2448 C2452 1.350 . S
C2449 C2452 1.463 . S
C2449 C2454 1.350 . S
C2449 N2457 1.427 . S
C2450 H2441 0.930 . S
C2450 C2448 1.378 . S
C2450 C2451 1.367 . S
C2451 C2450 1.367 . S
C2451 C2453 1.433 . S
C2452 C2448 1.350 . S
C2452 C2449 1.463 . S
C2452 N2456 1.427 . S
C2453 H2443 0.929 . S
C2453 C2451 1.433 . S
C2453 N2456 1.384 . S
C2454 H2445 0.929 . S
C2454 C2446 1.378 . S
C2454 C2449 1.350 . S
C2455 H2442 0.929 . S
C2455 C2447 1.433 . S
C2455 N2457 1.384 . S
N2456 C2452 1.427 . S
N2456 C2453 1.384 . S
N2457 C2449 1.427 . S
N2457 C2455 1.384 . S
H2458 C2464 0.930 . S
H2459 C2468 0.930 . S
H2460 C2473 0.929 . S
H2461 C2471 0.929 . S
H2462 C2466 0.929 . S
H2463 C2472 0.929 . S
C2464 H2458 0.930 . S
C2464 C2465 1.367 . S
C2464 C2472 1.378 . S
C2465 C2464 1.367 . S
C2465 C2473 1.433 . S
C2466 H2462 0.929 . S
C2466 C2468 1.378 . S
C2466 C2470 1.350 . S
C2467 C2470 1.463 . S
C2467 C2472 1.350 . S
C2467 N2475 1.427 . S
C2468 H2459 0.930 . S
C2468 C2466 1.378 . S
C2468 C2469 1.367 . S
C2469 C2468 1.367 . S
C2469 C2471 1.433 . S
C2470 C2466 1.350 . S
C2470 C2467 1.463 . S
C2470 N2474 1.427 . S
C2471 H2461 0.929 . S
C2471 C2469 1.433 . S
C2471 N2474 1.384 . S
C2472 H2463 0.929 . S
C2472 C2464 1.378 . S
C2472 C2467 1.350 . S
C2473 H2460 0.929 . S
C2473 C2465 1.433 . S
C2473 N2475 1.384 . S
N2474 C2470 1.427 . S
N2474 C2471 1.384 . S
N2475 C2467 1.427 . S
N2475 C2473 1.384 . S
H2476 C2482 0.930 . S
H2477 C2486 0.930 . S
H2478 C2491 0.929 . S
H2479 C2489 0.929 . S
H2480 C2484 0.929 . S
H2481 C2490 0.929 . S
C2482 H2476 0.930 . S
C2482 C2483 1.367 . S
C2482 C2490 1.378 . S
C2483 C2482 1.367 . S
C2483 C2491 1.433 . S
C2484 H2480 0.929 . S
C2484 C2486 1.378 . S
C2484 C2488 1.350 . S
C2485 C2488 1.463 . S
C2485 C2490 1.350 . S
C2485 N2493 1.427 . S
C2486 H2477 0.930 . S
C2486 C2484 1.378 . S
C2486 C2487 1.367 . S
C2487 C2486 1.367 . S
C2487 C2489 1.433 . S
C2488 C2484 1.350 . S
C2488 C2485 1.463 . S
C2488 N2492 1.427 . S
C2489 H2479 0.929 . S
C2489 C2487 1.433 . S
C2489 N2492 1.384 . S
C2490 H2481 0.929 . S
C2490 C2482 1.378 . S
C2490 C2485 1.350 . S
C2491 H2478 0.929 . S
C2491 C2483 1.433 . S
C2491 N2493 1.384 . S
N2492 C2488 1.427 . S
N2492 C2489 1.384 . S
N2493 C2485 1.427 . S
N2493 C2491 1.384 . S
H2494 C2500 0.930 . S
H2495 C2504 0.930 . S
H2496 C2509 0.929 . S
H2497 C2507 0.929 . S
H2498 C2502 0.929 1_655 S
H2499 C2508 0.929 . S
C2500 H2494 0.930 . S
C2500 C2501 1.367 . S
C2500 C2508 1.378 . S
C2501 C2500 1.367 . S
C2501 C2509 1.433 . S
C2502 H2498 0.929 1_455 S
C2502 C2504 1.378 . S
C2502 C2506 1.350 . S
C2503 C2506 1.463 1_655 S
C2503 C2508 1.350 . S
C2503 N2511 1.427 . S
C2504 H2495 0.930 . S
C2504 C2502 1.378 . S
C2504 C2505 1.367 . S
C2505 C2504 1.367 . S
C2505 C2507 1.433 . S
C2506 C2502 1.350 . S
C2506 C2503 1.463 1_455 S
C2506 N2510 1.427 . S
C2507 H2497 0.929 . S
C2507 C2505 1.433 . S
C2507 N2510 1.384 . S
C2508 H2499 0.929 . S
C2508 C2500 1.378 . S
C2508 C2503 1.350 . S
C2509 H2496 0.929 . S
C2509 C2501 1.433 . S
C2509 N2511 1.384 . S
N2510 C2506 1.427 . S
N2510 C2507 1.384 . S
N2511 C2503 1.427 . S
N2511 C2509 1.384 . S
H2512 C2518 0.930 . S
H2513 C2522 0.930 . S
H2514 C2527 0.929 . S
H2515 C2525 0.929 . S
H2516 C2520 0.929 . S
H2517 C2526 0.929 . S
C2518 H2512 0.930 . S
C2518 C2519 1.367 . S
C2518 C2526 1.378 . S
C2519 C2518 1.367 . S
C2519 C2527 1.433 . S
C2520 H2516 0.929 . S
C2520 C2522 1.378 . S
C2520 C2524 1.350 . S
C2521 C2524 1.463 . S
C2521 C2526 1.350 . S
C2521 N2529 1.427 . S
C2522 H2513 0.930 . S
C2522 C2520 1.378 . S
C2522 C2523 1.367 . S
C2523 C2522 1.367 . S
C2523 C2525 1.433 . S
C2524 C2520 1.350 . S
C2524 C2521 1.463 . S
C2524 N2528 1.427 . S
C2525 H2515 0.929 . S
C2525 C2523 1.433 . S
C2525 N2528 1.384 . S
C2526 H2517 0.929 . S
C2526 C2518 1.378 . S
C2526 C2521 1.350 . S
C2527 H2514 0.929 . S
C2527 C2519 1.433 . S
C2527 N2529 1.384 . S
N2528 C2524 1.427 . S
N2528 C2525 1.384 . S
N2529 C2521 1.427 . S
N2529 C2527 1.384 . S
H2530 C2536 0.930 . S
H2531 C2540 0.930 . S
H2532 C2545 0.929 . S
H2533 C2543 0.929 . S
H2534 C2538 0.929 1_556 S
H2535 C2544 0.929 1_554 S
C2536 H2530 0.930 . S
C2536 C2537 1.367 . S
C2536 C2544 1.378 . S
C2537 C2536 1.367 . S
C2537 C2545 1.433 . S
C2538 H2534 0.929 1_554 S
C2538 C2540 1.378 . S
C2538 C2542 1.350 . S
C2539 C2542 1.463 1_556 S
C2539 C2544 1.350 . S
C2539 N2547 1.427 . S
C2540 H2531 0.930 . S
C2540 C2538 1.378 . S
C2540 C2541 1.367 . S
C2541 C2540 1.367 . S
C2541 C2543 1.433 . S
C2542 C2538 1.350 . S
C2542 C2539 1.463 1_554 S
C2542 N2546 1.427 . S
C2543 H2533 0.929 . S
C2543 C2541 1.433 . S
C2543 N2546 1.384 . S
C2544 H2535 0.929 1_556 S
C2544 C2536 1.378 . S
C2544 C2539 1.350 . S
C2545 H2532 0.929 . S
C2545 C2537 1.433 . S
C2545 N2547 1.384 . S
N2546 C2542 1.427 . S
N2546 C2543 1.384 . S
N2547 C2539 1.427 . S
N2547 C2545 1.384 . S
H2548 C2554 0.930 . S
H2549 C2558 0.930 . S
H2550 C2563 0.929 . S
H2551 C2561 0.929 . S
H2552 C2556 0.929 . S
H2553 C2562 0.929 . S
C2554 H2548 0.930 . S
C2554 C2555 1.367 . S
C2554 C2562 1.378 . S
C2555 C2554 1.367 . S
C2555 C2563 1.433 . S
C2556 H2552 0.929 . S
C2556 C2558 1.378 . S
C2556 C2560 1.350 . S
C2557 C2560 1.463 . S
C2557 C2562 1.350 . S
C2557 N2565 1.427 . S
C2558 H2549 0.930 . S
C2558 C2556 1.378 . S
C2558 C2559 1.367 . S
C2559 C2558 1.367 . S
C2559 C2561 1.433 . S
C2560 C2556 1.350 . S
C2560 C2557 1.463 . S
C2560 N2564 1.427 . S
C2561 H2551 0.929 . S
C2561 C2559 1.433 . S
C2561 N2564 1.384 . S
C2562 H2553 0.929 . S
C2562 C2554 1.378 . S
C2562 C2557 1.350 . S
C2563 H2550 0.929 . S
C2563 C2555 1.433 . S
C2563 N2565 1.384 . S
N2564 C2560 1.427 . S
N2564 C2561 1.384 . S
N2565 C2557 1.427 . S
N2565 C2563 1.384 . S
H2566 C2572 0.930 . S
H2567 C2576 0.930 . S
H2568 C2581 0.929 . S
H2569 C2579 0.929 . S
H2570 C2574 0.929 . S
H2571 C2580 0.929 . S
C2572 H2566 0.930 . S
C2572 C2573 1.367 . S
C2572 C2580 1.378 . S
C2573 C2572 1.367 . S
C2573 C2581 1.433 . S
C2574 H2570 0.929 . S
C2574 C2576 1.378 . S
C2574 C2578 1.350 . S
C2575 C2578 1.463 . S
C2575 C2580 1.350 . S
C2575 N2583 1.427 . S
C2576 H2567 0.930 . S
C2576 C2574 1.378 . S
C2576 C2577 1.367 . S
C2577 C2576 1.367 . S
C2577 C2579 1.433 . S
C2578 C2574 1.350 . S
C2578 C2575 1.463 . S
C2578 N2582 1.427 . S
C2579 H2569 0.929 . S
C2579 C2577 1.433 . S
C2579 N2582 1.384 . S
C2580 H2571 0.929 . S
C2580 C2572 1.378 . S
C2580 C2575 1.350 . S
C2581 H2568 0.929 . S
C2581 C2573 1.433 . S
C2581 N2583 1.384 . S
N2582 C2578 1.427 . S
N2582 C2579 1.384 . S
N2583 C2575 1.427 . S
N2583 C2581 1.384 . S
H2584 C2590 0.930 . S
H2585 C2594 0.930 . S
H2586 C2599 0.929 . S
H2587 C2597 0.929 . S
H2588 C2592 0.929 . S
H2589 C2598 0.929 . S
C2590 H2584 0.930 . S
C2590 C2591 1.367 . S
C2590 C2598 1.378 . S
C2591 C2590 1.367 . S
C2591 C2599 1.433 . S
C2592 H2588 0.929 . S
C2592 C2594 1.378 . S
C2592 C2596 1.350 . S
C2593 C2596 1.463 . S
C2593 C2598 1.350 . S
C2593 N2601 1.427 . S
C2594 H2585 0.930 . S
C2594 C2592 1.378 . S
C2594 C2595 1.367 . S
C2595 C2594 1.367 . S
C2595 C2597 1.433 . S
C2596 C2592 1.350 . S
C2596 C2593 1.463 . S
C2596 N2600 1.427 . S
C2597 H2587 0.929 . S
C2597 C2595 1.433 . S
C2597 N2600 1.384 . S
C2598 H2589 0.929 . S
C2598 C2590 1.378 . S
C2598 C2593 1.350 . S
C2599 H2586 0.929 . S
C2599 C2591 1.433 . S
C2599 N2601 1.384 . S
N2600 C2596 1.427 . S
N2600 C2597 1.384 . S
N2601 C2593 1.427 . S
N2601 C2599 1.384 . S
H2602 C2608 0.930 . S
H2603 C2612 0.930 . S
H2604 C2617 0.929 . S
H2605 C2615 0.929 . S
H2606 C2610 0.929 . S
H2607 C2616 0.929 . S
C2608 H2602 0.930 . S
C2608 C2609 1.367 . S
C2608 C2616 1.378 . S
C2609 C2608 1.367 . S
C2609 C2617 1.433 . S
C2610 H2606 0.929 . S
C2610 C2612 1.378 1_554 S
C2610 C2614 1.350 . S
C2611 C2614 1.463 . S
C2611 C2616 1.350 . S
C2611 N2619 1.427 . S
C2612 H2603 0.930 . S
C2612 C2610 1.378 1_556 S
C2612 C2613 1.367 . S
C2613 C2612 1.367 . S
C2613 C2615 1.433 . S
C2614 C2610 1.350 . S
C2614 C2611 1.463 . S
C2614 N2618 1.427 1_554 S
C2615 H2605 0.929 . S
C2615 C2613 1.433 . S
C2615 N2618 1.384 . S
C2616 H2607 0.929 . S
C2616 C2608 1.378 . S
C2616 C2611 1.350 . S
C2617 H2604 0.929 . S
C2617 C2609 1.433 . S
C2617 N2619 1.384 . S
N2618 C2614 1.427 1_556 S
N2618 C2615 1.384 . S
N2619 C2611 1.427 . S
N2619 C2617 1.384 . S
H2620 C2626 0.930 . S
H2621 C2630 0.930 . S
H2622 C2635 0.929 . S
H2623 C2633 0.929 . S
H2624 C2628 0.929 . S
H2625 C2634 0.929 . S
C2626 H2620 0.930 . S
C2626 C2627 1.367 . S
C2626 C2634 1.378 . S
C2627 C2626 1.367 . S
C2627 C2635 1.433 . S
C2628 H2624 0.929 . S
C2628 C2630 1.378 . S
C2628 C2632 1.350 . S
C2629 C2632 1.463 . S
C2629 C2634 1.350 . S
C2629 N2637 1.427 . S
C2630 H2621 0.930 . S
C2630 C2628 1.378 . S
C2630 C2631 1.367 . S
C2631 C2630 1.367 . S
C2631 C2633 1.433 . S
C2632 C2628 1.350 . S
C2632 C2629 1.463 . S
C2632 N2636 1.427 . S
C2633 H2623 0.929 . S
C2633 C2631 1.433 . S
C2633 N2636 1.384 . S
C2634 H2625 0.929 . S
C2634 C2626 1.378 . S
C2634 C2629 1.350 . S
C2635 H2622 0.929 . S
C2635 C2627 1.433 . S
C2635 N2637 1.384 . S
N2636 C2632 1.427 . S
N2636 C2633 1.384 . S
N2637 C2629 1.427 . S
N2637 C2635 1.384 . S
H2638 C2644 0.930 . S
H2639 C2648 0.930 . S
H2640 C2653 0.929 . S
H2641 C2651 0.929 . S
H2642 C2646 0.929 . S
H2643 C2652 0.929 . S
C2644 H2638 0.930 . S
C2644 C2645 1.367 . S
C2644 C2652 1.378 . S
C2645 C2644 1.367 . S
C2645 C2653 1.433 . S
C2646 H2642 0.929 . S
C2646 C2648 1.378 . S
C2646 C2650 1.350 . S
C2647 C2650 1.463 . S
C2647 C2652 1.350 . S
C2647 N2655 1.427 . S
C2648 H2639 0.930 . S
C2648 C2646 1.378 . S
C2648 C2649 1.367 . S
C2649 C2648 1.367 . S
C2649 C2651 1.433 . S
C2650 C2646 1.350 . S
C2650 C2647 1.463 . S
C2650 N2654 1.427 . S
C2651 H2641 0.929 . S
C2651 C2649 1.433 . S
C2651 N2654 1.384 . S
C2652 H2643 0.929 . S
C2652 C2644 1.378 . S
C2652 C2647 1.350 . S
C2653 H2640 0.929 . S
C2653 C2645 1.433 . S
C2653 N2655 1.384 . S
N2654 C2650 1.427 . S
N2654 C2651 1.384 . S
N2655 C2647 1.427 . S
N2655 C2653 1.384 . S
H2656 C2662 0.930 . S
H2657 C2666 0.930 . S
H2658 C2671 0.929 . S
H2659 C2669 0.929 . S
H2660 C2664 0.929 . S
H2661 C2670 0.929 . S
C2662 H2656 0.930 . S
C2662 C2663 1.367 . S
C2662 C2670 1.378 . S
C2663 C2662 1.367 . S
C2663 C2671 1.433 . S
C2664 H2660 0.929 . S
C2664 C2666 1.378 . S
C2664 C2668 1.350 . S
C2665 C2668 1.463 . S
C2665 C2670 1.350 . S
C2665 N2673 1.427 . S
C2666 H2657 0.930 . S
C2666 C2664 1.378 . S
C2666 C2667 1.367 . S
C2667 C2666 1.367 . S
C2667 C2669 1.433 . S
C2668 C2664 1.350 . S
C2668 C2665 1.463 . S
C2668 N2672 1.427 . S
C2669 H2659 0.929 . S
C2669 C2667 1.433 . S
C2669 N2672 1.384 . S
C2670 H2661 0.929 . S
C2670 C2662 1.378 . S
C2670 C2665 1.350 . S
C2671 H2658 0.929 . S
C2671 C2663 1.433 . S
C2671 N2673 1.384 . S
N2672 C2668 1.427 . S
N2672 C2669 1.384 . S
N2673 C2665 1.427 . S
N2673 C2671 1.384 . S
H2674 C2680 0.930 . S
H2675 C2684 0.930 . S
H2676 C2689 0.929 . S
H2677 C2687 0.929 . S
H2678 C2682 0.929 . S
H2679 C2688 0.929 . S
C2680 H2674 0.930 . S
C2680 C2681 1.367 . S
C2680 C2688 1.378 . S
C2681 C2680 1.367 . S
C2681 C2689 1.433 . S
C2682 H2678 0.929 . S
C2682 C2684 1.378 . S
C2682 C2686 1.350 . S
C2683 C2686 1.463 . S
C2683 C2688 1.350 . S
C2683 N2691 1.427 . S
C2684 H2675 0.930 . S
C2684 C2682 1.378 . S
C2684 C2685 1.367 . S
C2685 C2684 1.367 . S
C2685 C2687 1.433 . S
C2686 C2682 1.350 . S
C2686 C2683 1.463 . S
C2686 N2690 1.427 . S
C2687 H2677 0.929 . S
C2687 C2685 1.433 . S
C2687 N2690 1.384 . S
C2688 H2679 0.929 . S
C2688 C2680 1.378 . S
C2688 C2683 1.350 . S
C2689 H2676 0.929 . S
C2689 C2681 1.433 . S
C2689 N2691 1.384 . S
N2690 C2686 1.427 . S
N2690 C2687 1.384 . S
N2691 C2683 1.427 . S
N2691 C2689 1.384 . S
H2692 C2698 0.930 . S
H2693 C2702 0.930 . S
H2694 C2707 0.929 . S
H2695 C2705 0.929 . S
H2696 C2700 0.929 . S
H2697 C2706 0.929 . S
C2698 H2692 0.930 . S
C2698 C2699 1.367 . S
C2698 C2706 1.378 . S
C2699 C2698 1.367 . S
C2699 C2707 1.433 . S
C2700 H2696 0.929 . S
C2700 C2702 1.378 . S
C2700 C2704 1.350 . S
C2701 C2704 1.463 . S
C2701 C2706 1.350 . S
C2701 N2709 1.427 . S
C2702 H2693 0.930 . S
C2702 C2700 1.378 . S
C2702 C2703 1.367 . S
C2703 C2702 1.367 . S
C2703 C2705 1.433 . S
C2704 C2700 1.350 . S
C2704 C2701 1.463 . S
C2704 N2708 1.427 . S
C2705 H2695 0.929 . S
C2705 C2703 1.433 . S
C2705 N2708 1.384 . S
C2706 H2697 0.929 . S
C2706 C2698 1.378 . S
C2706 C2701 1.350 . S
C2707 H2694 0.929 . S
C2707 C2699 1.433 . S
C2707 N2709 1.384 . S
N2708 C2704 1.427 . S
N2708 C2705 1.384 . S
N2709 C2701 1.427 . S
N2709 C2707 1.384 . S
H2710 C2716 0.930 . S
H2711 C2720 0.930 . S
H2712 C2725 0.929 . S
H2713 C2723 0.929 . S
H2714 C2718 0.929 . S
H2715 C2724 0.929 . S
C2716 H2710 0.930 . S
C2716 C2717 1.367 . S
C2716 C2724 1.378 . S
C2717 C2716 1.367 . S
C2717 C2725 1.433 . S
C2718 H2714 0.929 . S
C2718 C2720 1.378 . S
C2718 C2722 1.350 . S
C2719 C2722 1.463 . S
C2719 C2724 1.350 . S
C2719 N2727 1.427 . S
C2720 H2711 0.930 . S
C2720 C2718 1.378 . S
C2720 C2721 1.367 . S
C2721 C2720 1.367 . S
C2721 C2723 1.433 . S
C2722 C2718 1.350 . S
C2722 C2719 1.463 . S
C2722 N2726 1.427 . S
C2723 H2713 0.929 . S
C2723 C2721 1.433 . S
C2723 N2726 1.384 . S
C2724 H2715 0.929 . S
C2724 C2716 1.378 . S
C2724 C2719 1.350 . S
C2725 H2712 0.929 . S
C2725 C2717 1.433 . S
C2725 N2727 1.384 . S
N2726 C2722 1.427 . S
N2726 C2723 1.384 . S
N2727 C2719 1.427 . S
N2727 C2725 1.384 . S
H2728 C2734 0.930 . S
H2729 C2738 0.930 . S
H2730 C2743 0.929 . S
H2731 C2741 0.929 . S
H2732 C2736 0.929 . S
H2733 C2742 0.929 . S
C2734 H2728 0.930 . S
C2734 C2735 1.367 . S
C2734 C2742 1.378 . S
C2735 C2734 1.367 . S
C2735 C2743 1.433 . S
C2736 H2732 0.929 . S
C2736 C2738 1.378 . S
C2736 C2740 1.350 . S
C2737 C2740 1.463 . S
C2737 C2742 1.350 . S
C2737 N2745 1.427 . S
C2738 H2729 0.930 . S
C2738 C2736 1.378 . S
C2738 C2739 1.367 . S
C2739 C2738 1.367 . S
C2739 C2741 1.433 . S
C2740 C2736 1.350 . S
C2740 C2737 1.463 . S
C2740 N2744 1.427 . S
C2741 H2731 0.929 . S
C2741 C2739 1.433 . S
C2741 N2744 1.384 . S
C2742 H2733 0.929 . S
C2742 C2734 1.378 . S
C2742 C2737 1.350 . S
C2743 H2730 0.929 . S
C2743 C2735 1.433 . S
C2743 N2745 1.384 . S
N2744 C2740 1.427 . S
N2744 C2741 1.384 . S
N2745 C2737 1.427 . S
N2745 C2743 1.384 . S
H2746 C2752 0.930 . S
H2747 C2756 0.930 . S
H2748 C2761 0.929 . S
H2749 C2759 0.929 . S
H2750 C2754 0.929 . S
H2751 C2760 0.929 . S
C2752 H2746 0.930 . S
C2752 C2753 1.367 . S
C2752 C2760 1.378 . S
C2753 C2752 1.367 . S
C2753 C2761 1.433 . S
C2754 H2750 0.929 . S
C2754 C2756 1.378 . S
C2754 C2758 1.350 . S
C2755 C2758 1.463 . S
C2755 C2760 1.350 . S
C2755 N2763 1.427 . S
C2756 H2747 0.930 . S
C2756 C2754 1.378 . S
C2756 C2757 1.367 . S
C2757 C2756 1.367 . S
C2757 C2759 1.433 . S
C2758 C2754 1.350 . S
C2758 C2755 1.463 . S
C2758 N2762 1.427 . S
C2759 H2749 0.929 . S
C2759 C2757 1.433 . S
C2759 N2762 1.384 . S
C2760 H2751 0.929 . S
C2760 C2752 1.378 . S
C2760 C2755 1.350 . S
C2761 H2748 0.929 . S
C2761 C2753 1.433 . S
C2761 N2763 1.384 . S
N2762 C2758 1.427 . S
N2762 C2759 1.384 . S
N2763 C2755 1.427 . S
N2763 C2761 1.384 . S
H2764 C2770 0.930 . S
H2765 C2774 0.930 . S
H2766 C2779 0.929 . S
H2767 C2777 0.929 . S
H2768 C2772 0.929 . S
H2769 C2778 0.929 . S
C2770 H2764 0.930 . S
C2770 C2771 1.367 . S
C2770 C2778 1.378 . S
C2771 C2770 1.367 . S
C2771 C2779 1.433 . S
C2772 H2768 0.929 . S
C2772 C2774 1.378 . S
C2772 C2776 1.350 . S
C2773 C2776 1.463 . S
C2773 C2778 1.350 . S
C2773 N2781 1.427 . S
C2774 H2765 0.930 . S
C2774 C2772 1.378 . S
C2774 C2775 1.367 . S
C2775 C2774 1.367 . S
C2775 C2777 1.433 . S
C2776 C2772 1.350 . S
C2776 C2773 1.463 . S
C2776 N2780 1.427 . S
C2777 H2767 0.929 . S
C2777 C2775 1.433 . S
C2777 N2780 1.384 . S
C2778 H2769 0.929 . S
C2778 C2770 1.378 . S
C2778 C2773 1.350 . S
C2779 H2766 0.929 . S
C2779 C2771 1.433 . S
C2779 N2781 1.384 . S
N2780 C2776 1.427 . S
N2780 C2777 1.384 . S
N2781 C2773 1.427 . S
N2781 C2779 1.384 . S
H2782 C2788 0.930 . S
H2783 C2792 0.930 . S
H2784 C2797 0.929 . S
H2785 C2795 0.929 . S
H2786 C2790 0.929 . S
H2787 C2796 0.929 . S
C2788 H2782 0.930 . S
C2788 C2789 1.367 . S
C2788 C2796 1.378 . S
C2789 C2788 1.367 . S
C2789 C2797 1.433 . S
C2790 H2786 0.929 . S
C2790 C2792 1.378 . S
C2790 C2794 1.350 . S
C2791 C2794 1.463 . S
C2791 C2796 1.350 . S
C2791 N2799 1.427 . S
C2792 H2783 0.930 . S
C2792 C2790 1.378 . S
C2792 C2793 1.367 . S
C2793 C2792 1.367 . S
C2793 C2795 1.433 . S
C2794 C2790 1.350 . S
C2794 C2791 1.463 . S
C2794 N2798 1.427 . S
C2795 H2785 0.929 . S
C2795 C2793 1.433 . S
C2795 N2798 1.384 . S
C2796 H2787 0.929 . S
C2796 C2788 1.378 . S
C2796 C2791 1.350 . S
C2797 H2784 0.929 . S
C2797 C2789 1.433 . S
C2797 N2799 1.384 . S
N2798 C2794 1.427 . S
N2798 C2795 1.384 . S
N2799 C2791 1.427 . S
N2799 C2797 1.384 . S
H2800 C2806 0.930 . S
H2801 C2810 0.930 . S
H2802 C2815 0.929 . S
H2803 C2813 0.929 . S
H2804 C2808 0.929 . S
H2805 C2814 0.929 . S
C2806 H2800 0.930 . S
C2806 C2807 1.367 . S
C2806 C2814 1.378 . S
C2807 C2806 1.367 . S
C2807 C2815 1.433 . S
C2808 H2804 0.929 . S
C2808 C2810 1.378 . S
C2808 C2812 1.350 . S
C2809 C2812 1.463 . S
C2809 C2814 1.350 . S
C2809 N2817 1.427 . S
C2810 H2801 0.930 . S
C2810 C2808 1.378 . S
C2810 C2811 1.367 . S
C2811 C2810 1.367 . S
C2811 C2813 1.433 . S
C2812 C2808 1.350 . S
C2812 C2809 1.463 . S
C2812 N2816 1.427 . S
C2813 H2803 0.929 . S
C2813 C2811 1.433 . S
C2813 N2816 1.384 . S
C2814 H2805 0.929 . S
C2814 C2806 1.378 . S
C2814 C2809 1.350 . S
C2815 H2802 0.929 . S
C2815 C2807 1.433 . S
C2815 N2817 1.384 . S
N2816 C2812 1.427 . S
N2816 C2813 1.384 . S
N2817 C2809 1.427 . S
N2817 C2815 1.384 . S
H2818 C2824 0.930 . S
H2819 C2828 0.930 . S
H2820 C2833 0.929 . S
H2821 C2831 0.929 . S
H2822 C2826 0.929 . S
H2823 C2832 0.929 . S
C2824 H2818 0.930 . S
C2824 C2825 1.367 . S
C2824 C2832 1.378 . S
C2825 C2824 1.367 . S
C2825 C2833 1.433 . S
C2826 H2822 0.929 . S
C2826 C2828 1.378 . S
C2826 C2830 1.350 . S
C2827 C2830 1.463 . S
C2827 C2832 1.350 . S
C2827 N2835 1.427 . S
C2828 H2819 0.930 . S
C2828 C2826 1.378 . S
C2828 C2829 1.367 . S
C2829 C2828 1.367 . S
C2829 C2831 1.433 . S
C2830 C2826 1.350 . S
C2830 C2827 1.463 . S
C2830 N2834 1.427 . S
C2831 H2821 0.929 . S
C2831 C2829 1.433 . S
C2831 N2834 1.384 . S
C2832 H2823 0.929 . S
C2832 C2824 1.378 . S
C2832 C2827 1.350 . S
C2833 H2820 0.929 . S
C2833 C2825 1.433 . S
C2833 N2835 1.384 . S
N2834 C2830 1.427 . S
N2834 C2831 1.384 . S
N2835 C2827 1.427 . S
N2835 C2833 1.384 . S
H2836 C2842 0.930 . S
H2837 C2846 0.930 . S
H2838 C2851 0.929 . S
H2839 C2849 0.929 . S
H2840 C2844 0.929 . S
H2841 C2850 0.929 . S
C2842 H2836 0.930 . S
C2842 C2843 1.367 . S
C2842 C2850 1.378 . S
C2843 C2842 1.367 . S
C2843 C2851 1.433 . S
C2844 H2840 0.929 . S
C2844 C2846 1.378 . S
C2844 C2848 1.350 . S
C2845 C2848 1.463 . S
C2845 C2850 1.350 . S
C2845 N2853 1.427 . S
C2846 H2837 0.930 . S
C2846 C2844 1.378 . S
C2846 C2847 1.367 . S
C2847 C2846 1.367 . S
C2847 C2849 1.433 . S
C2848 C2844 1.350 . S
C2848 C2845 1.463 . S
C2848 N2852 1.427 . S
C2849 H2839 0.929 . S
C2849 C2847 1.433 . S
C2849 N2852 1.384 . S
C2850 H2841 0.929 . S
C2850 C2842 1.378 . S
C2850 C2845 1.350 . S
C2851 H2838 0.929 . S
C2851 C2843 1.433 . S
C2851 N2853 1.384 . S
N2852 C2848 1.427 . S
N2852 C2849 1.384 . S
N2853 C2845 1.427 . S
N2853 C2851 1.384 . S
H2854 C2860 0.930 . S
H2855 C2864 0.930 . S
H2856 C2869 0.929 . S
H2857 C2867 0.929 . S
H2858 C2862 0.929 . S
H2859 C2868 0.929 . S
C2860 H2854 0.930 . S
C2860 C2861 1.367 . S
C2860 C2868 1.378 . S
C2861 C2860 1.367 . S
C2861 C2869 1.433 . S
C2862 H2858 0.929 . S
C2862 C2864 1.378 . S
C2862 C2866 1.350 . S
C2863 C2866 1.463 . S
C2863 C2868 1.350 . S
C2863 N2871 1.427 . S
C2864 H2855 0.930 . S
C2864 C2862 1.378 . S
C2864 C2865 1.367 . S
C2865 C2864 1.367 . S
C2865 C2867 1.433 . S
C2866 C2862 1.350 . S
C2866 C2863 1.463 . S
C2866 N2870 1.427 . S
C2867 H2857 0.929 . S
C2867 C2865 1.433 . S
C2867 N2870 1.384 . S
C2868 H2859 0.929 . S
C2868 C2860 1.378 . S
C2868 C2863 1.350 . S
C2869 H2856 0.929 . S
C2869 C2861 1.433 . S
C2869 N2871 1.384 . S
N2870 C2866 1.427 . S
N2870 C2867 1.384 . S
N2871 C2863 1.427 . S
N2871 C2869 1.384 . S
H2872 C2878 0.930 . S
H2873 C2882 0.930 . S
H2874 C2887 0.929 . S
H2875 C2885 0.929 . S
H2876 C2880 0.929 . S
H2877 C2886 0.929 . S
C2878 H2872 0.930 . S
C2878 C2879 1.367 . S
C2878 C2886 1.378 . S
C2879 C2878 1.367 . S
C2879 C2887 1.433 . S
C2880 H2876 0.929 . S
C2880 C2882 1.378 . S
C2880 C2884 1.350 . S
C2881 C2884 1.463 . S
C2881 C2886 1.350 . S
C2881 N2889 1.427 . S
C2882 H2873 0.930 . S
C2882 C2880 1.378 . S
C2882 C2883 1.367 . S
C2883 C2882 1.367 . S
C2883 C2885 1.433 . S
C2884 C2880 1.350 . S
C2884 C2881 1.463 . S
C2884 N2888 1.427 . S
C2885 H2875 0.929 . S
C2885 C2883 1.433 . S
C2885 N2888 1.384 . S
C2886 H2877 0.929 . S
C2886 C2878 1.378 . S
C2886 C2881 1.350 . S
C2887 H2874 0.929 . S
C2887 C2879 1.433 . S
C2887 N2889 1.384 . S
N2888 C2884 1.427 . S
N2888 C2885 1.384 . S
N2889 C2881 1.427 . S
N2889 C2887 1.384 . S
H2890 C2896 0.930 . S
H2891 C2900 0.930 . S
H2892 C2905 0.929 1_554 S
H2893 C2903 0.929 . S
H2894 C2898 0.929 . S
H2895 C2904 0.929 . S
C2896 H2890 0.930 . S
C2896 C2897 1.367 . S
C2896 C2904 1.378 . S
C2897 C2896 1.367 . S
C2897 C2905 1.433 . S
C2898 H2894 0.929 . S
C2898 C2900 1.378 . S
C2898 C2902 1.350 . S
C2899 C2902 1.463 . S
C2899 C2904 1.350 . S
C2899 N2907 1.427 . S
C2900 H2891 0.930 . S
C2900 C2898 1.378 . S
C2900 C2901 1.367 . S
C2901 C2900 1.367 . S
C2901 C2903 1.433 . S
C2902 C2898 1.350 . S
C2902 C2899 1.463 . S
C2902 N2906 1.427 . S
C2903 H2893 0.929 . S
C2903 C2901 1.433 . S
C2903 N2906 1.384 . S
C2904 H2895 0.929 . S
C2904 C2896 1.378 . S
C2904 C2899 1.350 . S
C2905 H2892 0.929 1_556 S
C2905 C2897 1.433 . S
C2905 N2907 1.384 . S
N2906 C2902 1.427 . S
N2906 C2903 1.384 . S
N2907 C2899 1.427 . S
N2907 C2905 1.384 . S
H2908 C2914 0.930 . S
H2909 C2918 0.930 . S
H2910 C2923 0.929 . S
H2911 C2921 0.929 . S
H2912 C2916 0.929 . S
H2913 C2922 0.929 . S
C2914 H2908 0.930 . S
C2914 C2915 1.367 . S
C2914 C2922 1.378 . S
C2915 C2914 1.367 . S
C2915 C2923 1.433 . S
C2916 H2912 0.929 . S
C2916 C2918 1.378 . S
C2916 C2920 1.350 . S
C2917 C2920 1.463 . S
C2917 C2922 1.350 . S
C2917 N2925 1.427 . S
C2918 H2909 0.930 . S
C2918 C2916 1.378 . S
C2918 C2919 1.367 . S
C2919 C2918 1.367 . S
C2919 C2921 1.433 . S
C2920 C2916 1.350 . S
C2920 C2917 1.463 . S
C2920 N2924 1.427 . S
C2921 H2911 0.929 . S
C2921 C2919 1.433 . S
C2921 N2924 1.384 . S
C2922 H2913 0.929 . S
C2922 C2914 1.378 . S
C2922 C2917 1.350 . S
C2923 H2910 0.929 . S
C2923 C2915 1.433 . S
C2923 N2925 1.384 . S
N2924 C2920 1.427 . S
N2924 C2921 1.384 . S
N2925 C2917 1.427 . S
N2925 C2923 1.384 . S
H2926 C2932 0.930 . S
H2927 C2936 0.930 . S
H2928 C2941 0.929 . S
H2929 C2939 0.929 . S
H2930 C2934 0.929 . S
H2931 C2940 0.929 . S
C2932 H2926 0.930 . S
C2932 C2933 1.367 . S
C2932 C2940 1.378 . S
C2933 C2932 1.367 . S
C2933 C2941 1.433 . S
C2934 H2930 0.929 . S
C2934 C2936 1.378 . S
C2934 C2938 1.350 1_655 S
C2935 C2938 1.463 . S
C2935 C2940 1.350 . S
C2935 N2943 1.427 . S
C2936 H2927 0.930 . S
C2936 C2934 1.378 . S
C2936 C2937 1.367 . S
C2937 C2936 1.367 . S
C2937 C2939 1.433 . S
C2938 C2934 1.350 1_455 S
C2938 C2935 1.463 . S
C2938 N2942 1.428 1_455 S
C2939 H2929 0.929 . S
C2939 C2937 1.433 . S
C2939 N2942 1.383 . S
C2940 H2931 0.929 . S
C2940 C2932 1.378 . S
C2940 C2935 1.350 . S
C2941 H2928 0.929 . S
C2941 C2933 1.433 . S
C2941 N2943 1.384 . S
N2942 C2938 1.428 1_655 S
N2942 C2939 1.383 . S
N2943 C2935 1.427 . S
N2943 C2941 1.384 . S
C1227 C871 0.989 . S
C1223 C4 1.029 . S
C1241 C39 1.177 . S
C1245 C891 1.122 . S
C1263 C912 1.116 . S
C1259 C86 1.098 . S
C1281 C939 1.078 . S
C1277 C110 1.122 . S
C1299 C895 1.079 . S
C1295 C146 1.109 . S
C1313 C194 1.106 . S
C1317 C915 1.114 . S
C1335 C935 1.122 . S
C1331 C219 1.175 . S
C1349 C256 1.027 . S
C1353 C868 0.983 . S
C1367 C292 1.019 . S
C1371 C873 0.985 . S
C1389 C890 1.090 . S
C1385 C326 1.121 . S
C1407 C914 1.142 . S
C1403 C363 1.171 . S
C1425 C938 1.127 . S
C1421 C410 1.091 . S
C1443 C894 1.111 . S
C1439 C302 1.106 . S
C1461 C917 1.131 . S
C1457 C327 1.172 . S
C1475 C362 1.114 . S
C1479 C934 1.096 . S
C1497 C870 1.006 . S
C1493 C400 1.021 . S
C1511 C436 1.017 . S
C1515 C872 1.003 . S
C1529 C471 1.171 . S
C1533 C959 1.134 . S
C1551 C979 1.074 . S
C1547 C506 1.119 . S
C1569 C1002 1.122 . S
C1565 C554 1.090 . S
C1583 C580 1.020 . S
C1587 C869 0.983 . S
C1601 C614 1.112 . S
C1605 C913 1.096 . S
C1623 C1003 1.124 . S
C1619 C507 1.175 . S
C1641 C958 1.132 . S
C1637 C662 1.081 . S
C1659 C1026 1.152 . S
C1655 C50 1.100 . S
C1677 C1047 1.092 . S
C1673 C3 1.153 . S
C1691 C112 1.093 . S
C1695 C1066 1.058 . S
C1709 C74 1.147 . S
C1713 C1091 1.112 . S
C1727 C254 1.152 . S
C1731 C1046 1.097 . S
C1745 C220 1.104 . S
C1749 C1071 1.046 . S
C1767 C1090 1.098 . S
C1763 C183 1.149 . S
C1781 C158 1.106 . S
C1785 C1023 1.156 . S
C1799 C698 1.108 . S
C1803 C1027 1.133 . S
C1821 C1048 1.110 . S
C1817 C542 1.140 . S
C1839 C1067 1.094 . S
C1835 C579 1.149 . S
C1857 C1092 1.062 . S
C1853 C472 1.098 . S
C1875 C1044 1.057 . S
C1871 C688 1.103 . S
C1893 C1069 1.113 . S
C1889 C543 1.154 . S
C1911 C1088 1.094 . S
C1907 C578 1.143 . S
C1925 C482 1.110 . S
C1929 C1024 1.137 . S
C1947 C1025 1.135 . S
C1943 C734 1.110 . S
C1961 C399 1.160 . S
C1965 C1111 1.115 . S
C1983 C1136 1.096 . S
C1979 C758 1.142 . S
C1997 C328 1.104 . S
C2001 C1155 1.046 . S
C2019 C1022 1.145 . S
C2015 C374 1.122 . S
C2037 C1068 1.105 . S
C2033 C794 1.150 . S
C2055 C1159 1.098 . S
C2051 C759 1.158 . S
C2069 C832 1.104 . S
C2073 C1115 1.043 . S
C2087 C76 1.026 . S
C2091 C1179 0.982 . S
C2105 C111 1.177 . S
C2109 C957 1.123 . S
C2127 C981 1.131 . S
C2123 C14 1.084 . S
C2141 C38 1.111 . S
C2145 C1005 1.094 . S
C2159 C218 1.114 . S
C2163 C961 1.096 . S
C2177 C266 1.101 . S
C2181 C978 1.119 . S
C2199 C1001 1.140 . S
C2195 C147 1.173 . S
C2217 C1176 0.984 . S
C2213 C184 1.027 . S
C2235 C1181 0.981 . S
C2231 C760 1.023 . S
C2253 C956 1.080 . S
C2249 C722 1.122 . S
C2271 C983 1.140 . S
C2267 C831 1.171 . S
C2285 C806 1.105 . S
C2289 C1004 1.112 . S
C2307 C960 1.113 . S
C2303 C770 1.106 . S
C2321 C723 1.176 . S
C2325 C980 1.122 . S
C2343 C1000 1.077 . S
C2339 C830 1.112 . S
C2357 C796 1.018 . S
C2361 C1178 1.004 . S
C2379 C1180 1.003 . S
C2375 C544 1.017 . S
C2393 C615 1.169 . S
C2397 C893 1.141 . S
C2415 C916 1.074 . S
C2411 C686 1.118 . S
C2429 C446 1.083 . S
C2433 C936 1.129 . S
C2451 C1177 1.006 . S
C2447 C652 1.022 . S
C2469 C982 1.095 . S
C2465 C470 1.110 . S
C2487 C937 1.127 . S
C2483 C687 1.173 . S
C2505 C892 1.131 . S
C2501 C590 1.082 . S
C2519 C122 1.116 . S
C2523 C1203 1.140 . S
C2537 C75 1.155 . S
C2541 C1113 1.114 . S
C2555 C40 1.104 . S
C2559 C1132 1.050 . S
C2577 C1157 1.096 . S
C2573 C2 1.141 . S
C2595 C1112 1.112 . S
C2591 C182 1.141 . S
C2609 C148 1.099 . S
C2613 C1137 1.061 . S
C2631 C1156 1.103 . S
C2627 C255 1.150 . S
C2645 C230 1.095 . S
C2649 C1198 1.132 . S
C2667 C1201 1.155 . S
C2663 C518 1.113 . S
C2681 C434 1.149 . S
C2685 C1114 1.108 . S
C2699 C651 1.160 . S
C2703 C1133 1.103 . S
C2721 C1158 1.048 . S
C2717 C616 1.104 . S
C2739 C1110 1.058 . S
C2735 C508 1.093 . S
C2753 C435 1.149 . S
C2757 C1135 1.101 . S
C2775 C1154 1.093 . S
C2771 C650 1.151 . S
C2793 C1199 1.146 . S
C2789 C626 1.093 . S
C2811 C1202 1.131 . S
C2807 C338 1.097 . S
C2829 C1045 1.092 . S
C2825 C795 1.151 . S
C2843 C290 1.142 . S
C2847 C1070 1.094 . S
C2861 C724 1.098 . S
C2865 C1089 1.039 . S
C2883 C1200 1.144 . S
C2879 C842 1.118 . S
C2901 C1134 1.090 . S
C2897 C398 1.146 . S
C2919 C1093 1.107 . S
C2915 C291 1.151 . S
C2937 C1049 1.059 . S
C2933 C364 1.100 . S
