# Generated by pormake.
# Topology ocu, (6,8)-cn, num edge types: 1
# Building blocks:
#     Node 0, Type 0, BuildingBlock: KUMBUR_clean_sbu_0, # of connection points: 6
#     Node 1, Type 0, BuildingBlock: KUMBUR_clean_sbu_0, # of connection points: 6
#     Node 2, Type 0, BuildingBlock: KUMBUR_clean_sbu_0, # of connection points: 6
#     Node 3, Type 0, BuildingBlock: KUMBUR_clean_sbu_0, # of connection points: 6
#     Node 4, Type 0, BuildingBlock: KUMBUR_clean_sbu_0, # of connection points: 6
#     Node 5, Type 0, BuildingBlock: KUMBUR_clean_sbu_0, # of connection points: 6
#     Node 6, Type 0, BuildingBlock: KUMBUR_clean_sbu_0, # of connection points: 6
#     Node 7, Type 0, BuildingBlock: KUMBUR_clean_sbu_0, # of connection points: 6
#     Node 8, Type 1, BuildingBlock: AJUNOK_clean_sbu_0, # of connection points: 8
#     Node 9, Type 1, BuildingBlock: AJUNOK_clean_sbu_0, # of connection points: 8
#     Node 10, Type 1, BuildingBlock: AJUNOK_clean_sbu_0, # of connection points: 8
#     Node 11, Type 1, BuildingBlock: AJUNOK_clean_sbu_0, # of connection points: 8
#     Node 12, Type 1, BuildingBlock: AJUNOK_clean_sbu_0, # of connection points: 8
#     Node 13, Type 1, BuildingBlock: AJUNOK_clean_sbu_0, # of connection points: 8
#     Edge 14, Type (0, 1), BuildingBlock: TEMPAE_clean_linker_10, # of connection points: 2
#     Edge 15, Type (0, 1), BuildingBlock: TEMPAE_clean_linker_10, # of connection points: 2
#     Edge 16, Type (0, 1), BuildingBlock: TEMPAE_clean_linker_10, # of connection points: 2
#     Edge 17, Type (0, 1), BuildingBlock: TEMPAE_clean_linker_10, # of connection points: 2
#     Edge 18, Type (0, 1), BuildingBlock: TEMPAE_clean_linker_10, # of connection points: 2
#     Edge 19, Type (0, 1), BuildingBlock: TEMPAE_clean_linker_10, # of connection points: 2
#     Edge 20, Type (0, 1), BuildingBlock: TEMPAE_clean_linker_10, # of connection points: 2
#     Edge 21, Type (0, 1), BuildingBlock: TEMPAE_clean_linker_10, # of connection points: 2
#     Edge 22, Type (0, 1), BuildingBlock: TEMPAE_clean_linker_10, # of connection points: 2
#     Edge 23, Type (0, 1), BuildingBlock: TEMPAE_clean_linker_10, # of connection points: 2
#     Edge 24, Type (0, 1), BuildingBlock: TEMPAE_clean_linker_10, # of connection points: 2
#     Edge 25, Type (0, 1), BuildingBlock: TEMPAE_clean_linker_10, # of connection points: 2
#     Edge 26, Type (0, 1), BuildingBlock: TEMPAE_clean_linker_10, # of connection points: 2
#     Edge 27, Type (0, 1), BuildingBlock: TEMPAE_clean_linker_10, # of connection points: 2
#     Edge 28, Type (0, 1), BuildingBlock: TEMPAE_clean_linker_10, # of connection points: 2
#     Edge 29, Type (0, 1), BuildingBlock: TEMPAE_clean_linker_10, # of connection points: 2
#     Edge 30, Type (0, 1), BuildingBlock: TEMPAE_clean_linker_10, # of connection points: 2
#     Edge 31, Type (0, 1), BuildingBlock: TEMPAE_clean_linker_10, # of connection points: 2
#     Edge 32, Type (0, 1), BuildingBlock: TEMPAE_clean_linker_10, # of connection points: 2
#     Edge 33, Type (0, 1), BuildingBlock: TEMPAE_clean_linker_10, # of connection points: 2
#     Edge 34, Type (0, 1), BuildingBlock: TEMPAE_clean_linker_10, # of connection points: 2
#     Edge 35, Type (0, 1), BuildingBlock: TEMPAE_clean_linker_10, # of connection points: 2
#     Edge 36, Type (0, 1), BuildingBlock: TEMPAE_clean_linker_10, # of connection points: 2
#     Edge 37, Type (0, 1), BuildingBlock: TEMPAE_clean_linker_10, # of connection points: 2
#     Edge 38, Type (0, 1), BuildingBlock: TEMPAE_clean_linker_10, # of connection points: 2
#     Edge 39, Type (0, 1), BuildingBlock: TEMPAE_clean_linker_10, # of connection points: 2
#     Edge 40, Type (0, 1), BuildingBlock: TEMPAE_clean_linker_10, # of connection points: 2
#     Edge 41, Type (0, 1), BuildingBlock: TEMPAE_clean_linker_10, # of connection points: 2
#     Edge 42, Type (0, 1), BuildingBlock: TEMPAE_clean_linker_10, # of connection points: 2
#     Edge 43, Type (0, 1), BuildingBlock: TEMPAE_clean_linker_10, # of connection points: 2
#     Edge 44, Type (0, 1), BuildingBlock: TEMPAE_clean_linker_10, # of connection points: 2
#     Edge 45, Type (0, 1), BuildingBlock: TEMPAE_clean_linker_10, # of connection points: 2
#     Edge 46, Type (0, 1), BuildingBlock: TEMPAE_clean_linker_10, # of connection points: 2
#     Edge 47, Type (0, 1), BuildingBlock: TEMPAE_clean_linker_10, # of connection points: 2
#     Edge 48, Type (0, 1), BuildingBlock: TEMPAE_clean_linker_10, # of connection points: 2
#     Edge 49, Type (0, 1), BuildingBlock: TEMPAE_clean_linker_10, # of connection points: 2
#     Edge 50, Type (0, 1), BuildingBlock: TEMPAE_clean_linker_10, # of connection points: 2
#     Edge 51, Type (0, 1), BuildingBlock: TEMPAE_clean_linker_10, # of connection points: 2
#     Edge 52, Type (0, 1), BuildingBlock: TEMPAE_clean_linker_10, # of connection points: 2
#     Edge 53, Type (0, 1), BuildingBlock: TEMPAE_clean_linker_10, # of connection points: 2
#     Edge 54, Type (0, 1), BuildingBlock: TEMPAE_clean_linker_10, # of connection points: 2
#     Edge 55, Type (0, 1), BuildingBlock: TEMPAE_clean_linker_10, # of connection points: 2
#     Edge 56, Type (0, 1), BuildingBlock: TEMPAE_clean_linker_10, # of connection points: 2
#     Edge 57, Type (0, 1), BuildingBlock: TEMPAE_clean_linker_10, # of connection points: 2
#     Edge 58, Type (0, 1), BuildingBlock: TEMPAE_clean_linker_10, # of connection points: 2
#     Edge 59, Type (0, 1), BuildingBlock: TEMPAE_clean_linker_10, # of connection points: 2
#     Edge 60, Type (0, 1), BuildingBlock: TEMPAE_clean_linker_10, # of connection points: 2
#     Edge 61, Type (0, 1), BuildingBlock: TEMPAE_clean_linker_10, # of connection points: 2
# Relax obj value: 0.159
# Max RMSD: 0.262
# Mean RMSD: 0.205
data_MOF--net-ocu--node1-KUMBUR_clean_sbu_0--node2-AJUNOK_clean_sbu_0--edge1-TEMPAE_clean_linker_10
_symmetry_space_group_name_H-M    P1
_symmetry_Int_Tables_number       1
_symmetry_cell_setting            triclinic
loop_
_symmetry_equiv_pos_as_xyz
'x, y, z'
_cell_length_a     44.126864
_cell_length_b     43.618441
_cell_length_c     40.089308
_cell_angle_alpha  86.693442
_cell_angle_beta   105.07609
_cell_angle_gamma 112.17534
loop_
_atom_site_label
_atom_site_type_symbol
_atom_site_fract_x
_atom_site_fract_y
_atom_site_fract_z
_atom_type_partial_charge
Tb0 Tb 0.25109 0.213 0.20108 0.0
C1 C 0.34814 0.30577 0.32635 0.0
C2 C 0.35654 0.26935 0.37262 0.0
C3 C 0.40033 0.32372 0.37231 0.0
C4 C 0.33662 0.27585 0.34148 0.0
C5 C 0.37988 0.33034 0.34183 0.0
C6 C 0.38868 0.29324 0.38767 0.0
C7 C 0.36771 0.36686 0.29731 0.0
N8 N 0.32745 0.31124 0.29713 0.0
C9 C 0.3363 0.3418 0.28314 0.0
C10 C 0.38974 0.36103 0.32662 0.0
Tb11 Tb 0.27677 0.26827 0.27557 0.0
N12 N 0.30535 0.25357 0.32626 0.0
C13 C 0.29171 0.22485 0.3421 0.0
C14 C 0.34329 0.2393 0.388 0.0
C15 C 0.31059 0.2171 0.37283 0.0
H16 H 0.31964 0.34684 0.26056 0.0
H17 H 0.29987 0.19399 0.38476 0.0
H18 H 0.40446 0.28862 0.41147 0.0
H19 H 0.37486 0.39069 0.28565 0.0
H20 H 0.26647 0.20736 0.33095 0.0
H21 H 0.23217 0.28692 0.09039 0.0
H22 H 0.35783 0.23326 0.41184 0.0
H23 H 0.20588 0.13479 0.21497 0.0
H24 H 0.26468 0.27215 0.14403 0.0
H25 H 0.14886 0.09318 0.1908 0.0
H26 H 0.4249 0.34219 0.38451 0.0
H27 H 0.17213 0.2514 0.06559 0.0
H28 H 0.1227 0.19881 0.06779 0.0
H29 H 0.41396 0.38056 0.33767 0.0
H30 H 0.10003 0.14581 0.095 0.0
N31 N 0.22338 0.22884 0.15059 0.0
C32 C 0.23855 0.25626 0.13374 0.0
C33 C 0.18629 0.24475 0.08929 0.0
C34 C 0.17147 0.21571 0.1055 0.0
C35 C 0.22018 0.26477 0.10313 0.0
C36 C 0.19105 0.20825 0.13631 0.0
H37 H 0.10977 0.10599 0.14068 0.0
N38 N 0.19901 0.17175 0.17984 0.0
C39 C 0.15679 0.11717 0.17956 0.0
C40 C 0.17838 0.17855 0.15143 0.0
C41 C 0.1892 0.14091 0.19318 0.0
C42 C 0.13476 0.12452 0.15133 0.0
C43 C 0.14566 0.15531 0.1365 0.0
O44 O 0.26938 0.17578 0.19645 0.0
O45 O 0.28353 0.2276 0.25336 0.0
O46 O 0.32141 0.27951 0.25667 0.0
O47 O 0.29359 0.2598 0.19965 0.0
O48 O 0.25966 0.17834 0.24034 0.0
O49 O 0.27521 0.21526 0.16129 0.0
O50 O 0.25692 0.30431 0.28014 0.0
O51 O 0.24523 0.25365 0.22332 0.0
O52 O 0.2069 0.20245 0.22089 0.0
O53 O 0.2355 0.22107 0.27788 0.0
O54 O 0.26688 0.30274 0.23586 0.0
O55 O 0.2514 0.26417 0.31458 0.0
C56 C 0.28116 0.19917 0.26473 0.0
C57 C 0.2709 0.16328 0.14099 0.0
C58 C 0.28811 0.12874 0.10945 0.0
C59 C 0.29641 0.15514 0.13333 0.0
C60 C 0.25358 0.11105 0.09334 0.0
C61 C 0.23699 0.14588 0.12371 0.0
C62 C 0.22843 0.11994 0.10004 0.0
C63 C 0.3204 0.27853 0.2236 0.0
C64 C 0.27984 0.18774 0.1693 0.0
C65 C 0.12536 0.1632 0.10674 0.0
C66 C 0.13826 0.19338 0.09126 0.0
C67 C 0.24686 0.28153 0.21122 0.0
C68 C 0.25335 0.31494 0.3354 0.0
C69 C 0.22796 0.32556 0.33925 0.0
C70 C 0.23549 0.35035 0.36449 0.0
C71 C 0.2685 0.36406 0.38603 0.0
C72 C 0.28601 0.32866 0.35751 0.0
C73 C 0.29349 0.35308 0.38268 0.0
C74 C 0.20841 0.20275 0.25413 0.0
C75 C 0.24594 0.29136 0.30677 0.0
H76 H 0.32257 0.16926 0.14639 0.0
H77 H 0.24561 0.08976 0.07601 0.0
H78 H 0.21704 0.15178 0.12902 0.0
H79 H 0.20209 0.10614 0.08736 0.0
H80 H 0.20273 0.31529 0.32204 0.0
H81 H 0.27488 0.38315 0.40565 0.0
H82 H 0.3058 0.3208 0.35512 0.0
H83 H 0.31883 0.36373 0.39948 0.0
Tb84 Tb 0.7932 0.21972 0.23466 0.0
C85 C 0.71465 0.2752 0.30912 0.0
C86 C 0.65545 0.23916 0.29345 0.0
C87 C 0.67749 0.27674 0.34397 0.0
C88 C 0.68811 0.25035 0.28774 0.0
C89 C 0.7096 0.28875 0.33745 0.0
C90 C 0.65034 0.2524 0.32167 0.0
C91 C 0.76682 0.3288 0.34761 0.0
N92 N 0.74482 0.28759 0.30093 0.0
C93 C 0.77027 0.31529 0.3187 0.0
C94 C 0.73649 0.31518 0.35733 0.0
Tb95 Tb 0.74617 0.26729 0.24998 0.0
N96 N 0.69383 0.23832 0.26044 0.0
C97 C 0.66762 0.21365 0.23886 0.0
C98 C 0.62868 0.21524 0.27045 0.0
C99 C 0.63499 0.20183 0.24362 0.0
H100 H 0.79354 0.32655 0.31071 0.0
H101 H 0.61462 0.18252 0.22627 0.0
H102 H 0.62547 0.24393 0.32648 0.0
H103 H 0.78726 0.35015 0.36196 0.0
H104 H 0.6709 0.20206 0.21788 0.0
H105 H 0.91323 0.32462 0.27816 0.0
H106 H 0.60313 0.2066 0.27349 0.0
H107 H 0.76291 0.17027 0.16282 0.0
H108 H 0.85415 0.29266 0.2754 0.0
H109 H 0.78248 0.16133 0.11385 0.0
H110 H 0.67312 0.28689 0.36551 0.0
H111 H 0.93992 0.31261 0.23621 0.0
H112 H 0.93304 0.28193 0.18226 0.0
H113 H 0.73363 0.32612 0.37934 0.0
H114 H 0.89676 0.23946 0.13608 0.0
N115 N 0.84637 0.25904 0.23416 0.0
C116 C 0.86504 0.28522 0.25781 0.0
C117 C 0.91375 0.29759 0.23532 0.0
C118 C 0.89409 0.27293 0.20934 0.0
C119 C 0.89882 0.30438 0.25903 0.0
C120 C 0.86018 0.25381 0.20955 0.0
H121 H 0.84054 0.19521 0.10989 0.0
N122 N 0.80756 0.21205 0.18502 0.0
C123 C 0.79885 0.18102 0.13308 0.0
C124 C 0.83993 0.22988 0.18379 0.0
C125 C 0.78753 0.1868 0.16067 0.0
C126 C 0.83164 0.2 0.13106 0.0
C127 C 0.85283 0.22442 0.15684 0.0
O128 O 0.78687 0.17015 0.22898 0.0
O129 O 0.75673 0.22335 0.25934 0.0
O130 O 0.77802 0.26258 0.30069 0.0
O131 O 0.81631 0.24286 0.28756 0.0
O132 O 0.74731 0.17766 0.24061 0.0
O133 O 0.8272 0.2027 0.26965 0.0
O134 O 0.75449 0.31768 0.24572 0.0
O135 O 0.77981 0.26225 0.22188 0.0
O136 O 0.75465 0.21565 0.18664 0.0
O137 O 0.71752 0.23523 0.2025 0.0
O138 O 0.7927 0.30754 0.24461 0.0
O139 O 0.71012 0.2804 0.2132 0.0
C140 C 0.73631 0.19383 0.25705 0.0
C141 C 0.80237 0.14563 0.28067 0.0
C142 C 0.80699 0.12701 0.33986 0.0
C143 C 0.80912 0.15248 0.31619 0.0
C144 C 0.79378 0.09395 0.32606 0.0
C145 C 0.78953 0.11277 0.26792 0.0
C146 C 0.78455 0.08706 0.29051 0.0
C147 C 0.80652 0.25687 0.30924 0.0
C148 C 0.81088 0.17231 0.25666 0.0
C149 C 0.88648 0.24331 0.15654 0.0
C150 C 0.90714 0.2674 0.18286 0.0
C151 C 0.79989 0.29186 0.22361 0.0
C152 C 0.73673 0.33132 0.18845 0.0
C153 C 0.7184 0.31835 0.1549 0.0
C154 C 0.72099 0.33846 0.12615 0.0
C155 C 0.74632 0.37085 0.1318 0.0
C156 C 0.76121 0.36364 0.19324 0.0
C157 C 0.76658 0.38288 0.1649 0.0
C158 C 0.72497 0.21845 0.18131 0.0
C159 C 0.72902 0.31198 0.21862 0.0
H160 H 0.81759 0.17795 0.32502 0.0
H161 H 0.79201 0.07301 0.34219 0.0
H162 H 0.78399 0.10706 0.24051 0.0
H163 H 0.77506 0.0617 0.28055 0.0
H164 H 0.70097 0.29294 0.15196 0.0
H165 H 0.74985 0.38808 0.11143 0.0
H166 H 0.77597 0.37419 0.2189 0.0
H167 H 0.78542 0.40789 0.16877 0.0
Tb168 Tb 0.73171 0.72354 0.26162 0.0
C169 C 0.82353 0.82265 0.17874 0.0
C170 C 0.78644 0.82317 0.12263 0.0
C171 C 0.83768 0.87147 0.14451 0.0
C172 C 0.79428 0.80716 0.15339 0.0
C173 C 0.84587 0.85486 0.17451 0.0
C174 C 0.808 0.85563 0.11858 0.0
C175 C 0.88362 0.85094 0.22878 0.0
N176 N 0.83063 0.80557 0.20708 0.0
C177 C 0.86074 0.81896 0.23168 0.0
C178 C 0.87605 0.86909 0.2002 0.0
Tb179 Tb 0.79137 0.75333 0.20936 0.0
N180 N 0.7744 0.77572 0.15815 0.0
C181 C 0.74738 0.75802 0.13193 0.0
C182 C 0.75777 0.8057 0.09647 0.0
C183 C 0.73847 0.7728 0.10096 0.0
H184 H 0.86716 0.80553 0.25405 0.0
H185 H 0.71663 0.75878 0.08061 0.0
H186 H 0.8023 0.86843 0.09523 0.0
H187 H 0.90706 0.86159 0.24866 0.0
H188 H 0.73216 0.73253 0.13473 0.0
H189 H 0.81217 0.72029 0.38803 0.0
H190 H 0.75084 0.81708 0.07244 0.0
H191 H 0.65481 0.67187 0.2214 0.0
H192 H 0.79323 0.74614 0.33485 0.0
H193 H 0.61558 0.61563 0.22854 0.0
H194 H 0.85441 0.89629 0.14082 0.0
H195 H 0.77967 0.66175 0.39735 0.0
H196 H 0.72804 0.60987 0.37665 0.0
H197 H 0.89386 0.89382 0.19798 0.0
H198 H 0.67419 0.58143 0.33338 0.0
N199 N 0.75091 0.70235 0.31289 0.0
C200 C 0.77869 0.72055 0.33819 0.0
C201 C 0.77125 0.67294 0.37373 0.0
C202 C 0.74163 0.65509 0.34879 0.0
C203 C 0.7896 0.70599 0.36859 0.0
C204 C 0.73197 0.67081 0.31843 0.0
H205 H 0.63176 0.58356 0.27822 0.0
N206 N 0.69333 0.67167 0.26627 0.0
C207 C 0.63986 0.62635 0.24721 0.0
C208 C 0.70199 0.65488 0.29424 0.0
C209 C 0.66222 0.65831 0.24328 0.0
C210 C 0.64912 0.60828 0.27521 0.0
C211 C 0.68036 0.62267 0.29944 0.0
O212 O 0.68816 0.73345 0.26061 0.0
O213 O 0.7449 0.75248 0.21843 0.0
O214 O 0.79253 0.79676 0.23474 0.0
O215 O 0.77438 0.7699 0.28175 0.0
O216 O 0.69538 0.72629 0.21325 0.0
O217 O 0.73361 0.75391 0.30147 0.0
O218 O 0.83439 0.74198 0.21271 0.0
O219 O 0.7777 0.72309 0.25213 0.0
O220 O 0.72726 0.68014 0.23307 0.0
O221 O 0.74866 0.70775 0.18776 0.0
O222 O 0.82717 0.75201 0.2582 0.0
O223 O 0.79143 0.72505 0.16856 0.0
C224 C 0.71614 0.74719 0.19786 0.0
C225 C 0.68259 0.74766 0.31439 0.0
C226 C 0.6576 0.77174 0.34846 0.0
C227 C 0.67573 0.77467 0.32341 0.0
C228 C 0.64631 0.7412 0.36409 0.0
C229 C 0.67121 0.71756 0.33043 0.0
C230 C 0.65308 0.7144 0.3551 0.0
C231 C 0.78801 0.79727 0.26603 0.0
C232 C 0.7026 0.75189 0.28908 0.0
C233 C 0.6903 0.6063 0.32899 0.0
C234 C 0.72095 0.62248 0.35362 0.0
C235 C 0.80673 0.72971 0.27274 0.0
C236 C 0.84452 0.73104 0.16043 0.0
C237 C 0.85028 0.70393 0.1499 0.0
C238 C 0.87331 0.70847 0.1296 0.0
C239 C 0.89023 0.74081 0.12 0.0
C240 C 0.86135 0.76284 0.15017 0.0
C241 C 0.88408 0.76762 0.13002 0.0
C242 C 0.73237 0.68033 0.20188 0.0
C243 C 0.82165 0.72557 0.18299 0.0
H244 H 0.68498 0.79807 0.31129 0.0
H245 H 0.63178 0.73784 0.38295 0.0
H246 H 0.67641 0.69662 0.32397 0.0
H247 H 0.6442 0.69105 0.36732 0.0
H248 H 0.83675 0.67935 0.15757 0.0
H249 H 0.90879 0.74562 0.10525 0.0
H250 H 0.85723 0.78395 0.15804 0.0
H251 H 0.89734 0.79229 0.12246 0.0
Tb252 Tb 0.28695 0.71409 0.25239 0.0
C253 C 0.2277 0.80348 0.15716 0.0
C254 C 0.27562 0.85445 0.15818 0.0
C255 C 0.22822 0.8375 0.10699 0.0
C256 C 0.25924 0.82536 0.17402 0.0
C257 C 0.21137 0.80953 0.12375 0.0
C258 C 0.26031 0.85999 0.12423 0.0
C259 C 0.16178 0.7619 0.12762 0.0
N260 N 0.21215 0.77719 0.17452 0.0
C261 C 0.17896 0.75728 0.16091 0.0
C262 C 0.17821 0.78791 0.10873 0.0
Tb263 Tb 0.24297 0.76981 0.22778 0.0
N264 N 0.27277 0.81923 0.20689 0.0
C265 C 0.30178 0.84272 0.2263 0.0
C266 C 0.30614 0.87765 0.1774 0.0
C267 C 0.31902 0.87196 0.21177 0.0
H268 H 0.16594 0.73722 0.1753 0.0
H269 H 0.34231 0.89003 0.22711 0.0
H270 H 0.27263 0.88202 0.11148 0.0
H271 H 0.13586 0.74549 0.11661 0.0
H272 H 0.31245 0.83904 0.25288 0.0
H273 H 0.18878 0.5931 0.25204 0.0
H274 H 0.31937 0.90046 0.16633 0.0
H275 H 0.36198 0.75113 0.30697 0.0
H276 H 0.2165 0.64595 0.2277 0.0
H277 H 0.39345 0.7417 0.36455 0.0
H278 H 0.21626 0.84249 0.08118 0.0
H279 H 0.21508 0.57997 0.31057 0.0
H280 H 0.2633 0.59713 0.36419 0.0
H281 H 0.16476 0.79164 0.08306 0.0
H282 H 0.31882 0.63771 0.39504 0.0
N283 N 0.25812 0.66401 0.27247 0.0
C284 C 0.22849 0.64108 0.25337 0.0
C285 C 0.2273 0.60358 0.30018 0.0
C286 C 0.25808 0.6266 0.3192 0.0
C287 C 0.21249 0.61084 0.26709 0.0
C288 C 0.27311 0.65682 0.30433 0.0
H289 H 0.36762 0.69169 0.39534 0.0
N290 N 0.31809 0.7076 0.30571 0.0
C291 C 0.36829 0.72405 0.35284 0.0
C292 C 0.30412 0.67952 0.32166 0.0
C293 C 0.35038 0.72927 0.32018 0.0
C294 C 0.35359 0.69584 0.37017 0.0
C295 C 0.32131 0.67287 0.35438 0.0
O296 O 0.33104 0.71613 0.24036 0.0
O297 O 0.28349 0.75616 0.22379 0.0
O298 O 0.23537 0.74272 0.18049 0.0
O299 O 0.2454 0.69637 0.20477 0.0
O300 O 0.33077 0.7588 0.24787 0.0
O301 O 0.28298 0.67601 0.2198 0.0
O302 O 0.19973 0.76767 0.24176 0.0
O303 O 0.24572 0.72711 0.25642 0.0
O304 O 0.29254 0.74034 0.29968 0.0
O305 O 0.28556 0.7874 0.27446 0.0
O306 O 0.19892 0.72521 0.23038 0.0
O307 O 0.24765 0.80835 0.26016 0.0
C308 C 0.31416 0.77427 0.22769 0.0
C309 C 0.33248 0.66504 0.22781 0.0
C310 C 0.35347 0.63025 0.20293 0.0
C311 C 0.33569 0.6514 0.19893 0.0
C312 C 0.36807 0.62282 0.2364 0.0
C313 C 0.34688 0.65742 0.26113 0.0
C314 C 0.36462 0.6363 0.26535 0.0
C315 C 0.23311 0.71181 0.17839 0.0
C316 C 0.31537 0.68833 0.22203 0.0
C317 C 0.30611 0.64324 0.36982 0.0
C318 C 0.27454 0.62012 0.35224 0.0
C319 C 0.21465 0.70922 0.25096 0.0
C320 C 0.19802 0.81829 0.25457 0.0
C321 C 0.19038 0.82712 0.28325 0.0
C322 C 0.17231 0.84789 0.28 0.0
C323 C 0.16152 0.85946 0.24729 0.0
C324 C 0.18755 0.83001 0.22205 0.0
C325 C 0.1692 0.85053 0.21847 0.0
C326 C 0.29682 0.77188 0.30132 0.0
C327 C 0.21569 0.79564 0.25959 0.0
H328 H 0.32502 0.65799 0.17327 0.0
H329 H 0.3819 0.60646 0.24015 0.0
H330 H 0.34486 0.66802 0.28375 0.0
H331 H 0.37588 0.63053 0.29107 0.0
H332 H 0.19809 0.81729 0.30813 0.0
H333 H 0.14759 0.87569 0.2441 0.0
H334 H 0.19327 0.82316 0.19961 0.0
H335 H 0.16095 0.85954 0.19337 0.0
Tb336 Tb 0.28422 0.71261 0.73333 0.0
C337 C 0.19995 0.76425 0.79531 0.0
C338 C 0.14217 0.72735 0.77037 0.0
C339 C 0.15518 0.76125 0.82188 0.0
C340 C 0.17651 0.74168 0.76951 0.0
C341 C 0.18956 0.77396 0.82211 0.0
C342 C 0.13148 0.73825 0.79582 0.0
C343 C 0.24706 0.81132 0.84525 0.0
N344 N 0.23273 0.77731 0.79371 0.0
C345 C 0.25579 0.80214 0.81739 0.0
C346 C 0.21377 0.79708 0.84773 0.0
Tb347 Tb 0.24271 0.76597 0.74282 0.0
N348 N 0.18753 0.73287 0.74434 0.0
C349 C 0.16598 0.70582 0.72274 0.0
C350 C 0.11967 0.702 0.74611 0.0
C351 C 0.13189 0.69056 0.72281 0.0
H352 H 0.2812 0.8156 0.81484 0.0
H353 H 0.11523 0.66955 0.70526 0.0
H354 H 0.10507 0.7282 0.79627 0.0
H355 H 0.26581 0.83028 0.86414 0.0
H356 H 0.17476 0.69417 0.7065 0.0
H357 H 0.40878 0.81214 0.75481 0.0
H358 H 0.09324 0.69012 0.74619 0.0
H359 H 0.24125 0.65509 0.66803 0.0
H360 H 0.35051 0.78699 0.75953 0.0
H361 H 0.25314 0.63415 0.61954 0.0
H362 H 0.14669 0.76887 0.84187 0.0
H363 H 0.42758 0.78791 0.71367 0.0
H364 H 0.41175 0.74825 0.6637 0.0
H365 H 0.20682 0.80491 0.86883 0.0
H366 H 0.36869 0.70176 0.62511 0.0
N367 N 0.33652 0.74557 0.72484 0.0
C368 C 0.35841 0.77457 0.74302 0.0
C369 C 0.40185 0.77626 0.7161 0.0
C370 C 0.37837 0.74913 0.69455 0.0
C371 C 0.39147 0.78975 0.73961 0.0
C372 C 0.34547 0.73417 0.69954 0.0
H373 H 0.30939 0.66 0.60773 0.0
N374 N 0.28947 0.69525 0.68253 0.0
C375 C 0.2724 0.65533 0.63533 0.0
C376 C 0.32108 0.70842 0.67747 0.0
C377 C 0.26574 0.66772 0.66282 0.0
C378 C 0.30418 0.66987 0.62886 0.0
C379 C 0.32918 0.69634 0.65035 0.0
O380 O 0.25978 0.66086 0.73181 0.0
O381 O 0.24087 0.71645 0.74639 0.0
O382 O 0.28238 0.76777 0.79061 0.0
O383 O 0.31589 0.73971 0.78206 0.0
O384 O 0.26792 0.69322 0.78011 0.0
O385 O 0.31454 0.68492 0.75065 0.0
O386 O 0.27296 0.81687 0.75019 0.0
O387 O 0.28563 0.76229 0.72865 0.0
O388 O 0.24364 0.70893 0.68559 0.0
O389 O 0.21398 0.74249 0.69134 0.0
O390 O 0.2572 0.78509 0.69555 0.0
O391 O 0.21834 0.79954 0.7306 0.0
C392 C 0.24202 0.70114 0.77405 0.0
C393 C 0.28711 0.63537 0.77594 0.0
C394 C 0.30663 0.6271 0.83748 0.0
C395 C 0.30469 0.64823 0.80979 0.0
C396 C 0.28819 0.59261 0.83023 0.0
C397 C 0.2689 0.60135 0.76969 0.0
C398 C 0.26912 0.58012 0.79687 0.0
C399 C 0.30899 0.75904 0.80082 0.0
C400 C 0.28814 0.65707 0.74666 0.0
C401 C 0.36205 0.71072 0.64576 0.0
C402 C 0.38661 0.73705 0.66784 0.0
C403 C 0.28306 0.77707 0.7004 0.0
C404 C 0.25152 0.84671 0.70594 0.0
C405 C 0.22815 0.83669 0.6737 0.0
C406 C 0.23188 0.8563 0.6451 0.0
C407 C 0.26067 0.88561 0.64838 0.0
C408 C 0.28006 0.87618 0.70911 0.0
C409 C 0.28473 0.89535 0.68028 0.0
C410 C 0.21944 0.72101 0.67361 0.0
C411 C 0.24715 0.82497 0.73528 0.0
H412 H 0.31746 0.67473 0.81382 0.0
H413 H 0.28923 0.57451 0.84955 0.0
H414 H 0.25491 0.59119 0.74371 0.0
H415 H 0.25543 0.55369 0.79188 0.0
H416 H 0.20651 0.81348 0.67069 0.0
H417 H 0.26392 0.90152 0.62676 0.0
H418 H 0.29885 0.88408 0.73365 0.0
H419 H 0.30677 0.91808 0.68281 0.0
Tb420 Tb 0.24106 0.23286 0.77501 0.0
C421 C 0.31232 0.30938 0.66406 0.0
C422 C 0.2661 0.30589 0.61436 0.0
C423 C 0.32041 0.35162 0.62136 0.0
C424 C 0.27927 0.29338 0.64563 0.0
C425 C 0.33364 0.33824 0.65178 0.0
C426 C 0.28664 0.33547 0.60269 0.0
C427 C 0.38014 0.33637 0.69842 0.0
N428 N 0.32416 0.29528 0.69288 0.0
C429 C 0.35797 0.30759 0.70938 0.0
C430 C 0.36783 0.35205 0.66976 0.0
Tb431 Tb 0.28626 0.24803 0.70882 0.0
N432 N 0.26053 0.26465 0.65757 0.0
C433 C 0.22883 0.24606 0.63808 0.0
C434 C 0.23299 0.28787 0.5954 0.0
C435 C 0.21442 0.25763 0.60714 0.0
H436 H 0.36794 0.2958 0.73155 0.0
H437 H 0.18899 0.24315 0.59235 0.0
H438 H 0.27691 0.34563 0.57887 0.0
H439 H 0.40669 0.34642 0.71211 0.0
H440 H 0.214 0.22254 0.64646 0.0
H441 H 0.33723 0.23669 0.89204 0.0
H442 H 0.22183 0.2967 0.57135 0.0
H443 H 0.15988 0.18271 0.74935 0.0
H444 H 0.31202 0.25868 0.8389 0.0
H445 H 0.12245 0.1293 0.76555 0.0
H446 H 0.33628 0.37393 0.61162 0.0
H447 H 0.30553 0.18113 0.91009 0.0
H448 H 0.25181 0.13033 0.89961 0.0
H449 H 0.38507 0.37422 0.6612 0.0
H450 H 0.19328 0.10102 0.86515 0.0
N451 N 0.26661 0.21553 0.82576 0.0
C452 C 0.29775 0.23436 0.84617 0.0
C453 C 0.29431 0.1906 0.88654 0.0
C454 C 0.26173 0.17219 0.86658 0.0
C455 C 0.31223 0.22199 0.87648 0.0
C456 C 0.24837 0.18564 0.83611 0.0
H457 H 0.14467 0.10058 0.81524 0.0
N458 N 0.20363 0.18375 0.78842 0.0
C459 C 0.14871 0.14012 0.78005 0.0
C460 C 0.21571 0.16911 0.81674 0.0
C461 C 0.17011 0.17043 0.77089 0.0
C462 C 0.16135 0.12396 0.80808 0.0
C463 C 0.1951 0.13871 0.8272 0.0
O464 O 0.20274 0.25 0.77653 0.0
O465 O 0.24743 0.25653 0.7266 0.0
O466 O 0.30076 0.29668 0.73386 0.0
O467 O 0.28653 0.27826 0.78573 0.0
O468 O 0.19945 0.23204 0.731 0.0
O469 O 0.2484 0.26359 0.81752 0.0
O470 O 0.32482 0.23147 0.70623 0.0
O471 O 0.28033 0.22551 0.75749 0.0
O472 O 0.22848 0.18483 0.75116 0.0
O473 O 0.24006 0.20279 0.69824 0.0
O474 O 0.3282 0.24896 0.75281 0.0
O475 O 0.27628 0.21282 0.66951 0.0
C476 C 0.21668 0.25064 0.71105 0.0
C477 C 0.19864 0.26163 0.83135 0.0
C478 C 0.16959 0.28425 0.86179 0.0
C479 C 0.19108 0.28836 0.83979 0.0
C480 C 0.15592 0.25279 0.87503 0.0
C481 C 0.18524 0.23087 0.84552 0.0
C482 C 0.16396 0.22651 0.86718 0.0
C483 C 0.30095 0.30195 0.76621 0.0
C484 C 0.21891 0.26584 0.80625 0.0
C485 C 0.20859 0.12452 0.85682 0.0
C486 C 0.24189 0.14123 0.87646 0.0
C487 C 0.31094 0.23125 0.77315 0.0
C488 C 0.32344 0.2137 0.65114 0.0
C489 C 0.3335 0.18764 0.64591 0.0
C490 C 0.34925 0.18854 0.61917 0.0
C491 C 0.35527 0.21616 0.59832 0.0
C492 C 0.32957 0.24079 0.6298 0.0
C493 C 0.34554 0.24204 0.60367 0.0
C494 C 0.2262 0.17955 0.71844 0.0
C495 C 0.30662 0.21228 0.67888 0.0
H496 H 0.20193 0.31222 0.82913 0.0
H497 H 0.13845 0.24817 0.89104 0.0
H498 H 0.19078 0.2101 0.83955 0.0
H499 H 0.15328 0.20251 0.87759 0.0
H500 H 0.32864 0.16655 0.66224 0.0
H501 H 0.3679 0.21793 0.57803 0.0
H502 H 0.322 0.26093 0.63323 0.0
H503 H 0.35038 0.26316 0.58745 0.0
Tb504 Tb 0.77812 0.21081 0.74709 0.0
C505 C 0.73682 0.31806 0.66997 0.0
C506 C 0.78827 0.36741 0.67962 0.0
C507 C 0.74376 0.36005 0.62677 0.0
C508 C 0.76869 0.33665 0.69072 0.0
C509 C 0.72385 0.33001 0.63812 0.0
C510 C 0.77584 0.37871 0.64747 0.0
C511 C 0.67085 0.28358 0.63234 0.0
N512 N 0.7179 0.2891 0.68154 0.0
C513 C 0.68445 0.27304 0.66422 0.0
C514 C 0.6908 0.31195 0.61897 0.0
Tb515 Tb 0.74353 0.27451 0.73421 0.0
N516 N 0.7803 0.32505 0.72178 0.0
C517 C 0.81105 0.34405 0.74319 0.0
C518 C 0.8197 0.38627 0.70127 0.0
C519 C 0.83109 0.37452 0.73311 0.0
H520 H 0.66852 0.25151 0.67478 0.0
H521 H 0.8554 0.38904 0.7501 0.0
H522 H 0.79072 0.4021 0.63854 0.0
H523 H 0.64485 0.27004 0.61834 0.0
H524 H 0.82135 0.33643 0.76807 0.0
H525 H 0.674 0.09394 0.74774 0.0
H526 H 0.8352 0.41014 0.69382 0.0
H527 H 0.85846 0.23878 0.79823 0.0
H528 H 0.70363 0.14511 0.723 0.0
H529 H 0.88845 0.22605 0.85427 0.0
H530 H 0.73428 0.36942 0.60229 0.0
H531 H 0.69976 0.07965 0.80572 0.0
H532 H 0.74733 0.09522 0.85941 0.0
H533 H 0.68007 0.32032 0.5944 0.0
H534 H 0.80534 0.13161 0.88879 0.0
N535 N 0.7461 0.1624 0.7675 0.0
C536 C 0.71545 0.14053 0.74878 0.0
C537 C 0.71266 0.10313 0.79557 0.0
C538 C 0.74424 0.12491 0.81434 0.0
C539 C 0.69825 0.11093 0.76266 0.0
C540 C 0.76096 0.15436 0.79915 0.0
H541 H 0.85821 0.18 0.88685 0.0
N542 N 0.81046 0.20101 0.79864 0.0
C543 C 0.86186 0.21138 0.84369 0.0
C544 C 0.79398 0.17444 0.81536 0.0
C545 C 0.84463 0.21832 0.81156 0.0
C546 C 0.84467 0.1855 0.86206 0.0
C547 C 0.81058 0.16614 0.84761 0.0
O548 O 0.79376 0.20943 0.70197 0.0
O549 O 0.78084 0.25774 0.72527 0.0
O550 O 0.72733 0.24543 0.68523 0.0
O551 O 0.73161 0.19611 0.7055 0.0
O552 O 0.82547 0.25251 0.74709 0.0
O553 O 0.78792 0.16939 0.73593 0.0
O554 O 0.69493 0.26856 0.73715 0.0
O555 O 0.73547 0.22284 0.74743 0.0
O556 O 0.79452 0.23893 0.79653 0.0
O557 O 0.7853 0.28782 0.78055 0.0
O558 O 0.72261 0.2499 0.77686 0.0
O559 O 0.73972 0.31249 0.76042 0.0
C560 C 0.81246 0.27258 0.7303 0.0
C561 C 0.83028 0.18142 0.70672 0.0
C562 C 0.86154 0.16032 0.67911 0.0
C563 C 0.83082 0.16163 0.68088 0.0
C564 C 0.89175 0.17895 0.70311 0.0
C565 C 0.86064 0.20056 0.73019 0.0
C566 C 0.89127 0.19923 0.72844 0.0
C567 C 0.72226 0.21405 0.68032 0.0
C568 C 0.79788 0.18178 0.70875 0.0
C569 C 0.7931 0.13814 0.86386 0.0
C570 C 0.76009 0.11743 0.84714 0.0
C571 C 0.72408 0.22179 0.77335 0.0
C572 C 0.68578 0.31584 0.75206 0.0
C573 C 0.68288 0.32728 0.78251 0.0
C574 C 0.66236 0.34538 0.78114 0.0
C575 C 0.6443 0.35165 0.74881 0.0
C576 C 0.66785 0.32232 0.71992 0.0
C577 C 0.64701 0.34004 0.71837 0.0
C578 C 0.79822 0.26972 0.80288 0.0
C579 C 0.70696 0.29642 0.75562 0.0
H580 H 0.80744 0.14703 0.66244 0.0
H581 H 0.91566 0.17805 0.70195 0.0
H582 H 0.86074 0.21647 0.74974 0.0
H583 H 0.91461 0.21392 0.74672 0.0
H584 H 0.69699 0.32242 0.80738 0.0
H585 H 0.62803 0.36537 0.74713 0.0
H586 H 0.66981 0.31387 0.69618 0.0
H587 H 0.63299 0.34485 0.69354 0.0
Tb588 Tb 0.74765 0.70942 0.70387 0.0
C589 C 0.85059 0.8099 0.82029 0.0
C590 C 0.86165 0.77692 0.86915 0.0
C591 C 0.90484 0.83014 0.86324 0.0
C592 C 0.84014 0.78147 0.83811 0.0
C593 C 0.88285 0.83488 0.8329 0.0
C594 C 0.89427 0.80116 0.88132 0.0
C595 C 0.8683 0.8682 0.78592 0.0
N596 N 0.8285 0.81355 0.79121 0.0
C597 C 0.83647 0.84281 0.77461 0.0
C598 C 0.89172 0.86412 0.81502 0.0
Tb599 Tb 0.77719 0.77008 0.7746 0.0
N600 N 0.8084 0.75878 0.8256 0.0
C601 C 0.79585 0.73177 0.84421 0.0
C602 C 0.84949 0.74846 0.88732 0.0
C603 C 0.8163 0.72597 0.87497 0.0
H604 H 0.81877 0.8465 0.75211 0.0
H605 H 0.80642 0.70412 0.8891 0.0
H606 H 0.91126 0.79802 0.90499 0.0
H607 H 0.87471 0.89094 0.77222 0.0
H608 H 0.77025 0.71418 0.83521 0.0
H609 H 0.72561 0.77345 0.58596 0.0
H610 H 0.86526 0.74394 0.91119 0.0
H611 H 0.70238 0.63424 0.72554 0.0
H612 H 0.7595 0.76242 0.6408 0.0
H613 H 0.64454 0.59267 0.70596 0.0
H614 H 0.92983 0.84893 0.87325 0.0
H615 H 0.66493 0.7381 0.56488 0.0
H616 H 0.61552 0.68762 0.57241 0.0
H617 H 0.91628 0.8839 0.82383 0.0
H618 H 0.59348 0.63803 0.60493 0.0
N619 N 0.71846 0.72149 0.6519 0.0
C620 C 0.73312 0.74665 0.6323 0.0
C621 C 0.67972 0.73309 0.58916 0.0
C622 C 0.66535 0.70614 0.60824 0.0
C623 C 0.71396 0.75301 0.60091 0.0
C624 C 0.68578 0.70079 0.63966 0.0
H625 H 0.60426 0.60217 0.65461 0.0
N626 N 0.69502 0.66792 0.68637 0.0
C627 C 0.65236 0.61516 0.69209 0.0
C628 C 0.67358 0.67288 0.65753 0.0
C629 C 0.68527 0.63885 0.70305 0.0
C630 C 0.62966 0.62066 0.66318 0.0
C631 C 0.64034 0.64955 0.64514 0.0
O632 O 0.76057 0.66854 0.69822 0.0
O633 O 0.78189 0.727 0.75484 0.0
O634 O 0.81987 0.77894 0.75285 0.0
O635 O 0.78912 0.75514 0.69771 0.0
O636 O 0.75789 0.67726 0.74539 0.0
O637 O 0.77559 0.71136 0.66794 0.0
O638 O 0.75645 0.80589 0.77698 0.0
O639 O 0.74363 0.75225 0.72376 0.0
O640 O 0.70522 0.70349 0.72505 0.0
O641 O 0.73639 0.72385 0.78087 0.0
O642 O 0.76535 0.80188 0.73266 0.0
O643 O 0.75589 0.7703 0.81615 0.0
C644 C 0.78004 0.69941 0.76811 0.0
C645 C 0.76777 0.65994 0.64373 0.0
C646 C 0.78587 0.62862 0.60957 0.0
C647 C 0.79271 0.6494 0.63848 0.0
C648 C 0.75357 0.61837 0.58625 0.0
C649 C 0.73579 0.64942 0.62015 0.0
C650 C 0.72877 0.6287 0.59158 0.0
C651 C 0.8168 0.77537 0.71955 0.0
C652 C 0.77559 0.68172 0.67403 0.0
C653 C 0.61921 0.6555 0.61478 0.0
C654 C 0.63173 0.68376 0.59631 0.0
C655 C 0.74468 0.77921 0.70962 0.0
C656 C 0.75746 0.8227 0.83202 0.0
C657 C 0.73172 0.82896 0.84171 0.0
C658 C 0.73964 0.85671 0.86373 0.0
C659 C 0.77399 0.87781 0.87559 0.0
C660 C 0.7913 0.84361 0.84526 0.0
C661 C 0.79945 0.87097 0.86686 0.0
C662 C 0.70826 0.7051 0.75854 0.0
C663 C 0.74855 0.7961 0.80587 0.0
H664 H 0.8175 0.65766 0.65667 0.0
H665 H 0.7473 0.60194 0.56412 0.0
H666 H 0.71628 0.65715 0.62382 0.0
H667 H 0.70397 0.62051 0.57353 0.0
H668 H 0.70567 0.81229 0.83178 0.0
H669 H 0.78148 0.90018 0.89115 0.0
H670 H 0.81142 0.83932 0.83832 0.0
H671 H 0.82565 0.88741 0.87634 0.0
Cd672 Cd 0.9819 0.95789 0.51968 0.0
Cd673 Cd 0.04285 0.0142 0.44993 0.0
C674 C 0.02458 0.91638 0.54587 0.0
N675 N 1.00276 0.91841 0.51587 0.0
C676 C 0.01572 0.88093 0.48642 0.0
C677 C 0.04149 0.88211 0.51589 0.0
C678 C 0.04422 0.89799 0.54656 0.0
C679 C 0.99622 0.89962 0.48701 0.0
H680 H 0.02816 0.93074 0.56867 0.0
H681 H 0.97756 0.90073 0.46394 0.0
C682 C 0.96801 0.95853 0.42744 0.0
C683 C 0.98349 0.03933 0.43443 0.0
C684 C 0.96591 0.05963 0.43428 0.0
C685 C 0.97822 0.08503 0.45993 0.0
C686 C 1.00626 0.08716 0.48736 0.0
C687 C 0.02272 0.06538 0.48703 0.0
N688 N 1.01129 0.04241 0.46044 0.0
H689 H 0.97595 0.02264 0.41244 0.0
H690 H 0.04566 0.06819 0.50677 0.0
C691 C 0.05107 0.94553 0.44392 0.0
N692 N 0.06782 0.97602 0.46003 0.0
C693 C 0.1206 0.96918 0.4719 0.0
C694 C 0.10423 0.93868 0.45321 0.0
C695 C 0.06892 0.92608 0.44054 0.0
C696 C 0.10171 0.98772 0.47487 0.0
H697 H 0.0244 0.93738 0.4312 0.0
H698 H 0.11452 0.01269 0.48616 0.0
C699 C 0.06637 0.01249 0.54185 0.0
C700 C 0.94571 0.92095 0.56518 0.0
N701 N 0.96351 0.00027 0.51861 0.0
C702 C 0.97926 0.01999 0.5478 0.0
C703 C 0.96594 0.04164 0.55627 0.0
C704 C 0.93606 0.04322 0.53438 0.0
C705 C 0.9213 0.02384 0.50321 0.0
C706 C 0.93538 0.00195 0.49596 0.0
C707 C 0.07532 0.05427 0.40225 0.0
O708 O 0.97294 0.95835 0.45973 0.0
O709 O 0.99165 0.97544 0.41406 0.0
O710 O 0.06881 0.02073 0.51147 0.0
O711 O 0.03907 -0.00778 0.54768 0.0
O712 O 0.93385 0.91381 0.53284 0.0
O713 O 0.97332 0.94553 0.57526 0.0
O714 O 0.08422 0.0642 0.43373 0.0
O715 O 0.05242 0.02586 0.394 0.0
H716 H 1.00081 0.01706 0.56587 0.0
H717 H 0.92293 0.98513 0.47343 0.0
H718 H 0.01276 0.86829 0.46261 0.0
H719 H 0.06339 0.89847 0.57003 0.0
H720 H 0.94376 0.05647 0.41313 0.0
H721 H 0.01634 0.10639 0.50766 0.0
H722 H 0.14793 0.97973 0.48136 0.0
H723 H 0.05572 0.90298 0.42521 0.0
H724 H 0.97776 0.05519 0.58102 0.0
H725 H 0.89844 0.02454 0.48545 0.0
Cd726 Cd 0.50081 0.94939 0.03865 0.0
Cd727 Cd 0.51982 0.02593 0.93821 0.0
C728 C 0.57642 0.9419 0.06993 0.0
N729 N 0.54292 0.92459 0.05509 0.0
C730 C 0.55152 0.87323 0.06622 0.0
C731 C 0.58604 0.89024 0.0825 0.0
C732 C 0.59849 0.92519 0.08358 0.0
C733 C 0.5305 0.89084 0.05271 0.0
H734 H 0.58589 0.96866 0.07226 0.0
H735 H 0.5038 0.87741 0.04123 0.0
C736 C 0.46954 0.94982 0.94538 0.0
C737 C 0.45101 0.03682 0.89168 0.0
C738 C 0.42871 0.05314 0.87803 0.0
C739 C 0.43314 0.08319 0.89371 0.0
C740 C 0.45983 0.09524 0.92384 0.0
C741 C 0.48153 0.07809 0.93665 0.0
N742 N 0.47707 0.04956 0.92036 0.0
H743 H 0.44806 0.01442 0.87869 0.0
H744 H 0.50274 0.08826 0.95898 0.0
C745 C 0.53998 0.97882 0.89523 0.0
N746 N 0.54364 0.9881 0.92835 0.0
C747 C 0.5808 0.95904 0.94983 0.0
C748 C 0.57883 0.95067 0.91582 0.0
C749 C 0.55773 0.96035 0.88836 0.0
C750 C 0.56315 0.97819 0.95553 0.0
H751 H 0.52407 0.98661 0.874 0.0
H752 H 0.5658 0.98594 0.98162 0.0
C753 C 0.54731 0.02972 0.0345 0.0
C754 C 0.4507 0.90015 0.06603 0.0
N755 N 0.47816 0.98553 0.05437 0.0
C756 C 0.47579 0.98788 0.08722 0.0
C757 C 0.45886 0.00688 0.09486 0.0
C758 C 0.44459 0.02384 0.06852 0.0
C759 C 0.44817 0.02163 0.03509 0.0
C760 C 0.46476 0.00193 0.02848 0.0
C761 C 0.56743 0.07288 0.90609 0.0
O762 O 0.48759 0.95843 0.97617 0.0
O763 O 0.47441 0.97115 0.92224 0.0
O764 O 0.53501 0.02246 0.00221 0.0
O765 O 0.54132 0.00674 0.05595 0.0
O766 O 0.44391 0.90674 0.03423 0.0
O767 O 0.48067 0.91527 0.08422 0.0
O768 O 0.5703 0.07658 0.93818 0.0
O769 O 0.54208 0.0488 0.88936 0.0
H770 H 0.48638 0.97442 0.10733 0.0
H771 H 0.46643 -0.00078 0.00246 0.0
H772 H 0.54065 0.84641 0.06422 0.0
H773 H 0.62476 0.93951 0.09606 0.0
H774 H 0.40839 0.04243 0.8551 0.0
H775 H 0.46483 0.11844 0.93673 0.0
H776 H 0.59693 0.95208 0.97166 0.0
H777 H 0.55538 0.95408 0.8618 0.0
H778 H 0.45667 0.00811 0.12101 0.0
H779 H 0.43717 0.034 0.014 0.0
Cd780 Cd 1.0007 0.4519 0.03965 0.0
Cd781 Cd 0.02734 0.53223 0.94098 0.0
C782 C 0.05189 0.4234 0.0935 0.0
N783 N 0.03994 0.42368 0.0586 0.0
C784 C 0.07016 0.38983 0.05059 0.0
C785 C 0.0827 0.38882 0.08672 0.0
C786 C 0.07295 0.40607 0.10802 0.0
C787 C 0.04871 0.40726 0.03709 0.0
H788 H 0.04458 0.43629 0.11034 0.0
H789 H 0.03892 0.40744 0.00941 0.0
C790 C 0.9705 0.45788 0.94623 0.0
C791 C 0.96757 0.55266 0.88965 0.0
C792 C 0.94684 0.57042 0.87549 0.0
C793 C 0.94697 0.59648 0.89488 0.0
C794 C 0.96789 0.60296 0.929 0.0
C795 C 0.98821 0.58444 0.94222 0.0
N796 N 0.98794 0.5599 0.92244 0.0
H797 H 0.96793 0.5334 0.87408 0.0
H798 H 1.00495 0.59035 0.96802 0.0
C799 C 0.03465 0.47612 0.89572 0.0
N800 N 0.04724 0.49326 0.92676 0.0
C801 C 0.08833 0.46821 0.94459 0.0
C802 C 0.07593 0.45012 0.91281 0.0
C803 C 0.04858 0.45416 0.88825 0.0
C804 C 0.07357 0.48973 0.95102 0.0
H805 H 0.01403 0.47974 0.87665 0.0
H806 H 0.08334 0.50397 0.97532 0.0
C807 C 0.05796 0.52523 0.03373 0.0
C808 C 0.94834 0.40803 0.06825 0.0
N809 N 0.98346 0.49265 0.05511 0.0
C810 C 0.99528 0.50776 0.08719 0.0
C811 C 0.98243 0.53036 0.09547 0.0
C812 C 0.95693 0.53715 0.07062 0.0
C813 C 0.94534 0.52114 0.03773 0.0
C814 C 0.95898 0.49889 0.03054 0.0
C815 C 0.07958 0.57872 0.9145 0.0
O816 O 0.98831 0.46379 0.97737 0.0
O817 O 0.97803 0.48003 0.92429 0.0
O818 O 0.03925 0.51956 0.00296 0.0
O819 O 0.05049 0.50339 0.05593 0.0
O820 O 0.94343 0.40906 0.0355 0.0
O821 O 0.97733 0.42616 0.08649 0.0
O822 O 0.0817 0.57916 0.94679 0.0
O823 O 0.05319 0.55762 0.89502 0.0
H824 H 0.01435 0.50195 0.10648 0.0
H825 H 0.94968 0.48617 0.0054 0.0
H826 H 0.07696 0.37749 0.03273 0.0
H827 H 0.08087 0.40578 0.1359 0.0
H828 H 0.93087 0.56369 0.84941 0.0
H829 H 0.96946 0.62286 0.94511 0.0
H830 H 0.10912 0.46564 0.9644 0.0
H831 H 0.03851 0.44101 0.86326 0.0
H832 H 0.9918 0.54181 0.12128 0.0
H833 H 0.92599 0.52583 0.01767 0.0
Cd834 Cd 0.47368 0.46977 0.02444 0.0
Cd835 Cd 0.55471 0.51959 0.95966 0.0
C836 C 0.53319 0.44499 0.04937 0.0
N837 N 0.5021 0.4351 0.02693 0.0
C838 C 0.50639 0.38498 0.01211 0.0
C839 C 0.53919 0.39521 0.03437 0.0
C840 C 0.55257 0.42588 0.05284 0.0
C841 C 0.48813 0.40557 0.00873 0.0
H842 H 0.54307 0.46777 0.06471 0.0
H843 H 0.46278 0.39798 -0.00807 0.0
C844 C 0.48101 0.46168 0.93682 0.0
C845 C 0.50047 0.54841 0.94173 0.0
C846 C 0.48215 0.56848 0.93752 0.0
C847 C 0.49681 0.59973 0.95469 0.0
C848 C 0.52927 0.60936 0.97746 0.0
C849 C 0.54683 0.58795 0.98118 0.0
N850 N 0.53198 0.55818 0.96324 0.0
H851 H 0.48988 0.52533 0.92696 0.0
H852 H 0.57238 0.59535 -0.00252 0.0
C853 C 0.57171 0.45895 0.98027 0.0
N854 N 0.58973 0.49192 0.98082 0.0
C855 C 0.63699 0.48262 0.97218 0.0
C856 C 0.61734 0.44847 0.96731 0.0
C857 C 0.58529 0.43659 0.97395 0.0
C858 C 0.62235 0.50426 0.97869 0.0
H859 H 0.5452 0.45024 0.97976 0.0
H860 H 0.63532 0.53069 0.97743 0.0
C861 C 0.54201 0.52557 0.04005 0.0
C862 C 0.44214 0.43211 0.07221 0.0
N863 N 0.4394 0.49816 0.00246 0.0
C864 C 0.45421 0.53151 0.00845 0.0
C865 C 0.43538 0.54905 0.01436 0.0
C866 C 0.40136 0.53167 0.01451 0.0
C867 C 0.38569 0.49819 0.00287 0.0
C868 C 0.40554 0.48159 -0.00268 0.0
C869 C 0.58185 0.55586 0.909 0.0
O870 O 0.48391 0.46788 0.96816 0.0
O871 O 0.50594 0.47615 0.92403 0.0
O872 O 0.53348 0.51309 0.00981 0.0
O873 O 0.52075 0.51531 0.05794 0.0
O874 O 0.43052 0.42278 0.04028 0.0
O875 O 0.46689 0.45959 0.08056 0.0
O876 O 0.59534 0.56591 0.94067 0.0
O877 O 0.55699 0.52823 0.90192 0.0
H878 H 0.48139 0.54369 0.01333 0.0
H879 H 0.39481 0.4549 -0.00651 0.0
H880 H 0.49485 0.36135 -0.00221 0.0
H881 H 0.57802 0.43551 0.06955 0.0
H882 H 0.45689 0.55985 0.92025 0.0
H883 H 0.54122 0.63338 -0.00894 0.0
H884 H 0.66158 0.49282 0.96667 0.0
H885 H 0.5692 0.41066 0.9698 0.0
H886 H 0.4485 0.57481 0.02331 0.0
H887 H 0.35937 0.48414 0.00221 0.0
Cd888 Cd 1.00274 0.45188 0.54083 0.0
Cd889 Cd 0.02033 0.52718 0.43601 0.0
C890 C 0.05366 0.42382 0.59589 0.0
N891 N 0.04601 0.42885 0.56138 0.0
C892 C 0.08335 0.40281 0.55368 0.0
C893 C 0.0914 0.39675 0.58931 0.0
C894 C 0.07598 0.40778 0.61028 0.0
C895 C 0.06047 0.4187 0.54024 0.0
H896 H 0.04173 0.43161 0.61234 0.0
H897 H 0.05395 0.4225 0.51279 0.0
C898 C 0.96854 0.45085 0.44691 0.0
C899 C 0.95626 0.5421 0.38447 0.0
C900 C 0.93371 0.55808 0.37051 0.0
C901 C 0.9331 0.58395 0.38954 0.0
C902 C 0.9552 0.59223 0.42299 0.0
C903 C 0.97741 0.5756 0.43595 0.0
N904 N 0.97779 0.55113 0.41659 0.0
H905 H 0.95709 0.52289 0.36923 0.0
H906 H 0.99504 0.58292 0.46118 0.0
C907 C 0.02929 0.46578 0.40015 0.0
N908 N 0.04444 0.48998 0.42579 0.0
C909 C 0.09456 0.47758 0.43963 0.0
C910 C 0.07962 0.45221 0.41346 0.0
C911 C 0.04622 0.44616 0.39398 0.0
C912 C 0.07638 0.49599 0.44551 0.0
H913 H 1.00428 0.46198 0.38396 0.0
H914 H 0.08814 0.5159 0.46517 0.0
C915 C 0.05372 0.53029 0.53188 0.0
C916 C 0.95438 0.4072 0.57415 0.0
N917 N 0.97715 0.48769 0.55097 0.0
C918 C 0.9897 0.50911 0.57906 0.0
C919 C 0.97153 0.52755 0.5851 0.0
C920 C 0.93991 0.52338 0.56241 0.0
C921 C 0.92781 0.50132 0.53351 0.0
C922 C 0.94693 0.48368 0.52827 0.0
C923 C 0.06853 0.57129 0.40193 0.0
O924 O 0.98627 0.45924 0.47788 0.0
O925 O 0.97331 0.47247 0.42398 0.0
O926 O 0.03848 0.52315 0.49997 0.0
O927 O 0.04765 0.50759 0.55362 0.0
O928 O 0.95343 0.40028 0.54331 0.0
O929 O 0.97826 0.43335 0.58909 0.0
O930 O 0.06914 0.57868 0.43247 0.0
O931 O 0.04492 0.54483 0.38729 0.0
H932 H 0.01337 0.51129 0.59728 0.0
H933 H 0.93727 0.46608 0.5065 0.0
H934 H 0.09454 0.3954 0.53613 0.0
H935 H 0.08019 0.4033 0.63761 0.0
H936 H 0.91702 0.55029 0.34487 0.0
H937 H 0.95623 0.61219 0.43865 0.0
H938 H 0.12045 0.484 0.45483 0.0
H939 H 0.03326 0.42669 0.37386 0.0
H940 H 0.98153 0.54398 0.60793 0.0
H941 H 0.90365 0.49751 0.51529 0.0
Cd942 Cd 0.50214 0.95077 0.53689 0.0
Cd943 Cd 0.5261 0.02664 0.43395 0.0
C944 C 0.55817 0.92799 0.5901 0.0
N945 N 0.54188 0.92374 0.55584 0.0
C946 C 0.56678 0.88475 0.54886 0.0
C947 C 0.58365 0.88825 0.58442 0.0
C948 C 0.57895 0.91049 0.60489 0.0
C949 C 0.54585 0.90258 0.53515 0.0
H950 H 0.55424 0.9444 0.60631 0.0
H951 H 0.53235 0.89904 0.50807 0.0
C952 C 0.46965 0.95633 0.44699 0.0
C953 C 0.4712 0.05246 0.3804 0.0
C954 C 0.45085 0.07074 0.36665 0.0
C955 C 0.44741 0.09324 0.38795 0.0
C956 C 0.46458 0.09574 0.42335 0.0
C957 C 0.48463 0.07683 0.43608 0.0
N958 N 0.48778 0.05574 0.41458 0.0
H959 H 0.47413 0.03586 0.36354 0.0
H960 H 0.49827 0.07959 0.46309 0.0
C961 C 0.52674 0.96234 0.39498 0.0
N962 N 0.5441 0.98514 0.4218 0.0
C963 C 0.58883 0.96446 0.43587 0.0
C964 C 0.57152 0.94058 0.40843 0.0
C965 C 0.53992 0.93955 0.388 0.0
C966 C 0.57456 0.98653 0.44214 0.0
H967 H 0.50293 0.96216 0.37862 0.0
H968 H 0.58803 0.0052 0.463 0.0
C969 C 0.56015 0.02587 0.52996 0.0
C970 C 0.45183 0.90411 0.5655 0.0
N971 N 0.48119 0.98854 0.55302 0.0
C972 C 0.49821 0.01197 0.57935 0.0
C973 C 0.48342 0.03309 0.58704 0.0
C974 C 0.45049 0.02939 0.56817 0.0
C975 C 0.43336 0.00465 0.5416 0.0
C976 C 0.44936 0.98461 0.53427 0.0
C977 C 0.57723 0.06879 0.40265 0.0
O978 O 0.49152 0.96419 0.47589 0.0
O979 O 0.47391 0.97618 0.4225 0.0
O980 O 0.54481 0.02126 0.49787 0.0
O981 O 0.55086 0.0029 0.55064 0.0
O982 O 0.44691 0.90492 0.53268 0.0
O983 O 0.47993 0.924 0.5838 0.0
O984 O 0.57801 0.07488 0.4336 0.0
O985 O 0.55225 0.04424 0.38606 0.0
H986 H 0.52316 0.01425 0.59457 0.0
H987 H 0.43629 0.96565 0.51365 0.0
H988 H 0.56962 0.8684 0.53163 0.0
H989 H 0.59041 0.91381 0.63245 0.0
H990 H 0.43784 0.06703 0.33943 0.0
H991 H 0.46336 0.1128 0.44105 0.0
H992 H 0.6131 0.96602 0.45243 0.0
H993 H 0.52594 0.92186 0.36628 0.0
H994 H 0.49729 0.0517 0.60796 0.0
H995 H 0.408 0.00111 0.52639 0.0
C996 C 0.14987 0.17442 0.26007 0.0
C997 C 0.18307 0.176 0.26658 0.0
C998 C 0.12766 0.15227 0.27776 0.0
C999 C 0.13936 0.13153 0.30179 0.0
C1000 C 0.1721 0.13134 0.30597 0.0
C1001 C 0.19371 0.15387 0.28837 0.0
C1002 C 0.0928 0.15286 0.27274 0.0
C1003 C 0.18528 0.10919 0.33097 0.0
C1004 C 0.11098 0.1081 0.38356 0.0
C1005 C 0.09024 0.07468 0.37596 0.0
C1006 C 0.12557 0.12751 0.35867 0.0
C1007 C 0.11944 0.11288 0.32573 0.0
C1008 C 0.0977 0.07943 0.31757 0.0
C1009 C 0.08322 0.06068 0.34285 0.0
C1010 C 0.14861 0.16331 0.36806 0.0
C1011 C 0.09101 0.06306 0.28279 0.0
H1012 H 0.14205 0.19174 0.24292 0.0
H1013 H 0.21949 0.15515 0.29273 0.0
H1014 H 0.07347 0.12732 0.27039 0.0
H1015 H 0.09218 0.16544 0.2957 0.0
H1016 H 0.08576 0.16629 0.24945 0.0
H1017 H 0.20979 0.10953 0.32811 0.0
H1018 H 0.18908 0.11758 0.35788 0.0
H1019 H 0.16667 0.08327 0.3271 0.0
H1020 H 0.11604 0.119 0.40903 0.0
H1021 H 0.06701 0.0348 0.33688 0.0
H1022 H 0.14114 0.1796 0.34805 0.0
H1023 H 0.17502 0.16657 0.36908 0.0
H1024 H 0.14814 0.17165 0.39353 0.0
H1025 H 0.08387 0.07852 0.2616 0.0
H1026 H 0.07059 0.03801 0.27929 0.0
H1027 H 0.11446 0.06063 0.28025 0.0
C1028 C 0.84977 0.16663 0.38936 0.0
C1029 C 0.82471 0.13498 0.37767 0.0
C1030 C 0.87717 0.17004 0.41797 0.0
C1031 C 0.88017 0.14118 0.43342 0.0
C1032 C 0.85122 0.11138 0.4278 0.0
C1033 C 0.82295 0.10921 0.40076 0.0
C1034 C 0.90554 0.20345 0.42742 0.0
C1035 C 0.85193 0.08034 0.44626 0.0
C1036 C 0.95129 0.11957 0.42267 0.0
C1037 C 0.96208 0.10954 0.45593 0.0
C1038 C 0.92641 0.13301 0.41524 0.0
C1039 C 0.91378 0.13858 0.44251 0.0
C1040 C 0.92978 0.1349 0.47707 0.0
C1041 C 0.95346 0.11958 0.48348 0.0
C1042 C 0.91139 0.13758 0.37769 0.0
C1043 C 0.92038 0.14503 0.50695 0.0
H1044 H 0.85073 0.1884 0.37477 0.0
H1045 H 0.80151 0.0859 0.39548 0.0
H1046 H 0.92221 0.20415 0.45365 0.0
H1047 H 0.92112 0.20926 0.40848 0.0
H1048 H 0.89507 0.2231 0.42635 0.0
H1049 H 0.8272 0.0592 0.43862 0.0
H1050 H 0.87156 0.07292 0.44048 0.0
H1051 H 0.85842 0.08506 0.47456 0.0
H1052 H 0.96 0.11394 0.40171 0.0
H1053 H 0.96354 0.11374 0.50953 0.0
H1054 H 0.91353 0.16358 0.37386 0.0
H1055 H 0.88416 0.12135 0.36982 0.0
H1056 H 0.92422 0.13152 0.36002 0.0
H1057 H 0.94275 0.15399 0.52955 0.0
H1058 H 0.90086 0.12331 0.51461 0.0
H1059 H 0.90999 0.16476 0.50013 0.0
C1060 C 0.82399 0.85745 0.27445 0.0
C1061 C 0.80278 0.82871 0.28643 0.0
C1062 C 0.84544 0.88434 0.29741 0.0
C1063 C 0.84477 0.88216 0.33256 0.0
C1064 C 0.81932 0.85573 0.3432 0.0
C1065 C 0.79861 0.82907 0.3199 0.0
C1066 C 0.87187 0.91278 0.28514 0.0
C1067 C 0.81723 0.85309 0.38033 0.0
C1068 C 0.93186 0.90775 0.3925 0.0
C1069 C 0.93573 0.93816 0.40571 0.0
C1070 C 0.90167 0.88883 0.36927 0.0
C1071 C 0.87543 0.90136 0.35887 0.0
C1072 C 0.87914 0.93189 0.37304 0.0
C1073 C 0.90959 0.95008 0.39662 0.0
C1074 C 0.89826 0.85588 0.35526 0.0
C1075 C 0.85186 0.94604 0.36234 0.0
H1076 H 0.82593 0.85801 0.24804 0.0
H1077 H 0.78119 0.80753 0.32906 0.0
H1078 H 0.87626 0.93662 0.29772 0.0
H1079 H 0.89617 0.90889 0.29221 0.0
H1080 H 0.86449 0.91456 0.25662 0.0
H1081 H 0.79183 0.8359 0.3825 0.0
H1082 H 0.83631 0.84338 0.39554 0.0
H1083 H 0.82281 0.87766 0.39207 0.0
H1084 H 0.95263 0.8991 0.39992 0.0
H1085 H 0.91338 0.974 0.40715 0.0
H1086 H 0.89538 0.85667 0.32693 0.0
H1087 H 0.87532 0.83585 0.3598 0.0
H1088 H 0.92055 0.84931 0.36741 0.0
H1089 H 0.85302 0.95769 0.33713 0.0
H1090 H 0.85528 0.96529 0.38148 0.0
H1091 H 0.82627 0.92643 0.359 0.0
C1092 C 0.19012 0.86625 0.34232 0.0
C1093 C 0.16495 0.85724 0.31092 0.0
C1094 C 0.18379 0.87606 0.37159 0.0
C1095 C 0.15181 0.87742 0.36903 0.0
C1096 C 0.12585 0.86693 0.33789 0.0
C1097 C 0.13275 0.85684 0.30917 0.0
C1098 C 0.2117 0.88638 0.40471 0.0
C1099 C 0.09129 0.86791 0.33432 0.0
C1100 C 0.11754 0.89041 0.44144 0.0
C1101 C 0.12373 0.92424 0.4393 0.0
C1102 C 0.12981 0.87516 0.4212 0.0
C1103 C 0.1467 0.89401 0.39693 0.0
C1104 C 0.15465 0.92861 0.39614 0.0
C1105 C 0.14354 0.94343 0.4179 0.0
C1106 C 0.12246 0.83855 0.42404 0.0
C1107 C 0.17187 0.94945 0.36999 0.0
H1108 H 0.21511 0.86654 0.34377 0.0
H1109 H 0.11306 0.84899 0.28519 0.0
H1110 H 0.22206 0.91375 0.40857 0.0
H1111 H 0.20172 0.87576 0.42728 0.0
H1112 H 0.23279 0.87852 0.40427 0.0
H1113 H 0.07346 0.85721 0.30892 0.0
H1114 H 0.08017 0.85402 0.35507 0.0
H1115 H 0.09369 0.89395 0.33716 0.0
H1116 H 0.10165 0.87559 0.45747 0.0
H1117 H 0.14767 0.96953 0.41582 0.0
H1118 H 0.14419 0.83276 0.42149 0.0
H1119 H 0.10013 0.82461 0.40294 0.0
H1120 H 0.1168 0.82967 0.44909 0.0
H1121 H 0.1954 0.94555 0.37061 0.0
H1122 H 0.17833 0.97633 0.37455 0.0
H1123 H 0.15483 0.94186 0.3436 0.0
C1124 C 0.20814 0.85102 0.58043 0.0
C1125 C 0.20325 0.848 0.61384 0.0
C1126 C 0.1808 0.84742 0.55148 0.0
C1127 C 0.14863 0.8418 0.55661 0.0
C1128 C 0.14302 0.83508 0.58996 0.0
C1129 C 0.17045 0.83846 0.61807 0.0
C1130 C 0.18639 0.85116 0.51564 0.0
C1131 C 0.10894 0.82819 0.59685 0.0
C1132 C 0.10224 0.89643 0.52507 0.0
C1133 C 0.06947 0.87262 0.51412 0.0
C1134 C 0.13005 0.88718 0.53406 0.0
C1135 C 0.12461 0.85314 0.53138 0.0
C1136 C 0.09225 0.83007 0.51425 0.0
C1137 C 0.06452 0.84001 0.50629 0.0
C1138 C 0.16413 0.91316 0.55145 0.0
C1139 C 0.0861 0.79432 0.50756 0.0
H1140 H 0.23333 0.85714 0.57708 0.0
H1141 H 0.16645 0.83599 0.64382 0.0
H1142 H 0.17809 0.8706 0.50194 0.0
H1143 H 0.21333 0.85732 0.51611 0.0
H1144 H 0.17064 0.82759 0.50025 0.0
H1145 H 0.10902 0.8228 0.6243 0.0
H1146 H 0.10149 0.84987 0.59034 0.0
H1147 H 0.08928 0.80658 0.58056 0.0
H1148 H 0.10577 0.92198 0.52967 0.0
H1149 H 0.03906 0.82191 0.49657 0.0
H1150 H 0.18396 0.91255 0.53962 0.0
H1151 H 0.1714 0.90817 0.57927 0.0
H1152 H 0.16396 0.93862 0.54954 0.0
H1153 H 0.06968 0.78594 0.48103 0.0
H1154 H 0.07233 0.77862 0.52577 0.0
H1155 H 0.11004 0.79037 0.51031 0.0
C1156 C 0.21664 0.12443 0.69621 0.0
C1157 C 0.20352 0.14755 0.70206 0.0
C1158 C 0.19612 0.0964 0.67435 0.0
C1159 C 0.16226 0.09234 0.65788 0.0
C1160 C 0.1485 0.11477 0.66568 0.0
C1161 C 0.1695 0.14231 0.68783 0.0
C1162 C 0.21133 0.07268 0.66687 0.0
C1163 C 0.11254 0.11138 0.64828 0.0
C1164 C 0.1209 0.05845 0.56652 0.0
C1165 C 0.09487 0.02931 0.57137 0.0
C1166 C 0.14476 0.0782 0.59483 0.0
C1167 C 0.14268 0.06811 0.62863 0.0
C1168 C 0.11845 0.03721 0.63368 0.0
C1169 C 0.09455 0.01815 0.60484 0.0
C1170 C 0.17017 0.11124 0.58847 0.0
C1171 C 0.11615 0.02548 0.66943 0.0
H1172 H 0.24326 0.12911 0.70735 0.0
H1173 H 0.15994 0.16084 0.69227 0.0
H1174 H 0.19346 0.04664 0.66647 0.0
H1175 H 0.2164 0.07711 0.64096 0.0
H1176 H 0.23557 0.07586 0.68624 0.0
H1177 H 0.10494 0.12905 0.65976 0.0
H1178 H 0.1101 0.11615 0.62039 0.0
H1179 H 0.09458 0.08585 0.65017 0.0
H1180 H 0.1214 0.067 0.54066 0.0
H1181 H 0.07478 -0.00477 0.60862 0.0
H1182 H 0.196 0.11469 0.60427 0.0
H1183 H 0.16369 0.13152 0.59628 0.0
H1184 H 0.1706 0.11375 0.56084 0.0
H1185 H 0.14173 0.02995 0.68662 0.0
H1186 H 0.10024 -0.00131 0.66892 0.0
H1187 H 0.10479 0.03964 0.68089 0.0
C1188 C 0.85787 0.14904 0.61802 0.0
C1189 C 0.86235 0.13951 0.65229 0.0
C1190 C 0.86375 0.13216 0.5932 0.0
C1191 C 0.87404 0.10521 0.60325 0.0
C1192 C 0.87581 0.09397 0.6373 0.0
C1193 C 0.87027 0.11159 0.66161 0.0
C1194 C 0.86177 0.14505 0.55728 0.0
C1195 C 0.8861 0.06493 0.6488 0.0
C1196 C 0.88374 0.04943 0.54126 0.0
C1197 C 0.91906 0.06228 0.54649 0.0
C1198 C 0.86819 0.06429 0.558 0.0
C1199 C 0.88853 0.09235 0.58058 0.0
C1200 C 0.92386 0.10657 0.58428 0.0
C1201 C 0.93863 0.09144 0.56709 0.0
C1202 C 0.83035 0.04884 0.55315 0.0
C1203 C 0.94635 0.13713 0.60736 0.0
H1204 H 0.85163 0.17076 0.61113 0.0
H1205 H 0.87331 0.1043 0.68824 0.0
H1206 H 0.88745 0.16201 0.55586 0.0
H1207 H 0.85259 0.12466 0.53744 0.0
H1208 H 0.84486 0.15922 0.55093 0.0
H1209 H 0.88179 0.0567 0.6745 0.0
H1210 H 0.87178 0.04371 0.62971 0.0
H1211 H 0.91342 0.07207 0.65047 0.0
H1212 H 0.86837 0.02673 0.52572 0.0
H1213 H 0.9658 0.10213 0.5705 0.0
H1214 H 0.81921 0.06813 0.54876 0.0
H1215 H 0.82481 0.03631 0.57698 0.0
H1216 H 0.81771 0.03029 0.53107 0.0
H1217 H 0.93645 0.15721 0.6007 0.0
H1218 H 0.97289 0.14647 0.60519 0.0
H1219 H 0.94644 0.13142 0.63472 0.0
C1220 C 0.87446 0.80455 0.711 0.0
C1221 C 0.84057 0.80084 0.70404 0.0
C1222 C 0.89531 0.82586 0.69149 0.0
C1223 C 0.88152 0.84361 0.66519 0.0
C1224 C 0.84784 0.8414 0.66 0.0
C1225 C 0.82779 0.81989 0.67956 0.0
C1226 C 0.93123 0.82788 0.69751 0.0
C1227 C 0.83235 0.86028 0.63252 0.0
C1228 C 0.93453 0.91562 0.62286 0.0
C1229 C 0.92935 0.90098 0.59064 0.0
C1230 C 0.92024 0.89687 0.6482 0.0
C1231 C 0.90095 0.86269 0.64111 0.0
C1232 C 0.89656 0.84755 0.60897 0.0
C1233 C 0.91052 0.8671 0.58379 0.0
C1234 C 0.92457 0.91385 0.68188 0.0
C1235 C 0.87638 0.81095 0.60089 0.0
H1236 H 0.88403 0.78967 0.73028 0.0
H1237 H 0.80165 0.81717 0.67508 0.0
H1238 H 0.93334 0.81553 0.67525 0.0
H1239 H 0.94901 0.85408 0.69925 0.0
H1240 H 0.93922 0.81572 0.72147 0.0
H1241 H 0.80676 0.85784 0.63406 0.0
H1242 H 0.84884 0.88696 0.63492 0.0
H1243 H 0.83007 0.8508 0.60652 0.0
H1244 H 0.94925 0.94193 0.628 0.0
H1245 H 0.90717 0.85582 0.559 0.0
H1246 H 0.93327 0.90023 0.70415 0.0
H1247 H 0.89979 0.91382 0.68336 0.0
H1248 H 0.94294 0.93991 0.68452 0.0
H1249 H 0.88518 0.79632 0.62207 0.0
H1250 H 0.87842 0.80251 0.57623 0.0
H1251 H 0.84928 0.80546 0.59893 0.0
C1252 C 0.3094 0.10305 0.07021 0.0
C1253 C 0.31478 0.11849 0.10226 0.0
C1254 C 0.33197 0.08959 0.06437 0.0
C1255 C 0.36174 0.09307 0.09053 0.0
C1256 C 0.36874 0.11068 0.12195 0.0
C1257 C 0.34492 0.12254 0.12775 0.0
C1258 C 0.32311 0.07031 0.03077 0.0
C1259 C 0.4009 0.11605 0.14996 0.0
C1260 C 0.39909 0.0273 0.09261 0.0
C1261 C 0.42451 0.04232 0.07535 0.0
C1262 C 0.37862 0.04364 0.09778 0.0
C1263 C 0.38412 0.07608 0.08597 0.0
C1264 C 0.41019 0.09162 0.06904 0.0
C1265 C 0.42984 0.07438 0.06359 0.0
C1266 C 0.35054 0.02585 0.11514 0.0
C1267 C 0.41721 0.12634 0.05654 0.0
H1268 H 0.28712 0.10078 0.04963 0.0
H1269 H 0.34965 0.13401 0.15278 0.0
H1270 H 0.34394 0.08058 0.01776 0.0
H1271 H 0.31991 0.04416 0.03612 0.0
H1272 H 0.2994 0.07057 0.01268 0.0
H1273 H 0.40462 0.13372 0.17092 0.0
H1274 H 0.40009 0.09209 0.16146 0.0
H1275 H 0.42318 0.12564 0.1389 0.0
H1276 H 0.39459 0.00231 0.10122 0.0
H1277 H 0.44958 0.08605 0.05032 0.0
H1278 H 0.3258 0.02392 0.0976 0.0
H1279 H 0.35423 0.04016 0.13884 0.0
H1280 H 0.34933 0.00052 0.12237 0.0
H1281 H 0.39533 0.12677 0.03556 0.0
H1282 H 0.44018 0.13587 0.04654 0.0
H1283 H 0.42057 0.14342 0.07786 0.0
C1284 C 0.81203 0.29098 0.16581 0.0
C1285 C 0.81549 0.30873 0.1955 0.0
C1286 C 0.8289 0.30643 0.14047 0.0
C1287 C 0.84751 0.34107 0.14355 0.0
C1288 C 0.84677 0.35977 0.17087 0.0
C1289 C 0.83191 0.34331 0.19718 0.0
C1290 C 0.82798 0.28545 0.11133 0.0
C1291 C 0.86277 0.3971 0.17306 0.0
C1292 C 0.93123 0.37929 0.11933 0.0
C1293 C 0.92163 0.38808 0.08527 0.0
C1294 C 0.90726 0.36348 0.13795 0.0
C1295 C 0.87245 0.35673 0.12254 0.0
C1296 C 0.86245 0.36554 0.08787 0.0
C1297 C 0.88718 0.38057 0.06943 0.0
C1298 C 0.92022 0.35541 0.1747 0.0
C1299 C 0.82618 0.3605 0.07004 0.0
H1300 H 0.79688 0.26483 0.16274 0.0
H1301 H 0.83315 0.35763 0.21907 0.0
H1302 H 0.81778 0.29438 0.08611 0.0
H1303 H 0.85407 0.28758 0.11229 0.0
H1304 H 0.81197 0.25894 0.11244 0.0
H1305 H 0.8514 0.40792 0.18854 0.0
H1306 H 0.89022 0.40507 0.18576 0.0
H1307 H 0.8598 0.40725 0.14687 0.0
H1308 H 0.95784 0.38512 0.13181 0.0
H1309 H 0.87964 0.38778 0.04317 0.0
H1310 H 0.90018 0.33664 0.18479 0.0
H1311 H 0.93092 0.37831 0.19151 0.0
H1312 H 0.94097 0.34633 0.17668 0.0
H1313 H 0.81648 0.34134 0.04874 0.0
H1314 H 0.82501 0.38374 0.05798 0.0
H1315 H 0.80915 0.35289 0.08759 0.0
C1316 C 0.68286 0.76469 0.14509 0.0
C1317 C 0.70527 0.77291 0.17812 0.0
C1318 C 0.66693 0.78602 0.12827 0.0
C1319 C 0.67085 0.81503 0.14607 0.0
C1320 C 0.6931 0.82322 0.17979 0.0
C1321 C 0.71056 0.80249 0.19504 0.0
C1322 C 0.64487 0.77673 0.09184 0.0
C1323 C 0.69671 0.85261 0.20077 0.0
C1324 C 0.64175 0.88141 0.09638 0.0
C1325 C 0.60828 0.87152 0.0992 0.0
C1326 C 0.66236 0.86344 0.11141 0.0
C1327 C 0.64966 0.8351 0.13045 0.0
C1328 C 0.61612 0.82535 0.13389 0.0
C1329 C 0.59592 0.8434 0.11811 0.0
C1330 C 0.69755 0.87435 0.10625 0.0
C1331 C 0.60145 0.79577 0.15436 0.0
H1332 H 0.67736 0.74117 0.13248 0.0
H1333 H 0.72644 0.8082 0.22129 0.0
H1334 H 0.61782 0.76758 0.09208 0.0
H1335 H 0.64983 0.79869 0.07562 0.0
H1336 H 0.64916 0.75703 0.07961 0.0
H1337 H 0.71612 0.85662 0.22586 0.0
H1338 H 0.70361 0.87544 0.18607 0.0
H1339 H 0.67205 0.84864 0.20605 0.0
H1340 H 0.65162 0.90284 0.08167 0.0
H1341 H 0.5704 0.83567 0.12106 0.0
H1342 H 0.70006 0.85387 0.0934 0.0
H1343 H 0.71659 0.8802 0.13163 0.0
H1344 H 0.70362 0.89651 0.09036 0.0
H1345 H 0.59934 0.77285 0.14171 0.0
H1346 H 0.57594 0.79275 0.15668 0.0
H1347 H 0.6185 0.79828 0.18071 0.0
C1348 C 0.22114 0.68453 0.12107 0.0
C1349 C 0.2096 0.69145 0.14797 0.0
C1350 C 0.19876 0.66121 0.09433 0.0
C1351 C 0.16455 0.64445 0.09529 0.0
C1352 C 0.15265 0.65315 0.12151 0.0
C1353 C 0.17547 0.67647 0.14767 0.0
C1354 C 0.21224 0.65298 0.06656 0.0
C1355 C 0.11643 0.63588 0.12367 0.0
C1356 C 0.09098 0.58538 0.02876 0.0
C1357 C 0.08895 0.55515 0.04388 0.0
C1358 C 0.11781 0.61496 0.04309 0.0
C1359 C 0.14253 0.61398 0.07338 0.0
C1360 C 0.14203 0.58309 0.08675 0.0
C1361 C 0.11524 0.55406 0.07178 0.0
C1362 C 0.11802 0.64736 0.02761 0.0
C1363 C 0.16791 0.58085 0.11898 0.0
H1364 H 0.24776 0.69637 0.12165 0.0
H1365 H 0.16696 0.68179 0.16892 0.0
H1366 H 0.21714 0.62988 0.07273 0.0
H1367 H 0.19353 0.64867 0.04101 0.0
H1368 H 0.23636 0.67303 0.06467 0.0
H1369 H 0.11056 0.64795 0.1435 0.0
H1370 H 0.0986 0.63558 0.09833 0.0
H1371 H 0.11185 0.60975 0.13042 0.0
H1372 H 0.07049 0.58623 0.00732 0.0
H1373 H 0.11395 0.53056 0.08313 0.0
H1374 H 0.14423 0.66469 0.02856 0.0
H1375 H 0.10732 0.65923 0.04279 0.0
H1376 H 0.10253 0.64363 0.00036 0.0
H1377 H 0.19392 0.59621 0.11714 0.0
H1378 H 0.16622 0.55496 0.12361 0.0
H1379 H 0.16382 0.59053 0.14175 0.0
C1380 C 0.32165 0.78014 0.86156 0.0
C1381 C 0.33333 0.77438 0.83407 0.0
C1382 C 0.34354 0.80263 0.88913 0.0
C1383 C 0.3774 0.82102 0.88812 0.0
C1384 C 0.3901 0.81266 0.86236 0.0
C1385 C 0.36805 0.7886 0.83624 0.0
C1386 C 0.32943 0.80893 0.91735 0.0
C1387 C 0.42586 0.83195 0.85981 0.0
C1388 C 0.415 0.91335 0.90732 0.0
C1389 C 0.44231 0.91682 0.93601 0.0
C1390 C 0.39216 0.88203 0.89318 0.0
C1391 C 0.39682 0.85334 0.90802 0.0
C1392 C 0.42258 0.8566 0.9389 0.0
C1393 C 0.44519 0.88848 0.95259 0.0
C1394 C 0.36447 0.87985 0.8608 0.0
C1395 C 0.42756 0.82666 0.95632 0.0
H1396 H 0.29502 0.7685 0.86068 0.0
H1397 H 0.37755 0.78345 0.81581 0.0
H1398 H 0.34899 0.81589 0.94239 0.0
H1399 H 0.32054 0.82965 0.91042 0.0
H1400 H 0.30749 0.78675 0.92063 0.0
H1401 H 0.43282 0.82039 0.84048 0.0
H1402 H 0.42838 0.85747 0.85205 0.0
H1403 H 0.44419 0.83403 0.88525 0.0
H1404 H 0.41231 0.93528 0.89493 0.0
H1405 H 0.46621 0.89114 0.97497 0.0
H1406 H 0.33942 0.86379 0.86468 0.0
H1407 H 0.36844 0.86852 0.83902 0.0
H1408 H 0.3637 0.90451 0.85326 0.0
H1409 H 0.40285 0.80634 0.95553 0.0
H1410 H 0.44259 0.83273 0.98367 0.0
H1411 H 0.44136 0.81738 0.94249 0.0
C1412 C 0.15539 0.335 0.84551 0.0
C1413 C 0.16038 0.31203 0.87027 0.0
C1414 C 0.14411 0.35951 0.85251 0.0
C1415 C 0.13694 0.36073 0.88474 0.0
C1416 C 0.14285 0.33834 0.91019 0.0
C1417 C 0.1549 0.31465 0.90283 0.0
C1418 C 0.13881 0.38344 0.82496 0.0
C1419 C 0.13534 0.33865 0.94483 0.0
C1420 C 0.12701 0.43698 0.91436 0.0
C1421 C 0.09165 0.42742 0.90527 0.0
C1422 C 0.14218 0.41575 0.90749 0.0
C1423 C 0.12149 0.38411 0.89127 0.0
C1424 C 0.0858 0.37432 0.88204 0.0
C1425 C 0.07133 0.3961 0.88906 0.0
C1426 C 0.18032 0.4272 0.91756 0.0
C1427 C 0.06283 0.34059 0.86517 0.0
H1428 H 0.1592 0.33323 0.82018 0.0
H1429 H 0.15958 0.2978 0.9226 0.0
H1430 H 0.11141 0.37874 0.81556 0.0
H1431 H 0.15181 0.40931 0.83587 0.0
H1432 H 0.14838 0.38118 0.80255 0.0
H1433 H 0.1425 0.3204 0.9623 0.0
H1434 H 0.14911 0.36366 0.95778 0.0
H1435 H 0.10789 0.33283 0.94102 0.0
H1436 H 0.1429 0.46131 0.92649 0.0
H1437 H 0.04401 0.38836 0.88241 0.0
H1438 H 0.1895 0.42716 0.8943 0.0
H1439 H 0.18837 0.40984 0.93564 0.0
H1440 H 0.19278 0.45249 0.9301 0.0
H1441 H 0.06875 0.33739 0.84066 0.0
H1442 H 0.03561 0.33683 0.85946 0.0
H1443 H 0.0672 0.32096 0.88234 0.0
C1444 C 0.719 0.1896 0.82589 0.0
C1445 C 0.7056 0.193 0.79082 0.0
C1446 C 0.69887 0.1674 0.84555 0.0
C1447 C 0.66399 0.14971 0.83021 0.0
C1448 C 0.65058 0.1526 0.79447 0.0
C1449 C 0.67163 0.17416 0.77518 0.0
C1450 C 0.71465 0.16409 0.88308 0.0
C1451 C 0.61351 0.13455 0.7771 0.0
C1452 C 0.60836 0.07754 0.87227 0.0
C1453 C 0.59377 0.09326 0.88915 0.0
C1454 C 0.63227 0.09572 0.8542 0.0
C1455 C 0.6409 0.13036 0.85189 0.0
C1456 C 0.62624 0.14637 0.8692 0.0
C1457 C 0.60325 0.12765 0.88822 0.0
C1458 C 0.64846 0.07784 0.83791 0.0
C1459 C 0.63396 0.18309 0.86664 0.0
H1460 H 0.74508 0.20498 0.83815 0.0
H1461 H 0.66109 0.17774 0.7483 0.0
H1462 H 0.70605 0.17685 0.89969 0.0
H1463 H 0.70658 0.13763 0.88962 0.0
H1464 H 0.74277 0.17511 0.8894 0.0
H1465 H 0.60741 0.13829 0.74886 0.0
H1466 H 0.60594 0.1076 0.78114 0.0
H1467 H 0.59803 0.1435 0.78887 0.0
H1468 H 0.60116 0.05088 0.87343 0.0
H1469 H 0.59168 0.13964 0.90119 0.0
H1470 H 0.67605 0.08739 0.85037 0.0
H1471 H 0.64496 0.08266 0.80998 0.0
H1472 H 0.63795 0.05063 0.84083 0.0
H1473 H 0.66151 0.19721 0.87681 0.0
H1474 H 0.62015 0.19168 0.88118 0.0
H1475 H 0.6269 0.18906 0.83911 0.0
C1476 C 0.79795 0.6576 0.80326 0.0
C1477 C 0.80684 0.69058 0.79323 0.0
C1478 C 0.82238 0.64516 0.82144 0.0
C1479 C 0.85692 0.66648 0.83166 0.0
C1480 C 0.866 0.70043 0.82342 0.0
C1481 C 0.84107 0.71182 0.8033 0.0
C1482 C 0.81121 0.60861 0.82812 0.0
C1483 C 0.90212 0.72456 0.83537 0.0
C1484 C 0.91135 0.62974 0.89959 0.0
C1485 C 0.92584 0.61676 0.87933 0.0
C1486 C 0.8905 0.64756 0.88487 0.0
C1487 C 0.88323 0.65228 0.84877 0.0
C1488 C 0.89847 0.64009 0.82834 0.0
C1489 C 0.91966 0.62291 0.8438 0.0
C1490 C 0.87541 0.66049 0.90792 0.0
C1491 C 0.89139 0.64408 0.78974 0.0
H1492 H 0.77166 0.64083 0.79531 0.0
H1493 H 0.84849 0.73705 0.79496 0.0
H1494 H 0.82404 0.5971 0.81529 0.0
H1495 H 0.81861 0.60492 0.85621 0.0
H1496 H 0.7834 0.59532 0.81839 0.0
H1497 H 0.90468 0.75046 0.82929 0.0
H1498 H 0.91163 0.7234 0.86373 0.0
H1499 H 0.91851 0.71774 0.8229 0.0
H1500 H 0.91546 0.62524 0.92695 0.0
H1501 H 0.93125 0.61409 0.82774 0.0
H1502 H 0.8479 0.64551 0.90288 0.0
H1503 H 0.87825 0.68649 0.9022 0.0
H1504 H 0.88737 0.6594 0.93578 0.0
H1505 H 0.86405 0.63057 0.77755 0.0
H1506 H 0.90624 0.63452 0.77762 0.0
H1507 H 0.89741 0.67057 0.78393 0.0
C1508 C 0.22865 0.3157 0.1641 0.0
C1509 C 0.21959 0.28951 0.18614 0.0
C1510 C 0.20492 0.32847 0.14455 0.0
C1511 C 0.17165 0.31673 0.14905 0.0
C1512 C 0.16223 0.2901 0.17128 0.0
C1513 C 0.18609 0.27639 0.189 0.0
C1514 C 0.21603 0.35551 0.12003 0.0
C1515 C 0.1277 0.27761 0.17825 0.0
C1516 C 0.12982 0.38086 0.13432 0.0
C1517 C 0.10555 0.3701 0.10233 0.0
C1518 C 0.1506 0.36334 0.14996 0.0
C1519 C 0.14813 0.33446 0.1331 0.0
C1520 C 0.12422 0.32361 0.1006 0.0
C1521 C 0.10314 0.34125 0.08585 0.0
C1522 C 0.17547 0.37599 0.18467 0.0
C1523 C 0.12127 0.2936 0.0811 0.0
H1524 H 0.2546 0.32644 0.16222 0.0
H1525 H 0.17919 0.25701 0.20696 0.0
H1526 H 0.19662 0.35044 0.0949 0.0
H1527 H 0.21898 0.37954 0.13102 0.0
H1528 H 0.24054 0.35801 0.11526 0.0
H1529 H 0.12341 0.25549 0.19431 0.0
H1530 H 0.1251 0.29751 0.19197 0.0
H1531 H 0.10759 0.27122 0.15362 0.0
H1532 H 0.13303 0.40341 0.14726 0.0
H1533 H 0.08451 0.33209 0.06144 0.0
H1534 H 0.20175 0.3842 0.18202 0.0
H1535 H 0.17214 0.35583 0.20322 0.0
H1536 H 0.17252 0.39715 0.19576 0.0
H1537 H 0.14576 0.29787 0.07525 0.0
H1538 H 0.10111 0.28786 0.05644 0.0
H1539 H 0.11576 0.27163 0.09723 0.0
C1540 C 0.22649 0.69978 0.82956 0.0
C1541 C 0.21694 0.68947 0.7947 0.0
C1542 C 0.20538 0.6846 0.85155 0.0
C1543 C 0.17403 0.65817 0.83833 0.0
C1544 C 0.16412 0.648 0.80289 0.0
C1545 C 0.18617 0.66312 0.78183 0.0
C1546 C 0.2173 0.69594 0.8892 0.0
C1547 C 0.13072 0.62038 0.78743 0.0
C1548 C 0.13243 0.59173 0.89592 0.0
C1549 C 0.10655 0.6013 0.89969 0.0
C1550 C 0.15552 0.61079 0.87719 0.0
C1551 C 0.15232 0.63986 0.86171 0.0
C1552 C 0.12679 0.65 0.86671 0.0
C1553 C 0.10409 0.63051 0.88551 0.0
C1554 C 0.18246 0.59911 0.87281 0.0
C1555 C 0.1222 0.6804 0.85057 0.0
H1556 H 0.25103 0.71902 0.83986 0.0
H1557 H 0.17982 0.65359 0.75549 0.0
H1558 H 0.19776 0.70205 0.89688 0.0
H1559 H 0.22122 0.67558 0.9054 0.0
H1560 H 0.24138 0.71802 0.89493 0.0
H1561 H 0.12563 0.61733 0.75893 0.0
H1562 H 0.13067 0.59669 0.79911 0.0
H1563 H 0.1097 0.62534 0.79324 0.0
H1564 H 0.13388 0.56877 0.90665 0.0
H1565 H 0.08368 0.6375 0.88814 0.0
H1566 H 0.2077 0.61956 0.87988 0.0
H1567 H 0.17737 0.59164 0.8453 0.0
H1568 H 0.1834 0.57769 0.88885 0.0
H1569 H 0.14694 0.70147 0.8554 0.0
H1570 H 0.10446 0.68754 0.86059 0.0
H1571 H 0.11197 0.67536 0.82224 0.0
C1572 C 0.35992 0.21977 0.81009 0.0
C1573 C 0.32473 0.2088 0.79621 0.0
C1574 C 0.37553 0.19842 0.82722 0.0
C1575 C 0.3555 0.16514 0.83182 0.0
C1576 C 0.31969 0.15422 0.8193 0.0
C1577 C 0.30482 0.17585 0.80082 0.0
C1578 C 0.41372 0.21123 0.83905 0.0
C1579 C 0.29713 0.11945 0.82473 0.0
C1580 C 0.40048 0.10399 0.84183 0.0
C1581 C 0.4112 0.1025 0.87795 0.0
C1582 C 0.38141 0.12324 0.82659 0.0
C1583 C 0.37249 0.14166 0.84777 0.0
C1584 C 0.38241 0.13964 0.88419 0.0
C1585 C 0.40164 0.12031 0.89877 0.0
C1586 C 0.37186 0.12478 0.7877 0.0
C1587 C 0.37313 0.15837 0.90784 0.0
H1588 H 0.37559 0.24504 0.80626 0.0
H1589 H 0.27778 0.16672 0.78939 0.0
H1590 H 0.42201 0.20801 0.86716 0.0
H1591 H 0.42328 0.19673 0.82552 0.0
H1592 H 0.42565 0.23784 0.83391 0.0
H1593 H 0.26986 0.11568 0.81628 0.0
H1594 H 0.30151 0.10141 0.81004 0.0
H1595 H 0.30339 0.1139 0.85247 0.0
H1596 H 0.40794 0.09091 0.82527 0.0
H1597 H 0.40916 0.11912 0.92663 0.0
H1598 H 0.38438 0.15048 0.78021 0.0
H1599 H 0.34413 0.1181 0.7779 0.0
H1600 H 0.37929 0.10792 0.77472 0.0
H1601 H 0.38599 0.18543 0.90568 0.0
H1602 H 0.38036 0.15231 0.93534 0.0
H1603 H 0.34547 0.15264 0.89999 0.0
C1604 C 0.85655 0.29989 0.83656 0.0
C1605 C 0.82202 0.28701 0.83487 0.0
C1606 C 0.8795 0.32364 0.86237 0.0
C1607 C 0.86735 0.33473 0.88686 0.0
C1608 C 0.83279 0.31951 0.88699 0.0
C1609 C 0.81029 0.29604 0.86049 0.0
C1610 C 0.91604 0.33943 0.86098 0.0
C1611 C 0.81899 0.33012 0.91304 0.0
C1612 C 0.93841 0.3977 0.95263 0.0
C1613 C 0.94063 0.42701 0.93532 0.0
C1614 C 0.91274 0.36728 0.93869 0.0
C1615 C 0.88923 0.36647 0.90673 0.0
C1616 C 0.88994 0.39643 0.89069 0.0
C1617 C 0.91564 0.42631 0.90521 0.0
C1618 C 0.91231 0.33593 0.95687 0.0
C1619 C 0.86517 0.39677 0.8567 0.0
H1620 H 0.86524 0.29345 0.81604 0.0
H1621 H 0.78335 0.28613 0.85871 0.0
H1622 H 0.92109 0.36482 0.85142 0.0
H1623 H 0.93329 0.34162 0.88714 0.0
H1624 H 0.92223 0.32511 0.84349 0.0
H1625 H 0.79456 0.31083 0.91525 0.0
H1626 H 0.83726 0.33554 0.93892 0.0
H1627 H 0.81455 0.35311 0.90475 0.0
H1628 H 0.95779 0.39821 0.9759 0.0
H1629 H 0.91698 0.44905 0.8921 0.0
H1630 H 0.92371 0.32303 0.94376 0.0
H1631 H 0.88598 0.31879 0.95569 0.0
H1632 H 0.92701 0.3412 0.98439 0.0
H1633 H 0.86988 0.38486 0.83588 0.0
H1634 H 0.86734 0.42231 0.8493 0.0
H1635 H 0.8388 0.38242 0.85812 0.0
C1636 C 0.68013 0.85675 0.851 0.0
C1637 C 0.7127 0.86483 0.87347 0.0
C1638 C 0.65596 0.86696 0.85888 0.0
C1639 C 0.66483 0.88687 0.88924 0.0
C1640 C 0.69711 0.89427 0.9125 0.0
C1641 C 0.72015 0.88245 0.90482 0.0
C1642 C 0.62129 0.85741 0.83405 0.0
C1643 C 0.708 0.91604 0.94481 0.0
C1644 C 0.6218 0.94809 0.88725 0.0
C1645 C 0.60017 0.93372 0.90878 0.0
C1646 C 0.64286 0.93304 0.88071 0.0
C1647 C 0.64166 0.90237 0.89535 0.0
C1648 C 0.61943 0.88748 0.91674 0.0
C1649 C 0.59926 0.90359 0.92358 0.0
C1650 C 0.66695 0.95037 0.85873 0.0
C1651 C 0.61666 0.8544 0.93207 0.0
H1652 H 0.67366 0.84338 0.82663 0.0
H1653 H 0.74444 0.88778 0.92333 0.0
H1654 H 0.60134 0.84791 0.84829 0.0
H1655 H 0.61871 0.87955 0.82054 0.0
H1656 H 0.61671 0.8382 0.81431 0.0
H1657 H 0.73377 0.91901 0.9606 0.0
H1658 H 0.70788 0.94096 0.9376 0.0
H1659 H 0.68992 0.90557 0.96104 0.0
H1660 H 0.62277 0.9716 0.87612 0.0
H1661 H 0.58237 0.89241 0.94007 0.0
H1662 H 0.66146 0.93439 0.83567 0.0
H1663 H 0.69337 0.95497 0.87364 0.0
H1664 H 0.66526 0.97443 0.84989 0.0
H1665 H 0.60774 0.83521 0.91096 0.0
H1666 H 0.59885 0.84661 0.94887 0.0
H1667 H 0.64184 0.85536 0.94752 0.0
C1668 C 0.88775 0.67919 0.08719 0.0
C1669 C 0.88065 0.68006 0.11926 0.0
C1670 C 0.89794 0.65455 0.07839 0.0
C1671 C 0.90051 0.62961 0.10188 0.0
C1672 C 0.89167 0.6292 0.13348 0.0
C1673 C 0.88215 0.65454 0.14193 0.0
C1674 C 0.90713 0.65592 0.04441 0.0
C1675 C 0.89343 0.60266 0.15896 0.0
C1676 C 0.90727 0.55319 0.06799 0.0
C1677 C 0.9423 0.56059 0.07894 0.0
C1678 C 0.89319 0.57518 0.07551 0.0
C1679 C 0.91466 0.60539 0.09437 0.0
C1680 C 0.95002 0.61298 0.1055 0.0
C1681 C 0.96337 0.59049 0.09775 0.0
C1682 C 0.85536 0.56602 0.06337 0.0
C1683 C 0.97385 0.64511 0.12527 0.0
H1684 H 0.88579 0.69813 0.06899 0.0
H1685 H 0.87703 0.6549 0.16687 0.0
H1686 H 0.93439 0.66022 0.04938 0.0
H1687 H 0.89259 0.63192 0.02951 0.0
H1688 H 0.90218 0.67592 0.02824 0.0
H1689 H 0.88279 0.60403 0.18083 0.0
H1690 H 0.87942 0.57773 0.14582 0.0
H1691 H 0.92019 0.60527 0.16955 0.0
H1692 H 0.89075 0.52994 0.05384 0.0
H1693 H 0.99048 0.59661 0.10589 0.0
H1694 H 0.84959 0.58534 0.04669 0.0
H1695 H 0.84483 0.56478 0.08593 0.0
H1696 H 0.84223 0.54178 0.04861 0.0
H1697 H 0.97184 0.66639 0.10955 0.0
H1698 H 1.00066 0.64724 0.13221 0.0
H1699 H 0.96669 0.64714 0.14937 0.0
C1700 C 0.3594 0.82214 0.21092 0.0
C1701 C 0.32845 0.79532 0.20107 0.0
C1702 C 0.37538 0.8403 0.18603 0.0
C1703 C 0.36117 0.82997 0.15061 0.0
C1704 C 0.32962 0.80306 0.14054 0.0
C1705 C 0.31342 0.78635 0.16589 0.0
C1706 C 0.40798 0.86997 0.19777 0.0
C1707 C 0.31394 0.79066 0.10327 0.0
C1708 C 0.39795 0.8884 0.0843 0.0
C1709 C 0.42444 0.87882 0.08258 0.0
C1710 C 0.3764 0.87221 0.10561 0.0
C1711 C 0.38104 0.8453 0.12486 0.0
C1712 C 0.40659 0.83438 0.12139 0.0
C1713 C 0.4285 0.85178 0.10089 0.0
C1714 C 0.35053 0.88562 0.1094 0.0
C1715 C 0.41164 0.80506 0.14039 0.0
H1716 H 0.37105 0.82896 0.23818 0.0
H1717 H 0.28996 0.76505 0.15825 0.0
H1718 H 0.42946 0.86412 0.19456 0.0
H1719 H 0.40704 0.89132 0.18166 0.0
H1720 H 0.41308 0.87746 0.22533 0.0
H1721 H 0.28833 0.77086 0.09945 0.0
H1722 H 0.31195 0.81129 0.08648 0.0
H1723 H 0.33045 0.78063 0.09459 0.0
H1724 H 0.39543 0.90989 0.07068 0.0
H1725 H 0.44923 0.84465 0.09967 0.0
H1726 H 0.36045 0.90075 0.13398 0.0
H1727 H 0.32642 0.86532 0.11057 0.0
H1728 H 0.34524 0.9016 0.08786 0.0
H1729 H 0.42173 0.81155 0.16852 0.0
H1730 H 0.4296 0.79721 0.13158 0.0
H1731 H 0.38708 0.78375 0.13666 0.0
C1732 C 0.69355 0.16325 0.15197 0.0
C1733 C 0.69723 0.19645 0.15373 0.0
C1734 C 0.66716 0.14055 0.12744 0.0
C1735 C 0.64307 0.15104 0.10434 0.0
C1736 C 0.64656 0.18468 0.10587 0.0
C1737 C 0.67352 0.20703 0.13095 0.0
C1738 C 0.66448 0.10495 0.12718 0.0
C1739 C 0.62146 0.19706 0.08207 0.0
C1740 C 0.59239 0.08538 0.03235 0.0
C1741 C 0.56758 0.06418 0.0478 0.0
C1742 C 0.6155 0.11599 0.04879 0.0
C1743 C 0.61324 0.12549 0.08103 0.0
C1744 C 0.58575 0.10573 0.09448 0.0
C1745 C 0.56354 0.07507 0.07796 0.0
C1746 C 0.64406 0.1367 0.0333 0.0
C1747 C 0.58153 0.11554 0.12799 0.0
H1748 H 0.71065 0.15456 0.17087 0.0
H1749 H 0.676 0.23259 0.13274 0.0
H1750 H 0.64137 0.08874 0.13494 0.0
H1751 H 0.66221 0.09651 0.10075 0.0
H1752 H 0.68671 0.10149 0.1451 0.0
H1753 H 0.63379 0.22367 0.0772 0.0
H1754 H 0.60976 0.18282 0.05689 0.0
H1755 H 0.60099 0.19452 0.09454 0.0
H1756 H 0.59527 0.07705 0.00883 0.0
H1757 H 0.54366 0.059 0.08936 0.0
H1758 H 0.66778 0.13374 0.04801 0.0
H1759 H 0.64825 0.16336 0.03516 0.0
H1760 H 0.63906 0.12922 0.00575 0.0
H1761 H 0.60086 0.11171 0.14997 0.0
H1762 H 0.55606 0.10067 0.13179 0.0
H1763 H 0.58543 0.14219 0.12865 0.0
C1764 C 0.69538 0.65983 0.79766 0.0
C1765 C 0.68361 0.67906 0.77255 0.0
C1766 C 0.67344 0.63653 0.81428 0.0
C1767 C 0.63909 0.63303 0.80581 0.0
C1768 C 0.62656 0.65085 0.77871 0.0
C1769 C 0.6492 0.67371 0.76194 0.0
C1770 C 0.68758 0.61734 0.84249 0.0
C1771 C 0.59003 0.64753 0.76916 0.0
C1772 C 0.58826 0.56073 0.84916 0.0
C1773 C 0.5936 0.5759 0.88116 0.0
C1774 C 0.60067 0.57951 0.82279 0.0
C1775 C 0.61821 0.61409 0.82875 0.0
C1776 C 0.62134 0.62973 0.86011 0.0
C1777 C 0.60935 0.61029 0.88625 0.0
C1778 C 0.59726 0.5621 0.78975 0.0
C1779 C 0.63939 0.66674 0.86697 0.0
H1780 H 0.72202 0.66351 0.80479 0.0
H1781 H 0.64042 0.6885 0.74195 0.0
H1782 H 0.68786 0.62618 0.86802 0.0
H1783 H 0.6714 0.59057 0.83906 0.0
H1784 H 0.71383 0.6203 0.84296 0.0
H1785 H 0.58299 0.6578 0.74359 0.0
H1786 H 0.5728 0.62124 0.76866 0.0
H1787 H 0.58594 0.66126 0.78896 0.0
H1788 H 0.57564 0.53405 0.84525 0.0
H1789 H 0.61257 0.62196 0.91077 0.0
H1790 H 0.62199 0.56088 0.79 0.0
H1791 H 0.5903 0.57598 0.7669 0.0
H1792 H 0.57802 0.53642 0.78672 0.0
H1793 H 0.66703 0.67349 0.87104 0.0
H1794 H 0.63513 0.6754 0.89026 0.0
H1795 H 0.63078 0.68016 0.84444 0.0
C1796 C 0.35922 0.67083 0.87569 0.0
C1797 C 0.33176 0.63993 0.87185 0.0
C1798 C 0.38918 0.67646 0.90175 0.0
C1799 C 0.39249 0.64989 0.92203 0.0
C1800 C 0.36302 0.62197 0.92313 0.0
C1801 C 0.33239 0.61863 0.89941 0.0
C1802 C 0.41899 0.7087 0.90378 0.0
C1803 C 0.3637 0.59356 0.94624 0.0
C1804 C 0.46125 0.62332 0.91229 0.0
C1805 C 0.47769 0.62166 0.94682 0.0
C1806 C 0.43447 0.63417 0.9038 0.0
C1807 C 0.42546 0.64591 0.93061 0.0
C1808 C 0.44544 0.64897 0.96515 0.0
C1809 C 0.47122 0.63619 0.97302 0.0
C1810 C 0.41417 0.63014 0.86638 0.0
C1811 C 0.4393 0.66472 -0.0061 0.0
H1812 H 0.3593 0.68977 0.85716 0.0
H1813 H 0.31011 0.59709 0.90038 0.0
H1814 H 0.43599 0.71413 0.93037 0.0
H1815 H 0.43383 0.70706 0.88593 0.0
H1816 H 0.4104 0.72955 0.89602 0.0
H1817 H 0.34483 0.56955 0.93343 0.0
H1818 H 0.38879 0.59145 0.95404 0.0
H1819 H 0.35641 0.59729 0.96969 0.0
H1820 H 0.46743 0.61323 0.89199 0.0
H1821 H 0.48472 0.63572 -0.00029 0.0
H1822 H 0.41556 0.65465 0.85616 0.0
H1823 H 0.38714 0.61462 0.8642 0.0
H1824 H 0.42347 0.61835 0.8495 0.0
H1825 H 0.45578 0.69142 -0.00341 0.0
H1826 H 0.44613 0.65357 0.01897 0.0
H1827 H 0.41273 0.66286 -0.01135 0.0
C1828 C 0.31012 0.343 0.81118 0.0
C1829 C 0.32032 0.33473 0.78377 0.0
C1830 C 0.33246 0.3683 0.83554 0.0
C1831 C 0.36555 0.38578 0.83195 0.0
C1832 C 0.3744 0.38053 0.80184 0.0
C1833 C 0.35142 0.35493 0.77785 0.0
C1834 C 0.3218 0.37351 0.86695 0.0
C1835 C 0.40933 0.39941 0.79682 0.0
C1836 C 0.42932 0.4574 0.89236 0.0
C1837 C 0.44861 0.44159 0.91424 0.0
C1838 C 0.40102 0.43934 0.86616 0.0
C1839 C 0.39238 0.40489 0.86197 0.0
C1840 C 0.41088 0.38862 0.88538 0.0
C1841 C 0.43913 0.40737 0.91127 0.0
C1842 C 0.38163 0.45736 0.84198 0.0
C1843 C 0.40187 0.3517 0.88199 0.0
H1844 H 0.28547 0.32808 0.81509 0.0
H1845 H 0.35904 0.34909 0.75633 0.0
H1846 H 0.33195 0.36029 0.88878 0.0
H1847 H 0.33206 0.40014 0.87505 0.0
H1848 H 0.29378 0.36368 0.86214 0.0
H1849 H 0.41042 0.39614 0.76993 0.0
H1850 H 0.41749 0.42623 0.80307 0.0
H1851 H 0.42771 0.39037 0.81468 0.0
H1852 H 0.43712 0.48406 0.89492 0.0
H1853 H 0.45463 0.39556 0.92813 0.0
H1854 H 0.35393 0.44364 0.83751 0.0
H1855 H 0.38763 0.45906 0.81656 0.0
H1856 H 0.3882 0.48288 0.8521 0.0
H1857 H 0.37474 0.33809 0.88111 0.0
H1858 H 0.41737 0.34269 0.90372 0.0
H1859 H 0.40586 0.3455 0.85741 0.0
C1860 C 0.66568 0.39179 0.8168 0.0
C1861 C 0.66049 0.35835 0.81344 0.0
C1862 C 0.66266 0.40448 0.84649 0.0
C1863 C 0.65395 0.38304 0.87332 0.0
C1864 C 0.6502 0.34952 0.8708 0.0
C1865 C 0.65362 0.33752 0.84079 0.0
C1866 C 0.66708 0.44046 0.84829 0.0
C1867 C 0.64093 0.32604 0.89896 0.0
C1868 C 0.65962 0.4289 0.95357 0.0
C1869 C 0.62624 0.42707 0.94737 0.0
C1870 C 0.66874 0.41247 0.93104 0.0
C1871 C 0.64405 0.39482 0.9012 0.0
C1872 C 0.61005 0.3918 0.89565 0.0
C1873 C 0.60157 0.40779 0.91888 0.0
C1874 C 0.70489 0.41487 0.9385 0.0
C1875 C 0.58305 0.37379 0.86377 0.0
H1876 H 0.67175 0.40797 0.79592 0.0
H1877 H 0.64978 0.31162 0.8382 0.0
H1878 H 0.64241 0.44216 0.84742 0.0
H1879 H 0.68506 0.45272 0.87302 0.0
H1880 H 0.67657 0.45433 0.82661 0.0
H1881 H 0.64364 0.30222 0.89539 0.0
H1882 H 0.65697 0.33752 0.92473 0.0
H1883 H 0.61426 0.32062 0.89896 0.0
H1884 H 0.67865 0.44362 0.97569 0.0
H1885 H 0.57586 0.40692 0.91333 0.0
H1886 H 0.71609 0.42675 0.91702 0.0
H1887 H 0.70554 0.38964 0.94033 0.0
H1888 H 0.7209 0.42931 0.96299 0.0
H1889 H 0.58899 0.38715 0.84044 0.0
H1890 H 0.55741 0.37188 0.86454 0.0
H1891 H 0.58245 0.34844 0.86082 0.0
C1892 C 0.66165 0.30287 0.09195 0.0
C1893 C 0.69335 0.32852 0.09296 0.0
C1894 C 0.63195 0.30384 0.06949 0.0
C1895 C 0.63417 0.3313 0.04874 0.0
C1896 C 0.66574 0.3517 0.04314 0.0
C1897 C 0.69524 0.34933 0.06476 0.0
C1898 C 0.59804 0.27927 0.07272 0.0
C1899 C 0.6686 0.37928 0.01831 0.0
C1900 C 0.55925 0.35646 0.01025 0.0
C1901 C 0.56017 0.37491 0.03833 0.0
C1902 C 0.58272 0.34135 0.01302 0.0
C1903 C 0.60769 0.34514 0.04452 0.0
C1904 C 0.6078 0.36267 0.07332 0.0
C1905 C 0.58335 0.37625 0.07009 0.0
C1906 C 0.58054 0.32212 0.9818 0.0
C1907 C 0.63416 0.36799 0.10759 0.0
H1908 H 0.65862 0.28401 0.11074 0.0
H1909 H 0.71941 0.36643 0.06165 0.0
H1910 H 0.589 0.28965 0.09106 0.0
H1911 H 0.57898 0.27433 0.04732 0.0
H1912 H 0.59973 0.25556 0.08273 0.0
H1913 H 0.69408 0.38992 0.01327 0.0
H1914 H 0.64923 0.37003 -0.00655 0.0
H1915 H 0.66383 0.39936 0.02923 0.0
H1916 H 0.54111 0.35477 0.98563 0.0
H1917 H 0.58308 0.38882 0.09248 0.0
H1918 H 0.55543 0.30147 0.97464 0.0
H1919 H 0.60049 0.31167 0.98585 0.0
H1920 H 0.58223 0.33846 0.95949 0.0
H1921 H 0.63033 0.34412 0.12046 0.0
H1922 H 0.63289 0.38569 0.12555 0.0
H1923 H 0.66002 0.37775 0.10358 0.0
C1924 C 0.71876 0.65143 0.14526 0.0
C1925 C 0.71491 0.65017 0.17907 0.0
C1926 C 0.69607 0.62719 0.11999 0.0
C1927 C 0.66922 0.60109 0.129 0.0
C1928 C 0.66839 0.59694 0.16411 0.0
C1929 C 0.69153 0.62165 0.18896 0.0
C1930 C 0.69828 0.63222 0.08298 0.0
C1931 C 0.64074 0.56854 0.1748 0.0
C1932 C 0.58127 0.57823 0.07089 0.0
C1933 C 0.57625 0.5481 0.05586 0.0
C1934 C 0.61244 0.5967 0.09317 0.0
C1935 C 0.63835 0.58367 0.10167 0.0
C1936 C 0.63375 0.55379 0.08532 0.0
C1937 C 0.60263 0.53648 0.06203 0.0
C1938 C 0.61697 0.62928 0.10903 0.0
C1939 C 0.66038 0.53874 0.09428 0.0
H1940 H 0.73778 0.67268 0.13758 0.0
H1941 H 0.68968 0.61964 0.21545 0.0
H1942 H 0.69056 0.60828 0.0688 0.0
H1943 H 0.68087 0.64456 0.06962 0.0
H1944 H 0.72432 0.64817 0.08152 0.0
H1945 H 0.64768 0.56485 0.20301 0.0
H1946 H 0.61726 0.57391 0.16861 0.0
H1947 H 0.63507 0.54519 0.16044 0.0
H1948 H 0.56043 0.58672 0.06605 0.0
H1949 H 0.59805 0.51259 0.05081 0.0
H1950 H 0.64078 0.64904 0.10601 0.0
H1951 H 0.61887 0.62692 0.13714 0.0
H1952 H 0.59556 0.63723 0.0971 0.0
H1953 H 0.68619 0.55794 0.09765 0.0
H1954 H 0.65607 0.51996 0.07418 0.0
H1955 H 0.65942 0.52632 0.11915 0.0
C1956 C 0.38905 0.6177 0.17086 0.0
C1957 C 0.3573 0.61674 0.17204 0.0
C1958 C 0.39313 0.60508 0.14175 0.0
C1959 C 0.36471 0.59115 0.11328 0.0
C1960 C 0.33282 0.59116 0.1138 0.0
C1961 C 0.32942 0.60383 0.14333 0.0
C1962 C 0.42775 0.60631 0.14159 0.0
C1963 C 0.30241 0.57764 0.08325 0.0
C1964 C 0.39021 0.57922 0.0336 0.0
C1965 C 0.38574 0.54569 0.03493 0.0
C1966 C 0.38043 0.59379 0.05705 0.0
C1967 C 0.36822 0.57487 0.08396 0.0
C1968 C 0.36287 0.54081 0.08504 0.0
C1969 C 0.37118 0.52651 0.06016 0.0
C1970 C 0.38514 0.62983 0.05383 0.0
C1971 C 0.35084 0.52005 0.11399 0.0
H1972 H 0.41076 0.62855 0.19266 0.0
H1973 H 0.30485 0.60325 0.14416 0.0
H1974 H 0.42672 0.58087 0.13795 0.0
H1975 H 0.43592 0.62074 0.11963 0.0
H1976 H 0.44716 0.61784 0.16592 0.0
H1977 H 0.28 0.58162 0.0868 0.0
H1978 H 0.30858 0.58964 0.0594 0.0
H1979 H 0.29561 0.55067 0.0792 0.0
H1980 H 0.4025 0.59443 0.01506 0.0
H1981 H 0.36869 0.50083 0.06221 0.0
H1982 H 0.41224 0.64544 0.06469 0.0
H1983 H 0.36972 0.63692 0.06748 0.0
H1984 H 0.37807 0.63542 0.02619 0.0
H1985 H 0.37032 0.5294 0.13881 0.0
H1986 H 0.34599 0.49347 0.10985 0.0
H1987 H 0.32727 0.52208 0.11665 0.0
C1988 C 0.33442 0.32932 0.19254 0.0
C1989 C 0.34526 0.30581 0.21132 0.0
C1990 C 0.35503 0.35277 0.17481 0.0
C1991 C 0.38711 0.35225 0.176 0.0
C1992 C 0.39933 0.33019 0.19735 0.0
C1993 C 0.37797 0.30691 0.21503 0.0
C1994 C 0.3412 0.37609 0.15249 0.0
C1995 C 0.43365 0.32944 0.19933 0.0
C1996 C 0.40814 0.37795 0.09132 0.0
C1997 C 0.42902 0.41129 0.09907 0.0
C1998 C 0.39618 0.35771 0.11704 0.0
C1999 C 0.4051 0.37148 0.15099 0.0
C2000 C 0.42711 0.40483 0.15923 0.0
C2001 C 0.4389 0.42443 0.13305 0.0
C2002 C 0.37279 0.32203 0.10754 0.0
C2003 C 0.43686 0.42019 0.19517 0.0
H2004 H 0.30913 0.32836 0.19049 0.0
H2005 H 0.38601 0.28853 0.22998 0.0
H2006 H 0.36014 0.40186 0.15681 0.0
H2007 H 0.33569 0.36884 0.12481 0.0
H2008 H 0.31749 0.37567 0.15762 0.0
H2009 H 0.44171 0.31534 0.22153 0.0
H2010 H 0.43263 0.31744 0.17517 0.0
H2011 H 0.45308 0.35493 0.20162 0.0
H2012 H 0.40108 0.36768 0.06517 0.0
H2013 H 0.45537 0.45022 0.1391 0.0
H2014 H 0.34695 0.31854 0.10909 0.0
H2015 H 0.38152 0.30532 0.12602 0.0
H2016 H 0.37119 0.3144 0.08097 0.0
H2017 H 0.41467 0.42335 0.20033 0.0
H2018 H 0.45791 0.44483 0.19843 0.0
H2019 H 0.44451 0.40377 0.21489 0.0
C2020 C 0.83093 0.60492 0.63098 0.0
C2021 C 0.8119 0.61705 0.60375 0.0
C2022 C 0.85349 0.59137 0.6251 0.0
C2023 C 0.85731 0.59016 0.59124 0.0
C2024 C 0.83912 0.6035 0.56391 0.0
C2025 C 0.81659 0.61667 0.57048 0.0
C2026 C 0.87229 0.57724 0.65489 0.0
C2027 C 0.84276 0.60307 0.52752 0.0
C2028 C 0.93335 0.57461 0.5795 0.0
C2029 C 0.91892 0.54078 0.56958 0.0
C2030 C 0.91362 0.59111 0.58648 0.0
C2031 C 0.87876 0.57324 0.58394 0.0
C2032 C 0.86412 0.53905 0.57403 0.0
C2033 C 0.88433 0.5233 0.56685 0.0
C2034 C 0.93003 0.62769 0.59636 0.0
C2035 C 0.8271 0.51903 0.57117 0.0
H2036 H 0.82727 0.60491 0.65669 0.0
H2037 H 0.80236 0.62648 0.54942 0.0
H2038 H 0.86402 0.55014 0.65013 0.0
H2039 H 0.89989 0.58834 0.65702 0.0
H2040 H 0.86791 0.58165 0.67994 0.0
H2041 H 0.82888 0.61668 0.50976 0.0
H2042 H 0.86988 0.61424 0.52742 0.0
H2043 H 0.83286 0.57709 0.51726 0.0
H2044 H 0.96 0.58827 0.58132 0.0
H2045 H 0.87314 0.49706 0.55962 0.0
H2046 H 0.92783 0.63209 0.62245 0.0
H2047 H 0.91672 0.64138 0.57801 0.0
H2048 H 0.95724 0.63814 0.59646 0.0
H2049 H 0.82136 0.52023 0.5963 0.0
H2050 H 0.81972 0.4926 0.56351 0.0
H2051 H 0.81117 0.5296 0.55177 0.0
C2052 C 0.31014 0.77766 0.65286 0.0
C2053 C 0.30917 0.79346 0.68169 0.0
C2054 C 0.33297 0.79435 0.63295 0.0
C2055 C 0.35271 0.82864 0.63993 0.0
C2056 C 0.34913 0.84542 0.66706 0.0
C2057 C 0.32823 0.8274 0.68824 0.0
C2058 C 0.33585 0.77528 0.6045 0.0
C2059 C 0.36721 0.88242 0.67365 0.0
C2060 C 0.43636 0.87285 0.61612 0.0
C2061 C 0.42594 0.88233 0.58253 0.0
C2062 C 0.41293 0.85516 0.6348 0.0
C2063 C 0.37777 0.84683 0.6197 0.0
C2064 C 0.36707 0.85672 0.58561 0.0
C2065 C 0.3913 0.87372 0.56719 0.0
C2066 C 0.42699 0.84609 0.67075 0.0
C2067 C 0.33044 0.85082 0.56838 0.0
H2068 H 0.29308 0.75223 0.6459 0.0
H2069 H 0.32588 0.8401 0.70934 0.0
H2070 H 0.3265 0.78435 0.57904 0.0
H2071 H 0.3628 0.77918 0.60744 0.0
H2072 H 0.32089 0.74831 0.60436 0.0
H2073 H 0.35658 0.89244 0.69071 0.0
H2074 H 0.3944 0.8883 0.68635 0.0
H2075 H 0.36549 0.89528 0.6489 0.0
H2076 H 0.46319 0.87952 0.62816 0.0
H2077 H 0.38315 0.88159 0.54138 0.0
H2078 H 0.40791 0.8354 0.68567 0.0
H2079 H 0.44736 0.8684 0.68551 0.0
H2080 H 0.43878 0.82805 0.66887 0.0
H2081 H 0.32087 0.83175 0.54703 0.0
H2082 H 0.3284 0.87384 0.55647 0.0
H2083 H 0.31379 0.84273 0.58628 0.0
C2084 C 0.16704 0.26439 0.67971 0.0
C2085 C 0.20238 0.27342 0.68882 0.0
C2086 C 0.15163 0.28611 0.66319 0.0
C2087 C 0.17159 0.31715 0.65283 0.0
C2088 C 0.20728 0.32607 0.66068 0.0
C2089 C 0.22234 0.30482 0.67995 0.0
C2090 C 0.114 0.27626 0.65832 0.0
C2091 C 0.22956 0.35808 0.64885 0.0
C2092 C 0.11741 0.35418 0.58505 0.0
C2093 C 0.11471 0.37843 0.6046 0.0
C2094 C 0.13761 0.33574 0.59979 0.0
C2095 C 0.1548 0.34045 0.63547 0.0
C2096 C 0.1529 0.36536 0.65519 0.0
C2097 C 0.13369 0.38435 0.63943 0.0
C2098 C 0.1399 0.31063 0.57715 0.0
C2099 C 0.17071 0.37205 0.69323 0.0
H2100 H 0.15122 0.24056 0.68698 0.0
H2101 H 0.24963 0.31294 0.68818 0.0
H2102 H 0.10897 0.29621 0.66911 0.0
H2103 H 0.10086 0.27275 0.63041 0.0
H2104 H 0.10275 0.25293 0.6711 0.0
H2105 H 0.25609 0.35975 0.65352 0.0
H2106 H 0.21942 0.36037 0.62081 0.0
H2107 H 0.22968 0.37936 0.66276 0.0
H2108 H 0.10308 0.3488 0.55827 0.0
H2109 H 0.13339 0.40374 0.65487 0.0
H2110 H 0.12343 0.28535 0.58213 0.0
H2111 H 0.16622 0.31144 0.58306 0.0
H2112 H 0.13162 0.31486 0.54923 0.0
H2113 H 0.15848 0.38374 0.70671 0.0
H2114 H 0.19725 0.38949 0.69618 0.0
H2115 H 0.1712 0.3491 0.7064 0.0
C2116 C 0.66777 0.1903 0.63593 0.0
C2117 C 0.70243 0.1969 0.64683 0.0
C2118 C 0.64699 0.16714 0.6087 0.0
C2119 C 0.6614 0.15001 0.59259 0.0
C2120 C 0.69697 0.15928 0.60117 0.0
C2121 C 0.71712 0.18241 0.62866 0.0
C2122 C 0.60917 0.15807 0.60022 0.0
C2123 C 0.7134 0.14232 0.58391 0.0
C2124 C 0.60669 0.05919 0.57883 0.0
C2125 C 0.58891 0.05695 0.54398 0.0
C2126 C 0.63141 0.08912 0.59436 0.0
C2127 C 0.63911 0.11756 0.5744 0.0
C2128 C 0.6229 0.11509 0.53864 0.0
C2129 C 0.5975 0.08481 0.52393 0.0
C2130 C 0.64796 0.09058 0.63269 0.0
C2131 C 0.63108 0.14459 0.51626 0.0
H2132 H 0.65637 0.20086 0.65057 0.0
H2133 H 0.74409 0.18772 0.63724 0.0
H2134 H 0.59806 0.15506 0.57186 0.0
H2135 H 0.59736 0.13404 0.61155 0.0
H2136 H 0.60256 0.17705 0.61074 0.0
H2137 H 0.74079 0.15732 0.58731 0.0
H2138 H 0.71094 0.11807 0.59556 0.0
H2139 H 0.70075 0.13752 0.55587 0.0
H2140 H 0.60048 0.03774 0.59453 0.0
H2141 H 0.58363 0.08332 0.49715 0.0
H2142 H 0.64158 0.1077 0.64652 0.0
H2143 H 0.67591 0.10031 0.63742 0.0
H2144 H 0.63975 0.06594 0.64417 0.0
H2145 H 0.6167 0.15987 0.5193 0.0
H2146 H 0.62388 0.13677 0.48848 0.0
H2147 H 0.65844 0.16042 0.52395 0.0
C2148 C 0.81908 0.28023 0.36921 0.0
C2149 C 0.83038 0.27074 0.34333 0.0
C2150 C 0.84188 0.30386 0.39552 0.0
C2151 C 0.87642 0.31865 0.39531 0.0
C2152 C 0.88851 0.30523 0.37259 0.0
C2153 C 0.86534 0.2807 0.34742 0.0
C2154 C 0.82851 0.31561 0.42118 0.0
C2155 C 0.9252 0.31981 0.37172 0.0
C2156 C 0.91783 0.41215 0.40531 0.0
C2157 C 0.94226 0.41727 0.43695 0.0
C2158 C 0.89558 0.38024 0.39239 0.0
C2159 C 0.89742 0.35244 0.41171 0.0
C2160 C 0.92084 0.35746 0.44463 0.0
C2161 C 0.94323 0.3899 0.45677 0.0
C2162 C 0.87113 0.37628 0.35714 0.0
C2163 C 0.9237 0.32879 0.46635 0.0
H2164 H 0.79218 0.27113 0.36743 0.0
H2165 H 0.87455 0.27206 0.32879 0.0
H2166 H 0.84508 0.31732 0.44767 0.0
H2167 H 0.82873 0.34079 0.41497 0.0
H2168 H 0.80221 0.29886 0.42091 0.0
H2169 H 0.93148 0.30375 0.35631 0.0
H2170 H 0.93057 0.34432 0.3599 0.0
H2171 H 0.94205 0.32374 0.39828 0.0
H2172 H 0.91675 0.43318 0.38994 0.0
H2173 H 0.96244 0.39364 0.481 0.0
H2174 H 0.84493 0.36179 0.35886 0.0
H2175 H 0.87703 0.36239 0.33901 0.0
H2176 H 0.87204 0.40045 0.34605 0.0
H2177 H 0.89895 0.30775 0.46248 0.0
H2178 H 0.93372 0.33647 0.49428 0.0
H2179 H 0.94161 0.31993 0.4589 0.0
C2180 C 0.63823 0.8193 0.33246 0.0
C2181 C 0.64977 0.80001 0.35802 0.0
C2182 C 0.62779 0.84395 0.34091 0.0
C2183 C 0.629 0.84957 0.37579 0.0
C2184 C 0.64199 0.83118 0.40188 0.0
C2185 C 0.65216 0.80665 0.39269 0.0
C2186 C 0.61426 0.86312 0.31233 0.0
C2187 C 0.64412 0.83665 0.43942 0.0
C2188 C 0.62101 0.92851 0.40141 0.0
C2189 C 0.58654 0.91724 0.40077 0.0
C2190 C 0.63527 0.90684 0.39345 0.0
C2191 C 0.6146 0.87304 0.38471 0.0
C2192 C 0.57991 0.86146 0.38449 0.0
C2193 C 0.56632 0.88367 0.39242 0.0
C2194 C 0.67237 0.9202 0.39408 0.0
C2195 C 0.55708 0.82553 0.37586 0.0
H2196 H 0.63612 0.81428 0.30561 0.0
H2197 H 0.66167 0.79234 0.41271 0.0
H2198 H 0.587 0.85709 0.3101 0.0
H2199 H 0.6276 0.89014 0.31847 0.0
H2200 H 0.61708 0.85741 0.28692 0.0
H2201 H 0.65728 0.82223 0.45684 0.0
H2202 H 0.65769 0.86331 0.4474 0.0
H2203 H 0.61823 0.82921 0.443 0.0
H2204 H 0.63676 0.95447 0.40752 0.0
H2205 H 0.53981 0.87467 0.39241 0.0
H2206 H 0.67519 0.91735 0.36786 0.0
H2207 H 0.68545 0.90585 0.41161 0.0
H2208 H 0.68526 0.94679 0.40271 0.0
H2209 H 0.55646 0.81837 0.3495 0.0
H2210 H 0.53075 0.82043 0.37704 0.0
H2211 H 0.56718 0.8095 0.39415 0.0
C2212 C 0.16249 0.66858 0.26396 0.0
C2213 C 0.19758 0.68601 0.27496 0.0
C2214 C 0.14399 0.65005 0.28686 0.0
C2215 C 0.16112 0.64758 0.32147 0.0
C2216 C 0.19683 0.66394 0.3324 0.0
C2217 C 0.21445 0.68395 0.30936 0.0
C2218 C 0.10588 0.634 0.27422 0.0
C2219 C 0.21642 0.66043 0.36836 0.0
C2220 C 0.10705 0.62604 0.38627 0.0
C2221 C 0.09474 0.59136 0.38433 0.0
C2222 C 0.12961 0.64482 0.36677 0.0
C2223 C 0.1411 0.62852 0.34599 0.0
C2224 C 0.13028 0.59354 0.34584 0.0
C2225 C 0.10678 0.57539 0.36446 0.0
C2226 C 0.13955 0.68195 0.36687 0.0
C2227 C 0.14333 0.57525 0.32576 0.0
H2228 H 0.14921 0.67043 0.23751 0.0
H2229 H 0.2413 0.69817 0.31845 0.0
H2230 H 0.09758 0.60672 0.27597 0.0
H2231 H 0.0939 0.64271 0.29086 0.0
H2232 H 0.09631 0.6396 0.24702 0.0
H2233 H 0.24421 0.67332 0.37218 0.0
H2234 H 0.20855 0.67066 0.38785 0.0
H2235 H 0.21079 0.6338 0.37334 0.0
H2236 H 0.09777 0.63838 0.40168 0.0
H2237 H 0.0978 0.54854 0.36355 0.0
H2238 H 0.12938 0.68923 0.34063 0.0
H2239 H 0.16749 0.69462 0.37331 0.0
H2240 H 0.12983 0.691 0.38561 0.0
H2241 H 0.13709 0.58027 0.29788 0.0
H2242 H 0.13274 0.54803 0.32861 0.0
H2243 H 0.1713 0.58429 0.33504 0.0
C2244 C 0.29918 0.15513 0.2949 0.0
C2245 C 0.30763 0.18909 0.28903 0.0
C2246 C 0.32356 0.1423 0.31231 0.0
C2247 C 0.35745 0.16401 0.32638 0.0
C2248 C 0.36598 0.19866 0.32224 0.0
C2249 C 0.34134 0.21066 0.3025 0.0
C2250 C 0.31314 0.10517 0.31422 0.0
C2251 C 0.40119 0.22301 0.33842 0.0
C2252 C 0.40842 0.12279 0.39282 0.0
C2253 C 0.42633 0.11383 0.37319 0.0
C2254 C 0.38758 0.14077 0.37864 0.0
C2255 C 0.38375 0.14977 0.34364 0.0
C2256 C 0.40244 0.1417 0.32399 0.0
C2257 C 0.42353 0.12425 0.33897 0.0
C2258 C 0.36884 0.14931 0.40095 0.0
C2259 C 0.39904 0.15016 0.28648 0.0
H2260 H 0.27337 0.13806 0.28431 0.0
H2261 H 0.34861 0.23671 0.29726 0.0
H2262 H 0.32869 0.09678 0.30195 0.0
H2263 H 0.31771 0.0982 0.34158 0.0
H2264 H 0.286 0.09161 0.30109 0.0
H2265 H 0.40346 0.24912 0.33431 0.0
H2266 H 0.408 0.21949 0.36665 0.0
H2267 H 0.41984 0.21847 0.32749 0.0
H2268 H 0.40984 0.11498 0.41912 0.0
H2269 H 0.4377 0.11859 0.32351 0.0
H2270 H 0.34143 0.1339 0.39229 0.0
H2271 H 0.37155 0.17563 0.39836 0.0
H2272 H 0.37806 0.14501 0.42868 0.0
H2273 H 0.37318 0.13506 0.27102 0.0
H2274 H 0.41771 0.14536 0.27572 0.0
H2275 H 0.40242 0.17657 0.28328 0.0
C2276 C 0.72348 0.80755 0.65829 0.0
C2277 C 0.71642 0.78568 0.68477 0.0
C2278 C 0.69964 0.82018 0.63883 0.0
C2279 C 0.66889 0.81333 0.64801 0.0
C2280 C 0.6615 0.79119 0.67485 0.0
C2281 C 0.68502 0.7771 0.69238 0.0
C2282 C 0.70822 0.84213 0.60942 0.0
C2283 C 0.62998 0.78437 0.68687 0.0
C2284 C 0.63363 0.88218 0.62896 0.0
C2285 C 0.60556 0.86882 0.60033 0.0
C2286 C 0.65368 0.86413 0.64502 0.0
C2287 C 0.64641 0.83193 0.63186 0.0
C2288 C 0.6186 0.81838 0.60266 0.0
C2289 C 0.5984 0.83671 0.58754 0.0
C2290 C 0.68289 0.87974 0.67618 0.0
C2291 C 0.61042 0.78459 0.58709 0.0
H2292 H 0.748 0.81524 0.65291 0.0
H2293 H 0.67999 0.76142 0.71387 0.0
H2294 H 0.68611 0.83534 0.58649 0.0
H2295 H 0.71477 0.8683 0.61723 0.0
H2296 H 0.73002 0.84036 0.60184 0.0
H2297 H 0.62658 0.76484 0.70616 0.0
H2298 H 0.63159 0.80746 0.69881 0.0
H2299 H 0.60723 0.77666 0.66465 0.0
H2300 H 0.64035 0.90711 0.63884 0.0
H2301 H 0.57673 0.82558 0.56585 0.0
H2302 H 0.70719 0.88414 0.66988 0.0
H2303 H 0.68113 0.86273 0.6979 0.0
H2304 H 0.68361 0.90375 0.68498 0.0
H2305 H 0.63266 0.78413 0.57938 0.0
H2306 H 0.58834 0.77762 0.56408 0.0
H2307 H 0.60491 0.76553 0.60655 0.0
C2308 C 0.6836 0.15058 0.26746 0.0
C2309 C 0.71363 0.17796 0.27993 0.0
C2310 C 0.66213 0.13455 0.28894 0.0
C2311 C 0.67194 0.14477 0.3244 0.0
C2312 C 0.70282 0.1719 0.3373 0.0
C2313 C 0.72297 0.18843 0.31481 0.0
C2314 C 0.62873 0.10691 0.27357 0.0
C2315 C 0.71488 0.18317 0.37499 0.0
C2316 C 0.60293 0.11971 0.37301 0.0
C2317 C 0.60367 0.08963 0.3861 0.0
C2318 C 0.62559 0.13833 0.3538 0.0
C2319 C 0.64991 0.12685 0.34781 0.0
C2320 C 0.65177 0.09711 0.36271 0.0
C2321 C 0.62819 0.07851 0.38121 0.0
C2322 C 0.62172 0.16907 0.33806 0.0
C2323 C 0.67823 0.08463 0.3586 0.0
H2324 H 0.67647 0.14228 0.24055 0.0
H2325 H 0.74667 0.20877 0.32497 0.0
H2326 H 0.6283 0.08335 0.28582 0.0
H2327 H 0.60775 0.11237 0.27883 0.0
H2328 H 0.62388 0.10331 0.24518 0.0
H2329 H 0.74028 0.20351 0.38127 0.0
H2330 H 0.69671 0.192 0.38192 0.0
H2331 H 0.71605 0.16204 0.39138 0.0
H2332 H 0.58368 0.12802 0.37665 0.0
H2333 H 0.62868 0.05513 0.39157 0.0
H2334 H 0.60709 0.1627 0.31072 0.0
H2335 H 0.64675 0.1886 0.3389 0.0
H2336 H 0.60785 0.17888 0.35133 0.0
H2337 H 0.673 0.07671 0.33121 0.0
H2338 H 0.67879 0.06332 0.37497 0.0
H2339 H 0.70369 0.1048 0.36549 0.0
C2340 C 0.80131 0.67215 0.29423 0.0
C2341 C 0.81972 0.70645 0.29532 0.0
C2342 C 0.81658 0.65049 0.312 0.0
C2343 C 0.85149 0.66316 0.33003 0.0
C2344 C 0.86976 0.69786 0.33179 0.0
C2345 C 0.8536 0.71889 0.31492 0.0
C2346 C 0.79563 0.61391 0.31037 0.0
C2347 C 0.907 0.71281 0.35002 0.0
C2348 C 0.89491 0.61418 0.39439 0.0
C2349 C 0.91058 0.60282 0.37409 0.0
C2350 C 0.87459 0.63265 0.38022 0.0
C2351 C 0.86987 0.64044 0.34485 0.0
C2352 C 0.88518 0.62867 0.32413 0.0
C2353 C 0.90515 0.61011 0.33888 0.0
C2354 C 0.85854 0.64426 0.4033 0.0
C2355 C 0.88136 0.63657 0.28645 0.0
H2356 H 0.77536 0.6621 0.27871 0.0
H2357 H 0.86813 0.74532 0.31578 0.0
H2358 H 0.8031 0.6008 0.29296 0.0
H2359 H 0.80025 0.60361 0.33633 0.0
H2360 H 0.7681 0.60866 0.30053 0.0
H2361 H 0.91726 0.74033 0.35027 0.0
H2362 H 0.91144 0.70501 0.37709 0.0
H2363 H 0.92147 0.70371 0.3369 0.0
H2364 H 0.89836 0.6085 0.42145 0.0
H2365 H 0.91737 0.60212 0.32285 0.0
H2366 H 0.83104 0.63725 0.39121 0.0
H2367 H 0.86993 0.67168 0.40656 0.0
H2368 H 0.86196 0.63373 0.42928 0.0
H2369 H 0.85414 0.62831 0.27257 0.0
H2370 H 0.89366 0.62459 0.27342 0.0
H2371 H 0.89277 0.66378 0.28409 0.0
C2372 C 0.31566 0.78909 0.36406 0.0
C2373 C 0.3216 0.79248 0.33118 0.0
C2374 C 0.33814 0.81173 0.39143 0.0
C2375 C 0.3672 0.83759 0.38547 0.0
C2376 C 0.3742 0.83936 0.3527 0.0
C2377 C 0.35103 0.81704 0.32585 0.0
C2378 C 0.32969 0.80914 0.42586 0.0
C2379 C 0.40531 0.86594 0.34531 0.0
C2380 C 0.40855 0.92486 0.42203 0.0
C2381 C 0.44003 0.92513 0.44119 0.0
C2382 C 0.38239 0.89511 0.4076 0.0
C2383 C 0.38854 0.86533 0.41137 0.0
C2384 C 0.41908 0.86508 0.43386 0.0
C2385 C 0.4445 0.89517 0.44893 0.0
C2386 C 0.34973 0.89627 0.38484 0.0
C2387 C 0.42671 0.83395 0.43858 0.0
H2388 H 0.29278 0.7698 0.36791 0.0
H2389 H 0.35562 0.81908 0.30036 0.0
H2390 H 0.35269 0.81409 0.44755 0.0
H2391 H 0.31908 0.82804 0.4282 0.0
H2392 H 0.31068 0.78433 0.42855 0.0
H2393 H 0.40873 0.8616 0.31974 0.0
H2394 H 0.40314 0.89045 0.34561 0.0
H2395 H 0.42835 0.86714 0.36557 0.0
H2396 H 0.40512 0.94814 0.41649 0.0
H2397 H 0.46898 0.89554 0.46386 0.0
H2398 H 0.32769 0.87464 0.38875 0.0
H2399 H 0.34997 0.89531 0.3573 0.0
H2400 H 0.34628 0.91935 0.38998 0.0
H2401 H 0.40377 0.81192 0.43944 0.0
H2402 H 0.44692 0.83585 0.46258 0.0
H2403 H 0.43556 0.82999 0.41628 0.0
C2404 C 0.2162 0.39681 0.36728 0.0
C2405 C 0.2095 0.36276 0.36827 0.0
C2406 C 0.19334 0.4096 0.37359 0.0
C2407 C 0.16322 0.38784 0.38162 0.0
C2408 C 0.15599 0.3533 0.38202 0.0
C2409 C 0.17913 0.3411 0.37502 0.0
C2410 C 0.20178 0.44651 0.37231 0.0
C2411 C 0.12426 0.32937 0.3907 0.0
C2412 C 0.12403 0.42708 0.43207 0.0
C2413 C 0.09929 0.43331 0.40566 0.0
C2414 C 0.14456 0.41175 0.42472 0.0
C2415 C 0.13978 0.40156 0.39021 0.0
C2416 C 0.11391 0.40632 0.36365 0.0
C2417 C 0.09432 0.42248 0.37158 0.0
C2418 C 0.172 0.40731 0.45382 0.0
C2419 C 0.10764 0.3953 0.32661 0.0
H2420 H 0.23959 0.41349 0.36178 0.0
H2421 H 0.17408 0.31478 0.37599 0.0
H2422 H 0.18094 0.45167 0.35374 0.0
H2423 H 0.20435 0.45667 0.39809 0.0
H2424 H 0.22566 0.45987 0.36453 0.0
H2425 H 0.1217 0.30317 0.38863 0.0
H2426 H 0.12455 0.33496 0.41746 0.0
H2427 H 0.10158 0.33228 0.37319 0.0
H2428 H 0.12765 0.43441 0.45862 0.0
H2429 H 0.07579 0.42746 0.35072 0.0
H2430 H 0.19718 0.42213 0.44939 0.0
H2431 H 0.16936 0.38098 0.45448 0.0
H2432 H 0.17141 0.41515 0.47945 0.0
H2433 H 0.12965 0.41035 0.31652 0.0
H2434 H 0.08453 0.39789 0.30958 0.0
H2435 H 0.10493 0.36905 0.32506 0.0
C2436 C 0.37842 0.1487 0.64008 0.0
C2437 C 0.35993 0.16127 0.61279 0.0
C2438 C 0.3918 0.12564 0.63367 0.0
C2439 C 0.38634 0.11473 0.59919 0.0
C2440 C 0.36645 0.12629 0.57172 0.0
C2441 C 0.35357 0.1494 0.57885 0.0
C2442 C 0.41279 0.11385 0.66368 0.0
C2443 C 0.35972 0.11511 0.53462 0.0
C2444 C 0.45094 0.08564 0.57852 0.0
C2445 C 0.43404 0.05113 0.57621 0.0
C2446 C 0.43561 0.10657 0.58579 0.0
C2447 C 0.40284 0.09263 0.5916 0.0
C2448 C 0.38573 0.05774 0.58944 0.0
C2449 C 0.40143 0.03742 0.58148 0.0
C2450 C 0.45439 0.14363 0.58691 0.0
C2451 C 0.35091 0.04187 0.59567 0.0
H2452 H 0.38358 0.15788 0.66633 0.0
H2453 H 0.33885 0.15865 0.55769 0.0
H2454 H 0.403 0.08637 0.663 0.0
H2455 H 0.4393 0.12262 0.6616 0.0
H2456 H 0.41289 0.12298 0.68903 0.0
H2457 H 0.3419 0.12464 0.51651 0.0
H2458 H 0.38388 0.12391 0.52684 0.0
H2459 H 0.34906 0.08765 0.53187 0.0
H2460 H 0.47598 0.09628 0.57403 0.0
H2461 H 0.3884 0.01072 0.57988 0.0
H2462 H 0.45808 0.15446 0.61272 0.0
H2463 H 0.43922 0.155 0.56758 0.0
H2464 H 0.47954 0.15051 0.58153 0.0
H2465 H 0.35177 0.04888 0.62217 0.0
H2466 H 0.34089 0.0144 0.59268 0.0
H2467 H 0.33295 0.05105 0.57735 0.0
C2468 C 0.86512 0.30729 0.7137 0.0
C2469 C 0.82966 0.29457 0.70564 0.0
C2470 C 0.88263 0.32408 0.68933 0.0
C2471 C 0.86438 0.32983 0.65649 0.0
C2472 C 0.82851 0.31764 0.6484 0.0
C2473 C 0.81158 0.29905 0.6726 0.0
C2474 C 0.92074 0.33524 0.6986 0.0
C2475 C 0.80805 0.32418 0.61427 0.0
C2476 C 0.92006 0.40271 0.6158 0.0
C2477 C 0.92843 0.387 0.59202 0.0
C2478 C 0.89737 0.38443 0.63512 0.0
C2479 C 0.88336 0.34941 0.63143 0.0
C2480 C 0.89071 0.33342 0.60641 0.0
C2481 C 0.91287 0.3525 0.58663 0.0
C2482 C 0.88868 0.40264 0.65982 0.0
C2483 C 0.8771 0.29614 0.60203 0.0
H2484 H 0.87923 0.3031 0.73886 0.0
H2485 H 0.78421 0.28775 0.6655 0.0
H2486 H 0.92868 0.32588 0.67848 0.0
H2487 H 0.93242 0.36269 0.69953 0.0
H2488 H 0.93088 0.32642 0.72402 0.0
H2489 H 0.78044 0.31375 0.61237 0.0
H2490 H 0.81614 0.35128 0.61087 0.0
H2491 H 0.81263 0.31331 0.59264 0.0
H2492 H 0.93142 0.42949 0.61941 0.0
H2493 H 0.91924 0.34032 0.56817 0.0
H2494 H 0.89576 0.39482 0.6866 0.0
H2495 H 0.86092 0.39626 0.65258 0.0
H2496 H 0.90154 0.42997 0.65953 0.0
H2497 H 0.89199 0.28633 0.62352 0.0
H2498 H 0.87905 0.28794 0.5772 0.0
H2499 H 0.85029 0.28498 0.60313 0.0
C2500 C 0.16144 0.70219 0.63303 0.0
C2501 C 0.1958 0.70732 0.63949 0.0
C2502 C 0.13718 0.67928 0.60686 0.0
C2503 C 0.14781 0.66158 0.58675 0.0
C2504 C 0.18277 0.67126 0.58922 0.0
C2505 C 0.20641 0.69435 0.61546 0.0
C2506 C 0.10016 0.67093 0.60398 0.0
C2507 C 0.19532 0.6542 0.56727 0.0
C2508 C 0.09811 0.56904 0.57885 0.0
C2509 C 0.07878 0.56396 0.54438 0.0
C2510 C 0.12055 0.60064 0.59251 0.0
C2511 C 0.12404 0.6282 0.57122 0.0
C2512 C 0.10502 0.62335 0.53617 0.0
C2513 C 0.08238 0.59122 0.52321 0.0
C2514 C 0.14035 0.60449 0.63005 0.0
C2515 C 0.10768 0.65198 0.51262 0.0
H2516 H 0.15308 0.71358 0.65029 0.0
H2517 H 0.23318 0.70048 0.61861 0.0
H2518 H 0.08512 0.66542 0.57665 0.0
H2519 H 0.09059 0.64852 0.61868 0.0
H2520 H 0.096 0.69146 0.61481 0.0
H2521 H 0.19367 0.62966 0.57775 0.0
H2522 H 0.17942 0.64989 0.54024 0.0
H2523 H 0.2221 0.66878 0.5672 0.0
H2524 H 0.09552 0.54822 0.5955 0.0
H2525 H 0.06703 0.5876 0.49677 0.0
H2526 H 0.1341 0.62129 0.64447 0.0
H2527 H 0.16793 0.61577 0.63205 0.0
H2528 H 0.13491 0.58047 0.64293 0.0
H2529 H 0.09248 0.66542 0.51813 0.0
H2530 H 0.09788 0.64341 0.48493 0.0
H2531 H 0.13423 0.66986 0.51706 0.0
loop_
_geom_bond_atom_site_label_1
_geom_bond_atom_site_label_2
_geom_bond_distance
_geom_bond_site_symmetry_2
_ccdc_geom_bond_type
Tb0 N31 2.660 . S
Tb0 N38 2.600 . S
Tb0 O44 2.546 . S
Tb0 O45 2.610 . S
Tb0 O47 2.320 . S
Tb0 O48 2.552 . S
Tb0 O49 2.413 . S
Tb0 O51 2.362 . S
Tb0 O52 2.421 . S
Tb0 C64 2.833 . S
C1 C4 1.432 . S
C1 C5 1.414 . S
C1 N8 1.359 . S
C2 C4 1.417 . S
C2 C6 1.432 . S
C2 C14 1.410 . S
C3 C5 1.444 . S
C3 C6 1.317 . S
C3 H26 0.929 . S
C4 C1 1.432 . S
C4 C2 1.417 . S
C4 N12 1.360 . S
C5 C1 1.414 . S
C5 C3 1.444 . S
C5 C10 1.385 . S
C6 C2 1.432 . S
C6 C3 1.317 . S
C6 H18 0.930 . S
C7 C9 1.392 . S
C7 C10 1.370 . S
C7 H19 0.931 . S
N8 C1 1.359 . S
N8 C9 1.327 . S
N8 Tb11 2.600 . S
C9 C7 1.392 . S
C9 N8 1.327 . S
C9 H16 0.930 . S
C10 C5 1.385 . S
C10 C7 1.370 . S
C10 H29 0.930 . S
Tb11 N8 2.600 . S
Tb11 N12 2.660 . S
Tb11 O45 2.362 . S
Tb11 O46 2.421 . S
Tb11 O50 2.546 . S
Tb11 O51 2.610 . S
Tb11 O53 2.320 . S
Tb11 O54 2.552 . S
Tb11 O55 2.413 . S
Tb11 C75 2.833 . S
N12 C4 1.360 . S
N12 Tb11 2.660 . S
N12 C13 1.305 . S
C13 N12 1.305 . S
C13 C15 1.407 . S
C13 H20 0.930 . S
C14 C2 1.410 . S
C14 C15 1.345 . S
C14 H22 0.930 . S
C15 C13 1.407 . S
C15 C14 1.345 . S
C15 H17 0.930 . S
H16 C9 0.930 . S
H17 C15 0.930 . S
H18 C6 0.930 . S
H19 C7 0.931 . S
H20 C13 0.930 . S
H21 C35 0.930 . S
H22 C14 0.930 . S
H23 C41 0.930 . S
H24 C32 0.930 . S
H25 C39 0.931 . S
H26 C3 0.929 . S
H27 C33 0.930 . S
H28 C66 0.930 . S
H29 C10 0.930 . S
H30 C65 0.929 . S
N31 Tb0 2.660 . S
N31 C32 1.305 . S
N31 C36 1.360 . S
C32 H24 0.930 . S
C32 N31 1.305 . S
C32 C35 1.407 . S
C33 H27 0.930 . S
C33 C34 1.410 . S
C33 C35 1.345 . S
C34 C33 1.410 . S
C34 C36 1.417 . S
C34 C66 1.432 . S
C35 H21 0.930 . S
C35 C32 1.407 . S
C35 C33 1.345 . S
C36 N31 1.360 . S
C36 C34 1.417 . S
C36 C40 1.432 . S
H37 C42 0.930 . S
N38 Tb0 2.600 . S
N38 C40 1.359 . S
N38 C41 1.327 . S
C39 H25 0.931 . S
C39 C41 1.392 . S
C39 C42 1.370 . S
C40 C36 1.432 . S
C40 N38 1.359 . S
C40 C43 1.414 . S
C41 H23 0.930 . S
C41 N38 1.327 . S
C41 C39 1.392 . S
C42 H37 0.930 . S
C42 C39 1.370 . S
C42 C43 1.385 . S
C43 C40 1.414 . S
C43 C42 1.385 . S
C43 C65 1.444 . S
O44 Tb0 2.546 . S
O44 C64 1.251 . S
O45 Tb0 2.610 . S
O45 Tb11 2.362 . S
O45 C56 1.283 . S
O46 Tb11 2.421 . S
O46 C63 1.262 . S
O47 Tb0 2.320 . S
O47 C63 1.260 . S
O48 Tb0 2.552 . S
O48 C56 1.243 . S
O49 Tb0 2.413 . S
O49 C64 1.256 . S
O50 Tb11 2.546 . S
O50 C75 1.251 . S
O51 Tb0 2.362 . S
O51 Tb11 2.610 . S
O51 C67 1.283 . S
O52 Tb0 2.421 . S
O52 C74 1.262 . S
O53 Tb11 2.320 . S
O53 C74 1.260 . S
O54 Tb11 2.552 . S
O54 C67 1.243 . S
O55 Tb11 2.413 . S
O55 C75 1.256 . S
C56 O45 1.283 . S
C56 O48 1.243 . S
C57 C59 1.382 . S
C57 C61 1.393 . S
C57 C64 1.500 . S
C58 C59 1.400 . S
C58 C60 1.384 . S
C59 C57 1.382 . S
C59 C58 1.400 . S
C59 H76 0.930 . S
C60 C58 1.384 . S
C60 C62 1.392 . S
C60 H77 0.931 . S
C61 C57 1.393 . S
C61 C62 1.401 . S
C61 H78 0.930 . S
C62 C60 1.392 . S
C62 C61 1.401 . S
C62 H79 0.930 . S
C63 O46 1.262 . S
C63 O47 1.260 . S
C64 Tb0 2.833 . S
C64 O44 1.251 . S
C64 O49 1.256 . S
C64 C57 1.500 . S
C65 H30 0.929 . S
C65 C43 1.444 . S
C65 C66 1.317 . S
C66 H28 0.930 . S
C66 C34 1.432 . S
C66 C65 1.317 . S
C67 O51 1.283 . S
C67 O54 1.243 . S
C68 C69 1.382 . S
C68 C72 1.393 . S
C68 C75 1.500 . S
C69 C68 1.382 . S
C69 C70 1.400 . S
C69 H80 0.930 . S
C70 C69 1.400 . S
C70 C71 1.384 . S
C71 C70 1.384 . S
C71 C73 1.392 . S
C71 H81 0.931 . S
C72 C68 1.393 . S
C72 C73 1.401 . S
C72 H82 0.930 . S
C73 C71 1.392 . S
C73 C72 1.401 . S
C73 H83 0.930 . S
C74 O52 1.262 . S
C74 O53 1.260 . S
C75 Tb11 2.833 . S
C75 O50 1.251 . S
C75 O55 1.256 . S
C75 C68 1.500 . S
H76 C59 0.930 . S
H77 C60 0.931 . S
H78 C61 0.930 . S
H79 C62 0.930 . S
H80 C69 0.930 . S
H81 C71 0.931 . S
H82 C72 0.930 . S
H83 C73 0.930 . S
Tb84 N115 2.660 . S
Tb84 N122 2.600 . S
Tb84 O128 2.546 . S
Tb84 O129 2.610 . S
Tb84 O131 2.320 . S
Tb84 O132 2.552 . S
Tb84 O133 2.413 . S
Tb84 O135 2.362 . S
Tb84 O136 2.421 . S
Tb84 C148 2.833 . S
C85 C88 1.432 . S
C85 C89 1.414 . S
C85 N92 1.359 . S
C86 C88 1.417 . S
C86 C90 1.432 . S
C86 C98 1.410 . S
C87 C89 1.444 . S
C87 C90 1.317 . S
C87 H110 0.929 . S
C88 C85 1.432 . S
C88 C86 1.417 . S
C88 N96 1.360 . S
C89 C85 1.414 . S
C89 C87 1.444 . S
C89 C94 1.385 . S
C90 C86 1.432 . S
C90 C87 1.317 . S
C90 H102 0.930 . S
C91 C93 1.392 . S
C91 C94 1.370 . S
C91 H103 0.931 . S
N92 C85 1.359 . S
N92 C93 1.327 . S
N92 Tb95 2.600 . S
C93 C91 1.392 . S
C93 N92 1.327 . S
C93 H100 0.930 . S
C94 C89 1.385 . S
C94 C91 1.370 . S
C94 H113 0.930 . S
Tb95 N92 2.600 . S
Tb95 N96 2.660 . S
Tb95 O129 2.362 . S
Tb95 O130 2.421 . S
Tb95 O134 2.546 . S
Tb95 O135 2.610 . S
Tb95 O137 2.320 . S
Tb95 O138 2.552 . S
Tb95 O139 2.413 . S
Tb95 C159 2.833 . S
N96 C88 1.360 . S
N96 Tb95 2.660 . S
N96 C97 1.305 . S
C97 N96 1.305 . S
C97 C99 1.407 . S
C97 H104 0.930 . S
C98 C86 1.410 . S
C98 C99 1.345 . S
C98 H106 0.930 . S
C99 C97 1.407 . S
C99 C98 1.345 . S
C99 H101 0.930 . S
H100 C93 0.930 . S
H101 C99 0.930 . S
H102 C90 0.930 . S
H103 C91 0.931 . S
H104 C97 0.930 . S
H105 C119 0.930 . S
H106 C98 0.930 . S
H107 C125 0.930 . S
H108 C116 0.930 . S
H109 C123 0.931 . S
H110 C87 0.929 . S
H111 C117 0.930 . S
H112 C150 0.930 . S
H113 C94 0.930 . S
H114 C149 0.929 . S
N115 Tb84 2.660 . S
N115 C116 1.305 . S
N115 C120 1.360 . S
C116 H108 0.930 . S
C116 N115 1.305 . S
C116 C119 1.407 . S
C117 H111 0.930 . S
C117 C118 1.410 . S
C117 C119 1.345 . S
C118 C117 1.410 . S
C118 C120 1.417 . S
C118 C150 1.432 . S
C119 H105 0.930 . S
C119 C116 1.407 . S
C119 C117 1.345 . S
C120 N115 1.360 . S
C120 C118 1.417 . S
C120 C124 1.432 . S
H121 C126 0.930 . S
N122 Tb84 2.600 . S
N122 C124 1.359 . S
N122 C125 1.327 . S
C123 H109 0.931 . S
C123 C125 1.392 . S
C123 C126 1.370 . S
C124 C120 1.432 . S
C124 N122 1.359 . S
C124 C127 1.414 . S
C125 H107 0.930 . S
C125 N122 1.327 . S
C125 C123 1.392 . S
C126 H121 0.930 . S
C126 C123 1.370 . S
C126 C127 1.385 . S
C127 C124 1.414 . S
C127 C126 1.385 . S
C127 C149 1.444 . S
O128 Tb84 2.546 . S
O128 C148 1.251 . S
O129 Tb84 2.610 . S
O129 Tb95 2.362 . S
O129 C140 1.283 . S
O130 Tb95 2.421 . S
O130 C147 1.262 . S
O131 Tb84 2.320 . S
O131 C147 1.260 . S
O132 Tb84 2.552 . S
O132 C140 1.243 . S
O133 Tb84 2.413 . S
O133 C148 1.256 . S
O134 Tb95 2.546 . S
O134 C159 1.251 . S
O135 Tb84 2.362 . S
O135 Tb95 2.610 . S
O135 C151 1.283 . S
O136 Tb84 2.421 . S
O136 C158 1.262 . S
O137 Tb95 2.320 . S
O137 C158 1.260 . S
O138 Tb95 2.552 . S
O138 C151 1.243 . S
O139 Tb95 2.413 . S
O139 C159 1.256 . S
C140 O129 1.283 . S
C140 O132 1.243 . S
C141 C143 1.382 . S
C141 C145 1.393 . S
C141 C148 1.500 . S
C142 C143 1.400 . S
C142 C144 1.384 . S
C143 C141 1.382 . S
C143 C142 1.400 . S
C143 H160 0.930 . S
C144 C142 1.384 . S
C144 C146 1.392 . S
C144 H161 0.931 . S
C145 C141 1.393 . S
C145 C146 1.401 . S
C145 H162 0.930 . S
C146 C144 1.392 . S
C146 C145 1.401 . S
C146 H163 0.930 . S
C147 O130 1.262 . S
C147 O131 1.260 . S
C148 Tb84 2.833 . S
C148 O128 1.251 . S
C148 O133 1.256 . S
C148 C141 1.500 . S
C149 H114 0.929 . S
C149 C127 1.444 . S
C149 C150 1.317 . S
C150 H112 0.930 . S
C150 C118 1.432 . S
C150 C149 1.317 . S
C151 O135 1.283 . S
C151 O138 1.243 . S
C152 C153 1.382 . S
C152 C156 1.393 . S
C152 C159 1.500 . S
C153 C152 1.382 . S
C153 C154 1.400 . S
C153 H164 0.930 . S
C154 C153 1.400 . S
C154 C155 1.384 . S
C155 C154 1.384 . S
C155 C157 1.392 . S
C155 H165 0.931 . S
C156 C152 1.393 . S
C156 C157 1.401 . S
C156 H166 0.930 . S
C157 C155 1.392 . S
C157 C156 1.401 . S
C157 H167 0.930 . S
C158 O136 1.262 . S
C158 O137 1.260 . S
C159 Tb95 2.833 . S
C159 O134 1.251 . S
C159 O139 1.256 . S
C159 C152 1.500 . S
H160 C143 0.930 . S
H161 C144 0.931 . S
H162 C145 0.930 . S
H163 C146 0.930 . S
H164 C153 0.930 . S
H165 C155 0.931 . S
H166 C156 0.930 . S
H167 C157 0.930 . S
Tb168 N199 2.660 . S
Tb168 N206 2.600 . S
Tb168 O212 2.546 . S
Tb168 O213 2.610 . S
Tb168 O215 2.320 . S
Tb168 O216 2.552 . S
Tb168 O217 2.413 . S
Tb168 O219 2.362 . S
Tb168 O220 2.421 . S
Tb168 C232 2.833 . S
C169 C172 1.432 . S
C169 C173 1.414 . S
C169 N176 1.359 . S
C170 C172 1.417 . S
C170 C174 1.432 . S
C170 C182 1.410 . S
C171 C173 1.444 . S
C171 C174 1.317 . S
C171 H194 0.929 . S
C172 C169 1.432 . S
C172 C170 1.417 . S
C172 N180 1.360 . S
C173 C169 1.414 . S
C173 C171 1.444 . S
C173 C178 1.385 . S
C174 C170 1.432 . S
C174 C171 1.317 . S
C174 H186 0.930 . S
C175 C177 1.392 . S
C175 C178 1.370 . S
C175 H187 0.931 . S
N176 C169 1.359 . S
N176 C177 1.327 . S
N176 Tb179 2.600 . S
C177 C175 1.392 . S
C177 N176 1.327 . S
C177 H184 0.930 . S
C178 C173 1.385 . S
C178 C175 1.370 . S
C178 H197 0.930 . S
Tb179 N176 2.600 . S
Tb179 N180 2.660 . S
Tb179 O213 2.362 . S
Tb179 O214 2.421 . S
Tb179 O218 2.546 . S
Tb179 O219 2.610 . S
Tb179 O221 2.320 . S
Tb179 O222 2.552 . S
Tb179 O223 2.413 . S
Tb179 C243 2.833 . S
N180 C172 1.360 . S
N180 Tb179 2.660 . S
N180 C181 1.305 . S
C181 N180 1.305 . S
C181 C183 1.407 . S
C181 H188 0.930 . S
C182 C170 1.410 . S
C182 C183 1.345 . S
C182 H190 0.930 . S
C183 C181 1.407 . S
C183 C182 1.345 . S
C183 H185 0.930 . S
H184 C177 0.930 . S
H185 C183 0.930 . S
H186 C174 0.930 . S
H187 C175 0.931 . S
H188 C181 0.930 . S
H189 C203 0.930 . S
H190 C182 0.930 . S
H191 C209 0.930 . S
H192 C200 0.930 . S
H193 C207 0.931 . S
H194 C171 0.929 . S
H195 C201 0.930 . S
H196 C234 0.930 . S
H197 C178 0.930 . S
H198 C233 0.929 . S
N199 Tb168 2.660 . S
N199 C200 1.305 . S
N199 C204 1.360 . S
C200 H192 0.930 . S
C200 N199 1.305 . S
C200 C203 1.407 . S
C201 H195 0.930 . S
C201 C202 1.410 . S
C201 C203 1.345 . S
C202 C201 1.410 . S
C202 C204 1.417 . S
C202 C234 1.432 . S
C203 H189 0.930 . S
C203 C200 1.407 . S
C203 C201 1.345 . S
C204 N199 1.360 . S
C204 C202 1.417 . S
C204 C208 1.432 . S
H205 C210 0.930 . S
N206 Tb168 2.600 . S
N206 C208 1.359 . S
N206 C209 1.327 . S
C207 H193 0.931 . S
C207 C209 1.392 . S
C207 C210 1.370 . S
C208 C204 1.432 . S
C208 N206 1.359 . S
C208 C211 1.414 . S
C209 H191 0.930 . S
C209 N206 1.327 . S
C209 C207 1.392 . S
C210 H205 0.930 . S
C210 C207 1.370 . S
C210 C211 1.385 . S
C211 C208 1.414 . S
C211 C210 1.385 . S
C211 C233 1.444 . S
O212 Tb168 2.546 . S
O212 C232 1.251 . S
O213 Tb168 2.610 . S
O213 Tb179 2.362 . S
O213 C224 1.283 . S
O214 Tb179 2.421 . S
O214 C231 1.262 . S
O215 Tb168 2.320 . S
O215 C231 1.260 . S
O216 Tb168 2.552 . S
O216 C224 1.243 . S
O217 Tb168 2.413 . S
O217 C232 1.256 . S
O218 Tb179 2.546 . S
O218 C243 1.251 . S
O219 Tb168 2.362 . S
O219 Tb179 2.610 . S
O219 C235 1.283 . S
O220 Tb168 2.421 . S
O220 C242 1.262 . S
O221 Tb179 2.320 . S
O221 C242 1.260 . S
O222 Tb179 2.552 . S
O222 C235 1.243 . S
O223 Tb179 2.413 . S
O223 C243 1.256 . S
C224 O213 1.283 . S
C224 O216 1.243 . S
C225 C227 1.382 . S
C225 C229 1.393 . S
C225 C232 1.500 . S
C226 C227 1.400 . S
C226 C228 1.384 . S
C227 C225 1.382 . S
C227 C226 1.400 . S
C227 H244 0.930 . S
C228 C226 1.384 . S
C228 C230 1.392 . S
C228 H245 0.931 . S
C229 C225 1.393 . S
C229 C230 1.401 . S
C229 H246 0.930 . S
C230 C228 1.392 . S
C230 C229 1.401 . S
C230 H247 0.930 . S
C231 O214 1.262 . S
C231 O215 1.260 . S
C232 Tb168 2.833 . S
C232 O212 1.251 . S
C232 O217 1.256 . S
C232 C225 1.500 . S
C233 H198 0.929 . S
C233 C211 1.444 . S
C233 C234 1.317 . S
C234 H196 0.930 . S
C234 C202 1.432 . S
C234 C233 1.317 . S
C235 O219 1.283 . S
C235 O222 1.243 . S
C236 C237 1.382 . S
C236 C240 1.393 . S
C236 C243 1.500 . S
C237 C236 1.382 . S
C237 C238 1.400 . S
C237 H248 0.930 . S
C238 C237 1.400 . S
C238 C239 1.384 . S
C239 C238 1.384 . S
C239 C241 1.392 . S
C239 H249 0.931 . S
C240 C236 1.393 . S
C240 C241 1.401 . S
C240 H250 0.930 . S
C241 C239 1.392 . S
C241 C240 1.401 . S
C241 H251 0.930 . S
C242 O220 1.262 . S
C242 O221 1.260 . S
C243 Tb179 2.833 . S
C243 O218 1.251 . S
C243 O223 1.256 . S
C243 C236 1.500 . S
H244 C227 0.930 . S
H245 C228 0.931 . S
H246 C229 0.930 . S
H247 C230 0.930 . S
H248 C237 0.930 . S
H249 C239 0.931 . S
H250 C240 0.930 . S
H251 C241 0.930 . S
Tb252 N283 2.660 . S
Tb252 N290 2.600 . S
Tb252 O296 2.546 . S
Tb252 O297 2.610 . S
Tb252 O299 2.320 . S
Tb252 O300 2.552 . S
Tb252 O301 2.413 . S
Tb252 O303 2.362 . S
Tb252 O304 2.421 . S
Tb252 C316 2.833 . S
C253 C256 1.432 . S
C253 C257 1.414 . S
C253 N260 1.359 . S
C254 C256 1.417 . S
C254 C258 1.432 . S
C254 C266 1.410 . S
C255 C257 1.444 . S
C255 C258 1.317 . S
C255 H278 0.929 . S
C256 C253 1.432 . S
C256 C254 1.417 . S
C256 N264 1.360 . S
C257 C253 1.414 . S
C257 C255 1.444 . S
C257 C262 1.385 . S
C258 C254 1.432 . S
C258 C255 1.317 . S
C258 H270 0.930 . S
C259 C261 1.392 . S
C259 C262 1.370 . S
C259 H271 0.931 . S
N260 C253 1.359 . S
N260 C261 1.327 . S
N260 Tb263 2.600 . S
C261 C259 1.392 . S
C261 N260 1.327 . S
C261 H268 0.930 . S
C262 C257 1.385 . S
C262 C259 1.370 . S
C262 H281 0.930 . S
Tb263 N260 2.600 . S
Tb263 N264 2.660 . S
Tb263 O297 2.362 . S
Tb263 O298 2.421 . S
Tb263 O302 2.546 . S
Tb263 O303 2.610 . S
Tb263 O305 2.320 . S
Tb263 O306 2.552 . S
Tb263 O307 2.413 . S
Tb263 C327 2.833 . S
N264 C256 1.360 . S
N264 Tb263 2.660 . S
N264 C265 1.305 . S
C265 N264 1.305 . S
C265 C267 1.407 . S
C265 H272 0.930 . S
C266 C254 1.410 . S
C266 C267 1.345 . S
C266 H274 0.930 . S
C267 C265 1.407 . S
C267 C266 1.345 . S
C267 H269 0.930 . S
H268 C261 0.930 . S
H269 C267 0.930 . S
H270 C258 0.930 . S
H271 C259 0.931 . S
H272 C265 0.930 . S
H273 C287 0.930 . S
H274 C266 0.930 . S
H275 C293 0.930 . S
H276 C284 0.930 . S
H277 C291 0.931 . S
H278 C255 0.929 . S
H279 C285 0.930 . S
H280 C318 0.930 . S
H281 C262 0.930 . S
H282 C317 0.929 . S
N283 Tb252 2.660 . S
N283 C284 1.305 . S
N283 C288 1.360 . S
C284 H276 0.930 . S
C284 N283 1.305 . S
C284 C287 1.407 . S
C285 H279 0.930 . S
C285 C286 1.410 . S
C285 C287 1.345 . S
C286 C285 1.410 . S
C286 C288 1.417 . S
C286 C318 1.432 . S
C287 H273 0.930 . S
C287 C284 1.407 . S
C287 C285 1.345 . S
C288 N283 1.360 . S
C288 C286 1.417 . S
C288 C292 1.432 . S
H289 C294 0.930 . S
N290 Tb252 2.600 . S
N290 C292 1.359 . S
N290 C293 1.327 . S
C291 H277 0.931 . S
C291 C293 1.392 . S
C291 C294 1.370 . S
C292 C288 1.432 . S
C292 N290 1.359 . S
C292 C295 1.414 . S
C293 H275 0.930 . S
C293 N290 1.327 . S
C293 C291 1.392 . S
C294 H289 0.930 . S
C294 C291 1.370 . S
C294 C295 1.385 . S
C295 C292 1.414 . S
C295 C294 1.385 . S
C295 C317 1.444 . S
O296 Tb252 2.546 . S
O296 C316 1.251 . S
O297 Tb252 2.610 . S
O297 Tb263 2.362 . S
O297 C308 1.283 . S
O298 Tb263 2.421 . S
O298 C315 1.262 . S
O299 Tb252 2.320 . S
O299 C315 1.260 . S
O300 Tb252 2.552 . S
O300 C308 1.243 . S
O301 Tb252 2.413 . S
O301 C316 1.256 . S
O302 Tb263 2.546 . S
O302 C327 1.251 . S
O303 Tb252 2.362 . S
O303 Tb263 2.610 . S
O303 C319 1.283 . S
O304 Tb252 2.421 . S
O304 C326 1.262 . S
O305 Tb263 2.320 . S
O305 C326 1.260 . S
O306 Tb263 2.552 . S
O306 C319 1.243 . S
O307 Tb263 2.413 . S
O307 C327 1.256 . S
C308 O297 1.283 . S
C308 O300 1.243 . S
C309 C311 1.382 . S
C309 C313 1.393 . S
C309 C316 1.500 . S
C310 C311 1.400 . S
C310 C312 1.384 . S
C311 C309 1.382 . S
C311 C310 1.400 . S
C311 H328 0.930 . S
C312 C310 1.384 . S
C312 C314 1.392 . S
C312 H329 0.931 . S
C313 C309 1.393 . S
C313 C314 1.401 . S
C313 H330 0.930 . S
C314 C312 1.392 . S
C314 C313 1.401 . S
C314 H331 0.930 . S
C315 O298 1.262 . S
C315 O299 1.260 . S
C316 Tb252 2.833 . S
C316 O296 1.251 . S
C316 O301 1.256 . S
C316 C309 1.500 . S
C317 H282 0.929 . S
C317 C295 1.444 . S
C317 C318 1.317 . S
C318 H280 0.930 . S
C318 C286 1.432 . S
C318 C317 1.317 . S
C319 O303 1.283 . S
C319 O306 1.243 . S
C320 C321 1.382 . S
C320 C324 1.393 . S
C320 C327 1.500 . S
C321 C320 1.382 . S
C321 C322 1.400 . S
C321 H332 0.930 . S
C322 C321 1.400 . S
C322 C323 1.384 . S
C323 C322 1.384 . S
C323 C325 1.392 . S
C323 H333 0.931 . S
C324 C320 1.393 . S
C324 C325 1.401 . S
C324 H334 0.930 . S
C325 C323 1.392 . S
C325 C324 1.401 . S
C325 H335 0.930 . S
C326 O304 1.262 . S
C326 O305 1.260 . S
C327 Tb263 2.833 . S
C327 O302 1.251 . S
C327 O307 1.256 . S
C327 C320 1.500 . S
H328 C311 0.930 . S
H329 C312 0.931 . S
H330 C313 0.930 . S
H331 C314 0.930 . S
H332 C321 0.930 . S
H333 C323 0.931 . S
H334 C324 0.930 . S
H335 C325 0.930 . S
Tb336 N367 2.660 . S
Tb336 N374 2.600 . S
Tb336 O380 2.546 . S
Tb336 O381 2.610 . S
Tb336 O383 2.320 . S
Tb336 O384 2.552 . S
Tb336 O385 2.413 . S
Tb336 O387 2.362 . S
Tb336 O388 2.421 . S
Tb336 C400 2.833 . S
C337 C340 1.432 . S
C337 C341 1.414 . S
C337 N344 1.359 . S
C338 C340 1.417 . S
C338 C342 1.432 . S
C338 C350 1.410 . S
C339 C341 1.444 . S
C339 C342 1.317 . S
C339 H362 0.929 . S
C340 C337 1.432 . S
C340 C338 1.417 . S
C340 N348 1.360 . S
C341 C337 1.414 . S
C341 C339 1.444 . S
C341 C346 1.385 . S
C342 C338 1.432 . S
C342 C339 1.317 . S
C342 H354 0.930 . S
C343 C345 1.392 . S
C343 C346 1.370 . S
C343 H355 0.931 . S
N344 C337 1.359 . S
N344 C345 1.327 . S
N344 Tb347 2.600 . S
C345 C343 1.392 . S
C345 N344 1.327 . S
C345 H352 0.930 . S
C346 C341 1.385 . S
C346 C343 1.370 . S
C346 H365 0.930 . S
Tb347 N344 2.600 . S
Tb347 N348 2.660 . S
Tb347 O381 2.362 . S
Tb347 O382 2.421 . S
Tb347 O386 2.546 . S
Tb347 O387 2.610 . S
Tb347 O389 2.320 . S
Tb347 O390 2.552 . S
Tb347 O391 2.413 . S
Tb347 C411 2.833 . S
N348 C340 1.360 . S
N348 Tb347 2.660 . S
N348 C349 1.305 . S
C349 N348 1.305 . S
C349 C351 1.407 . S
C349 H356 0.930 . S
C350 C338 1.410 . S
C350 C351 1.345 . S
C350 H358 0.930 . S
C351 C349 1.407 . S
C351 C350 1.345 . S
C351 H353 0.930 . S
H352 C345 0.930 . S
H353 C351 0.930 . S
H354 C342 0.930 . S
H355 C343 0.931 . S
H356 C349 0.930 . S
H357 C371 0.930 . S
H358 C350 0.930 . S
H359 C377 0.930 . S
H360 C368 0.930 . S
H361 C375 0.931 . S
H362 C339 0.929 . S
H363 C369 0.930 . S
H364 C402 0.930 . S
H365 C346 0.930 . S
H366 C401 0.929 . S
N367 Tb336 2.660 . S
N367 C368 1.305 . S
N367 C372 1.360 . S
C368 H360 0.930 . S
C368 N367 1.305 . S
C368 C371 1.407 . S
C369 H363 0.930 . S
C369 C370 1.410 . S
C369 C371 1.345 . S
C370 C369 1.410 . S
C370 C372 1.417 . S
C370 C402 1.432 . S
C371 H357 0.930 . S
C371 C368 1.407 . S
C371 C369 1.345 . S
C372 N367 1.360 . S
C372 C370 1.417 . S
C372 C376 1.432 . S
H373 C378 0.930 . S
N374 Tb336 2.600 . S
N374 C376 1.359 . S
N374 C377 1.327 . S
C375 H361 0.931 . S
C375 C377 1.392 . S
C375 C378 1.370 . S
C376 C372 1.432 . S
C376 N374 1.359 . S
C376 C379 1.414 . S
C377 H359 0.930 . S
C377 N374 1.327 . S
C377 C375 1.392 . S
C378 H373 0.930 . S
C378 C375 1.370 . S
C378 C379 1.385 . S
C379 C376 1.414 . S
C379 C378 1.385 . S
C379 C401 1.444 . S
O380 Tb336 2.546 . S
O380 C400 1.251 . S
O381 Tb336 2.610 . S
O381 Tb347 2.362 . S
O381 C392 1.283 . S
O382 Tb347 2.421 . S
O382 C399 1.262 . S
O383 Tb336 2.320 . S
O383 C399 1.260 . S
O384 Tb336 2.552 . S
O384 C392 1.243 . S
O385 Tb336 2.413 . S
O385 C400 1.256 . S
O386 Tb347 2.546 . S
O386 C411 1.251 . S
O387 Tb336 2.362 . S
O387 Tb347 2.610 . S
O387 C403 1.283 . S
O388 Tb336 2.421 . S
O388 C410 1.262 . S
O389 Tb347 2.320 . S
O389 C410 1.260 . S
O390 Tb347 2.552 . S
O390 C403 1.243 . S
O391 Tb347 2.413 . S
O391 C411 1.256 . S
C392 O381 1.283 . S
C392 O384 1.243 . S
C393 C395 1.382 . S
C393 C397 1.393 . S
C393 C400 1.500 . S
C394 C395 1.400 . S
C394 C396 1.384 . S
C395 C393 1.382 . S
C395 C394 1.400 . S
C395 H412 0.930 . S
C396 C394 1.384 . S
C396 C398 1.392 . S
C396 H413 0.931 . S
C397 C393 1.393 . S
C397 C398 1.401 . S
C397 H414 0.930 . S
C398 C396 1.392 . S
C398 C397 1.401 . S
C398 H415 0.930 . S
C399 O382 1.262 . S
C399 O383 1.260 . S
C400 Tb336 2.833 . S
C400 O380 1.251 . S
C400 O385 1.256 . S
C400 C393 1.500 . S
C401 H366 0.929 . S
C401 C379 1.444 . S
C401 C402 1.317 . S
C402 H364 0.930 . S
C402 C370 1.432 . S
C402 C401 1.317 . S
C403 O387 1.283 . S
C403 O390 1.243 . S
C404 C405 1.382 . S
C404 C408 1.393 . S
C404 C411 1.500 . S
C405 C404 1.382 . S
C405 C406 1.400 . S
C405 H416 0.930 . S
C406 C405 1.400 . S
C406 C407 1.384 . S
C407 C406 1.384 . S
C407 C409 1.392 . S
C407 H417 0.931 . S
C408 C404 1.393 . S
C408 C409 1.401 . S
C408 H418 0.930 . S
C409 C407 1.392 . S
C409 C408 1.401 . S
C409 H419 0.930 . S
C410 O388 1.262 . S
C410 O389 1.260 . S
C411 Tb347 2.833 . S
C411 O386 1.251 . S
C411 O391 1.256 . S
C411 C404 1.500 . S
H412 C395 0.930 . S
H413 C396 0.931 . S
H414 C397 0.930 . S
H415 C398 0.930 . S
H416 C405 0.930 . S
H417 C407 0.931 . S
H418 C408 0.930 . S
H419 C409 0.930 . S
Tb420 N451 2.660 . S
Tb420 N458 2.600 . S
Tb420 O464 2.546 . S
Tb420 O465 2.610 . S
Tb420 O467 2.320 . S
Tb420 O468 2.552 . S
Tb420 O469 2.413 . S
Tb420 O471 2.362 . S
Tb420 O472 2.421 . S
Tb420 C484 2.833 . S
C421 C424 1.432 . S
C421 C425 1.414 . S
C421 N428 1.359 . S
C422 C424 1.417 . S
C422 C426 1.432 . S
C422 C434 1.410 . S
C423 C425 1.444 . S
C423 C426 1.317 . S
C423 H446 0.929 . S
C424 C421 1.432 . S
C424 C422 1.417 . S
C424 N432 1.360 . S
C425 C421 1.414 . S
C425 C423 1.444 . S
C425 C430 1.385 . S
C426 C422 1.432 . S
C426 C423 1.317 . S
C426 H438 0.930 . S
C427 C429 1.392 . S
C427 C430 1.370 . S
C427 H439 0.931 . S
N428 C421 1.359 . S
N428 C429 1.327 . S
N428 Tb431 2.600 . S
C429 C427 1.392 . S
C429 N428 1.327 . S
C429 H436 0.930 . S
C430 C425 1.385 . S
C430 C427 1.370 . S
C430 H449 0.930 . S
Tb431 N428 2.600 . S
Tb431 N432 2.660 . S
Tb431 O465 2.362 . S
Tb431 O466 2.421 . S
Tb431 O470 2.546 . S
Tb431 O471 2.610 . S
Tb431 O473 2.320 . S
Tb431 O474 2.552 . S
Tb431 O475 2.413 . S
Tb431 C495 2.833 . S
N432 C424 1.360 . S
N432 Tb431 2.660 . S
N432 C433 1.305 . S
C433 N432 1.305 . S
C433 C435 1.407 . S
C433 H440 0.930 . S
C434 C422 1.410 . S
C434 C435 1.345 . S
C434 H442 0.930 . S
C435 C433 1.407 . S
C435 C434 1.345 . S
C435 H437 0.930 . S
H436 C429 0.930 . S
H437 C435 0.930 . S
H438 C426 0.930 . S
H439 C427 0.931 . S
H440 C433 0.930 . S
H441 C455 0.930 . S
H442 C434 0.930 . S
H443 C461 0.930 . S
H444 C452 0.930 . S
H445 C459 0.931 . S
H446 C423 0.929 . S
H447 C453 0.930 . S
H448 C486 0.930 . S
H449 C430 0.930 . S
H450 C485 0.929 . S
N451 Tb420 2.660 . S
N451 C452 1.305 . S
N451 C456 1.360 . S
C452 H444 0.930 . S
C452 N451 1.305 . S
C452 C455 1.407 . S
C453 H447 0.930 . S
C453 C454 1.410 . S
C453 C455 1.345 . S
C454 C453 1.410 . S
C454 C456 1.417 . S
C454 C486 1.432 . S
C455 H441 0.930 . S
C455 C452 1.407 . S
C455 C453 1.345 . S
C456 N451 1.360 . S
C456 C454 1.417 . S
C456 C460 1.432 . S
H457 C462 0.930 . S
N458 Tb420 2.600 . S
N458 C460 1.359 . S
N458 C461 1.327 . S
C459 H445 0.931 . S
C459 C461 1.392 . S
C459 C462 1.370 . S
C460 C456 1.432 . S
C460 N458 1.359 . S
C460 C463 1.414 . S
C461 H443 0.930 . S
C461 N458 1.327 . S
C461 C459 1.392 . S
C462 H457 0.930 . S
C462 C459 1.370 . S
C462 C463 1.385 . S
C463 C460 1.414 . S
C463 C462 1.385 . S
C463 C485 1.444 . S
O464 Tb420 2.546 . S
O464 C484 1.251 . S
O465 Tb420 2.610 . S
O465 Tb431 2.362 . S
O465 C476 1.283 . S
O466 Tb431 2.421 . S
O466 C483 1.262 . S
O467 Tb420 2.320 . S
O467 C483 1.260 . S
O468 Tb420 2.552 . S
O468 C476 1.243 . S
O469 Tb420 2.413 . S
O469 C484 1.256 . S
O470 Tb431 2.546 . S
O470 C495 1.251 . S
O471 Tb420 2.362 . S
O471 Tb431 2.610 . S
O471 C487 1.283 . S
O472 Tb420 2.421 . S
O472 C494 1.262 . S
O473 Tb431 2.320 . S
O473 C494 1.260 . S
O474 Tb431 2.552 . S
O474 C487 1.243 . S
O475 Tb431 2.413 . S
O475 C495 1.256 . S
C476 O465 1.283 . S
C476 O468 1.243 . S
C477 C479 1.382 . S
C477 C481 1.393 . S
C477 C484 1.500 . S
C478 C479 1.400 . S
C478 C480 1.384 . S
C479 C477 1.382 . S
C479 C478 1.400 . S
C479 H496 0.930 . S
C480 C478 1.384 . S
C480 C482 1.392 . S
C480 H497 0.931 . S
C481 C477 1.393 . S
C481 C482 1.401 . S
C481 H498 0.930 . S
C482 C480 1.392 . S
C482 C481 1.401 . S
C482 H499 0.930 . S
C483 O466 1.262 . S
C483 O467 1.260 . S
C484 Tb420 2.833 . S
C484 O464 1.251 . S
C484 O469 1.256 . S
C484 C477 1.500 . S
C485 H450 0.929 . S
C485 C463 1.444 . S
C485 C486 1.317 . S
C486 H448 0.930 . S
C486 C454 1.432 . S
C486 C485 1.317 . S
C487 O471 1.283 . S
C487 O474 1.243 . S
C488 C489 1.382 . S
C488 C492 1.393 . S
C488 C495 1.500 . S
C489 C488 1.382 . S
C489 C490 1.400 . S
C489 H500 0.930 . S
C490 C489 1.400 . S
C490 C491 1.384 . S
C491 C490 1.384 . S
C491 C493 1.392 . S
C491 H501 0.931 . S
C492 C488 1.393 . S
C492 C493 1.401 . S
C492 H502 0.930 . S
C493 C491 1.392 . S
C493 C492 1.401 . S
C493 H503 0.930 . S
C494 O472 1.262 . S
C494 O473 1.260 . S
C495 Tb431 2.833 . S
C495 O470 1.251 . S
C495 O475 1.256 . S
C495 C488 1.500 . S
H496 C479 0.930 . S
H497 C480 0.931 . S
H498 C481 0.930 . S
H499 C482 0.930 . S
H500 C489 0.930 . S
H501 C491 0.931 . S
H502 C492 0.930 . S
H503 C493 0.930 . S
Tb504 N535 2.660 . S
Tb504 N542 2.600 . S
Tb504 O548 2.546 . S
Tb504 O549 2.610 . S
Tb504 O551 2.320 . S
Tb504 O552 2.552 . S
Tb504 O553 2.413 . S
Tb504 O555 2.362 . S
Tb504 O556 2.421 . S
Tb504 C568 2.833 . S
C505 C508 1.432 . S
C505 C509 1.414 . S
C505 N512 1.359 . S
C506 C508 1.417 . S
C506 C510 1.432 . S
C506 C518 1.410 . S
C507 C509 1.444 . S
C507 C510 1.317 . S
C507 H530 0.929 . S
C508 C505 1.432 . S
C508 C506 1.417 . S
C508 N516 1.360 . S
C509 C505 1.414 . S
C509 C507 1.444 . S
C509 C514 1.385 . S
C510 C506 1.432 . S
C510 C507 1.317 . S
C510 H522 0.930 . S
C511 C513 1.392 . S
C511 C514 1.370 . S
C511 H523 0.931 . S
N512 C505 1.359 . S
N512 C513 1.327 . S
N512 Tb515 2.600 . S
C513 C511 1.392 . S
C513 N512 1.327 . S
C513 H520 0.930 . S
C514 C509 1.385 . S
C514 C511 1.370 . S
C514 H533 0.930 . S
Tb515 N512 2.600 . S
Tb515 N516 2.660 . S
Tb515 O549 2.362 . S
Tb515 O550 2.421 . S
Tb515 O554 2.546 . S
Tb515 O555 2.610 . S
Tb515 O557 2.320 . S
Tb515 O558 2.552 . S
Tb515 O559 2.413 . S
Tb515 C579 2.833 . S
N516 C508 1.360 . S
N516 Tb515 2.660 . S
N516 C517 1.305 . S
C517 N516 1.305 . S
C517 C519 1.407 . S
C517 H524 0.930 . S
C518 C506 1.410 . S
C518 C519 1.345 . S
C518 H526 0.930 . S
C519 C517 1.407 . S
C519 C518 1.345 . S
C519 H521 0.930 . S
H520 C513 0.930 . S
H521 C519 0.930 . S
H522 C510 0.930 . S
H523 C511 0.931 . S
H524 C517 0.930 . S
H525 C539 0.930 . S
H526 C518 0.930 . S
H527 C545 0.930 . S
H528 C536 0.930 . S
H529 C543 0.931 . S
H530 C507 0.929 . S
H531 C537 0.930 . S
H532 C570 0.930 . S
H533 C514 0.930 . S
H534 C569 0.929 . S
N535 Tb504 2.660 . S
N535 C536 1.305 . S
N535 C540 1.360 . S
C536 H528 0.930 . S
C536 N535 1.305 . S
C536 C539 1.407 . S
C537 H531 0.930 . S
C537 C538 1.410 . S
C537 C539 1.345 . S
C538 C537 1.410 . S
C538 C540 1.417 . S
C538 C570 1.432 . S
C539 H525 0.930 . S
C539 C536 1.407 . S
C539 C537 1.345 . S
C540 N535 1.360 . S
C540 C538 1.417 . S
C540 C544 1.432 . S
H541 C546 0.930 . S
N542 Tb504 2.600 . S
N542 C544 1.359 . S
N542 C545 1.327 . S
C543 H529 0.931 . S
C543 C545 1.392 . S
C543 C546 1.370 . S
C544 C540 1.432 . S
C544 N542 1.359 . S
C544 C547 1.414 . S
C545 H527 0.930 . S
C545 N542 1.327 . S
C545 C543 1.392 . S
C546 H541 0.930 . S
C546 C543 1.370 . S
C546 C547 1.385 . S
C547 C544 1.414 . S
C547 C546 1.385 . S
C547 C569 1.444 . S
O548 Tb504 2.546 . S
O548 C568 1.251 . S
O549 Tb504 2.610 . S
O549 Tb515 2.362 . S
O549 C560 1.283 . S
O550 Tb515 2.421 . S
O550 C567 1.262 . S
O551 Tb504 2.320 . S
O551 C567 1.260 . S
O552 Tb504 2.552 . S
O552 C560 1.243 . S
O553 Tb504 2.413 . S
O553 C568 1.256 . S
O554 Tb515 2.546 . S
O554 C579 1.251 . S
O555 Tb504 2.362 . S
O555 Tb515 2.610 . S
O555 C571 1.283 . S
O556 Tb504 2.421 . S
O556 C578 1.262 . S
O557 Tb515 2.320 . S
O557 C578 1.260 . S
O558 Tb515 2.552 . S
O558 C571 1.243 . S
O559 Tb515 2.413 . S
O559 C579 1.256 . S
C560 O549 1.283 . S
C560 O552 1.243 . S
C561 C563 1.382 . S
C561 C565 1.393 . S
C561 C568 1.500 . S
C562 C563 1.400 . S
C562 C564 1.384 . S
C563 C561 1.382 . S
C563 C562 1.400 . S
C563 H580 0.930 . S
C564 C562 1.384 . S
C564 C566 1.392 . S
C564 H581 0.931 . S
C565 C561 1.393 . S
C565 C566 1.401 . S
C565 H582 0.930 . S
C566 C564 1.392 . S
C566 C565 1.401 . S
C566 H583 0.930 . S
C567 O550 1.262 . S
C567 O551 1.260 . S
C568 Tb504 2.833 . S
C568 O548 1.251 . S
C568 O553 1.256 . S
C568 C561 1.500 . S
C569 H534 0.929 . S
C569 C547 1.444 . S
C569 C570 1.317 . S
C570 H532 0.930 . S
C570 C538 1.432 . S
C570 C569 1.317 . S
C571 O555 1.283 . S
C571 O558 1.243 . S
C572 C573 1.382 . S
C572 C576 1.393 . S
C572 C579 1.500 . S
C573 C572 1.382 . S
C573 C574 1.400 . S
C573 H584 0.930 . S
C574 C573 1.400 . S
C574 C575 1.384 . S
C575 C574 1.384 . S
C575 C577 1.392 . S
C575 H585 0.931 . S
C576 C572 1.393 . S
C576 C577 1.401 . S
C576 H586 0.930 . S
C577 C575 1.392 . S
C577 C576 1.401 . S
C577 H587 0.930 . S
C578 O556 1.262 . S
C578 O557 1.260 . S
C579 Tb515 2.833 . S
C579 O554 1.251 . S
C579 O559 1.256 . S
C579 C572 1.500 . S
H580 C563 0.930 . S
H581 C564 0.931 . S
H582 C565 0.930 . S
H583 C566 0.930 . S
H584 C573 0.930 . S
H585 C575 0.931 . S
H586 C576 0.930 . S
H587 C577 0.930 . S
Tb588 N619 2.660 . S
Tb588 N626 2.600 . S
Tb588 O632 2.546 . S
Tb588 O633 2.610 . S
Tb588 O635 2.320 . S
Tb588 O636 2.552 . S
Tb588 O637 2.413 . S
Tb588 O639 2.362 . S
Tb588 O640 2.421 . S
Tb588 C652 2.833 . S
C589 C592 1.432 . S
C589 C593 1.414 . S
C589 N596 1.359 . S
C590 C592 1.417 . S
C590 C594 1.432 . S
C590 C602 1.410 . S
C591 C593 1.444 . S
C591 C594 1.317 . S
C591 H614 0.929 . S
C592 C589 1.432 . S
C592 C590 1.417 . S
C592 N600 1.360 . S
C593 C589 1.414 . S
C593 C591 1.444 . S
C593 C598 1.385 . S
C594 C590 1.432 . S
C594 C591 1.317 . S
C594 H606 0.930 . S
C595 C597 1.392 . S
C595 C598 1.370 . S
C595 H607 0.931 . S
N596 C589 1.359 . S
N596 C597 1.327 . S
N596 Tb599 2.600 . S
C597 C595 1.392 . S
C597 N596 1.327 . S
C597 H604 0.930 . S
C598 C593 1.385 . S
C598 C595 1.370 . S
C598 H617 0.930 . S
Tb599 N596 2.600 . S
Tb599 N600 2.660 . S
Tb599 O633 2.362 . S
Tb599 O634 2.421 . S
Tb599 O638 2.546 . S
Tb599 O639 2.610 . S
Tb599 O641 2.320 . S
Tb599 O642 2.552 . S
Tb599 O643 2.413 . S
Tb599 C663 2.833 . S
N600 C592 1.360 . S
N600 Tb599 2.660 . S
N600 C601 1.305 . S
C601 N600 1.305 . S
C601 C603 1.407 . S
C601 H608 0.930 . S
C602 C590 1.410 . S
C602 C603 1.345 . S
C602 H610 0.930 . S
C603 C601 1.407 . S
C603 C602 1.345 . S
C603 H605 0.930 . S
H604 C597 0.930 . S
H605 C603 0.930 . S
H606 C594 0.930 . S
H607 C595 0.931 . S
H608 C601 0.930 . S
H609 C623 0.930 . S
H610 C602 0.930 . S
H611 C629 0.930 . S
H612 C620 0.930 . S
H613 C627 0.931 . S
H614 C591 0.929 . S
H615 C621 0.930 . S
H616 C654 0.930 . S
H617 C598 0.930 . S
H618 C653 0.929 . S
N619 Tb588 2.660 . S
N619 C620 1.305 . S
N619 C624 1.360 . S
C620 H612 0.930 . S
C620 N619 1.305 . S
C620 C623 1.407 . S
C621 H615 0.930 . S
C621 C622 1.410 . S
C621 C623 1.345 . S
C622 C621 1.410 . S
C622 C624 1.417 . S
C622 C654 1.432 . S
C623 H609 0.930 . S
C623 C620 1.407 . S
C623 C621 1.345 . S
C624 N619 1.360 . S
C624 C622 1.417 . S
C624 C628 1.432 . S
H625 C630 0.930 . S
N626 Tb588 2.600 . S
N626 C628 1.359 . S
N626 C629 1.327 . S
C627 H613 0.931 . S
C627 C629 1.392 . S
C627 C630 1.370 . S
C628 C624 1.432 . S
C628 N626 1.359 . S
C628 C631 1.414 . S
C629 H611 0.930 . S
C629 N626 1.327 . S
C629 C627 1.392 . S
C630 H625 0.930 . S
C630 C627 1.370 . S
C630 C631 1.385 . S
C631 C628 1.414 . S
C631 C630 1.385 . S
C631 C653 1.444 . S
O632 Tb588 2.546 . S
O632 C652 1.251 . S
O633 Tb588 2.610 . S
O633 Tb599 2.362 . S
O633 C644 1.283 . S
O634 Tb599 2.421 . S
O634 C651 1.262 . S
O635 Tb588 2.320 . S
O635 C651 1.260 . S
O636 Tb588 2.552 . S
O636 C644 1.243 . S
O637 Tb588 2.413 . S
O637 C652 1.256 . S
O638 Tb599 2.546 . S
O638 C663 1.251 . S
O639 Tb588 2.362 . S
O639 Tb599 2.610 . S
O639 C655 1.283 . S
O640 Tb588 2.421 . S
O640 C662 1.262 . S
O641 Tb599 2.320 . S
O641 C662 1.260 . S
O642 Tb599 2.552 . S
O642 C655 1.243 . S
O643 Tb599 2.413 . S
O643 C663 1.256 . S
C644 O633 1.283 . S
C644 O636 1.243 . S
C645 C647 1.382 . S
C645 C649 1.393 . S
C645 C652 1.500 . S
C646 C647 1.400 . S
C646 C648 1.384 . S
C647 C645 1.382 . S
C647 C646 1.400 . S
C647 H664 0.930 . S
C648 C646 1.384 . S
C648 C650 1.392 . S
C648 H665 0.931 . S
C649 C645 1.393 . S
C649 C650 1.401 . S
C649 H666 0.930 . S
C650 C648 1.392 . S
C650 C649 1.401 . S
C650 H667 0.930 . S
C651 O634 1.262 . S
C651 O635 1.260 . S
C652 Tb588 2.833 . S
C652 O632 1.251 . S
C652 O637 1.256 . S
C652 C645 1.500 . S
C653 H618 0.929 . S
C653 C631 1.444 . S
C653 C654 1.317 . S
C654 H616 0.930 . S
C654 C622 1.432 . S
C654 C653 1.317 . S
C655 O639 1.283 . S
C655 O642 1.243 . S
C656 C657 1.382 . S
C656 C660 1.393 . S
C656 C663 1.500 . S
C657 C656 1.382 . S
C657 C658 1.400 . S
C657 H668 0.930 . S
C658 C657 1.400 . S
C658 C659 1.384 . S
C659 C658 1.384 . S
C659 C661 1.392 . S
C659 H669 0.931 . S
C660 C656 1.393 . S
C660 C661 1.401 . S
C660 H670 0.930 . S
C661 C659 1.392 . S
C661 C660 1.401 . S
C661 H671 0.930 . S
C662 O640 1.262 . S
C662 O641 1.260 . S
C663 Tb599 2.833 . S
C663 O638 1.251 . S
C663 O643 1.256 . S
C663 C656 1.500 . S
H664 C647 0.930 . S
H665 C648 0.931 . S
H666 C649 0.930 . S
H667 C650 0.930 . S
H668 C657 0.930 . S
H669 C659 0.931 . S
H670 C660 0.930 . S
H671 C661 0.930 . S
Cd672 N675 2.334 1_655 S
Cd672 N701 2.304 1_565 S
Cd672 O708 2.268 . S
Cd672 O711 2.273 1_665 S
Cd672 O712 2.417 . S
Cd672 O713 2.330 . S
Cd673 N688 2.304 1_455 S
Cd673 N692 2.334 1_545 S
Cd673 O709 2.273 1_445 S
Cd673 O710 2.268 . S
Cd673 O714 2.417 . S
Cd673 O715 2.330 . S
C674 N675 1.332 . S
C674 C678 1.381 . S
C674 H680 0.931 . S
N675 Cd672 2.334 1_455 S
N675 C674 1.332 . S
N675 C679 1.328 . S
C676 C677 1.396 . S
C676 C679 1.378 . S
C676 H718 0.931 . S
C677 C676 1.396 . S
C677 C678 1.382 . S
C678 C674 1.381 . S
C678 C677 1.382 . S
C678 H719 0.930 . S
C679 N675 1.328 . S
C679 C676 1.378 . S
C679 H681 0.930 1_455 S
H680 C674 0.931 . S
H681 C679 0.930 1_655 S
C682 O708 1.238 . S
C682 O709 1.253 . S
C683 C684 1.379 . S
C683 N688 1.337 . S
C683 H689 0.929 . S
C684 C683 1.379 . S
C684 C685 1.380 . S
C684 H720 0.929 . S
C685 C684 1.380 . S
C685 C686 1.399 . S
C686 C685 1.399 . S
C686 C687 1.376 . S
C686 H721 0.931 . S
C687 C686 1.376 . S
C687 N688 1.338 . S
C687 H690 0.930 1_655 S
N688 Cd673 2.304 1_655 S
N688 C683 1.337 . S
N688 C687 1.338 . S
H689 C683 0.929 . S
H690 C687 0.930 1_455 S
C691 N692 1.332 . S
C691 C695 1.381 . S
C691 H697 0.931 . S
N692 Cd673 2.334 1_565 S
N692 C691 1.332 . S
N692 C696 1.328 . S
C693 C694 1.396 . S
C693 C696 1.378 . S
C693 H722 0.931 . S
C694 C693 1.396 . S
C694 C695 1.382 . S
C695 C691 1.381 . S
C695 C694 1.382 . S
C695 H723 0.930 . S
C696 N692 1.328 . S
C696 C693 1.378 . S
C696 H698 0.930 1_565 S
H697 C691 0.931 . S
H698 C696 0.930 1_545 S
C699 O710 1.238 . S
C699 O711 1.253 . S
C700 O712 1.239 . S
C700 O713 1.230 . S
N701 Cd672 2.304 1_545 S
N701 C702 1.337 . S
N701 C706 1.338 . S
C702 N701 1.337 . S
C702 C703 1.379 . S
C702 H716 0.929 . S
C703 C702 1.379 . S
C703 C704 1.380 . S
C703 H724 0.929 . S
C704 C703 1.380 . S
C704 C705 1.399 . S
C705 C704 1.399 . S
C705 C706 1.376 . S
C705 H725 0.931 . S
C706 N701 1.338 . S
C706 C705 1.376 . S
C706 H717 0.930 1_545 S
C707 O714 1.239 . S
C707 O715 1.230 . S
O708 Cd672 2.268 . S
O708 C682 1.238 . S
O709 Cd673 2.273 1_665 S
O709 C682 1.253 . S
O710 Cd673 2.268 . S
O710 C699 1.238 . S
O711 Cd672 2.273 1_445 S
O711 C699 1.253 . S
O712 Cd672 2.417 . S
O712 C700 1.239 . S
O713 Cd672 2.330 . S
O713 C700 1.230 . S
O714 Cd673 2.417 . S
O714 C707 1.239 . S
O715 Cd673 2.330 . S
O715 C707 1.230 . S
H716 C702 0.929 . S
H717 C706 0.930 1_565 S
H718 C676 0.931 . S
H719 C678 0.930 . S
H720 C684 0.929 . S
H721 C686 0.931 . S
H722 C693 0.931 . S
H723 C695 0.930 . S
H724 C703 0.929 . S
H725 C705 0.931 . S
Cd726 N729 2.334 . S
Cd726 N755 2.304 1_565 S
Cd726 O762 2.268 1_554 S
Cd726 O765 2.273 1_565 S
Cd726 O766 2.417 . S
Cd726 O767 2.330 . S
Cd727 N742 2.304 . S
Cd727 N746 2.334 1_545 S
Cd727 O763 2.273 1_545 S
Cd727 O764 2.268 1_556 S
Cd727 O768 2.417 . S
Cd727 O769 2.330 . S
C728 N729 1.332 . S
C728 C732 1.381 . S
C728 H734 0.931 . S
N729 Cd726 2.334 . S
N729 C728 1.332 . S
N729 C733 1.328 . S
C730 C731 1.396 . S
C730 C733 1.378 . S
C730 H772 0.931 . S
C731 C730 1.396 . S
C731 C732 1.382 . S
C732 C728 1.381 . S
C732 C731 1.382 . S
C732 H773 0.930 . S
C733 N729 1.328 . S
C733 C730 1.378 . S
C733 H735 0.929 . S
H734 C728 0.931 . S
H735 C733 0.929 . S
C736 O762 1.238 . S
C736 O763 1.253 . S
C737 C738 1.379 . S
C737 N742 1.337 . S
C737 H743 0.929 . S
C738 C737 1.379 . S
C738 C739 1.380 . S
C738 H774 0.929 . S
C739 C738 1.380 . S
C739 C740 1.399 . S
C740 C739 1.399 . S
C740 C741 1.376 . S
C740 H775 0.950 . S
C741 C740 1.376 . S
C741 N742 1.338 . S
C741 H744 0.930 1_556 S
N742 Cd727 2.304 . S
N742 C737 1.337 . S
N742 C741 1.338 . S
H743 C737 0.929 . S
H744 C741 0.930 1_554 S
C745 N746 1.332 . S
C745 C749 1.381 . S
C745 H751 0.931 . S
N746 Cd727 2.334 1_565 S
N746 C745 1.332 . S
N746 C750 1.321 . S
C747 C748 1.396 . S
C747 C750 1.411 . S
C747 H776 0.931 1_556 S
C748 C747 1.396 . S
C748 C749 1.382 . S
C749 C745 1.381 . S
C749 C748 1.382 . S
C749 H777 0.930 . S
C750 N746 1.321 . S
C750 C747 1.411 . S
C750 H752 0.903 1_566 S
H751 C745 0.931 . S
H752 C750 0.903 1_544 S
C753 O764 1.238 . S
C753 O765 1.253 . S
C754 O766 1.239 . S
C754 O767 1.230 . S
N755 Cd726 2.304 1_545 S
N755 C756 1.337 . S
N755 C760 1.338 . S
C756 N755 1.337 . S
C756 C757 1.379 . S
C756 H770 0.929 . S
C757 C756 1.379 . S
C757 C758 1.380 . S
C757 H778 0.929 . S
C758 C757 1.380 . S
C758 C759 1.399 . S
C759 C758 1.399 . S
C759 C760 1.376 . S
C759 H779 0.931 1_554 S
C760 N755 1.338 . S
C760 C759 1.376 . S
C760 H771 0.930 1_544 S
C761 O768 1.239 . S
C761 O769 1.230 . S
O762 Cd726 2.268 1_556 S
O762 C736 1.238 . S
O763 Cd727 2.273 1_565 S
O763 C736 1.253 . S
O764 Cd727 2.268 1_554 S
O764 C753 1.238 . S
O765 Cd726 2.273 1_545 S
O765 C753 1.253 . S
O766 Cd726 2.417 . S
O766 C754 1.239 . S
O767 Cd726 2.330 . S
O767 C754 1.230 . S
O768 Cd727 2.417 . S
O768 C761 1.239 . S
O769 Cd727 2.330 . S
O769 C761 1.230 . S
H770 C756 0.929 . S
H771 C760 0.930 1_566 S
H772 C730 0.931 . S
H773 C732 0.930 . S
H774 C738 0.929 . S
H775 C740 0.950 . S
H776 C747 0.931 1_554 S
H777 C749 0.930 . S
H778 C757 0.929 . S
H779 C759 0.931 1_556 S
Cd780 N783 2.334 1_655 S
Cd780 N809 2.304 . S
Cd780 O816 2.268 1_554 S
Cd780 O819 2.273 1_655 S
Cd780 O820 2.417 . S
Cd780 O821 2.330 . S
Cd781 N796 2.304 1_455 S
Cd781 N800 2.334 . S
Cd781 O817 2.273 1_455 S
Cd781 O818 2.268 1_556 S
Cd781 O822 2.417 . S
Cd781 O823 2.330 . S
C782 N783 1.332 . S
C782 C786 1.381 . S
C782 H788 0.931 . S
N783 Cd780 2.334 1_455 S
N783 C782 1.332 . S
N783 C787 1.328 . S
C784 C785 1.396 . S
C784 C787 1.378 . S
C784 H826 0.931 . S
C785 C784 1.396 . S
C785 C786 1.382 . S
C786 C782 1.381 . S
C786 C785 1.382 . S
C786 H827 0.930 . S
C787 N783 1.328 . S
C787 C784 1.378 . S
C787 H789 0.929 1_455 S
H788 C782 0.931 . S
H789 C787 0.929 1_655 S
C790 O816 1.238 . S
C790 O817 1.253 . S
C791 C792 1.379 . S
C791 N796 1.337 . S
C791 H797 0.929 . S
C792 C791 1.379 . S
C792 C793 1.380 . S
C792 H828 0.929 . S
C793 C792 1.380 . S
C793 C794 1.399 . S
C794 C793 1.399 . S
C794 C795 1.376 . S
C794 H829 0.950 . S
C795 C794 1.376 . S
C795 N796 1.338 . S
C795 H798 0.930 1_656 S
N796 Cd781 2.304 1_655 S
N796 C791 1.337 . S
N796 C795 1.338 . S
H797 C791 0.929 . S
H798 C795 0.930 1_454 S
C799 N800 1.332 . S
C799 C803 1.381 . S
C799 H805 0.931 . S
N800 Cd781 2.334 . S
N800 C799 1.332 . S
N800 C804 1.328 . S
C801 C802 1.396 . S
C801 C804 1.378 . S
C801 H830 0.931 1_556 S
C802 C801 1.396 . S
C802 C803 1.382 . S
C803 C799 1.381 . S
C803 C802 1.382 . S
C803 H831 0.930 . S
C804 N800 1.328 . S
C804 C801 1.378 . S
C804 H806 0.930 1_556 S
H805 C799 0.931 . S
H806 C804 0.930 1_554 S
C807 O818 1.238 . S
C807 O819 1.253 . S
C808 O820 1.239 . S
C808 O821 1.230 . S
N809 Cd780 2.304 . S
N809 C810 1.337 . S
N809 C814 1.338 . S
C810 N809 1.337 . S
C810 C811 1.379 . S
C810 H824 0.929 . S
C811 C810 1.379 . S
C811 C812 1.380 . S
C811 H832 0.929 . S
C812 C811 1.380 . S
C812 C813 1.399 . S
C813 C812 1.399 . S
C813 C814 1.376 . S
C813 H833 0.931 1_554 S
C814 N809 1.338 . S
C814 C813 1.376 . S
C814 H825 0.930 1_554 S
C815 O822 1.239 . S
C815 O823 1.230 . S
O816 Cd780 2.268 1_556 S
O816 C790 1.238 . S
O817 Cd781 2.273 1_655 S
O817 C790 1.253 . S
O818 Cd781 2.268 1_554 S
O818 C807 1.238 . S
O819 Cd780 2.273 1_455 S
O819 C807 1.253 . S
O820 Cd780 2.417 . S
O820 C808 1.239 . S
O821 Cd780 2.330 . S
O821 C808 1.230 . S
O822 Cd781 2.417 . S
O822 C815 1.239 . S
O823 Cd781 2.330 . S
O823 C815 1.230 . S
H824 C810 0.929 . S
H825 C814 0.930 1_556 S
H826 C784 0.931 . S
H827 C786 0.930 . S
H828 C792 0.929 . S
H829 C794 0.950 . S
H830 C801 0.931 1_554 S
H831 C803 0.930 . S
H832 C811 0.929 . S
H833 C813 0.931 1_556 S
Cd834 N837 2.334 . S
Cd834 N863 2.304 . S
Cd834 O870 2.268 1_554 S
Cd834 O873 2.273 . S
Cd834 O874 2.417 . S
Cd834 O875 2.330 . S
Cd835 N850 2.304 . S
Cd835 N854 2.334 . S
Cd835 O871 2.273 . S
Cd835 O872 2.268 1_556 S
Cd835 O876 2.417 . S
Cd835 O877 2.330 . S
C836 N837 1.332 . S
C836 C840 1.381 . S
C836 H842 0.931 . S
N837 Cd834 2.334 . S
N837 C836 1.332 . S
N837 C841 1.328 . S
C838 C839 1.396 . S
C838 C841 1.378 . S
C838 H880 0.931 . S
C839 C838 1.396 . S
C839 C840 1.382 . S
C840 C836 1.381 . S
C840 C839 1.382 . S
C840 H881 0.930 . S
C841 N837 1.328 . S
C841 C838 1.378 . S
C841 H843 0.928 . S
H842 C836 0.931 . S
H843 C841 0.928 . S
C844 O870 1.238 . S
C844 O871 1.253 . S
C845 C846 1.379 . S
C845 N850 1.337 . S
C845 H851 0.929 . S
C846 C845 1.379 . S
C846 C847 1.380 . S
C846 H882 0.929 . S
C847 C846 1.380 . S
C847 C848 1.399 . S
C848 C847 1.399 . S
C848 C849 1.376 . S
C848 H883 0.951 . S
C849 C848 1.376 . S
C849 N850 1.338 . S
C849 H852 0.930 1_556 S
N850 Cd835 2.304 . S
N850 C845 1.337 . S
N850 C849 1.338 . S
H851 C845 0.929 . S
H852 C849 0.930 1_554 S
C853 N854 1.332 . S
C853 C857 1.381 . S
C853 H859 0.931 . S
N854 Cd835 2.334 . S
N854 C853 1.332 . S
N854 C858 1.328 . S
C855 C856 1.396 . S
C855 C858 1.378 . S
C855 H884 0.931 1_556 S
C856 C855 1.396 . S
C856 C857 1.382 . S
C857 C853 1.381 . S
C857 C856 1.382 . S
C857 H885 0.930 . S
C858 N854 1.328 . S
C858 C855 1.378 . S
C858 H860 0.930 1_556 S
H859 C853 0.931 . S
H860 C858 0.930 1_554 S
C861 O872 1.238 . S
C861 O873 1.253 . S
C862 O874 1.239 . S
C862 O875 1.230 . S
N863 Cd834 2.304 . S
N863 C864 1.337 . S
N863 C868 1.338 . S
C864 N863 1.337 . S
C864 C865 1.379 . S
C864 H878 0.929 . S
C865 C864 1.379 . S
C865 C866 1.380 . S
C865 H886 0.929 . S
C866 C865 1.380 . S
C866 C867 1.399 . S
C867 C866 1.399 . S
C867 C868 1.376 . S
C867 H887 0.931 1_554 S
C868 N863 1.338 . S
C868 C867 1.376 . S
C868 H879 0.930 1_554 S
C869 O876 1.239 . S
C869 O877 1.230 . S
O870 Cd834 2.268 1_556 S
O870 C844 1.238 . S
O871 Cd835 2.273 . S
O871 C844 1.253 . S
O872 Cd835 2.268 1_554 S
O872 C861 1.238 . S
O873 Cd834 2.273 . S
O873 C861 1.253 . S
O874 Cd834 2.417 . S
O874 C862 1.239 . S
O875 Cd834 2.330 . S
O875 C862 1.230 . S
O876 Cd835 2.417 . S
O876 C869 1.239 . S
O877 Cd835 2.330 . S
O877 C869 1.230 . S
H878 C864 0.929 . S
H879 C868 0.930 1_556 S
H880 C838 0.931 . S
H881 C840 0.930 . S
H882 C846 0.929 . S
H883 C848 0.951 . S
H884 C855 0.931 1_554 S
H885 C857 0.930 . S
H886 C865 0.929 . S
H887 C867 0.931 1_556 S
Cd888 N891 2.334 1_655 S
Cd888 N917 2.304 . S
Cd888 O924 2.268 . S
Cd888 O927 2.273 1_655 S
Cd888 O928 2.417 . S
Cd888 O929 2.330 . S
Cd889 N904 2.304 1_455 S
Cd889 N908 2.334 . S
Cd889 O925 2.273 1_455 S
Cd889 O926 2.268 . S
Cd889 O930 2.417 . S
Cd889 O931 2.330 . S
C890 N891 1.332 . S
C890 C894 1.381 . S
C890 H896 0.931 . S
N891 Cd888 2.334 1_455 S
N891 C890 1.332 . S
N891 C895 1.328 . S
C892 C893 1.396 . S
C892 C895 1.378 . S
C892 H934 0.931 . S
C893 C892 1.396 . S
C893 C894 1.382 . S
C894 C890 1.381 . S
C894 C893 1.382 . S
C894 H935 0.930 . S
C895 N891 1.328 . S
C895 C892 1.378 . S
C895 H897 0.930 1_455 S
H896 C890 0.931 . S
H897 C895 0.930 1_655 S
C898 O924 1.238 . S
C898 O925 1.253 . S
C899 C900 1.379 . S
C899 N904 1.337 . S
C899 H905 0.929 . S
C900 C899 1.379 . S
C900 C901 1.380 . S
C900 H936 0.929 . S
C901 C900 1.380 . S
C901 C902 1.399 . S
C902 C901 1.399 . S
C902 C903 1.376 . S
C902 H937 0.931 . S
C903 C902 1.376 . S
C903 N904 1.338 . S
C903 H906 0.930 1_655 S
N904 Cd889 2.304 1_655 S
N904 C899 1.337 . S
N904 C903 1.338 . S
H905 C899 0.929 . S
H906 C903 0.930 1_455 S
C907 N908 1.332 . S
C907 C911 1.381 . S
C907 H913 0.931 . S
N908 Cd889 2.334 . S
N908 C907 1.332 . S
N908 C912 1.328 . S
C909 C910 1.396 . S
C909 C912 1.378 . S
C909 H938 0.931 . S
C910 C909 1.396 . S
C910 C911 1.382 . S
C911 C907 1.381 . S
C911 C910 1.382 . S
C911 H939 0.930 . S
C912 N908 1.328 . S
C912 C909 1.378 . S
C912 H914 0.930 . S
H913 C907 0.931 . S
H914 C912 0.930 . S
C915 O926 1.238 . S
C915 O927 1.253 . S
C916 O928 1.239 . S
C916 O929 1.230 . S
N917 Cd888 2.304 . S
N917 C918 1.337 . S
N917 C922 1.338 . S
C918 N917 1.337 . S
C918 C919 1.379 . S
C918 H932 0.929 . S
C919 C918 1.379 . S
C919 C920 1.380 . S
C919 H940 0.929 . S
C920 C919 1.380 . S
C920 C921 1.399 . S
C921 C920 1.399 . S
C921 C922 1.376 . S
C921 H941 0.931 . S
C922 N917 1.338 . S
C922 C921 1.376 . S
C922 H933 0.930 . S
C923 O930 1.239 . S
C923 O931 1.230 . S
O924 Cd888 2.268 . S
O924 C898 1.238 . S
O925 Cd889 2.273 1_655 S
O925 C898 1.253 . S
O926 Cd889 2.268 . S
O926 C915 1.238 . S
O927 Cd888 2.273 1_455 S
O927 C915 1.253 . S
O928 Cd888 2.417 . S
O928 C916 1.239 . S
O929 Cd888 2.330 . S
O929 C916 1.230 . S
O930 Cd889 2.417 . S
O930 C923 1.239 . S
O931 Cd889 2.330 . S
O931 C923 1.230 . S
H932 C918 0.929 . S
H933 C922 0.930 . S
H934 C892 0.931 . S
H935 C894 0.930 . S
H936 C900 0.929 . S
H937 C902 0.931 . S
H938 C909 0.931 . S
H939 C911 0.930 . S
H940 C919 0.929 . S
H941 C921 0.931 . S
Cd942 N945 2.334 . S
Cd942 N971 2.304 1_565 S
Cd942 O978 2.268 . S
Cd942 O981 2.273 1_565 S
Cd942 O982 2.417 . S
Cd942 O983 2.330 . S
Cd943 N958 2.304 . S
Cd943 N962 2.334 1_545 S
Cd943 O979 2.273 1_545 S
Cd943 O980 2.268 . S
Cd943 O984 2.417 . S
Cd943 O985 2.330 . S
C944 N945 1.332 . S
C944 C948 1.381 . S
C944 H950 0.931 . S
N945 Cd942 2.334 . S
N945 C944 1.332 . S
N945 C949 1.328 . S
C946 C947 1.396 . S
C946 C949 1.378 . S
C946 H988 0.931 . S
C947 C946 1.396 . S
C947 C948 1.382 . S
C948 C944 1.381 . S
C948 C947 1.382 . S
C948 H989 0.930 . S
C949 N945 1.328 . S
C949 C946 1.378 . S
C949 H951 0.930 . S
H950 C944 0.931 . S
H951 C949 0.930 . S
C952 O978 1.238 . S
C952 O979 1.253 . S
C953 C954 1.379 . S
C953 N958 1.337 . S
C953 H959 0.929 . S
C954 C953 1.379 . S
C954 C955 1.380 . S
C954 H990 0.929 . S
C955 C954 1.380 . S
C955 C956 1.399 . S
C956 C955 1.399 . S
C956 C957 1.376 . S
C956 H991 0.931 . S
C957 C956 1.376 . S
C957 N958 1.338 . S
C957 H960 0.930 . S
N958 Cd943 2.304 . S
N958 C953 1.337 . S
N958 C957 1.338 . S
H959 C953 0.929 . S
H960 C957 0.930 . S
C961 N962 1.332 . S
C961 C965 1.381 . S
C961 H967 0.931 . S
N962 Cd943 2.334 1_565 S
N962 C961 1.332 . S
N962 C966 1.321 . S
C963 C964 1.396 . S
C963 C966 1.412 . S
C963 H992 0.931 . S
C964 C963 1.396 . S
C964 C965 1.382 . S
C965 C961 1.381 . S
C965 C964 1.382 . S
C965 H993 0.930 . S
C966 N962 1.321 . S
C966 C963 1.412 . S
C966 H968 0.902 1_565 S
H967 C961 0.931 . S
H968 C966 0.902 1_545 S
C969 O980 1.238 . S
C969 O981 1.253 . S
C970 O982 1.239 . S
C970 O983 1.230 . S
N971 Cd942 2.304 1_545 S
N971 C972 1.337 . S
N971 C976 1.338 . S
C972 N971 1.337 . S
C972 C973 1.379 . S
C972 H986 0.929 . S
C973 C972 1.379 . S
C973 C974 1.380 . S
C973 H994 0.929 . S
C974 C973 1.380 . S
C974 C975 1.399 . S
C975 C974 1.399 . S
C975 C976 1.376 . S
C975 H995 0.931 . S
C976 N971 1.338 . S
C976 C975 1.376 . S
C976 H987 0.930 1_545 S
C977 O984 1.239 . S
C977 O985 1.230 . S
O978 Cd942 2.268 . S
O978 C952 1.238 . S
O979 Cd943 2.273 1_565 S
O979 C952 1.253 . S
O980 Cd943 2.268 . S
O980 C969 1.238 . S
O981 Cd942 2.273 1_545 S
O981 C969 1.253 . S
O982 Cd942 2.417 . S
O982 C970 1.239 . S
O983 Cd942 2.330 . S
O983 C970 1.230 . S
O984 Cd943 2.417 . S
O984 C977 1.239 . S
O985 Cd943 2.330 . S
O985 C977 1.230 . S
H986 C972 0.929 . S
H987 C976 0.930 1_565 S
H988 C946 0.931 . S
H989 C948 0.930 . S
H990 C954 0.929 . S
H991 C956 0.931 . S
H992 C963 0.931 . S
H993 C965 0.930 . S
H994 C973 0.929 . S
H995 C975 0.931 . S
C996 C997 1.391 . S
C996 C998 1.394 . S
C996 H1012 0.931 . S
C997 C996 1.391 . S
C997 C1001 1.376 . S
C998 C996 1.394 . S
C998 C999 1.369 . S
C998 C1002 1.531 . S
C999 C998 1.369 . S
C999 C1000 1.410 . S
C999 C1007 1.503 . S
C1000 C999 1.410 . S
C1000 C1001 1.392 . S
C1000 C1003 1.511 . S
C1001 C997 1.376 . S
C1001 C1000 1.392 . S
C1001 H1013 0.929 . S
C1002 C998 1.531 . S
C1002 H1014 0.960 . S
C1002 H1015 0.962 . S
C1002 H1016 0.960 . S
C1003 C1000 1.511 . S
C1003 H1017 0.961 . S
C1003 H1018 0.961 . S
C1003 H1019 0.961 . S
C1004 C1005 1.370 . S
C1004 C1006 1.363 . S
C1004 H1020 0.931 . S
C1005 C1004 1.370 . S
C1005 C1009 1.408 . S
C1006 C1004 1.363 . S
C1006 C1007 1.370 . S
C1006 C1010 1.524 . S
C1007 C999 1.503 . S
C1007 C1006 1.370 . S
C1007 C1008 1.403 . S
C1008 C1007 1.403 . S
C1008 C1009 1.404 . S
C1008 C1011 1.539 . S
C1009 C1005 1.408 . S
C1009 C1008 1.404 . S
C1009 H1021 0.930 . S
C1010 C1006 1.524 . S
C1010 H1022 0.956 . S
C1010 H1023 0.961 . S
C1010 H1024 0.961 . S
C1011 C1008 1.539 . S
C1011 H1025 0.958 . S
C1011 H1026 0.961 . S
C1011 H1027 0.960 . S
H1012 C996 0.931 . S
H1013 C1001 0.929 . S
H1014 C1002 0.960 . S
H1015 C1002 0.962 . S
H1016 C1002 0.960 . S
H1017 C1003 0.961 . S
H1018 C1003 0.961 . S
H1019 C1003 0.961 . S
H1020 C1004 0.931 . S
H1021 C1009 0.930 . S
H1022 C1010 0.956 . S
H1023 C1010 0.961 . S
H1024 C1010 0.961 . S
H1025 C1011 0.958 . S
H1026 C1011 0.961 . S
H1027 C1011 0.960 . S
C1028 C1029 1.391 . S
C1028 C1030 1.394 . S
C1028 H1044 0.931 . S
C1029 C1028 1.391 . S
C1029 C1033 1.376 . S
C1030 C1028 1.394 . S
C1030 C1031 1.369 . S
C1030 C1034 1.531 . S
C1031 C1030 1.369 . S
C1031 C1032 1.410 . S
C1031 C1039 1.503 . S
C1032 C1031 1.410 . S
C1032 C1033 1.392 . S
C1032 C1035 1.511 . S
C1033 C1029 1.376 . S
C1033 C1032 1.392 . S
C1033 H1045 0.929 . S
C1034 C1030 1.531 . S
C1034 H1046 0.960 . S
C1034 H1047 0.962 . S
C1034 H1048 0.960 . S
C1035 C1032 1.511 . S
C1035 H1049 0.961 . S
C1035 H1050 0.961 . S
C1035 H1051 0.961 . S
C1036 C1037 1.370 . S
C1036 C1038 1.363 . S
C1036 H1052 0.931 . S
C1037 C1036 1.370 . S
C1037 C1041 1.408 . S
C1038 C1036 1.363 . S
C1038 C1039 1.370 . S
C1038 C1042 1.524 . S
C1039 C1031 1.503 . S
C1039 C1038 1.370 . S
C1039 C1040 1.403 . S
C1040 C1039 1.403 . S
C1040 C1041 1.404 . S
C1040 C1043 1.539 . S
C1041 C1037 1.408 . S
C1041 C1040 1.404 . S
C1041 H1053 0.930 . S
C1042 C1038 1.524 . S
C1042 H1054 0.956 . S
C1042 H1055 0.961 . S
C1042 H1056 0.961 . S
C1043 C1040 1.539 . S
C1043 H1057 0.958 . S
C1043 H1058 0.961 . S
C1043 H1059 0.960 . S
H1044 C1028 0.931 . S
H1045 C1033 0.929 . S
H1046 C1034 0.960 . S
H1047 C1034 0.962 . S
H1048 C1034 0.960 . S
H1049 C1035 0.961 . S
H1050 C1035 0.961 . S
H1051 C1035 0.961 . S
H1052 C1036 0.931 . S
H1053 C1041 0.930 . S
H1054 C1042 0.956 . S
H1055 C1042 0.961 . S
H1056 C1042 0.961 . S
H1057 C1043 0.958 . S
H1058 C1043 0.961 . S
H1059 C1043 0.960 . S
C1060 C1061 1.391 . S
C1060 C1062 1.394 . S
C1060 H1076 0.931 . S
C1061 C1060 1.391 . S
C1061 C1065 1.376 . S
C1062 C1060 1.394 . S
C1062 C1063 1.369 . S
C1062 C1066 1.531 . S
C1063 C1062 1.369 . S
C1063 C1064 1.410 . S
C1063 C1071 1.503 . S
C1064 C1063 1.410 . S
C1064 C1065 1.392 . S
C1064 C1067 1.511 . S
C1065 C1061 1.376 . S
C1065 C1064 1.392 . S
C1065 H1077 0.929 . S
C1066 C1062 1.531 . S
C1066 H1078 0.960 . S
C1066 H1079 0.962 . S
C1066 H1080 0.960 . S
C1067 C1064 1.511 . S
C1067 H1081 0.961 . S
C1067 H1082 0.961 . S
C1067 H1083 0.961 . S
C1068 C1069 1.370 . S
C1068 C1070 1.363 . S
C1068 H1084 0.931 . S
C1069 C1068 1.370 . S
C1069 C1073 1.408 . S
C1070 C1068 1.363 . S
C1070 C1071 1.370 . S
C1070 C1074 1.524 . S
C1071 C1063 1.503 . S
C1071 C1070 1.370 . S
C1071 C1072 1.403 . S
C1072 C1071 1.403 . S
C1072 C1073 1.404 . S
C1072 C1075 1.539 . S
C1073 C1069 1.408 . S
C1073 C1072 1.404 . S
C1073 H1085 0.930 . S
C1074 C1070 1.524 . S
C1074 H1086 0.956 . S
C1074 H1087 0.961 . S
C1074 H1088 0.961 . S
C1075 C1072 1.539 . S
C1075 H1089 0.958 . S
C1075 H1090 0.961 . S
C1075 H1091 0.960 . S
H1076 C1060 0.931 . S
H1077 C1065 0.929 . S
H1078 C1066 0.960 . S
H1079 C1066 0.962 . S
H1080 C1066 0.960 . S
H1081 C1067 0.961 . S
H1082 C1067 0.961 . S
H1083 C1067 0.961 . S
H1084 C1068 0.931 . S
H1085 C1073 0.930 . S
H1086 C1074 0.956 . S
H1087 C1074 0.961 . S
H1088 C1074 0.961 . S
H1089 C1075 0.958 . S
H1090 C1075 0.961 . S
H1091 C1075 0.960 . S
C1092 C1093 1.391 . S
C1092 C1094 1.394 . S
C1092 H1108 0.931 . S
C1093 C1092 1.391 . S
C1093 C1097 1.376 . S
C1094 C1092 1.394 . S
C1094 C1095 1.369 . S
C1094 C1098 1.531 . S
C1095 C1094 1.369 . S
C1095 C1096 1.410 . S
C1095 C1103 1.503 . S
C1096 C1095 1.410 . S
C1096 C1097 1.392 . S
C1096 C1099 1.511 . S
C1097 C1093 1.376 . S
C1097 C1096 1.392 . S
C1097 H1109 0.929 . S
C1098 C1094 1.531 . S
C1098 H1110 0.960 . S
C1098 H1111 0.962 . S
C1098 H1112 0.960 . S
C1099 C1096 1.511 . S
C1099 H1113 0.961 . S
C1099 H1114 0.961 . S
C1099 H1115 0.961 . S
C1100 C1101 1.370 . S
C1100 C1102 1.363 . S
C1100 H1116 0.931 . S
C1101 C1100 1.370 . S
C1101 C1105 1.408 . S
C1102 C1100 1.363 . S
C1102 C1103 1.370 . S
C1102 C1106 1.524 . S
C1103 C1095 1.503 . S
C1103 C1102 1.370 . S
C1103 C1104 1.403 . S
C1104 C1103 1.403 . S
C1104 C1105 1.404 . S
C1104 C1107 1.539 . S
C1105 C1101 1.408 . S
C1105 C1104 1.404 . S
C1105 H1117 0.930 . S
C1106 C1102 1.524 . S
C1106 H1118 0.956 . S
C1106 H1119 0.961 . S
C1106 H1120 0.961 . S
C1107 C1104 1.539 . S
C1107 H1121 0.958 . S
C1107 H1122 0.961 . S
C1107 H1123 0.960 . S
H1108 C1092 0.931 . S
H1109 C1097 0.929 . S
H1110 C1098 0.960 . S
H1111 C1098 0.962 . S
H1112 C1098 0.960 . S
H1113 C1099 0.961 . S
H1114 C1099 0.961 . S
H1115 C1099 0.961 . S
H1116 C1100 0.931 . S
H1117 C1105 0.930 . S
H1118 C1106 0.956 . S
H1119 C1106 0.961 . S
H1120 C1106 0.961 . S
H1121 C1107 0.958 . S
H1122 C1107 0.961 . S
H1123 C1107 0.960 . S
C1124 C1125 1.391 . S
C1124 C1126 1.394 . S
C1124 H1140 0.931 . S
C1125 C1124 1.391 . S
C1125 C1129 1.376 . S
C1126 C1124 1.394 . S
C1126 C1127 1.369 . S
C1126 C1130 1.531 . S
C1127 C1126 1.369 . S
C1127 C1128 1.410 . S
C1127 C1135 1.503 . S
C1128 C1127 1.410 . S
C1128 C1129 1.392 . S
C1128 C1131 1.511 . S
C1129 C1125 1.376 . S
C1129 C1128 1.392 . S
C1129 H1141 0.929 . S
C1130 C1126 1.531 . S
C1130 H1142 0.960 . S
C1130 H1143 0.962 . S
C1130 H1144 0.960 . S
C1131 C1128 1.511 . S
C1131 H1145 0.961 . S
C1131 H1146 0.961 . S
C1131 H1147 0.961 . S
C1132 C1133 1.370 . S
C1132 C1134 1.363 . S
C1132 H1148 0.931 . S
C1133 C1132 1.370 . S
C1133 C1137 1.408 . S
C1134 C1132 1.363 . S
C1134 C1135 1.370 . S
C1134 C1138 1.524 . S
C1135 C1127 1.503 . S
C1135 C1134 1.370 . S
C1135 C1136 1.403 . S
C1136 C1135 1.403 . S
C1136 C1137 1.404 . S
C1136 C1139 1.539 . S
C1137 C1133 1.408 . S
C1137 C1136 1.404 . S
C1137 H1149 0.930 . S
C1138 C1134 1.524 . S
C1138 H1150 0.956 . S
C1138 H1151 0.961 . S
C1138 H1152 0.961 . S
C1139 C1136 1.539 . S
C1139 H1153 0.958 . S
C1139 H1154 0.961 . S
C1139 H1155 0.960 . S
H1140 C1124 0.931 . S
H1141 C1129 0.929 . S
H1142 C1130 0.960 . S
H1143 C1130 0.962 . S
H1144 C1130 0.960 . S
H1145 C1131 0.961 . S
H1146 C1131 0.961 . S
H1147 C1131 0.961 . S
H1148 C1132 0.931 . S
H1149 C1137 0.930 . S
H1150 C1138 0.956 . S
H1151 C1138 0.961 . S
H1152 C1138 0.961 . S
H1153 C1139 0.958 . S
H1154 C1139 0.961 . S
H1155 C1139 0.960 . S
C1156 C1157 1.391 . S
C1156 C1158 1.394 . S
C1156 H1172 0.931 . S
C1157 C1156 1.391 . S
C1157 C1161 1.376 . S
C1158 C1156 1.394 . S
C1158 C1159 1.369 . S
C1158 C1162 1.531 . S
C1159 C1158 1.369 . S
C1159 C1160 1.410 . S
C1159 C1167 1.503 . S
C1160 C1159 1.410 . S
C1160 C1161 1.392 . S
C1160 C1163 1.511 . S
C1161 C1157 1.376 . S
C1161 C1160 1.392 . S
C1161 H1173 0.929 . S
C1162 C1158 1.531 . S
C1162 H1174 0.960 . S
C1162 H1175 0.962 . S
C1162 H1176 0.960 . S
C1163 C1160 1.511 . S
C1163 H1177 0.961 . S
C1163 H1178 0.961 . S
C1163 H1179 0.961 . S
C1164 C1165 1.370 . S
C1164 C1166 1.363 . S
C1164 H1180 0.931 . S
C1165 C1164 1.370 . S
C1165 C1169 1.408 . S
C1166 C1164 1.363 . S
C1166 C1167 1.370 . S
C1166 C1170 1.524 . S
C1167 C1159 1.503 . S
C1167 C1166 1.370 . S
C1167 C1168 1.403 . S
C1168 C1167 1.403 . S
C1168 C1169 1.404 . S
C1168 C1171 1.539 . S
C1169 C1165 1.408 . S
C1169 C1168 1.404 . S
C1169 H1181 0.930 . S
C1170 C1166 1.524 . S
C1170 H1182 0.956 . S
C1170 H1183 0.961 . S
C1170 H1184 0.961 . S
C1171 C1168 1.539 . S
C1171 H1185 0.958 . S
C1171 H1186 0.961 . S
C1171 H1187 0.960 . S
H1172 C1156 0.931 . S
H1173 C1161 0.929 . S
H1174 C1162 0.960 . S
H1175 C1162 0.962 . S
H1176 C1162 0.960 . S
H1177 C1163 0.961 . S
H1178 C1163 0.961 . S
H1179 C1163 0.961 . S
H1180 C1164 0.931 . S
H1181 C1169 0.930 . S
H1182 C1170 0.956 . S
H1183 C1170 0.961 . S
H1184 C1170 0.961 . S
H1185 C1171 0.958 . S
H1186 C1171 0.961 . S
H1187 C1171 0.960 . S
C1188 C1189 1.391 . S
C1188 C1190 1.394 . S
C1188 H1204 0.931 . S
C1189 C1188 1.391 . S
C1189 C1193 1.376 . S
C1190 C1188 1.394 . S
C1190 C1191 1.369 . S
C1190 C1194 1.531 . S
C1191 C1190 1.369 . S
C1191 C1192 1.410 . S
C1191 C1199 1.503 . S
C1192 C1191 1.410 . S
C1192 C1193 1.392 . S
C1192 C1195 1.511 . S
C1193 C1189 1.376 . S
C1193 C1192 1.392 . S
C1193 H1205 0.929 . S
C1194 C1190 1.531 . S
C1194 H1206 0.960 . S
C1194 H1207 0.962 . S
C1194 H1208 0.960 . S
C1195 C1192 1.511 . S
C1195 H1209 0.961 . S
C1195 H1210 0.961 . S
C1195 H1211 0.961 . S
C1196 C1197 1.370 . S
C1196 C1198 1.363 . S
C1196 H1212 0.931 . S
C1197 C1196 1.370 . S
C1197 C1201 1.408 . S
C1198 C1196 1.363 . S
C1198 C1199 1.370 . S
C1198 C1202 1.524 . S
C1199 C1191 1.503 . S
C1199 C1198 1.370 . S
C1199 C1200 1.403 . S
C1200 C1199 1.403 . S
C1200 C1201 1.404 . S
C1200 C1203 1.539 . S
C1201 C1197 1.408 . S
C1201 C1200 1.404 . S
C1201 H1213 0.930 . S
C1202 C1198 1.524 . S
C1202 H1214 0.956 . S
C1202 H1215 0.961 . S
C1202 H1216 0.961 . S
C1203 C1200 1.539 . S
C1203 H1217 0.958 . S
C1203 H1218 0.961 . S
C1203 H1219 0.960 . S
H1204 C1188 0.931 . S
H1205 C1193 0.929 . S
H1206 C1194 0.960 . S
H1207 C1194 0.962 . S
H1208 C1194 0.960 . S
H1209 C1195 0.961 . S
H1210 C1195 0.961 . S
H1211 C1195 0.961 . S
H1212 C1196 0.931 . S
H1213 C1201 0.930 . S
H1214 C1202 0.956 . S
H1215 C1202 0.961 . S
H1216 C1202 0.961 . S
H1217 C1203 0.958 . S
H1218 C1203 0.961 . S
H1219 C1203 0.960 . S
C1220 C1221 1.391 . S
C1220 C1222 1.394 . S
C1220 H1236 0.931 . S
C1221 C1220 1.391 . S
C1221 C1225 1.376 . S
C1222 C1220 1.394 . S
C1222 C1223 1.369 . S
C1222 C1226 1.531 . S
C1223 C1222 1.369 . S
C1223 C1224 1.410 . S
C1223 C1231 1.503 . S
C1224 C1223 1.410 . S
C1224 C1225 1.392 . S
C1224 C1227 1.511 . S
C1225 C1221 1.376 . S
C1225 C1224 1.392 . S
C1225 H1237 0.929 . S
C1226 C1222 1.531 . S
C1226 H1238 0.960 . S
C1226 H1239 0.962 . S
C1226 H1240 0.960 . S
C1227 C1224 1.511 . S
C1227 H1241 0.961 . S
C1227 H1242 0.961 . S
C1227 H1243 0.961 . S
C1228 C1229 1.370 . S
C1228 C1230 1.363 . S
C1228 H1244 0.931 . S
C1229 C1228 1.370 . S
C1229 C1233 1.408 . S
C1230 C1228 1.363 . S
C1230 C1231 1.370 . S
C1230 C1234 1.524 . S
C1231 C1223 1.503 . S
C1231 C1230 1.370 . S
C1231 C1232 1.403 . S
C1232 C1231 1.403 . S
C1232 C1233 1.404 . S
C1232 C1235 1.539 . S
C1233 C1229 1.408 . S
C1233 C1232 1.404 . S
C1233 H1245 0.930 . S
C1234 C1230 1.524 . S
C1234 H1246 0.956 . S
C1234 H1247 0.961 . S
C1234 H1248 0.961 . S
C1235 C1232 1.539 . S
C1235 H1249 0.958 . S
C1235 H1250 0.961 . S
C1235 H1251 0.960 . S
H1236 C1220 0.931 . S
H1237 C1225 0.929 . S
H1238 C1226 0.960 . S
H1239 C1226 0.962 . S
H1240 C1226 0.960 . S
H1241 C1227 0.961 . S
H1242 C1227 0.961 . S
H1243 C1227 0.961 . S
H1244 C1228 0.931 . S
H1245 C1233 0.930 . S
H1246 C1234 0.956 . S
H1247 C1234 0.961 . S
H1248 C1234 0.961 . S
H1249 C1235 0.958 . S
H1250 C1235 0.961 . S
H1251 C1235 0.960 . S
C1252 C1253 1.391 . S
C1252 C1254 1.394 . S
C1252 H1268 0.931 . S
C1253 C1252 1.391 . S
C1253 C1257 1.376 . S
C1254 C1252 1.394 . S
C1254 C1255 1.369 . S
C1254 C1258 1.531 . S
C1255 C1254 1.369 . S
C1255 C1256 1.410 . S
C1255 C1263 1.503 . S
C1256 C1255 1.410 . S
C1256 C1257 1.392 . S
C1256 C1259 1.511 . S
C1257 C1253 1.376 . S
C1257 C1256 1.392 . S
C1257 H1269 0.929 . S
C1258 C1254 1.531 . S
C1258 H1270 0.960 . S
C1258 H1271 0.962 . S
C1258 H1272 0.960 . S
C1259 C1256 1.511 . S
C1259 H1273 0.961 . S
C1259 H1274 0.961 . S
C1259 H1275 0.961 . S
C1260 C1261 1.370 . S
C1260 C1262 1.363 . S
C1260 H1276 0.931 . S
C1261 C1260 1.370 . S
C1261 C1265 1.408 . S
C1262 C1260 1.363 . S
C1262 C1263 1.370 . S
C1262 C1266 1.524 . S
C1263 C1255 1.503 . S
C1263 C1262 1.370 . S
C1263 C1264 1.403 . S
C1264 C1263 1.403 . S
C1264 C1265 1.404 . S
C1264 C1267 1.539 . S
C1265 C1261 1.408 . S
C1265 C1264 1.404 . S
C1265 H1277 0.930 . S
C1266 C1262 1.524 . S
C1266 H1278 0.956 . S
C1266 H1279 0.961 . S
C1266 H1280 0.961 . S
C1267 C1264 1.539 . S
C1267 H1281 0.958 . S
C1267 H1282 0.961 . S
C1267 H1283 0.960 . S
H1268 C1252 0.931 . S
H1269 C1257 0.929 . S
H1270 C1258 0.960 . S
H1271 C1258 0.962 . S
H1272 C1258 0.960 . S
H1273 C1259 0.961 . S
H1274 C1259 0.961 . S
H1275 C1259 0.961 . S
H1276 C1260 0.931 . S
H1277 C1265 0.930 . S
H1278 C1266 0.956 . S
H1279 C1266 0.961 . S
H1280 C1266 0.961 . S
H1281 C1267 0.958 . S
H1282 C1267 0.961 . S
H1283 C1267 0.960 . S
C1284 C1285 1.391 . S
C1284 C1286 1.394 . S
C1284 H1300 0.931 . S
C1285 C1284 1.391 . S
C1285 C1289 1.376 . S
C1286 C1284 1.394 . S
C1286 C1287 1.369 . S
C1286 C1290 1.531 . S
C1287 C1286 1.369 . S
C1287 C1288 1.410 . S
C1287 C1295 1.503 . S
C1288 C1287 1.410 . S
C1288 C1289 1.392 . S
C1288 C1291 1.511 . S
C1289 C1285 1.376 . S
C1289 C1288 1.392 . S
C1289 H1301 0.929 . S
C1290 C1286 1.531 . S
C1290 H1302 0.960 . S
C1290 H1303 0.962 . S
C1290 H1304 0.960 . S
C1291 C1288 1.511 . S
C1291 H1305 0.961 . S
C1291 H1306 0.961 . S
C1291 H1307 0.961 . S
C1292 C1293 1.370 . S
C1292 C1294 1.363 . S
C1292 H1308 0.931 . S
C1293 C1292 1.370 . S
C1293 C1297 1.408 . S
C1294 C1292 1.363 . S
C1294 C1295 1.370 . S
C1294 C1298 1.524 . S
C1295 C1287 1.503 . S
C1295 C1294 1.370 . S
C1295 C1296 1.403 . S
C1296 C1295 1.403 . S
C1296 C1297 1.404 . S
C1296 C1299 1.539 . S
C1297 C1293 1.408 . S
C1297 C1296 1.404 . S
C1297 H1309 0.930 . S
C1298 C1294 1.524 . S
C1298 H1310 0.956 . S
C1298 H1311 0.961 . S
C1298 H1312 0.961 . S
C1299 C1296 1.539 . S
C1299 H1313 0.958 . S
C1299 H1314 0.961 . S
C1299 H1315 0.960 . S
H1300 C1284 0.931 . S
H1301 C1289 0.929 . S
H1302 C1290 0.960 . S
H1303 C1290 0.962 . S
H1304 C1290 0.960 . S
H1305 C1291 0.961 . S
H1306 C1291 0.961 . S
H1307 C1291 0.961 . S
H1308 C1292 0.931 . S
H1309 C1297 0.930 . S
H1310 C1298 0.956 . S
H1311 C1298 0.961 . S
H1312 C1298 0.961 . S
H1313 C1299 0.958 . S
H1314 C1299 0.961 . S
H1315 C1299 0.960 . S
C1316 C1317 1.391 . S
C1316 C1318 1.394 . S
C1316 H1332 0.931 . S
C1317 C1316 1.391 . S
C1317 C1321 1.376 . S
C1318 C1316 1.394 . S
C1318 C1319 1.369 . S
C1318 C1322 1.531 . S
C1319 C1318 1.369 . S
C1319 C1320 1.410 . S
C1319 C1327 1.503 . S
C1320 C1319 1.410 . S
C1320 C1321 1.392 . S
C1320 C1323 1.511 . S
C1321 C1317 1.376 . S
C1321 C1320 1.392 . S
C1321 H1333 0.929 . S
C1322 C1318 1.531 . S
C1322 H1334 0.960 . S
C1322 H1335 0.962 . S
C1322 H1336 0.960 . S
C1323 C1320 1.511 . S
C1323 H1337 0.961 . S
C1323 H1338 0.961 . S
C1323 H1339 0.961 . S
C1324 C1325 1.370 . S
C1324 C1326 1.363 . S
C1324 H1340 0.931 . S
C1325 C1324 1.370 . S
C1325 C1329 1.408 . S
C1326 C1324 1.363 . S
C1326 C1327 1.370 . S
C1326 C1330 1.524 . S
C1327 C1319 1.503 . S
C1327 C1326 1.370 . S
C1327 C1328 1.403 . S
C1328 C1327 1.403 . S
C1328 C1329 1.404 . S
C1328 C1331 1.539 . S
C1329 C1325 1.408 . S
C1329 C1328 1.404 . S
C1329 H1341 0.930 . S
C1330 C1326 1.524 . S
C1330 H1342 0.956 . S
C1330 H1343 0.961 . S
C1330 H1344 0.961 . S
C1331 C1328 1.539 . S
C1331 H1345 0.958 . S
C1331 H1346 0.961 . S
C1331 H1347 0.960 . S
H1332 C1316 0.931 . S
H1333 C1321 0.929 . S
H1334 C1322 0.960 . S
H1335 C1322 0.962 . S
H1336 C1322 0.960 . S
H1337 C1323 0.961 . S
H1338 C1323 0.961 . S
H1339 C1323 0.961 . S
H1340 C1324 0.931 . S
H1341 C1329 0.930 . S
H1342 C1330 0.956 . S
H1343 C1330 0.961 . S
H1344 C1330 0.961 . S
H1345 C1331 0.958 . S
H1346 C1331 0.961 . S
H1347 C1331 0.960 . S
C1348 C1349 1.391 . S
C1348 C1350 1.394 . S
C1348 H1364 0.931 . S
C1349 C1348 1.391 . S
C1349 C1353 1.376 . S
C1350 C1348 1.394 . S
C1350 C1351 1.369 . S
C1350 C1354 1.531 . S
C1351 C1350 1.369 . S
C1351 C1352 1.410 . S
C1351 C1359 1.503 . S
C1352 C1351 1.410 . S
C1352 C1353 1.392 . S
C1352 C1355 1.511 . S
C1353 C1349 1.376 . S
C1353 C1352 1.392 . S
C1353 H1365 0.929 . S
C1354 C1350 1.531 . S
C1354 H1366 0.960 . S
C1354 H1367 0.962 . S
C1354 H1368 0.960 . S
C1355 C1352 1.511 . S
C1355 H1369 0.961 . S
C1355 H1370 0.961 . S
C1355 H1371 0.961 . S
C1356 C1357 1.370 . S
C1356 C1358 1.363 . S
C1356 H1372 0.931 . S
C1357 C1356 1.370 . S
C1357 C1361 1.408 . S
C1358 C1356 1.363 . S
C1358 C1359 1.370 . S
C1358 C1362 1.524 . S
C1359 C1351 1.503 . S
C1359 C1358 1.370 . S
C1359 C1360 1.403 . S
C1360 C1359 1.403 . S
C1360 C1361 1.404 . S
C1360 C1363 1.539 . S
C1361 C1357 1.408 . S
C1361 C1360 1.404 . S
C1361 H1373 0.930 . S
C1362 C1358 1.524 . S
C1362 H1374 0.956 . S
C1362 H1375 0.961 . S
C1362 H1376 0.961 . S
C1363 C1360 1.539 . S
C1363 H1377 0.958 . S
C1363 H1378 0.961 . S
C1363 H1379 0.960 . S
H1364 C1348 0.931 . S
H1365 C1353 0.929 . S
H1366 C1354 0.960 . S
H1367 C1354 0.962 . S
H1368 C1354 0.960 . S
H1369 C1355 0.961 . S
H1370 C1355 0.961 . S
H1371 C1355 0.961 . S
H1372 C1356 0.931 . S
H1373 C1361 0.930 . S
H1374 C1362 0.956 . S
H1375 C1362 0.961 . S
H1376 C1362 0.961 . S
H1377 C1363 0.958 . S
H1378 C1363 0.961 . S
H1379 C1363 0.960 . S
C1380 C1381 1.391 . S
C1380 C1382 1.394 . S
C1380 H1396 0.931 . S
C1381 C1380 1.391 . S
C1381 C1385 1.376 . S
C1382 C1380 1.394 . S
C1382 C1383 1.369 . S
C1382 C1386 1.531 . S
C1383 C1382 1.369 . S
C1383 C1384 1.410 . S
C1383 C1391 1.503 . S
C1384 C1383 1.410 . S
C1384 C1385 1.392 . S
C1384 C1387 1.511 . S
C1385 C1381 1.376 . S
C1385 C1384 1.392 . S
C1385 H1397 0.929 . S
C1386 C1382 1.531 . S
C1386 H1398 0.960 . S
C1386 H1399 0.962 . S
C1386 H1400 0.960 . S
C1387 C1384 1.511 . S
C1387 H1401 0.961 . S
C1387 H1402 0.961 . S
C1387 H1403 0.961 . S
C1388 C1389 1.370 . S
C1388 C1390 1.363 . S
C1388 H1404 0.931 . S
C1389 C1388 1.370 . S
C1389 C1393 1.408 . S
C1390 C1388 1.363 . S
C1390 C1391 1.370 . S
C1390 C1394 1.524 . S
C1391 C1383 1.503 . S
C1391 C1390 1.370 . S
C1391 C1392 1.403 . S
C1392 C1391 1.403 . S
C1392 C1393 1.404 . S
C1392 C1395 1.539 . S
C1393 C1389 1.408 . S
C1393 C1392 1.404 . S
C1393 H1405 0.930 . S
C1394 C1390 1.524 . S
C1394 H1406 0.956 . S
C1394 H1407 0.961 . S
C1394 H1408 0.961 . S
C1395 C1392 1.539 . S
C1395 H1409 0.958 . S
C1395 H1410 0.961 . S
C1395 H1411 0.960 . S
H1396 C1380 0.931 . S
H1397 C1385 0.929 . S
H1398 C1386 0.960 . S
H1399 C1386 0.962 . S
H1400 C1386 0.960 . S
H1401 C1387 0.961 . S
H1402 C1387 0.961 . S
H1403 C1387 0.961 . S
H1404 C1388 0.931 . S
H1405 C1393 0.930 . S
H1406 C1394 0.956 . S
H1407 C1394 0.961 . S
H1408 C1394 0.961 . S
H1409 C1395 0.958 . S
H1410 C1395 0.961 . S
H1411 C1395 0.960 . S
C1412 C1413 1.391 . S
C1412 C1414 1.394 . S
C1412 H1428 0.931 . S
C1413 C1412 1.391 . S
C1413 C1417 1.376 . S
C1414 C1412 1.394 . S
C1414 C1415 1.369 . S
C1414 C1418 1.531 . S
C1415 C1414 1.369 . S
C1415 C1416 1.410 . S
C1415 C1423 1.503 . S
C1416 C1415 1.410 . S
C1416 C1417 1.392 . S
C1416 C1419 1.511 . S
C1417 C1413 1.376 . S
C1417 C1416 1.392 . S
C1417 H1429 0.929 . S
C1418 C1414 1.531 . S
C1418 H1430 0.960 . S
C1418 H1431 0.962 . S
C1418 H1432 0.960 . S
C1419 C1416 1.511 . S
C1419 H1433 0.961 . S
C1419 H1434 0.961 . S
C1419 H1435 0.961 . S
C1420 C1421 1.370 . S
C1420 C1422 1.363 . S
C1420 H1436 0.931 . S
C1421 C1420 1.370 . S
C1421 C1425 1.408 . S
C1422 C1420 1.363 . S
C1422 C1423 1.370 . S
C1422 C1426 1.524 . S
C1423 C1415 1.503 . S
C1423 C1422 1.370 . S
C1423 C1424 1.403 . S
C1424 C1423 1.403 . S
C1424 C1425 1.404 . S
C1424 C1427 1.539 . S
C1425 C1421 1.408 . S
C1425 C1424 1.404 . S
C1425 H1437 0.930 . S
C1426 C1422 1.524 . S
C1426 H1438 0.956 . S
C1426 H1439 0.961 . S
C1426 H1440 0.961 . S
C1427 C1424 1.539 . S
C1427 H1441 0.958 . S
C1427 H1442 0.961 . S
C1427 H1443 0.960 . S
H1428 C1412 0.931 . S
H1429 C1417 0.929 . S
H1430 C1418 0.960 . S
H1431 C1418 0.962 . S
H1432 C1418 0.960 . S
H1433 C1419 0.961 . S
H1434 C1419 0.961 . S
H1435 C1419 0.961 . S
H1436 C1420 0.931 . S
H1437 C1425 0.930 . S
H1438 C1426 0.956 . S
H1439 C1426 0.961 . S
H1440 C1426 0.961 . S
H1441 C1427 0.958 . S
H1442 C1427 0.961 . S
H1443 C1427 0.960 . S
C1444 C1445 1.391 . S
C1444 C1446 1.394 . S
C1444 H1460 0.931 . S
C1445 C1444 1.391 . S
C1445 C1449 1.376 . S
C1446 C1444 1.394 . S
C1446 C1447 1.369 . S
C1446 C1450 1.531 . S
C1447 C1446 1.369 . S
C1447 C1448 1.410 . S
C1447 C1455 1.503 . S
C1448 C1447 1.410 . S
C1448 C1449 1.392 . S
C1448 C1451 1.511 . S
C1449 C1445 1.376 . S
C1449 C1448 1.392 . S
C1449 H1461 0.929 . S
C1450 C1446 1.531 . S
C1450 H1462 0.960 . S
C1450 H1463 0.962 . S
C1450 H1464 0.960 . S
C1451 C1448 1.511 . S
C1451 H1465 0.961 . S
C1451 H1466 0.961 . S
C1451 H1467 0.961 . S
C1452 C1453 1.370 . S
C1452 C1454 1.363 . S
C1452 H1468 0.931 . S
C1453 C1452 1.370 . S
C1453 C1457 1.408 . S
C1454 C1452 1.363 . S
C1454 C1455 1.370 . S
C1454 C1458 1.524 . S
C1455 C1447 1.503 . S
C1455 C1454 1.370 . S
C1455 C1456 1.403 . S
C1456 C1455 1.403 . S
C1456 C1457 1.404 . S
C1456 C1459 1.539 . S
C1457 C1453 1.408 . S
C1457 C1456 1.404 . S
C1457 H1469 0.930 . S
C1458 C1454 1.524 . S
C1458 H1470 0.956 . S
C1458 H1471 0.961 . S
C1458 H1472 0.961 . S
C1459 C1456 1.539 . S
C1459 H1473 0.958 . S
C1459 H1474 0.961 . S
C1459 H1475 0.960 . S
H1460 C1444 0.931 . S
H1461 C1449 0.929 . S
H1462 C1450 0.960 . S
H1463 C1450 0.962 . S
H1464 C1450 0.960 . S
H1465 C1451 0.961 . S
H1466 C1451 0.961 . S
H1467 C1451 0.961 . S
H1468 C1452 0.931 . S
H1469 C1457 0.930 . S
H1470 C1458 0.956 . S
H1471 C1458 0.961 . S
H1472 C1458 0.961 . S
H1473 C1459 0.958 . S
H1474 C1459 0.961 . S
H1475 C1459 0.960 . S
C1476 C1477 1.391 . S
C1476 C1478 1.394 . S
C1476 H1492 0.931 . S
C1477 C1476 1.391 . S
C1477 C1481 1.376 . S
C1478 C1476 1.394 . S
C1478 C1479 1.369 . S
C1478 C1482 1.531 . S
C1479 C1478 1.369 . S
C1479 C1480 1.410 . S
C1479 C1487 1.503 . S
C1480 C1479 1.410 . S
C1480 C1481 1.392 . S
C1480 C1483 1.511 . S
C1481 C1477 1.376 . S
C1481 C1480 1.392 . S
C1481 H1493 0.929 . S
C1482 C1478 1.531 . S
C1482 H1494 0.960 . S
C1482 H1495 0.962 . S
C1482 H1496 0.960 . S
C1483 C1480 1.511 . S
C1483 H1497 0.961 . S
C1483 H1498 0.961 . S
C1483 H1499 0.961 . S
C1484 C1485 1.370 . S
C1484 C1486 1.363 . S
C1484 H1500 0.931 . S
C1485 C1484 1.370 . S
C1485 C1489 1.408 . S
C1486 C1484 1.363 . S
C1486 C1487 1.370 . S
C1486 C1490 1.524 . S
C1487 C1479 1.503 . S
C1487 C1486 1.370 . S
C1487 C1488 1.403 . S
C1488 C1487 1.403 . S
C1488 C1489 1.404 . S
C1488 C1491 1.539 . S
C1489 C1485 1.408 . S
C1489 C1488 1.404 . S
C1489 H1501 0.930 . S
C1490 C1486 1.524 . S
C1490 H1502 0.956 . S
C1490 H1503 0.961 . S
C1490 H1504 0.961 . S
C1491 C1488 1.539 . S
C1491 H1505 0.958 . S
C1491 H1506 0.961 . S
C1491 H1507 0.960 . S
H1492 C1476 0.931 . S
H1493 C1481 0.929 . S
H1494 C1482 0.960 . S
H1495 C1482 0.962 . S
H1496 C1482 0.960 . S
H1497 C1483 0.961 . S
H1498 C1483 0.961 . S
H1499 C1483 0.961 . S
H1500 C1484 0.931 . S
H1501 C1489 0.930 . S
H1502 C1490 0.956 . S
H1503 C1490 0.961 . S
H1504 C1490 0.961 . S
H1505 C1491 0.958 . S
H1506 C1491 0.961 . S
H1507 C1491 0.960 . S
C1508 C1509 1.391 . S
C1508 C1510 1.394 . S
C1508 H1524 0.931 . S
C1509 C1508 1.391 . S
C1509 C1513 1.376 . S
C1510 C1508 1.394 . S
C1510 C1511 1.369 . S
C1510 C1514 1.531 . S
C1511 C1510 1.369 . S
C1511 C1512 1.410 . S
C1511 C1519 1.503 . S
C1512 C1511 1.410 . S
C1512 C1513 1.392 . S
C1512 C1515 1.511 . S
C1513 C1509 1.376 . S
C1513 C1512 1.392 . S
C1513 H1525 0.929 . S
C1514 C1510 1.531 . S
C1514 H1526 0.960 . S
C1514 H1527 0.962 . S
C1514 H1528 0.960 . S
C1515 C1512 1.511 . S
C1515 H1529 0.961 . S
C1515 H1530 0.961 . S
C1515 H1531 0.961 . S
C1516 C1517 1.370 . S
C1516 C1518 1.363 . S
C1516 H1532 0.931 . S
C1517 C1516 1.370 . S
C1517 C1521 1.408 . S
C1518 C1516 1.363 . S
C1518 C1519 1.370 . S
C1518 C1522 1.524 . S
C1519 C1511 1.503 . S
C1519 C1518 1.370 . S
C1519 C1520 1.403 . S
C1520 C1519 1.403 . S
C1520 C1521 1.404 . S
C1520 C1523 1.539 . S
C1521 C1517 1.408 . S
C1521 C1520 1.404 . S
C1521 H1533 0.930 . S
C1522 C1518 1.524 . S
C1522 H1534 0.956 . S
C1522 H1535 0.961 . S
C1522 H1536 0.961 . S
C1523 C1520 1.539 . S
C1523 H1537 0.958 . S
C1523 H1538 0.961 . S
C1523 H1539 0.960 . S
H1524 C1508 0.931 . S
H1525 C1513 0.929 . S
H1526 C1514 0.960 . S
H1527 C1514 0.962 . S
H1528 C1514 0.960 . S
H1529 C1515 0.961 . S
H1530 C1515 0.961 . S
H1531 C1515 0.961 . S
H1532 C1516 0.931 . S
H1533 C1521 0.930 . S
H1534 C1522 0.956 . S
H1535 C1522 0.961 . S
H1536 C1522 0.961 . S
H1537 C1523 0.958 . S
H1538 C1523 0.961 . S
H1539 C1523 0.960 . S
C1540 C1541 1.391 . S
C1540 C1542 1.394 . S
C1540 H1556 0.931 . S
C1541 C1540 1.391 . S
C1541 C1545 1.376 . S
C1542 C1540 1.394 . S
C1542 C1543 1.369 . S
C1542 C1546 1.531 . S
C1543 C1542 1.369 . S
C1543 C1544 1.410 . S
C1543 C1551 1.503 . S
C1544 C1543 1.410 . S
C1544 C1545 1.392 . S
C1544 C1547 1.511 . S
C1545 C1541 1.376 . S
C1545 C1544 1.392 . S
C1545 H1557 0.929 . S
C1546 C1542 1.531 . S
C1546 H1558 0.960 . S
C1546 H1559 0.962 . S
C1546 H1560 0.960 . S
C1547 C1544 1.511 . S
C1547 H1561 0.961 . S
C1547 H1562 0.961 . S
C1547 H1563 0.961 . S
C1548 C1549 1.370 . S
C1548 C1550 1.363 . S
C1548 H1564 0.931 . S
C1549 C1548 1.370 . S
C1549 C1553 1.408 . S
C1550 C1548 1.363 . S
C1550 C1551 1.370 . S
C1550 C1554 1.524 . S
C1551 C1543 1.503 . S
C1551 C1550 1.370 . S
C1551 C1552 1.403 . S
C1552 C1551 1.403 . S
C1552 C1553 1.404 . S
C1552 C1555 1.539 . S
C1553 C1549 1.408 . S
C1553 C1552 1.404 . S
C1553 H1565 0.930 . S
C1554 C1550 1.524 . S
C1554 H1566 0.956 . S
C1554 H1567 0.961 . S
C1554 H1568 0.961 . S
C1555 C1552 1.539 . S
C1555 H1569 0.958 . S
C1555 H1570 0.961 . S
C1555 H1571 0.960 . S
H1556 C1540 0.931 . S
H1557 C1545 0.929 . S
H1558 C1546 0.960 . S
H1559 C1546 0.962 . S
H1560 C1546 0.960 . S
H1561 C1547 0.961 . S
H1562 C1547 0.961 . S
H1563 C1547 0.961 . S
H1564 C1548 0.931 . S
H1565 C1553 0.930 . S
H1566 C1554 0.956 . S
H1567 C1554 0.961 . S
H1568 C1554 0.961 . S
H1569 C1555 0.958 . S
H1570 C1555 0.961 . S
H1571 C1555 0.960 . S
C1572 C1573 1.391 . S
C1572 C1574 1.394 . S
C1572 H1588 0.931 . S
C1573 C1572 1.391 . S
C1573 C1577 1.376 . S
C1574 C1572 1.394 . S
C1574 C1575 1.369 . S
C1574 C1578 1.531 . S
C1575 C1574 1.369 . S
C1575 C1576 1.410 . S
C1575 C1583 1.503 . S
C1576 C1575 1.410 . S
C1576 C1577 1.392 . S
C1576 C1579 1.511 . S
C1577 C1573 1.376 . S
C1577 C1576 1.392 . S
C1577 H1589 0.929 . S
C1578 C1574 1.531 . S
C1578 H1590 0.960 . S
C1578 H1591 0.962 . S
C1578 H1592 0.960 . S
C1579 C1576 1.511 . S
C1579 H1593 0.961 . S
C1579 H1594 0.961 . S
C1579 H1595 0.961 . S
C1580 C1581 1.370 . S
C1580 C1582 1.363 . S
C1580 H1596 0.931 . S
C1581 C1580 1.370 . S
C1581 C1585 1.408 . S
C1582 C1580 1.363 . S
C1582 C1583 1.370 . S
C1582 C1586 1.524 . S
C1583 C1575 1.503 . S
C1583 C1582 1.370 . S
C1583 C1584 1.403 . S
C1584 C1583 1.403 . S
C1584 C1585 1.404 . S
C1584 C1587 1.539 . S
C1585 C1581 1.408 . S
C1585 C1584 1.404 . S
C1585 H1597 0.930 . S
C1586 C1582 1.524 . S
C1586 H1598 0.956 . S
C1586 H1599 0.961 . S
C1586 H1600 0.961 . S
C1587 C1584 1.539 . S
C1587 H1601 0.958 . S
C1587 H1602 0.961 . S
C1587 H1603 0.960 . S
H1588 C1572 0.931 . S
H1589 C1577 0.929 . S
H1590 C1578 0.960 . S
H1591 C1578 0.962 . S
H1592 C1578 0.960 . S
H1593 C1579 0.961 . S
H1594 C1579 0.961 . S
H1595 C1579 0.961 . S
H1596 C1580 0.931 . S
H1597 C1585 0.930 . S
H1598 C1586 0.956 . S
H1599 C1586 0.961 . S
H1600 C1586 0.961 . S
H1601 C1587 0.958 . S
H1602 C1587 0.961 . S
H1603 C1587 0.960 . S
C1604 C1605 1.391 . S
C1604 C1606 1.394 . S
C1604 H1620 0.931 . S
C1605 C1604 1.391 . S
C1605 C1609 1.376 . S
C1606 C1604 1.394 . S
C1606 C1607 1.369 . S
C1606 C1610 1.531 . S
C1607 C1606 1.369 . S
C1607 C1608 1.410 . S
C1607 C1615 1.503 . S
C1608 C1607 1.410 . S
C1608 C1609 1.392 . S
C1608 C1611 1.511 . S
C1609 C1605 1.376 . S
C1609 C1608 1.392 . S
C1609 H1621 0.929 . S
C1610 C1606 1.531 . S
C1610 H1622 0.960 . S
C1610 H1623 0.962 . S
C1610 H1624 0.960 . S
C1611 C1608 1.511 . S
C1611 H1625 0.961 . S
C1611 H1626 0.961 . S
C1611 H1627 0.961 . S
C1612 C1613 1.370 . S
C1612 C1614 1.363 . S
C1612 H1628 0.931 . S
C1613 C1612 1.370 . S
C1613 C1617 1.408 . S
C1614 C1612 1.363 . S
C1614 C1615 1.370 . S
C1614 C1618 1.524 . S
C1615 C1607 1.503 . S
C1615 C1614 1.370 . S
C1615 C1616 1.403 . S
C1616 C1615 1.403 . S
C1616 C1617 1.404 . S
C1616 C1619 1.539 . S
C1617 C1613 1.408 . S
C1617 C1616 1.404 . S
C1617 H1629 0.930 . S
C1618 C1614 1.524 . S
C1618 H1630 0.956 . S
C1618 H1631 0.961 . S
C1618 H1632 0.961 . S
C1619 C1616 1.539 . S
C1619 H1633 0.958 . S
C1619 H1634 0.961 . S
C1619 H1635 0.960 . S
H1620 C1604 0.931 . S
H1621 C1609 0.929 . S
H1622 C1610 0.960 . S
H1623 C1610 0.962 . S
H1624 C1610 0.960 . S
H1625 C1611 0.961 . S
H1626 C1611 0.961 . S
H1627 C1611 0.961 . S
H1628 C1612 0.931 . S
H1629 C1617 0.930 . S
H1630 C1618 0.956 . S
H1631 C1618 0.961 . S
H1632 C1618 0.961 . S
H1633 C1619 0.958 . S
H1634 C1619 0.961 . S
H1635 C1619 0.960 . S
C1636 C1637 1.391 . S
C1636 C1638 1.394 . S
C1636 H1652 0.931 . S
C1637 C1636 1.391 . S
C1637 C1641 1.376 . S
C1638 C1636 1.394 . S
C1638 C1639 1.369 . S
C1638 C1642 1.531 . S
C1639 C1638 1.369 . S
C1639 C1640 1.410 . S
C1639 C1647 1.503 . S
C1640 C1639 1.410 . S
C1640 C1641 1.392 . S
C1640 C1643 1.511 . S
C1641 C1637 1.376 . S
C1641 C1640 1.392 . S
C1641 H1653 0.929 . S
C1642 C1638 1.531 . S
C1642 H1654 0.960 . S
C1642 H1655 0.962 . S
C1642 H1656 0.960 . S
C1643 C1640 1.511 . S
C1643 H1657 0.961 . S
C1643 H1658 0.961 . S
C1643 H1659 0.961 . S
C1644 C1645 1.370 . S
C1644 C1646 1.363 . S
C1644 H1660 0.931 . S
C1645 C1644 1.370 . S
C1645 C1649 1.408 . S
C1646 C1644 1.363 . S
C1646 C1647 1.370 . S
C1646 C1650 1.524 . S
C1647 C1639 1.503 . S
C1647 C1646 1.370 . S
C1647 C1648 1.403 . S
C1648 C1647 1.403 . S
C1648 C1649 1.404 . S
C1648 C1651 1.539 . S
C1649 C1645 1.408 . S
C1649 C1648 1.404 . S
C1649 H1661 0.930 . S
C1650 C1646 1.524 . S
C1650 H1662 0.956 . S
C1650 H1663 0.961 . S
C1650 H1664 0.961 . S
C1651 C1648 1.539 . S
C1651 H1665 0.958 . S
C1651 H1666 0.961 1_556 S
C1651 H1667 0.960 . S
H1652 C1636 0.931 . S
H1653 C1641 0.929 . S
H1654 C1642 0.960 . S
H1655 C1642 0.962 . S
H1656 C1642 0.960 . S
H1657 C1643 0.961 . S
H1658 C1643 0.961 . S
H1659 C1643 0.961 . S
H1660 C1644 0.931 . S
H1661 C1649 0.930 . S
H1662 C1650 0.956 . S
H1663 C1650 0.961 . S
H1664 C1650 0.961 . S
H1665 C1651 0.958 . S
H1666 C1651 0.961 1_554 S
H1667 C1651 0.960 . S
C1668 C1669 1.391 . S
C1668 C1670 1.394 . S
C1668 H1684 0.931 . S
C1669 C1668 1.391 . S
C1669 C1673 1.376 . S
C1670 C1668 1.394 . S
C1670 C1671 1.369 . S
C1670 C1674 1.531 . S
C1671 C1670 1.369 . S
C1671 C1672 1.410 . S
C1671 C1679 1.503 . S
C1672 C1671 1.410 . S
C1672 C1673 1.392 . S
C1672 C1675 1.511 . S
C1673 C1669 1.376 . S
C1673 C1672 1.392 . S
C1673 H1685 0.929 . S
C1674 C1670 1.531 . S
C1674 H1686 0.960 . S
C1674 H1687 0.962 . S
C1674 H1688 0.960 . S
C1675 C1672 1.511 . S
C1675 H1689 0.961 . S
C1675 H1690 0.961 . S
C1675 H1691 0.961 . S
C1676 C1677 1.370 . S
C1676 C1678 1.363 . S
C1676 H1692 0.931 . S
C1677 C1676 1.370 . S
C1677 C1681 1.408 . S
C1678 C1676 1.363 . S
C1678 C1679 1.370 . S
C1678 C1682 1.524 . S
C1679 C1671 1.503 . S
C1679 C1678 1.370 . S
C1679 C1680 1.403 . S
C1680 C1679 1.403 . S
C1680 C1681 1.404 . S
C1680 C1683 1.539 . S
C1681 C1677 1.408 . S
C1681 C1680 1.404 . S
C1681 H1693 0.930 . S
C1682 C1678 1.524 . S
C1682 H1694 0.956 . S
C1682 H1695 0.961 . S
C1682 H1696 0.961 . S
C1683 C1680 1.539 . S
C1683 H1697 0.958 . S
C1683 H1698 0.961 . S
C1683 H1699 0.960 . S
H1684 C1668 0.931 . S
H1685 C1673 0.929 . S
H1686 C1674 0.960 . S
H1687 C1674 0.962 . S
H1688 C1674 0.960 . S
H1689 C1675 0.961 . S
H1690 C1675 0.961 . S
H1691 C1675 0.961 . S
H1692 C1676 0.931 . S
H1693 C1681 0.930 . S
H1694 C1682 0.956 . S
H1695 C1682 0.961 . S
H1696 C1682 0.961 . S
H1697 C1683 0.958 . S
H1698 C1683 0.961 . S
H1699 C1683 0.960 . S
C1700 C1701 1.391 . S
C1700 C1702 1.394 . S
C1700 H1716 0.931 . S
C1701 C1700 1.391 . S
C1701 C1705 1.376 . S
C1702 C1700 1.394 . S
C1702 C1703 1.369 . S
C1702 C1706 1.531 . S
C1703 C1702 1.369 . S
C1703 C1704 1.410 . S
C1703 C1711 1.503 . S
C1704 C1703 1.410 . S
C1704 C1705 1.392 . S
C1704 C1707 1.511 . S
C1705 C1701 1.376 . S
C1705 C1704 1.392 . S
C1705 H1717 0.929 . S
C1706 C1702 1.531 . S
C1706 H1718 0.960 . S
C1706 H1719 0.962 . S
C1706 H1720 0.960 . S
C1707 C1704 1.511 . S
C1707 H1721 0.961 . S
C1707 H1722 0.961 . S
C1707 H1723 0.961 . S
C1708 C1709 1.370 . S
C1708 C1710 1.363 . S
C1708 H1724 0.931 . S
C1709 C1708 1.370 . S
C1709 C1713 1.408 . S
C1710 C1708 1.363 . S
C1710 C1711 1.370 . S
C1710 C1714 1.524 . S
C1711 C1703 1.503 . S
C1711 C1710 1.370 . S
C1711 C1712 1.403 . S
C1712 C1711 1.403 . S
C1712 C1713 1.404 . S
C1712 C1715 1.539 . S
C1713 C1709 1.408 . S
C1713 C1712 1.404 . S
C1713 H1725 0.930 . S
C1714 C1710 1.524 . S
C1714 H1726 0.956 . S
C1714 H1727 0.961 . S
C1714 H1728 0.961 . S
C1715 C1712 1.539 . S
C1715 H1729 0.958 . S
C1715 H1730 0.961 . S
C1715 H1731 0.960 . S
H1716 C1700 0.931 . S
H1717 C1705 0.929 . S
H1718 C1706 0.960 . S
H1719 C1706 0.962 . S
H1720 C1706 0.960 . S
H1721 C1707 0.961 . S
H1722 C1707 0.961 . S
H1723 C1707 0.961 . S
H1724 C1708 0.931 . S
H1725 C1713 0.930 . S
H1726 C1714 0.956 . S
H1727 C1714 0.961 . S
H1728 C1714 0.961 . S
H1729 C1715 0.958 . S
H1730 C1715 0.961 . S
H1731 C1715 0.960 . S
C1732 C1733 1.391 . S
C1732 C1734 1.394 . S
C1732 H1748 0.931 . S
C1733 C1732 1.391 . S
C1733 C1737 1.376 . S
C1734 C1732 1.394 . S
C1734 C1735 1.369 . S
C1734 C1738 1.531 . S
C1735 C1734 1.369 . S
C1735 C1736 1.410 . S
C1735 C1743 1.503 . S
C1736 C1735 1.410 . S
C1736 C1737 1.392 . S
C1736 C1739 1.511 . S
C1737 C1733 1.376 . S
C1737 C1736 1.392 . S
C1737 H1749 0.929 . S
C1738 C1734 1.531 . S
C1738 H1750 0.960 . S
C1738 H1751 0.962 . S
C1738 H1752 0.960 . S
C1739 C1736 1.511 . S
C1739 H1753 0.961 . S
C1739 H1754 0.961 . S
C1739 H1755 0.961 . S
C1740 C1741 1.370 . S
C1740 C1742 1.363 . S
C1740 H1756 0.931 . S
C1741 C1740 1.370 . S
C1741 C1745 1.408 . S
C1742 C1740 1.363 . S
C1742 C1743 1.370 . S
C1742 C1746 1.524 . S
C1743 C1735 1.503 . S
C1743 C1742 1.370 . S
C1743 C1744 1.403 . S
C1744 C1743 1.403 . S
C1744 C1745 1.404 . S
C1744 C1747 1.539 . S
C1745 C1741 1.408 . S
C1745 C1744 1.404 . S
C1745 H1757 0.930 . S
C1746 C1742 1.524 . S
C1746 H1758 0.956 . S
C1746 H1759 0.961 . S
C1746 H1760 0.961 . S
C1747 C1744 1.539 . S
C1747 H1761 0.958 . S
C1747 H1762 0.961 . S
C1747 H1763 0.960 . S
H1748 C1732 0.931 . S
H1749 C1737 0.929 . S
H1750 C1738 0.960 . S
H1751 C1738 0.962 . S
H1752 C1738 0.960 . S
H1753 C1739 0.961 . S
H1754 C1739 0.961 . S
H1755 C1739 0.961 . S
H1756 C1740 0.931 . S
H1757 C1745 0.930 . S
H1758 C1746 0.956 . S
H1759 C1746 0.961 . S
H1760 C1746 0.961 . S
H1761 C1747 0.958 . S
H1762 C1747 0.961 . S
H1763 C1747 0.960 . S
C1764 C1765 1.391 . S
C1764 C1766 1.394 . S
C1764 H1780 0.931 . S
C1765 C1764 1.391 . S
C1765 C1769 1.376 . S
C1766 C1764 1.394 . S
C1766 C1767 1.369 . S
C1766 C1770 1.531 . S
C1767 C1766 1.369 . S
C1767 C1768 1.410 . S
C1767 C1775 1.503 . S
C1768 C1767 1.410 . S
C1768 C1769 1.392 . S
C1768 C1771 1.511 . S
C1769 C1765 1.376 . S
C1769 C1768 1.392 . S
C1769 H1781 0.929 . S
C1770 C1766 1.531 . S
C1770 H1782 0.960 . S
C1770 H1783 0.962 . S
C1770 H1784 0.960 . S
C1771 C1768 1.511 . S
C1771 H1785 0.961 . S
C1771 H1786 0.961 . S
C1771 H1787 0.961 . S
C1772 C1773 1.370 . S
C1772 C1774 1.363 . S
C1772 H1788 0.931 . S
C1773 C1772 1.370 . S
C1773 C1777 1.408 . S
C1774 C1772 1.363 . S
C1774 C1775 1.370 . S
C1774 C1778 1.524 . S
C1775 C1767 1.503 . S
C1775 C1774 1.370 . S
C1775 C1776 1.403 . S
C1776 C1775 1.403 . S
C1776 C1777 1.404 . S
C1776 C1779 1.539 . S
C1777 C1773 1.408 . S
C1777 C1776 1.404 . S
C1777 H1789 0.930 . S
C1778 C1774 1.524 . S
C1778 H1790 0.956 . S
C1778 H1791 0.961 . S
C1778 H1792 0.961 . S
C1779 C1776 1.539 . S
C1779 H1793 0.958 . S
C1779 H1794 0.961 . S
C1779 H1795 0.960 . S
H1780 C1764 0.931 . S
H1781 C1769 0.929 . S
H1782 C1770 0.960 . S
H1783 C1770 0.962 . S
H1784 C1770 0.960 . S
H1785 C1771 0.961 . S
H1786 C1771 0.961 . S
H1787 C1771 0.961 . S
H1788 C1772 0.931 . S
H1789 C1777 0.930 . S
H1790 C1778 0.956 . S
H1791 C1778 0.961 . S
H1792 C1778 0.961 . S
H1793 C1779 0.958 . S
H1794 C1779 0.961 . S
H1795 C1779 0.960 . S
C1796 C1797 1.391 . S
C1796 C1798 1.394 . S
C1796 H1812 0.931 . S
C1797 C1796 1.391 . S
C1797 C1801 1.376 . S
C1798 C1796 1.394 . S
C1798 C1799 1.369 . S
C1798 C1802 1.531 . S
C1799 C1798 1.369 . S
C1799 C1800 1.410 . S
C1799 C1807 1.503 . S
C1800 C1799 1.410 . S
C1800 C1801 1.392 . S
C1800 C1803 1.511 . S
C1801 C1797 1.376 . S
C1801 C1800 1.392 . S
C1801 H1813 0.929 . S
C1802 C1798 1.531 . S
C1802 H1814 0.960 . S
C1802 H1815 0.962 . S
C1802 H1816 0.960 . S
C1803 C1800 1.511 . S
C1803 H1817 0.961 . S
C1803 H1818 0.961 . S
C1803 H1819 0.961 . S
C1804 C1805 1.370 . S
C1804 C1806 1.363 . S
C1804 H1820 0.931 . S
C1805 C1804 1.370 . S
C1805 C1809 1.408 . S
C1806 C1804 1.363 . S
C1806 C1807 1.370 . S
C1806 C1810 1.524 . S
C1807 C1799 1.503 . S
C1807 C1806 1.370 . S
C1807 C1808 1.403 . S
C1808 C1807 1.403 . S
C1808 C1809 1.404 . S
C1808 C1811 1.539 . S
C1809 C1805 1.408 . S
C1809 C1808 1.404 . S
C1809 H1821 0.930 1_556 S
C1810 C1806 1.524 . S
C1810 H1822 0.956 . S
C1810 H1823 0.961 . S
C1810 H1824 0.961 . S
C1811 C1808 1.539 . S
C1811 H1825 0.958 1_556 S
C1811 H1826 0.961 1_556 S
C1811 H1827 0.960 . S
H1812 C1796 0.931 . S
H1813 C1801 0.929 . S
H1814 C1802 0.960 . S
H1815 C1802 0.962 . S
H1816 C1802 0.960 . S
H1817 C1803 0.961 . S
H1818 C1803 0.961 . S
H1819 C1803 0.961 . S
H1820 C1804 0.931 . S
H1821 C1809 0.930 1_554 S
H1822 C1810 0.956 . S
H1823 C1810 0.961 . S
H1824 C1810 0.961 . S
H1825 C1811 0.958 1_554 S
H1826 C1811 0.961 1_554 S
H1827 C1811 0.960 . S
C1828 C1829 1.391 . S
C1828 C1830 1.394 . S
C1828 H1844 0.931 . S
C1829 C1828 1.391 . S
C1829 C1833 1.376 . S
C1830 C1828 1.394 . S
C1830 C1831 1.369 . S
C1830 C1834 1.531 . S
C1831 C1830 1.369 . S
C1831 C1832 1.410 . S
C1831 C1839 1.503 . S
C1832 C1831 1.410 . S
C1832 C1833 1.392 . S
C1832 C1835 1.511 . S
C1833 C1829 1.376 . S
C1833 C1832 1.392 . S
C1833 H1845 0.929 . S
C1834 C1830 1.531 . S
C1834 H1846 0.960 . S
C1834 H1847 0.962 . S
C1834 H1848 0.960 . S
C1835 C1832 1.511 . S
C1835 H1849 0.961 . S
C1835 H1850 0.961 . S
C1835 H1851 0.961 . S
C1836 C1837 1.370 . S
C1836 C1838 1.363 . S
C1836 H1852 0.931 . S
C1837 C1836 1.370 . S
C1837 C1841 1.408 . S
C1838 C1836 1.363 . S
C1838 C1839 1.370 . S
C1838 C1842 1.524 . S
C1839 C1831 1.503 . S
C1839 C1838 1.370 . S
C1839 C1840 1.403 . S
C1840 C1839 1.403 . S
C1840 C1841 1.404 . S
C1840 C1843 1.539 . S
C1841 C1837 1.408 . S
C1841 C1840 1.404 . S
C1841 H1853 0.930 . S
C1842 C1838 1.524 . S
C1842 H1854 0.956 . S
C1842 H1855 0.961 . S
C1842 H1856 0.961 . S
C1843 C1840 1.539 . S
C1843 H1857 0.958 . S
C1843 H1858 0.961 . S
C1843 H1859 0.960 . S
H1844 C1828 0.931 . S
H1845 C1833 0.929 . S
H1846 C1834 0.960 . S
H1847 C1834 0.962 . S
H1848 C1834 0.960 . S
H1849 C1835 0.961 . S
H1850 C1835 0.961 . S
H1851 C1835 0.961 . S
H1852 C1836 0.931 . S
H1853 C1841 0.930 . S
H1854 C1842 0.956 . S
H1855 C1842 0.961 . S
H1856 C1842 0.961 . S
H1857 C1843 0.958 . S
H1858 C1843 0.961 . S
H1859 C1843 0.960 . S
C1860 C1861 1.391 . S
C1860 C1862 1.394 . S
C1860 H1876 0.931 . S
C1861 C1860 1.391 . S
C1861 C1865 1.376 . S
C1862 C1860 1.394 . S
C1862 C1863 1.369 . S
C1862 C1866 1.531 . S
C1863 C1862 1.369 . S
C1863 C1864 1.410 . S
C1863 C1871 1.503 . S
C1864 C1863 1.410 . S
C1864 C1865 1.392 . S
C1864 C1867 1.511 . S
C1865 C1861 1.376 . S
C1865 C1864 1.392 . S
C1865 H1877 0.929 . S
C1866 C1862 1.531 . S
C1866 H1878 0.960 . S
C1866 H1879 0.962 . S
C1866 H1880 0.960 . S
C1867 C1864 1.511 . S
C1867 H1881 0.961 . S
C1867 H1882 0.961 . S
C1867 H1883 0.961 . S
C1868 C1869 1.370 . S
C1868 C1870 1.363 . S
C1868 H1884 0.931 . S
C1869 C1868 1.370 . S
C1869 C1873 1.408 . S
C1870 C1868 1.363 . S
C1870 C1871 1.370 . S
C1870 C1874 1.524 . S
C1871 C1863 1.503 . S
C1871 C1870 1.370 . S
C1871 C1872 1.403 . S
C1872 C1871 1.403 . S
C1872 C1873 1.404 . S
C1872 C1875 1.539 . S
C1873 C1869 1.408 . S
C1873 C1872 1.404 . S
C1873 H1885 0.930 . S
C1874 C1870 1.524 . S
C1874 H1886 0.956 . S
C1874 H1887 0.961 . S
C1874 H1888 0.961 . S
C1875 C1872 1.539 . S
C1875 H1889 0.958 . S
C1875 H1890 0.961 . S
C1875 H1891 0.960 . S
H1876 C1860 0.931 . S
H1877 C1865 0.929 . S
H1878 C1866 0.960 . S
H1879 C1866 0.962 . S
H1880 C1866 0.960 . S
H1881 C1867 0.961 . S
H1882 C1867 0.961 . S
H1883 C1867 0.961 . S
H1884 C1868 0.931 . S
H1885 C1873 0.930 . S
H1886 C1874 0.956 . S
H1887 C1874 0.961 . S
H1888 C1874 0.961 . S
H1889 C1875 0.958 . S
H1890 C1875 0.961 . S
H1891 C1875 0.960 . S
C1892 C1893 1.391 . S
C1892 C1894 1.394 . S
C1892 H1908 0.931 . S
C1893 C1892 1.391 . S
C1893 C1897 1.376 . S
C1894 C1892 1.394 . S
C1894 C1895 1.369 . S
C1894 C1898 1.531 . S
C1895 C1894 1.369 . S
C1895 C1896 1.410 . S
C1895 C1903 1.503 . S
C1896 C1895 1.410 . S
C1896 C1897 1.392 . S
C1896 C1899 1.511 . S
C1897 C1893 1.376 . S
C1897 C1896 1.392 . S
C1897 H1909 0.929 . S
C1898 C1894 1.531 . S
C1898 H1910 0.960 . S
C1898 H1911 0.962 . S
C1898 H1912 0.960 . S
C1899 C1896 1.511 . S
C1899 H1913 0.961 . S
C1899 H1914 0.961 . S
C1899 H1915 0.961 . S
C1900 C1901 1.370 . S
C1900 C1902 1.363 . S
C1900 H1916 0.931 . S
C1901 C1900 1.370 . S
C1901 C1905 1.408 . S
C1902 C1900 1.363 . S
C1902 C1903 1.370 . S
C1902 C1906 1.524 . S
C1903 C1895 1.503 . S
C1903 C1902 1.370 . S
C1903 C1904 1.403 . S
C1904 C1903 1.403 . S
C1904 C1905 1.404 . S
C1904 C1907 1.539 . S
C1905 C1901 1.408 . S
C1905 C1904 1.404 . S
C1905 H1917 0.930 . S
C1906 C1902 1.524 . S
C1906 H1918 0.956 . S
C1906 H1919 0.961 . S
C1906 H1920 0.961 . S
C1907 C1904 1.539 . S
C1907 H1921 0.958 . S
C1907 H1922 0.961 . S
C1907 H1923 0.960 . S
H1908 C1892 0.931 . S
H1909 C1897 0.929 . S
H1910 C1898 0.960 . S
H1911 C1898 0.962 . S
H1912 C1898 0.960 . S
H1913 C1899 0.961 . S
H1914 C1899 0.961 . S
H1915 C1899 0.961 . S
H1916 C1900 0.931 . S
H1917 C1905 0.930 . S
H1918 C1906 0.956 . S
H1919 C1906 0.961 . S
H1920 C1906 0.961 . S
H1921 C1907 0.958 . S
H1922 C1907 0.961 . S
H1923 C1907 0.960 . S
C1924 C1925 1.391 . S
C1924 C1926 1.394 . S
C1924 H1940 0.931 . S
C1925 C1924 1.391 . S
C1925 C1929 1.376 . S
C1926 C1924 1.394 . S
C1926 C1927 1.369 . S
C1926 C1930 1.531 . S
C1927 C1926 1.369 . S
C1927 C1928 1.410 . S
C1927 C1935 1.503 . S
C1928 C1927 1.410 . S
C1928 C1929 1.392 . S
C1928 C1931 1.511 . S
C1929 C1925 1.376 . S
C1929 C1928 1.392 . S
C1929 H1941 0.929 . S
C1930 C1926 1.531 . S
C1930 H1942 0.960 . S
C1930 H1943 0.962 . S
C1930 H1944 0.960 . S
C1931 C1928 1.511 . S
C1931 H1945 0.961 . S
C1931 H1946 0.961 . S
C1931 H1947 0.961 . S
C1932 C1933 1.370 . S
C1932 C1934 1.363 . S
C1932 H1948 0.931 . S
C1933 C1932 1.370 . S
C1933 C1937 1.408 . S
C1934 C1932 1.363 . S
C1934 C1935 1.370 . S
C1934 C1938 1.524 . S
C1935 C1927 1.503 . S
C1935 C1934 1.370 . S
C1935 C1936 1.403 . S
C1936 C1935 1.403 . S
C1936 C1937 1.404 . S
C1936 C1939 1.539 . S
C1937 C1933 1.408 . S
C1937 C1936 1.404 . S
C1937 H1949 0.930 . S
C1938 C1934 1.524 . S
C1938 H1950 0.956 . S
C1938 H1951 0.961 . S
C1938 H1952 0.961 . S
C1939 C1936 1.539 . S
C1939 H1953 0.958 . S
C1939 H1954 0.961 . S
C1939 H1955 0.960 . S
H1940 C1924 0.931 . S
H1941 C1929 0.929 . S
H1942 C1930 0.960 . S
H1943 C1930 0.962 . S
H1944 C1930 0.960 . S
H1945 C1931 0.961 . S
H1946 C1931 0.961 . S
H1947 C1931 0.961 . S
H1948 C1932 0.931 . S
H1949 C1937 0.930 . S
H1950 C1938 0.956 . S
H1951 C1938 0.961 . S
H1952 C1938 0.961 . S
H1953 C1939 0.958 . S
H1954 C1939 0.961 . S
H1955 C1939 0.960 . S
C1956 C1957 1.391 . S
C1956 C1958 1.394 . S
C1956 H1972 0.931 . S
C1957 C1956 1.391 . S
C1957 C1961 1.376 . S
C1958 C1956 1.394 . S
C1958 C1959 1.369 . S
C1958 C1962 1.531 . S
C1959 C1958 1.369 . S
C1959 C1960 1.410 . S
C1959 C1967 1.503 . S
C1960 C1959 1.410 . S
C1960 C1961 1.392 . S
C1960 C1963 1.511 . S
C1961 C1957 1.376 . S
C1961 C1960 1.392 . S
C1961 H1973 0.929 . S
C1962 C1958 1.531 . S
C1962 H1974 0.960 . S
C1962 H1975 0.962 . S
C1962 H1976 0.960 . S
C1963 C1960 1.511 . S
C1963 H1977 0.961 . S
C1963 H1978 0.961 . S
C1963 H1979 0.961 . S
C1964 C1965 1.370 . S
C1964 C1966 1.363 . S
C1964 H1980 0.931 . S
C1965 C1964 1.370 . S
C1965 C1969 1.408 . S
C1966 C1964 1.363 . S
C1966 C1967 1.370 . S
C1966 C1970 1.524 . S
C1967 C1959 1.503 . S
C1967 C1966 1.370 . S
C1967 C1968 1.403 . S
C1968 C1967 1.403 . S
C1968 C1969 1.404 . S
C1968 C1971 1.539 . S
C1969 C1965 1.408 . S
C1969 C1968 1.404 . S
C1969 H1981 0.930 . S
C1970 C1966 1.524 . S
C1970 H1982 0.956 . S
C1970 H1983 0.961 . S
C1970 H1984 0.961 . S
C1971 C1968 1.539 . S
C1971 H1985 0.958 . S
C1971 H1986 0.961 . S
C1971 H1987 0.960 . S
H1972 C1956 0.931 . S
H1973 C1961 0.929 . S
H1974 C1962 0.960 . S
H1975 C1962 0.962 . S
H1976 C1962 0.960 . S
H1977 C1963 0.961 . S
H1978 C1963 0.961 . S
H1979 C1963 0.961 . S
H1980 C1964 0.931 . S
H1981 C1969 0.930 . S
H1982 C1970 0.956 . S
H1983 C1970 0.961 . S
H1984 C1970 0.961 . S
H1985 C1971 0.958 . S
H1986 C1971 0.961 . S
H1987 C1971 0.960 . S
C1988 C1989 1.391 . S
C1988 C1990 1.394 . S
C1988 H2004 0.931 . S
C1989 C1988 1.391 . S
C1989 C1993 1.376 . S
C1990 C1988 1.394 . S
C1990 C1991 1.369 . S
C1990 C1994 1.531 . S
C1991 C1990 1.369 . S
C1991 C1992 1.410 . S
C1991 C1999 1.503 . S
C1992 C1991 1.410 . S
C1992 C1993 1.392 . S
C1992 C1995 1.511 . S
C1993 C1989 1.376 . S
C1993 C1992 1.392 . S
C1993 H2005 0.929 . S
C1994 C1990 1.531 . S
C1994 H2006 0.960 . S
C1994 H2007 0.962 . S
C1994 H2008 0.960 . S
C1995 C1992 1.511 . S
C1995 H2009 0.961 . S
C1995 H2010 0.961 . S
C1995 H2011 0.961 . S
C1996 C1997 1.370 . S
C1996 C1998 1.363 . S
C1996 H2012 0.931 . S
C1997 C1996 1.370 . S
C1997 C2001 1.408 . S
C1998 C1996 1.363 . S
C1998 C1999 1.370 . S
C1998 C2002 1.524 . S
C1999 C1991 1.503 . S
C1999 C1998 1.370 . S
C1999 C2000 1.403 . S
C2000 C1999 1.403 . S
C2000 C2001 1.404 . S
C2000 C2003 1.539 . S
C2001 C1997 1.408 . S
C2001 C2000 1.404 . S
C2001 H2013 0.930 . S
C2002 C1998 1.524 . S
C2002 H2014 0.956 . S
C2002 H2015 0.961 . S
C2002 H2016 0.961 . S
C2003 C2000 1.539 . S
C2003 H2017 0.958 . S
C2003 H2018 0.961 . S
C2003 H2019 0.960 . S
H2004 C1988 0.931 . S
H2005 C1993 0.929 . S
H2006 C1994 0.960 . S
H2007 C1994 0.962 . S
H2008 C1994 0.960 . S
H2009 C1995 0.961 . S
H2010 C1995 0.961 . S
H2011 C1995 0.961 . S
H2012 C1996 0.931 . S
H2013 C2001 0.930 . S
H2014 C2002 0.956 . S
H2015 C2002 0.961 . S
H2016 C2002 0.961 . S
H2017 C2003 0.958 . S
H2018 C2003 0.961 . S
H2019 C2003 0.960 . S
C2020 C2021 1.391 . S
C2020 C2022 1.394 . S
C2020 H2036 0.931 . S
C2021 C2020 1.391 . S
C2021 C2025 1.376 . S
C2022 C2020 1.394 . S
C2022 C2023 1.369 . S
C2022 C2026 1.531 . S
C2023 C2022 1.369 . S
C2023 C2024 1.410 . S
C2023 C2031 1.503 . S
C2024 C2023 1.410 . S
C2024 C2025 1.392 . S
C2024 C2027 1.511 . S
C2025 C2021 1.376 . S
C2025 C2024 1.392 . S
C2025 H2037 0.929 . S
C2026 C2022 1.531 . S
C2026 H2038 0.960 . S
C2026 H2039 0.962 . S
C2026 H2040 0.960 . S
C2027 C2024 1.511 . S
C2027 H2041 0.961 . S
C2027 H2042 0.961 . S
C2027 H2043 0.961 . S
C2028 C2029 1.370 . S
C2028 C2030 1.363 . S
C2028 H2044 0.931 . S
C2029 C2028 1.370 . S
C2029 C2033 1.408 . S
C2030 C2028 1.363 . S
C2030 C2031 1.370 . S
C2030 C2034 1.524 . S
C2031 C2023 1.503 . S
C2031 C2030 1.370 . S
C2031 C2032 1.403 . S
C2032 C2031 1.403 . S
C2032 C2033 1.404 . S
C2032 C2035 1.539 . S
C2033 C2029 1.408 . S
C2033 C2032 1.404 . S
C2033 H2045 0.930 . S
C2034 C2030 1.524 . S
C2034 H2046 0.956 . S
C2034 H2047 0.961 . S
C2034 H2048 0.961 . S
C2035 C2032 1.539 . S
C2035 H2049 0.958 . S
C2035 H2050 0.961 . S
C2035 H2051 0.960 . S
H2036 C2020 0.931 . S
H2037 C2025 0.929 . S
H2038 C2026 0.960 . S
H2039 C2026 0.962 . S
H2040 C2026 0.960 . S
H2041 C2027 0.961 . S
H2042 C2027 0.961 . S
H2043 C2027 0.961 . S
H2044 C2028 0.931 . S
H2045 C2033 0.930 . S
H2046 C2034 0.956 . S
H2047 C2034 0.961 . S
H2048 C2034 0.961 . S
H2049 C2035 0.958 . S
H2050 C2035 0.961 . S
H2051 C2035 0.960 . S
C2052 C2053 1.391 . S
C2052 C2054 1.394 . S
C2052 H2068 0.931 . S
C2053 C2052 1.391 . S
C2053 C2057 1.376 . S
C2054 C2052 1.394 . S
C2054 C2055 1.369 . S
C2054 C2058 1.531 . S
C2055 C2054 1.369 . S
C2055 C2056 1.410 . S
C2055 C2063 1.503 . S
C2056 C2055 1.410 . S
C2056 C2057 1.392 . S
C2056 C2059 1.511 . S
C2057 C2053 1.376 . S
C2057 C2056 1.392 . S
C2057 H2069 0.929 . S
C2058 C2054 1.531 . S
C2058 H2070 0.960 . S
C2058 H2071 0.962 . S
C2058 H2072 0.960 . S
C2059 C2056 1.511 . S
C2059 H2073 0.961 . S
C2059 H2074 0.961 . S
C2059 H2075 0.961 . S
C2060 C2061 1.370 . S
C2060 C2062 1.363 . S
C2060 H2076 0.931 . S
C2061 C2060 1.370 . S
C2061 C2065 1.408 . S
C2062 C2060 1.363 . S
C2062 C2063 1.370 . S
C2062 C2066 1.524 . S
C2063 C2055 1.503 . S
C2063 C2062 1.370 . S
C2063 C2064 1.403 . S
C2064 C2063 1.403 . S
C2064 C2065 1.404 . S
C2064 C2067 1.539 . S
C2065 C2061 1.408 . S
C2065 C2064 1.404 . S
C2065 H2077 0.930 . S
C2066 C2062 1.524 . S
C2066 H2078 0.956 . S
C2066 H2079 0.961 . S
C2066 H2080 0.961 . S
C2067 C2064 1.539 . S
C2067 H2081 0.958 . S
C2067 H2082 0.961 . S
C2067 H2083 0.960 . S
H2068 C2052 0.931 . S
H2069 C2057 0.929 . S
H2070 C2058 0.960 . S
H2071 C2058 0.962 . S
H2072 C2058 0.960 . S
H2073 C2059 0.961 . S
H2074 C2059 0.961 . S
H2075 C2059 0.961 . S
H2076 C2060 0.931 . S
H2077 C2065 0.930 . S
H2078 C2066 0.956 . S
H2079 C2066 0.961 . S
H2080 C2066 0.961 . S
H2081 C2067 0.958 . S
H2082 C2067 0.961 . S
H2083 C2067 0.960 . S
C2084 C2085 1.391 . S
C2084 C2086 1.394 . S
C2084 H2100 0.931 . S
C2085 C2084 1.391 . S
C2085 C2089 1.376 . S
C2086 C2084 1.394 . S
C2086 C2087 1.369 . S
C2086 C2090 1.531 . S
C2087 C2086 1.369 . S
C2087 C2088 1.410 . S
C2087 C2095 1.503 . S
C2088 C2087 1.410 . S
C2088 C2089 1.392 . S
C2088 C2091 1.511 . S
C2089 C2085 1.376 . S
C2089 C2088 1.392 . S
C2089 H2101 0.929 . S
C2090 C2086 1.531 . S
C2090 H2102 0.960 . S
C2090 H2103 0.962 . S
C2090 H2104 0.960 . S
C2091 C2088 1.511 . S
C2091 H2105 0.961 . S
C2091 H2106 0.961 . S
C2091 H2107 0.961 . S
C2092 C2093 1.370 . S
C2092 C2094 1.363 . S
C2092 H2108 0.931 . S
C2093 C2092 1.370 . S
C2093 C2097 1.408 . S
C2094 C2092 1.363 . S
C2094 C2095 1.370 . S
C2094 C2098 1.524 . S
C2095 C2087 1.503 . S
C2095 C2094 1.370 . S
C2095 C2096 1.403 . S
C2096 C2095 1.403 . S
C2096 C2097 1.404 . S
C2096 C2099 1.539 . S
C2097 C2093 1.408 . S
C2097 C2096 1.404 . S
C2097 H2109 0.930 . S
C2098 C2094 1.524 . S
C2098 H2110 0.956 . S
C2098 H2111 0.961 . S
C2098 H2112 0.961 . S
C2099 C2096 1.539 . S
C2099 H2113 0.958 . S
C2099 H2114 0.961 . S
C2099 H2115 0.960 . S
H2100 C2084 0.931 . S
H2101 C2089 0.929 . S
H2102 C2090 0.960 . S
H2103 C2090 0.962 . S
H2104 C2090 0.960 . S
H2105 C2091 0.961 . S
H2106 C2091 0.961 . S
H2107 C2091 0.961 . S
H2108 C2092 0.931 . S
H2109 C2097 0.930 . S
H2110 C2098 0.956 . S
H2111 C2098 0.961 . S
H2112 C2098 0.961 . S
H2113 C2099 0.958 . S
H2114 C2099 0.961 . S
H2115 C2099 0.960 . S
C2116 C2117 1.391 . S
C2116 C2118 1.394 . S
C2116 H2132 0.931 . S
C2117 C2116 1.391 . S
C2117 C2121 1.376 . S
C2118 C2116 1.394 . S
C2118 C2119 1.369 . S
C2118 C2122 1.531 . S
C2119 C2118 1.369 . S
C2119 C2120 1.410 . S
C2119 C2127 1.503 . S
C2120 C2119 1.410 . S
C2120 C2121 1.392 . S
C2120 C2123 1.511 . S
C2121 C2117 1.376 . S
C2121 C2120 1.392 . S
C2121 H2133 0.929 . S
C2122 C2118 1.531 . S
C2122 H2134 0.960 . S
C2122 H2135 0.962 . S
C2122 H2136 0.960 . S
C2123 C2120 1.511 . S
C2123 H2137 0.961 . S
C2123 H2138 0.961 . S
C2123 H2139 0.961 . S
C2124 C2125 1.370 . S
C2124 C2126 1.363 . S
C2124 H2140 0.931 . S
C2125 C2124 1.370 . S
C2125 C2129 1.408 . S
C2126 C2124 1.363 . S
C2126 C2127 1.370 . S
C2126 C2130 1.524 . S
C2127 C2119 1.503 . S
C2127 C2126 1.370 . S
C2127 C2128 1.403 . S
C2128 C2127 1.403 . S
C2128 C2129 1.404 . S
C2128 C2131 1.539 . S
C2129 C2125 1.408 . S
C2129 C2128 1.404 . S
C2129 H2141 0.930 . S
C2130 C2126 1.524 . S
C2130 H2142 0.956 . S
C2130 H2143 0.961 . S
C2130 H2144 0.961 . S
C2131 C2128 1.539 . S
C2131 H2145 0.958 . S
C2131 H2146 0.961 . S
C2131 H2147 0.960 . S
H2132 C2116 0.931 . S
H2133 C2121 0.929 . S
H2134 C2122 0.960 . S
H2135 C2122 0.962 . S
H2136 C2122 0.960 . S
H2137 C2123 0.961 . S
H2138 C2123 0.961 . S
H2139 C2123 0.961 . S
H2140 C2124 0.931 . S
H2141 C2129 0.930 . S
H2142 C2130 0.956 . S
H2143 C2130 0.961 . S
H2144 C2130 0.961 . S
H2145 C2131 0.958 . S
H2146 C2131 0.961 . S
H2147 C2131 0.960 . S
C2148 C2149 1.391 . S
C2148 C2150 1.394 . S
C2148 H2164 0.931 . S
C2149 C2148 1.391 . S
C2149 C2153 1.376 . S
C2150 C2148 1.394 . S
C2150 C2151 1.369 . S
C2150 C2154 1.531 . S
C2151 C2150 1.369 . S
C2151 C2152 1.410 . S
C2151 C2159 1.503 . S
C2152 C2151 1.410 . S
C2152 C2153 1.392 . S
C2152 C2155 1.511 . S
C2153 C2149 1.376 . S
C2153 C2152 1.392 . S
C2153 H2165 0.929 . S
C2154 C2150 1.531 . S
C2154 H2166 0.960 . S
C2154 H2167 0.962 . S
C2154 H2168 0.960 . S
C2155 C2152 1.511 . S
C2155 H2169 0.961 . S
C2155 H2170 0.961 . S
C2155 H2171 0.961 . S
C2156 C2157 1.370 . S
C2156 C2158 1.363 . S
C2156 H2172 0.931 . S
C2157 C2156 1.370 . S
C2157 C2161 1.408 . S
C2158 C2156 1.363 . S
C2158 C2159 1.370 . S
C2158 C2162 1.524 . S
C2159 C2151 1.503 . S
C2159 C2158 1.370 . S
C2159 C2160 1.403 . S
C2160 C2159 1.403 . S
C2160 C2161 1.404 . S
C2160 C2163 1.539 . S
C2161 C2157 1.408 . S
C2161 C2160 1.404 . S
C2161 H2173 0.930 . S
C2162 C2158 1.524 . S
C2162 H2174 0.956 . S
C2162 H2175 0.961 . S
C2162 H2176 0.961 . S
C2163 C2160 1.539 . S
C2163 H2177 0.958 . S
C2163 H2178 0.961 . S
C2163 H2179 0.960 . S
H2164 C2148 0.931 . S
H2165 C2153 0.929 . S
H2166 C2154 0.960 . S
H2167 C2154 0.962 . S
H2168 C2154 0.960 . S
H2169 C2155 0.961 . S
H2170 C2155 0.961 . S
H2171 C2155 0.961 . S
H2172 C2156 0.931 . S
H2173 C2161 0.930 . S
H2174 C2162 0.956 . S
H2175 C2162 0.961 . S
H2176 C2162 0.961 . S
H2177 C2163 0.958 . S
H2178 C2163 0.961 . S
H2179 C2163 0.960 . S
C2180 C2181 1.391 . S
C2180 C2182 1.394 . S
C2180 H2196 0.931 . S
C2181 C2180 1.391 . S
C2181 C2185 1.376 . S
C2182 C2180 1.394 . S
C2182 C2183 1.369 . S
C2182 C2186 1.531 . S
C2183 C2182 1.369 . S
C2183 C2184 1.410 . S
C2183 C2191 1.503 . S
C2184 C2183 1.410 . S
C2184 C2185 1.392 . S
C2184 C2187 1.511 . S
C2185 C2181 1.376 . S
C2185 C2184 1.392 . S
C2185 H2197 0.929 . S
C2186 C2182 1.531 . S
C2186 H2198 0.960 . S
C2186 H2199 0.962 . S
C2186 H2200 0.960 . S
C2187 C2184 1.511 . S
C2187 H2201 0.961 . S
C2187 H2202 0.961 . S
C2187 H2203 0.961 . S
C2188 C2189 1.370 . S
C2188 C2190 1.363 . S
C2188 H2204 0.931 . S
C2189 C2188 1.370 . S
C2189 C2193 1.408 . S
C2190 C2188 1.363 . S
C2190 C2191 1.370 . S
C2190 C2194 1.524 . S
C2191 C2183 1.503 . S
C2191 C2190 1.370 . S
C2191 C2192 1.403 . S
C2192 C2191 1.403 . S
C2192 C2193 1.404 . S
C2192 C2195 1.539 . S
C2193 C2189 1.408 . S
C2193 C2192 1.404 . S
C2193 H2205 0.930 . S
C2194 C2190 1.524 . S
C2194 H2206 0.956 . S
C2194 H2207 0.961 . S
C2194 H2208 0.961 . S
C2195 C2192 1.539 . S
C2195 H2209 0.958 . S
C2195 H2210 0.961 . S
C2195 H2211 0.960 . S
H2196 C2180 0.931 . S
H2197 C2185 0.929 . S
H2198 C2186 0.960 . S
H2199 C2186 0.962 . S
H2200 C2186 0.960 . S
H2201 C2187 0.961 . S
H2202 C2187 0.961 . S
H2203 C2187 0.961 . S
H2204 C2188 0.931 . S
H2205 C2193 0.930 . S
H2206 C2194 0.956 . S
H2207 C2194 0.961 . S
H2208 C2194 0.961 . S
H2209 C2195 0.958 . S
H2210 C2195 0.961 . S
H2211 C2195 0.960 . S
C2212 C2213 1.391 . S
C2212 C2214 1.394 . S
C2212 H2228 0.931 . S
C2213 C2212 1.391 . S
C2213 C2217 1.376 . S
C2214 C2212 1.394 . S
C2214 C2215 1.369 . S
C2214 C2218 1.531 . S
C2215 C2214 1.369 . S
C2215 C2216 1.410 . S
C2215 C2223 1.503 . S
C2216 C2215 1.410 . S
C2216 C2217 1.392 . S
C2216 C2219 1.511 . S
C2217 C2213 1.376 . S
C2217 C2216 1.392 . S
C2217 H2229 0.929 . S
C2218 C2214 1.531 . S
C2218 H2230 0.960 . S
C2218 H2231 0.962 . S
C2218 H2232 0.960 . S
C2219 C2216 1.511 . S
C2219 H2233 0.961 . S
C2219 H2234 0.961 . S
C2219 H2235 0.961 . S
C2220 C2221 1.370 . S
C2220 C2222 1.363 . S
C2220 H2236 0.931 . S
C2221 C2220 1.370 . S
C2221 C2225 1.408 . S
C2222 C2220 1.363 . S
C2222 C2223 1.370 . S
C2222 C2226 1.524 . S
C2223 C2215 1.503 . S
C2223 C2222 1.370 . S
C2223 C2224 1.403 . S
C2224 C2223 1.403 . S
C2224 C2225 1.404 . S
C2224 C2227 1.539 . S
C2225 C2221 1.408 . S
C2225 C2224 1.404 . S
C2225 H2237 0.930 . S
C2226 C2222 1.524 . S
C2226 H2238 0.956 . S
C2226 H2239 0.961 . S
C2226 H2240 0.961 . S
C2227 C2224 1.539 . S
C2227 H2241 0.958 . S
C2227 H2242 0.961 . S
C2227 H2243 0.960 . S
H2228 C2212 0.931 . S
H2229 C2217 0.929 . S
H2230 C2218 0.960 . S
H2231 C2218 0.962 . S
H2232 C2218 0.960 . S
H2233 C2219 0.961 . S
H2234 C2219 0.961 . S
H2235 C2219 0.961 . S
H2236 C2220 0.931 . S
H2237 C2225 0.930 . S
H2238 C2226 0.956 . S
H2239 C2226 0.961 . S
H2240 C2226 0.961 . S
H2241 C2227 0.958 . S
H2242 C2227 0.961 . S
H2243 C2227 0.960 . S
C2244 C2245 1.391 . S
C2244 C2246 1.394 . S
C2244 H2260 0.931 . S
C2245 C2244 1.391 . S
C2245 C2249 1.376 . S
C2246 C2244 1.394 . S
C2246 C2247 1.369 . S
C2246 C2250 1.531 . S
C2247 C2246 1.369 . S
C2247 C2248 1.410 . S
C2247 C2255 1.503 . S
C2248 C2247 1.410 . S
C2248 C2249 1.392 . S
C2248 C2251 1.511 . S
C2249 C2245 1.376 . S
C2249 C2248 1.392 . S
C2249 H2261 0.929 . S
C2250 C2246 1.531 . S
C2250 H2262 0.960 . S
C2250 H2263 0.962 . S
C2250 H2264 0.960 . S
C2251 C2248 1.511 . S
C2251 H2265 0.961 . S
C2251 H2266 0.961 . S
C2251 H2267 0.961 . S
C2252 C2253 1.370 . S
C2252 C2254 1.363 . S
C2252 H2268 0.931 . S
C2253 C2252 1.370 . S
C2253 C2257 1.408 . S
C2254 C2252 1.363 . S
C2254 C2255 1.370 . S
C2254 C2258 1.524 . S
C2255 C2247 1.503 . S
C2255 C2254 1.370 . S
C2255 C2256 1.403 . S
C2256 C2255 1.403 . S
C2256 C2257 1.404 . S
C2256 C2259 1.539 . S
C2257 C2253 1.408 . S
C2257 C2256 1.404 . S
C2257 H2269 0.930 . S
C2258 C2254 1.524 . S
C2258 H2270 0.956 . S
C2258 H2271 0.961 . S
C2258 H2272 0.961 . S
C2259 C2256 1.539 . S
C2259 H2273 0.958 . S
C2259 H2274 0.961 . S
C2259 H2275 0.960 . S
H2260 C2244 0.931 . S
H2261 C2249 0.929 . S
H2262 C2250 0.960 . S
H2263 C2250 0.962 . S
H2264 C2250 0.960 . S
H2265 C2251 0.961 . S
H2266 C2251 0.961 . S
H2267 C2251 0.961 . S
H2268 C2252 0.931 . S
H2269 C2257 0.930 . S
H2270 C2258 0.956 . S
H2271 C2258 0.961 . S
H2272 C2258 0.961 . S
H2273 C2259 0.958 . S
H2274 C2259 0.961 . S
H2275 C2259 0.960 . S
C2276 C2277 1.391 . S
C2276 C2278 1.394 . S
C2276 H2292 0.931 . S
C2277 C2276 1.391 . S
C2277 C2281 1.376 . S
C2278 C2276 1.394 . S
C2278 C2279 1.369 . S
C2278 C2282 1.531 . S
C2279 C2278 1.369 . S
C2279 C2280 1.410 . S
C2279 C2287 1.503 . S
C2280 C2279 1.410 . S
C2280 C2281 1.392 . S
C2280 C2283 1.511 . S
C2281 C2277 1.376 . S
C2281 C2280 1.392 . S
C2281 H2293 0.929 . S
C2282 C2278 1.531 . S
C2282 H2294 0.960 . S
C2282 H2295 0.962 . S
C2282 H2296 0.960 . S
C2283 C2280 1.511 . S
C2283 H2297 0.961 . S
C2283 H2298 0.961 . S
C2283 H2299 0.961 . S
C2284 C2285 1.370 . S
C2284 C2286 1.363 . S
C2284 H2300 0.931 . S
C2285 C2284 1.370 . S
C2285 C2289 1.408 . S
C2286 C2284 1.363 . S
C2286 C2287 1.370 . S
C2286 C2290 1.524 . S
C2287 C2279 1.503 . S
C2287 C2286 1.370 . S
C2287 C2288 1.403 . S
C2288 C2287 1.403 . S
C2288 C2289 1.404 . S
C2288 C2291 1.539 . S
C2289 C2285 1.408 . S
C2289 C2288 1.404 . S
C2289 H2301 0.930 . S
C2290 C2286 1.524 . S
C2290 H2302 0.956 . S
C2290 H2303 0.961 . S
C2290 H2304 0.961 . S
C2291 C2288 1.539 . S
C2291 H2305 0.958 . S
C2291 H2306 0.961 . S
C2291 H2307 0.960 . S
H2292 C2276 0.931 . S
H2293 C2281 0.929 . S
H2294 C2282 0.960 . S
H2295 C2282 0.962 . S
H2296 C2282 0.960 . S
H2297 C2283 0.961 . S
H2298 C2283 0.961 . S
H2299 C2283 0.961 . S
H2300 C2284 0.931 . S
H2301 C2289 0.930 . S
H2302 C2290 0.956 . S
H2303 C2290 0.961 . S
H2304 C2290 0.961 . S
H2305 C2291 0.958 . S
H2306 C2291 0.961 . S
H2307 C2291 0.960 . S
C2308 C2309 1.391 . S
C2308 C2310 1.394 . S
C2308 H2324 0.931 . S
C2309 C2308 1.391 . S
C2309 C2313 1.376 . S
C2310 C2308 1.394 . S
C2310 C2311 1.369 . S
C2310 C2314 1.531 . S
C2311 C2310 1.369 . S
C2311 C2312 1.410 . S
C2311 C2319 1.503 . S
C2312 C2311 1.410 . S
C2312 C2313 1.392 . S
C2312 C2315 1.511 . S
C2313 C2309 1.376 . S
C2313 C2312 1.392 . S
C2313 H2325 0.929 . S
C2314 C2310 1.531 . S
C2314 H2326 0.960 . S
C2314 H2327 0.962 . S
C2314 H2328 0.960 . S
C2315 C2312 1.511 . S
C2315 H2329 0.961 . S
C2315 H2330 0.961 . S
C2315 H2331 0.961 . S
C2316 C2317 1.370 . S
C2316 C2318 1.363 . S
C2316 H2332 0.931 . S
C2317 C2316 1.370 . S
C2317 C2321 1.408 . S
C2318 C2316 1.363 . S
C2318 C2319 1.370 . S
C2318 C2322 1.524 . S
C2319 C2311 1.503 . S
C2319 C2318 1.370 . S
C2319 C2320 1.403 . S
C2320 C2319 1.403 . S
C2320 C2321 1.404 . S
C2320 C2323 1.539 . S
C2321 C2317 1.408 . S
C2321 C2320 1.404 . S
C2321 H2333 0.930 . S
C2322 C2318 1.524 . S
C2322 H2334 0.956 . S
C2322 H2335 0.961 . S
C2322 H2336 0.961 . S
C2323 C2320 1.539 . S
C2323 H2337 0.958 . S
C2323 H2338 0.961 . S
C2323 H2339 0.960 . S
H2324 C2308 0.931 . S
H2325 C2313 0.929 . S
H2326 C2314 0.960 . S
H2327 C2314 0.962 . S
H2328 C2314 0.960 . S
H2329 C2315 0.961 . S
H2330 C2315 0.961 . S
H2331 C2315 0.961 . S
H2332 C2316 0.931 . S
H2333 C2321 0.930 . S
H2334 C2322 0.956 . S
H2335 C2322 0.961 . S
H2336 C2322 0.961 . S
H2337 C2323 0.958 . S
H2338 C2323 0.961 . S
H2339 C2323 0.960 . S
C2340 C2341 1.391 . S
C2340 C2342 1.394 . S
C2340 H2356 0.931 . S
C2341 C2340 1.391 . S
C2341 C2345 1.376 . S
C2342 C2340 1.394 . S
C2342 C2343 1.369 . S
C2342 C2346 1.531 . S
C2343 C2342 1.369 . S
C2343 C2344 1.410 . S
C2343 C2351 1.503 . S
C2344 C2343 1.410 . S
C2344 C2345 1.392 . S
C2344 C2347 1.511 . S
C2345 C2341 1.376 . S
C2345 C2344 1.392 . S
C2345 H2357 0.929 . S
C2346 C2342 1.531 . S
C2346 H2358 0.960 . S
C2346 H2359 0.962 . S
C2346 H2360 0.960 . S
C2347 C2344 1.511 . S
C2347 H2361 0.961 . S
C2347 H2362 0.961 . S
C2347 H2363 0.961 . S
C2348 C2349 1.370 . S
C2348 C2350 1.363 . S
C2348 H2364 0.931 . S
C2349 C2348 1.370 . S
C2349 C2353 1.408 . S
C2350 C2348 1.363 . S
C2350 C2351 1.370 . S
C2350 C2354 1.524 . S
C2351 C2343 1.503 . S
C2351 C2350 1.370 . S
C2351 C2352 1.403 . S
C2352 C2351 1.403 . S
C2352 C2353 1.404 . S
C2352 C2355 1.539 . S
C2353 C2349 1.408 . S
C2353 C2352 1.404 . S
C2353 H2365 0.930 . S
C2354 C2350 1.524 . S
C2354 H2366 0.956 . S
C2354 H2367 0.961 . S
C2354 H2368 0.961 . S
C2355 C2352 1.539 . S
C2355 H2369 0.958 . S
C2355 H2370 0.961 . S
C2355 H2371 0.960 . S
H2356 C2340 0.931 . S
H2357 C2345 0.929 . S
H2358 C2346 0.960 . S
H2359 C2346 0.962 . S
H2360 C2346 0.960 . S
H2361 C2347 0.961 . S
H2362 C2347 0.961 . S
H2363 C2347 0.961 . S
H2364 C2348 0.931 . S
H2365 C2353 0.930 . S
H2366 C2354 0.956 . S
H2367 C2354 0.961 . S
H2368 C2354 0.961 . S
H2369 C2355 0.958 . S
H2370 C2355 0.961 . S
H2371 C2355 0.960 . S
C2372 C2373 1.391 . S
C2372 C2374 1.394 . S
C2372 H2388 0.931 . S
C2373 C2372 1.391 . S
C2373 C2377 1.376 . S
C2374 C2372 1.394 . S
C2374 C2375 1.369 . S
C2374 C2378 1.531 . S
C2375 C2374 1.369 . S
C2375 C2376 1.410 . S
C2375 C2383 1.503 . S
C2376 C2375 1.410 . S
C2376 C2377 1.392 . S
C2376 C2379 1.511 . S
C2377 C2373 1.376 . S
C2377 C2376 1.392 . S
C2377 H2389 0.929 . S
C2378 C2374 1.531 . S
C2378 H2390 0.960 . S
C2378 H2391 0.962 . S
C2378 H2392 0.960 . S
C2379 C2376 1.511 . S
C2379 H2393 0.961 . S
C2379 H2394 0.961 . S
C2379 H2395 0.961 . S
C2380 C2381 1.370 . S
C2380 C2382 1.363 . S
C2380 H2396 0.931 . S
C2381 C2380 1.370 . S
C2381 C2385 1.408 . S
C2382 C2380 1.363 . S
C2382 C2383 1.370 . S
C2382 C2386 1.524 . S
C2383 C2375 1.503 . S
C2383 C2382 1.370 . S
C2383 C2384 1.403 . S
C2384 C2383 1.403 . S
C2384 C2385 1.404 . S
C2384 C2387 1.539 . S
C2385 C2381 1.408 . S
C2385 C2384 1.404 . S
C2385 H2397 0.930 . S
C2386 C2382 1.524 . S
C2386 H2398 0.956 . S
C2386 H2399 0.961 . S
C2386 H2400 0.961 . S
C2387 C2384 1.539 . S
C2387 H2401 0.958 . S
C2387 H2402 0.961 . S
C2387 H2403 0.960 . S
H2388 C2372 0.931 . S
H2389 C2377 0.929 . S
H2390 C2378 0.960 . S
H2391 C2378 0.962 . S
H2392 C2378 0.960 . S
H2393 C2379 0.961 . S
H2394 C2379 0.961 . S
H2395 C2379 0.961 . S
H2396 C2380 0.931 . S
H2397 C2385 0.930 . S
H2398 C2386 0.956 . S
H2399 C2386 0.961 . S
H2400 C2386 0.961 . S
H2401 C2387 0.958 . S
H2402 C2387 0.961 . S
H2403 C2387 0.960 . S
C2404 C2405 1.391 . S
C2404 C2406 1.394 . S
C2404 H2420 0.931 . S
C2405 C2404 1.391 . S
C2405 C2409 1.376 . S
C2406 C2404 1.394 . S
C2406 C2407 1.369 . S
C2406 C2410 1.531 . S
C2407 C2406 1.369 . S
C2407 C2408 1.410 . S
C2407 C2415 1.503 . S
C2408 C2407 1.410 . S
C2408 C2409 1.392 . S
C2408 C2411 1.511 . S
C2409 C2405 1.376 . S
C2409 C2408 1.392 . S
C2409 H2421 0.929 . S
C2410 C2406 1.531 . S
C2410 H2422 0.960 . S
C2410 H2423 0.962 . S
C2410 H2424 0.960 . S
C2411 C2408 1.511 . S
C2411 H2425 0.961 . S
C2411 H2426 0.961 . S
C2411 H2427 0.961 . S
C2412 C2413 1.370 . S
C2412 C2414 1.363 . S
C2412 H2428 0.931 . S
C2413 C2412 1.370 . S
C2413 C2417 1.408 . S
C2414 C2412 1.363 . S
C2414 C2415 1.370 . S
C2414 C2418 1.524 . S
C2415 C2407 1.503 . S
C2415 C2414 1.370 . S
C2415 C2416 1.403 . S
C2416 C2415 1.403 . S
C2416 C2417 1.404 . S
C2416 C2419 1.539 . S
C2417 C2413 1.408 . S
C2417 C2416 1.404 . S
C2417 H2429 0.930 . S
C2418 C2414 1.524 . S
C2418 H2430 0.956 . S
C2418 H2431 0.961 . S
C2418 H2432 0.961 . S
C2419 C2416 1.539 . S
C2419 H2433 0.958 . S
C2419 H2434 0.961 . S
C2419 H2435 0.960 . S
H2420 C2404 0.931 . S
H2421 C2409 0.929 . S
H2422 C2410 0.960 . S
H2423 C2410 0.962 . S
H2424 C2410 0.960 . S
H2425 C2411 0.961 . S
H2426 C2411 0.961 . S
H2427 C2411 0.961 . S
H2428 C2412 0.931 . S
H2429 C2417 0.930 . S
H2430 C2418 0.956 . S
H2431 C2418 0.961 . S
H2432 C2418 0.961 . S
H2433 C2419 0.958 . S
H2434 C2419 0.961 . S
H2435 C2419 0.960 . S
C2436 C2437 1.391 . S
C2436 C2438 1.394 . S
C2436 H2452 0.931 . S
C2437 C2436 1.391 . S
C2437 C2441 1.376 . S
C2438 C2436 1.394 . S
C2438 C2439 1.369 . S
C2438 C2442 1.531 . S
C2439 C2438 1.369 . S
C2439 C2440 1.410 . S
C2439 C2447 1.503 . S
C2440 C2439 1.410 . S
C2440 C2441 1.392 . S
C2440 C2443 1.511 . S
C2441 C2437 1.376 . S
C2441 C2440 1.392 . S
C2441 H2453 0.929 . S
C2442 C2438 1.531 . S
C2442 H2454 0.960 . S
C2442 H2455 0.962 . S
C2442 H2456 0.960 . S
C2443 C2440 1.511 . S
C2443 H2457 0.961 . S
C2443 H2458 0.961 . S
C2443 H2459 0.961 . S
C2444 C2445 1.370 . S
C2444 C2446 1.363 . S
C2444 H2460 0.931 . S
C2445 C2444 1.370 . S
C2445 C2449 1.408 . S
C2446 C2444 1.363 . S
C2446 C2447 1.370 . S
C2446 C2450 1.524 . S
C2447 C2439 1.503 . S
C2447 C2446 1.370 . S
C2447 C2448 1.403 . S
C2448 C2447 1.403 . S
C2448 C2449 1.404 . S
C2448 C2451 1.539 . S
C2449 C2445 1.408 . S
C2449 C2448 1.404 . S
C2449 H2461 0.930 . S
C2450 C2446 1.524 . S
C2450 H2462 0.956 . S
C2450 H2463 0.961 . S
C2450 H2464 0.961 . S
C2451 C2448 1.539 . S
C2451 H2465 0.958 . S
C2451 H2466 0.961 . S
C2451 H2467 0.960 . S
H2452 C2436 0.931 . S
H2453 C2441 0.929 . S
H2454 C2442 0.960 . S
H2455 C2442 0.962 . S
H2456 C2442 0.960 . S
H2457 C2443 0.961 . S
H2458 C2443 0.961 . S
H2459 C2443 0.961 . S
H2460 C2444 0.931 . S
H2461 C2449 0.930 . S
H2462 C2450 0.956 . S
H2463 C2450 0.961 . S
H2464 C2450 0.961 . S
H2465 C2451 0.958 . S
H2466 C2451 0.961 . S
H2467 C2451 0.960 . S
C2468 C2469 1.391 . S
C2468 C2470 1.394 . S
C2468 H2484 0.931 . S
C2469 C2468 1.391 . S
C2469 C2473 1.376 . S
C2470 C2468 1.394 . S
C2470 C2471 1.369 . S
C2470 C2474 1.531 . S
C2471 C2470 1.369 . S
C2471 C2472 1.410 . S
C2471 C2479 1.503 . S
C2472 C2471 1.410 . S
C2472 C2473 1.392 . S
C2472 C2475 1.511 . S
C2473 C2469 1.376 . S
C2473 C2472 1.392 . S
C2473 H2485 0.929 . S
C2474 C2470 1.531 . S
C2474 H2486 0.960 . S
C2474 H2487 0.962 . S
C2474 H2488 0.960 . S
C2475 C2472 1.511 . S
C2475 H2489 0.961 . S
C2475 H2490 0.961 . S
C2475 H2491 0.961 . S
C2476 C2477 1.370 . S
C2476 C2478 1.363 . S
C2476 H2492 0.931 . S
C2477 C2476 1.370 . S
C2477 C2481 1.408 . S
C2478 C2476 1.363 . S
C2478 C2479 1.370 . S
C2478 C2482 1.524 . S
C2479 C2471 1.503 . S
C2479 C2478 1.370 . S
C2479 C2480 1.403 . S
C2480 C2479 1.403 . S
C2480 C2481 1.404 . S
C2480 C2483 1.539 . S
C2481 C2477 1.408 . S
C2481 C2480 1.404 . S
C2481 H2493 0.930 . S
C2482 C2478 1.524 . S
C2482 H2494 0.956 . S
C2482 H2495 0.961 . S
C2482 H2496 0.961 . S
C2483 C2480 1.539 . S
C2483 H2497 0.958 . S
C2483 H2498 0.961 . S
C2483 H2499 0.960 . S
H2484 C2468 0.931 . S
H2485 C2473 0.929 . S
H2486 C2474 0.960 . S
H2487 C2474 0.962 . S
H2488 C2474 0.960 . S
H2489 C2475 0.961 . S
H2490 C2475 0.961 . S
H2491 C2475 0.961 . S
H2492 C2476 0.931 . S
H2493 C2481 0.930 . S
H2494 C2482 0.956 . S
H2495 C2482 0.961 . S
H2496 C2482 0.961 . S
H2497 C2483 0.958 . S
H2498 C2483 0.961 . S
H2499 C2483 0.960 . S
C2500 C2501 1.391 . S
C2500 C2502 1.394 . S
C2500 H2516 0.931 . S
C2501 C2500 1.391 . S
C2501 C2505 1.376 . S
C2502 C2500 1.394 . S
C2502 C2503 1.369 . S
C2502 C2506 1.531 . S
C2503 C2502 1.369 . S
C2503 C2504 1.410 . S
C2503 C2511 1.503 . S
C2504 C2503 1.410 . S
C2504 C2505 1.392 . S
C2504 C2507 1.511 . S
C2505 C2501 1.376 . S
C2505 C2504 1.392 . S
C2505 H2517 0.929 . S
C2506 C2502 1.531 . S
C2506 H2518 0.960 . S
C2506 H2519 0.962 . S
C2506 H2520 0.960 . S
C2507 C2504 1.511 . S
C2507 H2521 0.961 . S
C2507 H2522 0.961 . S
C2507 H2523 0.961 . S
C2508 C2509 1.370 . S
C2508 C2510 1.363 . S
C2508 H2524 0.931 . S
C2509 C2508 1.370 . S
C2509 C2513 1.408 . S
C2510 C2508 1.363 . S
C2510 C2511 1.370 . S
C2510 C2514 1.524 . S
C2511 C2503 1.503 . S
C2511 C2510 1.370 . S
C2511 C2512 1.403 . S
C2512 C2511 1.403 . S
C2512 C2513 1.404 . S
C2512 C2515 1.539 . S
C2513 C2509 1.408 . S
C2513 C2512 1.404 . S
C2513 H2525 0.930 . S
C2514 C2510 1.524 . S
C2514 H2526 0.956 . S
C2514 H2527 0.961 . S
C2514 H2528 0.961 . S
C2515 C2512 1.539 . S
C2515 H2529 0.958 . S
C2515 H2530 0.961 . S
C2515 H2531 0.960 . S
H2516 C2500 0.931 . S
H2517 C2505 0.929 . S
H2518 C2506 0.960 . S
H2519 C2506 0.962 . S
H2520 C2506 0.960 . S
H2521 C2507 0.961 . S
H2522 C2507 0.961 . S
H2523 C2507 0.961 . S
H2524 C2508 0.931 . S
H2525 C2513 0.930 . S
H2526 C2514 0.956 . S
H2527 C2514 0.961 . S
H2528 C2514 0.961 . S
H2529 C2515 0.958 . S
H2530 C2515 0.961 . S
H2531 C2515 0.960 . S
C1005 C707 1.241 . S
C997 C74 1.157 . S
C1037 C685 0.314 . S
C1029 C142 0.808 . S
C1069 C682 0.793 . S
C1061 C231 0.843 . S
C1093 C322 1.572 . S
C1101 C694 1.641 . S
C1125 C406 0.829 . S
C1133 C677 0.319 . S
C1165 C699 0.769 . S
C1157 C494 0.828 . S
C1189 C562 1.574 . S
C1197 C704 1.652 . S
C1221 C651 1.187 . S
C1229 C700 1.240 . S
C1261 C758 1.696 . S
C1253 C58 1.637 . S
C1285 C151 1.343 . S
C1293 C808 1.362 . S
C1325 C731 2.792 . S
C1317 C224 2.655 . S
C1357 C807 0.778 . S
C1349 C315 0.744 . S
C1381 C399 0.833 . S
C1389 C736 0.799 . S
C1421 C802 1.676 . S
C1413 C478 1.583 . S
C1445 C571 1.229 . S
C1453 C761 1.349 . S
C1477 C644 2.691 . S
C1485 C793 2.779 . S
C1509 C67 2.711 . S
C1517 C785 2.788 . S
C1541 C392 1.342 . S
C1549 C815 1.378 . S
C1581 C739 2.818 . S
C1573 C487 2.687 . S
C1613 C790 0.794 . S
C1605 C578 0.749 . S
C1637 C658 1.638 . S
C1645 C748 1.700 . S
C1669 C238 1.600 . S
C1677 C812 1.689 . S
C1709 C754 1.362 . S
C1701 C308 1.218 . S
C1733 C158 0.738 . S
C1741 C753 0.804 . S
C1765 C662 1.185 . S
C1773 C869 1.240 . S
C1797 C394 0.851 . S
C1805 C847 0.332 . S
C1837 C844 0.795 . S
C1829 C483 0.705 . S
C1869 C856 1.643 . S
C1861 C574 1.562 . S
C1893 C154 0.641 . S
C1901 C839 0.256 . S
C1933 C861 0.788 . S
C1925 C242 0.839 . S
C1957 C310 1.581 . S
C1965 C866 1.652 . S
C1989 C63 1.164 . S
C1997 C862 1.243 . S
C2021 C646 1.572 . S
C2029 C920 1.688 . S
C2061 C970 1.361 . S
C2053 C403 1.323 . S
C2085 C476 2.689 . S
C2093 C893 2.789 . S
C2117 C567 0.840 . S
C2125 C969 0.791 . S
C2157 C898 0.804 . S
C2149 C147 0.856 . S
C2181 C226 1.575 . S
C2189 C964 1.683 . S
C2221 C923 1.350 . S
C2213 C319 1.248 . S
C2253 C955 2.781 . S
C2245 C56 2.698 . S
C2285 C947 2.787 . S
C2277 C655 2.712 . S
C2309 C140 1.289 . S
C2317 C977 1.368 . S
C2341 C235 2.682 . S
C2349 C901 2.805 . S
C2381 C952 0.792 . S
C2373 C326 0.784 . S
C2405 C70 1.642 . S
C2413 C910 1.682 . S
C2437 C490 1.666 . S
C2445 C974 1.696 . S
C2477 C916 1.354 . S
C2469 C560 1.284 . S
C2509 C915 0.825 . S
C2501 C410 0.871 . S
