# Generated by pormake.
# Topology dag, (6,3)-cn, num edge types: 1
# Building blocks:
#     Node 0, Type 0, BuildingBlock: OJICUG_clean_sbu_0, # of connection points: 6
#     Node 1, Type 0, BuildingBlock: OJICUG_clean_sbu_0, # of connection points: 6
#     Node 2, Type 0, BuildingBlock: OJICUG_clean_sbu_0, # of connection points: 6
#     Node 3, Type 0, BuildingBlock: OJICUG_clean_sbu_0, # of connection points: 6
#     Node 4, Type 1, BuildingBlock: OLANEW_clean_sbu_2, # of connection points: 3
#     Node 5, Type 1, BuildingBlock: OLANEW_clean_sbu_2, # of connection points: 3
#     Node 6, Type 1, BuildingBlock: OLANEW_clean_sbu_2, # of connection points: 3
#     Node 7, Type 1, BuildingBlock: OLANEW_clean_sbu_2, # of connection points: 3
#     Node 8, Type 1, BuildingBlock: OLANEW_clean_sbu_2, # of connection points: 3
#     Node 9, Type 1, BuildingBlock: OLANEW_clean_sbu_2, # of connection points: 3
#     Node 10, Type 1, BuildingBlock: OLANEW_clean_sbu_2, # of connection points: 3
#     Node 11, Type 1, BuildingBlock: OLANEW_clean_sbu_2, # of connection points: 3
#     Edge 12, Type (0, 1), BuildingBlock: ZUJKAS_clean_linker_0, # of connection points: 2
#     Edge 13, Type (0, 1), BuildingBlock: ZUJKAS_clean_linker_0, # of connection points: 2
#     Edge 14, Type (0, 1), BuildingBlock: ZUJKAS_clean_linker_0, # of connection points: 2
#     Edge 15, Type (0, 1), BuildingBlock: ZUJKAS_clean_linker_0, # of connection points: 2
#     Edge 16, Type (0, 1), BuildingBlock: ZUJKAS_clean_linker_0, # of connection points: 2
#     Edge 17, Type (0, 1), BuildingBlock: ZUJKAS_clean_linker_0, # of connection points: 2
#     Edge 18, Type (0, 1), BuildingBlock: ZUJKAS_clean_linker_0, # of connection points: 2
#     Edge 19, Type (0, 1), BuildingBlock: ZUJKAS_clean_linker_0, # of connection points: 2
#     Edge 20, Type (0, 1), BuildingBlock: ZUJKAS_clean_linker_0, # of connection points: 2
#     Edge 21, Type (0, 1), BuildingBlock: ZUJKAS_clean_linker_0, # of connection points: 2
#     Edge 22, Type (0, 1), BuildingBlock: ZUJKAS_clean_linker_0, # of connection points: 2
#     Edge 23, Type (0, 1), BuildingBlock: ZUJKAS_clean_linker_0, # of connection points: 2
#     Edge 24, Type (0, 1), BuildingBlock: ZUJKAS_clean_linker_0, # of connection points: 2
#     Edge 25, Type (0, 1), BuildingBlock: ZUJKAS_clean_linker_0, # of connection points: 2
#     Edge 26, Type (0, 1), BuildingBlock: ZUJKAS_clean_linker_0, # of connection points: 2
#     Edge 27, Type (0, 1), BuildingBlock: ZUJKAS_clean_linker_0, # of connection points: 2
#     Edge 28, Type (0, 1), BuildingBlock: ZUJKAS_clean_linker_0, # of connection points: 2
#     Edge 29, Type (0, 1), BuildingBlock: ZUJKAS_clean_linker_0, # of connection points: 2
#     Edge 30, Type (0, 1), BuildingBlock: ZUJKAS_clean_linker_0, # of connection points: 2
#     Edge 31, Type (0, 1), BuildingBlock: ZUJKAS_clean_linker_0, # of connection points: 2
#     Edge 32, Type (0, 1), BuildingBlock: ZUJKAS_clean_linker_0, # of connection points: 2
#     Edge 33, Type (0, 1), BuildingBlock: ZUJKAS_clean_linker_0, # of connection points: 2
#     Edge 34, Type (0, 1), BuildingBlock: ZUJKAS_clean_linker_0, # of connection points: 2
#     Edge 35, Type (0, 1), BuildingBlock: ZUJKAS_clean_linker_0, # of connection points: 2
# Relax obj value: 0.128
# Max RMSD: 0.155
# Mean RMSD: 0.117
data_MOF--net-dag--node1-OJICUG_clean_sbu_0--node2-OLANEW_clean_sbu_2--edge1-ZUJKAS_clean_linker_0
_symmetry_space_group_name_H-M    P1
_symmetry_Int_Tables_number       1
_symmetry_cell_setting            triclinic
loop_
_symmetry_equiv_pos_as_xyz
'x, y, z'
_cell_length_a     52.627725
_cell_length_b     48.995726
_cell_length_c     51.91233
_cell_angle_alpha  92.309385
_cell_angle_beta   94.095377
_cell_angle_gamma 91.16661
loop_
_atom_site_label
_atom_site_type_symbol
_atom_site_fract_x
_atom_site_fract_y
_atom_site_fract_z
_atom_type_partial_charge
Sc0 Sc 0.09977 0.9065 0.02105 0.0
Sc1 Sc 0.1223 0.84092 0.00569 0.0
Sc2 Sc 0.16563 0.89348 0.0289 0.0
O3 O 0.12922 0.88032 0.01858 0.0
C4 C 0.14306 0.94581 0.00134 0.0
C5 C 0.08443 0.87371 0.9676 0.0
C6 C 0.17292 0.8561 0.97829 0.0
C7 C 0.0751 0.85103 0.03982 0.0
C8 C 0.13434 0.92167 0.07306 0.0
C9 C 0.16578 0.83329 0.05076 0.0
O10 O 0.11983 0.9396 0.00405 0.0
O11 O 0.09735 0.85289 0.97348 0.0
O12 O 0.18002 0.87584 0.99404 0.0
O13 O 0.07586 0.87691 0.03843 0.0
O14 O 0.15487 0.91271 0.0646 0.0
O15 O 0.14665 0.82439 0.03625 0.0
O16 O 0.11313 0.92074 0.0596 0.0
O17 O 0.09083 0.83564 0.02923 0.0
O18 O 0.17465 0.85754 0.04998 0.0
O19 O 0.08354 0.89472 0.98272 0.0
O20 O 0.16128 0.931 0.00929 0.0
O21 O 0.15288 0.84176 0.98054 0.0
Sc22 Sc 0.70731 0.6166 0.47889 0.0
Sc23 Sc 0.66315 0.66924 0.46807 0.0
Sc24 Sc 0.64189 0.60306 0.48197 0.0
O25 O 0.67079 0.62969 0.4763 0.0
C26 C 0.67795 0.56457 0.4508 0.0
C27 C 0.70632 0.65384 0.42978 0.0
C28 C 0.61728 0.63695 0.43545 0.0
C29 C 0.71414 0.67683 0.50507 0.0
C30 C 0.68434 0.58737 0.52593 0.0
C31 C 0.62428 0.65744 0.51106 0.0
O32 O 0.69814 0.57852 0.45751 0.0
O33 O 0.68804 0.66849 0.43661 0.0
O34 O 0.61881 0.61583 0.44888 0.0
O35 O 0.72139 0.65265 0.50059 0.0
O36 O 0.66159 0.58727 0.51583 0.0
O37 O 0.63721 0.67392 0.4985 0.0
O38 O 0.70302 0.5978 0.51523 0.0
O39 O 0.69333 0.68578 0.49506 0.0
O40 O 0.62439 0.63169 0.50706 0.0
O41 O 0.71503 0.63431 0.44297 0.0
O42 O 0.65617 0.57142 0.45753 0.0
O43 O 0.63201 0.65777 0.44003 0.0
Sc44 Sc 0.85362 0.18386 0.04152 0.0
Sc45 Sc 0.81149 0.13132 0.01416 0.0
Sc46 Sc 0.87719 0.12008 0.02203 0.0
O47 O 0.84741 0.14514 0.02591 0.0
C48 C 0.90056 0.17727 0.00634 0.0
C49 C 0.81107 0.1927 0.99555 0.0
C50 C 0.84351 0.10552 0.96961 0.0
C51 C 0.80266 0.16545 0.06652 0.0
C52 C 0.89245 0.14968 0.07698 0.0
C53 C 0.83495 0.07883 0.04039 0.0
O54 O 0.88512 0.19192 0.01825 0.0
O55 O 0.80305 0.16799 0.99405 0.0
O56 O 0.86452 0.10721 0.98326 0.0
O57 O 0.82285 0.18016 0.06648 0.0
O58 O 0.89317 0.13002 0.06038 0.0
O59 O 0.8161 0.09313 0.03301 0.0
O60 O 0.87928 0.17082 0.07303 0.0
O61 O 0.79615 0.14737 0.0489 0.0
O62 O 0.85789 0.08598 0.03752 0.0
O63 O 0.82888 0.20143 0.01188 0.0
O64 O 0.89986 0.15132 0.00616 0.0
O65 O 0.82259 0.11319 0.97806 0.0
Sc66 Sc 0.3656 0.3935 0.55048 0.0
Sc67 Sc 0.30107 0.376 0.55728 0.0
Sc68 Sc 0.34937 0.32865 0.57164 0.0
O69 O 0.33863 0.36606 0.55979 0.0
C70 C 0.38754 0.33802 0.52761 0.0
C71 C 0.32107 0.40152 0.50643 0.0
C72 C 0.29918 0.31373 0.5354 0.0
C73 C 0.32751 0.43241 0.5792 0.0
C74 C 0.39196 0.36802 0.60117 0.0
C75 C 0.30516 0.34283 0.60892 0.0
O76 O 0.3856 0.36384 0.52832 0.0
O77 O 0.30328 0.39219 0.51924 0.0
O78 O 0.32095 0.30799 0.54574 0.0
O79 O 0.34915 0.42674 0.57127 0.0
O80 O 0.3789 0.34579 0.59896 0.0
O81 O 0.2949 0.36108 0.59513 0.0
O82 O 0.3894 0.38677 0.58499 0.0
O83 O 0.30831 0.41613 0.57567 0.0
O84 O 0.32426 0.32947 0.60236 0.0
O85 O 0.34425 0.40305 0.5153 0.0
O86 O 0.37574 0.3228 0.54221 0.0
O87 O 0.28932 0.33706 0.53843 0.0
O88 O 0.15145 0.01181 0.35351 0.0
Cd89 Cd 0.15286 0.02516 0.39943 0.0
O90 O 0.13753 0.05209 0.34321 0.0
Cd91 Cd 0.11974 0.08041 0.31635 0.0
O92 O 0.09381 0.10045 0.28887 0.0
C93 C 0.0811 0.08501 0.27219 0.0
O94 O 0.08478 0.05856 0.27218 0.0
C95 C 0.14385 0.02811 0.33631 0.0
C96 C 0.17494 0.07667 0.41175 0.0
O97 O 0.18848 0.05522 0.41147 0.0
O98 O 0.15094 0.07381 0.40579 0.0
O99 O 0.28062 0.71944 0.6767 0.0
Cd100 Cd 0.27994 0.76889 0.68499 0.0
O101 O 0.32214 0.7239 0.68011 0.0
Cd102 Cd 0.36124 0.71172 0.67509 0.0
O103 O 0.39952 0.70505 0.66293 0.0
C104 C 0.41231 0.72523 0.6556 0.0
O105 O 0.40233 0.74959 0.65625 0.0
C106 C 0.30231 0.70867 0.67578 0.0
C107 C 0.26859 0.78421 0.73506 0.0
O108 O 0.25093 0.78029 0.71688 0.0
O109 O 0.29169 0.78059 0.7296 0.0
O110 O 0.87129 0.67277 0.1314 0.0
Cd111 Cd 0.83485 0.64301 0.13817 0.0
O112 O 0.84731 0.70819 0.13719 0.0
Cd113 Cd 0.83862 0.75152 0.13569 0.0
O114 O 0.83649 0.79534 0.13068 0.0
C115 C 0.81524 0.80686 0.12664 0.0
O116 O 0.7941 0.79203 0.1259 0.0
C117 C 0.86882 0.69852 0.13241 0.0
C118 C 0.81525 0.65376 0.1859 0.0
O119 O 0.83296 0.63648 0.18335 0.0
O120 O 0.80685 0.6661 0.16582 0.0
O121 O 0.67165 0.42742 0.75649 0.0
Cd122 Cd 0.64883 0.40006 0.78615 0.0
O123 O 0.67349 0.46508 0.78117 0.0
Cd124 Cd 0.64703 0.44655 0.80621 0.0
O125 O 0.60781 0.4312 0.79927 0.0
C126 C 0.59383 0.44633 0.78518 0.0
O127 O 0.60337 0.4698 0.77854 0.0
C128 C 0.67897 0.45225 0.76057 0.0
C129 C 0.68019 0.36923 0.81863 0.0
O130 O 0.67062 0.35921 0.79679 0.0
O131 O 0.67523 0.39402 0.82494 0.0
O132 O 0.63668 0.2894 0.32898 0.0
Cd133 Cd 0.61709 0.24531 0.31444 0.0
O134 O 0.65933 0.27331 0.36194 0.0
Cd135 Cd 0.63453 0.23702 0.36036 0.0
O136 O 0.59744 0.2294 0.37535 0.0
C137 C 0.57996 0.24553 0.36811 0.0
O138 O 0.58475 0.26346 0.35084 0.0
C139 C 0.65373 0.29298 0.34749 0.0
C140 C 0.64298 0.22428 0.27349 0.0
O141 O 0.62443 0.24052 0.26966 0.0
O142 O 0.64894 0.21748 0.2967 0.0
O143 O 0.26516 0.19773 0.91787 0.0
Cd144 Cd 0.28782 0.24112 0.91344 0.0
O145 O 0.22982 0.21982 0.91068 0.0
Cd146 Cd 0.18858 0.22371 0.90552 0.0
O147 O 0.14745 0.22506 0.90724 0.0
C148 C 0.1371 0.24659 0.91552 0.0
O149 O 0.1515 0.26828 0.9223 0.0
C150 C 0.24097 0.19773 0.916 0.0
C151 C 0.28165 0.26084 0.86383 0.0
O152 O 0.30033 0.24562 0.87046 0.0
O153 O 0.26566 0.26657 0.88064 0.0
O154 O 0.37469 0.63332 0.2683 0.0
Cd155 Cd 0.33046 0.61988 0.25451 0.0
O156 O 0.3899 0.59469 0.25361 0.0
Cd157 Cd 0.35216 0.57548 0.24628 0.0
O158 O 0.32652 0.54961 0.26649 0.0
C159 C 0.32376 0.55759 0.2897 0.0
O160 O 0.33443 0.58101 0.29828 0.0
C161 C 0.39364 0.61836 0.26438 0.0
C162 C 0.30521 0.65525 0.22096 0.0
O163 O 0.30501 0.65891 0.24554 0.0
O164 O 0.31773 0.63513 0.21225 0.0
O165 O 0.9818 0.85313 0.69255 0.0
Cd166 Cd 0.96967 0.85302 0.64624 0.0
O167 O 0.94769 0.87612 0.70007 0.0
Cd168 Cd 0.92054 0.89612 0.72408 0.0
O169 O 0.89737 0.91998 0.74941 0.0
C170 C 0.8991 0.94588 0.74936 0.0
O171 O 0.9144 0.95725 0.73374 0.0
C172 C 0.96813 0.86506 0.70855 0.0
C173 C 0.92199 0.82869 0.63255 0.0
O174 O 0.94219 0.81449 0.63415 0.0
O175 O 0.92428 0.85446 0.63775 0.0
H176 H 0.17617 0.9397 0.10401 0.0
H177 H 0.17721 0.95923 0.14815 0.0
H178 H 0.09548 0.94958 0.14713 0.0
H179 H 0.09416 0.93089 0.1027 0.0
H180 H 0.11072 0.998 0.16857 0.0
H181 H 0.17031 0.91767 0.21233 0.0
H182 H 0.18544 0.93448 0.18725 0.0
H183 H 0.15657 0.91456 0.1795 0.0
C184 C 0.15841 0.94166 0.11319 0.0
C185 C 0.13509 0.93356 0.09984 0.0
C186 C 0.15905 0.95271 0.1385 0.0
C187 C 0.13648 0.95536 0.15118 0.0
C188 C 0.11316 0.94764 0.13779 0.0
H189 H 0.13029 0.97713 0.31711 0.0
H190 H 0.12707 0.96051 0.2719 0.0
C191 C 0.11245 0.93692 0.11238 0.0
C192 C 0.13708 0.96632 0.17833 0.0
H193 H 0.16339 0.95681 0.23925 0.0
C194 C 0.12218 0.98895 0.18405 0.0
C195 C 0.15169 0.95422 0.19862 0.0
C196 C 0.16669 0.92873 0.19421 0.0
C197 C 0.12167 0.99997 0.20942 0.0
C198 C 0.13707 0.98852 0.22951 0.0
C199 C 0.15179 0.96576 0.22381 0.0
C200 C 0.13782 0.99928 0.25673 0.0
C201 C 0.10407 0.02319 0.21456 0.0
C202 C 0.14506 0.02657 0.26332 0.0
C203 C 0.14667 0.03617 0.28916 0.0
C204 C 0.14134 0.01855 0.30887 0.0
C205 C 0.1344 0.99119 0.30228 0.0
C206 C 0.13255 0.98169 0.27647 0.0
H207 H 0.0888 0.0246 0.19877 0.0
H208 H 0.09503 0.02074 0.23303 0.0
H209 H 0.11515 0.04277 0.21595 0.0
H210 H 0.15005 0.04031 0.24856 0.0
H211 H 0.15289 0.0571 0.29376 0.0
H212 H 0.60901 0.71039 0.51887 0.0
H213 H 0.57621 0.72623 0.5469 0.0
H214 H 0.56789 0.6449 0.57439 0.0
H215 H 0.60034 0.62887 0.54664 0.0
H216 H 0.52221 0.66873 0.55214 0.0
H217 H 0.57428 0.73695 0.62746 0.0
H218 H 0.58047 0.74194 0.59429 0.0
H219 H 0.59009 0.71103 0.60916 0.0
C220 C 0.60055 0.69601 0.53126 0.0
C221 C 0.60712 0.6683 0.53027 0.0
C222 C 0.58189 0.70512 0.54731 0.0
C223 C 0.56973 0.68671 0.56272 0.0
C224 C 0.57708 0.6594 0.56262 0.0
H225 H 0.43862 0.67781 0.65232 0.0
H226 H 0.47782 0.67005 0.63083 0.0
C227 C 0.5956 0.65029 0.54665 0.0
C228 C 0.54756 0.69488 0.57695 0.0
H229 H 0.52954 0.73291 0.62885 0.0
C230 C 0.52379 0.68278 0.5689 0.0
C231 C 0.54973 0.71339 0.59861 0.0
C232 C 0.575 0.72655 0.60812 0.0
C233 C 0.50208 0.6885 0.58207 0.0
C234 C 0.50433 0.70637 0.60423 0.0
C235 C 0.52798 0.71903 0.61197 0.0
C236 C 0.4822 0.71183 0.61957 0.0
C237 C 0.47686 0.67553 0.57197 0.0
C238 C 0.47231 0.73815 0.62126 0.0
C239 C 0.44996 0.74271 0.63366 0.0
C240 C 0.43718 0.721 0.64461 0.0
C241 C 0.44782 0.69491 0.64386 0.0
C242 C 0.47019 0.69042 0.63153 0.0
H243 H 0.47708 0.6684 0.55139 0.0
H244 H 0.47278 0.65753 0.58345 0.0
H245 H 0.46111 0.69008 0.57375 0.0
H246 H 0.48142 0.75496 0.61225 0.0
H247 H 0.44235 0.76308 0.63404 0.0
H248 H 0.87009 0.04323 0.0598 0.0
H249 H 0.86219 0.99889 0.07779 0.0
H250 H 0.78118 0.01022 0.06676 0.0
H251 H 0.78879 0.05463 0.04841 0.0
H252 H 0.83425 0.98531 0.12085 0.0
H253 H 0.7927 0.93655 0.02814 0.0
H254 H 0.81055 0.9685 0.02954 0.0
H255 H 0.77831 0.96761 0.03876 0.0
C256 C 0.85056 0.03641 0.06117 0.0
C257 C 0.83007 0.05246 0.05239 0.0
C258 C 0.8461 0.01106 0.07155 0.0
C259 C 0.82113 0.00119 0.07328 0.0
C260 C 0.8006 0.01735 0.06519 0.0
H261 H 0.77334 0.83763 0.11534 0.0
H262 H 0.77261 0.88596 0.10502 0.0
C263 C 0.80502 0.04276 0.05479 0.0
C264 C 0.81682 0.97369 0.08311 0.0
H265 H 0.79566 0.90914 0.06433 0.0
C266 C 0.82565 0.96867 0.10858 0.0
C267 C 0.80551 0.95211 0.06704 0.0
C268 C 0.79636 0.95625 0.03928 0.0
C269 C 0.82381 0.94246 0.11834 0.0
C270 C 0.81328 0.9207 0.102 0.0
C271 C 0.80371 0.9259 0.07679 0.0
C272 C 0.81352 0.89205 0.11003 0.0
C273 C 0.83321 0.93831 0.14601 0.0
C274 C 0.83677 0.8795 0.11614 0.0
C275 C 0.83728 0.85196 0.12201 0.0
C276 C 0.81451 0.83637 0.12169 0.0
C277 C 0.7912 0.84907 0.11579 0.0
C278 C 0.79073 0.87666 0.1099 0.0
H279 H 0.83333 0.95769 0.15789 0.0
H280 H 0.82124 0.92285 0.1549 0.0
H281 H 0.85304 0.93096 0.14653 0.0
H282 H 0.85461 0.89085 0.11577 0.0
H283 H 0.85556 0.8428 0.12635 0.0
H284 H 0.42067 0.41424 0.61451 0.0
H285 H 0.45108 0.42234 0.65182 0.0
H286 H 0.43604 0.34112 0.67683 0.0
H287 H 0.40547 0.33261 0.63935 0.0
H288 H 0.44119 0.41786 0.70644 0.0
H289 H 0.51532 0.34745 0.67341 0.0
H290 H 0.49047 0.35986 0.65139 0.0
H291 H 0.48317 0.33423 0.6736 0.0
C292 C 0.4238 0.39797 0.62782 0.0
C293 C 0.41066 0.37268 0.62378 0.0
C294 C 0.44115 0.40272 0.6492 0.0
C295 C 0.44587 0.38228 0.66693 0.0
C296 C 0.4328 0.35705 0.66317 0.0
H297 H 0.57121 0.39567 0.78834 0.0
H298 H 0.53226 0.37796 0.76407 0.0
C299 C 0.41531 0.35227 0.64177 0.0
C300 C 0.46468 0.38772 0.6892 0.0
H301 H 0.52549 0.37414 0.71141 0.0
C302 C 0.45951 0.40807 0.70776 0.0
C303 C 0.48841 0.3747 0.69096 0.0
C304 C 0.49491 0.35292 0.67128 0.0
C305 C 0.47786 0.41646 0.72759 0.0
C306 C 0.50217 0.40459 0.72846 0.0
C307 C 0.50685 0.38324 0.71068 0.0
C308 C 0.52382 0.41594 0.74571 0.0
C309 C 0.47114 0.43826 0.74715 0.0
C310 C 0.53186 0.44318 0.74361 0.0
C311 C 0.55397 0.45333 0.75742 0.0
C312 C 0.56871 0.43637 0.77346 0.0
C313 C 0.56023 0.40929 0.77621 0.0
C314 C 0.53802 0.39912 0.76233 0.0
H315 H 0.45033 0.43807 0.74956 0.0
H316 H 0.48144 0.43559 0.76628 0.0
H317 H 0.47646 0.45861 0.74028 0.0
H318 H 0.52158 0.45635 0.73044 0.0
H319 H 0.55998 0.47425 0.75478 0.0
H320 H 0.72125 0.53779 0.43885 0.0
H321 H 0.72378 0.49217 0.41824 0.0
H322 H 0.64178 0.48652 0.40831 0.0
H323 H 0.63895 0.53176 0.42902 0.0
H324 H 0.66467 0.44279 0.43375 0.0
H325 H 0.70924 0.46341 0.34225 0.0
H326 H 0.72508 0.47829 0.3715 0.0
H327 H 0.69405 0.48965 0.36073 0.0
C328 C 0.70375 0.52703 0.43192 0.0
C329 C 0.67988 0.5384 0.43578 0.0
C330 C 0.70527 0.50101 0.42005 0.0
C331 C 0.68297 0.48608 0.41166 0.0
C332 C 0.65921 0.49775 0.41467 0.0
H333 H 0.64295 0.34013 0.32296 0.0
H334 H 0.65487 0.38669 0.33832 0.0
C335 C 0.65765 0.52363 0.42655 0.0
C336 C 0.68403 0.45744 0.4017 0.0
H337 H 0.70113 0.41714 0.35088 0.0
C338 C 0.67281 0.43712 0.41573 0.0
C339 C 0.6946 0.45025 0.37816 0.0
C340 C 0.70629 0.47149 0.3621 0.0
C341 C 0.67128 0.40981 0.40658 0.0
C342 C 0.68176 0.40254 0.38297 0.0
C343 C 0.69341 0.42278 0.36911 0.0
C344 C 0.67858 0.37446 0.37144 0.0
C345 C 0.65749 0.3892 0.42173 0.0
C346 C 0.68887 0.35216 0.38438 0.0
C347 C 0.68195 0.32546 0.37576 0.0
C348 C 0.66474 0.32067 0.35396 0.0
C349 C 0.65607 0.34307 0.33994 0.0
C350 C 0.66292 0.36973 0.34863 0.0
H351 H 0.64616 0.39915 0.43657 0.0
H352 H 0.64451 0.37587 0.40868 0.0
H353 H 0.67163 0.37605 0.43177 0.0
H354 H 0.70135 0.35544 0.40179 0.0
H355 H 0.68919 0.30867 0.38686 0.0
H356 H 0.93362 0.15324 0.97464 0.0
H357 H 0.96938 0.17464 0.95523 0.0
H358 H 0.94956 0.25322 0.98736 0.0
H359 H 0.91364 0.23194 0.00722 0.0
H360 H 0.97159 0.21933 0.92052 0.0
H361 H 0.02404 0.24128 0.01654 0.0
H362 H 0.99707 0.21777 0.01241 0.0
H363 H 0.99225 0.2539 0.01185 0.0
C364 C 0.93668 0.17511 0.97754 0.0
C365 C 0.9209 0.19081 0.99279 0.0
C366 C 0.95709 0.18731 0.9663 0.0
C367 C 0.96222 0.21541 0.97013 0.0
C368 C 0.94602 0.23142 0.98447 0.0
H369 H 0.10945 0.28763 0.93638 0.0
H370 H 0.06477 0.28537 0.94663 0.0
C371 C 0.92549 0.21922 0.99572 0.0
C372 C 0.98547 0.22725 0.96021 0.0
H373 H 0.04585 0.24952 0.9798 0.0
C374 C 0.98773 0.22636 0.93343 0.0
C375 C 0.00639 0.23651 0.97713 0.0
C376 C 0.00506 0.23736 0.00611 0.0
C377 C 0.01076 0.23353 0.92313 0.0
C378 C 0.03213 0.24122 0.94013 0.0
C379 C 0.02943 0.24357 0.96683 0.0
C380 C 0.05805 0.24402 0.93106 0.0
C381 C 0.01213 0.23228 0.89418 0.0
C382 C 0.06901 0.22157 0.91882 0.0
C383 C 0.09446 0.22276 0.91298 0.0
C384 C 0.10955 0.24638 0.91948 0.0
C385 C 0.09835 0.26914 0.93112 0.0
C386 C 0.07283 0.26791 0.93697 0.0
H387 H 0.99314 0.23546 0.88411 0.0
H388 H 0.02582 0.24783 0.88801 0.0
H389 H 0.01851 0.21175 0.88796 0.0
H390 H 0.05815 0.20269 0.91467 0.0
H391 H 0.10249 0.20485 0.90407 0.0
H392 H 0.27414 0.40259 0.4793 0.0
H393 H 0.26419 0.42176 0.43692 0.0
H394 H 0.34351 0.44373 0.43269 0.0
H395 H 0.35369 0.42433 0.47435 0.0
H396 H 0.27019 0.47385 0.42304 0.0
H397 H 0.32718 0.40788 0.36225 0.0
H398 H 0.3199 0.39905 0.3944 0.0
H399 H 0.34666 0.42144 0.3897 0.0
C400 C 0.2895 0.41119 0.46918 0.0
C401 C 0.31473 0.41182 0.48029 0.0
C402 C 0.28377 0.42212 0.44497 0.0
C403 C 0.30318 0.43367 0.43138 0.0
C404 C 0.32831 0.43421 0.44241 0.0
H405 H 0.31966 0.56724 0.34123 0.0
H406 H 0.30755 0.53483 0.37261 0.0
C407 C 0.33406 0.42328 0.46644 0.0
C408 C 0.29738 0.44715 0.40663 0.0
H409 H 0.32018 0.4539 0.34733 0.0
C410 C 0.28064 0.4691 0.40622 0.0
C411 C 0.3104 0.44053 0.38437 0.0
C412 C 0.32679 0.41572 0.38261 0.0
C413 C 0.2784 0.48608 0.38506 0.0
C414 C 0.29379 0.48136 0.36412 0.0
C415 C 0.30871 0.45793 0.36355 0.0
C416 C 0.29727 0.50198 0.34438 0.0
C417 C 0.26006 0.50931 0.38573 0.0
C418 C 0.29574 0.4944 0.3179 0.0
C419 C 0.30314 0.51289 0.2998 0.0
C420 C 0.31228 0.53926 0.30791 0.0
C421 C 0.31265 0.54714 0.33427 0.0
C422 C 0.30544 0.52865 0.35229 0.0
H423 H 0.24325 0.50378 0.39639 0.0
H424 H 0.26968 0.52734 0.39613 0.0
H425 H 0.25335 0.51512 0.36598 0.0
H426 H 0.28966 0.47387 0.31134 0.0
H427 H 0.30261 0.50618 0.27963 0.0
H428 H 0.08282 0.83364 0.92907 0.0
H429 H 0.06007 0.83381 0.88642 0.0
H430 H 0.03038 0.91299 0.90504 0.0
H431 H 0.05335 0.91328 0.9477 0.0
H432 H 0.00782 0.83779 0.87302 0.0
H433 H 0.06268 0.92462 0.83674 0.0
H434 H 0.07323 0.90717 0.86541 0.0
H435 H 0.04839 0.93171 0.86662 0.0
C436 C 0.07149 0.85116 0.92418 0.0
C437 C 0.07008 0.87353 0.94187 0.0
C438 C 0.05846 0.85117 0.89976 0.0
C439 C 0.04382 0.87356 0.89243 0.0
C440 C 0.04197 0.89573 0.91012 0.0
H441 H 0.96175 0.90619 0.74479 0.0
H442 H 0.97727 0.90807 0.79045 0.0
C443 C 0.05504 0.89578 0.93457 0.0
C444 C 0.03049 0.87352 0.86626 0.0
H445 H 0.0283 0.90626 0.80931 0.0
C446 C 0.01225 0.85278 0.85909 0.0
C447 C 0.03626 0.89316 0.84816 0.0
C448 C 0.05635 0.91532 0.85444 0.0
C449 C 0.99965 0.85111 0.83429 0.0
C450 C 0.00575 0.87045 0.81605 0.0
C451 C 0.02362 0.8915 0.82336 0.0
C452 C 0.99473 0.86849 0.78891 0.0
C453 C 0.97978 0.82877 0.82787 0.0
C454 C 0.99948 0.84569 0.77289 0.0
C455 C 0.99039 0.84444 0.7469 0.0
C456 C 0.97629 0.86594 0.73645 0.0
C457 C 0.9716 0.88881 0.7525 0.0
C458 C 0.98078 0.89008 0.77851 0.0
H459 H 0.97223 0.82072 0.84559 0.0
H460 H 0.96364 0.8362 0.81529 0.0
H461 H 0.98852 0.8116 0.81736 0.0
H462 H 0.01073 0.8291 0.78034 0.0
H463 H 0.99456 0.82671 0.73491 0.0
H464 H 0.80252 0.08663 0.93742 0.0
H465 H 0.80389 0.05969 0.89662 0.0
H466 H 0.88582 0.06797 0.90189 0.0
H467 H 0.88478 0.09466 0.94238 0.0
H468 H 0.82883 0.07089 0.84764 0.0
H469 H 0.8683 0.9837 0.90118 0.0
H470 H 0.85223 0.0114 0.9167 0.0
H471 H 0.88485 0.01569 0.90918 0.0
C472 C 0.8208 0.08305 0.92969 0.0
C473 C 0.84357 0.09245 0.94338 0.0
C474 C 0.82152 0.06767 0.90642 0.0
C475 C 0.84498 0.06153 0.89661 0.0
C476 C 0.86756 0.07218 0.90944 0.0
H477 H 0.90358 0.00112 0.75843 0.0
H478 H 0.88501 0.02844 0.79231 0.0
C479 C 0.86689 0.08743 0.93259 0.0
C480 C 0.84643 0.04272 0.87383 0.0
H481 H 0.87221 0.98232 0.85568 0.0
C482 C 0.83794 0.05132 0.84932 0.0
C483 C 0.85789 0.01703 0.87622 0.0
C484 C 0.86614 0.00622 0.90225 0.0
C485 C 0.84197 0.03542 0.82689 0.0
C486 C 0.85515 0.01063 0.8292 0.0
C487 C 0.86229 0.00142 0.85386 0.0
C488 C 0.86351 0.99477 0.80652 0.0
C489 C 0.83234 0.04547 0.80099 0.0
C490 C 0.85781 0.96667 0.80335 0.0
C491 C 0.86874 0.95087 0.78423 0.0
C492 C 0.88563 0.96291 0.76796 0.0
C493 C 0.8906 0.99123 0.77059 0.0
C494 C 0.87977 0.00696 0.7898 0.0
H495 H 0.81568 0.05881 0.80283 0.0
H496 H 0.84763 0.05776 0.79297 0.0
H497 H 0.82678 0.02821 0.78708 0.0
H498 H 0.84544 0.95681 0.81616 0.0
H499 H 0.86445 0.92913 0.78264 0.0
H500 H 0.42011 0.36349 0.49688 0.0
H501 H 0.44976 0.34221 0.46847 0.0
H502 H 0.42397 0.26238 0.48883 0.0
H503 H 0.39413 0.28337 0.5173 0.0
H504 H 0.4891 0.30502 0.48547 0.0
H505 H 0.42092 0.25943 0.40783 0.0
H506 H 0.41242 0.28688 0.42964 0.0
H507 H 0.41458 0.25271 0.44063 0.0
C508 C 0.42053 0.3414 0.49521 0.0
C509 C 0.40473 0.32516 0.50945 0.0
C510 C 0.43752 0.3293 0.47897 0.0
C511 C 0.43887 0.30077 0.47644 0.0
C512 C 0.42295 0.28444 0.49029 0.0
H513 H 0.56802 0.21955 0.41165 0.0
H514 H 0.53209 0.22899 0.43793 0.0
C515 C 0.40601 0.29651 0.50665 0.0
C516 C 0.45791 0.28828 0.46029 0.0
H517 H 0.46459 0.2508 0.40437 0.0
C518 C 0.48379 0.29301 0.46782 0.0
C519 C 0.45079 0.27274 0.43728 0.0
C520 C 0.42319 0.26769 0.42813 0.0
C521 C 0.50284 0.28287 0.45276 0.0
C522 C 0.49577 0.26738 0.42969 0.0
C523 C 0.46988 0.26243 0.42224 0.0
C524 C 0.51511 0.25822 0.41213 0.0
C525 C 0.53039 0.28959 0.46116 0.0
C526 C 0.51674 0.27065 0.38844 0.0
C527 C 0.53718 0.26533 0.37342 0.0
C528 C 0.5563 0.24739 0.38179 0.0
C529 C 0.55368 0.23357 0.40472 0.0
C530 C 0.53324 0.239 0.41981 0.0
H531 H 0.53238 0.30558 0.47702 0.0
H532 H 0.53975 0.27092 0.46817 0.0
H533 H 0.54069 0.29671 0.44465 0.0
H534 H 0.50286 0.28548 0.38218 0.0
H535 H 0.53851 0.27615 0.35576 0.0
H536 H 0.19051 0.9679 0.99655 0.0
H537 H 0.2015 0.01168 0.97912 0.0
H538 H 0.12197 0.02689 0.96129 0.0
H539 H 0.11051 0.98289 0.97893 0.0
H540 H 0.16286 0.03671 0.91988 0.0
H541 H 0.18106 0.08811 0.0172 0.0
H542 H 0.19374 0.05451 0.01284 0.0
H543 H 0.15988 0.05867 0.01132 0.0
C544 C 0.17523 0.98035 0.98883 0.0
C545 C 0.14955 0.97183 0.98932 0.0
C546 C 0.18162 0.00541 0.97889 0.0
C547 C 0.16254 0.02247 0.96911 0.0
C548 C 0.13693 0.01391 0.96884 0.0
H549 H 0.19645 0.19325 0.9398 0.0
H550 H 0.17386 0.15131 0.9499 0.0
C551 C 0.13044 0.98882 0.97897 0.0
C552 C 0.1697 0.04956 0.95995 0.0
H553 H 0.19484 0.11172 0.9816 0.0
C554 C 0.16957 0.05328 0.93329 0.0
C555 C 0.17825 0.07108 0.97756 0.0
C556 C 0.17816 0.06814 0.00637 0.0
C557 C 0.17873 0.0778 0.92379 0.0
C558 C 0.18839 0.09889 0.94145 0.0
C559 C 0.18753 0.09548 0.96809 0.0
C560 C 0.20057 0.1242 0.93287 0.0
C561 C 0.17816 0.08087 0.89497 0.0
C562 C 0.2231 0.12288 0.91998 0.0
C563 C 0.23592 0.14683 0.914 0.0
C564 C 0.22635 0.17253 0.92067 0.0
C565 C 0.20372 0.17381 0.93345 0.0
C566 C 0.19096 0.14985 0.93952 0.0
H567 H 0.1641 0.06647 0.88443 0.0
H568 H 0.17342 0.10206 0.88984 0.0
H569 H 0.19725 0.07638 0.88827 0.0
H570 H 0.2312 0.10332 0.91523 0.0
H571 H 0.25349 0.14526 0.90442 0.0
H572 H 0.58224 0.59656 0.41972 0.0
H573 H 0.54703 0.59839 0.38672 0.0
H574 H 0.57009 0.68039 0.37015 0.0
H575 H 0.60567 0.67878 0.4031 0.0
H576 H 0.50773 0.63644 0.38727 0.0
H577 H 0.55967 0.64103 0.29786 0.0
H578 H 0.57443 0.62992 0.32801 0.0
H579 H 0.56959 0.66561 0.32346 0.0
C580 C 0.58007 0.61495 0.40896 0.0
C581 C 0.59685 0.63756 0.4142 0.0
C582 C 0.55989 0.61594 0.39007 0.0
C583 C 0.55606 0.63943 0.37586 0.0
C584 C 0.57294 0.6619 0.38063 0.0
H585 H 0.4081 0.665 0.29317 0.0
H586 H 0.44879 0.67408 0.31822 0.0
C587 C 0.5932 0.66096 0.39959 0.0
C588 C 0.53346 0.64073 0.35722 0.0
H589 H 0.51479 0.64396 0.29301 0.0
C590 C 0.50925 0.63827 0.36668 0.0
C591 C 0.53557 0.64295 0.33037 0.0
C592 C 0.56118 0.64483 0.31916 0.0
C593 C 0.48705 0.63756 0.35001 0.0
C594 C 0.48909 0.63983 0.32314 0.0
C595 C 0.5133 0.64256 0.31365 0.0
C596 C 0.4663 0.63715 0.30462 0.0
C597 C 0.46163 0.63335 0.36122 0.0
C598 C 0.4632 0.61417 0.28761 0.0
C599 C 0.44004 0.60898 0.27316 0.0
C600 C 0.41954 0.62671 0.27546 0.0
C601 C 0.42339 0.6508 0.29107 0.0
C602 C 0.4466 0.65598 0.30551 0.0
H603 H 0.46378 0.62654 0.3814 0.0
H604 H 0.45135 0.6529 0.36131 0.0
H605 H 0.44968 0.61795 0.34933 0.0
H606 H 0.47822 0.59946 0.28656 0.0
H607 H 0.43784 0.59033 0.26121 0.0
H608 H 0.36357 0.47334 0.5882 0.0
H609 H 0.35835 0.51898 0.60726 0.0
H610 H 0.27981 0.49943 0.61856 0.0
H611 H 0.28477 0.45344 0.59952 0.0
H612 H 0.32256 0.55746 0.58782 0.0
H613 H 0.30926 0.53314 0.6898 0.0
H614 H 0.32321 0.50954 0.66749 0.0
H615 H 0.28938 0.51404 0.66551 0.0
C616 C 0.34519 0.47853 0.5949 0.0
C617 C 0.32456 0.45961 0.59223 0.0
C618 C 0.34227 0.50469 0.60579 0.0
C619 C 0.31877 0.51249 0.61448 0.0
C620 C 0.29821 0.49365 0.61229 0.0
H621 H 0.26893 0.67813 0.64355 0.0
H622 H 0.27246 0.63016 0.62925 0.0
C623 C 0.30107 0.46741 0.60129 0.0
C624 C 0.31561 0.54087 0.62451 0.0
H625 H 0.30411 0.57926 0.67869 0.0
C626 C 0.3185 0.56224 0.60767 0.0
C627 C 0.31053 0.54699 0.65047 0.0
C628 C 0.30809 0.5248 0.66951 0.0
C629 C 0.31624 0.5896 0.61605 0.0
C630 C 0.31079 0.59572 0.64189 0.0
C631 C 0.30813 0.57441 0.65884 0.0
C632 C 0.30806 0.62425 0.65158 0.0
C633 C 0.32004 0.61187 0.59735 0.0
C634 C 0.32664 0.63654 0.66929 0.0
C635 C 0.32473 0.66396 0.67741 0.0
C636 C 0.30413 0.67944 0.66803 0.0
C637 C 0.28511 0.66675 0.65097 0.0
C638 C 0.28712 0.63942 0.64272 0.0
H639 H 0.32864 0.60409 0.57963 0.0
H640 H 0.30132 0.62064 0.59151 0.0
H641 H 0.33246 0.6286 0.60664 0.0
H642 H 0.34281 0.62503 0.67652 0.0
H643 H 0.33921 0.67291 0.69124 0.0
H644 H 0.03956 0.87573 0.06887 0.0
H645 H 0.00533 0.85344 0.09054 0.0
H646 H 0.02968 0.77469 0.06295 0.0
H647 H 0.06404 0.79649 0.04187 0.0
H648 H 0.96567 0.82178 0.06952 0.0
H649 H 0.02387 0.76145 0.13831 0.0
H650 H 0.03732 0.78886 0.12102 0.0
H651 H 0.03249 0.75525 0.10584 0.0
C652 C 0.03778 0.85364 0.06763 0.0
C653 C 0.0547 0.83793 0.05371 0.0
C654 C 0.0182 0.84095 0.08003 0.0
C655 C 0.01526 0.81236 0.07881 0.0
C656 C 0.03201 0.79671 0.06482 0.0
H657 H 0.90606 0.68706 0.10026 0.0
H658 H 0.94141 0.71694 0.08978 0.0
C659 C 0.0516 0.8093 0.05259 0.0
C660 C 0.9939 0.7987 0.0908 0.0
H661 H 0.98021 0.74593 0.12898 0.0
C662 C 0.96883 0.80555 0.08291 0.0
C663 C 0.99804 0.77762 0.1084 0.0
C664 C 0.0244 0.77057 0.11909 0.0
C665 C 0.94785 0.79086 0.09103 0.0
C666 C 0.95213 0.76885 0.10743 0.0
C667 C 0.97708 0.76269 0.11617 0.0
C668 C 0.931 0.75092 0.11444 0.0
C669 C 0.92127 0.79811 0.0812 0.0
C670 C 0.91381 0.76005 0.13214 0.0
C671 C 0.89373 0.74293 0.13834 0.0
C672 C 0.89036 0.71659 0.12664 0.0
C673 C 0.90803 0.70734 0.1094 0.0
C674 C 0.92818 0.72437 0.10336 0.0
H675 H 0.92132 0.8141 0.06661 0.0
H676 H 0.91089 0.77967 0.07244 0.0
H677 H 0.91062 0.80575 0.09762 0.0
H678 H 0.91604 0.78031 0.14128 0.0
H679 H 0.88122 0.75015 0.15266 0.0
H680 H 0.72782 0.59096 0.55865 0.0
H681 H 0.73472 0.57125 0.60113 0.0
H682 H 0.65878 0.53569 0.59296 0.0
H683 H 0.65148 0.5557 0.55095 0.0
H684 H 0.66931 0.56188 0.63971 0.0
H685 H 0.74756 0.492 0.61768 0.0
H686 H 0.75327 0.52735 0.61154 0.0
H687 H 0.72842 0.5083 0.59276 0.0
C688 C 0.71264 0.5788 0.56583 0.0
C689 C 0.68909 0.5749 0.55134 0.0
C690 C 0.71668 0.56744 0.59007 0.0
C691 C 0.69738 0.55172 0.60007 0.0
C692 C 0.67395 0.54774 0.5856 0.0
H693 H 0.68651 0.43282 0.71175 0.0
H694 H 0.69601 0.45953 0.67491 0.0
C695 C 0.66982 0.55922 0.56155 0.0
C696 C 0.70096 0.53991 0.62589 0.0
H697 H 0.73435 0.49263 0.66015 0.0
C698 C 0.68368 0.54692 0.6443 0.0
C699 C 0.71968 0.52033 0.63173 0.0
C700 C 0.73819 0.51131 0.61237 0.0
C701 C 0.68391 0.53416 0.668 0.0
C702 C 0.70248 0.51436 0.6738 0.0
C703 C 0.72034 0.50801 0.65575 0.0
C704 C 0.70157 0.49783 0.69705 0.0
C705 C 0.66332 0.54091 0.68592 0.0
C706 C 0.70284 0.51021 0.72199 0.0
C707 C 0.6971 0.495 0.74316 0.0
C708 C 0.69035 0.46709 0.73973 0.0
C709 C 0.69142 0.45431 0.71509 0.0
C710 C 0.6969 0.46956 0.69395 0.0
H711 H 0.6475 0.55212 0.67611 0.0
H712 H 0.65527 0.52205 0.69365 0.0
H713 H 0.67157 0.55404 0.70246 0.0
H714 H 0.70708 0.53188 0.7249 0.0
H715 H 0.69676 0.50541 0.76193 0.0
H716 H 0.91152 0.10356 0.0975 0.0
H717 H 0.94073 0.09981 0.13557 0.0
H718 H 0.93912 0.18697 0.15033 0.0
H719 H 0.90962 0.19104 0.1118 0.0
H720 H 0.98911 0.16424 0.14978 0.0
H721 H 0.92808 0.10757 0.21286 0.0
H722 H 0.92716 0.09275 0.18061 0.0
H723 H 0.9152 0.12651 0.18595 0.0
C724 C 0.9171 0.12199 0.10891 0.0
C725 C 0.90828 0.14764 0.10155 0.0
C726 C 0.93368 0.11974 0.13081 0.0
C727 C 0.94182 0.14305 0.14593 0.0
C728 C 0.93284 0.16872 0.13898 0.0
H729 H 0.06641 0.13824 0.26895 0.0
H730 H 0.03242 0.15608 0.23999 0.0
C731 C 0.91597 0.17099 0.11705 0.0
C732 C 0.96113 0.14026 0.16775 0.0
H733 H 0.97343 0.10368 0.2216 0.0
C734 C 0.98563 0.15154 0.16586 0.0
C735 C 0.95645 0.12367 0.18864 0.0
C736 C 0.93022 0.11215 0.19232 0.0
C737 C 0.006 0.14512 0.18339 0.0
C738 C 0.00157 0.12724 0.20339 0.0
C739 C 0.97679 0.11719 0.20608 0.0
C740 C 0.02261 0.11701 0.22055 0.0
C741 C 0.03237 0.15618 0.17955 0.0
C742 C 0.02821 0.08914 0.21927 0.0
C743 C 0.04751 0.07888 0.23574 0.0
C744 C 0.06151 0.0963 0.25396 0.0
C745 C 0.05602 0.1243 0.25507 0.0
C746 C 0.03667 0.13456 0.23851 0.0
H747 H 0.03323 0.16625 0.16082 0.0
H748 H 0.03819 0.17145 0.19535 0.0
H749 H 0.04636 0.13952 0.18033 0.0
H750 H 0.01755 0.07528 0.2055 0.0
H751 H 0.05127 0.05724 0.23433 0.0
H752 H 0.20524 0.84541 0.08699 0.0
H753 H 0.22809 0.8142 0.1153 0.0
H754 H 0.17946 0.7473 0.08388 0.0
H755 H 0.15612 0.77845 0.05562 0.0
H756 H 0.18728 0.74762 0.13734 0.0
H757 H 0.27913 0.75825 0.09218 0.0
H758 H 0.26661 0.79028 0.10275 0.0
H759 H 0.24951 0.76998 0.07728 0.0
C760 C 0.19931 0.82408 0.08603 0.0
C761 C 0.17891 0.81446 0.06881 0.0
C762 C 0.21254 0.80622 0.10217 0.0
C763 C 0.20582 0.77833 0.10131 0.0
C764 C 0.18508 0.76873 0.08469 0.0
H765 H 0.30023 0.65137 0.16809 0.0
H766 H 0.2754 0.68038 0.13891 0.0
C767 C 0.17176 0.78659 0.06855 0.0
C768 C 0.22039 0.75928 0.11792 0.0
H769 H 0.28015 0.73551 0.1319 0.0
C770 C 0.20756 0.74485 0.13609 0.0
C771 C 0.24677 0.75538 0.11597 0.0
C772 C 0.2613 0.76907 0.09583 0.0
C773 C 0.22054 0.72714 0.15281 0.0
C774 C 0.24714 0.72417 0.15161 0.0
C775 C 0.25983 0.73807 0.133 0.0
C776 C 0.26216 0.70666 0.16942 0.0
C777 C 0.20559 0.71152 0.17138 0.0
C778 C 0.26331 0.71208 0.19624 0.0
C779 C 0.27744 0.69551 0.21298 0.0
C780 C 0.29088 0.67332 0.20319 0.0
C781 C 0.29007 0.66825 0.17627 0.0
C782 C 0.27588 0.68481 0.15956 0.0
H783 H 0.18497 0.71019 0.16506 0.0
H784 H 0.21277 0.6905 0.17337 0.0
H785 H 0.20764 0.72221 0.19069 0.0
H786 H 0.25336 0.72921 0.20425 0.0
H787 H 0.27778 0.70009 0.23359 0.0
H788 H 0.70786 0.7312 0.51824 0.0
H789 H 0.73767 0.76175 0.54463 0.0
H790 H 0.78885 0.69507 0.55653 0.0
H791 H 0.75927 0.66442 0.53073 0.0
H792 H 0.78267 0.72702 0.60156 0.0
H793 H 0.80485 0.79076 0.51919 0.0
H794 H 0.77186 0.78762 0.52574 0.0
H795 H 0.78824 0.75815 0.51448 0.0
C796 C 0.72539 0.723 0.52658 0.0
C797 C 0.73122 0.69536 0.52212 0.0
C798 C 0.74245 0.74053 0.54156 0.0
C799 C 0.76562 0.73074 0.5522 0.0
C800 C 0.7711 0.70306 0.54842 0.0
H801 H 0.91084 0.77436 0.62349 0.0
H802 H 0.87023 0.75317 0.60693 0.0
C803 C 0.75414 0.68557 0.53356 0.0
C804 C 0.78477 0.74913 0.56672 0.0
H805 H 0.82788 0.80065 0.55896 0.0
C806 C 0.79236 0.74335 0.59236 0.0
C807 C 0.7973 0.77048 0.55469 0.0
C808 C 0.79037 0.77713 0.52696 0.0
C809 C 0.81271 0.75775 0.60603 0.0
C810 C 0.82601 0.77819 0.59358 0.0
C811 C 0.81764 0.78491 0.5684 0.0
C812 C 0.84995 0.79113 0.60542 0.0
C813 C 0.82008 0.75067 0.63353 0.0
C814 C 0.8521 0.81955 0.60977 0.0
C815 C 0.87536 0.83177 0.61922 0.0
C816 C 0.89694 0.81577 0.62414 0.0
C817 C 0.8946 0.78727 0.61997 0.0
C818 C 0.87135 0.7751 0.61067 0.0
H819 H 0.80387 0.74101 0.64263 0.0
H820 H 0.83579 0.73589 0.63364 0.0
H821 H 0.82682 0.7691 0.64543 0.0
H822 H 0.83584 0.83228 0.60562 0.0
H823 H 0.87656 0.85379 0.62216 0.0
H824 H 0.80164 0.20954 0.10046 0.0
H825 H 0.77399 0.216 0.13593 0.0
H826 H 0.73904 0.13652 0.11757 0.0
H827 H 0.76602 0.13027 0.08148 0.0
H828 H 0.704 0.17289 0.12618 0.0
H829 H 0.77991 0.1834 0.20553 0.0
H830 H 0.78404 0.2079 0.18135 0.0
H831 H 0.78618 0.17197 0.17318 0.0
C832 C 0.78815 0.19337 0.10403 0.0
C833 C 0.78609 0.16935 0.08818 0.0
C834 C 0.77248 0.19701 0.12445 0.0
C835 C 0.75483 0.17649 0.12978 0.0
C836 C 0.75263 0.15257 0.11391 0.0
H837 H 0.67799 0.18379 0.27354 0.0
H838 H 0.70377 0.16938 0.23823 0.0
C839 C 0.76805 0.14905 0.09327 0.0
C840 C 0.73801 0.18041 0.15131 0.0
H841 H 0.7384 0.19771 0.21567 0.0
C842 C 0.71153 0.17805 0.1458 0.0
C843 C 0.74782 0.1866 0.17703 0.0
C844 C 0.77605 0.18732 0.18469 0.0
C845 C 0.69458 0.18256 0.16512 0.0
C846 C 0.70437 0.19049 0.19048 0.0
C847 C 0.73087 0.19198 0.19616 0.0
C848 C 0.68758 0.198 0.21128 0.0
C849 C 0.66638 0.17849 0.15816 0.0
C850 C 0.66992 0.21888 0.20789 0.0
C851 C 0.65494 0.22688 0.22789 0.0
C852 C 0.65771 0.21454 0.25187 0.0
C853 C 0.67541 0.19366 0.25527 0.0
C854 C 0.69017 0.18543 0.23513 0.0
H855 H 0.66269 0.16393 0.14127 0.0
H856 H 0.65638 0.17071 0.1746 0.0
H857 H 0.65811 0.19831 0.15283 0.0
H858 H 0.6681 0.22945 0.18995 0.0
H859 H 0.64168 0.24324 0.22476 0.0
H860 H 0.27613 0.37544 0.63912 0.0
H861 H 0.26364 0.36649 0.68283 0.0
H862 H 0.29924 0.2881 0.67903 0.0
H863 H 0.31177 0.29673 0.63579 0.0
H864 H 0.24771 0.29022 0.7003 0.0
H865 H 0.32088 0.36494 0.74528 0.0
H866 H 0.29912 0.37563 0.71943 0.0
H867 H 0.32269 0.35091 0.71278 0.0
C868 C 0.28097 0.35616 0.6475 0.0
C869 C 0.29516 0.33691 0.6341 0.0
C870 C 0.2739 0.35114 0.67244 0.0
C871 C 0.2807 0.32672 0.6841 0.0
C872 C 0.29384 0.30707 0.67032 0.0
H873 H 0.31505 0.25658 0.82612 0.0
H874 H 0.3111 0.27535 0.78316 0.0
C875 C 0.30109 0.31213 0.64565 0.0
C876 C 0.27583 0.32186 0.71124 0.0
H877 H 0.30083 0.336 0.77294 0.0
C878 C 0.25883 0.30063 0.7163 0.0
C879 C 0.29065 0.33533 0.73192 0.0
C880 C 0.30948 0.35794 0.7273 0.0
C881 C 0.25701 0.29178 0.74151 0.0
C882 C 0.27264 0.30447 0.76198 0.0
C883 C 0.28885 0.32644 0.75709 0.0
C884 C 0.27448 0.29332 0.78805 0.0
C885 C 0.23949 0.26796 0.746 0.0
C886 C 0.25514 0.29731 0.80494 0.0
C887 C 0.25736 0.28668 0.82961 0.0
C888 C 0.27893 0.27182 0.83765 0.0
C889 C 0.29818 0.26784 0.82053 0.0
C890 C 0.296 0.2786 0.79601 0.0
H891 H 0.22954 0.25943 0.72776 0.0
H892 H 0.25052 0.25153 0.75539 0.0
H893 H 0.22499 0.27461 0.75928 0.0
H894 H 0.23844 0.30873 0.79909 0.0
H895 H 0.24222 0.2901 0.84236 0.0
H896 H 0.69115 0.69045 0.39327 0.0
H897 H 0.70911 0.69731 0.35169 0.0
H898 H 0.76481 0.63603 0.36864 0.0
H899 H 0.74733 0.62916 0.41017 0.0
H900 H 0.78473 0.68493 0.34847 0.0
H901 H 0.69985 0.64163 0.28927 0.0
H902 H 0.69428 0.66882 0.31235 0.0
H903 H 0.70488 0.63646 0.32347 0.0
C904 C 0.7073 0.67851 0.38823 0.0
C905 C 0.71767 0.65913 0.40506 0.0
C906 C 0.71744 0.68238 0.36441 0.0
C907 C 0.73807 0.66693 0.35702 0.0
C908 C 0.74883 0.6481 0.37399 0.0
H909 H 0.82936 0.6309 0.23168 0.0
H910 H 0.81061 0.63789 0.27303 0.0
C911 C 0.73873 0.64417 0.39772 0.0
C912 C 0.74839 0.6698 0.33147 0.0
H913 H 0.73487 0.65561 0.26698 0.0
C914 C 0.77379 0.67876 0.33061 0.0
C915 C 0.73398 0.66184 0.30825 0.0
C916 C 0.70678 0.65146 0.3082 0.0
C917 C 0.78538 0.67945 0.30713 0.0
C918 C 0.7713 0.67043 0.28402 0.0
C919 C 0.74561 0.66245 0.28476 0.0
C920 C 0.78332 0.66735 0.25916 0.0
C921 C 0.81263 0.68967 0.30729 0.0
C922 C 0.77386 0.6812 0.23749 0.0
C923 C 0.78446 0.67711 0.21372 0.0
C924 C 0.80456 0.65891 0.21119 0.0
C925 C 0.814 0.64515 0.23298 0.0
C926 C 0.80342 0.64926 0.2567 0.0
H927 H 0.81795 0.70337 0.32449 0.0
H928 H 0.82547 0.67199 0.308 0.0
H929 H 0.81587 0.70086 0.28959 0.0
H930 H 0.75822 0.69508 0.23896 0.0
H931 H 0.77672 0.68799 0.19729 0.0
H932 H 0.77845 0.18072 0.95302 0.0
H933 H 0.7585 0.21248 0.92321 0.0
H934 H 0.79584 0.2803 0.96721 0.0
H935 H 0.81642 0.24861 0.99689 0.0
H936 H 0.72582 0.25283 0.93321 0.0
H937 H 0.81272 0.29666 0.89448 0.0
H938 H 0.81329 0.26635 0.91312 0.0
H939 H 0.81269 0.29959 0.92905 0.0
C940 C 0.78256 0.20238 0.95636 0.0
C941 C 0.79912 0.21208 0.97736 0.0
C942 C 0.77113 0.22051 0.93925 0.0
C943 C 0.77596 0.24873 0.94275 0.0
C944 C 0.79232 0.25856 0.96377 0.0
H945 H 0.7065 0.38563 0.86421 0.0
H946 H 0.73045 0.35699 0.8946 0.0
C947 C 0.80394 0.24041 0.98082 0.0
C948 C 0.76302 0.26775 0.92487 0.0
H949 H 0.77351 0.31735 0.88213 0.0
C950 C 0.73627 0.26687 0.92201 0.0
C951 C 0.77669 0.28611 0.91028 0.0
C952 C 0.80543 0.28714 0.91165 0.0
C953 C 0.72283 0.28385 0.905 0.0
C954 C 0.73649 0.30209 0.89042 0.0
C955 C 0.76318 0.30331 0.89345 0.0
C956 C 0.72322 0.31958 0.8715 0.0
C957 C 0.69409 0.28233 0.90274 0.0
C958 C 0.71167 0.30797 0.84834 0.0
C959 C 0.69812 0.32422 0.8309 0.0
C960 C 0.69581 0.35237 0.83641 0.0
C961 C 0.70786 0.36401 0.85945 0.0
C962 C 0.72157 0.34773 0.8768 0.0
H963 H 0.68635 0.27058 0.91841 0.0
H964 H 0.68618 0.30317 0.9033 0.0
H965 H 0.68743 0.27215 0.88391 0.0
H966 H 0.71293 0.28626 0.8439 0.0
H967 H 0.6891 0.31463 0.81333 0.0
H968 H 0.2506 0.3156 0.51225 0.0
H969 H 0.22686 0.27908 0.48671 0.0
H970 H 0.29117 0.22646 0.49668 0.0
H971 H 0.31512 0.26266 0.52193 0.0
H972 H 0.26823 0.22702 0.44491 0.0
H973 H 0.19755 0.20942 0.51776 0.0
H974 H 0.20127 0.24389 0.50771 0.0
H975 H 0.22711 0.22826 0.52564 0.0
C976 C 0.25973 0.29629 0.50898 0.0
C977 C 0.28474 0.29207 0.51935 0.0
C978 C 0.24609 0.27542 0.49446 0.0
C979 C 0.25719 0.25001 0.49009 0.0
C980 C 0.28226 0.24592 0.49991 0.0
H981 H 0.2249 0.08883 0.42637 0.0
H982 H 0.24353 0.13282 0.44247 0.0
C983 C 0.29588 0.26667 0.51444 0.0
C984 C 0.24278 0.22734 0.4756 0.0
H985 H 0.19382 0.18135 0.47983 0.0
C986 C 0.25183 0.21714 0.4524 0.0
C987 C 0.22134 0.21462 0.48541 0.0
C988 C 0.21124 0.22439 0.51058 0.0
C989 C 0.24024 0.19421 0.43894 0.0
C990 C 0.2194 0.18085 0.44926 0.0
C991 C 0.20982 0.19163 0.47199 0.0
C992 C 0.20829 0.15471 0.43777 0.0
C993 C 0.25047 0.18448 0.41384 0.0
C994 C 0.1822 0.15228 0.43013 0.0
C995 C 0.17142 0.12706 0.42107 0.0
C996 C 0.18654 0.10376 0.41969 0.0
C997 C 0.21274 0.10637 0.42706 0.0
C998 C 0.22347 0.13157 0.43611 0.0
H999 H 0.26057 0.20125 0.40466 0.0
H1000 H 0.26432 0.16811 0.41773 0.0
H1001 H 0.23495 0.17605 0.39998 0.0
H1002 H 0.17012 0.16986 0.43144 0.0
H1003 H 0.15117 0.12573 0.41559 0.0
H1004 H 0.21341 0.88526 0.96142 0.0
H1005 H 0.23602 0.87551 0.92246 0.0
H1006 H 0.18883 0.80319 0.90529 0.0
H1007 H 0.16644 0.81242 0.94399 0.0
H1008 H 0.24142 0.7956 0.8992 0.0
H1009 H 0.20314 0.88575 0.84851 0.0
H1010 H 0.21948 0.89226 0.87986 0.0
H1011 H 0.18978 0.87335 0.87703 0.0
C1012 C 0.20799 0.86717 0.94946 0.0
C1013 C 0.18795 0.84976 0.95578 0.0
C1014 C 0.22084 0.86172 0.92716 0.0
C1015 C 0.21386 0.8388 0.91089 0.0
C1016 C 0.19446 0.821 0.91758 0.0
H1017 H 0.2216 0.79377 0.75215 0.0
H1018 H 0.21134 0.80824 0.79571 0.0
C1019 C 0.18162 0.82642 0.93972 0.0
C1020 C 0.22593 0.83345 0.88636 0.0
H1021 H 0.22833 0.85597 0.82519 0.0
C1022 C 0.23891 0.80895 0.88309 0.0
C1023 C 0.2223 0.85081 0.86536 0.0
C1024 C 0.20778 0.87695 0.86763 0.0
C1025 C 0.24777 0.80094 0.85912 0.0
C1026 C 0.24377 0.8181 0.83802 0.0
C1027 C 0.23142 0.84296 0.84148 0.0
C1028 C 0.25047 0.80966 0.8117 0.0
C1029 C 0.26026 0.77364 0.85624 0.0
C1030 C 0.27592 0.80583 0.80625 0.0
C1031 C 0.28186 0.79746 0.78135 0.0
C1032 C 0.26244 0.7929 0.76148 0.0
C1033 C 0.237 0.79701 0.76701 0.0
C1034 C 0.2311 0.80536 0.79187 0.0
H1035 H 0.25756 0.7607 0.87297 0.0
H1036 H 0.25249 0.76237 0.83831 0.0
H1037 H 0.28102 0.77695 0.85482 0.0
H1038 H 0.29117 0.80942 0.82122 0.0
H1039 H 0.30165 0.79463 0.77768 0.0
loop_
_geom_bond_atom_site_label_1
_geom_bond_atom_site_label_2
_geom_bond_distance
_geom_bond_site_symmetry_2
_ccdc_geom_bond_type
Sc0 O3 2.025 . S
Sc0 O10 2.105 1_554 S
Sc0 O13 2.105 . S
Sc0 O16 2.105 . S
Sc0 O19 2.105 1_554 S
Sc1 O3 2.025 1_556 S
Sc1 O11 2.105 . S
Sc1 O15 2.105 1_556 S
Sc1 O17 2.105 1_556 S
Sc1 O21 2.105 . S
Sc2 O3 2.025 . S
Sc2 O12 2.105 1_554 S
Sc2 O14 2.105 . S
Sc2 O18 2.105 . S
Sc2 O20 2.096 1_554 S
O3 Sc0 2.025 . S
O3 Sc1 2.025 1_554 S
O3 Sc2 2.025 . S
C4 O10 1.268 . S
C4 O20 1.274 . S
C5 O11 1.268 . S
C5 O19 1.268 . S
C6 O12 1.268 . S
C6 O21 1.268 . S
C7 O13 1.268 . S
C7 O17 1.268 . S
C8 O14 1.268 . S
C8 O16 1.268 . S
C9 O15 1.268 . S
C9 O18 1.268 . S
O10 Sc0 2.105 1_556 S
O10 C4 1.268 . S
O11 Sc1 2.105 . S
O11 C5 1.268 . S
O12 Sc2 2.105 1_556 S
O12 C6 1.268 . S
O13 Sc0 2.105 . S
O13 C7 1.268 . S
O14 Sc2 2.105 . S
O14 C8 1.268 . S
O15 Sc1 2.105 1_554 S
O15 C9 1.268 . S
O16 Sc0 2.105 . S
O16 C8 1.268 . S
O17 Sc1 2.105 1_554 S
O17 C7 1.268 . S
O18 Sc2 2.105 . S
O18 C9 1.268 . S
O19 Sc0 2.105 1_556 S
O19 C5 1.268 . S
O20 Sc2 2.096 1_556 S
O20 C4 1.274 . S
O21 Sc1 2.105 . S
O21 C6 1.268 . S
Sc22 O25 2.025 . S
Sc22 O32 2.105 . S
Sc22 O35 2.105 . S
Sc22 O38 2.105 . S
Sc22 O41 2.105 . S
Sc23 O25 2.025 . S
Sc23 O33 2.105 . S
Sc23 O37 2.105 . S
Sc23 O39 2.105 . S
Sc23 O43 2.105 . S
Sc24 O25 2.025 . S
Sc24 O34 2.105 . S
Sc24 O36 2.105 . S
Sc24 O40 2.105 . S
Sc24 O42 2.105 . S
O25 Sc22 2.025 . S
O25 Sc23 2.025 . S
O25 Sc24 2.025 . S
C26 O32 1.268 . S
C26 O42 1.268 . S
C27 O33 1.268 . S
C27 O41 1.268 . S
C28 O34 1.268 . S
C28 O43 1.268 . S
C29 O35 1.268 . S
C29 O39 1.268 . S
C30 O36 1.268 . S
C30 O38 1.268 . S
C31 O37 1.268 . S
C31 O40 1.268 . S
O32 Sc22 2.105 . S
O32 C26 1.268 . S
O33 Sc23 2.105 . S
O33 C27 1.268 . S
O34 Sc24 2.105 . S
O34 C28 1.268 . S
O35 Sc22 2.105 . S
O35 C29 1.268 . S
O36 Sc24 2.105 . S
O36 C30 1.268 . S
O37 Sc23 2.105 . S
O37 C31 1.268 . S
O38 Sc22 2.105 . S
O38 C30 1.268 . S
O39 Sc23 2.105 . S
O39 C29 1.268 . S
O40 Sc24 2.105 . S
O40 C31 1.268 . S
O41 Sc22 2.105 . S
O41 C27 1.268 . S
O42 Sc24 2.105 . S
O42 C26 1.268 . S
O43 Sc23 2.105 . S
O43 C28 1.268 . S
Sc44 O47 2.025 . S
Sc44 O54 2.105 . S
Sc44 O57 2.105 . S
Sc44 O60 2.105 . S
Sc44 O63 2.105 . S
Sc45 O47 2.025 . S
Sc45 O55 2.092 1_554 S
Sc45 O59 2.105 . S
Sc45 O61 2.105 . S
Sc45 O65 2.105 1_554 S
Sc46 O47 2.025 . S
Sc46 O56 2.105 1_554 S
Sc46 O58 2.105 . S
Sc46 O62 2.105 . S
Sc46 O64 2.105 . S
O47 Sc44 2.025 . S
O47 Sc45 2.025 . S
O47 Sc46 2.025 . S
C48 O54 1.268 . S
C48 O64 1.268 . S
C49 O55 1.271 . S
C49 O63 1.268 1_556 S
C50 O56 1.268 . S
C50 O65 1.268 . S
C51 O57 1.268 . S
C51 O61 1.268 . S
C52 O58 1.268 . S
C52 O60 1.268 . S
C53 O59 1.268 . S
C53 O62 1.268 . S
O54 Sc44 2.105 . S
O54 C48 1.268 . S
O55 Sc45 2.092 1_556 S
O55 C49 1.271 . S
O56 Sc46 2.105 1_556 S
O56 C50 1.268 . S
O57 Sc44 2.105 . S
O57 C51 1.268 . S
O58 Sc46 2.105 . S
O58 C52 1.268 . S
O59 Sc45 2.105 . S
O59 C53 1.268 . S
O60 Sc44 2.105 . S
O60 C52 1.268 . S
O61 Sc45 2.105 . S
O61 C51 1.268 . S
O62 Sc46 2.105 . S
O62 C53 1.268 . S
O63 Sc44 2.105 . S
O63 C49 1.268 1_554 S
O64 Sc46 2.105 . S
O64 C48 1.268 . S
O65 Sc45 2.105 1_556 S
O65 C50 1.268 . S
Sc66 O69 2.025 . S
Sc66 O76 2.105 . S
Sc66 O79 2.105 . S
Sc66 O82 2.105 . S
Sc66 O85 2.105 . S
Sc67 O69 2.025 . S
Sc67 O77 2.105 . S
Sc67 O81 2.105 . S
Sc67 O83 2.105 . S
Sc67 O87 2.105 . S
Sc68 O69 2.025 . S
Sc68 O78 2.105 . S
Sc68 O80 2.105 . S
Sc68 O84 2.105 . S
Sc68 O86 2.105 . S
O69 Sc66 2.025 . S
O69 Sc67 2.025 . S
O69 Sc68 2.025 . S
C70 O76 1.268 . S
C70 O86 1.268 . S
C71 O77 1.268 . S
C71 O85 1.268 . S
C72 O78 1.268 . S
C72 O87 1.268 . S
C73 O79 1.268 . S
C73 O83 1.268 . S
C74 O80 1.268 . S
C74 O82 1.268 . S
C75 O81 1.268 . S
C75 O84 1.268 . S
O76 Sc66 2.105 . S
O76 C70 1.268 . S
O77 Sc67 2.105 . S
O77 C71 1.268 . S
O78 Sc68 2.105 . S
O78 C72 1.268 . S
O79 Sc66 2.105 . S
O79 C73 1.268 . S
O80 Sc68 2.105 . S
O80 C74 1.268 . S
O81 Sc67 2.105 . S
O81 C75 1.268 . S
O82 Sc66 2.105 . S
O82 C74 1.268 . S
O83 Sc67 2.105 . S
O83 C73 1.268 . S
O84 Sc68 2.105 . S
O84 C75 1.268 . S
O85 Sc66 2.105 . S
O85 C71 1.268 . S
O86 Sc68 2.105 . S
O86 C70 1.268 . S
O87 Sc67 2.105 . S
O87 C72 1.268 . S
O88 Cd89 2.300 . S
O88 C95 1.275 . S
Cd89 O88 2.300 . S
Cd89 O97 2.381 . S
Cd89 O98 2.378 . S
O90 Cd91 2.385 . S
O90 C95 1.255 . S
Cd91 O90 2.385 . S
Cd91 O92 2.317 . S
O92 Cd91 2.317 . S
O92 C93 1.232 . S
C93 O92 1.232 . S
C93 O94 1.218 . S
O94 C93 1.218 . S
C95 O88 1.275 . S
C95 O90 1.255 . S
C96 O97 1.258 . S
C96 O98 1.256 . S
O97 Cd89 2.381 . S
O97 C96 1.258 . S
O98 Cd89 2.378 . S
O98 C96 1.256 . S
O99 Cd100 2.300 . S
O99 C106 1.275 . S
Cd100 O99 2.300 . S
Cd100 O108 2.381 . S
Cd100 O109 2.378 . S
O101 Cd102 2.385 . S
O101 C106 1.255 . S
Cd102 O101 2.385 . S
Cd102 O103 2.317 . S
O103 Cd102 2.317 . S
O103 C104 1.232 . S
C104 O103 1.232 . S
C104 O105 1.218 . S
O105 C104 1.218 . S
C106 O99 1.275 . S
C106 O101 1.255 . S
C107 O108 1.258 . S
C107 O109 1.256 . S
O108 Cd100 2.381 . S
O108 C107 1.258 . S
O109 Cd100 2.378 . S
O109 C107 1.256 . S
O110 Cd111 2.300 . S
O110 C117 1.275 . S
Cd111 O110 2.300 . S
Cd111 O119 2.381 . S
Cd111 O120 2.378 . S
O112 Cd113 2.385 . S
O112 C117 1.255 . S
Cd113 O112 2.385 . S
Cd113 O114 2.317 . S
O114 Cd113 2.317 . S
O114 C115 1.232 . S
C115 O114 1.232 . S
C115 O116 1.218 . S
O116 C115 1.218 . S
C117 O110 1.275 . S
C117 O112 1.255 . S
C118 O119 1.258 . S
C118 O120 1.256 . S
O119 Cd111 2.381 . S
O119 C118 1.258 . S
O120 Cd111 2.378 . S
O120 C118 1.256 . S
O121 Cd122 2.300 . S
O121 C128 1.275 . S
Cd122 O121 2.300 . S
Cd122 O130 2.381 . S
Cd122 O131 2.378 . S
O123 Cd124 2.385 . S
O123 C128 1.255 . S
Cd124 O123 2.385 . S
Cd124 O125 2.317 . S
O125 Cd124 2.317 . S
O125 C126 1.232 . S
C126 O125 1.232 . S
C126 O127 1.218 . S
O127 C126 1.218 . S
C128 O121 1.275 . S
C128 O123 1.255 . S
C129 O130 1.258 . S
C129 O131 1.256 . S
O130 Cd122 2.381 . S
O130 C129 1.258 . S
O131 Cd122 2.378 . S
O131 C129 1.256 . S
O132 Cd133 2.300 . S
O132 C139 1.275 . S
Cd133 O132 2.300 . S
Cd133 O141 2.381 . S
Cd133 O142 2.378 . S
O134 Cd135 2.385 . S
O134 C139 1.255 . S
Cd135 O134 2.385 . S
Cd135 O136 2.317 . S
O136 Cd135 2.317 . S
O136 C137 1.232 . S
C137 O136 1.232 . S
C137 O138 1.218 . S
O138 C137 1.218 . S
C139 O132 1.275 . S
C139 O134 1.255 . S
C140 O141 1.258 . S
C140 O142 1.256 . S
O141 Cd133 2.381 . S
O141 C140 1.258 . S
O142 Cd133 2.378 . S
O142 C140 1.256 . S
O143 Cd144 2.300 . S
O143 C150 1.275 . S
Cd144 O143 2.300 . S
Cd144 O152 2.381 . S
Cd144 O153 2.378 . S
O145 Cd146 2.385 . S
O145 C150 1.255 . S
Cd146 O145 2.385 . S
Cd146 O147 2.317 . S
O147 Cd146 2.317 . S
O147 C148 1.232 . S
C148 O147 1.232 . S
C148 O149 1.218 . S
O149 C148 1.218 . S
C150 O143 1.275 . S
C150 O145 1.255 . S
C151 O152 1.258 . S
C151 O153 1.256 . S
O152 Cd144 2.381 . S
O152 C151 1.258 . S
O153 Cd144 2.378 . S
O153 C151 1.256 . S
O154 Cd155 2.300 . S
O154 C161 1.275 . S
Cd155 O154 2.300 . S
Cd155 O163 2.381 . S
Cd155 O164 2.378 . S
O156 Cd157 2.385 . S
O156 C161 1.255 . S
Cd157 O156 2.385 . S
Cd157 O158 2.317 . S
O158 Cd157 2.317 . S
O158 C159 1.232 . S
C159 O158 1.232 . S
C159 O160 1.218 . S
O160 C159 1.218 . S
C161 O154 1.275 . S
C161 O156 1.255 . S
C162 O163 1.258 . S
C162 O164 1.256 . S
O163 Cd155 2.381 . S
O163 C162 1.258 . S
O164 Cd155 2.378 . S
O164 C162 1.256 . S
O165 Cd166 2.300 . S
O165 C172 1.275 . S
Cd166 O165 2.300 . S
Cd166 O174 2.381 . S
Cd166 O175 2.378 . S
O167 Cd168 2.385 . S
O167 C172 1.255 . S
Cd168 O167 2.385 . S
Cd168 O169 2.317 . S
O169 Cd168 2.317 . S
O169 C170 1.232 . S
C170 O169 1.232 . S
C170 O171 1.218 . S
O171 C170 1.218 . S
C172 O165 1.275 . S
C172 O167 1.255 . S
C173 O174 1.258 . S
C173 O175 1.256 . S
O174 Cd166 2.381 . S
O174 C173 1.258 . S
O175 Cd166 2.378 . S
O175 C173 1.256 . S
H176 C184 0.929 . S
H177 C186 0.930 . S
H178 C188 0.930 . S
H179 C191 0.929 . S
H180 C194 0.917 1_545 S
H181 C196 0.960 . S
H182 C196 0.960 . S
H183 C196 0.960 . S
C184 H176 0.929 . S
C184 C185 1.377 . S
C184 C186 1.384 . S
C185 C184 1.377 . S
C185 C191 1.390 . S
C186 H177 0.930 . S
C186 C184 1.384 . S
C186 C187 1.372 . S
C187 C186 1.372 . S
C187 C188 1.400 . S
C187 C192 1.490 . S
C188 H178 0.930 . S
C188 C187 1.400 . S
C188 C191 1.386 . S
H189 C205 0.930 . S
H190 C206 0.931 . S
C191 H179 0.929 . S
C191 C185 1.390 . S
C191 C188 1.386 . S
C192 C187 1.490 . S
C192 C194 1.395 . S
C192 C195 1.403 . S
H193 C199 0.930 . S
C194 H180 0.917 1_565 S
C194 C192 1.395 . S
C194 C197 1.403 1_565 S
C195 C192 1.403 . S
C195 C196 1.524 . S
C195 C199 1.400 . S
C196 H181 0.960 . S
C196 H182 0.960 . S
C196 H183 0.960 . S
C196 C195 1.524 . S
C197 C194 1.403 1_545 S
C197 C198 1.392 1_545 S
C197 C201 1.495 . S
C198 C197 1.392 1_565 S
C198 C199 1.385 . S
C198 C200 1.478 1_565 S
C199 H193 0.930 . S
C199 C195 1.400 . S
C199 C198 1.385 . S
C200 C198 1.478 1_545 S
C200 C202 1.381 . S
C200 C206 1.383 . S
C201 C197 1.495 . S
C201 H207 0.959 . S
C201 H208 0.961 . S
C201 H209 0.960 . S
C202 C200 1.381 . S
C202 C203 1.394 . S
C202 H210 0.930 . S
C203 C202 1.394 . S
C203 C204 1.383 . S
C203 H211 0.929 . S
C204 C203 1.383 . S
C204 C205 1.377 . S
C205 H189 0.930 . S
C205 C204 1.377 . S
C205 C206 1.379 . S
C206 H190 0.931 . S
C206 C200 1.383 . S
C206 C205 1.379 . S
H207 C201 0.959 . S
H208 C201 0.961 . S
H209 C201 0.960 . S
H210 C202 0.930 . S
H211 C203 0.929 . S
H212 C220 0.929 . S
H213 C222 0.930 . S
H214 C224 0.930 . S
H215 C227 0.929 . S
H216 C230 0.930 . S
H217 C232 0.960 . S
H218 C232 0.960 . S
H219 C232 0.960 . S
C220 H212 0.929 . S
C220 C221 1.377 . S
C220 C222 1.384 . S
C221 C220 1.377 . S
C221 C227 1.390 . S
C222 H213 0.930 . S
C222 C220 1.384 . S
C222 C223 1.372 . S
C223 C222 1.372 . S
C223 C224 1.400 . S
C223 C228 1.490 . S
C224 H214 0.930 . S
C224 C223 1.400 . S
C224 C227 1.386 . S
H225 C241 0.930 . S
H226 C242 0.931 . S
C227 H215 0.929 . S
C227 C221 1.390 . S
C227 C224 1.386 . S
C228 C223 1.490 . S
C228 C230 1.395 . S
C228 C231 1.403 . S
H229 C235 0.930 . S
C230 H216 0.930 . S
C230 C228 1.395 . S
C230 C233 1.403 . S
C231 C228 1.403 . S
C231 C232 1.524 . S
C231 C235 1.400 . S
C232 H217 0.960 . S
C232 H218 0.960 . S
C232 H219 0.960 . S
C232 C231 1.524 . S
C233 C230 1.403 . S
C233 C234 1.392 . S
C233 C237 1.495 . S
C234 C233 1.392 . S
C234 C235 1.385 . S
C234 C236 1.478 . S
C235 H229 0.930 . S
C235 C231 1.400 . S
C235 C234 1.385 . S
C236 C234 1.478 . S
C236 C238 1.381 . S
C236 C242 1.383 . S
C237 C233 1.495 . S
C237 H243 0.959 . S
C237 H244 0.961 . S
C237 H245 0.960 . S
C238 C236 1.381 . S
C238 C239 1.394 . S
C238 H246 0.930 . S
C239 C238 1.394 . S
C239 C240 1.383 . S
C239 H247 0.929 . S
C240 C239 1.383 . S
C240 C241 1.377 . S
C241 H225 0.930 . S
C241 C240 1.377 . S
C241 C242 1.379 . S
C242 H226 0.931 . S
C242 C236 1.383 . S
C242 C241 1.379 . S
H243 C237 0.959 . S
H244 C237 0.961 . S
H245 C237 0.960 . S
H246 C238 0.930 . S
H247 C239 0.929 . S
H248 C256 0.929 . S
H249 C258 0.930 . S
H250 C260 0.930 . S
H251 C263 0.929 . S
H252 C266 0.930 . S
H253 C268 0.960 . S
H254 C268 0.960 . S
H255 C268 0.960 . S
C256 H248 0.929 . S
C256 C257 1.377 . S
C256 C258 1.384 . S
C257 C256 1.377 . S
C257 C263 1.390 . S
C258 H249 0.930 . S
C258 C256 1.384 . S
C258 C259 1.372 . S
C259 C258 1.372 . S
C259 C260 1.400 . S
C259 C264 1.490 1_545 S
C260 H250 0.930 . S
C260 C259 1.400 . S
C260 C263 1.386 . S
H261 C277 0.930 . S
H262 C278 0.931 . S
C263 H251 0.929 . S
C263 C257 1.390 . S
C263 C260 1.386 . S
C264 C259 1.490 1_565 S
C264 C266 1.395 . S
C264 C267 1.403 . S
H265 C271 0.930 . S
C266 H252 0.930 . S
C266 C264 1.395 . S
C266 C269 1.403 . S
C267 C264 1.403 . S
C267 C268 1.524 . S
C267 C271 1.400 . S
C268 H253 0.960 . S
C268 H254 0.960 . S
C268 H255 0.960 . S
C268 C267 1.524 . S
C269 C266 1.403 . S
C269 C270 1.392 . S
C269 C273 1.495 . S
C270 C269 1.392 . S
C270 C271 1.385 . S
C270 C272 1.478 . S
C271 H265 0.930 . S
C271 C267 1.400 . S
C271 C270 1.385 . S
C272 C270 1.478 . S
C272 C274 1.381 . S
C272 C278 1.383 . S
C273 C269 1.495 . S
C273 H279 0.959 . S
C273 H280 0.961 . S
C273 H281 0.960 . S
C274 C272 1.381 . S
C274 C275 1.394 . S
C274 H282 0.930 . S
C275 C274 1.394 . S
C275 C276 1.383 . S
C275 H283 0.929 . S
C276 C275 1.383 . S
C276 C277 1.377 . S
C277 H261 0.930 . S
C277 C276 1.377 . S
C277 C278 1.379 . S
C278 H262 0.931 . S
C278 C272 1.383 . S
C278 C277 1.379 . S
H279 C273 0.959 . S
H280 C273 0.961 . S
H281 C273 0.960 . S
H282 C274 0.930 . S
H283 C275 0.929 . S
H284 C292 0.929 . S
H285 C294 0.930 . S
H286 C296 0.930 . S
H287 C299 0.929 . S
H288 C302 0.930 . S
H289 C304 0.960 . S
H290 C304 0.960 . S
H291 C304 0.960 . S
C292 H284 0.929 . S
C292 C293 1.377 . S
C292 C294 1.384 . S
C293 C292 1.377 . S
C293 C299 1.390 . S
C294 H285 0.930 . S
C294 C292 1.384 . S
C294 C295 1.372 . S
C295 C294 1.372 . S
C295 C296 1.400 . S
C295 C300 1.490 . S
C296 H286 0.930 . S
C296 C295 1.400 . S
C296 C299 1.386 . S
H297 C313 0.930 . S
H298 C314 0.931 . S
C299 H287 0.929 . S
C299 C293 1.390 . S
C299 C296 1.386 . S
C300 C295 1.490 . S
C300 C302 1.395 . S
C300 C303 1.403 . S
H301 C307 0.930 . S
C302 H288 0.930 . S
C302 C300 1.395 . S
C302 C305 1.403 . S
C303 C300 1.403 . S
C303 C304 1.524 . S
C303 C307 1.400 . S
C304 H289 0.960 . S
C304 H290 0.960 . S
C304 H291 0.960 . S
C304 C303 1.524 . S
C305 C302 1.403 . S
C305 C306 1.392 . S
C305 C309 1.495 . S
C306 C305 1.392 . S
C306 C307 1.385 . S
C306 C308 1.478 . S
C307 H301 0.930 . S
C307 C303 1.400 . S
C307 C306 1.385 . S
C308 C306 1.478 . S
C308 C310 1.381 . S
C308 C314 1.383 . S
C309 C305 1.495 . S
C309 H315 0.959 . S
C309 H316 0.961 . S
C309 H317 0.960 . S
C310 C308 1.381 . S
C310 C311 1.394 . S
C310 H318 0.930 . S
C311 C310 1.394 . S
C311 C312 1.383 . S
C311 H319 0.929 . S
C312 C311 1.383 . S
C312 C313 1.377 . S
C313 H297 0.930 . S
C313 C312 1.377 . S
C313 C314 1.379 . S
C314 H298 0.931 . S
C314 C308 1.383 . S
C314 C313 1.379 . S
H315 C309 0.959 . S
H316 C309 0.961 . S
H317 C309 0.960 . S
H318 C310 0.930 . S
H319 C311 0.929 . S
H320 C328 0.929 . S
H321 C330 0.930 . S
H322 C332 0.930 . S
H323 C335 0.929 . S
H324 C338 0.930 . S
H325 C340 0.960 . S
H326 C340 0.960 . S
H327 C340 0.960 . S
C328 H320 0.929 . S
C328 C329 1.377 . S
C328 C330 1.384 . S
C329 C328 1.377 . S
C329 C335 1.390 . S
C330 H321 0.930 . S
C330 C328 1.384 . S
C330 C331 1.372 . S
C331 C330 1.372 . S
C331 C332 1.400 . S
C331 C336 1.490 . S
C332 H322 0.930 . S
C332 C331 1.400 . S
C332 C335 1.386 . S
H333 C349 0.930 . S
H334 C350 0.931 . S
C335 H323 0.929 . S
C335 C329 1.390 . S
C335 C332 1.386 . S
C336 C331 1.490 . S
C336 C338 1.395 . S
C336 C339 1.403 . S
H337 C343 0.930 . S
C338 H324 0.930 . S
C338 C336 1.395 . S
C338 C341 1.403 . S
C339 C336 1.403 . S
C339 C340 1.524 . S
C339 C343 1.400 . S
C340 H325 0.960 . S
C340 H326 0.960 . S
C340 H327 0.960 . S
C340 C339 1.524 . S
C341 C338 1.403 . S
C341 C342 1.392 . S
C341 C345 1.495 . S
C342 C341 1.392 . S
C342 C343 1.385 . S
C342 C344 1.478 . S
C343 H337 0.930 . S
C343 C339 1.400 . S
C343 C342 1.385 . S
C344 C342 1.478 . S
C344 C346 1.381 . S
C344 C350 1.383 . S
C345 C341 1.495 . S
C345 H351 0.959 . S
C345 H352 0.961 . S
C345 H353 0.960 . S
C346 C344 1.381 . S
C346 C347 1.394 . S
C346 H354 0.930 . S
C347 C346 1.394 . S
C347 C348 1.383 . S
C347 H355 0.929 . S
C348 C347 1.383 . S
C348 C349 1.377 . S
C349 H333 0.930 . S
C349 C348 1.377 . S
C349 C350 1.379 . S
C350 H334 0.931 . S
C350 C344 1.383 . S
C350 C349 1.379 . S
H351 C345 0.959 . S
H352 C345 0.961 . S
H353 C345 0.960 . S
H354 C346 0.930 . S
H355 C347 0.929 . S
H356 C364 0.929 . S
H357 C366 0.930 . S
H358 C368 0.930 . S
H359 C371 0.929 . S
H360 C374 0.930 . S
H361 C376 0.960 . S
H362 C376 0.960 . S
H363 C376 0.960 1_554 S
C364 H356 0.929 . S
C364 C365 1.377 . S
C364 C366 1.384 . S
C365 C364 1.377 . S
C365 C371 1.390 1_556 S
C366 H357 0.930 . S
C366 C364 1.384 . S
C366 C367 1.372 . S
C367 C366 1.372 . S
C367 C368 1.400 1_556 S
C367 C372 1.490 . S
C368 H358 0.930 . S
C368 C367 1.400 1_554 S
C368 C371 1.386 . S
H369 C385 0.930 . S
H370 C386 0.931 . S
C371 H359 0.929 . S
C371 C365 1.390 1_554 S
C371 C368 1.386 . S
C372 C367 1.490 . S
C372 C374 1.395 . S
C372 C375 1.403 1_655 S
H373 C379 0.930 . S
C374 H360 0.930 . S
C374 C372 1.395 . S
C374 C377 1.403 1_655 S
C375 C372 1.403 1_455 S
C375 C376 1.524 . S
C375 C379 1.400 . S
C376 H361 0.960 . S
C376 H362 0.960 . S
C376 H363 0.960 1_556 S
C376 C375 1.524 . S
C377 C374 1.403 1_455 S
C377 C378 1.392 . S
C377 C381 1.495 . S
C378 C377 1.392 . S
C378 C379 1.385 . S
C378 C380 1.478 . S
C379 H373 0.930 . S
C379 C375 1.400 . S
C379 C378 1.385 . S
C380 C378 1.478 . S
C380 C382 1.381 . S
C380 C386 1.383 . S
C381 C377 1.495 . S
C381 H387 0.959 1_455 S
C381 H388 0.961 . S
C381 H389 0.960 . S
C382 C380 1.381 . S
C382 C383 1.394 . S
C382 H390 0.930 . S
C383 C382 1.394 . S
C383 C384 1.383 . S
C383 H391 0.929 . S
C384 C383 1.383 . S
C384 C385 1.377 . S
C385 H369 0.930 . S
C385 C384 1.377 . S
C385 C386 1.379 . S
C386 H370 0.931 . S
C386 C380 1.383 . S
C386 C385 1.379 . S
H387 C381 0.959 1_655 S
H388 C381 0.961 . S
H389 C381 0.960 . S
H390 C382 0.930 . S
H391 C383 0.929 . S
H392 C400 0.929 . S
H393 C402 0.930 . S
H394 C404 0.930 . S
H395 C407 0.929 . S
H396 C410 0.930 . S
H397 C412 0.960 . S
H398 C412 0.960 . S
H399 C412 0.960 . S
C400 H392 0.929 . S
C400 C401 1.377 . S
C400 C402 1.384 . S
C401 C400 1.377 . S
C401 C407 1.390 . S
C402 H393 0.930 . S
C402 C400 1.384 . S
C402 C403 1.372 . S
C403 C402 1.372 . S
C403 C404 1.400 . S
C403 C408 1.490 . S
C404 H394 0.930 . S
C404 C403 1.400 . S
C404 C407 1.386 . S
H405 C421 0.930 . S
H406 C422 0.931 . S
C407 H395 0.929 . S
C407 C401 1.390 . S
C407 C404 1.386 . S
C408 C403 1.490 . S
C408 C410 1.395 . S
C408 C411 1.403 . S
H409 C415 0.930 . S
C410 H396 0.930 . S
C410 C408 1.395 . S
C410 C413 1.403 . S
C411 C408 1.403 . S
C411 C412 1.524 . S
C411 C415 1.400 . S
C412 H397 0.960 . S
C412 H398 0.960 . S
C412 H399 0.960 . S
C412 C411 1.524 . S
C413 C410 1.403 . S
C413 C414 1.392 . S
C413 C417 1.495 . S
C414 C413 1.392 . S
C414 C415 1.385 . S
C414 C416 1.478 . S
C415 H409 0.930 . S
C415 C411 1.400 . S
C415 C414 1.385 . S
C416 C414 1.478 . S
C416 C418 1.381 . S
C416 C422 1.383 . S
C417 C413 1.495 . S
C417 H423 0.959 . S
C417 H424 0.961 . S
C417 H425 0.960 . S
C418 C416 1.381 . S
C418 C419 1.394 . S
C418 H426 0.930 . S
C419 C418 1.394 . S
C419 C420 1.383 . S
C419 H427 0.929 . S
C420 C419 1.383 . S
C420 C421 1.377 . S
C421 H405 0.930 . S
C421 C420 1.377 . S
C421 C422 1.379 . S
C422 H406 0.931 . S
C422 C416 1.383 . S
C422 C421 1.379 . S
H423 C417 0.959 . S
H424 C417 0.961 . S
H425 C417 0.960 . S
H426 C418 0.930 . S
H427 C419 0.929 . S
H428 C436 0.929 . S
H429 C438 0.930 . S
H430 C440 0.930 . S
H431 C443 0.929 . S
H432 C446 0.930 . S
H433 C448 0.960 . S
H434 C448 0.960 . S
H435 C448 0.960 . S
C436 H428 0.929 . S
C436 C437 1.377 . S
C436 C438 1.384 . S
C437 C436 1.377 . S
C437 C443 1.390 . S
C438 H429 0.930 . S
C438 C436 1.384 . S
C438 C439 1.372 . S
C439 C438 1.372 . S
C439 C440 1.400 . S
C439 C444 1.490 . S
C440 H430 0.930 . S
C440 C439 1.400 . S
C440 C443 1.386 . S
H441 C457 0.930 . S
H442 C458 0.931 . S
C443 H431 0.929 . S
C443 C437 1.390 . S
C443 C440 1.386 . S
C444 C439 1.490 . S
C444 C446 1.395 . S
C444 C447 1.403 . S
H445 C451 0.930 1_655 S
C446 H432 0.930 . S
C446 C444 1.395 . S
C446 C449 1.403 . S
C447 C444 1.403 . S
C447 C448 1.524 . S
C447 C451 1.400 . S
C448 H433 0.960 . S
C448 H434 0.960 . S
C448 H435 0.960 . S
C448 C447 1.524 . S
C449 C446 1.403 . S
C449 C450 1.392 1_455 S
C449 C453 1.495 . S
C450 C449 1.392 1_655 S
C450 C451 1.385 1_655 S
C450 C452 1.478 . S
C451 H445 0.930 1_455 S
C451 C447 1.400 . S
C451 C450 1.385 1_455 S
C452 C450 1.478 . S
C452 C454 1.381 . S
C452 C458 1.383 . S
C453 C449 1.495 . S
C453 H459 0.959 . S
C453 H460 0.961 1_455 S
C453 H461 0.960 . S
C454 C452 1.381 . S
C454 C455 1.394 . S
C454 H462 0.930 1_655 S
C455 C454 1.394 . S
C455 C456 1.383 . S
C455 H463 0.929 . S
C456 C455 1.383 . S
C456 C457 1.377 . S
C457 H441 0.930 . S
C457 C456 1.377 . S
C457 C458 1.379 . S
C458 H442 0.931 . S
C458 C452 1.383 . S
C458 C457 1.379 . S
H459 C453 0.959 . S
H460 C453 0.961 1_655 S
H461 C453 0.960 . S
H462 C454 0.930 1_455 S
H463 C455 0.929 . S
H464 C472 0.929 . S
H465 C474 0.930 . S
H466 C476 0.930 . S
H467 C479 0.929 . S
H468 C482 0.930 . S
H469 C484 0.960 . S
H470 C484 0.960 . S
H471 C484 0.960 . S
C472 H464 0.929 . S
C472 C473 1.377 . S
C472 C474 1.384 . S
C473 C472 1.377 . S
C473 C479 1.390 . S
C474 H465 0.930 . S
C474 C472 1.384 . S
C474 C475 1.372 . S
C475 C474 1.372 . S
C475 C476 1.400 . S
C475 C480 1.490 . S
C476 H466 0.930 . S
C476 C475 1.400 . S
C476 C479 1.386 . S
H477 C493 0.930 . S
H478 C494 0.931 . S
C479 H467 0.929 . S
C479 C473 1.390 . S
C479 C476 1.386 . S
C480 C475 1.490 . S
C480 C482 1.395 . S
C480 C483 1.403 . S
H481 C487 0.930 . S
C482 H468 0.930 . S
C482 C480 1.395 . S
C482 C485 1.403 . S
C483 C480 1.403 . S
C483 C484 1.524 . S
C483 C487 1.400 . S
C484 H469 0.960 . S
C484 H470 0.960 . S
C484 H471 0.960 . S
C484 C483 1.524 . S
C485 C482 1.403 . S
C485 C486 1.392 . S
C485 C489 1.495 . S
C486 C485 1.392 . S
C486 C487 1.385 . S
C486 C488 1.478 . S
C487 H481 0.930 . S
C487 C483 1.400 . S
C487 C486 1.385 . S
C488 C486 1.478 . S
C488 C490 1.381 1_545 S
C488 C494 1.383 . S
C489 C485 1.495 . S
C489 H495 0.959 . S
C489 H496 0.961 . S
C489 H497 0.960 . S
C490 C488 1.381 1_565 S
C490 C491 1.394 . S
C490 H498 0.930 . S
C491 C490 1.394 . S
C491 C492 1.383 . S
C491 H499 0.929 . S
C492 C491 1.383 . S
C492 C493 1.377 . S
C493 H477 0.930 . S
C493 C492 1.377 . S
C493 C494 1.379 1_565 S
C494 H478 0.931 . S
C494 C488 1.383 . S
C494 C493 1.379 1_545 S
H495 C489 0.959 . S
H496 C489 0.961 . S
H497 C489 0.960 . S
H498 C490 0.930 . S
H499 C491 0.929 . S
H500 C508 0.929 . S
H501 C510 0.930 . S
H502 C512 0.930 . S
H503 C515 0.929 . S
H504 C518 0.930 . S
H505 C520 0.960 . S
H506 C520 0.960 . S
H507 C520 0.960 . S
C508 H500 0.929 . S
C508 C509 1.377 . S
C508 C510 1.384 . S
C509 C508 1.377 . S
C509 C515 1.390 . S
C510 H501 0.930 . S
C510 C508 1.384 . S
C510 C511 1.372 . S
C511 C510 1.372 . S
C511 C512 1.400 . S
C511 C516 1.490 . S
C512 H502 0.930 . S
C512 C511 1.400 . S
C512 C515 1.386 . S
H513 C529 0.930 . S
H514 C530 0.931 . S
C515 H503 0.929 . S
C515 C509 1.390 . S
C515 C512 1.386 . S
C516 C511 1.490 . S
C516 C518 1.395 . S
C516 C519 1.403 . S
H517 C523 0.930 . S
C518 H504 0.930 . S
C518 C516 1.395 . S
C518 C521 1.403 . S
C519 C516 1.403 . S
C519 C520 1.524 . S
C519 C523 1.400 . S
C520 H505 0.960 . S
C520 H506 0.960 . S
C520 H507 0.960 . S
C520 C519 1.524 . S
C521 C518 1.403 . S
C521 C522 1.392 . S
C521 C525 1.495 . S
C522 C521 1.392 . S
C522 C523 1.385 . S
C522 C524 1.478 . S
C523 H517 0.930 . S
C523 C519 1.400 . S
C523 C522 1.385 . S
C524 C522 1.478 . S
C524 C526 1.381 . S
C524 C530 1.383 . S
C525 C521 1.495 . S
C525 H531 0.959 . S
C525 H532 0.961 . S
C525 H533 0.960 . S
C526 C524 1.381 . S
C526 C527 1.394 . S
C526 H534 0.930 . S
C527 C526 1.394 . S
C527 C528 1.383 . S
C527 H535 0.929 . S
C528 C527 1.383 . S
C528 C529 1.377 . S
C529 H513 0.930 . S
C529 C528 1.377 . S
C529 C530 1.379 . S
C530 H514 0.931 . S
C530 C524 1.383 . S
C530 C529 1.379 . S
H531 C525 0.959 . S
H532 C525 0.961 . S
H533 C525 0.960 . S
H534 C526 0.930 . S
H535 C527 0.929 . S
H536 C544 0.929 . S
H537 C546 0.930 . S
H538 C548 0.930 . S
H539 C551 0.929 . S
H540 C554 0.930 . S
H541 C556 0.960 1_554 S
H542 C556 0.959 . S
H543 C556 0.960 1_554 S
C544 H536 0.929 . S
C544 C545 1.377 . S
C544 C546 1.384 . S
C545 C544 1.377 . S
C545 C551 1.390 . S
C546 H537 0.930 . S
C546 C544 1.384 . S
C546 C547 1.372 1_565 S
C547 C546 1.372 1_545 S
C547 C548 1.400 . S
C547 C552 1.490 . S
C548 H538 0.930 . S
C548 C547 1.400 . S
C548 C551 1.386 1_545 S
H549 C565 0.930 . S
H550 C566 0.931 . S
C551 H539 0.929 . S
C551 C545 1.390 . S
C551 C548 1.386 1_565 S
C552 C547 1.490 . S
C552 C554 1.395 . S
C552 C555 1.403 . S
H553 C559 0.930 . S
C554 H540 0.930 . S
C554 C552 1.395 . S
C554 C557 1.403 . S
C555 C552 1.403 . S
C555 C556 1.524 . S
C555 C559 1.400 . S
C556 H541 0.960 1_556 S
C556 H542 0.959 . S
C556 H543 0.960 1_556 S
C556 C555 1.524 . S
C557 C554 1.403 . S
C557 C558 1.392 . S
C557 C561 1.495 . S
C558 C557 1.392 . S
C558 C559 1.385 . S
C558 C560 1.478 . S
C559 H553 0.930 . S
C559 C555 1.400 . S
C559 C558 1.385 . S
C560 C558 1.478 . S
C560 C562 1.381 . S
C560 C566 1.383 . S
C561 C557 1.495 . S
C561 H567 0.959 . S
C561 H568 0.961 . S
C561 H569 0.960 . S
C562 C560 1.381 . S
C562 C563 1.394 . S
C562 H570 0.930 . S
C563 C562 1.394 . S
C563 C564 1.383 . S
C563 H571 0.929 . S
C564 C563 1.383 . S
C564 C565 1.377 . S
C565 H549 0.930 . S
C565 C564 1.377 . S
C565 C566 1.379 . S
C566 H550 0.931 . S
C566 C560 1.383 . S
C566 C565 1.379 . S
H567 C561 0.959 . S
H568 C561 0.961 . S
H569 C561 0.960 . S
H570 C562 0.930 . S
H571 C563 0.929 . S
H572 C580 0.929 . S
H573 C582 0.930 . S
H574 C584 0.930 . S
H575 C587 0.929 . S
H576 C590 0.930 . S
H577 C592 0.960 . S
H578 C592 0.960 . S
H579 C592 0.960 . S
C580 H572 0.929 . S
C580 C581 1.377 . S
C580 C582 1.384 . S
C581 C580 1.377 . S
C581 C587 1.390 . S
C582 H573 0.930 . S
C582 C580 1.384 . S
C582 C583 1.372 . S
C583 C582 1.372 . S
C583 C584 1.400 . S
C583 C588 1.490 . S
C584 H574 0.930 . S
C584 C583 1.400 . S
C584 C587 1.386 . S
H585 C601 0.930 . S
H586 C602 0.931 . S
C587 H575 0.929 . S
C587 C581 1.390 . S
C587 C584 1.386 . S
C588 C583 1.490 . S
C588 C590 1.395 . S
C588 C591 1.403 . S
H589 C595 0.930 . S
C590 H576 0.930 . S
C590 C588 1.395 . S
C590 C593 1.403 . S
C591 C588 1.403 . S
C591 C592 1.524 . S
C591 C595 1.400 . S
C592 H577 0.960 . S
C592 H578 0.960 . S
C592 H579 0.960 . S
C592 C591 1.524 . S
C593 C590 1.403 . S
C593 C594 1.392 . S
C593 C597 1.495 . S
C594 C593 1.392 . S
C594 C595 1.385 . S
C594 C596 1.478 . S
C595 H589 0.930 . S
C595 C591 1.400 . S
C595 C594 1.385 . S
C596 C594 1.478 . S
C596 C598 1.381 . S
C596 C602 1.383 . S
C597 C593 1.495 . S
C597 H603 0.959 . S
C597 H604 0.961 . S
C597 H605 0.960 . S
C598 C596 1.381 . S
C598 C599 1.394 . S
C598 H606 0.930 . S
C599 C598 1.394 . S
C599 C600 1.383 . S
C599 H607 0.929 . S
C600 C599 1.383 . S
C600 C601 1.377 . S
C601 H585 0.930 . S
C601 C600 1.377 . S
C601 C602 1.379 . S
C602 H586 0.931 . S
C602 C596 1.383 . S
C602 C601 1.379 . S
H603 C597 0.959 . S
H604 C597 0.961 . S
H605 C597 0.960 . S
H606 C598 0.930 . S
H607 C599 0.929 . S
H608 C616 0.929 . S
H609 C618 0.930 . S
H610 C620 0.930 . S
H611 C623 0.929 . S
H612 C626 0.930 . S
H613 C628 0.960 . S
H614 C628 0.960 . S
H615 C628 0.960 . S
C616 H608 0.929 . S
C616 C617 1.377 . S
C616 C618 1.384 . S
C617 C616 1.377 . S
C617 C623 1.390 . S
C618 H609 0.930 . S
C618 C616 1.384 . S
C618 C619 1.372 . S
C619 C618 1.372 . S
C619 C620 1.400 . S
C619 C624 1.490 . S
C620 H610 0.930 . S
C620 C619 1.400 . S
C620 C623 1.386 . S
H621 C637 0.930 . S
H622 C638 0.931 . S
C623 H611 0.929 . S
C623 C617 1.390 . S
C623 C620 1.386 . S
C624 C619 1.490 . S
C624 C626 1.395 . S
C624 C627 1.403 . S
H625 C631 0.930 . S
C626 H612 0.930 . S
C626 C624 1.395 . S
C626 C629 1.403 . S
C627 C624 1.403 . S
C627 C628 1.524 . S
C627 C631 1.400 . S
C628 H613 0.960 . S
C628 H614 0.960 . S
C628 H615 0.960 . S
C628 C627 1.524 . S
C629 C626 1.403 . S
C629 C630 1.392 . S
C629 C633 1.495 . S
C630 C629 1.392 . S
C630 C631 1.385 . S
C630 C632 1.478 . S
C631 H625 0.930 . S
C631 C627 1.400 . S
C631 C630 1.385 . S
C632 C630 1.478 . S
C632 C634 1.381 . S
C632 C638 1.383 . S
C633 C629 1.495 . S
C633 H639 0.959 . S
C633 H640 0.961 . S
C633 H641 0.960 . S
C634 C632 1.381 . S
C634 C635 1.394 . S
C634 H642 0.930 . S
C635 C634 1.394 . S
C635 C636 1.383 . S
C635 H643 0.929 . S
C636 C635 1.383 . S
C636 C637 1.377 . S
C637 H621 0.930 . S
C637 C636 1.377 . S
C637 C638 1.379 . S
C638 H622 0.931 . S
C638 C632 1.383 . S
C638 C637 1.379 . S
H639 C633 0.959 . S
H640 C633 0.961 . S
H641 C633 0.960 . S
H642 C634 0.930 . S
H643 C635 0.929 . S
H644 C652 0.929 . S
H645 C654 0.930 . S
H646 C656 0.930 . S
H647 C659 0.929 . S
H648 C662 0.930 . S
H649 C664 0.947 1_655 S
H650 C664 0.981 . S
H651 C664 0.965 . S
C652 H644 0.929 . S
C652 C653 1.377 . S
C652 C654 1.384 . S
C653 C652 1.377 . S
C653 C659 1.390 . S
C654 H645 0.930 . S
C654 C652 1.384 . S
C654 C655 1.372 . S
C655 C654 1.372 . S
C655 C656 1.400 . S
C655 C660 1.476 1_455 S
C656 H646 0.930 . S
C656 C655 1.400 . S
C656 C659 1.386 . S
H657 C673 0.930 . S
H658 C674 0.931 . S
C659 H647 0.929 . S
C659 C653 1.390 . S
C659 C656 1.386 . S
C660 C655 1.476 1_655 S
C660 C662 1.402 . S
C660 C663 1.409 . S
H661 C667 0.930 . S
C662 H648 0.930 . S
C662 C660 1.402 . S
C662 C665 1.403 . S
C663 C660 1.409 . S
C663 C664 1.512 1_655 S
C663 C667 1.400 . S
C664 H649 0.947 1_455 S
C664 H650 0.981 . S
C664 H651 0.965 . S
C664 C663 1.512 1_455 S
C665 C662 1.403 . S
C665 C666 1.392 . S
C665 C669 1.495 . S
C666 C665 1.392 . S
C666 C667 1.385 . S
C666 C668 1.478 . S
C667 H661 0.930 . S
C667 C663 1.400 . S
C667 C666 1.385 . S
C668 C666 1.478 . S
C668 C670 1.381 . S
C668 C674 1.383 . S
C669 C665 1.495 . S
C669 H675 0.959 . S
C669 H676 0.961 . S
C669 H677 0.960 . S
C670 C668 1.381 . S
C670 C671 1.394 . S
C670 H678 0.930 . S
C671 C670 1.394 . S
C671 C672 1.383 . S
C671 H679 0.929 . S
C672 C671 1.383 . S
C672 C673 1.377 . S
C673 H657 0.930 . S
C673 C672 1.377 . S
C673 C674 1.379 . S
C674 H658 0.931 . S
C674 C668 1.383 . S
C674 C673 1.379 . S
H675 C669 0.959 . S
H676 C669 0.961 . S
H677 C669 0.960 . S
H678 C670 0.930 . S
H679 C671 0.929 . S
H680 C688 0.929 . S
H681 C690 0.930 . S
H682 C692 0.930 . S
H683 C695 0.929 . S
H684 C698 0.930 . S
H685 C700 0.960 . S
H686 C700 0.960 . S
H687 C700 0.960 . S
C688 H680 0.929 . S
C688 C689 1.377 . S
C688 C690 1.384 . S
C689 C688 1.377 . S
C689 C695 1.390 . S
C690 H681 0.930 . S
C690 C688 1.384 . S
C690 C691 1.372 . S
C691 C690 1.372 . S
C691 C692 1.400 . S
C691 C696 1.490 . S
C692 H682 0.930 . S
C692 C691 1.400 . S
C692 C695 1.386 . S
H693 C709 0.930 . S
H694 C710 0.931 . S
C695 H683 0.929 . S
C695 C689 1.390 . S
C695 C692 1.386 . S
C696 C691 1.490 . S
C696 C698 1.395 . S
C696 C699 1.403 . S
H697 C703 0.930 . S
C698 H684 0.930 . S
C698 C696 1.395 . S
C698 C701 1.403 . S
C699 C696 1.403 . S
C699 C700 1.524 . S
C699 C703 1.400 . S
C700 H685 0.960 . S
C700 H686 0.960 . S
C700 H687 0.960 . S
C700 C699 1.524 . S
C701 C698 1.403 . S
C701 C702 1.392 . S
C701 C705 1.495 . S
C702 C701 1.392 . S
C702 C703 1.385 . S
C702 C704 1.478 . S
C703 H697 0.930 . S
C703 C699 1.400 . S
C703 C702 1.385 . S
C704 C702 1.478 . S
C704 C706 1.381 . S
C704 C710 1.383 . S
C705 C701 1.495 . S
C705 H711 0.959 . S
C705 H712 0.961 . S
C705 H713 0.960 . S
C706 C704 1.381 . S
C706 C707 1.394 . S
C706 H714 0.930 . S
C707 C706 1.394 . S
C707 C708 1.383 . S
C707 H715 0.929 . S
C708 C707 1.383 . S
C708 C709 1.377 . S
C709 H693 0.930 . S
C709 C708 1.377 . S
C709 C710 1.379 . S
C710 H694 0.931 . S
C710 C704 1.383 . S
C710 C709 1.379 . S
H711 C705 0.959 . S
H712 C705 0.961 . S
H713 C705 0.960 . S
H714 C706 0.930 . S
H715 C707 0.929 . S
H716 C724 0.929 . S
H717 C726 0.930 . S
H718 C728 0.930 . S
H719 C731 0.929 . S
H720 C734 0.930 . S
H721 C736 0.960 . S
H722 C736 0.960 . S
H723 C736 0.960 . S
C724 H716 0.929 . S
C724 C725 1.377 . S
C724 C726 1.384 . S
C725 C724 1.377 . S
C725 C731 1.390 . S
C726 H717 0.930 . S
C726 C724 1.384 . S
C726 C727 1.372 . S
C727 C726 1.372 . S
C727 C728 1.400 . S
C727 C732 1.490 . S
C728 H718 0.930 . S
C728 C727 1.400 . S
C728 C731 1.386 . S
H729 C745 0.930 . S
H730 C746 0.931 . S
C731 H719 0.929 . S
C731 C725 1.390 . S
C731 C728 1.386 . S
C732 C727 1.490 . S
C732 C734 1.395 . S
C732 C735 1.403 . S
H733 C739 0.930 . S
C734 H720 0.930 . S
C734 C732 1.395 . S
C734 C737 1.403 1_655 S
C735 C732 1.403 . S
C735 C736 1.524 . S
C735 C739 1.400 . S
C736 H721 0.960 . S
C736 H722 0.960 . S
C736 H723 0.960 . S
C736 C735 1.524 . S
C737 C734 1.403 1_455 S
C737 C738 1.392 1_455 S
C737 C741 1.495 . S
C738 C737 1.392 1_655 S
C738 C739 1.385 . S
C738 C740 1.478 1_655 S
C739 H733 0.930 . S
C739 C735 1.400 . S
C739 C738 1.385 . S
C740 C738 1.478 1_455 S
C740 C742 1.381 . S
C740 C746 1.383 . S
C741 C737 1.495 . S
C741 H747 0.959 . S
C741 H748 0.961 . S
C741 H749 0.960 . S
C742 C740 1.381 . S
C742 C743 1.394 . S
C742 H750 0.930 . S
C743 C742 1.394 . S
C743 C744 1.383 . S
C743 H751 0.929 . S
C744 C743 1.383 . S
C744 C745 1.377 . S
C745 H729 0.930 . S
C745 C744 1.377 . S
C745 C746 1.379 . S
C746 H730 0.931 . S
C746 C740 1.383 . S
C746 C745 1.379 . S
H747 C741 0.959 . S
H748 C741 0.961 . S
H749 C741 0.960 . S
H750 C742 0.930 . S
H751 C743 0.929 . S
H752 C760 0.929 . S
H753 C762 0.930 . S
H754 C764 0.930 . S
H755 C767 0.929 . S
H756 C770 0.930 . S
H757 C772 0.960 . S
H758 C772 0.960 . S
H759 C772 0.960 . S
C760 H752 0.929 . S
C760 C761 1.377 . S
C760 C762 1.384 . S
C761 C760 1.377 . S
C761 C767 1.390 . S
C762 H753 0.930 . S
C762 C760 1.384 . S
C762 C763 1.372 . S
C763 C762 1.372 . S
C763 C764 1.400 . S
C763 C768 1.490 . S
C764 H754 0.930 . S
C764 C763 1.400 . S
C764 C767 1.386 . S
H765 C781 0.930 . S
H766 C782 0.931 . S
C767 H755 0.929 . S
C767 C761 1.390 . S
C767 C764 1.386 . S
C768 C763 1.490 . S
C768 C770 1.395 . S
C768 C771 1.403 . S
H769 C775 0.930 . S
C770 H756 0.930 . S
C770 C768 1.395 . S
C770 C773 1.403 . S
C771 C768 1.403 . S
C771 C772 1.524 . S
C771 C775 1.400 . S
C772 H757 0.960 . S
C772 H758 0.960 . S
C772 H759 0.960 . S
C772 C771 1.524 . S
C773 C770 1.403 . S
C773 C774 1.392 . S
C773 C777 1.495 . S
C774 C773 1.392 . S
C774 C775 1.385 . S
C774 C776 1.478 . S
C775 H769 0.930 . S
C775 C771 1.400 . S
C775 C774 1.385 . S
C776 C774 1.478 . S
C776 C778 1.381 . S
C776 C782 1.383 . S
C777 C773 1.495 . S
C777 H783 0.959 . S
C777 H784 0.961 . S
C777 H785 0.960 . S
C778 C776 1.381 . S
C778 C779 1.394 . S
C778 H786 0.930 . S
C779 C778 1.394 . S
C779 C780 1.383 . S
C779 H787 0.929 . S
C780 C779 1.383 . S
C780 C781 1.377 . S
C781 H765 0.930 . S
C781 C780 1.377 . S
C781 C782 1.379 . S
C782 H766 0.931 . S
C782 C776 1.383 . S
C782 C781 1.379 . S
H783 C777 0.959 . S
H784 C777 0.961 . S
H785 C777 0.960 . S
H786 C778 0.930 . S
H787 C779 0.929 . S
H788 C796 0.929 . S
H789 C798 0.930 . S
H790 C800 0.930 . S
H791 C803 0.929 . S
H792 C806 0.930 . S
H793 C808 0.960 . S
H794 C808 0.960 . S
H795 C808 0.960 . S
C796 H788 0.929 . S
C796 C797 1.377 . S
C796 C798 1.384 . S
C797 C796 1.377 . S
C797 C803 1.390 . S
C798 H789 0.930 . S
C798 C796 1.384 . S
C798 C799 1.372 . S
C799 C798 1.372 . S
C799 C800 1.400 . S
C799 C804 1.490 . S
C800 H790 0.930 . S
C800 C799 1.400 . S
C800 C803 1.386 . S
H801 C817 0.930 . S
H802 C818 0.931 . S
C803 H791 0.929 . S
C803 C797 1.390 . S
C803 C800 1.386 . S
C804 C799 1.490 . S
C804 C806 1.395 . S
C804 C807 1.403 . S
H805 C811 0.930 . S
C806 H792 0.930 . S
C806 C804 1.395 . S
C806 C809 1.403 . S
C807 C804 1.403 . S
C807 C808 1.524 . S
C807 C811 1.400 . S
C808 H793 0.960 . S
C808 H794 0.960 . S
C808 H795 0.960 . S
C808 C807 1.524 . S
C809 C806 1.403 . S
C809 C810 1.392 . S
C809 C813 1.495 . S
C810 C809 1.392 . S
C810 C811 1.385 . S
C810 C812 1.478 . S
C811 H805 0.930 . S
C811 C807 1.400 . S
C811 C810 1.385 . S
C812 C810 1.478 . S
C812 C814 1.381 . S
C812 C818 1.383 . S
C813 C809 1.495 . S
C813 H819 0.959 . S
C813 H820 0.961 . S
C813 H821 0.960 . S
C814 C812 1.381 . S
C814 C815 1.394 . S
C814 H822 0.930 . S
C815 C814 1.394 . S
C815 C816 1.383 . S
C815 H823 0.929 . S
C816 C815 1.383 . S
C816 C817 1.377 . S
C817 H801 0.930 . S
C817 C816 1.377 . S
C817 C818 1.379 . S
C818 H802 0.931 . S
C818 C812 1.383 . S
C818 C817 1.379 . S
H819 C813 0.959 . S
H820 C813 0.961 . S
H821 C813 0.960 . S
H822 C814 0.930 . S
H823 C815 0.929 . S
H824 C832 0.929 . S
H825 C834 0.930 . S
H826 C836 0.930 . S
H827 C839 0.929 . S
H828 C842 0.930 . S
H829 C844 0.960 . S
H830 C844 0.960 . S
H831 C844 0.960 . S
C832 H824 0.929 . S
C832 C833 1.377 . S
C832 C834 1.384 . S
C833 C832 1.377 . S
C833 C839 1.390 . S
C834 H825 0.930 . S
C834 C832 1.384 . S
C834 C835 1.372 . S
C835 C834 1.372 . S
C835 C836 1.400 . S
C835 C840 1.490 . S
C836 H826 0.930 . S
C836 C835 1.400 . S
C836 C839 1.386 . S
H837 C853 0.930 . S
H838 C854 0.931 . S
C839 H827 0.929 . S
C839 C833 1.390 . S
C839 C836 1.386 . S
C840 C835 1.490 . S
C840 C842 1.395 . S
C840 C843 1.403 . S
H841 C847 0.930 . S
C842 H828 0.930 . S
C842 C840 1.395 . S
C842 C845 1.403 . S
C843 C840 1.403 . S
C843 C844 1.524 . S
C843 C847 1.400 . S
C844 H829 0.960 . S
C844 H830 0.960 . S
C844 H831 0.960 . S
C844 C843 1.524 . S
C845 C842 1.403 . S
C845 C846 1.392 . S
C845 C849 1.495 . S
C846 C845 1.392 . S
C846 C847 1.385 . S
C846 C848 1.478 . S
C847 H841 0.930 . S
C847 C843 1.400 . S
C847 C846 1.385 . S
C848 C846 1.478 . S
C848 C850 1.381 . S
C848 C854 1.383 . S
C849 C845 1.495 . S
C849 H855 0.959 . S
C849 H856 0.961 . S
C849 H857 0.960 . S
C850 C848 1.381 . S
C850 C851 1.394 . S
C850 H858 0.930 . S
C851 C850 1.394 . S
C851 C852 1.383 . S
C851 H859 0.929 . S
C852 C851 1.383 . S
C852 C853 1.377 . S
C853 H837 0.930 . S
C853 C852 1.377 . S
C853 C854 1.379 . S
C854 H838 0.931 . S
C854 C848 1.383 . S
C854 C853 1.379 . S
H855 C849 0.959 . S
H856 C849 0.961 . S
H857 C849 0.960 . S
H858 C850 0.930 . S
H859 C851 0.929 . S
H860 C868 0.929 . S
H861 C870 0.930 . S
H862 C872 0.930 . S
H863 C875 0.929 . S
H864 C878 0.930 . S
H865 C880 0.960 . S
H866 C880 0.960 . S
H867 C880 0.960 . S
C868 H860 0.929 . S
C868 C869 1.377 . S
C868 C870 1.384 . S
C869 C868 1.377 . S
C869 C875 1.390 . S
C870 H861 0.930 . S
C870 C868 1.384 . S
C870 C871 1.372 . S
C871 C870 1.372 . S
C871 C872 1.400 . S
C871 C876 1.490 . S
C872 H862 0.930 . S
C872 C871 1.400 . S
C872 C875 1.386 . S
H873 C889 0.930 . S
H874 C890 0.931 . S
C875 H863 0.929 . S
C875 C869 1.390 . S
C875 C872 1.386 . S
C876 C871 1.490 . S
C876 C878 1.395 . S
C876 C879 1.403 . S
H877 C883 0.930 . S
C878 H864 0.930 . S
C878 C876 1.395 . S
C878 C881 1.403 . S
C879 C876 1.403 . S
C879 C880 1.524 . S
C879 C883 1.400 . S
C880 H865 0.960 . S
C880 H866 0.960 . S
C880 H867 0.960 . S
C880 C879 1.524 . S
C881 C878 1.403 . S
C881 C882 1.392 . S
C881 C885 1.495 . S
C882 C881 1.392 . S
C882 C883 1.385 . S
C882 C884 1.478 . S
C883 H877 0.930 . S
C883 C879 1.400 . S
C883 C882 1.385 . S
C884 C882 1.478 . S
C884 C886 1.381 . S
C884 C890 1.383 . S
C885 C881 1.495 . S
C885 H891 0.959 . S
C885 H892 0.961 . S
C885 H893 0.960 . S
C886 C884 1.381 . S
C886 C887 1.394 . S
C886 H894 0.930 . S
C887 C886 1.394 . S
C887 C888 1.383 . S
C887 H895 0.929 . S
C888 C887 1.383 . S
C888 C889 1.377 . S
C889 H873 0.930 . S
C889 C888 1.377 . S
C889 C890 1.379 . S
C890 H874 0.931 . S
C890 C884 1.383 . S
C890 C889 1.379 . S
H891 C885 0.959 . S
H892 C885 0.961 . S
H893 C885 0.960 . S
H894 C886 0.930 . S
H895 C887 0.929 . S
H896 C904 0.929 . S
H897 C906 0.930 . S
H898 C908 0.930 . S
H899 C911 0.929 . S
H900 C914 0.930 . S
H901 C916 0.960 . S
H902 C916 0.960 . S
H903 C916 0.960 . S
C904 H896 0.929 . S
C904 C905 1.377 . S
C904 C906 1.384 . S
C905 C904 1.377 . S
C905 C911 1.390 . S
C906 H897 0.930 . S
C906 C904 1.384 . S
C906 C907 1.372 . S
C907 C906 1.372 . S
C907 C908 1.400 . S
C907 C912 1.490 . S
C908 H898 0.930 . S
C908 C907 1.400 . S
C908 C911 1.386 . S
H909 C925 0.930 . S
H910 C926 0.931 . S
C911 H899 0.929 . S
C911 C905 1.390 . S
C911 C908 1.386 . S
C912 C907 1.490 . S
C912 C914 1.395 . S
C912 C915 1.403 . S
H913 C919 0.930 . S
C914 H900 0.930 . S
C914 C912 1.395 . S
C914 C917 1.403 . S
C915 C912 1.403 . S
C915 C916 1.524 . S
C915 C919 1.400 . S
C916 H901 0.960 . S
C916 H902 0.960 . S
C916 H903 0.960 . S
C916 C915 1.524 . S
C917 C914 1.403 . S
C917 C918 1.392 . S
C917 C921 1.495 . S
C918 C917 1.392 . S
C918 C919 1.385 . S
C918 C920 1.478 . S
C919 H913 0.930 . S
C919 C915 1.400 . S
C919 C918 1.385 . S
C920 C918 1.478 . S
C920 C922 1.381 . S
C920 C926 1.383 . S
C921 C917 1.495 . S
C921 H927 0.959 . S
C921 H928 0.961 . S
C921 H929 0.960 . S
C922 C920 1.381 . S
C922 C923 1.394 . S
C922 H930 0.930 . S
C923 C922 1.394 . S
C923 C924 1.383 . S
C923 H931 0.929 . S
C924 C923 1.383 . S
C924 C925 1.377 . S
C925 H909 0.930 . S
C925 C924 1.377 . S
C925 C926 1.379 . S
C926 H910 0.931 . S
C926 C920 1.383 . S
C926 C925 1.379 . S
H927 C921 0.959 . S
H928 C921 0.961 . S
H929 C921 0.960 . S
H930 C922 0.930 . S
H931 C923 0.929 . S
H932 C940 0.929 . S
H933 C942 0.930 . S
H934 C944 0.930 . S
H935 C947 0.929 1_554 S
H936 C950 0.930 . S
H937 C952 0.960 . S
H938 C952 0.960 . S
H939 C952 0.960 . S
C940 H932 0.929 . S
C940 C941 1.377 . S
C940 C942 1.384 . S
C941 C940 1.377 . S
C941 C947 1.390 . S
C942 H933 0.930 . S
C942 C940 1.384 . S
C942 C943 1.372 . S
C943 C942 1.372 . S
C943 C944 1.400 . S
C943 C948 1.490 . S
C944 H934 0.930 . S
C944 C943 1.400 . S
C944 C947 1.386 . S
H945 C961 0.930 . S
H946 C962 0.931 . S
C947 H935 0.929 1_556 S
C947 C941 1.390 . S
C947 C944 1.386 . S
C948 C943 1.490 . S
C948 C950 1.395 . S
C948 C951 1.403 . S
H949 C955 0.930 . S
C950 H936 0.930 . S
C950 C948 1.395 . S
C950 C953 1.403 . S
C951 C948 1.403 . S
C951 C952 1.524 . S
C951 C955 1.400 . S
C952 H937 0.960 . S
C952 H938 0.960 . S
C952 H939 0.960 . S
C952 C951 1.524 . S
C953 C950 1.403 . S
C953 C954 1.392 . S
C953 C957 1.495 . S
C954 C953 1.392 . S
C954 C955 1.385 . S
C954 C956 1.478 . S
C955 H949 0.930 . S
C955 C951 1.400 . S
C955 C954 1.385 . S
C956 C954 1.478 . S
C956 C958 1.381 . S
C956 C962 1.383 . S
C957 C953 1.495 . S
C957 H963 0.959 . S
C957 H964 0.961 . S
C957 H965 0.960 . S
C958 C956 1.381 . S
C958 C959 1.394 . S
C958 H966 0.930 . S
C959 C958 1.394 . S
C959 C960 1.383 . S
C959 H967 0.929 . S
C960 C959 1.383 . S
C960 C961 1.377 . S
C961 H945 0.930 . S
C961 C960 1.377 . S
C961 C962 1.379 . S
C962 H946 0.931 . S
C962 C956 1.383 . S
C962 C961 1.379 . S
H963 C957 0.959 . S
H964 C957 0.961 . S
H965 C957 0.960 . S
H966 C958 0.930 . S
H967 C959 0.929 . S
H968 C976 0.929 . S
H969 C978 0.930 . S
H970 C980 0.930 . S
H971 C983 0.929 . S
H972 C986 0.930 . S
H973 C988 0.960 . S
H974 C988 0.960 . S
H975 C988 0.960 . S
C976 H968 0.929 . S
C976 C977 1.377 . S
C976 C978 1.384 . S
C977 C976 1.377 . S
C977 C983 1.390 . S
C978 H969 0.930 . S
C978 C976 1.384 . S
C978 C979 1.372 . S
C979 C978 1.372 . S
C979 C980 1.400 . S
C979 C984 1.490 . S
C980 H970 0.930 . S
C980 C979 1.400 . S
C980 C983 1.386 . S
H981 C997 0.930 . S
H982 C998 0.931 . S
C983 H971 0.929 . S
C983 C977 1.390 . S
C983 C980 1.386 . S
C984 C979 1.490 . S
C984 C986 1.395 . S
C984 C987 1.403 . S
H985 C991 0.930 . S
C986 H972 0.930 . S
C986 C984 1.395 . S
C986 C989 1.403 . S
C987 C984 1.403 . S
C987 C988 1.524 . S
C987 C991 1.400 . S
C988 H973 0.960 . S
C988 H974 0.960 . S
C988 H975 0.960 . S
C988 C987 1.524 . S
C989 C986 1.403 . S
C989 C990 1.392 . S
C989 C993 1.495 . S
C990 C989 1.392 . S
C990 C991 1.385 . S
C990 C992 1.478 . S
C991 H985 0.930 . S
C991 C987 1.400 . S
C991 C990 1.385 . S
C992 C990 1.478 . S
C992 C994 1.381 . S
C992 C998 1.383 . S
C993 C989 1.495 . S
C993 H999 0.959 . S
C993 H1000 0.961 . S
C993 H1001 0.960 . S
C994 C992 1.381 . S
C994 C995 1.394 . S
C994 H1002 0.930 . S
C995 C994 1.394 . S
C995 C996 1.383 . S
C995 H1003 0.929 . S
C996 C995 1.383 . S
C996 C997 1.377 . S
C997 H981 0.930 . S
C997 C996 1.377 . S
C997 C998 1.379 . S
C998 H982 0.931 . S
C998 C992 1.383 . S
C998 C997 1.379 . S
H999 C993 0.959 . S
H1000 C993 0.961 . S
H1001 C993 0.960 . S
H1002 C994 0.930 . S
H1003 C995 0.929 . S
H1004 C1012 0.929 . S
H1005 C1014 0.930 . S
H1006 C1016 0.930 . S
H1007 C1019 0.929 . S
H1008 C1022 0.930 . S
H1009 C1024 0.960 . S
H1010 C1024 0.960 . S
H1011 C1024 0.960 . S
C1012 H1004 0.929 . S
C1012 C1013 1.377 . S
C1012 C1014 1.384 . S
C1013 C1012 1.377 . S
C1013 C1019 1.390 . S
C1014 H1005 0.930 . S
C1014 C1012 1.384 . S
C1014 C1015 1.372 . S
C1015 C1014 1.372 . S
C1015 C1016 1.400 . S
C1015 C1020 1.490 . S
C1016 H1006 0.930 . S
C1016 C1015 1.400 . S
C1016 C1019 1.386 . S
H1017 C1033 0.930 . S
H1018 C1034 0.931 . S
C1019 H1007 0.929 . S
C1019 C1013 1.390 . S
C1019 C1016 1.386 . S
C1020 C1015 1.490 . S
C1020 C1022 1.395 . S
C1020 C1023 1.403 . S
H1021 C1027 0.930 . S
C1022 H1008 0.930 . S
C1022 C1020 1.395 . S
C1022 C1025 1.403 . S
C1023 C1020 1.403 . S
C1023 C1024 1.524 . S
C1023 C1027 1.400 . S
C1024 H1009 0.960 . S
C1024 H1010 0.960 . S
C1024 H1011 0.960 . S
C1024 C1023 1.524 . S
C1025 C1022 1.403 . S
C1025 C1026 1.392 . S
C1025 C1029 1.495 . S
C1026 C1025 1.392 . S
C1026 C1027 1.385 . S
C1026 C1028 1.478 . S
C1027 H1021 0.930 . S
C1027 C1023 1.400 . S
C1027 C1026 1.385 . S
C1028 C1026 1.478 . S
C1028 C1030 1.381 . S
C1028 C1034 1.383 . S
C1029 C1025 1.495 . S
C1029 H1035 0.959 . S
C1029 H1036 0.961 . S
C1029 H1037 0.960 . S
C1030 C1028 1.381 . S
C1030 C1031 1.394 . S
C1030 H1038 0.930 . S
C1031 C1030 1.394 . S
C1031 C1032 1.383 . S
C1031 H1039 0.929 . S
C1032 C1031 1.383 . S
C1032 C1033 1.377 . S
C1033 H1017 0.930 . S
C1033 C1032 1.377 . S
C1033 C1034 1.379 . S
C1034 H1018 0.931 . S
C1034 C1028 1.383 . S
C1034 C1033 1.379 . S
H1035 C1029 0.959 . S
H1036 C1029 0.961 . S
H1037 C1029 0.960 . S
H1038 C1030 0.930 . S
H1039 C1031 0.929 . S
C185 C8 1.449 . S
C204 C95 1.354 . S
C221 C31 1.347 . S
C240 C104 1.047 . S
C257 C53 1.199 . S
C276 C115 0.931 . S
C312 C126 0.911 . S
C293 C74 1.015 . S
C348 C139 1.248 . S
C329 C26 1.229 . S
C365 C48 1.107 1_556 S
C384 C148 0.904 . S
C401 C71 0.984 . S
C420 C159 0.972 . S
C437 C5 1.589 . S
C456 C172 1.507 . S
C473 C50 1.083 . S
C492 C170 0.927 . S
C528 C137 1.007 . S
C509 C70 1.244 . S
C564 C150 1.491 . S
C545 C4 1.565 . S
C581 C28 1.602 . S
C600 C161 1.629 . S
C636 C106 1.337 . S
C617 C73 1.345 . S
C653 C7 1.579 . S
C672 C117 1.506 . S
C708 C128 1.311 . S
C689 C30 1.306 . S
C744 C93 0.781 . S
C725 C52 1.098 . S
C780 C162 1.407 . S
C761 C9 1.388 . S
C816 C173 1.405 . S
C797 C29 1.458 . S
C833 C51 1.242 . S
C852 C140 1.241 . S
C888 C151 1.321 . S
C869 C75 1.403 . S
C924 C118 1.482 . S
C905 C27 1.552 . S
C941 C49 1.224 . S
C960 C129 1.212 . S
C996 C96 1.319 . S
C977 C72 1.362 . S
C1032 C107 1.366 . S
C1013 C6 1.415 . S
