# Generated by pormake.
# Topology gar, (4,6)-cn, num edge types: 1
# Building blocks:
#     Node 0, Type 0, BuildingBlock: KUFVIS_clean_sbu_0, # of connection points: 4
#     Node 1, Type 0, BuildingBlock: KUFVIS_clean_sbu_0, # of connection points: 4
#     Node 2, Type 0, BuildingBlock: KUFVIS_clean_sbu_0, # of connection points: 4
#     Node 3, Type 0, BuildingBlock: KUFVIS_clean_sbu_0, # of connection points: 4
#     Node 4, Type 0, BuildingBlock: KUFVIS_clean_sbu_0, # of connection points: 4
#     Node 5, Type 0, BuildingBlock: KUFVIS_clean_sbu_0, # of connection points: 4
#     Node 6, Type 0, BuildingBlock: KUFVIS_clean_sbu_0, # of connection points: 4
#     Node 7, Type 0, BuildingBlock: KUFVIS_clean_sbu_0, # of connection points: 4
#     Node 8, Type 0, BuildingBlock: KUFVIS_clean_sbu_0, # of connection points: 4
#     Node 9, Type 0, BuildingBlock: KUFVIS_clean_sbu_0, # of connection points: 4
#     Node 10, Type 0, BuildingBlock: KUFVIS_clean_sbu_0, # of connection points: 4
#     Node 11, Type 0, BuildingBlock: KUFVIS_clean_sbu_0, # of connection points: 4
#     Node 12, Type 0, BuildingBlock: KUFVIS_clean_sbu_0, # of connection points: 4
#     Node 13, Type 0, BuildingBlock: KUFVIS_clean_sbu_0, # of connection points: 4
#     Node 14, Type 0, BuildingBlock: KUFVIS_clean_sbu_0, # of connection points: 4
#     Node 15, Type 0, BuildingBlock: KUFVIS_clean_sbu_0, # of connection points: 4
#     Node 16, Type 0, BuildingBlock: KUFVIS_clean_sbu_0, # of connection points: 4
#     Node 17, Type 0, BuildingBlock: KUFVIS_clean_sbu_0, # of connection points: 4
#     Node 18, Type 0, BuildingBlock: KUFVIS_clean_sbu_0, # of connection points: 4
#     Node 19, Type 0, BuildingBlock: KUFVIS_clean_sbu_0, # of connection points: 4
#     Node 20, Type 0, BuildingBlock: KUFVIS_clean_sbu_0, # of connection points: 4
#     Node 21, Type 0, BuildingBlock: KUFVIS_clean_sbu_0, # of connection points: 4
#     Node 22, Type 0, BuildingBlock: KUFVIS_clean_sbu_0, # of connection points: 4
#     Node 23, Type 0, BuildingBlock: KUFVIS_clean_sbu_0, # of connection points: 4
#     Node 24, Type 1, BuildingBlock: NUHQIS_clean_sbu_0, # of connection points: 6
#     Node 25, Type 1, BuildingBlock: NUHQIS_clean_sbu_0, # of connection points: 6
#     Node 26, Type 1, BuildingBlock: NUHQIS_clean_sbu_0, # of connection points: 6
#     Node 27, Type 1, BuildingBlock: NUHQIS_clean_sbu_0, # of connection points: 6
#     Node 28, Type 1, BuildingBlock: NUHQIS_clean_sbu_0, # of connection points: 6
#     Node 29, Type 1, BuildingBlock: NUHQIS_clean_sbu_0, # of connection points: 6
#     Node 30, Type 1, BuildingBlock: NUHQIS_clean_sbu_0, # of connection points: 6
#     Node 31, Type 1, BuildingBlock: NUHQIS_clean_sbu_0, # of connection points: 6
#     Node 32, Type 1, BuildingBlock: NUHQIS_clean_sbu_0, # of connection points: 6
#     Node 33, Type 1, BuildingBlock: NUHQIS_clean_sbu_0, # of connection points: 6
#     Node 34, Type 1, BuildingBlock: NUHQIS_clean_sbu_0, # of connection points: 6
#     Node 35, Type 1, BuildingBlock: NUHQIS_clean_sbu_0, # of connection points: 6
#     Node 36, Type 1, BuildingBlock: NUHQIS_clean_sbu_0, # of connection points: 6
#     Node 37, Type 1, BuildingBlock: NUHQIS_clean_sbu_0, # of connection points: 6
#     Node 38, Type 1, BuildingBlock: NUHQIS_clean_sbu_0, # of connection points: 6
#     Node 39, Type 1, BuildingBlock: NUHQIS_clean_sbu_0, # of connection points: 6
#     Edge 40, Type (0, 1), BuildingBlock: AJUNOK_clean_linker_0, # of connection points: 2
#     Edge 41, Type (0, 1), BuildingBlock: AJUNOK_clean_linker_0, # of connection points: 2
#     Edge 42, Type (0, 1), BuildingBlock: AJUNOK_clean_linker_0, # of connection points: 2
#     Edge 43, Type (0, 1), BuildingBlock: AJUNOK_clean_linker_0, # of connection points: 2
#     Edge 44, Type (0, 1), BuildingBlock: AJUNOK_clean_linker_0, # of connection points: 2
#     Edge 45, Type (0, 1), BuildingBlock: AJUNOK_clean_linker_0, # of connection points: 2
#     Edge 46, Type (0, 1), BuildingBlock: AJUNOK_clean_linker_0, # of connection points: 2
#     Edge 47, Type (0, 1), BuildingBlock: AJUNOK_clean_linker_0, # of connection points: 2
#     Edge 48, Type (0, 1), BuildingBlock: AJUNOK_clean_linker_0, # of connection points: 2
#     Edge 49, Type (0, 1), BuildingBlock: AJUNOK_clean_linker_0, # of connection points: 2
#     Edge 50, Type (0, 1), BuildingBlock: AJUNOK_clean_linker_0, # of connection points: 2
#     Edge 51, Type (0, 1), BuildingBlock: AJUNOK_clean_linker_0, # of connection points: 2
#     Edge 52, Type (0, 1), BuildingBlock: AJUNOK_clean_linker_0, # of connection points: 2
#     Edge 53, Type (0, 1), BuildingBlock: AJUNOK_clean_linker_0, # of connection points: 2
#     Edge 54, Type (0, 1), BuildingBlock: AJUNOK_clean_linker_0, # of connection points: 2
#     Edge 55, Type (0, 1), BuildingBlock: AJUNOK_clean_linker_0, # of connection points: 2
#     Edge 56, Type (0, 1), BuildingBlock: AJUNOK_clean_linker_0, # of connection points: 2
#     Edge 57, Type (0, 1), BuildingBlock: AJUNOK_clean_linker_0, # of connection points: 2
#     Edge 58, Type (0, 1), BuildingBlock: AJUNOK_clean_linker_0, # of connection points: 2
#     Edge 59, Type (0, 1), BuildingBlock: AJUNOK_clean_linker_0, # of connection points: 2
#     Edge 60, Type (0, 1), BuildingBlock: AJUNOK_clean_linker_0, # of connection points: 2
#     Edge 61, Type (0, 1), BuildingBlock: AJUNOK_clean_linker_0, # of connection points: 2
#     Edge 62, Type (0, 1), BuildingBlock: AJUNOK_clean_linker_0, # of connection points: 2
#     Edge 63, Type (0, 1), BuildingBlock: AJUNOK_clean_linker_0, # of connection points: 2
#     Edge 64, Type (0, 1), BuildingBlock: AJUNOK_clean_linker_0, # of connection points: 2
#     Edge 65, Type (0, 1), BuildingBlock: AJUNOK_clean_linker_0, # of connection points: 2
#     Edge 66, Type (0, 1), BuildingBlock: AJUNOK_clean_linker_0, # of connection points: 2
#     Edge 67, Type (0, 1), BuildingBlock: AJUNOK_clean_linker_0, # of connection points: 2
#     Edge 68, Type (0, 1), BuildingBlock: AJUNOK_clean_linker_0, # of connection points: 2
#     Edge 69, Type (0, 1), BuildingBlock: AJUNOK_clean_linker_0, # of connection points: 2
#     Edge 70, Type (0, 1), BuildingBlock: AJUNOK_clean_linker_0, # of connection points: 2
#     Edge 71, Type (0, 1), BuildingBlock: AJUNOK_clean_linker_0, # of connection points: 2
#     Edge 72, Type (0, 1), BuildingBlock: AJUNOK_clean_linker_0, # of connection points: 2
#     Edge 73, Type (0, 1), BuildingBlock: AJUNOK_clean_linker_0, # of connection points: 2
#     Edge 74, Type (0, 1), BuildingBlock: AJUNOK_clean_linker_0, # of connection points: 2
#     Edge 75, Type (0, 1), BuildingBlock: AJUNOK_clean_linker_0, # of connection points: 2
#     Edge 76, Type (0, 1), BuildingBlock: AJUNOK_clean_linker_0, # of connection points: 2
#     Edge 77, Type (0, 1), BuildingBlock: AJUNOK_clean_linker_0, # of connection points: 2
#     Edge 78, Type (0, 1), BuildingBlock: AJUNOK_clean_linker_0, # of connection points: 2
#     Edge 79, Type (0, 1), BuildingBlock: AJUNOK_clean_linker_0, # of connection points: 2
#     Edge 80, Type (0, 1), BuildingBlock: AJUNOK_clean_linker_0, # of connection points: 2
#     Edge 81, Type (0, 1), BuildingBlock: AJUNOK_clean_linker_0, # of connection points: 2
#     Edge 82, Type (0, 1), BuildingBlock: AJUNOK_clean_linker_0, # of connection points: 2
#     Edge 83, Type (0, 1), BuildingBlock: AJUNOK_clean_linker_0, # of connection points: 2
#     Edge 84, Type (0, 1), BuildingBlock: AJUNOK_clean_linker_0, # of connection points: 2
#     Edge 85, Type (0, 1), BuildingBlock: AJUNOK_clean_linker_0, # of connection points: 2
#     Edge 86, Type (0, 1), BuildingBlock: AJUNOK_clean_linker_0, # of connection points: 2
#     Edge 87, Type (0, 1), BuildingBlock: AJUNOK_clean_linker_0, # of connection points: 2
#     Edge 88, Type (0, 1), BuildingBlock: AJUNOK_clean_linker_0, # of connection points: 2
#     Edge 89, Type (0, 1), BuildingBlock: AJUNOK_clean_linker_0, # of connection points: 2
#     Edge 90, Type (0, 1), BuildingBlock: AJUNOK_clean_linker_0, # of connection points: 2
#     Edge 91, Type (0, 1), BuildingBlock: AJUNOK_clean_linker_0, # of connection points: 2
#     Edge 92, Type (0, 1), BuildingBlock: AJUNOK_clean_linker_0, # of connection points: 2
#     Edge 93, Type (0, 1), BuildingBlock: AJUNOK_clean_linker_0, # of connection points: 2
#     Edge 94, Type (0, 1), BuildingBlock: AJUNOK_clean_linker_0, # of connection points: 2
#     Edge 95, Type (0, 1), BuildingBlock: AJUNOK_clean_linker_0, # of connection points: 2
#     Edge 96, Type (0, 1), BuildingBlock: AJUNOK_clean_linker_0, # of connection points: 2
#     Edge 97, Type (0, 1), BuildingBlock: AJUNOK_clean_linker_0, # of connection points: 2
#     Edge 98, Type (0, 1), BuildingBlock: AJUNOK_clean_linker_0, # of connection points: 2
#     Edge 99, Type (0, 1), BuildingBlock: AJUNOK_clean_linker_0, # of connection points: 2
#     Edge 100, Type (0, 1), BuildingBlock: AJUNOK_clean_linker_0, # of connection points: 2
#     Edge 101, Type (0, 1), BuildingBlock: AJUNOK_clean_linker_0, # of connection points: 2
#     Edge 102, Type (0, 1), BuildingBlock: AJUNOK_clean_linker_0, # of connection points: 2
#     Edge 103, Type (0, 1), BuildingBlock: AJUNOK_clean_linker_0, # of connection points: 2
#     Edge 104, Type (0, 1), BuildingBlock: AJUNOK_clean_linker_0, # of connection points: 2
#     Edge 105, Type (0, 1), BuildingBlock: AJUNOK_clean_linker_0, # of connection points: 2
#     Edge 106, Type (0, 1), BuildingBlock: AJUNOK_clean_linker_0, # of connection points: 2
#     Edge 107, Type (0, 1), BuildingBlock: AJUNOK_clean_linker_0, # of connection points: 2
#     Edge 108, Type (0, 1), BuildingBlock: AJUNOK_clean_linker_0, # of connection points: 2
#     Edge 109, Type (0, 1), BuildingBlock: AJUNOK_clean_linker_0, # of connection points: 2
#     Edge 110, Type (0, 1), BuildingBlock: AJUNOK_clean_linker_0, # of connection points: 2
#     Edge 111, Type (0, 1), BuildingBlock: AJUNOK_clean_linker_0, # of connection points: 2
#     Edge 112, Type (0, 1), BuildingBlock: AJUNOK_clean_linker_0, # of connection points: 2
#     Edge 113, Type (0, 1), BuildingBlock: AJUNOK_clean_linker_0, # of connection points: 2
#     Edge 114, Type (0, 1), BuildingBlock: AJUNOK_clean_linker_0, # of connection points: 2
#     Edge 115, Type (0, 1), BuildingBlock: AJUNOK_clean_linker_0, # of connection points: 2
#     Edge 116, Type (0, 1), BuildingBlock: AJUNOK_clean_linker_0, # of connection points: 2
#     Edge 117, Type (0, 1), BuildingBlock: AJUNOK_clean_linker_0, # of connection points: 2
#     Edge 118, Type (0, 1), BuildingBlock: AJUNOK_clean_linker_0, # of connection points: 2
#     Edge 119, Type (0, 1), BuildingBlock: AJUNOK_clean_linker_0, # of connection points: 2
#     Edge 120, Type (0, 1), BuildingBlock: AJUNOK_clean_linker_0, # of connection points: 2
#     Edge 121, Type (0, 1), BuildingBlock: AJUNOK_clean_linker_0, # of connection points: 2
#     Edge 122, Type (0, 1), BuildingBlock: AJUNOK_clean_linker_0, # of connection points: 2
#     Edge 123, Type (0, 1), BuildingBlock: AJUNOK_clean_linker_0, # of connection points: 2
#     Edge 124, Type (0, 1), BuildingBlock: AJUNOK_clean_linker_0, # of connection points: 2
#     Edge 125, Type (0, 1), BuildingBlock: AJUNOK_clean_linker_0, # of connection points: 2
#     Edge 126, Type (0, 1), BuildingBlock: AJUNOK_clean_linker_0, # of connection points: 2
#     Edge 127, Type (0, 1), BuildingBlock: AJUNOK_clean_linker_0, # of connection points: 2
#     Edge 128, Type (0, 1), BuildingBlock: AJUNOK_clean_linker_0, # of connection points: 2
#     Edge 129, Type (0, 1), BuildingBlock: AJUNOK_clean_linker_0, # of connection points: 2
#     Edge 130, Type (0, 1), BuildingBlock: AJUNOK_clean_linker_0, # of connection points: 2
#     Edge 131, Type (0, 1), BuildingBlock: AJUNOK_clean_linker_0, # of connection points: 2
#     Edge 132, Type (0, 1), BuildingBlock: AJUNOK_clean_linker_0, # of connection points: 2
#     Edge 133, Type (0, 1), BuildingBlock: AJUNOK_clean_linker_0, # of connection points: 2
#     Edge 134, Type (0, 1), BuildingBlock: AJUNOK_clean_linker_0, # of connection points: 2
#     Edge 135, Type (0, 1), BuildingBlock: AJUNOK_clean_linker_0, # of connection points: 2
# Relax obj value: 0.284
# Max RMSD: 0.369
# Mean RMSD: 0.146
data_MOF--net-gar--node1-KUFVIS_clean_sbu_0--node2-NUHQIS_clean_sbu_0--edge1-AJUNOK_clean_linker_0
_symmetry_space_group_name_H-M    P1
_symmetry_Int_Tables_number       1
_symmetry_cell_setting            triclinic
loop_
_symmetry_equiv_pos_as_xyz
'x, y, z'
_cell_length_a     42.163139
_cell_length_b     44.641008
_cell_length_c     42.78879
_cell_angle_alpha  93.295311
_cell_angle_beta   95.867384
_cell_angle_gamma 99.154071
loop_
_atom_site_label
_atom_site_type_symbol
_atom_site_fract_x
_atom_site_fract_y
_atom_site_fract_z
_atom_type_partial_charge
Mn0 Mn 0.10531 0.32077 0.44101 0.0
Mn1 Mn 0.10474 0.37093 0.38195 0.0
C2 C 0.0537 0.32827 0.41001 0.0
C3 C 0.10523 0.26642 0.46387 0.0
C4 C 0.11433 0.39634 0.45218 0.0
O5 O 0.1538 0.3244 0.42412 0.0
O6 O 0.14867 0.35739 0.38662 0.0
C7 C 0.11011 0.32867 0.32738 0.0
N8 N 0.09396 0.34877 0.34163 0.0
C9 C 0.05497 0.34551 0.29582 0.0
C10 C 0.07134 0.32497 0.28062 0.0
C11 C 0.09893 0.31641 0.29653 0.0
C12 C 0.06715 0.35689 0.32664 0.0
H13 H 0.13142 0.32208 0.33935 0.0
C14 C 0.16537 0.33945 0.40096 0.0
O15 O 0.11384 0.2927 0.47963 0.0
O16 O 0.09796 0.27133 0.43448 0.0
N17 N 0.06477 0.38585 0.37309 0.0
C18 C 0.05154 0.40588 0.39096 0.0
C19 C 1.02374 0.41661 0.37842 0.0
C20 C 1.00983 0.4068 0.34759 0.0
C21 C 1.02396 0.38642 0.32953 0.0
C22 C 0.05185 0.37669 0.34319 0.0
H23 H 0.0619 0.41361 0.41467 0.0
O24 O 0.05491 0.31807 0.43785 0.0
O25 O 0.08265 0.33456 0.40128 0.0
O26 O 0.11201 0.36911 0.46323 0.0
O27 O 0.1147 0.39803 0.42238 0.0
C28 C 1.01141 0.37537 0.29851 0.0
C29 C 1.02687 0.3549 0.28169 0.0
H30 H 0.06283 0.31548 0.25681 0.0
H31 H 0.11163 0.30048 0.285 0.0
H32 H 1.013 0.43235 0.39254 0.0
H33 H 0.98825 0.41496 0.33807 0.0
H34 H 0.98979 0.38237 0.28742 0.0
H35 H 1.01688 0.34642 0.25791 0.0
Mn36 Mn 0.09509 0.82871 0.67756 0.0
Mn37 Mn 0.11113 0.88571 0.73697 0.0
C38 C 0.1507 0.84377 0.70622 0.0
C39 C 0.08787 0.77127 0.65483 0.0
C40 C 0.09945 0.90282 0.667 0.0
O41 O 1.04735 0.8288 0.69706 0.0
O42 O 0.06325 0.8674 0.73442 0.0
C43 C 0.09952 0.84934 0.79182 0.0
N44 N 0.11971 0.8689 0.77654 0.0
C45 C 0.16288 0.87136 0.81854 0.0
C46 C 0.14245 0.85141 0.83476 0.0
C47 C 0.11066 0.84034 0.82131 0.0
C48 C 0.15038 0.8797 0.7893 0.0
H49 H 0.07509 0.8406 0.78165 0.0
C50 C 1.04064 0.84626 0.7209 0.0
O51 O 0.08061 0.7939 0.63931 0.0
O52 O 0.09625 0.78116 0.68411 0.0
N53 N 0.1557 0.9046 0.74332 0.0
C54 C 0.17288 0.92263 0.72413 0.0
C55 C 0.20537 0.935 0.7339 0.0
C56 C 0.21991 0.92871 0.76326 0.0
C57 C 0.20178 0.91017 0.78265 0.0
C58 C 0.16939 0.89867 0.77178 0.0
H59 H 0.16203 0.92746 0.70143 0.0
O60 O 0.1452 0.83231 0.6773 0.0
O61 O 0.12367 0.84849 0.71667 0.0
O62 O 0.0949 0.87407 0.65566 0.0
O63 O 0.1041 0.90799 0.69715 0.0
C64 C 0.21473 0.90231 0.81213 0.0
C65 C 0.19529 0.88293 0.83007 0.0
H66 H 0.15099 0.8443 0.85745 0.0
H67 H 0.09477 0.82485 0.83363 0.0
H68 H 0.21924 0.94919 0.71874 0.0
H69 H 0.24507 0.93805 0.77058 0.0
H70 H 0.2397 0.91081 0.82109 0.0
H71 H 0.20561 0.87684 0.85259 0.0
Mn72 Mn 0.59826 0.82341 0.94328 0.0
Mn73 Mn 0.59591 0.87343 0.88415 0.0
C74 C 0.5456 0.82932 0.91218 0.0
C75 C 0.60015 0.76862 0.96613 0.0
C76 C 0.60483 0.89965 0.95434 0.0
O77 O 0.64675 0.8281 0.92616 0.0
O78 O 0.64088 0.86139 0.88912 0.0
C79 C 0.60346 0.83205 0.82958 0.0
N80 N 0.58658 0.85168 0.84354 0.0
C81 C 0.54932 0.84931 0.79654 0.0
C82 C 0.5665 0.8293 0.78162 0.0
C83 C 0.59359 0.82053 0.79827 0.0
C84 C 0.56037 0.86017 0.82775 0.0
H85 H 0.62437 0.82527 0.84215 0.0
C86 C 0.65808 0.84358 0.90317 0.0
O87 O 0.60796 0.79506 0.98177 0.0
O88 O 0.59235 0.77365 0.93688 0.0
N89 N 0.55509 0.88663 0.87486 0.0
C90 C 0.53886 0.90302 0.89373 0.0
C91 C 0.51025 0.91235 0.88115 0.0
C92 C 0.49852 0.90468 0.84933 0.0
C93 C 0.51532 0.88741 0.83047 0.0
C94 C 0.5438 0.87884 0.84429 0.0
H95 H 0.54729 0.90851 0.91835 0.0
O96 O 0.54762 0.81943 0.94017 0.0
O97 O 0.57452 0.83642 0.90333 0.0
O98 O 0.60395 0.87238 0.96547 0.0
O99 O 0.60442 0.90103 0.92444 0.0
C100 C 0.50432 0.87747 0.79881 0.0
C101 C 0.52131 0.85843 0.78186 0.0
H102 H 0.55892 0.82028 0.7575 0.0
H103 H 0.60687 0.80497 0.78695 0.0
H104 H 0.49713 0.9252 0.89603 0.0
H105 H 0.47624 0.91161 0.83979 0.0
H106 H 0.4824 0.88375 0.7875 0.0
H107 H 0.51227 0.85048 0.75771 0.0
Mn108 Mn 0.60267 0.33248 0.18483 0.0
Mn109 Mn 0.54068 0.32472 0.12721 0.0
C110 C 0.58368 0.27941 0.15716 0.0
C111 C 0.66054 0.33911 0.20967 0.0
C112 C 0.52805 0.33281 0.19794 0.0
O113 O 0.60509 0.37937 0.16767 0.0
O114 O 0.56344 0.3701 0.12979 0.0
C115 C 0.57847 0.33519 0.07296 0.0
N116 N 0.55568 0.31743 0.0872 0.0
C117 C 0.54473 0.28053 0.04254 0.0
C118 C 0.56785 0.29858 1.0273 0.0
C119 C 0.58493 0.32593 0.04266 0.0
C120 C 0.53969 0.29069 0.07294 0.0
H121 H 0.59166 0.35626 0.0846 0.0
C122 C 0.58741 0.38931 0.14447 0.0
O123 O 0.63687 0.34596 0.22402 0.0
O124 O 0.65151 0.33071 0.18008 0.0
N125 N 0.51541 0.28482 0.11918 0.0
C126 C 0.49316 0.27037 0.13667 0.0
C127 C 0.473 0.24334 0.12407 0.0
C128 C 0.47586 0.23137 0.0936 0.0
C129 C 0.49877 0.24665 0.07595 0.0
C130 C 0.51787 0.27377 0.08957 0.0
H131 H 0.49059 0.27933 0.16003 0.0
O132 O 0.59758 0.28498 0.18584 0.0
O133 O 0.57916 0.30593 0.14584 0.0
O134 O 0.55849 0.3341 0.20781 0.0
O135 O 0.51976 0.3308 0.16797 0.0
C136 C 0.50323 0.23613 0.0453 0.0
C137 C 0.52638 0.25293 1.0287 0.0
H138 H 0.57271 0.29164 1.00382 0.0
H139 H 0.60292 0.33992 0.03111 0.0
H140 H 0.45536 0.23174 0.13785 0.0
H141 H 0.46042 0.21043 0.08404 0.0
H142 H 0.48898 0.21515 0.03426 0.0
H143 H 0.52967 0.24456 1.00518 0.0
Mn144 Mn 0.16809 0.9159 0.20315 0.0
Mn145 Mn 0.10564 0.8777 0.15305 0.0
C146 C 0.16421 0.86512 0.19123 0.0
C147 C 0.22036 0.93982 0.21851 0.0
C148 C 0.10171 0.8917 0.22117 0.0
O149 O 0.1527 0.9496 0.181 0.0
O150 O 0.10694 0.92233 0.15501 0.0
C151 C 0.12579 0.90083 0.09322 0.0
N152 N 0.11821 0.87709 0.11121 0.0
C153 C 0.12104 0.84109 0.06786 0.0
C154 C 0.12982 0.86527 0.0493 0.0
C155 C 0.13215 0.89529 0.06205 0.0
C156 C 0.11558 0.84808 0.09903 0.0
H157 H 0.12625 0.92378 0.10224 0.0
C158 C 0.12582 0.94733 0.164 0.0
O159 O 0.19707 0.94384 0.2351 0.0
O160 O 0.21204 0.92606 0.19056 0.0
N161 N 0.10087 0.83427 0.14786 0.0
C162 C 0.08861 0.81349 0.16749 0.0
C163 C 0.08371 0.78237 0.15781 0.0
C164 C 0.09054 0.77294 0.12772 0.0
C165 C 0.10143 0.79473 0.10728 0.0
C166 C 0.10617 0.82544 0.11833 0.0
H167 H 0.08278 0.82059 0.19045 0.0
O168 O 0.17947 0.87775 0.21773 0.0
O169 O 0.15111 0.88231 0.17175 0.0
O170 O 0.12814 0.91014 0.2263 0.0
O171 O 0.09148 0.87637 0.1951 0.0
C172 C 0.10716 0.78715 0.07617 0.0
C173 C 0.11697 0.81033 0.05647 0.0
H174 H 0.13432 0.86103 1.02509 0.0
H175 H 0.13829 0.91413 0.04774 0.0
H176 H 0.07459 0.76569 0.17348 0.0
H177 H 0.08701 0.74893 0.12039 0.0
H178 H 0.10374 0.76358 0.06705 0.0
H179 H 0.12099 0.80425 0.03249 0.0
Mn180 Mn 0.52456 0.74434 0.43099 0.0
Mn181 Mn 0.53309 0.77928 0.36595 0.0
C182 C 0.47799 0.74467 0.39774 0.0
C183 C 0.53714 0.70654 0.46105 0.0
C184 C 0.5432 0.80837 0.43219 0.0
O185 O 0.57314 0.75432 0.426 0.0
O186 O 0.56725 0.7545 0.37352 0.0
C187 C 0.52498 0.73096 0.31418 0.0
N188 N 0.51614 0.75653 0.32711 0.0
C189 C 0.48257 0.76227 0.27961 0.0
C190 C 0.49109 0.73585 0.26585 0.0
C191 C 0.51226 0.72005 0.28327 0.0
C192 C 0.49544 0.77166 0.31074 0.0
H193 H 0.54191 0.71924 0.32726 0.0
C194 C 0.58445 0.75301 0.39951 0.0
O195 O 0.53509 0.73307 0.47354 0.0
O196 O 0.52863 0.70069 0.43079 0.0
N197 N 0.50091 0.80427 0.35615 0.0
C198 C 0.4961 0.8302 0.37221 0.0
C199 C 0.4772 0.84958 0.35737 0.0
C200 C 0.4639 0.84253 0.32593 0.0
C201 C 0.46865 0.81566 0.30995 0.0
C202 C 0.4879 0.79726 0.32588 0.0
H203 H 0.50725 0.83676 0.39585 0.0
O204 O 0.47619 0.73597 0.42614 0.0
O205 O 0.50676 0.74944 0.38885 0.0
O206 O 0.52353 0.78792 0.44226 0.0
O207 O 0.55185 0.80604 0.40453 0.0
C208 C 0.45558 0.80679 0.27856 0.0
C209 C 0.46226 0.77993 0.2635 0.0
H210 H 0.48173 0.72763 0.24184 0.0
H211 H 0.51917 0.69979 0.27271 0.0
H212 H 0.47358 0.87031 0.36991 0.0
H213 H 0.45023 0.85794 0.31409 0.0
H214 H 0.44038 0.82048 0.26578 0.0
H215 H 0.45205 0.77331 0.23936 0.0
Mn216 Mn 0.66637 0.40993 0.69274 0.0
Mn217 Mn 0.60408 0.36851 0.64483 0.0
C218 C 0.66527 0.35903 0.68161 0.0
C219 C 0.71844 0.43411 0.70559 0.0
C220 C 0.60143 0.38417 0.71333 0.0
O221 O 0.64623 0.44266 0.67182 0.0
O222 O 0.60391 0.41242 0.64375 0.0
C223 C 0.62588 0.3883 0.58452 0.0
N224 N 0.61651 0.36557 0.6032 0.0
C225 C 0.61847 0.32727 0.56186 0.0
C226 C 0.62792 0.35027 0.5421 0.0
C227 C 0.63182 0.38092 0.55355 0.0
C228 C 0.61325 0.33603 0.59261 0.0
H229 H 0.62868 0.41189 0.59311 0.0
C230 C 0.61978 0.43856 0.65363 0.0
O231 O 0.69608 0.43898 0.72312 0.0
O232 O 0.70844 0.42237 0.67708 0.0
N233 N 0.60027 0.32524 0.6428 0.0
C234 C 0.58935 0.30587 0.6643 0.0
C235 C 0.58448 0.27438 0.65664 0.0
C236 C 0.59013 0.26317 0.62673 0.0
C237 C 0.59985 0.28353 0.60448 0.0
C238 C 0.60446 0.31468 0.61351 0.0
H239 H 0.5846 0.31439 0.6872 0.0
O240 O 0.68182 0.373 0.70682 0.0
O241 O 0.64978 0.37512 0.66273 0.0
O242 O 0.62877 0.40125 0.71859 0.0
O243 O 0.58989 0.36997 0.68693 0.0
C244 C 0.60478 0.27415 0.5736 0.0
C245 C 0.61409 0.29601 0.5523 0.0
H246 H 0.63233 0.34466 0.51813 0.0
H247 H 0.63919 0.39881 0.53847 0.0
H248 H 0.57634 0.2588 0.67374 0.0
H249 H 0.5868 0.23887 0.62103 0.0
H250 H 0.60138 0.25017 0.56597 0.0
H251 H 0.61786 0.28853 0.52863 0.0
Mn252 Mn 1.0276 0.25812 0.93426 0.0
Mn253 Mn 1.0379 0.28181 0.86381 0.0
C254 C 0.9817 0.25706 0.90021 0.0
C255 C 1.03829 0.22391 0.96945 0.0
C256 C 0.05144 0.31979 0.92562 0.0
O257 O 0.07593 0.26365 0.92879 0.0
O258 O 0.07024 0.25608 0.87633 0.0
C259 C 1.02713 0.22717 0.81927 0.0
N260 N 1.01919 0.25446 0.82846 0.0
C261 C 0.98425 0.25433 0.78033 0.0
C262 C 0.99191 0.22612 0.7704 0.0
C263 C 1.01334 0.21243 0.79003 0.0
C264 C 0.99842 0.26774 0.80989 0.0
H265 H 1.04422 0.21696 0.83396 0.0
C266 C 0.08738 0.25828 0.90299 0.0
O267 O 1.03792 0.25192 0.97871 0.0
O268 O 1.02837 0.21477 0.94001 0.0
N269 N 1.0072 0.30694 0.84966 0.0
C270 C 1.00383 0.33514 0.86161 0.0
C271 C 0.98351 0.35201 0.84465 0.0
C272 C 0.96747 0.34016 0.81513 0.0
C273 C 0.97184 0.3115 0.8029 0.0
C274 C 0.99218 0.29557 0.82103 0.0
H275 H 1.01669 0.34502 0.88376 0.0
O276 O 0.97936 0.25298 0.92984 0.0
O277 O 1.01028 0.25819 0.89117 0.0
O278 O 1.03024 0.30309 0.93845 0.0
O279 O 0.05868 0.31285 0.89819 0.0
C280 C 0.95708 0.29829 0.77323 0.0
C281 C 0.96326 0.26972 0.76196 0.0
H282 H 0.98156 0.21483 0.74773 0.0
H283 H 1.01953 0.19077 0.78243 0.0
H284 H 0.98056 0.37427 0.85416 0.0
H285 H 0.95204 0.3533 0.8019 0.0
H286 H 0.94106 0.31 0.75882 0.0
H287 H 0.95188 0.25985 0.73903 0.0
Mn288 Mn 0.5725 0.15016 0.3381 0.0
Mn289 Mn 0.51824 0.15033 0.39002 0.0
C290 C 0.55007 0.10586 0.35726 0.0
C291 C 0.58642 0.13805 0.28927 0.0
C292 C 0.59 0.17275 0.40684 0.0
O293 O 0.55472 0.18908 0.32957 0.0
O294 O 0.51734 0.18582 0.36447 0.0
C295 C 0.45517 0.14222 0.35015 0.0
N296 N 0.47572 0.1317 0.37194 0.0
C297 C 0.43603 0.08762 0.37727 0.0
C298 C 0.41452 0.09798 0.35485 0.0
C299 C 0.42412 0.12541 0.34126 0.0
C300 C 0.46645 0.10557 0.38555 0.0
H301 H 0.46229 0.16334 0.33972 0.0
C302 C 0.5308 0.19798 0.34157 0.0
O303 O 0.60685 0.15584 0.30979 0.0
O304 O 0.55655 0.13273 0.29493 0.0
N305 N 0.51753 0.11529 0.41371 0.0
C306 C 0.54239 0.10683 0.43202 0.0
C307 C 0.53814 0.07845 0.44447 0.0
C308 C 0.50825 0.05895 0.4385 0.0
C309 C 0.48293 0.06813 0.41964 0.0
C310 C 0.48885 0.09655 0.40715 0.0
H311 H 0.56567 0.12111 0.4363 0.0
O312 O 0.579 0.10858 0.34902 0.0
O313 O 0.53682 0.13007 0.35687 0.0
O314 O 0.59848 0.16783 0.37964 0.0
O315 O 0.56056 0.16899 0.4123 0.0
C316 C 0.45241 0.04983 0.41191 0.0
C317 C 0.42869 0.05994 0.39133 0.0
H318 H 0.39067 0.08495 0.34774 0.0
H319 H 0.40763 0.13359 0.32397 0.0
H320 H 0.55826 0.07189 0.45813 0.0
H321 H 0.50514 0.03682 0.4479 0.0
H322 H 0.44702 1.02784 0.42141 0.0
H323 H 0.40522 0.04576 0.38565 0.0
Mn324 Mn 0.36257 0.21192 0.56357 0.0
Mn325 Mn 0.34747 0.15429 0.50555 0.0
C326 C 0.30641 0.18239 0.55018 0.0
C327 C 0.36963 0.23578 0.62101 0.0
C328 C 0.36257 0.22204 0.48811 0.0
O329 O 0.40991 0.19543 0.56255 0.0
O330 O 0.39476 0.15715 0.52451 0.0
C331 C 0.35446 0.10048 0.5416 0.0
N332 N 0.33621 0.11536 0.52165 0.0
C333 C 0.29203 0.07328 0.51625 0.0
C334 C 0.31052 0.05741 0.53646 0.0
C335 C 0.34183 0.07112 0.54925 0.0
C336 C 0.30605 0.10234 0.50914 0.0
H337 H 0.37847 0.11091 0.55166 0.0
C338 C 0.41676 0.17198 0.54564 0.0
O339 O 0.37691 0.25029 0.59665 0.0
O340 O 0.36115 0.2069 0.61279 0.0
N341 N 0.30358 0.1481 0.48635 0.0
C342 C 0.28745 0.16785 0.47061 0.0
C343 C 0.25503 0.15847 0.45816 0.0
C344 C 0.23943 0.12895 0.46215 0.0
C345 C 0.25633 0.10918 0.47884 0.0
C346 C 0.28868 0.11976 0.49062 0.0
H347 H 0.29902 0.19075 0.46791 0.0
O348 O 0.31256 0.2106 0.56126 0.0
O349 O 0.33345 0.17294 0.54462 0.0
O350 O 0.36521 0.23298 0.5175 0.0
O351 O 0.35756 0.19297 0.48271 0.0
C352 C 0.24202 0.07975 0.4851 0.0
C353 C 0.25989 0.06176 0.50371 0.0
H354 H 0.30076 0.03488 0.54268 0.0
H355 H 0.35615 0.05911 0.56506 0.0
H356 H 0.24202 0.17404 0.44572 0.0
H357 H 0.21432 0.1219 0.45277 0.0
H358 H 0.21707 0.07095 0.47626 0.0
H359 H 0.24843 0.03938 0.50883 0.0
Mn360 Mn 0.2525 0.12889 0.89292 0.0
Mn361 Mn 0.32006 0.14534 0.94203 0.0
C362 C 0.27653 0.17905 0.90234 0.0
C363 C 0.22489 0.11407 0.8445 0.0
C364 C 0.25449 0.11937 0.96 0.0
O365 O 0.27011 0.08921 0.89566 0.0
O366 O 0.32172 0.10747 0.91617 0.0
C367 C 0.37474 0.15725 0.90374 0.0
N368 N 0.35523 0.16776 0.92378 0.0
C369 C 0.38523 0.21857 0.92577 0.0
C370 C 0.4047 0.2085 0.90405 0.0
C371 C 0.39963 0.17763 0.89323 0.0
C372 C 0.36071 0.19718 0.93527 0.0
H373 H 0.37179 0.13341 0.89645 0.0
C374 C 0.29993 0.08687 0.90101 0.0
O375 O 0.21166 0.10807 0.86992 0.0
O376 O 0.25481 0.12755 0.84711 0.0
N377 N 0.31925 0.18279 0.96601 0.0
C378 C 0.30056 0.18825 0.98915 0.0
C379 C 0.30351 0.21777 1.00354 0.0
C380 C 0.32618 0.24131 0.99447 0.0
C381 C 0.34596 0.23498 0.97136 0.0
C382 C 0.34167 0.20514 0.95764 0.0
H383 H 0.2839 0.17015 0.99696 0.0
O384 O 0.24585 0.1721 0.89262 0.0
O385 O 0.29124 0.15607 0.9071 0.0
O386 O 0.23929 0.12706 0.93579 0.0
O387 O 0.28526 0.12224 0.96423 0.0
C388 C 0.36994 0.25705 0.96158 0.0
C389 C 0.3896 0.24884 0.93883 0.0
H390 H 0.42407 0.22414 0.89606 0.0
H391 H 0.41511 0.16949 0.87713 0.0
H392 H 0.28854 0.22231 1.02177 0.0
H393 H 0.3285 0.26404 1.00571 0.0
H394 H 0.3737 0.28033 0.97166 0.0
H395 H 0.40827 0.2659 0.93183 0.0
Mn396 Mn 0.38587 0.91942 0.07089 0.0
Mn397 Mn 0.37961 0.97856 1.0264 0.0
C398 C 0.43319 0.95175 0.0591 0.0
C399 C 0.38656 0.89917 0.12213 0.0
C400 C 0.36674 0.91309 0.99811 0.0
O401 O 0.33916 0.9272 0.07363 0.0
O402 O 0.34105 0.97041 0.04836 0.0
C403 C 0.38209 1.02678 0.07787 0.0
N404 N 0.3924 1.01844 0.05001 0.0
C405 C 0.42578 0.0685 0.04948 0.0
C406 C 0.41389 0.07724 0.07755 0.0
C407 C 0.3922 0.05646 0.09173 0.0
C408 C 0.41237 0.03908 0.0357 0.0
H409 H 0.36626 1.01076 0.08956 0.0
C410 C 0.32724 0.95051 0.06497 0.0
O411 O 0.37834 0.88212 0.09602 0.0
O412 O 0.39487 0.92789 0.11851 0.0
N413 N 0.41562 0.98684 1.00419 0.0
C414 C 0.44047 0.96114 0.98671 0.0
C415 C 0.485 0.98018 0.97197 0.0
C416 C 0.49789 1.02787 0.97791 0.0
C417 C 0.46524 0.05192 0.99872 0.0
C418 C 0.42426 1.02768 1.01096 0.0
H419 H 0.43305 0.93674 0.9854 0.0
O420 O 0.4343 0.92454 0.06801 0.0
O421 O 0.40459 0.95913 0.05784 0.0
O422 O 0.37498 0.90038 1.02333 0.0
O423 O 0.36564 0.94136 0.99878 0.0
C424 C 0.47114 0.08077 1.01393 0.0
C425 C 0.4516 0.08834 0.0376 0.0
H426 H 0.42239 0.09965 0.08933 0.0
H427 H 0.38382 0.06314 0.11376 0.0
H428 H 0.50082 0.96606 0.96239 0.0
H429 H 0.52112 0.03869 0.97233 0.0
H430 H 0.49202 0.09682 1.01003 0.0
H431 H 0.45904 0.11082 0.04955 0.0
Mn432 Mn 0.34323 0.45339 0.07177 0.0
Mn433 Mn 0.34998 0.51086 1.02103 0.0
C434 C 0.39759 0.48235 0.06334 0.0
C435 C 0.33835 0.42773 0.12496 0.0
C436 C 0.33801 0.44309 0.99512 0.0
O437 O 0.29578 0.46936 0.06898 0.0
O438 O 0.30426 0.50567 0.03486 0.0
C439 C 0.34434 0.5627 0.06558 0.0
N440 N 0.36093 0.54974 0.04425 0.0
C441 C 0.40144 0.59477 0.04788 0.0
C442 C 0.3846 0.60864 0.06966 0.0
C443 C 0.356 0.59248 0.07864 0.0
C444 C 0.38864 0.56504 0.03563 0.0
H445 H 0.32235 0.55048 0.07257 0.0
C446 C 0.28575 0.4914 0.05341 0.0
O447 O 0.32928 0.41452 0.09705 0.0
O448 O 0.34894 0.45648 0.12257 0.0
N449 N 0.3914 0.52047 1.00581 0.0
C450 C 0.40627 0.50314 0.9865 0.0
C451 C 0.43558 0.51575 0.97593 0.0
C452 C 0.44943 0.54603 0.98532 0.0
C453 C 0.43391 0.56338 1.00539 0.0
C454 C 0.40456 0.54967 1.01498 0.0
H455 H 0.39629 0.47968 0.97972 0.0
O456 O 0.39333 0.4551 0.07309 0.0
O457 O 0.3698 0.49198 0.05823 0.0
O458 O 0.33699 0.43264 1.02297 0.0
O459 O 0.34044 0.47187 0.99262 0.0
C460 C 0.44684 0.59351 1.01689 0.0
C461 C 0.43066 0.60917 0.03817 0.0
H462 H 0.39353 0.6316 0.07982 0.0
H463 H 0.34293 0.60297 0.09555 0.0
H464 H 0.44764 0.50204 0.96083 0.0
H465 H 0.47224 0.55556 0.97741 0.0
H466 H 0.46951 0.60466 1.00994 0.0
H467 H 0.44108 0.63217 0.0472 0.0
Mn468 Mn 0.81739 0.24789 0.05049 0.0
Mn469 Mn 0.79933 0.18598 0.99715 0.0
C470 C 0.76473 0.21916 0.04142 0.0
C471 C 0.83559 0.26781 0.10502 0.0
C472 C 0.81249 0.25098 0.97738 0.0
O473 O 0.86176 0.23596 0.04426 0.0
O474 O 0.84492 0.19119 1.01479 0.0
C475 C 0.80714 0.13557 0.03782 0.0
N476 N 0.78844 0.14894 1.01681 0.0
C477 C 0.74522 0.10615 1.01329 0.0
C478 C 0.76397 0.09198 0.03501 0.0
C479 C 0.79502 0.1068 0.0474 0.0
C480 C 0.75848 0.13492 1.00481 0.0
H481 H 0.83115 0.14671 0.047 0.0
C482 C 0.86677 0.21098 0.03069 0.0
O483 O 0.83727 0.28488 0.08142 0.0
O484 O 0.82371 0.23957 0.09693 0.0
N485 N 0.75531 0.17868 0.97848 0.0
C486 C 0.74002 0.19576 0.95832 0.0
C487 C 0.7086 0.18434 0.94409 0.0
C488 C 0.69328 0.15544 0.95054 0.0
C489 C 0.7096 0.13814 0.97109 0.0
C490 C 0.74097 0.15064 0.98445 0.0
H491 H 0.75171 0.21785 0.95293 0.0
O492 O 0.76932 0.24693 0.05393 0.0
O493 O 0.79048 0.20962 0.03417 0.0
O494 O 0.81411 0.2651 1.00493 0.0
O495 O 0.80929 0.22211 0.97365 0.0
C496 C 0.69594 0.10905 0.97899 0.0
C497 C 0.71369 0.09309 1.00011 0.0
H498 H 0.75471 0.06979 0.04244 0.0
H499 H 0.80966 0.09599 0.06415 0.0
H500 H 0.69622 0.19779 0.92816 0.0
H501 H 0.669 0.14684 0.93964 0.0
H502 H 0.67168 0.09886 0.9693 0.0
H503 H 0.70274 0.07091 1.00629 0.0
Mn504 Mn 0.12613 0.52065 0.27301 0.0
Mn505 Mn 0.17558 0.55662 0.33577 0.0
C506 C 0.14555 0.57205 0.27486 0.0
C507 C 0.11456 0.49774 0.22255 0.0
C508 C 0.10296 0.54136 0.3338 0.0
O509 O 0.14316 0.48546 0.29327 0.0
O510 O 0.17469 0.51207 0.33476 0.0
C511 C 0.23765 0.5426 0.31648 0.0
N512 N 0.21914 0.56335 0.32516 0.0
C513 C 0.26262 0.60471 0.32178 0.0
C514 C 0.28203 0.58371 0.31275 0.0
C515 C 0.2694 0.55251 0.30994 0.0
C516 C 0.23087 0.59349 0.3273 0.0
H517 H 0.22836 0.51868 0.31461 0.0
C518 C 0.16374 0.48734 0.31772 0.0
O519 O 0.09367 0.49404 0.24283 0.0
O520 O 0.14366 0.51124 0.23298 0.0
N521 N 0.17979 0.60017 0.33954 0.0
C522 C 0.15873 0.61754 0.35023 0.0
C523 C 0.16797 0.64924 0.35499 0.0
C524 C 0.19904 0.6628 0.3494 0.0
C525 C 0.22078 0.64445 0.33966 0.0
C526 C 0.2102 0.61295 0.33531 0.0
H527 H 0.13521 0.60735 0.35564 0.0
O528 O 0.11893 0.56062 0.25742 0.0
O529 O 0.15987 0.55334 0.2909 0.0
O530 O 0.09769 0.52654 0.30719 0.0
O531 O 0.13109 0.55237 0.34744 0.0
C532 C 0.25279 0.65616 0.33485 0.0
C533 C 0.27363 0.63632 0.32568 0.0
H534 H 0.30665 0.59128 0.30797 0.0
H535 H 0.28418 0.5361 0.30297 0.0
H536 H 0.15128 0.66315 0.36328 0.0
H537 H 0.20614 0.68725 0.35324 0.0
H538 H 0.26163 0.68041 0.33804 0.0
H539 H 0.29812 0.64563 0.32176 0.0
Mn540 Mn 0.84204 0.95446 0.57201 0.0
Mn541 Mn 0.84627 1.00885 0.51785 0.0
C542 C 0.89574 0.98406 0.56218 0.0
C543 C 0.83676 0.9322 0.62669 0.0
C544 C 0.83615 0.94037 0.49583 0.0
O545 O 0.79366 0.9683 0.5674 0.0
O546 O 0.80105 1.00369 0.53224 0.0
C547 C 0.8406 0.06204 0.56047 0.0
N548 N 0.85713 0.04844 0.53952 0.0
C549 C 0.89829 0.0929 0.54273 0.0
C550 C 0.88154 0.10744 0.56409 0.0
C551 C 0.85263 0.09189 0.57307 0.0
C552 C 0.88514 0.0631 0.53095 0.0
H553 H 0.81842 0.05023 0.56758 0.0
C554 C 0.78294 0.98947 0.55104 0.0
O555 O 0.82935 0.91703 0.59954 0.0
O556 O 0.84627 0.96081 0.62257 0.0
N557 N 0.88721 1.018 0.50166 0.0
C558 C 0.90097 1.00061 0.48138 0.0
C559 C 0.93023 1.01277 0.47041 0.0
C560 C 0.94496 0.04276 0.48015 0.0
C561 C 0.93016 0.0604 0.50062 0.0
C562 C 0.90086 0.04713 0.51062 0.0
H563 H 0.88989 0.97755 0.47365 0.0
O564 O 0.89247 0.95778 0.57417 0.0
O565 O 0.86733 0.99239 0.55606 0.0
O566 O 0.83725 0.93158 0.52444 0.0
O567 O 0.83638 0.96862 0.49146 0.0
C568 C 0.94356 0.0905 0.51181 0.0
C569 C 0.9277 0.1067 0.53293 0.0
H570 H 0.89076 0.13046 0.5739 0.0
H571 H 0.83965 0.1029 0.58968 0.0
H572 H 0.94147 0.99901 0.45459 0.0
H573 H 0.96769 0.05196 0.47187 0.0
H574 H 0.96625 0.10129 0.5046 0.0
H575 H 0.93843 0.12973 0.54163 0.0
Mn576 Mn 0.96045 1.02405 0.22025 0.0
Mn577 Mn 0.89038 1.01653 0.2502 0.0
C578 C 0.9306 0.97564 0.21646 0.0
C579 C 0.99164 0.04501 0.18351 0.0
C580 C 0.95621 1.02601 0.28752 0.0
O581 O 0.95274 0.06687 0.23465 0.0
O582 O 0.89982 0.05342 0.22786 0.0
C583 C 0.84249 1.01362 0.19405 0.0
N584 N 0.85321 1.00157 0.2209 0.0
C585 C 0.80448 0.96478 0.21769 0.0
C586 C 0.79292 0.97673 0.18998 0.0
C587 C 0.81214 1.0011 0.17797 0.0
C588 C 0.83531 0.97763 0.2322 0.0
H589 H 0.85682 0.03286 0.18518 0.0
C590 C 0.92461 0.07353 0.23552 0.0
O591 O 1.00374 0.04153 0.21179 0.0
O592 O 0.9609 0.03492 0.17571 0.0
N593 N 0.87825 0.98066 0.27174 0.0
C594 C 0.89162 0.97305 0.29998 0.0
C595 C 0.87516 0.94944 0.3154 0.0
C596 C 0.84448 0.93456 0.30232 0.0
C597 C 0.8306 0.94334 0.27385 0.0
C598 C 0.84838 0.96677 0.25929 0.0
H599 H 0.91428 0.98528 0.31125 0.0
O600 O 0.95984 0.98002 0.2085 0.0
O601 O 0.91816 1.00001 0.22163 0.0
O602 O 0.97067 1.01655 0.26545 0.0
O603 O 0.92739 0.03185 0.2835 0.0
C604 C 0.7994 0.93034 0.25983 0.0
C605 C 0.78644 0.94089 0.23167 0.0
H606 H 0.76928 0.96747 0.17782 0.0
H607 H 0.80334 1.01053 0.15667 0.0
H608 H 0.88582 0.94318 0.33768 0.0
H609 H 0.83157 0.91676 0.31456 0.0
H610 H 0.78497 0.91246 0.27068 0.0
H611 H 0.76241 0.93067 0.22113 0.0
Mn612 Mn 0.31669 0.74844 0.55071 0.0
Mn613 Mn 0.29396 0.69054 0.49294 0.0
C614 C 0.26355 0.72125 0.54195 0.0
C615 C 0.33415 0.76506 0.60608 0.0
C616 C 0.30811 0.75697 0.47799 0.0
O617 O 0.36016 0.7355 0.54222 0.0
O618 O 0.34064 0.69566 0.50628 0.0
C619 C 0.30616 0.63802 0.52898 0.0
N620 N 0.28563 0.65209 0.5106 0.0
C621 C 0.24335 0.6085 0.50756 0.0
C622 C 0.26403 0.59355 0.52651 0.0
C623 C 0.2955 0.60844 0.53739 0.0
C624 C 0.25519 0.63807 0.50023 0.0
H625 H 0.33048 0.64929 0.53704 0.0
C626 C 0.36375 0.71289 0.52362 0.0
O627 O 0.3376 0.78334 0.58363 0.0
O628 O 0.32218 0.73723 0.59626 0.0
N629 N 0.24879 0.68342 0.47814 0.0
C630 C 0.23139 0.70156 0.46136 0.0
C631 C 0.19922 0.6903 0.44917 0.0
C632 C 0.18532 0.66048 0.45422 0.0
C633 C 0.20373 0.64221 0.47146 0.0
C634 C 0.23572 0.65464 0.48292 0.0
H635 H 0.24197 0.72443 0.45724 0.0
O636 O 0.26912 0.74864 0.55551 0.0
O637 O 0.28844 0.7116 0.53271 0.0
O638 O 0.31409 0.76886 0.50674 0.0
O639 O 0.30109 0.72833 0.47152 0.0
C640 C 0.19154 0.61223 0.47795 0.0
C641 C 0.21128 0.59543 0.4961 0.0
H642 H 0.25594 0.57073 0.53301 0.0
H643 H 0.31158 0.59704 0.55205 0.0
H644 H 0.18518 0.70456 0.43589 0.0
H645 H 0.16045 0.65193 0.44489 0.0
H646 H 0.16686 0.60204 0.46949 0.0
H647 H 0.20144 0.5726 0.50139 0.0
Mn648 Mn 0.45691 0.53318 0.71887 0.0
Mn649 Mn 0.3947 0.52352 0.76113 0.0
C650 C 0.42749 0.48482 0.71645 0.0
C651 C 0.48257 0.5574 0.67984 0.0
C652 C 0.46522 0.53362 0.78684 0.0
O653 O 0.45106 0.57518 0.73715 0.0
O654 O 0.39871 0.56323 0.7432 0.0
C655 C 0.33889 0.52336 0.71321 0.0
N656 N 0.35371 0.51003 0.73717 0.0
C657 C 0.30617 0.47281 0.73901 0.0
C658 C 0.29031 0.48609 0.71433 0.0
C659 C 0.30685 0.51133 0.70119 0.0
C660 C 0.33838 0.48526 0.74936 0.0
H661 H 0.35135 0.54319 0.70359 0.0
C662 C 0.42419 0.58262 0.74269 0.0
O663 O 0.49792 0.55166 0.70585 0.0
O664 O 0.45163 0.54678 0.6748 0.0
N665 N 0.38717 0.48581 0.78053 0.0
C666 C 0.40558 0.47608 0.80475 0.0
C667 C 0.39218 0.45186 0.8214 0.0
C668 C 0.35975 0.4383 0.81351 0.0
C669 C 0.34114 0.44876 0.7887 0.0
C670 C 0.3558 0.47296 0.77295 0.0
H671 H 0.43019 0.48689 0.81171 0.0
O672 O 0.45454 0.48969 0.70391 0.0
O673 O 0.4161 0.50902 0.72539 0.0
O674 O 0.4741 0.52358 0.76158 0.0
O675 O 0.43615 0.53764 0.78903 0.0
C676 C 0.30847 0.43641 0.77929 0.0
C677 C 0.29112 0.44809 0.75414 0.0
H678 H 0.2654 0.47721 0.70541 0.0
H679 H 0.29477 0.52177 0.6822 0.0
H680 H 0.4067 0.44393 0.84055 0.0
H681 H 0.34941 0.41979 0.82656 0.0
H682 H 0.29638 0.41807 0.79136 0.0
H683 H 0.26608 0.43821 0.74699 0.0
Mn684 Mn 0.62817 1.00669 0.74543 0.0
Mn685 Mn 0.69777 0.05572 0.77649 0.0
C686 C 0.63992 0.05675 0.72894 0.0
C687 C 0.61307 0.97394 0.70136 0.0
C688 C 0.62877 0.03638 0.80257 0.0
O689 O 0.65664 0.98202 0.77263 0.0
O690 O 0.7022 1.01323 0.76563 0.0
C691 C 0.76426 0.0489 0.80004 0.0
N692 N 0.73954 0.06519 0.80071 0.0
C693 C 0.77503 0.1074 0.83003 0.0
C694 C 0.80024 0.09032 0.83115 0.0
C695 C 0.79492 0.06105 0.81575 0.0
C696 C 0.7451 0.09414 0.8136 0.0
H697 H 0.76074 1.02693 0.78708 0.0
C698 C 0.68743 0.99028 0.77785 0.0
O699 O 0.5966 0.97136 0.72545 0.0
O700 O 0.64161 0.99037 0.70624 0.0
N701 N 0.69322 0.09676 0.7907 0.0
C702 C 0.66594 0.10976 0.78947 0.0
C703 C 0.66669 0.13858 0.80482 0.0
C704 C 0.69535 0.1538 0.82203 0.0
C705 C 0.72277 0.1397 0.82432 0.0
C706 C 0.72027 0.11054 0.80912 0.0
H707 H 0.64318 0.09762 0.77821 0.0
O708 O 0.61212 0.0402 0.71944 0.0
O709 O 0.65701 0.04553 0.75008 0.0
O710 O 0.60759 1.01838 0.78451 0.0
O711 O 0.65584 0.04392 0.79228 0.0
C712 C 0.75226 0.15317 0.84176 0.0
C713 C 0.7786 0.13723 0.84412 0.0
H714 H 0.82391 0.09968 0.84321 0.0
H715 H 0.81448 0.04801 0.81566 0.0
H716 H 0.64504 0.14883 0.80374 0.0
H717 H 0.69589 0.17607 0.83376 0.0
H718 H 0.75498 0.1758 0.85339 0.0
H719 H 0.80136 0.148 0.85709 0.0
Mn720 Mn 0.86296 0.71407 0.06413 0.0
Mn721 Mn 0.85101 0.65822 1.00453 0.0
C722 C 0.80747 0.68381 0.04874 0.0
C723 C 0.86894 0.73639 0.12187 0.0
C724 C 0.86455 0.72671 0.98935 0.0
O725 O 0.91097 0.69861 0.0641 0.0
O726 O 0.89808 0.66141 1.0248 0.0
C727 C 0.85882 0.6025 0.03706 0.0
N728 N 0.84011 0.61836 1.01868 0.0
C729 C 0.79724 0.57512 1.00947 0.0
C730 C 0.81625 0.55828 1.02799 0.0
C731 C 0.84709 0.57209 0.04196 0.0
C732 C 0.81035 0.60524 1.00511 0.0
H733 H 0.88262 0.61285 0.04775 0.0
C734 C 0.91911 0.67595 0.04701 0.0
O735 O 0.87724 0.75159 0.09826 0.0
O736 O 0.85976 0.70779 0.11274 0.0
N737 N 0.80754 0.65181 0.98418 0.0
C738 C 0.7916 0.67156 0.9682 0.0
C739 C 0.75963 0.66186 0.95453 0.0
C740 C 0.74436 0.63197 0.9573 0.0
C741 C 0.76115 0.61209 0.97395 0.0
C742 C 0.79293 0.62309 0.98727 0.0
H743 H 0.80301 0.69463 0.96606 0.0
O744 O 0.81273 0.71179 0.06061 0.0
O745 O 0.83506 0.67512 0.04361 0.0
O746 O 0.86601 0.73668 1.01893 0.0
O747 O 0.86095 0.6978 0.98316 0.0
C748 C 0.74745 0.58191 0.97816 0.0
C749 C 0.76557 0.56336 0.99571 0.0
H750 H 0.80721 0.53488 0.03201 0.0
H751 H 0.86181 0.5593 0.05646 0.0
H752 H 0.74678 0.67742 0.94188 0.0
H753 H 0.71968 0.62458 0.94674 0.0
H754 H 0.72295 0.57277 0.9681 0.0
H755 H 0.75475 0.5402 0.99885 0.0
Mn756 Mn 0.0554 0.63312 0.83662 0.0
Mn757 Mn 1.00383 0.61741 0.8899 0.0
C758 C 1.04058 0.58387 0.84904 0.0
C759 C 0.06453 0.63116 0.78488 0.0
C760 C 0.07295 0.65055 0.9059 0.0
O761 O 1.03256 0.66963 0.83688 0.0
O762 O 0.99474 0.65381 0.8689 0.0
C763 C 0.94006 0.60259 0.85114 0.0
N764 N 0.96312 0.59436 0.87205 0.0
C765 C 0.92857 0.54742 0.87904 0.0
C766 C 0.90401 0.55604 0.85861 0.0
C767 C 0.90997 0.58355 0.84423 0.0
C768 C 0.95786 0.5676 0.88544 0.0
H769 H 0.9446 0.62341 0.83973 0.0
C770 C 1.0061 0.67138 0.84851 0.0
O771 O 0.08545 0.64781 0.80599 0.0
O772 O 1.0364 0.6212 0.79316 0.0
N773 N 1.01075 0.58103 0.90912 0.0
C774 C 1.03919 0.57335 0.92127 0.0
C775 C 1.03982 0.54351 0.92951 0.0
C776 C 1.01099 0.52253 0.92764 0.0
C777 C 0.9821 0.53082 0.91466 0.0
C778 C 0.98341 0.56012 0.90431 0.0
H779 H 0.06151 0.58926 0.92254 0.0
O780 O 0.06832 0.5919 0.83888 0.0
O781 O 1.02439 0.60558 0.85407 0.0
O782 O 0.08215 0.64792 0.87863 0.0
O783 O 1.0443 0.64068 0.91186 0.0
C784 C 0.95261 0.51045 0.90945 0.0
C785 C 0.92554 0.51915 0.89245 0.0
H786 H 0.88088 0.54124 0.85298 0.0
H787 H 0.89144 0.59004 0.82781 0.0
H788 H 0.0627 0.53625 0.93579 0.0
H789 H 1.01166 0.49958 0.9343 0.0
H790 H 0.95071 0.48781 0.9177 0.0
H791 H 0.903 0.50329 0.88842 0.0
Mn792 Mn 0.88686 0.41743 0.57019 0.0
Mn793 Mn 0.89673 0.47566 0.5231 0.0
C794 C 0.9395 0.44379 0.56359 0.0
C795 C 0.8805 0.39685 0.62053 0.0
C796 C 0.87228 0.41071 0.49665 0.0
O797 O 0.8431 0.43423 0.56963 0.0
O798 O 0.85687 0.47457 0.54193 0.0
C799 C 0.903 0.52887 0.56913 0.0
N800 N 0.91498 0.51316 0.54607 0.0
C801 C 0.95724 0.55491 0.54198 0.0
C802 C 0.94534 0.57182 0.56546 0.0
C803 C 0.9182 0.55861 0.5793 0.0
C804 C 0.94147 0.5253 0.5332 0.0
H805 H 0.88198 0.51883 0.57957 0.0
C806 C 0.83793 0.45966 0.55888 0.0
O807 O 0.87096 0.38107 0.59392 0.0
O808 O 0.89345 0.4249 0.61808 0.0
N809 N 0.93574 0.47876 0.50404 0.0
C810 C 0.94547 0.45858 0.48344 0.0
C811 C 0.97373 0.46739 0.46927 0.0
C812 C 0.99091 0.49708 0.47576 0.0
C813 C 0.97981 0.51748 0.49653 0.0
C814 C 0.95244 0.50707 0.51093 0.0
H815 H 0.93189 0.43595 0.47794 0.0
O816 O 0.93565 0.4159 0.57161 0.0
O817 O 0.91284 0.45404 0.55806 0.0
O818 O 0.87643 0.3982 0.5228 0.0
O819 O 0.87765 0.43937 0.49558 0.0
C820 C 0.99499 0.54768 0.5037 0.0
C821 C 0.98392 0.56638 0.52666 0.0
H822 H 0.9569 0.59488 0.57311 0.0
H823 H 0.90888 0.57138 0.59753 0.0
H824 H 0.98209 0.45149 0.45323 0.0
H825 H 1.01283 0.50383 0.46513 0.0
H826 H 1.01578 0.55596 0.4922 0.0
H827 H 0.99599 0.5894 0.53294 0.0
Mn828 Mn 0.74191 0.62545 0.39588 0.0
Mn829 Mn 0.80581 0.63807 0.44738 0.0
C830 C 0.76934 0.67382 0.40173 0.0
C831 C 0.71273 0.60554 0.34913 0.0
C832 C 0.73774 0.61453 0.45846 0.0
O833 O 0.75689 0.5844 0.40319 0.0
O834 O 0.809 0.60053 0.42259 0.0
C835 C 0.86553 0.64881 0.41619 0.0
N836 N 0.84425 0.65976 0.43395 0.0
C837 C 0.8763 0.70977 0.4396 0.0
C838 C 0.89813 0.69924 0.42072 0.0
C839 C 0.89287 0.66855 0.40921 0.0
C840 C 0.8496 0.68898 0.44595 0.0
H841 H 0.86151 0.62524 0.40725 0.0
C842 C 0.7865 0.58048 0.4077 0.0
O843 O 0.69994 0.60545 0.37534 0.0
O844 O 0.74319 0.61732 0.35 0.0
N845 N 0.80308 0.67555 0.47051 0.0
C846 C 0.78102 0.68169 0.49009 0.0
C847 C 0.78336 0.71125 0.50424 0.0
C848 C 0.80853 0.73416 0.49843 0.0
C849 C 0.83135 0.72723 0.47872 0.0
C850 C 0.82774 0.69739 0.46518 0.0
H851 H 0.76191 0.6642 0.49512 0.0
O852 O 0.73892 0.66858 0.39048 0.0
O853 O 0.78231 0.65008 0.40872 0.0
O854 O 0.72927 0.63203 0.43879 0.0
O855 O 0.7677 0.61354 0.46458 0.0
C856 C 0.85768 0.74873 0.47218 0.0
C857 C 0.88017 0.73999 0.45267 0.0
H858 H 0.91918 0.71444 0.41519 0.0
H859 H 0.90977 0.66015 0.39488 0.0
H860 H 0.76585 0.71635 0.51972 0.0
H861 H 0.81028 0.75691 0.50946 0.0
H862 H 0.86103 0.77198 0.48226 0.0
H863 H 0.90049 0.75664 0.44807 0.0
Tb864 Tb 0.07722 0.07991 0.03576 0.0
Eu865 Eu 0.14701 0.10775 0.0829 0.0
C866 C 0.14453 0.07186 1.01825 0.0
C867 C 0.10414 0.04241 0.08822 0.0
C868 C 0.99843 0.08992 1.00516 0.0
C869 C 0.94716 0.10408 1.01645 0.0
C870 C 0.96619 0.08164 1.01104 0.0
C871 C 1.01063 0.12087 1.00298 0.0
C872 C 0.9917 0.14316 1.00846 0.0
C873 C 0.96022 0.13515 1.01642 0.0
C874 C 1.02097 0.06775 1.00781 0.0
O875 O 0.06967 0.11051 0.07507 0.0
O876 O 0.10999 0.11183 0.1153 0.0
O877 O 0.12905 0.14893 0.06356 0.0
O878 O 0.09237 0.12457 1.02225 0.0
C879 C 0.07917 0.1092 0.1051 0.0
O880 O 0.18252 0.11213 0.12466 0.0
O881 O 0.19795 0.12482 0.07977 0.0
O882 O 0.1487 0.06884 0.04819 0.0
O883 O 0.11653 0.0779 1.00643 0.0
O884 O 0.09026 0.04136 0.05923 0.0
O885 O 0.1235 0.06612 0.10259 0.0
C886 C 0.10893 0.14899 0.03793 0.0
O887 O 1.04661 0.07306 0.99295 0.0
O888 O 1.02839 0.06095 0.03658 0.0
C889 C 0.22785 0.09229 0.10811 0.0
C890 C 0.25635 0.03904 0.10225 0.0
C891 C 0.24264 0.04622 0.12976 0.0
C892 C 0.22845 0.07251 0.13262 0.0
C893 C 0.24356 0.08603 0.08158 0.0
C894 C 0.25746 0.05976 0.07867 0.0
C895 C 0.20668 0.11608 0.1076 0.0
H896 H 0.92254 0.09716 1.02157 0.0
H897 H 0.9563 0.058 1.01313 0.0
H898 H 1.03532 0.12809 0.99843 0.0
H899 H 1.00205 0.16681 1.00765 0.0
H900 H 0.24123 0.03068 0.14829 0.0
H901 H 0.21654 0.07651 0.15335 0.0
H902 H 0.24378 0.10067 0.06224 0.0
H903 H 0.26841 0.05523 0.05743 0.0
Tb904 Tb 0.3666 0.86637 0.32261 0.0
Eu905 Eu 0.32211 0.80955 0.28179 0.0
C906 C 0.30702 0.87726 0.28244 0.0
C907 C 0.32251 0.81881 0.35959 0.0
C908 C 0.42294 0.93851 0.34209 0.0
C909 C 0.43367 0.99314 0.34149 0.0
C910 C 0.41315 0.9668 0.34661 0.0
C911 C 0.45247 0.93676 0.33005 0.0
C912 C 0.47311 0.9632 0.32526 0.0
C913 C 0.46457 0.99159 0.33272 0.0
C914 C 0.4032 0.91134 0.35163 0.0
O915 O 0.39329 0.82856 0.3253 0.0
O916 O 0.35567 0.78555 0.31074 0.0
O917 O 0.36234 0.82569 0.25229 0.0
O918 O 0.37472 0.87474 0.27322 0.0
C919 C 0.38354 0.79909 0.32502 0.0
O920 O 0.31326 0.77114 0.24683 0.0
O921 O 0.27287 0.7912 0.26212 0.0
O922 O 0.30893 0.85293 0.26501 0.0
O923 O 0.32033 0.88077 0.31152 0.0
O924 O 0.34578 0.84228 0.36044 0.0
O925 O 0.30782 0.80515 0.3323 0.0
C926 C 0.3737 0.85444 0.24927 0.0
O927 O 0.37198 0.90964 0.34647 0.0
O928 O 0.41229 0.88562 0.3444 0.0
C929 C 0.26259 0.73961 0.24493 0.0
C930 C 0.22288 0.68393 0.24886 0.0
C931 C 0.25545 0.68856 0.26169 0.0
C932 C 0.27514 0.71634 0.26004 0.0
C933 C 0.23062 0.73462 0.23069 0.0
C934 C 0.21084 0.70685 0.23253 0.0
C935 C 0.28186 0.76963 0.24481 0.0
H936 H 0.42611 1.01477 0.34624 0.0
H937 H 0.39024 0.96868 0.35532 0.0
H938 H 0.46035 0.91514 0.3256 0.0
H939 H 0.49634 0.9615 0.31721 0.0
H940 H 0.2655 0.67103 0.27377 0.0
H941 H 0.29987 0.7198 0.27111 0.0
H942 H 0.22082 0.75247 0.21878 0.0
H943 H 0.18609 0.70346 0.22157 0.0
Tb944 Tb 0.58427 0.05842 0.53013 0.0
Eu945 Eu 0.61751 0.10153 0.58592 0.0
C946 C 0.58523 0.03573 0.5966 0.0
C947 C 0.54451 0.11361 0.55662 0.0
C948 C 0.54943 0.98607 0.49036 0.0
C949 C 0.56041 0.94112 0.51571 0.0
C950 C 0.55437 0.97083 0.51788 0.0
C951 C 0.54935 0.97121 0.46083 0.0
C952 C 0.55569 0.94174 0.45866 0.0
C953 C 0.56197 0.92688 0.4861 0.0
C954 C 0.55031 1.01866 0.49229 0.0
O955 O 0.60823 0.09362 0.50444 0.0
O956 O 0.62344 0.13072 0.54475 0.0
O957 O 0.6557 0.06868 0.57811 0.0
O958 O 0.633 0.04236 0.53209 0.0
C959 C 0.62084 0.1215 0.51482 0.0
O960 O 0.66267 0.12868 0.60737 0.0
O961 O 0.62163 0.12084 0.6343 0.0
O962 O 0.58609 0.06391 0.60688 0.0
O963 O 0.59217 1.03002 0.56834 0.0
O964 O 0.54559 0.08839 0.53832 0.0
O965 O 0.57077 0.12413 0.5767 0.0
C966 C 0.65794 0.04827 0.5547 0.0
O967 O 0.5398 1.03005 0.51725 0.0
O968 O 0.57775 0.03396 0.4863 0.0
C969 C 0.65598 0.1686 0.64273 0.0
C970 C 0.66557 0.23144 0.65781 0.0
C971 C 0.69052 0.21794 0.64681 0.0
C972 C 0.6858 0.18662 0.63947 0.0
C973 C 0.63131 0.18218 0.65428 0.0
C974 C 0.63629 0.21326 0.66221 0.0
C975 C 0.65056 0.13602 0.63302 0.0
H976 H 0.56422 0.92944 0.53694 0.0
H977 H 0.55442 0.98203 0.54099 0.0
H978 H 0.54547 0.98276 0.43957 0.0
H979 H 0.5555 0.93043 0.43552 0.0
H980 H 0.71355 0.23157 0.64389 0.0
H981 H 0.70524 0.17655 0.63076 0.0
H982 H 0.60808 0.1689 0.65711 0.0
H983 H 0.61691 0.22315 0.67119 0.0
Tb984 Tb 0.32103 0.33518 0.79914 0.0
Eu985 Eu 0.3891 0.32719 0.82793 0.0
C986 C 0.38142 0.3773 0.77767 0.0
C987 C 0.36056 0.30002 0.75232 0.0
C988 C 0.23975 0.32893 0.81025 0.0
C989 C 0.18664 0.32215 0.82778 0.0
C990 C 0.20728 0.3324 0.80563 0.0
C991 C 0.25161 0.31644 0.83761 0.0
C992 C 0.23119 0.30615 0.85947 0.0
C993 C 0.19859 0.3085 0.85437 0.0
C994 C 0.26221 0.33731 0.78723 0.0
O995 O 0.31942 0.28933 0.81474 0.0
O996 O 0.35394 0.30411 0.85784 0.0
O997 O 0.37841 0.36414 0.86424 0.0
O998 O 0.32427 0.35607 0.84986 0.0
C999 C 0.32962 0.28533 0.84372 0.0
O1000 O 0.41884 0.29337 0.84176 0.0
O1001 O 0.43703 0.3416 0.85272 0.0
O1002 O 0.40109 0.36246 0.79392 0.0
O1003 O 0.35 0.37189 0.77859 0.0
O1004 O 0.33817 0.3177 0.75451 0.0
O1005 O 0.37959 0.29722 0.77877 0.0
C1006 C 0.34935 0.36845 0.87068 0.0
O1007 O 0.28377 0.36131 0.79627 0.0
O1008 O 0.27543 0.31483 0.77671 0.0
C1009 C 0.47341 0.3119 0.83741 0.0
C1010 C 0.52456 0.33075 0.80324 0.0
C1011 C 0.52863 0.33635 0.83606 0.0
C1012 C 0.50297 0.32683 0.8532 0.0
C1013 C 0.47092 0.30307 0.80516 0.0
C1014 C 0.49649 0.31246 0.78815 0.0
C1015 C 0.44397 0.31411 0.85168 0.0
H1016 H 0.16119 0.32371 0.8236 0.0
H1017 H 0.19785 0.34219 0.78476 0.0
H1018 H 0.27657 0.31372 0.84167 0.0
H1019 H 0.24055 0.29536 0.8797 0.0
H1020 H 0.5503 0.35047 0.8479 0.0
H1021 H 0.50501 0.33402 0.87806 0.0
H1022 H 0.44821 0.2918 0.79246 0.0
H1023 H 0.49327 0.3078 0.76277 0.0
Tb1024 Tb 0.10647 0.06538 0.53073 0.0
Eu1025 Eu 0.09902 0.10021 0.58944 0.0
C1026 C 0.17012 0.10934 0.56067 0.0
C1027 C 0.10699 1.02443 0.59271 0.0
C1028 C 0.09441 0.04896 0.447 0.0
C1029 C 0.08094 0.03815 0.39099 0.0
C1030 C 0.10133 0.03638 0.41835 0.0
C1031 C 0.069 0.06577 0.4478 0.0
C1032 C 0.04862 0.06744 0.42058 0.0
C1033 C 0.05344 0.05213 0.39247 0.0
C1034 C 0.11131 0.04257 0.47656 0.0
O1035 O 0.05303 0.04856 0.53463 0.0
O1036 O 1.045 0.07869 0.57655 0.0
O1037 O 0.09171 0.13941 0.55693 0.0
O1038 O 0.1003 0.11297 0.51277 0.0
C1039 C 1.03319 0.05611 0.55508 0.0
O1040 O 0.07312 0.11593 0.62746 0.0
O1041 O 0.12511 0.12832 0.62956 0.0
O1042 O 0.14892 0.12283 0.57446 0.0
O1043 O 0.15913 0.08111 0.5487 0.0
O1044 O 0.11032 1.02556 0.562 0.0
O1045 O 0.1046 0.05112 0.60762 0.0
C1046 C 0.09619 0.13979 0.52674 0.0
O1047 O 0.1316 0.0653 0.49075 0.0
O1048 O 0.0926 1.02946 0.49579 0.0
C1049 C 0.10481 0.11705 0.67621 0.0
C1050 C 0.13297 0.10752 0.7356 0.0
C1051 C 0.11325 0.12997 0.73224 0.0
C1052 C 0.09923 0.13482 0.70241 0.0
C1053 C 0.12133 0.09239 0.68028 0.0
C1054 C 0.13541 0.08765 0.70988 0.0
C1055 C 0.09989 0.12763 0.64485 0.0
H1056 H 0.08518 1.02663 0.3692 0.0
H1057 H 0.12118 1.02376 0.41746 0.0
H1058 H 0.06349 0.0757 0.46987 0.0
H1059 H 1.02756 0.07833 0.42211 0.0
H1060 H 0.11118 0.1454 0.75214 0.0
H1061 H 0.08654 0.15394 0.69953 0.0
H1062 H 0.12645 0.07894 0.66019 0.0
H1063 H 0.15099 0.0706 0.71208 0.0
Tb1064 Tb 0.33567 0.80321 0.8145 0.0
Eu1065 Eu 0.36455 0.86643 0.79298 0.0
C1066 C 0.34399 0.85812 0.86564 0.0
C1067 C 0.28417 0.83971 0.77888 0.0
C1068 C 0.34165 0.72592 0.817 0.0
C1069 C 0.35219 0.67439 0.81149 0.0
C1070 C 0.33322 0.69513 0.82186 0.0
C1071 C 0.3694 0.73592 0.80238 0.0
C1072 C 0.38825 0.71536 0.79211 0.0
C1073 C 0.37953 0.68442 0.79613 0.0
C1074 C 0.32189 0.74837 0.82582 0.0
O1075 O 0.34147 0.7944 0.76367 0.0
O1076 O 0.37214 0.83747 0.75033 0.0
O1077 O 0.41215 0.85246 0.81458 0.0
O1078 O 0.38862 0.80942 0.83499 0.0
C1079 C 0.35652 0.80986 0.7425 0.0
O1080 O 0.35447 0.90442 0.76612 0.0
O1081 O 0.40058 0.90764 0.79405 0.0
O1082 O 0.35751 0.87536 0.84495 0.0
O1083 O 0.32936 0.83019 0.85703 0.0
O1084 O 0.28858 0.81928 0.7997 0.0
O1085 O 0.31017 0.85799 0.77207 0.0
C1086 C 0.41495 0.82978 0.83266 0.0
O1087 O 0.33657 0.76951 0.84681 0.0
O1088 O 0.30782 0.75994 0.80209 0.0
C1089 C 0.37327 0.94968 0.79595 0.0
C1090 C 0.34667 0.99433 0.8281 0.0
C1091 C 0.34448 0.99245 0.79505 0.0
C1092 C 0.35783 0.97028 0.77906 0.0
C1093 C 0.37588 0.95191 0.82903 0.0
C1094 C 0.36266 0.97409 0.84497 0.0
C1095 C 0.38021 0.92244 0.7792 0.0
H1096 H 0.34504 0.65044 0.81461 0.0
H1097 H 0.31187 0.68714 0.83307 0.0
H1098 H 0.37622 0.75966 0.79836 0.0
H1099 H 0.40938 0.72356 0.78064 0.0
H1100 H 0.33179 1.00762 0.78159 0.0
H1101 H 0.35478 0.96829 0.75353 0.0
H1102 H 0.38707 0.93585 0.84258 0.0
H1103 H 0.36476 0.97533 0.87048 0.0
Tb1104 Tb 0.61692 0.08008 0.08774 0.0
Eu1105 Eu 0.57531 0.09929 0.032 0.0
C1106 C 0.60159 1.0293 1.0264 0.0
C1107 C 0.65187 0.12573 0.04583 0.0
C1108 C 0.64584 0.04302 0.1583 0.0
C1109 C 0.65739 0.04622 0.21459 0.0
C1110 C 0.66843 0.04797 0.18508 0.0
C1111 C 0.615 1.02645 0.16046 0.0
C1112 C 0.60393 1.02455 0.19005 0.0
C1113 C 0.62388 0.03968 0.21648 0.0
C1114 C 0.64858 0.06705 0.13653 0.0
O1115 O 0.6112 0.13038 0.10202 0.0
O1116 O 0.56647 0.13557 0.07029 0.0
O1117 O 0.53696 0.07432 0.05708 0.0
O1118 O 0.57037 0.04899 0.08688 0.0
C1119 C 0.58836 0.14756 0.09398 0.0
O1120 O 0.56408 0.13703 1.00486 0.0
O1121 O 0.543 0.09116 0.98835 0.0
O1122 O 0.5889 0.05158 1.01204 0.0
O1123 O 0.61336 0.03598 0.05662 0.0
O1124 O 0.65485 0.10233 0.0622 0.0
O1125 O 0.62343 0.12956 0.03362 0.0
C1126 C 0.54144 0.05119 0.07341 0.0
O1127 O 0.65548 0.06032 0.10828 0.0
O1128 O 0.62571 0.08368 0.13658 0.0
C1129 C 0.56809 0.12166 0.95349 0.0
C1130 C 0.59835 0.11612 0.89918 0.0
C1131 C 0.5739 0.1342 0.90008 0.0
C1132 C 0.55825 0.13648 0.9272 0.0
C1133 C 0.59543 0.10754 0.95393 0.0
C1134 C 0.61002 0.10427 0.92691 0.0
C1135 C 0.55044 0.11899 0.98076 0.0
H1136 H 0.67406 0.05649 0.23466 0.0
H1137 H 0.69287 0.05943 0.18368 0.0
H1138 H 0.59756 1.0211 0.13968 0.0
H1139 H 0.57828 1.01755 0.19116 0.0
H1140 H 0.56535 0.14461 0.8793 0.0
H1141 H 0.53783 0.14846 0.92717 0.0
H1142 H 0.604 0.09686 0.97454 0.0
H1143 H 0.62847 0.08994 0.92719 0.0
Tb1144 Tb 0.36564 0.3572 0.32551 0.0
Eu1145 Eu 0.33515 0.29819 0.28883 0.0
C1146 C 0.36353 0.29638 0.36616 0.0
C1147 C 0.41375 0.32831 0.28217 0.0
C1148 C 0.3451 0.42648 0.34405 0.0
C1149 C 0.3034 0.45296 0.36251 0.0
C1150 C 0.33441 0.44471 0.36733 0.0
C1151 C 0.32438 0.41719 0.31624 0.0
C1152 C 0.29333 0.42358 0.31231 0.0
C1153 C 0.28229 0.44199 0.33493 0.0
C1154 C 0.37316 0.41051 0.35003 0.0
O1155 O 0.36002 0.37013 0.27431 0.0
O1156 O 0.3212 0.33219 0.25191 0.0
O1157 O 0.29009 0.30567 0.31397 0.0
O1158 O 0.31257 0.35289 0.33483 0.0
C1159 C 0.33931 0.35896 0.24916 0.0
O1160 O 0.3268 0.2692 0.24459 0.0
O1161 O 0.315 0.24974 0.28733 0.0
O1162 O 0.35024 0.2818 0.33877 0.0
O1163 O 0.3744 0.32621 0.3655 0.0
O1164 O 0.41232 0.34685 0.30761 0.0
O1165 O 0.38699 0.30876 0.27199 0.0
C1166 C 0.28772 0.32995 0.33232 0.0
O1167 O 0.36774 0.38696 0.36634 0.0
O1168 O 0.38668 0.40351 0.32523 0.0
C1169 C 0.35123 0.22719 0.25923 0.0
C1170 C 0.41532 0.21992 0.2777 0.0
C1171 C 0.40761 0.23219 0.24904 0.0
C1172 C 0.3757 0.23566 0.23974 0.0
C1173 C 0.3584 0.21046 0.28519 0.0
C1174 C 0.39026 0.20721 0.29457 0.0
C1175 C 0.32405 0.24457 0.25965 0.0
H1176 H 0.29574 0.46728 0.3806 0.0
H1177 H 0.34944 0.45169 0.38941 0.0
H1178 H 0.33091 0.40269 0.29809 0.0
H1179 H 0.27763 0.41271 0.29186 0.0
H1180 H 0.42654 0.24144 0.23527 0.0
H1181 H 0.37102 0.24814 0.21925 0.0
H1182 H 0.34012 0.20308 0.30044 0.0
H1183 H 0.39562 0.19662 0.31623 0.0
Tb1184 Tb 0.60618 0.56446 1.02825 0.0
Eu1185 Eu 0.60032 0.5977 0.08773 0.0
C1186 C 0.67087 0.60954 0.05626 0.0
C1187 C 0.60482 0.52063 0.08766 0.0
C1188 C 0.60389 0.54794 0.94234 0.0
C1189 C 0.58269 0.52965 0.88906 0.0
C1190 C 0.59945 0.52522 0.91768 0.0
C1191 C 0.59586 0.57667 0.93683 0.0
C1192 C 0.57849 0.58089 0.90846 0.0
C1193 C 0.57016 0.55665 0.8854 0.0
C1194 C 0.6061 0.53853 0.97432 0.0
O1195 O 0.5558 0.54358 0.03905 0.0
O1196 O 0.54576 0.57919 0.0746 0.0
O1197 O 0.59245 0.6382 0.05695 0.0
O1198 O 0.60129 0.61337 1.01191 0.0
C1199 C 0.53494 0.55378 0.05673 0.0
O1200 O 0.5776 0.61581 0.12697 0.0
O1201 O 0.62974 0.61908 0.12969 0.0
O1202 O 0.65068 0.62103 0.0735 0.0
O1203 O 0.65931 0.58288 0.04075 0.0
O1204 O 0.6128 0.52432 0.05849 0.0
O1205 O 0.59874 0.54602 0.10259 0.0
C1206 C 0.5967 0.63979 1.02672 0.0
O1207 O 0.63239 0.54892 0.99288 0.0
O1208 O 0.58033 0.54066 0.988 0.0
C1209 C 0.60687 0.60905 0.17542 0.0
C1210 C 0.63032 0.59219 0.2338 0.0
C1211 C 0.61654 0.61875 0.23188 0.0
C1212 C 0.60497 0.62728 0.2026 0.0
C1213 C 0.61742 0.58087 0.17791 0.0
C1214 C 0.62948 0.57262 0.20701 0.0
C1215 C 0.60508 0.62201 0.14495 0.0
H1216 H 0.57634 0.51079 0.87123 0.0
H1217 H 0.60544 0.50292 0.92169 0.0
H1218 H 0.59935 0.59448 0.95562 0.0
H1219 H 0.56898 0.60187 0.90573 0.0
H1220 H 0.61741 0.63415 0.25259 0.0
H1221 H 0.59712 0.64916 0.20098 0.0
H1222 H 0.61947 0.56669 0.15716 0.0
H1223 H 0.64033 0.55222 0.20827 0.0
Tb1224 Tb 0.85055 0.30092 0.31198 0.0
Eu1225 Eu 0.86987 0.36904 0.2965 0.0
C1226 C 0.85005 0.35503 0.36531 0.0
C1227 C 0.79337 0.33634 0.28043 0.0
C1228 C 0.85916 0.22346 0.31961 0.0
C1229 C 0.87942 0.17716 0.33096 0.0
C1230 C 0.86104 0.19933 0.33874 0.0
C1231 C 0.87741 0.22639 0.29401 0.0
C1232 C 0.8951 0.20407 0.28582 0.0
C1233 C 0.89566 0.17883 0.30374 0.0
C1234 C 0.84002 0.24689 0.32694 0.0
O1235 O 0.85785 0.29394 0.26208 0.0
O1236 O 0.87413 0.34277 0.24969 0.0
O1237 O 0.91522 0.35806 0.32675 0.0
O1238 O 0.90483 0.30663 0.31855 0.0
C1239 C 0.86556 0.31346 0.24105 0.0
O1240 O 0.86697 0.40639 0.26608 0.0
O1241 O 0.89978 0.41366 0.30879 0.0
O1242 O 0.84931 0.37423 0.34321 0.0
O1243 O 0.85184 0.32646 0.35786 0.0
O1244 O 0.80199 0.31157 0.29256 0.0
O1245 O 0.81498 0.36137 0.28171 0.0
C1246 C 0.92481 0.33157 0.33059 0.0
O1247 O 0.85554 0.26929 0.34592 0.0
O1248 O 0.82443 0.25657 0.30277 0.0
C1249 C 0.86675 0.44983 0.29902 0.0
C1250 C 0.83644 0.49167 0.3314 0.0
C1251 C 0.86637 0.50122 0.32012 0.0
C1252 C 0.88152 0.48033 0.30402 0.0
C1253 C 0.83641 0.4406 0.30942 0.0
C1254 C 0.82141 0.46129 0.32549 0.0
C1255 C 0.88401 0.42644 0.28702 0.0
H1256 H 0.8797 0.15795 0.34529 0.0
H1257 H 0.84791 0.19735 0.35921 0.0
H1258 H 0.87727 0.24556 0.27974 0.0
H1259 H 0.90665 0.20576 0.26437 0.0
H1260 H 0.87836 0.52464 0.32448 0.0
H1261 H 0.9051 0.4877 0.29651 0.0
H1262 H 0.82487 0.41703 0.30632 0.0
H1263 H 0.79877 0.45321 0.33455 0.0
Tb1264 Tb 0.12322 0.57349 0.58755 0.0
Eu1265 Eu 0.08291 0.5912 0.52806 0.0
C1266 C 0.1102 0.52395 0.52424 0.0
C1267 C 0.15537 0.62401 0.54699 0.0
C1268 C 0.15023 0.53656 0.6572 0.0
C1269 C 0.15426 0.54822 0.71313 0.0
C1270 C 0.16934 0.54335 0.68622 0.0
C1271 C 0.11733 0.52461 0.65688 0.0
C1272 C 0.10205 0.53081 0.68328 0.0
C1273 C 0.12053 0.54676 0.71005 0.0
C1274 C 0.15825 0.55698 0.63273 0.0
O1275 O 0.11411 0.62118 0.60543 0.0
O1276 O 0.07807 0.63056 0.56532 0.0
O1277 O 0.0521 0.55064 0.54457 0.0
O1278 O 0.07417 0.55181 0.59548 0.0
C1279 C 0.09493 0.64002 0.59312 0.0
O1280 O 1.04142 0.61093 0.50867 0.0
O1281 O 0.07376 0.59371 0.47777 0.0
O1282 O 0.10173 0.54705 0.50842 0.0
O1283 O 0.11656 0.52933 0.5555 0.0
O1284 O 0.15942 0.60025 0.5627 0.0
O1285 O 0.12749 0.62564 0.53188 0.0
C1286 C 0.05149 0.54047 0.5725 0.0
O1287 O 0.15558 0.54488 0.60408 0.0
O1288 O 0.14443 0.58104 0.63419 0.0
C1289 C 1.04003 0.62689 0.45603 0.0
C1290 C 1.03304 0.62051 0.39144 0.0
C1291 C 1.00522 0.61588 0.40709 0.0
C1292 C 1.00882 0.61912 0.43996 0.0
C1293 C 0.06492 0.64133 0.44012 0.0
C1294 C 0.0612 0.63844 0.40728 0.0
C1295 C 1.0481 0.60644 0.47993 0.0
H1296 H 0.16898 0.55844 0.73448 0.0
H1297 H 0.19514 0.55108 0.68714 0.0
H1298 H 0.10247 0.5174 0.63474 0.0
H1299 H 0.07589 0.52792 0.68066 0.0
H1300 H 0.98277 0.60336 0.39501 0.0
H1301 H 0.98889 0.60908 0.45215 0.0
H1302 H 0.08895 0.64873 0.45237 0.0
H1303 H 0.08268 0.64376 0.39538 0.0
Tb1304 Tb 0.81835 0.83291 0.30292 0.0
Eu1305 Eu 0.88615 0.82147 0.3291 0.0
C1306 C 0.87878 0.87267 0.28052 0.0
C1307 C 0.85935 0.79717 0.25449 0.0
C1308 C 0.73564 0.83384 0.31031 0.0
C1309 C 0.68222 0.80934 0.31847 0.0
C1310 C 0.70364 0.82244 0.29843 0.0
C1311 C 0.7453 0.83442 0.34284 0.0
C1312 C 0.72399 0.82112 0.36283 0.0
C1313 C 0.69287 0.8071 0.35039 0.0
C1314 C 0.76046 0.83775 0.28885 0.0
O1315 O 0.81216 0.80109 0.33966 0.0
O1316 O 0.85341 0.77764 0.32926 0.0
O1317 O 0.86524 0.84131 0.37308 0.0
O1318 O 0.83012 0.86632 0.34614 0.0
C1319 C 0.8265 0.77731 0.34134 0.0
O1320 O 0.92063 0.79103 0.34022 0.0
O1321 O 0.93081 0.83799 0.35938 0.0
O1322 O 0.89712 0.86359 0.30347 0.0
O1323 O 0.84787 0.86201 0.27489 0.0
O1324 O 0.8308 0.80274 0.2625 0.0
O1325 O 0.88517 0.80544 0.27574 0.0
C1326 C 0.84605 0.86211 0.3736 0.0
O1327 O 0.78337 0.86117 0.29594 0.0
O1328 O 0.77195 0.81285 0.28281 0.0
C1329 C 0.97319 0.81782 0.34147 0.0
C1330 C 1.02676 0.8428 0.31328 0.0
C1331 C 1.02768 0.84597 0.34608 0.0
C1332 C 1.00081 0.83331 0.36024 0.0
C1333 C 0.97331 0.8133 0.30878 0.0
C1334 C 1.00004 0.82566 0.2948 0.0
C1335 C 0.9424 0.813 0.35437 0.0
H1336 H 0.65784 0.79938 0.3087 0.0
H1337 H 0.69591 0.82166 0.27341 0.0
H1338 H 0.77005 0.84293 0.35243 0.0
H1339 H 0.73247 0.81993 0.38743 0.0
H1340 H 0.04838 0.85927 0.36039 0.0
H1341 H 1.0007 0.83739 0.38544 0.0
H1342 H 0.95199 0.80206 0.29376 0.0
H1343 H 0.99918 0.82333 0.26934 0.0
Tb1344 Tb 0.85058 0.35774 0.81663 0.0
Eu1345 Eu 0.81772 0.29485 0.77674 0.0
C1346 C 0.79016 0.3569 0.77338 0.0
C1347 C 0.81404 0.30544 0.85391 0.0
C1348 C 0.90303 0.43007 0.83472 0.0
C1349 C 0.92215 0.48185 0.8248 0.0
C1350 C 0.8979 0.46002 0.833 0.0
C1351 C 0.93164 0.42159 0.82564 0.0
C1352 C 0.9562 0.44362 0.81779 0.0
C1353 C 0.95227 0.47425 0.81905 0.0
C1354 C 0.87727 0.40773 0.84374 0.0
O1355 O 0.88741 0.3286 0.81577 0.0
O1356 O 0.85699 0.28084 0.8081 0.0
O1357 O 0.85495 0.31705 0.7467 0.0
O1358 O 0.86134 0.36614 0.76813 0.0
C1359 C 0.88343 0.29919 0.81936 0.0
O1360 O 0.81669 0.25287 0.74713 0.0
O1361 O 0.77233 0.27126 0.75339 0.0
O1362 O 0.79756 0.33398 0.75733 0.0
O1363 O 0.80051 0.36119 0.80331 0.0
O1364 O 0.83161 0.33255 0.85454 0.0
O1365 O 0.80368 0.28866 0.82703 0.0
C1366 C 0.86323 0.34652 0.74437 0.0
O1367 O 0.85046 0.40431 0.825 0.0
O1368 O 0.88513 0.38187 0.85149 0.0
C1369 C 0.766 0.21971 0.7357 0.0
C1370 C 0.71948 0.16757 0.7204 0.0
C1371 C 0.74276 0.17597 0.69995 0.0
C1372 C 0.76572 0.20216 0.70744 0.0
C1373 C 0.74397 0.21038 0.757 0.0
C1374 C 0.72071 0.18456 0.74923 0.0
C1375 C 0.78538 0.24997 0.7398 0.0
H1376 H 0.91782 0.50504 0.82491 0.0
H1377 H 0.87539 0.46666 0.83865 0.0
H1378 H 0.93526 0.39814 0.8252 0.0
H1379 H 0.97844 0.4368 0.8117 0.0
H1380 H 0.74262 0.16275 0.67789 0.0
H1381 H 0.78246 0.20934 0.69065 0.0
H1382 H 0.74387 0.2237 0.77896 0.0
H1383 H 0.70352 0.17802 0.76565 0.0
Tb1384 Tb 0.86244 0.86649 0.83078 0.0
Eu1385 Eu 0.83241 0.80767 0.7928 0.0
C1386 C 0.8611 0.80433 0.86979 0.0
C1387 C 0.91085 0.83789 0.78609 0.0
C1388 C 0.86038 0.94359 0.85585 0.0
C1389 C 0.81196 0.96019 0.87212 0.0
C1390 C 0.84072 0.94891 0.87958 0.0
C1391 C 0.8539 0.95506 0.82636 0.0
C1392 C 0.82494 0.96563 0.81884 0.0
C1393 C 0.80242 0.96534 0.84078 0.0
C1394 C 0.87995 0.91892 0.85839 0.0
O1395 O 0.85006 0.88317 0.78167 0.0
O1396 O 0.82151 0.84058 0.7543 0.0
O1397 O 0.78668 0.81713 0.81679 0.0
O1398 O 0.8098 0.8628 0.84191 0.0
C1399 C 0.83473 0.8696 0.75424 0.0
O1400 O 0.82315 0.77794 0.749 0.0
O1401 O 0.81079 0.75945 0.79194 0.0
O1402 O 0.84993 0.79002 0.84174 0.0
O1403 O 0.86901 0.83458 0.87032 0.0
O1404 O 0.90857 0.85445 0.81266 0.0
O1405 O 0.88367 0.82017 0.77359 0.0
C1406 C 0.78418 0.84038 0.83685 0.0
O1407 O 0.86708 0.89557 0.87215 0.0
O1408 O 0.89089 0.91004 0.83273 0.0
C1409 C 0.84736 0.73767 0.7654 0.0
C1410 C 0.9034 0.71187 0.77421 0.0
C1411 C 0.87507 0.69476 0.75757 0.0
C1412 C 0.84705 0.70809 0.75229 0.0
C1413 C 0.87567 0.75364 0.78242 0.0
C1414 C 0.90373 0.74176 0.78526 0.0
C1415 C 0.81953 0.75354 0.76431 0.0
H1416 H 0.79594 0.96193 0.89008 0.0
H1417 H 0.84563 0.94118 0.90285 0.0
H1418 H 0.86922 0.95258 0.80788 0.0
H1419 H 0.81878 0.97147 0.79504 0.0
H1420 H 0.8743 0.67105 0.75003 0.0
H1421 H 0.82515 0.69505 0.73971 0.0
H1422 H 0.87572 0.77471 0.79567 0.0
H1423 H 0.92472 0.75472 0.79958 0.0
Tb1424 Tb 0.57574 0.57708 0.53185 0.0
Eu1425 Eu 0.64335 0.60043 0.5841 0.0
C1426 C 0.64081 0.55779 0.51762 0.0
C1427 C 0.59761 0.5376 0.58406 0.0
C1428 C 0.50041 0.5951 0.4959 0.0
C1429 C 0.4831 0.64269 0.48257 0.0
C1430 C 0.50219 0.62038 0.47773 0.0
C1431 C 0.47755 0.59175 0.51776 0.0
C1432 C 0.45819 0.61404 0.5224 0.0
C1433 C 0.46112 0.64013 0.50522 0.0
C1434 C 0.52518 0.57496 0.49467 0.0
O1435 O 0.56536 0.6091 0.56795 0.0
O1436 O 0.60017 0.60119 0.61025 0.0
O1437 O 0.62819 0.64206 0.56356 0.0
O1438 O 0.61408 0.61115 0.51999 0.0
C1439 C 0.57198 0.60684 0.59826 0.0
O1440 O 0.66893 0.60011 0.63105 0.0
O1441 O 0.69508 0.61852 0.5935 0.0
O1442 O 0.6563 0.5783 0.53975 0.0
O1443 O 0.60901 0.54985 0.51346 0.0
O1444 O 0.57228 0.54476 0.5677 0.0
O1445 O 0.62703 0.55055 0.58106 0.0
C1446 C 0.61817 0.63847 0.53343 0.0
O1447 O 0.55358 0.58837 0.489 0.0
O1448 O 0.52756 0.55652 0.51709 0.0
C1449 C 0.71839 0.58359 0.62393 0.0
C1450 C 0.7584 0.53934 0.61518 0.0
C1451 C 0.77195 0.56984 0.62491 0.0
C1452 C 0.75208 0.59186 0.62888 0.0
C1453 C 0.705 0.55264 0.61712 0.0
C1454 C 0.72476 0.53075 0.6128 0.0
C1455 C 0.6972 0.60699 0.62094 0.0
H1456 H 0.48632 0.6624 0.46907 0.0
H1457 H 0.51937 0.6236 0.46055 0.0
H1458 H 0.47509 0.5723 0.53182 0.0
H1459 H 0.44094 0.61082 0.5395 0.0
H1460 H 0.79791 0.57704 0.62723 0.0
H1461 H 0.76302 0.61551 0.63406 0.0
H1462 H 0.67915 0.54551 0.61318 0.0
H1463 H 0.7136 0.50757 0.60514 0.0
Tb1464 Tb 0.08944 0.56483 0.03823 0.0
Eu1465 Eu 0.12268 0.60913 0.09042 0.0
C1466 C 0.09053 0.54555 0.10577 0.0
C1467 C 0.04869 0.61995 0.06247 0.0
C1468 C 0.06431 0.49567 0.99083 0.0
C1469 C 0.04812 0.44139 0.98896 0.0
C1470 C 1.04065 0.4704 0.99299 0.0
C1471 C 0.09566 0.49173 0.98486 0.0
C1472 C 0.10304 0.46269 0.98057 0.0
C1473 C 0.07929 0.43747 0.98261 0.0
C1474 C 0.05739 0.52583 0.99892 0.0
O1475 O 0.11986 0.59719 1.01395 0.0
O1476 O 0.12098 0.63737 0.04868 0.0
O1477 O 0.16168 0.57678 0.08147 0.0
O1478 O 0.13631 0.54574 0.03955 0.0
C1479 C 0.12422 0.62652 1.02046 0.0
O1480 O 0.16702 0.63987 0.10774 0.0
O1481 O 0.13086 0.62691 0.13941 0.0
O1482 O 0.09058 0.57414 0.11339 0.0
O1483 O 0.09728 0.53774 0.07787 0.0
O1484 O 0.0502 0.59448 0.04485 0.0
O1485 O 0.07504 0.63105 0.08237 0.0
C1486 C 0.16265 0.55386 0.06012 0.0
O1487 O 0.04972 0.52975 1.02746 0.0
O1488 O 0.07816 0.54848 0.99151 0.0
C1489 C 0.16066 0.67662 0.14644 0.0
C1490 C 0.1657 0.73887 0.16162 0.0
C1491 C 0.19269 0.72704 0.15311 0.0
C1492 C 0.19024 0.69594 0.14581 0.0
C1493 C 0.1338 0.68851 0.15537 0.0
C1494 C 0.13645 0.71944 0.16321 0.0
C1495 C 0.15768 0.64469 0.13547 0.0
H1496 H 1.02922 0.42197 0.98967 0.0
H1497 H 1.01655 0.47314 0.99802 0.0
H1498 H 0.11454 0.511 0.9836 0.0
H1499 H 0.12698 0.45986 0.97512 0.0
H1500 H 0.2156 0.74179 0.15236 0.0
H1501 H 0.2112 0.68704 0.13901 0.0
H1502 H 0.11063 0.67412 0.15582 0.0
H1503 H 0.11547 0.72826 0.16999 0.0
C1504 C 0.0811 0.19255 0.97454 0.0
C1505 C 0.05855 0.20697 0.98887 0.0
C1506 C 0.10273 0.17809 0.99242 0.0
C1507 C 0.10185 0.17684 1.02507 0.0
H1508 H 0.08187 0.19216 0.94927 0.0
H1509 H 0.11781 0.16499 0.98013 0.0
S1510 S 0.04952 0.21375 0.07402 0.0
N1511 N 1.03909 0.22253 0.03782 0.0
N1512 N 0.0785 0.1931 0.07138 0.0
C1513 C 0.08113 0.19308 0.04 0.0
C1514 C 0.05956 0.20855 1.02183 0.0
C1515 C 0.25535 0.93785 0.26838 0.0
C1516 C 0.2523 0.9376 0.23517 0.0
C1517 C 0.27524 0.91994 0.28433 0.0
C1518 C 0.29281 0.90171 0.26749 0.0
H1519 H 0.23938 0.94879 0.28181 0.0
H1520 H 0.27452 0.91825 0.30941 0.0
S1521 S 0.30278 0.90254 0.18227 0.0
N1522 N 0.27579 0.92485 0.18755 0.0
N1523 N 0.3128 0.89093 0.21731 0.0
C1524 C 0.29418 0.90545 0.23517 0.0
C1525 C 0.2743 0.92389 0.21909 0.0
C1526 C 0.53515 0.8442 0.4757 0.0
C1527 C 0.55416 0.83642 0.45227 0.0
C1528 C 0.54089 0.87333 0.49068 0.0
C1529 C 0.5658 0.89513 0.4826 0.0
H1530 H 0.51404 0.8287 0.4806 0.0
H1531 H 0.52362 0.87971 0.50588 0.0
S1532 S 0.62829 0.88329 0.43064 0.0
N1533 N 0.60314 0.85058 0.42715 0.0
N1534 N 0.61407 0.90562 0.45598 0.0
C1535 C 0.58783 0.88635 0.46297 0.0
C1536 C 0.58183 0.85683 0.44739 0.0
C1537 C 0.55264 0.38065 0.74068 0.0
C1538 C 0.5846 0.376 0.74022 0.0
C1539 C 0.53385 0.36704 0.76257 0.0
C1540 C 0.54647 0.34798 0.78398 0.0
H1541 H 0.54181 0.39383 0.72327 0.0
H1542 H 0.50888 0.37034 0.76192 0.0
S1543 S 0.62917 0.32954 0.7923 0.0
N1544 N 0.62875 0.35251 0.76338 0.0
N1545 N 0.59283 0.3261 0.8043 0.0
C1546 C 0.57882 0.34432 0.78466 0.0
C1547 C 0.5981 0.35855 0.76266 0.0
C1548 C 0.09949 0.9342 0.61283 0.0
C1549 C 0.10068 0.93307 0.64654 0.0
C1550 C 0.10182 0.96242 0.5961 0.0
C1551 C 0.10549 0.9929 0.61098 0.0
H1552 H 0.09684 0.91284 0.59875 0.0
H1553 H 0.10045 0.96004 0.57067 0.0
S1554 S 0.11047 1.00534 0.69865 0.0
N1555 N 0.10642 0.96799 0.6933 0.0
N1556 N 0.11012 1.01807 0.66321 0.0
C1557 C 0.10662 0.99192 0.64448 0.0
C1558 C 0.10449 0.96348 0.66146 0.0
C1559 C 0.50514 0.81758 0.85968 0.0
C1560 C 0.51212 0.82937 0.89181 0.0
C1561 C 0.47455 0.81763 0.84096 0.0
C1562 C 0.44796 0.82862 0.85307 0.0
H1563 H 0.52369 0.80814 0.84863 0.0
H1564 H 0.47179 0.80884 0.81655 0.0
S1565 S 0.45088 0.85954 0.93624 0.0
N1566 N 0.48737 0.85076 0.93476 0.0
N1567 N 0.43128 0.85035 0.90067 0.0
C1568 C 0.45415 0.8393 0.88541 0.0
C1569 C 0.48533 0.83953 0.90433 0.0
C1570 C 0.55723 0.22426 0.12668 0.0
C1571 C 0.58478 0.2467 0.13842 0.0
C1572 C 0.55853 0.19389 0.11245 0.0
C1573 C 0.58763 0.18131 0.11029 0.0
H1574 H 0.5338 0.22952 0.12973 0.0
H1575 H 0.53576 0.17953 0.10391 0.0
S1576 S 0.66816 0.2273 0.14022 0.0
N1577 N 0.64316 0.25115 0.14764 0.0
N1578 N 0.64555 0.19563 0.12361 0.0
C1579 C 0.61547 0.20287 0.12322 0.0
C1580 C 0.61409 0.23426 0.13664 0.0
C1581 C 0.21622 0.36122 0.37277 0.0
C1582 C 0.19865 0.33642 0.38706 0.0
C1583 C 0.24422 0.35919 0.35618 0.0
C1584 C 0.25683 0.33176 0.35079 0.0
H1585 H 0.20809 0.38302 0.37425 0.0
H1586 H 0.25568 0.37955 0.3467 0.0
S1587 S 0.22162 0.25907 0.38264 0.0
N1588 N 0.19819 0.28289 0.39439 0.0
N1589 N 0.24852 0.27879 0.36295 0.0
C1590 C 0.23961 0.30667 0.3649 0.0
C1591 C 0.21158 0.30899 0.38273 0.0
C1592 C 1.046 0.06835 0.17208 0.0
C1593 C 1.01256 0.06184 0.16264 0.0
C1594 C 0.06692 0.08556 0.15434 0.0
C1595 C 0.05543 0.09683 0.1261 0.0
H1596 H 0.0564 0.05983 0.19331 0.0
H1597 H 0.09253 0.08891 0.1624 0.0
S1598 S 0.96961 0.08772 0.09212 0.0
N1599 N 0.96848 0.06911 0.12427 0.0
N1600 N 1.00803 0.10158 0.0903 0.0
C1601 C 1.02187 0.0912 0.11671 0.0
C1602 C 1.00042 0.07357 0.13503 0.0
C1603 C 0.29477 0.76171 0.41942 0.0
C1604 C 0.30915 0.77566 0.4493 0.0
C1605 C 0.2978 0.7762 0.39112 0.0
C1606 C 0.31554 0.80564 0.3907 0.0
H1607 H 0.28143 0.73873 0.41751 0.0
H1608 H 0.28702 0.7636 0.3692 0.0
S1609 S 0.35642 0.8537 0.4622 0.0
N1610 N 0.34063 0.82173 0.47636 0.0
N1611 N 0.34634 0.84911 0.42368 0.0
C1612 C 0.3291 0.82048 0.42051 0.0
C1613 C 0.32589 0.80559 0.44949 0.0
C1614 C 0.61421 0.97495 0.64399 0.0
C1615 C 0.59597 0.9752 0.66973 0.0
C1616 C 0.60867 0.99284 0.61878 0.0
C1617 C 0.58497 1.01174 0.61878 0.0
H1618 H 0.63541 0.96397 0.64522 0.0
H1619 H 0.62512 0.99412 0.60084 0.0
S1620 S 0.52497 1.01411 0.67572 0.0
N1621 N 0.54831 0.99042 0.68968 0.0
N1622 N 0.5391 1.02511 0.64289 0.0
C1623 C 0.5639 1.00912 0.64203 0.0
C1624 C 0.56883 0.99016 0.66718 0.0
C1625 C 0.35042 0.43586 0.93624 0.0
C1626 C 0.33911 0.42252 0.9636 0.0
C1627 C 0.35371 0.41879 0.90737 0.0
C1628 C 0.34487 0.38666 0.9024 0.0
H1629 H 0.35741 0.46029 0.93701 0.0
H1630 H 0.36322 0.43124 0.88845 0.0
S1631 S 0.31189 0.33881 0.96415 0.0
N1632 N 0.31839 0.37348 0.98193 0.0
N1633 N 0.3229 0.34236 0.92838 0.0
C1634 C 0.33268 0.37287 0.92903 0.0
C1635 C 0.3302 0.39024 0.95895 0.0
C1636 C 0.98761 0.06268 0.32908 0.0
C1637 C 0.97531 0.03241 0.31805 0.0
C1638 C 1.01304 0.06924 0.3535 0.0
C1639 C 1.02676 0.04562 0.367 0.0
H1640 H 0.97878 0.08128 0.31763 0.0
H1641 H 1.0227 0.09278 0.36116 0.0
S1642 S 0.99991 0.96273 0.3487 0.0
N1643 N 0.97666 0.97887 0.3237 0.0
N1644 N 1.02382 0.99102 0.3701 0.0
C1645 C 1.01335 1.01533 0.35717 0.0
C1646 C 0.98772 1.00875 0.33247 0.0
C1647 C 0.3591 0.80451 0.65173 0.0
C1648 C 0.34149 0.77542 0.64113 0.0
C1649 C 0.36481 0.81487 0.68422 0.0
C1650 C 0.35303 0.7969 0.70817 0.0
H1651 H 0.36841 0.81965 0.6347 0.0
H1652 H 0.37807 0.83761 0.69049 0.0
S1653 S 0.30532 0.71879 0.69356 0.0
N1654 N 0.31248 0.72869 0.65803 0.0
N1655 N 0.32282 0.74797 0.71813 0.0
C1656 C 0.33568 0.76761 0.69787 0.0
C1657 C 0.33005 0.757 0.66484 0.0
C1658 C 0.64459 0.07414 0.84752 0.0
C1659 C 0.61987 0.05801 0.82562 0.0
C1660 C 0.63846 0.09689 0.86846 0.0
C1661 C 0.60693 0.1032 0.86938 0.0
H1662 H 0.66895 0.06901 0.84857 0.0
H1663 H 0.65802 0.10784 0.8858 0.0
S1664 S 0.53518 0.07184 0.81249 0.0
N1665 N 0.56424 0.05412 0.80159 0.0
N1666 N 0.55167 0.09476 0.84351 0.0
C1667 C 0.58252 0.08907 0.84583 0.0
C1668 C 0.58911 0.06662 0.8236 0.0
C1669 C 0.35261 0.42366 0.18713 0.0
C1670 C 0.33756 0.4104 0.1569 0.0
C1671 C 0.35292 0.40752 0.21582 0.0
C1672 C 0.33782 0.37657 0.21743 0.0
H1673 H 0.36488 0.447 0.18879 0.0
H1674 H 0.36538 0.4198 0.23728 0.0
S1675 S 0.2946 0.32988 0.14591 0.0
N1676 N 0.30703 0.36289 0.13184 0.0
N1677 N 0.30709 0.33387 0.18401 0.0
C1678 C 0.32246 0.36317 0.18743 0.0
C1679 C 0.32249 0.37945 0.15818 0.0
C1680 C 0.27516 0.96857 0.05886 0.0
C1681 C 0.29987 0.9601 0.07935 0.0
C1682 C 0.25968 0.99286 0.06738 0.0
C1683 C 0.26815 1.00955 0.09683 0.0
H1684 H 0.27044 0.95872 0.03475 0.0
H1685 H 0.24241 0.99988 0.04993 0.0
S1686 S 0.32751 0.99291 0.16092 0.0
N1687 N 0.32896 0.96733 0.13185 0.0
N1688 N 0.29985 1.01305 0.14807 0.0
C1689 C 0.29011 0.99899 0.11889 0.0
C1690 C 0.3058 0.97408 0.11015 0.0
C1691 C 0.74353 0.67425 0.04033 0.0
C1692 C 0.77299 0.66305 0.04845 0.0
C1693 C 0.71166 0.6573 0.04272 0.0
C1694 C 0.70609 0.6274 0.05339 0.0
H1695 H 0.74501 0.69686 0.03211 0.0
H1696 H 0.69092 0.66799 0.03598 0.0
S1697 S 0.77362 0.58843 0.08346 0.0
N1698 N 0.79285 0.62052 0.07217 0.0
N1699 N 0.73461 0.58887 0.07484 0.0
C1700 C 0.73524 0.61607 0.06213 0.0
C1701 C 0.76776 0.63359 0.06026 0.0
C1702 C 0.82871 0.5493 0.39706 0.0
C1703 C 0.79652 0.5542 0.391 0.0
C1704 C 0.84128 0.52901 0.37765 0.0
C1705 C 0.82215 0.51266 0.35154 0.0
H1706 H 0.8448 0.56199 0.41637 0.0
H1707 H 0.86628 0.52625 0.38302 0.0
S1708 S 0.73593 0.51537 0.32616 0.0
N1709 N 0.74523 0.53951 0.35768 0.0
N1710 N 0.76917 0.50136 0.32113 0.0
C1711 C 0.78958 0.51617 0.34585 0.0
C1712 C 0.77666 0.53688 0.36565 0.0
C1713 C 0.99654 0.46371 0.55182 0.0
C1714 C 0.97101 0.46531 0.57022 0.0
C1715 C 1.02337 0.4875 0.55411 0.0
C1716 C 1.02642 0.51332 0.57567 0.0
H1717 H 0.99481 0.445 0.53413 0.0
H1718 H 1.04134 0.48625 0.5379 0.0
S1719 S 0.96905 0.52567 0.63319 0.0
N1720 N 0.9524 0.49316 0.61334 0.0
N1721 N 1.00315 0.53703 0.61818 0.0
C1722 C 1.00245 0.51384 0.59602 0.0
C1723 C 0.97476 0.49003 0.59321 0.0
C1724 C 0.50162 0.20573 0.29053 0.0
C1725 C 0.51036 0.21564 0.3226 0.0
C1726 C 0.47142 0.20891 0.2752 0.0
C1727 C 0.44932 0.22228 0.29145 0.0
H1728 H 0.51635 0.19219 0.27831 0.0
H1729 H 0.46434 0.19867 0.25143 0.0
S1730 S 0.46408 0.25892 0.37274 0.0
N1731 N 0.49712 0.24444 0.36795 0.0
N1732 N 0.44058 0.25085 0.33902 0.0
C1733 C 0.45948 0.23575 0.32207 0.0
C1734 C 0.49013 0.23256 0.3376 0.0
C1735 C 0.45302 0.12923 0.5359 0.0
C1736 C 0.4505 0.15877 0.54975 0.0
C1737 C 0.48224 0.11559 0.53814 0.0
C1738 C 0.51264 0.12981 0.55455 0.0
H1739 H 0.43162 0.11582 0.52284 0.0
H1740 H 0.48069 0.09306 0.52669 0.0
S1741 S 0.52263 0.20844 0.59379 0.0
N1742 N 0.48397 0.20213 0.57981 0.0
N1743 N 0.53735 0.17746 0.584 0.0
C1744 C 0.51082 0.15962 0.56827 0.0
C1745 C 0.4808 0.17358 0.56596 0.0
C1746 C 0.77914 0.72953 0.39685 0.0
C1747 C 0.78891 0.70113 0.39209 0.0
C1748 C 0.79175 0.75437 0.38071 0.0
C1749 C 0.81438 0.75143 0.3592 0.0
H1750 H 0.76061 0.73216 0.41209 0.0
H1751 H 0.7832 0.77577 0.38462 0.0
S1752 S 0.84656 0.68128 0.33752 0.0
N1753 N 0.82152 0.67115 0.36368 0.0
N1754 N 0.84609 0.71783 0.33417 0.0
C1755 C 0.82499 0.7233 0.35499 0.0
C1756 C 0.81202 0.69811 0.37124 0.0
C1757 C 0.99482 0.55338 0.81577 0.0
C1758 C 1.02229 0.55418 0.83748 0.0
C1759 C 0.9744 0.52617 0.80619 0.0
C1760 C 0.97992 0.49907 0.81927 0.0
H1761 H 0.98842 0.57413 0.80688 0.0
H1762 H 0.95271 0.52682 0.79048 0.0
S1763 S 0.05357 0.4885 0.87027 0.0
N1764 N 0.05877 0.52531 0.86525 0.0
N1765 N 1.0182 0.4739 0.85059 0.0
C1766 C 1.00934 0.49911 0.83826 0.0
C1767 C 1.03105 0.52688 0.84671 0.0
C1768 C 0.09089 0.98365 0.14547 0.0
C1769 C 0.12039 0.97282 0.14624 0.0
C1770 C 0.08406 1.00522 0.12449 0.0
C1771 C 0.10592 1.01473 0.10308 0.0
H1772 H 0.07341 0.97571 0.16131 0.0
H1773 H 0.06225 1.01504 0.12553 0.0
S1774 S 0.18369 0.98945 0.093 0.0
N1775 N 0.17053 0.97167 0.12308 0.0
N1776 N 0.15627 1.01038 0.08184 0.0
C1777 C 0.13455 1.00287 0.10267 0.0
C1778 C 0.14226 0.98237 0.1249 0.0
C1779 C 0.94492 0.29339 0.88793 0.0
C1780 C 0.95491 0.26564 0.88041 0.0
C1781 C 0.92203 0.30421 0.86759 0.0
C1782 C 0.90784 0.28715 0.83963 0.0
H1783 H 0.95594 0.30742 0.90896 0.0
H1784 H 0.91542 0.3261 0.87377 0.0
S1785 S 0.92187 0.21043 0.81269 0.0
N1786 N 0.94683 0.21971 0.8454 0.0
N1787 N 0.90252 0.2395 0.80743 0.0
C1788 C 0.91593 0.25828 0.8331 0.0
C1789 C 0.93986 0.2476 0.85351 0.0
C1790 C 0.6607 0.30705 0.69862 0.0
C1791 C 0.66663 0.327 0.67497 0.0
C1792 C 0.66159 0.27615 0.69321 0.0
C1793 C 0.66925 0.26452 0.66426 0.0
H1794 H 0.65427 0.31522 0.72106 0.0
H1795 H 0.65561 0.26114 0.71153 0.0
S1796 S 0.693 0.30889 0.59726 0.0
N1797 N 0.68505 0.33438 0.62361 0.0
N1798 N 0.6863 0.27578 0.61291 0.0
C1799 C 0.67752 0.28468 0.64122 0.0
C1800 C 0.6764 0.31618 0.64676 0.0
C1801 C 0.63713 0.78601 0.41189 0.0
C1802 C 0.61927 0.75838 0.39786 0.0
C1803 C 0.66315 0.80105 0.39781 0.0
C1804 C 0.67197 0.78836 0.36982 0.0
H1805 H 0.62847 0.79786 0.43126 0.0
H1806 H 0.67433 0.82379 0.40713 0.0
S1807 S 0.63906 0.71219 0.33021 0.0
N1808 N 0.6165 0.71595 0.3591 0.0
N1809 N 0.66613 0.74362 0.33318 0.0
C1810 C 0.65758 0.75861 0.35876 0.0
C1811 C 0.63111 0.74356 0.3729 0.0
C1812 C 0.10473 0.22997 0.51216 0.0
C1813 C 0.10291 0.23348 0.47891 0.0
C1814 C 0.10212 0.2008 0.52646 0.0
C1815 C 0.0979 0.17149 0.50937 0.0
H1816 H 0.10804 0.25038 0.52787 0.0
H1817 H 0.10386 0.20148 0.55191 0.0
S1818 S 0.09183 0.16518 0.42131 0.0
N1819 N 0.09622 0.20237 0.42944 0.0
N1820 N 0.09244 0.14962 0.45546 0.0
C1821 C 0.09637 0.17454 0.47604 0.0
C1822 C 0.09849 0.20434 0.46137 0.0
C1823 C 0.71125 0.36229 0.24905 0.0
C1824 C 0.69478 0.33838 0.22705 0.0
C1825 C 0.74242 0.36153 0.2659 0.0
C1826 C 0.7588 0.33613 0.26331 0.0
H1827 H 0.70017 0.38225 0.25299 0.0
H1828 H 0.75368 0.38112 0.28152 0.0
S1829 S 0.72658 0.26666 0.21008 0.0
N1830 N 0.69842 0.28824 0.20412 0.0
N1831 N 0.75486 0.28611 0.23644 0.0
C1832 C 0.74227 0.31182 0.2419 0.0
C1833 C 0.71114 0.3131 0.22385 0.0
C1834 C 0.60928 0.93907 1.00789 0.0
C1835 C 0.60455 0.93239 0.97424 0.0
C1836 C 0.60874 0.96915 1.02399 0.0
C1837 C 0.60271 0.99603 1.00851 0.0
H1838 H 0.61378 0.9208 1.02242 0.0
H1839 H 0.61288 0.97114 0.04946 0.0
S1840 S 0.58823 0.99371 0.9208 0.0
N1841 N 0.59387 0.95866 0.9268 0.0
N1842 N 0.59159 1.01176 0.95601 0.0
C1843 C 0.59762 0.98959 0.97512 0.0
C1844 C 0.59886 0.9594 0.95871 0.0
C1845 C 0.97788 0.82125 0.72731 0.0
C1846 C 1.00657 0.84329 0.7364 0.0
C1847 C 0.94818 0.8195 0.74287 0.0
C1848 C 0.94392 0.83934 0.76943 0.0
H1849 H 0.97814 0.80483 0.70776 0.0
H1850 H 0.92807 0.80194 0.73376 0.0
S1851 S 1.00995 0.90164 0.80419 0.0
N1852 N 1.02642 0.88591 0.77542 0.0
N1853 N 0.97313 0.88219 0.8032 0.0
C1854 C 0.9723 0.86123 0.77873 0.0
C1855 C 1.00229 0.86323 0.76293 0.0
C1856 C 0.22459 0.07619 0.9843 0.0
C1857 C 0.23398 0.10782 0.9835 0.0
C1858 C 0.19515 0.06424 0.99524 0.0
C1859 C 0.1739 0.08361 1.00419 0.0
H1860 H 0.23898 0.06068 0.97455 0.0
H1861 H 0.18852 0.03982 0.99576 0.0
S1862 S 0.18908 0.16793 1.00884 0.0
N1863 N 0.2213 0.15801 0.9951 0.0
N1864 N 0.16579 0.13565 1.01401 0.0
C1865 C 0.18391 0.1151 1.00464 0.0
C1866 C 0.21407 0.12718 0.9948 0.0
C1867 C 0.88807 0.40087 0.68072 0.0
C1868 C 0.87704 0.38334 0.65197 0.0
C1869 C 0.88451 0.38869 0.71031 0.0
C1870 C 0.87011 0.3582 0.71277 0.0
H1871 H 0.8993 0.4244 0.68046 0.0
H1872 H 0.89287 0.40349 0.73148 0.0
S1873 S 0.83606 0.30265 0.64485 0.0
N1874 N 0.85033 0.33375 0.62832 0.0
N1875 N 0.84407 0.31104 0.68319 0.0
C1876 C 0.85927 0.34036 0.68418 0.0
C1877 C 0.86258 0.35284 0.65412 0.0
C1878 C 0.60734 0.18443 0.46398 0.0
C1879 C 0.61373 0.17205 0.43467 0.0
C1880 C 0.6142 0.17028 0.49178 0.0
C1881 C 0.62751 0.14337 0.49084 0.0
H1882 H 0.59291 0.20243 0.46479 0.0
H1883 H 0.60517 0.17812 0.51307 0.0
S1884 S 0.65752 0.10729 0.42208 0.0
N1885 N 0.6415 0.13589 0.40806 0.0
N1886 N 0.65358 0.10903 0.4601 0.0
C1887 C 0.63898 0.13397 0.46285 0.0
C1888 C 0.63259 0.14866 0.43474 0.0
C1889 C 0.83767 0.75042 0.16993 0.0
C1890 C 0.86725 0.75129 0.15618 0.0
C1891 C 0.83528 0.76508 0.20056 0.0
C1892 C 0.86239 0.78133 0.2208 0.0
H1893 H 0.81561 0.73862 0.15651 0.0
H1894 H 0.81156 0.76335 0.20856 0.0
S1895 S 0.94632 0.79042 0.19775 0.0
N1896 N 0.92464 0.77062 0.16679 0.0
N1897 N 0.92062 0.79628 0.22325 0.0
C1898 C 0.89221 0.78194 0.20746 0.0
C1899 C 0.89448 0.76768 0.17593 0.0
C1900 C 0.18103 0.08478 0.80685 0.0
C1901 C 0.20457 0.11086 0.81461 0.0
C1902 C 0.15755 0.08366 0.78109 0.0
C1903 C 0.15653 0.10904 0.76337 0.0
H1904 H 0.18051 0.06542 0.82106 0.0
H1905 H 0.13982 0.06319 0.7753 0.0
S1906 S 0.21323 0.18233 0.77411 0.0
N1907 N 0.22613 0.16211 0.80243 0.0
N1908 N 0.18156 0.16029 0.75425 0.0
C1909 C 0.1803 0.13499 0.77064 0.0
C1910 C 0.20454 0.13584 0.79629 0.0
C1911 C 0.84856 0.40763 0.43952 0.0
C1912 C 0.86239 0.39294 0.4648 0.0
C1913 C 0.84364 0.39487 0.40806 0.0
C1914 C 0.85194 0.36637 0.39976 0.0
H1915 H 0.84223 0.42997 0.44386 0.0
H1916 H 0.83386 0.40792 0.38995 0.0
S1917 S 0.88843 0.31758 0.45638 0.0
N1918 N 0.8838 0.34761 0.47883 0.0
N1919 N 0.87432 0.32336 0.42015 0.0
C1920 C 0.86474 0.35075 0.42487 0.0
C1921 C 0.86994 0.36397 0.45709 0.0
C1922 C 0.58178 0.10458 0.24014 0.0
C1923 C 0.59763 0.11431 0.27021 0.0
C1924 C 0.58844 0.07868 0.22379 0.0
C1925 C 0.61037 0.06088 0.23741 0.0
H1926 H 0.56436 0.11725 0.2291 0.0
H1927 H 0.57729 0.07347 0.19974 0.0
S1928 S 0.65296 0.07348 0.31833 0.0
N1929 N 0.63346 0.10257 0.31453 0.0
N1930 N 0.64422 0.05269 0.28447 0.0
C1931 C 0.62446 0.06923 0.26842 0.0
C1932 C 0.61863 0.09624 0.28461 0.0
C1933 C 0.86621 0.78016 0.96072 0.0
C1934 C 0.86554 0.74781 0.95957 0.0
C1935 C 0.86564 0.798 0.93292 0.0
C1936 C 0.86405 0.78543 0.90092 0.0
H1937 H 0.86685 0.79214 0.98355 0.0
H1938 H 0.86583 0.8222 0.93675 0.0
S1939 S 0.86307 0.70246 0.88251 0.0
N1940 N 0.86425 0.70507 0.92125 0.0
N1941 N 0.8628 0.73723 0.87148 0.0
C1942 C 0.86368 0.75332 0.89957 0.0
C1943 C 0.86452 0.73527 0.92765 0.0
C1944 C 0.91727 0.20355 1.00939 0.0
C1945 C 0.89856 0.20156 0.03477 0.0
C1946 C 0.93858 0.18298 1.00457 0.0
C1947 C 0.9412 0.15928 1.02455 0.0
H1948 H 0.91328 0.21931 0.99162 0.0
H1949 H 0.95127 0.18432 0.98379 0.0
S1950 S 0.90049 0.14719 0.0968 0.0
N1951 N 0.88673 0.17666 0.08209 0.0
N1952 N 0.92613 0.13757 0.07285 0.0
C1953 C 0.92445 0.15866 0.05137 0.0
C1954 C 0.90337 0.18 0.05658 0.0
C1955 C 0.44333 0.53101 0.07479 0.0
C1956 C 0.4324 0.50084 0.06091 0.0
C1957 C 0.4755 0.54761 0.07329 0.0
C1958 C 0.49964 0.53554 0.05774 0.0
H1959 H 0.42681 0.5421 0.08728 0.0
H1960 H 0.48138 0.57047 0.08449 0.0
S1961 S 0.48552 0.45661 1.01941 0.0
N1962 N 0.45058 0.45929 0.03271 0.0
N1963 N 0.50914 0.48971 1.02936 0.0
C1964 C 0.48917 0.50511 0.04443 0.0
C1965 C 0.45661 0.48814 0.04635 0.0
C1966 C 0.42158 0.61657 0.78875 0.0
C1967 C 0.42301 0.61302 0.75612 0.0
C1968 C 0.40905 0.64086 0.80193 0.0
C1969 C 0.39781 0.66232 0.78281 0.0
H1970 H 0.42782 0.59917 0.8038 0.0
H1971 H 0.40663 0.64203 0.82692 0.0
S1972 S 0.39966 0.66454 0.69649 0.0
N1973 N 0.41477 0.63372 0.70536 0.0
N1974 N 0.39152 0.68006 0.73012 0.0
C1975 C 0.40152 0.6603 0.75048 0.0
C1976 C 0.41407 0.63536 0.73708 0.0
C1977 C 0.23899 0.67245 0.56106 0.0
C1978 C 0.23468 0.69916 0.54637 0.0
C1979 C 0.21323 0.64846 0.56155 0.0
C1980 C 0.18214 0.65022 0.54725 0.0
H1981 H 0.26282 0.6696 0.57128 0.0
H1982 H 0.21806 0.62805 0.57235 0.0
S1983 S 0.15725 0.71821 0.51138 0.0
N1984 N 0.19657 0.72809 0.52146 0.0
N1985 N 0.14776 0.68322 0.52201 0.0
C1986 C 0.1771 0.678 0.53468 0.0
C1987 C 0.20344 0.7025 0.53447 0.0
C1988 C 0.72153 0.99213 0.82822 0.0
C1989 C 0.70747 0.97531 0.79994 0.0
C1990 C 0.75161 0.9877 0.84282 0.0
C1991 C 0.76824 0.96625 0.82946 0.0
H1992 H 0.71099 1.01108 0.83711 0.0
H1993 H 0.76299 1.00272 0.86303 0.0
S1994 S 0.73718 0.91093 0.76086 0.0
N1995 N 0.70918 0.9328 0.76275 0.0
N1996 N 0.76518 0.92352 0.79059 0.0
C1997 C 0.75228 0.94664 0.80365 0.0
C1998 C 0.72186 0.95132 0.78882 0.0
C1999 C 0.74176 1.01811 0.58011 0.0
C2000 C 0.74881 1.00038 0.55353 0.0
C2001 C 0.7133 0.03286 0.58042 0.0
C2002 C 0.68885 0.03134 0.55421 0.0
H2003 H 0.75914 1.02163 0.60097 0.0
H2004 H 0.7107 0.04602 0.60177 0.0
S2005 S 0.69405 0.98816 0.47796 0.0
N2006 N 0.72731 0.98324 0.49963 0.0
N2007 N 0.67513 1.00914 0.50045 0.0
C2008 C 0.69544 1.01333 0.52764 0.0
C2009 C 0.72463 0.99875 0.5272 0.0
C2010 C 0.3855 0.43933 0.72041 0.0
C2011 C 0.41715 0.45492 0.72806 0.0
C2012 C 0.37456 0.41309 0.73539 0.0
C2013 C 0.39496 0.4018 0.75849 0.0
H2014 H 0.36876 0.44821 0.7039 0.0
H2015 H 0.34951 0.40247 0.72986 0.0
S2016 S 0.48165 0.43251 0.78296 0.0
N2017 N 0.46996 0.45556 0.75692 0.0
N2018 N 0.44955 0.4066 0.78534 0.0
C2019 C 0.42752 0.41591 0.76419 0.0
C2020 C 0.43859 0.44243 0.74883 0.0
C2021 C 0.19385 0.60075 0.25658 0.0
C2022 C 0.16374 0.60088 0.26774 0.0
C2023 C 0.2124 0.62768 0.24955 0.0
C2024 C 0.2015 0.65561 0.25379 0.0
H2025 H 0.20317 0.57964 0.25334 0.0
H2026 H 0.23557 0.62665 0.24105 0.0
S2027 S 0.12402 0.66759 0.28257 0.0
N2028 N 0.12304 0.63042 0.28165 0.0
N2029 N 0.15881 0.68178 0.27033 0.0
C2030 C 0.17111 0.65591 0.26458 0.0
C2031 C 0.15191 0.62827 0.27103 0.0
C2032 C 0.57826 0.67296 0.46571 0.0
C2033 C 0.55557 0.68741 0.47973 0.0
C2034 C 0.60039 0.65931 0.48407 0.0
C2035 C 0.60059 0.65971 0.517 0.0
H2036 H 0.57948 0.67283 0.44053 0.0
H2037 H 0.61702 0.64761 0.47231 0.0
S2038 S 0.54481 0.69347 0.56468 0.0
N2039 N 0.53379 0.70085 0.52815 0.0
N2040 N 0.57563 0.67502 0.56278 0.0
C2041 C 0.57813 0.67425 0.53135 0.0
C2042 C 0.55545 0.68805 0.51262 0.0
C2043 C 0.752 0.42648 0.75504 0.0
C2044 C 0.74752 0.42423 0.72177 0.0
C2045 C 0.76673 0.40524 0.77179 0.0
C2046 C 0.77761 0.38111 0.75587 0.0
H2047 H 0.7412 0.44287 0.76825 0.0
H2048 H 0.76787 0.40676 0.79725 0.0
S2049 S 0.78028 0.3704 0.66923 0.0
N2050 N 0.76228 0.40027 0.67399 0.0
N2051 N 0.78878 0.3599 0.70502 0.0
C2052 C 0.77704 0.38098 0.72278 0.0
C2053 C 0.76272 0.40295 0.70589 0.0
C2054 C 0.08102 0.37237 0.92616 0.0
C2055 C 0.06749 0.34826 0.94282 0.0
C2056 C 0.08941 0.40159 0.94088 0.0
C2057 C 0.08445 0.40714 0.97247 0.0
H2058 H 0.08249 0.36927 0.90108 0.0
H2059 H 0.09637 0.4203 0.9266 0.0
S2060 S 0.05971 0.35026 1.02856 0.0
N2061 N 0.0571 0.33046 0.99432 0.0
N2062 N 0.07249 0.38596 1.02174 0.0
C2063 C 0.07554 0.38265 0.99045 0.0
C2064 C 0.06704 0.35291 0.97559 0.0
C2065 C 0.08976 0.85378 0.25896 0.0
C2066 C 0.08624 0.88236 0.24844 0.0
C2067 C 0.07278 0.8422 0.28302 0.0
C2068 C 0.05199 0.85904 0.297 0.0
H2069 H 0.10471 0.83981 0.24763 0.0
H2070 H 0.07414 0.8192 0.2892 0.0
S2071 S 1.03638 0.9359 0.27894 0.0
N2072 N 0.06264 0.92818 0.25473 0.0
N2073 N 1.02983 0.90609 0.30004 0.0
C2074 C 0.04974 0.88843 0.28795 0.0
C2075 C 0.0672 0.90026 0.26349 0.0
C2076 C 0.61773 0.43475 0.11209 0.0
C2077 C 0.59389 0.42402 0.13259 0.0
C2078 C 0.62112 0.46449 0.09823 0.0
C2079 C 0.6015 0.48761 0.10354 0.0
H2080 H 0.63396 0.41948 0.10579 0.0
H2081 H 0.6399 0.46936 0.08293 0.0
S2082 S 0.53312 0.47258 0.15297 0.0
N2083 N 0.54853 0.44083 0.15485 0.0
N2084 N 0.5555 0.49473 0.13114 0.0
C2085 C 0.57752 0.47711 0.12388 0.0
C2086 C 0.57358 0.44656 0.13733 0.0
C2087 C 0.99779 0.34644 0.39855 0.0
C2088 C 1.02105 0.32895 0.38914 0.0
C2089 C 0.96787 0.34759 0.3795 0.0
C2090 C 0.95794 0.33012 0.35022 0.0
H2091 H 1.0031 0.36017 0.42072 0.0
H2092 H 0.95197 0.36215 0.38822 0.0
S2093 S 1.00716 0.27702 0.31594 0.0
N2094 N 1.02996 0.29191 0.34859 0.0
N2095 N 0.97414 0.29275 0.31441 0.0
C2096 C 0.98022 0.31134 0.34131 0.0
C2097 C 1.01122 0.31099 0.36019 0.0
C2098 C 0.10608 0.71564 0.6545 0.0
C2099 C 0.08861 0.73721 0.6397 0.0
C2100 C 0.10808 0.6854 0.64025 0.0
C2101 C 0.0924 0.67313 0.60975 0.0
H2102 H 0.11913 0.72234 0.6776 0.0
H2103 H 0.1224 0.67143 0.65363 0.0
S2104 S 1.04204 0.7183 0.56004 0.0
N2105 N 0.05471 0.74188 0.5916 0.0
N2106 N 0.05763 0.68718 0.56608 0.0
C2107 C 0.07449 0.69437 0.59501 0.0
C2108 C 0.07285 0.7252 0.60933 0.0
C2109 C 0.70183 0.81466 0.87726 0.0
C2110 C 0.69213 0.84178 0.88994 0.0
C2111 C 0.73028 0.81438 0.86036 0.0
C2112 C 0.75224 0.84112 0.85465 0.0
H2113 H 0.68663 0.79311 0.87945 0.0
H2114 H 0.73512 0.79251 0.85165 0.0
S2115 S 0.73849 0.91854 0.88175 0.0
N2116 N 0.7078 0.89634 0.89378 0.0
N2117 N 0.76002 0.896 0.86437 0.0
C2118 C 0.74278 0.86822 0.86751 0.0
C2119 C 0.71355 0.86846 0.88406 0.0
C2120 C 0.4935 0.57148 0.62554 0.0
C2121 C 0.50075 0.57633 0.65835 0.0
C2122 C 0.51552 0.58438 0.60554 0.0
C2123 C 0.54523 0.60237 0.6179 0.0
H2124 H 0.47211 0.55586 0.6154 0.0
H2125 H 0.51059 0.57794 0.58055 0.0
S2126 S 0.57206 0.6271 0.70171 0.0
N2127 N 0.53698 0.60468 0.70199 0.0
N2128 N 0.57833 0.62807 0.66432 0.0
C2129 C 0.55107 0.60978 0.65038 0.0
C2130 C 0.52877 0.59695 0.67065 0.0
C2131 C 0.81569 0.24961 0.91847 0.0
C2132 C 0.81287 0.26683 0.94677 0.0
C2133 C 0.81423 0.26175 0.88874 0.0
C2134 C 0.81028 0.29207 0.88528 0.0
H2135 H 0.81925 0.22614 0.91903 0.0
H2136 H 0.8174 0.24741 0.86838 0.0
S2137 S 0.80059 0.34741 0.95061 0.0
N2138 N 0.80474 0.31614 0.96843 0.0
N2139 N 0.80308 0.33927 0.91285 0.0
C2140 C 0.80746 0.3098 0.91312 0.0
C2141 C 0.80849 0.29721 0.9436 0.0
C2142 C 0.07493 0.51146 0.18183 0.0
C2143 C 0.10303 0.49866 0.18907 0.0
C2144 C 0.06959 0.52478 0.1534 0.0
C2145 C 0.0914 0.52454 0.13084 0.0
H2146 H 0.05882 0.51437 0.19954 0.0
H2147 H 0.04944 0.53704 0.14993 0.0
S2148 S 0.16499 0.48857 0.13578 0.0
N2149 N 0.15063 0.4832 0.16991 0.0
N2150 N 0.13945 0.50656 0.11539 0.0
C2151 C 0.11739 0.50856 0.13612 0.0
C2152 C 0.12346 0.49594 0.16557 0.0
C2153 C 0.82721 0.9265 0.43445 0.0
C2154 C 0.83654 0.91823 0.46547 0.0
C2155 C 0.82967 0.90856 0.40583 0.0
C2156 C 0.84253 0.88092 0.40534 0.0
H2157 H 0.81783 0.94756 0.43202 0.0
H2158 H 0.82187 0.917 0.38359 0.0
S2159 S 0.87116 0.8476 0.4791 0.0
N2160 N 0.85927 0.87894 0.49261 0.0
N2161 N 0.86456 0.84642 0.44027 0.0
C2162 C 0.85198 0.87225 0.43614 0.0
C2163 C 0.84888 0.8903 0.46538 0.0
C2164 C 0.52304 0.55049 0.80591 0.0
C2165 C 0.49084 0.54325 0.813 0.0
C2166 C 0.54881 0.55674 0.82965 0.0
C2167 C 0.54317 0.55645 0.86118 0.0
H2168 H 0.52857 0.55053 0.78173 0.0
H2169 H 0.5733 0.56072 0.82334 0.0
S2170 S 0.46398 0.54083 0.8927 0.0
N2171 N 0.45488 0.5378 0.85404 0.0
N2172 N 0.50379 0.54974 0.899 0.0
C2173 C 0.51125 0.55083 0.86887 0.0
C2174 C 0.48488 0.54429 0.84464 0.0
C2175 C 0.85076 0.31095 0.1494 0.0
C2176 C 0.84586 0.27957 0.13948 0.0
C2177 C 0.85837 0.3218 0.18176 0.0
C2178 C 0.86168 0.30195 0.20617 0.0
H2179 H 0.84788 0.32735 0.13208 0.0
H2180 H 0.86068 0.34601 0.18772 0.0
S2181 S 0.85476 0.21786 0.19301 0.0
N2182 N 0.84735 0.22906 0.15728 0.0
N2183 N 0.86149 0.24907 0.21697 0.0
C2184 C 0.85796 0.27063 0.19633 0.0
C2185 C 0.85015 0.25962 0.16352 0.0
C2186 C 0.07227 0.58338 0.32936 0.0
C2187 C 0.07657 0.55616 0.34294 0.0
C2188 C 0.054 0.60318 0.34271 0.0
C2189 C 1.03877 0.59575 0.36949 0.0
H2190 H 0.08551 0.59059 0.31 0.0
H2191 H 0.05434 0.62552 0.33395 0.0
S2192 S 1.03674 0.5233 0.40868 0.0
N2193 N 0.06033 0.52017 0.38061 0.0
N2194 N 1.02475 0.55658 0.40572 0.0
C2195 C 1.03952 0.56654 0.38058 0.0
C2196 C 0.05887 0.54687 0.36733 0.0
C2197 C 0.83091 0.88486 0.66215 0.0
C2198 C 0.83536 0.91707 0.65976 0.0
C2199 C 0.83015 0.87037 0.6917 0.0
C2200 C 0.83388 0.88652 0.7221 0.0
H2201 H 0.82826 0.87024 0.64065 0.0
H2202 H 0.82712 0.84578 0.69055 0.0
S2203 S 0.84332 0.97131 0.73093 0.0
N2204 N 0.84156 0.96432 0.69239 0.0
N2205 N 0.84045 0.93795 0.74623 0.0
C2206 C 0.83778 0.91875 0.72004 0.0
C2207 C 0.8384 0.93353 0.68986 0.0
C2208 C 0.79524 0.46818 0.59515 0.0
C2209 C 0.81325 0.47727 0.57031 0.0
C2210 C 0.77735 0.48814 0.60983 0.0
C2211 C 0.77827 0.51835 0.6013 0.0
H2212 H 0.79556 0.44589 0.60381 0.0
H2213 H 0.76344 0.48021 0.62855 0.0
S2214 S 0.82029 0.5536 0.53713 0.0
N2215 N 0.82726 0.51833 0.53578 0.0
N2216 N 0.79823 0.55618 0.56648 0.0
C2217 C 0.79596 0.52762 0.5766 0.0
C2218 C 0.81205 0.50698 0.56023 0.0
C2219 C 0.26608 0.13188 0.5594 0.0
C2220 C 0.27161 0.16253 0.55056 0.0
C2221 C 0.2342 0.11469 0.56162 0.0
C2222 C 0.20505 0.12715 0.55687 0.0
H2223 H 0.2868 0.12104 0.56549 0.0
H2224 H 0.23261 0.09149 0.56821 0.0
S2225 S 0.20426 0.20654 0.53441 0.0
N2226 N 0.2431 0.20398 0.53726 0.0
N2227 N 0.18526 0.17325 0.54297 0.0
C2228 C 0.21033 0.15792 0.54877 0.0
C2229 C 0.24256 0.17501 0.54555 0.0
C2230 C 0.30154 0.0323 0.88683 0.0
C2231 C 0.31092 0.06312 0.8822 0.0
C2232 C 0.31272 1.00987 0.86869 0.0
C2233 C 0.33311 1.01784 0.84531 0.0
H2234 H 0.28602 1.02562 0.90478 0.0
H2235 H 0.30557 0.98621 0.87306 0.0
S2236 S 0.3609 0.0955 0.82203 0.0
N2237 N 0.33843 0.10041 0.8507 0.0
N2238 N 0.36064 0.05848 0.81754 0.0
C2239 C 0.34143 0.04858 0.83978 0.0
C2240 C 0.32998 0.07122 0.85805 0.0
C2241 C 0.48352 0.98044 0.09046 0.0
C2242 C 0.46334 0.97514 0.06198 0.0
C2243 C 0.50944 1.0049 0.09429 0.0
C2244 C 0.51503 1.02428 0.06959 0.0
H2245 H 0.47869 0.96665 0.11 0.0
H2246 H 0.52456 1.00937 0.11663 0.0
S2247 S 0.44247 1.00857 0.96431 0.0
N2248 N 0.46674 1.00434 1.01102 0.0
N2249 N 0.46924 1.00439 1.01506 0.0
C2250 C 0.49704 1.02006 0.03905 0.0
C2251 C 0.47405 0.99566 0.03814 0.0
C2252 C 0.95087 0.68375 0.84014 0.0
C2253 C 0.98242 0.68726 0.83118 0.0
C2254 C 0.92476 0.68792 0.81924 0.0
C2255 C 0.92931 0.69796 0.78938 0.0
H2256 H 0.94577 0.67593 0.86289 0.0
H2257 H 0.9009 0.6848 0.82711 0.0
S2258 S 1.00732 0.7184 0.75706 0.0
N2259 N 1.01708 0.70529 0.79146 0.0
N2260 N 0.96764 0.71636 0.75347 0.0
C2261 C 0.96078 0.70439 0.78097 0.0
C2262 C 0.98748 0.69875 0.80173 0.0
C2263 C 0.95744 0.63477 0.03741 0.0
C2264 C 0.95331 0.66344 0.05222 0.0
C2265 C 0.98703 0.62168 0.04081 0.0
C2266 C 1.01638 0.63565 0.05942 0.0
H2267 H 0.93703 0.6216 1.02262 0.0
H2268 H 0.98664 0.59978 1.0284 0.0
S2269 S 1.02212 0.71207 0.10259 0.0
N2270 N 0.98425 0.70571 0.0861 0.0
N2271 N 1.03828 0.68211 0.09219 0.0
C2272 C 1.013 0.66463 0.07414 0.0
C2273 C 0.98255 0.67799 0.07073 0.0
C2274 C 0.29333 0.2353 0.90359 0.0
C2275 C 0.29385 0.20609 0.88997 0.0
C2276 C 0.30563 0.26114 0.88868 0.0
C2277 C 0.31703 0.25825 0.85906 0.0
H2278 H 0.28314 0.23813 0.92559 0.0
H2279 H 0.30527 0.28345 0.89982 0.0
S2280 S 0.32297 0.18679 0.81355 0.0
N2281 N 0.30763 0.17575 0.84582 0.0
N2282 N 0.32841 0.22434 0.81685 0.0
C2283 C 0.3175 0.22924 0.84522 0.0
C2284 C 0.3064 0.20308 0.86094 0.0
C2285 C 0.50015 0.07399 0.33149 0.0
C2286 C 0.52946 0.0762 0.351 0.0
C2287 C 0.48001 0.04611 0.32408 0.0
C2288 C 0.48874 1.01948 0.33565 0.0
H2289 H 0.49257 0.094 0.32191 0.0
H2290 H 0.4571 0.04551 0.30983 0.0
S2291 S 0.56538 1.01288 0.38386 0.0
N2292 N 0.56822 0.04952 0.37862 0.0
N2293 N 0.52993 0.9966 0.3655 0.0
C2294 C 0.51898 1.02112 0.35363 0.0
C2295 C 0.53954 0.04965 0.36104 0.0
C2296 C 0.58618 0.46015 0.61238 0.0
C2297 C 0.60798 0.46479 0.64027 0.0
C2298 C 0.57965 0.48456 0.5953 0.0
C2299 C 0.59447 0.51406 0.60597 0.0
H2300 H 0.57594 0.43743 0.60228 0.0
H2301 H 0.56538 0.48009 0.57248 0.0
S2302 S 0.64598 0.5392 0.68122 0.0
N2303 N 0.63931 0.50169 0.68045 0.0
N2304 N 0.62611 0.54768 0.64852 0.0
C2305 C 0.61284 0.51938 0.63557 0.0
C2306 C 0.61992 0.49464 0.65275 0.0
C2307 C 0.43851 0.74324 0.34967 0.0
C2308 C 0.45041 0.75502 0.38056 0.0
C2309 C 0.41512 0.7564 0.33187 0.0
C2310 C 0.4038 0.7819 0.34454 0.0
H2311 H 0.44823 0.72466 0.33886 0.0
H2312 H 0.40742 0.74782 0.30764 0.0
S2313 S 0.4243 0.81812 0.42581 0.0
N2314 N 0.44646 0.79086 0.42425 0.0
N2315 N 0.40348 0.81618 0.39071 0.0
C2316 C 0.41406 0.79242 0.37608 0.0
C2317 C 0.43713 0.7787 0.39422 0.0
C2318 C 0.15805 0.81213 0.20528 0.0
C2319 C 0.16542 0.83338 0.18316 0.0
C2320 C 0.15877 0.78145 0.19823 0.0
C2321 C 0.16775 0.77146 0.16924 0.0
H2322 H 0.15085 0.81918 0.22778 0.0
H2323 H 0.15201 0.76537 0.2154 0.0
S2324 S 0.19433 0.81928 0.10572 0.0
N2325 N 0.18567 0.84348 0.13299 0.0
N2326 N 0.1868 0.78529 0.11937 0.0
C2327 C 0.17701 0.79279 0.14765 0.0
C2328 C 0.17601 0.82403 0.15478 0.0
C2329 C 0.13702 0.29573 0.91151 0.0
C2330 C 0.1221 0.26569 0.90184 0.0
C2331 C 0.16361 0.30936 0.89744 0.0
C2332 C 0.17623 0.29285 0.87424 0.0
H2333 H 0.12578 0.30989 0.92702 0.0
H2334 H 0.17284 0.33335 0.90303 0.0
S2335 S 0.15037 0.21187 0.84624 0.0
N2336 N 0.12475 0.21869 0.87149 0.0
N2337 N 0.17586 0.24403 0.84601 0.0
C2338 C 0.16421 0.26183 0.86747 0.0
C2339 C 0.13685 0.24817 0.88127 0.0
C2340 C 0.59557 0.70629 0.96336 0.0
C2341 C 0.59939 0.73541 0.98113 0.0
C2342 C 0.59494 0.67664 0.97715 0.0
C2343 C 0.59736 0.67238 1.01043 0.0
H2344 H 0.59318 0.70619 0.93794 0.0
H2345 H 0.59219 0.65656 0.96105 0.0
S2346 S 0.60788 0.73975 0.06927 0.0
N2347 N 0.60605 0.75588 0.0355 0.0
N2348 N 0.60413 0.7028 0.06026 0.0
C2349 C 0.60103 0.70133 1.0283 0.0
C2350 C 0.6022 0.7314 1.01431 0.0
C2351 C 0.18855 0.83016 0.75483 0.0
C2352 C 0.18447 0.84484 0.72626 0.0
C2353 C 0.21984 0.82861 0.77156 0.0
C2354 C 0.24975 0.84193 0.76136 0.0
H2355 H 0.1672 0.81903 0.7642 0.0
H2356 H 0.22046 0.81669 0.79288 0.0
S2357 S 0.25375 0.88319 0.68798 0.0
N2358 N 0.21452 0.87243 0.68871 0.0
N2359 N 0.27162 0.87077 0.7197 0.0
C2360 C 0.24579 0.85691 0.73297 0.0
C2361 C 0.21407 0.85787 0.7157 0.0
C2362 C 0.11207 0.4333 0.50534 0.0
C2363 C 0.11489 0.42866 0.47229 0.0
C2364 C 0.11108 0.463 0.52164 0.0
C2365 C 0.11218 0.49123 0.50665 0.0
H2366 H 0.11038 0.41363 0.51911 0.0
H2367 H 0.10885 0.46361 0.54663 0.0
S2368 S 0.12095 0.49447 0.42098 0.0
N2369 N 0.1201 0.45806 0.42625 0.0
N2370 N 0.1172 0.51089 0.45563 0.0
C2371 C 0.11508 0.48689 0.47386 0.0
C2372 C 0.11667 0.45703 0.45741 0.0
C2373 C 0.46672 0.32233 0.20985 0.0
C2374 C 0.50013 0.33226 0.2211 0.0
C2375 C 0.44045 0.32079 0.22943 0.0
C2376 C 0.44434 0.32989 0.26239 0.0
H2377 H 0.46039 0.31522 0.1851 0.0
H2378 H 0.41623 0.31262 0.21806 0.0
S2379 S 0.52609 0.35794 0.30589 0.0
N2380 N 0.53457 0.35096 0.26956 0.0
N2381 N 0.48636 0.34944 0.30501 0.0
C2382 C 0.47756 0.34018 0.27416 0.0
C2383 C 0.50463 0.34098 0.25425 0.0
C2384 C 0.67929 0.5933 0.4571 0.0
C2385 C 0.71173 0.59158 0.46801 0.0
C2386 C 0.65351 0.57453 0.46769 0.0
C2387 C 0.65924 0.55467 0.49098 0.0
H2388 H 0.67344 0.61049 0.44161 0.0
H2389 H 0.62934 0.57944 0.46169 0.0
S2390 S 0.7374 0.53145 0.51604 0.0
N2391 N 0.74707 0.56054 0.49464 0.0
N2392 N 0.69784 0.52664 0.51626 0.0
C2393 C 0.69074 0.54865 0.49744 0.0
C2394 C 0.71729 0.56728 0.48613 0.0
C2395 C 0.39391 0.90637 0.18224 0.0
C2396 C 0.38548 0.88681 0.15442 0.0
C2397 C 0.39142 0.89564 0.21261 0.0
C2398 C 0.38042 0.8647 0.21695 0.0
H2399 H 0.40195 0.93044 0.1806 0.0
H2400 H 0.39742 0.91201 0.23286 0.0
S2401 S 0.35613 0.80355 0.15205 0.0
N2402 N 0.36638 0.83454 0.13367 0.0
N2403 N 0.3618 0.81451 0.18998 0.0
C2404 C 0.37271 0.84477 0.1893 0.0
C2405 C 0.37516 0.85574 0.15841 0.0
C2406 C 0.12308 0.64221 0.93637 0.0
C2407 C 0.09723 0.65856 0.9335 0.0
C2408 C 0.13607 0.63559 0.9661 0.0
C2409 C 0.12388 0.64561 0.99356 0.0
H2410 H 0.13 0.63071 0.91576 0.0
H2411 H 0.15275 0.61944 0.96733 0.0
S2412 S 0.06409 0.6977 0.99833 0.0
N2413 N 0.06563 0.69087 0.9602 0.0
N2414 N 0.09066 0.67908 1.01626 0.0
C2415 C 0.10255 0.66673 0.99106 0.0
C2416 C 0.08897 0.67306 0.96079 0.0
C2417 C 0.36731 0.28341 0.66035 0.0
C2418 C 0.36856 0.25171 0.65517 0.0
C2419 C 0.36464 0.29829 0.69079 0.0
C2420 C 0.36408 0.28319 0.71932 0.0
H2421 H 0.36773 0.29713 0.64029 0.0
H2422 H 0.36331 0.32235 0.69194 0.0
S2423 S 0.36602 0.20003 0.72082 0.0
N2424 N 0.36786 0.20587 0.68319 0.0
N2425 N 0.36464 0.2334 0.739 0.0
C2426 C 0.36569 0.25158 0.71465 0.0
C2427 C 0.36741 0.2362 0.68345 0.0
C2428 C 0.7051 0.59973 0.29063 0.0
C2429 C 0.69227 0.5954 0.31937 0.0
C2430 C 0.68474 0.59629 0.26237 0.0
C2431 C 0.65112 0.58852 0.26219 0.0
H2432 H 0.73071 0.6075 0.29008 0.0
H2433 H 0.69509 0.60162 0.24078 0.0
S2434 S 0.60593 0.56959 0.32985 0.0
N2435 N 0.64408 0.57861 0.34516 0.0
N2436 N 0.60603 0.57315 0.29167 0.0
C2437 C 0.63819 0.58182 0.29015 0.0
C2438 C 0.65881 0.58491 0.31892 0.0
C2439 C 0.36077 0.91475 0.93879 0.0
C2440 C 0.3601 0.89679 0.96515 0.0
C2441 C 0.35477 0.90208 0.9074 0.0
C2442 C 0.34736 0.87049 0.8999 0.0
H2443 H 0.36647 0.93932 0.94218 0.0
H2444 H 0.35613 0.91746 0.88875 0.0
S2445 S 0.34318 0.81234 0.95906 0.0
N2446 N 0.3519 0.84499 0.98087 0.0
N2447 N 0.3404 0.82109 0.92197 0.0
C2448 C 0.34651 0.85194 0.92579 0.0
C2449 C 0.353 0.865 0.95815 0.0
C2450 C 0.06054 0.58218 0.7535 0.0
C2451 C 0.07604 0.61267 0.76027 0.0
C2452 C 0.07547 0.56078 0.73817 0.0
C2453 C 0.10615 0.56913 0.72841 0.0
H2454 H 1.03752 0.5741 0.76185 0.0
H2455 H 0.06313 0.53743 0.7344 0.0
S2456 S 0.1538 0.64738 0.73465 0.0
N2457 N 0.12183 0.65086 0.75296 0.0
N2458 N 0.14929 0.61113 0.72208 0.0
C2459 C 0.1208 0.60007 0.73283 0.0
C2460 C 0.10582 0.62173 0.74912 0.0
C2461 C 0.37433 0.27447 0.45784 0.0
C2462 C 0.36375 0.2422 0.45766 0.0
C2463 C 0.375 0.29148 0.42944 0.0
C2464 C 0.36494 0.27812 0.39783 0.0
H2465 H 0.38243 0.28706 0.48037 0.0
H2466 H 0.38334 0.31579 0.43256 0.0
S2467 S 0.33385 0.19484 0.38201 0.0
N2468 N 0.34239 0.19852 0.42066 0.0
N2469 N 0.34327 0.22921 0.36994 0.0
C2470 C 0.35419 0.24605 0.3975 0.0
C2471 C 0.35372 0.2288 0.42611 0.0
C2472 C 0.41192 0.69226 0.5463 0.0
C2473 C 0.39571 0.70426 0.52086 0.0
C2474 C 0.43433 0.67273 0.54121 0.0
C2475 C 0.44084 0.66417 0.51049 0.0
H2476 H 0.40536 0.69593 0.56988 0.0
H2477 H 0.44553 0.6632 0.5614 0.0
S2478 S 0.40587 0.69186 0.43636 0.0
N2479 N 0.38972 0.70891 0.4645 0.0
N2480 N 0.42998 0.67104 0.45451 0.0
C2481 C 0.42612 0.67776 0.48514 0.0
C2482 C 0.40408 0.69813 0.49048 0.0
C2483 C 0.94144 0.03294 0.57325 0.0
C2484 C 0.93018 1.00305 0.55867 0.0
C2485 C 0.97362 0.0496 0.5717 0.0
C2486 C 0.99746 0.03811 0.5551 0.0
H2487 H 0.92524 0.04365 0.58656 0.0
H2488 H 0.97981 0.07205 0.58382 0.0
S2489 S 0.98216 0.9604 0.51372 0.0
N2490 N 0.94767 0.96251 0.52821 0.0
N2491 N 1.006 0.99328 0.52432 0.0
C2492 C 0.98649 1.00815 0.54062 0.0
C2493 C 0.954 0.99097 0.54282 0.0
C2494 C 0.89265 0.09892 0.27068 0.0
C2495 C 0.92007 0.10082 0.25425 0.0
C2496 C 0.88638 0.12388 0.28839 0.0
C2497 C 0.90721 0.15189 0.29046 0.0
H2498 H 0.87545 0.07799 0.26966 0.0
H2499 H 0.86404 0.1215 0.29918 0.0
S2500 S 0.98406 0.16811 0.25458 0.0
N2501 N 0.9696 0.13215 0.24295 0.0
N2502 N 0.95783 0.1797 0.27677 0.0
C2503 C 0.93563 0.15388 0.27546 0.0
C2504 C 0.9421 0.12816 0.2573 0.0
C2505 C 0.73699 0.17159 0.06084 0.0
C2506 C 0.73488 0.19737 0.04383 0.0
C2507 C 0.71023 0.14849 0.06108 0.0
C2508 C 0.68017 0.15022 0.04429 0.0
H2509 H 0.75983 0.16889 0.07352 0.0
H2510 H 0.71337 0.12899 0.07429 0.0
S2511 S 0.66129 0.21533 0.99917 0.0
N2512 N 0.7 0.225 1.01236 0.0
N2513 N 0.64951 0.18168 1.01217 0.0
C2514 C 0.67744 0.17682 1.02838 0.0
C2515 C 0.70478 0.20045 1.02846 0.0
C2516 C 0.1988 0.45843 0.35007 0.0
C2517 C 0.1854 0.46455 0.32008 0.0
C2518 C 0.22964 0.45016 0.35459 0.0
C2519 C 0.24862 0.44867 0.32947 0.0
H2520 H 0.18644 0.46242 0.37053 0.0
H2521 H 0.23911 0.44608 0.37817 0.0
S2522 S 0.22384 0.46238 0.24608 0.0
N2523 N 0.19206 0.46601 0.26451 0.0
N2524 N 0.25107 0.45415 0.27327 0.0
C2525 C 0.23465 0.45341 0.29906 0.0
C2526 C 0.20263 0.46005 0.29428 0.0
C2527 C 0.22584 0.50036 0.03313 0.0
C2528 C 0.25248 0.50387 0.05747 0.0
C2529 C 0.19762 0.51542 0.0344 0.0
C2530 C 0.19352 0.5366 0.0596 0.0
H2531 H 0.22682 0.48582 1.01224 0.0
H2532 H 0.17892 0.51074 1.01463 0.0
S2533 S 0.25606 0.55652 0.12931 0.0
N2534 N 0.27168 0.53182 0.10786 0.0
N2535 N 0.2211 0.55993 0.10976 0.0
C2536 C 0.22019 0.54059 0.08391 0.0
C2537 C 0.24855 0.52472 0.08291 0.0
C2538 C 0.9364 0.93807 0.2554 0.0
C2539 C 0.91851 0.94696 0.22911 0.0
C2540 C 0.92386 0.91322 0.27126 0.0
C2541 C 0.89315 0.89626 0.26099 0.0
H2542 H 0.95961 0.95129 0.26462 0.0
H2543 H 0.9378 0.90818 0.29244 0.0
S2544 S 0.8412 0.90598 0.1879 0.0
N2545 N 0.87185 0.93439 0.18992 0.0
N2546 N 0.84802 0.88685 0.21914 0.0
C2547 C 0.87652 0.90326 0.23271 0.0
C2548 C 0.88931 0.92888 0.21683 0.0
C2549 C 0.68612 0.08461 0.70771 0.0
C2550 C 0.65414 0.08373 0.71463 0.0
C2551 C 0.7065 0.11221 0.70676 0.0
C2552 C 0.69553 0.13969 0.71316 0.0
H2553 H 0.69636 0.06384 0.70605 0.0
H2554 H 0.73171 0.11192 0.70396 0.0
S2555 S 0.6124 0.14928 0.72763 0.0
N2556 N 0.61093 0.11204 0.72331 0.0
N2557 N 0.64975 0.16458 0.72277 0.0
C2558 C 0.66268 0.1391 0.71697 0.0
C2559 C 0.64165 0.11082 0.71706 0.0
loop_
_geom_bond_atom_site_label_1
_geom_bond_atom_site_label_2
_geom_bond_distance
_geom_bond_site_symmetry_2
_ccdc_geom_bond_type
Mn0 O5 2.095 . S
Mn0 O15 2.162 . S
Mn0 O16 2.297 . S
Mn0 O24 2.404 . S
Mn0 O25 2.209 . S
Mn0 O26 2.094 . S
Mn1 O6 2.121 . S
Mn1 N8 2.257 . S
Mn1 N17 2.282 . S
Mn1 O25 2.215 . S
Mn1 O27 2.117 . S
C2 O24 1.238 . S
C2 O25 1.283 . S
C3 O15 1.281 . S
C3 O16 1.236 . S
C4 O26 1.240 . S
C4 O27 1.264 . S
O5 Mn0 2.095 . S
O5 C14 1.250 . S
O6 Mn1 2.121 . S
O6 C14 1.258 . S
C7 N8 1.326 . S
C7 C11 1.460 . S
C7 H13 0.929 . S
N8 Mn1 2.257 . S
N8 C7 1.326 . S
N8 C12 1.362 . S
C9 C10 1.258 1_655 S
C9 C12 1.431 1_655 S
C9 C29 1.449 . S
C10 C9 1.258 1_455 S
C10 C11 1.477 . S
C10 H30 0.931 1_455 S
C11 C7 1.460 . S
C11 C10 1.477 . S
C11 H31 0.930 . S
C12 N8 1.362 . S
C12 C9 1.431 1_455 S
C12 C22 1.476 1_455 S
H13 C7 0.929 . S
C14 O5 1.250 . S
C14 O6 1.258 . S
O15 Mn0 2.162 . S
O15 C3 1.281 . S
O16 Mn0 2.297 . S
O16 C3 1.236 . S
N17 Mn1 2.282 . S
N17 C18 1.328 1_455 S
N17 C22 1.318 1_455 S
C18 N17 1.328 1_655 S
C18 C19 1.457 . S
C18 H23 0.929 1_655 S
C19 C18 1.457 . S
C19 C20 1.291 . S
C19 H32 0.931 . S
C20 C19 1.291 . S
C20 C21 1.373 . S
C20 H33 0.929 . S
C21 C20 1.373 . S
C21 C22 1.396 . S
C21 C28 1.403 . S
C22 C12 1.476 1_655 S
C22 N17 1.318 1_655 S
C22 C21 1.396 . S
H23 C18 0.929 1_455 S
O24 Mn0 2.404 . S
O24 C2 1.238 . S
O25 Mn0 2.209 . S
O25 Mn1 2.215 . S
O25 C2 1.283 . S
O26 Mn0 2.094 . S
O26 C4 1.240 . S
O27 Mn1 2.117 . S
O27 C4 1.264 . S
C28 C21 1.403 . S
C28 C29 1.399 . S
C28 H34 0.929 . S
C29 C9 1.449 . S
C29 C28 1.399 . S
C29 H35 0.930 . S
H30 C10 0.931 1_655 S
H31 C11 0.930 . S
H32 C19 0.931 . S
H33 C20 0.929 . S
H34 C28 0.929 . S
H35 C29 0.930 . S
Mn36 O41 2.095 . S
Mn36 O51 2.162 . S
Mn36 O52 2.297 . S
Mn36 O60 2.385 . S
Mn36 O61 2.209 . S
Mn36 O62 2.094 . S
Mn37 O42 2.121 . S
Mn37 N44 2.257 . S
Mn37 N53 2.282 . S
Mn37 O61 2.215 . S
Mn37 O63 2.117 . S
C38 O60 1.234 . S
C38 O61 1.283 . S
C39 O51 1.281 . S
C39 O52 1.236 . S
C40 O62 1.240 . S
C40 O63 1.264 . S
O41 Mn36 2.095 . S
O41 C50 1.250 . S
O42 Mn37 2.121 . S
O42 C50 1.258 . S
C43 N44 1.326 . S
C43 C47 1.460 . S
C43 H49 0.929 . S
N44 Mn37 2.257 . S
N44 C43 1.326 . S
N44 C48 1.362 . S
C45 C46 1.258 . S
C45 C48 1.431 . S
C45 C65 1.449 . S
C46 C45 1.258 . S
C46 C47 1.477 . S
C46 H66 0.931 . S
C47 C43 1.460 . S
C47 C46 1.477 . S
C47 H67 0.930 . S
C48 N44 1.362 . S
C48 C45 1.431 . S
C48 C58 1.476 . S
H49 C43 0.929 . S
C50 O41 1.250 . S
C50 O42 1.258 . S
O51 Mn36 2.162 . S
O51 C39 1.281 . S
O52 Mn36 2.297 . S
O52 C39 1.236 . S
N53 Mn37 2.282 . S
N53 C54 1.328 . S
N53 C58 1.318 . S
C54 N53 1.328 . S
C54 C55 1.457 . S
C54 H59 0.929 . S
C55 C54 1.457 . S
C55 C56 1.291 . S
C55 H68 0.931 . S
C56 C55 1.291 . S
C56 C57 1.373 . S
C56 H69 0.929 . S
C57 C56 1.373 . S
C57 C58 1.396 . S
C57 C64 1.403 . S
C58 C48 1.476 . S
C58 N53 1.318 . S
C58 C57 1.396 . S
H59 C54 0.929 . S
O60 Mn36 2.385 . S
O60 C38 1.234 . S
O61 Mn36 2.209 . S
O61 Mn37 2.215 . S
O61 C38 1.283 . S
O62 Mn36 2.094 . S
O62 C40 1.240 . S
O63 Mn37 2.117 . S
O63 C40 1.264 . S
C64 C57 1.403 . S
C64 C65 1.399 . S
C64 H70 0.929 . S
C65 C45 1.449 . S
C65 C64 1.399 . S
C65 H71 0.930 . S
H66 C46 0.931 . S
H67 C47 0.930 . S
H68 C55 0.931 . S
H69 C56 0.929 . S
H70 C64 0.929 . S
H71 C65 0.930 . S
Mn72 O77 2.095 . S
Mn72 O87 2.162 . S
Mn72 O88 2.297 . S
Mn72 O96 2.385 . S
Mn72 O97 2.209 . S
Mn72 O98 2.094 . S
Mn73 O78 2.121 . S
Mn73 N80 2.257 . S
Mn73 N89 2.282 . S
Mn73 O97 2.215 . S
Mn73 O99 2.117 . S
C74 O96 1.234 . S
C74 O97 1.283 . S
C75 O87 1.281 . S
C75 O88 1.236 . S
C76 O98 1.240 . S
C76 O99 1.264 . S
O77 Mn72 2.095 . S
O77 C86 1.250 . S
O78 Mn73 2.121 . S
O78 C86 1.258 . S
C79 N80 1.326 . S
C79 C83 1.460 . S
C79 H85 0.929 . S
N80 Mn73 2.257 . S
N80 C79 1.326 . S
N80 C84 1.362 . S
C81 C82 1.258 . S
C81 C84 1.431 . S
C81 C101 1.449 . S
C82 C81 1.258 . S
C82 C83 1.477 . S
C82 H102 0.931 . S
C83 C79 1.460 . S
C83 C82 1.477 . S
C83 H103 0.930 . S
C84 N80 1.362 . S
C84 C81 1.431 . S
C84 C94 1.476 . S
H85 C79 0.929 . S
C86 O77 1.250 . S
C86 O78 1.258 . S
O87 Mn72 2.162 . S
O87 C75 1.281 . S
O88 Mn72 2.297 . S
O88 C75 1.236 . S
N89 Mn73 2.282 . S
N89 C90 1.328 . S
N89 C94 1.318 . S
C90 N89 1.328 . S
C90 C91 1.457 . S
C90 H95 0.929 . S
C91 C90 1.457 . S
C91 C92 1.291 . S
C91 H104 0.931 . S
C92 C91 1.291 . S
C92 C93 1.373 . S
C92 H105 0.929 . S
C93 C92 1.373 . S
C93 C94 1.396 . S
C93 C100 1.403 . S
C94 C84 1.476 . S
C94 N89 1.318 . S
C94 C93 1.396 . S
H95 C90 0.929 . S
O96 Mn72 2.385 . S
O96 C74 1.234 . S
O97 Mn72 2.209 . S
O97 Mn73 2.215 . S
O97 C74 1.283 . S
O98 Mn72 2.094 . S
O98 C76 1.240 . S
O99 Mn73 2.117 . S
O99 C76 1.264 . S
C100 C93 1.403 . S
C100 C101 1.399 . S
C100 H106 0.929 . S
C101 C81 1.449 . S
C101 C100 1.399 . S
C101 H107 0.930 . S
H102 C82 0.931 . S
H103 C83 0.930 . S
H104 C91 0.931 . S
H105 C92 0.929 . S
H106 C100 0.929 . S
H107 C101 0.930 . S
Mn108 O113 2.095 . S
Mn108 O123 2.162 . S
Mn108 O124 2.297 . S
Mn108 O132 2.385 . S
Mn108 O133 2.209 . S
Mn108 O134 2.094 . S
Mn109 O114 2.121 . S
Mn109 N116 2.257 . S
Mn109 N125 2.282 . S
Mn109 O133 2.215 . S
Mn109 O135 2.117 . S
C110 O132 1.234 . S
C110 O133 1.283 . S
C111 O123 1.281 . S
C111 O124 1.236 . S
C112 O134 1.240 . S
C112 O135 1.264 . S
O113 Mn108 2.095 . S
O113 C122 1.250 . S
O114 Mn109 2.121 . S
O114 C122 1.258 . S
C115 N116 1.326 . S
C115 C119 1.460 . S
C115 H121 0.929 . S
N116 Mn109 2.257 . S
N116 C115 1.326 . S
N116 C120 1.362 . S
C117 C118 1.258 . S
C117 C120 1.431 . S
C117 C137 1.449 . S
C118 C117 1.258 . S
C118 C119 1.477 . S
C118 H138 0.931 1_554 S
C119 C115 1.460 . S
C119 C118 1.477 . S
C119 H139 0.916 1_554 S
C120 N116 1.362 . S
C120 C117 1.431 . S
C120 C130 1.476 . S
H121 C115 0.929 . S
C122 O113 1.250 . S
C122 O114 1.258 . S
O123 Mn108 2.162 . S
O123 C111 1.281 . S
O124 Mn108 2.297 . S
O124 C111 1.236 . S
N125 Mn109 2.282 . S
N125 C126 1.328 . S
N125 C130 1.318 . S
C126 N125 1.328 . S
C126 C127 1.457 . S
C126 H131 0.929 . S
C127 C126 1.457 . S
C127 C128 1.291 . S
C127 H140 0.931 . S
C128 C127 1.291 . S
C128 C129 1.373 . S
C128 H141 0.929 . S
C129 C128 1.373 . S
C129 C130 1.396 . S
C129 C136 1.403 . S
C130 C120 1.476 . S
C130 N125 1.318 . S
C130 C129 1.396 . S
H131 C126 0.929 . S
O132 Mn108 2.385 . S
O132 C110 1.234 . S
O133 Mn108 2.209 . S
O133 Mn109 2.215 . S
O133 C110 1.283 . S
O134 Mn108 2.094 . S
O134 C112 1.240 . S
O135 Mn109 2.117 . S
O135 C112 1.264 . S
C136 C129 1.403 . S
C136 C137 1.399 . S
C136 H142 0.929 . S
C137 C117 1.449 . S
C137 C136 1.399 . S
C137 H143 0.930 1_554 S
H138 C118 0.931 1_556 S
H139 C119 0.916 1_556 S
H140 C127 0.931 . S
H141 C128 0.929 . S
H142 C136 0.929 . S
H143 C137 0.930 1_556 S
Mn144 O149 2.095 . S
Mn144 O159 2.162 . S
Mn144 O160 2.297 . S
Mn144 O168 2.385 . S
Mn144 O169 2.209 . S
Mn144 O170 2.094 . S
Mn145 O150 2.121 . S
Mn145 N152 2.257 . S
Mn145 N161 2.282 . S
Mn145 O169 2.215 . S
Mn145 O171 2.117 . S
C146 O168 1.234 . S
C146 O169 1.283 . S
C147 O159 1.281 . S
C147 O160 1.236 . S
C148 O170 1.240 . S
C148 O171 1.264 . S
O149 Mn144 2.095 . S
O149 C158 1.250 . S
O150 Mn145 2.121 . S
O150 C158 1.258 . S
C151 N152 1.326 . S
C151 C155 1.460 . S
C151 H157 0.929 . S
N152 Mn145 2.257 . S
N152 C151 1.326 . S
N152 C156 1.362 . S
C153 C154 1.258 . S
C153 C156 1.431 . S
C153 C173 1.449 . S
C154 C153 1.258 . S
C154 C155 1.477 . S
C154 H174 0.931 1_554 S
C155 C151 1.460 . S
C155 C154 1.477 . S
C155 H175 0.930 . S
C156 N152 1.362 . S
C156 C153 1.431 . S
C156 C166 1.476 . S
H157 C151 0.929 . S
C158 O149 1.250 . S
C158 O150 1.258 . S
O159 Mn144 2.162 . S
O159 C147 1.281 . S
O160 Mn144 2.297 . S
O160 C147 1.236 . S
N161 Mn145 2.282 . S
N161 C162 1.328 . S
N161 C166 1.318 . S
C162 N161 1.328 . S
C162 C163 1.457 . S
C162 H167 0.929 . S
C163 C162 1.457 . S
C163 C164 1.291 . S
C163 H176 0.931 . S
C164 C163 1.291 . S
C164 C165 1.373 . S
C164 H177 0.929 . S
C165 C164 1.373 . S
C165 C166 1.396 . S
C165 C172 1.403 . S
C166 C156 1.476 . S
C166 N161 1.318 . S
C166 C165 1.396 . S
H167 C162 0.929 . S
O168 Mn144 2.385 . S
O168 C146 1.234 . S
O169 Mn144 2.209 . S
O169 Mn145 2.215 . S
O169 C146 1.283 . S
O170 Mn144 2.094 . S
O170 C148 1.240 . S
O171 Mn145 2.117 . S
O171 C148 1.264 . S
C172 C165 1.403 . S
C172 C173 1.399 . S
C172 H178 0.929 . S
C173 C153 1.449 . S
C173 C172 1.399 . S
C173 H179 0.930 . S
H174 C154 0.931 1_556 S
H175 C155 0.930 . S
H176 C163 0.931 . S
H177 C164 0.929 . S
H178 C172 0.929 . S
H179 C173 0.930 . S
Mn180 O185 2.095 . S
Mn180 O195 2.162 . S
Mn180 O196 2.297 . S
Mn180 O204 2.385 . S
Mn180 O205 2.209 . S
Mn180 O206 2.094 . S
Mn181 O186 2.121 . S
Mn181 N188 2.257 . S
Mn181 N197 2.282 . S
Mn181 O205 2.215 . S
Mn181 O207 2.117 . S
C182 O204 1.234 . S
C182 O205 1.283 . S
C183 O195 1.281 . S
C183 O196 1.236 . S
C184 O206 1.240 . S
C184 O207 1.264 . S
O185 Mn180 2.095 . S
O185 C194 1.250 . S
O186 Mn181 2.121 . S
O186 C194 1.258 . S
C187 N188 1.326 . S
C187 C191 1.460 . S
C187 H193 0.929 . S
N188 Mn181 2.257 . S
N188 C187 1.326 . S
N188 C192 1.362 . S
C189 C190 1.258 . S
C189 C192 1.431 . S
C189 C209 1.449 . S
C190 C189 1.258 . S
C190 C191 1.477 . S
C190 H210 0.931 . S
C191 C187 1.460 . S
C191 C190 1.477 . S
C191 H211 0.930 . S
C192 N188 1.362 . S
C192 C189 1.431 . S
C192 C202 1.476 . S
H193 C187 0.929 . S
C194 O185 1.250 . S
C194 O186 1.258 . S
O195 Mn180 2.162 . S
O195 C183 1.281 . S
O196 Mn180 2.297 . S
O196 C183 1.236 . S
N197 Mn181 2.282 . S
N197 C198 1.328 . S
N197 C202 1.318 . S
C198 N197 1.328 . S
C198 C199 1.457 . S
C198 H203 0.929 . S
C199 C198 1.457 . S
C199 C200 1.291 . S
C199 H212 0.931 . S
C200 C199 1.291 . S
C200 C201 1.373 . S
C200 H213 0.929 . S
C201 C200 1.373 . S
C201 C202 1.396 . S
C201 C208 1.403 . S
C202 C192 1.476 . S
C202 N197 1.318 . S
C202 C201 1.396 . S
H203 C198 0.929 . S
O204 Mn180 2.385 . S
O204 C182 1.234 . S
O205 Mn180 2.209 . S
O205 Mn181 2.215 . S
O205 C182 1.283 . S
O206 Mn180 2.094 . S
O206 C184 1.240 . S
O207 Mn181 2.117 . S
O207 C184 1.264 . S
C208 C201 1.403 . S
C208 C209 1.399 . S
C208 H214 0.929 . S
C209 C189 1.449 . S
C209 C208 1.399 . S
C209 H215 0.930 . S
H210 C190 0.931 . S
H211 C191 0.930 . S
H212 C199 0.931 . S
H213 C200 0.929 . S
H214 C208 0.929 . S
H215 C209 0.930 . S
Mn216 O221 2.095 . S
Mn216 O231 2.162 . S
Mn216 O232 2.297 . S
Mn216 O240 2.385 . S
Mn216 O241 2.209 . S
Mn216 O242 2.094 . S
Mn217 O222 2.121 . S
Mn217 N224 2.257 . S
Mn217 N233 2.282 . S
Mn217 O241 2.215 . S
Mn217 O243 2.117 . S
C218 O240 1.234 . S
C218 O241 1.283 . S
C219 O231 1.281 . S
C219 O232 1.236 . S
C220 O242 1.240 . S
C220 O243 1.264 . S
O221 Mn216 2.095 . S
O221 C230 1.250 . S
O222 Mn217 2.121 . S
O222 C230 1.258 . S
C223 N224 1.326 . S
C223 C227 1.460 . S
C223 H229 0.929 . S
N224 Mn217 2.257 . S
N224 C223 1.326 . S
N224 C228 1.362 . S
C225 C226 1.258 . S
C225 C228 1.431 . S
C225 C245 1.449 . S
C226 C225 1.258 . S
C226 C227 1.477 . S
C226 H246 0.931 . S
C227 C223 1.460 . S
C227 C226 1.477 . S
C227 H247 0.930 . S
C228 N224 1.362 . S
C228 C225 1.431 . S
C228 C238 1.476 . S
H229 C223 0.929 . S
C230 O221 1.250 . S
C230 O222 1.258 . S
O231 Mn216 2.162 . S
O231 C219 1.281 . S
O232 Mn216 2.297 . S
O232 C219 1.236 . S
N233 Mn217 2.282 . S
N233 C234 1.328 . S
N233 C238 1.318 . S
C234 N233 1.328 . S
C234 C235 1.457 . S
C234 H239 0.929 . S
C235 C234 1.457 . S
C235 C236 1.291 . S
C235 H248 0.931 . S
C236 C235 1.291 . S
C236 C237 1.373 . S
C236 H249 0.929 . S
C237 C236 1.373 . S
C237 C238 1.396 . S
C237 C244 1.403 . S
C238 C228 1.476 . S
C238 N233 1.318 . S
C238 C237 1.396 . S
H239 C234 0.929 . S
O240 Mn216 2.385 . S
O240 C218 1.234 . S
O241 Mn216 2.209 . S
O241 Mn217 2.215 . S
O241 C218 1.283 . S
O242 Mn216 2.094 . S
O242 C220 1.240 . S
O243 Mn217 2.117 . S
O243 C220 1.264 . S
C244 C237 1.403 . S
C244 C245 1.399 . S
C244 H250 0.929 . S
C245 C225 1.449 . S
C245 C244 1.399 . S
C245 H251 0.930 . S
H246 C226 0.931 . S
H247 C227 0.930 . S
H248 C235 0.931 . S
H249 C236 0.929 . S
H250 C244 0.929 . S
H251 C245 0.930 . S
Mn252 O257 2.067 1_655 S
Mn252 O267 2.159 1_655 S
Mn252 O268 2.293 . S
Mn252 O276 2.415 . S
Mn252 O277 2.221 . S
Mn252 O278 2.099 1_655 S
Mn253 O258 2.121 1_655 S
Mn253 N260 2.257 . S
Mn253 N269 2.282 . S
Mn253 O277 2.215 . S
Mn253 O279 2.117 1_655 S
C254 O276 1.234 . S
C254 O277 1.283 . S
C255 O267 1.281 1_655 S
C255 O268 1.236 . S
C256 O278 1.240 . S
C256 O279 1.264 . S
O257 Mn252 2.067 1_455 S
O257 C266 1.250 . S
O258 Mn253 2.121 1_455 S
O258 C266 1.258 . S
C259 N260 1.326 . S
C259 C263 1.460 . S
C259 H265 0.929 1_655 S
N260 Mn253 2.257 . S
N260 C259 1.326 . S
N260 C264 1.362 . S
C261 C262 1.258 . S
C261 C264 1.431 . S
C261 C281 1.449 . S
C262 C261 1.258 . S
C262 C263 1.477 . S
C262 H282 0.931 . S
C263 C259 1.460 . S
C263 C262 1.477 . S
C263 H283 0.930 . S
C264 N260 1.362 . S
C264 C261 1.431 . S
C264 C274 1.476 . S
H265 C259 0.929 1_455 S
C266 O257 1.250 . S
C266 O258 1.258 . S
O267 Mn252 2.159 1_455 S
O267 C255 1.281 1_455 S
O268 Mn252 2.293 . S
O268 C255 1.236 . S
N269 Mn253 2.282 . S
N269 C270 1.328 . S
N269 C274 1.318 . S
C270 N269 1.328 . S
C270 C271 1.457 . S
C270 H275 0.929 . S
C271 C270 1.457 . S
C271 C272 1.291 . S
C271 H284 0.931 . S
C272 C271 1.291 . S
C272 C273 1.373 . S
C272 H285 0.929 . S
C273 C272 1.373 . S
C273 C274 1.396 . S
C273 C280 1.403 . S
C274 C264 1.476 . S
C274 N269 1.318 . S
C274 C273 1.396 . S
H275 C270 0.929 . S
O276 Mn252 2.415 . S
O276 C254 1.234 . S
O277 Mn252 2.221 . S
O277 Mn253 2.215 . S
O277 C254 1.283 . S
O278 Mn252 2.099 1_455 S
O278 C256 1.240 . S
O279 Mn253 2.117 1_455 S
O279 C256 1.264 . S
C280 C273 1.403 . S
C280 C281 1.399 . S
C280 H286 0.929 . S
C281 C261 1.449 . S
C281 C280 1.399 . S
C281 H287 0.930 . S
H282 C262 0.931 . S
H283 C263 0.930 . S
H284 C271 0.931 . S
H285 C272 0.929 . S
H286 C280 0.929 . S
H287 C281 0.930 . S
Mn288 O293 2.095 . S
Mn288 O303 2.162 . S
Mn288 O304 2.297 . S
Mn288 O312 2.385 . S
Mn288 O313 2.209 . S
Mn288 O314 2.094 . S
Mn289 O294 2.121 . S
Mn289 N296 2.257 . S
Mn289 N305 2.282 . S
Mn289 O313 2.215 . S
Mn289 O315 2.117 . S
C290 O312 1.234 . S
C290 O313 1.283 . S
C291 O303 1.281 . S
C291 O304 1.236 . S
C292 O314 1.240 . S
C292 O315 1.264 . S
O293 Mn288 2.095 . S
O293 C302 1.250 . S
O294 Mn289 2.121 . S
O294 C302 1.258 . S
C295 N296 1.326 . S
C295 C299 1.460 . S
C295 H301 0.929 . S
N296 Mn289 2.257 . S
N296 C295 1.326 . S
N296 C300 1.362 . S
C297 C298 1.258 . S
C297 C300 1.431 . S
C297 C317 1.449 1_545 S
C298 C297 1.258 . S
C298 C299 1.477 . S
C298 H318 0.931 . S
C299 C295 1.460 . S
C299 C298 1.477 . S
C299 H319 0.930 . S
C300 N296 1.362 . S
C300 C297 1.431 . S
C300 C310 1.476 . S
H301 C295 0.929 . S
C302 O293 1.250 . S
C302 O294 1.258 . S
O303 Mn288 2.162 . S
O303 C291 1.281 . S
O304 Mn288 2.297 . S
O304 C291 1.236 . S
N305 Mn289 2.282 . S
N305 C306 1.328 . S
N305 C310 1.318 . S
C306 N305 1.328 . S
C306 C307 1.457 1_545 S
C306 H311 0.929 . S
C307 C306 1.457 1_565 S
C307 C308 1.291 . S
C307 H320 0.931 . S
C308 C307 1.291 . S
C308 C309 1.373 . S
C308 H321 0.929 . S
C309 C308 1.373 . S
C309 C310 1.396 1_565 S
C309 C316 1.403 . S
C310 C300 1.476 . S
C310 N305 1.318 . S
C310 C309 1.396 1_545 S
H311 C306 0.929 . S
O312 Mn288 2.385 . S
O312 C290 1.234 . S
O313 Mn288 2.209 . S
O313 Mn289 2.215 . S
O313 C290 1.283 . S
O314 Mn288 2.094 . S
O314 C292 1.240 . S
O315 Mn289 2.117 . S
O315 C292 1.264 . S
C316 C309 1.403 . S
C316 C317 1.399 . S
C316 H322 0.929 . S
C317 C297 1.449 1_565 S
C317 C316 1.399 . S
C317 H323 0.930 . S
H318 C298 0.931 . S
H319 C299 0.930 . S
H320 C307 0.931 . S
H321 C308 0.929 . S
H322 C316 0.929 . S
H323 C317 0.930 . S
Mn324 O329 2.095 . S
Mn324 O339 2.162 . S
Mn324 O340 2.297 . S
Mn324 O348 2.385 . S
Mn324 O349 2.209 . S
Mn324 O350 2.094 . S
Mn325 O330 2.121 . S
Mn325 N332 2.257 . S
Mn325 N341 2.282 . S
Mn325 O349 2.215 . S
Mn325 O351 2.117 . S
C326 O348 1.234 . S
C326 O349 1.283 . S
C327 O339 1.281 . S
C327 O340 1.236 . S
C328 O350 1.240 . S
C328 O351 1.264 . S
O329 Mn324 2.095 . S
O329 C338 1.250 . S
O330 Mn325 2.121 . S
O330 C338 1.258 . S
C331 N332 1.326 . S
C331 C335 1.460 . S
C331 H337 0.929 . S
N332 Mn325 2.257 . S
N332 C331 1.326 . S
N332 C336 1.362 . S
C333 C334 1.258 . S
C333 C336 1.431 . S
C333 C353 1.449 . S
C334 C333 1.258 . S
C334 C335 1.477 . S
C334 H354 0.931 . S
C335 C331 1.460 . S
C335 C334 1.477 . S
C335 H355 0.930 . S
C336 N332 1.362 . S
C336 C333 1.431 . S
C336 C346 1.476 . S
H337 C331 0.929 . S
C338 O329 1.250 . S
C338 O330 1.258 . S
O339 Mn324 2.162 . S
O339 C327 1.281 . S
O340 Mn324 2.297 . S
O340 C327 1.236 . S
N341 Mn325 2.282 . S
N341 C342 1.328 . S
N341 C346 1.318 . S
C342 N341 1.328 . S
C342 C343 1.457 . S
C342 H347 0.929 . S
C343 C342 1.457 . S
C343 C344 1.291 . S
C343 H356 0.931 . S
C344 C343 1.291 . S
C344 C345 1.373 . S
C344 H357 0.929 . S
C345 C344 1.373 . S
C345 C346 1.396 . S
C345 C352 1.403 . S
C346 C336 1.476 . S
C346 N341 1.318 . S
C346 C345 1.396 . S
H347 C342 0.929 . S
O348 Mn324 2.385 . S
O348 C326 1.234 . S
O349 Mn324 2.209 . S
O349 Mn325 2.215 . S
O349 C326 1.283 . S
O350 Mn324 2.094 . S
O350 C328 1.240 . S
O351 Mn325 2.117 . S
O351 C328 1.264 . S
C352 C345 1.403 . S
C352 C353 1.399 . S
C352 H358 0.929 . S
C353 C333 1.449 . S
C353 C352 1.399 . S
C353 H359 0.930 . S
H354 C334 0.931 . S
H355 C335 0.930 . S
H356 C343 0.931 . S
H357 C344 0.929 . S
H358 C352 0.929 . S
H359 C353 0.930 . S
Mn360 O365 2.095 . S
Mn360 O375 2.162 . S
Mn360 O376 2.297 . S
Mn360 O384 2.385 . S
Mn360 O385 2.209 . S
Mn360 O386 2.094 . S
Mn361 O366 2.121 . S
Mn361 N368 2.257 . S
Mn361 N377 2.282 . S
Mn361 O385 2.215 . S
Mn361 O387 2.117 . S
C362 O384 1.234 . S
C362 O385 1.283 . S
C363 O375 1.281 . S
C363 O376 1.236 . S
C364 O386 1.240 . S
C364 O387 1.264 . S
O365 Mn360 2.095 . S
O365 C374 1.250 . S
O366 Mn361 2.121 . S
O366 C374 1.258 . S
C367 N368 1.326 . S
C367 C371 1.460 . S
C367 H373 0.929 . S
N368 Mn361 2.257 . S
N368 C367 1.326 . S
N368 C372 1.362 . S
C369 C370 1.258 . S
C369 C372 1.431 . S
C369 C389 1.449 . S
C370 C369 1.258 . S
C370 C371 1.477 . S
C370 H390 0.931 . S
C371 C367 1.460 . S
C371 C370 1.477 . S
C371 H391 0.930 . S
C372 N368 1.362 . S
C372 C369 1.431 . S
C372 C382 1.476 . S
H373 C367 0.929 . S
C374 O365 1.250 . S
C374 O366 1.258 . S
O375 Mn360 2.162 . S
O375 C363 1.281 . S
O376 Mn360 2.297 . S
O376 C363 1.236 . S
N377 Mn361 2.282 . S
N377 C378 1.328 . S
N377 C382 1.318 . S
C378 N377 1.328 . S
C378 C379 1.457 . S
C378 H383 0.929 . S
C379 C378 1.457 . S
C379 C380 1.291 . S
C379 H392 0.931 . S
C380 C379 1.291 . S
C380 C381 1.373 . S
C380 H393 0.929 . S
C381 C380 1.373 . S
C381 C382 1.396 . S
C381 C388 1.403 . S
C382 C372 1.476 . S
C382 N377 1.318 . S
C382 C381 1.396 . S
H383 C378 0.929 . S
O384 Mn360 2.385 . S
O384 C362 1.234 . S
O385 Mn360 2.209 . S
O385 Mn361 2.215 . S
O385 C362 1.283 . S
O386 Mn360 2.094 . S
O386 C364 1.240 . S
O387 Mn361 2.117 . S
O387 C364 1.264 . S
C388 C381 1.403 . S
C388 C389 1.399 . S
C388 H394 0.929 . S
C389 C369 1.449 . S
C389 C388 1.399 . S
C389 H395 0.930 . S
H390 C370 0.931 . S
H391 C371 0.930 . S
H392 C379 0.931 . S
H393 C380 0.929 . S
H394 C388 0.929 . S
H395 C389 0.930 . S
Mn396 O401 2.095 . S
Mn396 O411 2.162 . S
Mn396 O412 2.297 . S
Mn396 O420 2.385 . S
Mn396 O421 2.209 . S
Mn396 O422 2.094 . S
Mn397 O402 2.121 . S
Mn397 N404 2.257 . S
Mn397 N413 2.282 1_554 S
Mn397 O421 2.215 . S
Mn397 O423 2.117 1_554 S
C398 O420 1.234 . S
C398 O421 1.283 . S
C399 O411 1.281 . S
C399 O412 1.236 . S
C400 O422 1.240 1_556 S
C400 O423 1.264 . S
O401 Mn396 2.095 . S
O401 C410 1.250 . S
O402 Mn397 2.121 . S
O402 C410 1.258 . S
C403 N404 1.326 1_545 S
C403 C407 1.460 . S
C403 H409 0.929 1_545 S
N404 Mn397 2.257 . S
N404 C403 1.326 1_565 S
N404 C408 1.362 . S
C405 C406 1.258 . S
C405 C408 1.431 1_545 S
C405 C425 1.449 . S
C406 C405 1.258 . S
C406 C407 1.477 . S
C406 H426 0.931 . S
C407 C403 1.460 . S
C407 C406 1.477 . S
C407 H427 0.930 . S
C408 N404 1.362 . S
C408 C405 1.431 1_565 S
C408 C418 1.476 1_554 S
H409 C403 0.929 1_565 S
C410 O401 1.250 . S
C410 O402 1.258 . S
O411 Mn396 2.162 . S
O411 C399 1.281 . S
O412 Mn396 2.297 . S
O412 C399 1.236 . S
N413 Mn397 2.282 1_556 S
N413 C414 1.328 . S
N413 C418 1.318 . S
C414 N413 1.328 . S
C414 C415 1.457 . S
C414 H419 0.929 . S
C415 C414 1.457 . S
C415 C416 1.291 . S
C415 H428 0.931 . S
C416 C415 1.291 . S
C416 C417 1.373 . S
C416 H429 0.929 . S
C417 C416 1.373 . S
C417 C418 1.396 . S
C417 C424 1.403 1_565 S
C418 C408 1.476 1_556 S
C418 N413 1.318 . S
C418 C417 1.396 . S
H419 C414 0.929 . S
O420 Mn396 2.385 . S
O420 C398 1.234 . S
O421 Mn396 2.209 . S
O421 Mn397 2.215 . S
O421 C398 1.283 . S
O422 Mn396 2.094 . S
O422 C400 1.240 1_554 S
O423 Mn397 2.117 1_556 S
O423 C400 1.264 . S
C424 C417 1.403 1_545 S
C424 C425 1.399 1_556 S
C424 H430 0.929 . S
C425 C405 1.449 . S
C425 C424 1.399 1_554 S
C425 H431 0.930 . S
H426 C406 0.931 . S
H427 C407 0.930 . S
H428 C415 0.931 . S
H429 C416 0.929 . S
H430 C424 0.929 . S
H431 C425 0.930 . S
Mn432 O437 2.095 . S
Mn432 O447 2.162 . S
Mn432 O448 2.297 . S
Mn432 O456 2.385 . S
Mn432 O457 2.209 . S
Mn432 O458 2.094 1_554 S
Mn433 O438 2.121 1_556 S
Mn433 N440 2.257 1_556 S
Mn433 N449 2.282 . S
Mn433 O457 2.215 1_556 S
Mn433 O459 2.117 . S
C434 O456 1.234 . S
C434 O457 1.283 . S
C435 O447 1.281 . S
C435 O448 1.236 . S
C436 O458 1.240 . S
C436 O459 1.264 . S
O437 Mn432 2.095 . S
O437 C446 1.250 . S
O438 Mn433 2.121 1_554 S
O438 C446 1.258 . S
C439 N440 1.326 . S
C439 C443 1.460 . S
C439 H445 0.929 . S
N440 Mn433 2.257 1_554 S
N440 C439 1.326 . S
N440 C444 1.362 1_554 S
C441 C442 1.258 1_556 S
C441 C444 1.431 . S
C441 C461 1.449 . S
C442 C441 1.258 1_554 S
C442 C443 1.477 . S
C442 H462 0.931 . S
C443 C439 1.460 . S
C443 C442 1.477 . S
C443 H463 0.930 . S
C444 N440 1.362 1_556 S
C444 C441 1.431 . S
C444 C454 1.476 . S
H445 C439 0.929 . S
C446 O437 1.250 . S
C446 O438 1.258 . S
O447 Mn432 2.162 . S
O447 C435 1.281 . S
O448 Mn432 2.297 . S
O448 C435 1.236 . S
N449 Mn433 2.282 . S
N449 C450 1.328 . S
N449 C454 1.318 . S
C450 N449 1.328 . S
C450 C451 1.457 . S
C450 H455 0.929 . S
C451 C450 1.457 . S
C451 C452 1.291 . S
C451 H464 0.931 . S
C452 C451 1.291 . S
C452 C453 1.373 . S
C452 H465 0.929 . S
C453 C452 1.373 . S
C453 C454 1.396 . S
C453 C460 1.403 . S
C454 C444 1.476 . S
C454 N449 1.318 . S
C454 C453 1.396 . S
H455 C450 0.929 . S
O456 Mn432 2.385 . S
O456 C434 1.234 . S
O457 Mn432 2.209 . S
O457 Mn433 2.215 1_554 S
O457 C434 1.283 . S
O458 Mn432 2.094 1_556 S
O458 C436 1.240 . S
O459 Mn433 2.117 . S
O459 C436 1.264 . S
C460 C453 1.403 . S
C460 C461 1.399 . S
C460 H466 0.929 . S
C461 C441 1.449 . S
C461 C460 1.399 . S
C461 H467 0.930 . S
H462 C442 0.931 . S
H463 C443 0.930 . S
H464 C451 0.931 . S
H465 C452 0.929 . S
H466 C460 0.929 . S
H467 C461 0.930 . S
Mn468 O473 2.095 1_554 S
Mn468 O483 2.162 . S
Mn468 O484 2.297 . S
Mn468 O492 2.383 . S
Mn468 O493 2.209 1_554 S
Mn468 O494 2.094 1_554 S
Mn469 O474 2.121 . S
Mn469 N476 2.257 . S
Mn469 N485 2.282 . S
Mn469 O493 2.215 . S
Mn469 O495 2.117 . S
C470 O492 1.232 1_556 S
C470 O493 1.283 . S
C471 O483 1.281 . S
C471 O484 1.236 . S
C472 O494 1.240 . S
C472 O495 1.264 . S
O473 Mn468 2.095 1_556 S
O473 C482 1.250 . S
O474 Mn469 2.121 . S
O474 C482 1.258 . S
C475 N476 1.326 . S
C475 C479 1.460 . S
C475 H481 0.929 . S
N476 Mn469 2.257 . S
N476 C475 1.326 . S
N476 C480 1.362 . S
C477 C478 1.258 . S
C477 C480 1.431 . S
C477 C497 1.449 . S
C478 C477 1.258 . S
C478 C479 1.477 . S
C478 H498 0.931 . S
C479 C475 1.460 . S
C479 C478 1.477 . S
C479 H499 0.930 . S
C480 N476 1.362 . S
C480 C477 1.431 . S
C480 C490 1.476 . S
H481 C475 0.929 . S
C482 O473 1.250 . S
C482 O474 1.258 . S
O483 Mn468 2.162 . S
O483 C471 1.281 . S
O484 Mn468 2.297 . S
O484 C471 1.236 . S
N485 Mn469 2.282 . S
N485 C486 1.328 . S
N485 C490 1.318 . S
C486 N485 1.328 . S
C486 C487 1.457 . S
C486 H491 0.929 . S
C487 C486 1.457 . S
C487 C488 1.291 . S
C487 H500 0.931 . S
C488 C487 1.291 . S
C488 C489 1.373 . S
C488 H501 0.929 . S
C489 C488 1.373 . S
C489 C490 1.396 . S
C489 C496 1.403 . S
C490 C480 1.476 . S
C490 N485 1.318 . S
C490 C489 1.396 . S
H491 C486 0.929 . S
O492 Mn468 2.383 . S
O492 C470 1.232 1_554 S
O493 Mn468 2.209 1_556 S
O493 Mn469 2.215 . S
O493 C470 1.283 . S
O494 Mn468 2.094 1_556 S
O494 C472 1.240 . S
O495 Mn469 2.117 . S
O495 C472 1.264 . S
C496 C489 1.403 . S
C496 C497 1.399 . S
C496 H502 0.929 . S
C497 C477 1.449 . S
C497 C496 1.399 . S
C497 H503 0.930 . S
H498 C478 0.931 . S
H499 C479 0.930 . S
H500 C487 0.931 . S
H501 C488 0.929 . S
H502 C496 0.929 . S
H503 C497 0.930 . S
Mn504 O509 2.095 . S
Mn504 O519 2.162 . S
Mn504 O520 2.297 . S
Mn504 O528 2.385 . S
Mn504 O529 2.209 . S
Mn504 O530 2.094 . S
Mn505 O510 2.121 . S
Mn505 N512 2.257 . S
Mn505 N521 2.282 . S
Mn505 O529 2.215 . S
Mn505 O531 2.117 . S
C506 O528 1.234 . S
C506 O529 1.283 . S
C507 O519 1.281 . S
C507 O520 1.236 . S
C508 O530 1.240 . S
C508 O531 1.264 . S
O509 Mn504 2.095 . S
O509 C518 1.250 . S
O510 Mn505 2.121 . S
O510 C518 1.258 . S
C511 N512 1.326 . S
C511 C515 1.460 . S
C511 H517 0.929 . S
N512 Mn505 2.257 . S
N512 C511 1.326 . S
N512 C516 1.362 . S
C513 C514 1.258 . S
C513 C516 1.431 . S
C513 C533 1.449 . S
C514 C513 1.258 . S
C514 C515 1.477 . S
C514 H534 0.931 . S
C515 C511 1.460 . S
C515 C514 1.477 . S
C515 H535 0.930 . S
C516 N512 1.362 . S
C516 C513 1.431 . S
C516 C526 1.476 . S
H517 C511 0.929 . S
C518 O509 1.250 . S
C518 O510 1.258 . S
O519 Mn504 2.162 . S
O519 C507 1.281 . S
O520 Mn504 2.297 . S
O520 C507 1.236 . S
N521 Mn505 2.282 . S
N521 C522 1.328 . S
N521 C526 1.318 . S
C522 N521 1.328 . S
C522 C523 1.457 . S
C522 H527 0.929 . S
C523 C522 1.457 . S
C523 C524 1.291 . S
C523 H536 0.931 . S
C524 C523 1.291 . S
C524 C525 1.373 . S
C524 H537 0.929 . S
C525 C524 1.373 . S
C525 C526 1.396 . S
C525 C532 1.403 . S
C526 C516 1.476 . S
C526 N521 1.318 . S
C526 C525 1.396 . S
H527 C522 0.929 . S
O528 Mn504 2.385 . S
O528 C506 1.234 . S
O529 Mn504 2.209 . S
O529 Mn505 2.215 . S
O529 C506 1.283 . S
O530 Mn504 2.094 . S
O530 C508 1.240 . S
O531 Mn505 2.117 . S
O531 C508 1.264 . S
C532 C525 1.403 . S
C532 C533 1.399 . S
C532 H538 0.929 . S
C533 C513 1.449 . S
C533 C532 1.399 . S
C533 H539 0.930 . S
H534 C514 0.931 . S
H535 C515 0.930 . S
H536 C523 0.931 . S
H537 C524 0.929 . S
H538 C532 0.929 . S
H539 C533 0.930 . S
Mn540 O545 2.095 . S
Mn540 O555 2.162 . S
Mn540 O556 2.297 . S
Mn540 O564 2.385 . S
Mn540 O565 2.209 . S
Mn540 O566 2.094 . S
Mn541 O546 2.121 . S
Mn541 N548 2.257 1_565 S
Mn541 N557 2.282 . S
Mn541 O565 2.215 . S
Mn541 O567 2.117 . S
C542 O564 1.234 . S
C542 O565 1.283 . S
C543 O555 1.281 . S
C543 O556 1.236 . S
C544 O566 1.240 . S
C544 O567 1.264 . S
O545 Mn540 2.095 . S
O545 C554 1.250 . S
O546 Mn541 2.121 . S
O546 C554 1.258 . S
C547 N548 1.326 . S
C547 C551 1.460 . S
C547 H553 0.929 . S
N548 Mn541 2.257 1_545 S
N548 C547 1.326 . S
N548 C552 1.362 . S
C549 C550 1.258 . S
C549 C552 1.431 . S
C549 C569 1.449 . S
C550 C549 1.258 . S
C550 C551 1.477 . S
C550 H570 0.931 . S
C551 C547 1.460 . S
C551 C550 1.477 . S
C551 H571 0.930 . S
C552 N548 1.362 . S
C552 C549 1.431 . S
C552 C562 1.476 . S
H553 C547 0.929 . S
C554 O545 1.250 . S
C554 O546 1.258 . S
O555 Mn540 2.162 . S
O555 C543 1.281 . S
O556 Mn540 2.297 . S
O556 C543 1.236 . S
N557 Mn541 2.282 . S
N557 C558 1.328 . S
N557 C562 1.318 1_565 S
C558 N557 1.328 . S
C558 C559 1.457 . S
C558 H563 0.929 . S
C559 C558 1.457 . S
C559 C560 1.291 . S
C559 H572 0.931 . S
C560 C559 1.291 . S
C560 C561 1.373 1_565 S
C560 H573 0.929 . S
C561 C560 1.373 1_545 S
C561 C562 1.396 . S
C561 C568 1.403 . S
C562 C552 1.476 . S
C562 N557 1.318 1_545 S
C562 C561 1.396 . S
H563 C558 0.929 . S
O564 Mn540 2.385 . S
O564 C542 1.234 . S
O565 Mn540 2.209 . S
O565 Mn541 2.215 . S
O565 C542 1.283 . S
O566 Mn540 2.094 . S
O566 C544 1.240 . S
O567 Mn541 2.117 . S
O567 C544 1.264 . S
C568 C561 1.403 . S
C568 C569 1.399 . S
C568 H574 0.929 . S
C569 C549 1.449 . S
C569 C568 1.399 . S
C569 H575 0.930 . S
H570 C550 0.931 . S
H571 C551 0.930 . S
H572 C559 0.931 . S
H573 C560 0.929 . S
H574 C568 0.929 . S
H575 C569 0.930 . S
Mn576 O581 2.099 1_565 S
Mn576 O591 2.162 1_565 S
Mn576 O592 2.297 . S
Mn576 O600 2.381 . S
Mn576 O601 2.207 . S
Mn576 O602 2.094 1_565 S
Mn577 O582 2.121 1_565 S
Mn577 N584 2.257 . S
Mn577 N593 2.282 . S
Mn577 O601 2.215 . S
Mn577 O603 2.117 1_565 S
C578 O600 1.234 . S
C578 O601 1.283 . S
C579 O591 1.281 . S
C579 O592 1.237 1_545 S
C580 O602 1.240 . S
C580 O603 1.264 . S
O581 Mn576 2.099 1_545 S
O581 C590 1.250 . S
O582 Mn577 2.121 1_545 S
O582 C590 1.258 . S
C583 N584 1.326 . S
C583 C587 1.460 . S
C583 H589 0.929 1_565 S
N584 Mn577 2.257 . S
N584 C583 1.326 . S
N584 C588 1.362 . S
C585 C586 1.258 . S
C585 C588 1.431 . S
C585 C605 1.449 . S
C586 C585 1.258 . S
C586 C587 1.477 . S
C586 H606 0.931 . S
C587 C583 1.460 . S
C587 C586 1.477 . S
C587 H607 0.930 . S
C588 N584 1.362 . S
C588 C585 1.431 . S
C588 C598 1.476 . S
H589 C583 0.929 1_545 S
C590 O581 1.250 . S
C590 O582 1.258 . S
O591 Mn576 2.162 1_545 S
O591 C579 1.281 . S
O592 Mn576 2.297 . S
O592 C579 1.237 1_565 S
N593 Mn577 2.282 . S
N593 C594 1.328 . S
N593 C598 1.318 . S
C594 N593 1.328 . S
C594 C595 1.457 . S
C594 H599 0.929 . S
C595 C594 1.457 . S
C595 C596 1.291 . S
C595 H608 0.931 . S
C596 C595 1.291 . S
C596 C597 1.373 . S
C596 H609 0.929 . S
C597 C596 1.373 . S
C597 C598 1.396 . S
C597 C604 1.403 . S
C598 C588 1.476 . S
C598 N593 1.318 . S
C598 C597 1.396 . S
H599 C594 0.929 . S
O600 Mn576 2.381 . S
O600 C578 1.234 . S
O601 Mn576 2.207 . S
O601 Mn577 2.215 . S
O601 C578 1.283 . S
O602 Mn576 2.094 1_545 S
O602 C580 1.240 . S
O603 Mn577 2.117 1_545 S
O603 C580 1.264 . S
C604 C597 1.403 . S
C604 C605 1.399 . S
C604 H610 0.929 . S
C605 C585 1.449 . S
C605 C604 1.399 . S
C605 H611 0.930 . S
H606 C586 0.931 . S
H607 C587 0.930 . S
H608 C595 0.931 . S
H609 C596 0.929 . S
H610 C604 0.929 . S
H611 C605 0.930 . S
Mn612 O617 2.095 . S
Mn612 O627 2.162 . S
Mn612 O628 2.297 . S
Mn612 O636 2.385 . S
Mn612 O637 2.209 . S
Mn612 O638 2.094 . S
Mn613 O618 2.121 . S
Mn613 N620 2.257 . S
Mn613 N629 2.282 . S
Mn613 O637 2.215 . S
Mn613 O639 2.117 . S
C614 O636 1.234 . S
C614 O637 1.283 . S
C615 O627 1.281 . S
C615 O628 1.236 . S
C616 O638 1.240 . S
C616 O639 1.264 . S
O617 Mn612 2.095 . S
O617 C626 1.250 . S
O618 Mn613 2.121 . S
O618 C626 1.258 . S
C619 N620 1.326 . S
C619 C623 1.460 . S
C619 H625 0.929 . S
N620 Mn613 2.257 . S
N620 C619 1.326 . S
N620 C624 1.362 . S
C621 C622 1.258 . S
C621 C624 1.431 . S
C621 C641 1.449 . S
C622 C621 1.258 . S
C622 C623 1.477 . S
C622 H642 0.931 . S
C623 C619 1.460 . S
C623 C622 1.477 . S
C623 H643 0.930 . S
C624 N620 1.362 . S
C624 C621 1.431 . S
C624 C634 1.476 . S
H625 C619 0.929 . S
C626 O617 1.250 . S
C626 O618 1.258 . S
O627 Mn612 2.162 . S
O627 C615 1.281 . S
O628 Mn612 2.297 . S
O628 C615 1.236 . S
N629 Mn613 2.282 . S
N629 C630 1.328 . S
N629 C634 1.318 . S
C630 N629 1.328 . S
C630 C631 1.457 . S
C630 H635 0.929 . S
C631 C630 1.457 . S
C631 C632 1.291 . S
C631 H644 0.931 . S
C632 C631 1.291 . S
C632 C633 1.373 . S
C632 H645 0.929 . S
C633 C632 1.373 . S
C633 C634 1.396 . S
C633 C640 1.403 . S
C634 C624 1.476 . S
C634 N629 1.318 . S
C634 C633 1.396 . S
H635 C630 0.929 . S
O636 Mn612 2.385 . S
O636 C614 1.234 . S
O637 Mn612 2.209 . S
O637 Mn613 2.215 . S
O637 C614 1.283 . S
O638 Mn612 2.094 . S
O638 C616 1.240 . S
O639 Mn613 2.117 . S
O639 C616 1.264 . S
C640 C633 1.403 . S
C640 C641 1.399 . S
C640 H646 0.929 . S
C641 C621 1.449 . S
C641 C640 1.399 . S
C641 H647 0.930 . S
H642 C622 0.931 . S
H643 C623 0.930 . S
H644 C631 0.931 . S
H645 C632 0.929 . S
H646 C640 0.929 . S
H647 C641 0.930 . S
Mn648 O653 2.095 . S
Mn648 O663 2.162 . S
Mn648 O664 2.297 . S
Mn648 O672 2.385 . S
Mn648 O673 2.209 . S
Mn648 O674 2.094 . S
Mn649 O654 2.121 . S
Mn649 N656 2.257 . S
Mn649 N665 2.282 . S
Mn649 O673 2.215 . S
Mn649 O675 2.117 . S
C650 O672 1.234 . S
C650 O673 1.283 . S
C651 O663 1.281 . S
C651 O664 1.236 . S
C652 O674 1.240 . S
C652 O675 1.264 . S
O653 Mn648 2.095 . S
O653 C662 1.250 . S
O654 Mn649 2.121 . S
O654 C662 1.258 . S
C655 N656 1.326 . S
C655 C659 1.460 . S
C655 H661 0.929 . S
N656 Mn649 2.257 . S
N656 C655 1.326 . S
N656 C660 1.362 . S
C657 C658 1.258 . S
C657 C660 1.431 . S
C657 C677 1.449 . S
C658 C657 1.258 . S
C658 C659 1.477 . S
C658 H678 0.931 . S
C659 C655 1.460 . S
C659 C658 1.477 . S
C659 H679 0.930 . S
C660 N656 1.362 . S
C660 C657 1.431 . S
C660 C670 1.476 . S
H661 C655 0.929 . S
C662 O653 1.250 . S
C662 O654 1.258 . S
O663 Mn648 2.162 . S
O663 C651 1.281 . S
O664 Mn648 2.297 . S
O664 C651 1.236 . S
N665 Mn649 2.282 . S
N665 C666 1.328 . S
N665 C670 1.318 . S
C666 N665 1.328 . S
C666 C667 1.457 . S
C666 H671 0.929 . S
C667 C666 1.457 . S
C667 C668 1.291 . S
C667 H680 0.931 . S
C668 C667 1.291 . S
C668 C669 1.373 . S
C668 H681 0.929 . S
C669 C668 1.373 . S
C669 C670 1.396 . S
C669 C676 1.403 . S
C670 C660 1.476 . S
C670 N665 1.318 . S
C670 C669 1.396 . S
H671 C666 0.929 . S
O672 Mn648 2.385 . S
O672 C650 1.234 . S
O673 Mn648 2.209 . S
O673 Mn649 2.215 . S
O673 C650 1.283 . S
O674 Mn648 2.094 . S
O674 C652 1.240 . S
O675 Mn649 2.117 . S
O675 C652 1.264 . S
C676 C669 1.403 . S
C676 C677 1.399 . S
C676 H682 0.929 . S
C677 C657 1.449 . S
C677 C676 1.399 . S
C677 H683 0.930 . S
H678 C658 0.931 . S
H679 C659 0.930 . S
H680 C667 0.931 . S
H681 C668 0.929 . S
H682 C676 0.929 . S
H683 C677 0.930 . S
Mn684 O689 2.095 1_545 S
Mn684 O699 2.162 . S
Mn684 O700 2.297 . S
Mn684 O708 2.385 . S
Mn684 O709 2.209 . S
Mn684 O710 2.094 . S
Mn685 O690 2.121 1_545 S
Mn685 N692 2.257 . S
Mn685 N701 2.282 . S
Mn685 O709 2.215 . S
Mn685 O711 2.117 . S
C686 O708 1.234 . S
C686 O709 1.283 . S
C687 O699 1.281 . S
C687 O700 1.236 . S
C688 O710 1.240 . S
C688 O711 1.264 . S
O689 Mn684 2.095 1_565 S
O689 C698 1.250 . S
O690 Mn685 2.121 1_565 S
O690 C698 1.258 . S
C691 N692 1.326 . S
C691 C695 1.460 . S
C691 H697 0.929 . S
N692 Mn685 2.257 . S
N692 C691 1.326 . S
N692 C696 1.362 . S
C693 C694 1.258 . S
C693 C696 1.431 . S
C693 C713 1.449 . S
C694 C693 1.258 . S
C694 C695 1.477 . S
C694 H714 0.931 . S
C695 C691 1.460 . S
C695 C694 1.477 . S
C695 H715 0.930 . S
C696 N692 1.362 . S
C696 C693 1.431 . S
C696 C706 1.476 . S
H697 C691 0.929 . S
C698 O689 1.250 . S
C698 O690 1.258 . S
O699 Mn684 2.162 . S
O699 C687 1.281 . S
O700 Mn684 2.297 . S
O700 C687 1.236 . S
N701 Mn685 2.282 . S
N701 C702 1.328 . S
N701 C706 1.318 . S
C702 N701 1.328 . S
C702 C703 1.457 . S
C702 H707 0.929 . S
C703 C702 1.457 . S
C703 C704 1.291 . S
C703 H716 0.931 . S
C704 C703 1.291 . S
C704 C705 1.373 . S
C704 H717 0.929 . S
C705 C704 1.373 . S
C705 C706 1.396 . S
C705 C712 1.403 . S
C706 C696 1.476 . S
C706 N701 1.318 . S
C706 C705 1.396 . S
H707 C702 0.929 . S
O708 Mn684 2.385 . S
O708 C686 1.234 . S
O709 Mn684 2.209 . S
O709 Mn685 2.215 . S
O709 C686 1.283 . S
O710 Mn684 2.094 . S
O710 C688 1.240 . S
O711 Mn685 2.117 . S
O711 C688 1.264 . S
C712 C705 1.403 . S
C712 C713 1.399 . S
C712 H718 0.929 . S
C713 C693 1.449 . S
C713 C712 1.399 . S
C713 H719 0.930 . S
H714 C694 0.931 . S
H715 C695 0.930 . S
H716 C703 0.931 . S
H717 C704 0.929 . S
H718 C712 0.929 . S
H719 C713 0.930 . S
Mn720 O725 2.095 . S
Mn720 O735 2.162 . S
Mn720 O736 2.297 . S
Mn720 O744 2.385 . S
Mn720 O745 2.209 . S
Mn720 O746 2.094 1_554 S
Mn721 O726 2.127 . S
Mn721 N728 2.257 . S
Mn721 N737 2.282 . S
Mn721 O745 2.215 1_556 S
Mn721 O747 2.117 . S
C722 O744 1.234 . S
C722 O745 1.283 . S
C723 O735 1.281 . S
C723 O736 1.236 . S
C724 O746 1.240 . S
C724 O747 1.264 . S
O725 Mn720 2.095 . S
O725 C734 1.250 . S
O726 Mn721 2.127 . S
O726 C734 1.253 1_556 S
C727 N728 1.326 . S
C727 C731 1.460 . S
C727 H733 0.930 . S
N728 Mn721 2.257 . S
N728 C727 1.326 . S
N728 C732 1.362 . S
C729 C730 1.258 . S
C729 C732 1.431 . S
C729 C749 1.449 . S
C730 C729 1.258 . S
C730 C731 1.477 . S
C730 H750 0.931 . S
C731 C727 1.460 . S
C731 C730 1.477 . S
C731 H751 0.930 . S
C732 N728 1.362 . S
C732 C729 1.431 . S
C732 C742 1.476 . S
H733 C727 0.930 . S
C734 O725 1.250 . S
C734 O726 1.253 1_554 S
O735 Mn720 2.162 . S
O735 C723 1.281 . S
O736 Mn720 2.297 . S
O736 C723 1.236 . S
N737 Mn721 2.282 . S
N737 C738 1.328 . S
N737 C742 1.318 . S
C738 N737 1.328 . S
C738 C739 1.457 . S
C738 H743 0.929 . S
C739 C738 1.457 . S
C739 C740 1.291 . S
C739 H752 0.931 . S
C740 C739 1.291 . S
C740 C741 1.373 . S
C740 H753 0.929 . S
C741 C740 1.373 . S
C741 C742 1.396 . S
C741 C748 1.403 . S
C742 C732 1.476 . S
C742 N737 1.318 . S
C742 C741 1.396 . S
H743 C738 0.929 . S
O744 Mn720 2.385 . S
O744 C722 1.234 . S
O745 Mn720 2.209 . S
O745 Mn721 2.215 1_554 S
O745 C722 1.283 . S
O746 Mn720 2.094 1_556 S
O746 C724 1.240 . S
O747 Mn721 2.117 . S
O747 C724 1.264 . S
C748 C741 1.403 . S
C748 C749 1.399 . S
C748 H754 0.929 . S
C749 C729 1.449 . S
C749 C748 1.399 . S
C749 H755 0.930 . S
H750 C730 0.931 . S
H751 C731 0.930 . S
H752 C739 0.931 . S
H753 C740 0.929 . S
H754 C748 0.929 . S
H755 C749 0.930 . S
Mn756 O761 2.095 1_455 S
Mn756 O771 2.162 . S
Mn756 O772 2.297 1_455 S
Mn756 O780 2.385 . S
Mn756 O781 2.209 1_455 S
Mn756 O782 2.094 . S
Mn757 O762 2.121 . S
Mn757 N764 2.257 . S
Mn757 N773 2.282 . S
Mn757 O781 2.215 . S
Mn757 O783 2.116 . S
C758 O780 1.234 1_655 S
C758 O781 1.283 . S
C759 O771 1.281 . S
C759 O772 1.236 1_455 S
C760 O782 1.240 . S
C760 O783 1.265 1_455 S
O761 Mn756 2.095 1_655 S
O761 C770 1.250 . S
O762 Mn757 2.121 . S
O762 C770 1.258 . S
C763 N764 1.326 . S
C763 C767 1.460 . S
C763 H769 0.929 . S
N764 Mn757 2.257 . S
N764 C763 1.326 . S
N764 C768 1.362 . S
C765 C766 1.258 . S
C765 C768 1.431 . S
C765 C785 1.449 . S
C766 C765 1.258 . S
C766 C767 1.477 . S
C766 H786 0.931 . S
C767 C763 1.460 . S
C767 C766 1.477 . S
C767 H787 0.930 . S
C768 N764 1.362 . S
C768 C765 1.431 . S
C768 C778 1.476 . S
H769 C763 0.929 . S
C770 O761 1.250 . S
C770 O762 1.258 . S
O771 Mn756 2.162 . S
O771 C759 1.281 . S
O772 Mn756 2.297 1_655 S
O772 C759 1.236 1_655 S
N773 Mn757 2.282 . S
N773 C774 1.328 . S
N773 C778 1.318 . S
C774 N773 1.328 . S
C774 C775 1.457 . S
C774 H779 0.929 . S
C775 C774 1.457 . S
C775 C776 1.291 . S
C775 H788 0.931 . S
C776 C775 1.291 . S
C776 C777 1.373 . S
C776 H789 0.929 . S
C777 C776 1.373 . S
C777 C778 1.396 . S
C777 C784 1.403 . S
C778 C768 1.476 . S
C778 N773 1.318 . S
C778 C777 1.396 . S
H779 C774 0.929 . S
O780 Mn756 2.385 . S
O780 C758 1.234 1_455 S
O781 Mn756 2.209 1_655 S
O781 Mn757 2.215 . S
O781 C758 1.283 . S
O782 Mn756 2.094 . S
O782 C760 1.240 . S
O783 Mn757 2.116 . S
O783 C760 1.265 1_655 S
C784 C777 1.403 . S
C784 C785 1.399 . S
C784 H790 0.929 . S
C785 C765 1.449 . S
C785 C784 1.399 . S
C785 H791 0.930 . S
H786 C766 0.931 . S
H787 C767 0.930 . S
H788 C775 0.931 . S
H789 C776 0.929 . S
H790 C784 0.929 . S
H791 C785 0.930 . S
Mn792 O797 2.095 . S
Mn792 O807 2.162 . S
Mn792 O808 2.297 . S
Mn792 O816 2.385 . S
Mn792 O817 2.209 . S
Mn792 O818 2.094 . S
Mn793 O798 2.121 . S
Mn793 N800 2.257 . S
Mn793 N809 2.282 . S
Mn793 O817 2.215 . S
Mn793 O819 2.117 . S
C794 O816 1.234 . S
C794 O817 1.283 . S
C795 O807 1.281 . S
C795 O808 1.236 . S
C796 O818 1.240 . S
C796 O819 1.264 . S
O797 Mn792 2.095 . S
O797 C806 1.250 . S
O798 Mn793 2.121 . S
O798 C806 1.258 . S
C799 N800 1.326 . S
C799 C803 1.460 . S
C799 H805 0.929 . S
N800 Mn793 2.257 . S
N800 C799 1.326 . S
N800 C804 1.362 . S
C801 C802 1.258 . S
C801 C804 1.431 . S
C801 C821 1.449 . S
C802 C801 1.258 . S
C802 C803 1.477 . S
C802 H822 0.931 . S
C803 C799 1.460 . S
C803 C802 1.477 . S
C803 H823 0.930 . S
C804 N800 1.362 . S
C804 C801 1.431 . S
C804 C814 1.476 . S
H805 C799 0.929 . S
C806 O797 1.250 . S
C806 O798 1.258 . S
O807 Mn792 2.162 . S
O807 C795 1.281 . S
O808 Mn792 2.297 . S
O808 C795 1.236 . S
N809 Mn793 2.282 . S
N809 C810 1.328 . S
N809 C814 1.318 . S
C810 N809 1.328 . S
C810 C811 1.457 . S
C810 H815 0.929 . S
C811 C810 1.457 . S
C811 C812 1.291 . S
C811 H824 0.931 . S
C812 C811 1.291 . S
C812 C813 1.373 . S
C812 H825 0.929 . S
C813 C812 1.373 . S
C813 C814 1.396 . S
C813 C820 1.403 . S
C814 C804 1.476 . S
C814 N809 1.318 . S
C814 C813 1.396 . S
H815 C810 0.929 . S
O816 Mn792 2.385 . S
O816 C794 1.234 . S
O817 Mn792 2.209 . S
O817 Mn793 2.215 . S
O817 C794 1.283 . S
O818 Mn792 2.094 . S
O818 C796 1.240 . S
O819 Mn793 2.117 . S
O819 C796 1.264 . S
C820 C813 1.403 . S
C820 C821 1.399 . S
C820 H826 0.929 . S
C821 C801 1.449 . S
C821 C820 1.399 . S
C821 H827 0.930 . S
H822 C802 0.931 . S
H823 C803 0.930 . S
H824 C811 0.931 . S
H825 C812 0.929 . S
H826 C820 0.929 . S
H827 C821 0.930 . S
Mn828 O833 2.095 . S
Mn828 O843 2.162 . S
Mn828 O844 2.297 . S
Mn828 O852 2.385 . S
Mn828 O853 2.209 . S
Mn828 O854 2.094 . S
Mn829 O834 2.121 . S
Mn829 N836 2.257 . S
Mn829 N845 2.282 . S
Mn829 O853 2.215 . S
Mn829 O855 2.117 . S
C830 O852 1.234 . S
C830 O853 1.283 . S
C831 O843 1.281 . S
C831 O844 1.236 . S
C832 O854 1.240 . S
C832 O855 1.264 . S
O833 Mn828 2.095 . S
O833 C842 1.250 . S
O834 Mn829 2.121 . S
O834 C842 1.258 . S
C835 N836 1.326 . S
C835 C839 1.460 . S
C835 H841 0.929 . S
N836 Mn829 2.257 . S
N836 C835 1.326 . S
N836 C840 1.362 . S
C837 C838 1.258 . S
C837 C840 1.431 . S
C837 C857 1.449 . S
C838 C837 1.258 . S
C838 C839 1.477 . S
C838 H858 0.931 . S
C839 C835 1.460 . S
C839 C838 1.477 . S
C839 H859 0.930 . S
C840 N836 1.362 . S
C840 C837 1.431 . S
C840 C850 1.476 . S
H841 C835 0.929 . S
C842 O833 1.250 . S
C842 O834 1.258 . S
O843 Mn828 2.162 . S
O843 C831 1.281 . S
O844 Mn828 2.297 . S
O844 C831 1.236 . S
N845 Mn829 2.282 . S
N845 C846 1.328 . S
N845 C850 1.318 . S
C846 N845 1.328 . S
C846 C847 1.457 . S
C846 H851 0.929 . S
C847 C846 1.457 . S
C847 C848 1.291 . S
C847 H860 0.931 . S
C848 C847 1.291 . S
C848 C849 1.373 . S
C848 H861 0.929 . S
C849 C848 1.373 . S
C849 C850 1.396 . S
C849 C856 1.403 . S
C850 C840 1.476 . S
C850 N845 1.318 . S
C850 C849 1.396 . S
H851 C846 0.929 . S
O852 Mn828 2.385 . S
O852 C830 1.234 . S
O853 Mn828 2.209 . S
O853 Mn829 2.215 . S
O853 C830 1.283 . S
O854 Mn828 2.094 . S
O854 C832 1.240 . S
O855 Mn829 2.117 . S
O855 C832 1.264 . S
C856 C849 1.403 . S
C856 C857 1.399 . S
C856 H862 0.929 . S
C857 C837 1.449 . S
C857 C856 1.399 . S
C857 H863 0.930 . S
H858 C838 0.931 . S
H859 C839 0.930 . S
H860 C847 0.931 . S
H861 C848 0.929 . S
H862 C856 0.929 . S
H863 C857 0.930 . S
Tb864 C874 2.835 1_455 S
Tb864 O875 2.310 1_556 S
Tb864 O878 2.371 . S
Tb864 O883 2.452 . S
Tb864 O884 2.372 1_546 S
Tb864 O887 2.505 1_455 S
Tb864 O888 2.463 1_456 S
Eu865 O876 2.418 . S
Eu865 O877 2.384 . S
Eu865 O880 2.479 . S
Eu865 O881 2.471 . S
Eu865 O882 2.347 . S
Eu865 O885 2.366 . S
Eu865 C895 2.825 . S
C866 O882 1.259 1_556 S
C866 O883 1.265 . S
C867 O884 1.255 . S
C867 O885 1.265 1_565 S
C868 C870 1.380 . S
C868 C871 1.374 . S
C868 C874 1.507 . S
C869 C870 1.384 . S
C869 C873 1.387 . S
C869 H896 0.930 . S
C870 C868 1.380 . S
C870 C869 1.384 . S
C870 H897 0.931 . S
C871 C868 1.374 . S
C871 C872 1.390 . S
C871 H898 0.930 1_556 S
C872 C871 1.390 . S
C872 C873 1.391 . S
C872 H899 0.930 . S
C873 C869 1.387 . S
C873 C872 1.391 . S
C874 Tb864 2.835 1_655 S
C874 C868 1.507 . S
C874 O887 1.238 . S
C874 O888 1.247 1_556 S
O875 Tb864 2.310 1_554 S
O875 C879 1.259 . S
O876 Eu865 2.418 . S
O876 C879 1.265 . S
O877 Eu865 2.384 . S
O877 C886 1.255 . S
O878 Tb864 2.371 . S
O878 C886 1.265 1_556 S
C879 O875 1.259 . S
C879 O876 1.265 . S
O880 Eu865 2.479 . S
O880 C895 1.238 . S
O881 Eu865 2.471 . S
O881 C895 1.247 . S
O882 Eu865 2.347 . S
O882 C866 1.259 1_554 S
O883 Tb864 2.452 . S
O883 C866 1.265 . S
O884 Tb864 2.372 1_564 S
O884 C867 1.255 . S
O885 Eu865 2.366 . S
O885 C867 1.265 1_545 S
C886 O877 1.255 . S
C886 O878 1.265 1_554 S
O887 Tb864 2.505 1_655 S
O887 C874 1.238 . S
O888 Tb864 2.463 1_654 S
O888 C874 1.247 1_554 S
C889 C892 1.380 . S
C889 C893 1.374 . S
C889 C895 1.507 . S
C890 C891 1.387 . S
C890 C894 1.391 . S
C891 C890 1.387 . S
C891 C892 1.384 . S
C891 H900 0.930 . S
C892 C889 1.380 . S
C892 C891 1.384 . S
C892 H901 0.931 . S
C893 C889 1.374 . S
C893 C894 1.390 . S
C893 H902 0.930 . S
C894 C890 1.391 . S
C894 C893 1.390 . S
C894 H903 0.930 1_545 S
C895 Eu865 2.825 . S
C895 O880 1.238 . S
C895 O881 1.247 . S
C895 C889 1.507 . S
H896 C869 0.930 . S
H897 C870 0.931 . S
H898 C871 0.930 1_554 S
H899 C872 0.930 . S
H900 C891 0.930 . S
H901 C892 0.931 . S
H902 C893 0.930 . S
H903 C894 0.930 1_565 S
Tb904 C914 2.825 . S
Tb904 O915 2.347 . S
Tb904 O918 2.366 . S
Tb904 O923 2.418 . S
Tb904 O924 2.384 . S
Tb904 O927 2.479 . S
Tb904 O928 2.471 . S
Eu905 O916 2.418 . S
Eu905 O917 2.384 . S
Eu905 O920 2.479 . S
Eu905 O921 2.471 . S
Eu905 O922 2.347 . S
Eu905 O925 2.366 . S
Eu905 C935 2.825 . S
C906 O922 1.259 . S
C906 O923 1.265 . S
C907 O924 1.255 . S
C907 O925 1.265 . S
C908 C910 1.380 . S
C908 C911 1.374 . S
C908 C914 1.507 . S
C909 C910 1.384 . S
C909 C913 1.387 . S
C909 H936 0.930 . S
C910 C908 1.380 . S
C910 C909 1.384 . S
C910 H937 0.931 . S
C911 C908 1.374 . S
C911 C912 1.390 . S
C911 H938 0.930 . S
C912 C911 1.390 . S
C912 C913 1.391 . S
C912 H939 0.930 . S
C913 C909 1.387 . S
C913 C912 1.391 . S
C914 Tb904 2.825 . S
C914 C908 1.507 . S
C914 O927 1.238 . S
C914 O928 1.247 . S
O915 Tb904 2.347 . S
O915 C919 1.259 . S
O916 Eu905 2.418 . S
O916 C919 1.265 . S
O917 Eu905 2.384 . S
O917 C926 1.255 . S
O918 Tb904 2.366 . S
O918 C926 1.265 . S
C919 O915 1.259 . S
C919 O916 1.265 . S
O920 Eu905 2.479 . S
O920 C935 1.238 . S
O921 Eu905 2.471 . S
O921 C935 1.247 . S
O922 Eu905 2.347 . S
O922 C906 1.259 . S
O923 Tb904 2.418 . S
O923 C906 1.265 . S
O924 Tb904 2.384 . S
O924 C907 1.255 . S
O925 Eu905 2.366 . S
O925 C907 1.265 . S
C926 O917 1.255 . S
C926 O918 1.265 . S
O927 Tb904 2.479 . S
O927 C914 1.238 . S
O928 Tb904 2.471 . S
O928 C914 1.247 . S
C929 C932 1.380 . S
C929 C933 1.374 . S
C929 C935 1.507 . S
C930 C931 1.387 . S
C930 C934 1.391 . S
C931 C930 1.387 . S
C931 C932 1.384 . S
C931 H940 0.930 . S
C932 C929 1.380 . S
C932 C931 1.384 . S
C932 H941 0.931 . S
C933 C929 1.374 . S
C933 C934 1.390 . S
C933 H942 0.930 . S
C934 C930 1.391 . S
C934 C933 1.390 . S
C934 H943 0.930 . S
C935 Eu905 2.825 . S
C935 O920 1.238 . S
C935 O921 1.247 . S
C935 C929 1.507 . S
H936 C909 0.930 . S
H937 C910 0.931 . S
H938 C911 0.930 . S
H939 C912 0.930 . S
H940 C931 0.930 . S
H941 C932 0.931 . S
H942 C933 0.930 . S
H943 C934 0.930 . S
Tb944 C954 2.825 1_545 S
Tb944 O955 2.347 . S
Tb944 O958 2.366 . S
Tb944 O963 2.418 . S
Tb944 O964 2.384 . S
Tb944 O967 2.479 1_545 S
Tb944 O968 2.471 1_545 S
Eu945 O956 2.418 . S
Eu945 O957 2.384 . S
Eu945 O960 2.479 . S
Eu945 O961 2.471 . S
Eu945 O962 2.347 . S
Eu945 O965 2.366 . S
Eu945 C975 2.825 . S
C946 O962 1.259 . S
C946 O963 1.265 . S
C947 O964 1.255 . S
C947 O965 1.265 . S
C948 C950 1.380 . S
C948 C951 1.374 . S
C948 C954 1.507 . S
C949 C950 1.384 . S
C949 C953 1.387 . S
C949 H976 0.930 . S
C950 C948 1.380 . S
C950 C949 1.384 . S
C950 H977 0.931 . S
C951 C948 1.374 . S
C951 C952 1.390 . S
C951 H978 0.930 . S
C952 C951 1.390 . S
C952 C953 1.391 . S
C952 H979 0.930 . S
C953 C949 1.387 . S
C953 C952 1.391 . S
C954 Tb944 2.825 1_565 S
C954 C948 1.507 . S
C954 O967 1.238 . S
C954 O968 1.247 . S
O955 Tb944 2.347 . S
O955 C959 1.259 . S
O956 Eu945 2.418 . S
O956 C959 1.265 . S
O957 Eu945 2.384 . S
O957 C966 1.255 . S
O958 Tb944 2.366 . S
O958 C966 1.265 . S
C959 O955 1.259 . S
C959 O956 1.265 . S
O960 Eu945 2.479 . S
O960 C975 1.238 . S
O961 Eu945 2.471 . S
O961 C975 1.247 . S
O962 Eu945 2.347 . S
O962 C946 1.259 . S
O963 Tb944 2.418 . S
O963 C946 1.265 . S
O964 Tb944 2.384 . S
O964 C947 1.255 . S
O965 Eu945 2.366 . S
O965 C947 1.265 . S
C966 O957 1.255 . S
C966 O958 1.265 . S
O967 Tb944 2.479 1_565 S
O967 C954 1.238 . S
O968 Tb944 2.471 1_565 S
O968 C954 1.247 . S
C969 C972 1.380 . S
C969 C973 1.374 . S
C969 C975 1.507 . S
C970 C971 1.387 . S
C970 C974 1.391 . S
C971 C970 1.387 . S
C971 C972 1.384 . S
C971 H980 0.930 . S
C972 C969 1.380 . S
C972 C971 1.384 . S
C972 H981 0.931 . S
C973 C969 1.374 . S
C973 C974 1.390 . S
C973 H982 0.930 . S
C974 C970 1.391 . S
C974 C973 1.390 . S
C974 H983 0.930 . S
C975 Eu945 2.825 . S
C975 O960 1.238 . S
C975 O961 1.247 . S
C975 C969 1.507 . S
H976 C949 0.930 . S
H977 C950 0.931 . S
H978 C951 0.930 . S
H979 C952 0.930 . S
H980 C971 0.930 . S
H981 C972 0.931 . S
H982 C973 0.930 . S
H983 C974 0.930 . S
Tb984 C994 2.825 . S
Tb984 O995 2.347 . S
Tb984 O998 2.366 . S
Tb984 O1003 2.418 . S
Tb984 O1004 2.384 . S
Tb984 O1007 2.479 . S
Tb984 O1008 2.471 . S
Eu985 O996 2.418 . S
Eu985 O997 2.384 . S
Eu985 O1000 2.479 . S
Eu985 O1001 2.471 . S
Eu985 O1002 2.347 . S
Eu985 O1005 2.366 . S
Eu985 C1015 2.825 . S
C986 O1002 1.259 . S
C986 O1003 1.265 . S
C987 O1004 1.255 . S
C987 O1005 1.265 . S
C988 C990 1.380 . S
C988 C991 1.374 . S
C988 C994 1.507 . S
C989 C990 1.384 . S
C989 C993 1.387 . S
C989 H1016 0.930 . S
C990 C988 1.380 . S
C990 C989 1.384 . S
C990 H1017 0.931 . S
C991 C988 1.374 . S
C991 C992 1.390 . S
C991 H1018 0.930 . S
C992 C991 1.390 . S
C992 C993 1.391 . S
C992 H1019 0.930 . S
C993 C989 1.387 . S
C993 C992 1.391 . S
C994 Tb984 2.825 . S
C994 C988 1.507 . S
C994 O1007 1.238 . S
C994 O1008 1.247 . S
O995 Tb984 2.347 . S
O995 C999 1.259 . S
O996 Eu985 2.418 . S
O996 C999 1.265 . S
O997 Eu985 2.384 . S
O997 C1006 1.255 . S
O998 Tb984 2.366 . S
O998 C1006 1.265 . S
C999 O995 1.259 . S
C999 O996 1.265 . S
O1000 Eu985 2.479 . S
O1000 C1015 1.238 . S
O1001 Eu985 2.471 . S
O1001 C1015 1.247 . S
O1002 Eu985 2.347 . S
O1002 C986 1.259 . S
O1003 Tb984 2.418 . S
O1003 C986 1.265 . S
O1004 Tb984 2.384 . S
O1004 C987 1.255 . S
O1005 Eu985 2.366 . S
O1005 C987 1.265 . S
C1006 O997 1.255 . S
C1006 O998 1.265 . S
O1007 Tb984 2.479 . S
O1007 C994 1.238 . S
O1008 Tb984 2.471 . S
O1008 C994 1.247 . S
C1009 C1012 1.380 . S
C1009 C1013 1.374 . S
C1009 C1015 1.507 . S
C1010 C1011 1.387 . S
C1010 C1014 1.391 . S
C1011 C1010 1.387 . S
C1011 C1012 1.384 . S
C1011 H1020 0.930 . S
C1012 C1009 1.380 . S
C1012 C1011 1.384 . S
C1012 H1021 0.931 . S
C1013 C1009 1.374 . S
C1013 C1014 1.390 . S
C1013 H1022 0.930 . S
C1014 C1010 1.391 . S
C1014 C1013 1.390 . S
C1014 H1023 0.930 . S
C1015 Eu985 2.825 . S
C1015 O1000 1.238 . S
C1015 O1001 1.247 . S
C1015 C1009 1.507 . S
H1016 C989 0.930 . S
H1017 C990 0.931 . S
H1018 C991 0.930 . S
H1019 C992 0.930 . S
H1020 C1011 0.930 . S
H1021 C1012 0.931 . S
H1022 C1013 0.930 . S
H1023 C1014 0.930 . S
Tb1024 C1034 2.825 . S
Tb1024 O1035 2.347 . S
Tb1024 O1038 2.366 . S
Tb1024 O1043 2.418 . S
Tb1024 O1044 2.384 . S
Tb1024 O1047 2.479 . S
Tb1024 O1048 2.471 . S
Eu1025 O1036 2.452 . S
Eu1025 O1037 2.384 . S
Eu1025 O1040 2.479 . S
Eu1025 O1041 2.471 . S
Eu1025 O1042 2.347 . S
Eu1025 O1045 2.366 . S
Eu1025 C1055 2.825 . S
C1026 O1042 1.259 . S
C1026 O1043 1.265 . S
C1027 O1044 1.255 . S
C1027 O1045 1.265 . S
C1028 C1030 1.380 . S
C1028 C1031 1.374 1_455 S
C1028 C1034 1.507 . S
C1029 C1030 1.384 . S
C1029 C1033 1.387 1_455 S
C1029 H1056 0.930 . S
C1030 C1028 1.380 . S
C1030 C1029 1.384 . S
C1030 H1057 0.931 . S
C1031 C1028 1.374 1_655 S
C1031 C1032 1.390 . S
C1031 H1058 0.930 . S
C1032 C1031 1.390 . S
C1032 C1033 1.391 . S
C1032 H1059 0.930 . S
C1033 C1029 1.387 1_655 S
C1033 C1032 1.391 . S
C1034 Tb1024 2.825 . S
C1034 C1028 1.507 . S
C1034 O1047 1.238 . S
C1034 O1048 1.247 . S
O1035 Tb1024 2.347 . S
O1035 C1039 1.259 1_455 S
O1036 Eu1025 2.452 . S
O1036 C1039 1.266 1_455 S
O1037 Eu1025 2.384 . S
O1037 C1046 1.255 . S
O1038 Tb1024 2.366 . S
O1038 C1046 1.265 . S
C1039 O1035 1.259 1_655 S
C1039 O1036 1.266 1_655 S
O1040 Eu1025 2.479 . S
O1040 C1055 1.238 . S
O1041 Eu1025 2.471 . S
O1041 C1055 1.247 . S
O1042 Eu1025 2.347 . S
O1042 C1026 1.259 . S
O1043 Tb1024 2.418 . S
O1043 C1026 1.265 . S
O1044 Tb1024 2.384 . S
O1044 C1027 1.255 . S
O1045 Eu1025 2.366 . S
O1045 C1027 1.265 . S
C1046 O1037 1.255 . S
C1046 O1038 1.265 . S
O1047 Tb1024 2.479 . S
O1047 C1034 1.238 . S
O1048 Tb1024 2.471 . S
O1048 C1034 1.247 . S
C1049 C1052 1.380 . S
C1049 C1053 1.374 . S
C1049 C1055 1.507 . S
C1050 C1051 1.387 . S
C1050 C1054 1.391 . S
C1051 C1050 1.387 . S
C1051 C1052 1.384 . S
C1051 H1060 0.930 . S
C1052 C1049 1.380 . S
C1052 C1051 1.384 . S
C1052 H1061 0.931 . S
C1053 C1049 1.374 . S
C1053 C1054 1.390 . S
C1053 H1062 0.930 . S
C1054 C1050 1.391 . S
C1054 C1053 1.390 . S
C1054 H1063 0.930 . S
C1055 Eu1025 2.825 . S
C1055 O1040 1.238 . S
C1055 O1041 1.247 . S
C1055 C1049 1.507 . S
H1056 C1029 0.930 . S
H1057 C1030 0.931 . S
H1058 C1031 0.930 . S
H1059 C1032 0.930 . S
H1060 C1051 0.930 . S
H1061 C1052 0.931 . S
H1062 C1053 0.930 . S
H1063 C1054 0.930 . S
Tb1064 C1074 2.825 . S
Tb1064 O1075 2.347 . S
Tb1064 O1078 2.366 . S
Tb1064 O1083 2.418 . S
Tb1064 O1084 2.384 . S
Tb1064 O1087 2.479 . S
Tb1064 O1088 2.471 . S
Eu1065 O1076 2.418 . S
Eu1065 O1077 2.384 . S
Eu1065 O1080 2.479 . S
Eu1065 O1081 2.471 . S
Eu1065 O1082 2.347 . S
Eu1065 O1085 2.366 . S
Eu1065 C1095 2.825 . S
C1066 O1082 1.259 . S
C1066 O1083 1.265 . S
C1067 O1084 1.255 . S
C1067 O1085 1.265 . S
C1068 C1070 1.380 . S
C1068 C1071 1.374 . S
C1068 C1074 1.507 . S
C1069 C1070 1.384 . S
C1069 C1073 1.387 . S
C1069 H1096 0.930 . S
C1070 C1068 1.380 . S
C1070 C1069 1.384 . S
C1070 H1097 0.931 . S
C1071 C1068 1.374 . S
C1071 C1072 1.390 . S
C1071 H1098 0.930 . S
C1072 C1071 1.390 . S
C1072 C1073 1.391 . S
C1072 H1099 0.930 . S
C1073 C1069 1.387 . S
C1073 C1072 1.391 . S
C1074 Tb1064 2.825 . S
C1074 C1068 1.507 . S
C1074 O1087 1.238 . S
C1074 O1088 1.247 . S
O1075 Tb1064 2.347 . S
O1075 C1079 1.259 . S
O1076 Eu1065 2.418 . S
O1076 C1079 1.265 . S
O1077 Eu1065 2.384 . S
O1077 C1086 1.255 . S
O1078 Tb1064 2.366 . S
O1078 C1086 1.265 . S
C1079 O1075 1.259 . S
C1079 O1076 1.265 . S
O1080 Eu1065 2.479 . S
O1080 C1095 1.238 . S
O1081 Eu1065 2.471 . S
O1081 C1095 1.247 . S
O1082 Eu1065 2.347 . S
O1082 C1066 1.259 . S
O1083 Tb1064 2.418 . S
O1083 C1066 1.265 . S
O1084 Tb1064 2.384 . S
O1084 C1067 1.255 . S
O1085 Eu1065 2.366 . S
O1085 C1067 1.265 . S
C1086 O1077 1.255 . S
C1086 O1078 1.265 . S
O1087 Tb1064 2.479 . S
O1087 C1074 1.238 . S
O1088 Tb1064 2.471 . S
O1088 C1074 1.247 . S
C1089 C1092 1.380 . S
C1089 C1093 1.374 . S
C1089 C1095 1.507 . S
C1090 C1091 1.387 . S
C1090 C1094 1.391 . S
C1091 C1090 1.387 . S
C1091 C1092 1.384 . S
C1091 H1100 0.930 . S
C1092 C1089 1.380 . S
C1092 C1091 1.384 . S
C1092 H1101 0.931 . S
C1093 C1089 1.374 . S
C1093 C1094 1.390 . S
C1093 H1102 0.930 . S
C1094 C1090 1.391 . S
C1094 C1093 1.390 . S
C1094 H1103 0.930 . S
C1095 Eu1065 2.825 . S
C1095 O1080 1.238 . S
C1095 O1081 1.247 . S
C1095 C1089 1.507 . S
H1096 C1069 0.930 . S
H1097 C1070 0.931 . S
H1098 C1071 0.930 . S
H1099 C1072 0.930 . S
H1100 C1091 0.930 . S
H1101 C1092 0.931 . S
H1102 C1093 0.930 . S
H1103 C1094 0.930 . S
Tb1104 C1114 2.825 . S
Tb1104 O1115 2.347 . S
Tb1104 O1118 2.366 . S
Tb1104 O1123 2.418 . S
Tb1104 O1124 2.384 . S
Tb1104 O1127 2.479 . S
Tb1104 O1128 2.471 . S
Eu1105 O1116 2.418 1_556 S
Eu1105 O1117 2.384 1_556 S
Eu1105 O1120 2.479 . S
Eu1105 O1121 2.471 . S
Eu1105 O1122 2.347 1_556 S
Eu1105 O1125 2.366 . S
Eu1105 C1135 2.825 . S
C1106 O1122 1.259 . S
C1106 O1123 1.265 . S
C1107 O1124 1.255 . S
C1107 O1125 1.265 1_554 S
C1108 C1110 1.380 . S
C1108 C1111 1.374 . S
C1108 C1114 1.507 . S
C1109 C1110 1.384 . S
C1109 C1113 1.387 . S
C1109 H1136 0.930 1_545 S
C1110 C1108 1.380 . S
C1110 C1109 1.384 . S
C1110 H1137 0.931 . S
C1111 C1108 1.374 . S
C1111 C1112 1.390 . S
C1111 H1138 0.930 . S
C1112 C1111 1.390 . S
C1112 C1113 1.391 . S
C1112 H1139 0.930 . S
C1113 C1109 1.387 . S
C1113 C1112 1.391 . S
C1114 Tb1104 2.825 . S
C1114 C1108 1.507 . S
C1114 O1127 1.238 . S
C1114 O1128 1.247 . S
O1115 Tb1104 2.347 . S
O1115 C1119 1.259 . S
O1116 Eu1105 2.418 1_554 S
O1116 C1119 1.265 . S
O1117 Eu1105 2.384 1_554 S
O1117 C1126 1.255 . S
O1118 Tb1104 2.366 . S
O1118 C1126 1.265 . S
C1119 O1115 1.259 . S
C1119 O1116 1.265 . S
O1120 Eu1105 2.479 . S
O1120 C1135 1.238 . S
O1121 Eu1105 2.471 . S
O1121 C1135 1.247 . S
O1122 Eu1105 2.347 1_554 S
O1122 C1106 1.259 . S
O1123 Tb1104 2.418 . S
O1123 C1106 1.265 . S
O1124 Tb1104 2.384 . S
O1124 C1107 1.255 . S
O1125 Eu1105 2.366 . S
O1125 C1107 1.265 1_556 S
C1126 O1117 1.255 . S
C1126 O1118 1.265 . S
O1127 Tb1104 2.479 . S
O1127 C1114 1.238 . S
O1128 Tb1104 2.471 . S
O1128 C1114 1.247 . S
C1129 C1132 1.380 . S
C1129 C1133 1.374 . S
C1129 C1135 1.507 . S
C1130 C1131 1.387 . S
C1130 C1134 1.391 . S
C1131 C1130 1.387 . S
C1131 C1132 1.384 . S
C1131 H1140 0.930 . S
C1132 C1129 1.380 . S
C1132 C1131 1.384 . S
C1132 H1141 0.931 . S
C1133 C1129 1.374 . S
C1133 C1134 1.390 . S
C1133 H1142 0.930 . S
C1134 C1130 1.391 . S
C1134 C1133 1.390 . S
C1134 H1143 0.930 . S
C1135 Eu1105 2.825 . S
C1135 O1120 1.238 . S
C1135 O1121 1.247 . S
C1135 C1129 1.507 . S
H1136 C1109 0.930 1_565 S
H1137 C1110 0.931 . S
H1138 C1111 0.930 . S
H1139 C1112 0.930 . S
H1140 C1131 0.930 . S
H1141 C1132 0.931 . S
H1142 C1133 0.930 . S
H1143 C1134 0.930 . S
Tb1144 C1154 2.825 . S
Tb1144 O1155 2.347 . S
Tb1144 O1158 2.366 . S
Tb1144 O1163 2.418 . S
Tb1144 O1164 2.384 . S
Tb1144 O1167 2.479 . S
Tb1144 O1168 2.471 . S
Eu1145 O1156 2.418 . S
Eu1145 O1157 2.384 . S
Eu1145 O1160 2.479 . S
Eu1145 O1161 2.471 . S
Eu1145 O1162 2.347 . S
Eu1145 O1165 2.366 . S
Eu1145 C1175 2.825 . S
C1146 O1162 1.259 . S
C1146 O1163 1.265 . S
C1147 O1164 1.255 . S
C1147 O1165 1.265 . S
C1148 C1150 1.380 . S
C1148 C1151 1.374 . S
C1148 C1154 1.507 . S
C1149 C1150 1.384 . S
C1149 C1153 1.387 . S
C1149 H1176 0.930 . S
C1150 C1148 1.380 . S
C1150 C1149 1.384 . S
C1150 H1177 0.931 . S
C1151 C1148 1.374 . S
C1151 C1152 1.390 . S
C1151 H1178 0.930 . S
C1152 C1151 1.390 . S
C1152 C1153 1.391 . S
C1152 H1179 0.930 . S
C1153 C1149 1.387 . S
C1153 C1152 1.391 . S
C1154 Tb1144 2.825 . S
C1154 C1148 1.507 . S
C1154 O1167 1.238 . S
C1154 O1168 1.247 . S
O1155 Tb1144 2.347 . S
O1155 C1159 1.259 . S
O1156 Eu1145 2.418 . S
O1156 C1159 1.265 . S
O1157 Eu1145 2.384 . S
O1157 C1166 1.255 . S
O1158 Tb1144 2.366 . S
O1158 C1166 1.265 . S
C1159 O1155 1.259 . S
C1159 O1156 1.265 . S
O1160 Eu1145 2.479 . S
O1160 C1175 1.238 . S
O1161 Eu1145 2.471 . S
O1161 C1175 1.247 . S
O1162 Eu1145 2.347 . S
O1162 C1146 1.259 . S
O1163 Tb1144 2.418 . S
O1163 C1146 1.265 . S
O1164 Tb1144 2.384 . S
O1164 C1147 1.255 . S
O1165 Eu1145 2.366 . S
O1165 C1147 1.265 . S
C1166 O1157 1.255 . S
C1166 O1158 1.265 . S
O1167 Tb1144 2.479 . S
O1167 C1154 1.238 . S
O1168 Tb1144 2.471 . S
O1168 C1154 1.247 . S
C1169 C1172 1.380 . S
C1169 C1173 1.374 . S
C1169 C1175 1.507 . S
C1170 C1171 1.387 . S
C1170 C1174 1.391 . S
C1171 C1170 1.387 . S
C1171 C1172 1.384 . S
C1171 H1180 0.930 . S
C1172 C1169 1.380 . S
C1172 C1171 1.384 . S
C1172 H1181 0.931 . S
C1173 C1169 1.374 . S
C1173 C1174 1.390 . S
C1173 H1182 0.930 . S
C1174 C1170 1.391 . S
C1174 C1173 1.390 . S
C1174 H1183 0.930 . S
C1175 Eu1145 2.825 . S
C1175 O1160 1.238 . S
C1175 O1161 1.247 . S
C1175 C1169 1.507 . S
H1176 C1149 0.930 . S
H1177 C1150 0.931 . S
H1178 C1151 0.930 . S
H1179 C1152 0.930 . S
H1180 C1171 0.930 . S
H1181 C1172 0.931 . S
H1182 C1173 0.930 . S
H1183 C1174 0.930 . S
Tb1184 C1194 2.825 . S
Tb1184 O1195 2.347 1_556 S
Tb1184 O1198 2.366 . S
Tb1184 O1203 2.418 . S
Tb1184 O1204 2.384 1_556 S
Tb1184 O1207 2.479 . S
Tb1184 O1208 2.471 . S
Eu1185 O1196 2.418 . S
Eu1185 O1197 2.384 . S
Eu1185 O1200 2.479 . S
Eu1185 O1201 2.471 . S
Eu1185 O1202 2.347 . S
Eu1185 O1205 2.366 . S
Eu1185 C1215 2.825 . S
C1186 O1202 1.259 . S
C1186 O1203 1.265 1_554 S
C1187 O1204 1.255 . S
C1187 O1205 1.265 . S
C1188 C1190 1.380 . S
C1188 C1191 1.374 . S
C1188 C1194 1.507 . S
C1189 C1190 1.384 . S
C1189 C1193 1.387 . S
C1189 H1216 0.930 . S
C1190 C1188 1.380 . S
C1190 C1189 1.384 . S
C1190 H1217 0.931 . S
C1191 C1188 1.374 . S
C1191 C1192 1.390 . S
C1191 H1218 0.930 . S
C1192 C1191 1.390 . S
C1192 C1193 1.391 . S
C1192 H1219 0.930 . S
C1193 C1189 1.387 . S
C1193 C1192 1.391 . S
C1194 Tb1184 2.825 . S
C1194 C1188 1.507 . S
C1194 O1207 1.238 . S
C1194 O1208 1.247 . S
O1195 Tb1184 2.347 1_554 S
O1195 C1199 1.259 . S
O1196 Eu1185 2.418 . S
O1196 C1199 1.265 . S
O1197 Eu1185 2.384 . S
O1197 C1206 1.215 1_554 S
O1198 Tb1184 2.366 . S
O1198 C1206 1.286 . S
C1199 O1195 1.259 . S
C1199 O1196 1.265 . S
O1200 Eu1185 2.479 . S
O1200 C1215 1.238 . S
O1201 Eu1185 2.471 . S
O1201 C1215 1.247 . S
O1202 Eu1185 2.347 . S
O1202 C1186 1.259 . S
O1203 Tb1184 2.418 . S
O1203 C1186 1.265 1_556 S
O1204 Tb1184 2.384 1_554 S
O1204 C1187 1.255 . S
O1205 Eu1185 2.366 . S
O1205 C1187 1.265 . S
C1206 O1197 1.215 1_556 S
C1206 O1198 1.286 . S
O1207 Tb1184 2.479 . S
O1207 C1194 1.238 . S
O1208 Tb1184 2.471 . S
O1208 C1194 1.247 . S
C1209 C1212 1.380 . S
C1209 C1213 1.374 . S
C1209 C1215 1.507 . S
C1210 C1211 1.387 . S
C1210 C1214 1.391 . S
C1211 C1210 1.387 . S
C1211 C1212 1.384 . S
C1211 H1220 0.930 . S
C1212 C1209 1.380 . S
C1212 C1211 1.384 . S
C1212 H1221 0.931 . S
C1213 C1209 1.374 . S
C1213 C1214 1.390 . S
C1213 H1222 0.930 . S
C1214 C1210 1.391 . S
C1214 C1213 1.390 . S
C1214 H1223 0.930 . S
C1215 Eu1185 2.825 . S
C1215 O1200 1.238 . S
C1215 O1201 1.247 . S
C1215 C1209 1.507 . S
H1216 C1189 0.930 . S
H1217 C1190 0.931 . S
H1218 C1191 0.930 . S
H1219 C1192 0.930 . S
H1220 C1211 0.930 . S
H1221 C1212 0.931 . S
H1222 C1213 0.930 . S
H1223 C1214 0.930 . S
Tb1224 C1234 2.825 . S
Tb1224 O1235 2.347 . S
Tb1224 O1238 2.366 . S
Tb1224 O1243 2.418 . S
Tb1224 O1244 2.384 . S
Tb1224 O1247 2.479 . S
Tb1224 O1248 2.471 . S
Eu1225 O1236 2.418 . S
Eu1225 O1237 2.384 . S
Eu1225 O1240 2.479 . S
Eu1225 O1241 2.471 . S
Eu1225 O1242 2.347 . S
Eu1225 O1245 2.366 . S
Eu1225 C1255 2.825 . S
C1226 O1242 1.259 . S
C1226 O1243 1.265 . S
C1227 O1244 1.255 . S
C1227 O1245 1.265 . S
C1228 C1230 1.380 . S
C1228 C1231 1.374 . S
C1228 C1234 1.507 . S
C1229 C1230 1.384 . S
C1229 C1233 1.387 . S
C1229 H1256 0.930 . S
C1230 C1228 1.380 . S
C1230 C1229 1.384 . S
C1230 H1257 0.931 . S
C1231 C1228 1.374 . S
C1231 C1232 1.390 . S
C1231 H1258 0.930 . S
C1232 C1231 1.390 . S
C1232 C1233 1.391 . S
C1232 H1259 0.930 . S
C1233 C1229 1.387 . S
C1233 C1232 1.391 . S
C1234 Tb1224 2.825 . S
C1234 C1228 1.507 . S
C1234 O1247 1.238 . S
C1234 O1248 1.247 . S
O1235 Tb1224 2.347 . S
O1235 C1239 1.259 . S
O1236 Eu1225 2.418 . S
O1236 C1239 1.265 . S
O1237 Eu1225 2.384 . S
O1237 C1246 1.255 . S
O1238 Tb1224 2.366 . S
O1238 C1246 1.265 . S
C1239 O1235 1.259 . S
C1239 O1236 1.265 . S
O1240 Eu1225 2.479 . S
O1240 C1255 1.238 . S
O1241 Eu1225 2.471 . S
O1241 C1255 1.247 . S
O1242 Eu1225 2.347 . S
O1242 C1226 1.259 . S
O1243 Tb1224 2.418 . S
O1243 C1226 1.265 . S
O1244 Tb1224 2.384 . S
O1244 C1227 1.255 . S
O1245 Eu1225 2.366 . S
O1245 C1227 1.265 . S
C1246 O1237 1.255 . S
C1246 O1238 1.265 . S
O1247 Tb1224 2.479 . S
O1247 C1234 1.238 . S
O1248 Tb1224 2.471 . S
O1248 C1234 1.247 . S
C1249 C1252 1.380 . S
C1249 C1253 1.374 . S
C1249 C1255 1.507 . S
C1250 C1251 1.387 . S
C1250 C1254 1.391 . S
C1251 C1250 1.387 . S
C1251 C1252 1.384 . S
C1251 H1260 0.930 . S
C1252 C1249 1.380 . S
C1252 C1251 1.384 . S
C1252 H1261 0.931 . S
C1253 C1249 1.374 . S
C1253 C1254 1.390 . S
C1253 H1262 0.930 . S
C1254 C1250 1.391 . S
C1254 C1253 1.390 . S
C1254 H1263 0.930 . S
C1255 Eu1225 2.825 . S
C1255 O1240 1.238 . S
C1255 O1241 1.247 . S
C1255 C1249 1.507 . S
H1256 C1229 0.930 . S
H1257 C1230 0.931 . S
H1258 C1231 0.930 . S
H1259 C1232 0.930 . S
H1260 C1251 0.930 . S
H1261 C1252 0.931 . S
H1262 C1253 0.930 . S
H1263 C1254 0.930 . S
Tb1264 C1274 2.825 . S
Tb1264 O1275 2.347 . S
Tb1264 O1278 2.366 . S
Tb1264 O1283 2.418 . S
Tb1264 O1284 2.384 . S
Tb1264 O1287 2.479 . S
Tb1264 O1288 2.471 . S
Eu1265 O1276 2.418 . S
Eu1265 O1277 2.384 1_455 S
Eu1265 O1280 2.479 . S
Eu1265 O1281 2.471 . S
Eu1265 O1282 2.347 . S
Eu1265 O1285 2.366 . S
Eu1265 C1295 2.825 . S
C1266 O1282 1.259 . S
C1266 O1283 1.265 . S
C1267 O1284 1.255 . S
C1267 O1285 1.265 . S
C1268 C1270 1.380 . S
C1268 C1271 1.374 . S
C1268 C1274 1.507 . S
C1269 C1270 1.384 . S
C1269 C1273 1.387 . S
C1269 H1296 0.930 . S
C1270 C1268 1.380 . S
C1270 C1269 1.384 . S
C1270 H1297 0.931 . S
C1271 C1268 1.374 . S
C1271 C1272 1.390 . S
C1271 H1298 0.930 . S
C1272 C1271 1.390 . S
C1272 C1273 1.391 . S
C1272 H1299 0.930 . S
C1273 C1269 1.387 . S
C1273 C1272 1.391 . S
C1274 Tb1264 2.825 . S
C1274 C1268 1.507 . S
C1274 O1287 1.238 . S
C1274 O1288 1.247 . S
O1275 Tb1264 2.347 . S
O1275 C1279 1.259 . S
O1276 Eu1265 2.418 . S
O1276 C1279 1.265 . S
O1277 Eu1265 2.384 1_655 S
O1277 C1286 1.255 . S
O1278 Tb1264 2.366 . S
O1278 C1286 1.266 1_455 S
C1279 O1275 1.259 . S
C1279 O1276 1.265 . S
O1280 Eu1265 2.479 . S
O1280 C1295 1.238 . S
O1281 Eu1265 2.471 . S
O1281 C1295 1.247 . S
O1282 Eu1265 2.347 . S
O1282 C1266 1.259 . S
O1283 Tb1264 2.418 . S
O1283 C1266 1.265 . S
O1284 Tb1264 2.384 . S
O1284 C1267 1.255 . S
O1285 Eu1265 2.366 . S
O1285 C1267 1.265 . S
C1286 O1277 1.255 . S
C1286 O1278 1.266 1_655 S
O1287 Tb1264 2.479 . S
O1287 C1274 1.238 . S
O1288 Tb1264 2.471 . S
O1288 C1274 1.247 . S
C1289 C1292 1.380 . S
C1289 C1293 1.374 . S
C1289 C1295 1.507 . S
C1290 C1291 1.387 . S
C1290 C1294 1.391 . S
C1291 C1290 1.387 . S
C1291 C1292 1.384 . S
C1291 H1300 0.930 . S
C1292 C1289 1.380 . S
C1292 C1291 1.384 . S
C1292 H1301 0.931 . S
C1293 C1289 1.374 . S
C1293 C1294 1.390 . S
C1293 H1302 0.930 . S
C1294 C1290 1.391 . S
C1294 C1293 1.390 . S
C1294 H1303 0.930 . S
C1295 Eu1265 2.825 . S
C1295 O1280 1.238 . S
C1295 O1281 1.247 . S
C1295 C1289 1.507 . S
H1296 C1269 0.930 . S
H1297 C1270 0.931 . S
H1298 C1271 0.930 . S
H1299 C1272 0.930 . S
H1300 C1291 0.930 . S
H1301 C1292 0.931 . S
H1302 C1293 0.930 . S
H1303 C1294 0.930 . S
Tb1304 C1314 2.825 . S
Tb1304 O1315 2.347 . S
Tb1304 O1318 2.366 . S
Tb1304 O1323 2.418 . S
Tb1304 O1324 2.384 . S
Tb1304 O1327 2.479 . S
Tb1304 O1328 2.471 . S
Eu1305 O1316 2.418 . S
Eu1305 O1317 2.384 . S
Eu1305 O1320 2.479 . S
Eu1305 O1321 2.471 . S
Eu1305 O1322 2.347 . S
Eu1305 O1325 2.366 . S
Eu1305 C1335 2.825 . S
C1306 O1322 1.259 . S
C1306 O1323 1.265 . S
C1307 O1324 1.255 . S
C1307 O1325 1.265 . S
C1308 C1310 1.380 . S
C1308 C1311 1.374 . S
C1308 C1314 1.507 . S
C1309 C1310 1.384 . S
C1309 C1313 1.387 . S
C1309 H1336 0.930 . S
C1310 C1308 1.380 . S
C1310 C1309 1.384 . S
C1310 H1337 0.931 . S
C1311 C1308 1.374 . S
C1311 C1312 1.390 . S
C1311 H1338 0.930 . S
C1312 C1311 1.390 . S
C1312 C1313 1.391 . S
C1312 H1339 0.930 . S
C1313 C1309 1.387 . S
C1313 C1312 1.391 . S
C1314 Tb1304 2.825 . S
C1314 C1308 1.507 . S
C1314 O1327 1.238 . S
C1314 O1328 1.247 . S
O1315 Tb1304 2.347 . S
O1315 C1319 1.259 . S
O1316 Eu1305 2.418 . S
O1316 C1319 1.265 . S
O1317 Eu1305 2.384 . S
O1317 C1326 1.255 . S
O1318 Tb1304 2.366 . S
O1318 C1326 1.265 . S
C1319 O1315 1.259 . S
C1319 O1316 1.265 . S
O1320 Eu1305 2.479 . S
O1320 C1335 1.238 . S
O1321 Eu1305 2.471 . S
O1321 C1335 1.247 . S
O1322 Eu1305 2.347 . S
O1322 C1306 1.259 . S
O1323 Tb1304 2.418 . S
O1323 C1306 1.265 . S
O1324 Tb1304 2.384 . S
O1324 C1307 1.255 . S
O1325 Eu1305 2.366 . S
O1325 C1307 1.265 . S
C1326 O1317 1.255 . S
C1326 O1318 1.265 . S
O1327 Tb1304 2.479 . S
O1327 C1314 1.238 . S
O1328 Tb1304 2.471 . S
O1328 C1314 1.247 . S
C1329 C1332 1.380 . S
C1329 C1333 1.374 . S
C1329 C1335 1.507 . S
C1330 C1331 1.387 . S
C1330 C1334 1.391 . S
C1331 C1330 1.387 . S
C1331 C1332 1.384 . S
C1331 H1340 0.930 . S
C1332 C1329 1.380 . S
C1332 C1331 1.384 . S
C1332 H1341 0.931 . S
C1333 C1329 1.374 . S
C1333 C1334 1.390 . S
C1333 H1342 0.930 . S
C1334 C1330 1.391 . S
C1334 C1333 1.390 . S
C1334 H1343 0.930 . S
C1335 Eu1305 2.825 . S
C1335 O1320 1.238 . S
C1335 O1321 1.247 . S
C1335 C1329 1.507 . S
H1336 C1309 0.930 . S
H1337 C1310 0.931 . S
H1338 C1311 0.930 . S
H1339 C1312 0.930 . S
H1340 C1331 0.930 . S
H1341 C1332 0.931 . S
H1342 C1333 0.930 . S
H1343 C1334 0.930 . S
Tb1344 C1354 2.825 . S
Tb1344 O1355 2.347 . S
Tb1344 O1358 2.366 . S
Tb1344 O1363 2.418 . S
Tb1344 O1364 2.384 . S
Tb1344 O1367 2.479 . S
Tb1344 O1368 2.471 . S
Eu1345 O1356 2.418 . S
Eu1345 O1357 2.384 . S
Eu1345 O1360 2.479 . S
Eu1345 O1361 2.471 . S
Eu1345 O1362 2.347 . S
Eu1345 O1365 2.366 . S
Eu1345 C1375 2.825 . S
C1346 O1362 1.259 . S
C1346 O1363 1.265 . S
C1347 O1364 1.255 . S
C1347 O1365 1.265 . S
C1348 C1350 1.380 . S
C1348 C1351 1.374 . S
C1348 C1354 1.507 . S
C1349 C1350 1.384 . S
C1349 C1353 1.387 . S
C1349 H1376 0.930 . S
C1350 C1348 1.380 . S
C1350 C1349 1.384 . S
C1350 H1377 0.931 . S
C1351 C1348 1.374 . S
C1351 C1352 1.390 . S
C1351 H1378 0.930 . S
C1352 C1351 1.390 . S
C1352 C1353 1.391 . S
C1352 H1379 0.930 . S
C1353 C1349 1.387 . S
C1353 C1352 1.391 . S
C1354 Tb1344 2.825 . S
C1354 C1348 1.507 . S
C1354 O1367 1.238 . S
C1354 O1368 1.247 . S
O1355 Tb1344 2.347 . S
O1355 C1359 1.259 . S
O1356 Eu1345 2.418 . S
O1356 C1359 1.265 . S
O1357 Eu1345 2.384 . S
O1357 C1366 1.255 . S
O1358 Tb1344 2.366 . S
O1358 C1366 1.265 . S
C1359 O1355 1.259 . S
C1359 O1356 1.265 . S
O1360 Eu1345 2.479 . S
O1360 C1375 1.238 . S
O1361 Eu1345 2.471 . S
O1361 C1375 1.247 . S
O1362 Eu1345 2.347 . S
O1362 C1346 1.259 . S
O1363 Tb1344 2.418 . S
O1363 C1346 1.265 . S
O1364 Tb1344 2.384 . S
O1364 C1347 1.255 . S
O1365 Eu1345 2.366 . S
O1365 C1347 1.265 . S
C1366 O1357 1.255 . S
C1366 O1358 1.265 . S
O1367 Tb1344 2.479 . S
O1367 C1354 1.238 . S
O1368 Tb1344 2.471 . S
O1368 C1354 1.247 . S
C1369 C1372 1.380 . S
C1369 C1373 1.374 . S
C1369 C1375 1.507 . S
C1370 C1371 1.387 . S
C1370 C1374 1.391 . S
C1371 C1370 1.387 . S
C1371 C1372 1.384 . S
C1371 H1380 0.930 . S
C1372 C1369 1.380 . S
C1372 C1371 1.384 . S
C1372 H1381 0.931 . S
C1373 C1369 1.374 . S
C1373 C1374 1.390 . S
C1373 H1382 0.930 . S
C1374 C1370 1.391 . S
C1374 C1373 1.390 . S
C1374 H1383 0.930 . S
C1375 Eu1345 2.825 . S
C1375 O1360 1.238 . S
C1375 O1361 1.247 . S
C1375 C1369 1.507 . S
H1376 C1349 0.930 . S
H1377 C1350 0.931 . S
H1378 C1351 0.930 . S
H1379 C1352 0.930 . S
H1380 C1371 0.930 . S
H1381 C1372 0.931 . S
H1382 C1373 0.930 . S
H1383 C1374 0.930 . S
Tb1384 C1394 2.825 . S
Tb1384 O1395 2.347 . S
Tb1384 O1398 2.366 . S
Tb1384 O1403 2.418 . S
Tb1384 O1404 2.384 . S
Tb1384 O1407 2.479 . S
Tb1384 O1408 2.471 . S
Eu1385 O1396 2.418 . S
Eu1385 O1397 2.384 . S
Eu1385 O1400 2.479 . S
Eu1385 O1401 2.471 . S
Eu1385 O1402 2.347 . S
Eu1385 O1405 2.366 . S
Eu1385 C1415 2.825 . S
C1386 O1402 1.259 . S
C1386 O1403 1.265 . S
C1387 O1404 1.255 . S
C1387 O1405 1.265 . S
C1388 C1390 1.380 . S
C1388 C1391 1.374 . S
C1388 C1394 1.507 . S
C1389 C1390 1.384 . S
C1389 C1393 1.387 . S
C1389 H1416 0.930 . S
C1390 C1388 1.380 . S
C1390 C1389 1.384 . S
C1390 H1417 0.931 . S
C1391 C1388 1.374 . S
C1391 C1392 1.390 . S
C1391 H1418 0.930 . S
C1392 C1391 1.390 . S
C1392 C1393 1.391 . S
C1392 H1419 0.930 . S
C1393 C1389 1.387 . S
C1393 C1392 1.391 . S
C1394 Tb1384 2.825 . S
C1394 C1388 1.507 . S
C1394 O1407 1.238 . S
C1394 O1408 1.247 . S
O1395 Tb1384 2.347 . S
O1395 C1399 1.259 . S
O1396 Eu1385 2.418 . S
O1396 C1399 1.265 . S
O1397 Eu1385 2.384 . S
O1397 C1406 1.255 . S
O1398 Tb1384 2.366 . S
O1398 C1406 1.265 . S
C1399 O1395 1.259 . S
C1399 O1396 1.265 . S
O1400 Eu1385 2.479 . S
O1400 C1415 1.238 . S
O1401 Eu1385 2.471 . S
O1401 C1415 1.247 . S
O1402 Eu1385 2.347 . S
O1402 C1386 1.259 . S
O1403 Tb1384 2.418 . S
O1403 C1386 1.265 . S
O1404 Tb1384 2.384 . S
O1404 C1387 1.255 . S
O1405 Eu1385 2.366 . S
O1405 C1387 1.265 . S
C1406 O1397 1.255 . S
C1406 O1398 1.265 . S
O1407 Tb1384 2.479 . S
O1407 C1394 1.238 . S
O1408 Tb1384 2.471 . S
O1408 C1394 1.247 . S
C1409 C1412 1.380 . S
C1409 C1413 1.374 . S
C1409 C1415 1.507 . S
C1410 C1411 1.387 . S
C1410 C1414 1.391 . S
C1411 C1410 1.387 . S
C1411 C1412 1.384 . S
C1411 H1420 0.930 . S
C1412 C1409 1.380 . S
C1412 C1411 1.384 . S
C1412 H1421 0.931 . S
C1413 C1409 1.374 . S
C1413 C1414 1.390 . S
C1413 H1422 0.930 . S
C1414 C1410 1.391 . S
C1414 C1413 1.390 . S
C1414 H1423 0.930 . S
C1415 Eu1385 2.825 . S
C1415 O1400 1.238 . S
C1415 O1401 1.247 . S
C1415 C1409 1.507 . S
H1416 C1389 0.930 . S
H1417 C1390 0.931 . S
H1418 C1391 0.930 . S
H1419 C1392 0.930 . S
H1420 C1411 0.930 . S
H1421 C1412 0.931 . S
H1422 C1413 0.930 . S
H1423 C1414 0.930 . S
Tb1424 C1434 2.825 . S
Tb1424 O1435 2.347 . S
Tb1424 O1438 2.366 . S
Tb1424 O1443 2.418 . S
Tb1424 O1444 2.384 . S
Tb1424 O1447 2.479 . S
Tb1424 O1448 2.471 . S
Eu1425 O1436 2.418 . S
Eu1425 O1437 2.384 . S
Eu1425 O1440 2.479 . S
Eu1425 O1441 2.471 . S
Eu1425 O1442 2.347 . S
Eu1425 O1445 2.366 . S
Eu1425 C1455 2.825 . S
C1426 O1442 1.259 . S
C1426 O1443 1.265 . S
C1427 O1444 1.255 . S
C1427 O1445 1.265 . S
C1428 C1430 1.380 . S
C1428 C1431 1.374 . S
C1428 C1434 1.507 . S
C1429 C1430 1.384 . S
C1429 C1433 1.387 . S
C1429 H1456 0.930 . S
C1430 C1428 1.380 . S
C1430 C1429 1.384 . S
C1430 H1457 0.931 . S
C1431 C1428 1.374 . S
C1431 C1432 1.390 . S
C1431 H1458 0.930 . S
C1432 C1431 1.390 . S
C1432 C1433 1.391 . S
C1432 H1459 0.930 . S
C1433 C1429 1.387 . S
C1433 C1432 1.391 . S
C1434 Tb1424 2.825 . S
C1434 C1428 1.507 . S
C1434 O1447 1.238 . S
C1434 O1448 1.247 . S
O1435 Tb1424 2.347 . S
O1435 C1439 1.259 . S
O1436 Eu1425 2.418 . S
O1436 C1439 1.265 . S
O1437 Eu1425 2.384 . S
O1437 C1446 1.255 . S
O1438 Tb1424 2.366 . S
O1438 C1446 1.265 . S
C1439 O1435 1.259 . S
C1439 O1436 1.265 . S
O1440 Eu1425 2.479 . S
O1440 C1455 1.238 . S
O1441 Eu1425 2.471 . S
O1441 C1455 1.247 . S
O1442 Eu1425 2.347 . S
O1442 C1426 1.259 . S
O1443 Tb1424 2.418 . S
O1443 C1426 1.265 . S
O1444 Tb1424 2.384 . S
O1444 C1427 1.255 . S
O1445 Eu1425 2.366 . S
O1445 C1427 1.265 . S
C1446 O1437 1.255 . S
C1446 O1438 1.265 . S
O1447 Tb1424 2.479 . S
O1447 C1434 1.238 . S
O1448 Tb1424 2.471 . S
O1448 C1434 1.247 . S
C1449 C1452 1.380 . S
C1449 C1453 1.374 . S
C1449 C1455 1.507 . S
C1450 C1451 1.387 . S
C1450 C1454 1.391 . S
C1451 C1450 1.387 . S
C1451 C1452 1.384 . S
C1451 H1460 0.930 . S
C1452 C1449 1.380 . S
C1452 C1451 1.384 . S
C1452 H1461 0.931 . S
C1453 C1449 1.374 . S
C1453 C1454 1.390 . S
C1453 H1462 0.930 . S
C1454 C1450 1.391 . S
C1454 C1453 1.390 . S
C1454 H1463 0.930 . S
C1455 Eu1425 2.825 . S
C1455 O1440 1.238 . S
C1455 O1441 1.247 . S
C1455 C1449 1.507 . S
H1456 C1429 0.930 . S
H1457 C1430 0.931 . S
H1458 C1431 0.930 . S
H1459 C1432 0.930 . S
H1460 C1451 0.930 . S
H1461 C1452 0.931 . S
H1462 C1453 0.930 . S
H1463 C1454 0.930 . S
Tb1464 C1474 2.825 1_554 S
Tb1464 O1475 2.347 1_554 S
Tb1464 O1478 2.366 . S
Tb1464 O1483 2.418 . S
Tb1464 O1484 2.384 . S
Tb1464 O1487 2.479 . S
Tb1464 O1488 2.471 1_554 S
Eu1465 O1476 2.418 1_554 S
Eu1465 O1477 2.384 . S
Eu1465 O1480 2.479 . S
Eu1465 O1481 2.471 . S
Eu1465 O1482 2.347 . S
Eu1465 O1485 2.366 . S
Eu1465 C1495 2.825 . S
C1466 O1482 1.259 . S
C1466 O1483 1.265 . S
C1467 O1484 1.255 . S
C1467 O1485 1.265 . S
C1468 C1470 1.380 . S
C1468 C1471 1.374 . S
C1468 C1474 1.507 . S
C1469 C1470 1.384 . S
C1469 C1473 1.387 . S
C1469 H1496 0.930 . S
C1470 C1468 1.380 . S
C1470 C1469 1.384 . S
C1470 H1497 0.931 1_556 S
C1471 C1468 1.374 . S
C1471 C1472 1.390 . S
C1471 H1498 0.930 . S
C1472 C1471 1.390 . S
C1472 C1473 1.391 . S
C1472 H1499 0.930 . S
C1473 C1469 1.387 . S
C1473 C1472 1.391 . S
C1474 Tb1464 2.825 1_556 S
C1474 C1468 1.507 . S
C1474 O1487 1.238 1_556 S
C1474 O1488 1.247 . S
O1475 Tb1464 2.347 1_556 S
O1475 C1479 1.259 . S
O1476 Eu1465 2.418 1_556 S
O1476 C1479 1.265 . S
O1477 Eu1465 2.384 . S
O1477 C1486 1.255 . S
O1478 Tb1464 2.366 . S
O1478 C1486 1.265 . S
C1479 O1475 1.259 . S
C1479 O1476 1.265 . S
O1480 Eu1465 2.479 . S
O1480 C1495 1.238 . S
O1481 Eu1465 2.471 . S
O1481 C1495 1.247 . S
O1482 Eu1465 2.347 . S
O1482 C1466 1.259 . S
O1483 Tb1464 2.418 . S
O1483 C1466 1.265 . S
O1484 Tb1464 2.384 . S
O1484 C1467 1.255 . S
O1485 Eu1465 2.366 . S
O1485 C1467 1.265 . S
C1486 O1477 1.255 . S
C1486 O1478 1.265 . S
O1487 Tb1464 2.479 . S
O1487 C1474 1.238 1_554 S
O1488 Tb1464 2.471 1_556 S
O1488 C1474 1.247 . S
C1489 C1492 1.380 . S
C1489 C1493 1.374 . S
C1489 C1495 1.507 . S
C1490 C1491 1.387 . S
C1490 C1494 1.391 . S
C1491 C1490 1.387 . S
C1491 C1492 1.384 . S
C1491 H1500 0.930 . S
C1492 C1489 1.380 . S
C1492 C1491 1.384 . S
C1492 H1501 0.931 . S
C1493 C1489 1.374 . S
C1493 C1494 1.390 . S
C1493 H1502 0.930 . S
C1494 C1490 1.391 . S
C1494 C1493 1.390 . S
C1494 H1503 0.930 . S
C1495 Eu1465 2.825 . S
C1495 O1480 1.238 . S
C1495 O1481 1.247 . S
C1495 C1489 1.507 . S
H1496 C1469 0.930 . S
H1497 C1470 0.931 1_554 S
H1498 C1471 0.930 . S
H1499 C1472 0.930 . S
H1500 C1491 0.930 . S
H1501 C1492 0.931 . S
H1502 C1493 0.930 . S
H1503 C1494 0.930 . S
C1504 C1505 1.369 . S
C1504 C1506 1.419 . S
C1504 H1508 0.930 . S
C1505 C1504 1.369 . S
C1505 C1514 1.429 1_455 S
C1506 C1504 1.419 . S
C1506 C1507 1.363 . S
C1506 H1509 0.929 . S
C1507 C1506 1.363 . S
C1507 C1513 1.428 . S
H1508 C1504 0.930 . S
H1509 C1506 0.929 . S
S1510 N1511 1.613 1_554 S
S1510 N1512 1.610 . S
N1511 S1510 1.613 1_556 S
N1511 C1514 1.350 . S
N1512 S1510 1.610 . S
N1512 C1513 1.351 1_654 S
C1513 C1507 1.428 . S
C1513 N1512 1.351 1_456 S
C1513 C1514 1.434 1_455 S
C1514 C1505 1.429 1_655 S
C1514 N1511 1.350 . S
C1514 C1513 1.434 1_655 S
C1515 C1516 1.369 . S
C1515 C1517 1.419 . S
C1515 H1519 0.930 . S
C1516 C1515 1.369 . S
C1516 C1525 1.429 . S
C1517 C1515 1.419 . S
C1517 C1518 1.363 . S
C1517 H1520 0.929 . S
C1518 C1517 1.363 . S
C1518 C1524 1.428 . S
H1519 C1515 0.930 . S
H1520 C1517 0.929 . S
S1521 N1522 1.613 . S
S1521 N1523 1.610 . S
N1522 S1521 1.613 . S
N1522 C1525 1.350 . S
N1523 S1521 1.610 . S
N1523 C1524 1.351 . S
C1524 C1518 1.428 . S
C1524 N1523 1.351 . S
C1524 C1525 1.434 . S
C1525 C1516 1.429 . S
C1525 N1522 1.350 . S
C1525 C1524 1.434 . S
C1526 C1527 1.369 . S
C1526 C1528 1.419 . S
C1526 H1530 0.930 . S
C1527 C1526 1.369 . S
C1527 C1536 1.429 . S
C1528 C1526 1.419 . S
C1528 C1529 1.363 . S
C1528 H1531 0.929 . S
C1529 C1528 1.363 . S
C1529 C1535 1.428 . S
H1530 C1526 0.930 . S
H1531 C1528 0.929 . S
S1532 N1533 1.613 . S
S1532 N1534 1.610 . S
N1533 S1532 1.613 . S
N1533 C1536 1.350 . S
N1534 S1532 1.610 . S
N1534 C1535 1.351 . S
C1535 C1529 1.428 . S
C1535 N1534 1.351 . S
C1535 C1536 1.434 . S
C1536 C1527 1.429 . S
C1536 N1533 1.350 . S
C1536 C1535 1.434 . S
C1537 C1538 1.369 . S
C1537 C1539 1.419 . S
C1537 H1541 0.930 . S
C1538 C1537 1.369 . S
C1538 C1547 1.429 . S
C1539 C1537 1.419 . S
C1539 C1540 1.363 . S
C1539 H1542 0.929 . S
C1540 C1539 1.363 . S
C1540 C1546 1.428 . S
H1541 C1537 0.930 . S
H1542 C1539 0.929 . S
S1543 N1544 1.613 . S
S1543 N1545 1.610 . S
N1544 S1543 1.613 . S
N1544 C1547 1.350 . S
N1545 S1543 1.610 . S
N1545 C1546 1.351 . S
C1546 C1540 1.428 . S
C1546 N1545 1.351 . S
C1546 C1547 1.434 . S
C1547 C1538 1.429 . S
C1547 N1544 1.350 . S
C1547 C1546 1.434 . S
C1548 C1549 1.369 . S
C1548 C1550 1.419 . S
C1548 H1552 0.930 . S
C1549 C1548 1.369 . S
C1549 C1558 1.429 . S
C1550 C1548 1.419 . S
C1550 C1551 1.363 . S
C1550 H1553 0.929 . S
C1551 C1550 1.363 . S
C1551 C1557 1.428 . S
H1552 C1548 0.930 . S
H1553 C1550 0.929 . S
S1554 N1555 1.613 . S
S1554 N1556 1.610 . S
N1555 S1554 1.613 . S
N1555 C1558 1.350 . S
N1556 S1554 1.610 . S
N1556 C1557 1.351 . S
C1557 C1551 1.428 . S
C1557 N1556 1.351 . S
C1557 C1558 1.434 . S
C1558 C1549 1.429 . S
C1558 N1555 1.350 . S
C1558 C1557 1.434 . S
C1559 C1560 1.369 . S
C1559 C1561 1.419 . S
C1559 H1563 0.930 . S
C1560 C1559 1.369 . S
C1560 C1569 1.429 . S
C1561 C1559 1.419 . S
C1561 C1562 1.363 . S
C1561 H1564 0.929 . S
C1562 C1561 1.363 . S
C1562 C1568 1.428 . S
H1563 C1559 0.930 . S
H1564 C1561 0.929 . S
S1565 N1566 1.613 . S
S1565 N1567 1.610 . S
N1566 S1565 1.613 . S
N1566 C1569 1.350 . S
N1567 S1565 1.610 . S
N1567 C1568 1.351 . S
C1568 C1562 1.428 . S
C1568 N1567 1.351 . S
C1568 C1569 1.434 . S
C1569 C1560 1.429 . S
C1569 N1566 1.350 . S
C1569 C1568 1.434 . S
C1570 C1571 1.369 . S
C1570 C1572 1.419 . S
C1570 H1574 0.930 . S
C1571 C1570 1.369 . S
C1571 C1580 1.429 . S
C1572 C1570 1.419 . S
C1572 C1573 1.363 . S
C1572 H1575 0.929 . S
C1573 C1572 1.363 . S
C1573 C1579 1.428 . S
H1574 C1570 0.930 . S
H1575 C1572 0.929 . S
S1576 N1577 1.613 . S
S1576 N1578 1.610 . S
N1577 S1576 1.613 . S
N1577 C1580 1.350 . S
N1578 S1576 1.610 . S
N1578 C1579 1.351 . S
C1579 C1573 1.428 . S
C1579 N1578 1.351 . S
C1579 C1580 1.434 . S
C1580 C1571 1.429 . S
C1580 N1577 1.350 . S
C1580 C1579 1.434 . S
C1581 C1582 1.369 . S
C1581 C1583 1.419 . S
C1581 H1585 0.930 . S
C1582 C1581 1.369 . S
C1582 C1591 1.429 . S
C1583 C1581 1.419 . S
C1583 C1584 1.363 . S
C1583 H1586 0.929 . S
C1584 C1583 1.363 . S
C1584 C1590 1.428 . S
H1585 C1581 0.930 . S
H1586 C1583 0.929 . S
S1587 N1588 1.613 . S
S1587 N1589 1.610 . S
N1588 S1587 1.613 . S
N1588 C1591 1.350 . S
N1589 S1587 1.610 . S
N1589 C1590 1.351 . S
C1590 C1584 1.428 . S
C1590 N1589 1.351 . S
C1590 C1591 1.434 . S
C1591 C1582 1.429 . S
C1591 N1588 1.350 . S
C1591 C1590 1.434 . S
C1592 C1593 1.369 . S
C1592 C1594 1.419 1_655 S
C1592 H1596 0.930 1_545 S
C1593 C1592 1.369 . S
C1593 C1602 1.429 . S
C1594 C1592 1.419 1_455 S
C1594 C1595 1.363 . S
C1594 H1597 0.929 . S
C1595 C1594 1.363 . S
C1595 C1601 1.428 1_455 S
H1596 C1592 0.930 1_565 S
H1597 C1594 0.929 . S
S1598 N1599 1.613 . S
S1598 N1600 1.610 . S
N1599 S1598 1.613 . S
N1599 C1602 1.350 . S
N1600 S1598 1.610 . S
N1600 C1601 1.351 . S
C1601 C1595 1.428 1_655 S
C1601 N1600 1.351 . S
C1601 C1602 1.434 . S
C1602 C1593 1.429 . S
C1602 N1599 1.350 . S
C1602 C1601 1.434 . S
C1603 C1604 1.369 . S
C1603 C1605 1.419 . S
C1603 H1607 0.930 . S
C1604 C1603 1.369 . S
C1604 C1613 1.429 . S
C1605 C1603 1.419 . S
C1605 C1606 1.363 . S
C1605 H1608 0.929 . S
C1606 C1605 1.363 . S
C1606 C1612 1.428 . S
H1607 C1603 0.930 . S
H1608 C1605 0.929 . S
S1609 N1610 1.613 . S
S1609 N1611 1.610 . S
N1610 S1609 1.613 . S
N1610 C1613 1.350 . S
N1611 S1609 1.610 . S
N1611 C1612 1.351 . S
C1612 C1606 1.428 . S
C1612 N1611 1.351 . S
C1612 C1613 1.434 . S
C1613 C1604 1.429 . S
C1613 N1610 1.350 . S
C1613 C1612 1.434 . S
C1614 C1615 1.369 . S
C1614 C1616 1.419 . S
C1614 H1618 0.930 . S
C1615 C1614 1.369 . S
C1615 C1624 1.429 . S
C1616 C1614 1.419 . S
C1616 C1617 1.363 . S
C1616 H1619 0.929 . S
C1617 C1616 1.363 . S
C1617 C1623 1.428 . S
H1618 C1614 0.930 . S
H1619 C1616 0.929 . S
S1620 N1621 1.613 . S
S1620 N1622 1.610 . S
N1621 S1620 1.613 . S
N1621 C1624 1.350 . S
N1622 S1620 1.610 . S
N1622 C1623 1.351 . S
C1623 C1617 1.428 . S
C1623 N1622 1.351 . S
C1623 C1624 1.434 . S
C1624 C1615 1.429 . S
C1624 N1621 1.350 . S
C1624 C1623 1.434 . S
C1625 C1626 1.369 . S
C1625 C1627 1.419 . S
C1625 H1629 0.930 . S
C1626 C1625 1.369 . S
C1626 C1635 1.429 . S
C1627 C1625 1.419 . S
C1627 C1628 1.363 . S
C1627 H1630 0.929 . S
C1628 C1627 1.363 . S
C1628 C1634 1.428 . S
H1629 C1625 0.930 . S
H1630 C1627 0.929 . S
S1631 N1632 1.613 . S
S1631 N1633 1.610 . S
N1632 S1631 1.613 . S
N1632 C1635 1.350 . S
N1633 S1631 1.610 . S
N1633 C1634 1.351 . S
C1634 C1628 1.428 . S
C1634 N1633 1.351 . S
C1634 C1635 1.434 . S
C1635 C1626 1.429 . S
C1635 N1632 1.350 . S
C1635 C1634 1.434 . S
C1636 C1637 1.369 . S
C1636 C1638 1.419 . S
C1636 H1640 0.930 . S
C1637 C1636 1.369 . S
C1637 C1646 1.429 1_545 S
C1638 C1636 1.419 . S
C1638 C1639 1.363 . S
C1638 H1641 0.929 . S
C1639 C1638 1.363 . S
C1639 C1645 1.428 . S
H1640 C1636 0.930 . S
H1641 C1638 0.929 . S
S1642 N1643 1.613 . S
S1642 N1644 1.610 1_565 S
N1643 S1642 1.613 . S
N1643 C1646 1.350 . S
N1644 S1642 1.610 1_545 S
N1644 C1645 1.351 . S
C1645 C1639 1.428 . S
C1645 N1644 1.351 . S
C1645 C1646 1.434 1_545 S
C1646 C1637 1.429 1_565 S
C1646 N1643 1.350 . S
C1646 C1645 1.434 1_565 S
C1647 C1648 1.369 . S
C1647 C1649 1.419 . S
C1647 H1651 0.930 . S
C1648 C1647 1.369 . S
C1648 C1657 1.429 . S
C1649 C1647 1.419 . S
C1649 C1650 1.363 . S
C1649 H1652 0.929 . S
C1650 C1649 1.363 . S
C1650 C1656 1.428 . S
H1651 C1647 0.930 . S
H1652 C1649 0.929 . S
S1653 N1654 1.613 . S
S1653 N1655 1.610 . S
N1654 S1653 1.613 . S
N1654 C1657 1.350 . S
N1655 S1653 1.610 . S
N1655 C1656 1.351 . S
C1656 C1650 1.428 . S
C1656 N1655 1.351 . S
C1656 C1657 1.434 . S
C1657 C1648 1.429 . S
C1657 N1654 1.350 . S
C1657 C1656 1.434 . S
C1658 C1659 1.369 . S
C1658 C1660 1.419 . S
C1658 H1662 0.930 . S
C1659 C1658 1.369 . S
C1659 C1668 1.429 . S
C1660 C1658 1.419 . S
C1660 C1661 1.363 . S
C1660 H1663 0.929 . S
C1661 C1660 1.363 . S
C1661 C1667 1.428 . S
H1662 C1658 0.930 . S
H1663 C1660 0.929 . S
S1664 N1665 1.613 . S
S1664 N1666 1.610 . S
N1665 S1664 1.613 . S
N1665 C1668 1.350 . S
N1666 S1664 1.610 . S
N1666 C1667 1.351 . S
C1667 C1661 1.428 . S
C1667 N1666 1.351 . S
C1667 C1668 1.434 . S
C1668 C1659 1.429 . S
C1668 N1665 1.350 . S
C1668 C1667 1.434 . S
C1669 C1670 1.369 . S
C1669 C1671 1.419 . S
C1669 H1673 0.930 . S
C1670 C1669 1.369 . S
C1670 C1679 1.429 . S
C1671 C1669 1.419 . S
C1671 C1672 1.363 . S
C1671 H1674 0.929 . S
C1672 C1671 1.363 . S
C1672 C1678 1.428 . S
H1673 C1669 0.930 . S
H1674 C1671 0.929 . S
S1675 N1676 1.613 . S
S1675 N1677 1.610 . S
N1676 S1675 1.613 . S
N1676 C1679 1.350 . S
N1677 S1675 1.610 . S
N1677 C1678 1.351 . S
C1678 C1672 1.428 . S
C1678 N1677 1.351 . S
C1678 C1679 1.434 . S
C1679 C1670 1.429 . S
C1679 N1676 1.350 . S
C1679 C1678 1.434 . S
C1680 C1681 1.369 . S
C1680 C1682 1.419 . S
C1680 H1684 0.930 . S
C1681 C1680 1.369 . S
C1681 C1690 1.429 . S
C1682 C1680 1.419 . S
C1682 C1683 1.363 . S
C1682 H1685 0.929 . S
C1683 C1682 1.363 . S
C1683 C1689 1.428 . S
H1684 C1680 0.930 . S
H1685 C1682 0.929 . S
S1686 N1687 1.613 1_545 S
S1686 N1688 1.610 . S
N1687 S1686 1.613 1_565 S
N1687 C1690 1.350 . S
N1688 S1686 1.610 . S
N1688 C1689 1.351 1_545 S
C1689 C1683 1.428 . S
C1689 N1688 1.351 1_565 S
C1689 C1690 1.434 . S
C1690 C1681 1.429 . S
C1690 N1687 1.350 . S
C1690 C1689 1.434 . S
C1691 C1692 1.369 . S
C1691 C1693 1.419 . S
C1691 H1695 0.930 . S
C1692 C1691 1.369 . S
C1692 C1701 1.429 . S
C1693 C1691 1.419 . S
C1693 C1694 1.363 . S
C1693 H1696 0.929 . S
C1694 C1693 1.363 . S
C1694 C1700 1.428 . S
H1695 C1691 0.930 . S
H1696 C1693 0.929 . S
S1697 N1698 1.613 . S
S1697 N1699 1.610 . S
N1698 S1697 1.613 . S
N1698 C1701 1.350 . S
N1699 S1697 1.610 . S
N1699 C1700 1.351 . S
C1700 C1694 1.428 . S
C1700 N1699 1.351 . S
C1700 C1701 1.434 . S
C1701 C1692 1.429 . S
C1701 N1698 1.350 . S
C1701 C1700 1.434 . S
C1702 C1703 1.369 . S
C1702 C1704 1.419 . S
C1702 H1706 0.930 . S
C1703 C1702 1.369 . S
C1703 C1712 1.429 . S
C1704 C1702 1.419 . S
C1704 C1705 1.363 . S
C1704 H1707 0.929 . S
C1705 C1704 1.363 . S
C1705 C1711 1.428 . S
H1706 C1702 0.930 . S
H1707 C1704 0.929 . S
S1708 N1709 1.613 . S
S1708 N1710 1.610 . S
N1709 S1708 1.613 . S
N1709 C1712 1.350 . S
N1710 S1708 1.610 . S
N1710 C1711 1.351 . S
C1711 C1705 1.428 . S
C1711 N1710 1.351 . S
C1711 C1712 1.434 . S
C1712 C1703 1.429 . S
C1712 N1709 1.350 . S
C1712 C1711 1.434 . S
C1713 C1714 1.369 . S
C1713 C1715 1.419 . S
C1713 H1717 0.930 . S
C1714 C1713 1.369 . S
C1714 C1723 1.429 . S
C1715 C1713 1.419 . S
C1715 C1716 1.363 . S
C1715 H1718 0.929 1_655 S
C1716 C1715 1.363 . S
C1716 C1722 1.428 . S
H1717 C1713 0.930 . S
H1718 C1715 0.929 1_455 S
S1719 N1720 1.613 . S
S1719 N1721 1.610 . S
N1720 S1719 1.613 . S
N1720 C1723 1.350 . S
N1721 S1719 1.610 . S
N1721 C1722 1.351 . S
C1722 C1716 1.428 . S
C1722 N1721 1.351 . S
C1722 C1723 1.434 . S
C1723 C1714 1.429 . S
C1723 N1720 1.350 . S
C1723 C1722 1.434 . S
C1724 C1725 1.369 . S
C1724 C1726 1.419 . S
C1724 H1728 0.930 . S
C1725 C1724 1.369 . S
C1725 C1734 1.429 . S
C1726 C1724 1.419 . S
C1726 C1727 1.363 . S
C1726 H1729 0.929 . S
C1727 C1726 1.363 . S
C1727 C1733 1.428 . S
H1728 C1724 0.930 . S
H1729 C1726 0.929 . S
S1730 N1731 1.613 . S
S1730 N1732 1.610 . S
N1731 S1730 1.613 . S
N1731 C1734 1.350 . S
N1732 S1730 1.610 . S
N1732 C1733 1.351 . S
C1733 C1727 1.428 . S
C1733 N1732 1.351 . S
C1733 C1734 1.434 . S
C1734 C1725 1.429 . S
C1734 N1731 1.350 . S
C1734 C1733 1.434 . S
C1735 C1736 1.369 . S
C1735 C1737 1.419 . S
C1735 H1739 0.930 . S
C1736 C1735 1.369 . S
C1736 C1745 1.429 . S
C1737 C1735 1.419 . S
C1737 C1738 1.363 . S
C1737 H1740 0.929 . S
C1738 C1737 1.363 . S
C1738 C1744 1.428 . S
H1739 C1735 0.930 . S
H1740 C1737 0.929 . S
S1741 N1742 1.613 . S
S1741 N1743 1.610 . S
N1742 S1741 1.613 . S
N1742 C1745 1.350 . S
N1743 S1741 1.610 . S
N1743 C1744 1.351 . S
C1744 C1738 1.428 . S
C1744 N1743 1.351 . S
C1744 C1745 1.434 . S
C1745 C1736 1.429 . S
C1745 N1742 1.350 . S
C1745 C1744 1.434 . S
C1746 C1747 1.369 . S
C1746 C1748 1.419 . S
C1746 H1750 0.930 . S
C1747 C1746 1.369 . S
C1747 C1756 1.429 . S
C1748 C1746 1.419 . S
C1748 C1749 1.363 . S
C1748 H1751 0.929 . S
C1749 C1748 1.363 . S
C1749 C1755 1.428 . S
H1750 C1746 0.930 . S
H1751 C1748 0.929 . S
S1752 N1753 1.613 . S
S1752 N1754 1.610 . S
N1753 S1752 1.613 . S
N1753 C1756 1.350 . S
N1754 S1752 1.610 . S
N1754 C1755 1.351 . S
C1755 C1749 1.428 . S
C1755 N1754 1.351 . S
C1755 C1756 1.434 . S
C1756 C1747 1.429 . S
C1756 N1753 1.350 . S
C1756 C1755 1.434 . S
C1757 C1758 1.369 . S
C1757 C1759 1.419 . S
C1757 H1761 0.930 . S
C1758 C1757 1.369 . S
C1758 C1767 1.429 . S
C1759 C1757 1.419 . S
C1759 C1760 1.363 . S
C1759 H1762 0.929 . S
C1760 C1759 1.363 . S
C1760 C1766 1.428 . S
H1761 C1757 0.930 . S
H1762 C1759 0.929 . S
S1763 N1764 1.613 . S
S1763 N1765 1.610 . S
N1764 S1763 1.613 . S
N1764 C1767 1.350 . S
N1765 S1763 1.610 . S
N1765 C1766 1.351 . S
C1766 C1760 1.428 . S
C1766 N1765 1.351 . S
C1766 C1767 1.434 . S
C1767 C1758 1.429 . S
C1767 N1764 1.350 . S
C1767 C1766 1.434 . S
C1768 C1769 1.369 . S
C1768 C1770 1.419 . S
C1768 H1772 0.930 . S
C1769 C1768 1.369 . S
C1769 C1778 1.429 . S
C1770 C1768 1.419 . S
C1770 C1771 1.363 . S
C1770 H1773 0.929 . S
C1771 C1770 1.363 . S
C1771 C1777 1.428 . S
H1772 C1768 0.930 . S
H1773 C1770 0.929 . S
S1774 N1775 1.613 1_545 S
S1774 N1776 1.610 . S
N1775 S1774 1.613 1_565 S
N1775 C1778 1.350 . S
N1776 S1774 1.610 . S
N1776 C1777 1.351 1_545 S
C1777 C1771 1.428 . S
C1777 N1776 1.351 1_565 S
C1777 C1778 1.434 . S
C1778 C1769 1.429 . S
C1778 N1775 1.350 . S
C1778 C1777 1.434 . S
C1779 C1780 1.369 . S
C1779 C1781 1.419 . S
C1779 H1783 0.930 . S
C1780 C1779 1.369 . S
C1780 C1789 1.429 . S
C1781 C1779 1.419 . S
C1781 C1782 1.363 . S
C1781 H1784 0.929 . S
C1782 C1781 1.363 . S
C1782 C1788 1.428 . S
H1783 C1779 0.930 . S
H1784 C1781 0.929 . S
S1785 N1786 1.613 . S
S1785 N1787 1.610 . S
N1786 S1785 1.613 . S
N1786 C1789 1.350 . S
N1787 S1785 1.610 . S
N1787 C1788 1.351 . S
C1788 C1782 1.428 . S
C1788 N1787 1.351 . S
C1788 C1789 1.434 . S
C1789 C1780 1.429 . S
C1789 N1786 1.350 . S
C1789 C1788 1.434 . S
C1790 C1791 1.369 . S
C1790 C1792 1.419 . S
C1790 H1794 0.930 . S
C1791 C1790 1.369 . S
C1791 C1800 1.429 . S
C1792 C1790 1.419 . S
C1792 C1793 1.363 . S
C1792 H1795 0.929 . S
C1793 C1792 1.363 . S
C1793 C1799 1.428 . S
H1794 C1790 0.930 . S
H1795 C1792 0.929 . S
S1796 N1797 1.613 . S
S1796 N1798 1.610 . S
N1797 S1796 1.613 . S
N1797 C1800 1.350 . S
N1798 S1796 1.610 . S
N1798 C1799 1.351 . S
C1799 C1793 1.428 . S
C1799 N1798 1.351 . S
C1799 C1800 1.434 . S
C1800 C1791 1.429 . S
C1800 N1797 1.350 . S
C1800 C1799 1.434 . S
C1801 C1802 1.369 . S
C1801 C1803 1.419 . S
C1801 H1805 0.930 . S
C1802 C1801 1.369 . S
C1802 C1811 1.429 . S
C1803 C1801 1.419 . S
C1803 C1804 1.363 . S
C1803 H1806 0.929 . S
C1804 C1803 1.363 . S
C1804 C1810 1.428 . S
H1805 C1801 0.930 . S
H1806 C1803 0.929 . S
S1807 N1808 1.613 . S
S1807 N1809 1.610 . S
N1808 S1807 1.613 . S
N1808 C1811 1.350 . S
N1809 S1807 1.610 . S
N1809 C1810 1.351 . S
C1810 C1804 1.428 . S
C1810 N1809 1.351 . S
C1810 C1811 1.434 . S
C1811 C1802 1.429 . S
C1811 N1808 1.350 . S
C1811 C1810 1.434 . S
C1812 C1813 1.369 . S
C1812 C1814 1.419 . S
C1812 H1816 0.930 . S
C1813 C1812 1.369 . S
C1813 C1822 1.429 . S
C1814 C1812 1.419 . S
C1814 C1815 1.363 . S
C1814 H1817 0.929 . S
C1815 C1814 1.363 . S
C1815 C1821 1.428 . S
H1816 C1812 0.930 . S
H1817 C1814 0.929 . S
S1818 N1819 1.613 . S
S1818 N1820 1.610 . S
N1819 S1818 1.613 . S
N1819 C1822 1.350 . S
N1820 S1818 1.610 . S
N1820 C1821 1.351 . S
C1821 C1815 1.428 . S
C1821 N1820 1.351 . S
C1821 C1822 1.434 . S
C1822 C1813 1.429 . S
C1822 N1819 1.350 . S
C1822 C1821 1.434 . S
C1823 C1824 1.369 . S
C1823 C1825 1.419 . S
C1823 H1827 0.930 . S
C1824 C1823 1.369 . S
C1824 C1833 1.429 . S
C1825 C1823 1.419 . S
C1825 C1826 1.363 . S
C1825 H1828 0.929 . S
C1826 C1825 1.363 . S
C1826 C1832 1.428 . S
H1827 C1823 0.930 . S
H1828 C1825 0.929 . S
S1829 N1830 1.613 . S
S1829 N1831 1.610 . S
N1830 S1829 1.613 . S
N1830 C1833 1.350 . S
N1831 S1829 1.610 . S
N1831 C1832 1.351 . S
C1832 C1826 1.428 . S
C1832 N1831 1.351 . S
C1832 C1833 1.434 . S
C1833 C1824 1.429 . S
C1833 N1830 1.350 . S
C1833 C1832 1.434 . S
C1834 C1835 1.369 . S
C1834 C1836 1.419 . S
C1834 H1838 0.930 . S
C1835 C1834 1.369 . S
C1835 C1844 1.429 . S
C1836 C1834 1.419 . S
C1836 C1837 1.363 . S
C1836 H1839 0.929 . S
C1837 C1836 1.363 . S
C1837 C1843 1.428 . S
H1838 C1834 0.930 . S
H1839 C1836 0.929 . S
S1840 N1841 1.613 . S
S1840 N1842 1.610 . S
N1841 S1840 1.613 . S
N1841 C1844 1.350 . S
N1842 S1840 1.610 . S
N1842 C1843 1.351 . S
C1843 C1837 1.428 . S
C1843 N1842 1.351 . S
C1843 C1844 1.434 . S
C1844 C1835 1.429 . S
C1844 N1841 1.350 . S
C1844 C1843 1.434 . S
C1845 C1846 1.369 . S
C1845 C1847 1.419 . S
C1845 H1849 0.930 . S
C1846 C1845 1.369 . S
C1846 C1855 1.429 . S
C1847 C1845 1.419 . S
C1847 C1848 1.363 . S
C1847 H1850 0.929 . S
C1848 C1847 1.363 . S
C1848 C1854 1.428 . S
H1849 C1845 0.930 . S
H1850 C1847 0.929 . S
S1851 N1852 1.613 . S
S1851 N1853 1.610 . S
N1852 S1851 1.613 . S
N1852 C1855 1.350 . S
N1853 S1851 1.610 . S
N1853 C1854 1.351 . S
C1854 C1848 1.428 . S
C1854 N1853 1.351 . S
C1854 C1855 1.434 . S
C1855 C1846 1.429 . S
C1855 N1852 1.350 . S
C1855 C1854 1.434 . S
C1856 C1857 1.369 . S
C1856 C1858 1.419 . S
C1856 H1860 0.930 . S
C1857 C1856 1.369 . S
C1857 C1866 1.429 . S
C1858 C1856 1.419 . S
C1858 C1859 1.363 . S
C1858 H1861 0.929 . S
C1859 C1858 1.363 . S
C1859 C1865 1.428 . S
H1860 C1856 0.930 . S
H1861 C1858 0.929 . S
S1862 N1863 1.613 1_554 S
S1862 N1864 1.610 . S
N1863 S1862 1.613 1_556 S
N1863 C1866 1.350 . S
N1864 S1862 1.610 . S
N1864 C1865 1.351 1_554 S
C1865 C1859 1.428 . S
C1865 N1864 1.351 1_556 S
C1865 C1866 1.434 . S
C1866 C1857 1.429 . S
C1866 N1863 1.350 . S
C1866 C1865 1.434 . S
C1867 C1868 1.369 . S
C1867 C1869 1.419 . S
C1867 H1871 0.930 . S
C1868 C1867 1.369 . S
C1868 C1877 1.429 . S
C1869 C1867 1.419 . S
C1869 C1870 1.363 . S
C1869 H1872 0.929 . S
C1870 C1869 1.363 . S
C1870 C1876 1.428 . S
H1871 C1867 0.930 . S
H1872 C1869 0.929 . S
S1873 N1874 1.613 . S
S1873 N1875 1.610 . S
N1874 S1873 1.613 . S
N1874 C1877 1.350 . S
N1875 S1873 1.610 . S
N1875 C1876 1.351 . S
C1876 C1870 1.428 . S
C1876 N1875 1.351 . S
C1876 C1877 1.434 . S
C1877 C1868 1.429 . S
C1877 N1874 1.350 . S
C1877 C1876 1.434 . S
C1878 C1879 1.369 . S
C1878 C1880 1.419 . S
C1878 H1882 0.930 . S
C1879 C1878 1.369 . S
C1879 C1888 1.429 . S
C1880 C1878 1.419 . S
C1880 C1881 1.363 . S
C1880 H1883 0.929 . S
C1881 C1880 1.363 . S
C1881 C1887 1.428 . S
H1882 C1878 0.930 . S
H1883 C1880 0.929 . S
S1884 N1885 1.613 . S
S1884 N1886 1.610 . S
N1885 S1884 1.613 . S
N1885 C1888 1.350 . S
N1886 S1884 1.610 . S
N1886 C1887 1.351 . S
C1887 C1881 1.428 . S
C1887 N1886 1.351 . S
C1887 C1888 1.434 . S
C1888 C1879 1.429 . S
C1888 N1885 1.350 . S
C1888 C1887 1.434 . S
C1889 C1890 1.369 . S
C1889 C1891 1.419 . S
C1889 H1893 0.930 . S
C1890 C1889 1.369 . S
C1890 C1899 1.429 . S
C1891 C1889 1.419 . S
C1891 C1892 1.363 . S
C1891 H1894 0.929 . S
C1892 C1891 1.363 . S
C1892 C1898 1.428 . S
H1893 C1889 0.930 . S
H1894 C1891 0.929 . S
S1895 N1896 1.613 . S
S1895 N1897 1.610 . S
N1896 S1895 1.613 . S
N1896 C1899 1.350 . S
N1897 S1895 1.610 . S
N1897 C1898 1.351 . S
C1898 C1892 1.428 . S
C1898 N1897 1.351 . S
C1898 C1899 1.434 . S
C1899 C1890 1.429 . S
C1899 N1896 1.350 . S
C1899 C1898 1.434 . S
C1900 C1901 1.369 . S
C1900 C1902 1.419 . S
C1900 H1904 0.930 . S
C1901 C1900 1.369 . S
C1901 C1910 1.429 . S
C1902 C1900 1.419 . S
C1902 C1903 1.363 . S
C1902 H1905 0.929 . S
C1903 C1902 1.363 . S
C1903 C1909 1.428 . S
H1904 C1900 0.930 . S
H1905 C1902 0.929 . S
S1906 N1907 1.613 . S
S1906 N1908 1.610 . S
N1907 S1906 1.613 . S
N1907 C1910 1.350 . S
N1908 S1906 1.610 . S
N1908 C1909 1.351 . S
C1909 C1903 1.428 . S
C1909 N1908 1.351 . S
C1909 C1910 1.434 . S
C1910 C1901 1.429 . S
C1910 N1907 1.350 . S
C1910 C1909 1.434 . S
C1911 C1912 1.369 . S
C1911 C1913 1.419 . S
C1911 H1915 0.930 . S
C1912 C1911 1.369 . S
C1912 C1921 1.429 . S
C1913 C1911 1.419 . S
C1913 C1914 1.363 . S
C1913 H1916 0.929 . S
C1914 C1913 1.363 . S
C1914 C1920 1.428 . S
H1915 C1911 0.930 . S
H1916 C1913 0.929 . S
S1917 N1918 1.613 . S
S1917 N1919 1.610 . S
N1918 S1917 1.613 . S
N1918 C1921 1.350 . S
N1919 S1917 1.610 . S
N1919 C1920 1.351 . S
C1920 C1914 1.428 . S
C1920 N1919 1.351 . S
C1920 C1921 1.434 . S
C1921 C1912 1.429 . S
C1921 N1918 1.350 . S
C1921 C1920 1.434 . S
C1922 C1923 1.369 . S
C1922 C1924 1.419 . S
C1922 H1926 0.930 . S
C1923 C1922 1.369 . S
C1923 C1932 1.429 . S
C1924 C1922 1.419 . S
C1924 C1925 1.363 . S
C1924 H1927 0.929 . S
C1925 C1924 1.363 . S
C1925 C1931 1.428 . S
H1926 C1922 0.930 . S
H1927 C1924 0.929 . S
S1928 N1929 1.613 . S
S1928 N1930 1.610 . S
N1929 S1928 1.613 . S
N1929 C1932 1.350 . S
N1930 S1928 1.610 . S
N1930 C1931 1.351 . S
C1931 C1925 1.428 . S
C1931 N1930 1.351 . S
C1931 C1932 1.434 . S
C1932 C1923 1.429 . S
C1932 N1929 1.350 . S
C1932 C1931 1.434 . S
C1933 C1934 1.369 . S
C1933 C1935 1.419 . S
C1933 H1937 0.930 . S
C1934 C1933 1.369 . S
C1934 C1943 1.429 . S
C1935 C1933 1.419 . S
C1935 C1936 1.363 . S
C1935 H1938 0.929 . S
C1936 C1935 1.363 . S
C1936 C1942 1.428 . S
H1937 C1933 0.930 . S
H1938 C1935 0.929 . S
S1939 N1940 1.613 . S
S1939 N1941 1.610 . S
N1940 S1939 1.613 . S
N1940 C1943 1.350 . S
N1941 S1939 1.610 . S
N1941 C1942 1.351 . S
C1942 C1936 1.428 . S
C1942 N1941 1.351 . S
C1942 C1943 1.434 . S
C1943 C1934 1.429 . S
C1943 N1940 1.350 . S
C1943 C1942 1.434 . S
C1944 C1945 1.369 . S
C1944 C1946 1.419 . S
C1944 H1948 0.930 . S
C1945 C1944 1.369 . S
C1945 C1954 1.429 1_556 S
C1946 C1944 1.419 . S
C1946 C1947 1.363 . S
C1946 H1949 0.929 . S
C1947 C1946 1.363 . S
C1947 C1953 1.428 . S
H1948 C1944 0.930 . S
H1949 C1946 0.929 . S
S1950 N1951 1.613 . S
S1950 N1952 1.610 . S
N1951 S1950 1.613 . S
N1951 C1954 1.350 . S
N1952 S1950 1.610 . S
N1952 C1953 1.351 1_554 S
C1953 C1947 1.428 . S
C1953 N1952 1.351 1_556 S
C1953 C1954 1.434 1_556 S
C1954 C1945 1.429 1_554 S
C1954 N1951 1.350 . S
C1954 C1953 1.434 1_554 S
C1955 C1956 1.369 . S
C1955 C1957 1.419 . S
C1955 H1959 0.930 . S
C1956 C1955 1.369 . S
C1956 C1965 1.429 . S
C1957 C1955 1.419 . S
C1957 C1958 1.363 . S
C1957 H1960 0.929 . S
C1958 C1957 1.363 . S
C1958 C1964 1.428 . S
H1959 C1955 0.930 . S
H1960 C1957 0.929 . S
S1961 N1962 1.613 . S
S1961 N1963 1.610 . S
N1962 S1961 1.613 . S
N1962 C1965 1.350 . S
N1963 S1961 1.610 . S
N1963 C1964 1.351 . S
C1964 C1958 1.428 . S
C1964 N1963 1.351 . S
C1964 C1965 1.434 . S
C1965 C1956 1.429 . S
C1965 N1962 1.350 . S
C1965 C1964 1.434 . S
C1966 C1967 1.369 . S
C1966 C1968 1.419 . S
C1966 H1970 0.930 . S
C1967 C1966 1.369 . S
C1967 C1976 1.429 . S
C1968 C1966 1.419 . S
C1968 C1969 1.363 . S
C1968 H1971 0.929 . S
C1969 C1968 1.363 . S
C1969 C1975 1.428 . S
H1970 C1966 0.930 . S
H1971 C1968 0.929 . S
S1972 N1973 1.613 . S
S1972 N1974 1.610 . S
N1973 S1972 1.613 . S
N1973 C1976 1.350 . S
N1974 S1972 1.610 . S
N1974 C1975 1.351 . S
C1975 C1969 1.428 . S
C1975 N1974 1.351 . S
C1975 C1976 1.434 . S
C1976 C1967 1.429 . S
C1976 N1973 1.350 . S
C1976 C1975 1.434 . S
C1977 C1978 1.369 . S
C1977 C1979 1.419 . S
C1977 H1981 0.930 . S
C1978 C1977 1.369 . S
C1978 C1987 1.429 . S
C1979 C1977 1.419 . S
C1979 C1980 1.363 . S
C1979 H1982 0.929 . S
C1980 C1979 1.363 . S
C1980 C1986 1.428 . S
H1981 C1977 0.930 . S
H1982 C1979 0.929 . S
S1983 N1984 1.613 . S
S1983 N1985 1.610 . S
N1984 S1983 1.613 . S
N1984 C1987 1.350 . S
N1985 S1983 1.610 . S
N1985 C1986 1.351 . S
C1986 C1980 1.428 . S
C1986 N1985 1.351 . S
C1986 C1987 1.434 . S
C1987 C1978 1.429 . S
C1987 N1984 1.350 . S
C1987 C1986 1.434 . S
C1988 C1989 1.369 . S
C1988 C1990 1.419 . S
C1988 H1992 0.930 . S
C1989 C1988 1.369 . S
C1989 C1998 1.429 . S
C1990 C1988 1.419 . S
C1990 C1991 1.363 . S
C1990 H1993 0.929 . S
C1991 C1990 1.363 . S
C1991 C1997 1.428 . S
H1992 C1988 0.930 . S
H1993 C1990 0.929 . S
S1994 N1995 1.613 . S
S1994 N1996 1.610 . S
N1995 S1994 1.613 . S
N1995 C1998 1.350 . S
N1996 S1994 1.610 . S
N1996 C1997 1.351 . S
C1997 C1991 1.428 . S
C1997 N1996 1.351 . S
C1997 C1998 1.434 . S
C1998 C1989 1.429 . S
C1998 N1995 1.350 . S
C1998 C1997 1.434 . S
C1999 C2000 1.369 . S
C1999 C2001 1.419 1_565 S
C1999 H2003 0.930 . S
C2000 C1999 1.369 . S
C2000 C2009 1.429 . S
C2001 C1999 1.419 1_545 S
C2001 C2002 1.363 . S
C2001 H2004 0.929 . S
C2002 C2001 1.363 . S
C2002 C2008 1.428 1_545 S
H2003 C1999 0.930 . S
H2004 C2001 0.929 . S
S2005 N2006 1.613 . S
S2005 N2007 1.610 . S
N2006 S2005 1.613 . S
N2006 C2009 1.350 . S
N2007 S2005 1.610 . S
N2007 C2008 1.351 . S
C2008 C2002 1.428 1_565 S
C2008 N2007 1.351 . S
C2008 C2009 1.434 . S
C2009 C2000 1.429 . S
C2009 N2006 1.350 . S
C2009 C2008 1.434 . S
C2010 C2011 1.369 . S
C2010 C2012 1.419 . S
C2010 H2014 0.930 . S
C2011 C2010 1.369 . S
C2011 C2020 1.429 . S
C2012 C2010 1.419 . S
C2012 C2013 1.363 . S
C2012 H2015 0.929 . S
C2013 C2012 1.363 . S
C2013 C2019 1.428 . S
H2014 C2010 0.930 . S
H2015 C2012 0.929 . S
S2016 N2017 1.613 . S
S2016 N2018 1.610 . S
N2017 S2016 1.613 . S
N2017 C2020 1.350 . S
N2018 S2016 1.610 . S
N2018 C2019 1.351 . S
C2019 C2013 1.428 . S
C2019 N2018 1.351 . S
C2019 C2020 1.434 . S
C2020 C2011 1.429 . S
C2020 N2017 1.350 . S
C2020 C2019 1.434 . S
C2021 C2022 1.369 . S
C2021 C2023 1.419 . S
C2021 H2025 0.930 . S
C2022 C2021 1.369 . S
C2022 C2031 1.429 . S
C2023 C2021 1.419 . S
C2023 C2024 1.363 . S
C2023 H2026 0.929 . S
C2024 C2023 1.363 . S
C2024 C2030 1.428 . S
H2025 C2021 0.930 . S
H2026 C2023 0.929 . S
S2027 N2028 1.613 . S
S2027 N2029 1.610 . S
N2028 S2027 1.613 . S
N2028 C2031 1.350 . S
N2029 S2027 1.610 . S
N2029 C2030 1.351 . S
C2030 C2024 1.428 . S
C2030 N2029 1.351 . S
C2030 C2031 1.434 . S
C2031 C2022 1.429 . S
C2031 N2028 1.350 . S
C2031 C2030 1.434 . S
C2032 C2033 1.369 . S
C2032 C2034 1.419 . S
C2032 H2036 0.930 . S
C2033 C2032 1.369 . S
C2033 C2042 1.429 . S
C2034 C2032 1.419 . S
C2034 C2035 1.363 . S
C2034 H2037 0.929 . S
C2035 C2034 1.363 . S
C2035 C2041 1.428 . S
H2036 C2032 0.930 . S
H2037 C2034 0.929 . S
S2038 N2039 1.613 . S
S2038 N2040 1.610 . S
N2039 S2038 1.613 . S
N2039 C2042 1.350 . S
N2040 S2038 1.610 . S
N2040 C2041 1.351 . S
C2041 C2035 1.428 . S
C2041 N2040 1.351 . S
C2041 C2042 1.434 . S
C2042 C2033 1.429 . S
C2042 N2039 1.350 . S
C2042 C2041 1.434 . S
C2043 C2044 1.369 . S
C2043 C2045 1.419 . S
C2043 H2047 0.930 . S
C2044 C2043 1.369 . S
C2044 C2053 1.429 . S
C2045 C2043 1.419 . S
C2045 C2046 1.363 . S
C2045 H2048 0.929 . S
C2046 C2045 1.363 . S
C2046 C2052 1.428 . S
H2047 C2043 0.930 . S
H2048 C2045 0.929 . S
S2049 N2050 1.613 . S
S2049 N2051 1.610 . S
N2050 S2049 1.613 . S
N2050 C2053 1.350 . S
N2051 S2049 1.610 . S
N2051 C2052 1.351 . S
C2052 C2046 1.428 . S
C2052 N2051 1.351 . S
C2052 C2053 1.434 . S
C2053 C2044 1.429 . S
C2053 N2050 1.350 . S
C2053 C2052 1.434 . S
C2054 C2055 1.369 . S
C2054 C2056 1.419 . S
C2054 H2058 0.927 1_455 S
C2055 C2054 1.369 . S
C2055 C2064 1.429 . S
C2056 C2054 1.419 . S
C2056 C2057 1.363 . S
C2056 H2059 0.929 . S
C2057 C2056 1.363 . S
C2057 C2063 1.428 . S
H2058 C2054 0.927 1_655 S
H2059 C2056 0.929 . S
S2060 N2061 1.613 1_554 S
S2060 N2062 1.610 . S
N2061 S2060 1.613 1_556 S
N2061 C2064 1.350 . S
N2062 S2060 1.610 . S
N2062 C2063 1.351 1_554 S
C2063 C2057 1.428 . S
C2063 N2062 1.351 1_556 S
C2063 C2064 1.434 . S
C2064 C2055 1.429 . S
C2064 N2061 1.350 . S
C2064 C2063 1.434 . S
C2065 C2066 1.369 . S
C2065 C2067 1.419 . S
C2065 H2069 0.930 . S
C2066 C2065 1.369 . S
C2066 C2075 1.429 . S
C2067 C2065 1.419 . S
C2067 C2068 1.363 1_455 S
C2067 H2070 0.929 . S
C2068 C2067 1.363 1_655 S
C2068 C2074 1.428 1_655 S
H2069 C2065 0.930 . S
H2070 C2067 0.929 . S
S2071 N2072 1.613 . S
S2071 N2073 1.610 1_455 S
N2072 S2071 1.613 . S
N2072 C2075 1.350 . S
N2073 S2071 1.610 1_655 S
N2073 C2074 1.351 1_655 S
C2074 C2068 1.428 1_455 S
C2074 N2073 1.351 1_455 S
C2074 C2075 1.434 . S
C2075 C2066 1.429 . S
C2075 N2072 1.350 . S
C2075 C2074 1.434 . S
C2076 C2077 1.369 . S
C2076 C2078 1.419 . S
C2076 H2080 0.930 . S
C2077 C2076 1.369 . S
C2077 C2086 1.429 . S
C2078 C2076 1.419 . S
C2078 C2079 1.363 . S
C2078 H2081 0.929 . S
C2079 C2078 1.363 . S
C2079 C2085 1.428 . S
H2080 C2076 0.930 . S
H2081 C2078 0.929 . S
S2082 N2083 1.613 . S
S2082 N2084 1.610 . S
N2083 S2082 1.613 . S
N2083 C2086 1.350 . S
N2084 S2082 1.610 . S
N2084 C2085 1.351 . S
C2085 C2079 1.428 . S
C2085 N2084 1.351 . S
C2085 C2086 1.434 . S
C2086 C2077 1.429 . S
C2086 N2083 1.350 . S
C2086 C2085 1.434 . S
C2087 C2088 1.369 . S
C2087 C2089 1.419 . S
C2087 H2091 0.930 . S
C2088 C2087 1.369 . S
C2088 C2097 1.429 . S
C2089 C2087 1.419 . S
C2089 C2090 1.363 . S
C2089 H2092 0.929 . S
C2090 C2089 1.363 . S
C2090 C2096 1.428 . S
H2091 C2087 0.930 . S
H2092 C2089 0.929 . S
S2093 N2094 1.613 . S
S2093 N2095 1.610 . S
N2094 S2093 1.613 . S
N2094 C2097 1.350 . S
N2095 S2093 1.610 . S
N2095 C2096 1.351 . S
C2096 C2090 1.428 . S
C2096 N2095 1.351 . S
C2096 C2097 1.434 . S
C2097 C2088 1.429 . S
C2097 N2094 1.350 . S
C2097 C2096 1.434 . S
C2098 C2099 1.369 . S
C2098 C2100 1.419 . S
C2098 H2102 0.930 . S
C2099 C2098 1.369 . S
C2099 C2108 1.429 . S
C2100 C2098 1.419 . S
C2100 C2101 1.363 . S
C2100 H2103 0.929 . S
C2101 C2100 1.363 . S
C2101 C2107 1.428 . S
H2102 C2098 0.930 . S
H2103 C2100 0.929 . S
S2104 N2105 1.613 . S
S2104 N2106 1.610 . S
N2105 S2104 1.613 . S
N2105 C2108 1.350 1_655 S
N2106 S2104 1.610 . S
N2106 C2107 1.351 1_655 S
C2107 C2101 1.428 . S
C2107 N2106 1.351 1_455 S
C2107 C2108 1.434 . S
C2108 C2099 1.429 . S
C2108 N2105 1.350 1_455 S
C2108 C2107 1.434 . S
C2109 C2110 1.369 . S
C2109 C2111 1.419 . S
C2109 H2113 0.930 . S
C2110 C2109 1.369 . S
C2110 C2119 1.429 . S
C2111 C2109 1.419 . S
C2111 C2112 1.363 . S
C2111 H2114 0.929 . S
C2112 C2111 1.363 . S
C2112 C2118 1.428 . S
H2113 C2109 0.930 . S
H2114 C2111 0.929 . S
S2115 N2116 1.613 . S
S2115 N2117 1.610 . S
N2116 S2115 1.613 . S
N2116 C2119 1.350 . S
N2117 S2115 1.610 . S
N2117 C2118 1.351 . S
C2118 C2112 1.428 . S
C2118 N2117 1.351 . S
C2118 C2119 1.434 . S
C2119 C2110 1.429 . S
C2119 N2116 1.350 . S
C2119 C2118 1.434 . S
C2120 C2121 1.369 . S
C2120 C2122 1.419 . S
C2120 H2124 0.930 . S
C2121 C2120 1.369 . S
C2121 C2130 1.429 . S
C2122 C2120 1.419 . S
C2122 C2123 1.363 . S
C2122 H2125 0.929 . S
C2123 C2122 1.363 . S
C2123 C2129 1.428 . S
H2124 C2120 0.930 . S
H2125 C2122 0.929 . S
S2126 N2127 1.613 . S
S2126 N2128 1.610 . S
N2127 S2126 1.613 . S
N2127 C2130 1.350 . S
N2128 S2126 1.610 . S
N2128 C2129 1.351 . S
C2129 C2123 1.428 . S
C2129 N2128 1.351 . S
C2129 C2130 1.434 . S
C2130 C2121 1.429 . S
C2130 N2127 1.350 . S
C2130 C2129 1.434 . S
C2131 C2132 1.369 . S
C2131 C2133 1.419 . S
C2131 H2135 0.930 . S
C2132 C2131 1.369 . S
C2132 C2141 1.429 . S
C2133 C2131 1.419 . S
C2133 C2134 1.363 . S
C2133 H2136 0.929 . S
C2134 C2133 1.363 . S
C2134 C2140 1.428 . S
H2135 C2131 0.930 . S
H2136 C2133 0.929 . S
S2137 N2138 1.613 . S
S2137 N2139 1.610 . S
N2138 S2137 1.613 . S
N2138 C2141 1.350 . S
N2139 S2137 1.610 . S
N2139 C2140 1.351 . S
C2140 C2134 1.428 . S
C2140 N2139 1.351 . S
C2140 C2141 1.434 . S
C2141 C2132 1.429 . S
C2141 N2138 1.350 . S
C2141 C2140 1.434 . S
C2142 C2143 1.369 . S
C2142 C2144 1.419 . S
C2142 H2146 0.930 . S
C2143 C2142 1.369 . S
C2143 C2152 1.429 . S
C2144 C2142 1.419 . S
C2144 C2145 1.363 . S
C2144 H2147 0.929 . S
C2145 C2144 1.363 . S
C2145 C2151 1.428 . S
H2146 C2142 0.930 . S
H2147 C2144 0.929 . S
S2148 N2149 1.613 . S
S2148 N2150 1.610 . S
N2149 S2148 1.613 . S
N2149 C2152 1.350 . S
N2150 S2148 1.610 . S
N2150 C2151 1.351 . S
C2151 C2145 1.428 . S
C2151 N2150 1.351 . S
C2151 C2152 1.434 . S
C2152 C2143 1.429 . S
C2152 N2149 1.350 . S
C2152 C2151 1.434 . S
C2153 C2154 1.369 . S
C2153 C2155 1.419 . S
C2153 H2157 0.930 . S
C2154 C2153 1.369 . S
C2154 C2163 1.429 . S
C2155 C2153 1.419 . S
C2155 C2156 1.363 . S
C2155 H2158 0.929 . S
C2156 C2155 1.363 . S
C2156 C2162 1.428 . S
H2157 C2153 0.930 . S
H2158 C2155 0.929 . S
S2159 N2160 1.613 . S
S2159 N2161 1.610 . S
N2160 S2159 1.613 . S
N2160 C2163 1.350 . S
N2161 S2159 1.610 . S
N2161 C2162 1.351 . S
C2162 C2156 1.428 . S
C2162 N2161 1.351 . S
C2162 C2163 1.434 . S
C2163 C2154 1.429 . S
C2163 N2160 1.350 . S
C2163 C2162 1.434 . S
C2164 C2165 1.369 . S
C2164 C2166 1.419 . S
C2164 H2168 0.930 . S
C2165 C2164 1.369 . S
C2165 C2174 1.429 . S
C2166 C2164 1.419 . S
C2166 C2167 1.363 . S
C2166 H2169 0.929 . S
C2167 C2166 1.363 . S
C2167 C2173 1.428 . S
H2168 C2164 0.930 . S
H2169 C2166 0.929 . S
S2170 N2171 1.613 . S
S2170 N2172 1.610 . S
N2171 S2170 1.613 . S
N2171 C2174 1.350 . S
N2172 S2170 1.610 . S
N2172 C2173 1.351 . S
C2173 C2167 1.428 . S
C2173 N2172 1.351 . S
C2173 C2174 1.434 . S
C2174 C2165 1.429 . S
C2174 N2171 1.350 . S
C2174 C2173 1.434 . S
C2175 C2176 1.369 . S
C2175 C2177 1.419 . S
C2175 H2179 0.930 . S
C2176 C2175 1.369 . S
C2176 C2185 1.429 . S
C2177 C2175 1.419 . S
C2177 C2178 1.363 . S
C2177 H2180 0.929 . S
C2178 C2177 1.363 . S
C2178 C2184 1.428 . S
H2179 C2175 0.930 . S
H2180 C2177 0.929 . S
S2181 N2182 1.613 . S
S2181 N2183 1.610 . S
N2182 S2181 1.613 . S
N2182 C2185 1.350 . S
N2183 S2181 1.610 . S
N2183 C2184 1.351 . S
C2184 C2178 1.428 . S
C2184 N2183 1.351 . S
C2184 C2185 1.434 . S
C2185 C2176 1.429 . S
C2185 N2182 1.350 . S
C2185 C2184 1.434 . S
C2186 C2187 1.369 . S
C2186 C2188 1.419 . S
C2186 H2190 0.930 . S
C2187 C2186 1.369 . S
C2187 C2196 1.429 . S
C2188 C2186 1.419 . S
C2188 C2189 1.363 . S
C2188 H2191 0.929 . S
C2189 C2188 1.363 . S
C2189 C2195 1.428 . S
H2190 C2186 0.930 . S
H2191 C2188 0.929 . S
S2192 N2193 1.613 . S
S2192 N2194 1.610 . S
N2193 S2192 1.613 . S
N2193 C2196 1.350 . S
N2194 S2192 1.610 . S
N2194 C2195 1.351 . S
C2195 C2189 1.428 . S
C2195 N2194 1.351 . S
C2195 C2196 1.434 . S
C2196 C2187 1.429 . S
C2196 N2193 1.350 . S
C2196 C2195 1.434 . S
C2197 C2198 1.369 . S
C2197 C2199 1.419 . S
C2197 H2201 0.930 . S
C2198 C2197 1.369 . S
C2198 C2207 1.429 . S
C2199 C2197 1.419 . S
C2199 C2200 1.363 . S
C2199 H2202 0.929 . S
C2200 C2199 1.363 . S
C2200 C2206 1.428 . S
H2201 C2197 0.930 . S
H2202 C2199 0.929 . S
S2203 N2204 1.613 . S
S2203 N2205 1.610 . S
N2204 S2203 1.613 . S
N2204 C2207 1.350 . S
N2205 S2203 1.610 . S
N2205 C2206 1.351 . S
C2206 C2200 1.428 . S
C2206 N2205 1.351 . S
C2206 C2207 1.434 . S
C2207 C2198 1.429 . S
C2207 N2204 1.350 . S
C2207 C2206 1.434 . S
C2208 C2209 1.369 . S
C2208 C2210 1.419 . S
C2208 H2212 0.930 . S
C2209 C2208 1.369 . S
C2209 C2218 1.429 . S
C2210 C2208 1.419 . S
C2210 C2211 1.363 . S
C2210 H2213 0.929 . S
C2211 C2210 1.363 . S
C2211 C2217 1.428 . S
H2212 C2208 0.930 . S
H2213 C2210 0.929 . S
S2214 N2215 1.613 . S
S2214 N2216 1.610 . S
N2215 S2214 1.613 . S
N2215 C2218 1.350 . S
N2216 S2214 1.610 . S
N2216 C2217 1.351 . S
C2217 C2211 1.428 . S
C2217 N2216 1.351 . S
C2217 C2218 1.434 . S
C2218 C2209 1.429 . S
C2218 N2215 1.350 . S
C2218 C2217 1.434 . S
C2219 C2220 1.369 . S
C2219 C2221 1.419 . S
C2219 H2223 0.930 . S
C2220 C2219 1.369 . S
C2220 C2229 1.429 . S
C2221 C2219 1.419 . S
C2221 C2222 1.363 . S
C2221 H2224 0.929 . S
C2222 C2221 1.363 . S
C2222 C2228 1.428 . S
H2223 C2219 0.930 . S
H2224 C2221 0.929 . S
S2225 N2226 1.613 . S
S2225 N2227 1.610 . S
N2226 S2225 1.613 . S
N2226 C2229 1.350 . S
N2227 S2225 1.610 . S
N2227 C2228 1.351 . S
C2228 C2222 1.428 . S
C2228 N2227 1.351 . S
C2228 C2229 1.434 . S
C2229 C2220 1.429 . S
C2229 N2226 1.350 . S
C2229 C2228 1.434 . S
C2230 C2231 1.369 . S
C2230 C2232 1.419 1_545 S
C2230 H2234 0.930 . S
C2231 C2230 1.369 . S
C2231 C2240 1.429 . S
C2232 C2230 1.419 1_565 S
C2232 C2233 1.363 . S
C2232 H2235 0.929 . S
C2233 C2232 1.363 . S
C2233 C2239 1.428 1_565 S
H2234 C2230 0.930 . S
H2235 C2232 0.929 . S
S2236 N2237 1.613 . S
S2236 N2238 1.610 . S
N2237 S2236 1.613 . S
N2237 C2240 1.350 . S
N2238 S2236 1.610 . S
N2238 C2239 1.351 . S
C2239 C2233 1.428 1_545 S
C2239 N2238 1.351 . S
C2239 C2240 1.434 . S
C2240 C2231 1.429 . S
C2240 N2237 1.350 . S
C2240 C2239 1.434 . S
C2241 C2242 1.369 . S
C2241 C2243 1.419 . S
C2241 H2245 0.930 . S
C2242 C2241 1.369 . S
C2242 C2251 1.429 . S
C2243 C2241 1.419 . S
C2243 C2244 1.363 1_565 S
C2243 H2246 0.929 1_565 S
C2244 C2243 1.363 1_545 S
C2244 C2250 1.428 1_545 S
H2245 C2241 0.930 . S
H2246 C2243 0.929 1_545 S
S2247 N2248 1.613 1_556 S
S2247 N2249 1.610 . S
N2248 S2247 1.613 1_554 S
N2248 C2251 1.350 . S
N2249 S2247 1.610 . S
N2249 C2250 1.351 1_556 S
C2250 C2244 1.428 1_565 S
C2250 N2249 1.351 1_554 S
C2250 C2251 1.434 . S
C2251 C2242 1.429 . S
C2251 N2248 1.350 . S
C2251 C2250 1.434 . S
C2252 C2253 1.369 . S
C2252 C2254 1.419 . S
C2252 H2256 0.930 . S
C2253 C2252 1.369 . S
C2253 C2262 1.429 . S
C2254 C2252 1.419 . S
C2254 C2255 1.363 . S
C2254 H2257 0.929 . S
C2255 C2254 1.363 . S
C2255 C2261 1.428 . S
H2256 C2252 0.930 . S
H2257 C2254 0.929 . S
S2258 N2259 1.613 . S
S2258 N2260 1.610 . S
N2259 S2258 1.613 . S
N2259 C2262 1.350 . S
N2260 S2258 1.610 . S
N2260 C2261 1.351 . S
C2261 C2255 1.428 . S
C2261 N2260 1.351 . S
C2261 C2262 1.434 . S
C2262 C2253 1.429 . S
C2262 N2259 1.350 . S
C2262 C2261 1.434 . S
C2263 C2264 1.369 . S
C2263 C2265 1.419 . S
C2263 H2267 0.930 . S
C2264 C2263 1.369 . S
C2264 C2273 1.429 . S
C2265 C2263 1.419 . S
C2265 C2266 1.363 . S
C2265 H2268 0.929 . S
C2266 C2265 1.363 . S
C2266 C2272 1.428 . S
H2267 C2263 0.930 . S
H2268 C2265 0.929 . S
S2269 N2270 1.613 . S
S2269 N2271 1.610 . S
N2270 S2269 1.613 . S
N2270 C2273 1.350 . S
N2271 S2269 1.610 . S
N2271 C2272 1.351 . S
C2272 C2266 1.428 . S
C2272 N2271 1.351 . S
C2272 C2273 1.434 . S
C2273 C2264 1.429 . S
C2273 N2270 1.350 . S
C2273 C2272 1.434 . S
C2274 C2275 1.369 . S
C2274 C2276 1.419 . S
C2274 H2278 0.930 . S
C2275 C2274 1.369 . S
C2275 C2284 1.429 . S
C2276 C2274 1.419 . S
C2276 C2277 1.363 . S
C2276 H2279 0.929 . S
C2277 C2276 1.363 . S
C2277 C2283 1.428 . S
H2278 C2274 0.930 . S
H2279 C2276 0.929 . S
S2280 N2281 1.613 . S
S2280 N2282 1.610 . S
N2281 S2280 1.613 . S
N2281 C2284 1.350 . S
N2282 S2280 1.610 . S
N2282 C2283 1.351 . S
C2283 C2277 1.428 . S
C2283 N2282 1.351 . S
C2283 C2284 1.434 . S
C2284 C2275 1.429 . S
C2284 N2281 1.350 . S
C2284 C2283 1.434 . S
C2285 C2286 1.369 . S
C2285 C2287 1.419 . S
C2285 H2289 0.930 . S
C2286 C2285 1.369 . S
C2286 C2295 1.429 1_545 S
C2287 C2285 1.419 . S
C2287 C2288 1.363 1_545 S
C2287 H2290 0.929 . S
C2288 C2287 1.363 1_565 S
C2288 C2294 1.428 . S
H2289 C2285 0.930 . S
H2290 C2287 0.929 . S
S2291 N2292 1.613 . S
S2291 N2293 1.610 . S
N2292 S2291 1.613 . S
N2292 C2295 1.350 . S
N2293 S2291 1.610 . S
N2293 C2294 1.351 . S
C2294 C2288 1.428 . S
C2294 N2293 1.351 . S
C2294 C2295 1.434 . S
C2295 C2286 1.429 1_565 S
C2295 N2292 1.350 . S
C2295 C2294 1.434 . S
C2296 C2297 1.369 . S
C2296 C2298 1.419 . S
C2296 H2300 0.930 . S
C2297 C2296 1.369 . S
C2297 C2306 1.429 . S
C2298 C2296 1.419 . S
C2298 C2299 1.363 . S
C2298 H2301 0.929 . S
C2299 C2298 1.363 . S
C2299 C2305 1.428 . S
H2300 C2296 0.930 . S
H2301 C2298 0.929 . S
S2302 N2303 1.613 . S
S2302 N2304 1.610 . S
N2303 S2302 1.613 . S
N2303 C2306 1.350 . S
N2304 S2302 1.610 . S
N2304 C2305 1.351 . S
C2305 C2299 1.428 . S
C2305 N2304 1.351 . S
C2305 C2306 1.434 . S
C2306 C2297 1.429 . S
C2306 N2303 1.350 . S
C2306 C2305 1.434 . S
C2307 C2308 1.369 . S
C2307 C2309 1.419 . S
C2307 H2311 0.930 . S
C2308 C2307 1.369 . S
C2308 C2317 1.429 . S
C2309 C2307 1.419 . S
C2309 C2310 1.363 . S
C2309 H2312 0.929 . S
C2310 C2309 1.363 . S
C2310 C2316 1.428 . S
H2311 C2307 0.930 . S
H2312 C2309 0.929 . S
S2313 N2314 1.613 . S
S2313 N2315 1.610 . S
N2314 S2313 1.613 . S
N2314 C2317 1.350 . S
N2315 S2313 1.610 . S
N2315 C2316 1.351 . S
C2316 C2310 1.428 . S
C2316 N2315 1.351 . S
C2316 C2317 1.434 . S
C2317 C2308 1.429 . S
C2317 N2314 1.350 . S
C2317 C2316 1.434 . S
C2318 C2319 1.369 . S
C2318 C2320 1.419 . S
C2318 H2322 0.930 . S
C2319 C2318 1.369 . S
C2319 C2328 1.429 . S
C2320 C2318 1.419 . S
C2320 C2321 1.363 . S
C2320 H2323 0.929 . S
C2321 C2320 1.363 . S
C2321 C2327 1.428 . S
H2322 C2318 0.930 . S
H2323 C2320 0.929 . S
S2324 N2325 1.613 . S
S2324 N2326 1.610 . S
N2325 S2324 1.613 . S
N2325 C2328 1.350 . S
N2326 S2324 1.610 . S
N2326 C2327 1.351 . S
C2327 C2321 1.428 . S
C2327 N2326 1.351 . S
C2327 C2328 1.434 . S
C2328 C2319 1.429 . S
C2328 N2325 1.350 . S
C2328 C2327 1.434 . S
C2329 C2330 1.369 . S
C2329 C2331 1.419 . S
C2329 H2333 0.930 . S
C2330 C2329 1.369 . S
C2330 C2339 1.429 . S
C2331 C2329 1.419 . S
C2331 C2332 1.363 . S
C2331 H2334 0.929 . S
C2332 C2331 1.363 . S
C2332 C2338 1.428 . S
H2333 C2329 0.930 . S
H2334 C2331 0.929 . S
S2335 N2336 1.613 . S
S2335 N2337 1.610 . S
N2336 S2335 1.613 . S
N2336 C2339 1.350 . S
N2337 S2335 1.610 . S
N2337 C2338 1.351 . S
C2338 C2332 1.428 . S
C2338 N2337 1.351 . S
C2338 C2339 1.434 . S
C2339 C2330 1.429 . S
C2339 N2336 1.350 . S
C2339 C2338 1.434 . S
C2340 C2341 1.369 . S
C2340 C2342 1.419 . S
C2340 H2344 0.930 . S
C2341 C2340 1.369 . S
C2341 C2350 1.429 . S
C2342 C2340 1.419 . S
C2342 C2343 1.363 . S
C2342 H2345 0.929 . S
C2343 C2342 1.363 . S
C2343 C2349 1.428 . S
H2344 C2340 0.930 . S
H2345 C2342 0.929 . S
S2346 N2347 1.613 1_554 S
S2346 N2348 1.610 . S
N2347 S2346 1.613 1_556 S
N2347 C2350 1.350 . S
N2348 S2346 1.610 . S
N2348 C2349 1.351 1_554 S
C2349 C2343 1.428 . S
C2349 N2348 1.351 1_556 S
C2349 C2350 1.434 . S
C2350 C2341 1.429 . S
C2350 N2347 1.350 . S
C2350 C2349 1.434 . S
C2351 C2352 1.369 . S
C2351 C2353 1.419 . S
C2351 H2355 0.930 . S
C2352 C2351 1.369 . S
C2352 C2361 1.429 . S
C2353 C2351 1.419 . S
C2353 C2354 1.363 . S
C2353 H2356 0.929 . S
C2354 C2353 1.363 . S
C2354 C2360 1.428 . S
H2355 C2351 0.930 . S
H2356 C2353 0.929 . S
S2357 N2358 1.613 . S
S2357 N2359 1.610 . S
N2358 S2357 1.613 . S
N2358 C2361 1.350 . S
N2359 S2357 1.610 . S
N2359 C2360 1.351 . S
C2360 C2354 1.428 . S
C2360 N2359 1.351 . S
C2360 C2361 1.434 . S
C2361 C2352 1.429 . S
C2361 N2358 1.350 . S
C2361 C2360 1.434 . S
C2362 C2363 1.369 . S
C2362 C2364 1.419 . S
C2362 H2366 0.930 . S
C2363 C2362 1.369 . S
C2363 C2372 1.429 . S
C2364 C2362 1.419 . S
C2364 C2365 1.363 . S
C2364 H2367 0.929 . S
C2365 C2364 1.363 . S
C2365 C2371 1.428 . S
H2366 C2362 0.930 . S
H2367 C2364 0.929 . S
S2368 N2369 1.613 . S
S2368 N2370 1.610 . S
N2369 S2368 1.613 . S
N2369 C2372 1.350 . S
N2370 S2368 1.610 . S
N2370 C2371 1.351 . S
C2371 C2365 1.428 . S
C2371 N2370 1.351 . S
C2371 C2372 1.434 . S
C2372 C2363 1.429 . S
C2372 N2369 1.350 . S
C2372 C2371 1.434 . S
C2373 C2374 1.369 . S
C2373 C2375 1.419 . S
C2373 H2377 0.930 . S
C2374 C2373 1.369 . S
C2374 C2383 1.429 . S
C2375 C2373 1.419 . S
C2375 C2376 1.363 . S
C2375 H2378 0.929 . S
C2376 C2375 1.363 . S
C2376 C2382 1.428 . S
H2377 C2373 0.930 . S
H2378 C2375 0.929 . S
S2379 N2380 1.613 . S
S2379 N2381 1.610 . S
N2380 S2379 1.613 . S
N2380 C2383 1.350 . S
N2381 S2379 1.610 . S
N2381 C2382 1.351 . S
C2382 C2376 1.428 . S
C2382 N2381 1.351 . S
C2382 C2383 1.434 . S
C2383 C2374 1.429 . S
C2383 N2380 1.350 . S
C2383 C2382 1.434 . S
C2384 C2385 1.369 . S
C2384 C2386 1.419 . S
C2384 H2388 0.930 . S
C2385 C2384 1.369 . S
C2385 C2394 1.429 . S
C2386 C2384 1.419 . S
C2386 C2387 1.363 . S
C2386 H2389 0.929 . S
C2387 C2386 1.363 . S
C2387 C2393 1.428 . S
H2388 C2384 0.930 . S
H2389 C2386 0.929 . S
S2390 N2391 1.613 . S
S2390 N2392 1.610 . S
N2391 S2390 1.613 . S
N2391 C2394 1.350 . S
N2392 S2390 1.610 . S
N2392 C2393 1.351 . S
C2393 C2387 1.428 . S
C2393 N2392 1.351 . S
C2393 C2394 1.434 . S
C2394 C2385 1.429 . S
C2394 N2391 1.350 . S
C2394 C2393 1.434 . S
C2395 C2396 1.369 . S
C2395 C2397 1.419 . S
C2395 H2399 0.930 . S
C2396 C2395 1.369 . S
C2396 C2405 1.429 . S
C2397 C2395 1.419 . S
C2397 C2398 1.363 . S
C2397 H2400 0.929 . S
C2398 C2397 1.363 . S
C2398 C2404 1.428 . S
H2399 C2395 0.930 . S
H2400 C2397 0.929 . S
S2401 N2402 1.613 . S
S2401 N2403 1.610 . S
N2402 S2401 1.613 . S
N2402 C2405 1.350 . S
N2403 S2401 1.610 . S
N2403 C2404 1.351 . S
C2404 C2398 1.428 . S
C2404 N2403 1.351 . S
C2404 C2405 1.434 . S
C2405 C2396 1.429 . S
C2405 N2402 1.350 . S
C2405 C2404 1.434 . S
C2406 C2407 1.369 . S
C2406 C2408 1.419 . S
C2406 H2410 0.930 . S
C2407 C2406 1.369 . S
C2407 C2416 1.429 . S
C2408 C2406 1.419 . S
C2408 C2409 1.363 . S
C2408 H2411 0.929 . S
C2409 C2408 1.363 . S
C2409 C2415 1.428 . S
H2410 C2406 0.930 . S
H2411 C2408 0.929 . S
S2412 N2413 1.613 . S
S2412 N2414 1.610 . S
N2413 S2412 1.613 . S
N2413 C2416 1.350 . S
N2414 S2412 1.610 . S
N2414 C2415 1.351 . S
C2415 C2409 1.428 . S
C2415 N2414 1.351 . S
C2415 C2416 1.434 . S
C2416 C2407 1.429 . S
C2416 N2413 1.350 . S
C2416 C2415 1.434 . S
C2417 C2418 1.369 . S
C2417 C2419 1.419 . S
C2417 H2421 0.930 . S
C2418 C2417 1.369 . S
C2418 C2427 1.429 . S
C2419 C2417 1.419 . S
C2419 C2420 1.363 . S
C2419 H2422 0.929 . S
C2420 C2419 1.363 . S
C2420 C2426 1.428 . S
H2421 C2417 0.930 . S
H2422 C2419 0.929 . S
S2423 N2424 1.613 . S
S2423 N2425 1.610 . S
N2424 S2423 1.613 . S
N2424 C2427 1.350 . S
N2425 S2423 1.610 . S
N2425 C2426 1.351 . S
C2426 C2420 1.428 . S
C2426 N2425 1.351 . S
C2426 C2427 1.434 . S
C2427 C2418 1.429 . S
C2427 N2424 1.350 . S
C2427 C2426 1.434 . S
C2428 C2429 1.369 . S
C2428 C2430 1.419 . S
C2428 H2432 0.930 . S
C2429 C2428 1.369 . S
C2429 C2438 1.429 . S
C2430 C2428 1.419 . S
C2430 C2431 1.363 . S
C2430 H2433 0.929 . S
C2431 C2430 1.363 . S
C2431 C2437 1.428 . S
H2432 C2428 0.930 . S
H2433 C2430 0.929 . S
S2434 N2435 1.613 . S
S2434 N2436 1.610 . S
N2435 S2434 1.613 . S
N2435 C2438 1.350 . S
N2436 S2434 1.610 . S
N2436 C2437 1.351 . S
C2437 C2431 1.428 . S
C2437 N2436 1.351 . S
C2437 C2438 1.434 . S
C2438 C2429 1.429 . S
C2438 N2435 1.350 . S
C2438 C2437 1.434 . S
C2439 C2440 1.369 . S
C2439 C2441 1.419 . S
C2439 H2443 0.930 . S
C2440 C2439 1.369 . S
C2440 C2449 1.429 . S
C2441 C2439 1.419 . S
C2441 C2442 1.363 . S
C2441 H2444 0.929 . S
C2442 C2441 1.363 . S
C2442 C2448 1.428 . S
H2443 C2439 0.930 . S
H2444 C2441 0.929 . S
S2445 N2446 1.613 . S
S2445 N2447 1.610 . S
N2446 S2445 1.613 . S
N2446 C2449 1.350 . S
N2447 S2445 1.610 . S
N2447 C2448 1.351 . S
C2448 C2442 1.428 . S
C2448 N2447 1.351 . S
C2448 C2449 1.434 . S
C2449 C2440 1.429 . S
C2449 N2446 1.350 . S
C2449 C2448 1.434 . S
C2450 C2451 1.369 . S
C2450 C2452 1.419 . S
C2450 H2454 0.930 1_455 S
C2451 C2450 1.369 . S
C2451 C2460 1.429 . S
C2452 C2450 1.419 . S
C2452 C2453 1.363 . S
C2452 H2455 0.929 1_455 S
C2453 C2452 1.363 . S
C2453 C2459 1.428 . S
H2454 C2450 0.930 1_655 S
H2455 C2452 0.929 1_655 S
S2456 N2457 1.613 . S
S2456 N2458 1.610 . S
N2457 S2456 1.613 . S
N2457 C2460 1.350 . S
N2458 S2456 1.610 . S
N2458 C2459 1.351 . S
C2459 C2453 1.428 . S
C2459 N2458 1.351 . S
C2459 C2460 1.434 . S
C2460 C2451 1.429 . S
C2460 N2457 1.350 . S
C2460 C2459 1.434 . S
C2461 C2462 1.369 . S
C2461 C2463 1.419 . S
C2461 H2465 0.930 . S
C2462 C2461 1.369 . S
C2462 C2471 1.429 . S
C2463 C2461 1.419 . S
C2463 C2464 1.363 . S
C2463 H2466 0.929 . S
C2464 C2463 1.363 . S
C2464 C2470 1.428 . S
H2465 C2461 0.930 . S
H2466 C2463 0.929 . S
S2467 N2468 1.613 . S
S2467 N2469 1.610 . S
N2468 S2467 1.613 . S
N2468 C2471 1.350 . S
N2469 S2467 1.610 . S
N2469 C2470 1.351 . S
C2470 C2464 1.428 . S
C2470 N2469 1.351 . S
C2470 C2471 1.434 . S
C2471 C2462 1.429 . S
C2471 N2468 1.350 . S
C2471 C2470 1.434 . S
C2472 C2473 1.369 . S
C2472 C2474 1.419 . S
C2472 H2476 0.930 . S
C2473 C2472 1.369 . S
C2473 C2482 1.429 . S
C2474 C2472 1.419 . S
C2474 C2475 1.363 . S
C2474 H2477 0.929 . S
C2475 C2474 1.363 . S
C2475 C2481 1.428 . S
H2476 C2472 0.930 . S
H2477 C2474 0.929 . S
S2478 N2479 1.613 . S
S2478 N2480 1.610 . S
N2479 S2478 1.613 . S
N2479 C2482 1.350 . S
N2480 S2478 1.610 . S
N2480 C2481 1.351 . S
C2481 C2475 1.428 . S
C2481 N2480 1.351 . S
C2481 C2482 1.434 . S
C2482 C2473 1.429 . S
C2482 N2479 1.350 . S
C2482 C2481 1.434 . S
C2483 C2484 1.369 1_545 S
C2483 C2485 1.419 . S
C2483 H2487 0.930 . S
C2484 C2483 1.369 1_565 S
C2484 C2493 1.429 . S
C2485 C2483 1.419 . S
C2485 C2486 1.363 . S
C2485 H2488 0.929 . S
C2486 C2485 1.363 . S
C2486 C2492 1.428 1_545 S
H2487 C2483 0.930 . S
H2488 C2485 0.929 . S
S2489 N2490 1.613 . S
S2489 N2491 1.610 . S
N2490 S2489 1.613 . S
N2490 C2493 1.350 . S
N2491 S2489 1.610 . S
N2491 C2492 1.351 . S
C2492 C2486 1.428 1_565 S
C2492 N2491 1.351 . S
C2492 C2493 1.434 . S
C2493 C2484 1.429 . S
C2493 N2490 1.350 . S
C2493 C2492 1.434 . S
C2494 C2495 1.369 . S
C2494 C2496 1.419 . S
C2494 H2498 0.930 . S
C2495 C2494 1.369 . S
C2495 C2504 1.429 . S
C2496 C2494 1.419 . S
C2496 C2497 1.363 . S
C2496 H2499 0.929 . S
C2497 C2496 1.363 . S
C2497 C2503 1.428 . S
H2498 C2494 0.930 . S
H2499 C2496 0.929 . S
S2500 N2501 1.613 . S
S2500 N2502 1.610 . S
N2501 S2500 1.613 . S
N2501 C2504 1.350 . S
N2502 S2500 1.610 . S
N2502 C2503 1.351 . S
C2503 C2497 1.428 . S
C2503 N2502 1.351 . S
C2503 C2504 1.434 . S
C2504 C2495 1.429 . S
C2504 N2501 1.350 . S
C2504 C2503 1.434 . S
C2505 C2506 1.369 1_554 S
C2505 C2507 1.419 . S
C2505 H2509 0.930 . S
C2506 C2505 1.369 1_556 S
C2506 C2515 1.429 . S
C2507 C2505 1.419 . S
C2507 C2508 1.363 . S
C2507 H2510 0.929 . S
C2508 C2507 1.363 . S
C2508 C2514 1.428 1_554 S
H2509 C2505 0.930 . S
H2510 C2507 0.929 . S
S2511 N2512 1.613 . S
S2511 N2513 1.610 . S
N2512 S2511 1.613 . S
N2512 C2515 1.350 . S
N2513 S2511 1.610 . S
N2513 C2514 1.351 . S
C2514 C2508 1.428 1_556 S
C2514 N2513 1.351 . S
C2514 C2515 1.434 . S
C2515 C2506 1.429 . S
C2515 N2512 1.350 . S
C2515 C2514 1.434 . S
C2516 C2517 1.369 . S
C2516 C2518 1.419 . S
C2516 H2520 0.930 . S
C2517 C2516 1.369 . S
C2517 C2526 1.429 . S
C2518 C2516 1.419 . S
C2518 C2519 1.363 . S
C2518 H2521 0.929 . S
C2519 C2518 1.363 . S
C2519 C2525 1.428 . S
H2520 C2516 0.930 . S
H2521 C2518 0.929 . S
S2522 N2523 1.613 . S
S2522 N2524 1.610 . S
N2523 S2522 1.613 . S
N2523 C2526 1.350 . S
N2524 S2522 1.610 . S
N2524 C2525 1.351 . S
C2525 C2519 1.428 . S
C2525 N2524 1.351 . S
C2525 C2526 1.434 . S
C2526 C2517 1.429 . S
C2526 N2523 1.350 . S
C2526 C2525 1.434 . S
C2527 C2528 1.369 . S
C2527 C2529 1.419 . S
C2527 H2531 0.912 1_554 S
C2528 C2527 1.369 . S
C2528 C2537 1.429 . S
C2529 C2527 1.419 . S
C2529 C2530 1.363 . S
C2529 H2532 0.929 1_554 S
C2530 C2529 1.363 . S
C2530 C2536 1.428 . S
H2531 C2527 0.912 1_556 S
H2532 C2529 0.929 1_556 S
S2533 N2534 1.613 . S
S2533 N2535 1.610 . S
N2534 S2533 1.613 . S
N2534 C2537 1.350 . S
N2535 S2533 1.610 . S
N2535 C2536 1.351 . S
C2536 C2530 1.428 . S
C2536 N2535 1.351 . S
C2536 C2537 1.434 . S
C2537 C2528 1.429 . S
C2537 N2534 1.350 . S
C2537 C2536 1.434 . S
C2538 C2539 1.369 . S
C2538 C2540 1.419 . S
C2538 H2542 0.930 . S
C2539 C2538 1.369 . S
C2539 C2548 1.429 . S
C2540 C2538 1.419 . S
C2540 C2541 1.363 . S
C2540 H2543 0.929 . S
C2541 C2540 1.363 . S
C2541 C2547 1.428 . S
H2542 C2538 0.930 . S
H2543 C2540 0.929 . S
S2544 N2545 1.613 . S
S2544 N2546 1.610 . S
N2545 S2544 1.613 . S
N2545 C2548 1.350 . S
N2546 S2544 1.610 . S
N2546 C2547 1.351 . S
C2547 C2541 1.428 . S
C2547 N2546 1.351 . S
C2547 C2548 1.434 . S
C2548 C2539 1.429 . S
C2548 N2545 1.350 . S
C2548 C2547 1.434 . S
C2549 C2550 1.369 . S
C2549 C2551 1.419 . S
C2549 H2553 0.930 . S
C2550 C2549 1.369 . S
C2550 C2559 1.429 . S
C2551 C2549 1.419 . S
C2551 C2552 1.363 . S
C2551 H2554 0.929 . S
C2552 C2551 1.363 . S
C2552 C2558 1.428 . S
H2553 C2549 0.930 . S
H2554 C2551 0.929 . S
S2555 N2556 1.613 . S
S2555 N2557 1.610 . S
N2556 S2555 1.613 . S
N2556 C2559 1.350 . S
N2557 S2555 1.610 . S
N2557 C2558 1.351 . S
C2558 C2552 1.428 . S
C2558 N2557 1.351 . S
C2558 C2559 1.434 . S
C2559 C2550 1.429 . S
C2559 N2556 1.350 . S
C2559 C2558 1.434 . S
C1505 C255 1.786 1_455 S
C1507 C886 1.797 1_556 S
C1516 C147 1.437 . S
C1518 C906 1.431 . S
C1527 C184 0.839 . S
C1529 C953 0.844 . S
C1540 C1010 1.233 . S
C1538 C220 1.222 . S
C1549 C40 2.553 . S
C1551 C1027 2.539 1_565 S
C1562 C1086 1.938 . S
C1560 C74 1.944 . S
C1573 C1119 2.751 . S
C1571 C110 2.739 . S
C1582 C14 2.473 . S
C1584 C1166 2.470 . S
C1595 C879 1.839 . S
C1593 C579 1.754 . S
C1604 C616 1.704 . S
C1606 C907 1.703 . S
C1617 C946 0.700 . S
C1615 C687 0.721 . S
C1628 C1006 2.299 . S
C1626 C436 2.264 . S
C1637 C580 0.671 . S
C1639 C1033 0.676 . S
C1650 C1079 2.285 . S
C1648 C615 2.297 . S
C1661 C1130 0.972 . S
C1659 C688 0.955 . S
C1672 C1159 2.396 . S
C1670 C435 2.383 . S
C1683 C890 1.964 1_565 S
C1681 C410 2.055 . S
C1692 C722 2.235 . S
C1694 C1186 2.209 . S
C1705 C1250 1.613 . S
C1703 C842 1.739 . S
C1716 C1286 1.581 . S
C1714 C794 1.605 . S
C1725 C302 1.914 . S
C1727 C1170 1.859 . S
C1736 C338 2.562 . S
C1738 C947 2.618 . S
C1747 C830 1.593 . S
C1749 C1319 1.666 . S
C1760 C1353 0.661 . S
C1758 C758 0.627 . S
C1771 C867 1.937 . S
C1769 C158 1.758 . S
C1782 C1359 1.569 . S
C1780 C254 1.582 . S
C1791 C218 0.848 . S
C1793 C970 0.846 . S
C1802 C194 1.155 . S
C1804 C1313 1.264 . S
C1815 C1046 2.490 . S
C1813 C3 2.508 . S
C1824 C111 1.897 . S
C1826 C1227 1.879 . S
C1837 C1106 2.623 1_566 S
C1835 C76 2.611 . S
C1848 C1387 2.586 . S
C1846 C50 2.519 1_655 S
C1859 C866 1.853 . S
C1857 C364 1.834 . S
C1870 C1366 1.587 . S
C1868 C795 1.606 . S
C1879 C292 0.690 . S
C1881 C959 0.692 . S
C1890 C723 2.207 . S
C1892 C1307 2.216 . S
C1901 C363 0.682 . S
C1903 C1050 0.671 . S
C1914 C1226 2.269 . S
C1912 C796 2.268 . S
C1923 C291 0.992 . S
C1925 C1113 0.951 . S
C1934 C724 2.358 . S
C1936 C1386 2.356 . S
C1945 C482 1.966 . S
C1947 C873 2.081 . S
C1956 C434 2.200 . S
C1958 C1199 2.180 . S
C1967 C662 1.409 . S
C1969 C1073 1.591 . S
C1978 C614 1.658 . S
C1980 C1267 1.631 . S
C1991 C1393 1.791 . S
C1989 C698 1.509 . S
C2000 C554 2.539 . S
C2002 C966 2.613 . S
C2013 C986 1.576 . S
C2011 C650 1.500 . S
C2024 C930 0.696 . S
C2022 C506 0.691 . S
C2033 C183 1.923 . S
C2035 C1446 1.955 . S
C2046 C1346 1.439 . S
C2044 C219 1.450 . S
C2055 C256 0.765 . S
C2057 C1473 0.759 . S
C2066 C148 1.288 . S
C2068 C1330 1.273 . S
C2077 C122 2.581 . S
C2079 C1187 2.606 . S
C2090 C1246 1.925 . S
C2088 C2 1.929 1_655 S
C2101 C1279 2.627 . S
C2099 C39 2.625 . S
C2112 C1406 2.451 . S
C2110 C86 2.452 . S
C2123 C1439 1.809 . S
C2121 C651 1.716 . S
C2132 C472 1.673 . S
C2134 C1347 1.678 . S
C2145 C1466 0.717 . S
C2143 C507 0.723 . S
C2156 C1326 2.292 . S
C2154 C544 2.258 . S
C2167 C1193 0.660 . S
C2165 C652 0.653 . S
C2176 C471 2.323 . S
C2178 C1239 2.312 . S
C2189 C1290 0.927 . S
C2187 C508 0.942 . S
C2198 C543 2.367 . S
C2200 C1399 2.377 . S
C2211 C1450 2.005 . S
C2209 C806 2.094 . S
C2220 C326 2.255 . S
C2222 C1026 2.228 . S
C2233 C1090 1.559 . S
C2231 C374 1.684 . S
C2244 C1126 1.600 . S
C2242 C398 1.630 . S
C2255 C1410 1.572 . S
C2253 C770 1.661 . S
C2264 C734 2.582 . S
C2266 C1467 2.634 1_655 S
C2277 C999 1.698 . S
C2275 C362 1.621 . S
C2288 C913 0.708 . S
C2286 C290 0.702 . S
C2297 C230 1.787 . S
C2299 C1427 1.979 . S
C2310 C919 1.349 . S
C2308 C182 1.359 . S
C2319 C146 0.863 . S
C2321 C1490 0.862 . S
C2330 C266 1.042 . S
C2332 C993 1.137 . S
C2341 C75 2.543 . S
C2343 C1206 2.547 . S
C2354 C1067 2.031 . S
C2352 C38 2.031 . S
C2363 C4 2.603 . S
C2365 C1266 2.615 . S
C2374 C112 2.510 . S
C2376 C1147 2.448 . S
C2387 C1426 1.887 . S
C2385 C832 1.864 . S
C2396 C399 1.596 . S
C2398 C926 1.580 . S
C2409 C1479 0.569 . S
C2407 C760 0.608 . S
C2418 C327 2.221 . S
C2420 C987 2.230 . S
C2429 C831 0.655 . S
C2431 C1210 0.676 . S
C2442 C1066 2.299 . S
C2440 C400 2.299 . S
C2451 C759 0.981 . S
C2453 C1273 0.904 . S
C2464 C1146 2.349 . S
C2462 C328 2.356 . S
C2475 C1433 2.165 . S
C2473 C626 2.031 . S
C2486 C1039 2.233 . S
C2484 C542 2.251 . S
C2495 C590 1.369 . S
C2497 C1233 1.542 . S
C2508 C1107 1.570 . S
C2506 C470 1.594 . S
C2517 C518 1.481 . S
C2519 C1153 1.753 . S
C2528 C446 2.561 . S
C2530 C1486 2.633 . S
C2541 C1306 1.599 . S
C2539 C578 1.537 . S
C2552 C1370 0.725 . S
C2550 C686 0.742 . S
