# Generated by pormake.
# Topology wbl, (4,4)-cn, num edge types: 1
# Building blocks:
#     Node 0, Type 0, BuildingBlock: MUDLON_clean_sbu_0, # of connection points: 4
#     Node 1, Type 0, BuildingBlock: MUDLON_clean_sbu_0, # of connection points: 4
#     Node 2, Type 0, BuildingBlock: MUDLON_clean_sbu_0, # of connection points: 4
#     Node 3, Type 0, BuildingBlock: MUDLON_clean_sbu_0, # of connection points: 4
#     Node 4, Type 0, BuildingBlock: MUDLON_clean_sbu_0, # of connection points: 4
#     Node 5, Type 0, BuildingBlock: MUDLON_clean_sbu_0, # of connection points: 4
#     Node 6, Type 0, BuildingBlock: MUDLON_clean_sbu_0, # of connection points: 4
#     Node 7, Type 0, BuildingBlock: MUDLON_clean_sbu_0, # of connection points: 4
#     Node 8, Type 1, BuildingBlock: QUQFOY_clean_sbu_1, # of connection points: 4
#     Node 9, Type 1, BuildingBlock: QUQFOY_clean_sbu_1, # of connection points: 4
#     Node 10, Type 1, BuildingBlock: QUQFOY_clean_sbu_1, # of connection points: 4
#     Node 11, Type 1, BuildingBlock: QUQFOY_clean_sbu_1, # of connection points: 4
#     Node 12, Type 1, BuildingBlock: QUQFOY_clean_sbu_1, # of connection points: 4
#     Node 13, Type 1, BuildingBlock: QUQFOY_clean_sbu_1, # of connection points: 4
#     Node 14, Type 1, BuildingBlock: QUQFOY_clean_sbu_1, # of connection points: 4
#     Node 15, Type 1, BuildingBlock: QUQFOY_clean_sbu_1, # of connection points: 4
#     Edge 16, Type (0, 1), BuildingBlock: TEMPAE_clean_linker_10, # of connection points: 2
#     Edge 17, Type (0, 1), BuildingBlock: TEMPAE_clean_linker_10, # of connection points: 2
#     Edge 18, Type (0, 1), BuildingBlock: TEMPAE_clean_linker_10, # of connection points: 2
#     Edge 19, Type (0, 1), BuildingBlock: TEMPAE_clean_linker_10, # of connection points: 2
#     Edge 20, Type (0, 1), BuildingBlock: TEMPAE_clean_linker_10, # of connection points: 2
#     Edge 21, Type (0, 1), BuildingBlock: TEMPAE_clean_linker_10, # of connection points: 2
#     Edge 22, Type (0, 1), BuildingBlock: TEMPAE_clean_linker_10, # of connection points: 2
#     Edge 23, Type (0, 1), BuildingBlock: TEMPAE_clean_linker_10, # of connection points: 2
#     Edge 24, Type (0, 1), BuildingBlock: TEMPAE_clean_linker_10, # of connection points: 2
#     Edge 25, Type (0, 1), BuildingBlock: TEMPAE_clean_linker_10, # of connection points: 2
#     Edge 26, Type (0, 1), BuildingBlock: TEMPAE_clean_linker_10, # of connection points: 2
#     Edge 27, Type (0, 1), BuildingBlock: TEMPAE_clean_linker_10, # of connection points: 2
#     Edge 28, Type (0, 1), BuildingBlock: TEMPAE_clean_linker_10, # of connection points: 2
#     Edge 29, Type (0, 1), BuildingBlock: TEMPAE_clean_linker_10, # of connection points: 2
#     Edge 30, Type (0, 1), BuildingBlock: TEMPAE_clean_linker_10, # of connection points: 2
#     Edge 31, Type (0, 1), BuildingBlock: TEMPAE_clean_linker_10, # of connection points: 2
#     Edge 32, Type (0, 1), BuildingBlock: TEMPAE_clean_linker_10, # of connection points: 2
#     Edge 33, Type (0, 1), BuildingBlock: TEMPAE_clean_linker_10, # of connection points: 2
#     Edge 34, Type (0, 1), BuildingBlock: TEMPAE_clean_linker_10, # of connection points: 2
#     Edge 35, Type (0, 1), BuildingBlock: TEMPAE_clean_linker_10, # of connection points: 2
#     Edge 36, Type (0, 1), BuildingBlock: TEMPAE_clean_linker_10, # of connection points: 2
#     Edge 37, Type (0, 1), BuildingBlock: TEMPAE_clean_linker_10, # of connection points: 2
#     Edge 38, Type (0, 1), BuildingBlock: TEMPAE_clean_linker_10, # of connection points: 2
#     Edge 39, Type (0, 1), BuildingBlock: TEMPAE_clean_linker_10, # of connection points: 2
#     Edge 40, Type (0, 1), BuildingBlock: TEMPAE_clean_linker_10, # of connection points: 2
#     Edge 41, Type (0, 1), BuildingBlock: TEMPAE_clean_linker_10, # of connection points: 2
#     Edge 42, Type (0, 1), BuildingBlock: TEMPAE_clean_linker_10, # of connection points: 2
#     Edge 43, Type (0, 1), BuildingBlock: TEMPAE_clean_linker_10, # of connection points: 2
#     Edge 44, Type (0, 1), BuildingBlock: TEMPAE_clean_linker_10, # of connection points: 2
#     Edge 45, Type (0, 1), BuildingBlock: TEMPAE_clean_linker_10, # of connection points: 2
#     Edge 46, Type (0, 1), BuildingBlock: TEMPAE_clean_linker_10, # of connection points: 2
#     Edge 47, Type (0, 1), BuildingBlock: TEMPAE_clean_linker_10, # of connection points: 2
# Relax obj value: 0.235
# Max RMSD: 0.253
# Mean RMSD: 0.183
data_MOF--net-wbl--node1-MUDLON_clean_sbu_0--node2-QUQFOY_clean_sbu_1--edge1-TEMPAE_clean_linker_10
_symmetry_space_group_name_H-M    P1
_symmetry_Int_Tables_number       1
_symmetry_cell_setting            triclinic
loop_
_symmetry_equiv_pos_as_xyz
'x, y, z'
_cell_length_a     35.270183
_cell_length_b     35.241631
_cell_length_c     77.347386
_cell_angle_alpha  93.13285
_cell_angle_beta   93.162528
_cell_angle_gamma 90.844904
loop_
_atom_site_label
_atom_site_type_symbol
_atom_site_fract_x
_atom_site_fract_y
_atom_site_fract_z
_atom_type_partial_charge
Mg0 Mg 0.20411 0.1924 0.36638 0.0
C1 C 0.18344 0.16102 0.40016 0.0
O2 O 0.15857 0.18833 0.39946 0.0
C3 C 0.12112 0.17276 0.35628 0.0
O4 O 0.12549 0.15058 0.3693 0.0
C5 C 0.28027 0.16411 0.35716 0.0
O6 O 0.28572 0.1703 0.37403 0.0
O7 O 0.24874 0.17328 0.34993 0.0
O8 O 0.20452 0.15457 0.38755 0.0
O9 O 0.21453 0.24589 0.38123 0.0
C10 C 0.1859 0.26637 0.38403 0.0
O11 O 0.15532 0.26091 0.37366 0.0
O12 O 0.14931 0.19223 0.35189 0.0
Mg13 Mg 0.03672 0.71244 0.61462 0.0
C14 C 0.09864 0.70259 0.64446 0.0
O15 O 0.1244 0.70364 0.63286 0.0
C16 C 0.06204 0.63537 0.60121 0.0
O17 O 0.07833 0.63628 0.61691 0.0
C18 C 0.07462 0.76582 0.59115 0.0
O19 O 0.0704 0.73612 0.58014 0.0
O20 O 0.06131 0.7644 0.60604 0.0
O21 O 0.06371 0.70425 0.63977 0.0
O22 O 0.97929 0.71529 0.62315 0.0
C23 C 0.96321 0.68301 0.62413 0.0
O24 O 0.97391 0.65488 0.61376 0.0
O25 O 0.04326 0.6639 0.59651 0.0
Mg26 Mg 0.56273 0.54546 0.86115 0.0
C27 C 0.59464 0.57713 0.89694 0.0
O28 O 0.62545 0.55831 0.89354 0.0
C29 C 0.6126 0.53428 0.83093 0.0
O30 O 0.58057 0.51969 0.82381 0.0
C31 C 0.51089 0.60434 0.84994 0.0
O32 O 0.53811 0.62311 0.85919 0.0
O33 O 0.51352 0.56849 0.84748 0.0
O34 O 0.56782 0.57885 0.88538 0.0
O35 O 0.55476 0.49094 0.87217 0.0
C36 C 0.58514 0.47414 0.8766 0.0
O37 O 0.61631 0.48306 0.86907 0.0
O38 O 0.61339 0.54784 0.84653 0.0
Mg39 Mg 0.68637 0.05748 0.12221 0.0
C40 C 0.77275 0.03386 0.12695 0.0
O41 O 0.80186 0.01543 0.12101 0.0
C42 C 0.65373 0.99592 0.09681 0.0
O43 O 0.68738 0.99966 0.09055 0.0
C44 C 0.69737 0.11295 0.09525 0.0
O45 O 0.70984 0.08135 0.08795 0.0
O46 O 0.68437 0.11202 0.11026 0.0
O47 O 0.7419 0.03334 0.11759 0.0
O48 O 0.67212 0.0595 0.14936 0.0
C49 C 0.6697 0.02736 0.15598 0.0
O50 O 0.6775 0.99679 0.14641 0.0
O51 O 0.64496 0.01785 0.1095 0.0
Mg52 Mg 0.05231 0.68395 0.96255 0.0
C53 C 0.08212 0.75596 0.95112 0.0
O54 O 0.11272 0.74224 0.95879 0.0
C55 C 0.00261 0.64894 0.98871 0.0
O56 O 0.03427 0.65149 0.99851 0.0
C57 C 0.11333 0.69285 0.99178 0.0
O58 O 0.08978 0.71846 0.99762 0.0
O59 O 0.10433 0.67372 0.97771 0.0
O60 O 0.05012 0.74199 0.95453 0.0
O61 O 0.05424 0.65577 0.9371 0.0
C62 C 0.02936 0.66818 0.92639 0.0
O63 O 0.00462 0.69262 0.93217 0.0
O64 O 0.00185 0.66194 0.97369 0.0
Mg65 Mg 0.53866 0.51895 0.2122 0.0
C66 C 0.47551 0.54222 0.18987 0.0
O67 O 0.4905 0.57413 0.1969 0.0
C68 C 0.55703 0.43824 0.22383 0.0
O69 O 0.53829 0.42641 0.20935 0.0
C70 C 0.50847 0.58279 0.23493 0.0
O71 O 0.47701 0.56237 0.23231 0.0
O72 O 0.53867 0.57121 0.22831 0.0
O73 O 0.48614 0.51123 0.19615 0.0
O74 O 0.57676 0.52491 0.19137 0.0
C75 C 0.57032 0.49974 0.1791 0.0
O76 O 0.54563 0.47239 0.18122 0.0
O77 O 0.55906 0.47361 0.22804 0.0
Mg78 Mg 0.65619 0.10808 0.46079 0.0
C79 C 0.63203 0.12644 0.42391 0.0
O80 O 0.60773 0.09842 0.42553 0.0
C81 C 0.61034 0.10115 0.49195 0.0
O82 O 0.64274 0.08698 0.49752 0.0
C83 C 0.73646 0.13381 0.4651 0.0
O84 O 0.73084 0.13078 0.44814 0.0
O85 O 0.70945 0.12504 0.47443 0.0
O86 O 0.65249 0.13888 0.43714 0.0
O87 O 0.65789 0.04977 0.45073 0.0
C88 C 0.62714 0.03037 0.44968 0.0
O89 O 0.59788 0.04389 0.45766 0.0
O90 O 0.60801 0.11446 0.47697 0.0
Mg91 Mg 0.19942 0.18223 0.71782 0.0
C92 C 0.26899 0.2144 0.70244 0.0
O93 O 0.254 0.24773 0.70576 0.0
C94 C 0.14015 0.23399 0.72855 0.0
O95 O 0.12169 0.20599 0.71967 0.0
C96 C 0.20456 0.13157 0.74794 0.0
O97 O 0.21965 0.16302 0.75544 0.0
O98 O 0.19247 0.13153 0.73213 0.0
O99 O 0.25793 0.18635 0.71064 0.0
O100 O 0.17019 0.17743 0.69221 0.0
C101 C 0.16882 0.20873 0.68476 0.0
O102 O 0.181 0.23988 0.69352 0.0
O103 O 0.17601 0.23186 0.73103 0.0
O104 O 0.48552 0.68636 0.01411 0.0
Cd105 Cd 0.45536 0.70887 0.03413 0.0
Cd106 Cd 0.50668 0.67034 0.05276 0.0
O107 O 0.52399 0.64981 0.02898 0.0
O108 O 0.40886 0.72831 0.02223 0.0
O109 O 0.40734 0.68315 0.04092 0.0
C110 C 0.38928 0.70455 0.03033 0.0
C111 C 0.49209 0.62901 0.07401 0.0
C112 C 0.51194 0.66226 0.01461 0.0
C113 C 0.50843 0.7558 0.05799 0.0
O114 O 0.52439 0.72474 0.06137 0.0
O115 O 0.4789 0.75568 0.04784 0.0
O116 O 0.52679 0.63678 0.07083 0.0
O117 O 0.46532 0.64388 0.06465 0.0
O118 O 0.52773 0.91223 0.33029 0.0
Cd119 Cd 0.49237 0.91464 0.30856 0.0
Cd120 Cd 0.55627 0.9272 0.2929 0.0
O121 O 0.57531 0.94044 0.31849 0.0
O122 O 0.44206 0.93004 0.31656 0.0
O123 O 0.47758 0.96627 0.30111 0.0
C124 C 0.44731 0.96201 0.30957 0.0
C125 C 0.57626 0.96492 0.2711 0.0
C126 C 0.56039 0.9279 0.33169 0.0
C127 C 0.51439 0.85185 0.28529 0.0
O128 O 0.54512 0.87092 0.28455 0.0
O129 O 0.48683 0.86559 0.2933 0.0
O130 O 0.59924 0.94285 0.27908 0.0
O131 O 0.5418 0.96671 0.27589 0.0
O132 O 0.26766 0.03861 0.51976 0.0
Cd133 Cd 0.29781 0.02159 0.54147 0.0
Cd134 Cd 0.25353 0.06995 0.55655 0.0
O135 O 0.24518 0.09067 0.53216 0.0
O136 O 0.34655 0.00231 0.53294 0.0
O137 O 0.34265 0.05443 0.55003 0.0
C138 C 0.36301 0.03195 0.54074 0.0
C139 C 0.26745 0.10906 0.58142 0.0
C140 C 0.25044 0.06985 0.51858 0.0
C141 C 0.23936 0.98663 0.5609 0.0
O142 O 0.22559 0.01975 0.56096 0.0
O143 O 0.27221 0.98096 0.55539 0.0
O144 O 0.23369 0.10683 0.57408 0.0
O145 O 0.29411 0.09057 0.57407 0.0
O146 O 0.20919 0.78199 0.7714 0.0
Cd147 Cd 0.23524 0.8067 0.79368 0.0
Cd148 Cd 0.19216 0.75268 0.80747 0.0
O149 O 0.17017 0.74136 0.78237 0.0
O150 O 0.25899 0.85319 0.78517 0.0
O151 O 0.21278 0.85527 0.80334 0.0
C152 C 0.23537 0.87305 0.79382 0.0
C153 C 0.15379 0.76399 0.8307 0.0
C154 C 0.18304 0.75673 0.76936 0.0
C155 C 0.27705 0.74625 0.81212 0.0
O156 O 0.2447 0.7311 0.8139 0.0
O157 O 0.27977 0.77787 0.80507 0.0
O158 O 0.15754 0.73024 0.82373 0.0
O159 O 0.17048 0.79193 0.82384 0.0
O160 O 0.04541 0.27991 0.56272 0.0
Cd161 Cd 0.02461 0.30803 0.54162 0.0
Cd162 Cd 0.0653 0.25567 0.52541 0.0
O163 O 0.08729 0.24418 0.54979 0.0
O164 O 0.00298 0.35454 0.55253 0.0
O165 O 0.05143 0.35613 0.53563 0.0
C166 C 0.02853 0.37412 0.54552 0.0
C167 C 0.10376 0.26893 0.50295 0.0
C168 C 0.07219 0.25624 0.56353 0.0
C169 C 0.98093 0.25089 0.51863 0.0
O170 O 0.01214 0.23356 0.51767 0.0
O171 O 0.98005 0.28331 0.52659 0.0
O172 O 0.0993 0.23476 0.50779 0.0
O173 O 0.08771 0.29621 0.51152 0.0
O174 O 0.95967 0.53712 0.80236 0.0
Cd175 Cd 0.93414 0.50923 0.78074 0.0
Cd176 Cd 0.98433 0.55343 0.76543 0.0
O177 O 0.99554 0.57842 0.79007 0.0
O178 O 0.88949 0.48427 0.79027 0.0
O179 O 0.88408 0.52931 0.77156 0.0
C180 C 0.86805 0.5066 0.78162 0.0
C181 C 0.96888 0.58987 0.74186 0.0
C182 C 0.9828 0.5652 0.80362 0.0
C183 C 0.99473 0.46868 0.76208 0.0
O184 O 0.0084 0.50142 0.75966 0.0
O185 O 0.96363 0.46529 0.76945 0.0
O186 O 0.00332 0.58808 0.74827 0.0
O187 O 0.94265 0.57184 0.7493 0.0
O188 O 0.72148 0.46212 0.06438 0.0
Cd189 Cd 0.74399 0.43327 0.04354 0.0
Cd190 Cd 0.69748 0.47916 0.02694 0.0
O191 O 0.67263 0.48682 0.05034 0.0
O192 O 0.76718 0.38818 0.05405 0.0
O193 O 0.71731 0.38409 0.03537 0.0
C194 C 0.74061 0.36763 0.04594 0.0
C195 C 0.66242 0.46644 0.00082 0.0
C196 C 0.69033 0.47979 0.06453 0.0
C197 C 0.78128 0.49324 0.02526 0.0
O198 O 0.74833 0.50729 0.02433 0.0
O199 O 0.78597 0.46027 0.03084 0.0
O200 O 0.66363 0.49987 0.00852 0.0
O201 O 0.67944 0.43926 0.0085 0.0
O202 O 0.80277 0.18666 0.25167 0.0
Cd203 Cd 0.80054 0.22015 0.27425 0.0
Cd204 Cd 0.78434 0.154 0.28648 0.0
O205 O 0.77302 0.13666 0.2607 0.0
O206 O 0.78999 0.27251 0.26679 0.0
O207 O 0.74914 0.23811 0.28032 0.0
C208 C 0.75658 0.26865 0.27258 0.0
C209 C 0.74132 0.14864 0.30814 0.0
C210 C 0.78706 0.15415 0.24851 0.0
C211 C 0.86033 0.18947 0.29719 0.0
O212 O 0.84074 0.15885 0.295 0.0
O213 O 0.84733 0.22027 0.29161 0.0
O214 O 0.75929 0.11941 0.30227 0.0
O215 O 0.7465 0.18049 0.30107 0.0
C216 C 0.2989 0.12824 0.33008 0.0
C217 C 0.30773 0.14124 0.34734 0.0
C218 C 0.32199 0.10185 0.32158 0.0
C219 C 0.35464 0.08817 0.33054 0.0
C220 C 0.36492 0.10296 0.34758 0.0
C221 C 0.34137 0.1293 0.35576 0.0
C222 C 0.31025 0.08701 0.30336 0.0
C223 C 0.39966 0.08932 0.35756 0.0
C224 C 0.3878 0.98767 0.32132 0.0
C225 C 0.42097 0.99376 0.31259 0.0
C226 C 0.36513 0.01807 0.32655 0.0
C227 C 0.37584 0.05561 0.32298 0.0
C228 C 0.40822 0.06182 0.3134 0.0
C229 C 0.43044 0.03078 0.3083 0.0
C230 C 0.33068 0.01014 0.33664 0.0
C231 C 0.42043 0.10138 0.30926 0.0
H232 H 0.27307 0.13743 0.32343 0.0
H233 H 0.34864 0.13939 0.36903 0.0
H234 H 0.33484 0.08719 0.29502 0.0
H235 H 0.30006 0.05711 0.30359 0.0
H236 H 0.28719 0.10395 0.2974 0.0
H237 H 0.40564 0.1061 0.37002 0.0
H238 H 0.39543 0.05908 0.36041 0.0
H239 H 0.42494 0.091 0.3497 0.0
H240 H 0.38013 0.95915 0.3246 0.0
H241 H 0.45604 0.03574 0.30156 0.0
H242 H 0.30526 0.02348 0.33065 0.0
H243 H 0.33515 0.02281 0.35007 0.0
H244 H 0.32476 0.97922 0.3373 0.0
H245 H 0.39598 0.11704 0.30372 0.0
H246 H 0.44339 0.10105 0.29998 0.0
H247 H 0.43091 0.1174 0.32137 0.0
C248 C 0.11275 0.8247 0.60015 0.0
C249 C 0.09774 0.79911 0.5869 0.0
C250 C 0.13662 0.85509 0.59647 0.0
C251 C 0.14516 0.86042 0.5791 0.0
C252 C 0.12963 0.83503 0.56563 0.0
C253 C 0.10637 0.80447 0.56971 0.0
C254 C 0.15304 0.88127 0.61121 0.0
C255 C 0.13752 0.8402 0.54691 0.0
C256 C 0.17665 0.95892 0.56763 0.0
C257 C 0.21589 0.95457 0.56628 0.0
C258 C 0.15336 0.92853 0.57178 0.0
C259 C 0.16975 0.893 0.57495 0.0
C260 C 0.20945 0.88857 0.57397 0.0
C261 C 0.23203 0.91934 0.56949 0.0
C262 C 0.1111 0.93427 0.57247 0.0
C263 C 0.22802 0.85127 0.57756 0.0
H264 H 0.10651 0.82053 0.61349 0.0
H265 H 0.09481 0.78483 0.55942 0.0
H266 H 0.18451 0.88144 0.6113 0.0
H267 H 0.14381 0.9108 0.60938 0.0
H268 H 0.14427 0.87275 0.62404 0.0
H269 H 0.12285 0.81828 0.53795 0.0
H270 H 0.12818 0.86867 0.54314 0.0
H271 H 0.16849 0.83882 0.54519 0.0
H272 H 0.16385 0.98597 0.56506 0.0
H273 H 0.26234 0.91581 0.56853 0.0
H274 H 0.10165 0.92804 0.58548 0.0
H275 H 0.09562 0.9142 0.56292 0.0
H276 H 0.10283 0.96369 0.56966 0.0
H277 H 0.22127 0.84254 0.59063 0.0
H278 H 0.25937 0.85286 0.57688 0.0
H279 H 0.21662 0.8287 0.56804 0.0
C280 C 0.45225 0.60893 0.8303 0.0
C281 C 0.47686 0.62472 0.84372 0.0
C282 C 0.41988 0.6285 0.82455 0.0
C283 C 0.41162 0.66419 0.8327 0.0
C284 C 0.43626 0.68005 0.84633 0.0
C285 C 0.46876 0.66032 0.85154 0.0
C286 C 0.39457 0.61106 0.80975 0.0
C287 C 0.42805 0.71765 0.85559 0.0
C288 C 0.34624 0.73314 0.81019 0.0
C289 C 0.31169 0.72597 0.81765 0.0
C290 C 0.37881 0.71262 0.81468 0.0
C291 C 0.37694 0.6849 0.8272 0.0
C292 C 0.34225 0.6779 0.83493 0.0
C293 C 0.30994 0.69824 0.82993 0.0
C294 C 0.41516 0.72045 0.80596 0.0
C295 C 0.33935 0.64921 0.84863 0.0
H296 H 0.45852 0.58151 0.82417 0.0
H297 H 0.48749 0.67254 0.86203 0.0
H298 H 0.36567 0.60587 0.81419 0.0
H299 H 0.39177 0.63104 0.79917 0.0
H300 H 0.40563 0.58375 0.80441 0.0
H301 H 0.44987 0.72582 0.8661 0.0
H302 H 0.42675 0.74043 0.84625 0.0
H303 H 0.39994 0.71615 0.86132 0.0
H304 H 0.34764 0.75426 0.80056 0.0
H305 H 0.28332 0.69269 0.83578 0.0
H306 H 0.42552 0.69376 0.79971 0.0
H307 H 0.43753 0.73101 0.81576 0.0
H308 H 0.41148 0.7418 0.79598 0.0
H309 H 0.3473 0.62071 0.84336 0.0
H310 H 0.3103 0.64723 0.85342 0.0
H311 H 0.35957 0.65706 0.8598 0.0
C312 C 0.63661 0.94117 0.0758 0.0
C313 C 0.62827 0.96373 0.09055 0.0
C314 C 0.6148 0.90851 0.07062 0.0
C315 C 0.5841 0.898 0.08051 0.0
C316 C 0.57488 0.92119 0.09514 0.0
C317 C 0.59698 0.9539 0.09995 0.0
C318 C 0.62522 0.8847 0.0548 0.0
C319 C 0.54245 0.91079 0.10603 0.0
C320 C 0.5122 0.82687 0.05888 0.0
C321 C 0.52569 0.79246 0.06496 0.0
C322 C 0.53039 0.86159 0.06415 0.0
C323 C 0.56267 0.86194 0.07585 0.0
C324 C 0.57561 0.82752 0.08252 0.0
C325 C 0.55704 0.79317 0.07695 0.0
C326 C 0.51585 0.89772 0.05673 0.0
C327 C 0.60973 0.82684 0.09518 0.0
H328 H 0.66061 0.94869 0.06843 0.0
H329 H 0.59041 0.97112 0.11141 0.0
H330 H 0.63418 0.85618 0.05866 0.0
H331 H 0.60015 0.88049 0.04555 0.0
H332 H 0.64863 0.89784 0.04802 0.0
H333 H 0.53776 0.93284 0.11648 0.0
H334 H 0.51582 0.90662 0.09778 0.0
H335 H 0.5484 0.88349 0.11206 0.0
H336 H 0.488 0.82664 0.04961 0.0
H337 H 0.56754 0.76677 0.08178 0.0
H338 H 0.53761 0.90995 0.04871 0.0
H339 H 0.51064 0.91919 0.06732 0.0
H340 H 0.48915 0.89289 0.04854 0.0
H341 H 0.63545 0.83633 0.08887 0.0
H342 H 0.61478 0.79806 0.09993 0.0
H343 H 0.60592 0.84689 0.10649 0.0
C344 C 0.16279 0.71214 0.01523 0.0
C345 C 0.15166 0.68934 0.00032 0.0
C346 C 0.20042 0.71238 0.02219 0.0
C347 C 0.22752 0.68941 0.014 0.0
C348 C 0.21596 0.66479 0.99954 0.0
C349 C 0.17816 0.665 0.9929 0.0
C350 C 0.2116 0.73877 0.03773 0.0
C351 C 0.24399 0.63986 0.99043 0.0
C352 C 0.32949 0.72497 0.01516 0.0
C353 C 0.34756 0.70159 0.02707 0.0
C354 C 0.29037 0.72167 0.01109 0.0
C355 C 0.2686 0.69436 0.01916 0.0
C356 C 0.28641 0.67121 0.0315 0.0
C357 C 0.32579 0.67504 0.0353 0.0
C358 C 0.27249 0.74691 0.99784 0.0
C359 C 0.264 0.64195 0.04043 0.0
H360 H 0.14244 0.73079 0.02115 0.0
H361 H 0.16978 0.64707 0.98145 0.0
H362 H 0.22876 0.72359 0.04754 0.0
H363 H 0.22948 0.76247 0.03364 0.0
H364 H 0.18649 0.75099 0.04391 0.0
H365 H 0.22981 0.61958 0.98053 0.0
H366 H 0.26425 0.65791 0.9839 0.0
H367 H 0.26078 0.62351 0.99992 0.0
H368 H 0.34604 0.74565 0.00876 0.0
H369 H 0.33955 0.65694 0.04454 0.0
H370 H 0.24902 0.76312 0.0035 0.0
H371 H 0.26008 0.72922 0.98656 0.0
H372 H 0.29324 0.7674 0.9931 0.0
H373 H 0.23961 0.65545 0.04665 0.0
H374 H 0.28162 0.62777 0.05044 0.0
H375 H 0.25219 0.61995 0.03072 0.0
C376 C 0.53892 0.63552 0.25372 0.0
C377 C 0.50769 0.62122 0.2433 0.0
C378 C 0.53924 0.67283 0.26105 0.0
C379 C 0.50823 0.69665 0.25726 0.0
C380 C 0.47669 0.68229 0.24665 0.0
C381 C 0.47651 0.64443 0.24004 0.0
C382 C 0.57278 0.68676 0.27279 0.0
C383 C 0.44369 0.7072 0.24186 0.0
C384 C 0.4929 0.78458 0.28637 0.0
C385 C 0.51159 0.81263 0.27772 0.0
C386 C 0.492 0.74656 0.27997 0.0
C387 C 0.509 0.73677 0.26422 0.0
C388 C 0.52703 0.76526 0.25519 0.0
C389 C 0.52875 0.80282 0.26224 0.0
C390 C 0.47365 0.71678 0.29025 0.0
C391 C 0.54441 0.75609 0.23808 0.0
H392 H 0.56295 0.61739 0.25623 0.0
H393 H 0.45261 0.6334 0.23175 0.0
H394 H 0.5878 0.71018 0.26684 0.0
H395 H 0.5629 0.69833 0.28537 0.0
H396 H 0.59336 0.66388 0.27534 0.0
H397 H 0.42163 0.69177 0.23326 0.0
H398 H 0.43035 0.71829 0.25373 0.0
H399 H 0.45399 0.73209 0.23516 0.0
H400 H 0.48006 0.79218 0.29847 0.0
H401 H 0.54307 0.82465 0.25555 0.0
H402 H 0.49464 0.69477 0.29355 0.0
H403 H 0.44994 0.70228 0.28237 0.0
H404 H 0.46246 0.72902 0.30245 0.0
H405 H 0.56818 0.73619 0.23991 0.0
H406 H 0.55538 0.78189 0.23224 0.0
H407 H 0.52301 0.74171 0.22879 0.0
C408 C 0.54005 0.10555 0.49459 0.0
C409 C 0.57589 0.09661 0.50188 0.0
C410 C 0.50679 0.09691 0.50286 0.0
C411 C 0.5094 0.07904 0.51884 0.0
C412 C 0.54555 0.07169 0.52669 0.0
C413 C 0.57836 0.08049 0.5181 0.0
C414 C 0.46877 0.10529 0.49407 0.0
C415 C 0.54954 0.05299 0.54378 0.0
C416 C 0.41878 0.07731 0.54332 0.0
C417 C 0.40291 0.04182 0.53749 0.0
C418 C 0.45426 0.0893 0.53795 0.0
C419 C 0.47423 0.06525 0.52649 0.0
C420 C 0.45924 0.02863 0.52132 0.0
C421 C 0.42382 0.01737 0.52689 0.0
C422 C 0.46947 0.1284 0.54387 0.0
C423 C 0.47973 0.00198 0.50919 0.0
H424 H 0.53782 0.11809 0.4821 0.0
H425 H 0.60594 0.07368 0.52389 0.0
H426 H 0.45336 0.07821 0.49018 0.0
H427 H 0.45106 0.12157 0.50317 0.0
H428 H 0.47163 0.12171 0.48234 0.0
H429 H 0.57948 0.05297 0.54905 0.0
H430 H 0.53201 0.06768 0.55348 0.0
H431 H 0.53901 0.02313 0.54203 0.0
H432 H 0.40284 0.0964 0.55152 0.0
H433 H 0.41189 0.98984 0.52238 0.0
H434 H 0.46863 0.14692 0.53272 0.0
H435 H 0.49955 0.12695 0.54876 0.0
H436 H 0.45275 0.14187 0.55423 0.0
H437 H 0.48099 0.01439 0.49635 0.0
H438 H 0.46553 0.97359 0.50733 0.0
H439 H 0.5094 0.99822 0.51425 0.0
C440 C 0.2216 0.09509 0.77413 0.0
C441 C 0.20484 0.09586 0.75726 0.0
C442 C 0.22534 0.06078 0.78245 0.0
C443 C 0.21201 0.02643 0.7737 0.0
C444 C 0.19355 0.02727 0.757 0.0
C445 C 0.1902 0.06194 0.74898 0.0
C446 C 0.24503 0.06109 0.8003 0.0
C447 C 0.17876 0.99129 0.74725 0.0
C448 C 0.25924 0.93283 0.78207 0.0
C449 C 0.23205 0.91427 0.79131 0.0
C450 C 0.25382 0.97002 0.77699 0.0
C451 C 0.2203 0.98921 0.7812 0.0
C452 C 0.1937 0.97147 0.79137 0.0
C453 C 0.19993 0.93416 0.79634 0.0
C454 C 0.2831 0.98801 0.76631 0.0
C455 C 0.15773 0.9911 0.79621 0.0
H456 H 0.23283 0.12117 0.78068 0.0
H457 H 0.17696 0.06225 0.73601 0.0
H458 H 0.22797 0.04489 0.80911 0.0
H459 H 0.27282 0.04693 0.79949 0.0
H460 H 0.25006 0.0904 0.80609 0.0
H461 H 0.16259 0.99709 0.73497 0.0
H462 H 0.2029 0.97277 0.74411 0.0
H463 H 0.16006 0.9752 0.75543 0.0
H464 H 0.28429 0.91777 0.77823 0.0
H465 H 0.17875 0.91999 0.80347 0.0
H466 H 0.29163 0.0166 0.77205 0.0
H467 H 0.27068 0.99177 0.75303 0.0
H468 H 0.30893 0.97054 0.76529 0.0
H469 H 0.16418 0.02043 0.80162 0.0
H470 H 0.14227 0.97548 0.80582 0.0
H471 H 0.13868 0.99334 0.78442 0.0
C472 C 0.68201 0.54809 0.82901 0.0
C473 C 0.64781 0.53282 0.8213 0.0
C474 C 0.71609 0.54466 0.82056 0.0
C475 C 0.71604 0.52541 0.804 0.0
C476 C 0.68144 0.51104 0.79588 0.0
C477 C 0.64772 0.51492 0.80463 0.0
C478 C 0.75238 0.56054 0.82964 0.0
C479 C 0.68025 0.4904 0.77823 0.0
C480 C 0.80557 0.53962 0.77969 0.0
C481 C 0.82703 0.50847 0.78471 0.0
C482 C 0.76856 0.54473 0.7852 0.0
C483 C 0.75272 0.51796 0.79589 0.0
C484 C 0.77344 0.4853 0.80009 0.0
C485 C 0.81032 0.481 0.79447 0.0
C486 C 0.74728 0.57983 0.78039 0.0
C487 C 0.75747 0.45586 0.81131 0.0
H488 H 0.68236 0.56216 0.84184 0.0
H489 H 0.62141 0.50315 0.79853 0.0
H490 H 0.77183 0.53697 0.83255 0.0
H491 H 0.76713 0.57949 0.82108 0.0
H492 H 0.74724 0.5768 0.84198 0.0
H493 H 0.65073 0.48389 0.77305 0.0
H494 H 0.69472 0.50763 0.76889 0.0
H495 H 0.6957 0.46331 0.77906 0.0
H496 H 0.81831 0.56099 0.77216 0.0
H497 H 0.8266 0.45668 0.7983 0.0
H498 H 0.74528 0.59918 0.7921 0.0
H499 H 0.71786 0.57221 0.77547 0.0
H500 H 0.7615 0.59546 0.7704 0.0
H501 H 0.75464 0.46856 0.82462 0.0
H502 H 0.77579 0.43058 0.81215 0.0
H503 H 0.7287 0.44638 0.80617 0.0
C504 C 0.71626 0.14945 0.07013 0.0
C505 C 0.70059 0.14913 0.08643 0.0
C506 C 0.72178 0.18358 0.06198 0.0
C507 C 0.71134 0.21832 0.0703 0.0
C508 C 0.69451 0.21812 0.08652 0.0
C509 C 0.68937 0.18354 0.0944 0.0
C510 C 0.73981 0.18256 0.0447 0.0
C511 C 0.68286 0.25458 0.09577 0.0
C512 C 0.76213 0.31002 0.06088 0.0
C513 C 0.73498 0.32745 0.05015 0.0
C514 C 0.75516 0.27408 0.06711 0.0
C515 C 0.72009 0.25506 0.06258 0.0
C516 C 0.69314 0.2718 0.0512 0.0
C517 C 0.70095 0.30779 0.04507 0.0
C518 C 0.78485 0.25705 0.07905 0.0
C519 C 0.65547 0.25236 0.04603 0.0
H520 H 0.72492 0.12302 0.06381 0.0
H521 H 0.67714 0.18358 0.10695 0.0
H522 H 0.72188 0.1976 0.03513 0.0
H523 H 0.76776 0.19759 0.04613 0.0
H524 H 0.74413 0.15307 0.03944 0.0
H525 H 0.66821 0.24942 0.1078 0.0
H526 H 0.70832 0.27286 0.09925 0.0
H527 H 0.66367 0.27063 0.08709 0.0
H528 H 0.78855 0.32494 0.06483 0.0
H529 H 0.67975 0.32112 0.03685 0.0
H530 H 0.79188 0.22808 0.07401 0.0
H531 H 0.77352 0.25431 0.09203 0.0
H532 H 0.8114 0.27454 0.08059 0.0
H533 H 0.65993 0.22296 0.04074 0.0
H534 H 0.63869 0.26787 0.03619 0.0
H535 H 0.63858 0.25025 0.05764 0.0
C536 C 0.0796 0.18865 0.33049 0.0
C537 C 0.08325 0.17648 0.34744 0.0
C538 C 0.04365 0.1919 0.32199 0.0
C539 C 0.01066 0.1837 0.33085 0.0
C540 C 0.01422 0.17218 0.3481 0.0
C541 C 0.0505 0.16825 0.35611 0.0
C542 C 0.04099 0.20337 0.30345 0.0
C543 C 0.97972 0.16391 0.3581 0.0
C544 C 0.91592 0.2214 0.31394 0.0
C545 C 0.89886 0.18855 0.3057 0.0
C546 C 0.95233 0.22028 0.32225 0.0
C547 C 0.97239 0.18573 0.32189 0.0
C548 C 0.95555 0.15271 0.31328 0.0
C549 C 0.91883 0.15442 0.30548 0.0
C550 C 0.96906 0.25585 0.33164 0.0
C551 C 0.97631 0.11553 0.31229 0.0
H552 H 0.10489 0.19492 0.32374 0.0
H553 H 0.0532 0.15926 0.3693 0.0
H554 H 0.0264 0.18051 0.29502 0.0
H555 H 0.02375 0.22929 0.30237 0.0
H556 H 0.06934 0.209 0.29844 0.0
H557 H 0.98735 0.15733 0.37172 0.0
H558 H 0.96064 0.18867 0.35817 0.0
H559 H 0.96343 0.13939 0.35169 0.0
H560 H 0.9005 0.24779 0.31419 0.0
H561 H 0.90593 0.12903 0.29896 0.0
H562 H 0.99641 0.26351 0.32619 0.0
H563 H 0.97517 0.25067 0.34553 0.0
H564 H 0.94978 0.28039 0.33073 0.0
H565 H 0.00414 0.11959 0.30656 0.0
H566 H 0.95992 0.09295 0.30441 0.0
H567 H 0.9821 0.10556 0.32552 0.0
C568 C 0.0419 0.5975 0.57375 0.0
C569 C 0.06211 0.60003 0.58993 0.0
C570 C 0.03818 0.56278 0.56394 0.0
C571 C 0.0549 0.52988 0.57053 0.0
C572 C 0.07707 0.53276 0.58638 0.0
C573 C 0.08047 0.5678 0.59587 0.0
C574 C 0.0147 0.56092 0.54699 0.0
C575 C 0.09541 0.49834 0.59386 0.0
C576 C 0.00784 0.4333 0.56109 0.0
C577 C 0.03283 0.41544 0.54987 0.0
C578 C 0.0139 0.47109 0.56729 0.0
C579 C 0.04565 0.49171 0.56208 0.0
C580 C 0.06987 0.47459 0.55002 0.0
C581 C 0.06324 0.43651 0.54408 0.0
C582 C 0.98735 0.48828 0.58013 0.0
C583 C 0.10369 0.4959 0.544 0.0
H584 H 0.02789 0.62235 0.56899 0.0
H585 H 0.09644 0.56953 0.60827 0.0
H586 H 0.02962 0.54475 0.53678 0.0
H587 H 0.98746 0.54572 0.5486 0.0
H588 H 0.00827 0.58964 0.54248 0.0
H589 H 0.11446 0.50596 0.60549 0.0
H590 H 0.07305 0.47837 0.5976 0.0
H591 H 0.11209 0.48305 0.58402 0.0
H592 H 0.98411 0.41735 0.56555 0.0
H593 H 0.08258 0.42293 0.53536 0.0
H594 H 0.97657 0.51574 0.57572 0.0
H595 H 0.00298 0.4942 0.59287 0.0
H596 H 0.96269 0.46927 0.58202 0.0
H597 H 0.09534 0.52449 0.53998 0.0
H598 H 0.11675 0.48043 0.53298 0.0
H599 H 0.12549 0.50007 0.55486 0.0
C600 C 0.78125 0.14818 0.49097 0.0
C601 C 0.77302 0.1491 0.47305 0.0
C602 C 0.81545 0.16369 0.49863 0.0
C603 C 0.84174 0.18086 0.48813 0.0
C604 C 0.83368 0.18165 0.47004 0.0
C605 C 0.79951 0.16558 0.4627 0.0
C606 C 0.82332 0.16197 0.51795 0.0
C607 C 0.86087 0.20004 0.45846 0.0
C608 C 0.91198 0.254 0.50944 0.0
C609 C 0.9454 0.233 0.51073 0.0
C610 C 0.87803 0.23734 0.50212 0.0
C611 C 0.87741 0.19868 0.4961 0.0
C612 C 0.91097 0.17725 0.49743 0.0
C613 C 0.94463 0.19473 0.50465 0.0
C614 C 0.84287 0.2612 0.50073 0.0
C615 C 0.91128 0.13586 0.49126 0.0
H616 H 0.76096 0.13536 0.49902 0.0
H617 H 0.79329 0.16654 0.44885 0.0
H618 H 0.85066 0.14767 0.52066 0.0
H619 H 0.82609 0.19118 0.52406 0.0
H620 H 0.80053 0.14652 0.52419 0.0
H621 H 0.85051 0.19794 0.4446 0.0
H622 H 0.86515 0.23052 0.4626 0.0
H623 H 0.889 0.18647 0.45963 0.0
H624 H 0.91235 0.28361 0.51406 0.0
H625 H 0.97028 0.17825 0.50567 0.0
H626 H 0.81989 0.24837 0.50785 0.0
H627 H 0.83244 0.26187 0.48695 0.0
H628 H 0.84813 0.29087 0.50601 0.0
H629 H 0.89002 0.11954 0.49803 0.0
H630 H 0.93956 0.123 0.49354 0.0
H631 H 0.90314 0.1328 0.47719 0.0
C632 C 0.08432 0.27604 0.72569 0.0
C633 C 0.11964 0.26857 0.73394 0.0
C634 C 0.06449 0.309 0.73013 0.0
C635 C 0.07994 0.3348 0.74341 0.0
C636 C 0.11545 0.3273 0.75192 0.0
C637 C 0.13513 0.29442 0.74694 0.0
C638 C 0.02708 0.31631 0.72052 0.0
C639 C 0.13246 0.35386 0.76636 0.0
C640 C 0.04397 0.43599 0.74484 0.0
C641 C 0.01611 0.43435 0.75705 0.0
C642 C 0.06504 0.40382 0.7403 0.0
C643 C 0.05862 0.36944 0.74842 0.0
C644 C 0.03083 0.36774 0.7609 0.0
C645 C 0.00964 0.40011 0.76493 0.0
C646 C 0.09383 0.40648 0.72665 0.0
C647 C 0.02356 0.33176 0.77003 0.0
H648 H 0.07238 0.25639 0.71549 0.0
H649 H 0.16238 0.28869 0.75336 0.0
H650 H 0.004 0.31768 0.72969 0.0
H651 H 0.02835 0.34417 0.71453 0.0
H652 H 0.01953 0.29393 0.71017 0.0
H653 H 0.16001 0.34367 0.77184 0.0
H654 H 0.137 0.38253 0.76152 0.0
H655 H 0.11251 0.35692 0.77693 0.0
H656 H 0.04902 0.46236 0.73868 0.0
H657 H 0.98844 0.39877 0.77451 0.0
H658 H 0.08639 0.38566 0.71566 0.0
H659 H 0.12237 0.39917 0.73209 0.0
H660 H 0.09543 0.43532 0.72157 0.0
H661 H 0.01339 0.30876 0.76045 0.0
H662 H 0.00213 0.33562 0.77995 0.0
H663 H 0.05037 0.32212 0.77644 0.0
C664 C 0.94094 0.61377 0.98221 0.0
C665 C 0.96936 0.62779 0.9944 0.0
C666 C 0.91057 0.59145 0.9872 0.0
C667 C 0.90816 0.58355 0.00486 0.0
C668 C 0.93634 0.59826 0.01729 0.0
C669 C 0.96681 0.61992 0.01188 0.0
C670 C 0.88135 0.57586 0.97353 0.0
C671 C 0.93431 0.59109 0.03629 0.0
C672 C 0.811 0.55554 0.01927 0.0
C673 C 0.81404 0.51602 0.02016 0.0
C674 C 0.8416 0.57787 0.01457 0.0
C675 C 0.87589 0.56022 0.01033 0.0
C676 C 0.87914 0.52031 0.01112 0.0
C677 C 0.84826 0.4987 0.0162 0.0
C678 C 0.83723 0.6204 0.01417 0.0
C679 C 0.91506 0.50041 0.0064 0.0
H680 H 0.9429 0.61946 0.96865 0.0
H681 H 0.98862 0.63077 0.02137 0.0
H682 H 0.88011 0.54437 0.97355 0.0
H683 H 0.85278 0.58627 0.9765 0.0
H684 H 0.88766 0.5841 0.96032 0.0
H685 H 0.958 0.60528 0.04435 0.0
H686 H 0.90702 0.60148 0.04106 0.0
H687 H 0.93514 0.56011 0.03814 0.0
H688 H 0.78475 0.56918 0.02246 0.0
H689 H 0.85071 0.46817 0.0168 0.0
H690 H 0.84079 0.62958 0.00086 0.0
H691 H 0.85969 0.63512 0.02277 0.0
H692 H 0.80908 0.62982 0.01835 0.0
H693 H 0.92145 0.50606 0.99288 0.0
H694 H 0.91292 0.46918 0.00755 0.0
H695 H 0.9394 0.51172 0.01494 0.0
C696 C 0.5992 0.42408 0.24971 0.0
C697 C 0.58069 0.41171 0.23382 0.0
C698 C 0.62588 0.40123 0.25814 0.0
C699 C 0.63452 0.36531 0.25042 0.0
C700 C 0.61457 0.35187 0.23483 0.0
C701 C 0.58775 0.37516 0.22676 0.0
C702 C 0.64612 0.41632 0.27488 0.0
C703 C 0.623 0.31372 0.22617 0.0
C704 C 0.73319 0.32579 0.25782 0.0
C705 C 0.72655 0.29648 0.26888 0.0
C706 C 0.70364 0.34907 0.25212 0.0
C707 C 0.66659 0.34314 0.25775 0.0
C708 C 0.66007 0.31484 0.2696 0.0
C709 C 0.69012 0.29171 0.27497 0.0
C710 C 0.71178 0.37895 0.23948 0.0
C711 C 0.62109 0.30804 0.27608 0.0
H712 H 0.59369 0.45216 0.25535 0.0
H713 H 0.57359 0.36533 0.21451 0.0
H714 H 0.64576 0.39467 0.28476 0.0
H715 H 0.6763 0.42262 0.27261 0.0
H716 H 0.63316 0.4427 0.2802 0.0
H717 H 0.60315 0.30625 0.2148 0.0
H718 H 0.6524 0.31408 0.22174 0.0
H719 H 0.62128 0.29107 0.23552 0.0
H720 H 0.76122 0.32967 0.25304 0.0
H721 H 0.68477 0.26918 0.28356 0.0
H722 H 0.70233 0.40714 0.24448 0.0
H723 H 0.6956 0.37204 0.22696 0.0
H724 H 0.74244 0.3811 0.23698 0.0
H725 H 0.60911 0.33517 0.28107 0.0
H726 H 0.62152 0.28759 0.28652 0.0
H727 H 0.60166 0.29661 0.2652 0.0
C728 C 0.22879 0.13816 0.42277 0.0
C729 C 0.19119 0.14269 0.41658 0.0
C730 C 0.23704 0.12559 0.43942 0.0
C731 C 0.20688 0.11644 0.44989 0.0
C732 C 0.1688 0.11944 0.44337 0.0
C733 C 0.16139 0.13304 0.42681 0.0
C734 C 0.27801 0.12337 0.44602 0.0
C735 C 0.13595 0.10904 0.45401 0.0
C736 C 0.23322 0.05482 0.48721 0.0
C737 C 0.23707 0.08175 0.50127 0.0
C738 C 0.22215 0.06555 0.47052 0.0
C739 C 0.21543 0.10427 0.46776 0.0
C740 C 0.21869 0.13158 0.48193 0.0
C741 C 0.22911 0.11991 0.49858 0.0
C742 C 0.21829 0.03554 0.4558 0.0
C743 C 0.21191 0.1732 0.47943 0.0
H744 H 0.25181 0.14612 0.41489 0.0
H745 H 0.13231 0.13665 0.42195 0.0
H746 H 0.28319 0.14287 0.4577 0.0
H747 H 0.2843 0.09421 0.44994 0.0
H748 H 0.2981 0.13108 0.43616 0.0
H749 H 0.10809 0.11155 0.44677 0.0
H750 H 0.13884 0.07945 0.45806 0.0
H751 H 0.13617 0.12785 0.46599 0.0
H752 H 0.23894 0.0252 0.48924 0.0
H753 H 0.23204 0.14083 0.50939 0.0
H754 H 0.23997 0.04065 0.44629 0.0
H755 H 0.19003 0.03713 0.44886 0.0
H756 H 0.22186 0.00637 0.46034 0.0
H757 H 0.23066 0.18363 0.46958 0.0
H758 H 0.21707 0.19102 0.49165 0.0
H759 H 0.1822 0.17709 0.47451 0.0
C760 C 0.14623 0.69432 0.66921 0.0
C761 C 0.10959 0.70381 0.6632 0.0
C762 C 0.15718 0.69828 0.68697 0.0
C763 C 0.13111 0.71288 0.69884 0.0
C764 C 0.09374 0.72134 0.69289 0.0
C765 C 0.08336 0.71635 0.67518 0.0
C766 C 0.19703 0.68817 0.69295 0.0
C767 C 0.06521 0.7373 0.70509 0.0
C768 C 0.15127 0.70951 0.74757 0.0
C769 C 0.16829 0.74536 0.75156 0.0
C770 C 0.13951 0.69807 0.73038 0.0
C771 C 0.14411 0.72352 0.71706 0.0
C772 C 0.1605 0.76003 0.72114 0.0
C773 C 0.1727 0.77032 0.73829 0.0
C774 C 0.12232 0.65885 0.7265 0.0
C775 C 0.16489 0.78842 0.70739 0.0
H776 H 0.16646 0.68427 0.66003 0.0
H777 H 0.05495 0.72379 0.67063 0.0
H778 H 0.21334 0.71443 0.69734 0.0
H779 H 0.19639 0.6699 0.70418 0.0
H780 H 0.21231 0.67315 0.6825 0.0
H781 H 0.03783 0.74391 0.69822 0.0
H782 H 0.05957 0.71661 0.71497 0.0
H783 H 0.07675 0.76369 0.71206 0.0
H784 H 0.14797 0.69008 0.7578 0.0
H785 H 0.18551 0.79821 0.74133 0.0
H786 H 0.13527 0.6446 0.71516 0.0
H787 H 0.09149 0.66112 0.72316 0.0
H788 H 0.126 0.64064 0.73773 0.0
H789 H 0.18323 0.77668 0.69727 0.0
H790 H 0.17754 0.81589 0.7128 0.0
H791 H 0.13678 0.79396 0.70095 0.0
C792 C 0.61439 0.60716 0.92621 0.0
C793 C 0.58684 0.58858 0.91494 0.0
C794 C 0.60598 0.61852 0.94327 0.0
C795 C 0.56961 0.61005 0.94918 0.0
C796 C 0.54242 0.58974 0.93799 0.0
C797 C 0.5512 0.57973 0.92095 0.0
C798 C 0.63556 0.6403 0.95483 0.0
C799 C 0.50373 0.57916 0.9439 0.0
C800 C 0.54892 0.61548 0.99697 0.0
C801 C 0.52896 0.64954 0.99828 0.0
C802 C 0.56336 0.60261 0.98116 0.0
C803 C 0.55845 0.6248 0.9665 0.0
C804 C 0.53959 0.65989 0.96797 0.0
C805 C 0.5248 0.67165 0.98378 0.0
C806 C 0.58314 0.56498 0.98004 0.0
C807 C 0.53399 0.68453 0.95268 0.0
H808 H 0.64207 0.61355 0.92154 0.0
H809 H 0.53023 0.56445 0.91233 0.0
H810 H 0.62488 0.66893 0.95849 0.0
H811 H 0.64113 0.62556 0.96699 0.0
H812 H 0.66277 0.64366 0.94845 0.0
H813 H 0.48706 0.56074 0.93404 0.0
H814 H 0.50671 0.564 0.95609 0.0
H815 H 0.48744 0.60528 0.94667 0.0
H816 H 0.55233 0.59837 0.00816 0.0
H817 H 0.50985 0.69827 0.98476 0.0
H818 H 0.61294 0.56969 0.97673 0.0
H819 H 0.56929 0.546 0.96955 0.0
H820 H 0.5832 0.5503 0.99239 0.0
H821 H 0.56148 0.68954 0.94678 0.0
H822 H 0.52168 0.71246 0.95636 0.0
H823 H 0.51467 0.66977 0.94259 0.0
C824 C 0.65264 0.98749 0.18019 0.0
C825 C 0.65646 0.02367 0.17372 0.0
C826 C 0.63912 0.98276 0.19665 0.0
C827 C 0.62953 0.01504 0.20712 0.0
C828 C 0.63361 0.05175 0.20078 0.0
C829 C 0.64684 0.05565 0.18409 0.0
C830 C 0.63509 0.94304 0.20284 0.0
C831 C 0.62505 0.0869 0.2118 0.0
C832 C 0.56288 0.9919 0.24219 0.0
C833 C 0.58873 0.98471 0.25598 0.0
C834 C 0.57564 0.00398 0.22644 0.0
C835 C 0.61508 0.00962 0.22461 0.0
C836 C 0.64092 0.00503 0.23901 0.0
C837 C 0.62742 0.99243 0.25446 0.0
C838 C 0.54716 0.00793 0.21138 0.0
C839 C 0.68298 0.01219 0.23802 0.0
H840 H 0.65995 0.96257 0.17231 0.0
H841 H 0.64983 0.08373 0.17923 0.0
H842 H 0.65386 0.94005 0.21467 0.0
H843 H 0.60547 0.93774 0.20636 0.0
H844 H 0.64252 0.92086 0.19289 0.0
H845 H 0.62817 0.11328 0.20473 0.0
H846 H 0.59575 0.08514 0.21625 0.0
H847 H 0.64469 0.0889 0.22353 0.0
H848 H 0.53292 0.98581 0.24331 0.0
H849 H 0.64739 0.98749 0.26524 0.0
H850 H 0.55124 0.98486 0.20133 0.0
H851 H 0.5516 0.03533 0.20531 0.0
H852 H 0.51741 0.0063 0.21535 0.0
H853 H 0.69367 0.99741 0.22628 0.0
H854 H 0.6996 0.00268 0.24956 0.0
H855 H 0.68824 0.04312 0.23722 0.0
C856 C 0.05509 0.77434 0.92209 0.0
C857 C 0.08598 0.77386 0.93435 0.0
C858 C 0.06084 0.77979 0.90454 0.0
C859 C 0.09825 0.78494 0.89922 0.0
C860 C 0.12889 0.78866 0.91185 0.0
C861 C 0.12232 0.7834 0.92927 0.0
C862 C 0.02731 0.77702 0.89151 0.0
C863 C 0.16928 0.7941 0.90678 0.0
C864 C 0.12661 0.73817 0.85677 0.0
C865 C 0.1341 0.76961 0.84706 0.0
C866 C 0.11328 0.74283 0.87346 0.0
C867 C 0.10646 0.77986 0.88055 0.0
C868 C 0.11143 0.81157 0.87037 0.0
C869 C 0.12572 0.80612 0.85379 0.0
C870 C 0.10854 0.70817 0.88388 0.0
C871 C 0.10341 0.85137 0.87723 0.0
H872 H 0.02676 0.76766 0.9259 0.0
H873 H 0.14628 0.78374 0.93869 0.0
H874 H 0.02804 0.80104 0.88283 0.0
H875 H 0.02875 0.75042 0.88323 0.0
H876 H 0.99981 0.77706 0.89786 0.0
H877 H 0.18923 0.80056 0.91822 0.0
H878 H 0.17862 0.76774 0.89984 0.0
H879 H 0.17123 0.81746 0.89782 0.0
H880 H 0.13305 0.70987 0.85169 0.0
H881 H 0.13117 0.83054 0.8463 0.0
H882 H 0.07918 0.70647 0.88821 0.0
H883 H 0.12801 0.71044 0.89567 0.0
H884 H 0.11448 0.68132 0.8764 0.0
H885 H 0.07711 0.8519 0.88447 0.0
H886 H 0.10045 0.87135 0.86663 0.0
H887 H 0.12716 0.86175 0.88634 0.0
C888 C 0.46762 0.51411 0.15948 0.0
C889 C 0.45922 0.54289 0.17187 0.0
C890 C 0.46603 0.52113 0.14173 0.0
C891 C 0.45563 0.55757 0.13642 0.0
C892 C 0.44231 0.58476 0.14872 0.0
C893 C 0.4441 0.57695 0.1663 0.0
C894 C 0.47931 0.49098 0.12895 0.0
C895 C 0.43096 0.624 0.1437 0.0
C896 C 0.51124 0.60338 0.10246 0.0
C897 C 0.48361 0.60625 0.08889 0.0
C898 C 0.50283 0.58605 0.11769 0.0
C899 C 0.46605 0.57029 0.11925 0.0
C900 C 0.43875 0.57086 0.10514 0.0
C901 C 0.44764 0.58946 0.0902 0.0
C902 C 0.53282 0.58634 0.13246 0.0
C903 C 0.39974 0.55321 0.10607 0.0
H904 H 0.47897 0.48752 0.16367 0.0
H905 H 0.43715 0.59907 0.17586 0.0
H906 H 0.46165 0.49048 0.11661 0.0
H907 H 0.50903 0.49741 0.12593 0.0
H908 H 0.47846 0.46231 0.13424 0.0
H909 H 0.41666 0.63986 0.15424 0.0
H910 H 0.45672 0.64042 0.14078 0.0
H911 H 0.41168 0.6224 0.13187 0.0
H912 H 0.53905 0.61637 0.10153 0.0
H913 H 0.4263 0.59128 0.07966 0.0
H914 H 0.53941 0.5568 0.13568 0.0
H915 H 0.52215 0.60104 0.14424 0.0
H916 H 0.5596 0.6008 0.12935 0.0
H917 H 0.40139 0.52569 0.11237 0.0
H918 H 0.38523 0.54845 0.09299 0.0
H919 H 0.38203 0.57235 0.11398 0.0
C920 C 0.58397 0.99301 0.42848 0.0
C921 C 0.62098 0.00101 0.43538 0.0
C922 C 0.57759 0.97435 0.41211 0.0
C923 C 0.609 0.96237 0.40269 0.0
C924 C 0.64619 0.96639 0.41048 0.0
C925 C 0.65183 0.98616 0.4267 0.0
C926 C 0.53745 0.97109 0.4042 0.0
C927 C 0.68023 0.9525 0.40115 0.0
C928 C 0.57899 0.90609 0.36096 0.0
C929 C 0.579 0.93466 0.34906 0.0
C930 C 0.59182 0.91382 0.37831 0.0
C931 C 0.603 0.95139 0.38394 0.0
C932 C 0.60431 0.97996 0.37176 0.0
C933 C 0.59301 0.97099 0.35434 0.0
C934 C 0.59162 0.88227 0.39074 0.0
C935 C 0.61503 0.02062 0.37732 0.0
H936 H 0.55994 0.00419 0.43514 0.0
H937 H 0.68051 0.9918 0.43209 0.0
H938 H 0.53428 0.99031 0.39333 0.0
H939 H 0.53112 0.94176 0.3988 0.0
H940 H 0.51605 0.9788 0.41374 0.0
H941 H 0.70549 0.95001 0.41023 0.0
H942 H 0.67404 0.92448 0.39424 0.0
H943 H 0.68738 0.97287 0.39133 0.0
H944 H 0.56831 0.87788 0.35676 0.0
H945 H 0.59264 0.99305 0.3451 0.0
H946 H 0.56668 0.88509 0.39881 0.0
H947 H 0.61748 0.88396 0.39962 0.0
H948 H 0.59001 0.85381 0.38379 0.0
H949 H 0.5947 0.03216 0.38663 0.0
H950 H 0.61491 0.03904 0.36615 0.0
H951 H 0.64369 0.02215 0.38399 0.0
C952 C 0.27767 0.23067 0.67178 0.0
C953 C 0.28425 0.20582 0.68517 0.0
C954 C 0.28149 0.21844 0.65437 0.0
C955 C 0.29244 0.18064 0.65031 0.0
C956 C 0.30284 0.1568 0.66389 0.0
C957 C 0.29867 0.16971 0.68115 0.0
C958 C 0.2704 0.24483 0.64029 0.0
C959 C 0.31454 0.11627 0.66017 0.0
C960 C 0.24475 0.13112 0.60996 0.0
C961 C 0.27422 0.12933 0.59856 0.0
C962 C 0.25046 0.14791 0.62674 0.0
C963 C 0.28645 0.16399 0.63223 0.0
C964 C 0.31628 0.16286 0.62068 0.0
C965 C 0.30995 0.14502 0.604 0.0
C966 C 0.21801 0.14793 0.6387 0.0
C967 C 0.35484 0.18012 0.626 0.0
H968 H 0.26661 0.25868 0.6747 0.0
H969 H 0.30415 0.15045 0.69143 0.0
H970 H 0.29176 0.24425 0.63028 0.0
H971 H 0.24285 0.23518 0.63379 0.0
H972 H 0.26742 0.27459 0.64549 0.0
H973 H 0.32728 0.10354 0.67191 0.0
H974 H 0.2892 0.0989 0.65541 0.0
H975 H 0.33524 0.1146 0.64988 0.0
H976 H 0.21738 0.11822 0.60592 0.0
H977 H 0.33283 0.1435 0.5952 0.0
H978 H 0.2109 0.17761 0.64251 0.0
H979 H 0.22646 0.13372 0.65073 0.0
H980 H 0.1921 0.13334 0.63261 0.0
H981 H 0.35195 0.21029 0.63057 0.0
H982 H 0.37438 0.17871 0.61521 0.0
H983 H 0.36788 0.16503 0.63699 0.0
C984 C 0.56077 0.46371 0.90584 0.0
C985 C 0.58874 0.45745 0.89381 0.0
C986 C 0.56848 0.45834 0.92355 0.0
C987 C 0.60494 0.4463 0.92933 0.0
C988 C 0.63183 0.43624 0.91701 0.0
C989 C 0.62335 0.44182 0.8994 0.0
C990 C 0.53886 0.46911 0.93622 0.0
C991 C 0.67112 0.42352 0.92256 0.0
C992 C 0.64631 0.4911 0.972 0.0
C993 C 0.64537 0.46084 0.98297 0.0
C994 C 0.63289 0.48663 0.95464 0.0
C995 C 0.61741 0.4511 0.94806 0.0
C996 C 0.61556 0.42051 0.95916 0.0
C997 C 0.63012 0.42558 0.97648 0.0
C998 C 0.63597 0.51987 0.94325 0.0
C999 C 0.59856 0.38249 0.95269 0.0
H1000 H 0.53385 0.47569 0.9017 0.0
H1001 H 0.645 0.43657 0.89018 0.0
H1002 H 0.53801 0.44848 0.94653 0.0
H1003 H 0.54619 0.49745 0.94258 0.0
H1004 H 0.51012 0.47058 0.92967 0.0
H1005 H 0.68646 0.4113 0.91145 0.0
H1006 H 0.68786 0.44829 0.9285 0.0
H1007 H 0.66977 0.40205 0.93248 0.0
H1008 H 0.65885 0.51813 0.97688 0.0
H1009 H 0.62946 0.40211 0.98496 0.0
H1010 H 0.60724 0.52765 0.93828 0.0
H1011 H 0.65259 0.51196 0.93186 0.0
H1012 H 0.64973 0.54525 0.95025 0.0
H1013 H 0.56956 0.38624 0.94678 0.0
H1014 H 0.59697 0.36241 0.96322 0.0
H1015 H 0.61585 0.36961 0.94243 0.0
C1016 C 0.75336 0.0839 0.14883 0.0
C1017 C 0.77615 0.05303 0.14445 0.0
C1018 C 0.75518 0.10069 0.16573 0.0
C1019 C 0.78194 0.08758 0.17826 0.0
C1020 C 0.80621 0.05751 0.1737 0.0
C1021 C 0.80285 0.04042 0.15688 0.0
C1022 C 0.72778 0.13167 0.17032 0.0
C1023 C 0.83498 0.0427 0.18673 0.0
C1024 C 0.80643 0.15341 0.21787 0.0
C1025 C 0.78576 0.13679 0.23059 0.0
C1026 C 0.80584 0.13738 0.20086 0.0
C1027 C 0.7835 0.1043 0.19634 0.0
C1028 C 0.76286 0.08716 0.20914 0.0
C1029 C 0.76433 0.10355 0.22612 0.0
C1030 C 0.82969 0.15543 0.18779 0.0
C1031 C 0.73921 0.05139 0.20531 0.0
H1032 H 0.734 0.0949 0.13907 0.0
H1033 H 0.82082 0.01675 0.15353 0.0
H1034 H 0.71172 0.12373 0.18157 0.0
H1035 H 0.74362 0.15848 0.17421 0.0
H1036 H 0.70723 0.13705 0.15936 0.0
H1037 H 0.85413 0.02166 0.18071 0.0
H1038 H 0.85247 0.06652 0.19307 0.0
H1039 H 0.81997 0.02888 0.19702 0.0
H1040 H 0.82351 0.17884 0.22124 0.0
H1041 H 0.74843 0.09029 0.23585 0.0
H1042 H 0.81125 0.16478 0.17681 0.0
H1043 H 0.84946 0.13423 0.1824 0.0
H1044 H 0.84653 0.18035 0.19353 0.0
H1045 H 0.71045 0.05617 0.20989 0.0
H1046 H 0.75181 0.02815 0.21274 0.0
H1047 H 0.73639 0.04182 0.19141 0.0
C1048 C 0.21067 0.28008 0.4148 0.0
C1049 C 0.18198 0.284 0.40171 0.0
C1050 C 0.20305 0.28562 0.43239 0.0
C1051 C 0.16588 0.29504 0.43695 0.0
C1052 C 0.13816 0.30323 0.4238 0.0
C1053 C 0.14667 0.29795 0.40634 0.0
C1054 C 0.23376 0.27762 0.446 0.0
C1055 C 0.09803 0.31298 0.42802 0.0
C1056 C 0.12711 0.24561 0.47466 0.0
C1057 C 0.12356 0.27574 0.487 0.0
C1058 C 0.14136 0.25166 0.45848 0.0
C1059 C 0.15377 0.28854 0.45472 0.0
C1060 C 0.15223 0.3188 0.46748 0.0
C1061 C 0.13646 0.31219 0.4834 0.0
C1062 C 0.14196 0.21861 0.44523 0.0
C1063 C 0.16639 0.3582 0.46416 0.0
H1064 H 0.23827 0.26983 0.41141 0.0
H1065 H 0.12445 0.3016 0.39635 0.0
H1066 H 0.23216 0.29731 0.45763 0.0
H1067 H 0.22998 0.24822 0.45015 0.0
H1068 H 0.26249 0.28015 0.44092 0.0
H1069 H 0.08166 0.32399 0.41673 0.0
H1070 H 0.08324 0.28705 0.43194 0.0
H1071 H 0.09789 0.33446 0.43902 0.0
H1072 H 0.11712 0.21739 0.47732 0.0
H1073 H 0.13398 0.33554 0.49297 0.0
H1074 H 0.17178 0.21175 0.44265 0.0
H1075 H 0.12751 0.22599 0.43278 0.0
H1076 H 0.12776 0.19285 0.44965 0.0
H1077 H 0.19476 0.3569 0.45865 0.0
H1078 H 0.16836 0.37707 0.47618 0.0
H1079 H 0.14681 0.37112 0.45453 0.0
C1080 C 0.94478 0.70165 0.65431 0.0
C1081 C 0.94687 0.67373 0.64073 0.0
C1082 C 0.94048 0.69146 0.67143 0.0
C1083 C 0.93866 0.65253 0.67503 0.0
C1084 C 0.93663 0.62456 0.66114 0.0
C1085 C 0.94031 0.63554 0.64415 0.0
C1086 C 0.94129 0.72216 0.68583 0.0
C1087 C 0.93463 0.58271 0.66435 0.0
C1088 C 0.9905 0.62083 0.71582 0.0
C1089 C 0.96052 0.60977 0.72572 0.0
C1090 C 0.98358 0.63583 0.69957 0.0
C1091 C 0.94568 0.64069 0.69312 0.0
C1092 C 0.91524 0.63153 0.70344 0.0
C1093 C 0.92301 0.6157 0.71955 0.0
C1094 C 0.01695 0.64471 0.68894 0.0
C1095 C 0.8745 0.63713 0.69724 0.0
H1096 H 0.94918 0.73131 0.65179 0.0
H1097 H 0.9412 0.61373 0.63375 0.0
H1098 H 0.93734 0.75084 0.68079 0.0
H1099 H 0.91882 0.71673 0.69492 0.0
H1100 H 0.96898 0.722 0.69334 0.0
H1101 H 0.92846 0.56494 0.65218 0.0
H1102 H 0.96222 0.57392 0.67033 0.0
H1103 H 0.91248 0.57684 0.67352 0.0
H1104 H 0.01958 0.61636 0.72046 0.0
H1105 H 0.89969 0.60745 0.72719 0.0
H1106 H 0.0148 0.67385 0.68433 0.0
H1107 H 0.01662 0.6248 0.6773 0.0
H1108 H 0.04463 0.64232 0.69634 0.0
H1109 H 0.87121 0.6648 0.69118 0.0
H1110 H 0.85494 0.63594 0.70798 0.0
H1111 H 0.86578 0.61446 0.68724 0.0
C1112 C 0.67661 0.15489 0.40396 0.0
C1113 C 0.64151 0.13726 0.40636 0.0
C1114 C 0.68923 0.15917 0.38728 0.0
C1115 C 0.66591 0.14615 0.37259 0.0
C1116 C 0.62937 0.13069 0.3749 0.0
C1117 C 0.61772 0.12611 0.39177 0.0
C1118 C 0.72851 0.17558 0.38542 0.0
C1119 C 0.60299 0.11818 0.35954 0.0
C1120 C 0.697 0.17775 0.32919 0.0
C1121 C 0.71806 0.14646 0.32346 0.0
C1122 C 0.67842 0.17754 0.34481 0.0
C1123 C 0.68141 0.14549 0.35504 0.0
C1124 C 0.70153 0.11334 0.34899 0.0
C1125 C 0.71935 0.11412 0.33324 0.0
C1126 C 0.65691 0.21218 0.35069 0.0
C1127 C 0.7055 0.0786 0.3595 0.0
H1128 H 0.69525 0.16355 0.41513 0.0
H1129 H 0.59038 0.11282 0.39352 0.0
H1130 H 0.74691 0.15322 0.37992 0.0
H1131 H 0.72734 0.1988 0.3763 0.0
H1132 H 0.74196 0.18689 0.39802 0.0
H1133 H 0.57671 0.10405 0.3635 0.0
H1134 H 0.59484 0.14324 0.35219 0.0
H1135 H 0.61752 0.09835 0.35055 0.0
H1136 H 0.69573 0.20282 0.32167 0.0
H1137 H 0.73556 0.08983 0.32892 0.0
H1138 H 0.67231 0.22664 0.36216 0.0
H1139 H 0.62838 0.20385 0.3547 0.0
H1140 H 0.6535 0.23282 0.34038 0.0
H1141 H 0.72126 0.08627 0.37205 0.0
H1142 H 0.7207 0.05537 0.35267 0.0
H1143 H 0.67708 0.06778 0.36247 0.0
C1144 C 0.16653 0.24228 0.65735 0.0
C1145 C 0.15601 0.21063 0.66633 0.0
C1146 C 0.15426 0.24583 0.64001 0.0
C1147 C 0.13047 0.21721 0.63145 0.0
C1148 C 0.12061 0.18458 0.64027 0.0
C1149 C 0.13368 0.18156 0.65765 0.0
C1150 C 0.16603 0.28075 0.631 0.0
C1151 C 0.09551 0.15339 0.63149 0.0
C1152 C 0.06618 0.25359 0.59546 0.0
C1153 C 0.0859 0.24347 0.58067 0.0
C1154 C 0.07959 0.2437 0.61196 0.0
C1155 C 0.11372 0.22334 0.61379 0.0
C1156 C 0.13327 0.21211 0.59889 0.0
C1157 C 0.119 0.22211 0.58248 0.0
C1158 C 0.05794 0.25632 0.62752 0.0
C1159 C 0.16956 0.19014 0.60034 0.0
H1160 H 0.1845 0.26448 0.66387 0.0
H1161 H 0.12579 0.15691 0.66452 0.0
H1162 H 0.17913 0.27236 0.61868 0.0
H1163 H 0.14064 0.2977 0.6277 0.0
H1164 H 0.18661 0.29913 0.63914 0.0
H1165 H 0.09213 0.12898 0.6398 0.0
H1166 H 0.06701 0.16473 0.62815 0.0
H1167 H 0.10751 0.14299 0.61918 0.0
H1168 H 0.04039 0.2698 0.5942 0.0
H1169 H 0.13427 0.21397 0.57111 0.0
H1170 H 0.07532 0.27736 0.63585 0.0
H1171 H 0.05222 0.23178 0.63545 0.0
H1172 H 0.03048 0.26949 0.62378 0.0
H1173 H 0.19064 0.20546 0.60947 0.0
H1174 H 0.1824 0.18517 0.58763 0.0
H1175 H 0.16358 0.16224 0.60564 0.0
C1176 C 0.05284 0.62883 0.90129 0.0
C1177 C 0.02828 0.65645 0.90773 0.0
C1178 C 0.05034 0.61652 0.88368 0.0
C1179 C 0.02257 0.63214 0.87234 0.0
C1180 C 0.99921 0.66151 0.8786 0.0
C1181 C 0.00227 0.67323 0.89621 0.0
C1182 C 0.07628 0.58572 0.87734 0.0
C1183 C 0.96971 0.67938 0.86686 0.0
C1184 C 0.02117 0.61212 0.82342 0.0
C1185 C 0.99425 0.58228 0.82109 0.0
C1186 C 0.03131 0.62845 0.84007 0.0
C1187 C 0.01422 0.61443 0.85465 0.0
C1188 C 0.98734 0.58414 0.85236 0.0
C1189 C 0.97776 0.56846 0.83566 0.0
C1190 C 0.06045 0.66041 0.84203 0.0
C1191 C 0.96808 0.56864 0.86754 0.0
H1192 H 0.07346 0.61623 0.91007 0.0
H1193 H 0.98372 0.6952 0.90099 0.0
H1194 H 0.05944 0.55932 0.87379 0.0
H1195 H 0.08988 0.59422 0.86552 0.0
H1196 H 0.09883 0.57932 0.88731 0.0
H1197 H 0.95643 0.70434 0.87334 0.0
H1198 H 0.98262 0.68857 0.85498 0.0
H1199 H 0.94705 0.65808 0.86273 0.0
H1200 H 0.03425 0.62279 0.81225 0.0
H1201 H 0.95693 0.54544 0.83405 0.0
H1202 H 0.08729 0.64967 0.84793 0.0
H1203 H 0.05093 0.68392 0.8508 0.0
H1204 H 0.06655 0.67196 0.82938 0.0
H1205 H 0.98966 0.55896 0.87723 0.0
H1206 H 0.94838 0.54445 0.86357 0.0
H1207 H 0.95172 0.59141 0.87405 0.0
C1208 C 0.61068 0.533 0.15858 0.0
C1209 C 0.58789 0.50181 0.16224 0.0
C1210 C 0.62681 0.53472 0.14241 0.0
C1211 C 0.62018 0.50443 0.12976 0.0
C1212 C 0.59642 0.47343 0.13326 0.0
C1213 C 0.58054 0.47255 0.14941 0.0
C1214 C 0.65124 0.56865 0.13891 0.0
C1215 C 0.58831 0.44071 0.12006 0.0
C1216 C 0.63964 0.50944 0.08211 0.0
C1217 C 0.67404 0.49009 0.08137 0.0
C1218 C 0.62249 0.51607 0.09795 0.0
C1219 C 0.64027 0.50312 0.11335 0.0
C1220 C 0.67574 0.48501 0.11276 0.0
C1221 C 0.69222 0.47883 0.09681 0.0
C1222 C 0.58515 0.53639 0.09813 0.0
C1223 C 0.69541 0.47035 0.12885 0.0
H1224 H 0.6159 0.55603 0.16833 0.0
H1225 H 0.56254 0.44857 0.15201 0.0
H1226 H 0.6806 0.55947 0.13667 0.0
H1227 H 0.64015 0.58172 0.12697 0.0
H1228 H 0.6523 0.59058 0.14981 0.0
H1229 H 0.56826 0.41933 0.12463 0.0
H1230 H 0.57605 0.45142 0.10777 0.0
H1231 H 0.61518 0.42635 0.11709 0.0
H1232 H 0.62565 0.51868 0.07028 0.0
H1233 H 0.71891 0.46403 0.09642 0.0
H1234 H 0.5896 0.56435 0.10528 0.0
H1235 H 0.56399 0.52013 0.10499 0.0
H1236 H 0.57316 0.54122 0.08487 0.0
H1237 H 0.69826 0.4932 0.13931 0.0
H1238 H 0.72409 0.45934 0.12641 0.0
H1239 H 0.67804 0.44704 0.13367 0.0
loop_
_geom_bond_atom_site_label_1
_geom_bond_atom_site_label_2
_geom_bond_distance
_geom_bond_site_symmetry_2
_ccdc_geom_bond_type
Mg0 O7 2.141 . S
Mg0 O8 2.048 . S
Mg0 O9 2.048 . S
Mg0 O12 2.141 . S
C1 O2 1.313 . S
C1 O8 1.195 . S
O2 C1 1.313 . S
C3 O4 1.245 . S
C3 O12 1.289 . S
O4 C3 1.245 . S
C5 O6 1.245 . S
C5 O7 1.289 . S
O6 C5 1.245 . S
O7 Mg0 2.141 . S
O7 C5 1.289 . S
O8 Mg0 2.048 . S
O8 C1 1.195 . S
O9 Mg0 2.048 . S
O9 C10 1.195 . S
C10 O9 1.195 . S
C10 O11 1.313 . S
O11 C10 1.313 . S
O12 Mg0 2.141 . S
O12 C3 1.289 . S
Mg13 O20 2.141 . S
Mg13 O21 2.048 . S
Mg13 O22 2.048 . S
Mg13 O25 2.141 . S
C14 O15 1.313 . S
C14 O21 1.195 . S
O15 C14 1.313 . S
C16 O17 1.245 . S
C16 O25 1.289 . S
O17 C16 1.245 . S
C18 O19 1.245 . S
C18 O20 1.289 . S
O19 C18 1.245 . S
O20 Mg13 2.141 . S
O20 C18 1.289 . S
O21 Mg13 2.048 . S
O21 C14 1.195 . S
O22 Mg13 2.048 . S
O22 C23 1.195 . S
C23 O22 1.195 . S
C23 O24 1.313 . S
O24 C23 1.313 . S
O25 Mg13 2.141 . S
O25 C16 1.289 . S
Mg26 O33 2.141 . S
Mg26 O34 2.048 . S
Mg26 O35 2.048 . S
Mg26 O38 2.141 . S
C27 O28 1.313 . S
C27 O34 1.195 . S
O28 C27 1.313 . S
C29 O30 1.245 . S
C29 O38 1.289 . S
O30 C29 1.245 . S
C31 O32 1.245 . S
C31 O33 1.289 . S
O32 C31 1.245 . S
O33 Mg26 2.141 . S
O33 C31 1.289 . S
O34 Mg26 2.048 . S
O34 C27 1.195 . S
O35 Mg26 2.048 . S
O35 C36 1.195 . S
C36 O35 1.195 . S
C36 O37 1.313 . S
O37 C36 1.313 . S
O38 Mg26 2.141 . S
O38 C29 1.289 . S
Mg39 O46 2.141 . S
Mg39 O47 2.048 . S
Mg39 O48 2.048 1_545 S
Mg39 O51 2.141 1_545 S
C40 O41 1.313 . S
C40 O47 1.195 . S
O41 C40 1.313 . S
C42 O43 1.245 . S
C42 O51 1.289 . S
O43 C42 1.245 . S
C44 O45 1.245 . S
C44 O46 1.289 . S
O45 C44 1.245 . S
O46 Mg39 2.141 . S
O46 C44 1.289 . S
O47 Mg39 2.048 . S
O47 C40 1.195 . S
O48 Mg39 2.048 1_565 S
O48 C49 1.195 . S
C49 O48 1.195 . S
C49 O50 1.313 . S
O50 C49 1.313 . S
O51 Mg39 2.141 1_565 S
O51 C42 1.289 . S
Mg52 O59 2.141 . S
Mg52 O60 2.048 . S
Mg52 O61 2.048 1_455 S
Mg52 O64 2.141 1_455 S
C53 O54 1.313 . S
C53 O60 1.195 . S
O54 C53 1.313 . S
C55 O56 1.245 . S
C55 O64 1.289 . S
O56 C55 1.245 . S
C57 O58 1.245 . S
C57 O59 1.289 . S
O58 C57 1.245 . S
O59 Mg52 2.141 . S
O59 C57 1.289 . S
O60 Mg52 2.048 . S
O60 C53 1.195 . S
O61 Mg52 2.048 1_655 S
O61 C62 1.195 . S
C62 O61 1.195 . S
C62 O63 1.313 . S
O63 C62 1.313 . S
O64 Mg52 2.141 1_655 S
O64 C55 1.289 . S
Mg65 O72 2.141 . S
Mg65 O73 2.048 . S
Mg65 O74 2.048 . S
Mg65 O77 2.141 . S
C66 O67 1.313 . S
C66 O73 1.195 . S
O67 C66 1.313 . S
C68 O69 1.245 . S
C68 O77 1.289 . S
O69 C68 1.245 . S
C70 O71 1.245 . S
C70 O72 1.289 . S
O71 C70 1.245 . S
O72 Mg65 2.141 . S
O72 C70 1.289 . S
O73 Mg65 2.048 . S
O73 C66 1.195 . S
O74 Mg65 2.048 . S
O74 C75 1.195 . S
C75 O74 1.195 . S
C75 O76 1.313 . S
O76 C75 1.313 . S
O77 Mg65 2.141 . S
O77 C68 1.289 . S
Mg78 O85 2.141 . S
Mg78 O86 2.048 . S
Mg78 O87 2.048 1_545 S
Mg78 O90 2.141 . S
C79 O80 1.313 . S
C79 O86 1.195 . S
O80 C79 1.313 . S
C81 O82 1.245 . S
C81 O90 1.289 . S
O82 C81 1.245 . S
C83 O84 1.245 . S
C83 O85 1.289 . S
O84 C83 1.245 . S
O85 Mg78 2.141 . S
O85 C83 1.289 . S
O86 Mg78 2.048 . S
O86 C79 1.195 . S
O87 Mg78 2.048 1_565 S
O87 C88 1.195 . S
C88 O87 1.195 . S
C88 O89 1.313 1_565 S
O89 C88 1.313 1_545 S
O90 Mg78 2.141 . S
O90 C81 1.289 . S
Mg91 O98 2.141 . S
Mg91 O99 2.048 . S
Mg91 O100 2.048 . S
Mg91 O103 2.141 . S
C92 O93 1.313 . S
C92 O99 1.195 . S
O93 C92 1.313 . S
C94 O95 1.245 . S
C94 O103 1.289 . S
O95 C94 1.245 . S
C96 O97 1.245 . S
C96 O98 1.289 . S
O97 C96 1.245 . S
O98 Mg91 2.141 . S
O98 C96 1.289 . S
O99 Mg91 2.048 . S
O99 C92 1.195 . S
O100 Mg91 2.048 . S
O100 C101 1.195 . S
C101 O100 1.195 . S
C101 O102 1.313 . S
O102 C101 1.313 . S
O103 Mg91 2.141 . S
O103 C94 1.289 . S
O104 Cd105 2.223 . S
O104 C112 1.315 . S
Cd105 O104 2.223 . S
Cd105 O108 2.297 . S
Cd105 O109 2.439 . S
Cd105 O115 2.240 . S
Cd106 O107 2.240 . S
Cd106 O114 2.223 . S
Cd106 O116 2.297 . S
Cd106 O117 2.439 . S
O107 Cd106 2.240 . S
O107 C112 1.279 . S
O108 Cd105 2.297 . S
O108 C110 1.247 . S
O109 Cd105 2.439 . S
O109 C110 1.208 . S
C110 O108 1.247 . S
C110 O109 1.208 . S
C111 O116 1.247 . S
C111 O117 1.208 . S
C112 O104 1.315 . S
C112 O107 1.279 . S
C113 O114 1.315 . S
C113 O115 1.279 . S
O114 Cd106 2.223 . S
O114 C113 1.315 . S
O115 Cd105 2.240 . S
O115 C113 1.279 . S
O116 Cd106 2.297 . S
O116 C111 1.247 . S
O117 Cd106 2.439 . S
O117 C111 1.208 . S
O118 Cd119 2.223 . S
O118 C126 1.315 . S
Cd119 O118 2.223 . S
Cd119 O122 2.297 . S
Cd119 O123 2.439 . S
Cd119 O129 2.240 . S
Cd120 O121 2.240 . S
Cd120 O128 2.223 . S
Cd120 O130 2.297 . S
Cd120 O131 2.439 . S
O121 Cd120 2.240 . S
O121 C126 1.279 . S
O122 Cd119 2.297 . S
O122 C124 1.247 . S
O123 Cd119 2.439 . S
O123 C124 1.208 . S
C124 O122 1.247 . S
C124 O123 1.208 . S
C125 O130 1.247 . S
C125 O131 1.208 . S
C126 O118 1.315 . S
C126 O121 1.279 . S
C127 O128 1.315 . S
C127 O129 1.279 . S
O128 Cd120 2.223 . S
O128 C127 1.315 . S
O129 Cd119 2.240 . S
O129 C127 1.279 . S
O130 Cd120 2.297 . S
O130 C125 1.247 . S
O131 Cd120 2.439 . S
O131 C125 1.208 . S
O132 Cd133 2.223 . S
O132 C140 1.315 . S
Cd133 O132 2.223 . S
Cd133 O136 2.297 . S
Cd133 O137 2.439 1_565 S
Cd133 O143 2.240 . S
Cd134 O135 2.240 . S
Cd134 O142 2.223 1_545 S
Cd134 O144 2.297 . S
Cd134 O145 2.439 . S
O135 Cd134 2.240 . S
O135 C140 1.279 1_545 S
O136 Cd133 2.297 . S
O136 C138 1.247 . S
O137 Cd133 2.439 1_545 S
O137 C138 1.208 1_545 S
C138 O136 1.247 . S
C138 O137 1.208 1_565 S
C139 O144 1.247 . S
C139 O145 1.208 . S
C140 O132 1.315 . S
C140 O135 1.279 1_565 S
C141 O142 1.315 . S
C141 O143 1.279 . S
O142 Cd134 2.223 1_565 S
O142 C141 1.315 . S
O143 Cd133 2.240 . S
O143 C141 1.279 . S
O144 Cd134 2.297 . S
O144 C139 1.247 . S
O145 Cd134 2.439 . S
O145 C139 1.208 . S
O146 Cd147 2.223 . S
O146 C154 1.315 . S
Cd147 O146 2.223 . S
Cd147 O150 2.297 . S
Cd147 O151 2.439 . S
Cd147 O157 2.240 . S
Cd148 O149 2.240 . S
Cd148 O156 2.223 . S
Cd148 O158 2.297 . S
Cd148 O159 2.439 . S
O149 Cd148 2.240 . S
O149 C154 1.279 . S
O150 Cd147 2.297 . S
O150 C152 1.247 . S
O151 Cd147 2.439 . S
O151 C152 1.208 . S
C152 O150 1.247 . S
C152 O151 1.208 . S
C153 O158 1.247 . S
C153 O159 1.208 . S
C154 O146 1.315 . S
C154 O149 1.279 . S
C155 O156 1.315 . S
C155 O157 1.279 . S
O156 Cd148 2.223 . S
O156 C155 1.315 . S
O157 Cd147 2.240 . S
O157 C155 1.279 . S
O158 Cd148 2.297 . S
O158 C153 1.247 . S
O159 Cd148 2.439 . S
O159 C153 1.208 . S
O160 Cd161 2.223 . S
O160 C168 1.315 1_655 S
Cd161 O160 2.223 . S
Cd161 O164 2.297 . S
Cd161 O165 2.439 1_655 S
Cd161 O171 2.240 . S
Cd162 O163 2.240 . S
Cd162 O170 2.223 1_455 S
Cd162 O172 2.297 . S
Cd162 O173 2.439 . S
O163 Cd162 2.240 . S
O163 C168 1.279 . S
O164 Cd161 2.297 . S
O164 C166 1.224 1_655 S
O165 Cd161 2.439 1_455 S
O165 C166 1.220 . S
C166 O164 1.224 1_455 S
C166 O165 1.220 . S
C167 O172 1.247 . S
C167 O173 1.208 . S
C168 O160 1.315 1_455 S
C168 O163 1.279 . S
C169 O170 1.315 . S
C169 O171 1.279 . S
O170 Cd162 2.223 1_655 S
O170 C169 1.315 . S
O171 Cd161 2.240 . S
O171 C169 1.279 . S
O172 Cd162 2.297 . S
O172 C167 1.247 . S
O173 Cd162 2.439 . S
O173 C167 1.208 . S
O174 Cd175 2.223 . S
O174 C182 1.315 . S
Cd175 O174 2.223 . S
Cd175 O178 2.297 . S
Cd175 O179 2.439 . S
Cd175 O185 2.240 . S
Cd176 O177 2.240 . S
Cd176 O184 2.223 . S
Cd176 O186 2.297 . S
Cd176 O187 2.439 . S
O177 Cd176 2.240 . S
O177 C182 1.279 . S
O178 Cd175 2.297 . S
O178 C180 1.247 . S
O179 Cd175 2.439 . S
O179 C180 1.208 . S
C180 O178 1.247 . S
C180 O179 1.208 . S
C181 O186 1.247 . S
C181 O187 1.208 . S
C182 O174 1.315 . S
C182 O177 1.279 . S
C183 O184 1.315 . S
C183 O185 1.279 . S
O184 Cd176 2.223 . S
O184 C183 1.315 . S
O185 Cd175 2.240 . S
O185 C183 1.279 . S
O186 Cd176 2.297 . S
O186 C181 1.247 . S
O187 Cd176 2.439 . S
O187 C181 1.208 . S
O188 Cd189 2.223 . S
O188 C196 1.315 . S
Cd189 O188 2.223 . S
Cd189 O192 2.297 . S
Cd189 O193 2.439 . S
Cd189 O199 2.240 . S
Cd190 O191 2.240 . S
Cd190 O198 2.223 . S
Cd190 O200 2.297 1_554 S
Cd190 O201 2.439 1_554 S
O191 Cd190 2.240 . S
O191 C196 1.279 . S
O192 Cd189 2.297 . S
O192 C194 1.247 . S
O193 Cd189 2.439 . S
O193 C194 1.208 . S
C194 O192 1.247 . S
C194 O193 1.208 . S
C195 O200 1.247 . S
C195 O201 1.208 . S
C196 O188 1.315 . S
C196 O191 1.279 . S
C197 O198 1.315 . S
C197 O199 1.279 . S
O198 Cd190 2.223 . S
O198 C197 1.315 . S
O199 Cd189 2.240 . S
O199 C197 1.279 . S
O200 Cd190 2.297 1_556 S
O200 C195 1.247 . S
O201 Cd190 2.439 1_556 S
O201 C195 1.208 . S
O202 Cd203 2.223 . S
O202 C210 1.315 . S
Cd203 O202 2.223 . S
Cd203 O206 2.297 . S
Cd203 O207 2.439 . S
Cd203 O213 2.240 . S
Cd204 O205 2.240 . S
Cd204 O212 2.223 . S
Cd204 O214 2.297 . S
Cd204 O215 2.439 . S
O205 Cd204 2.240 . S
O205 C210 1.279 . S
O206 Cd203 2.297 . S
O206 C208 1.247 . S
O207 Cd203 2.439 . S
O207 C208 1.208 . S
C208 O206 1.247 . S
C208 O207 1.208 . S
C209 O214 1.247 . S
C209 O215 1.208 . S
C210 O202 1.315 . S
C210 O205 1.279 . S
C211 O212 1.315 . S
C211 O213 1.279 . S
O212 Cd204 2.223 . S
O212 C211 1.315 . S
O213 Cd203 2.240 . S
O213 C211 1.279 . S
O214 Cd204 2.297 . S
O214 C209 1.247 . S
O215 Cd204 2.439 . S
O215 C209 1.208 . S
C216 C217 1.391 . S
C216 C218 1.394 . S
C216 H232 0.931 . S
C217 C216 1.391 . S
C217 C221 1.376 . S
C218 C216 1.394 . S
C218 C219 1.369 . S
C218 C222 1.531 . S
C219 C218 1.369 . S
C219 C220 1.410 1_545 S
C219 C227 1.503 1_545 S
C220 C219 1.410 1_565 S
C220 C221 1.392 1_565 S
C220 C223 1.511 . S
C221 C217 1.376 . S
C221 C220 1.392 1_545 S
C221 H233 0.929 . S
C222 C218 1.531 . S
C222 H234 0.960 . S
C222 H235 0.962 . S
C222 H236 0.960 . S
C223 C220 1.511 . S
C223 H237 0.961 . S
C223 H238 0.961 . S
C223 H239 0.961 . S
C224 C225 1.370 . S
C224 C226 1.363 . S
C224 H240 0.931 . S
C225 C224 1.370 . S
C225 C229 1.408 . S
C226 C224 1.363 . S
C226 C227 1.370 . S
C226 C230 1.524 . S
C227 C219 1.503 1_565 S
C227 C226 1.370 . S
C227 C228 1.403 . S
C228 C227 1.403 . S
C228 C229 1.404 . S
C228 C231 1.539 1_565 S
C229 C225 1.408 . S
C229 C228 1.404 . S
C229 H241 0.930 . S
C230 C226 1.524 . S
C230 H242 0.956 . S
C230 H243 0.961 . S
C230 H244 0.961 . S
C231 C228 1.539 1_545 S
C231 H245 0.958 . S
C231 H246 0.950 1_545 S
C231 H247 0.960 . S
H232 C216 0.931 . S
H233 C221 0.929 . S
H234 C222 0.960 . S
H235 C222 0.962 . S
H236 C222 0.960 . S
H237 C223 0.961 . S
H238 C223 0.961 . S
H239 C223 0.961 . S
H240 C224 0.931 . S
H241 C229 0.930 . S
H242 C230 0.956 . S
H243 C230 0.961 . S
H244 C230 0.961 . S
H245 C231 0.958 . S
H246 C231 0.950 1_565 S
H247 C231 0.960 . S
C248 C249 1.391 . S
C248 C250 1.394 . S
C248 H264 0.931 . S
C249 C248 1.391 . S
C249 C253 1.376 . S
C250 C248 1.394 . S
C250 C251 1.369 . S
C250 C254 1.531 . S
C251 C250 1.369 . S
C251 C252 1.410 . S
C251 C259 1.503 . S
C252 C251 1.410 . S
C252 C253 1.392 . S
C252 C255 1.511 . S
C253 C249 1.376 . S
C253 C252 1.392 . S
C253 H265 0.929 . S
C254 C250 1.531 . S
C254 H266 0.960 . S
C254 H267 0.962 . S
C254 H268 0.960 . S
C255 C252 1.511 . S
C255 H269 0.961 . S
C255 H270 0.961 . S
C255 H271 0.961 . S
C256 C257 1.370 . S
C256 C258 1.363 . S
C256 H272 0.931 . S
C257 C256 1.370 . S
C257 C261 1.408 . S
C258 C256 1.363 . S
C258 C259 1.370 . S
C258 C262 1.524 . S
C259 C251 1.503 . S
C259 C258 1.370 . S
C259 C260 1.403 . S
C260 C259 1.403 . S
C260 C261 1.404 . S
C260 C263 1.539 . S
C261 C257 1.408 . S
C261 C260 1.404 . S
C261 H273 0.930 . S
C262 C258 1.524 . S
C262 H274 0.956 . S
C262 H275 0.961 . S
C262 H276 0.961 . S
C263 C260 1.539 . S
C263 H277 0.958 . S
C263 H278 0.961 . S
C263 H279 0.960 . S
H264 C248 0.931 . S
H265 C253 0.929 . S
H266 C254 0.960 . S
H267 C254 0.962 . S
H268 C254 0.960 . S
H269 C255 0.961 . S
H270 C255 0.961 . S
H271 C255 0.961 . S
H272 C256 0.931 . S
H273 C261 0.930 . S
H274 C262 0.956 . S
H275 C262 0.961 . S
H276 C262 0.961 . S
H277 C263 0.958 . S
H278 C263 0.961 . S
H279 C263 0.960 . S
C280 C281 1.391 . S
C280 C282 1.394 . S
C280 H296 0.931 . S
C281 C280 1.391 . S
C281 C285 1.376 . S
C282 C280 1.394 . S
C282 C283 1.369 . S
C282 C286 1.531 . S
C283 C282 1.369 . S
C283 C284 1.410 . S
C283 C291 1.503 . S
C284 C283 1.410 . S
C284 C285 1.392 . S
C284 C287 1.511 . S
C285 C281 1.376 . S
C285 C284 1.392 . S
C285 H297 0.929 . S
C286 C282 1.531 . S
C286 H298 0.960 . S
C286 H299 0.962 . S
C286 H300 0.960 . S
C287 C284 1.511 . S
C287 H301 0.961 . S
C287 H302 0.961 . S
C287 H303 0.961 . S
C288 C289 1.370 . S
C288 C290 1.363 . S
C288 H304 0.931 . S
C289 C288 1.370 . S
C289 C293 1.408 . S
C290 C288 1.363 . S
C290 C291 1.370 . S
C290 C294 1.524 . S
C291 C283 1.503 . S
C291 C290 1.370 . S
C291 C292 1.403 . S
C292 C291 1.403 . S
C292 C293 1.404 . S
C292 C295 1.539 . S
C293 C289 1.408 . S
C293 C292 1.404 . S
C293 H305 0.930 . S
C294 C290 1.524 . S
C294 H306 0.956 . S
C294 H307 0.961 . S
C294 H308 0.961 . S
C295 C292 1.539 . S
C295 H309 0.958 . S
C295 H310 0.961 . S
C295 H311 0.960 . S
H296 C280 0.931 . S
H297 C285 0.929 . S
H298 C286 0.960 . S
H299 C286 0.962 . S
H300 C286 0.960 . S
H301 C287 0.961 . S
H302 C287 0.961 . S
H303 C287 0.961 . S
H304 C288 0.931 . S
H305 C293 0.930 . S
H306 C294 0.956 . S
H307 C294 0.961 . S
H308 C294 0.961 . S
H309 C295 0.958 . S
H310 C295 0.961 . S
H311 C295 0.960 . S
C312 C313 1.391 . S
C312 C314 1.394 . S
C312 H328 0.931 . S
C313 C312 1.391 . S
C313 C317 1.376 . S
C314 C312 1.394 . S
C314 C315 1.369 . S
C314 C318 1.531 . S
C315 C314 1.369 . S
C315 C316 1.410 . S
C315 C323 1.503 . S
C316 C315 1.410 . S
C316 C317 1.392 . S
C316 C319 1.511 . S
C317 C313 1.376 . S
C317 C316 1.392 . S
C317 H329 0.929 . S
C318 C314 1.531 . S
C318 H330 0.960 . S
C318 H331 0.962 . S
C318 H332 0.960 . S
C319 C316 1.511 . S
C319 H333 0.961 . S
C319 H334 0.961 . S
C319 H335 0.961 . S
C320 C321 1.370 . S
C320 C322 1.363 . S
C320 H336 0.931 . S
C321 C320 1.370 . S
C321 C325 1.408 . S
C322 C320 1.363 . S
C322 C323 1.370 . S
C322 C326 1.524 . S
C323 C315 1.503 . S
C323 C322 1.370 . S
C323 C324 1.403 . S
C324 C323 1.403 . S
C324 C325 1.404 . S
C324 C327 1.539 . S
C325 C321 1.408 . S
C325 C324 1.404 . S
C325 H337 0.930 . S
C326 C322 1.524 . S
C326 H338 0.956 . S
C326 H339 0.961 . S
C326 H340 0.961 . S
C327 C324 1.539 . S
C327 H341 0.958 . S
C327 H342 0.961 . S
C327 H343 0.960 . S
H328 C312 0.931 . S
H329 C317 0.929 . S
H330 C318 0.960 . S
H331 C318 0.962 . S
H332 C318 0.960 . S
H333 C319 0.961 . S
H334 C319 0.961 . S
H335 C319 0.961 . S
H336 C320 0.931 . S
H337 C325 0.930 . S
H338 C326 0.956 . S
H339 C326 0.961 . S
H340 C326 0.961 . S
H341 C327 0.958 . S
H342 C327 0.961 . S
H343 C327 0.960 . S
C344 C345 1.391 1_554 S
C344 C346 1.394 . S
C344 H360 0.931 . S
C345 C344 1.391 1_556 S
C345 C349 1.376 . S
C346 C344 1.394 . S
C346 C347 1.369 . S
C346 C350 1.531 . S
C347 C346 1.369 . S
C347 C348 1.410 1_554 S
C347 C355 1.503 . S
C348 C347 1.410 1_556 S
C348 C349 1.392 . S
C348 C351 1.511 . S
C349 C345 1.376 . S
C349 C348 1.392 . S
C349 H361 0.929 . S
C350 C346 1.531 . S
C350 H362 0.960 . S
C350 H363 0.962 . S
C350 H364 0.960 . S
C351 C348 1.511 . S
C351 H365 0.961 . S
C351 H366 0.961 . S
C351 H367 0.961 . S
C352 C353 1.370 . S
C352 C354 1.363 . S
C352 H368 0.931 . S
C353 C352 1.370 . S
C353 C357 1.408 . S
C354 C352 1.363 . S
C354 C355 1.370 . S
C354 C358 1.524 . S
C355 C347 1.503 . S
C355 C354 1.370 . S
C355 C356 1.403 . S
C356 C355 1.403 . S
C356 C357 1.404 . S
C356 C359 1.539 1_554 S
C357 C353 1.408 . S
C357 C356 1.404 . S
C357 H369 0.930 . S
C358 C354 1.524 . S
C358 H370 0.956 . S
C358 H371 0.961 . S
C358 H372 0.961 . S
C359 C356 1.539 1_556 S
C359 H373 0.958 . S
C359 H374 0.961 . S
C359 H375 0.960 . S
H360 C344 0.931 . S
H361 C349 0.929 . S
H362 C350 0.960 . S
H363 C350 0.962 . S
H364 C350 0.960 . S
H365 C351 0.961 . S
H366 C351 0.961 . S
H367 C351 0.961 . S
H368 C352 0.931 . S
H369 C357 0.930 . S
H370 C358 0.956 . S
H371 C358 0.961 . S
H372 C358 0.961 . S
H373 C359 0.958 . S
H374 C359 0.961 . S
H375 C359 0.960 . S
C376 C377 1.391 . S
C376 C378 1.394 . S
C376 H392 0.931 . S
C377 C376 1.391 . S
C377 C381 1.376 . S
C378 C376 1.394 . S
C378 C379 1.369 . S
C378 C382 1.531 . S
C379 C378 1.369 . S
C379 C380 1.410 . S
C379 C387 1.503 . S
C380 C379 1.410 . S
C380 C381 1.392 . S
C380 C383 1.511 . S
C381 C377 1.376 . S
C381 C380 1.392 . S
C381 H393 0.929 . S
C382 C378 1.531 . S
C382 H394 0.960 . S
C382 H395 0.962 . S
C382 H396 0.960 . S
C383 C380 1.511 . S
C383 H397 0.961 . S
C383 H398 0.961 . S
C383 H399 0.961 . S
C384 C385 1.370 . S
C384 C386 1.363 . S
C384 H400 0.931 . S
C385 C384 1.370 . S
C385 C389 1.408 . S
C386 C384 1.363 . S
C386 C387 1.370 . S
C386 C390 1.524 . S
C387 C379 1.503 . S
C387 C386 1.370 . S
C387 C388 1.403 . S
C388 C387 1.403 . S
C388 C389 1.404 . S
C388 C391 1.539 . S
C389 C385 1.408 . S
C389 C388 1.404 . S
C389 H401 0.930 . S
C390 C386 1.524 . S
C390 H402 0.956 . S
C390 H403 0.961 . S
C390 H404 0.961 . S
C391 C388 1.539 . S
C391 H405 0.958 . S
C391 H406 0.961 . S
C391 H407 0.960 . S
H392 C376 0.931 . S
H393 C381 0.929 . S
H394 C382 0.960 . S
H395 C382 0.962 . S
H396 C382 0.960 . S
H397 C383 0.961 . S
H398 C383 0.961 . S
H399 C383 0.961 . S
H400 C384 0.931 . S
H401 C389 0.930 . S
H402 C390 0.956 . S
H403 C390 0.961 . S
H404 C390 0.961 . S
H405 C391 0.958 . S
H406 C391 0.961 . S
H407 C391 0.960 . S
C408 C409 1.391 1_565 S
C408 C410 1.394 . S
C408 H424 0.931 . S
C409 C408 1.391 1_545 S
C409 C413 1.376 . S
C410 C408 1.394 . S
C410 C411 1.367 1_565 S
C410 C414 1.531 . S
C411 C410 1.367 1_545 S
C411 C412 1.412 . S
C411 C419 1.503 . S
C412 C411 1.412 . S
C412 C413 1.392 . S
C412 C415 1.511 . S
C413 C409 1.376 . S
C413 C412 1.392 . S
C413 H425 0.929 . S
C414 C410 1.531 . S
C414 H426 0.960 . S
C414 H427 0.962 . S
C414 H428 0.960 . S
C415 C412 1.511 . S
C415 H429 0.961 . S
C415 H430 0.961 . S
C415 H431 0.961 . S
C416 C417 1.370 . S
C416 C418 1.363 . S
C416 H432 0.931 . S
C417 C416 1.370 . S
C417 C421 1.408 1_545 S
C418 C416 1.363 . S
C418 C419 1.370 . S
C418 C422 1.524 . S
C419 C411 1.503 . S
C419 C418 1.370 . S
C419 C420 1.403 1_545 S
C420 C419 1.403 1_565 S
C420 C421 1.404 . S
C420 C423 1.539 . S
C421 C417 1.408 1_565 S
C421 C420 1.404 . S
C421 H433 0.930 . S
C422 C418 1.524 . S
C422 H434 0.956 . S
C422 H435 0.961 . S
C422 H436 0.961 . S
C423 C420 1.539 . S
C423 H437 0.958 . S
C423 H438 0.961 . S
C423 H439 0.960 . S
H424 C408 0.931 . S
H425 C413 0.929 . S
H426 C414 0.960 . S
H427 C414 0.962 . S
H428 C414 0.960 . S
H429 C415 0.961 . S
H430 C415 0.961 . S
H431 C415 0.961 . S
H432 C416 0.931 . S
H433 C421 0.930 . S
H434 C422 0.956 . S
H435 C422 0.961 . S
H436 C422 0.961 . S
H437 C423 0.958 . S
H438 C423 0.961 . S
H439 C423 0.960 . S
C440 C441 1.391 . S
C440 C442 1.394 . S
C440 H456 0.931 . S
C441 C440 1.391 . S
C441 C445 1.376 . S
C442 C440 1.394 . S
C442 C443 1.369 . S
C442 C446 1.531 . S
C443 C442 1.369 . S
C443 C444 1.410 . S
C443 C451 1.503 . S
C444 C443 1.410 . S
C444 C445 1.392 . S
C444 C447 1.511 . S
C445 C441 1.376 . S
C445 C444 1.392 . S
C445 H457 0.929 . S
C446 C442 1.531 . S
C446 H458 0.960 . S
C446 H459 0.962 . S
C446 H460 0.960 . S
C447 C444 1.511 . S
C447 H461 0.961 . S
C447 H462 0.961 . S
C447 H463 0.961 . S
C448 C449 1.370 . S
C448 C450 1.363 . S
C448 H464 0.931 . S
C449 C448 1.370 . S
C449 C453 1.408 . S
C450 C448 1.363 . S
C450 C451 1.370 . S
C450 C454 1.524 . S
C451 C443 1.503 . S
C451 C450 1.370 . S
C451 C452 1.403 . S
C452 C451 1.403 . S
C452 C453 1.404 . S
C452 C455 1.539 . S
C453 C449 1.408 . S
C453 C452 1.404 . S
C453 H465 0.930 . S
C454 C450 1.524 . S
C454 H466 0.956 . S
C454 H467 0.961 . S
C454 H468 0.961 . S
C455 C452 1.539 . S
C455 H469 0.958 . S
C455 H470 0.961 . S
C455 H471 0.960 . S
H456 C440 0.931 . S
H457 C445 0.929 . S
H458 C446 0.960 . S
H459 C446 0.962 . S
H460 C446 0.960 . S
H461 C447 0.961 . S
H462 C447 0.961 . S
H463 C447 0.961 . S
H464 C448 0.931 . S
H465 C453 0.930 . S
H466 C454 0.956 . S
H467 C454 0.961 . S
H468 C454 0.961 . S
H469 C455 0.958 . S
H470 C455 0.961 . S
H471 C455 0.960 . S
C472 C473 1.391 . S
C472 C474 1.394 . S
C472 H488 0.931 . S
C473 C472 1.391 . S
C473 C477 1.376 . S
C474 C472 1.394 . S
C474 C475 1.369 . S
C474 C478 1.531 . S
C475 C474 1.369 . S
C475 C476 1.410 . S
C475 C483 1.503 . S
C476 C475 1.410 . S
C476 C477 1.392 . S
C476 C479 1.511 . S
C477 C473 1.376 . S
C477 C476 1.392 . S
C477 H489 0.929 . S
C478 C474 1.531 . S
C478 H490 0.960 . S
C478 H491 0.962 . S
C478 H492 0.960 . S
C479 C476 1.511 . S
C479 H493 0.961 . S
C479 H494 0.961 . S
C479 H495 0.961 . S
C480 C481 1.370 . S
C480 C482 1.363 . S
C480 H496 0.931 . S
C481 C480 1.370 . S
C481 C485 1.408 . S
C482 C480 1.363 . S
C482 C483 1.370 . S
C482 C486 1.524 . S
C483 C475 1.503 . S
C483 C482 1.370 . S
C483 C484 1.403 . S
C484 C483 1.403 . S
C484 C485 1.404 . S
C484 C487 1.539 . S
C485 C481 1.408 . S
C485 C484 1.404 . S
C485 H497 0.930 . S
C486 C482 1.524 . S
C486 H498 0.956 . S
C486 H499 0.961 . S
C486 H500 0.961 . S
C487 C484 1.539 . S
C487 H501 0.958 . S
C487 H502 0.961 . S
C487 H503 0.960 . S
H488 C472 0.931 . S
H489 C477 0.929 . S
H490 C478 0.960 . S
H491 C478 0.962 . S
H492 C478 0.960 . S
H493 C479 0.961 . S
H494 C479 0.961 . S
H495 C479 0.961 . S
H496 C480 0.931 . S
H497 C485 0.930 . S
H498 C486 0.956 . S
H499 C486 0.961 . S
H500 C486 0.961 . S
H501 C487 0.958 . S
H502 C487 0.961 . S
H503 C487 0.960 . S
C504 C505 1.391 . S
C504 C506 1.394 . S
C504 H520 0.931 . S
C505 C504 1.391 . S
C505 C509 1.376 . S
C506 C504 1.394 . S
C506 C507 1.369 . S
C506 C510 1.531 . S
C507 C506 1.369 . S
C507 C508 1.410 . S
C507 C515 1.503 . S
C508 C507 1.410 . S
C508 C509 1.392 . S
C508 C511 1.511 . S
C509 C505 1.376 . S
C509 C508 1.392 . S
C509 H521 0.929 . S
C510 C506 1.531 . S
C510 H522 0.960 . S
C510 H523 0.962 . S
C510 H524 0.960 . S
C511 C508 1.511 . S
C511 H525 0.961 . S
C511 H526 0.961 . S
C511 H527 0.961 . S
C512 C513 1.370 . S
C512 C514 1.363 . S
C512 H528 0.931 . S
C513 C512 1.370 . S
C513 C517 1.408 . S
C514 C512 1.363 . S
C514 C515 1.370 . S
C514 C518 1.524 . S
C515 C507 1.503 . S
C515 C514 1.370 . S
C515 C516 1.403 . S
C516 C515 1.403 . S
C516 C517 1.404 . S
C516 C519 1.539 . S
C517 C513 1.408 . S
C517 C516 1.404 . S
C517 H529 0.930 . S
C518 C514 1.524 . S
C518 H530 0.956 . S
C518 H531 0.961 . S
C518 H532 0.961 . S
C519 C516 1.539 . S
C519 H533 0.958 . S
C519 H534 0.961 . S
C519 H535 0.960 . S
H520 C504 0.931 . S
H521 C509 0.929 . S
H522 C510 0.960 . S
H523 C510 0.962 . S
H524 C510 0.960 . S
H525 C511 0.961 . S
H526 C511 0.961 . S
H527 C511 0.961 . S
H528 C512 0.931 . S
H529 C517 0.930 . S
H530 C518 0.956 . S
H531 C518 0.961 . S
H532 C518 0.961 . S
H533 C519 0.958 . S
H534 C519 0.961 . S
H535 C519 0.960 . S
C536 C537 1.391 . S
C536 C538 1.394 . S
C536 H552 0.931 . S
C537 C536 1.391 . S
C537 C541 1.376 . S
C538 C536 1.394 . S
C538 C539 1.369 . S
C538 C542 1.531 . S
C539 C538 1.369 . S
C539 C540 1.410 . S
C539 C547 1.503 . S
C540 C539 1.410 . S
C540 C541 1.392 . S
C540 C543 1.511 . S
C541 C537 1.376 . S
C541 C540 1.392 . S
C541 H553 0.929 . S
C542 C538 1.531 . S
C542 H554 0.960 . S
C542 H555 0.962 . S
C542 H556 0.960 . S
C543 C540 1.511 . S
C543 H557 0.961 . S
C543 H558 0.961 . S
C543 H559 0.961 . S
C544 C545 1.370 1_455 S
C544 C546 1.363 . S
C544 H560 0.931 . S
C545 C544 1.370 1_655 S
C545 C549 1.408 . S
C546 C544 1.363 . S
C546 C547 1.370 . S
C546 C550 1.524 . S
C547 C539 1.503 . S
C547 C546 1.370 . S
C547 C548 1.407 . S
C548 C547 1.407 . S
C548 C549 1.400 1_455 S
C548 C551 1.539 1_455 S
C549 C545 1.408 . S
C549 C548 1.400 1_655 S
C549 H561 0.930 . S
C550 C546 1.524 . S
C550 H562 0.956 . S
C550 H563 0.961 . S
C550 H564 0.961 . S
C551 C548 1.539 1_655 S
C551 H565 0.958 1_655 S
C551 H566 0.961 . S
C551 H567 0.960 1_655 S
H552 C536 0.931 . S
H553 C541 0.929 . S
H554 C542 0.960 . S
H555 C542 0.962 . S
H556 C542 0.960 . S
H557 C543 0.961 . S
H558 C543 0.961 . S
H559 C543 0.961 . S
H560 C544 0.931 . S
H561 C549 0.930 . S
H562 C550 0.956 . S
H563 C550 0.961 . S
H564 C550 0.961 . S
H565 C551 0.958 1_455 S
H566 C551 0.961 . S
H567 C551 0.960 1_455 S
C568 C569 1.391 . S
C568 C570 1.394 . S
C568 H584 0.931 1_455 S
C569 C568 1.391 . S
C569 C573 1.376 . S
C570 C568 1.394 . S
C570 C571 1.369 . S
C570 C574 1.531 1_455 S
C571 C570 1.369 . S
C571 C572 1.410 . S
C571 C579 1.503 . S
C572 C571 1.410 . S
C572 C573 1.392 . S
C572 C575 1.511 . S
C573 C569 1.376 . S
C573 C572 1.392 . S
C573 H585 0.929 . S
C574 C570 1.531 1_655 S
C574 H586 0.960 . S
C574 H587 0.962 . S
C574 H588 0.960 . S
C575 C572 1.511 . S
C575 H589 0.961 . S
C575 H590 0.961 . S
C575 H591 0.961 . S
C576 C577 1.370 1_655 S
C576 C578 1.363 . S
C576 H592 0.931 . S
C577 C576 1.370 1_455 S
C577 C581 1.408 . S
C578 C576 1.363 . S
C578 C579 1.370 1_655 S
C578 C582 1.524 . S
C579 C571 1.503 . S
C579 C578 1.370 1_455 S
C579 C580 1.403 . S
C580 C579 1.403 . S
C580 C581 1.404 . S
C580 C583 1.539 . S
C581 C577 1.408 . S
C581 C580 1.404 . S
C581 H593 0.930 . S
C582 C578 1.524 . S
C582 H594 0.956 . S
C582 H595 0.961 . S
C582 H596 0.961 . S
C583 C580 1.539 . S
C583 H597 0.958 . S
C583 H598 0.961 . S
C583 H599 0.960 . S
H584 C568 0.931 1_655 S
H585 C573 0.929 . S
H586 C574 0.960 . S
H587 C574 0.962 . S
H588 C574 0.960 . S
H589 C575 0.961 . S
H590 C575 0.961 . S
H591 C575 0.961 . S
H592 C576 0.931 . S
H593 C581 0.930 . S
H594 C582 0.956 . S
H595 C582 0.961 . S
H596 C582 0.961 . S
H597 C583 0.958 . S
H598 C583 0.961 . S
H599 C583 0.960 . S
C600 C601 1.391 . S
C600 C602 1.394 . S
C600 H616 0.931 . S
C601 C600 1.391 . S
C601 C605 1.376 . S
C602 C600 1.394 . S
C602 C603 1.369 . S
C602 C606 1.531 . S
C603 C602 1.369 . S
C603 C604 1.410 . S
C603 C611 1.503 . S
C604 C603 1.410 . S
C604 C605 1.392 . S
C604 C607 1.511 . S
C605 C601 1.376 . S
C605 C604 1.392 . S
C605 H617 0.929 . S
C606 C602 1.531 . S
C606 H618 0.960 . S
C606 H619 0.962 . S
C606 H620 0.960 . S
C607 C604 1.511 . S
C607 H621 0.961 . S
C607 H622 0.961 . S
C607 H623 0.961 . S
C608 C609 1.370 . S
C608 C610 1.363 . S
C608 H624 0.931 . S
C609 C608 1.370 . S
C609 C613 1.408 . S
C610 C608 1.363 . S
C610 C611 1.370 . S
C610 C614 1.524 . S
C611 C603 1.503 . S
C611 C610 1.370 . S
C611 C612 1.403 . S
C612 C611 1.403 . S
C612 C613 1.404 . S
C612 C615 1.539 . S
C613 C609 1.408 . S
C613 C612 1.404 . S
C613 H625 0.930 . S
C614 C610 1.524 . S
C614 H626 0.956 . S
C614 H627 0.961 . S
C614 H628 0.961 . S
C615 C612 1.539 . S
C615 H629 0.958 . S
C615 H630 0.961 . S
C615 H631 0.960 . S
H616 C600 0.931 . S
H617 C605 0.929 . S
H618 C606 0.960 . S
H619 C606 0.962 . S
H620 C606 0.960 . S
H621 C607 0.961 . S
H622 C607 0.961 . S
H623 C607 0.961 . S
H624 C608 0.931 . S
H625 C613 0.930 . S
H626 C614 0.956 . S
H627 C614 0.961 . S
H628 C614 0.961 . S
H629 C615 0.958 . S
H630 C615 0.961 . S
H631 C615 0.960 . S
C632 C633 1.391 . S
C632 C634 1.394 . S
C632 H648 0.931 . S
C633 C632 1.391 . S
C633 C637 1.376 . S
C634 C632 1.394 . S
C634 C635 1.369 . S
C634 C638 1.531 1_455 S
C635 C634 1.369 . S
C635 C636 1.410 . S
C635 C643 1.503 1_455 S
C636 C635 1.410 . S
C636 C637 1.392 . S
C636 C639 1.511 . S
C637 C633 1.376 . S
C637 C636 1.392 . S
C637 H649 0.929 . S
C638 C634 1.531 1_655 S
C638 H650 0.960 . S
C638 H651 0.962 . S
C638 H652 0.960 . S
C639 C636 1.511 . S
C639 H653 0.961 . S
C639 H654 0.961 . S
C639 H655 0.961 . S
C640 C641 1.370 . S
C640 C642 1.363 . S
C640 H656 0.931 . S
C641 C640 1.370 . S
C641 C645 1.408 . S
C642 C640 1.363 . S
C642 C643 1.370 . S
C642 C646 1.524 1_655 S
C643 C635 1.503 1_655 S
C643 C642 1.370 . S
C643 C644 1.403 . S
C644 C643 1.403 . S
C644 C645 1.404 . S
C644 C647 1.539 . S
C645 C641 1.408 . S
C645 C644 1.404 . S
C645 H657 0.930 . S
C646 C642 1.524 1_455 S
C646 H658 0.956 . S
C646 H659 0.961 . S
C646 H660 0.961 . S
C647 C644 1.539 . S
C647 H661 0.958 . S
C647 H662 0.961 . S
C647 H663 0.960 . S
H648 C632 0.931 . S
H649 C637 0.929 . S
H650 C638 0.960 . S
H651 C638 0.962 . S
H652 C638 0.960 . S
H653 C639 0.961 . S
H654 C639 0.961 . S
H655 C639 0.961 . S
H656 C640 0.931 . S
H657 C645 0.930 . S
H658 C646 0.956 . S
H659 C646 0.961 . S
H660 C646 0.961 . S
H661 C647 0.958 . S
H662 C647 0.961 . S
H663 C647 0.960 . S
C664 C665 1.391 . S
C664 C666 1.394 . S
C664 H680 0.931 . S
C665 C664 1.391 . S
C665 C669 1.376 . S
C666 C664 1.394 . S
C666 C667 1.369 . S
C666 C670 1.531 . S
C667 C666 1.369 . S
C667 C668 1.410 . S
C667 C675 1.503 . S
C668 C667 1.410 . S
C668 C669 1.392 . S
C668 C671 1.511 1_556 S
C669 C665 1.376 . S
C669 C668 1.392 . S
C669 H681 0.929 . S
C670 C666 1.531 . S
C670 H682 0.960 . S
C670 H683 0.962 . S
C670 H684 0.960 . S
C671 C668 1.511 1_554 S
C671 H685 0.961 . S
C671 H686 0.961 . S
C671 H687 0.961 . S
C672 C673 1.370 1_556 S
C672 C674 1.363 . S
C672 H688 0.931 . S
C673 C672 1.370 1_554 S
C673 C677 1.408 . S
C674 C672 1.363 . S
C674 C675 1.370 . S
C674 C678 1.524 . S
C675 C667 1.503 . S
C675 C674 1.370 . S
C675 C676 1.403 1_556 S
C676 C675 1.403 1_554 S
C676 C677 1.404 . S
C676 C679 1.539 . S
C677 C673 1.408 . S
C677 C676 1.404 . S
C677 H689 0.930 . S
C678 C674 1.524 . S
C678 H690 0.956 . S
C678 H691 0.961 . S
C678 H692 0.961 . S
C679 C676 1.539 . S
C679 H693 0.958 . S
C679 H694 0.961 . S
C679 H695 0.960 . S
H680 C664 0.931 . S
H681 C669 0.929 . S
H682 C670 0.960 . S
H683 C670 0.962 . S
H684 C670 0.960 . S
H685 C671 0.961 . S
H686 C671 0.961 . S
H687 C671 0.961 . S
H688 C672 0.931 . S
H689 C677 0.930 . S
H690 C678 0.956 . S
H691 C678 0.961 . S
H692 C678 0.961 . S
H693 C679 0.958 . S
H694 C679 0.961 . S
H695 C679 0.960 . S
C696 C697 1.391 . S
C696 C698 1.394 . S
C696 H712 0.931 . S
C697 C696 1.391 . S
C697 C701 1.376 . S
C698 C696 1.394 . S
C698 C699 1.369 . S
C698 C702 1.531 . S
C699 C698 1.369 . S
C699 C700 1.410 . S
C699 C707 1.503 . S
C700 C699 1.410 . S
C700 C701 1.392 . S
C700 C703 1.511 . S
C701 C697 1.376 . S
C701 C700 1.392 . S
C701 H713 0.929 . S
C702 C698 1.531 . S
C702 H714 0.960 . S
C702 H715 0.962 . S
C702 H716 0.960 . S
C703 C700 1.511 . S
C703 H717 0.961 . S
C703 H718 0.961 . S
C703 H719 0.961 . S
C704 C705 1.370 . S
C704 C706 1.363 . S
C704 H720 0.931 . S
C705 C704 1.370 . S
C705 C709 1.408 . S
C706 C704 1.363 . S
C706 C707 1.370 . S
C706 C710 1.524 . S
C707 C699 1.503 . S
C707 C706 1.370 . S
C707 C708 1.403 . S
C708 C707 1.403 . S
C708 C709 1.404 . S
C708 C711 1.539 . S
C709 C705 1.408 . S
C709 C708 1.404 . S
C709 H721 0.930 . S
C710 C706 1.524 . S
C710 H722 0.956 . S
C710 H723 0.961 . S
C710 H724 0.961 . S
C711 C708 1.539 . S
C711 H725 0.958 . S
C711 H726 0.961 . S
C711 H727 0.960 . S
H712 C696 0.931 . S
H713 C701 0.929 . S
H714 C702 0.960 . S
H715 C702 0.962 . S
H716 C702 0.960 . S
H717 C703 0.961 . S
H718 C703 0.961 . S
H719 C703 0.961 . S
H720 C704 0.931 . S
H721 C709 0.930 . S
H722 C710 0.956 . S
H723 C710 0.961 . S
H724 C710 0.961 . S
H725 C711 0.958 . S
H726 C711 0.961 . S
H727 C711 0.960 . S
C728 C729 1.391 . S
C728 C730 1.394 . S
C728 H744 0.931 . S
C729 C728 1.391 . S
C729 C733 1.376 . S
C730 C728 1.394 . S
C730 C731 1.369 . S
C730 C734 1.531 . S
C731 C730 1.369 . S
C731 C732 1.410 . S
C731 C739 1.503 . S
C732 C731 1.410 . S
C732 C733 1.392 . S
C732 C735 1.511 . S
C733 C729 1.376 . S
C733 C732 1.392 . S
C733 H745 0.929 . S
C734 C730 1.531 . S
C734 H746 0.960 . S
C734 H747 0.962 . S
C734 H748 0.960 . S
C735 C732 1.511 . S
C735 H749 0.961 . S
C735 H750 0.961 . S
C735 H751 0.961 . S
C736 C737 1.370 1_565 S
C736 C738 1.363 1_565 S
C736 H752 0.931 . S
C737 C736 1.370 1_545 S
C737 C741 1.408 . S
C738 C736 1.363 1_545 S
C738 C739 1.370 . S
C738 C742 1.524 1_545 S
C739 C731 1.503 . S
C739 C738 1.370 . S
C739 C740 1.403 . S
C740 C739 1.403 . S
C740 C741 1.404 . S
C740 C743 1.539 . S
C741 C737 1.408 . S
C741 C740 1.404 . S
C741 H753 0.930 . S
C742 C738 1.524 1_565 S
C742 H754 0.956 . S
C742 H755 0.961 . S
C742 H756 0.961 . S
C743 C740 1.539 . S
C743 H757 0.958 . S
C743 H758 0.961 . S
C743 H759 0.960 . S
H744 C728 0.931 . S
H745 C733 0.929 . S
H746 C734 0.960 . S
H747 C734 0.962 . S
H748 C734 0.960 . S
H749 C735 0.961 . S
H750 C735 0.961 . S
H751 C735 0.961 . S
H752 C736 0.931 . S
H753 C741 0.930 . S
H754 C742 0.956 . S
H755 C742 0.961 . S
H756 C742 0.961 . S
H757 C743 0.958 . S
H758 C743 0.961 . S
H759 C743 0.960 . S
C760 C761 1.391 . S
C760 C762 1.394 . S
C760 H776 0.931 . S
C761 C760 1.391 . S
C761 C765 1.376 . S
C762 C760 1.394 . S
C762 C763 1.369 . S
C762 C766 1.531 . S
C763 C762 1.369 . S
C763 C764 1.410 . S
C763 C771 1.503 . S
C764 C763 1.410 . S
C764 C765 1.392 . S
C764 C767 1.511 . S
C765 C761 1.376 . S
C765 C764 1.392 . S
C765 H777 0.929 . S
C766 C762 1.531 . S
C766 H778 0.960 . S
C766 H779 0.962 . S
C766 H780 0.960 . S
C767 C764 1.511 . S
C767 H781 0.961 . S
C767 H782 0.961 . S
C767 H783 0.961 . S
C768 C769 1.370 . S
C768 C770 1.363 . S
C768 H784 0.931 . S
C769 C768 1.370 . S
C769 C773 1.408 . S
C770 C768 1.363 . S
C770 C771 1.370 . S
C770 C774 1.524 . S
C771 C763 1.503 . S
C771 C770 1.370 . S
C771 C772 1.403 . S
C772 C771 1.403 . S
C772 C773 1.404 . S
C772 C775 1.539 . S
C773 C769 1.408 . S
C773 C772 1.404 . S
C773 H785 0.930 . S
C774 C770 1.524 . S
C774 H786 0.956 . S
C774 H787 0.961 . S
C774 H788 0.961 . S
C775 C772 1.539 . S
C775 H789 0.958 . S
C775 H790 0.961 . S
C775 H791 0.960 . S
H776 C760 0.931 . S
H777 C765 0.929 . S
H778 C766 0.960 . S
H779 C766 0.962 . S
H780 C766 0.960 . S
H781 C767 0.961 . S
H782 C767 0.961 . S
H783 C767 0.961 . S
H784 C768 0.931 . S
H785 C773 0.930 . S
H786 C774 0.956 . S
H787 C774 0.961 . S
H788 C774 0.961 . S
H789 C775 0.958 . S
H790 C775 0.961 . S
H791 C775 0.960 . S
C792 C793 1.391 . S
C792 C794 1.394 . S
C792 H808 0.931 . S
C793 C792 1.391 . S
C793 C797 1.376 . S
C794 C792 1.394 . S
C794 C795 1.369 . S
C794 C798 1.531 . S
C795 C794 1.369 . S
C795 C796 1.410 . S
C795 C803 1.503 . S
C796 C795 1.410 . S
C796 C797 1.392 . S
C796 C799 1.511 . S
C797 C793 1.376 . S
C797 C796 1.392 . S
C797 H809 0.929 . S
C798 C794 1.531 . S
C798 H810 0.960 . S
C798 H811 0.962 . S
C798 H812 0.960 . S
C799 C796 1.511 . S
C799 H813 0.961 . S
C799 H814 0.961 . S
C799 H815 0.961 . S
C800 C801 1.360 1_556 S
C800 C802 1.363 . S
C800 H816 0.931 1_556 S
C801 C800 1.360 1_554 S
C801 C805 1.363 1_554 S
C802 C800 1.363 . S
C802 C803 1.370 . S
C802 C806 1.524 . S
C803 C795 1.503 . S
C803 C802 1.370 . S
C803 C804 1.403 . S
C804 C803 1.403 . S
C804 C805 1.404 . S
C804 C807 1.539 . S
C805 C801 1.363 1_556 S
C805 C804 1.404 . S
C805 H817 0.930 . S
C806 C802 1.524 . S
C806 H818 0.956 . S
C806 H819 0.961 . S
C806 H820 0.961 . S
C807 C804 1.539 . S
C807 H821 0.958 . S
C807 H822 0.961 . S
C807 H823 0.960 . S
H808 C792 0.931 . S
H809 C797 0.929 . S
H810 C798 0.960 . S
H811 C798 0.962 . S
H812 C798 0.960 . S
H813 C799 0.961 . S
H814 C799 0.961 . S
H815 C799 0.961 . S
H816 C800 0.931 1_554 S
H817 C805 0.930 . S
H818 C806 0.956 . S
H819 C806 0.961 . S
H820 C806 0.961 . S
H821 C807 0.958 . S
H822 C807 0.961 . S
H823 C807 0.960 . S
C824 C825 1.391 . S
C824 C826 1.394 . S
C824 H840 0.931 . S
C825 C824 1.391 . S
C825 C829 1.376 . S
C826 C824 1.394 . S
C826 C827 1.369 . S
C826 C830 1.531 . S
C827 C826 1.369 . S
C827 C828 1.410 . S
C827 C835 1.503 . S
C828 C827 1.410 . S
C828 C829 1.392 . S
C828 C831 1.511 . S
C829 C825 1.376 . S
C829 C828 1.392 . S
C829 H841 0.929 . S
C830 C826 1.531 . S
C830 H842 0.960 . S
C830 H843 0.962 . S
C830 H844 0.960 . S
C831 C828 1.511 . S
C831 H845 0.961 . S
C831 H846 0.961 . S
C831 H847 0.961 . S
C832 C833 1.370 . S
C832 C834 1.363 . S
C832 H848 0.931 . S
C833 C832 1.370 . S
C833 C837 1.408 . S
C834 C832 1.363 . S
C834 C835 1.370 . S
C834 C838 1.524 . S
C835 C827 1.503 . S
C835 C834 1.370 . S
C835 C836 1.403 . S
C836 C835 1.403 . S
C836 C837 1.404 . S
C836 C839 1.539 . S
C837 C833 1.408 . S
C837 C836 1.404 . S
C837 H849 0.930 . S
C838 C834 1.524 . S
C838 H850 0.956 . S
C838 H851 0.961 . S
C838 H852 0.961 . S
C839 C836 1.539 . S
C839 H853 0.958 . S
C839 H854 0.961 . S
C839 H855 0.960 . S
H840 C824 0.931 . S
H841 C829 0.929 . S
H842 C830 0.960 . S
H843 C830 0.962 . S
H844 C830 0.960 . S
H845 C831 0.961 . S
H846 C831 0.961 . S
H847 C831 0.961 . S
H848 C832 0.931 . S
H849 C837 0.930 . S
H850 C838 0.956 . S
H851 C838 0.961 . S
H852 C838 0.961 . S
H853 C839 0.958 . S
H854 C839 0.961 . S
H855 C839 0.960 . S
C856 C857 1.391 . S
C856 C858 1.394 . S
C856 H872 0.931 . S
C857 C856 1.391 . S
C857 C861 1.376 . S
C858 C856 1.394 . S
C858 C859 1.369 . S
C858 C862 1.531 . S
C859 C858 1.369 . S
C859 C860 1.410 . S
C859 C867 1.503 . S
C860 C859 1.410 . S
C860 C861 1.392 . S
C860 C863 1.511 . S
C861 C857 1.376 . S
C861 C860 1.392 . S
C861 H873 0.929 . S
C862 C858 1.531 . S
C862 H874 0.960 . S
C862 H875 0.962 . S
C862 H876 0.960 . S
C863 C860 1.511 . S
C863 H877 0.961 . S
C863 H878 0.961 . S
C863 H879 0.961 . S
C864 C865 1.370 . S
C864 C866 1.363 . S
C864 H880 0.931 . S
C865 C864 1.370 . S
C865 C869 1.408 . S
C866 C864 1.363 . S
C866 C867 1.370 . S
C866 C870 1.524 . S
C867 C859 1.503 . S
C867 C866 1.370 . S
C867 C868 1.403 . S
C868 C867 1.403 . S
C868 C869 1.404 . S
C868 C871 1.539 . S
C869 C865 1.408 . S
C869 C868 1.404 . S
C869 H881 0.930 . S
C870 C866 1.524 . S
C870 H882 0.956 . S
C870 H883 0.961 . S
C870 H884 0.961 . S
C871 C868 1.539 . S
C871 H885 0.958 . S
C871 H886 0.961 . S
C871 H887 0.960 . S
H872 C856 0.931 . S
H873 C861 0.929 . S
H874 C862 0.960 . S
H875 C862 0.962 . S
H876 C862 0.960 . S
H877 C863 0.961 . S
H878 C863 0.961 . S
H879 C863 0.961 . S
H880 C864 0.931 . S
H881 C869 0.930 . S
H882 C870 0.956 . S
H883 C870 0.961 . S
H884 C870 0.961 . S
H885 C871 0.958 . S
H886 C871 0.961 . S
H887 C871 0.960 . S
C888 C889 1.391 . S
C888 C890 1.394 . S
C888 H904 0.931 . S
C889 C888 1.391 . S
C889 C893 1.376 . S
C890 C888 1.394 . S
C890 C891 1.369 . S
C890 C894 1.531 . S
C891 C890 1.369 . S
C891 C892 1.410 . S
C891 C899 1.503 . S
C892 C891 1.410 . S
C892 C893 1.392 . S
C892 C895 1.511 . S
C893 C889 1.376 . S
C893 C892 1.392 . S
C893 H905 0.929 . S
C894 C890 1.531 . S
C894 H906 0.960 . S
C894 H907 0.962 . S
C894 H908 0.960 . S
C895 C892 1.511 . S
C895 H909 0.961 . S
C895 H910 0.961 . S
C895 H911 0.961 . S
C896 C897 1.370 . S
C896 C898 1.363 . S
C896 H912 0.931 . S
C897 C896 1.370 . S
C897 C901 1.408 . S
C898 C896 1.363 . S
C898 C899 1.370 . S
C898 C902 1.524 . S
C899 C891 1.503 . S
C899 C898 1.370 . S
C899 C900 1.403 . S
C900 C899 1.403 . S
C900 C901 1.404 . S
C900 C903 1.539 . S
C901 C897 1.408 . S
C901 C900 1.404 . S
C901 H913 0.930 . S
C902 C898 1.524 . S
C902 H914 0.956 . S
C902 H915 0.961 . S
C902 H916 0.961 . S
C903 C900 1.539 . S
C903 H917 0.958 . S
C903 H918 0.961 . S
C903 H919 0.960 . S
H904 C888 0.931 . S
H905 C893 0.929 . S
H906 C894 0.960 . S
H907 C894 0.962 . S
H908 C894 0.960 . S
H909 C895 0.961 . S
H910 C895 0.961 . S
H911 C895 0.961 . S
H912 C896 0.931 . S
H913 C901 0.930 . S
H914 C902 0.956 . S
H915 C902 0.961 . S
H916 C902 0.961 . S
H917 C903 0.958 . S
H918 C903 0.961 . S
H919 C903 0.960 . S
C920 C921 1.391 . S
C920 C922 1.394 . S
C920 H936 0.931 . S
C921 C920 1.391 . S
C921 C925 1.376 . S
C922 C920 1.394 . S
C922 C923 1.369 . S
C922 C926 1.531 . S
C923 C922 1.369 . S
C923 C924 1.410 . S
C923 C931 1.503 . S
C924 C923 1.410 . S
C924 C925 1.392 . S
C924 C927 1.511 . S
C925 C921 1.376 . S
C925 C924 1.392 . S
C925 H937 0.929 . S
C926 C922 1.531 . S
C926 H938 0.960 . S
C926 H939 0.962 . S
C926 H940 0.960 . S
C927 C924 1.511 . S
C927 H941 0.961 . S
C927 H942 0.961 . S
C927 H943 0.961 . S
C928 C929 1.370 . S
C928 C930 1.363 . S
C928 H944 0.931 . S
C929 C928 1.370 . S
C929 C933 1.408 . S
C930 C928 1.363 . S
C930 C931 1.370 . S
C930 C934 1.524 . S
C931 C923 1.503 . S
C931 C930 1.370 . S
C931 C932 1.403 . S
C932 C931 1.403 . S
C932 C933 1.404 . S
C932 C935 1.539 . S
C933 C929 1.408 . S
C933 C932 1.404 . S
C933 H945 0.930 . S
C934 C930 1.524 . S
C934 H946 0.956 . S
C934 H947 0.961 . S
C934 H948 0.961 . S
C935 C932 1.539 . S
C935 H949 0.958 . S
C935 H950 0.961 . S
C935 H951 0.960 . S
H936 C920 0.931 . S
H937 C925 0.929 . S
H938 C926 0.960 . S
H939 C926 0.962 . S
H940 C926 0.960 . S
H941 C927 0.961 . S
H942 C927 0.961 . S
H943 C927 0.961 . S
H944 C928 0.931 . S
H945 C933 0.930 . S
H946 C934 0.956 . S
H947 C934 0.961 . S
H948 C934 0.961 . S
H949 C935 0.958 . S
H950 C935 0.961 . S
H951 C935 0.960 . S
C952 C953 1.391 . S
C952 C954 1.394 . S
C952 H968 0.931 . S
C953 C952 1.391 . S
C953 C957 1.376 . S
C954 C952 1.394 . S
C954 C955 1.369 . S
C954 C958 1.531 . S
C955 C954 1.369 . S
C955 C956 1.410 . S
C955 C963 1.503 . S
C956 C955 1.410 . S
C956 C957 1.392 . S
C956 C959 1.511 . S
C957 C953 1.376 . S
C957 C956 1.392 . S
C957 H969 0.929 . S
C958 C954 1.531 . S
C958 H970 0.960 . S
C958 H971 0.962 . S
C958 H972 0.960 . S
C959 C956 1.511 . S
C959 H973 0.961 . S
C959 H974 0.961 . S
C959 H975 0.961 . S
C960 C961 1.370 . S
C960 C962 1.363 . S
C960 H976 0.931 . S
C961 C960 1.370 . S
C961 C965 1.408 . S
C962 C960 1.363 . S
C962 C963 1.370 . S
C962 C966 1.524 . S
C963 C955 1.503 . S
C963 C962 1.370 . S
C963 C964 1.403 . S
C964 C963 1.403 . S
C964 C965 1.404 . S
C964 C967 1.539 . S
C965 C961 1.408 . S
C965 C964 1.404 . S
C965 H977 0.930 . S
C966 C962 1.524 . S
C966 H978 0.956 . S
C966 H979 0.961 . S
C966 H980 0.961 . S
C967 C964 1.539 . S
C967 H981 0.958 . S
C967 H982 0.961 . S
C967 H983 0.960 . S
H968 C952 0.931 . S
H969 C957 0.929 . S
H970 C958 0.960 . S
H971 C958 0.962 . S
H972 C958 0.960 . S
H973 C959 0.961 . S
H974 C959 0.961 . S
H975 C959 0.961 . S
H976 C960 0.931 . S
H977 C965 0.930 . S
H978 C966 0.956 . S
H979 C966 0.961 . S
H980 C966 0.961 . S
H981 C967 0.958 . S
H982 C967 0.961 . S
H983 C967 0.960 . S
C984 C985 1.391 . S
C984 C986 1.394 . S
C984 H1000 0.931 . S
C985 C984 1.391 . S
C985 C989 1.376 . S
C986 C984 1.394 . S
C986 C987 1.369 . S
C986 C990 1.531 . S
C987 C986 1.369 . S
C987 C988 1.410 . S
C987 C995 1.503 . S
C988 C987 1.410 . S
C988 C989 1.392 . S
C988 C991 1.511 . S
C989 C985 1.376 . S
C989 C988 1.392 . S
C989 H1001 0.929 . S
C990 C986 1.531 . S
C990 H1002 0.960 . S
C990 H1003 0.962 . S
C990 H1004 0.960 . S
C991 C988 1.511 . S
C991 H1005 0.961 . S
C991 H1006 0.961 . S
C991 H1007 0.961 . S
C992 C993 1.370 . S
C992 C994 1.363 . S
C992 H1008 0.931 . S
C993 C992 1.370 . S
C993 C997 1.408 . S
C994 C992 1.363 . S
C994 C995 1.370 . S
C994 C998 1.524 . S
C995 C987 1.503 . S
C995 C994 1.370 . S
C995 C996 1.403 . S
C996 C995 1.403 . S
C996 C997 1.404 . S
C996 C999 1.539 . S
C997 C993 1.408 . S
C997 C996 1.404 . S
C997 H1009 0.930 . S
C998 C994 1.524 . S
C998 H1010 0.956 . S
C998 H1011 0.961 . S
C998 H1012 0.961 . S
C999 C996 1.539 . S
C999 H1013 0.958 . S
C999 H1014 0.961 . S
C999 H1015 0.960 . S
H1000 C984 0.931 . S
H1001 C989 0.929 . S
H1002 C990 0.960 . S
H1003 C990 0.962 . S
H1004 C990 0.960 . S
H1005 C991 0.961 . S
H1006 C991 0.961 . S
H1007 C991 0.961 . S
H1008 C992 0.931 . S
H1009 C997 0.930 . S
H1010 C998 0.956 . S
H1011 C998 0.961 . S
H1012 C998 0.961 . S
H1013 C999 0.958 . S
H1014 C999 0.961 . S
H1015 C999 0.960 . S
C1016 C1017 1.391 . S
C1016 C1018 1.394 . S
C1016 H1032 0.931 . S
C1017 C1016 1.391 . S
C1017 C1021 1.376 . S
C1018 C1016 1.394 . S
C1018 C1019 1.369 . S
C1018 C1022 1.531 . S
C1019 C1018 1.369 . S
C1019 C1020 1.410 . S
C1019 C1027 1.503 . S
C1020 C1019 1.410 . S
C1020 C1021 1.392 . S
C1020 C1023 1.511 . S
C1021 C1017 1.376 . S
C1021 C1020 1.392 . S
C1021 H1033 0.929 . S
C1022 C1018 1.531 . S
C1022 H1034 0.960 . S
C1022 H1035 0.962 . S
C1022 H1036 0.960 . S
C1023 C1020 1.511 . S
C1023 H1037 0.961 . S
C1023 H1038 0.961 . S
C1023 H1039 0.961 . S
C1024 C1025 1.370 . S
C1024 C1026 1.363 . S
C1024 H1040 0.931 . S
C1025 C1024 1.370 . S
C1025 C1029 1.408 . S
C1026 C1024 1.363 . S
C1026 C1027 1.370 . S
C1026 C1030 1.524 . S
C1027 C1019 1.503 . S
C1027 C1026 1.370 . S
C1027 C1028 1.403 . S
C1028 C1027 1.403 . S
C1028 C1029 1.404 . S
C1028 C1031 1.539 . S
C1029 C1025 1.408 . S
C1029 C1028 1.404 . S
C1029 H1041 0.930 . S
C1030 C1026 1.524 . S
C1030 H1042 0.956 . S
C1030 H1043 0.961 . S
C1030 H1044 0.961 . S
C1031 C1028 1.539 . S
C1031 H1045 0.958 . S
C1031 H1046 0.961 . S
C1031 H1047 0.960 . S
H1032 C1016 0.931 . S
H1033 C1021 0.929 . S
H1034 C1022 0.960 . S
H1035 C1022 0.962 . S
H1036 C1022 0.960 . S
H1037 C1023 0.961 . S
H1038 C1023 0.961 . S
H1039 C1023 0.961 . S
H1040 C1024 0.931 . S
H1041 C1029 0.930 . S
H1042 C1030 0.956 . S
H1043 C1030 0.961 . S
H1044 C1030 0.961 . S
H1045 C1031 0.958 . S
H1046 C1031 0.961 . S
H1047 C1031 0.960 . S
C1048 C1049 1.391 . S
C1048 C1050 1.394 . S
C1048 H1064 0.931 . S
C1049 C1048 1.391 . S
C1049 C1053 1.376 . S
C1050 C1048 1.394 . S
C1050 C1051 1.369 . S
C1050 C1054 1.531 . S
C1051 C1050 1.369 . S
C1051 C1052 1.410 . S
C1051 C1059 1.503 . S
C1052 C1051 1.410 . S
C1052 C1053 1.392 . S
C1052 C1055 1.511 . S
C1053 C1049 1.376 . S
C1053 C1052 1.392 . S
C1053 H1065 0.929 . S
C1054 C1050 1.531 . S
C1054 H1066 0.960 . S
C1054 H1067 0.962 . S
C1054 H1068 0.960 . S
C1055 C1052 1.511 . S
C1055 H1069 0.961 . S
C1055 H1070 0.961 . S
C1055 H1071 0.961 . S
C1056 C1057 1.370 . S
C1056 C1058 1.363 . S
C1056 H1072 0.931 . S
C1057 C1056 1.370 . S
C1057 C1061 1.408 . S
C1058 C1056 1.363 . S
C1058 C1059 1.370 . S
C1058 C1062 1.524 . S
C1059 C1051 1.503 . S
C1059 C1058 1.370 . S
C1059 C1060 1.403 . S
C1060 C1059 1.403 . S
C1060 C1061 1.404 . S
C1060 C1063 1.539 . S
C1061 C1057 1.408 . S
C1061 C1060 1.404 . S
C1061 H1073 0.930 . S
C1062 C1058 1.524 . S
C1062 H1074 0.956 . S
C1062 H1075 0.961 . S
C1062 H1076 0.961 . S
C1063 C1060 1.539 . S
C1063 H1077 0.958 . S
C1063 H1078 0.961 1_455 S
C1063 H1079 0.960 . S
H1064 C1048 0.931 . S
H1065 C1053 0.929 . S
H1066 C1054 0.960 . S
H1067 C1054 0.962 . S
H1068 C1054 0.960 . S
H1069 C1055 0.961 . S
H1070 C1055 0.961 . S
H1071 C1055 0.961 . S
H1072 C1056 0.931 . S
H1073 C1061 0.930 . S
H1074 C1062 0.956 . S
H1075 C1062 0.961 . S
H1076 C1062 0.961 . S
H1077 C1063 0.958 . S
H1078 C1063 0.961 1_655 S
H1079 C1063 0.960 . S
C1080 C1081 1.391 1_455 S
C1080 C1082 1.394 1_455 S
C1080 H1096 0.931 . S
C1081 C1080 1.391 1_655 S
C1081 C1085 1.376 . S
C1082 C1080 1.394 1_655 S
C1082 C1083 1.369 . S
C1082 C1086 1.531 . S
C1083 C1082 1.369 . S
C1083 C1084 1.410 . S
C1083 C1091 1.503 . S
C1084 C1083 1.410 . S
C1084 C1085 1.392 . S
C1084 C1087 1.511 . S
C1085 C1081 1.376 . S
C1085 C1084 1.392 . S
C1085 H1097 0.929 . S
C1086 C1082 1.531 . S
C1086 H1098 0.960 . S
C1086 H1099 0.962 1_655 S
C1086 H1100 0.960 1_655 S
C1087 C1084 1.511 . S
C1087 H1101 0.961 . S
C1087 H1102 0.961 . S
C1087 H1103 0.961 . S
C1088 C1089 1.370 . S
C1088 C1090 1.363 . S
C1088 H1104 0.931 . S
C1089 C1088 1.370 . S
C1089 C1093 1.408 . S
C1090 C1088 1.363 . S
C1090 C1091 1.370 . S
C1090 C1094 1.524 . S
C1091 C1083 1.503 . S
C1091 C1090 1.370 . S
C1091 C1092 1.403 . S
C1092 C1091 1.403 . S
C1092 C1093 1.404 . S
C1092 C1095 1.539 . S
C1093 C1089 1.408 . S
C1093 C1092 1.404 . S
C1093 H1105 0.930 . S
C1094 C1090 1.524 . S
C1094 H1106 0.956 . S
C1094 H1107 0.961 . S
C1094 H1108 0.961 . S
C1095 C1092 1.539 . S
C1095 H1109 0.958 . S
C1095 H1110 0.961 . S
C1095 H1111 0.960 . S
H1096 C1080 0.931 . S
H1097 C1085 0.929 . S
H1098 C1086 0.960 . S
H1099 C1086 0.962 1_455 S
H1100 C1086 0.960 1_455 S
H1101 C1087 0.961 . S
H1102 C1087 0.961 . S
H1103 C1087 0.961 . S
H1104 C1088 0.931 . S
H1105 C1093 0.930 . S
H1106 C1094 0.956 . S
H1107 C1094 0.961 . S
H1108 C1094 0.961 . S
H1109 C1095 0.958 . S
H1110 C1095 0.961 . S
H1111 C1095 0.960 . S
C1112 C1113 1.391 . S
C1112 C1114 1.394 . S
C1112 H1128 0.931 . S
C1113 C1112 1.391 . S
C1113 C1117 1.376 . S
C1114 C1112 1.394 . S
C1114 C1115 1.369 . S
C1114 C1118 1.531 . S
C1115 C1114 1.369 . S
C1115 C1116 1.410 . S
C1115 C1123 1.503 . S
C1116 C1115 1.410 . S
C1116 C1117 1.392 . S
C1116 C1119 1.511 . S
C1117 C1113 1.376 . S
C1117 C1116 1.392 . S
C1117 H1129 0.929 . S
C1118 C1114 1.531 . S
C1118 H1130 0.960 . S
C1118 H1131 0.962 . S
C1118 H1132 0.960 . S
C1119 C1116 1.511 . S
C1119 H1133 0.961 . S
C1119 H1134 0.961 . S
C1119 H1135 0.961 . S
C1120 C1121 1.370 . S
C1120 C1122 1.363 . S
C1120 H1136 0.931 . S
C1121 C1120 1.370 . S
C1121 C1125 1.408 . S
C1122 C1120 1.363 . S
C1122 C1123 1.370 . S
C1122 C1126 1.524 . S
C1123 C1115 1.503 . S
C1123 C1122 1.370 . S
C1123 C1124 1.403 . S
C1124 C1123 1.403 . S
C1124 C1125 1.404 . S
C1124 C1127 1.539 . S
C1125 C1121 1.408 . S
C1125 C1124 1.404 . S
C1125 H1137 0.930 . S
C1126 C1122 1.524 . S
C1126 H1138 0.956 . S
C1126 H1139 0.961 . S
C1126 H1140 0.961 . S
C1127 C1124 1.539 . S
C1127 H1141 0.958 . S
C1127 H1142 0.961 . S
C1127 H1143 0.960 . S
H1128 C1112 0.931 . S
H1129 C1117 0.929 . S
H1130 C1118 0.960 . S
H1131 C1118 0.962 . S
H1132 C1118 0.960 . S
H1133 C1119 0.961 . S
H1134 C1119 0.961 . S
H1135 C1119 0.961 . S
H1136 C1120 0.931 . S
H1137 C1125 0.930 . S
H1138 C1126 0.956 . S
H1139 C1126 0.961 . S
H1140 C1126 0.961 . S
H1141 C1127 0.958 . S
H1142 C1127 0.961 . S
H1143 C1127 0.960 . S
C1144 C1145 1.391 . S
C1144 C1146 1.394 . S
C1144 H1160 0.931 . S
C1145 C1144 1.391 . S
C1145 C1149 1.376 . S
C1146 C1144 1.394 . S
C1146 C1147 1.369 . S
C1146 C1150 1.531 . S
C1147 C1146 1.369 . S
C1147 C1148 1.410 . S
C1147 C1155 1.503 . S
C1148 C1147 1.410 . S
C1148 C1149 1.392 . S
C1148 C1151 1.511 . S
C1149 C1145 1.376 . S
C1149 C1148 1.392 . S
C1149 H1161 0.929 . S
C1150 C1146 1.531 . S
C1150 H1162 0.960 . S
C1150 H1163 0.962 . S
C1150 H1164 0.960 . S
C1151 C1148 1.511 . S
C1151 H1165 0.961 . S
C1151 H1166 0.961 . S
C1151 H1167 0.961 . S
C1152 C1153 1.370 . S
C1152 C1154 1.363 . S
C1152 H1168 0.931 1_455 S
C1153 C1152 1.370 . S
C1153 C1157 1.408 . S
C1154 C1152 1.363 . S
C1154 C1155 1.370 . S
C1154 C1158 1.524 . S
C1155 C1147 1.503 . S
C1155 C1154 1.370 . S
C1155 C1156 1.403 . S
C1156 C1155 1.403 . S
C1156 C1157 1.404 . S
C1156 C1159 1.539 . S
C1157 C1153 1.408 . S
C1157 C1156 1.404 . S
C1157 H1169 0.930 . S
C1158 C1154 1.524 . S
C1158 H1170 0.956 . S
C1158 H1171 0.961 . S
C1158 H1172 0.961 . S
C1159 C1156 1.539 . S
C1159 H1173 0.958 . S
C1159 H1174 0.961 . S
C1159 H1175 0.960 . S
H1160 C1144 0.931 . S
H1161 C1149 0.929 . S
H1162 C1150 0.960 . S
H1163 C1150 0.962 . S
H1164 C1150 0.960 . S
H1165 C1151 0.961 . S
H1166 C1151 0.961 . S
H1167 C1151 0.961 . S
H1168 C1152 0.931 1_655 S
H1169 C1157 0.930 . S
H1170 C1158 0.956 . S
H1171 C1158 0.961 . S
H1172 C1158 0.961 . S
H1173 C1159 0.958 . S
H1174 C1159 0.961 . S
H1175 C1159 0.960 . S
C1176 C1177 1.391 . S
C1176 C1178 1.394 . S
C1176 H1192 0.931 . S
C1177 C1176 1.391 . S
C1177 C1181 1.376 . S
C1178 C1176 1.394 . S
C1178 C1179 1.369 . S
C1178 C1182 1.531 . S
C1179 C1178 1.369 . S
C1179 C1180 1.410 . S
C1179 C1187 1.503 . S
C1180 C1179 1.410 . S
C1180 C1181 1.392 . S
C1180 C1183 1.511 . S
C1181 C1177 1.376 . S
C1181 C1180 1.392 . S
C1181 H1193 0.929 . S
C1182 C1178 1.531 . S
C1182 H1194 0.960 . S
C1182 H1195 0.962 . S
C1182 H1196 0.960 . S
C1183 C1180 1.511 . S
C1183 H1197 0.961 . S
C1183 H1198 0.961 . S
C1183 H1199 0.961 . S
C1184 C1185 1.370 . S
C1184 C1186 1.363 . S
C1184 H1200 0.931 . S
C1185 C1184 1.370 . S
C1185 C1189 1.408 . S
C1186 C1184 1.363 . S
C1186 C1187 1.370 . S
C1186 C1190 1.524 . S
C1187 C1179 1.503 . S
C1187 C1186 1.370 . S
C1187 C1188 1.403 . S
C1188 C1187 1.403 . S
C1188 C1189 1.404 . S
C1188 C1191 1.539 . S
C1189 C1185 1.408 . S
C1189 C1188 1.404 . S
C1189 H1201 0.930 . S
C1190 C1186 1.524 . S
C1190 H1202 0.956 . S
C1190 H1203 0.961 . S
C1190 H1204 0.961 . S
C1191 C1188 1.539 . S
C1191 H1205 0.958 . S
C1191 H1206 0.961 . S
C1191 H1207 0.960 . S
H1192 C1176 0.931 . S
H1193 C1181 0.929 . S
H1194 C1182 0.960 . S
H1195 C1182 0.962 . S
H1196 C1182 0.960 . S
H1197 C1183 0.961 . S
H1198 C1183 0.961 . S
H1199 C1183 0.961 . S
H1200 C1184 0.931 . S
H1201 C1189 0.930 . S
H1202 C1190 0.956 . S
H1203 C1190 0.961 . S
H1204 C1190 0.961 . S
H1205 C1191 0.958 . S
H1206 C1191 0.961 . S
H1207 C1191 0.960 . S
C1208 C1209 1.391 . S
C1208 C1210 1.394 . S
C1208 H1224 0.931 . S
C1209 C1208 1.391 . S
C1209 C1213 1.376 . S
C1210 C1208 1.394 . S
C1210 C1211 1.369 . S
C1210 C1214 1.531 . S
C1211 C1210 1.369 . S
C1211 C1212 1.410 . S
C1211 C1219 1.503 . S
C1212 C1211 1.410 . S
C1212 C1213 1.392 . S
C1212 C1215 1.511 . S
C1213 C1209 1.376 . S
C1213 C1212 1.392 . S
C1213 H1225 0.929 . S
C1214 C1210 1.531 . S
C1214 H1226 0.960 . S
C1214 H1227 0.962 . S
C1214 H1228 0.960 . S
C1215 C1212 1.511 . S
C1215 H1229 0.961 . S
C1215 H1230 0.961 . S
C1215 H1231 0.961 . S
C1216 C1217 1.370 . S
C1216 C1218 1.363 . S
C1216 H1232 0.931 . S
C1217 C1216 1.370 . S
C1217 C1221 1.408 . S
C1218 C1216 1.363 . S
C1218 C1219 1.370 . S
C1218 C1222 1.524 . S
C1219 C1211 1.503 . S
C1219 C1218 1.370 . S
C1219 C1220 1.403 . S
C1220 C1219 1.403 . S
C1220 C1221 1.404 . S
C1220 C1223 1.539 . S
C1221 C1217 1.408 . S
C1221 C1220 1.404 . S
C1221 H1233 0.930 . S
C1222 C1218 1.524 . S
C1222 H1234 0.956 . S
C1222 H1235 0.961 . S
C1222 H1236 0.961 . S
C1223 C1220 1.539 . S
C1223 H1237 0.958 . S
C1223 H1238 0.961 . S
C1223 H1239 0.960 . S
H1224 C1208 0.931 . S
H1225 C1213 0.929 . S
H1226 C1214 0.960 . S
H1227 C1214 0.962 . S
H1228 C1214 0.960 . S
H1229 C1215 0.961 . S
H1230 C1215 0.961 . S
H1231 C1215 0.961 . S
H1232 C1216 0.931 . S
H1233 C1221 0.930 . S
H1234 C1222 0.956 . S
H1235 C1222 0.961 . S
H1236 C1222 0.961 . S
H1237 C1223 0.958 . S
H1238 C1223 0.961 . S
H1239 C1223 0.960 . S
C225 C124 1.314 . S
C217 C5 1.303 . S
C257 C141 1.446 . S
C249 C18 1.453 . S
C289 C155 1.577 . S
C281 C31 1.619 . S
C313 C42 1.412 . S
C321 C113 1.366 . S
C345 C57 1.131 . S
C353 C110 1.114 . S
C377 C70 1.059 . S
C385 C127 0.999 . S
C417 C138 1.446 1_545 S
C409 C81 1.457 . S
C449 C152 1.239 1_545 S
C441 C96 1.271 . S
C473 C29 1.249 . S
C481 C180 1.224 . S
C513 C194 1.457 . S
C505 C44 1.487 . S
C537 C3 1.012 . S
C545 C211 0.999 . S
C577 C166 1.153 . S
C569 C16 1.115 . S
C601 C83 1.377 . S
C609 C169 1.358 . S
C633 C94 1.654 . S
C641 C183 1.598 . S
C673 C197 1.459 . S
C665 C55 1.520 . S
C697 C68 1.307 . S
C705 C208 1.317 . S
C737 C140 1.742 1_545 S
C729 C1 1.735 . S
C769 C154 1.845 . S
C761 C14 1.820 . S
C793 C27 1.743 . S
C801 C112 1.837 . S
C825 C49 1.689 . S
C833 C125 1.601 . S
C857 C53 1.390 . S
C865 C153 1.297 . S
C897 C111 1.226 . S
C889 C66 1.284 . S
C929 C126 1.573 . S
C921 C88 1.575 . S
C961 C139 1.407 . S
C953 C92 1.502 . S
C993 C195 1.393 . S
C985 C36 1.503 . S
C1025 C210 1.585 . S
C1017 C40 1.589 . S
C1049 C10 1.341 . S
C1057 C167 1.219 . S
C1089 C181 1.287 . S
C1081 C23 1.398 1_655 S
C1121 C209 1.599 . S
C1113 C79 1.614 . S
C1145 C101 1.799 . S
C1153 C168 1.798 . S
C1185 C182 1.843 . S
C1177 C62 1.880 . S
C1217 C196 1.748 . S
C1209 C75 1.768 . S
