# Generated by pormake.
# Topology anh, (6,3)-cn, num edge types: 1
# Building blocks:
#     Node 0, Type 0, BuildingBlock: INOVEN_clean_sbu_0, # of connection points: 6
#     Node 1, Type 0, BuildingBlock: INOVEN_clean_sbu_0, # of connection points: 6
#     Node 2, Type 0, BuildingBlock: INOVEN_clean_sbu_0, # of connection points: 6
#     Node 3, Type 1, BuildingBlock: OLANEW_clean_sbu_2, # of connection points: 3
#     Node 4, Type 1, BuildingBlock: OLANEW_clean_sbu_2, # of connection points: 3
#     Node 5, Type 1, BuildingBlock: OLANEW_clean_sbu_2, # of connection points: 3
#     Node 6, Type 1, BuildingBlock: OLANEW_clean_sbu_2, # of connection points: 3
#     Node 7, Type 1, BuildingBlock: OLANEW_clean_sbu_2, # of connection points: 3
#     Node 8, Type 1, BuildingBlock: OLANEW_clean_sbu_2, # of connection points: 3
#     Edge 9, Type (0, 1), BuildingBlock: FUNLAD_clean_linker_0, # of connection points: 2
#     Edge 10, Type (0, 1), BuildingBlock: FUNLAD_clean_linker_0, # of connection points: 2
#     Edge 11, Type (0, 1), BuildingBlock: FUNLAD_clean_linker_0, # of connection points: 2
#     Edge 12, Type (0, 1), BuildingBlock: FUNLAD_clean_linker_0, # of connection points: 2
#     Edge 13, Type (0, 1), BuildingBlock: FUNLAD_clean_linker_0, # of connection points: 2
#     Edge 14, Type (0, 1), BuildingBlock: FUNLAD_clean_linker_0, # of connection points: 2
#     Edge 15, Type (0, 1), BuildingBlock: FUNLAD_clean_linker_0, # of connection points: 2
#     Edge 16, Type (0, 1), BuildingBlock: FUNLAD_clean_linker_0, # of connection points: 2
#     Edge 17, Type (0, 1), BuildingBlock: FUNLAD_clean_linker_0, # of connection points: 2
#     Edge 18, Type (0, 1), BuildingBlock: FUNLAD_clean_linker_0, # of connection points: 2
#     Edge 19, Type (0, 1), BuildingBlock: FUNLAD_clean_linker_0, # of connection points: 2
#     Edge 20, Type (0, 1), BuildingBlock: FUNLAD_clean_linker_0, # of connection points: 2
#     Edge 21, Type (0, 1), BuildingBlock: FUNLAD_clean_linker_0, # of connection points: 2
#     Edge 22, Type (0, 1), BuildingBlock: FUNLAD_clean_linker_0, # of connection points: 2
#     Edge 23, Type (0, 1), BuildingBlock: FUNLAD_clean_linker_0, # of connection points: 2
#     Edge 24, Type (0, 1), BuildingBlock: FUNLAD_clean_linker_0, # of connection points: 2
#     Edge 25, Type (0, 1), BuildingBlock: FUNLAD_clean_linker_0, # of connection points: 2
#     Edge 26, Type (0, 1), BuildingBlock: FUNLAD_clean_linker_0, # of connection points: 2
# Relax obj value: 0.122
# Max RMSD: 0.164
# Mean RMSD: 0.112
data_MOF--net-anh--node1-INOVEN_clean_sbu_0--node2-OLANEW_clean_sbu_2--edge1-FUNLAD_clean_linker_0
_symmetry_space_group_name_H-M    P1
_symmetry_Int_Tables_number       1
_symmetry_cell_setting            triclinic
loop_
_symmetry_equiv_pos_as_xyz
'x, y, z'
_cell_length_a     42.235068
_cell_length_b     46.358831
_cell_length_c     58.482979
_cell_angle_alpha  92.571139
_cell_angle_beta   89.69711
_cell_angle_gamma 129.01146
loop_
_atom_site_label
_atom_site_type_symbol
_atom_site_fract_x
_atom_site_fract_y
_atom_site_fract_z
_atom_type_partial_charge
Gd0 Gd 0.0495 0.4989 0.1391 0.0
Gd1 Gd 0.01056 0.53581 0.15877 0.0
C2 C 0.10647 0.58987 0.14908 0.0
C3 C 0.08939 0.48242 0.11668 0.0
C4 C 0.12887 0.49132 0.12118 0.0
C5 C 0.14845 0.50661 0.14273 0.0
C6 C 0.14665 0.48366 0.10431 0.0
C7 C 0.20247 0.50478 0.13091 0.0
C8 C 0.18331 0.49045 0.10911 0.0
C9 C 0.18487 0.51318 0.14759 0.0
C10 C 0.04562 0.50356 0.18511 0.0
C11 C 0.95349 0.44744 0.14493 0.0
C12 C 0.97636 0.55059 0.18811 0.0
C13 C 0.93376 0.53404 0.1917 0.0
C14 C 0.90445 0.51229 0.17405 0.0
C15 C 0.92144 0.5362 0.21355 0.0
C16 C 0.85051 0.49499 0.20008 0.0
C17 C 0.88012 0.51688 0.21773 0.0
C18 C 0.86323 0.49311 0.17815 0.0
C19 C 1.00061 0.52408 0.11225 0.0
O20 O 0.10325 0.5607 0.14121 0.0
O21 O 0.07557 0.58713 0.15758 0.0
O22 O 0.06109 0.46043 0.13115 0.0
O23 O 0.09074 0.51054 0.11199 0.0
O24 O 0.04392 0.47754 0.17429 0.0
O25 O 0.05266 0.52683 0.17131 0.0
O26 O 0.95971 0.47425 0.15853 0.0
O27 O 0.98261 0.45211 0.13251 0.0
O28 O 0.99287 0.56912 0.1695 0.0
O29 O 0.98441 0.52814 0.19185 0.0
O30 O 0.98859 0.53986 0.12416 0.0
O31 O 0.0162 0.51595 0.12603 0.0
H32 H 0.13521 0.51296 0.1559 0.0
H33 H 0.13188 0.47189 0.08758 0.0
H34 H 0.19603 0.4835 0.09599 0.0
H35 H 0.19924 0.52475 0.16441 0.0
H36 H 0.91341 0.50973 0.15716 0.0
H37 H 0.94369 0.55221 0.22749 0.0
H38 H 0.87133 0.51863 0.23484 0.0
H39 H 0.8414 0.4771 0.16405 0.0
Gd40 Gd 0.53847 0.00322 0.49274 0.0
Gd41 Gd 0.48664 0.02621 0.48422 0.0
C42 C 0.43895 0.9401 0.48722 0.0
C43 C 0.56953 0.97436 0.50846 0.0
C44 C 0.55895 0.93733 0.50818 0.0
C45 C 0.58831 0.93365 0.50172 0.0
C46 C 0.52005 0.90561 0.514 0.0
C47 C 0.54023 0.86704 0.50691 0.0
C48 C 0.51079 0.8708 0.51337 0.0
C49 C 0.57909 0.89891 0.50108 0.0
C50 C 0.52739 0.0082 0.44826 0.0
C51 C 0.58602 0.08865 0.48695 0.0
C52 C 0.45566 0.05633 0.47059 0.0
C53 C 0.46729 0.09377 0.47228 0.0
C54 C 0.43734 0.09756 0.47652 0.0
C55 C 0.50804 0.12583 0.47055 0.0
C56 C 0.48871 0.16506 0.47753 0.0
C57 C 0.51864 0.16113 0.47306 0.0
C58 C 0.44791 0.13283 0.47915 0.0
C59 C 0.50005 0.0221 0.52865 0.0
O60 O 0.47359 0.94945 0.49559 0.0
O61 O 0.43747 0.96491 0.47828 0.0
O62 O 0.57909 0.98989 0.48878 0.0
O63 O 0.54692 0.97922 0.5206 0.0
O64 O 0.56054 0.01635 0.45682 0.0
O65 O 0.50044 0.99511 0.46316 0.0
O66 O 0.55096 0.07852 0.47882 0.0
O67 O 0.58804 0.06499 0.49718 0.0
O68 O 0.44635 0.03967 0.48982 0.0
O69 O 0.47774 0.05178 0.45763 0.0
O70 O 0.46583 0.01231 0.52065 0.0
O71 O 0.52581 0.03532 0.5132 0.0
H72 H 0.61853 0.95777 0.49723 0.0
H73 H 0.49681 0.90766 0.51903 0.0
H74 H 0.48045 0.84679 0.51776 0.0
H75 H 0.60269 0.89716 0.49639 0.0
H76 H 0.40575 0.07317 0.47798 0.0
H77 H 0.53177 0.12365 0.46752 0.0
H78 H 0.5504 0.18535 0.47202 0.0
H79 H 0.42407 0.13485 0.48232 0.0
Gd80 Gd 0.5709 0.55679 0.83557 0.0
Gd81 Gd 0.51607 0.47586 0.8452 0.0
C82 C 0.47328 0.51287 0.84365 0.0
C83 C 0.60303 0.6201 0.81853 0.0
C84 C 0.59365 0.64587 0.81793 0.0
C85 C 0.62226 0.68242 0.8271 0.0
C86 C 0.55653 0.63457 0.80862 0.0
C87 C 0.57702 0.6962 0.8177 0.0
C88 C 0.54837 0.65951 0.80846 0.0
C89 C 0.61401 0.70726 0.82709 0.0
C90 C 0.5637 0.54311 0.88039 0.0
C91 C 0.61488 0.52155 0.84193 0.0
C92 C 0.4828 0.41082 0.8598 0.0
C93 C 0.48805 0.3826 0.85501 0.0
C94 C 0.49631 0.3764 0.83283 0.0
C95 C 0.48493 0.36165 0.87275 0.0
C96 C 0.49658 0.32749 0.84605 0.0
C97 C 0.48924 0.33438 0.86834 0.0
C98 C 0.50034 0.34901 0.82839 0.0
C99 C 0.52296 0.48991 0.8004 0.0
O100 O 0.50724 0.54095 0.83414 0.0
O101 O 0.47158 0.48627 0.85269 0.0
O102 O 0.61399 0.61698 0.83855 0.0
O103 O 0.57873 0.58826 0.80672 0.0
O104 O 0.59707 0.57114 0.87166 0.0
O105 O 0.53539 0.5255 0.86546 0.0
O106 O 0.57933 0.49249 0.84933 0.0
O107 O 0.61843 0.54893 0.8326 0.0
O108 O 0.4672 0.41651 0.84306 0.0
O109 O 0.51322 0.44164 0.87067 0.0
O110 O 0.48953 0.46268 0.8094 0.0
O111 O 0.55174 0.50705 0.81512 0.0
H112 H 0.65102 0.69175 0.83444 0.0
H113 H 0.53376 0.6065 0.80146 0.0
H114 H 0.51979 0.65012 0.80083 0.0
H115 H 0.63651 0.73503 0.83472 0.0
H116 H 0.49947 0.39263 0.81891 0.0
H117 H 0.47879 0.36617 0.88998 0.0
H118 H 0.48587 0.3181 0.88227 0.0
H119 H 0.50663 0.3448 0.81112 0.0
O120 O 0.54257 0.07442 0.23506 0.0
Cd121 Cd 0.5461 0.08517 0.1943 0.0
O122 O 0.52113 0.01908 0.22382 0.0
Cd123 Cd 0.49329 0.96073 0.22668 0.0
O124 O 0.45016 0.9015 0.21717 0.0
C125 C 0.43485 0.89345 0.19699 0.0
O126 O 0.44691 0.92066 0.18373 0.0
C127 C 0.53015 0.04249 0.24006 0.0
C128 C 0.62341 0.14693 0.18218 0.0
O129 O 0.59649 0.14991 0.18866 0.0
O130 O 0.61378 0.11458 0.18147 0.0
O131 O 0.58175 0.53668 0.57919 0.0
Cd132 Cd 0.57722 0.53273 0.53735 0.0
O133 O 0.52235 0.52429 0.58225 0.0
Cd134 Cd 0.51898 0.53787 0.54754 0.0
O135 O 0.5111 0.57431 0.53075 0.0
C136 C 0.48903 0.57994 0.54152 0.0
O137 O 0.47191 0.56238 0.56034 0.0
C138 C 0.55265 0.52903 0.59146 0.0
C139 C 0.55623 0.46456 0.52177 0.0
O140 O 0.59365 0.49375 0.52433 0.0
O141 O 0.52879 0.46781 0.52607 0.0
O142 O 0.08458 0.52517 0.89683 0.0
Cd143 Cd 0.11613 0.5244 0.86051 0.0
O144 O 0.0331 0.52445 0.8877 0.0
Cd145 Cd 0.98037 0.52574 0.88899 0.0
O146 O 0.92945 0.52777 0.88075 0.0
C147 C 0.89973 0.51575 0.89397 0.0
O148 O 0.89902 0.50197 0.9133 0.0
C149 C 0.05531 0.5251 0.90295 0.0
C150 C 0.18585 0.52721 0.86176 0.0
O151 O 0.18955 0.55691 0.86264 0.0
O152 O 0.14948 0.49617 0.86124 0.0
O153 O 0.05354 0.52817 0.4101 0.0
Cd154 Cd 0.05329 0.53849 0.45148 0.0
O155 O 0.98717 0.49331 0.40353 0.0
Cd156 Cd 0.9683 0.47881 0.4389 0.0
O157 O 0.92296 0.43019 0.45844 0.0
C158 C 0.90408 0.39963 0.44659 0.0
O159 O 0.91404 0.40057 0.42514 0.0
C160 C 0.02312 0.51133 0.39614 0.0
C161 C 0.11845 0.61322 0.46332 0.0
O162 O 0.12276 0.58823 0.46361 0.0
O163 O 0.0831 0.60278 0.45798 0.0
O164 O 0.50679 0.98072 0.74905 0.0
Cd165 Cd 0.51372 0.98194 0.7906 0.0
O166 O 0.56435 0.03744 0.74617 0.0
Cd167 Cd 0.56943 0.05315 0.78249 0.0
O168 O 0.56676 0.0907 0.8047 0.0
C169 C 0.534 0.08642 0.80325 0.0
O170 O 0.5037 0.05855 0.79023 0.0
C171 C 0.53381 0.00678 0.73672 0.0
C172 C 0.53056 0.93436 0.80051 0.0
O173 O 0.49378 0.92249 0.79934 0.0
O174 O 0.55935 0.9689 0.79757 0.0
O175 O 0.57007 0.53443 0.104 0.0
Cd176 Cd 0.57347 0.53442 0.14546 0.0
O177 O 0.50759 0.5151 0.10032 0.0
Cd178 Cd 0.50289 0.51194 0.13749 0.0
O179 O 0.5104 0.51157 0.17452 0.0
C180 C 0.48687 0.50874 0.18956 0.0
O181 O 0.49329 0.50625 0.21108 0.0
C182 C 0.54054 0.52555 0.09129 0.0
C183 C 0.59499 0.49103 0.15596 0.0
O184 O 0.62144 0.5244 0.14985 0.0
O185 O 0.5579 0.47797 0.15779 0.0
C186 C 0.24363 0.4982 0.15746 0.0
C187 C 0.23988 0.50976 0.13657 0.0
C188 C 0.27837 0.50208 0.16274 0.0
C189 C 0.31013 0.51749 0.14714 0.0
C190 C 0.30677 0.52981 0.12648 0.0
C191 C 0.27186 0.52573 0.12115 0.0
C192 C 0.34746 0.52188 0.15212 0.0
C193 C 0.3476 0.49913 0.16562 0.0
C194 C 0.38432 0.50273 0.17124 0.0
C195 C 0.38254 0.48326 0.18959 0.0
C196 C 0.41596 0.48541 0.19557 0.0
C197 C 0.45177 0.5067 0.1831 0.0
H198 H 0.42323 0.53936 0.14434 0.0
C199 C 0.45384 0.52638 0.16482 0.0
C200 C 0.42043 0.52428 0.15881 0.0
H201 H 0.48155 0.54402 0.1554 0.0
H202 H 0.21943 0.48569 0.16967 0.0
H203 H 0.28035 0.49342 0.17918 0.0
H204 H 0.33101 0.54222 0.11431 0.0
H205 H 0.27004 0.53536 0.10505 0.0
H206 H 0.37506 0.54411 0.14396 0.0
H207 H 0.31935 0.47657 0.1732 0.0
H208 H 0.3552 0.46638 0.19946 0.0
H209 H 0.41359 0.47004 0.20981 0.0
C210 C 0.66027 0.14242 0.49562 0.0
C211 C 0.62362 0.12702 0.48353 0.0
C212 C 0.69595 0.17812 0.4912 0.0
C213 C 0.69558 0.19882 0.47445 0.0
C214 C 0.65889 0.18342 0.46259 0.0
C215 C 0.62335 0.14814 0.46716 0.0
C216 C 0.73308 0.23509 0.46741 0.0
C217 C 0.76634 0.2593 0.48105 0.0
C218 C 0.80283 0.29499 0.47254 0.0
C219 C 0.82577 0.32719 0.48719 0.0
C220 C 0.85899 0.36132 0.47897 0.0
C221 C 0.87023 0.36366 0.45602 0.0
H222 H 0.79883 0.27273 0.43826 0.0
C223 C 0.84814 0.33107 0.44169 0.0
C224 C 0.81494 0.29721 0.44982 0.0
H225 H 0.85615 0.33167 0.42399 0.0
H226 H 0.66149 0.12676 0.50827 0.0
H227 H 0.72392 0.18882 0.50033 0.0
H228 H 0.65778 0.19857 0.44947 0.0
H229 H 0.59591 0.13703 0.45727 0.0
H230 H 0.73247 0.2428 0.45022 0.0
H231 H 0.7661 0.25394 0.49896 0.0
H232 H 0.81735 0.32612 0.50485 0.0
H233 H 0.87557 0.38586 0.49051 0.0
C234 C 0.59989 0.76055 0.81348 0.0
C235 C 0.56855 0.72291 0.81749 0.0
C236 C 0.59222 0.7858 0.81345 0.0
C237 C 0.55271 0.77396 0.81716 0.0
C238 C 0.52148 0.73639 0.82134 0.0
C239 C 0.52923 0.71117 0.82149 0.0
C240 C 0.54269 0.79963 0.81716 0.0
C241 C 0.56703 0.83382 0.80877 0.0
C242 C 0.55656 0.85904 0.80823 0.0
C243 C 0.58824 0.8972 0.80616 0.0
C244 C 0.57989 0.92178 0.80426 0.0
C245 C 0.53951 0.90869 0.80417 0.0
H246 H 0.49063 0.8167 0.80936 0.0
C247 C 0.50773 0.87056 0.8065 0.0
C248 C 0.51609 0.84596 0.80845 0.0
H249 H 0.47624 0.85953 0.80632 0.0
H250 H 0.63048 0.77058 0.81013 0.0
H251 H 0.61766 0.81448 0.81075 0.0
H252 H 0.49084 0.72642 0.82447 0.0
H253 H 0.50446 0.68256 0.82505 0.0
H254 H 0.51369 0.78948 0.82419 0.0
H255 H 0.59622 0.8444 0.80189 0.0
H256 H 0.61967 0.90808 0.80582 0.0
H257 H 0.60509 0.95094 0.80244 0.0
C258 C 0.77632 0.44063 0.19307 0.0
C259 C 0.80669 0.47561 0.20401 0.0
C260 C 0.73542 0.42547 0.19349 0.0
C261 C 0.72422 0.44504 0.2049 0.0
C262 C 0.75393 0.47803 0.21772 0.0
C263 C 0.79485 0.49336 0.21716 0.0
C264 C 0.68386 0.43538 0.2009 0.0
C265 C 0.66626 0.42462 0.1798 0.0
C266 C 0.6413 0.43478 0.17219 0.0
C267 C 0.65156 0.45318 0.15175 0.0
C268 C 0.63535 0.47051 0.14619 0.0
C269 C 0.60749 0.46858 0.16057 0.0
H270 H 0.60307 0.41667 0.20179 0.0
C271 C 0.59443 0.4475 0.18004 0.0
C272 C 0.61169 0.43106 0.18603 0.0
H273 H 0.57279 0.44562 0.19129 0.0
H274 H 0.78433 0.42565 0.18343 0.0
H275 H 0.71293 0.39936 0.184 0.0
H276 H 0.74601 0.49354 0.22674 0.0
H277 H 0.81736 0.52029 0.2258 0.0
H278 H 0.67414 0.44606 0.21358 0.0
H279 H 0.67857 0.41748 0.16641 0.0
H280 H 0.67431 0.45636 0.14084 0.0
H281 H 0.64545 0.48632 0.13095 0.0
C282 C 0.36355 0.89043 0.48019 0.0
C283 C 0.40139 0.9007 0.48711 0.0
C284 C 0.32816 0.85326 0.47992 0.0
C285 C 0.3298 0.82528 0.48642 0.0
C286 C 0.36761 0.83577 0.49363 0.0
C287 C 0.40294 0.87293 0.49395 0.0
C288 C 0.29332 0.78503 0.48605 0.0
C289 C 0.25727 0.7701 0.47548 0.0
C290 C 0.22187 0.72955 0.47411 0.0
C291 C 0.18285 0.71821 0.46922 0.0
C292 C 0.14911 0.68048 0.46632 0.0
C293 C 0.15363 0.65309 0.46805 0.0
H294 H 0.25583 0.70936 0.47924 0.0
C295 C 0.19253 0.66432 0.47322 0.0
C296 C 0.22629 0.70206 0.47616 0.0
H297 H 0.19714 0.64396 0.47451 0.0
H298 H 0.36114 0.91115 0.47504 0.0
H299 H 0.29982 0.84702 0.47481 0.0
H300 H 0.37 0.81505 0.49884 0.0
H301 H 0.43149 0.87975 0.49939 0.0
H302 H 0.29692 0.76693 0.49461 0.0
H303 H 0.25295 0.7879 0.46721 0.0
H304 H 0.17848 0.73866 0.4674 0.0
H305 H 0.1196 0.67284 0.46229 0.0
C306 C 0.5207 0.29178 0.85606 0.0
C307 C 0.49928 0.29737 0.84108 0.0
C308 C 0.52255 0.26298 0.85146 0.0
C309 C 0.50304 0.23915 0.83168 0.0
C310 C 0.48154 0.24478 0.81684 0.0
C311 C 0.47975 0.27353 0.82142 0.0
C312 C 0.5031 0.20751 0.82604 0.0
C313 C 0.52856 0.203 0.83575 0.0
C314 C 0.52842 0.1716 0.82887 0.0
C315 C 0.56439 0.17618 0.83164 0.0
C316 C 0.566 0.14806 0.82405 0.0
C317 C 0.53149 0.11464 0.81365 0.0
H318 H 0.46452 0.13202 0.818 0.0
C319 C 0.49495 0.10935 0.81191 0.0
C320 C 0.49334 0.13737 0.81954 0.0
H321 H 0.46763 0.08372 0.8043 0.0
H322 H 0.53621 0.30979 0.87131 0.0
H323 H 0.53873 0.25934 0.86368 0.0
H324 H 0.4659 0.22676 0.80158 0.0
H325 H 0.46243 0.27668 0.80972 0.0
H326 H 0.48213 0.18786 0.81239 0.0
H327 H 0.55206 0.22399 0.84802 0.0
H328 H 0.59171 0.20201 0.83909 0.0
H329 H 0.59458 0.15296 0.82577 0.0
C330 C 0.50891 0.80615 0.52447 0.0
C331 C 0.53094 0.83029 0.50674 0.0
C332 C 0.50229 0.7726 0.52507 0.0
C333 C 0.51736 0.76227 0.50783 0.0
C334 C 0.53888 0.78618 0.48997 0.0
C335 C 0.54543 0.81968 0.48935 0.0
C336 C 0.51406 0.72843 0.50884 0.0
C337 C 0.48492 0.6984 0.52028 0.0
C338 C 0.48427 0.66642 0.52389 0.0
C339 C 0.46204 0.64385 0.54216 0.0
C340 C 0.46273 0.61518 0.54743 0.0
C341 C 0.48554 0.60815 0.53444 0.0
H342 H 0.52208 0.67409 0.49549 0.0
C343 C 0.50636 0.62957 0.5155 0.0
C344 C 0.50568 0.65835 0.51022 0.0
H345 H 0.52383 0.62457 0.50499 0.0
H346 H 0.49799 0.81377 0.53836 0.0
H347 H 0.48677 0.75571 0.53957 0.0
H348 H 0.55101 0.77907 0.47653 0.0
H349 H 0.56209 0.8374 0.47529 0.0
H350 H 0.53734 0.72913 0.50026 0.0
H351 H 0.46148 0.69787 0.52853 0.0
H352 H 0.44493 0.64908 0.55286 0.0
H353 H 0.44606 0.59907 0.56204 0.0
C354 C 0.64785 0.49454 0.85512 0.0
C355 C 0.65138 0.52328 0.84473 0.0
C356 C 0.68204 0.49649 0.85875 0.0
C357 C 0.72112 0.52741 0.85219 0.0
C358 C 0.72445 0.55569 0.8413 0.0
C359 C 0.69021 0.55379 0.83773 0.0
C360 C 0.75866 0.53073 0.85596 0.0
C361 C 0.76204 0.51261 0.87211 0.0
C362 C 0.79898 0.51546 0.87698 0.0
C363 C 0.80035 0.50123 0.89736 0.0
C364 C 0.83301 0.50177 0.90275 0.0
C365 C 0.86565 0.51638 0.88787 0.0
H366 H 0.83192 0.54114 0.84594 0.0
C367 C 0.86462 0.5308 0.86741 0.0
C368 C 0.83175 0.53037 0.862 0.0
H369 H 0.88908 0.54219 0.85546 0.0
H370 H 0.61853 0.47037 0.86061 0.0
H371 H 0.67739 0.47336 0.86646 0.0
H372 H 0.75386 0.57972 0.83578 0.0
H373 H 0.69431 0.57645 0.82961 0.0
H374 H 0.78483 0.5501 0.84574 0.0
H375 H 0.73664 0.49543 0.8833 0.0
H376 H 0.7758 0.48941 0.9093 0.0
H377 H 0.83239 0.49035 0.91866 0.0
C378 C 0.18279 0.63073 0.14945 0.0
C379 C 0.14707 0.62699 0.15001 0.0
C380 C 0.22108 0.66589 0.15204 0.0
C381 C 0.22427 0.69792 0.155 0.0
C382 C 0.18866 0.69421 0.15465 0.0
C383 C 0.15044 0.65912 0.15242 0.0
C384 C 0.26406 0.73563 0.15848 0.0
C385 C 0.2961 0.74245 0.1697 0.0
C386 C 0.33375 0.78085 0.17551 0.0
C387 C 0.35514 0.78847 0.19616 0.0
C388 C 0.38864 0.82498 0.203 0.0
C389 C 0.40169 0.85444 0.18911 0.0
H390 H 0.33298 0.805 0.14476 0.0
C391 C 0.38154 0.84648 0.16789 0.0
C392 C 0.34795 0.81009 0.16115 0.0
H393 H 0.39111 0.86846 0.15664 0.0
H394 H 0.18117 0.60647 0.14756 0.0
H395 H 0.24805 0.6679 0.15165 0.0
H396 H 0.19035 0.7185 0.15667 0.0
H397 H 0.12352 0.65719 0.1527 0.0
H398 H 0.26558 0.7588 0.15358 0.0
H399 H 0.29323 0.71966 0.17678 0.0
H400 H 0.34505 0.76633 0.20739 0.0
H401 H 0.40376 0.83016 0.21935 0.0
C402 C 0.48263 0.20992 0.49832 0.0
C403 C 0.50005 0.20258 0.48086 0.0
C404 C 0.49336 0.24518 0.50162 0.0
C405 C 0.52159 0.27395 0.48736 0.0
C406 C 0.53937 0.26673 0.4701 0.0
C407 C 0.52865 0.23144 0.46682 0.0
C408 C 0.5344 0.31208 0.49058 0.0
C409 C 0.51097 0.31926 0.50053 0.0
C410 C 0.52365 0.35726 0.5045 0.0
C411 C 0.49346 0.36085 0.50864 0.0
C412 C 0.50396 0.39573 0.5137 0.0
C413 C 0.54504 0.42792 0.51495 0.0
H414 H 0.58919 0.38811 0.50305 0.0
C415 C 0.57533 0.42448 0.5106 0.0
C416 C 0.56483 0.38957 0.5055 0.0
H417 H 0.60729 0.4487 0.51158 0.0
H418 H 0.46123 0.18856 0.50979 0.0
H419 H 0.48008 0.24986 0.51567 0.0
H420 H 0.56145 0.2884 0.45899 0.0
H421 H 0.54247 0.22668 0.45312 0.0
H422 H 0.56344 0.33459 0.48367 0.0
H423 H 0.4804 0.29621 0.50547 0.0
H424 H 0.46154 0.3365 0.50814 0.0
H425 H 0.47984 0.39734 0.51703 0.0
C426 C 0.4388 0.5416 0.83845 0.0
C427 C 0.43746 0.51226 0.8457 0.0
C428 C 0.40498 0.54075 0.8409 0.0
C429 C 0.36882 0.51044 0.85071 0.0
C430 C 0.36762 0.48111 0.85768 0.0
C431 C 0.40128 0.48202 0.8553 0.0
C432 C 0.33124 0.50726 0.85358 0.0
C433 C 0.32971 0.53548 0.85214 0.0
C434 C 0.29196 0.53198 0.85542 0.0
C435 C 0.29617 0.5646 0.85815 0.0
C436 C 0.26202 0.56306 0.86063 0.0
C437 C 0.22235 0.52875 0.86039 0.0
H438 H 0.24681 0.47156 0.85275 0.0
C439 C 0.21795 0.49602 0.85779 0.0
C440 C 0.25214 0.49754 0.85527 0.0
H441 H 0.18793 0.46906 0.85731 0.0
H442 H 0.46602 0.56532 0.83089 0.0
H443 H 0.40733 0.56369 0.83481 0.0
H444 H 0.3404 0.45722 0.86514 0.0
H445 H 0.39879 0.45879 0.86105 0.0
H446 H 0.30383 0.48024 0.85796 0.0
H447 H 0.35766 0.56304 0.84912 0.0
H448 H 0.32614 0.5916 0.85827 0.0
H449 H 0.26678 0.5889 0.86249 0.0
C450 C 0.90537 0.37783 0.13892 0.0
C451 C 0.91206 0.41124 0.14396 0.0
C452 C 0.86619 0.34363 0.14031 0.0
C453 C 0.83314 0.34249 0.14648 0.0
C454 C 0.83974 0.37598 0.15042 0.0
C455 C 0.87877 0.40993 0.14941 0.0
C456 C 0.79142 0.30732 0.14942 0.0
C457 C 0.78353 0.27625 0.15665 0.0
C458 C 0.742 0.24323 0.16281 0.0
C459 C 0.7322 0.2081 0.16187 0.0
C460 C 0.69366 0.1767 0.1681 0.0
C461 C 0.66429 0.17993 0.17562 0.0
H462 H 0.71952 0.27318 0.17267 0.0
C463 C 0.67433 0.21517 0.17692 0.0
C464 C 0.71274 0.24647 0.17071 0.0
H465 H 0.6526 0.21872 0.18291 0.0
H466 H 0.93052 0.3781 0.1346 0.0
H467 H 0.86194 0.3183 0.13658 0.0
H468 H 0.81479 0.3759 0.155 0.0
H469 H 0.88287 0.43523 0.15314 0.0
H470 H 0.76655 0.30819 0.14709 0.0
H471 H 0.80821 0.27505 0.15874 0.0
H472 H 0.75433 0.20489 0.15619 0.0
H473 H 0.68694 0.14994 0.16703 0.0
C474 C 0.01659 0.50577 0.07562 0.0
C475 C 0.99985 0.52052 0.08695 0.0
C476 C 0.01741 0.50424 0.05164 0.0
C477 C 1.00147 0.5175 0.0385 0.0
C478 C 0.98344 0.53097 0.04992 0.0
C479 C 0.98285 0.53268 0.07386 0.0
C480 C 1.00301 0.51769 0.01296 0.0
C481 C 0.0324 0.52053 0.00127 0.0
C482 C 0.03689 0.52309 0.97591 0.0
C483 C 0.0743 0.53552 0.96709 0.0
C484 C 0.08014 0.53701 0.94356 0.0
C485 C 0.04865 0.52597 0.92793 0.0
H486 H 0.97567 0.50202 0.96634 0.0
C487 C 0.0112 0.51399 0.93661 0.0
C488 C 1.0053 0.51249 0.96038 0.0
H489 H 0.98602 0.50456 0.92513 0.0
H490 H 0.02923 0.49559 0.08528 0.0
H491 H 0.03025 0.49239 0.04353 0.0
H492 H 0.97052 0.54098 0.04031 0.0
H493 H 0.96942 0.54392 0.08213 0.0
H494 H 0.98106 0.51822 0.00387 0.0
H495 H 0.05607 0.52308 0.01087 0.0
H496 H 0.09925 0.54389 0.97849 0.0
H497 H 0.1095 0.54653 0.93761 0.0
C498 C 0.55272 0.02227 0.40863 0.0
C499 C 0.5212 0.01028 0.4238 0.0
C500 C 0.54758 0.02434 0.3854 0.0
C501 C 0.51067 0.0144 0.37679 0.0
C502 C 0.47939 0.00308 0.39205 0.0
C503 C 0.48445 0.00073 0.41536 0.0
C504 C 0.50507 0.01733 0.35218 0.0
C505 C 0.52365 0.01236 0.33553 0.0
C506 C 0.52178 0.01825 0.31098 0.0
C507 C 0.5302 0.00118 0.29443 0.0
C508 C 0.53201 0.00833 0.2713 0.0
C509 C 0.52576 0.033 0.26426 0.0
H510 H 0.50986 0.05735 0.31618 0.0
C511 C 0.51733 0.05012 0.28078 0.0
C512 C 0.51521 0.04276 0.3039 0.0
H513 H 0.51275 0.06954 0.27584 0.0
H514 H 0.58156 0.03021 0.41472 0.0
H515 H 0.57292 0.03447 0.37434 0.0
H516 H 0.45088 0.99575 0.38589 0.0
H517 H 0.45975 0.99157 0.42676 0.0
H518 H 0.48449 0.02289 0.34777 0.0
H519 H 0.54082 0.00311 0.33997 0.0
H520 H 0.53608 0.98268 0.29944 0.0
H521 H 0.5399 0.99568 0.2591 0.0
C522 C 0.56445 0.52135 0.76578 0.0
C523 C 0.52639 0.49821 0.77607 0.0
C524 C 0.56673 0.52775 0.7424 0.0
C525 C 0.53092 0.51147 0.72911 0.0
C526 C 0.49313 0.4893 0.73968 0.0
C527 C 0.49084 0.48239 0.76283 0.0
C528 C 0.53133 0.51719 0.70433 0.0
C529 C 0.55868 0.52108 0.68992 0.0
C530 C 0.55639 0.52289 0.66464 0.0
C531 C 0.59105 0.53657 0.65176 0.0
C532 C 0.58994 0.53827 0.62796 0.0
C533 C 0.55397 0.52625 0.61652 0.0
H534 H 0.49213 0.49775 0.66187 0.0
C535 C 0.51914 0.512 0.62932 0.0
C536 C 0.52014 0.51002 0.65301 0.0
H537 H 0.4907 0.50198 0.621 0.0
H538 H 0.59232 0.53408 0.77572 0.0
H539 H 0.59642 0.54575 0.73488 0.0
H540 H 0.46515 0.4767 0.72988 0.0
H541 H 0.46113 0.46471 0.77039 0.0
H542 H 0.50656 0.51599 0.69776 0.0
H543 H 0.58341 0.52234 0.69678 0.0
H544 H 0.61926 0.54623 0.66016 0.0
H545 H 0.61727 0.54933 0.61861 0.0
C546 C 0.47714 0.00402 0.56858 0.0
C547 C 0.50818 0.0195 0.55262 0.0
C548 C 0.48493 0.00212 0.59142 0.0
C549 C 0.52399 0.01545 0.59872 0.0
C550 C 0.55495 0.0309 0.58266 0.0
C551 C 0.54713 0.03283 0.55983 0.0
C552 C 0.5343 0.01599 0.6231 0.0
C553 C 0.50634 0.99379 0.6386 0.0
C554 C 0.51603 0.99671 0.66345 0.0
C555 C 0.48775 0.96689 0.67697 0.0
C556 C 0.49402 0.96963 0.70068 0.0
C557 C 0.52874 0.00248 0.71144 0.0
H558 H 0.57325 0.05343 0.66466 0.0
C559 C 0.55747 0.03204 0.69788 0.0
C560 C 0.55118 0.02934 0.6742 0.0
H561 H 0.58449 0.05789 0.70562 0.0
H562 H 0.44689 0.99376 0.56347 0.0
H563 H 0.46051 0.99114 0.60331 0.0
H564 H 0.58539 0.04173 0.58782 0.0
H565 H 0.57168 0.04505 0.54787 0.0
H566 H 0.56634 0.03518 0.62822 0.0
H567 H 0.47483 0.97222 0.633 0.0
H568 H 0.46027 0.94151 0.66921 0.0
H569 H 0.47125 0.94636 0.71059 0.0
C570 C 0.58893 0.56235 0.92101 0.0
C571 C 0.55719 0.53759 0.90506 0.0
C572 C 0.58213 0.55812 0.94445 0.0
C573 C 0.54347 0.52868 0.95237 0.0
C574 C 0.51183 0.50394 0.93632 0.0
C575 C 0.51864 0.50824 0.91288 0.0
C576 C 0.53463 0.52372 0.97715 0.0
C577 C 0.56366 0.53679 0.99351 0.0
C578 C 0.55567 0.53243 0.01839 0.0
C579 C 0.5849 0.53686 0.03293 0.0
C580 C 0.57971 0.53435 0.0565 0.0
C581 C 0.54511 0.52744 0.06618 0.0
H582 H 0.49826 0.52306 0.01753 0.0
C583 C 0.51568 0.52291 0.0517 0.0
C584 C 0.52097 0.52557 0.02802 0.0
H585 H 0.48886 0.51787 0.05866 0.0
H586 H 0.61884 0.58541 0.91538 0.0
H587 H 0.60702 0.57856 0.95619 0.0
H588 H 0.48172 0.48121 0.94192 0.0
H589 H 0.49358 0.48878 0.9009 0.0
H590 H 0.50293 0.50739 0.98179 0.0
H591 H 0.59472 0.55008 0.98856 0.0
H592 H 0.61201 0.54237 0.02603 0.0
H593 H 0.60298 0.53791 0.06714 0.0
C594 C 0.03446 0.4793 0.2242 0.0
C595 C 0.04345 0.50728 0.21018 0.0
C596 C 0.03165 0.48259 0.2479 0.0
C597 C 0.03739 0.5138 0.25793 0.0
C598 C 0.04644 0.54174 0.24389 0.0
C599 C 0.05021 0.53886 0.2203 0.0
C600 C 0.0324 0.51709 0.28279 0.0
C601 C 0.04476 0.50576 0.29872 0.0
C602 C 0.03959 0.5089 0.32358 0.0
C603 C 0.06939 0.51655 0.33923 0.0
C604 C 0.06461 0.51841 0.3628 0.0
C605 C 0.02932 0.51161 0.37119 0.0
H606 H 0.98063 0.49594 0.3203 0.0
C607 C 0.99935 0.50373 0.35551 0.0
C608 C 1.00456 0.50267 0.33193 0.0
H609 H 0.97179 0.49829 0.36146 0.0
H610 H 0.02924 0.45471 0.21684 0.0
H611 H 0.02392 0.46027 0.25824 0.0
H612 H 0.05099 0.56603 0.25122 0.0
H613 H 0.05803 0.56124 0.20997 0.0
H614 H 0.0201 0.53096 0.28815 0.0
H615 H 0.06093 0.49547 0.29349 0.0
H616 H 0.09649 0.52118 0.3332 0.0
H617 H 0.08809 0.52425 0.37445 0.0
loop_
_geom_bond_atom_site_label_1
_geom_bond_atom_site_label_2
_geom_bond_distance
_geom_bond_site_symmetry_2
_ccdc_geom_bond_type
Gd0 C3 2.818 . S
Gd0 O20 2.377 . S
Gd0 O22 2.448 . S
Gd0 O23 2.506 . S
Gd0 O24 2.435 . S
Gd0 O25 2.717 . S
Gd0 O27 2.395 1_455 S
Gd0 O31 2.327 . S
Gd1 C12 2.818 1_455 S
Gd1 O21 2.395 . S
Gd1 O25 2.327 . S
Gd1 O26 2.377 1_455 S
Gd1 O28 2.448 1_455 S
Gd1 O29 2.506 1_455 S
Gd1 O30 2.435 . S
Gd1 O31 2.717 . S
C2 O20 1.240 . S
C2 O21 1.240 . S
C3 Gd0 2.818 . S
C3 C4 1.510 . S
C3 O22 1.249 . S
C3 O23 1.252 . S
C4 C3 1.510 . S
C4 C5 1.404 . S
C4 C6 1.352 . S
C5 C4 1.404 . S
C5 C9 1.389 . S
C5 H32 0.930 . S
C6 C4 1.352 . S
C6 C8 1.374 . S
C6 H33 0.931 . S
C7 C8 1.359 . S
C7 C9 1.364 . S
C8 C6 1.374 . S
C8 C7 1.359 . S
C8 H34 0.931 . S
C9 C5 1.389 . S
C9 C7 1.364 . S
C9 H35 0.931 . S
C10 O24 1.256 . S
C10 O25 1.257 . S
C11 O26 1.240 . S
C11 O27 1.240 . S
C12 Gd1 2.818 1_655 S
C12 C13 1.510 . S
C12 O28 1.249 . S
C12 O29 1.252 . S
C13 C12 1.510 . S
C13 C14 1.404 . S
C13 C15 1.352 . S
C14 C13 1.404 . S
C14 C18 1.389 . S
C14 H36 0.930 . S
C15 C13 1.352 . S
C15 C17 1.374 . S
C15 H37 0.931 . S
C16 C17 1.359 . S
C16 C18 1.364 . S
C17 C15 1.374 . S
C17 C16 1.359 . S
C17 H38 0.931 . S
C18 C14 1.389 . S
C18 C16 1.364 . S
C18 H39 0.931 . S
C19 O30 1.256 . S
C19 O31 1.257 . S
O20 Gd0 2.377 . S
O20 C2 1.240 . S
O21 Gd1 2.395 . S
O21 C2 1.240 . S
O22 Gd0 2.448 . S
O22 C3 1.249 . S
O23 Gd0 2.506 . S
O23 C3 1.252 . S
O24 Gd0 2.435 . S
O24 C10 1.256 . S
O25 Gd0 2.717 . S
O25 Gd1 2.327 . S
O25 C10 1.257 . S
O26 Gd1 2.377 1_655 S
O26 C11 1.240 . S
O27 Gd0 2.395 1_655 S
O27 C11 1.240 . S
O28 Gd1 2.448 1_655 S
O28 C12 1.249 . S
O29 Gd1 2.506 1_655 S
O29 C12 1.252 . S
O30 Gd1 2.435 . S
O30 C19 1.256 . S
O31 Gd0 2.327 . S
O31 Gd1 2.717 . S
O31 C19 1.257 . S
H32 C5 0.930 . S
H33 C6 0.931 . S
H34 C8 0.931 . S
H35 C9 0.931 . S
H36 C14 0.930 . S
H37 C15 0.931 . S
H38 C17 0.931 . S
H39 C18 0.931 . S
Gd40 C43 2.818 . S
Gd40 O60 2.377 . S
Gd40 O62 2.448 . S
Gd40 O63 2.506 . S
Gd40 O64 2.435 . S
Gd40 O65 2.717 1_565 S
Gd40 O67 2.395 1_565 S
Gd40 O71 2.327 1_565 S
Gd41 C52 2.818 . S
Gd41 O61 2.395 1_545 S
Gd41 O65 2.327 . S
Gd41 O66 2.377 . S
Gd41 O68 2.448 . S
Gd41 O69 2.506 . S
Gd41 O70 2.435 . S
Gd41 O71 2.717 . S
C42 O60 1.240 . S
C42 O61 1.240 . S
C43 Gd40 2.818 . S
C43 C44 1.510 . S
C43 O62 1.249 . S
C43 O63 1.252 . S
C44 C43 1.510 . S
C44 C45 1.404 . S
C44 C46 1.352 . S
C45 C44 1.404 . S
C45 C49 1.389 . S
C45 H72 0.930 . S
C46 C44 1.352 . S
C46 C48 1.374 . S
C46 H73 0.931 . S
C47 C48 1.359 . S
C47 C49 1.364 . S
C48 C46 1.374 . S
C48 C47 1.359 . S
C48 H74 0.931 . S
C49 C45 1.389 . S
C49 C47 1.364 . S
C49 H75 0.931 . S
C50 O64 1.256 1_545 S
C50 O65 1.257 . S
C51 O66 1.240 . S
C51 O67 1.240 . S
C52 Gd41 2.818 . S
C52 C53 1.510 . S
C52 O68 1.249 . S
C52 O69 1.252 . S
C53 C52 1.510 . S
C53 C54 1.404 . S
C53 C55 1.352 . S
C54 C53 1.404 . S
C54 C58 1.389 . S
C54 H76 0.930 . S
C55 C53 1.352 . S
C55 C57 1.374 . S
C55 H77 0.931 . S
C56 C57 1.359 . S
C56 C58 1.364 . S
C57 C55 1.374 . S
C57 C56 1.359 . S
C57 H78 0.931 . S
C58 C54 1.389 . S
C58 C56 1.364 . S
C58 H79 0.931 . S
C59 O70 1.256 . S
C59 O71 1.257 . S
O60 Gd40 2.377 . S
O60 C42 1.240 . S
O61 Gd41 2.395 1_565 S
O61 C42 1.240 . S
O62 Gd40 2.448 . S
O62 C43 1.249 . S
O63 Gd40 2.506 . S
O63 C43 1.252 . S
O64 Gd40 2.435 . S
O64 C50 1.256 1_565 S
O65 Gd40 2.717 1_545 S
O65 Gd41 2.327 . S
O65 C50 1.257 . S
O66 Gd41 2.377 . S
O66 C51 1.240 . S
O67 Gd40 2.395 1_545 S
O67 C51 1.240 . S
O68 Gd41 2.448 . S
O68 C52 1.249 . S
O69 Gd41 2.506 . S
O69 C52 1.252 . S
O70 Gd41 2.435 . S
O70 C59 1.256 . S
O71 Gd40 2.327 1_545 S
O71 Gd41 2.717 . S
O71 C59 1.257 . S
H72 C45 0.930 . S
H73 C46 0.931 . S
H74 C48 0.931 . S
H75 C49 0.931 . S
H76 C54 0.930 . S
H77 C55 0.931 . S
H78 C57 0.931 . S
H79 C58 0.931 . S
Gd80 C83 2.818 . S
Gd80 O100 2.377 . S
Gd80 O102 2.448 . S
Gd80 O103 2.506 . S
Gd80 O104 2.435 . S
Gd80 O105 2.717 . S
Gd80 O107 2.395 . S
Gd80 O111 2.327 . S
Gd81 C92 2.818 . S
Gd81 O101 2.395 . S
Gd81 O105 2.327 . S
Gd81 O106 2.377 . S
Gd81 O108 2.448 . S
Gd81 O109 2.506 . S
Gd81 O110 2.435 . S
Gd81 O111 2.717 . S
C82 O100 1.240 . S
C82 O101 1.240 . S
C83 Gd80 2.818 . S
C83 C84 1.510 . S
C83 O102 1.249 . S
C83 O103 1.252 . S
C84 C83 1.510 . S
C84 C85 1.404 . S
C84 C86 1.352 . S
C85 C84 1.404 . S
C85 C89 1.389 . S
C85 H112 0.930 . S
C86 C84 1.352 . S
C86 C88 1.374 . S
C86 H113 0.931 . S
C87 C88 1.359 . S
C87 C89 1.364 . S
C88 C86 1.374 . S
C88 C87 1.359 . S
C88 H114 0.931 . S
C89 C85 1.389 . S
C89 C87 1.364 . S
C89 H115 0.931 . S
C90 O104 1.256 . S
C90 O105 1.257 . S
C91 O106 1.240 . S
C91 O107 1.240 . S
C92 Gd81 2.818 . S
C92 C93 1.510 . S
C92 O108 1.249 . S
C92 O109 1.252 . S
C93 C92 1.510 . S
C93 C94 1.404 . S
C93 C95 1.352 . S
C94 C93 1.404 . S
C94 C98 1.389 . S
C94 H116 0.930 . S
C95 C93 1.352 . S
C95 C97 1.374 . S
C95 H117 0.931 . S
C96 C97 1.359 . S
C96 C98 1.364 . S
C97 C95 1.374 . S
C97 C96 1.359 . S
C97 H118 0.931 . S
C98 C94 1.389 . S
C98 C96 1.364 . S
C98 H119 0.931 . S
C99 O110 1.256 . S
C99 O111 1.257 . S
O100 Gd80 2.377 . S
O100 C82 1.240 . S
O101 Gd81 2.395 . S
O101 C82 1.240 . S
O102 Gd80 2.448 . S
O102 C83 1.249 . S
O103 Gd80 2.506 . S
O103 C83 1.252 . S
O104 Gd80 2.435 . S
O104 C90 1.256 . S
O105 Gd80 2.717 . S
O105 Gd81 2.327 . S
O105 C90 1.257 . S
O106 Gd81 2.377 . S
O106 C91 1.240 . S
O107 Gd80 2.395 . S
O107 C91 1.240 . S
O108 Gd81 2.448 . S
O108 C92 1.249 . S
O109 Gd81 2.506 . S
O109 C92 1.252 . S
O110 Gd81 2.435 . S
O110 C99 1.256 . S
O111 Gd80 2.327 . S
O111 Gd81 2.717 . S
O111 C99 1.257 . S
H112 C85 0.930 . S
H113 C86 0.931 . S
H114 C88 0.931 . S
H115 C89 0.931 . S
H116 C94 0.930 . S
H117 C95 0.931 . S
H118 C97 0.931 . S
H119 C98 0.931 . S
O120 Cd121 2.300 . S
O120 C127 1.275 . S
Cd121 O120 2.300 . S
Cd121 O129 2.381 . S
Cd121 O130 2.378 . S
O122 Cd123 2.385 . S
O122 C127 1.255 1_565 S
Cd123 O122 2.385 . S
Cd123 O124 2.317 . S
O124 Cd123 2.317 . S
O124 C125 1.232 . S
C125 O124 1.232 . S
C125 O126 1.218 . S
O126 C125 1.218 . S
C127 O120 1.275 . S
C127 O122 1.255 1_545 S
C128 O129 1.258 . S
C128 O130 1.256 . S
O129 Cd121 2.381 . S
O129 C128 1.258 . S
O130 Cd121 2.378 . S
O130 C128 1.256 . S
O131 Cd132 2.300 . S
O131 C138 1.275 . S
Cd132 O131 2.300 . S
Cd132 O140 2.381 . S
Cd132 O141 2.378 . S
O133 Cd134 2.385 . S
O133 C138 1.255 . S
Cd134 O133 2.385 . S
Cd134 O135 2.317 . S
O135 Cd134 2.317 . S
O135 C136 1.232 . S
C136 O135 1.232 . S
C136 O137 1.218 . S
O137 C136 1.218 . S
C138 O131 1.275 . S
C138 O133 1.255 . S
C139 O140 1.258 . S
C139 O141 1.256 . S
O140 Cd132 2.381 . S
O140 C139 1.258 . S
O141 Cd132 2.378 . S
O141 C139 1.256 . S
O142 Cd143 2.300 . S
O142 C149 1.275 . S
Cd143 O142 2.300 . S
Cd143 O151 2.381 . S
Cd143 O152 2.378 . S
O144 Cd145 2.385 1_455 S
O144 C149 1.255 . S
Cd145 O144 2.385 1_655 S
Cd145 O146 2.317 . S
O146 Cd145 2.317 . S
O146 C147 1.232 . S
C147 O146 1.232 . S
C147 O148 1.218 . S
O148 C147 1.218 . S
C149 O142 1.275 . S
C149 O144 1.255 . S
C150 O151 1.258 . S
C150 O152 1.256 . S
O151 Cd143 2.381 . S
O151 C150 1.258 . S
O152 Cd143 2.378 . S
O152 C150 1.256 . S
O153 Cd154 2.300 . S
O153 C160 1.275 1_455 S
Cd154 O153 2.300 . S
Cd154 O162 2.381 . S
Cd154 O163 2.378 . S
O155 Cd156 2.385 . S
O155 C160 1.255 . S
Cd156 O155 2.385 . S
Cd156 O157 2.317 . S
O157 Cd156 2.317 . S
O157 C158 1.232 . S
C158 O157 1.232 . S
C158 O159 1.218 . S
O159 C158 1.218 . S
C160 O153 1.275 1_655 S
C160 O155 1.255 . S
C161 O162 1.258 . S
C161 O163 1.256 . S
O162 Cd154 2.381 . S
O162 C161 1.258 . S
O163 Cd154 2.378 . S
O163 C161 1.256 . S
O164 Cd165 2.300 . S
O164 C171 1.275 1_565 S
Cd165 O164 2.300 . S
Cd165 O173 2.381 . S
Cd165 O174 2.378 . S
O166 Cd167 2.385 . S
O166 C171 1.255 . S
Cd167 O166 2.385 . S
Cd167 O168 2.317 . S
O168 Cd167 2.317 . S
O168 C169 1.232 . S
C169 O168 1.232 . S
C169 O170 1.218 . S
O170 C169 1.218 . S
C171 O164 1.275 1_545 S
C171 O166 1.255 . S
C172 O173 1.258 . S
C172 O174 1.256 . S
O173 Cd165 2.381 . S
O173 C172 1.258 . S
O174 Cd165 2.378 . S
O174 C172 1.256 . S
O175 Cd176 2.300 . S
O175 C182 1.275 . S
Cd176 O175 2.300 . S
Cd176 O184 2.381 . S
Cd176 O185 2.378 . S
O177 Cd178 2.385 . S
O177 C182 1.255 . S
Cd178 O177 2.385 . S
Cd178 O179 2.317 . S
O179 Cd178 2.317 . S
O179 C180 1.232 . S
C180 O179 1.232 . S
C180 O181 1.218 . S
O181 C180 1.218 . S
C182 O175 1.275 . S
C182 O177 1.255 . S
C183 O184 1.258 . S
C183 O185 1.256 . S
O184 Cd176 2.381 . S
O184 C183 1.258 . S
O185 Cd176 2.378 . S
O185 C183 1.256 . S
C186 C187 1.386 . S
C186 C188 1.383 . S
C186 H202 0.951 . S
C187 C186 1.386 . S
C187 C191 1.383 . S
C188 C186 1.383 . S
C188 C189 1.402 . S
C188 H203 0.951 . S
C189 C188 1.402 . S
C189 C190 1.375 . S
C189 C192 1.481 . S
C190 C189 1.375 . S
C190 C191 1.367 . S
C190 H204 0.951 . S
C191 C187 1.383 . S
C191 C190 1.367 . S
C191 H205 0.950 . S
C192 C189 1.481 . S
C192 C193 1.297 . S
C192 H206 0.950 . S
C193 C192 1.297 . S
C193 C194 1.479 . S
C193 H207 0.950 . S
C194 C193 1.479 . S
C194 C195 1.375 . S
C194 C200 1.404 . S
C195 C194 1.375 . S
C195 C196 1.369 . S
C195 H208 0.950 . S
C196 C195 1.369 . S
C196 C197 1.392 . S
C196 H209 0.951 . S
C197 C196 1.392 . S
C197 C199 1.384 . S
H198 C200 0.949 . S
C199 C197 1.384 . S
C199 C200 1.385 . S
C199 H201 0.950 . S
C200 C194 1.404 . S
C200 H198 0.949 . S
C200 C199 1.385 . S
H201 C199 0.950 . S
H202 C186 0.951 . S
H203 C188 0.951 . S
H204 C190 0.951 . S
H205 C191 0.950 . S
H206 C192 0.950 . S
H207 C193 0.950 . S
H208 C195 0.950 . S
H209 C196 0.951 . S
C210 C211 1.386 . S
C210 C212 1.383 . S
C210 H226 0.951 . S
C211 C210 1.386 . S
C211 C215 1.383 . S
C212 C210 1.383 . S
C212 C213 1.402 . S
C212 H227 0.951 . S
C213 C212 1.402 . S
C213 C214 1.375 . S
C213 C216 1.481 . S
C214 C213 1.375 . S
C214 C215 1.367 . S
C214 H228 0.951 . S
C215 C211 1.383 . S
C215 C214 1.367 . S
C215 H229 0.950 . S
C216 C213 1.481 . S
C216 C217 1.297 . S
C216 H230 0.950 . S
C217 C216 1.297 . S
C217 C218 1.479 . S
C217 H231 0.950 . S
C218 C217 1.479 . S
C218 C219 1.375 . S
C218 C224 1.404 . S
C219 C218 1.375 . S
C219 C220 1.369 . S
C219 H232 0.950 . S
C220 C219 1.369 . S
C220 C221 1.392 . S
C220 H233 0.951 . S
C221 C220 1.392 . S
C221 C223 1.384 . S
H222 C224 0.949 . S
C223 C221 1.384 . S
C223 C224 1.385 . S
C223 H225 0.950 . S
C224 C218 1.404 . S
C224 H222 0.949 . S
C224 C223 1.385 . S
H225 C223 0.950 . S
H226 C210 0.951 . S
H227 C212 0.951 . S
H228 C214 0.951 . S
H229 C215 0.950 . S
H230 C216 0.950 . S
H231 C217 0.950 . S
H232 C219 0.950 . S
H233 C220 0.951 . S
C234 C235 1.386 . S
C234 C236 1.383 . S
C234 H250 0.951 . S
C235 C234 1.386 . S
C235 C239 1.383 . S
C236 C234 1.383 . S
C236 C237 1.402 . S
C236 H251 0.951 . S
C237 C236 1.402 . S
C237 C238 1.375 . S
C237 C240 1.481 . S
C238 C237 1.375 . S
C238 C239 1.367 . S
C238 H252 0.951 . S
C239 C235 1.383 . S
C239 C238 1.367 . S
C239 H253 0.950 . S
C240 C237 1.481 . S
C240 C241 1.297 . S
C240 H254 0.950 . S
C241 C240 1.297 . S
C241 C242 1.479 . S
C241 H255 0.950 . S
C242 C241 1.479 . S
C242 C243 1.375 . S
C242 C248 1.404 . S
C243 C242 1.375 . S
C243 C244 1.369 . S
C243 H256 0.950 . S
C244 C243 1.369 . S
C244 C245 1.392 . S
C244 H257 0.951 . S
C245 C244 1.392 . S
C245 C247 1.384 . S
H246 C248 0.949 . S
C247 C245 1.384 . S
C247 C248 1.385 . S
C247 H249 0.950 . S
C248 C242 1.404 . S
C248 H246 0.949 . S
C248 C247 1.385 . S
H249 C247 0.950 . S
H250 C234 0.951 . S
H251 C236 0.951 . S
H252 C238 0.951 . S
H253 C239 0.950 . S
H254 C240 0.950 . S
H255 C241 0.950 . S
H256 C243 0.950 . S
H257 C244 0.951 . S
C258 C259 1.386 . S
C258 C260 1.383 . S
C258 H274 0.951 . S
C259 C258 1.386 . S
C259 C263 1.383 . S
C260 C258 1.383 . S
C260 C261 1.402 . S
C260 H275 0.951 . S
C261 C260 1.402 . S
C261 C262 1.375 . S
C261 C264 1.481 . S
C262 C261 1.375 . S
C262 C263 1.367 . S
C262 H276 0.951 . S
C263 C259 1.383 . S
C263 C262 1.367 . S
C263 H277 0.950 . S
C264 C261 1.481 . S
C264 C265 1.297 . S
C264 H278 0.950 . S
C265 C264 1.297 . S
C265 C266 1.479 . S
C265 H279 0.950 . S
C266 C265 1.479 . S
C266 C267 1.375 . S
C266 C272 1.404 . S
C267 C266 1.375 . S
C267 C268 1.369 . S
C267 H280 0.950 . S
C268 C267 1.369 . S
C268 C269 1.392 . S
C268 H281 0.951 . S
C269 C268 1.392 . S
C269 C271 1.384 . S
H270 C272 0.949 . S
C271 C269 1.384 . S
C271 C272 1.385 . S
C271 H273 0.950 . S
C272 C266 1.404 . S
C272 H270 0.949 . S
C272 C271 1.385 . S
H273 C271 0.950 . S
H274 C258 0.951 . S
H275 C260 0.951 . S
H276 C262 0.951 . S
H277 C263 0.950 . S
H278 C264 0.950 . S
H279 C265 0.950 . S
H280 C267 0.950 . S
H281 C268 0.951 . S
C282 C283 1.386 . S
C282 C284 1.383 . S
C282 H298 0.951 . S
C283 C282 1.386 . S
C283 C287 1.383 . S
C284 C282 1.383 . S
C284 C285 1.402 . S
C284 H299 0.951 . S
C285 C284 1.402 . S
C285 C286 1.375 . S
C285 C288 1.481 . S
C286 C285 1.375 . S
C286 C287 1.367 . S
C286 H300 0.951 . S
C287 C283 1.383 . S
C287 C286 1.367 . S
C287 H301 0.950 . S
C288 C285 1.481 . S
C288 C289 1.297 . S
C288 H302 0.950 . S
C289 C288 1.297 . S
C289 C290 1.479 . S
C289 H303 0.950 . S
C290 C289 1.479 . S
C290 C291 1.375 . S
C290 C296 1.404 . S
C291 C290 1.375 . S
C291 C292 1.369 . S
C291 H304 0.950 . S
C292 C291 1.369 . S
C292 C293 1.392 . S
C292 H305 0.951 . S
C293 C292 1.392 . S
C293 C295 1.384 . S
H294 C296 0.949 . S
C295 C293 1.384 . S
C295 C296 1.385 . S
C295 H297 0.950 . S
C296 C290 1.404 . S
C296 H294 0.949 . S
C296 C295 1.385 . S
H297 C295 0.950 . S
H298 C282 0.951 . S
H299 C284 0.951 . S
H300 C286 0.951 . S
H301 C287 0.950 . S
H302 C288 0.950 . S
H303 C289 0.950 . S
H304 C291 0.950 . S
H305 C292 0.951 . S
C306 C307 1.386 . S
C306 C308 1.383 . S
C306 H322 0.951 . S
C307 C306 1.386 . S
C307 C311 1.383 . S
C308 C306 1.383 . S
C308 C309 1.402 . S
C308 H323 0.951 . S
C309 C308 1.402 . S
C309 C310 1.375 . S
C309 C312 1.481 . S
C310 C309 1.375 . S
C310 C311 1.367 . S
C310 H324 0.951 . S
C311 C307 1.383 . S
C311 C310 1.367 . S
C311 H325 0.950 . S
C312 C309 1.481 . S
C312 C313 1.297 . S
C312 H326 0.950 . S
C313 C312 1.297 . S
C313 C314 1.479 . S
C313 H327 0.950 . S
C314 C313 1.479 . S
C314 C315 1.375 . S
C314 C320 1.404 . S
C315 C314 1.375 . S
C315 C316 1.369 . S
C315 H328 0.950 . S
C316 C315 1.369 . S
C316 C317 1.392 . S
C316 H329 0.951 . S
C317 C316 1.392 . S
C317 C319 1.384 . S
H318 C320 0.949 . S
C319 C317 1.384 . S
C319 C320 1.385 . S
C319 H321 0.950 . S
C320 C314 1.404 . S
C320 H318 0.949 . S
C320 C319 1.385 . S
H321 C319 0.950 . S
H322 C306 0.951 . S
H323 C308 0.951 . S
H324 C310 0.951 . S
H325 C311 0.950 . S
H326 C312 0.950 . S
H327 C313 0.950 . S
H328 C315 0.950 . S
H329 C316 0.951 . S
C330 C331 1.386 . S
C330 C332 1.383 . S
C330 H346 0.951 . S
C331 C330 1.386 . S
C331 C335 1.383 . S
C332 C330 1.383 . S
C332 C333 1.402 . S
C332 H347 0.951 . S
C333 C332 1.402 . S
C333 C334 1.375 . S
C333 C336 1.481 . S
C334 C333 1.375 . S
C334 C335 1.367 . S
C334 H348 0.951 . S
C335 C331 1.383 . S
C335 C334 1.367 . S
C335 H349 0.950 . S
C336 C333 1.481 . S
C336 C337 1.297 . S
C336 H350 0.950 . S
C337 C336 1.297 . S
C337 C338 1.479 . S
C337 H351 0.950 . S
C338 C337 1.479 . S
C338 C339 1.375 . S
C338 C344 1.404 . S
C339 C338 1.375 . S
C339 C340 1.369 . S
C339 H352 0.950 . S
C340 C339 1.369 . S
C340 C341 1.392 . S
C340 H353 0.951 . S
C341 C340 1.392 . S
C341 C343 1.384 . S
H342 C344 0.949 . S
C343 C341 1.384 . S
C343 C344 1.385 . S
C343 H345 0.950 . S
C344 C338 1.404 . S
C344 H342 0.949 . S
C344 C343 1.385 . S
H345 C343 0.950 . S
H346 C330 0.951 . S
H347 C332 0.951 . S
H348 C334 0.951 . S
H349 C335 0.950 . S
H350 C336 0.950 . S
H351 C337 0.950 . S
H352 C339 0.950 . S
H353 C340 0.951 . S
C354 C355 1.386 . S
C354 C356 1.383 . S
C354 H370 0.951 . S
C355 C354 1.386 . S
C355 C359 1.383 . S
C356 C354 1.383 . S
C356 C357 1.402 . S
C356 H371 0.951 . S
C357 C356 1.402 . S
C357 C358 1.375 . S
C357 C360 1.481 . S
C358 C357 1.375 . S
C358 C359 1.367 . S
C358 H372 0.951 . S
C359 C355 1.383 . S
C359 C358 1.367 . S
C359 H373 0.950 . S
C360 C357 1.481 . S
C360 C361 1.297 . S
C360 H374 0.950 . S
C361 C360 1.297 . S
C361 C362 1.479 . S
C361 H375 0.950 . S
C362 C361 1.479 . S
C362 C363 1.375 . S
C362 C368 1.404 . S
C363 C362 1.375 . S
C363 C364 1.369 . S
C363 H376 0.950 . S
C364 C363 1.369 . S
C364 C365 1.392 . S
C364 H377 0.951 . S
C365 C364 1.392 . S
C365 C367 1.384 . S
H366 C368 0.949 . S
C367 C365 1.384 . S
C367 C368 1.385 . S
C367 H369 0.950 . S
C368 C362 1.404 . S
C368 H366 0.949 . S
C368 C367 1.385 . S
H369 C367 0.950 . S
H370 C354 0.951 . S
H371 C356 0.951 . S
H372 C358 0.951 . S
H373 C359 0.950 . S
H374 C360 0.950 . S
H375 C361 0.950 . S
H376 C363 0.950 . S
H377 C364 0.951 . S
C378 C379 1.386 . S
C378 C380 1.383 . S
C378 H394 0.951 . S
C379 C378 1.386 . S
C379 C383 1.383 . S
C380 C378 1.383 . S
C380 C381 1.402 . S
C380 H395 0.951 . S
C381 C380 1.402 . S
C381 C382 1.375 . S
C381 C384 1.481 . S
C382 C381 1.375 . S
C382 C383 1.367 . S
C382 H396 0.951 . S
C383 C379 1.383 . S
C383 C382 1.367 . S
C383 H397 0.950 . S
C384 C381 1.481 . S
C384 C385 1.297 . S
C384 H398 0.950 . S
C385 C384 1.297 . S
C385 C386 1.479 . S
C385 H399 0.950 . S
C386 C385 1.479 . S
C386 C387 1.375 . S
C386 C392 1.404 . S
C387 C386 1.375 . S
C387 C388 1.369 . S
C387 H400 0.950 . S
C388 C387 1.369 . S
C388 C389 1.392 . S
C388 H401 0.951 . S
C389 C388 1.392 . S
C389 C391 1.384 . S
H390 C392 0.949 . S
C391 C389 1.384 . S
C391 C392 1.385 . S
C391 H393 0.950 . S
C392 C386 1.404 . S
C392 H390 0.949 . S
C392 C391 1.385 . S
H393 C391 0.950 . S
H394 C378 0.951 . S
H395 C380 0.951 . S
H396 C382 0.951 . S
H397 C383 0.950 . S
H398 C384 0.950 . S
H399 C385 0.950 . S
H400 C387 0.950 . S
H401 C388 0.951 . S
C402 C403 1.386 . S
C402 C404 1.383 . S
C402 H418 0.951 . S
C403 C402 1.386 . S
C403 C407 1.383 . S
C404 C402 1.383 . S
C404 C405 1.402 . S
C404 H419 0.951 . S
C405 C404 1.402 . S
C405 C406 1.375 . S
C405 C408 1.481 . S
C406 C405 1.375 . S
C406 C407 1.367 . S
C406 H420 0.951 . S
C407 C403 1.383 . S
C407 C406 1.367 . S
C407 H421 0.950 . S
C408 C405 1.481 . S
C408 C409 1.297 . S
C408 H422 0.950 . S
C409 C408 1.297 . S
C409 C410 1.479 . S
C409 H423 0.950 . S
C410 C409 1.479 . S
C410 C411 1.375 . S
C410 C416 1.404 . S
C411 C410 1.375 . S
C411 C412 1.369 . S
C411 H424 0.950 . S
C412 C411 1.369 . S
C412 C413 1.392 . S
C412 H425 0.951 . S
C413 C412 1.392 . S
C413 C415 1.384 . S
H414 C416 0.949 . S
C415 C413 1.384 . S
C415 C416 1.385 . S
C415 H417 0.950 . S
C416 C410 1.404 . S
C416 H414 0.949 . S
C416 C415 1.385 . S
H417 C415 0.950 . S
H418 C402 0.951 . S
H419 C404 0.951 . S
H420 C406 0.951 . S
H421 C407 0.950 . S
H422 C408 0.950 . S
H423 C409 0.950 . S
H424 C411 0.950 . S
H425 C412 0.951 . S
C426 C427 1.386 . S
C426 C428 1.383 . S
C426 H442 0.951 . S
C427 C426 1.386 . S
C427 C431 1.383 . S
C428 C426 1.383 . S
C428 C429 1.402 . S
C428 H443 0.951 . S
C429 C428 1.402 . S
C429 C430 1.375 . S
C429 C432 1.481 . S
C430 C429 1.375 . S
C430 C431 1.367 . S
C430 H444 0.951 . S
C431 C427 1.383 . S
C431 C430 1.367 . S
C431 H445 0.950 . S
C432 C429 1.481 . S
C432 C433 1.297 . S
C432 H446 0.950 . S
C433 C432 1.297 . S
C433 C434 1.479 . S
C433 H447 0.950 . S
C434 C433 1.479 . S
C434 C435 1.375 . S
C434 C440 1.404 . S
C435 C434 1.375 . S
C435 C436 1.369 . S
C435 H448 0.950 . S
C436 C435 1.369 . S
C436 C437 1.392 . S
C436 H449 0.951 . S
C437 C436 1.392 . S
C437 C439 1.384 . S
H438 C440 0.949 . S
C439 C437 1.384 . S
C439 C440 1.385 . S
C439 H441 0.950 . S
C440 C434 1.404 . S
C440 H438 0.949 . S
C440 C439 1.385 . S
H441 C439 0.950 . S
H442 C426 0.951 . S
H443 C428 0.951 . S
H444 C430 0.951 . S
H445 C431 0.950 . S
H446 C432 0.950 . S
H447 C433 0.950 . S
H448 C435 0.950 . S
H449 C436 0.951 . S
C450 C451 1.386 . S
C450 C452 1.383 . S
C450 H466 0.951 . S
C451 C450 1.386 . S
C451 C455 1.383 . S
C452 C450 1.383 . S
C452 C453 1.402 . S
C452 H467 0.951 . S
C453 C452 1.402 . S
C453 C454 1.375 . S
C453 C456 1.481 . S
C454 C453 1.375 . S
C454 C455 1.367 . S
C454 H468 0.951 . S
C455 C451 1.383 . S
C455 C454 1.367 . S
C455 H469 0.950 . S
C456 C453 1.481 . S
C456 C457 1.297 . S
C456 H470 0.950 . S
C457 C456 1.297 . S
C457 C458 1.479 . S
C457 H471 0.950 . S
C458 C457 1.479 . S
C458 C459 1.375 . S
C458 C464 1.404 . S
C459 C458 1.375 . S
C459 C460 1.369 . S
C459 H472 0.950 . S
C460 C459 1.369 . S
C460 C461 1.392 . S
C460 H473 0.951 . S
C461 C460 1.392 . S
C461 C463 1.384 . S
H462 C464 0.949 . S
C463 C461 1.384 . S
C463 C464 1.385 . S
C463 H465 0.950 . S
C464 C458 1.404 . S
C464 H462 0.949 . S
C464 C463 1.385 . S
H465 C463 0.950 . S
H466 C450 0.951 . S
H467 C452 0.951 . S
H468 C454 0.951 . S
H469 C455 0.950 . S
H470 C456 0.950 . S
H471 C457 0.950 . S
H472 C459 0.950 . S
H473 C460 0.951 . S
C474 C475 1.386 . S
C474 C476 1.383 . S
C474 H490 0.951 . S
C475 C474 1.386 . S
C475 C479 1.383 1_455 S
C476 C474 1.383 . S
C476 C477 1.402 . S
C476 H491 0.951 . S
C477 C476 1.402 . S
C477 C478 1.375 1_455 S
C477 C480 1.481 . S
C478 C477 1.375 1_655 S
C478 C479 1.367 . S
C478 H492 0.951 . S
C479 C475 1.383 1_655 S
C479 C478 1.367 . S
C479 H493 0.950 . S
C480 C477 1.481 . S
C480 C481 1.297 . S
C480 H494 0.950 1_455 S
C481 C480 1.297 . S
C481 C482 1.479 1_554 S
C481 H495 0.950 . S
C482 C481 1.479 1_556 S
C482 C483 1.375 . S
C482 C488 1.404 . S
C483 C482 1.375 . S
C483 C484 1.369 . S
C483 H496 0.950 . S
C484 C483 1.369 . S
C484 C485 1.392 . S
C484 H497 0.951 . S
C485 C484 1.392 . S
C485 C487 1.384 . S
H486 C488 0.949 1_655 S
C487 C485 1.384 . S
C487 C488 1.385 . S
C487 H489 0.950 1_455 S
C488 C482 1.404 . S
C488 H486 0.949 1_455 S
C488 C487 1.385 . S
H489 C487 0.950 1_655 S
H490 C474 0.951 . S
H491 C476 0.951 . S
H492 C478 0.951 . S
H493 C479 0.950 . S
H494 C480 0.950 1_655 S
H495 C481 0.950 . S
H496 C483 0.950 . S
H497 C484 0.951 . S
C498 C499 1.386 1_565 S
C498 C500 1.383 . S
C498 H514 0.951 . S
C499 C498 1.386 1_545 S
C499 C503 1.383 . S
C500 C498 1.383 . S
C500 C501 1.402 1_565 S
C500 H515 0.951 . S
C501 C500 1.402 1_545 S
C501 C502 1.375 . S
C501 C504 1.481 . S
C502 C501 1.375 . S
C502 C503 1.367 . S
C502 H516 0.951 . S
C503 C499 1.383 . S
C503 C502 1.367 . S
C503 H517 0.950 . S
C504 C501 1.481 . S
C504 C505 1.289 1_545 S
C504 H518 0.950 . S
C505 C504 1.289 1_565 S
C505 C506 1.478 1_565 S
C505 H519 0.962 . S
C506 C505 1.478 1_545 S
C506 C507 1.375 1_545 S
C506 C512 1.404 . S
C507 C506 1.375 1_565 S
C507 C508 1.369 . S
C507 H520 0.950 . S
C508 C507 1.369 . S
C508 C509 1.392 1_565 S
C508 H521 0.951 . S
C509 C508 1.392 1_545 S
C509 C511 1.384 . S
H510 C512 0.949 . S
C511 C509 1.384 . S
C511 C512 1.385 . S
C511 H513 0.950 . S
C512 C506 1.404 . S
C512 H510 0.949 . S
C512 C511 1.385 . S
H513 C511 0.950 . S
H514 C498 0.951 . S
H515 C500 0.951 . S
H516 C502 0.951 . S
H517 C503 0.950 . S
H518 C504 0.950 . S
H519 C505 0.962 . S
H520 C507 0.950 . S
H521 C508 0.951 . S
C522 C523 1.386 . S
C522 C524 1.383 . S
C522 H538 0.951 . S
C523 C522 1.386 . S
C523 C527 1.383 . S
C524 C522 1.383 . S
C524 C525 1.402 . S
C524 H539 0.951 . S
C525 C524 1.402 . S
C525 C526 1.375 . S
C525 C528 1.481 . S
C526 C525 1.375 . S
C526 C527 1.367 . S
C526 H540 0.951 . S
C527 C523 1.383 . S
C527 C526 1.367 . S
C527 H541 0.950 . S
C528 C525 1.481 . S
C528 C529 1.297 . S
C528 H542 0.950 . S
C529 C528 1.297 . S
C529 C530 1.479 . S
C529 H543 0.950 . S
C530 C529 1.479 . S
C530 C531 1.375 . S
C530 C536 1.404 . S
C531 C530 1.375 . S
C531 C532 1.369 . S
C531 H544 0.950 . S
C532 C531 1.369 . S
C532 C533 1.392 . S
C532 H545 0.951 . S
C533 C532 1.392 . S
C533 C535 1.384 . S
H534 C536 0.949 . S
C535 C533 1.384 . S
C535 C536 1.385 . S
C535 H537 0.950 . S
C536 C530 1.404 . S
C536 H534 0.949 . S
C536 C535 1.385 . S
H537 C535 0.950 . S
H538 C522 0.951 . S
H539 C524 0.951 . S
H540 C526 0.951 . S
H541 C527 0.950 . S
H542 C528 0.950 . S
H543 C529 0.950 . S
H544 C531 0.950 . S
H545 C532 0.951 . S
C546 C547 1.386 . S
C546 C548 1.383 . S
C546 H562 0.951 . S
C547 C546 1.386 . S
C547 C551 1.383 1_545 S
C548 C546 1.383 . S
C548 C549 1.402 1_545 S
C548 H563 0.951 . S
C549 C548 1.402 1_565 S
C549 C550 1.375 . S
C549 C552 1.481 . S
C550 C549 1.375 . S
C550 C551 1.367 . S
C550 H564 0.951 . S
C551 C547 1.383 1_565 S
C551 C550 1.367 . S
C551 H565 0.950 . S
C552 C549 1.481 . S
C552 C553 1.297 . S
C552 H566 0.950 . S
C553 C552 1.297 . S
C553 C554 1.479 . S
C553 H567 0.950 1_565 S
C554 C553 1.479 . S
C554 C555 1.375 1_565 S
C554 C560 1.404 . S
C555 C554 1.375 1_545 S
C555 C556 1.369 . S
C555 H568 0.950 . S
C556 C555 1.369 . S
C556 C557 1.392 . S
C556 H569 0.951 . S
C557 C556 1.392 . S
C557 C559 1.384 1_545 S
H558 C560 0.949 . S
C559 C557 1.384 1_565 S
C559 C560 1.385 . S
C559 H561 0.950 . S
C560 C554 1.404 . S
C560 H558 0.949 . S
C560 C559 1.385 . S
H561 C559 0.950 . S
H562 C546 0.951 . S
H563 C548 0.951 . S
H564 C550 0.951 . S
H565 C551 0.950 . S
H566 C552 0.950 . S
H567 C553 0.950 1_545 S
H568 C555 0.950 . S
H569 C556 0.951 . S
C570 C571 1.386 . S
C570 C572 1.383 . S
C570 H586 0.951 . S
C571 C570 1.386 . S
C571 C575 1.383 . S
C572 C570 1.383 . S
C572 C573 1.402 . S
C572 H587 0.951 . S
C573 C572 1.402 . S
C573 C574 1.375 . S
C573 C576 1.481 . S
C574 C573 1.375 . S
C574 C575 1.367 . S
C574 H588 0.951 . S
C575 C571 1.383 . S
C575 C574 1.367 . S
C575 H589 0.950 . S
C576 C573 1.481 . S
C576 C577 1.297 . S
C576 H590 0.950 . S
C577 C576 1.297 . S
C577 C578 1.479 1_556 S
C577 H591 0.950 . S
C578 C577 1.479 1_554 S
C578 C579 1.375 . S
C578 C584 1.404 . S
C579 C578 1.375 . S
C579 C580 1.369 . S
C579 H592 0.950 . S
C580 C579 1.369 . S
C580 C581 1.392 . S
C580 H593 0.951 . S
C581 C580 1.392 . S
C581 C583 1.384 . S
H582 C584 0.949 . S
C583 C581 1.384 . S
C583 C584 1.385 . S
C583 H585 0.950 . S
C584 C578 1.404 . S
C584 H582 0.949 . S
C584 C583 1.385 . S
H585 C583 0.950 . S
H586 C570 0.951 . S
H587 C572 0.951 . S
H588 C574 0.951 . S
H589 C575 0.950 . S
H590 C576 0.950 . S
H591 C577 0.950 . S
H592 C579 0.950 . S
H593 C580 0.951 . S
C594 C595 1.386 . S
C594 C596 1.383 . S
C594 H610 0.951 . S
C595 C594 1.386 . S
C595 C599 1.378 1_455 S
C596 C594 1.383 . S
C596 C597 1.402 . S
C596 H611 0.951 . S
C597 C596 1.402 . S
C597 C598 1.375 1_455 S
C597 C600 1.481 . S
C598 C597 1.375 1_655 S
C598 C599 1.368 . S
C598 H612 0.951 . S
C599 C595 1.378 1_655 S
C599 C598 1.368 . S
C599 H613 0.954 . S
C600 C597 1.481 . S
C600 C601 1.297 . S
C600 H614 0.950 1_455 S
C601 C600 1.297 . S
C601 C602 1.479 . S
C601 H615 0.950 . S
C602 C601 1.479 . S
C602 C603 1.375 . S
C602 C608 1.404 1_455 S
C603 C602 1.375 . S
C603 C604 1.369 . S
C603 H616 0.950 . S
C604 C603 1.369 . S
C604 C605 1.392 1_455 S
C604 H617 0.951 . S
C605 C604 1.392 1_655 S
C605 C607 1.384 . S
H606 C608 0.949 . S
C607 C605 1.384 . S
C607 C608 1.385 . S
C607 H609 0.950 . S
C608 C602 1.404 1_655 S
C608 H606 0.949 . S
C608 C607 1.385 . S
H609 C607 0.950 . S
H610 C594 0.951 . S
H611 C596 0.951 . S
H612 C598 0.951 . S
H613 C599 0.954 . S
H614 C600 0.950 1_655 S
H615 C601 0.950 . S
H616 C603 0.950 . S
H617 C604 0.951 . S
C187 C7 0.660 . S
C197 C180 0.764 . S
C211 C51 2.041 . S
C221 C158 1.819 . S
C235 C87 0.997 . S
C245 C172 0.945 . S
C259 C16 0.328 . S
C269 C183 0.418 . S
C293 C161 1.778 . S
C283 C42 1.846 . S
C317 C169 1.263 . S
C307 C96 1.423 . S
C331 C47 1.360 . S
C341 C136 1.052 . S
C355 C91 3.280 . S
C365 C147 2.874 . S
C379 C2 2.160 . S
C389 C125 1.766 . S
C413 C139 1.062 . S
C403 C56 1.086 . S
C437 C150 2.758 . S
C427 C82 2.818 . S
C451 C11 1.742 . S
C461 C128 1.649 . S
C485 C149 1.580 . S
C475 C19 1.655 . S
C499 C50 1.438 . S
C509 C127 1.442 . S
C523 C99 1.483 . S
C533 C138 1.436 . S
C557 C171 1.459 . S
C547 C59 1.481 . S
C581 C182 1.141 . S
C571 C90 1.233 . S
C595 C10 1.450 . S
C605 C160 1.346 . S
