# Generated by pormake.
# Topology ocu, (6,8)-cn, num edge types: 1
# Building blocks:
#     Node 0, Type 0, BuildingBlock: FUNLAD_clean_sbu_0, # of connection points: 6
#     Node 1, Type 0, BuildingBlock: FUNLAD_clean_sbu_0, # of connection points: 6
#     Node 2, Type 0, BuildingBlock: FUNLAD_clean_sbu_0, # of connection points: 6
#     Node 3, Type 0, BuildingBlock: FUNLAD_clean_sbu_0, # of connection points: 6
#     Node 4, Type 0, BuildingBlock: FUNLAD_clean_sbu_0, # of connection points: 6
#     Node 5, Type 0, BuildingBlock: FUNLAD_clean_sbu_0, # of connection points: 6
#     Node 6, Type 0, BuildingBlock: FUNLAD_clean_sbu_0, # of connection points: 6
#     Node 7, Type 0, BuildingBlock: FUNLAD_clean_sbu_0, # of connection points: 6
#     Node 8, Type 1, BuildingBlock: TAGTUT_clean_sbu_1, # of connection points: 8
#     Node 9, Type 1, BuildingBlock: TAGTUT_clean_sbu_1, # of connection points: 8
#     Node 10, Type 1, BuildingBlock: TAGTUT_clean_sbu_1, # of connection points: 8
#     Node 11, Type 1, BuildingBlock: TAGTUT_clean_sbu_1, # of connection points: 8
#     Node 12, Type 1, BuildingBlock: TAGTUT_clean_sbu_1, # of connection points: 8
#     Node 13, Type 1, BuildingBlock: TAGTUT_clean_sbu_1, # of connection points: 8
#     Edge 14, Type (0, 1), BuildingBlock: KIFKEQ_clean_linker_1, # of connection points: 2
#     Edge 15, Type (0, 1), BuildingBlock: KIFKEQ_clean_linker_1, # of connection points: 2
#     Edge 16, Type (0, 1), BuildingBlock: KIFKEQ_clean_linker_1, # of connection points: 2
#     Edge 17, Type (0, 1), BuildingBlock: KIFKEQ_clean_linker_1, # of connection points: 2
#     Edge 18, Type (0, 1), BuildingBlock: KIFKEQ_clean_linker_1, # of connection points: 2
#     Edge 19, Type (0, 1), BuildingBlock: KIFKEQ_clean_linker_1, # of connection points: 2
#     Edge 20, Type (0, 1), BuildingBlock: KIFKEQ_clean_linker_1, # of connection points: 2
#     Edge 21, Type (0, 1), BuildingBlock: KIFKEQ_clean_linker_1, # of connection points: 2
#     Edge 22, Type (0, 1), BuildingBlock: KIFKEQ_clean_linker_1, # of connection points: 2
#     Edge 23, Type (0, 1), BuildingBlock: KIFKEQ_clean_linker_1, # of connection points: 2
#     Edge 24, Type (0, 1), BuildingBlock: KIFKEQ_clean_linker_1, # of connection points: 2
#     Edge 25, Type (0, 1), BuildingBlock: KIFKEQ_clean_linker_1, # of connection points: 2
#     Edge 26, Type (0, 1), BuildingBlock: KIFKEQ_clean_linker_1, # of connection points: 2
#     Edge 27, Type (0, 1), BuildingBlock: KIFKEQ_clean_linker_1, # of connection points: 2
#     Edge 28, Type (0, 1), BuildingBlock: KIFKEQ_clean_linker_1, # of connection points: 2
#     Edge 29, Type (0, 1), BuildingBlock: KIFKEQ_clean_linker_1, # of connection points: 2
#     Edge 30, Type (0, 1), BuildingBlock: KIFKEQ_clean_linker_1, # of connection points: 2
#     Edge 31, Type (0, 1), BuildingBlock: KIFKEQ_clean_linker_1, # of connection points: 2
#     Edge 32, Type (0, 1), BuildingBlock: KIFKEQ_clean_linker_1, # of connection points: 2
#     Edge 33, Type (0, 1), BuildingBlock: KIFKEQ_clean_linker_1, # of connection points: 2
#     Edge 34, Type (0, 1), BuildingBlock: KIFKEQ_clean_linker_1, # of connection points: 2
#     Edge 35, Type (0, 1), BuildingBlock: KIFKEQ_clean_linker_1, # of connection points: 2
#     Edge 36, Type (0, 1), BuildingBlock: KIFKEQ_clean_linker_1, # of connection points: 2
#     Edge 37, Type (0, 1), BuildingBlock: KIFKEQ_clean_linker_1, # of connection points: 2
#     Edge 38, Type (0, 1), BuildingBlock: KIFKEQ_clean_linker_1, # of connection points: 2
#     Edge 39, Type (0, 1), BuildingBlock: KIFKEQ_clean_linker_1, # of connection points: 2
#     Edge 40, Type (0, 1), BuildingBlock: KIFKEQ_clean_linker_1, # of connection points: 2
#     Edge 41, Type (0, 1), BuildingBlock: KIFKEQ_clean_linker_1, # of connection points: 2
#     Edge 42, Type (0, 1), BuildingBlock: KIFKEQ_clean_linker_1, # of connection points: 2
#     Edge 43, Type (0, 1), BuildingBlock: KIFKEQ_clean_linker_1, # of connection points: 2
#     Edge 44, Type (0, 1), BuildingBlock: KIFKEQ_clean_linker_1, # of connection points: 2
#     Edge 45, Type (0, 1), BuildingBlock: KIFKEQ_clean_linker_1, # of connection points: 2
#     Edge 46, Type (0, 1), BuildingBlock: KIFKEQ_clean_linker_1, # of connection points: 2
#     Edge 47, Type (0, 1), BuildingBlock: KIFKEQ_clean_linker_1, # of connection points: 2
#     Edge 48, Type (0, 1), BuildingBlock: KIFKEQ_clean_linker_1, # of connection points: 2
#     Edge 49, Type (0, 1), BuildingBlock: KIFKEQ_clean_linker_1, # of connection points: 2
#     Edge 50, Type (0, 1), BuildingBlock: KIFKEQ_clean_linker_1, # of connection points: 2
#     Edge 51, Type (0, 1), BuildingBlock: KIFKEQ_clean_linker_1, # of connection points: 2
#     Edge 52, Type (0, 1), BuildingBlock: KIFKEQ_clean_linker_1, # of connection points: 2
#     Edge 53, Type (0, 1), BuildingBlock: KIFKEQ_clean_linker_1, # of connection points: 2
#     Edge 54, Type (0, 1), BuildingBlock: KIFKEQ_clean_linker_1, # of connection points: 2
#     Edge 55, Type (0, 1), BuildingBlock: KIFKEQ_clean_linker_1, # of connection points: 2
#     Edge 56, Type (0, 1), BuildingBlock: KIFKEQ_clean_linker_1, # of connection points: 2
#     Edge 57, Type (0, 1), BuildingBlock: KIFKEQ_clean_linker_1, # of connection points: 2
#     Edge 58, Type (0, 1), BuildingBlock: KIFKEQ_clean_linker_1, # of connection points: 2
#     Edge 59, Type (0, 1), BuildingBlock: KIFKEQ_clean_linker_1, # of connection points: 2
#     Edge 60, Type (0, 1), BuildingBlock: KIFKEQ_clean_linker_1, # of connection points: 2
#     Edge 61, Type (0, 1), BuildingBlock: KIFKEQ_clean_linker_1, # of connection points: 2
# Relax obj value: 0.203
# Max RMSD: 0.257
# Mean RMSD: 0.202
data_MOF--net-ocu--node1-FUNLAD_clean_sbu_0--node2-TAGTUT_clean_sbu_1--edge1-KIFKEQ_clean_linker_1
_symmetry_space_group_name_H-M    P1
_symmetry_Int_Tables_number       1
_symmetry_cell_setting            triclinic
loop_
_symmetry_equiv_pos_as_xyz
'x, y, z'
_cell_length_a     39.496434
_cell_length_b     37.338028
_cell_length_c     41.249614
_cell_angle_alpha  84.855099
_cell_angle_beta   87.034958
_cell_angle_gamma 92.284019
loop_
_atom_site_label
_atom_site_type_symbol
_atom_site_fract_x
_atom_site_fract_y
_atom_site_fract_z
_atom_type_partial_charge
C0 C 0.22012 0.2606 0.31093 0.0
N1 N 0.19395 0.18054 0.25022 0.0
C2 C 0.18621 0.1569 0.27676 0.0
C3 C 0.15727 0.1343 0.27781 0.0
C4 C 0.13581 0.13681 0.25167 0.0
C5 C 0.14539 0.15967 0.22376 0.0
C6 C 0.17526 0.181 0.2233 0.0
Zn7 Zn 0.23021 0.22001 0.25287 0.0
C8 C 0.2056 0.28956 0.22112 0.0
N9 N 0.30361 0.30563 0.25354 0.0
C10 C 0.325 0.30385 0.27851 0.0
C11 C 0.30878 0.3307 0.22763 0.0
C12 C 0.33754 0.35369 0.22508 0.0
C13 C 0.36151 0.35014 0.24899 0.0
C14 C 0.35476 0.32559 0.27639 0.0
Zn15 Zn 0.26701 0.26619 0.25178 0.0
O16 O 0.20706 0.23457 0.29724 0.0
C17 C 0.2916 0.19637 0.28319 0.0
O18 O 0.24655 0.27755 0.29772 0.0
H19 H 0.29178 0.33135 0.20789 0.0
H20 H 0.20121 0.15722 0.29794 0.0
H21 H 0.32015 0.28401 0.29914 0.0
O22 O 0.26187 0.18404 0.27893 0.0
O23 O 0.29971 0.22898 0.27375 0.0
H24 H 0.18223 0.19962 0.2022 0.0
O25 O 0.28759 0.25418 0.20534 0.0
O26 O 0.2532 0.20627 0.20908 0.0
O27 O 0.23352 0.30312 0.22938 0.0
O28 O 0.19916 0.25605 0.22722 0.0
C29 C 0.27707 0.22557 0.19377 0.0
H30 H 0.15006 0.11742 0.30006 0.0
H31 H 0.12905 0.16251 0.20347 0.0
H32 H 0.34249 0.3719 0.20321 0.0
H33 H 0.37306 0.32197 0.29496 0.0
C34 C 0.70577 0.29131 0.21941 0.0
N35 N 0.74959 0.19494 0.19886 0.0
C36 C 0.71695 0.18282 0.19647 0.0
C37 C 0.70894 0.15891 0.17385 0.0
C38 C 0.73451 0.14784 0.15271 0.0
C39 C 0.76803 0.16089 0.15512 0.0
C40 C 0.77515 0.18435 0.17889 0.0
Zn41 Zn 0.75611 0.23163 0.23234 0.0
C42 C 0.80524 0.2917 0.21042 0.0
N43 N 0.76037 0.30887 0.30222 0.0
C44 C 0.73475 0.32069 0.32138 0.0
C45 C 0.79323 0.31967 0.30547 0.0
C46 C 0.80144 0.34353 0.32804 0.0
C47 C 0.77581 0.35596 0.34828 0.0
C48 C 0.74204 0.34419 0.3451 0.0
Zn49 Zn 0.75371 0.27238 0.26852 0.0
O50 O 0.71758 0.2625 0.21004 0.0
C51 C 0.70491 0.21221 0.29066 0.0
O52 O 0.71675 0.30359 0.24488 0.0
H53 H 0.81347 0.30919 0.29098 0.0
H54 H 0.69673 0.19234 0.21161 0.0
H55 H 0.70883 0.31148 0.31866 0.0
O56 O 0.71871 0.20147 0.26494 0.0
O57 O 0.71413 0.24293 0.29908 0.0
H58 H 0.80088 0.1946 0.18095 0.0
O59 O 0.79093 0.24042 0.2917 0.0
O60 O 0.79429 0.20142 0.25504 0.0
O61 O 0.79268 0.30135 0.2371 0.0
O62 O 0.79426 0.26219 0.20071 0.0
C63 C 0.8039 0.21258 0.28148 0.0
H64 H 0.68265 0.15016 0.1721 0.0
H65 H 0.78828 0.15316 0.13881 0.0
H66 H 0.82787 0.35133 0.33041 0.0
H67 H 0.72171 0.353 0.36071 0.0
C68 C 0.79948 0.7078 0.28277 0.0
N69 N 0.80248 0.81907 0.25979 0.0
C70 C 0.81222 0.81493 0.29103 0.0
C71 C 0.82796 0.84308 0.30481 0.0
C72 C 0.83369 0.87628 0.28663 0.0
C73 C 0.82442 0.88032 0.25416 0.0
C74 C 0.80848 0.85092 0.24105 0.0
Zn75 Zn 0.7727 0.77625 0.24853 0.0
C76 C 0.79141 0.74029 0.19316 0.0
N77 N 0.70833 0.68469 0.24037 0.0
C78 C 0.70089 0.65359 0.25984 0.0
C79 C 0.69976 0.68806 0.20874 0.0
C80 C 0.68389 0.65977 0.19528 0.0
C81 C 0.67661 0.62731 0.21428 0.0
C82 C 0.68458 0.62415 0.24714 0.0
Zn83 Zn 0.73789 0.72759 0.25159 0.0
O84 O 0.80571 0.74075 0.27319 0.0
C85 C 0.71928 0.76293 0.30716 0.0
O86 O 0.77094 0.6931 0.27749 0.0
H87 H 0.70648 0.71234 0.19315 0.0
H88 H 0.80631 0.79021 0.30624 0.0
H89 H 0.70841 0.65126 0.28476 0.0
O90 O 0.7439 0.78183 0.29263 0.0
O91 O 0.70868 0.7346 0.29515 0.0
H92 H 0.79992 0.85392 0.21651 0.0
O93 O 0.70531 0.76277 0.22585 0.0
O94 O 0.73923 0.81095 0.22354 0.0
O95 O 0.76744 0.72131 0.20861 0.0
O96 O 0.80118 0.7697 0.20392 0.0
C97 C 0.71118 0.79599 0.21714 0.0
H98 H 0.83486 0.83921 0.32995 0.0
H99 H 0.82868 0.90585 0.23958 0.0
H100 H 0.6778 0.66303 0.16988 0.0
H101 H 0.67894 0.59928 0.26239 0.0
C102 C 0.22088 0.81099 0.27032 0.0
N103 N 0.29535 0.75378 0.31422 0.0
C104 C 0.32927 0.76115 0.31525 0.0
C105 C 0.34202 0.77569 0.34248 0.0
C106 C 0.31943 0.78274 0.36833 0.0
C107 C 0.28529 0.77165 0.36789 0.0
C108 C 0.27372 0.75715 0.34049 0.0
Zn109 Zn 0.27245 0.75071 0.27142 0.0
C110 C 0.20536 0.70606 0.28473 0.0
N111 N 0.21498 0.7526 0.18813 0.0
C112 C 0.23663 0.74883 0.16196 0.0
C113 C 0.18115 0.74449 0.1874 0.0
C114 C 0.16863 0.72845 0.16083 0.0
C115 C 0.19138 0.72071 0.13537 0.0
C116 C 0.22529 0.73278 0.13523 0.0
Zn117 Zn 0.23791 0.75586 0.23085 0.0
O118 O 0.24498 0.79517 0.28388 0.0
C119 C 0.30505 0.80033 0.21734 0.0
O120 O 0.21006 0.80011 0.24423 0.0
H121 H 0.16448 0.74728 0.20857 0.0
H122 H 0.34594 0.75871 0.294 0.0
H123 H 0.26354 0.75439 0.16308 0.0
O124 O 0.31083 0.78717 0.24593 0.0
O125 O 0.27679 0.79227 0.20577 0.0
H126 H 0.24675 0.75217 0.33914 0.0
O127 O 0.2652 0.71137 0.21851 0.0
O128 O 0.30034 0.7064 0.25796 0.0
O129 O 0.19962 0.71948 0.25623 0.0
O130 O 0.23355 0.7141 0.29645 0.0
C131 C 0.28927 0.69546 0.232 0.0
H132 H 0.36861 0.78414 0.3421 0.0
H133 H 0.26728 0.77659 0.38754 0.0
H134 H 0.14221 0.71929 0.16157 0.0
H135 H 0.24339 0.72729 0.11584 0.0
C136 C 0.20754 0.79299 0.71762 0.0
N137 N 0.24901 0.69538 0.69817 0.0
C138 C 0.21619 0.6846 0.69471 0.0
C139 C 0.20816 0.66068 0.67212 0.0
C140 C 0.23396 0.6482 0.65209 0.0
C141 C 0.26769 0.65993 0.65551 0.0
C142 C 0.27477 0.68346 0.67924 0.0
Zn143 Zn 0.25569 0.73208 0.73162 0.0
C144 C 0.30714 0.79072 0.71019 0.0
N145 N 0.26164 0.80984 0.80098 0.0
C146 C 0.23588 0.82165 0.81998 0.0
C147 C 0.29446 0.82065 0.80442 0.0
C148 C 0.30248 0.84447 0.8271 0.0
C149 C 0.27669 0.85679 0.84723 0.0
C150 C 0.24297 0.84506 0.8438 0.0
Zn151 Zn 0.25493 0.77314 0.76755 0.0
O152 O 0.21915 0.76419 0.70807 0.0
C153 C 0.20351 0.71495 0.78932 0.0
O154 O 0.21819 0.80467 0.74348 0.0
H155 H 0.31479 0.81017 0.79007 0.0
H156 H 0.19586 0.69515 0.70902 0.0
H157 H 0.20999 0.81243 0.81711 0.0
O158 O 0.21582 0.70383 0.76313 0.0
O159 O 0.21545 0.74444 0.79824 0.0
H160 H 0.30066 0.69266 0.68213 0.0
O161 O 0.29162 0.74111 0.79103 0.0
O162 O 0.29228 0.70036 0.75589 0.0
O163 O 0.29414 0.80127 0.73631 0.0
O164 O 0.29586 0.76115 0.7008 0.0
C165 C 0.30304 0.71215 0.78166 0.0
H166 H 0.18177 0.65291 0.66955 0.0
H167 H 0.28813 0.65108 0.64007 0.0
H168 H 0.32888 0.85226 0.82967 0.0
H169 H 0.22254 0.85379 0.85933 0.0
C170 C 0.2984 0.20631 0.78335 0.0
N171 N 0.3026 0.31778 0.76036 0.0
C172 C 0.31317 0.31327 0.79129 0.0
C173 C 0.32915 0.34132 0.80502 0.0
C174 C 0.33413 0.3748 0.78716 0.0
C175 C 0.32398 0.37922 0.75501 0.0
C176 C 0.30795 0.34989 0.7419 0.0
Zn177 Zn 0.27226 0.27541 0.74922 0.0
C178 C 0.28987 0.24003 0.69381 0.0
N179 N 0.2064 0.18486 0.74182 0.0
C180 C 0.19934 0.15337 0.76084 0.0
C181 C 0.19718 0.18889 0.71039 0.0
C182 C 0.18092 0.16098 0.69673 0.0
C183 C 0.17406 0.12814 0.71523 0.0
C184 C 0.1828 0.12424 0.74786 0.0
Zn185 Zn 0.23667 0.22735 0.75299 0.0
O186 O 0.3052 0.23906 0.77329 0.0
C187 C 0.21923 0.26329 0.80837 0.0
O188 O 0.2693 0.19239 0.77887 0.0
H189 H 0.2038 0.21333 0.69502 0.0
H190 H 0.30763 0.28837 0.80634 0.0
H191 H 0.20746 0.15046 0.78555 0.0
O192 O 0.2439 0.28147 0.79318 0.0
O193 O 0.2082 0.23465 0.79712 0.0
H194 H 0.29869 0.35318 0.71764 0.0
O195 O 0.20426 0.26317 0.72771 0.0
O196 O 0.23902 0.31073 0.72447 0.0
O197 O 0.26577 0.22093 0.70904 0.0
O198 O 0.30022 0.26889 0.70508 0.0
C199 C 0.21058 0.29624 0.71862 0.0
H200 H 0.33664 0.33722 0.82996 0.0
H201 H 0.32759 0.40498 0.74071 0.0
H202 H 0.17441 0.16475 0.67147 0.0
H203 H 0.17763 0.099 0.7627 0.0
C204 C 0.72074 0.31104 0.77144 0.0
N205 N 0.79591 0.25273 0.8128 0.0
C206 C 0.82982 0.26064 0.81305 0.0
C207 C 0.84293 0.27637 0.83955 0.0
C208 C 0.82067 0.284 0.86544 0.0
C209 C 0.78668 0.27209 0.86602 0.0
C210 C 0.77476 0.25637 0.83936 0.0
Zn211 Zn 0.77206 0.25013 0.77042 0.0
C212 C 0.70479 0.20631 0.78414 0.0
N213 N 0.71302 0.25523 0.68817 0.0
C214 C 0.73429 0.25252 0.6615 0.0
C215 C 0.67921 0.24689 0.68778 0.0
C216 C 0.66633 0.23173 0.66091 0.0
C217 C 0.6887 0.22505 0.63477 0.0
C218 C 0.7226 0.23732 0.63446 0.0
Zn219 Zn 0.73663 0.25725 0.73073 0.0
O220 O 0.74557 0.29521 0.78368 0.0
C221 C 0.80377 0.30135 0.71697 0.0
O222 O 0.70865 0.30039 0.74581 0.0
H223 H 0.66284 0.24883 0.70933 0.0
H224 H 0.84612 0.25797 0.7916 0.0
H225 H 0.7612 0.25836 0.66236 0.0
O226 O 0.81075 0.28561 0.74428 0.0
O227 O 0.77459 0.29524 0.70641 0.0
H228 H 0.74777 0.25102 0.83865 0.0
O229 O 0.76435 0.21355 0.71656 0.0
O230 O 0.7987 0.20554 0.75644 0.0
O231 O 0.69899 0.21977 0.75566 0.0
O232 O 0.73301 0.21426 0.79582 0.0
C233 C 0.78787 0.19636 0.72976 0.0
H234 H 0.8694 0.28541 0.83845 0.0
H235 H 0.76895 0.27753 0.88574 0.0
H236 H 0.63994 0.22241 0.66184 0.0
H237 H 0.74042 0.23267 0.61456 0.0
C238 C 0.72683 0.76656 0.80926 0.0
N239 N 0.7005 0.6863 0.7494 0.0
C240 C 0.69376 0.66256 0.77606 0.0
C241 C 0.66461 0.64017 0.7783 0.0
C242 C 0.64185 0.64303 0.75326 0.0
C243 C 0.65029 0.66601 0.72514 0.0
C244 C 0.68044 0.6871 0.72342 0.0
Zn245 Zn 0.73711 0.72569 0.7514 0.0
C246 C 0.71312 0.79552 0.71914 0.0
N247 N 0.81076 0.81096 0.75254 0.0
C248 C 0.83098 0.80952 0.77841 0.0
C249 C 0.81698 0.83569 0.72651 0.0
C250 C 0.84565 0.85874 0.72492 0.0
C251 C 0.86841 0.85563 0.74996 0.0
C252 C 0.86061 0.83134 0.77733 0.0
Zn253 Zn 0.77411 0.77177 0.75034 0.0
O254 O 0.7142 0.74022 0.79574 0.0
C255 C 0.79856 0.70209 0.78201 0.0
O256 O 0.75311 0.78375 0.79602 0.0
H257 H 0.80083 0.8361 0.70612 0.0
H258 H 0.70972 0.66266 0.79657 0.0
H259 H 0.82527 0.78995 0.79911 0.0
O260 O 0.769 0.68953 0.77736 0.0
O261 O 0.80641 0.73479 0.77288 0.0
H262 H 0.68656 0.70582 0.7022 0.0
O263 O 0.79509 0.75907 0.70415 0.0
O264 O 0.75978 0.71186 0.70751 0.0
O265 O 0.74128 0.80869 0.72719 0.0
O266 O 0.7061 0.76213 0.72574 0.0
C267 C 0.78409 0.73073 0.69241 0.0
H268 H 0.65833 0.6232 0.80069 0.0
H269 H 0.63295 0.66909 0.70567 0.0
H270 H 0.85147 0.87676 0.70307 0.0
H271 H 0.87799 0.82806 0.79675 0.0
C272 C 0.91138 0.08017 0.55429 0.0
C273 C 0.93878 0.08087 0.44954 0.0
C274 C 0.95383 0.94196 0.47113 0.0
Mg275 Mg 0.9789 0.08386 0.51118 0.0
O276 O 0.97132 0.03411 0.5213 0.0
Mg277 Mg 0.92781 0.01109 0.5092 0.0
Mg278 Mg 1.00326 0.00199 0.50117 0.0
O279 O 0.03526 0.97013 0.48075 0.0
Mg280 Mg 0.02838 0.92025 0.48998 0.0
Mg281 Mg 0.07891 0.99376 0.4917 0.0
C282 C 0.05308 0.0621 0.53077 0.0
C283 C 0.04115 0.04682 0.43919 0.0
O284 O 0.90222 0.05028 0.54322 0.0
O285 O 0.93946 0.0973 0.54494 0.0
O286 O 0.92354 0.05242 0.46393 0.0
O287 O 0.96358 0.0966 0.4621 0.0
O288 O 0.03136 0.08667 0.52637 0.0
O289 O 0.04697 0.02995 0.5233 0.0
C290 C 0.9641 0.95772 0.56274 0.0
O291 O 0.99266 0.96473 0.54701 0.0
O292 O 0.93656 0.97119 0.55304 0.0
O293 O 0.10425 0.95527 0.4568 0.0
O294 O 0.06748 0.90781 0.45528 0.0
O295 O 0.08441 0.95215 0.53645 0.0
C296 C 0.09524 0.92542 0.4456 0.0
O297 O 0.04478 0.90747 0.53875 0.0
O298 O 0.97567 0.91745 0.4752 0.0
C299 C 0.06971 0.92345 0.55094 0.0
O300 O 0.9599 0.97401 0.47886 0.0
O301 O 0.01313 0.0391 0.45554 0.0
O302 O 0.06922 0.034 0.44812 0.0
C303 C 0.42232 0.10229 0.03586 0.0
C304 C 0.45237 0.08424 0.9377 0.0
C305 C 0.44771 0.94455 0.98025 0.0
Mg306 Mg 0.49123 0.0894 1.00009 0.0
O307 O 0.47769 0.0415 0.01521 0.0
Mg308 Mg 0.43206 0.02351 0.00234 0.0
Mg309 Mg 0.50548 0.00219 0.99974 0.0
O310 O 0.5332 0.96276 0.98428 0.0
Mg311 Mg 0.51986 0.91519 0.00121 0.0
Mg312 Mg 0.57907 0.9812 0.99608 0.0
C313 C 0.56349 0.05976 0.01978 0.0
C314 C 0.55627 0.03674 0.9371 0.0
O315 O 0.41062 0.07197 0.0275 0.0
O316 O 0.45319 0.11375 0.02923 0.0
O317 O 0.43503 0.05832 0.95369 0.0
O318 O 0.4775 0.09983 0.94986 0.0
O319 O 0.54479 0.08658 0.0126 0.0
O320 O 0.55213 0.02695 0.0203 0.0
C321 C 0.45391 0.96792 0.06199 0.0
O322 O 0.484 0.96777 0.04817 0.0
O323 O 0.4311 0.98776 0.04999 0.0
O324 O 0.59993 0.93294 0.97039 0.0
O325 O 0.55808 0.8897 0.97288 0.0
O326 O 0.57726 0.94666 0.04443 0.0
C327 C 0.58837 0.90175 0.96401 0.0
O328 O 0.53372 0.90669 0.05178 0.0
O329 O 0.46623 0.9178 0.98831 0.0
C330 C 0.56011 0.92191 0.06211 0.0
O331 O 0.45919 0.97738 0.97908 0.0
O332 O 0.52642 0.03678 0.95137 0.0
O333 O 0.57927 0.01689 0.94862 0.0
C334 C 0.92298 0.60339 0.03312 0.0
C335 C 0.95134 0.57949 0.93482 0.0
C336 C 0.95001 0.4423 0.98534 0.0
Mg337 Mg 0.99018 0.58798 0.99602 0.0
O338 O 0.97757 0.54116 0.01421 0.0
Mg339 Mg 0.93199 0.52247 0.00207 0.0
Mg340 Mg 0.00663 0.50174 0.00092 0.0
O341 O 0.0355 0.46212 0.98788 0.0
Mg342 Mg 0.02237 0.4156 0.00703 0.0
Mg343 Mg 0.08085 0.48054 0.00088 0.0
C344 C 0.06281 0.56111 0.01713 0.0
C345 C 0.06091 0.53601 0.94065 0.0
O346 O 0.9104 0.57262 0.02639 0.0
O347 O 0.95361 0.61422 0.0246 0.0
O348 O 0.9339 0.55475 0.95224 0.0
O349 O 0.9768 0.59556 0.94583 0.0
O350 O 0.04316 0.58608 0.00737 0.0
O351 O 0.05273 0.52776 0.02225 0.0
C352 C 0.95376 0.46849 0.06272 0.0
O353 O 0.98409 0.46823 0.04945 0.0
O354 O 0.93125 0.48836 0.05022 0.0
O355 O 0.10235 0.4304 0.97668 0.0
O356 O 0.05912 0.38873 0.97911 0.0
O357 O 0.07845 0.44814 0.05037 0.0
C358 C 0.08973 0.39951 0.97034 0.0
O359 O 0.03494 0.40839 0.0576 0.0
O360 O 0.96946 0.41726 0.99532 0.0
C361 C 0.06084 0.42397 0.06825 0.0
O362 O 0.96029 0.47557 0.98018 0.0
O363 O 0.02984 0.53571 0.9523 0.0
O364 O 0.08249 0.51529 0.95359 0.0
C365 C 0.41085 0.57954 0.05545 0.0
C366 C 0.43786 0.58069 0.95045 0.0
C367 C 0.45334 0.44186 0.97169 0.0
Mg368 Mg 0.47821 0.58347 0.01197 0.0
O369 O 0.47064 0.5337 0.02205 0.0
Mg370 Mg 0.42712 0.51068 0.00995 0.0
Mg371 Mg 0.50273 0.50164 0.00204 0.0
O372 O 0.53488 0.46972 0.98189 0.0
Mg373 Mg 0.52765 0.41986 0.99122 0.0
Mg374 Mg 0.5784 0.49296 0.99373 0.0
C375 C 0.55227 0.56151 0.03204 0.0
C376 C 0.54193 0.54677 0.94081 0.0
O377 O 0.40164 0.54964 0.04442 0.0
O378 O 0.43883 0.59677 0.04587 0.0
O379 O 0.42272 0.55225 0.96494 0.0
O380 O 0.46279 0.59639 0.96285 0.0
O381 O 0.53066 0.58615 0.02738 0.0
O382 O 0.54612 0.52931 0.02475 0.0
C383 C 0.46306 0.4566 0.06306 0.0
O384 O 0.49173 0.46405 0.04769 0.0
O385 O 0.43556 0.47014 0.05341 0.0
O386 O 0.60414 0.45439 0.95916 0.0
O387 O 0.56716 0.40723 0.95703 0.0
O388 O 0.58308 0.45115 0.0385 0.0
C389 C 0.59515 0.42462 0.9478 0.0
O390 O 0.5434 0.40662 0.04018 0.0
O391 O 0.47509 0.41729 0.97598 0.0
C392 C 0.5682 0.42242 0.05272 0.0
O393 O 0.45943 0.47395 0.97931 0.0
O394 O 0.51348 0.53912 0.95648 0.0
O395 O 0.56965 0.53354 0.95024 0.0
C396 C 0.92427 0.60597 0.53147 0.0
C397 C 0.95343 0.58259 0.43431 0.0
C398 C 0.94667 0.4449 0.48149 0.0
Mg399 Mg 0.99272 0.59006 0.496 0.0
O400 O 0.97815 0.54307 0.51366 0.0
Mg401 Mg 0.93236 0.52533 0.501 0.0
Mg402 Mg 0.00517 0.50241 0.49987 0.0
O403 O 0.03228 0.46194 0.48563 0.0
Mg404 Mg 0.01837 0.41484 0.50328 0.0
Mg405 Mg 0.07853 0.48008 0.49659 0.0
C406 C 0.06419 0.55978 0.51794 0.0
C407 C 0.05659 0.5348 0.43665 0.0
O408 O 0.91193 0.57533 0.52445 0.0
O409 O 0.95523 0.61669 0.52403 0.0
O410 O 0.93593 0.55806 0.45188 0.0
O411 O 0.9793 0.59824 0.44519 0.0
O412 O 0.0461 0.58666 0.50926 0.0
O413 O 0.05226 0.52706 0.51977 0.0
C414 C 0.95237 0.47149 0.56254 0.0
O415 O 0.98271 0.46985 0.54949 0.0
O416 O 0.93057 0.49156 0.54911 0.0
O417 O 0.09844 0.4307 0.47181 0.0
O418 O 0.05585 0.38823 0.47512 0.0
O419 O 0.07663 0.44665 0.54554 0.0
C420 C 0.08627 0.39955 0.46595 0.0
O421 O 0.03284 0.40707 0.55373 0.0
O422 O 0.96477 0.41805 0.49031 0.0
C423 C 0.05942 0.42233 0.56367 0.0
O424 O 0.95863 0.47762 0.47953 0.0
O425 O 0.02676 0.53542 0.45084 0.0
O426 O 0.07928 0.51476 0.4485 0.0
C427 C 0.41807 0.09983 0.53477 0.0
C428 C 0.44511 0.0755 0.43676 0.0
C429 C 0.45096 0.93946 0.48834 0.0
Mg430 Mg 0.48534 0.08703 0.49627 0.0
O431 O 0.47533 0.04008 0.51579 0.0
Mg432 Mg 0.4301 0.01881 0.50515 0.0
Mg433 Mg 0.50549 0.00219 0.50104 0.0
O434 O 0.5356 0.96437 0.48615 0.0
Mg435 Mg 0.52589 0.91764 0.50628 0.0
Mg436 Mg 0.58115 0.98582 0.49556 0.0
C437 C 0.56022 0.06499 0.51438 0.0
C438 C 0.55315 0.03795 0.43665 0.0
O439 O 0.40718 0.06779 0.5299 0.0
O440 O 0.44771 0.11248 0.52443 0.0
O441 O 0.42878 0.05059 0.45504 0.0
O442 O 0.47072 0.09239 0.44659 0.0
O443 O 0.53891 0.08877 0.50586 0.0
O444 O 0.55196 0.03114 0.51923 0.0
C445 C 0.4567 0.96686 0.56486 0.0
O446 O 0.48667 0.96796 0.55055 0.0
O447 O 0.43284 0.98538 0.55318 0.0
O448 O 0.60336 0.93688 0.47018 0.0
O449 O 0.56301 0.89203 0.47754 0.0
O450 O 0.58397 0.95369 0.54528 0.0
C451 C 0.59229 0.90468 0.46605 0.0
O452 O 0.54131 0.91311 0.55583 0.0
O453 O 0.47214 0.91571 0.49732 0.0
C454 C 0.5679 0.92936 0.56444 0.0
O455 O 0.45947 0.97317 0.48272 0.0
O456 O 0.5236 0.03647 0.4517 0.0
O457 O 0.57751 0.01967 0.44756 0.0
H458 H 0.08041 0.17486 0.26062 0.0
H459 H 0.11386 0.06645 0.25975 0.0
H460 H 0.03714 0.1546 0.3032 0.0
H461 H 0.0695 0.04594 0.30123 0.0
H462 H 0.09097 0.09082 0.40788 0.0
H463 H 0.09412 0.11354 0.35042 0.0
H464 H 0.99354 0.06831 0.3396 0.0
H465 H 0.98967 0.04651 0.39773 0.0
C466 C 0.07656 0.14622 0.26747 0.0
C467 C 0.10082 0.12222 0.25783 0.0
C468 C 0.0517 0.13466 0.29181 0.0
C469 C 0.05077 0.099 0.30573 0.0
C470 C 0.06994 0.07362 0.29068 0.0
C471 C 0.09536 0.08531 0.26696 0.0
C472 C 0.06915 0.08672 0.39354 0.0
C473 C 0.04028 0.06679 0.407 0.0
C474 C 0.07086 0.09975 0.36085 0.0
C475 C 0.04404 0.09239 0.34103 0.0
C476 C 0.01428 0.07436 0.35471 0.0
C477 C 0.0122 0.06203 0.38781 0.0
H478 H 0.82693 0.14476 0.2757 0.0
H479 H 0.83736 0.2362 0.33217 0.0
H480 H 0.86469 0.11143 0.31158 0.0
H481 H 0.87466 0.20304 0.36782 0.0
H482 H 0.88828 0.05401 0.41418 0.0
H483 H 0.86034 0.08519 0.36926 0.0
H484 H 0.93072 0.17652 0.37036 0.0
H485 H 0.9586 0.14551 0.41553 0.0
C486 C 0.83755 0.15788 0.2955 0.0
C487 C 0.82895 0.19307 0.30117 0.0
C488 C 0.85904 0.13874 0.31612 0.0
C489 C 0.87271 0.15456 0.34257 0.0
C490 C 0.86498 0.19017 0.34746 0.0
C491 C 0.84332 0.2091 0.32713 0.0
C492 C 0.89818 0.08053 0.40458 0.0
C493 C 0.92535 0.09747 0.41895 0.0
C494 C 0.88224 0.09834 0.37863 0.0
C495 C 0.89299 0.13356 0.36649 0.0
C496 C 0.92144 0.14964 0.37954 0.0
C497 C 0.93752 0.13177 0.40537 0.0
H498 H 0.90034 0.89393 0.28772 0.0
H499 H 0.80161 0.91965 0.32616 0.0
H500 H 0.92599 0.91589 0.33524 0.0
H501 H 0.82727 0.94187 0.37378 0.0
H502 H 0.90824 0.99002 0.4469 0.0
H503 H 0.87788 0.98577 0.39701 0.0
H504 H 0.90874 0.87669 0.39304 0.0
H505 H 0.93869 0.88052 0.44265 0.0
C506 C 0.88447 0.90646 0.3053 0.0
C507 C 0.84916 0.90537 0.30336 0.0
C508 C 0.899 0.91842 0.33272 0.0
C509 C 0.87835 0.92964 0.35834 0.0
C510 C 0.84359 0.93321 0.35433 0.0
C511 C 0.82901 0.92098 0.32693 0.0
C512 C 0.90785 0.96485 0.43589 0.0
C513 C 0.92669 0.93596 0.44842 0.0
C514 C 0.89067 0.96259 0.40722 0.0
C515 C 0.89226 0.93144 0.39071 0.0
C516 C 0.90817 0.90144 0.40489 0.0
C517 C 0.92496 0.90353 0.43357 0.0
H518 H 0.1548 0.83047 0.26803 0.0
H519 H 0.2486 0.85248 0.31344 0.0
H520 H 0.12442 0.86403 0.3079 0.0
H521 H 0.21841 0.88533 0.35327 0.0
H522 H 0.15369 0.95632 0.41385 0.0
H523 H 0.18383 0.93669 0.3657 0.0
H524 H 0.11231 0.84597 0.36684 0.0
H525 H 0.08223 0.86535 0.41444 0.0
C526 C 0.16905 0.84341 0.28582 0.0
C527 C 0.20392 0.83858 0.28788 0.0
C528 C 0.15167 0.86226 0.30885 0.0
C529 C 0.16899 0.87675 0.33405 0.0
C530 C 0.20435 0.8746 0.33418 0.0
C531 C 0.22161 0.85565 0.31138 0.0
C532 C 0.14452 0.93208 0.40393 0.0
C533 C 0.11557 0.91239 0.41817 0.0
C534 C 0.16167 0.92098 0.37626 0.0
C535 C 0.15007 0.89015 0.36217 0.0
C536 C 0.12137 0.87036 0.3766 0.0
C537 C 0.10441 0.88126 0.40424 0.0
H538 H 0.173 0.76897 0.66779 0.0
H539 H 0.18556 0.86144 0.72265 0.0
H540 H 0.13527 0.80184 0.63247 0.0
H541 H 0.14726 0.89449 0.68713 0.0
H542 H 0.12099 0.9507 0.58511 0.0
H543 H 0.14991 0.92001 0.62958 0.0
H544 H 0.07957 0.82835 0.63035 0.0
H545 H 0.05075 0.85885 0.58553 0.0
C546 C 0.16745 0.79626 0.67254 0.0
C547 C 0.18253 0.81264 0.69796 0.0
C548 C 0.14551 0.81503 0.65241 0.0
C549 C 0.13814 0.85081 0.65696 0.0
C550 C 0.15259 0.86703 0.68284 0.0
C551 C 0.17441 0.84806 0.70326 0.0
C552 C 0.11132 0.9242 0.595 0.0
C553 C 0.08386 0.90703 0.58125 0.0
C554 C 0.12783 0.90668 0.62071 0.0
C555 C 0.11737 0.87151 0.63326 0.0
C556 C 0.08866 0.85519 0.62083 0.0
C557 C 0.07204 0.87277 0.5952 0.0
H558 H 0.10704 0.11256 0.71395 0.0
H559 H 0.20493 0.0833 0.67629 0.0
H560 H 0.08086 0.0907 0.66666 0.0
H561 H 0.17875 0.0612 0.62888 0.0
H562 H 0.0981 0.01394 0.55589 0.0
H563 H 0.12822 0.01856 0.60584 0.0
H564 H 0.09789 0.12798 0.60866 0.0
H565 H 0.06817 0.12377 0.55896 0.0
C566 C 0.12256 0.09932 0.6966 0.0
C567 C 0.15783 0.09933 0.6987 0.0
C568 C 0.10775 0.08743 0.66929 0.0
C569 C 0.12807 0.07521 0.64391 0.0
C570 C 0.16268 0.07064 0.64812 0.0
C571 C 0.17754 0.08281 0.67541 0.0
C572 C 0.09856 0.03926 0.56665 0.0
C573 C 0.07996 0.06816 0.55374 0.0
C574 C 0.11559 0.04174 0.59537 0.0
C575 C 0.11411 0.0731 0.61158 0.0
C576 C 0.09837 0.10306 0.59707 0.0
C577 C 0.08173 0.10075 0.56833 0.0
H578 H 0.85283 0.17354 0.73255 0.0
H579 H 0.75925 0.15813 0.68475 0.0
H580 H 0.88222 0.1395 0.6924 0.0
H581 H 0.78849 0.12471 0.64472 0.0
H582 H 0.85152 0.05107 0.58465 0.0
H583 H 0.8213 0.07121 0.63257 0.0
H584 H 0.89545 0.15923 0.63345 0.0
H585 H 0.92553 0.13947 0.58605 0.0
C586 C 0.83838 0.16197 0.71413 0.0
C587 C 0.80393 0.16879 0.71151 0.0
C588 C 0.8552 0.14282 0.69099 0.0
C589 C 0.8377 0.13 0.66515 0.0
C590 C 0.80262 0.13415 0.66435 0.0
C591 C 0.78594 0.15344 0.68724 0.0
C592 C 0.86123 0.07484 0.59495 0.0
C593 C 0.89093 0.09366 0.58137 0.0
C594 C 0.84404 0.08621 0.62248 0.0
C595 C 0.85641 0.11638 0.63708 0.0
C596 C 0.8858 0.13534 0.62326 0.0
C597 C 0.90277 0.12423 0.59574 0.0
H598 H 0.88691 0.92682 0.7449 0.0
H599 H 0.9254 0.8214 0.73671 0.0
H600 H 0.92969 0.95229 0.70372 0.0
H601 H 0.96734 0.84673 0.69461 0.0
H602 H 0.01585 0.95039 0.60422 0.0
H603 H 0.01037 0.92702 0.66205 0.0
H604 H 0.9054 0.89629 0.65112 0.0
H605 H 0.91039 0.91987 0.59404 0.0
C606 C 0.90616 0.90962 0.73612 0.0
C607 C 0.90262 0.87222 0.74319 0.0
C608 C 0.9307 0.92416 0.71259 0.0
C609 C 0.95102 0.90115 0.6957 0.0
C610 C 0.95191 0.86486 0.70746 0.0
C611 C 0.92781 0.85039 0.7315 0.0
C612 C 0.99185 0.93784 0.61407 0.0
C613 C 0.96332 0.93725 0.59489 0.0
C614 C 0.98882 0.92474 0.64703 0.0
C615 C 0.95741 0.91057 0.66064 0.0
C616 C 0.92977 0.90755 0.64087 0.0
C617 C 0.93262 0.92095 0.60832 0.0
H618 H 0.265 0.16183 0.16842 0.0
H619 H 0.32903 0.25917 0.15409 0.0
H620 H 0.29868 0.13564 0.12679 0.0
H621 H 0.36213 0.23341 0.11096 0.0
H622 H 0.44009 0.15534 0.07401 0.0
H623 H 0.40275 0.18889 0.10758 0.0
H624 H 0.31547 0.13444 0.07175 0.0
H625 H 0.353 0.09965 0.03939 0.0
C626 C 0.28585 0.17803 0.15582 0.0
C627 C 0.29454 0.21248 0.16483 0.0
C628 C 0.30511 0.16303 0.13166 0.0
C629 C 0.33336 0.18225 0.11553 0.0
C630 C 0.34096 0.21754 0.12332 0.0
C631 C 0.32183 0.23245 0.14784 0.0
C632 C 0.41291 0.1507 0.07316 0.0
C633 C 0.3995 0.1245 0.05439 0.0
C634 C 0.39143 0.17021 0.09221 0.0
C635 C 0.356 0.16433 0.09258 0.0
C636 C 0.34262 0.13915 0.07267 0.0
C637 C 0.36412 0.11925 0.05402 0.0
H638 H 0.83702 0.35262 0.22823 0.0
H639 H 0.83475 0.28417 0.14929 0.0
H640 H 0.87884 0.39301 0.19688 0.0
H641 H 0.87635 0.32534 0.11739 0.0
H642 H 0.9667 0.39668 0.07312 0.0
H643 H 0.93474 0.35156 0.11103 0.0
H644 H 0.87865 0.43615 0.15062 0.0
H645 H 0.91077 0.48066 0.11339 0.0
C646 C 0.84542 0.34611 0.20413 0.0
C647 C 0.8321 0.31519 0.19124 0.0
C648 C 0.86946 0.36944 0.18604 0.0
C649 C 0.88095 0.36279 0.15436 0.0
C650 C 0.86843 0.33125 0.14178 0.0
C651 C 0.84433 0.30775 0.15999 0.0
C652 C 0.94852 0.40562 0.09087 0.0
C653 C 0.9417 0.44233 0.09062 0.0
C654 C 0.92968 0.37972 0.11218 0.0
C655 C 0.90381 0.39002 0.13389 0.0
C656 C 0.8985 0.427 0.13469 0.0
C657 C 0.91702 0.45267 0.11331 0.0
H658 H 0.70169 0.8685 0.21329 0.0
H659 H 0.66209 0.76898 0.1813 0.0
H660 H 0.65879 0.90125 0.18384 0.0
H661 H 0.62082 0.80154 0.15019 0.0
H662 H 0.53967 0.86181 0.1035 0.0
H663 H 0.57184 0.83343 0.14708 0.0
H664 H 0.6474 0.92128 0.13173 0.0
H665 H 0.6145 0.9503 0.09035 0.0
C666 C 0.68397 0.85372 0.1997 0.0
C667 C 0.68541 0.81628 0.19937 0.0
C668 C 0.65936 0.87244 0.1827 0.0
C669 C 0.63617 0.85425 0.16428 0.0
C670 C 0.63752 0.81662 0.1645 0.0
C671 C 0.66157 0.79789 0.18207 0.0
C672 C 0.56265 0.87545 0.11018 0.0
C673 C 0.57474 0.90799 0.09296 0.0
C674 C 0.58142 0.85897 0.13489 0.0
C675 C 0.61285 0.87448 0.1426 0.0
C676 C 0.6234 0.90836 0.12693 0.0
C677 C 0.60449 0.92498 0.10276 0.0
H678 H 0.22055 0.65832 0.124 0.0
H679 H 0.13913 0.72591 0.09498 0.0
H680 H 0.20123 0.61327 0.08846 0.0
H681 H 0.12021 0.68127 0.05907 0.0
H682 H 0.0989 0.53723 0.06875 0.0
H683 H 0.14124 0.57484 0.09289 0.0
H684 H 0.14467 0.65077 0.00737 0.0
H685 H 0.10245 0.61357 0.98345 0.0
C686 C 0.19895 0.66376 0.10943 0.0
C687 C 0.18126 0.69548 0.11188 0.0
C688 C 0.18799 0.63806 0.08928 0.0
C689 C 0.15966 0.64417 0.07085 0.0
C690 C 0.14258 0.67636 0.07266 0.0
C691 C 0.15312 0.70171 0.09327 0.0
C692 C 0.11015 0.56089 0.05443 0.0
C693 C 0.09706 0.57306 0.02466 0.0
C694 C 0.13424 0.58246 0.06826 0.0
C695 C 0.14529 0.61601 0.05218 0.0
C696 C 0.13601 0.62524 0.02032 0.0
C697 C 0.11204 0.60385 0.00661 0.0
H698 H 0.26664 0.84188 0.91291 0.0
H699 H 0.31071 0.92156 0.83901 0.0
H700 H 0.29907 0.8693 0.95407 0.0
H701 H 0.34336 0.94868 0.87955 0.0
H702 H 0.40366 0.99234 0.95347 0.0
H703 H 0.35061 0.97822 0.92883 0.0
H704 H 0.36001 0.86549 0.95948 0.0
H705 H 0.41243 0.87964 0.98476 0.0
C706 C 0.28217 0.86617 0.90581 0.0
C707 C 0.28649 0.87958 0.87292 0.0
C708 C 0.30099 0.88164 0.92922 0.0
C709 C 0.32427 0.91077 0.92001 0.0
C710 C 0.32559 0.92644 0.88763 0.0
C711 C 0.30696 0.91089 0.86431 0.0
C712 C 0.39398 0.96467 0.95574 0.0
C713 C 0.4127 0.93704 0.97056 0.0
C714 C 0.36357 0.95658 0.94151 0.0
C715 C 0.35123 0.9207 0.94183 0.0
C716 C 0.36854 0.89347 0.95898 0.0
C717 C 0.39892 0.90155 0.97319 0.0
H718 H 0.16501 0.23463 0.84898 0.0
H719 H 0.23589 0.32648 0.8325 0.0
H720 H 0.13581 0.26353 0.89281 0.0
H721 H 0.2061 0.35583 0.87426 0.0
H722 H 0.15912 0.39877 0.96199 0.0
H723 H 0.19219 0.36075 0.92845 0.0
H724 H 0.09932 0.31013 0.89984 0.0
H725 H 0.06671 0.34653 0.93472 0.0
C726 C 0.17444 0.2608 0.85477 0.0
C727 C 0.20267 0.27819 0.83705 0.0
C728 C 0.15757 0.27759 0.87971 0.0
C729 C 0.16834 0.3123 0.88716 0.0
C730 C 0.19722 0.32896 0.86995 0.0
C731 C 0.21422 0.31209 0.84554 0.0
C732 C 0.14588 0.37929 0.94871 0.0
C733 C 0.11031 0.37587 0.9509 0.0
C734 C 0.16479 0.35753 0.9293 0.0
C735 C 0.14855 0.33237 0.911 0.0
C736 C 0.11294 0.32857 0.91386 0.0
C737 C 0.09413 0.34979 0.93372 0.0
H738 H 0.6527 0.16451 0.76326 0.0
H739 H 0.69759 0.19506 0.8505 0.0
H740 H 0.61065 0.12508 0.79688 0.0
H741 H 0.65502 0.15674 0.88387 0.0
H742 H 0.55356 0.10984 0.93325 0.0
H743 H 0.58642 0.15307 0.89411 0.0
H744 H 0.61832 0.06596 0.83945 0.0
H745 H 0.58656 0.0228 0.87918 0.0
C746 C 0.65344 0.16306 0.78956 0.0
C747 C 0.67869 0.18277 0.80416 0.0
C748 C 0.62935 0.14052 0.80877 0.0
C749 C 0.62934 0.13806 0.84303 0.0
C750 C 0.65412 0.15837 0.85757 0.0
C751 C 0.67869 0.18009 0.83841 0.0
C752 C 0.56657 0.10013 0.91221 0.0
C753 C 0.56704 0.06301 0.90896 0.0
C754 C 0.58572 0.12479 0.89004 0.0
C755 C 0.60505 0.11289 0.86375 0.0
C756 C 0.60352 0.07599 0.85928 0.0
C757 C 0.58518 0.0513 0.88191 0.0
H758 H 0.8669 0.71444 0.77837 0.0
H759 H 0.78778 0.63936 0.82172 0.0
H760 H 0.90906 0.68101 0.80778 0.0
H761 H 0.82975 0.60668 0.8525 0.0
H762 H 0.96047 0.647 0.90352 0.0
H763 H 0.92595 0.67364 0.86146 0.0
H764 H 0.87674 0.56952 0.85324 0.0
H765 H 0.91039 0.54329 0.89642 0.0
C766 C 0.85853 0.69069 0.79423 0.0
C767 C 0.82398 0.67969 0.79804 0.0
C768 C 0.88272 0.67159 0.81122 0.0
C769 C 0.87293 0.64131 0.83286 0.0
C770 C 0.83842 0.62956 0.83573 0.0
C771 C 0.81423 0.64841 0.81829 0.0
C772 C 0.94298 0.62962 0.89209 0.0
C773 C 0.93781 0.5932 0.90358 0.0
C774 C 0.92307 0.64488 0.86789 0.0
C775 C 0.89794 0.62389 0.85433 0.0
C776 C 0.89508 0.58673 0.8638 0.0
C777 C 0.91465 0.5716 0.88829 0.0
H778 H 0.19991 0.36266 0.21915 0.0
H779 H 0.15427 0.26652 0.18583 0.0
H780 H 0.15826 0.39875 0.19098 0.0
H781 H 0.11415 0.30231 0.1563 0.0
H782 H 0.03641 0.36719 0.11149 0.0
H783 H 0.06686 0.33761 0.15564 0.0
H784 H 0.14778 0.41971 0.13821 0.0
H785 H 0.11669 0.45004 0.09596 0.0
C786 C 0.1811 0.34931 0.20564 0.0
C787 C 0.18054 0.31186 0.20443 0.0
C788 C 0.15721 0.36994 0.18945 0.0
C789 C 0.1327 0.3536 0.17116 0.0
C790 C 0.13196 0.31596 0.17062 0.0
C791 C 0.15536 0.29538 0.18724 0.0
C792 C 0.06023 0.3794 0.11779 0.0
C793 C 0.07445 0.41049 0.09964 0.0
C794 C 0.07793 0.36225 0.14288 0.0
C795 C 0.11036 0.3756 0.15 0.0
C796 C 0.12297 0.40847 0.1337 0.0
C797 C 0.10512 0.42581 0.10908 0.0
H798 H 0.18064 0.72268 0.8521 0.0
H799 H 0.16457 0.65758 0.77237 0.0
H800 H 0.14012 0.68327 0.88687 0.0
H801 H 0.1236 0.61846 0.80727 0.0
H802 H 0.03339 0.5714 0.88567 0.0
H803 H 0.06285 0.61848 0.84674 0.0
H804 H 0.15072 0.61476 0.90462 0.0
H805 H 0.12265 0.56813 0.94197 0.0
C806 C 0.16807 0.70037 0.84177 0.0
C807 C 0.17629 0.69311 0.80951 0.0
C808 C 0.14473 0.67788 0.86169 0.0
C809 C 0.12853 0.64785 0.84976 0.0
C810 C 0.13532 0.64162 0.81703 0.0
C811 C 0.15909 0.66384 0.79718 0.0
C812 C 0.05895 0.58078 0.88989 0.0
C813 C 0.07574 0.56556 0.91673 0.0
C814 C 0.0758 0.60761 0.86769 0.0
C815 C 0.10908 0.62041 0.87279 0.0
C816 C 0.1251 0.6058 0.90009 0.0
C817 C 0.10891 0.57873 0.92141 0.0
H818 H 0.36595 0.22365 0.78445 0.0
H819 H 0.28955 0.14206 0.82119 0.0
H820 H 0.40835 0.19195 0.8151 0.0
H821 H 0.33162 0.11101 0.85308 0.0
H822 H 0.4142 0.04943 0.89612 0.0
H823 H 0.38041 0.07678 0.85361 0.0
H824 H 0.4238 0.18161 0.8692 0.0
H825 H 0.45859 0.15391 0.91067 0.0
C826 C 0.35819 0.19888 0.79912 0.0
C827 C 0.3243 0.18547 0.80056 0.0
C828 C 0.38253 0.18076 0.81686 0.0
C829 C 0.37356 0.14896 0.83684 0.0
C830 C 0.33975 0.13508 0.83759 0.0
C831 C 0.31547 0.15301 0.81949 0.0
C832 C 0.4172 0.07822 0.88977 0.0
C833 C 0.43891 0.09956 0.90688 0.0
C834 C 0.39748 0.09399 0.86567 0.0
C835 C 0.39863 0.13156 0.8584 0.0
C836 C 0.42225 0.15258 0.8739 0.0
C837 C 0.44234 0.13671 0.89773 0.0
H838 H 0.79226 0.34666 0.87711 0.0
H839 H 0.87321 0.27813 0.90551 0.0
H840 H 0.81211 0.39128 0.91281 0.0
H841 H 0.89262 0.32235 0.94168 0.0
H842 H 0.91507 0.46623 0.93298 0.0
H843 H 0.87298 0.42889 0.90823 0.0
H844 H 0.86772 0.35307 0.9939 0.0
H845 H 0.90938 0.39039 0.01871 0.0
C846 C 0.81389 0.34093 0.89156 0.0
C847 C 0.83128 0.30906 0.8889 0.0
C848 C 0.82514 0.36638 0.91182 0.0
C849 C 0.85346 0.35988 0.93016 0.0
C850 C 0.87027 0.32755 0.92813 0.0
C851 C 0.85945 0.30245 0.90738 0.0
C852 C 0.90346 0.44268 0.94718 0.0
C853 C 0.91588 0.43053 0.97727 0.0
C854 C 0.87955 0.42124 0.933 0.0
C855 C 0.86806 0.38779 0.94897 0.0
C856 C 0.87677 0.37851 0.98103 0.0
C857 C 0.90043 0.3999 0.99519 0.0
H858 H 0.75211 0.81236 0.85093 0.0
H859 H 0.66105 0.75184 0.83155 0.0
H860 H 0.72053 0.84166 0.8926 0.0
H861 H 0.62906 0.78226 0.87203 0.0
H862 H 0.58117 0.82931 0.95897 0.0
H863 H 0.6169 0.79249 0.92676 0.0
H864 H 0.68075 0.88672 0.89331 0.0
H865 H 0.64594 0.92302 0.92658 0.0
C866 C 0.72538 0.8051 0.8558 0.0
C867 C 0.70901 0.77999 0.83783 0.0
C868 C 0.70717 0.82214 0.87948 0.0
C869 C 0.67205 0.81488 0.88538 0.0
C870 C 0.65609 0.78837 0.86847 0.0
C871 C 0.67443 0.77095 0.84512 0.0
C872 C 0.60298 0.84208 0.94488 0.0
C873 C 0.61064 0.87913 0.94525 0.0
C874 C 0.62342 0.82098 0.92629 0.0
C875 C 0.65175 0.83653 0.90729 0.0
C876 C 0.65959 0.87355 0.90807 0.0
C877 C 0.63943 0.89452 0.92699 0.0
H878 H 0.84664 0.76872 0.1536 0.0
H879 H 0.77475 0.67762 0.16825 0.0
H880 H 0.87656 0.73962 0.11025 0.0
H881 H 0.80515 0.64812 0.12706 0.0
H882 H 0.94569 0.65567 0.06965 0.0
H883 H 0.91273 0.69245 0.10392 0.0
H884 H 0.82018 0.6432 0.07315 0.0
H885 H 0.85355 0.60481 0.04024 0.0
C886 C 0.83712 0.7427 0.1475 0.0
C887 C 0.80844 0.72553 0.16461 0.0
C888 C 0.85441 0.72579 0.12285 0.0
C889 C 0.84353 0.69122 0.11507 0.0
C890 C 0.81417 0.67486 0.13163 0.0
C891 C 0.79681 0.69182 0.15574 0.0
C892 C 0.91827 0.65277 0.07008 0.0
C893 C 0.90223 0.62698 0.05247 0.0
C894 C 0.89927 0.67422 0.08957 0.0
C895 C 0.86362 0.67094 0.09162 0.0
C896 C 0.84758 0.64603 0.07292 0.0
C897 C 0.86665 0.62403 0.05389 0.0
H898 H 0.31222 0.81037 0.15092 0.0
H899 H 0.35721 0.84278 0.23746 0.0
H900 H 0.35463 0.84826 0.11695 0.0
H901 H 0.3991 0.88183 0.20321 0.0
H902 H 0.42318 0.98277 0.11946 0.0
H903 H 0.39133 0.94025 0.15971 0.0
H904 H 0.42324 0.85206 0.10647 0.0
H905 H 0.45622 0.89466 0.06683 0.0
C906 C 0.33111 0.82565 0.16273 0.0
C907 C 0.33117 0.8236 0.19698 0.0
C908 C 0.3556 0.84715 0.14322 0.0
C909 C 0.38037 0.86789 0.15736 0.0
C910 C 0.38041 0.86606 0.1916 0.0
C911 C 0.35642 0.84373 0.21119 0.0
C912 C 0.42452 0.95418 0.11713 0.0
C913 C 0.44275 0.94201 0.09035 0.0
C914 C 0.40612 0.92985 0.14007 0.0
C915 C 0.40459 0.89281 0.13619 0.0
C916 C 0.42393 0.88045 0.11011 0.0
C917 C 0.44315 0.90476 0.08764 0.0
H918 H 0.70064 0.08288 0.16084 0.0
H919 H 0.7443 0.16285 0.08695 0.0
H920 H 0.66808 0.05564 0.12031 0.0
H921 H 0.71203 0.13524 0.04581 0.0
H922 H 0.60764 0.01194 0.0464 0.0
H923 H 0.66071 0.02612 0.07105 0.0
H924 H 0.65119 0.13883 0.04038 0.0
H925 H 0.59878 0.12462 0.01515 0.0
C926 C 0.70429 0.09364 0.13556 0.0
C927 C 0.72459 0.12509 0.12697 0.0
C928 C 0.68574 0.07799 0.11223 0.0
C929 C 0.68699 0.09366 0.07986 0.0
C930 C 0.71014 0.12291 0.07066 0.0
C931 C 0.72887 0.13849 0.09408 0.0
C932 C 0.61731 0.03961 0.04414 0.0
C933 C 0.59855 0.06721 0.02935 0.0
C934 C 0.64772 0.04774 0.05837 0.0
C935 C 0.66003 0.08364 0.05806 0.0
C936 C 0.64269 0.11083 0.04089 0.0
C937 C 0.61232 0.10271 0.02671 0.0
H938 H 0.58693 0.68093 0.76514 0.0
H939 H 0.62009 0.57267 0.76164 0.0
H940 H 0.54379 0.65969 0.80765 0.0
H941 H 0.57594 0.55124 0.80312 0.0
H942 H 0.49249 0.54772 0.89703 0.0
H943 H 0.49887 0.57174 0.83944 0.0
H944 H 0.5981 0.61689 0.85586 0.0
H945 H 0.5925 0.59196 0.9127 0.0
C946 C 0.5831 0.6522 0.77149 0.0
C947 C 0.60704 0.62839 0.76085 0.0
C948 C 0.55835 0.6401 0.79578 0.0
C949 C 0.55714 0.60407 0.80873 0.0
C950 C 0.57647 0.57915 0.79322 0.0
C951 C 0.60174 0.59136 0.76951 0.0
C952 C 0.51526 0.56364 0.88843 0.0
C953 C 0.54229 0.56777 0.90899 0.0
C954 C 0.51876 0.57726 0.85565 0.0
C955 C 0.54887 0.59596 0.8437 0.0
C956 C 0.57458 0.60261 0.86493 0.0
C957 C 0.57148 0.58831 0.89727 0.0
H958 H 0.33777 0.73621 0.83137 0.0
H959 H 0.32425 0.64327 0.77731 0.0
H960 H 0.37477 0.70305 0.86726 0.0
H961 H 0.36183 0.60993 0.81339 0.0
H962 H 0.45788 0.64492 0.91569 0.0
H963 H 0.42988 0.67561 0.8704 0.0
H964 H 0.35852 0.58485 0.87097 0.0
H965 H 0.38663 0.55397 0.91589 0.0
C966 C 0.34297 0.70876 0.82691 0.0
C967 C 0.32781 0.69234 0.80155 0.0
C968 C 0.36449 0.6898 0.84738 0.0
C969 C 0.37136 0.65379 0.84324 0.0
C970 C 0.35687 0.63755 0.81739 0.0
C971 C 0.33547 0.65669 0.79664 0.0
C972 C 0.43654 0.63124 0.90587 0.0
C973 C 0.42421 0.59718 0.91989 0.0
C974 C 0.42038 0.64893 0.87998 0.0
C975 C 0.39163 0.63294 0.86733 0.0
C976 C 0.38065 0.59795 0.87998 0.0
C977 C 0.3967 0.58032 0.90595 0.0
H978 H 0.40069 0.39265 0.78869 0.0
H979 H 0.30159 0.41805 0.82646 0.0
H980 H 0.42594 0.41505 0.83621 0.0
H981 H 0.32686 0.44071 0.87411 0.0
H982 H 0.43777 0.38009 0.94392 0.0
H983 H 0.40784 0.37584 0.89434 0.0
H984 H 0.37791 0.4854 0.89695 0.0
H985 H 0.40826 0.49008 0.94678 0.0
C986 C 0.38465 0.40519 0.80612 0.0
C987 C 0.34936 0.40392 0.80399 0.0
C988 C 0.39895 0.41742 0.83354 0.0
C989 C 0.37809 0.4287 0.85897 0.0
C990 C 0.34333 0.43203 0.85478 0.0
C991 C 0.32898 0.41953 0.82738 0.0
C992 C 0.42424 0.40312 0.93456 0.0
C993 C 0.42622 0.43578 0.949 0.0
C994 C 0.40745 0.40077 0.90591 0.0
C995 C 0.39181 0.43077 0.89137 0.0
C996 C 0.39047 0.4622 0.90748 0.0
C997 C 0.40764 0.46471 0.93611 0.0
H998 H 0.65538 0.33281 0.76916 0.0
H999 H 0.74889 0.34936 0.81682 0.0
H1000 H 0.62554 0.36593 0.80966 0.0
H1001 H 0.71915 0.38183 0.85726 0.0
H1002 H 0.65501 0.45425 0.91782 0.0
H1003 H 0.68575 0.43453 0.86999 0.0
H1004 H 0.61219 0.34609 0.86832 0.0
H1005 H 0.58158 0.36548 0.91559 0.0
C1006 C 0.66972 0.3444 0.78765 0.0
C1007 C 0.70432 0.33816 0.79007 0.0
C1008 C 0.65262 0.36302 0.81101 0.0
C1009 C 0.66995 0.3759 0.83693 0.0
C1010 C 0.70512 0.37232 0.83759 0.0
C1011 C 0.72211 0.35358 0.81444 0.0
C1012 C 0.64553 0.43048 0.90735 0.0
C1013 C 0.61583 0.41145 0.92067 0.0
C1014 C 0.66304 0.41933 0.87988 0.0
C1015 C 0.651 0.38916 0.86508 0.0
C1016 C 0.62161 0.36998 0.87865 0.0
C1017 C 0.60432 0.38089 0.9061 0.0
H1018 H 0.68282 0.35926 0.2248 0.0
H1019 H 0.67168 0.26717 0.16925 0.0
H1020 H 0.64455 0.39215 0.18923 0.0
H1021 H 0.63395 0.29995 0.13379 0.0
H1022 H 0.54955 0.35712 0.08624 0.0
H1023 H 0.57822 0.32613 0.13093 0.0
H1024 H 0.64756 0.41832 0.13212 0.0
H1025 H 0.61878 0.44948 0.08782 0.0
C1026 C 0.67198 0.34591 0.20524 0.0
C1027 C 0.6805 0.31064 0.19979 0.0
C1028 C 0.65018 0.36481 0.18478 0.0
C1029 C 0.63616 0.34872 0.15862 0.0
C1030 C 0.64387 0.31305 0.15392 0.0
C1031 C 0.66579 0.29432 0.17415 0.0
C1032 C 0.57057 0.37104 0.09634 0.0
C1033 C 0.58214 0.40562 0.083 0.0
C1034 C 0.58713 0.35316 0.12187 0.0
C1035 C 0.61551 0.36951 0.13484 0.0
C1036 C 0.62573 0.40494 0.12286 0.0
C1037 C 0.60929 0.42275 0.09725 0.0
H1038 H 0.70686 0.58313 0.17433 0.0
H1039 H 0.60962 0.61045 0.21512 0.0
H1040 H 0.67947 0.56088 0.12767 0.0
H1041 H 0.58219 0.58839 0.16856 0.0
H1042 H 0.56606 0.62254 0.06163 0.0
H1043 H 0.59653 0.62634 0.11091 0.0
H1044 H 0.62957 0.51828 0.10509 0.0
H1045 H 0.59877 0.51408 0.05547 0.0
C1046 C 0.6794 0.58216 0.17429 0.0
C1047 C 0.66019 0.59827 0.1982 0.0
C1048 C 0.66382 0.56989 0.14743 0.0
C1049 C 0.62898 0.57393 0.14429 0.0
C1050 C 0.60925 0.58558 0.17035 0.0
C1051 C 0.62478 0.59758 0.19724 0.0
C1052 C 0.58034 0.59974 0.07025 0.0
C1053 C 0.57921 0.56763 0.0549 0.0
C1054 C 0.59739 0.6018 0.09878 0.0
C1055 C 0.61414 0.57205 0.11234 0.0
C1056 C 0.61613 0.54124 0.09539 0.0
C1057 C 0.5987 0.53901 0.06687 0.0
H1058 H 0.3555 0.67625 0.23282 0.0
H1059 H 0.26023 0.65298 0.19045 0.0
H1060 H 0.38477 0.6423 0.19251 0.0
H1061 H 0.2893 0.61974 0.1502 0.0
H1062 H 0.35313 0.5485 0.08853 0.0
H1063 H 0.32401 0.56845 0.13712 0.0
H1064 H 0.39464 0.66024 0.13318 0.0
H1065 H 0.42364 0.64064 0.08514 0.0
C1066 C 0.34072 0.66291 0.21564 0.0
C1067 C 0.30574 0.66753 0.21451 0.0
C1068 C 0.35745 0.64385 0.19236 0.0
C1069 C 0.33936 0.62894 0.16786 0.0
C1070 C 0.30394 0.63081 0.16874 0.0
C1071 C 0.28732 0.64997 0.19178 0.0
C1072 C 0.36227 0.57307 0.0979 0.0
C1073 C 0.39071 0.59295 0.08281 0.0
C1074 C 0.34573 0.58434 0.12583 0.0
C1075 C 0.35748 0.61551 0.13931 0.0
C1076 C 0.38554 0.63558 0.12393 0.0
C1077 C 0.40187 0.62453 0.09603 0.0
H1078 H 0.38066 0.42122 0.24194 0.0
H1079 H 0.41764 0.315 0.23456 0.0
H1080 H 0.42427 0.44588 0.20111 0.0
H1081 H 0.46037 0.33952 0.19278 0.0
H1082 H 0.41172 0.41143 0.08925 0.0
H1083 H 0.40482 0.38456 0.14542 0.0
H1084 H 0.50395 0.42761 0.16492 0.0
H1085 H 0.51158 0.45376 0.10793 0.0
C1086 C 0.39965 0.40364 0.23331 0.0
C1087 C 0.3957 0.36631 0.24079 0.0
C1088 C 0.42464 0.4177 0.21001 0.0
C1089 C 0.4451 0.39435 0.19372 0.0
C1090 C 0.44498 0.35793 0.20533 0.0
C1091 C 0.42046 0.34395 0.22917 0.0
C1092 C 0.43241 0.41432 0.10522 0.0
C1093 C 0.46196 0.43483 0.09453 0.0
C1094 C 0.42855 0.39893 0.13718 0.0
C1095 C 0.45387 0.40437 0.15909 0.0
C1096 C 0.48431 0.4231 0.14817 0.0
C1097 C 0.48856 0.4379 0.11574 0.0
H1098 H 0.77116 0.66721 0.66699 0.0
H1099 H 0.83611 0.76386 0.65239 0.0
H1100 H 0.80365 0.64108 0.62454 0.0
H1101 H 0.86801 0.73818 0.6084 0.0
H1102 H 0.94389 0.65939 0.5685 0.0
H1103 H 0.90797 0.69345 0.60298 0.0
H1104 H 0.81887 0.64026 0.56927 0.0
H1105 H 0.855 0.60492 0.53606 0.0
C1106 C 0.79198 0.68327 0.65418 0.0
C1107 C 0.80122 0.71754 0.66331 0.0
C1108 C 0.81055 0.66832 0.62953 0.0
C1109 C 0.83866 0.68737 0.61297 0.0
C1110 C 0.84692 0.72243 0.62102 0.0
C1111 C 0.82848 0.7373 0.64605 0.0
C1112 C 0.91661 0.6552 0.56826 0.0
C1113 C 0.90229 0.6291 0.54991 0.0
C1114 C 0.89593 0.67497 0.58787 0.0
C1115 C 0.86041 0.66949 0.58921 0.0
C1116 C 0.84612 0.64462 0.56951 0.0
C1117 C 0.86682 0.62442 0.55034 0.0
H1118 H 0.33557 0.78415 0.64836 0.0
H1119 H 0.34212 0.84867 0.72977 0.0
H1120 H 0.37835 0.82466 0.61721 0.0
H1121 H 0.38513 0.8882 0.69929 0.0
H1122 H 0.41768 0.97837 0.61833 0.0
H1123 H 0.38568 0.93339 0.65508 0.0
H1124 H 0.43718 0.84909 0.61004 0.0
H1125 H 0.46914 0.89483 0.57267 0.0
C1126 C 0.34638 0.80666 0.65977 0.0
C1127 C 0.33492 0.81333 0.69146 0.0
C1128 C 0.37115 0.82978 0.64199 0.0
C1129 C 0.38517 0.86007 0.65552 0.0
C1130 C 0.37458 0.86571 0.68769 0.0
C1131 C 0.34983 0.84286 0.70528 0.0
C1132 C 0.42313 0.95029 0.61706 0.0
C1133 C 0.44637 0.94026 0.59293 0.0
C1134 C 0.40461 0.92432 0.63811 0.0
C1135 C 0.40849 0.88734 0.63556 0.0
C1136 C 0.43319 0.87725 0.61254 0.0
C1137 C 0.45206 0.90346 0.59154 0.0
H1138 H 0.20247 0.36908 0.71368 0.0
H1139 H 0.16031 0.26951 0.684 0.0
H1140 H 0.15975 0.40219 0.68426 0.0
H1141 H 0.11921 0.30234 0.65293 0.0
H1142 H 0.03854 0.3633 0.60624 0.0
H1143 H 0.07085 0.33514 0.6498 0.0
H1144 H 0.14771 0.42154 0.63218 0.0
H1145 H 0.1147 0.45039 0.59081 0.0
C1146 C 0.18422 0.35435 0.70062 0.0
C1147 C 0.18489 0.31679 0.70094 0.0
C1148 C 0.15971 0.37327 0.68363 0.0
C1149 C 0.13584 0.35515 0.66586 0.0
C1150 C 0.13644 0.31741 0.66673 0.0
C1151 C 0.16039 0.29851 0.68428 0.0
C1152 C 0.06185 0.3767 0.6124 0.0
C1153 C 0.07425 0.40875 0.59454 0.0
C1154 C 0.08071 0.36033 0.63711 0.0
C1155 C 0.11253 0.37545 0.64419 0.0
C1156 C 0.12342 0.40891 0.62789 0.0
C1157 C 0.10443 0.42544 0.60371 0.0
H1158 H 0.71845 0.16392 0.62018 0.0
H1159 H 0.63503 0.23087 0.59606 0.0
H1160 H 0.69849 0.12008 0.58382 0.0
H1161 H 0.61541 0.1874 0.55935 0.0
H1162 H 0.59864 0.04167 0.56449 0.0
H1163 H 0.64006 0.08021 0.58882 0.0
H1164 H 0.63768 0.15923 0.50601 0.0
H1165 H 0.59661 0.12087 0.48173 0.0
C1166 C 0.69627 0.16954 0.6065 0.0
C1167 C 0.67822 0.20072 0.6106 0.0
C1168 C 0.68492 0.14449 0.58589 0.0
C1169 C 0.65578 0.15068 0.56863 0.0
C1170 C 0.63836 0.1824 0.57202 0.0
C1171 C 0.64932 0.20709 0.5931 0.0
C1172 C 0.60838 0.06636 0.55075 0.0
C1173 C 0.59399 0.07883 0.5217 0.0
C1174 C 0.63192 0.08847 0.5647 0.0
C1175 C 0.64114 0.12297 0.54955 0.0
C1176 C 0.6304 0.13298 0.51832 0.0
C1177 C 0.60706 0.11097 0.50442 0.0
H1178 H 0.76557 0.34207 0.4141 0.0
H1179 H 0.81046 0.42039 0.33944 0.0
H1180 H 0.79798 0.36998 0.45501 0.0
H1181 H 0.84314 0.44793 0.37972 0.0
H1182 H 0.90328 0.49261 0.45338 0.0
H1183 H 0.85045 0.47836 0.42838 0.0
H1184 H 0.85862 0.36601 0.46123 0.0
H1185 H 0.91079 0.38031 0.48684 0.0
C1186 C 0.7813 0.36616 0.40674 0.0
C1187 C 0.78583 0.37903 0.37373 0.0
C1188 C 0.80013 0.3819 0.43002 0.0
C1189 C 0.82363 0.41078 0.42056 0.0
C1190 C 0.82521 0.42591 0.38801 0.0
C1191 C 0.80656 0.4101 0.36483 0.0
C1192 C 0.89337 0.46502 0.45604 0.0
C1193 C 0.91168 0.43752 0.47161 0.0
C1194 C 0.86309 0.45684 0.44159 0.0
C1195 C 0.85047 0.421 0.44243 0.0
C1196 C 0.86736 0.39397 0.4603 0.0
C1197 C 0.89759 0.40213 0.47472 0.0
H1198 H 0.74712 0.80674 0.34847 0.0
H1199 H 0.65294 0.75124 0.33037 0.0
H1200 H 0.71809 0.83826 0.39002 0.0
H1201 H 0.62338 0.78381 0.37141 0.0
H1202 H 0.58268 0.83241 0.46163 0.0
H1203 H 0.61451 0.79437 0.42738 0.0
H1204 H 0.68028 0.886 0.39089 0.0
H1205 H 0.64901 0.92386 0.42595 0.0
C1206 C 0.72017 0.801 0.35366 0.0
C1207 C 0.70224 0.77662 0.33605 0.0
C1208 C 0.70345 0.81938 0.37728 0.0
C1209 C 0.66824 0.81421 0.38372 0.0
C1210 C 0.65056 0.78837 0.36727 0.0
C1211 C 0.66745 0.76962 0.34376 0.0
C1212 C 0.60409 0.84447 0.44646 0.0
C1213 C 0.61321 0.88132 0.44651 0.0
C1214 C 0.62224 0.8226 0.42665 0.0
C1215 C 0.64993 0.837 0.4062 0.0
C1216 C 0.65943 0.87375 0.40668 0.0
C1217 C 0.64139 0.89559 0.42669 0.0
H1218 H 0.15414 0.66335 0.26352 0.0
H1219 H 0.1975 0.69499 0.35111 0.0
H1220 H 0.11239 0.62325 0.29685 0.0
H1221 H 0.15515 0.65602 0.3842 0.0
H1222 H 0.05288 0.60787 0.43206 0.0
H1223 H 0.08592 0.65131 0.39328 0.0
H1224 H 0.12093 0.56428 0.34018 0.0
H1225 H 0.08897 0.52089 0.37959 0.0
C1226 C 0.15459 0.662 0.28984 0.0
C1227 C 0.17934 0.68224 0.30462 0.0
C1228 C 0.13068 0.63907 0.30889 0.0
C1229 C 0.13029 0.63671 0.34316 0.0
C1230 C 0.15455 0.65753 0.35789 0.0
C1231 C 0.17898 0.67965 0.3389 0.0
C1232 C 0.06662 0.59817 0.41142 0.0
C1233 C 0.06786 0.561 0.40855 0.0
C1234 C 0.08589 0.62298 0.38947 0.0
C1235 C 0.10612 0.6112 0.36372 0.0
C1236 C 0.10544 0.57422 0.35959 0.0
C1237 C 0.08698 0.54939 0.38204 0.0
H1238 H 0.28001 0.13508 0.32452 0.0
H1239 H 0.36016 0.20691 0.27822 0.0
H1240 H 0.32159 0.10237 0.35572 0.0
H1241 H 0.40198 0.17328 0.30797 0.0
H1242 H 0.45453 0.14181 0.40323 0.0
H1243 H 0.41967 0.16757 0.36116 0.0
H1244 H 0.36741 0.06404 0.35785 0.0
H1245 H 0.40139 0.03874 0.40118 0.0
C1246 C 0.30661 0.14336 0.32053 0.0
C1247 C 0.31679 0.1738 0.29934 0.0
C1248 C 0.33058 0.12447 0.33821 0.0
C1249 C 0.36529 0.1353 0.33463 0.0
C1250 C 0.37549 0.16463 0.312 0.0
C1251 C 0.35151 0.18384 0.2948 0.0
C1252 C 0.4362 0.12432 0.39296 0.0
C1253 C 0.43039 0.0884 0.40585 0.0
C1254 C 0.41613 0.13909 0.36869 0.0
C1255 C 0.39016 0.11808 0.3564 0.0
C1256 C 0.38644 0.0813 0.36738 0.0
C1257 C 0.40618 0.06669 0.39198 0.0
H1258 H 0.65853 0.77284 0.68769 0.0
H1259 H 0.71209 0.86922 0.71175 0.0
H1260 H 0.61975 0.80906 0.65673 0.0
H1261 H 0.67204 0.90588 0.68192 0.0
H1262 H 0.62866 0.95205 0.58568 0.0
H1263 H 0.6606 0.92237 0.62783 0.0
H1264 H 0.57492 0.8483 0.65572 0.0
H1265 H 0.54334 0.87712 0.61204 0.0
C1266 C 0.6617 0.80187 0.68678 0.0
C1267 C 0.68864 0.81817 0.70186 0.0
C1268 C 0.63912 0.82275 0.66928 0.0
C1269 C 0.64255 0.86056 0.66674 0.0
C1270 C 0.66888 0.87687 0.68285 0.0
C1271 C 0.69183 0.85589 0.70002 0.0
C1272 C 0.61628 0.92981 0.6011 0.0
C1273 C 0.58365 0.91647 0.59494 0.0
C1274 C 0.63465 0.91285 0.62558 0.0
C1275 C 0.6207 0.88239 0.64492 0.0
C1276 C 0.58689 0.87103 0.64067 0.0
C1277 C 0.56861 0.88776 0.61581 0.0
H1278 H 0.65055 0.23153 0.32882 0.0
H1279 H 0.70015 0.13911 0.29688 0.0
H1280 H 0.60678 0.19195 0.35895 0.0
H1281 H 0.65866 0.09942 0.32878 0.0
H1282 H 0.57576 0.028 0.3748 0.0
H1283 H 0.60748 0.07193 0.33655 0.0
H1284 H 0.58977 0.15386 0.40267 0.0
H1285 H 0.55512 0.11032 0.43877 0.0
C1286 C 0.65231 0.20267 0.32862 0.0
C1287 C 0.6788 0.1885 0.31038 0.0
C1288 C 0.62721 0.17974 0.34609 0.0
C1289 C 0.62841 0.14188 0.34656 0.0
C1290 C 0.65553 0.12808 0.32856 0.0
C1291 C 0.6799 0.15096 0.31042 0.0
C1292 C 0.57744 0.05585 0.38026 0.0
C1293 C 0.56256 0.06583 0.40951 0.0
C1294 C 0.59652 0.08108 0.35874 0.0
C1295 C 0.60273 0.11676 0.36661 0.0
C1296 C 0.58587 0.12707 0.39514 0.0
C1297 C 0.56574 0.10203 0.41604 0.0
H1298 H 0.84819 0.73467 0.31896 0.0
H1299 H 0.81011 0.6356 0.28499 0.0
H1300 H 0.89055 0.70231 0.34872 0.0
H1301 H 0.8542 0.6031 0.31288 0.0
H1302 H 0.90107 0.55249 0.40442 0.0
H1303 H 0.86739 0.5814 0.36369 0.0
H1304 H 0.94014 0.67201 0.35074 0.0
H1305 H 0.9729 0.64371 0.39385 0.0
C1306 C 0.84927 0.7059 0.3175 0.0
C1307 C 0.82556 0.68754 0.30005 0.0
C1308 C 0.87397 0.6873 0.33424 0.0
C1309 C 0.87618 0.64985 0.3334 0.0
C1310 C 0.85302 0.63173 0.31486 0.0
C1311 C 0.82771 0.6503 0.29876 0.0
C1312 C 0.91032 0.57839 0.39264 0.0
C1313 C 0.93931 0.59619 0.40313 0.0
C1314 C 0.89095 0.59499 0.36882 0.0
C1315 C 0.90034 0.62965 0.35417 0.0
C1316 C 0.93133 0.64588 0.36225 0.0
C1317 C 0.9505 0.62943 0.38665 0.0
H1318 H 0.37282 0.77512 0.40724 0.0
H1319 H 0.29035 0.84381 0.38412 0.0
H1320 H 0.39301 0.81749 0.44466 0.0
H1321 H 0.31079 0.88646 0.42126 0.0
H1322 H 0.41506 0.88357 0.52155 0.0
H1323 H 0.37282 0.84571 0.49811 0.0
H1324 H 0.36877 0.92543 0.41602 0.0
H1325 H 0.4113 0.96336 0.43943 0.0
C1326 C 0.35883 0.79901 0.4106 0.0
C1327 C 0.33009 0.80624 0.39309 0.0
C1328 C 0.37009 0.82305 0.43212 0.0
C1329 C 0.35311 0.85496 0.43597 0.0
C1330 C 0.32403 0.86189 0.41885 0.0
C1331 C 0.31241 0.83752 0.39777 0.0
C1332 C 0.40405 0.89367 0.49918 0.0
C1333 C 0.41694 0.92577 0.48172 0.0
C1334 C 0.38002 0.87198 0.48579 0.0
C1335 C 0.36845 0.88234 0.45496 0.0
C1336 C 0.37754 0.91688 0.43982 0.0
C1337 C 0.40175 0.93864 0.45324 0.0
H1338 H 0.24681 0.30465 0.35324 0.0
H1339 H 0.15398 0.24787 0.33298 0.0
H1340 H 0.21625 0.33466 0.39506 0.0
H1341 H 0.12302 0.27903 0.37371 0.0
H1342 H 0.07689 0.32728 0.46094 0.0
H1343 H 0.11129 0.28929 0.42868 0.0
H1344 H 0.17803 0.38137 0.39552 0.0
H1345 H 0.14449 0.41885 0.42877 0.0
C1346 C 0.2199 0.29834 0.35797 0.0
C1347 C 0.20274 0.27411 0.33968 0.0
C1348 C 0.20229 0.3158 0.38173 0.0
C1349 C 0.16699 0.30986 0.38743 0.0
C1350 C 0.1502 0.28413 0.37027 0.0
C1351 C 0.16794 0.26627 0.3468 0.0
C1352 C 0.09906 0.33933 0.44691 0.0
C1353 C 0.10787 0.37615 0.44734 0.0
C1354 C 0.11873 0.31756 0.4283 0.0
C1355 C 0.14747 0.33216 0.40936 0.0
C1356 C 0.1565 0.36891 0.41024 0.0
C1357 C 0.13708 0.39056 0.42915 0.0
H1358 H 0.26214 0.19465 0.65372 0.0
H1359 H 0.35556 0.25306 0.66928 0.0
H1360 H 0.29106 0.16355 0.61179 0.0
H1361 H 0.38507 0.22088 0.628 0.0
H1362 H 0.42595 0.17236 0.53827 0.0
H1363 H 0.3934 0.20995 0.57237 0.0
H1364 H 0.32979 0.11705 0.60995 0.0
H1365 H 0.3617 0.07968 0.57494 0.0
C1366 C 0.28889 0.20108 0.64791 0.0
C1367 C 0.30666 0.22618 0.66489 0.0
C1368 C 0.30557 0.18296 0.62407 0.0
C1369 C 0.34058 0.1891 0.61682 0.0
C1370 C 0.35804 0.21558 0.63271 0.0
C1371 C 0.34118 0.2341 0.65639 0.0
C1372 C 0.40484 0.15996 0.55363 0.0
C1373 C 0.39652 0.1229 0.55394 0.0
C1374 C 0.38627 0.18155 0.57336 0.0
C1375 C 0.35903 0.16665 0.59414 0.0
C1376 C 0.35026 0.12969 0.59392 0.0
C1377 C 0.36866 0.10813 0.57393 0.0
H1378 H 0.79196 0.35098 0.66661 0.0
H1379 H 0.87318 0.30785 0.72214 0.0
H1380 H 0.8327 0.39158 0.63369 0.0
H1381 H 0.91432 0.34843 0.68841 0.0
H1382 H 0.96952 0.40212 0.58378 0.0
H1383 H 0.93656 0.36015 0.62425 0.0
H1384 H 0.87149 0.44556 0.64699 0.0
H1385 H 0.90431 0.48714 0.60756 0.0
C1386 C 0.81853 0.35009 0.67182 0.0
C1387 C 0.82915 0.32623 0.69725 0.0
C1388 C 0.84193 0.37347 0.65294 0.0
C1389 C 0.87679 0.37338 0.65848 0.0
C1390 C 0.88767 0.3491 0.68349 0.0
C1391 C 0.86406 0.32605 0.70291 0.0
C1392 C 0.949 0.41218 0.5983 0.0
C1393 C 0.93954 0.44803 0.59222 0.0
C1394 C 0.92993 0.38808 0.6213 0.0
C1395 C 0.90095 0.39939 0.63835 0.0
C1396 C 0.89322 0.4358 0.63388 0.0
C1397 C 0.91225 0.45971 0.61134 0.0
H1398 H 0.24484 0.6622 0.58635 0.0
H1399 H 0.19925 0.5838 0.66058 0.0
H1400 H 0.21287 0.63438 0.5451 0.0
H1401 H 0.16703 0.55633 0.61993 0.0
H1402 H 0.10756 0.51193 0.54583 0.0
H1403 H 0.16029 0.52603 0.57103 0.0
H1404 H 0.1522 0.63849 0.53857 0.0
H1405 H 0.1001 0.62435 0.51277 0.0
C1406 C 0.22906 0.63811 0.59354 0.0
C1407 C 0.22419 0.62519 0.62652 0.0
C1408 C 0.21049 0.62242 0.57006 0.0
C1409 C 0.18693 0.59354 0.5793 0.0
C1410 C 0.18503 0.57835 0.61183 0.0
C1411 C 0.2034 0.59412 0.63522 0.0
C1412 C 0.11746 0.53952 0.5433 0.0
C1413 C 0.09917 0.56709 0.52783 0.0
C1414 C 0.1477 0.5476 0.55784 0.0
C1415 C 0.16028 0.58343 0.5572 0.0
C1416 C 0.14347 0.61055 0.53936 0.0
C1417 C 0.11327 0.60247 0.52484 0.0
loop_
_geom_bond_atom_site_label_1
_geom_bond_atom_site_label_2
_geom_bond_distance
_geom_bond_site_symmetry_2
_ccdc_geom_bond_type
C0 O16 1.251 . S
C0 O18 1.254 . S
N1 C2 1.333 . S
N1 C6 1.307 . S
N1 Zn7 2.020 . S
C2 N1 1.333 . S
C2 C3 1.379 . S
C2 H20 0.952 . S
C3 C2 1.379 . S
C3 C4 1.390 . S
C3 H30 0.949 . S
C4 C3 1.390 . S
C4 C5 1.357 . S
C5 C4 1.357 . S
C5 C6 1.370 . S
C5 H31 0.950 . S
C6 N1 1.307 . S
C6 C5 1.370 . S
C6 H24 0.948 . S
Zn7 N1 2.020 . S
Zn7 O16 2.039 . S
Zn7 O22 2.034 . S
Zn7 O26 2.025 . S
Zn7 O28 2.024 . S
C8 O27 1.246 . S
C8 O28 1.249 . S
N9 C10 1.307 . S
N9 C11 1.333 . S
N9 Zn15 2.020 . S
C10 N9 1.307 . S
C10 C14 1.370 . S
C10 H21 0.948 . S
C11 N9 1.333 . S
C11 C12 1.379 . S
C11 H19 0.952 . S
C12 C11 1.379 . S
C12 C13 1.390 . S
C12 H32 0.949 . S
C13 C12 1.390 . S
C13 C14 1.357 . S
C14 C10 1.370 . S
C14 C13 1.357 . S
C14 H33 0.950 . S
Zn15 N9 2.020 . S
Zn15 O18 2.025 . S
Zn15 O23 2.024 . S
Zn15 O25 2.039 . S
Zn15 O27 2.034 . S
O16 C0 1.251 . S
O16 Zn7 2.039 . S
C17 O22 1.246 . S
C17 O23 1.249 . S
O18 C0 1.254 . S
O18 Zn15 2.025 . S
H19 C11 0.952 . S
H20 C2 0.952 . S
H21 C10 0.948 . S
O22 Zn7 2.034 . S
O22 C17 1.246 . S
O23 Zn15 2.024 . S
O23 C17 1.249 . S
H24 C6 0.948 . S
O25 Zn15 2.039 . S
O25 C29 1.251 . S
O26 Zn7 2.025 . S
O26 C29 1.254 . S
O27 C8 1.246 . S
O27 Zn15 2.034 . S
O28 Zn7 2.024 . S
O28 C8 1.249 . S
C29 O25 1.251 . S
C29 O26 1.254 . S
H30 C3 0.949 . S
H31 C5 0.950 . S
H32 C12 0.949 . S
H33 C14 0.950 . S
C34 O50 1.251 . S
C34 O52 1.254 . S
N35 C36 1.333 . S
N35 C40 1.307 . S
N35 Zn41 2.020 . S
C36 N35 1.333 . S
C36 C37 1.379 . S
C36 H54 0.952 . S
C37 C36 1.379 . S
C37 C38 1.390 . S
C37 H64 0.949 . S
C38 C37 1.390 . S
C38 C39 1.357 . S
C39 C38 1.357 . S
C39 C40 1.370 . S
C39 H65 0.950 . S
C40 N35 1.307 . S
C40 C39 1.370 . S
C40 H58 0.948 . S
Zn41 N35 2.020 . S
Zn41 O50 2.039 . S
Zn41 O56 2.034 . S
Zn41 O60 2.025 . S
Zn41 O62 2.024 . S
C42 O61 1.246 . S
C42 O62 1.249 . S
N43 C44 1.307 . S
N43 C45 1.333 . S
N43 Zn49 2.020 . S
C44 N43 1.307 . S
C44 C48 1.370 . S
C44 H55 0.948 . S
C45 N43 1.333 . S
C45 C46 1.379 . S
C45 H53 0.952 . S
C46 C45 1.379 . S
C46 C47 1.390 . S
C46 H66 0.949 . S
C47 C46 1.390 . S
C47 C48 1.357 . S
C48 C44 1.370 . S
C48 C47 1.357 . S
C48 H67 0.950 . S
Zn49 N43 2.020 . S
Zn49 O52 2.025 . S
Zn49 O57 2.024 . S
Zn49 O59 2.039 . S
Zn49 O61 2.034 . S
O50 C34 1.251 . S
O50 Zn41 2.039 . S
C51 O56 1.246 . S
C51 O57 1.249 . S
O52 C34 1.254 . S
O52 Zn49 2.025 . S
H53 C45 0.952 . S
H54 C36 0.952 . S
H55 C44 0.948 . S
O56 Zn41 2.034 . S
O56 C51 1.246 . S
O57 Zn49 2.024 . S
O57 C51 1.249 . S
H58 C40 0.948 . S
O59 Zn49 2.039 . S
O59 C63 1.251 . S
O60 Zn41 2.025 . S
O60 C63 1.254 . S
O61 C42 1.246 . S
O61 Zn49 2.034 . S
O62 Zn41 2.024 . S
O62 C42 1.249 . S
C63 O59 1.251 . S
C63 O60 1.254 . S
H64 C37 0.949 . S
H65 C39 0.950 . S
H66 C46 0.949 . S
H67 C48 0.950 . S
C68 O84 1.251 . S
C68 O86 1.254 . S
N69 C70 1.333 . S
N69 C74 1.307 . S
N69 Zn75 2.020 . S
C70 N69 1.333 . S
C70 C71 1.379 . S
C70 H88 0.952 . S
C71 C70 1.379 . S
C71 C72 1.390 . S
C71 H98 0.949 . S
C72 C71 1.390 . S
C72 C73 1.357 . S
C73 C72 1.357 . S
C73 C74 1.370 . S
C73 H99 0.950 . S
C74 N69 1.307 . S
C74 C73 1.370 . S
C74 H92 0.948 . S
Zn75 N69 2.020 . S
Zn75 O84 2.039 . S
Zn75 O90 2.034 . S
Zn75 O94 2.025 . S
Zn75 O96 2.024 . S
C76 O95 1.246 . S
C76 O96 1.249 . S
N77 C78 1.307 . S
N77 C79 1.333 . S
N77 Zn83 2.020 . S
C78 N77 1.307 . S
C78 C82 1.370 . S
C78 H89 0.948 . S
C79 N77 1.333 . S
C79 C80 1.379 . S
C79 H87 0.952 . S
C80 C79 1.379 . S
C80 C81 1.390 . S
C80 H100 0.949 . S
C81 C80 1.390 . S
C81 C82 1.357 . S
C82 C78 1.370 . S
C82 C81 1.357 . S
C82 H101 0.950 . S
Zn83 N77 2.020 . S
Zn83 O86 2.025 . S
Zn83 O91 2.024 . S
Zn83 O93 2.039 . S
Zn83 O95 2.034 . S
O84 C68 1.251 . S
O84 Zn75 2.039 . S
C85 O90 1.246 . S
C85 O91 1.249 . S
O86 C68 1.254 . S
O86 Zn83 2.025 . S
H87 C79 0.952 . S
H88 C70 0.952 . S
H89 C78 0.948 . S
O90 Zn75 2.034 . S
O90 C85 1.246 . S
O91 Zn83 2.024 . S
O91 C85 1.249 . S
H92 C74 0.948 . S
O93 Zn83 2.039 . S
O93 C97 1.251 . S
O94 Zn75 2.025 . S
O94 C97 1.254 . S
O95 C76 1.246 . S
O95 Zn83 2.034 . S
O96 Zn75 2.024 . S
O96 C76 1.249 . S
C97 O93 1.251 . S
C97 O94 1.254 . S
H98 C71 0.949 . S
H99 C73 0.950 . S
H100 C80 0.949 . S
H101 C82 0.950 . S
C102 O118 1.251 . S
C102 O120 1.254 . S
N103 C104 1.333 . S
N103 C108 1.307 . S
N103 Zn109 2.020 . S
C104 N103 1.333 . S
C104 C105 1.379 . S
C104 H122 0.952 . S
C105 C104 1.379 . S
C105 C106 1.390 . S
C105 H132 0.949 . S
C106 C105 1.390 . S
C106 C107 1.357 . S
C107 C106 1.357 . S
C107 C108 1.370 . S
C107 H133 0.950 . S
C108 N103 1.307 . S
C108 C107 1.370 . S
C108 H126 0.948 . S
Zn109 N103 2.020 . S
Zn109 O118 2.039 . S
Zn109 O124 2.034 . S
Zn109 O128 2.025 . S
Zn109 O130 2.024 . S
C110 O129 1.246 . S
C110 O130 1.249 . S
N111 C112 1.307 . S
N111 C113 1.333 . S
N111 Zn117 2.020 . S
C112 N111 1.307 . S
C112 C116 1.370 . S
C112 H123 0.948 . S
C113 N111 1.333 . S
C113 C114 1.379 . S
C113 H121 0.952 . S
C114 C113 1.379 . S
C114 C115 1.390 . S
C114 H134 0.949 . S
C115 C114 1.390 . S
C115 C116 1.357 . S
C116 C112 1.370 . S
C116 C115 1.357 . S
C116 H135 0.950 . S
Zn117 N111 2.020 . S
Zn117 O120 2.025 . S
Zn117 O125 2.024 . S
Zn117 O127 2.039 . S
Zn117 O129 2.034 . S
O118 C102 1.251 . S
O118 Zn109 2.039 . S
C119 O124 1.246 . S
C119 O125 1.249 . S
O120 C102 1.254 . S
O120 Zn117 2.025 . S
H121 C113 0.952 . S
H122 C104 0.952 . S
H123 C112 0.948 . S
O124 Zn109 2.034 . S
O124 C119 1.246 . S
O125 Zn117 2.024 . S
O125 C119 1.249 . S
H126 C108 0.948 . S
O127 Zn117 2.039 . S
O127 C131 1.251 . S
O128 Zn109 2.025 . S
O128 C131 1.254 . S
O129 C110 1.246 . S
O129 Zn117 2.034 . S
O130 Zn109 2.024 . S
O130 C110 1.249 . S
C131 O127 1.251 . S
C131 O128 1.254 . S
H132 C105 0.949 . S
H133 C107 0.950 . S
H134 C114 0.949 . S
H135 C116 0.950 . S
C136 O152 1.251 . S
C136 O154 1.254 . S
N137 C138 1.333 . S
N137 C142 1.307 . S
N137 Zn143 2.020 . S
C138 N137 1.333 . S
C138 C139 1.379 . S
C138 H156 0.952 . S
C139 C138 1.379 . S
C139 C140 1.390 . S
C139 H166 0.949 . S
C140 C139 1.390 . S
C140 C141 1.357 . S
C141 C140 1.357 . S
C141 C142 1.370 . S
C141 H167 0.950 . S
C142 N137 1.307 . S
C142 C141 1.370 . S
C142 H160 0.948 . S
Zn143 N137 2.020 . S
Zn143 O152 2.039 . S
Zn143 O158 2.034 . S
Zn143 O162 2.025 . S
Zn143 O164 2.024 . S
C144 O163 1.246 . S
C144 O164 1.249 . S
N145 C146 1.307 . S
N145 C147 1.333 . S
N145 Zn151 2.020 . S
C146 N145 1.307 . S
C146 C150 1.370 . S
C146 H157 0.948 . S
C147 N145 1.333 . S
C147 C148 1.379 . S
C147 H155 0.952 . S
C148 C147 1.379 . S
C148 C149 1.390 . S
C148 H168 0.949 . S
C149 C148 1.390 . S
C149 C150 1.357 . S
C150 C146 1.370 . S
C150 C149 1.357 . S
C150 H169 0.950 . S
Zn151 N145 2.020 . S
Zn151 O154 2.025 . S
Zn151 O159 2.024 . S
Zn151 O161 2.039 . S
Zn151 O163 2.034 . S
O152 C136 1.251 . S
O152 Zn143 2.039 . S
C153 O158 1.246 . S
C153 O159 1.249 . S
O154 C136 1.254 . S
O154 Zn151 2.025 . S
H155 C147 0.952 . S
H156 C138 0.952 . S
H157 C146 0.948 . S
O158 Zn143 2.034 . S
O158 C153 1.246 . S
O159 Zn151 2.024 . S
O159 C153 1.249 . S
H160 C142 0.948 . S
O161 Zn151 2.039 . S
O161 C165 1.251 . S
O162 Zn143 2.025 . S
O162 C165 1.254 . S
O163 C144 1.246 . S
O163 Zn151 2.034 . S
O164 Zn143 2.024 . S
O164 C144 1.249 . S
C165 O161 1.251 . S
C165 O162 1.254 . S
H166 C139 0.949 . S
H167 C141 0.950 . S
H168 C148 0.949 . S
H169 C150 0.950 . S
C170 O186 1.251 . S
C170 O188 1.254 . S
N171 C172 1.333 . S
N171 C176 1.307 . S
N171 Zn177 2.020 . S
C172 N171 1.333 . S
C172 C173 1.379 . S
C172 H190 0.952 . S
C173 C172 1.379 . S
C173 C174 1.390 . S
C173 H200 0.949 . S
C174 C173 1.390 . S
C174 C175 1.357 . S
C175 C174 1.357 . S
C175 C176 1.370 . S
C175 H201 0.950 . S
C176 N171 1.307 . S
C176 C175 1.370 . S
C176 H194 0.948 . S
Zn177 N171 2.020 . S
Zn177 O186 2.039 . S
Zn177 O192 2.034 . S
Zn177 O196 2.025 . S
Zn177 O198 2.024 . S
C178 O197 1.246 . S
C178 O198 1.249 . S
N179 C180 1.307 . S
N179 C181 1.333 . S
N179 Zn185 2.020 . S
C180 N179 1.307 . S
C180 C184 1.370 . S
C180 H191 0.948 . S
C181 N179 1.333 . S
C181 C182 1.379 . S
C181 H189 0.952 . S
C182 C181 1.379 . S
C182 C183 1.390 . S
C182 H202 0.949 . S
C183 C182 1.390 . S
C183 C184 1.357 . S
C184 C180 1.370 . S
C184 C183 1.357 . S
C184 H203 0.950 . S
Zn185 N179 2.020 . S
Zn185 O188 2.025 . S
Zn185 O193 2.024 . S
Zn185 O195 2.039 . S
Zn185 O197 2.034 . S
O186 C170 1.251 . S
O186 Zn177 2.039 . S
C187 O192 1.246 . S
C187 O193 1.249 . S
O188 C170 1.254 . S
O188 Zn185 2.025 . S
H189 C181 0.952 . S
H190 C172 0.952 . S
H191 C180 0.948 . S
O192 Zn177 2.034 . S
O192 C187 1.246 . S
O193 Zn185 2.024 . S
O193 C187 1.249 . S
H194 C176 0.948 . S
O195 Zn185 2.039 . S
O195 C199 1.251 . S
O196 Zn177 2.025 . S
O196 C199 1.254 . S
O197 C178 1.246 . S
O197 Zn185 2.034 . S
O198 Zn177 2.024 . S
O198 C178 1.249 . S
C199 O195 1.251 . S
C199 O196 1.254 . S
H200 C173 0.949 . S
H201 C175 0.950 . S
H202 C182 0.949 . S
H203 C184 0.950 . S
C204 O220 1.251 . S
C204 O222 1.254 . S
N205 C206 1.333 . S
N205 C210 1.307 . S
N205 Zn211 2.020 . S
C206 N205 1.333 . S
C206 C207 1.379 . S
C206 H224 0.952 . S
C207 C206 1.379 . S
C207 C208 1.390 . S
C207 H234 0.949 . S
C208 C207 1.390 . S
C208 C209 1.357 . S
C209 C208 1.357 . S
C209 C210 1.370 . S
C209 H235 0.950 . S
C210 N205 1.307 . S
C210 C209 1.370 . S
C210 H228 0.948 . S
Zn211 N205 2.020 . S
Zn211 O220 2.039 . S
Zn211 O226 2.034 . S
Zn211 O230 2.025 . S
Zn211 O232 2.024 . S
C212 O231 1.246 . S
C212 O232 1.249 . S
N213 C214 1.307 . S
N213 C215 1.333 . S
N213 Zn219 2.020 . S
C214 N213 1.307 . S
C214 C218 1.370 . S
C214 H225 0.948 . S
C215 N213 1.333 . S
C215 C216 1.379 . S
C215 H223 0.952 . S
C216 C215 1.379 . S
C216 C217 1.390 . S
C216 H236 0.949 . S
C217 C216 1.390 . S
C217 C218 1.357 . S
C218 C214 1.370 . S
C218 C217 1.357 . S
C218 H237 0.950 . S
Zn219 N213 2.020 . S
Zn219 O222 2.025 . S
Zn219 O227 2.024 . S
Zn219 O229 2.039 . S
Zn219 O231 2.034 . S
O220 C204 1.251 . S
O220 Zn211 2.039 . S
C221 O226 1.246 . S
C221 O227 1.249 . S
O222 C204 1.254 . S
O222 Zn219 2.025 . S
H223 C215 0.952 . S
H224 C206 0.952 . S
H225 C214 0.948 . S
O226 Zn211 2.034 . S
O226 C221 1.246 . S
O227 Zn219 2.024 . S
O227 C221 1.249 . S
H228 C210 0.948 . S
O229 Zn219 2.039 . S
O229 C233 1.251 . S
O230 Zn211 2.025 . S
O230 C233 1.254 . S
O231 C212 1.246 . S
O231 Zn219 2.034 . S
O232 Zn211 2.024 . S
O232 C212 1.249 . S
C233 O229 1.251 . S
C233 O230 1.254 . S
H234 C207 0.949 . S
H235 C209 0.950 . S
H236 C216 0.949 . S
H237 C218 0.950 . S
C238 O254 1.251 . S
C238 O256 1.254 . S
N239 C240 1.333 . S
N239 C244 1.307 . S
N239 Zn245 2.020 . S
C240 N239 1.333 . S
C240 C241 1.379 . S
C240 H258 0.952 . S
C241 C240 1.379 . S
C241 C242 1.390 . S
C241 H268 0.949 . S
C242 C241 1.390 . S
C242 C243 1.357 . S
C243 C242 1.357 . S
C243 C244 1.370 . S
C243 H269 0.950 . S
C244 N239 1.307 . S
C244 C243 1.370 . S
C244 H262 0.948 . S
Zn245 N239 2.020 . S
Zn245 O254 2.039 . S
Zn245 O260 2.034 . S
Zn245 O264 2.025 . S
Zn245 O266 2.024 . S
C246 O265 1.246 . S
C246 O266 1.249 . S
N247 C248 1.307 . S
N247 C249 1.333 . S
N247 Zn253 2.020 . S
C248 N247 1.307 . S
C248 C252 1.370 . S
C248 H259 0.948 . S
C249 N247 1.333 . S
C249 C250 1.379 . S
C249 H257 0.952 . S
C250 C249 1.379 . S
C250 C251 1.390 . S
C250 H270 0.949 . S
C251 C250 1.390 . S
C251 C252 1.357 . S
C252 C248 1.370 . S
C252 C251 1.357 . S
C252 H271 0.950 . S
Zn253 N247 2.020 . S
Zn253 O256 2.025 . S
Zn253 O261 2.024 . S
Zn253 O263 2.039 . S
Zn253 O265 2.034 . S
O254 C238 1.251 . S
O254 Zn245 2.039 . S
C255 O260 1.246 . S
C255 O261 1.249 . S
O256 C238 1.254 . S
O256 Zn253 2.025 . S
H257 C249 0.952 . S
H258 C240 0.952 . S
H259 C248 0.948 . S
O260 Zn245 2.034 . S
O260 C255 1.246 . S
O261 Zn253 2.024 . S
O261 C255 1.249 . S
H262 C244 0.948 . S
O263 Zn253 2.039 . S
O263 C267 1.251 . S
O264 Zn245 2.025 . S
O264 C267 1.254 . S
O265 C246 1.246 . S
O265 Zn253 2.034 . S
O266 Zn245 2.024 . S
O266 C246 1.249 . S
C267 O263 1.251 . S
C267 O264 1.254 . S
H268 C241 0.949 . S
H269 C243 0.950 . S
H270 C250 0.949 . S
H271 C252 0.950 . S
C272 O284 1.241 . S
C272 O285 1.280 . S
C273 O286 1.277 . S
C273 O287 1.245 . S
C274 O298 1.247 . S
C274 O300 1.289 . S
Mg275 O276 1.926 . S
Mg275 O285 1.984 . S
Mg275 O287 1.988 . S
Mg275 O288 2.061 1_655 S
O276 Mg275 1.926 . S
O276 Mg277 1.986 . S
O276 Mg278 1.917 1_655 S
Mg277 O276 1.986 . S
Mg277 O284 2.042 . S
Mg277 O286 2.041 . S
Mg277 O292 2.038 1_545 S
Mg277 O300 2.238 1_545 S
Mg278 O276 1.917 1_455 S
Mg278 O279 1.917 1_545 S
Mg278 O289 2.106 . S
Mg278 O291 2.079 1_445 S
Mg278 O300 2.106 1_445 S
Mg278 O301 2.079 . S
O279 Mg278 1.917 1_565 S
O279 Mg280 1.926 . S
O279 Mg281 1.986 . S
Mg280 O279 1.926 . S
Mg280 O294 1.984 . S
Mg280 O297 1.988 . S
Mg280 O298 2.061 1_455 S
Mg281 O279 1.986 . S
Mg281 O289 2.238 1_565 S
Mg281 O293 2.042 . S
Mg281 O295 2.041 . S
Mg281 O302 2.038 1_565 S
C282 O288 1.247 . S
C282 O289 1.289 . S
C283 O301 1.245 . S
C283 O302 1.274 . S
O284 C272 1.241 . S
O284 Mg277 2.042 . S
O285 C272 1.280 . S
O285 Mg275 1.984 . S
O286 C273 1.277 . S
O286 Mg277 2.041 . S
O287 C273 1.245 . S
O287 Mg275 1.988 . S
O288 Mg275 2.061 1_455 S
O288 C282 1.247 . S
O289 Mg278 2.106 . S
O289 Mg281 2.238 1_545 S
O289 C282 1.289 . S
C290 O291 1.245 . S
C290 O292 1.274 . S
O291 Mg278 2.079 1_665 S
O291 C290 1.245 . S
O292 Mg277 2.038 1_565 S
O292 C290 1.274 . S
O293 Mg281 2.042 . S
O293 C296 1.241 . S
O294 Mg280 1.984 . S
O294 C296 1.280 . S
O295 Mg281 2.041 . S
O295 C299 1.277 . S
C296 O293 1.241 . S
C296 O294 1.280 . S
O297 Mg280 1.988 . S
O297 C299 1.245 . S
O298 C274 1.247 . S
O298 Mg280 2.061 1_655 S
C299 O295 1.277 . S
C299 O297 1.245 . S
O300 C274 1.289 . S
O300 Mg277 2.238 1_565 S
O300 Mg278 2.106 1_665 S
O301 Mg278 2.079 . S
O301 C283 1.245 . S
O302 Mg281 2.038 1_545 S
O302 C283 1.274 . S
C303 O315 1.241 . S
C303 O316 1.280 . S
C304 O317 1.277 . S
C304 O318 1.245 . S
C305 O329 1.247 . S
C305 O331 1.289 . S
Mg306 O307 1.926 . S
Mg306 O316 1.984 . S
Mg306 O318 1.988 1_554 S
Mg306 O319 2.061 . S
O307 Mg306 1.926 . S
O307 Mg308 1.986 . S
O307 Mg309 1.917 . S
Mg308 O307 1.986 . S
Mg308 O315 2.042 . S
Mg308 O317 2.041 1_554 S
Mg308 O323 2.038 1_545 S
Mg308 O331 2.238 1_544 S
Mg309 O307 1.917 . S
Mg309 O310 1.917 1_544 S
Mg309 O320 2.106 . S
Mg309 O322 2.079 1_545 S
Mg309 O331 2.106 1_544 S
Mg309 O332 2.079 1_554 S
O310 Mg309 1.917 1_566 S
O310 Mg311 1.926 . S
O310 Mg312 1.986 . S
Mg311 O310 1.926 . S
Mg311 O325 1.984 . S
Mg311 O328 1.988 1_556 S
Mg311 O329 2.061 . S
Mg312 O310 1.986 . S
Mg312 O320 2.238 1_566 S
Mg312 O324 2.042 . S
Mg312 O326 2.041 1_556 S
Mg312 O333 2.038 1_565 S
C313 O319 1.247 . S
C313 O320 1.289 . S
C314 O332 1.245 . S
C314 O333 1.274 . S
O315 C303 1.241 . S
O315 Mg308 2.042 . S
O316 C303 1.280 . S
O316 Mg306 1.984 . S
O317 C304 1.277 . S
O317 Mg308 2.041 1_556 S
O318 C304 1.245 . S
O318 Mg306 1.988 1_556 S
O319 Mg306 2.061 . S
O319 C313 1.247 . S
O320 Mg309 2.106 . S
O320 Mg312 2.238 1_544 S
O320 C313 1.289 . S
C321 O322 1.245 . S
C321 O323 1.274 . S
O322 Mg309 2.079 1_565 S
O322 C321 1.245 . S
O323 Mg308 2.038 1_565 S
O323 C321 1.274 . S
O324 Mg312 2.042 . S
O324 C327 1.241 . S
O325 Mg311 1.984 . S
O325 C327 1.280 . S
O326 Mg312 2.041 1_554 S
O326 C330 1.277 . S
C327 O324 1.241 . S
C327 O325 1.280 . S
O328 Mg311 1.988 1_554 S
O328 C330 1.245 . S
O329 C305 1.247 . S
O329 Mg311 2.061 . S
C330 O326 1.277 . S
C330 O328 1.245 . S
O331 C305 1.289 . S
O331 Mg308 2.238 1_566 S
O331 Mg309 2.106 1_566 S
O332 Mg309 2.079 1_556 S
O332 C314 1.245 . S
O333 Mg312 2.038 1_545 S
O333 C314 1.274 . S
C334 O346 1.241 . S
C334 O347 1.280 . S
C335 O348 1.277 . S
C335 O349 1.245 . S
C336 O360 1.247 . S
C336 O362 1.289 . S
Mg337 O338 1.926 . S
Mg337 O347 1.984 . S
Mg337 O349 1.988 1_554 S
Mg337 O350 2.061 1_655 S
O338 Mg337 1.926 . S
O338 Mg339 1.986 . S
O338 Mg340 1.917 1_655 S
Mg339 O338 1.986 . S
Mg339 O346 2.042 . S
Mg339 O348 2.041 1_554 S
Mg339 O354 2.038 . S
Mg339 O362 2.238 1_554 S
Mg340 O338 1.917 1_455 S
Mg340 O341 1.917 1_554 S
Mg340 O351 2.106 . S
Mg340 O353 2.079 1_455 S
Mg340 O362 2.106 1_454 S
Mg340 O363 2.079 1_554 S
O341 Mg340 1.917 1_556 S
O341 Mg342 1.926 . S
O341 Mg343 1.986 . S
Mg342 O341 1.926 . S
Mg342 O356 1.984 . S
Mg342 O359 1.988 1_556 S
Mg342 O360 2.061 1_455 S
Mg343 O341 1.986 . S
Mg343 O351 2.238 1_556 S
Mg343 O355 2.042 . S
Mg343 O357 2.041 1_556 S
Mg343 O364 2.038 . S
C344 O350 1.247 . S
C344 O351 1.289 . S
C345 O363 1.245 . S
C345 O364 1.274 . S
O346 C334 1.241 . S
O346 Mg339 2.042 . S
O347 C334 1.280 . S
O347 Mg337 1.984 . S
O348 C335 1.277 . S
O348 Mg339 2.041 1_556 S
O349 C335 1.245 . S
O349 Mg337 1.988 1_556 S
O350 Mg337 2.061 1_455 S
O350 C344 1.247 . S
O351 Mg340 2.106 . S
O351 Mg343 2.238 1_554 S
O351 C344 1.289 . S
C352 O353 1.245 . S
C352 O354 1.274 . S
O353 Mg340 2.079 1_655 S
O353 C352 1.245 . S
O354 Mg339 2.038 . S
O354 C352 1.274 . S
O355 Mg343 2.042 . S
O355 C358 1.241 . S
O356 Mg342 1.984 . S
O356 C358 1.280 . S
O357 Mg343 2.041 1_554 S
O357 C361 1.277 . S
C358 O355 1.241 . S
C358 O356 1.280 . S
O359 Mg342 1.988 1_554 S
O359 C361 1.245 . S
O360 C336 1.247 . S
O360 Mg342 2.061 1_655 S
C361 O357 1.277 . S
C361 O359 1.245 . S
O362 C336 1.289 . S
O362 Mg339 2.238 1_556 S
O362 Mg340 2.106 1_656 S
O363 Mg340 2.079 1_556 S
O363 C345 1.245 . S
O364 Mg343 2.038 . S
O364 C345 1.274 . S
C365 O377 1.241 . S
C365 O378 1.280 . S
C366 O379 1.277 . S
C366 O380 1.245 . S
C367 O391 1.247 . S
C367 O393 1.289 . S
Mg368 O369 1.926 . S
Mg368 O378 1.984 . S
Mg368 O380 1.988 1_554 S
Mg368 O381 2.061 . S
O369 Mg368 1.926 . S
O369 Mg370 1.986 . S
O369 Mg371 1.917 . S
Mg370 O369 1.986 . S
Mg370 O377 2.042 . S
Mg370 O379 2.041 1_554 S
Mg370 O385 2.038 . S
Mg370 O393 2.238 1_554 S
Mg371 O369 1.917 . S
Mg371 O372 1.917 1_554 S
Mg371 O382 2.106 . S
Mg371 O384 2.079 . S
Mg371 O393 2.106 1_554 S
Mg371 O394 2.079 1_554 S
O372 Mg371 1.917 1_556 S
O372 Mg373 1.926 . S
O372 Mg374 1.986 . S
Mg373 O372 1.926 . S
Mg373 O387 1.984 . S
Mg373 O390 1.988 1_556 S
Mg373 O391 2.061 . S
Mg374 O372 1.986 . S
Mg374 O382 2.238 1_556 S
Mg374 O386 2.042 . S
Mg374 O388 2.041 1_556 S
Mg374 O395 2.038 . S
C375 O381 1.247 . S
C375 O382 1.289 . S
C376 O394 1.245 . S
C376 O395 1.274 . S
O377 C365 1.241 . S
O377 Mg370 2.042 . S
O378 C365 1.280 . S
O378 Mg368 1.984 . S
O379 C366 1.277 . S
O379 Mg370 2.041 1_556 S
O380 C366 1.245 . S
O380 Mg368 1.988 1_556 S
O381 Mg368 2.061 . S
O381 C375 1.247 . S
O382 Mg371 2.106 . S
O382 Mg374 2.238 1_554 S
O382 C375 1.289 . S
C383 O384 1.245 . S
C383 O385 1.274 . S
O384 Mg371 2.079 . S
O384 C383 1.245 . S
O385 Mg370 2.038 . S
O385 C383 1.274 . S
O386 Mg374 2.042 . S
O386 C389 1.241 . S
O387 Mg373 1.984 . S
O387 C389 1.280 . S
O388 Mg374 2.041 1_554 S
O388 C392 1.277 . S
C389 O386 1.241 . S
C389 O387 1.280 . S
O390 Mg373 1.988 1_554 S
O390 C392 1.245 . S
O391 C367 1.247 . S
O391 Mg373 2.061 . S
C392 O388 1.277 . S
C392 O390 1.245 . S
O393 C367 1.289 . S
O393 Mg370 2.238 1_556 S
O393 Mg371 2.106 1_556 S
O394 Mg371 2.079 1_556 S
O394 C376 1.245 . S
O395 Mg374 2.038 . S
O395 C376 1.274 . S
C396 O408 1.241 . S
C396 O409 1.280 . S
C397 O410 1.277 . S
C397 O411 1.245 . S
C398 O422 1.247 . S
C398 O424 1.289 . S
Mg399 O400 1.926 . S
Mg399 O409 1.984 . S
Mg399 O411 1.988 . S
Mg399 O412 2.061 1_655 S
O400 Mg399 1.926 . S
O400 Mg401 1.986 . S
O400 Mg402 1.917 1_655 S
Mg401 O400 1.986 . S
Mg401 O408 2.042 . S
Mg401 O410 2.041 . S
Mg401 O416 2.038 . S
Mg401 O424 2.238 . S
Mg402 O400 1.917 1_455 S
Mg402 O403 1.917 . S
Mg402 O413 2.106 . S
Mg402 O415 2.079 1_455 S
Mg402 O424 2.106 1_455 S
Mg402 O425 2.079 . S
O403 Mg402 1.917 . S
O403 Mg404 1.926 . S
O403 Mg405 1.986 . S
Mg404 O403 1.926 . S
Mg404 O418 1.984 . S
Mg404 O421 1.988 . S
Mg404 O422 2.061 1_455 S
Mg405 O403 1.986 . S
Mg405 O413 2.238 . S
Mg405 O417 2.042 . S
Mg405 O419 2.041 . S
Mg405 O426 2.038 . S
C406 O412 1.247 . S
C406 O413 1.289 . S
C407 O425 1.245 . S
C407 O426 1.274 . S
O408 C396 1.241 . S
O408 Mg401 2.042 . S
O409 C396 1.280 . S
O409 Mg399 1.984 . S
O410 C397 1.277 . S
O410 Mg401 2.041 . S
O411 C397 1.245 . S
O411 Mg399 1.988 . S
O412 Mg399 2.061 1_455 S
O412 C406 1.247 . S
O413 Mg402 2.106 . S
O413 Mg405 2.238 . S
O413 C406 1.289 . S
C414 O415 1.245 . S
C414 O416 1.274 . S
O415 Mg402 2.079 1_655 S
O415 C414 1.245 . S
O416 Mg401 2.038 . S
O416 C414 1.274 . S
O417 Mg405 2.042 . S
O417 C420 1.241 . S
O418 Mg404 1.984 . S
O418 C420 1.280 . S
O419 Mg405 2.041 . S
O419 C423 1.277 . S
C420 O417 1.241 . S
C420 O418 1.280 . S
O421 Mg404 1.988 . S
O421 C423 1.245 . S
O422 C398 1.247 . S
O422 Mg404 2.061 1_655 S
C423 O419 1.277 . S
C423 O421 1.245 . S
O424 C398 1.289 . S
O424 Mg401 2.238 . S
O424 Mg402 2.106 1_655 S
O425 Mg402 2.079 . S
O425 C407 1.245 . S
O426 Mg405 2.038 . S
O426 C407 1.274 . S
C427 O439 1.241 . S
C427 O440 1.280 . S
C428 O441 1.277 . S
C428 O442 1.245 . S
C429 O453 1.247 . S
C429 O455 1.289 . S
Mg430 O431 1.926 . S
Mg430 O440 1.984 . S
Mg430 O442 1.988 . S
Mg430 O443 2.061 . S
O431 Mg430 1.926 . S
O431 Mg432 1.986 . S
O431 Mg433 1.917 . S
Mg432 O431 1.986 . S
Mg432 O439 2.042 . S
Mg432 O441 2.041 . S
Mg432 O447 2.038 1_545 S
Mg432 O455 2.238 1_545 S
Mg433 O431 1.917 . S
Mg433 O434 1.917 1_545 S
Mg433 O444 2.106 . S
Mg433 O446 2.079 1_545 S
Mg433 O455 2.106 1_545 S
Mg433 O456 2.079 . S
O434 Mg433 1.917 1_565 S
O434 Mg435 1.926 . S
O434 Mg436 1.986 . S
Mg435 O434 1.926 . S
Mg435 O449 1.984 . S
Mg435 O452 1.988 . S
Mg435 O453 2.061 . S
Mg436 O434 1.986 . S
Mg436 O444 2.238 1_565 S
Mg436 O448 2.042 . S
Mg436 O450 2.041 . S
Mg436 O457 2.038 1_565 S
C437 O443 1.247 . S
C437 O444 1.289 . S
C438 O456 1.245 . S
C438 O457 1.274 . S
O439 C427 1.241 . S
O439 Mg432 2.042 . S
O440 C427 1.280 . S
O440 Mg430 1.984 . S
O441 C428 1.277 . S
O441 Mg432 2.041 . S
O442 C428 1.245 . S
O442 Mg430 1.988 . S
O443 Mg430 2.061 . S
O443 C437 1.247 . S
O444 Mg433 2.106 . S
O444 Mg436 2.238 1_545 S
O444 C437 1.289 . S
C445 O446 1.245 . S
C445 O447 1.274 . S
O446 Mg433 2.079 1_565 S
O446 C445 1.245 . S
O447 Mg432 2.038 1_565 S
O447 C445 1.274 . S
O448 Mg436 2.042 . S
O448 C451 1.241 . S
O449 Mg435 1.984 . S
O449 C451 1.280 . S
O450 Mg436 2.041 . S
O450 C454 1.277 . S
C451 O448 1.241 . S
C451 O449 1.280 . S
O452 Mg435 1.988 . S
O452 C454 1.245 . S
O453 C429 1.247 . S
O453 Mg435 2.061 . S
C454 O450 1.277 . S
C454 O452 1.245 . S
O455 C429 1.289 . S
O455 Mg432 2.238 1_565 S
O455 Mg433 2.106 1_565 S
O456 Mg433 2.079 . S
O456 C438 1.245 . S
O457 Mg436 2.038 1_545 S
O457 C438 1.274 . S
H458 C466 0.950 . S
H459 C471 0.950 . S
H460 C468 0.950 . S
H461 C470 0.950 . S
H462 C472 0.950 . S
H463 C474 0.950 . S
H464 C476 0.950 . S
H465 C477 0.950 . S
C466 H458 0.950 . S
C466 C467 1.386 . S
C466 C468 1.391 . S
C467 C466 1.386 . S
C467 C471 1.393 . S
C468 H460 0.950 . S
C468 C466 1.391 . S
C468 C469 1.400 . S
C469 C468 1.400 . S
C469 C470 1.398 . S
C469 C475 1.491 . S
C470 H461 0.950 . S
C470 C469 1.398 . S
C470 C471 1.391 . S
C471 H459 0.950 . S
C471 C467 1.393 . S
C471 C470 1.391 . S
C472 H462 0.950 . S
C472 C473 1.386 . S
C472 C474 1.391 . S
C473 C472 1.386 . S
C473 C477 1.393 . S
C474 H463 0.950 . S
C474 C472 1.391 . S
C474 C475 1.400 . S
C475 C469 1.491 . S
C475 C474 1.400 . S
C475 C476 1.398 . S
C476 H464 0.950 . S
C476 C475 1.398 . S
C476 C477 1.391 . S
C477 H465 0.950 . S
C477 C473 1.393 . S
C477 C476 1.391 . S
H478 C486 0.950 . S
H479 C491 0.950 . S
H480 C488 0.950 . S
H481 C490 0.950 . S
H482 C492 0.950 . S
H483 C494 0.950 . S
H484 C496 0.950 . S
H485 C497 0.950 . S
C486 H478 0.950 . S
C486 C487 1.386 . S
C486 C488 1.391 . S
C487 C486 1.386 . S
C487 C491 1.393 . S
C488 H480 0.950 . S
C488 C486 1.391 . S
C488 C489 1.400 . S
C489 C488 1.400 . S
C489 C490 1.398 . S
C489 C495 1.491 . S
C490 H481 0.950 . S
C490 C489 1.398 . S
C490 C491 1.391 . S
C491 H479 0.950 . S
C491 C487 1.393 . S
C491 C490 1.391 . S
C492 H482 0.950 . S
C492 C493 1.386 . S
C492 C494 1.391 . S
C493 C492 1.386 . S
C493 C497 1.393 . S
C494 H483 0.950 . S
C494 C492 1.391 . S
C494 C495 1.400 . S
C495 C489 1.491 . S
C495 C494 1.400 . S
C495 C496 1.398 . S
C496 H484 0.950 . S
C496 C495 1.398 . S
C496 C497 1.391 . S
C497 H485 0.950 . S
C497 C493 1.393 . S
C497 C496 1.391 . S
H498 C506 0.950 . S
H499 C511 0.950 . S
H500 C508 0.950 . S
H501 C510 0.950 . S
H502 C512 0.950 . S
H503 C514 0.950 . S
H504 C516 0.950 . S
H505 C517 0.950 . S
C506 H498 0.950 . S
C506 C507 1.386 . S
C506 C508 1.391 . S
C507 C506 1.386 . S
C507 C511 1.393 . S
C508 H500 0.950 . S
C508 C506 1.391 . S
C508 C509 1.400 . S
C509 C508 1.400 . S
C509 C510 1.398 . S
C509 C515 1.491 . S
C510 H501 0.950 . S
C510 C509 1.398 . S
C510 C511 1.391 . S
C511 H499 0.950 . S
C511 C507 1.393 . S
C511 C510 1.391 . S
C512 H502 0.950 . S
C512 C513 1.386 . S
C512 C514 1.391 . S
C513 C512 1.386 . S
C513 C517 1.393 . S
C514 H503 0.950 . S
C514 C512 1.391 . S
C514 C515 1.400 . S
C515 C509 1.491 . S
C515 C514 1.400 . S
C515 C516 1.398 . S
C516 H504 0.950 . S
C516 C515 1.398 . S
C516 C517 1.391 . S
C517 H505 0.950 . S
C517 C513 1.393 . S
C517 C516 1.391 . S
H518 C526 0.950 . S
H519 C531 0.950 . S
H520 C528 0.950 . S
H521 C530 0.950 . S
H522 C532 0.950 . S
H523 C534 0.950 . S
H524 C536 0.950 . S
H525 C537 0.950 . S
C526 H518 0.950 . S
C526 C527 1.386 . S
C526 C528 1.391 . S
C527 C526 1.386 . S
C527 C531 1.393 . S
C528 H520 0.950 . S
C528 C526 1.391 . S
C528 C529 1.400 . S
C529 C528 1.400 . S
C529 C530 1.398 . S
C529 C535 1.491 . S
C530 H521 0.950 . S
C530 C529 1.398 . S
C530 C531 1.391 . S
C531 H519 0.950 . S
C531 C527 1.393 . S
C531 C530 1.391 . S
C532 H522 0.950 . S
C532 C533 1.386 . S
C532 C534 1.391 . S
C533 C532 1.386 . S
C533 C537 1.393 . S
C534 H523 0.950 . S
C534 C532 1.391 . S
C534 C535 1.400 . S
C535 C529 1.491 . S
C535 C534 1.400 . S
C535 C536 1.398 . S
C536 H524 0.950 . S
C536 C535 1.398 . S
C536 C537 1.391 . S
C537 H525 0.950 . S
C537 C533 1.393 . S
C537 C536 1.391 . S
H538 C546 0.950 . S
H539 C551 0.950 . S
H540 C548 0.950 . S
H541 C550 0.950 . S
H542 C552 0.950 . S
H543 C554 0.950 . S
H544 C556 0.950 . S
H545 C557 0.950 . S
C546 H538 0.950 . S
C546 C547 1.386 . S
C546 C548 1.391 . S
C547 C546 1.386 . S
C547 C551 1.393 . S
C548 H540 0.950 . S
C548 C546 1.391 . S
C548 C549 1.400 . S
C549 C548 1.400 . S
C549 C550 1.398 . S
C549 C555 1.491 . S
C550 H541 0.950 . S
C550 C549 1.398 . S
C550 C551 1.391 . S
C551 H539 0.950 . S
C551 C547 1.393 . S
C551 C550 1.391 . S
C552 H542 0.950 . S
C552 C553 1.386 . S
C552 C554 1.391 . S
C553 C552 1.386 . S
C553 C557 1.393 . S
C554 H543 0.950 . S
C554 C552 1.391 . S
C554 C555 1.400 . S
C555 C549 1.491 . S
C555 C554 1.400 . S
C555 C556 1.398 . S
C556 H544 0.950 . S
C556 C555 1.398 . S
C556 C557 1.391 . S
C557 H545 0.950 . S
C557 C553 1.393 . S
C557 C556 1.391 . S
H558 C566 0.950 . S
H559 C571 0.950 . S
H560 C568 0.950 . S
H561 C570 0.950 . S
H562 C572 0.950 . S
H563 C574 0.950 . S
H564 C576 0.950 . S
H565 C577 0.950 . S
C566 H558 0.950 . S
C566 C567 1.386 . S
C566 C568 1.391 . S
C567 C566 1.386 . S
C567 C571 1.393 . S
C568 H560 0.950 . S
C568 C566 1.391 . S
C568 C569 1.400 . S
C569 C568 1.400 . S
C569 C570 1.398 . S
C569 C575 1.491 . S
C570 H561 0.950 . S
C570 C569 1.398 . S
C570 C571 1.391 . S
C571 H559 0.950 . S
C571 C567 1.393 . S
C571 C570 1.391 . S
C572 H562 0.950 . S
C572 C573 1.386 . S
C572 C574 1.391 . S
C573 C572 1.386 . S
C573 C577 1.393 . S
C574 H563 0.950 . S
C574 C572 1.391 . S
C574 C575 1.400 . S
C575 C569 1.491 . S
C575 C574 1.400 . S
C575 C576 1.398 . S
C576 H564 0.950 . S
C576 C575 1.398 . S
C576 C577 1.391 . S
C577 H565 0.950 . S
C577 C573 1.393 . S
C577 C576 1.391 . S
H578 C586 0.950 . S
H579 C591 0.950 . S
H580 C588 0.950 . S
H581 C590 0.950 . S
H582 C592 0.950 . S
H583 C594 0.950 . S
H584 C596 0.950 . S
H585 C597 0.950 . S
C586 H578 0.950 . S
C586 C587 1.386 . S
C586 C588 1.391 . S
C587 C586 1.386 . S
C587 C591 1.393 . S
C588 H580 0.950 . S
C588 C586 1.391 . S
C588 C589 1.400 . S
C589 C588 1.400 . S
C589 C590 1.398 . S
C589 C595 1.491 . S
C590 H581 0.950 . S
C590 C589 1.398 . S
C590 C591 1.391 . S
C591 H579 0.950 . S
C591 C587 1.393 . S
C591 C590 1.391 . S
C592 H582 0.950 . S
C592 C593 1.386 . S
C592 C594 1.391 . S
C593 C592 1.386 . S
C593 C597 1.393 . S
C594 H583 0.950 . S
C594 C592 1.391 . S
C594 C595 1.400 . S
C595 C589 1.491 . S
C595 C594 1.400 . S
C595 C596 1.398 . S
C596 H584 0.950 . S
C596 C595 1.398 . S
C596 C597 1.391 . S
C597 H585 0.950 . S
C597 C593 1.393 . S
C597 C596 1.391 . S
H598 C606 0.950 . S
H599 C611 0.950 . S
H600 C608 0.950 . S
H601 C610 0.950 . S
H602 C612 0.950 . S
H603 C614 0.950 . S
H604 C616 0.950 . S
H605 C617 0.950 . S
C606 H598 0.950 . S
C606 C607 1.386 . S
C606 C608 1.391 . S
C607 C606 1.386 . S
C607 C611 1.393 . S
C608 H600 0.950 . S
C608 C606 1.391 . S
C608 C609 1.400 . S
C609 C608 1.400 . S
C609 C610 1.398 . S
C609 C615 1.491 . S
C610 H601 0.950 . S
C610 C609 1.398 . S
C610 C611 1.391 . S
C611 H599 0.950 . S
C611 C607 1.393 . S
C611 C610 1.391 . S
C612 H602 0.950 . S
C612 C613 1.386 . S
C612 C614 1.391 . S
C613 C612 1.386 . S
C613 C617 1.393 . S
C614 H603 0.950 . S
C614 C612 1.391 . S
C614 C615 1.400 . S
C615 C609 1.491 . S
C615 C614 1.400 . S
C615 C616 1.398 . S
C616 H604 0.950 . S
C616 C615 1.398 . S
C616 C617 1.391 . S
C617 H605 0.950 . S
C617 C613 1.393 . S
C617 C616 1.391 . S
H618 C626 0.950 . S
H619 C631 0.950 . S
H620 C628 0.950 . S
H621 C630 0.950 . S
H622 C632 0.950 . S
H623 C634 0.950 . S
H624 C636 0.950 . S
H625 C637 0.950 . S
C626 H618 0.950 . S
C626 C627 1.386 . S
C626 C628 1.391 . S
C627 C626 1.386 . S
C627 C631 1.393 . S
C628 H620 0.950 . S
C628 C626 1.391 . S
C628 C629 1.400 . S
C629 C628 1.400 . S
C629 C630 1.398 . S
C629 C635 1.491 . S
C630 H621 0.950 . S
C630 C629 1.398 . S
C630 C631 1.391 . S
C631 H619 0.950 . S
C631 C627 1.393 . S
C631 C630 1.391 . S
C632 H622 0.950 . S
C632 C633 1.386 . S
C632 C634 1.391 . S
C633 C632 1.386 . S
C633 C637 1.393 . S
C634 H623 0.950 . S
C634 C632 1.391 . S
C634 C635 1.400 . S
C635 C629 1.491 . S
C635 C634 1.400 . S
C635 C636 1.398 . S
C636 H624 0.950 . S
C636 C635 1.398 . S
C636 C637 1.391 . S
C637 H625 0.950 . S
C637 C633 1.393 . S
C637 C636 1.391 . S
H638 C646 0.950 . S
H639 C651 0.950 . S
H640 C648 0.950 . S
H641 C650 0.950 . S
H642 C652 0.950 . S
H643 C654 0.950 . S
H644 C656 0.950 . S
H645 C657 0.950 . S
C646 H638 0.950 . S
C646 C647 1.386 . S
C646 C648 1.391 . S
C647 C646 1.386 . S
C647 C651 1.393 . S
C648 H640 0.950 . S
C648 C646 1.391 . S
C648 C649 1.400 . S
C649 C648 1.400 . S
C649 C650 1.398 . S
C649 C655 1.491 . S
C650 H641 0.950 . S
C650 C649 1.398 . S
C650 C651 1.391 . S
C651 H639 0.950 . S
C651 C647 1.393 . S
C651 C650 1.391 . S
C652 H642 0.950 . S
C652 C653 1.386 . S
C652 C654 1.391 . S
C653 C652 1.386 . S
C653 C657 1.393 . S
C654 H643 0.950 . S
C654 C652 1.391 . S
C654 C655 1.400 . S
C655 C649 1.491 . S
C655 C654 1.400 . S
C655 C656 1.398 . S
C656 H644 0.950 . S
C656 C655 1.398 . S
C656 C657 1.391 . S
C657 H645 0.950 . S
C657 C653 1.393 . S
C657 C656 1.391 . S
H658 C666 0.950 . S
H659 C671 0.950 . S
H660 C668 0.950 . S
H661 C670 0.950 . S
H662 C672 0.950 . S
H663 C674 0.950 . S
H664 C676 0.950 . S
H665 C677 0.950 . S
C666 H658 0.950 . S
C666 C667 1.386 . S
C666 C668 1.391 . S
C667 C666 1.386 . S
C667 C671 1.393 . S
C668 H660 0.950 . S
C668 C666 1.391 . S
C668 C669 1.400 . S
C669 C668 1.400 . S
C669 C670 1.398 . S
C669 C675 1.491 . S
C670 H661 0.950 . S
C670 C669 1.398 . S
C670 C671 1.391 . S
C671 H659 0.950 . S
C671 C667 1.393 . S
C671 C670 1.391 . S
C672 H662 0.950 . S
C672 C673 1.386 . S
C672 C674 1.391 . S
C673 C672 1.386 . S
C673 C677 1.393 . S
C674 H663 0.950 . S
C674 C672 1.391 . S
C674 C675 1.400 . S
C675 C669 1.491 . S
C675 C674 1.400 . S
C675 C676 1.398 . S
C676 H664 0.950 . S
C676 C675 1.398 . S
C676 C677 1.391 . S
C677 H665 0.950 . S
C677 C673 1.393 . S
C677 C676 1.391 . S
H678 C686 0.950 . S
H679 C691 0.950 . S
H680 C688 0.950 . S
H681 C690 0.950 . S
H682 C692 0.950 . S
H683 C694 0.950 . S
H684 C696 0.950 . S
H685 C697 0.950 . S
C686 H678 0.950 . S
C686 C687 1.386 . S
C686 C688 1.391 . S
C687 C686 1.386 . S
C687 C691 1.393 . S
C688 H680 0.950 . S
C688 C686 1.391 . S
C688 C689 1.400 . S
C689 C688 1.400 . S
C689 C690 1.398 . S
C689 C695 1.491 . S
C690 H681 0.950 . S
C690 C689 1.398 . S
C690 C691 1.391 . S
C691 H679 0.950 . S
C691 C687 1.393 . S
C691 C690 1.391 . S
C692 H682 0.950 . S
C692 C693 1.386 . S
C692 C694 1.391 . S
C693 C692 1.386 . S
C693 C697 1.393 . S
C694 H683 0.950 . S
C694 C692 1.391 . S
C694 C695 1.400 . S
C695 C689 1.491 . S
C695 C694 1.400 . S
C695 C696 1.398 . S
C696 H684 0.950 . S
C696 C695 1.398 . S
C696 C697 1.391 . S
C697 H685 0.950 . S
C697 C693 1.393 . S
C697 C696 1.391 . S
H698 C706 0.950 . S
H699 C711 0.950 . S
H700 C708 0.950 . S
H701 C710 0.950 . S
H702 C712 0.950 . S
H703 C714 0.950 . S
H704 C716 0.950 . S
H705 C717 0.950 . S
C706 H698 0.950 . S
C706 C707 1.386 . S
C706 C708 1.391 . S
C707 C706 1.386 . S
C707 C711 1.393 . S
C708 H700 0.950 . S
C708 C706 1.391 . S
C708 C709 1.400 . S
C709 C708 1.400 . S
C709 C710 1.398 . S
C709 C715 1.491 . S
C710 H701 0.950 . S
C710 C709 1.398 . S
C710 C711 1.391 . S
C711 H699 0.950 . S
C711 C707 1.393 . S
C711 C710 1.391 . S
C712 H702 0.950 . S
C712 C713 1.386 . S
C712 C714 1.391 . S
C713 C712 1.386 . S
C713 C717 1.393 . S
C714 H703 0.950 . S
C714 C712 1.391 . S
C714 C715 1.400 . S
C715 C709 1.491 . S
C715 C714 1.400 . S
C715 C716 1.398 . S
C716 H704 0.950 . S
C716 C715 1.398 . S
C716 C717 1.391 . S
C717 H705 0.950 . S
C717 C713 1.393 . S
C717 C716 1.391 . S
H718 C726 0.950 . S
H719 C731 0.950 . S
H720 C728 0.950 . S
H721 C730 0.950 . S
H722 C732 0.950 . S
H723 C734 0.950 . S
H724 C736 0.950 . S
H725 C737 0.950 . S
C726 H718 0.950 . S
C726 C727 1.386 . S
C726 C728 1.391 . S
C727 C726 1.386 . S
C727 C731 1.393 . S
C728 H720 0.950 . S
C728 C726 1.391 . S
C728 C729 1.400 . S
C729 C728 1.400 . S
C729 C730 1.398 . S
C729 C735 1.491 . S
C730 H721 0.950 . S
C730 C729 1.398 . S
C730 C731 1.391 . S
C731 H719 0.950 . S
C731 C727 1.393 . S
C731 C730 1.391 . S
C732 H722 0.950 . S
C732 C733 1.386 . S
C732 C734 1.391 . S
C733 C732 1.386 . S
C733 C737 1.393 . S
C734 H723 0.950 . S
C734 C732 1.391 . S
C734 C735 1.400 . S
C735 C729 1.491 . S
C735 C734 1.400 . S
C735 C736 1.398 . S
C736 H724 0.950 . S
C736 C735 1.398 . S
C736 C737 1.391 . S
C737 H725 0.950 . S
C737 C733 1.393 . S
C737 C736 1.391 . S
H738 C746 0.950 . S
H739 C751 0.950 . S
H740 C748 0.950 . S
H741 C750 0.950 . S
H742 C752 0.950 . S
H743 C754 0.950 . S
H744 C756 0.950 . S
H745 C757 0.950 . S
C746 H738 0.950 . S
C746 C747 1.386 . S
C746 C748 1.391 . S
C747 C746 1.386 . S
C747 C751 1.393 . S
C748 H740 0.950 . S
C748 C746 1.391 . S
C748 C749 1.400 . S
C749 C748 1.400 . S
C749 C750 1.398 . S
C749 C755 1.491 . S
C750 H741 0.950 . S
C750 C749 1.398 . S
C750 C751 1.391 . S
C751 H739 0.950 . S
C751 C747 1.393 . S
C751 C750 1.391 . S
C752 H742 0.950 . S
C752 C753 1.386 . S
C752 C754 1.391 . S
C753 C752 1.386 . S
C753 C757 1.393 . S
C754 H743 0.950 . S
C754 C752 1.391 . S
C754 C755 1.400 . S
C755 C749 1.491 . S
C755 C754 1.400 . S
C755 C756 1.398 . S
C756 H744 0.950 . S
C756 C755 1.398 . S
C756 C757 1.391 . S
C757 H745 0.950 . S
C757 C753 1.393 . S
C757 C756 1.391 . S
H758 C766 0.950 . S
H759 C771 0.950 . S
H760 C768 0.950 . S
H761 C770 0.950 . S
H762 C772 0.950 . S
H763 C774 0.950 . S
H764 C776 0.950 . S
H765 C777 0.950 . S
C766 H758 0.950 . S
C766 C767 1.386 . S
C766 C768 1.391 . S
C767 C766 1.386 . S
C767 C771 1.393 . S
C768 H760 0.950 . S
C768 C766 1.391 . S
C768 C769 1.400 . S
C769 C768 1.400 . S
C769 C770 1.398 . S
C769 C775 1.491 . S
C770 H761 0.950 . S
C770 C769 1.398 . S
C770 C771 1.391 . S
C771 H759 0.950 . S
C771 C767 1.393 . S
C771 C770 1.391 . S
C772 H762 0.950 . S
C772 C773 1.386 . S
C772 C774 1.391 . S
C773 C772 1.386 . S
C773 C777 1.393 . S
C774 H763 0.950 . S
C774 C772 1.391 . S
C774 C775 1.400 . S
C775 C769 1.491 . S
C775 C774 1.400 . S
C775 C776 1.398 . S
C776 H764 0.950 . S
C776 C775 1.398 . S
C776 C777 1.391 . S
C777 H765 0.950 . S
C777 C773 1.393 . S
C777 C776 1.391 . S
H778 C786 0.950 . S
H779 C791 0.950 . S
H780 C788 0.950 . S
H781 C790 0.950 . S
H782 C792 0.950 . S
H783 C794 0.950 . S
H784 C796 0.950 . S
H785 C797 0.950 . S
C786 H778 0.950 . S
C786 C787 1.386 . S
C786 C788 1.391 . S
C787 C786 1.386 . S
C787 C791 1.393 . S
C788 H780 0.950 . S
C788 C786 1.391 . S
C788 C789 1.400 . S
C789 C788 1.400 . S
C789 C790 1.398 . S
C789 C795 1.491 . S
C790 H781 0.950 . S
C790 C789 1.398 . S
C790 C791 1.391 . S
C791 H779 0.950 . S
C791 C787 1.393 . S
C791 C790 1.391 . S
C792 H782 0.950 . S
C792 C793 1.386 . S
C792 C794 1.391 . S
C793 C792 1.386 . S
C793 C797 1.393 . S
C794 H783 0.950 . S
C794 C792 1.391 . S
C794 C795 1.400 . S
C795 C789 1.491 . S
C795 C794 1.400 . S
C795 C796 1.398 . S
C796 H784 0.950 . S
C796 C795 1.398 . S
C796 C797 1.391 . S
C797 H785 0.950 . S
C797 C793 1.393 . S
C797 C796 1.391 . S
H798 C806 0.950 . S
H799 C811 0.950 . S
H800 C808 0.950 . S
H801 C810 0.950 . S
H802 C812 0.950 . S
H803 C814 0.950 . S
H804 C816 0.950 . S
H805 C817 0.950 . S
C806 H798 0.950 . S
C806 C807 1.386 . S
C806 C808 1.391 . S
C807 C806 1.386 . S
C807 C811 1.393 . S
C808 H800 0.950 . S
C808 C806 1.391 . S
C808 C809 1.400 . S
C809 C808 1.400 . S
C809 C810 1.398 . S
C809 C815 1.491 . S
C810 H801 0.950 . S
C810 C809 1.398 . S
C810 C811 1.391 . S
C811 H799 0.950 . S
C811 C807 1.393 . S
C811 C810 1.391 . S
C812 H802 0.950 . S
C812 C813 1.386 . S
C812 C814 1.391 . S
C813 C812 1.386 . S
C813 C817 1.393 . S
C814 H803 0.950 . S
C814 C812 1.391 . S
C814 C815 1.400 . S
C815 C809 1.491 . S
C815 C814 1.400 . S
C815 C816 1.398 . S
C816 H804 0.950 . S
C816 C815 1.398 . S
C816 C817 1.391 . S
C817 H805 0.950 . S
C817 C813 1.393 . S
C817 C816 1.391 . S
H818 C826 0.950 . S
H819 C831 0.950 . S
H820 C828 0.950 . S
H821 C830 0.950 . S
H822 C832 0.950 . S
H823 C834 0.950 . S
H824 C836 0.950 . S
H825 C837 0.950 . S
C826 H818 0.950 . S
C826 C827 1.386 . S
C826 C828 1.391 . S
C827 C826 1.386 . S
C827 C831 1.393 . S
C828 H820 0.950 . S
C828 C826 1.391 . S
C828 C829 1.400 . S
C829 C828 1.400 . S
C829 C830 1.398 . S
C829 C835 1.491 . S
C830 H821 0.950 . S
C830 C829 1.398 . S
C830 C831 1.391 . S
C831 H819 0.950 . S
C831 C827 1.393 . S
C831 C830 1.391 . S
C832 H822 0.950 . S
C832 C833 1.386 . S
C832 C834 1.391 . S
C833 C832 1.386 . S
C833 C837 1.393 . S
C834 H823 0.950 . S
C834 C832 1.391 . S
C834 C835 1.400 . S
C835 C829 1.491 . S
C835 C834 1.400 . S
C835 C836 1.398 . S
C836 H824 0.950 . S
C836 C835 1.398 . S
C836 C837 1.391 . S
C837 H825 0.950 . S
C837 C833 1.393 . S
C837 C836 1.391 . S
H838 C846 0.950 . S
H839 C851 0.950 . S
H840 C848 0.950 . S
H841 C850 0.950 . S
H842 C852 0.950 . S
H843 C854 0.950 . S
H844 C856 0.950 . S
H845 C857 0.950 . S
C846 H838 0.950 . S
C846 C847 1.386 . S
C846 C848 1.391 . S
C847 C846 1.386 . S
C847 C851 1.393 . S
C848 H840 0.950 . S
C848 C846 1.391 . S
C848 C849 1.400 . S
C849 C848 1.400 . S
C849 C850 1.398 . S
C849 C855 1.491 . S
C850 H841 0.950 . S
C850 C849 1.398 . S
C850 C851 1.391 . S
C851 H839 0.950 . S
C851 C847 1.393 . S
C851 C850 1.391 . S
C852 H842 0.950 . S
C852 C853 1.386 . S
C852 C854 1.391 . S
C853 C852 1.386 . S
C853 C857 1.393 . S
C854 H843 0.950 . S
C854 C852 1.391 . S
C854 C855 1.400 . S
C855 C849 1.491 . S
C855 C854 1.400 . S
C855 C856 1.398 . S
C856 H844 0.950 . S
C856 C855 1.398 . S
C856 C857 1.391 . S
C857 H845 0.950 . S
C857 C853 1.393 . S
C857 C856 1.391 . S
H858 C866 0.950 . S
H859 C871 0.950 . S
H860 C868 0.950 . S
H861 C870 0.950 . S
H862 C872 0.950 . S
H863 C874 0.950 . S
H864 C876 0.950 . S
H865 C877 0.950 . S
C866 H858 0.950 . S
C866 C867 1.386 . S
C866 C868 1.391 . S
C867 C866 1.386 . S
C867 C871 1.393 . S
C868 H860 0.950 . S
C868 C866 1.391 . S
C868 C869 1.400 . S
C869 C868 1.400 . S
C869 C870 1.398 . S
C869 C875 1.491 . S
C870 H861 0.950 . S
C870 C869 1.398 . S
C870 C871 1.391 . S
C871 H859 0.950 . S
C871 C867 1.393 . S
C871 C870 1.391 . S
C872 H862 0.950 . S
C872 C873 1.386 . S
C872 C874 1.391 . S
C873 C872 1.386 . S
C873 C877 1.393 . S
C874 H863 0.950 . S
C874 C872 1.391 . S
C874 C875 1.400 . S
C875 C869 1.491 . S
C875 C874 1.400 . S
C875 C876 1.398 . S
C876 H864 0.950 . S
C876 C875 1.398 . S
C876 C877 1.391 . S
C877 H865 0.950 . S
C877 C873 1.393 . S
C877 C876 1.391 . S
H878 C886 0.950 . S
H879 C891 0.950 . S
H880 C888 0.950 . S
H881 C890 0.950 . S
H882 C892 0.950 . S
H883 C894 0.950 . S
H884 C896 0.950 . S
H885 C897 0.950 . S
C886 H878 0.950 . S
C886 C887 1.386 . S
C886 C888 1.391 . S
C887 C886 1.386 . S
C887 C891 1.393 . S
C888 H880 0.950 . S
C888 C886 1.391 . S
C888 C889 1.400 . S
C889 C888 1.400 . S
C889 C890 1.398 . S
C889 C895 1.491 . S
C890 H881 0.950 . S
C890 C889 1.398 . S
C890 C891 1.391 . S
C891 H879 0.950 . S
C891 C887 1.393 . S
C891 C890 1.391 . S
C892 H882 0.950 . S
C892 C893 1.386 . S
C892 C894 1.391 . S
C893 C892 1.386 . S
C893 C897 1.393 . S
C894 H883 0.950 . S
C894 C892 1.391 . S
C894 C895 1.400 . S
C895 C889 1.491 . S
C895 C894 1.400 . S
C895 C896 1.398 . S
C896 H884 0.950 . S
C896 C895 1.398 . S
C896 C897 1.391 . S
C897 H885 0.950 . S
C897 C893 1.393 . S
C897 C896 1.391 . S
H898 C906 0.950 . S
H899 C911 0.950 . S
H900 C908 0.950 . S
H901 C910 0.950 . S
H902 C912 0.950 . S
H903 C914 0.950 . S
H904 C916 0.950 . S
H905 C917 0.950 . S
C906 H898 0.950 . S
C906 C907 1.386 . S
C906 C908 1.391 . S
C907 C906 1.386 . S
C907 C911 1.393 . S
C908 H900 0.950 . S
C908 C906 1.391 . S
C908 C909 1.400 . S
C909 C908 1.400 . S
C909 C910 1.398 . S
C909 C915 1.491 . S
C910 H901 0.950 . S
C910 C909 1.398 . S
C910 C911 1.391 . S
C911 H899 0.950 . S
C911 C907 1.393 . S
C911 C910 1.391 . S
C912 H902 0.950 . S
C912 C913 1.386 . S
C912 C914 1.391 . S
C913 C912 1.386 . S
C913 C917 1.393 . S
C914 H903 0.950 . S
C914 C912 1.391 . S
C914 C915 1.400 . S
C915 C909 1.491 . S
C915 C914 1.400 . S
C915 C916 1.398 . S
C916 H904 0.950 . S
C916 C915 1.398 . S
C916 C917 1.391 . S
C917 H905 0.950 . S
C917 C913 1.393 . S
C917 C916 1.391 . S
H918 C926 0.950 . S
H919 C931 0.950 . S
H920 C928 0.950 . S
H921 C930 0.950 . S
H922 C932 0.950 . S
H923 C934 0.950 . S
H924 C936 0.950 . S
H925 C937 0.950 . S
C926 H918 0.950 . S
C926 C927 1.386 . S
C926 C928 1.391 . S
C927 C926 1.386 . S
C927 C931 1.393 . S
C928 H920 0.950 . S
C928 C926 1.391 . S
C928 C929 1.400 . S
C929 C928 1.400 . S
C929 C930 1.398 . S
C929 C935 1.491 . S
C930 H921 0.950 . S
C930 C929 1.398 . S
C930 C931 1.391 . S
C931 H919 0.950 . S
C931 C927 1.393 . S
C931 C930 1.391 . S
C932 H922 0.950 . S
C932 C933 1.386 . S
C932 C934 1.391 . S
C933 C932 1.386 . S
C933 C937 1.393 . S
C934 H923 0.950 . S
C934 C932 1.391 . S
C934 C935 1.400 . S
C935 C929 1.491 . S
C935 C934 1.400 . S
C935 C936 1.398 . S
C936 H924 0.950 . S
C936 C935 1.398 . S
C936 C937 1.391 . S
C937 H925 0.950 . S
C937 C933 1.393 . S
C937 C936 1.391 . S
H938 C946 0.950 . S
H939 C951 0.950 . S
H940 C948 0.950 . S
H941 C950 0.950 . S
H942 C952 0.950 . S
H943 C954 0.950 . S
H944 C956 0.950 . S
H945 C957 0.950 . S
C946 H938 0.950 . S
C946 C947 1.386 . S
C946 C948 1.391 . S
C947 C946 1.386 . S
C947 C951 1.393 . S
C948 H940 0.950 . S
C948 C946 1.391 . S
C948 C949 1.400 . S
C949 C948 1.400 . S
C949 C950 1.398 . S
C949 C955 1.491 . S
C950 H941 0.950 . S
C950 C949 1.398 . S
C950 C951 1.391 . S
C951 H939 0.950 . S
C951 C947 1.393 . S
C951 C950 1.391 . S
C952 H942 0.950 . S
C952 C953 1.386 . S
C952 C954 1.391 . S
C953 C952 1.386 . S
C953 C957 1.393 . S
C954 H943 0.950 . S
C954 C952 1.391 . S
C954 C955 1.400 . S
C955 C949 1.491 . S
C955 C954 1.400 . S
C955 C956 1.398 . S
C956 H944 0.950 . S
C956 C955 1.398 . S
C956 C957 1.391 . S
C957 H945 0.950 . S
C957 C953 1.393 . S
C957 C956 1.391 . S
H958 C966 0.950 . S
H959 C971 0.950 . S
H960 C968 0.950 . S
H961 C970 0.950 . S
H962 C972 0.950 . S
H963 C974 0.950 . S
H964 C976 0.950 . S
H965 C977 0.950 . S
C966 H958 0.950 . S
C966 C967 1.386 . S
C966 C968 1.391 . S
C967 C966 1.386 . S
C967 C971 1.393 . S
C968 H960 0.950 . S
C968 C966 1.391 . S
C968 C969 1.400 . S
C969 C968 1.400 . S
C969 C970 1.398 . S
C969 C975 1.491 . S
C970 H961 0.950 . S
C970 C969 1.398 . S
C970 C971 1.391 . S
C971 H959 0.950 . S
C971 C967 1.393 . S
C971 C970 1.391 . S
C972 H962 0.950 . S
C972 C973 1.386 . S
C972 C974 1.391 . S
C973 C972 1.386 . S
C973 C977 1.393 . S
C974 H963 0.950 . S
C974 C972 1.391 . S
C974 C975 1.400 . S
C975 C969 1.491 . S
C975 C974 1.400 . S
C975 C976 1.398 . S
C976 H964 0.950 . S
C976 C975 1.398 . S
C976 C977 1.391 . S
C977 H965 0.950 . S
C977 C973 1.393 . S
C977 C976 1.391 . S
H978 C986 0.950 . S
H979 C991 0.950 . S
H980 C988 0.950 . S
H981 C990 0.950 . S
H982 C992 0.950 . S
H983 C994 0.950 . S
H984 C996 0.950 . S
H985 C997 0.950 . S
C986 H978 0.950 . S
C986 C987 1.386 . S
C986 C988 1.391 . S
C987 C986 1.386 . S
C987 C991 1.393 . S
C988 H980 0.950 . S
C988 C986 1.391 . S
C988 C989 1.400 . S
C989 C988 1.400 . S
C989 C990 1.398 . S
C989 C995 1.491 . S
C990 H981 0.950 . S
C990 C989 1.398 . S
C990 C991 1.391 . S
C991 H979 0.950 . S
C991 C987 1.393 . S
C991 C990 1.391 . S
C992 H982 0.950 . S
C992 C993 1.386 . S
C992 C994 1.391 . S
C993 C992 1.386 . S
C993 C997 1.393 . S
C994 H983 0.950 . S
C994 C992 1.391 . S
C994 C995 1.400 . S
C995 C989 1.491 . S
C995 C994 1.400 . S
C995 C996 1.398 . S
C996 H984 0.950 . S
C996 C995 1.398 . S
C996 C997 1.391 . S
C997 H985 0.950 . S
C997 C993 1.393 . S
C997 C996 1.391 . S
H998 C1006 0.950 . S
H999 C1011 0.950 . S
H1000 C1008 0.950 . S
H1001 C1010 0.950 . S
H1002 C1012 0.950 . S
H1003 C1014 0.950 . S
H1004 C1016 0.950 . S
H1005 C1017 0.950 . S
C1006 H998 0.950 . S
C1006 C1007 1.386 . S
C1006 C1008 1.391 . S
C1007 C1006 1.386 . S
C1007 C1011 1.393 . S
C1008 H1000 0.950 . S
C1008 C1006 1.391 . S
C1008 C1009 1.400 . S
C1009 C1008 1.400 . S
C1009 C1010 1.398 . S
C1009 C1015 1.491 . S
C1010 H1001 0.950 . S
C1010 C1009 1.398 . S
C1010 C1011 1.391 . S
C1011 H999 0.950 . S
C1011 C1007 1.393 . S
C1011 C1010 1.391 . S
C1012 H1002 0.950 . S
C1012 C1013 1.386 . S
C1012 C1014 1.391 . S
C1013 C1012 1.386 . S
C1013 C1017 1.393 . S
C1014 H1003 0.950 . S
C1014 C1012 1.391 . S
C1014 C1015 1.400 . S
C1015 C1009 1.491 . S
C1015 C1014 1.400 . S
C1015 C1016 1.398 . S
C1016 H1004 0.950 . S
C1016 C1015 1.398 . S
C1016 C1017 1.391 . S
C1017 H1005 0.950 . S
C1017 C1013 1.393 . S
C1017 C1016 1.391 . S
H1018 C1026 0.950 . S
H1019 C1031 0.950 . S
H1020 C1028 0.950 . S
H1021 C1030 0.950 . S
H1022 C1032 0.950 . S
H1023 C1034 0.950 . S
H1024 C1036 0.950 . S
H1025 C1037 0.950 . S
C1026 H1018 0.950 . S
C1026 C1027 1.386 . S
C1026 C1028 1.391 . S
C1027 C1026 1.386 . S
C1027 C1031 1.393 . S
C1028 H1020 0.950 . S
C1028 C1026 1.391 . S
C1028 C1029 1.400 . S
C1029 C1028 1.400 . S
C1029 C1030 1.398 . S
C1029 C1035 1.491 . S
C1030 H1021 0.950 . S
C1030 C1029 1.398 . S
C1030 C1031 1.391 . S
C1031 H1019 0.950 . S
C1031 C1027 1.393 . S
C1031 C1030 1.391 . S
C1032 H1022 0.950 . S
C1032 C1033 1.386 . S
C1032 C1034 1.391 . S
C1033 C1032 1.386 . S
C1033 C1037 1.393 . S
C1034 H1023 0.950 . S
C1034 C1032 1.391 . S
C1034 C1035 1.400 . S
C1035 C1029 1.491 . S
C1035 C1034 1.400 . S
C1035 C1036 1.398 . S
C1036 H1024 0.950 . S
C1036 C1035 1.398 . S
C1036 C1037 1.391 . S
C1037 H1025 0.950 . S
C1037 C1033 1.393 . S
C1037 C1036 1.391 . S
H1038 C1046 0.950 . S
H1039 C1051 0.950 . S
H1040 C1048 0.950 . S
H1041 C1050 0.950 . S
H1042 C1052 0.950 . S
H1043 C1054 0.950 . S
H1044 C1056 0.950 . S
H1045 C1057 0.950 . S
C1046 H1038 0.950 . S
C1046 C1047 1.386 . S
C1046 C1048 1.391 . S
C1047 C1046 1.386 . S
C1047 C1051 1.393 . S
C1048 H1040 0.950 . S
C1048 C1046 1.391 . S
C1048 C1049 1.400 . S
C1049 C1048 1.400 . S
C1049 C1050 1.398 . S
C1049 C1055 1.491 . S
C1050 H1041 0.950 . S
C1050 C1049 1.398 . S
C1050 C1051 1.391 . S
C1051 H1039 0.950 . S
C1051 C1047 1.393 . S
C1051 C1050 1.391 . S
C1052 H1042 0.950 . S
C1052 C1053 1.386 . S
C1052 C1054 1.391 . S
C1053 C1052 1.386 . S
C1053 C1057 1.393 . S
C1054 H1043 0.950 . S
C1054 C1052 1.391 . S
C1054 C1055 1.400 . S
C1055 C1049 1.491 . S
C1055 C1054 1.400 . S
C1055 C1056 1.398 . S
C1056 H1044 0.950 . S
C1056 C1055 1.398 . S
C1056 C1057 1.391 . S
C1057 H1045 0.950 . S
C1057 C1053 1.393 . S
C1057 C1056 1.391 . S
H1058 C1066 0.950 . S
H1059 C1071 0.950 . S
H1060 C1068 0.950 . S
H1061 C1070 0.950 . S
H1062 C1072 0.950 . S
H1063 C1074 0.950 . S
H1064 C1076 0.950 . S
H1065 C1077 0.950 . S
C1066 H1058 0.950 . S
C1066 C1067 1.386 . S
C1066 C1068 1.391 . S
C1067 C1066 1.386 . S
C1067 C1071 1.393 . S
C1068 H1060 0.950 . S
C1068 C1066 1.391 . S
C1068 C1069 1.400 . S
C1069 C1068 1.400 . S
C1069 C1070 1.398 . S
C1069 C1075 1.491 . S
C1070 H1061 0.950 . S
C1070 C1069 1.398 . S
C1070 C1071 1.391 . S
C1071 H1059 0.950 . S
C1071 C1067 1.393 . S
C1071 C1070 1.391 . S
C1072 H1062 0.950 . S
C1072 C1073 1.386 . S
C1072 C1074 1.391 . S
C1073 C1072 1.386 . S
C1073 C1077 1.393 . S
C1074 H1063 0.950 . S
C1074 C1072 1.391 . S
C1074 C1075 1.400 . S
C1075 C1069 1.491 . S
C1075 C1074 1.400 . S
C1075 C1076 1.398 . S
C1076 H1064 0.950 . S
C1076 C1075 1.398 . S
C1076 C1077 1.391 . S
C1077 H1065 0.950 . S
C1077 C1073 1.393 . S
C1077 C1076 1.391 . S
H1078 C1086 0.950 . S
H1079 C1091 0.950 . S
H1080 C1088 0.950 . S
H1081 C1090 0.950 . S
H1082 C1092 0.950 . S
H1083 C1094 0.950 . S
H1084 C1096 0.950 . S
H1085 C1097 0.950 . S
C1086 H1078 0.950 . S
C1086 C1087 1.386 . S
C1086 C1088 1.391 . S
C1087 C1086 1.386 . S
C1087 C1091 1.393 . S
C1088 H1080 0.950 . S
C1088 C1086 1.391 . S
C1088 C1089 1.400 . S
C1089 C1088 1.400 . S
C1089 C1090 1.398 . S
C1089 C1095 1.491 . S
C1090 H1081 0.950 . S
C1090 C1089 1.398 . S
C1090 C1091 1.391 . S
C1091 H1079 0.950 . S
C1091 C1087 1.393 . S
C1091 C1090 1.391 . S
C1092 H1082 0.950 . S
C1092 C1093 1.386 . S
C1092 C1094 1.391 . S
C1093 C1092 1.386 . S
C1093 C1097 1.393 . S
C1094 H1083 0.950 . S
C1094 C1092 1.391 . S
C1094 C1095 1.400 . S
C1095 C1089 1.491 . S
C1095 C1094 1.400 . S
C1095 C1096 1.398 . S
C1096 H1084 0.950 . S
C1096 C1095 1.398 . S
C1096 C1097 1.391 . S
C1097 H1085 0.950 . S
C1097 C1093 1.393 . S
C1097 C1096 1.391 . S
H1098 C1106 0.950 . S
H1099 C1111 0.950 . S
H1100 C1108 0.950 . S
H1101 C1110 0.950 . S
H1102 C1112 0.950 . S
H1103 C1114 0.950 . S
H1104 C1116 0.950 . S
H1105 C1117 0.950 . S
C1106 H1098 0.950 . S
C1106 C1107 1.386 . S
C1106 C1108 1.391 . S
C1107 C1106 1.386 . S
C1107 C1111 1.393 . S
C1108 H1100 0.950 . S
C1108 C1106 1.391 . S
C1108 C1109 1.400 . S
C1109 C1108 1.400 . S
C1109 C1110 1.398 . S
C1109 C1115 1.491 . S
C1110 H1101 0.950 . S
C1110 C1109 1.398 . S
C1110 C1111 1.391 . S
C1111 H1099 0.950 . S
C1111 C1107 1.393 . S
C1111 C1110 1.391 . S
C1112 H1102 0.950 . S
C1112 C1113 1.386 . S
C1112 C1114 1.391 . S
C1113 C1112 1.386 . S
C1113 C1117 1.393 . S
C1114 H1103 0.950 . S
C1114 C1112 1.391 . S
C1114 C1115 1.400 . S
C1115 C1109 1.491 . S
C1115 C1114 1.400 . S
C1115 C1116 1.398 . S
C1116 H1104 0.950 . S
C1116 C1115 1.398 . S
C1116 C1117 1.391 . S
C1117 H1105 0.950 . S
C1117 C1113 1.393 . S
C1117 C1116 1.391 . S
H1118 C1126 0.950 . S
H1119 C1131 0.950 . S
H1120 C1128 0.950 . S
H1121 C1130 0.950 . S
H1122 C1132 0.950 . S
H1123 C1134 0.950 . S
H1124 C1136 0.950 . S
H1125 C1137 0.950 . S
C1126 H1118 0.950 . S
C1126 C1127 1.386 . S
C1126 C1128 1.391 . S
C1127 C1126 1.386 . S
C1127 C1131 1.393 . S
C1128 H1120 0.950 . S
C1128 C1126 1.391 . S
C1128 C1129 1.400 . S
C1129 C1128 1.400 . S
C1129 C1130 1.398 . S
C1129 C1135 1.491 . S
C1130 H1121 0.950 . S
C1130 C1129 1.398 . S
C1130 C1131 1.391 . S
C1131 H1119 0.950 . S
C1131 C1127 1.393 . S
C1131 C1130 1.391 . S
C1132 H1122 0.950 . S
C1132 C1133 1.386 . S
C1132 C1134 1.391 . S
C1133 C1132 1.386 . S
C1133 C1137 1.393 . S
C1134 H1123 0.950 . S
C1134 C1132 1.391 . S
C1134 C1135 1.400 . S
C1135 C1129 1.491 . S
C1135 C1134 1.400 . S
C1135 C1136 1.398 . S
C1136 H1124 0.950 . S
C1136 C1135 1.398 . S
C1136 C1137 1.391 . S
C1137 H1125 0.950 . S
C1137 C1133 1.393 . S
C1137 C1136 1.391 . S
H1138 C1146 0.950 . S
H1139 C1151 0.950 . S
H1140 C1148 0.950 . S
H1141 C1150 0.950 . S
H1142 C1152 0.950 . S
H1143 C1154 0.950 . S
H1144 C1156 0.950 . S
H1145 C1157 0.950 . S
C1146 H1138 0.950 . S
C1146 C1147 1.386 . S
C1146 C1148 1.391 . S
C1147 C1146 1.386 . S
C1147 C1151 1.393 . S
C1148 H1140 0.950 . S
C1148 C1146 1.391 . S
C1148 C1149 1.400 . S
C1149 C1148 1.400 . S
C1149 C1150 1.398 . S
C1149 C1155 1.491 . S
C1150 H1141 0.950 . S
C1150 C1149 1.398 . S
C1150 C1151 1.391 . S
C1151 H1139 0.950 . S
C1151 C1147 1.393 . S
C1151 C1150 1.391 . S
C1152 H1142 0.950 . S
C1152 C1153 1.386 . S
C1152 C1154 1.391 . S
C1153 C1152 1.386 . S
C1153 C1157 1.393 . S
C1154 H1143 0.950 . S
C1154 C1152 1.391 . S
C1154 C1155 1.400 . S
C1155 C1149 1.491 . S
C1155 C1154 1.400 . S
C1155 C1156 1.398 . S
C1156 H1144 0.950 . S
C1156 C1155 1.398 . S
C1156 C1157 1.391 . S
C1157 H1145 0.950 . S
C1157 C1153 1.393 . S
C1157 C1156 1.391 . S
H1158 C1166 0.950 . S
H1159 C1171 0.950 . S
H1160 C1168 0.950 . S
H1161 C1170 0.950 . S
H1162 C1172 0.950 . S
H1163 C1174 0.950 . S
H1164 C1176 0.950 . S
H1165 C1177 0.950 . S
C1166 H1158 0.950 . S
C1166 C1167 1.386 . S
C1166 C1168 1.391 . S
C1167 C1166 1.386 . S
C1167 C1171 1.393 . S
C1168 H1160 0.950 . S
C1168 C1166 1.391 . S
C1168 C1169 1.400 . S
C1169 C1168 1.400 . S
C1169 C1170 1.398 . S
C1169 C1175 1.491 . S
C1170 H1161 0.950 . S
C1170 C1169 1.398 . S
C1170 C1171 1.391 . S
C1171 H1159 0.950 . S
C1171 C1167 1.393 . S
C1171 C1170 1.391 . S
C1172 H1162 0.950 . S
C1172 C1173 1.386 . S
C1172 C1174 1.391 . S
C1173 C1172 1.386 . S
C1173 C1177 1.393 . S
C1174 H1163 0.950 . S
C1174 C1172 1.391 . S
C1174 C1175 1.400 . S
C1175 C1169 1.491 . S
C1175 C1174 1.400 . S
C1175 C1176 1.398 . S
C1176 H1164 0.950 . S
C1176 C1175 1.398 . S
C1176 C1177 1.391 . S
C1177 H1165 0.950 . S
C1177 C1173 1.393 . S
C1177 C1176 1.391 . S
H1178 C1186 0.950 . S
H1179 C1191 0.950 . S
H1180 C1188 0.950 . S
H1181 C1190 0.950 . S
H1182 C1192 0.950 . S
H1183 C1194 0.950 . S
H1184 C1196 0.950 . S
H1185 C1197 0.950 . S
C1186 H1178 0.950 . S
C1186 C1187 1.386 . S
C1186 C1188 1.391 . S
C1187 C1186 1.386 . S
C1187 C1191 1.393 . S
C1188 H1180 0.950 . S
C1188 C1186 1.391 . S
C1188 C1189 1.400 . S
C1189 C1188 1.400 . S
C1189 C1190 1.398 . S
C1189 C1195 1.491 . S
C1190 H1181 0.950 . S
C1190 C1189 1.398 . S
C1190 C1191 1.391 . S
C1191 H1179 0.950 . S
C1191 C1187 1.393 . S
C1191 C1190 1.391 . S
C1192 H1182 0.950 . S
C1192 C1193 1.386 . S
C1192 C1194 1.391 . S
C1193 C1192 1.386 . S
C1193 C1197 1.393 . S
C1194 H1183 0.950 . S
C1194 C1192 1.391 . S
C1194 C1195 1.400 . S
C1195 C1189 1.491 . S
C1195 C1194 1.400 . S
C1195 C1196 1.398 . S
C1196 H1184 0.950 . S
C1196 C1195 1.398 . S
C1196 C1197 1.391 . S
C1197 H1185 0.950 . S
C1197 C1193 1.393 . S
C1197 C1196 1.391 . S
H1198 C1206 0.950 . S
H1199 C1211 0.950 . S
H1200 C1208 0.950 . S
H1201 C1210 0.950 . S
H1202 C1212 0.950 . S
H1203 C1214 0.950 . S
H1204 C1216 0.950 . S
H1205 C1217 0.950 . S
C1206 H1198 0.950 . S
C1206 C1207 1.386 . S
C1206 C1208 1.391 . S
C1207 C1206 1.386 . S
C1207 C1211 1.393 . S
C1208 H1200 0.950 . S
C1208 C1206 1.391 . S
C1208 C1209 1.400 . S
C1209 C1208 1.400 . S
C1209 C1210 1.398 . S
C1209 C1215 1.491 . S
C1210 H1201 0.950 . S
C1210 C1209 1.398 . S
C1210 C1211 1.391 . S
C1211 H1199 0.950 . S
C1211 C1207 1.393 . S
C1211 C1210 1.391 . S
C1212 H1202 0.950 . S
C1212 C1213 1.386 . S
C1212 C1214 1.391 . S
C1213 C1212 1.386 . S
C1213 C1217 1.393 . S
C1214 H1203 0.950 . S
C1214 C1212 1.391 . S
C1214 C1215 1.400 . S
C1215 C1209 1.491 . S
C1215 C1214 1.400 . S
C1215 C1216 1.398 . S
C1216 H1204 0.950 . S
C1216 C1215 1.398 . S
C1216 C1217 1.391 . S
C1217 H1205 0.950 . S
C1217 C1213 1.393 . S
C1217 C1216 1.391 . S
H1218 C1226 0.950 . S
H1219 C1231 0.950 . S
H1220 C1228 0.950 . S
H1221 C1230 0.950 . S
H1222 C1232 0.950 . S
H1223 C1234 0.950 . S
H1224 C1236 0.950 . S
H1225 C1237 0.950 . S
C1226 H1218 0.950 . S
C1226 C1227 1.386 . S
C1226 C1228 1.391 . S
C1227 C1226 1.386 . S
C1227 C1231 1.393 . S
C1228 H1220 0.950 . S
C1228 C1226 1.391 . S
C1228 C1229 1.400 . S
C1229 C1228 1.400 . S
C1229 C1230 1.398 . S
C1229 C1235 1.491 . S
C1230 H1221 0.950 . S
C1230 C1229 1.398 . S
C1230 C1231 1.391 . S
C1231 H1219 0.950 . S
C1231 C1227 1.393 . S
C1231 C1230 1.391 . S
C1232 H1222 0.950 . S
C1232 C1233 1.386 . S
C1232 C1234 1.391 . S
C1233 C1232 1.386 . S
C1233 C1237 1.393 . S
C1234 H1223 0.950 . S
C1234 C1232 1.391 . S
C1234 C1235 1.400 . S
C1235 C1229 1.491 . S
C1235 C1234 1.400 . S
C1235 C1236 1.398 . S
C1236 H1224 0.950 . S
C1236 C1235 1.398 . S
C1236 C1237 1.391 . S
C1237 H1225 0.950 . S
C1237 C1233 1.393 . S
C1237 C1236 1.391 . S
H1238 C1246 0.950 . S
H1239 C1251 0.950 . S
H1240 C1248 0.950 . S
H1241 C1250 0.950 . S
H1242 C1252 0.950 . S
H1243 C1254 0.950 . S
H1244 C1256 0.950 . S
H1245 C1257 0.950 . S
C1246 H1238 0.950 . S
C1246 C1247 1.386 . S
C1246 C1248 1.391 . S
C1247 C1246 1.386 . S
C1247 C1251 1.393 . S
C1248 H1240 0.950 . S
C1248 C1246 1.391 . S
C1248 C1249 1.400 . S
C1249 C1248 1.400 . S
C1249 C1250 1.398 . S
C1249 C1255 1.491 . S
C1250 H1241 0.950 . S
C1250 C1249 1.398 . S
C1250 C1251 1.391 . S
C1251 H1239 0.950 . S
C1251 C1247 1.393 . S
C1251 C1250 1.391 . S
C1252 H1242 0.950 . S
C1252 C1253 1.386 . S
C1252 C1254 1.391 . S
C1253 C1252 1.386 . S
C1253 C1257 1.393 . S
C1254 H1243 0.950 . S
C1254 C1252 1.391 . S
C1254 C1255 1.400 . S
C1255 C1249 1.491 . S
C1255 C1254 1.400 . S
C1255 C1256 1.398 . S
C1256 H1244 0.950 . S
C1256 C1255 1.398 . S
C1256 C1257 1.391 . S
C1257 H1245 0.950 . S
C1257 C1253 1.393 . S
C1257 C1256 1.391 . S
H1258 C1266 0.950 . S
H1259 C1271 0.950 . S
H1260 C1268 0.950 . S
H1261 C1270 0.950 . S
H1262 C1272 0.950 . S
H1263 C1274 0.950 . S
H1264 C1276 0.950 . S
H1265 C1277 0.950 . S
C1266 H1258 0.950 . S
C1266 C1267 1.386 . S
C1266 C1268 1.391 . S
C1267 C1266 1.386 . S
C1267 C1271 1.393 . S
C1268 H1260 0.950 . S
C1268 C1266 1.391 . S
C1268 C1269 1.400 . S
C1269 C1268 1.400 . S
C1269 C1270 1.398 . S
C1269 C1275 1.491 . S
C1270 H1261 0.950 . S
C1270 C1269 1.398 . S
C1270 C1271 1.391 . S
C1271 H1259 0.950 . S
C1271 C1267 1.393 . S
C1271 C1270 1.391 . S
C1272 H1262 0.950 . S
C1272 C1273 1.386 . S
C1272 C1274 1.391 . S
C1273 C1272 1.386 . S
C1273 C1277 1.393 . S
C1274 H1263 0.950 . S
C1274 C1272 1.391 . S
C1274 C1275 1.400 . S
C1275 C1269 1.491 . S
C1275 C1274 1.400 . S
C1275 C1276 1.398 . S
C1276 H1264 0.950 . S
C1276 C1275 1.398 . S
C1276 C1277 1.391 . S
C1277 H1265 0.950 . S
C1277 C1273 1.393 . S
C1277 C1276 1.391 . S
H1278 C1286 0.950 . S
H1279 C1291 0.950 . S
H1280 C1288 0.950 . S
H1281 C1290 0.950 . S
H1282 C1292 0.950 . S
H1283 C1294 0.950 . S
H1284 C1296 0.950 . S
H1285 C1297 0.950 . S
C1286 H1278 0.950 . S
C1286 C1287 1.386 . S
C1286 C1288 1.391 . S
C1287 C1286 1.386 . S
C1287 C1291 1.393 . S
C1288 H1280 0.950 . S
C1288 C1286 1.391 . S
C1288 C1289 1.400 . S
C1289 C1288 1.400 . S
C1289 C1290 1.398 . S
C1289 C1295 1.491 . S
C1290 H1281 0.950 . S
C1290 C1289 1.398 . S
C1290 C1291 1.391 . S
C1291 H1279 0.950 . S
C1291 C1287 1.393 . S
C1291 C1290 1.391 . S
C1292 H1282 0.950 . S
C1292 C1293 1.386 . S
C1292 C1294 1.391 . S
C1293 C1292 1.386 . S
C1293 C1297 1.393 . S
C1294 H1283 0.950 . S
C1294 C1292 1.391 . S
C1294 C1295 1.400 . S
C1295 C1289 1.491 . S
C1295 C1294 1.400 . S
C1295 C1296 1.398 . S
C1296 H1284 0.950 . S
C1296 C1295 1.398 . S
C1296 C1297 1.391 . S
C1297 H1285 0.950 . S
C1297 C1293 1.393 . S
C1297 C1296 1.391 . S
H1298 C1306 0.950 . S
H1299 C1311 0.950 . S
H1300 C1308 0.950 . S
H1301 C1310 0.950 . S
H1302 C1312 0.950 . S
H1303 C1314 0.950 . S
H1304 C1316 0.950 . S
H1305 C1317 0.950 . S
C1306 H1298 0.950 . S
C1306 C1307 1.386 . S
C1306 C1308 1.391 . S
C1307 C1306 1.386 . S
C1307 C1311 1.393 . S
C1308 H1300 0.950 . S
C1308 C1306 1.391 . S
C1308 C1309 1.400 . S
C1309 C1308 1.400 . S
C1309 C1310 1.398 . S
C1309 C1315 1.491 . S
C1310 H1301 0.950 . S
C1310 C1309 1.398 . S
C1310 C1311 1.391 . S
C1311 H1299 0.950 . S
C1311 C1307 1.393 . S
C1311 C1310 1.391 . S
C1312 H1302 0.950 . S
C1312 C1313 1.386 . S
C1312 C1314 1.391 . S
C1313 C1312 1.386 . S
C1313 C1317 1.393 . S
C1314 H1303 0.950 . S
C1314 C1312 1.391 . S
C1314 C1315 1.400 . S
C1315 C1309 1.491 . S
C1315 C1314 1.400 . S
C1315 C1316 1.398 . S
C1316 H1304 0.950 . S
C1316 C1315 1.398 . S
C1316 C1317 1.391 . S
C1317 H1305 0.950 . S
C1317 C1313 1.393 . S
C1317 C1316 1.391 . S
H1318 C1326 0.950 . S
H1319 C1331 0.950 . S
H1320 C1328 0.950 . S
H1321 C1330 0.950 . S
H1322 C1332 0.950 . S
H1323 C1334 0.950 . S
H1324 C1336 0.950 . S
H1325 C1337 0.950 . S
C1326 H1318 0.950 . S
C1326 C1327 1.386 . S
C1326 C1328 1.391 . S
C1327 C1326 1.386 . S
C1327 C1331 1.393 . S
C1328 H1320 0.950 . S
C1328 C1326 1.391 . S
C1328 C1329 1.400 . S
C1329 C1328 1.400 . S
C1329 C1330 1.398 . S
C1329 C1335 1.491 . S
C1330 H1321 0.950 . S
C1330 C1329 1.398 . S
C1330 C1331 1.391 . S
C1331 H1319 0.950 . S
C1331 C1327 1.393 . S
C1331 C1330 1.391 . S
C1332 H1322 0.950 . S
C1332 C1333 1.386 . S
C1332 C1334 1.391 . S
C1333 C1332 1.386 . S
C1333 C1337 1.393 . S
C1334 H1323 0.950 . S
C1334 C1332 1.391 . S
C1334 C1335 1.400 . S
C1335 C1329 1.491 . S
C1335 C1334 1.400 . S
C1335 C1336 1.398 . S
C1336 H1324 0.950 . S
C1336 C1335 1.398 . S
C1336 C1337 1.391 . S
C1337 H1325 0.950 . S
C1337 C1333 1.393 . S
C1337 C1336 1.391 . S
H1338 C1346 0.950 . S
H1339 C1351 0.950 . S
H1340 C1348 0.950 . S
H1341 C1350 0.950 . S
H1342 C1352 0.950 . S
H1343 C1354 0.950 . S
H1344 C1356 0.950 . S
H1345 C1357 0.950 . S
C1346 H1338 0.950 . S
C1346 C1347 1.386 . S
C1346 C1348 1.391 . S
C1347 C1346 1.386 . S
C1347 C1351 1.393 . S
C1348 H1340 0.950 . S
C1348 C1346 1.391 . S
C1348 C1349 1.400 . S
C1349 C1348 1.400 . S
C1349 C1350 1.398 . S
C1349 C1355 1.491 . S
C1350 H1341 0.950 . S
C1350 C1349 1.398 . S
C1350 C1351 1.391 . S
C1351 H1339 0.950 . S
C1351 C1347 1.393 . S
C1351 C1350 1.391 . S
C1352 H1342 0.950 . S
C1352 C1353 1.386 . S
C1352 C1354 1.391 . S
C1353 C1352 1.386 . S
C1353 C1357 1.393 . S
C1354 H1343 0.950 . S
C1354 C1352 1.391 . S
C1354 C1355 1.400 . S
C1355 C1349 1.491 . S
C1355 C1354 1.400 . S
C1355 C1356 1.398 . S
C1356 H1344 0.950 . S
C1356 C1355 1.398 . S
C1356 C1357 1.391 . S
C1357 H1345 0.950 . S
C1357 C1353 1.393 . S
C1357 C1356 1.391 . S
H1358 C1366 0.950 . S
H1359 C1371 0.950 . S
H1360 C1368 0.950 . S
H1361 C1370 0.950 . S
H1362 C1372 0.950 . S
H1363 C1374 0.950 . S
H1364 C1376 0.950 . S
H1365 C1377 0.950 . S
C1366 H1358 0.950 . S
C1366 C1367 1.386 . S
C1366 C1368 1.391 . S
C1367 C1366 1.386 . S
C1367 C1371 1.393 . S
C1368 H1360 0.950 . S
C1368 C1366 1.391 . S
C1368 C1369 1.400 . S
C1369 C1368 1.400 . S
C1369 C1370 1.398 . S
C1369 C1375 1.491 . S
C1370 H1361 0.950 . S
C1370 C1369 1.398 . S
C1370 C1371 1.391 . S
C1371 H1359 0.950 . S
C1371 C1367 1.393 . S
C1371 C1370 1.391 . S
C1372 H1362 0.950 . S
C1372 C1373 1.386 . S
C1372 C1374 1.391 . S
C1373 C1372 1.386 . S
C1373 C1377 1.393 . S
C1374 H1363 0.950 . S
C1374 C1372 1.391 . S
C1374 C1375 1.400 . S
C1375 C1369 1.491 . S
C1375 C1374 1.400 . S
C1375 C1376 1.398 . S
C1376 H1364 0.950 . S
C1376 C1375 1.398 . S
C1376 C1377 1.391 . S
C1377 H1365 0.950 . S
C1377 C1373 1.393 . S
C1377 C1376 1.391 . S
H1378 C1386 0.950 . S
H1379 C1391 0.950 . S
H1380 C1388 0.950 . S
H1381 C1390 0.950 . S
H1382 C1392 0.950 . S
H1383 C1394 0.950 . S
H1384 C1396 0.950 . S
H1385 C1397 0.950 . S
C1386 H1378 0.950 . S
C1386 C1387 1.386 . S
C1386 C1388 1.391 . S
C1387 C1386 1.386 . S
C1387 C1391 1.393 . S
C1388 H1380 0.950 . S
C1388 C1386 1.391 . S
C1388 C1389 1.400 . S
C1389 C1388 1.400 . S
C1389 C1390 1.398 . S
C1389 C1395 1.491 . S
C1390 H1381 0.950 . S
C1390 C1389 1.398 . S
C1390 C1391 1.391 . S
C1391 H1379 0.950 . S
C1391 C1387 1.393 . S
C1391 C1390 1.391 . S
C1392 H1382 0.950 . S
C1392 C1393 1.386 . S
C1392 C1394 1.391 . S
C1393 C1392 1.386 . S
C1393 C1397 1.393 . S
C1394 H1383 0.950 . S
C1394 C1392 1.391 . S
C1394 C1395 1.400 . S
C1395 C1389 1.491 . S
C1395 C1394 1.400 . S
C1395 C1396 1.398 . S
C1396 H1384 0.950 . S
C1396 C1395 1.398 . S
C1396 C1397 1.391 . S
C1397 H1385 0.950 . S
C1397 C1393 1.393 . S
C1397 C1396 1.391 . S
H1398 C1406 0.950 . S
H1399 C1411 0.950 . S
H1400 C1408 0.950 . S
H1401 C1410 0.950 . S
H1402 C1412 0.950 . S
H1403 C1414 0.950 . S
H1404 C1416 0.950 . S
H1405 C1417 0.950 . S
C1406 H1398 0.950 . S
C1406 C1407 1.386 . S
C1406 C1408 1.391 . S
C1407 C1406 1.386 . S
C1407 C1411 1.393 . S
C1408 H1400 0.950 . S
C1408 C1406 1.391 . S
C1408 C1409 1.400 . S
C1409 C1408 1.400 . S
C1409 C1410 1.398 . S
C1409 C1415 1.491 . S
C1410 H1401 0.950 . S
C1410 C1409 1.398 . S
C1410 C1411 1.391 . S
C1411 H1399 0.950 . S
C1411 C1407 1.393 . S
C1411 C1410 1.391 . S
C1412 H1402 0.950 . S
C1412 C1413 1.386 . S
C1412 C1414 1.391 . S
C1413 C1412 1.386 . S
C1413 C1417 1.393 . S
C1414 H1403 0.950 . S
C1414 C1412 1.391 . S
C1414 C1415 1.400 . S
C1415 C1409 1.491 . S
C1415 C1414 1.400 . S
C1415 C1416 1.398 . S
C1416 H1404 0.950 . S
C1416 C1415 1.398 . S
C1416 C1417 1.391 . S
C1417 H1405 0.950 . S
C1417 C1413 1.393 . S
C1417 C1416 1.391 . S
C473 C283 0.424 . S
C467 C4 0.278 . S
C493 C273 1.719 . S
C487 C63 1.709 . S
C513 C274 0.837 . S
C507 C72 0.855 . S
C527 C102 1.638 . S
C533 C296 1.650 . S
C547 C136 1.714 . S
C553 C299 1.712 . S
C573 C282 0.825 . S
C567 C183 0.820 . S
C587 C233 1.647 . S
C593 C272 1.634 . S
C607 C251 0.311 . S
C613 C290 0.401 . S
C633 C303 1.567 . S
C627 C29 1.593 . S
C647 C42 1.978 . S
C653 C352 1.873 . S
C673 C330 1.701 . S
C667 C97 1.717 . S
C693 C344 0.785 . S
C687 C115 0.791 . S
C707 C149 0.808 . S
C713 C305 0.788 . S
C733 C358 1.618 . S
C727 C187 1.647 . S
C747 C212 1.995 . S
C753 C314 1.890 . S
C767 C255 1.684 . S
C773 C335 1.654 . S
C787 C8 1.678 . S
C793 C361 1.653 . S
C807 C153 1.983 . S
C813 C345 1.887 . S
C833 C304 1.702 . S
C827 C170 1.714 . S
C853 C336 0.817 . S
C847 C208 0.816 . S
C867 C238 1.588 . S
C873 C327 1.565 . S
C887 C76 1.656 . S
C893 C334 1.619 . S
C913 C321 1.887 . S
C907 C119 1.994 . S
C927 C38 0.817 . S
C933 C313 0.832 . S
C947 C242 0.339 . S
C953 C376 0.337 . S
C967 C165 1.720 . S
C973 C366 1.719 . S
C993 C367 0.825 . S
C987 C174 0.824 . S
C1013 C389 1.640 . S
C1007 C204 1.638 . S
C1027 C34 1.717 . S
C1033 C392 1.720 . S
C1053 C375 0.847 . S
C1047 C81 0.843 . S
C1067 C131 1.649 . S
C1073 C365 1.642 . S
C1087 C13 0.338 . S
C1093 C383 0.359 . S
C1107 C267 1.597 . S
C1113 C396 1.564 . S
C1133 C445 1.897 . S
C1127 C144 1.982 . S
C1147 C199 1.705 . S
C1153 C423 1.691 . S
C1167 C217 0.777 . S
C1173 C437 0.753 . S
C1193 C398 0.788 . S
C1187 C47 0.803 . S
C1207 C85 1.655 . S
C1213 C451 1.609 . S
C1233 C407 1.882 . S
C1227 C110 1.991 . S
C1253 C428 1.645 . S
C1247 C17 1.684 . S
C1273 C454 1.647 . S
C1267 C246 1.680 . S
C1287 C51 1.975 . S
C1293 C438 1.872 . S
C1307 C68 1.716 . S
C1313 C397 1.703 . S
C1333 C429 0.753 . S
C1327 C106 0.778 . S
C1347 C0 1.589 . S
C1353 C420 1.559 . S
C1367 C178 1.654 . S
C1373 C427 1.622 . S
C1393 C414 1.867 . S
C1387 C221 1.989 . S
C1413 C406 0.817 . S
C1407 C140 0.831 . S
