# Generated by pormake.
# Topology ocu, (6,8)-cn, num edge types: 1
# Building blocks:
#     Node 0, Type 0, BuildingBlock: VOLQOD_clean_sbu_1, # of connection points: 6
#     Node 1, Type 0, BuildingBlock: VOLQOD_clean_sbu_1, # of connection points: 6
#     Node 2, Type 0, BuildingBlock: VOLQOD_clean_sbu_1, # of connection points: 6
#     Node 3, Type 0, BuildingBlock: VOLQOD_clean_sbu_1, # of connection points: 6
#     Node 4, Type 0, BuildingBlock: VOLQOD_clean_sbu_1, # of connection points: 6
#     Node 5, Type 0, BuildingBlock: VOLQOD_clean_sbu_1, # of connection points: 6
#     Node 6, Type 0, BuildingBlock: VOLQOD_clean_sbu_1, # of connection points: 6
#     Node 7, Type 0, BuildingBlock: VOLQOD_clean_sbu_1, # of connection points: 6
#     Node 8, Type 1, BuildingBlock: TAGTUT_clean_sbu_1, # of connection points: 8
#     Node 9, Type 1, BuildingBlock: TAGTUT_clean_sbu_1, # of connection points: 8
#     Node 10, Type 1, BuildingBlock: TAGTUT_clean_sbu_1, # of connection points: 8
#     Node 11, Type 1, BuildingBlock: TAGTUT_clean_sbu_1, # of connection points: 8
#     Node 12, Type 1, BuildingBlock: TAGTUT_clean_sbu_1, # of connection points: 8
#     Node 13, Type 1, BuildingBlock: TAGTUT_clean_sbu_1, # of connection points: 8
#     Edge 14, Type (0, 1), BuildingBlock: EZIPEK_clean_linker_0, # of connection points: 2
#     Edge 15, Type (0, 1), BuildingBlock: EZIPEK_clean_linker_0, # of connection points: 2
#     Edge 16, Type (0, 1), BuildingBlock: EZIPEK_clean_linker_0, # of connection points: 2
#     Edge 17, Type (0, 1), BuildingBlock: EZIPEK_clean_linker_0, # of connection points: 2
#     Edge 18, Type (0, 1), BuildingBlock: EZIPEK_clean_linker_0, # of connection points: 2
#     Edge 19, Type (0, 1), BuildingBlock: EZIPEK_clean_linker_0, # of connection points: 2
#     Edge 20, Type (0, 1), BuildingBlock: EZIPEK_clean_linker_0, # of connection points: 2
#     Edge 21, Type (0, 1), BuildingBlock: EZIPEK_clean_linker_0, # of connection points: 2
#     Edge 22, Type (0, 1), BuildingBlock: EZIPEK_clean_linker_0, # of connection points: 2
#     Edge 23, Type (0, 1), BuildingBlock: EZIPEK_clean_linker_0, # of connection points: 2
#     Edge 24, Type (0, 1), BuildingBlock: EZIPEK_clean_linker_0, # of connection points: 2
#     Edge 25, Type (0, 1), BuildingBlock: EZIPEK_clean_linker_0, # of connection points: 2
#     Edge 26, Type (0, 1), BuildingBlock: EZIPEK_clean_linker_0, # of connection points: 2
#     Edge 27, Type (0, 1), BuildingBlock: EZIPEK_clean_linker_0, # of connection points: 2
#     Edge 28, Type (0, 1), BuildingBlock: EZIPEK_clean_linker_0, # of connection points: 2
#     Edge 29, Type (0, 1), BuildingBlock: EZIPEK_clean_linker_0, # of connection points: 2
#     Edge 30, Type (0, 1), BuildingBlock: EZIPEK_clean_linker_0, # of connection points: 2
#     Edge 31, Type (0, 1), BuildingBlock: EZIPEK_clean_linker_0, # of connection points: 2
#     Edge 32, Type (0, 1), BuildingBlock: EZIPEK_clean_linker_0, # of connection points: 2
#     Edge 33, Type (0, 1), BuildingBlock: EZIPEK_clean_linker_0, # of connection points: 2
#     Edge 34, Type (0, 1), BuildingBlock: EZIPEK_clean_linker_0, # of connection points: 2
#     Edge 35, Type (0, 1), BuildingBlock: EZIPEK_clean_linker_0, # of connection points: 2
#     Edge 36, Type (0, 1), BuildingBlock: EZIPEK_clean_linker_0, # of connection points: 2
#     Edge 37, Type (0, 1), BuildingBlock: EZIPEK_clean_linker_0, # of connection points: 2
#     Edge 38, Type (0, 1), BuildingBlock: EZIPEK_clean_linker_0, # of connection points: 2
#     Edge 39, Type (0, 1), BuildingBlock: EZIPEK_clean_linker_0, # of connection points: 2
#     Edge 40, Type (0, 1), BuildingBlock: EZIPEK_clean_linker_0, # of connection points: 2
#     Edge 41, Type (0, 1), BuildingBlock: EZIPEK_clean_linker_0, # of connection points: 2
#     Edge 42, Type (0, 1), BuildingBlock: EZIPEK_clean_linker_0, # of connection points: 2
#     Edge 43, Type (0, 1), BuildingBlock: EZIPEK_clean_linker_0, # of connection points: 2
#     Edge 44, Type (0, 1), BuildingBlock: EZIPEK_clean_linker_0, # of connection points: 2
#     Edge 45, Type (0, 1), BuildingBlock: EZIPEK_clean_linker_0, # of connection points: 2
#     Edge 46, Type (0, 1), BuildingBlock: EZIPEK_clean_linker_0, # of connection points: 2
#     Edge 47, Type (0, 1), BuildingBlock: EZIPEK_clean_linker_0, # of connection points: 2
#     Edge 48, Type (0, 1), BuildingBlock: EZIPEK_clean_linker_0, # of connection points: 2
#     Edge 49, Type (0, 1), BuildingBlock: EZIPEK_clean_linker_0, # of connection points: 2
#     Edge 50, Type (0, 1), BuildingBlock: EZIPEK_clean_linker_0, # of connection points: 2
#     Edge 51, Type (0, 1), BuildingBlock: EZIPEK_clean_linker_0, # of connection points: 2
#     Edge 52, Type (0, 1), BuildingBlock: EZIPEK_clean_linker_0, # of connection points: 2
#     Edge 53, Type (0, 1), BuildingBlock: EZIPEK_clean_linker_0, # of connection points: 2
#     Edge 54, Type (0, 1), BuildingBlock: EZIPEK_clean_linker_0, # of connection points: 2
#     Edge 55, Type (0, 1), BuildingBlock: EZIPEK_clean_linker_0, # of connection points: 2
#     Edge 56, Type (0, 1), BuildingBlock: EZIPEK_clean_linker_0, # of connection points: 2
#     Edge 57, Type (0, 1), BuildingBlock: EZIPEK_clean_linker_0, # of connection points: 2
#     Edge 58, Type (0, 1), BuildingBlock: EZIPEK_clean_linker_0, # of connection points: 2
#     Edge 59, Type (0, 1), BuildingBlock: EZIPEK_clean_linker_0, # of connection points: 2
#     Edge 60, Type (0, 1), BuildingBlock: EZIPEK_clean_linker_0, # of connection points: 2
#     Edge 61, Type (0, 1), BuildingBlock: EZIPEK_clean_linker_0, # of connection points: 2
# Relax obj value: 0.186
# Max RMSD: 0.335
# Mean RMSD: 0.219
data_MOF--net-ocu--node1-VOLQOD_clean_sbu_1--node2-TAGTUT_clean_sbu_1--edge1-EZIPEK_clean_linker_0
_symmetry_space_group_name_H-M    P1
_symmetry_Int_Tables_number       1
_symmetry_cell_setting            triclinic
loop_
_symmetry_equiv_pos_as_xyz
'x, y, z'
_cell_length_a     29.692849
_cell_length_b     28.131757
_cell_length_c     30.441348
_cell_angle_alpha  91.651651
_cell_angle_beta   92.989167
_cell_angle_gamma 101.80982
loop_
_atom_site_label
_atom_site_type_symbol
_atom_site_fract_x
_atom_site_fract_y
_atom_site_fract_z
_atom_type_partial_charge
O0 O 0.35697 0.3247 0.24024 0.0
Zn1 Zn 0.31873 0.30026 0.29016 0.0
O2 O 0.25911 0.26072 0.2673 0.0
Zn3 Zn 0.20981 0.27858 0.29787 0.0
Zn4 Zn 0.24955 0.27051 0.20489 0.0
Zn5 Zn 0.25595 0.19254 0.27616 0.0
O6 O 0.17675 0.22637 0.33398 0.0
O7 O 0.20249 0.16154 0.31126 0.0
O8 O 0.30986 0.35741 0.33018 0.0
O9 O 0.23434 0.33476 0.33728 0.0
O10 O 0.16562 0.30304 0.25799 0.0
O11 O 0.19704 0.30526 0.19302 0.0
O12 O 0.24465 0.20838 0.16859 0.0
O13 O 0.35695 0.25809 0.32028 0.0
O14 O 0.25971 0.1577 0.21862 0.0
O15 O 0.31183 0.18484 0.31099 0.0
C16 C 0.34706 0.32596 0.19926 0.0
C17 C 0.1764 0.18122 0.33462 0.0
C18 C 0.16645 0.31444 0.21799 0.0
C19 C 0.27257 0.36367 0.34634 0.0
C20 C 0.25396 0.16758 0.17844 0.0
C21 C 0.3494 0.21246 0.3253 0.0
O22 O 0.30664 0.30952 0.18241 0.0
O23 O 0.76549 0.16989 0.1787 0.0
Zn24 Zn 0.79962 0.21418 0.23037 0.0
O25 O 0.75115 0.2324 0.26393 0.0
Zn26 Zn 0.74672 0.2996 0.26047 0.0
Zn27 Zn 0.69201 0.19558 0.2435 0.0
Zn28 Zn 0.76149 0.2227 0.32428 0.0
O29 O 0.75434 0.33692 0.31834 0.0
O30 O 0.79182 0.2867 0.3515 0.0
O31 O 0.83721 0.27554 0.20483 0.0
O32 O 0.8002 0.33121 0.22973 0.0
O33 O 0.69316 0.30954 0.22128 0.0
O34 O 0.6608 0.23335 0.20062 0.0
O35 O 0.6513 0.17737 0.29344 0.0
O36 O 0.84298 0.18317 0.27162 0.0
O37 O 0.70137 0.19719 0.35071 0.0
O38 O 0.80825 0.18183 0.33492 0.0
C39 C 0.72658 0.14004 0.17709 0.0
C40 C 0.78419 0.32915 0.34712 0.0
C41 C 0.66434 0.27887 0.19701 0.0
C42 C 0.8326 0.31956 0.20912 0.0
C43 C 0.6601 0.1819 0.33486 0.0
C44 C 0.84038 0.17237 0.31219 0.0
O45 O 0.70081 0.13759 0.20945 0.0
O46 O 0.69425 0.65575 0.25934 0.0
Zn47 Zn 0.73316 0.71778 0.29128 0.0
O48 O 0.75063 0.76965 0.24922 0.0
Zn49 Zn 0.8164 0.78529 0.24219 0.0
Zn50 Zn 0.72079 0.74983 0.19268 0.0
Zn51 Zn 0.73159 0.82884 0.26656 0.0
O52 O 0.84449 0.8525 0.26609 0.0
O53 O 0.78473 0.87953 0.2891 0.0
O54 O 0.79145 0.70012 0.3178 0.0
O55 O 0.84701 0.74293 0.27978 0.0
O56 O 0.8324 0.77329 0.17995 0.0
O57 O 0.76426 0.74487 0.1468 0.0
O58 O 0.68072 0.7925 0.17139 0.0
O59 O 0.69806 0.74282 0.34066 0.0
O60 O 0.69538 0.85549 0.21924 0.0
O61 O 0.69436 0.8166 0.31761 0.0
C62 C 0.67792 0.65047 0.21943 0.0
C63 C 0.82786 0.88477 0.28613 0.0
C64 C 0.80766 0.75609 0.14544 0.0
C65 C 0.83364 0.71245 0.30879 0.0
C66 C 0.67546 0.83421 0.18397 0.0
C67 C 0.68542 0.78343 0.34509 0.0
O68 O 0.68471 0.68476 0.19311 0.0
O69 O 0.30498 0.73424 0.31618 0.0
Zn70 Zn 0.2628 0.70733 0.26238 0.0
O71 O 0.25466 0.76368 0.22957 0.0
Zn72 Zn 0.19639 0.78027 0.23337 0.0
Zn73 Zn 0.30088 0.81622 0.25156 0.0
Zn74 Zn 0.26851 0.75733 0.1713 0.0
O75 O 0.16129 0.76468 0.1751 0.0
O76 O 0.2204 0.77586 0.13279 0.0
O77 O 0.20163 0.67869 0.28785 0.0
O78 O 0.16009 0.73385 0.27152 0.0
O79 O 0.2029 0.84495 0.26575 0.0
O80 O 0.27342 0.85098 0.29764 0.0
O81 O 0.33341 0.85891 0.20802 0.0
O82 O 0.28944 0.66126 0.22058 0.0
O83 O 0.33182 0.79732 0.16159 0.0
O84 O 0.26612 0.68843 0.15731 0.0
C85 C 0.34083 0.7672 0.31327 0.0
C86 C 0.1781 0.75909 0.13819 0.0
C87 C 0.23333 0.86072 0.29691 0.0
C88 C 0.16514 0.6959 0.29086 0.0
C89 C 0.35226 0.83854 0.17841 0.0
C90 C 0.28381 0.65793 0.17844 0.0
O91 O 0.34858 0.7839 0.27581 0.0
O92 O 0.25705 0.65737 0.67827 0.0
Zn93 Zn 0.29206 0.70116 0.72857 0.0
O94 O 0.2465 0.72649 0.76113 0.0
Zn95 Zn 0.24433 0.79267 0.74917 0.0
Zn96 Zn 0.1879 0.68673 0.74217 0.0
Zn97 Zn 0.25588 0.72011 0.82224 0.0
O98 O 0.26077 0.83728 0.80303 0.0
O99 O 0.27549 0.78564 0.85249 0.0
O100 O 0.33084 0.75568 0.69863 0.0
O101 O 0.29268 0.81551 0.70787 0.0
O102 O 0.18452 0.79796 0.71705 0.0
O103 O 0.15459 0.72039 0.69814 0.0
O104 O 0.14658 0.66887 0.79018 0.0
O105 O 0.33347 0.66943 0.76947 0.0
O106 O 0.19768 0.68596 0.8464 0.0
O107 O 0.30583 0.68375 0.83408 0.0
C108 C 0.21924 0.62696 0.68067 0.0
C109 C 0.27436 0.82884 0.8418 0.0
C110 C 0.15495 0.76548 0.69518 0.0
C111 C 0.32495 0.79844 0.69177 0.0
C112 C 0.15639 0.67002 0.83114 0.0
C113 C 0.33392 0.66641 0.81131 0.0
O114 O 0.19874 0.62537 0.71622 0.0
O115 O 0.17115 0.13849 0.77613 0.0
Zn116 Zn 0.20675 0.2021 0.80636 0.0
O117 O 0.22149 0.24823 0.76041 0.0
Zn118 Zn 0.28425 0.25257 0.74574 0.0
Zn119 Zn 0.18195 0.22329 0.71056 0.0
Zn120 Zn 0.20969 0.31119 0.77504 0.0
O121 O 0.32141 0.31698 0.76982 0.0
O122 O 0.26859 0.35554 0.79434 0.0
O123 O 0.26591 0.1891 0.83477 0.0
O124 O 0.31431 0.20816 0.78166 0.0
O125 O 0.28914 0.2304 0.68244 0.0
O126 O 0.21648 0.1911 0.66798 0.0
O127 O 0.15725 0.27456 0.67996 0.0
O128 O 0.17153 0.2312 0.85295 0.0
O129 O 0.17792 0.33959 0.72533 0.0
O130 O 0.17302 0.30547 0.82807 0.0
C131 C 0.13886 0.13555 0.74628 0.0
C132 C 0.31016 0.35119 0.79247 0.0
C133 C 0.25858 0.2006 0.65872 0.0
C134 C 0.30475 0.18987 0.8185 0.0
C135 C 0.15827 0.31901 0.6896 0.0
C136 C 0.16202 0.27347 0.85654 0.0
O137 O 0.13047 0.17368 0.72927 0.0
O138 O 0.80549 0.24409 0.83247 0.0
Zn139 Zn 0.76614 0.21649 0.7775 0.0
O140 O 0.7592 0.27021 0.73982 0.0
Zn141 Zn 0.69674 0.27865 0.73621 0.0
Zn142 Zn 0.80113 0.3293 0.75651 0.0
Zn143 Zn 0.77567 0.25864 0.68211 0.0
O144 O 0.66409 0.24612 0.67999 0.0
O145 O 0.72248 0.22725 0.64522 0.0
O146 O 0.70373 0.18512 0.79904 0.0
O147 O 0.66167 0.2397 0.78141 0.0
O148 O 0.69372 0.34768 0.75361 0.0
O149 O 0.76759 0.38271 0.76757 0.0
O150 O 0.85112 0.34896 0.71505 0.0
O151 O 0.79751 0.1682 0.74517 0.0
O152 O 0.81264 0.31524 0.65403 0.0
O153 O 0.81189 0.2089 0.68404 0.0
C154 C 0.828 0.28724 0.84134 0.0
C155 C 0.67986 0.22421 0.6489 0.0
C156 C 0.72493 0.3827 0.77012 0.0
C157 C 0.66703 0.20191 0.80108 0.0
C158 C 0.84693 0.34399 0.67338 0.0
C159 C 0.81568 0.17373 0.70805 0.0
O160 O 0.82965 0.32071 0.81405 0.0
O161 O 0.8278 0.79791 0.73377 0.0
Zn162 Zn 0.78011 0.75554 0.77031 0.0
O163 O 0.73188 0.72104 0.72818 0.0
Zn164 Zn 0.68134 0.74397 0.74616 0.0
Zn165 Zn 0.73373 0.7412 0.66944 0.0
Zn166 Zn 0.72012 0.65254 0.73324 0.0
O167 O 0.65553 0.70493 0.79519 0.0
O168 O 0.66707 0.6321 0.77364 0.0
O169 O 0.75092 0.79561 0.81607 0.0
O170 O 0.70404 0.81316 0.7644 0.0
O171 O 0.63216 0.74373 0.70056 0.0
O172 O 0.68145 0.77598 0.65238 0.0
O173 O 0.73423 0.68316 0.6305 0.0
O174 O 0.81079 0.70542 0.80044 0.0
O175 O 0.71859 0.61947 0.67264 0.0
O176 O 0.77441 0.6362 0.7659 0.0
C177 C 0.82791 0.8046 0.69232 0.0
C178 C 0.64994 0.65939 0.79964 0.0
C179 C 0.64146 0.76947 0.66754 0.0
C180 C 0.72114 0.82008 0.80337 0.0
C181 C 0.72787 0.63741 0.63523 0.0
C182 C 0.80571 0.65959 0.79303 0.0
O183 O 0.79427 0.78549 0.66558 0.0
C184 C 0.90365 0.08531 0.57869 0.0
C185 C 0.94832 0.09793 0.44281 0.0
C186 C 0.94565 0.91942 0.43302 0.0
Mg187 Mg -0.00289 0.09061 0.53432 0.0
O188 O 0.97078 0.02472 0.53748 0.0
Mg189 Mg 0.91148 -0.00019 0.50264 0.0
Mg190 Mg 0.01018 0.98343 0.5143 0.0
O191 O 0.05084 0.9449 0.48802 0.0
Mg192 Mg 0.03242 0.87939 0.47073 0.0
Mg193 Mg 0.10822 0.97049 0.52523 0.0
C194 C 0.07816 0.05395 0.58616 0.0
C195 C 0.08822 0.05628 0.46402 0.0
O196 O 0.88236 0.05085 0.55162 0.0
O197 O 0.94655 0.10381 0.57668 0.0
O198 O 0.9208 0.05906 0.45222 0.0
O199 O 0.98425 0.11578 0.46776 0.0
O200 O 0.063 0.09014 0.57053 0.0
O201 O 0.06482 0.01067 0.56946 0.0
C202 C 0.9326 0.91826 0.57047 0.0
O203 O 0.97455 0.92504 0.55975 0.0
O204 O 0.90381 0.94141 0.55311 0.0
O205 O 0.1458 0.93283 0.47483 0.0
O206 O 0.09256 0.87711 0.43507 0.0
O207 O 0.09384 0.90062 0.56451 0.0
C208 C 0.13384 0.90122 0.44298 0.0
O209 O 0.03708 0.84329 0.53161 0.0
O210 O 0.96946 0.886 0.43222 0.0
C211 C 0.06714 0.85852 0.5632 0.0
O212 O 0.9542 0.9546 0.46186 0.0
O213 O 0.04532 0.04343 0.4706 0.0
O214 O 0.11836 0.03601 0.48284 0.0
C215 C 0.37987 0.10317 0.0684 0.0
C216 C 0.42782 0.12542 0.94033 0.0
C217 C 0.42857 0.93478 0.93517 0.0
Mg218 Mg 0.47882 0.12402 0.0314 0.0
O219 O 0.46451 0.05619 0.02243 0.0
Mg220 Mg 0.40345 0.02196 -0.00558 0.0
Mg221 Mg 0.50412 0.01983 0.98915 0.0
O222 O 0.54377 0.98237 0.95731 0.0
Mg223 Mg 0.52848 0.91462 0.96115 0.0
Mg224 Mg 0.60521 0.01657 0.98576 0.0
C225 C 0.57832 0.09844 0.05319 0.0
C226 C 0.56432 0.08854 0.92133 0.0
O227 O 0.36906 0.06515 0.04285 0.0
O228 O 0.42038 0.1306 0.07125 0.0
O229 O 0.4047 0.08283 0.94672 0.0
O230 O 0.46189 0.14683 0.96612 0.0
O231 O 0.55145 0.12855 0.05915 0.0
O232 O 0.56559 0.0597 0.02906 0.0
C233 C 0.44567 0.95051 0.05765 0.0
O234 O 0.4851 0.964 0.04164 0.0
O235 O 0.41009 0.96652 0.04466 0.0
O236 O 0.63826 0.9684 0.93836 0.0
O237 O 0.5835 0.90074 0.92262 0.0
O238 O 0.60594 0.9614 0.0381 0.0
C239 C 0.62416 0.92634 0.91896 0.0
O240 O 0.54688 0.89802 0.02739 0.0
O241 O 0.45544 0.90416 0.93691 0.0
C242 C 0.58185 0.92171 0.05027 0.0
O243 O 0.44187 0.97915 0.94914 0.0
O244 O 0.52435 0.07645 0.93683 0.0
O245 O 0.59885 0.07082 0.93445 0.0
C246 C 0.877 0.62728 0.03369 0.0
C247 C 0.91369 0.57126 0.91079 0.0
C248 C 0.90858 0.40461 0.98854 0.0
Mg249 Mg 0.96458 0.60604 -0.00339 0.0
O250 O 0.94663 0.55068 0.02807 0.0
Mg251 Mg 0.88524 0.51283 0.00489 0.0
Mg252 Mg 0.98569 0.50142 0.02147 0.0
O253 O 0.0218 0.45086 0.01351 0.0
Mg254 Mg -0.00035 0.39048 0.03672 0.0
Mg255 Mg 0.08439 0.48433 0.03428 0.0
C256 C 0.06142 0.59895 0.04565 0.0
C257 C 0.05991 0.53657 0.94736 0.0
O258 O 0.85822 0.58156 0.03075 0.0
O259 O 0.91703 0.64432 0.02068 0.0
O260 O 0.88749 0.5433 0.9354 0.0
O261 O 0.95161 0.5965 0.92704 0.0
O262 O 0.03172 0.61954 0.02651 0.0
O263 O 0.05084 0.55324 0.05538 0.0
C264 C 0.91334 0.46787 0.09717 0.0
O265 O 0.95474 0.46958 0.08588 0.0
O266 O 0.88406 0.48216 0.07136 0.0
O267 O 0.10658 0.41437 0.0048 0.0
O268 O 0.04373 0.35349 0.00253 0.0
O269 O 0.08036 0.44982 0.10307 0.0
C270 C 0.0855 0.37047 -0.00617 0.0
O271 O 0.01793 0.39134 0.10424 0.0
O272 O 0.92857 0.37952 0.01465 0.0
C273 C 0.05432 0.41656 0.12341 0.0
O274 O 0.92332 0.45062 0.98458 0.0
O275 O 0.01887 0.53578 0.95938 0.0
O276 O 0.08715 0.51396 0.96745 0.0
C277 C 0.37856 0.55115 0.06669 0.0
C278 C 0.43481 0.57978 0.93973 0.0
C279 C 0.45644 0.40754 0.92534 0.0
Mg280 Mg 0.47832 0.57801 0.03313 0.0
O281 O 0.46572 0.51053 0.03175 0.0
Mg282 Mg 0.41036 0.47585 -0.00549 0.0
Mg283 Mg 0.5136 0.48138 0.00533 0.0
O284 O 0.56113 0.45391 0.97745 0.0
Mg285 Mg 0.55365 0.38883 0.95952 0.0
Mg286 Mg 0.61674 0.48891 0.01297 0.0
C287 C 0.57182 0.55959 0.07938 0.0
C288 C 0.57754 0.56385 0.95104 0.0
O289 O 0.36762 0.51293 0.04116 0.0
O290 O 0.41801 0.58025 0.06774 0.0
O291 O 0.41099 0.53764 0.9465 0.0
O292 O 0.46815 0.60058 0.96643 0.0
O293 O 0.54435 0.58869 0.07156 0.0
O294 O 0.56663 0.51796 0.05908 0.0
C295 C 0.44887 0.40321 0.06126 0.0
O296 O 0.49012 0.4183 0.04994 0.0
O297 O 0.4146 0.41892 0.04456 0.0
O298 O 0.65964 0.46228 0.95944 0.0
O299 O 0.6118 0.40136 0.92014 0.0
O300 O 0.61573 0.42032 0.05368 0.0
C301 C 0.64986 0.43228 0.9261 0.0
O302 O 0.5673 0.35569 0.02049 0.0
O303 O 0.48651 0.38069 0.92342 0.0
C304 C 0.59525 0.37544 0.05244 0.0
O305 O 0.46094 0.44332 0.9533 0.0
O306 O 0.53651 0.54492 0.96071 0.0
O307 O 0.61272 0.55127 0.96932 0.0
C308 C 0.86318 0.57984 0.53854 0.0
C309 C 0.93919 0.61979 0.42337 0.0
C310 C 0.9568 0.43234 0.41735 0.0
Mg311 Mg 0.96791 0.61362 0.52284 0.0
O312 O 0.96197 0.54701 0.50944 0.0
Mg313 Mg 0.91046 0.51047 0.46946 0.0
Mg314 Mg 0.01209 0.51869 0.48458 0.0
O315 O 0.06317 0.49094 0.46025 0.0
Mg316 Mg 0.05852 0.4242 0.45209 0.0
Mg317 Mg 0.11499 0.52948 0.49981 0.0
C318 C 0.06626 0.5985 0.55975 0.0
C319 C 0.07658 0.59691 0.42901 0.0
O320 O 0.86089 0.54522 0.50969 0.0
O321 O 0.901 0.60952 0.55072 0.0
O322 O 0.91846 0.57495 0.42315 0.0
O323 O 0.96179 0.64121 0.45782 0.0
O324 O 0.03554 0.62479 0.56212 0.0
O325 O 0.06079 0.56096 0.53431 0.0
C326 C 0.9465 0.44176 0.54086 0.0
O327 O 0.98839 0.45922 0.53248 0.0
O328 O 0.91199 0.45382 0.52028 0.0
O329 O 0.1655 0.49542 0.46032 0.0
O330 O 0.12511 0.42787 0.42375 0.0
O331 O 0.11158 0.46801 0.54815 0.0
C332 C 0.16295 0.45858 0.43386 0.0
O333 O 0.06616 0.4001 0.5177 0.0
O334 O 0.9884 0.40697 0.419 0.0
C335 C 0.09132 0.42344 0.54979 0.0
O336 O 0.9629 0.47549 0.43429 0.0
O337 O 0.03509 0.57842 0.43764 0.0
O338 O 0.11179 0.58542 0.44869 0.0
C339 C 0.34574 0.08836 0.54663 0.0
C340 C 0.4312 0.09981 0.43364 0.0
C341 C 0.41096 0.90553 0.44528 0.0
Mg342 Mg 0.44751 0.09448 0.53267 0.0
O343 O 0.43243 0.02841 0.52576 0.0
Mg344 Mg 0.3786 -0.00031 0.48487 0.0
Mg345 Mg 0.47783 0.9907 0.50546 0.0
O346 O 0.52014 0.94864 0.48736 0.0
Mg347 Mg 0.4963 0.88373 0.50023 0.0
Mg348 Mg 0.57681 0.9782 0.52387 0.0
C349 C 0.54007 0.07517 0.57297 0.0
C350 C 0.55875 0.05341 0.44999 0.0
O351 O 0.33583 0.0493 0.52187 0.0
O352 O 0.38696 0.11096 0.55629 0.0
O353 O 0.40036 0.06048 0.43462 0.0
O354 O 0.45539 0.11788 0.46809 0.0
O355 O 0.50802 0.09936 0.57376 0.0
O356 O 0.53372 0.03152 0.55573 0.0
C357 C 0.39878 0.92467 0.55881 0.0
O358 O 0.44185 0.93716 0.55258 0.0
O359 O 0.36777 0.94206 0.53731 0.0
O360 O 0.60883 0.91953 0.48532 0.0
O361 O 0.54965 0.85499 0.47374 0.0
O362 O 0.56337 0.92471 0.58016 0.0
C363 C 0.59161 0.8759 0.46991 0.0
O364 O 0.4983 0.87029 0.5683 0.0
O365 O 0.43277 0.87484 0.46189 0.0
C366 C 0.53365 0.889 0.59296 0.0
O367 O 0.42398 0.95161 0.45311 0.0
O368 O 0.5159 0.04634 0.4585 0.0
O369 O 0.58647 0.02943 0.46804 0.0
C370 C 0.1101 0.11705 0.35488 0.0
C371 C 0.14994 0.15254 0.36794 0.0
C372 C 0.13959 0.13355 0.44521 0.0
C373 C 0.10412 0.09324 0.43161 0.0
N374 N 0.05801 0.04334 0.37291 0.0
N375 N 0.20605 0.19214 0.42481 0.0
C376 C 0.08945 0.08442 0.38632 0.0
C377 C 0.16543 0.16053 0.41299 0.0
N378 N 0.09175 0.11497 0.31256 0.0
N379 N 0.14806 0.14633 0.489 0.0
H380 H 0.22625 0.21271 0.4023 0.0
H381 H 0.22172 0.19513 0.45644 0.0
H382 H 0.12919 0.1275 0.51335 0.0
H383 H 0.17043 0.17812 0.50086 0.0
H384 H 0.05989 0.09342 0.30222 0.0
H385 H 0.10655 0.13805 0.28863 0.0
H386 H 0.05034 0.03202 0.34002 0.0
H387 H 0.04179 0.01851 0.39467 0.0
C388 C 0.88856 0.11037 0.33236 0.0
C389 C 0.8796 0.15771 0.33723 0.0
C390 C 0.92664 0.17129 0.40713 0.0
C391 C 0.93459 0.12319 0.40318 0.0
N392 N 0.93548 0.05333 0.3559 0.0
N393 N 0.90287 0.23835 0.37042 0.0
C394 C 0.9197 0.09495 0.36353 0.0
C395 C 0.90324 0.18988 0.37162 0.0
N396 N 0.86547 0.07929 0.29956 0.0
N397 N 0.93773 0.19802 0.44583 0.0
H398 H 0.88631 0.25302 0.34462 0.0
H399 H 0.92282 0.26443 0.3923 0.0
H400 H 0.95461 0.18651 0.47306 0.0
H401 H 0.9271 0.23049 0.45218 0.0
H402 H 0.86622 0.04244 0.29743 0.0
H403 H 0.84343 0.09004 0.27577 0.0
H404 H 0.92933 0.03334 0.3261 0.0
H405 H 0.95871 0.04172 0.37796 0.0
C406 C 0.90725 0.92531 0.31291 0.0
C407 C 0.85942 0.92011 0.31683 0.0
C408 C 0.86966 0.92749 0.39673 0.0
C409 C 0.91629 0.92404 0.39342 0.0
N410 N 0.98333 0.93583 0.34958 0.0
N411 N 0.80241 0.94717 0.35881 0.0
C412 C 0.93652 0.92841 0.35176 0.0
C413 C 0.843 0.93179 0.35768 0.0
N414 N 0.92364 0.92559 0.27181 0.0
N415 N 0.85006 0.92353 0.43639 0.0
H416 H 0.78457 0.95393 0.32996 0.0
H417 H 0.79008 0.95904 0.38771 0.0
H418 H 0.8682 0.91841 0.46552 0.0
H419 H 0.8149 0.92113 0.43962 0.0
H420 H 0.95741 0.92441 0.26522 0.0
H421 H 0.90215 0.927 0.24377 0.0
H422 H 0.00043 0.94195 0.32069 0.0
H423 H 0.00598 0.93891 0.37729 0.0
C424 C 0.2045 0.92181 0.3427 0.0
C425 C 0.21681 0.87604 0.33867 0.0
C426 C 0.18656 0.85391 0.41035 0.0
C427 C 0.16785 0.89615 0.4108 0.0
N428 N 0.15725 0.97064 0.37813 0.0
N429 N 0.21801 0.7966 0.36692 0.0
C430 C 0.17694 0.93072 0.37755 0.0
C431 C 0.20824 0.84181 0.37241 0.0
N432 N 0.21943 0.95658 0.31331 0.0
N433 N 0.18321 0.82543 0.44619 0.0
H434 H 0.23323 0.78544 0.33945 0.0
H435 H 0.20805 0.76842 0.38804 0.0
H436 H 0.16755 0.83392 0.47446 0.0
H437 H 0.19917 0.79598 0.44971 0.0
H438 H 0.21529 0.99235 0.31657 0.0
H439 H 0.23965 0.95058 0.28749 0.0
H440 H 0.15809 -0.0058 0.35229 0.0
H441 H 0.13762 0.97897 0.40359 0.0
C442 C 0.1345 0.77517 0.61602 0.0
C443 C 0.12496 0.78107 0.6608 0.0
C444 C 0.06817 0.82973 0.64009 0.0
C445 C 0.07812 0.82401 0.59549 0.0
N446 N 0.1106 0.78094 0.53952 0.0
N447 N 0.07656 0.80418 0.71517 0.0
C448 C 0.10757 0.79282 0.583 0.0
C449 C 0.08961 0.80518 0.67276 0.0
N450 N 0.17159 0.75623 0.60518 0.0
N451 N 0.03938 0.85981 0.65107 0.0
H452 H 0.09183 0.78634 0.7396 0.0
H453 H 0.04845 0.81752 0.7254 0.0
H454 H 0.02155 0.87612 0.62737 0.0
H455 H 0.03441 0.87 0.6833 0.0
H456 H 0.18408 0.75759 0.57381 0.0
H457 H 0.1926 0.74285 0.62818 0.0
H458 H 0.1282 0.75475 0.52878 0.0
H459 H 0.09214 0.79391 0.51412 0.0
C460 C 0.07195 0.08294 0.70748 0.0
C461 C 0.11896 0.08962 0.72115 0.0
C462 C 0.13624 0.05635 0.6503 0.0
C463 C 0.09117 0.05832 0.63402 0.0
N464 N 0.01194 0.05665 0.64975 0.0
N465 N 0.18894 0.06057 0.71494 0.0
C466 C 0.05744 0.06564 0.66374 0.0
C467 C 0.14884 0.06851 0.69565 0.0
N468 N 0.04251 0.09711 0.73576 0.0
N469 N 0.1673 0.04533 0.62219 0.0
H470 H 0.1975 0.06808 0.74844 0.0
H471 H 0.21056 0.04157 0.69925 0.0
H472 H 0.15854 0.03577 0.589 0.0
H473 H 0.20194 0.04746 0.63128 0.0
H474 H 0.00849 0.09879 0.72733 0.0
H475 H 0.05337 0.10825 0.76833 0.0
H476 H 0.98526 0.05904 0.66997 0.0
H477 H 0.00042 0.04328 0.61803 0.0
C478 C 0.88655 0.16403 0.67665 0.0
C479 C 0.84336 0.14069 0.69029 0.0
C480 C 0.84392 0.0735 0.63762 0.0
C481 C 0.88025 0.10371 0.61602 0.0
N482 N 0.92756 0.18491 0.61185 0.0
N483 N 0.77883 0.0729 0.68272 0.0
C484 C 0.89964 0.15095 0.63493 0.0
C485 C 0.82152 0.09496 0.67085 0.0
N486 N 0.91252 0.20178 0.70172 0.0
N487 N 0.83204 0.02456 0.62861 0.0
H488 H 0.76255 0.08682 0.70821 0.0
H489 H 0.75907 0.04231 0.66575 0.0
H490 H 0.84959 0.00593 0.60767 0.0
H491 H 0.80823 0.00148 0.64641 0.0
H492 H 0.94582 0.21854 0.69445 0.0
H493 H 0.90206 0.21242 0.73209 0.0
H494 H 0.94245 0.21956 0.6248 0.0
H495 H 0.93074 0.181 0.57804 0.0
C496 C 0.89165 0.81107 0.64199 0.0
C497 C 0.86815 0.83433 0.67277 0.0
C498 C 0.90299 0.91326 0.64556 0.0
C499 C 0.91793 0.8893 0.60897 0.0
N500 N 0.92828 0.81558 0.57231 0.0
N501 N 0.85178 0.90737 0.7055 0.0
C502 C 0.91384 0.83824 0.60764 0.0
C503 C 0.87487 0.88552 0.67582 0.0
N504 N 0.8918 0.7628 0.64553 0.0
N505 N 0.9157 0.96263 0.65112 0.0
H506 H 0.83217 0.88817 0.72917 0.0
H507 H 0.85021 0.94401 0.70534 0.0
H508 H 0.93551 0.984 0.62893 0.0
H509 H 0.90989 0.98191 0.67926 0.0
H510 H 0.91106 0.7441 0.62639 0.0
H511 H 0.87577 0.74259 0.67074 0.0
H512 H 0.92182 0.77802 0.56704 0.0
H513 H 0.9446 0.83457 0.54668 0.0
C514 C 0.27718 0.15561 0.10079 0.0
C515 C 0.27141 0.13796 0.14373 0.0
C516 C 0.33143 0.09097 0.13379 0.0
C517 C 0.34278 0.1155 0.09451 0.0
N518 N 0.32559 0.16923 0.03861 0.0
N519 N 0.27494 0.06975 0.18858 0.0
C520 C 0.31499 0.14684 0.0771 0.0
C521 C 0.29308 0.09963 0.15654 0.0
N522 N 0.2446 0.17769 0.08179 0.0
N523 N 0.35829 0.06073 0.15012 0.0
H524 H 0.24381 0.07236 0.20193 0.0
H525 H 0.28695 0.03895 0.19761 0.0
H526 H 0.38619 0.05308 0.13387 0.0
H527 H 0.35504 0.04604 0.18108 0.0
H528 H 0.24471 0.1888 0.04948 0.0
H529 H 0.21405 0.17906 0.09681 0.0
H530 H 0.31026 0.19679 0.02672 0.0
H531 H 0.35204 0.16231 0.01977 0.0
C532 C 0.8295 0.3778 0.15143 0.0
C533 C 0.85725 0.35757 0.18175 0.0
C534 C 0.92353 0.4225 0.16779 0.0
C535 C 0.895 0.44051 0.13614 0.0
N536 N 0.8173 0.45389 0.12532 0.0
N537 N 0.92734 0.36682 0.22753 0.0
C538 C 0.84672 0.42409 0.13632 0.0
C539 C 0.90356 0.38178 0.19275 0.0
N540 N 0.78636 0.35318 0.13733 0.0
N541 N 0.96831 0.44606 0.17556 0.0
H542 H 0.9134 0.33676 0.24541 0.0
H543 H 0.95992 0.3848 0.23974 0.0
H544 H 0.98126 0.47935 0.16195 0.0
H545 H -0.00794 0.434 0.19647 0.0
H546 H 0.76649 0.366 0.11287 0.0
H547 H 0.7727 0.31807 0.1468 0.0
H548 H 0.78171 0.44355 0.12757 0.0
H549 H 0.82902 0.49095 0.12095 0.0
C550 C 0.61018 0.87437 0.16166 0.0
C551 C 0.65219 0.8607 0.15237 0.0
C552 C 0.64242 0.87941 0.07544 0.0
C553 C 0.60278 0.89739 0.08525 0.0
N554 N 0.55169 0.91859 0.1379 0.0
N555 N 0.71424 0.86176 0.10385 0.0
C556 C 0.5873 0.8968 0.1285 0.0
C557 C 0.67012 0.86673 0.11024 0.0
N558 N 0.59159 0.86451 0.20134 0.0
N559 N 0.65293 0.87326 0.03269 0.0
H560 H 0.73643 0.85403 0.12913 0.0
H561 H 0.73043 0.87038 0.07471 0.0
H562 H 0.63285 0.88134 0.00591 0.0
H563 H 0.67883 0.85555 0.02365 0.0
H564 H 0.55872 0.86902 0.2083 0.0
H565 H 0.60794 0.84873 0.22649 0.0
H566 H 0.54138 0.9233 0.16962 0.0
H567 H 0.53477 0.93541 0.114 0.0
C568 C 0.14286 0.7215 0.06608 0.0
C569 C 0.15574 0.71585 0.11043 0.0
C570 C 0.1299 0.62704 0.09986 0.0
C571 C 0.10509 0.63431 0.06075 0.0
N572 N 0.09531 0.68918 0.00166 0.0
N573 N 0.16723 0.66221 0.16908 0.0
C574 C 0.11482 0.68155 0.04186 0.0
C575 C 0.15121 0.66826 0.12718 0.0
N576 N 0.15735 0.76506 0.04702 0.0
N577 N 0.13488 0.58133 0.1098 0.0
H578 H 0.18585 0.69048 0.18958 0.0
H579 H 0.16097 0.62895 0.18404 0.0
H580 H 0.12394 0.55176 0.08774 0.0
H581 H 0.15559 0.57384 0.13629 0.0
H582 H 0.15448 0.76965 0.01324 0.0
H583 H 0.17581 0.79602 0.06442 0.0
H584 H 0.09376 0.72347 0.99046 0.0
H585 H 0.07949 0.66137 0.97939 0.0
C586 C 0.32211 0.91337 0.85634 0.0
C587 C 0.29795 0.86949 0.8728 0.0
C588 C 0.34994 0.88145 0.9388 0.0
C589 C 0.38043 0.91779 0.91713 0.0
N590 N 0.39501 0.97061 0.85584 0.0
N591 N 0.27458 0.82706 0.93748 0.0
C592 C 0.36589 0.93542 0.87658 0.0
C593 C 0.30727 0.85864 0.91692 0.0
N594 N 0.3024 0.93477 0.82285 0.0
N595 N 0.36276 0.8675 0.97931 0.0
H596 H 0.24239 0.81236 0.92178 0.0
H597 H 0.27724 0.81906 0.97055 0.0
H598 H 0.39263 0.8855 -0.00323 0.0
H599 H 0.34486 0.83773 -0.00492 0.0
H600 H 0.31703 0.96865 0.81137 0.0
H601 H 0.26834 0.92185 0.81108 0.0
H602 H 0.38834 0.98045 0.8238 0.0
H603 H 0.4274 0.98785 0.86939 0.0
C604 C 0.16043 0.29419 0.93772 0.0
C605 C 0.1382 0.28798 0.89473 0.0
C606 C 0.08454 0.33811 0.91688 0.0
C607 C 0.10498 0.34251 0.96042 0.0
N608 N 0.15687 0.31842 0.01467 0.0
N609 N 0.07213 0.29262 0.84712 0.0
C610 C 0.14124 0.31846 0.97167 0.0
C611 C 0.09787 0.3062 0.88568 0.0
N612 N 0.20101 0.27929 0.94556 0.0
N613 N 0.05411 0.36648 0.90456 0.0
H614 H 0.08077 0.26848 0.82387 0.0
H615 H 0.03998 0.30112 0.84041 0.0
H616 H 0.04409 0.39146 0.926 0.0
H617 H 0.04259 0.36895 0.87196 0.0
H618 H 0.22162 0.28798 0.97457 0.0
H619 H 0.21563 0.26052 0.92201 0.0
H620 H 0.17993 0.29743 0.02575 0.0
H621 H 0.1441 0.33688 0.03987 0.0
C622 C 0.60146 0.13306 0.81259 0.0
C623 C 0.62987 0.17778 0.82808 0.0
C624 C 0.59254 0.17168 0.89807 0.0
C625 C 0.57233 0.12294 0.88599 0.0
N626 N 0.55174 0.05752 0.83158 0.0
N627 N 0.65008 0.24296 0.88342 0.0
C628 C 0.57417 0.10407 0.84271 0.0
C629 C 0.62394 0.19866 0.86991 0.0
N630 N 0.60047 0.11893 0.76918 0.0
N631 N 0.58227 0.19122 0.93697 0.0
H632 H 0.67206 0.26423 0.86286 0.0
H633 H 0.65143 0.25794 0.91524 0.0
H634 H 0.55918 0.17127 0.95769 0.0
H635 H 0.5933 0.2276 0.94703 0.0
H636 H 0.57821 0.08833 0.75489 0.0
H637 H 0.61936 0.14055 0.74649 0.0
H638 H 0.5558 0.03908 0.8024 0.0
H639 H 0.52965 0.03683 0.85268 0.0
C640 C 0.88528 0.64791 0.81668 0.0
C641 C 0.83662 0.63207 0.81646 0.0
C642 C 0.84775 0.55984 0.85467 0.0
C643 C 0.89377 0.58295 0.86695 0.0
N644 N 0.96037 0.6427 0.84914 0.0
N645 N 0.77115 0.5733 0.83954 0.0
C646 C 0.914 0.62499 0.84442 0.0
C647 C 0.81762 0.58764 0.83596 0.0
N648 N 0.90395 0.68311 0.78898 0.0
N649 N 0.83302 0.51142 0.86089 0.0
H650 H 0.74748 0.59412 0.82955 0.0
H651 H 0.75674 0.54319 0.85708 0.0
H652 H 0.85575 0.48987 0.87191 0.0
H653 H 0.80034 0.49217 0.84986 0.0
H654 H 0.9391 0.69334 0.78466 0.0
H655 H 0.88399 0.69906 0.76695 0.0
H656 H 0.97635 0.67702 0.83963 0.0
H657 H 0.98301 0.6222 0.86199 0.0
C658 C 0.08712 0.3206 0.19123 0.0
C659 C 0.13355 0.34357 0.20202 0.0
C660 C 0.11649 0.42246 0.18334 0.0
C661 C 0.07331 0.39777 0.16434 0.0
N662 N 0.00951 0.33081 0.17299 0.0
N663 N 0.19221 0.41678 0.21421 0.0
C664 C 0.05588 0.34906 0.17562 0.0
C665 C 0.14804 0.3949 0.20056 0.0
N666 N 0.07352 0.27133 0.19372 0.0
N667 N 0.12607 0.47209 0.18595 0.0
H668 H 0.21569 0.39781 0.22828 0.0
H669 H 0.20634 0.45326 0.21015 0.0
H670 H 0.10139 0.4919 0.17607 0.0
H671 H 0.15575 0.49323 0.20159 0.0
H672 H 0.04158 0.25176 0.18118 0.0
H673 H 0.09538 0.24935 0.20568 0.0
H674 H -0.00557 0.29699 0.18425 0.0
H675 H 0.98575 0.35208 0.16476 0.0
C676 C 0.08012 0.61399 0.8465 0.0
C677 C 0.12171 0.64642 0.86162 0.0
C678 C 0.12099 0.60878 0.93206 0.0
C679 C 0.08093 0.57348 0.91686 0.0
N680 N 0.02375 0.54019 0.85895 0.0
N681 N 0.16227 0.69113 0.92492 0.0
C682 C 0.06036 0.57582 0.87398 0.0
C683 C 0.13603 0.64891 0.90639 0.0
N684 N 0.05806 0.62198 0.80774 0.0
N685 N 0.14507 0.60526 0.97101 0.0
H686 H 0.16879 0.72314 0.90765 0.0
H687 H 0.17246 0.69613 0.95829 0.0
H688 H 0.13457 0.58093 -0.00478 0.0
H689 H 0.17778 0.62651 0.97885 0.0
H690 H 0.02713 0.60063 0.79487 0.0
H691 H 0.06743 0.6541 0.7912 0.0
H692 H 0.00926 0.53706 0.8269 0.0
H693 H 0.00937 0.51133 0.87798 0.0
C694 C 0.36197 0.13723 0.83531 0.0
C695 C 0.34275 0.17781 0.84629 0.0
C696 C 0.391 0.19324 0.91487 0.0
C697 C 0.40934 0.15165 0.9046 0.0
N698 N 0.42371 0.09399 0.85006 0.0
N699 N 0.35013 0.25343 0.88782 0.0
C700 C 0.39866 0.1271 0.86287 0.0
C701 C 0.36093 0.20872 0.88331 0.0
N702 N 0.34371 0.10716 0.79996 0.0
N703 N 0.39944 0.21615 0.9556 0.0
H704 H 0.32868 0.2661 0.86479 0.0
H705 H 0.36614 0.27958 0.91166 0.0
H706 H 0.42227 0.20784 0.9798 0.0
H707 H 0.38138 0.24186 0.96657 0.0
H708 H 0.35311 0.07419 0.79295 0.0
H709 H 0.31656 0.11355 0.7794 0.0
H710 H 0.4203 0.0775 0.81866 0.0
H711 H 0.45122 0.08684 0.86978 0.0
C712 C 0.89688 0.33063 0.88274 0.0
C713 C 0.85222 0.30222 0.88448 0.0
C714 C 0.84404 0.34043 0.95615 0.0
C715 C 0.88545 0.37476 0.95027 0.0
N716 N 0.95175 0.40305 0.90707 0.0
N717 N 0.7863 0.27139 0.92569 0.0
C718 C 0.91207 0.37002 0.91333 0.0
C719 C 0.82684 0.304 0.92244 0.0
N720 N 0.92471 0.31901 0.85148 0.0
N721 N 0.82164 0.34293 -0.00594 0.0
H722 H 0.77495 0.24246 0.90299 0.0
H723 H 0.76356 0.27268 0.95031 0.0
H724 H 0.83206 0.37102 0.0179 0.0
H725 H 0.79328 0.31735 0.0026 0.0
H726 H 0.95943 0.33514 0.85031 0.0
H727 H 0.91379 0.28932 0.82931 0.0
H728 H 0.96822 0.40507 0.87761 0.0
H729 H 0.96729 0.43067 0.92968 0.0
C730 C 0.65152 0.85125 0.82552 0.0
C731 C 0.69888 0.84942 0.83429 0.0
C732 C 0.69918 0.90107 0.90098 0.0
C733 C 0.65386 0.90686 0.88828 0.0
N734 N 0.59556 0.90196 0.8292 0.0
N735 N 0.77053 0.88383 0.87579 0.0
C736 C 0.6332 0.88709 0.84728 0.0
C737 C 0.72372 0.87765 0.87072 0.0
N738 N 0.62243 0.81664 0.79936 0.0
N739 N 0.71825 0.91596 0.94211 0.0
H740 H 0.79005 0.86962 0.8533 0.0
H741 H 0.79029 0.9075 0.89972 0.0
H742 H 0.70164 0.93315 0.96518 0.0
H743 H 0.74904 0.90767 0.95437 0.0
H744 H 0.5872 0.81581 0.79491 0.0
H745 H 0.63133 0.78492 0.78783 0.0
H746 H 0.58161 0.89072 0.79751 0.0
H747 H 0.58204 0.92967 0.8437 0.0
C748 C 0.80129 0.71401 0.06988 0.0
C749 C 0.82925 0.73741 0.10699 0.0
C750 C 0.88552 0.68769 0.09553 0.0
C751 C 0.85713 0.66187 0.05999 0.0
N752 N 0.7922 0.65526 0.00774 0.0
N753 N 0.90776 0.76496 0.13529 0.0
C754 C 0.81603 0.67641 0.04535 0.0
C755 C 0.87464 0.73027 0.11349 0.0
N756 N 0.76163 0.72894 0.05777 0.0
N757 N 0.92221 0.67075 0.11321 0.0
H758 H 0.90164 0.79904 0.14434 0.0
H759 H 0.94234 0.76247 0.13835 0.0
H760 H 0.93026 0.63802 0.10263 0.0
H761 H 0.94141 0.68658 0.1415 0.0
H762 H 0.73674 0.71078 0.03444 0.0
H763 H 0.75443 0.76112 0.07081 0.0
H764 H 0.76344 0.66583 -0.00661 0.0
H765 H 0.80232 0.62757 0.98967 0.0
C766 C 0.41522 0.84148 0.12609 0.0
C767 C 0.39539 0.86458 0.15968 0.0
C768 C 0.43562 0.94343 0.13739 0.0
C769 C 0.44132 0.92077 0.0964 0.0
N770 N 0.44542 0.84834 0.05379 0.0
N771 N 0.41204 0.93218 0.2124 0.0
C772 C 0.43505 0.86969 0.09169 0.0
C773 C 0.41366 0.91425 0.17048 0.0
N774 N 0.41722 0.7937 0.12883 0.0
N775 N 0.44979 -0.00736 0.14356 0.0
H776 H 0.40174 0.9094 0.23808 0.0
H777 H 0.42583 0.96791 0.223 0.0
H778 H 0.46781 0.01408 0.12015 0.0
H779 H 0.44356 0.01228 0.17125 0.0
H780 H 0.43398 0.77543 0.10671 0.0
H781 H 0.40735 0.77465 0.15688 0.0
H782 H 0.43659 0.81102 0.04677 0.0
H783 H 0.46084 0.86856 0.02841 0.0
C784 C 0.6685 0.07523 0.13836 0.0
C785 C 0.70362 0.11677 0.13472 0.0
C786 C 0.66218 0.13864 0.06876 0.0
C787 C 0.62274 0.10394 0.0794 0.0
N788 N 0.58803 0.03821 0.1243 0.0
N789 N 0.74341 0.17493 0.08636 0.0
C790 C 0.62613 0.07106 0.11347 0.0
C791 C 0.70363 0.14444 0.09643 0.0
N792 N 0.67594 0.04054 0.16671 0.0
N793 N 0.65959 0.16577 0.03253 0.0
H794 H 0.77487 0.17472 0.10313 0.0
H795 H 0.74663 0.1971 0.05951 0.0
H796 H 0.62986 0.16135 0.01173 0.0
H797 H 0.68632 0.19247 0.02264 0.0
H798 H 0.65353 0.00703 0.1686 0.0
H799 H 0.70731 0.04394 0.18498 0.0
H800 H 0.58729 0.01789 0.15239 0.0
H801 H 0.55591 0.03394 0.10741 0.0
C802 C 0.64414 0.65661 0.88135 0.0
C803 C 0.62629 0.63886 0.83839 0.0
C804 C 0.56865 0.57648 0.86978 0.0
C805 C 0.58573 0.59509 0.91284 0.0
N806 N 0.6302 0.66056 0.95902 0.0
N807 N 0.56393 0.59174 0.79192 0.0
C808 C 0.62017 0.63804 0.91828 0.0
C809 C 0.58596 0.60203 0.83267 0.0
N810 N 0.68553 0.68874 0.88717 0.0
N811 N 0.53885 0.53255 0.86375 0.0
H812 H 0.57582 0.60981 0.76398 0.0
H813 H 0.53162 0.56884 0.78669 0.0
H814 H 0.52509 0.51165 0.88933 0.0
H815 H 0.53043 0.51493 0.83296 0.0
H816 H 0.70229 0.69878 0.91797 0.0
H817 H 0.70548 0.70189 0.86124 0.0
H818 H 0.65229 0.69433 0.96455 0.0
H819 H 0.61257 0.64758 0.98649 0.0
C820 C 0.3943 0.67693 0.8722 0.0
C821 C 0.37061 0.64767 0.83617 0.0
C822 C 0.40576 0.58071 0.86074 0.0
C823 C 0.41959 0.60624 0.9019 0.0
N824 N 0.41891 0.67765 0.94871 0.0
N825 N 0.35262 0.57009 0.79628 0.0
C826 C 0.4126 0.6545 0.90805 0.0
C827 C 0.37663 0.59927 0.82988 0.0
N828 N 0.39848 0.72622 0.87249 0.0
N829 N 0.42054 0.53888 0.85118 0.0
H830 H 0.33117 0.58237 0.77296 0.0
H831 H 0.35166 0.5329 0.79332 0.0
H832 H 0.44263 0.52499 0.87273 0.0
H833 H 0.41481 0.52096 0.82034 0.0
H834 H 0.41868 0.74961 0.89639 0.0
H835 H 0.38603 0.74379 0.84615 0.0
H836 H 0.40938 0.71076 0.95493 0.0
H837 H 0.42847 0.66205 0.97737 0.0
C838 C 0.33543 0.3684 0.87253 0.0
C839 C 0.3441 0.37633 0.82723 0.0
C840 C 0.42588 0.4074 0.84707 0.0
C841 C 0.41735 0.39894 0.89204 0.0
N842 N 0.36409 0.37884 0.94877 0.0
N843 N 0.39367 0.41493 0.77319 0.0
C844 C 0.37196 0.38298 0.90511 0.0
C845 C 0.38822 0.39962 0.81515 0.0
N846 N 0.294 0.34216 0.88446 0.0
N847 N 0.47006 0.42164 0.83465 0.0
H848 H 0.36617 0.41013 0.74957 0.0
H849 H 0.42389 0.4364 0.76303 0.0
H850 H 0.49863 0.42953 0.85698 0.0
H851 H 0.47887 0.42288 0.80199 0.0
H852 H 0.28808 0.33035 0.91611 0.0
H853 H 0.26627 0.32714 0.86282 0.0
H854 H 0.33167 0.37578 0.96126 0.0
H855 H 0.39055 0.38017 0.97277 0.0
C856 C 0.69205 0.44536 0.81184 0.0
C857 C 0.71371 0.40507 0.81149 0.0
C858 C 0.71184 0.40211 0.89176 0.0
C859 C 0.68193 0.43466 0.89077 0.0
N860 N 0.64532 0.49133 0.85213 0.0
N861 N 0.73863 0.34036 0.85081 0.0
C862 C 0.67317 0.45826 0.85151 0.0
C863 C 0.72308 0.38279 0.8515 0.0
N864 N 0.68939 0.47063 0.77451 0.0
N865 N 0.72774 0.38821 0.93127 0.0
H866 H 0.74336 0.32152 0.82206 0.0
H867 H 0.74113 0.32048 0.87868 0.0
H868 H 0.71902 0.40181 0.96123 0.0
H869 H 0.75308 0.36764 0.93419 0.0
H870 H 0.67723 0.50278 0.77338 0.0
H871 H 0.70271 0.46101 0.74524 0.0
H872 H 0.63346 0.5063 0.82402 0.0
H873 H 0.63309 0.50279 0.88131 0.0
C874 C 0.60771 0.32608 0.16666 0.0
C875 C 0.6404 0.29693 0.15915 0.0
C876 C 0.63487 0.31092 0.08 0.0
C877 C 0.6068 0.34496 0.08841 0.0
N878 N 0.56722 0.38687 0.13915 0.0
N879 N 0.68918 0.26513 0.10972 0.0
C880 C 0.5932 0.35291 0.1316 0.0
C881 C 0.6545 0.28955 0.11599 0.0
N882 N 0.58999 0.32721 0.20715 0.0
N883 N 0.64352 0.29961 0.03765 0.0
H884 H 0.70448 0.24827 0.13477 0.0
H885 H 0.70574 0.26503 0.08044 0.0
H886 H 0.63263 0.31673 0.01036 0.0
H887 H 0.65889 0.27083 0.02909 0.0
H888 H 0.56286 0.34401 0.21397 0.0
H889 H 0.59993 0.3076 0.23325 0.0
H890 H 0.56043 0.39858 0.17039 0.0
H891 H 0.55425 0.40538 0.11388 0.0
C892 C 0.60408 0.59487 0.19978 0.0
C893 C 0.65245 0.60379 0.19953 0.0
C894 C 0.6483 0.57228 0.12344 0.0
C895 C 0.59985 0.56819 0.1218 0.0
N896 N 0.53046 0.55996 0.16189 0.0
N897 N 0.71949 0.58419 0.16956 0.0
C898 C 0.5773 0.57398 0.16133 0.0
C899 C 0.67382 0.58531 0.16432 0.0
N900 N 0.58429 0.61023 0.23558 0.0
N901 N 0.67024 0.56815 0.08564 0.0
H902 H 0.7382 0.59524 0.19943 0.0
H903 H 0.73716 0.56855 0.14631 0.0
H904 H 0.65267 0.56156 0.05487 0.0
H905 H 0.70594 0.57529 0.08426 0.0
H906 H 0.54943 0.61096 0.23632 0.0
H907 H 0.60391 0.62389 0.26437 0.0
H908 H 0.51256 0.55966 0.19041 0.0
H909 H 0.50962 0.54455 0.1344 0.0
C910 C 0.32524 0.645 0.1116 0.0
C911 C 0.30583 0.62559 0.15079 0.0
C912 C 0.32859 0.54891 0.1315 0.0
C913 C 0.34308 0.56831 0.0908 0.0
N914 N 0.33929 0.62769 0.03627 0.0
N915 N 0.28103 0.55466 0.19334 0.0
C916 C 0.33479 0.61352 0.07865 0.0
C917 C 0.30492 0.57601 0.15953 0.0
N918 N 0.33906 0.69389 0.10748 0.0
N919 N 0.33871 0.50587 0.14386 0.0
H920 H 0.26238 0.57311 0.21347 0.0
H921 H 0.27662 0.51768 0.19891 0.0
H922 H 0.35473 0.48498 0.12324 0.0
H923 H 0.33332 0.49243 0.17512 0.0
H924 H 0.35607 0.70915 0.08051 0.0
H925 H 0.34009 0.7183 0.1339 0.0
H926 H 0.3308 0.65983 0.02557 0.0
H927 H 0.34683 0.60482 0.01127 0.0
C928 C 0.38974 0.30904 0.1342 0.0
C929 C 0.38415 0.34147 0.16926 0.0
C930 C 0.44409 0.40379 0.14139 0.0
C931 C 0.44054 0.376 0.1014 0.0
N932 N 0.41302 0.30123 0.0595 0.0
N933 N 0.40545 0.42075 0.20619 0.0
C934 C 0.41492 0.32785 0.09802 0.0
C935 C 0.41205 0.3888 0.17363 0.0
N936 N 0.37148 0.26047 0.13587 0.0
N937 N 0.47699 0.44537 0.14771 0.0
H938 H 0.38151 0.41169 0.22999 0.0
H939 H 0.42111 0.45749 0.20751 0.0
H940 H 0.50037 0.45758 0.12408 0.0
H941 H 0.48415 0.46445 0.17795 0.0
H942 H 0.37808 0.23473 0.11316 0.0
H943 H 0.35376 0.2454 0.16255 0.0
H944 H 0.39056 0.26786 0.05296 0.0
H945 H 0.4331 0.31393 0.03343 0.0
C946 C 0.7567 0.63043 0.56 0.0
C947 C 0.74419 0.60792 0.59984 0.0
C948 C 0.80028 0.55611 0.59078 0.0
C949 C 0.81967 0.58644 0.55711 0.0
N950 N 0.81419 0.64908 0.50577 0.0
N951 N 0.73577 0.533 0.63737 0.0
C952 C 0.79672 0.62208 0.53997 0.0
C953 C 0.76023 0.56535 0.61043 0.0
N954 N 0.72925 0.65865 0.54124 0.0
N955 N 0.82125 0.51998 0.60513 0.0
H956 H 0.70373 0.53693 0.64771 0.0
H957 H 0.74381 0.49971 0.64475 0.0
H958 H 0.84992 0.51157 0.59075 0.0
H959 H 0.81167 0.49982 0.63248 0.0
H960 H 0.73414 0.67385 0.51064 0.0
H961 H 0.69844 0.6623 0.55473 0.0
H962 H 0.80211 0.6792 0.49496 0.0
H963 H 0.84246 0.64268 0.4893 0.0
C964 C 0.38286 0.86939 0.6704 0.0
C965 C 0.3505 0.82623 0.65798 0.0
C966 C 0.35807 0.8432 0.58044 0.0
C967 C 0.38471 0.88977 0.5929 0.0
N968 N 0.42071 0.94951 0.64951 0.0
N969 N 0.30258 0.7739 0.60193 0.0
C970 C 0.39724 0.90341 0.63785 0.0
C971 C 0.33712 0.81327 0.61319 0.0
N972 N 0.39969 0.87754 0.71321 0.0
N973 N 0.35387 0.82706 0.53743 0.0
H974 H 0.28648 0.75028 0.62482 0.0
H975 H 0.28739 0.76679 0.57016 0.0
H976 H 0.36978 0.84795 0.51284 0.0
H977 H 0.33875 0.79154 0.52693 0.0
H978 H 0.42658 0.90616 0.72375 0.0
H979 H 0.38936 0.85301 0.73763 0.0
H980 H 0.42647 0.96314 0.68192 0.0
H981 H 0.43164 0.97566 0.62661 0.0
C982 C 0.1623 0.35038 0.61451 0.0
C983 C 0.14154 0.34818 0.65545 0.0
C984 C 0.08795 0.39766 0.62789 0.0
C985 C 0.10602 0.39556 0.58588 0.0
N986 N 0.15454 0.36281 0.53668 0.0
N987 N 0.08152 0.36432 0.70057 0.0
C988 C 0.14131 0.36962 0.5784 0.0
C989 C 0.10359 0.37058 0.66221 0.0
N990 N 0.2034 0.33614 0.61069 0.0
N991 N 0.05607 0.42549 0.63483 0.0
H992 H 0.09226 0.34485 0.72636 0.0
H993 H 0.05082 0.37545 0.70579 0.0
H994 H 0.04276 0.4441 0.60977 0.0
H995 H 0.04481 0.43249 0.66571 0.0
H996 H 0.2226 0.34186 0.58294 0.0
H997 H 0.2209 0.32319 0.63686 0.0
H998 H 0.17595 0.33911 0.52886 0.0
H999 H 0.14145 0.37768 0.50906 0.0
C1000 C 0.62802 0.19112 0.58393 0.0
C1001 C 0.64944 0.18344 0.62462 0.0
C1002 C 0.614 0.09632 0.61898 0.0
C1003 C 0.58614 0.10607 0.58281 0.0
N1004 N 0.56882 0.1604 0.52693 0.0
N1005 N 0.67061 0.12911 0.67854 0.0
C1006 C 0.59464 0.15269 0.56362 0.0
C1007 C 0.64527 0.13587 0.64118 0.0
N1008 N 0.64022 0.23486 0.56459 0.0
N1009 N 0.60921 0.04978 0.63257 0.0
H1010 H 0.6938 0.15718 0.69574 0.0
H1011 H 0.66843 0.09618 0.6937 0.0
H1012 H 0.5868 0.02068 0.61605 0.0
H1013 H 0.62876 0.03899 0.65826 0.0
H1014 H 0.62946 0.2414 0.53267 0.0
H1015 H 0.66414 0.26406 0.57941 0.0
H1016 H 0.56808 0.19448 0.51486 0.0
H1017 H 0.5472 0.13206 0.50857 0.0
C1018 C 0.84657 0.40411 0.34366 0.0
C1019 C 0.81849 0.36953 0.36932 0.0
C1020 C 0.88094 0.37678 0.42596 0.0
C1021 C 0.90981 0.40976 0.39992 0.0
N1022 N 0.9192 0.46133 0.33781 0.0
N1023 N 0.80282 0.33721 0.44012 0.0
C1024 C 0.89216 0.42576 0.36007 0.0
C1025 C 0.83378 0.36119 0.41252 0.0
N1026 N 0.83063 0.41462 0.30292 0.0
N1027 N 0.89895 0.35861 0.46244 0.0
H1028 H 0.76791 0.32585 0.43031 0.0
H1029 H 0.81064 0.33315 0.47338 0.0
H1030 H 0.93366 0.36834 0.47267 0.0
H1031 H 0.8805 0.33083 0.48024 0.0
H1032 H 0.85166 0.43178 0.2793 0.0
H1033 H 0.79592 0.40669 0.29251 0.0
H1034 H 0.90734 0.47795 0.31074 0.0
H1035 H 0.95358 0.47598 0.34749 0.0
C1036 C 0.68106 0.81088 0.42358 0.0
C1037 C 0.65849 0.79436 0.38199 0.0
C1038 C 0.59656 0.83635 0.3969 0.0
C1039 C 0.61728 0.85065 0.4397 0.0
N1040 N 0.6746 0.84414 0.49702 0.0
N1041 N 0.5898 0.78005 0.33412 0.0
C1042 C 0.65822 0.83569 0.45415 0.0
C1043 C 0.61432 0.80309 0.37065 0.0
N1044 N 0.72497 0.80484 0.43296 0.0
N1045 N 0.56153 0.85674 0.38026 0.0
H1046 H 0.60233 0.7552 0.31445 0.0
H1047 H 0.55562 0.78171 0.32613 0.0
H1048 H 0.54913 0.88365 0.39729 0.0
H1049 H 0.54821 0.85098 0.34775 0.0
H1050 H 0.74534 0.82121 0.46036 0.0
H1051 H 0.7418 0.78524 0.41195 0.0
H1052 H 0.70167 0.82982 0.51052 0.0
H1053 H 0.65884 0.86259 0.51996 0.0
C1054 C 0.11334 0.69942 0.35372 0.0
C1055 C 0.12865 0.67218 0.31917 0.0
C1056 C 0.08879 0.59674 0.34974 0.0
C1057 C 0.08446 0.62354 0.38878 0.0
N1058 N 0.08981 0.6994 0.42886 0.0
N1059 N 0.12482 0.59535 0.28037 0.0
C1060 C 0.09518 0.67468 0.39082 0.0
C1061 C 0.11388 0.62087 0.31572 0.0
N1062 N 0.11535 0.74826 0.35136 0.0
N1063 N 0.06928 0.54823 0.34567 0.0
H1064 H 0.13909 0.61235 0.25294 0.0
H1065 H 0.12084 0.5577 0.2785 0.0
H1066 H 0.05077 0.52962 0.37034 0.0
H1067 H 0.06785 0.52724 0.31672 0.0
H1068 H 0.10061 0.76807 0.37397 0.0
H1069 H 0.12697 0.76879 0.3249 0.0
H1070 H 0.10312 0.7364 0.43478 0.0
H1071 H 0.07372 0.68211 0.45549 0.0
C1072 C 0.38959 0.14271 0.32697 0.0
C1073 C 0.38566 0.18903 0.34485 0.0
C1074 C 0.44391 0.18151 0.40176 0.0
C1075 C 0.43233 0.13051 0.39459 0.0
N1076 N 0.40566 0.06345 0.34265 0.0
N1077 N 0.41175 0.25315 0.40162 0.0
C1078 C 0.40925 0.11133 0.35425 0.0
C1079 C 0.41444 0.20949 0.3823 0.0
N1080 N 0.37547 0.12954 0.28411 0.0
N1081 N 0.48255 0.20286 0.42681 0.0
H1082 H 0.38882 0.27432 0.39087 0.0
H1083 H 0.42979 0.26611 0.43133 0.0
H1084 H 0.50678 0.18302 0.43777 0.0
H1085 H 0.49328 0.24048 0.43095 0.0
H1086 H 0.38009 0.09751 0.26867 0.0
H1087 H 0.36389 0.15336 0.26265 0.0
H1088 H 0.38459 0.04584 0.31615 0.0
H1089 H 0.42367 0.04144 0.3605 0.0
C1090 C 0.56345 0.7794 0.63839 0.0
C1091 C 0.60904 0.80084 0.65472 0.0
C1092 C 0.58921 0.88128 0.65468 0.0
C1093 C 0.54822 0.86073 0.6298 0.0
N1094 N 0.48562 0.79151 0.62204 0.0
N1095 N 0.66445 0.87235 0.68308 0.0
C1096 C 0.53172 0.80992 0.62928 0.0
C1097 C 0.62153 0.85185 0.66492 0.0
N1098 N 0.55131 0.73042 0.62942 0.0
N1099 N 0.59599 0.92876 0.66904 0.0
H1100 H 0.68889 0.85234 0.69252 0.0
H1101 H 0.67701 0.90967 0.6868 0.0
H1102 H 0.57066 0.94905 0.66304 0.0
H1103 H 0.62345 0.94614 0.6902 0.0
H1104 H 0.52012 0.71349 0.61331 0.0
H1105 H 0.57388 0.70701 0.63514 0.0
H1106 H 0.47063 0.75487 0.62414 0.0
H1107 H 0.46188 0.8142 0.61963 0.0
C1108 C 0.63564 0.16751 0.41107 0.0
C1109 C 0.62361 0.16308 0.36565 0.0
C1110 C 0.55947 0.09571 0.37791 0.0
C1111 C 0.5785 0.09334 0.42154 0.0
N1112 N 0.63918 0.12593 0.47813 0.0
N1113 N 0.55937 0.14278 0.31222 0.0
C1114 C 0.6175 0.1292 0.43794 0.0
C1115 C 0.58085 0.13314 0.35068 0.0
N1116 N 0.66269 0.2096 0.42874 0.0
N1117 N 0.52371 0.06007 0.36124 0.0
H1118 H 0.57178 0.17366 0.2948 0.0
H1119 H 0.52637 0.12477 0.30108 0.0
H1120 H 0.50815 0.03102 0.37938 0.0
H1121 H 0.51187 0.0569 0.32828 0.0
H1122 H 0.66943 0.21653 0.46253 0.0
H1123 H 0.67289 0.23988 0.40979 0.0
H1124 H 0.67107 0.14778 0.4881 0.0
H1125 H 0.62722 0.1003 0.50093 0.0
C1126 C 0.89771 0.72012 0.3669 0.0
C1127 C 0.86876 0.69166 0.33308 0.0
C1128 C 0.90748 0.62411 0.34602 0.0
C1129 C 0.92921 0.64891 0.38502 0.0
N1130 N 0.96619 0.72798 0.41578 0.0
N1131 N 0.84798 0.6182 0.28722 0.0
C1132 C 0.93097 0.69945 0.39056 0.0
C1133 C 0.87472 0.64432 0.32115 0.0
N1134 N 0.89205 0.766 0.37766 0.0
N1135 N 0.92041 0.58267 0.33193 0.0
H1136 H 0.82481 0.63262 0.26733 0.0
H1137 H 0.84698 0.58157 0.28012 0.0
H1138 H 0.94704 0.56991 0.34844 0.0
H1139 H 0.90908 0.56466 0.30179 0.0
H1140 H 0.90838 0.78622 0.40532 0.0
H1141 H 0.86857 0.78274 0.3606 0.0
H1142 H 0.97107 0.76568 0.41882 0.0
H1143 H -0.00561 0.7147 0.42819 0.0
C1144 C 0.33472 0.80473 0.38916 0.0
C1145 C 0.36043 0.80089 0.3515 0.0
C1146 C 0.40578 0.88303 0.36821 0.0
C1147 C 0.38136 0.88597 0.40622 0.0
N1148 N 0.31408 0.85865 0.44521 0.0
N1149 N 0.4312 0.8294 0.31602 0.0
C1150 C 0.34263 0.84966 0.41378 0.0
C1151 C 0.39911 0.83827 0.34405 0.0
N1152 N 0.30665 0.76455 0.40412 0.0
N1153 N 0.4365 0.92294 0.35633 0.0
H1154 H 0.42948 0.79507 0.30122 0.0
H1155 H 0.46196 0.85385 0.31173 0.0
H1156 H 0.44124 0.95612 0.37397 0.0
H1157 H 0.45314 0.92445 0.32695 0.0
H1158 H 0.2893 0.7648 0.43296 0.0
H1159 H 0.30605 0.7296 0.3915 0.0
H1160 H 0.28316 0.8353 0.45104 0.0
H1161 H 0.32022 0.89205 0.46276 0.0
C1162 C 0.24913 0.44172 0.35038 0.0
C1163 C 0.26975 0.40752 0.37266 0.0
C1164 C 0.23586 0.427 0.44058 0.0
C1165 C 0.20577 0.45017 0.41517 0.0
N1166 N 0.18726 0.48655 0.34772 0.0
N1167 N 0.28952 0.37218 0.43961 0.0
C1168 C 0.21413 0.46063 0.37072 0.0
C1169 C 0.26636 0.40289 0.41846 0.0
N1170 N 0.26168 0.45355 0.30896 0.0
N1171 N 0.23447 0.42731 0.48535 0.0
H1172 H 0.31298 0.35574 0.42357 0.0
H1173 H 0.28468 0.36206 0.47192 0.0
H1174 H 0.21252 0.44495 0.5022 0.0
H1175 H 0.25748 0.41371 0.50597 0.0
H1176 H 0.25015 0.4802 0.29113 0.0
H1177 H 0.28702 0.43886 0.29414 0.0
H1178 H 0.18831 0.49132 0.31398 0.0
H1179 H 0.16267 0.50235 0.36255 0.0
C1180 C 0.27577 0.17891 0.58154 0.0
C1181 C 0.27373 0.16774 0.62658 0.0
C1182 C 0.29993 0.09216 0.61126 0.0
C1183 C 0.3096 0.10751 0.56841 0.0
N1184 N 0.30613 0.16367 0.51094 0.0
N1185 N 0.28551 0.11517 0.68558 0.0
C1186 C 0.2966 0.15006 0.55274 0.0
C1187 C 0.2857 0.1244 0.64172 0.0
N1188 N 0.25811 0.21709 0.56665 0.0
N1189 N 0.30497 0.04685 0.62277 0.0
H1190 H 0.274 0.13701 0.70898 0.0
H1191 H 0.29923 0.08737 0.69929 0.0
H1192 H 0.3155 0.02273 0.60078 0.0
H1193 H 0.29449 0.03146 0.65222 0.0
H1194 H 0.25522 0.22508 0.5336 0.0
H1195 H 0.24347 0.23917 0.58738 0.0
H1196 H 0.30264 0.19699 0.49874 0.0
H1197 H 0.31917 0.14168 0.48875 0.0
C1198 C 0.89497 0.42149 0.64888 0.0
C1199 C 0.88344 0.36985 0.64669 0.0
C1200 C 0.93201 0.36731 0.58433 0.0
C1201 C 0.93703 0.4179 0.58246 0.0
N1202 N 0.93883 0.49496 0.61924 0.0
N1203 N 0.89342 0.29295 0.61549 0.0
C1204 C 0.92388 0.44557 0.61726 0.0
C1205 C 0.90344 0.34256 0.61583 0.0
N1206 N 0.87511 0.44733 0.67836 0.0
N1207 N 0.95599 0.34366 0.55706 0.0
H1208 H 0.87729 0.27347 0.64098 0.0
H1209 H 0.89944 0.27124 0.58909 0.0
H1210 H 0.97885 0.36242 0.53554 0.0
H1211 H 0.95692 0.30697 0.55867 0.0
H1212 H 0.87909 0.48493 0.67921 0.0
H1213 H 0.85212 0.43137 0.70098 0.0
H1214 H 0.93416 0.51762 0.64546 0.0
H1215 H 0.9596 0.51311 0.5958 0.0
C1216 C 0.14972 0.57216 0.64746 0.0
C1217 C 0.18973 0.60721 0.64044 0.0
C1218 C 0.1501 0.63399 0.57579 0.0
C1219 C 0.10785 0.60682 0.58969 0.0
N1220 N 0.06667 0.55063 0.63945 0.0
N1221 N 0.23362 0.65737 0.58852 0.0
C1222 C 0.10753 0.57566 0.62551 0.0
C1223 C 0.19181 0.63388 0.60142 0.0
N1224 N 0.15266 0.5359 0.67565 0.0
N1225 N 0.14995 0.6591 0.538 0.0
H1226 H 0.26441 0.65081 0.60262 0.0
H1227 H 0.2383 0.68029 0.56226 0.0
H1228 H 0.11962 0.66067 0.51973 0.0
H1229 H 0.17917 0.67868 0.52452 0.0
H1230 H 0.12559 0.50668 0.67993 0.0
H1231 H 0.18415 0.53289 0.69113 0.0
H1232 H 0.06414 0.53096 0.668 0.0
H1233 H 0.03484 0.5532 0.62468 0.0
loop_
_geom_bond_atom_site_label_1
_geom_bond_atom_site_label_2
_geom_bond_distance
_geom_bond_site_symmetry_2
_ccdc_geom_bond_type
O0 Zn1 1.953 . S
O0 C16 1.225 . S
Zn1 O0 1.953 . S
Zn1 O2 1.949 . S
Zn1 O8 1.919 . S
Zn1 O13 1.924 . S
O2 Zn1 1.949 . S
O2 Zn3 1.923 . S
O2 Zn4 1.950 . S
O2 Zn5 1.945 . S
Zn3 O2 1.923 . S
Zn3 O6 1.933 . S
Zn3 O9 1.941 . S
Zn3 O10 1.965 . S
Zn4 O2 1.950 . S
Zn4 O11 1.938 . S
Zn4 O12 1.906 . S
Zn4 O22 1.953 . S
Zn5 O2 1.945 . S
Zn5 O7 1.932 . S
Zn5 O14 1.977 . S
Zn5 O15 1.910 . S
O6 Zn3 1.933 . S
O6 C17 1.226 . S
O7 Zn5 1.932 . S
O7 C17 1.307 . S
O8 Zn1 1.919 . S
O8 C19 1.253 . S
O9 Zn3 1.941 . S
O9 C19 1.283 . S
O10 Zn3 1.965 . S
O10 C18 1.303 . S
O11 Zn4 1.938 . S
O11 C18 1.247 . S
O12 Zn4 1.906 . S
O12 C20 1.304 . S
O13 Zn1 1.924 . S
O13 C21 1.311 . S
O14 Zn5 1.977 . S
O14 C20 1.272 . S
O15 Zn5 1.910 . S
O15 C21 1.231 . S
C16 O0 1.225 . S
C16 O22 1.298 . S
C17 O6 1.226 . S
C17 O7 1.307 . S
C18 O10 1.303 . S
C18 O11 1.247 . S
C19 O8 1.253 . S
C19 O9 1.283 . S
C20 O12 1.304 . S
C20 O14 1.272 . S
C21 O13 1.311 . S
C21 O15 1.231 . S
O22 Zn4 1.953 . S
O22 C16 1.298 . S
O23 Zn24 1.953 . S
O23 C39 1.225 . S
Zn24 O23 1.953 . S
Zn24 O25 1.949 . S
Zn24 O31 1.919 . S
Zn24 O36 1.924 . S
O25 Zn24 1.949 . S
O25 Zn26 1.923 . S
O25 Zn27 1.950 . S
O25 Zn28 1.945 . S
Zn26 O25 1.923 . S
Zn26 O29 1.933 . S
Zn26 O32 1.941 . S
Zn26 O33 1.965 . S
Zn27 O25 1.950 . S
Zn27 O34 1.938 . S
Zn27 O35 1.906 . S
Zn27 O45 1.953 . S
Zn28 O25 1.945 . S
Zn28 O30 1.932 . S
Zn28 O37 1.977 . S
Zn28 O38 1.910 . S
O29 Zn26 1.933 . S
O29 C40 1.226 . S
O30 Zn28 1.932 . S
O30 C40 1.307 . S
O31 Zn24 1.919 . S
O31 C42 1.253 . S
O32 Zn26 1.941 . S
O32 C42 1.283 . S
O33 Zn26 1.965 . S
O33 C41 1.303 . S
O34 Zn27 1.938 . S
O34 C41 1.247 . S
O35 Zn27 1.906 . S
O35 C43 1.304 . S
O36 Zn24 1.924 . S
O36 C44 1.311 . S
O37 Zn28 1.977 . S
O37 C43 1.272 . S
O38 Zn28 1.910 . S
O38 C44 1.231 . S
C39 O23 1.225 . S
C39 O45 1.298 . S
C40 O29 1.226 . S
C40 O30 1.307 . S
C41 O33 1.303 . S
C41 O34 1.247 . S
C42 O31 1.253 . S
C42 O32 1.283 . S
C43 O35 1.304 . S
C43 O37 1.272 . S
C44 O36 1.311 . S
C44 O38 1.231 . S
O45 Zn27 1.953 . S
O45 C39 1.298 . S
O46 Zn47 1.953 . S
O46 C62 1.225 . S
Zn47 O46 1.953 . S
Zn47 O48 1.949 . S
Zn47 O54 1.919 . S
Zn47 O59 1.924 . S
O48 Zn47 1.949 . S
O48 Zn49 1.923 . S
O48 Zn50 1.950 . S
O48 Zn51 1.945 . S
Zn49 O48 1.923 . S
Zn49 O52 1.933 . S
Zn49 O55 1.941 . S
Zn49 O56 1.965 . S
Zn50 O48 1.950 . S
Zn50 O57 1.938 . S
Zn50 O58 1.906 . S
Zn50 O68 1.953 . S
Zn51 O48 1.945 . S
Zn51 O53 1.932 . S
Zn51 O60 1.977 . S
Zn51 O61 1.910 . S
O52 Zn49 1.933 . S
O52 C63 1.226 . S
O53 Zn51 1.932 . S
O53 C63 1.307 . S
O54 Zn47 1.919 . S
O54 C65 1.253 . S
O55 Zn49 1.941 . S
O55 C65 1.283 . S
O56 Zn49 1.965 . S
O56 C64 1.303 . S
O57 Zn50 1.938 . S
O57 C64 1.247 . S
O58 Zn50 1.906 . S
O58 C66 1.304 . S
O59 Zn47 1.924 . S
O59 C67 1.311 . S
O60 Zn51 1.977 . S
O60 C66 1.272 . S
O61 Zn51 1.910 . S
O61 C67 1.231 . S
C62 O46 1.225 . S
C62 O68 1.298 . S
C63 O52 1.226 . S
C63 O53 1.307 . S
C64 O56 1.303 . S
C64 O57 1.247 . S
C65 O54 1.253 . S
C65 O55 1.283 . S
C66 O58 1.304 . S
C66 O60 1.272 . S
C67 O59 1.311 . S
C67 O61 1.231 . S
O68 Zn50 1.953 . S
O68 C62 1.298 . S
O69 Zn70 1.953 . S
O69 C85 1.225 . S
Zn70 O69 1.953 . S
Zn70 O71 1.949 . S
Zn70 O77 1.919 . S
Zn70 O82 1.924 . S
O71 Zn70 1.949 . S
O71 Zn72 1.923 . S
O71 Zn73 1.950 . S
O71 Zn74 1.945 . S
Zn72 O71 1.923 . S
Zn72 O75 1.933 . S
Zn72 O78 1.941 . S
Zn72 O79 1.965 . S
Zn73 O71 1.950 . S
Zn73 O80 1.938 . S
Zn73 O81 1.906 . S
Zn73 O91 1.953 . S
Zn74 O71 1.945 . S
Zn74 O76 1.932 . S
Zn74 O83 1.977 . S
Zn74 O84 1.910 . S
O75 Zn72 1.933 . S
O75 C86 1.226 . S
O76 Zn74 1.932 . S
O76 C86 1.307 . S
O77 Zn70 1.919 . S
O77 C88 1.253 . S
O78 Zn72 1.941 . S
O78 C88 1.283 . S
O79 Zn72 1.965 . S
O79 C87 1.303 . S
O80 Zn73 1.938 . S
O80 C87 1.247 . S
O81 Zn73 1.906 . S
O81 C89 1.304 . S
O82 Zn70 1.924 . S
O82 C90 1.311 . S
O83 Zn74 1.977 . S
O83 C89 1.272 . S
O84 Zn74 1.910 . S
O84 C90 1.231 . S
C85 O69 1.225 . S
C85 O91 1.298 . S
C86 O75 1.226 . S
C86 O76 1.307 . S
C87 O79 1.303 . S
C87 O80 1.247 . S
C88 O77 1.253 . S
C88 O78 1.283 . S
C89 O81 1.304 . S
C89 O83 1.272 . S
C90 O82 1.311 . S
C90 O84 1.231 . S
O91 Zn73 1.953 . S
O91 C85 1.298 . S
O92 Zn93 1.953 . S
O92 C108 1.225 . S
Zn93 O92 1.953 . S
Zn93 O94 1.949 . S
Zn93 O100 1.919 . S
Zn93 O105 1.924 . S
O94 Zn93 1.949 . S
O94 Zn95 1.923 . S
O94 Zn96 1.950 . S
O94 Zn97 1.945 . S
Zn95 O94 1.923 . S
Zn95 O98 1.933 . S
Zn95 O101 1.941 . S
Zn95 O102 1.965 . S
Zn96 O94 1.950 . S
Zn96 O103 1.938 . S
Zn96 O104 1.906 . S
Zn96 O114 1.953 . S
Zn97 O94 1.945 . S
Zn97 O99 1.932 . S
Zn97 O106 1.977 . S
Zn97 O107 1.910 . S
O98 Zn95 1.933 . S
O98 C109 1.226 . S
O99 Zn97 1.932 . S
O99 C109 1.307 . S
O100 Zn93 1.919 . S
O100 C111 1.253 . S
O101 Zn95 1.941 . S
O101 C111 1.283 . S
O102 Zn95 1.965 . S
O102 C110 1.303 . S
O103 Zn96 1.938 . S
O103 C110 1.247 . S
O104 Zn96 1.906 . S
O104 C112 1.304 . S
O105 Zn93 1.924 . S
O105 C113 1.311 . S
O106 Zn97 1.977 . S
O106 C112 1.272 . S
O107 Zn97 1.910 . S
O107 C113 1.231 . S
C108 O92 1.225 . S
C108 O114 1.298 . S
C109 O98 1.226 . S
C109 O99 1.307 . S
C110 O102 1.303 . S
C110 O103 1.247 . S
C111 O100 1.253 . S
C111 O101 1.283 . S
C112 O104 1.304 . S
C112 O106 1.272 . S
C113 O105 1.311 . S
C113 O107 1.231 . S
O114 Zn96 1.953 . S
O114 C108 1.298 . S
O115 Zn116 1.953 . S
O115 C131 1.225 . S
Zn116 O115 1.953 . S
Zn116 O117 1.949 . S
Zn116 O123 1.919 . S
Zn116 O128 1.924 . S
O117 Zn116 1.949 . S
O117 Zn118 1.923 . S
O117 Zn119 1.950 . S
O117 Zn120 1.945 . S
Zn118 O117 1.923 . S
Zn118 O121 1.933 . S
Zn118 O124 1.941 . S
Zn118 O125 1.965 . S
Zn119 O117 1.950 . S
Zn119 O126 1.938 . S
Zn119 O127 1.906 . S
Zn119 O137 1.953 . S
Zn120 O117 1.945 . S
Zn120 O122 1.932 . S
Zn120 O129 1.977 . S
Zn120 O130 1.910 . S
O121 Zn118 1.933 . S
O121 C132 1.226 . S
O122 Zn120 1.932 . S
O122 C132 1.307 . S
O123 Zn116 1.919 . S
O123 C134 1.253 . S
O124 Zn118 1.941 . S
O124 C134 1.283 . S
O125 Zn118 1.965 . S
O125 C133 1.303 . S
O126 Zn119 1.938 . S
O126 C133 1.247 . S
O127 Zn119 1.906 . S
O127 C135 1.304 . S
O128 Zn116 1.924 . S
O128 C136 1.311 . S
O129 Zn120 1.977 . S
O129 C135 1.272 . S
O130 Zn120 1.910 . S
O130 C136 1.231 . S
C131 O115 1.225 . S
C131 O137 1.298 . S
C132 O121 1.226 . S
C132 O122 1.307 . S
C133 O125 1.303 . S
C133 O126 1.247 . S
C134 O123 1.253 . S
C134 O124 1.283 . S
C135 O127 1.304 . S
C135 O129 1.272 . S
C136 O128 1.311 . S
C136 O130 1.231 . S
O137 Zn119 1.953 . S
O137 C131 1.298 . S
O138 Zn139 1.953 . S
O138 C154 1.225 . S
Zn139 O138 1.953 . S
Zn139 O140 1.949 . S
Zn139 O146 1.919 . S
Zn139 O151 1.924 . S
O140 Zn139 1.949 . S
O140 Zn141 1.923 . S
O140 Zn142 1.950 . S
O140 Zn143 1.945 . S
Zn141 O140 1.923 . S
Zn141 O144 1.933 . S
Zn141 O147 1.941 . S
Zn141 O148 1.965 . S
Zn142 O140 1.950 . S
Zn142 O149 1.938 . S
Zn142 O150 1.906 . S
Zn142 O160 1.953 . S
Zn143 O140 1.945 . S
Zn143 O145 1.932 . S
Zn143 O152 1.977 . S
Zn143 O153 1.910 . S
O144 Zn141 1.933 . S
O144 C155 1.226 . S
O145 Zn143 1.932 . S
O145 C155 1.307 . S
O146 Zn139 1.919 . S
O146 C157 1.253 . S
O147 Zn141 1.941 . S
O147 C157 1.283 . S
O148 Zn141 1.965 . S
O148 C156 1.303 . S
O149 Zn142 1.938 . S
O149 C156 1.247 . S
O150 Zn142 1.906 . S
O150 C158 1.304 . S
O151 Zn139 1.924 . S
O151 C159 1.311 . S
O152 Zn143 1.977 . S
O152 C158 1.272 . S
O153 Zn143 1.910 . S
O153 C159 1.231 . S
C154 O138 1.225 . S
C154 O160 1.298 . S
C155 O144 1.226 . S
C155 O145 1.307 . S
C156 O148 1.303 . S
C156 O149 1.247 . S
C157 O146 1.253 . S
C157 O147 1.283 . S
C158 O150 1.304 . S
C158 O152 1.272 . S
C159 O151 1.311 . S
C159 O153 1.231 . S
O160 Zn142 1.953 . S
O160 C154 1.298 . S
O161 Zn162 1.953 . S
O161 C177 1.225 . S
Zn162 O161 1.953 . S
Zn162 O163 1.949 . S
Zn162 O169 1.919 . S
Zn162 O174 1.924 . S
O163 Zn162 1.949 . S
O163 Zn164 1.923 . S
O163 Zn165 1.950 . S
O163 Zn166 1.945 . S
Zn164 O163 1.923 . S
Zn164 O167 1.933 . S
Zn164 O170 1.941 . S
Zn164 O171 1.965 . S
Zn165 O163 1.950 . S
Zn165 O172 1.938 . S
Zn165 O173 1.906 . S
Zn165 O183 1.953 . S
Zn166 O163 1.945 . S
Zn166 O168 1.932 . S
Zn166 O175 1.977 . S
Zn166 O176 1.910 . S
O167 Zn164 1.933 . S
O167 C178 1.226 . S
O168 Zn166 1.932 . S
O168 C178 1.307 . S
O169 Zn162 1.919 . S
O169 C180 1.253 . S
O170 Zn164 1.941 . S
O170 C180 1.283 . S
O171 Zn164 1.965 . S
O171 C179 1.303 . S
O172 Zn165 1.938 . S
O172 C179 1.247 . S
O173 Zn165 1.906 . S
O173 C181 1.304 . S
O174 Zn162 1.924 . S
O174 C182 1.311 . S
O175 Zn166 1.977 . S
O175 C181 1.272 . S
O176 Zn166 1.910 . S
O176 C182 1.231 . S
C177 O161 1.225 . S
C177 O183 1.298 . S
C178 O167 1.226 . S
C178 O168 1.307 . S
C179 O171 1.303 . S
C179 O172 1.247 . S
C180 O169 1.253 . S
C180 O170 1.283 . S
C181 O173 1.304 . S
C181 O175 1.272 . S
C182 O174 1.311 . S
C182 O176 1.231 . S
O183 Zn165 1.953 . S
O183 C177 1.298 . S
C184 O196 1.241 . S
C184 O197 1.280 . S
C185 O198 1.277 . S
C185 O199 1.245 . S
C186 O210 1.247 . S
C186 O212 1.289 . S
Mg187 O188 1.926 . S
Mg187 O197 1.984 . S
Mg187 O199 1.988 . S
Mg187 O200 2.061 1_655 S
O188 Mg187 1.926 . S
O188 Mg189 1.986 . S
O188 Mg190 1.917 1_655 S
Mg189 O188 1.986 . S
Mg189 O196 2.042 . S
Mg189 O198 2.041 . S
Mg189 O204 2.038 1_545 S
Mg189 O212 2.238 1_545 S
Mg190 O188 1.917 1_455 S
Mg190 O191 1.917 1_545 S
Mg190 O201 2.106 . S
Mg190 O203 2.079 1_445 S
Mg190 O212 2.106 1_445 S
Mg190 O213 2.079 . S
O191 Mg190 1.917 1_565 S
O191 Mg192 1.926 . S
O191 Mg193 1.986 . S
Mg192 O191 1.926 . S
Mg192 O206 1.984 . S
Mg192 O209 1.988 . S
Mg192 O210 2.061 1_455 S
Mg193 O191 1.986 . S
Mg193 O201 2.238 1_565 S
Mg193 O205 2.042 . S
Mg193 O207 2.041 . S
Mg193 O214 2.038 1_565 S
C194 O200 1.247 . S
C194 O201 1.289 . S
C195 O213 1.245 . S
C195 O214 1.274 . S
O196 C184 1.241 . S
O196 Mg189 2.042 . S
O197 C184 1.280 . S
O197 Mg187 1.984 . S
O198 C185 1.277 . S
O198 Mg189 2.041 . S
O199 C185 1.245 . S
O199 Mg187 1.988 . S
O200 Mg187 2.061 1_455 S
O200 C194 1.247 . S
O201 Mg190 2.106 . S
O201 Mg193 2.238 1_545 S
O201 C194 1.289 . S
C202 O203 1.245 . S
C202 O204 1.274 . S
O203 Mg190 2.079 1_665 S
O203 C202 1.245 . S
O204 Mg189 2.038 1_565 S
O204 C202 1.274 . S
O205 Mg193 2.042 . S
O205 C208 1.241 . S
O206 Mg192 1.984 . S
O206 C208 1.280 . S
O207 Mg193 2.041 . S
O207 C211 1.277 . S
C208 O205 1.241 . S
C208 O206 1.280 . S
O209 Mg192 1.988 . S
O209 C211 1.245 . S
O210 C186 1.247 . S
O210 Mg192 2.061 1_655 S
C211 O207 1.277 . S
C211 O209 1.245 . S
O212 C186 1.289 . S
O212 Mg189 2.238 1_565 S
O212 Mg190 2.106 1_665 S
O213 Mg190 2.079 . S
O213 C195 1.245 . S
O214 Mg193 2.038 1_545 S
O214 C195 1.274 . S
C215 O227 1.241 . S
C215 O228 1.280 . S
C216 O229 1.277 . S
C216 O230 1.245 . S
C217 O241 1.247 . S
C217 O243 1.289 . S
Mg218 O219 1.926 . S
Mg218 O228 1.984 . S
Mg218 O230 1.988 1_554 S
Mg218 O231 2.061 . S
O219 Mg218 1.926 . S
O219 Mg220 1.986 . S
O219 Mg221 1.917 . S
Mg220 O219 1.986 . S
Mg220 O227 2.042 . S
Mg220 O229 2.041 1_554 S
Mg220 O235 2.038 1_545 S
Mg220 O243 2.238 1_544 S
Mg221 O219 1.917 . S
Mg221 O222 1.917 1_544 S
Mg221 O232 2.106 . S
Mg221 O234 2.079 1_545 S
Mg221 O243 2.106 1_544 S
Mg221 O244 2.079 1_554 S
O222 Mg221 1.917 1_566 S
O222 Mg223 1.926 . S
O222 Mg224 1.986 1_556 S
Mg223 O222 1.926 . S
Mg223 O237 1.984 . S
Mg223 O240 1.988 1_556 S
Mg223 O241 2.061 . S
Mg224 O222 1.986 1_554 S
Mg224 O232 2.238 1_565 S
Mg224 O236 2.042 1_554 S
Mg224 O238 2.041 . S
Mg224 O245 2.038 1_564 S
C225 O231 1.247 . S
C225 O232 1.289 . S
C226 O244 1.245 . S
C226 O245 1.274 . S
O227 C215 1.241 . S
O227 Mg220 2.042 . S
O228 C215 1.280 . S
O228 Mg218 1.984 . S
O229 C216 1.277 . S
O229 Mg220 2.041 1_556 S
O230 C216 1.245 . S
O230 Mg218 1.988 1_556 S
O231 Mg218 2.061 . S
O231 C225 1.247 . S
O232 Mg221 2.106 . S
O232 Mg224 2.238 1_545 S
O232 C225 1.289 . S
C233 O234 1.245 . S
C233 O235 1.274 . S
O234 Mg221 2.079 1_565 S
O234 C233 1.245 . S
O235 Mg220 2.038 1_565 S
O235 C233 1.274 . S
O236 Mg224 2.042 1_556 S
O236 C239 1.241 . S
O237 Mg223 1.984 . S
O237 C239 1.280 . S
O238 Mg224 2.041 . S
O238 C242 1.277 . S
C239 O236 1.241 . S
C239 O237 1.280 . S
O240 Mg223 1.988 1_554 S
O240 C242 1.245 . S
O241 C217 1.247 . S
O241 Mg223 2.061 . S
C242 O238 1.277 . S
C242 O240 1.245 . S
O243 C217 1.289 . S
O243 Mg220 2.238 1_566 S
O243 Mg221 2.106 1_566 S
O244 Mg221 2.079 1_556 S
O244 C226 1.245 . S
O245 Mg224 2.038 1_546 S
O245 C226 1.274 . S
C246 O258 1.241 . S
C246 O259 1.280 . S
C247 O260 1.277 . S
C247 O261 1.245 . S
C248 O272 1.247 . S
C248 O274 1.289 . S
Mg249 O250 1.926 . S
Mg249 O259 1.984 . S
Mg249 O261 1.988 1_554 S
Mg249 O262 2.061 1_655 S
O250 Mg249 1.926 . S
O250 Mg251 1.986 . S
O250 Mg252 1.917 1_655 S
Mg251 O250 1.986 . S
Mg251 O258 2.042 . S
Mg251 O260 2.041 1_554 S
Mg251 O266 2.038 . S
Mg251 O274 2.238 1_554 S
Mg252 O250 1.917 1_455 S
Mg252 O253 1.917 1_554 S
Mg252 O263 2.106 . S
Mg252 O265 2.079 1_455 S
Mg252 O274 2.106 1_454 S
Mg252 O275 2.079 1_554 S
O253 Mg252 1.917 1_556 S
O253 Mg254 1.926 . S
O253 Mg255 1.986 1_556 S
Mg254 O253 1.926 . S
Mg254 O268 1.984 . S
Mg254 O271 1.988 1_556 S
Mg254 O272 2.061 1_455 S
Mg255 O253 1.986 1_554 S
Mg255 O263 2.238 . S
Mg255 O267 2.042 1_554 S
Mg255 O269 2.041 . S
Mg255 O276 2.038 1_554 S
C256 O262 1.247 . S
C256 O263 1.289 . S
C257 O275 1.245 . S
C257 O276 1.274 . S
O258 C246 1.241 . S
O258 Mg251 2.042 . S
O259 C246 1.280 . S
O259 Mg249 1.984 . S
O260 C247 1.277 . S
O260 Mg251 2.041 1_556 S
O261 C247 1.245 . S
O261 Mg249 1.988 1_556 S
O262 Mg249 2.061 1_455 S
O262 C256 1.247 . S
O263 Mg252 2.106 . S
O263 Mg255 2.238 . S
O263 C256 1.289 . S
C264 O265 1.245 . S
C264 O266 1.274 . S
O265 Mg252 2.079 1_655 S
O265 C264 1.245 . S
O266 Mg251 2.038 . S
O266 C264 1.274 . S
O267 Mg255 2.042 1_556 S
O267 C270 1.241 . S
O268 Mg254 1.984 . S
O268 C270 1.280 . S
O269 Mg255 2.041 . S
O269 C273 1.277 . S
C270 O267 1.241 . S
C270 O268 1.280 . S
O271 Mg254 1.988 1_554 S
O271 C273 1.245 . S
O272 C248 1.247 . S
O272 Mg254 2.061 1_655 S
C273 O269 1.277 . S
C273 O271 1.245 . S
O274 C248 1.289 . S
O274 Mg251 2.238 1_556 S
O274 Mg252 2.106 1_656 S
O275 Mg252 2.079 1_556 S
O275 C257 1.245 . S
O276 Mg255 2.038 1_556 S
O276 C257 1.274 . S
C277 O289 1.241 . S
C277 O290 1.280 . S
C278 O291 1.277 . S
C278 O292 1.245 . S
C279 O303 1.247 . S
C279 O305 1.289 . S
Mg280 O281 1.926 . S
Mg280 O290 1.984 . S
Mg280 O292 1.988 1_554 S
Mg280 O293 2.061 . S
O281 Mg280 1.926 . S
O281 Mg282 1.986 . S
O281 Mg283 1.917 . S
Mg282 O281 1.986 . S
Mg282 O289 2.042 . S
Mg282 O291 2.041 1_554 S
Mg282 O297 2.038 . S
Mg282 O305 2.238 1_554 S
Mg283 O281 1.917 . S
Mg283 O284 1.917 1_554 S
Mg283 O294 2.106 . S
Mg283 O296 2.079 . S
Mg283 O305 2.106 1_554 S
Mg283 O306 2.079 1_554 S
O284 Mg283 1.917 1_556 S
O284 Mg285 1.926 . S
O284 Mg286 1.986 1_556 S
Mg285 O284 1.926 . S
Mg285 O299 1.984 . S
Mg285 O302 1.988 1_556 S
Mg285 O303 2.061 . S
Mg286 O284 1.986 1_554 S
Mg286 O294 2.238 . S
Mg286 O298 2.042 1_554 S
Mg286 O300 2.041 . S
Mg286 O307 2.038 1_554 S
C287 O293 1.247 . S
C287 O294 1.289 . S
C288 O306 1.245 . S
C288 O307 1.274 . S
O289 C277 1.241 . S
O289 Mg282 2.042 . S
O290 C277 1.280 . S
O290 Mg280 1.984 . S
O291 C278 1.277 . S
O291 Mg282 2.041 1_556 S
O292 C278 1.245 . S
O292 Mg280 1.988 1_556 S
O293 Mg280 2.061 . S
O293 C287 1.247 . S
O294 Mg283 2.106 . S
O294 Mg286 2.238 . S
O294 C287 1.289 . S
C295 O296 1.245 . S
C295 O297 1.274 . S
O296 Mg283 2.079 . S
O296 C295 1.245 . S
O297 Mg282 2.038 . S
O297 C295 1.274 . S
O298 Mg286 2.042 1_556 S
O298 C301 1.241 . S
O299 Mg285 1.984 . S
O299 C301 1.280 . S
O300 Mg286 2.041 . S
O300 C304 1.277 . S
C301 O298 1.241 . S
C301 O299 1.280 . S
O302 Mg285 1.988 1_554 S
O302 C304 1.245 . S
O303 C279 1.247 . S
O303 Mg285 2.061 . S
C304 O300 1.277 . S
C304 O302 1.245 . S
O305 C279 1.289 . S
O305 Mg282 2.238 1_556 S
O305 Mg283 2.106 1_556 S
O306 Mg283 2.079 1_556 S
O306 C288 1.245 . S
O307 Mg286 2.038 1_556 S
O307 C288 1.274 . S
C308 O320 1.241 . S
C308 O321 1.280 . S
C309 O322 1.277 . S
C309 O323 1.245 . S
C310 O334 1.247 . S
C310 O336 1.289 . S
Mg311 O312 1.926 . S
Mg311 O321 1.984 . S
Mg311 O323 1.988 . S
Mg311 O324 2.061 1_655 S
O312 Mg311 1.926 . S
O312 Mg313 1.986 . S
O312 Mg314 1.917 1_655 S
Mg313 O312 1.986 . S
Mg313 O320 2.042 . S
Mg313 O322 2.041 . S
Mg313 O328 2.038 . S
Mg313 O336 2.238 . S
Mg314 O312 1.917 1_455 S
Mg314 O315 1.917 . S
Mg314 O325 2.106 . S
Mg314 O327 2.079 1_455 S
Mg314 O336 2.106 1_455 S
Mg314 O337 2.079 . S
O315 Mg314 1.917 . S
O315 Mg316 1.926 . S
O315 Mg317 1.986 . S
Mg316 O315 1.926 . S
Mg316 O330 1.984 . S
Mg316 O333 1.988 . S
Mg316 O334 2.061 1_455 S
Mg317 O315 1.986 . S
Mg317 O325 2.238 . S
Mg317 O329 2.042 . S
Mg317 O331 2.041 . S
Mg317 O338 2.038 . S
C318 O324 1.247 . S
C318 O325 1.289 . S
C319 O337 1.245 . S
C319 O338 1.274 . S
O320 C308 1.241 . S
O320 Mg313 2.042 . S
O321 C308 1.280 . S
O321 Mg311 1.984 . S
O322 C309 1.277 . S
O322 Mg313 2.041 . S
O323 C309 1.245 . S
O323 Mg311 1.988 . S
O324 Mg311 2.061 1_455 S
O324 C318 1.247 . S
O325 Mg314 2.106 . S
O325 Mg317 2.238 . S
O325 C318 1.289 . S
C326 O327 1.245 . S
C326 O328 1.274 . S
O327 Mg314 2.079 1_655 S
O327 C326 1.245 . S
O328 Mg313 2.038 . S
O328 C326 1.274 . S
O329 Mg317 2.042 . S
O329 C332 1.241 . S
O330 Mg316 1.984 . S
O330 C332 1.280 . S
O331 Mg317 2.041 . S
O331 C335 1.277 . S
C332 O329 1.241 . S
C332 O330 1.280 . S
O333 Mg316 1.988 . S
O333 C335 1.245 . S
O334 C310 1.247 . S
O334 Mg316 2.061 1_655 S
C335 O331 1.277 . S
C335 O333 1.245 . S
O336 C310 1.289 . S
O336 Mg313 2.238 . S
O336 Mg314 2.106 1_655 S
O337 Mg314 2.079 . S
O337 C319 1.245 . S
O338 Mg317 2.038 . S
O338 C319 1.274 . S
C339 O351 1.241 . S
C339 O352 1.280 . S
C340 O353 1.277 . S
C340 O354 1.245 . S
C341 O365 1.247 . S
C341 O367 1.289 . S
Mg342 O343 1.926 . S
Mg342 O352 1.984 . S
Mg342 O354 1.988 . S
Mg342 O355 2.061 . S
O343 Mg342 1.926 . S
O343 Mg344 1.986 . S
O343 Mg345 1.917 . S
Mg344 O343 1.986 . S
Mg344 O351 2.042 . S
Mg344 O353 2.041 . S
Mg344 O359 2.038 1_545 S
Mg344 O367 2.238 1_545 S
Mg345 O343 1.917 . S
Mg345 O346 1.917 1_545 S
Mg345 O356 2.106 . S
Mg345 O358 2.079 1_545 S
Mg345 O367 2.106 1_545 S
Mg345 O368 2.079 . S
O346 Mg345 1.917 1_565 S
O346 Mg347 1.926 . S
O346 Mg348 1.986 1_565 S
Mg347 O346 1.926 . S
Mg347 O361 1.984 . S
Mg347 O364 1.988 . S
Mg347 O365 2.061 . S
Mg348 O346 1.986 1_545 S
Mg348 O356 2.238 . S
Mg348 O360 2.042 1_545 S
Mg348 O362 2.041 1_545 S
Mg348 O369 2.038 . S
C349 O355 1.247 . S
C349 O356 1.289 . S
C350 O368 1.245 . S
C350 O369 1.274 . S
O351 C339 1.241 . S
O351 Mg344 2.042 . S
O352 C339 1.280 . S
O352 Mg342 1.984 . S
O353 C340 1.277 . S
O353 Mg344 2.041 . S
O354 C340 1.245 . S
O354 Mg342 1.988 . S
O355 Mg342 2.061 . S
O355 C349 1.247 . S
O356 Mg345 2.106 . S
O356 Mg348 2.238 . S
O356 C349 1.289 . S
C357 O358 1.245 . S
C357 O359 1.274 . S
O358 Mg345 2.079 1_565 S
O358 C357 1.245 . S
O359 Mg344 2.038 1_565 S
O359 C357 1.274 . S
O360 Mg348 2.042 1_565 S
O360 C363 1.241 . S
O361 Mg347 1.984 . S
O361 C363 1.280 . S
O362 Mg348 2.041 1_565 S
O362 C366 1.277 . S
C363 O360 1.241 . S
C363 O361 1.280 . S
O364 Mg347 1.988 . S
O364 C366 1.245 . S
O365 C341 1.247 . S
O365 Mg347 2.061 . S
C366 O362 1.277 . S
C366 O364 1.245 . S
O367 C341 1.289 . S
O367 Mg344 2.238 1_565 S
O367 Mg345 2.106 1_565 S
O368 Mg345 2.079 . S
O368 C350 1.245 . S
O369 Mg348 2.038 . S
O369 C350 1.274 . S
C370 C371 1.363 . S
C370 C376 1.379 . S
C370 N378 1.356 . S
C371 C370 1.363 . S
C371 C377 1.363 . S
C372 C373 1.363 . S
C372 C377 1.379 . S
C372 N379 1.356 . S
C373 C372 1.363 . S
C373 C376 1.363 . S
N374 C376 1.356 . S
N374 H386 0.984 . S
N374 H387 0.985 . S
N375 C377 1.356 . S
N375 H380 0.984 . S
N375 H381 0.985 . S
C376 C370 1.379 . S
C376 C373 1.363 . S
C376 N374 1.356 . S
C377 C371 1.363 . S
C377 C372 1.379 . S
C377 N375 1.356 . S
N378 C370 1.356 . S
N378 H384 0.984 . S
N378 H385 0.984 . S
N379 C372 1.356 . S
N379 H382 0.984 . S
N379 H383 0.985 . S
H380 N375 0.984 . S
H381 N375 0.985 . S
H382 N379 0.984 . S
H383 N379 0.985 . S
H384 N378 0.984 . S
H385 N378 0.984 . S
H386 N374 0.984 . S
H387 N374 0.985 . S
C388 C389 1.363 . S
C388 C394 1.379 . S
C388 N396 1.356 . S
C389 C388 1.363 . S
C389 C395 1.363 . S
C390 C391 1.363 . S
C390 C395 1.379 . S
C390 N397 1.356 . S
C391 C390 1.363 . S
C391 C394 1.363 . S
N392 C394 1.356 . S
N392 H404 0.984 . S
N392 H405 0.985 . S
N393 C395 1.356 . S
N393 H398 0.984 . S
N393 H399 0.985 . S
C394 C388 1.379 . S
C394 C391 1.363 . S
C394 N392 1.356 . S
C395 C389 1.363 . S
C395 C390 1.379 . S
C395 N393 1.356 . S
N396 C388 1.356 . S
N396 H402 0.984 . S
N396 H403 0.984 . S
N397 C390 1.356 . S
N397 H400 0.984 . S
N397 H401 0.985 . S
H398 N393 0.984 . S
H399 N393 0.985 . S
H400 N397 0.984 . S
H401 N397 0.985 . S
H402 N396 0.984 . S
H403 N396 0.984 . S
H404 N392 0.984 . S
H405 N392 0.985 . S
C406 C407 1.363 . S
C406 C412 1.379 . S
C406 N414 1.356 . S
C407 C406 1.363 . S
C407 C413 1.363 . S
C408 C409 1.363 . S
C408 C413 1.379 . S
C408 N415 1.356 . S
C409 C408 1.363 . S
C409 C412 1.363 . S
N410 C412 1.356 . S
N410 H422 0.984 1_655 S
N410 H423 0.985 . S
N411 C413 1.356 . S
N411 H416 0.984 . S
N411 H417 0.985 . S
C412 C406 1.379 . S
C412 C409 1.363 . S
C412 N410 1.356 . S
C413 C407 1.363 . S
C413 C408 1.379 . S
C413 N411 1.356 . S
N414 C406 1.356 . S
N414 H420 0.984 . S
N414 H421 0.984 . S
N415 C408 1.356 . S
N415 H418 0.984 . S
N415 H419 0.985 . S
H416 N411 0.984 . S
H417 N411 0.985 . S
H418 N415 0.984 . S
H419 N415 0.985 . S
H420 N414 0.984 . S
H421 N414 0.984 . S
H422 N410 0.984 1_455 S
H423 N410 0.985 . S
C424 C425 1.363 . S
C424 C430 1.379 . S
C424 N432 1.356 . S
C425 C424 1.363 . S
C425 C431 1.363 . S
C426 C427 1.363 . S
C426 C431 1.379 . S
C426 N433 1.356 . S
C427 C426 1.363 . S
C427 C430 1.363 . S
N428 C430 1.356 . S
N428 H440 0.984 . S
N428 H441 0.985 . S
N429 C431 1.356 . S
N429 H434 0.984 . S
N429 H435 0.985 . S
C430 C424 1.379 . S
C430 C427 1.363 . S
C430 N428 1.356 . S
C431 C425 1.363 . S
C431 C426 1.379 . S
C431 N429 1.356 . S
N432 C424 1.356 . S
N432 H438 0.984 . S
N432 H439 0.984 . S
N433 C426 1.356 . S
N433 H436 0.984 . S
N433 H437 0.985 . S
H434 N429 0.984 . S
H435 N429 0.985 . S
H436 N433 0.984 . S
H437 N433 0.985 . S
H438 N432 0.984 . S
H439 N432 0.984 . S
H440 N428 0.984 . S
H441 N428 0.985 . S
C442 C443 1.363 . S
C442 C448 1.379 . S
C442 N450 1.356 . S
C443 C442 1.363 . S
C443 C449 1.363 . S
C444 C445 1.363 . S
C444 C449 1.379 . S
C444 N451 1.356 . S
C445 C444 1.363 . S
C445 C448 1.363 . S
N446 C448 1.356 . S
N446 H458 0.984 . S
N446 H459 0.985 . S
N447 C449 1.356 . S
N447 H452 0.984 . S
N447 H453 0.985 . S
C448 C442 1.379 . S
C448 C445 1.363 . S
C448 N446 1.356 . S
C449 C443 1.363 . S
C449 C444 1.379 . S
C449 N447 1.356 . S
N450 C442 1.356 . S
N450 H456 0.984 . S
N450 H457 0.984 . S
N451 C444 1.356 . S
N451 H454 0.984 . S
N451 H455 0.985 . S
H452 N447 0.984 . S
H453 N447 0.985 . S
H454 N451 0.984 . S
H455 N451 0.985 . S
H456 N450 0.984 . S
H457 N450 0.984 . S
H458 N446 0.984 . S
H459 N446 0.985 . S
C460 C461 1.363 . S
C460 C466 1.379 . S
C460 N468 1.356 . S
C461 C460 1.363 . S
C461 C467 1.363 . S
C462 C463 1.363 . S
C462 C467 1.379 . S
C462 N469 1.356 . S
C463 C462 1.363 . S
C463 C466 1.363 . S
N464 C466 1.356 . S
N464 H476 0.984 . S
N464 H477 0.985 . S
N465 C467 1.356 . S
N465 H470 0.984 . S
N465 H471 0.985 . S
C466 C460 1.379 . S
C466 C463 1.363 . S
C466 N464 1.356 . S
C467 C461 1.363 . S
C467 C462 1.379 . S
C467 N465 1.356 . S
N468 C460 1.356 . S
N468 H474 0.984 . S
N468 H475 0.984 . S
N469 C462 1.356 . S
N469 H472 0.984 . S
N469 H473 0.985 . S
H470 N465 0.984 . S
H471 N465 0.985 . S
H472 N469 0.984 . S
H473 N469 0.985 . S
H474 N468 0.984 . S
H475 N468 0.984 . S
H476 N464 0.984 . S
H477 N464 0.985 . S
C478 C479 1.363 . S
C478 C484 1.379 . S
C478 N486 1.356 . S
C479 C478 1.363 . S
C479 C485 1.363 . S
C480 C481 1.363 . S
C480 C485 1.379 . S
C480 N487 1.356 . S
C481 C480 1.363 . S
C481 C484 1.363 . S
N482 C484 1.356 . S
N482 H494 0.984 . S
N482 H495 0.985 . S
N483 C485 1.356 . S
N483 H488 0.984 . S
N483 H489 0.985 . S
C484 C478 1.379 . S
C484 C481 1.363 . S
C484 N482 1.356 . S
C485 C479 1.363 . S
C485 C480 1.379 . S
C485 N483 1.356 . S
N486 C478 1.356 . S
N486 H492 0.984 . S
N486 H493 0.984 . S
N487 C480 1.356 . S
N487 H490 0.984 . S
N487 H491 0.985 . S
H488 N483 0.984 . S
H489 N483 0.985 . S
H490 N487 0.984 . S
H491 N487 0.985 . S
H492 N486 0.984 . S
H493 N486 0.984 . S
H494 N482 0.984 . S
H495 N482 0.985 . S
C496 C497 1.363 . S
C496 C502 1.379 . S
C496 N504 1.356 . S
C497 C496 1.363 . S
C497 C503 1.363 . S
C498 C499 1.363 . S
C498 C503 1.379 . S
C498 N505 1.356 1_565 S
C499 C498 1.363 . S
C499 C502 1.363 . S
N500 C502 1.356 . S
N500 H512 0.984 . S
N500 H513 0.985 . S
N501 C503 1.356 . S
N501 H506 0.984 . S
N501 H507 0.985 . S
C502 C496 1.379 . S
C502 C499 1.363 . S
C502 N500 1.356 . S
C503 C497 1.363 . S
C503 C498 1.379 . S
C503 N501 1.356 . S
N504 C496 1.356 . S
N504 H510 0.984 . S
N504 H511 0.984 . S
N505 C498 1.356 1_545 S
N505 H508 0.984 . S
N505 H509 0.985 . S
H506 N501 0.984 . S
H507 N501 0.985 . S
H508 N505 0.984 . S
H509 N505 0.985 . S
H510 N504 0.984 . S
H511 N504 0.984 . S
H512 N500 0.984 . S
H513 N500 0.985 . S
C514 C515 1.363 . S
C514 C520 1.379 . S
C514 N522 1.356 . S
C515 C514 1.363 . S
C515 C521 1.363 . S
C516 C517 1.363 . S
C516 C521 1.379 . S
C516 N523 1.356 . S
C517 C516 1.363 . S
C517 C520 1.363 . S
N518 C520 1.356 . S
N518 H530 0.984 . S
N518 H531 0.985 . S
N519 C521 1.356 . S
N519 H524 0.984 . S
N519 H525 0.985 . S
C520 C514 1.379 . S
C520 C517 1.363 . S
C520 N518 1.356 . S
C521 C515 1.363 . S
C521 C516 1.379 . S
C521 N519 1.356 . S
N522 C514 1.356 . S
N522 H528 0.984 . S
N522 H529 0.984 . S
N523 C516 1.356 . S
N523 H526 0.984 . S
N523 H527 0.985 . S
H524 N519 0.984 . S
H525 N519 0.985 . S
H526 N523 0.984 . S
H527 N523 0.985 . S
H528 N522 0.984 . S
H529 N522 0.984 . S
H530 N518 0.984 . S
H531 N518 0.985 . S
C532 C533 1.363 . S
C532 C538 1.379 . S
C532 N540 1.356 . S
C533 C532 1.363 . S
C533 C539 1.363 . S
C534 C535 1.363 . S
C534 C539 1.379 . S
C534 N541 1.356 . S
C535 C534 1.363 . S
C535 C538 1.363 . S
N536 C538 1.356 . S
N536 H548 0.984 . S
N536 H549 0.985 . S
N537 C539 1.356 . S
N537 H542 0.984 . S
N537 H543 0.985 . S
C538 C532 1.379 . S
C538 C535 1.363 . S
C538 N536 1.356 . S
C539 C533 1.363 . S
C539 C534 1.379 . S
C539 N537 1.356 . S
N540 C532 1.356 . S
N540 H546 0.984 . S
N540 H547 0.984 . S
N541 C534 1.356 . S
N541 H544 0.984 1_655 S
N541 H545 0.985 1_655 S
H542 N537 0.984 . S
H543 N537 0.985 . S
H544 N541 0.984 1_455 S
H545 N541 0.985 1_455 S
H546 N540 0.984 . S
H547 N540 0.984 . S
H548 N536 0.984 . S
H549 N536 0.985 . S
C550 C551 1.363 . S
C550 C556 1.379 . S
C550 N558 1.356 . S
C551 C550 1.363 . S
C551 C557 1.363 . S
C552 C553 1.363 . S
C552 C557 1.379 . S
C552 N559 1.356 . S
C553 C552 1.363 . S
C553 C556 1.363 . S
N554 C556 1.356 . S
N554 H566 0.984 . S
N554 H567 0.985 . S
N555 C557 1.356 . S
N555 H560 0.984 . S
N555 H561 0.985 . S
C556 C550 1.379 . S
C556 C553 1.363 . S
C556 N554 1.356 . S
C557 C551 1.363 . S
C557 C552 1.379 . S
C557 N555 1.356 . S
N558 C550 1.356 . S
N558 H564 0.984 . S
N558 H565 0.984 . S
N559 C552 1.356 . S
N559 H562 0.984 . S
N559 H563 0.985 . S
H560 N555 0.984 . S
H561 N555 0.985 . S
H562 N559 0.984 . S
H563 N559 0.985 . S
H564 N558 0.984 . S
H565 N558 0.984 . S
H566 N554 0.984 . S
H567 N554 0.985 . S
C568 C569 1.363 . S
C568 C574 1.379 . S
C568 N576 1.356 . S
C569 C568 1.363 . S
C569 C575 1.363 . S
C570 C571 1.363 . S
C570 C575 1.379 . S
C570 N577 1.356 . S
C571 C570 1.363 . S
C571 C574 1.363 . S
N572 C574 1.356 . S
N572 H584 0.984 . S
N572 H585 0.985 . S
N573 C575 1.356 . S
N573 H578 0.984 . S
N573 H579 0.985 . S
C574 C568 1.379 . S
C574 C571 1.363 . S
C574 N572 1.356 . S
C575 C569 1.363 . S
C575 C570 1.379 . S
C575 N573 1.356 . S
N576 C568 1.356 . S
N576 H582 0.984 . S
N576 H583 0.984 . S
N577 C570 1.356 . S
N577 H580 0.984 . S
N577 H581 0.985 . S
H578 N573 0.984 . S
H579 N573 0.985 . S
H580 N577 0.984 . S
H581 N577 0.985 . S
H582 N576 0.984 . S
H583 N576 0.984 . S
H584 N572 0.984 . S
H585 N572 0.985 . S
C586 C587 1.363 . S
C586 C592 1.379 . S
C586 N594 1.356 . S
C587 C586 1.363 . S
C587 C593 1.363 . S
C588 C589 1.363 . S
C588 C593 1.379 . S
C588 N595 1.356 . S
C589 C588 1.363 . S
C589 C592 1.363 . S
N590 C592 1.356 . S
N590 H602 0.984 . S
N590 H603 0.985 . S
N591 C593 1.356 . S
N591 H596 0.984 . S
N591 H597 0.985 . S
C592 C586 1.379 . S
C592 C589 1.363 . S
C592 N590 1.356 . S
C593 C587 1.363 . S
C593 C588 1.379 . S
C593 N591 1.356 . S
N594 C586 1.356 . S
N594 H600 0.984 . S
N594 H601 0.984 . S
N595 C588 1.356 . S
N595 H598 0.984 . S
N595 H599 0.985 1_556 S
H596 N591 0.984 . S
H597 N591 0.985 . S
H598 N595 0.984 . S
H599 N595 0.985 1_554 S
H600 N594 0.984 . S
H601 N594 0.984 . S
H602 N590 0.984 . S
H603 N590 0.985 . S
C604 C605 1.363 . S
C604 C610 1.379 . S
C604 N612 1.356 . S
C605 C604 1.363 . S
C605 C611 1.363 . S
C606 C607 1.363 . S
C606 C611 1.379 . S
C606 N613 1.356 . S
C607 C606 1.363 . S
C607 C610 1.363 . S
N608 C610 1.356 . S
N608 H620 0.984 . S
N608 H621 0.985 . S
N609 C611 1.356 . S
N609 H614 0.984 . S
N609 H615 0.985 . S
C610 C604 1.379 . S
C610 C607 1.363 . S
C610 N608 1.356 . S
C611 C605 1.363 . S
C611 C606 1.379 . S
C611 N609 1.356 . S
N612 C604 1.356 . S
N612 H618 0.984 . S
N612 H619 0.984 . S
N613 C606 1.356 . S
N613 H616 0.984 . S
N613 H617 0.985 . S
H614 N609 0.984 . S
H615 N609 0.985 . S
H616 N613 0.984 . S
H617 N613 0.985 . S
H618 N612 0.984 . S
H619 N612 0.984 . S
H620 N608 0.984 . S
H621 N608 0.985 . S
C622 C623 1.363 . S
C622 C628 1.379 . S
C622 N630 1.356 . S
C623 C622 1.363 . S
C623 C629 1.363 . S
C624 C625 1.363 . S
C624 C629 1.379 . S
C624 N631 1.356 . S
C625 C624 1.363 . S
C625 C628 1.363 . S
N626 C628 1.356 . S
N626 H638 0.984 . S
N626 H639 0.985 . S
N627 C629 1.356 . S
N627 H632 0.984 . S
N627 H633 0.985 . S
C628 C622 1.379 . S
C628 C625 1.363 . S
C628 N626 1.356 . S
C629 C623 1.363 . S
C629 C624 1.379 . S
C629 N627 1.356 . S
N630 C622 1.356 . S
N630 H636 0.984 . S
N630 H637 0.984 . S
N631 C624 1.356 . S
N631 H634 0.984 . S
N631 H635 0.985 . S
H632 N627 0.984 . S
H633 N627 0.985 . S
H634 N631 0.984 . S
H635 N631 0.985 . S
H636 N630 0.984 . S
H637 N630 0.984 . S
H638 N626 0.984 . S
H639 N626 0.985 . S
C640 C641 1.363 . S
C640 C646 1.379 . S
C640 N648 1.356 . S
C641 C640 1.363 . S
C641 C647 1.363 . S
C642 C643 1.363 . S
C642 C647 1.379 . S
C642 N649 1.356 . S
C643 C642 1.363 . S
C643 C646 1.363 . S
N644 C646 1.356 . S
N644 H656 0.984 1_655 S
N644 H657 0.985 . S
N645 C647 1.356 . S
N645 H650 0.984 . S
N645 H651 0.985 . S
C646 C640 1.379 . S
C646 C643 1.363 . S
C646 N644 1.356 . S
C647 C641 1.363 . S
C647 C642 1.379 . S
C647 N645 1.356 . S
N648 C640 1.356 . S
N648 H654 0.984 . S
N648 H655 0.984 . S
N649 C642 1.356 . S
N649 H652 0.984 . S
N649 H653 0.985 . S
H650 N645 0.984 . S
H651 N645 0.985 . S
H652 N649 0.984 . S
H653 N649 0.985 . S
H654 N648 0.984 . S
H655 N648 0.984 . S
H656 N644 0.984 1_455 S
H657 N644 0.985 . S
C658 C659 1.363 . S
C658 C664 1.379 . S
C658 N666 1.356 . S
C659 C658 1.363 . S
C659 C665 1.363 . S
C660 C661 1.363 . S
C660 C665 1.379 . S
C660 N667 1.356 . S
C661 C660 1.363 . S
C661 C664 1.363 . S
N662 C664 1.356 . S
N662 H674 0.984 . S
N662 H675 0.985 . S
N663 C665 1.356 . S
N663 H668 0.984 . S
N663 H669 0.985 . S
C664 C658 1.379 . S
C664 C661 1.363 . S
C664 N662 1.356 . S
C665 C659 1.363 . S
C665 C660 1.379 . S
C665 N663 1.356 . S
N666 C658 1.356 . S
N666 H672 0.984 . S
N666 H673 0.984 . S
N667 C660 1.356 . S
N667 H670 0.984 . S
N667 H671 0.985 . S
H668 N663 0.984 . S
H669 N663 0.985 . S
H670 N667 0.984 . S
H671 N667 0.985 . S
H672 N666 0.984 . S
H673 N666 0.984 . S
H674 N662 0.984 . S
H675 N662 0.985 . S
C676 C677 1.363 . S
C676 C682 1.379 . S
C676 N684 1.356 . S
C677 C676 1.363 . S
C677 C683 1.363 . S
C678 C679 1.363 . S
C678 C683 1.379 . S
C678 N685 1.356 . S
C679 C678 1.363 . S
C679 C682 1.363 . S
N680 C682 1.356 . S
N680 H692 0.984 . S
N680 H693 0.985 . S
N681 C683 1.356 . S
N681 H686 0.984 . S
N681 H687 0.985 . S
C682 C676 1.379 . S
C682 C679 1.363 . S
C682 N680 1.356 . S
C683 C677 1.363 . S
C683 C678 1.379 . S
C683 N681 1.356 . S
N684 C676 1.356 . S
N684 H690 0.984 . S
N684 H691 0.984 . S
N685 C678 1.356 . S
N685 H688 0.984 . S
N685 H689 0.985 1_556 S
H686 N681 0.984 . S
H687 N681 0.985 . S
H688 N685 0.984 . S
H689 N685 0.985 1_554 S
H690 N684 0.984 . S
H691 N684 0.984 . S
H692 N680 0.984 . S
H693 N680 0.985 . S
C694 C695 1.363 . S
C694 C700 1.379 . S
C694 N702 1.356 . S
C695 C694 1.363 . S
C695 C701 1.363 . S
C696 C697 1.363 . S
C696 C701 1.379 . S
C696 N703 1.356 . S
C697 C696 1.363 . S
C697 C700 1.363 . S
N698 C700 1.356 . S
N698 H710 0.984 . S
N698 H711 0.985 . S
N699 C701 1.356 . S
N699 H704 0.984 . S
N699 H705 0.985 . S
C700 C694 1.379 . S
C700 C697 1.363 . S
C700 N698 1.356 . S
C701 C695 1.363 . S
C701 C696 1.379 . S
C701 N699 1.356 . S
N702 C694 1.356 . S
N702 H708 0.984 . S
N702 H709 0.984 . S
N703 C696 1.356 . S
N703 H706 0.984 . S
N703 H707 0.985 . S
H704 N699 0.984 . S
H705 N699 0.985 . S
H706 N703 0.984 . S
H707 N703 0.985 . S
H708 N702 0.984 . S
H709 N702 0.984 . S
H710 N698 0.984 . S
H711 N698 0.985 . S
C712 C713 1.363 . S
C712 C718 1.379 . S
C712 N720 1.356 . S
C713 C712 1.363 . S
C713 C719 1.363 . S
C714 C715 1.363 . S
C714 C719 1.379 . S
C714 N721 1.356 . S
C715 C714 1.363 . S
C715 C718 1.363 . S
N716 C718 1.356 . S
N716 H728 0.984 . S
N716 H729 0.985 . S
N717 C719 1.356 . S
N717 H722 0.984 . S
N717 H723 0.985 . S
C718 C712 1.379 . S
C718 C715 1.363 . S
C718 N716 1.356 . S
C719 C713 1.363 . S
C719 C714 1.379 . S
C719 N717 1.356 . S
N720 C712 1.356 . S
N720 H726 0.984 . S
N720 H727 0.984 . S
N721 C714 1.356 . S
N721 H724 0.984 . S
N721 H725 0.985 . S
H722 N717 0.984 . S
H723 N717 0.985 . S
H724 N721 0.984 . S
H725 N721 0.985 . S
H726 N720 0.984 . S
H727 N720 0.984 . S
H728 N716 0.984 . S
H729 N716 0.985 . S
C730 C731 1.363 . S
C730 C736 1.379 . S
C730 N738 1.356 . S
C731 C730 1.363 . S
C731 C737 1.363 . S
C732 C733 1.363 . S
C732 C737 1.379 . S
C732 N739 1.356 . S
C733 C732 1.363 . S
C733 C736 1.363 . S
N734 C736 1.356 . S
N734 H746 0.984 . S
N734 H747 0.985 . S
N735 C737 1.356 . S
N735 H740 0.984 . S
N735 H741 0.985 . S
C736 C730 1.379 . S
C736 C733 1.363 . S
C736 N734 1.356 . S
C737 C731 1.363 . S
C737 C732 1.379 . S
C737 N735 1.356 . S
N738 C730 1.356 . S
N738 H744 0.984 . S
N738 H745 0.984 . S
N739 C732 1.356 . S
N739 H742 0.984 . S
N739 H743 0.985 . S
H740 N735 0.984 . S
H741 N735 0.985 . S
H742 N739 0.984 . S
H743 N739 0.985 . S
H744 N738 0.984 . S
H745 N738 0.984 . S
H746 N734 0.984 . S
H747 N734 0.985 . S
C748 C749 1.363 . S
C748 C754 1.379 . S
C748 N756 1.356 . S
C749 C748 1.363 . S
C749 C755 1.363 . S
C750 C751 1.363 . S
C750 C755 1.379 . S
C750 N757 1.356 . S
C751 C750 1.363 . S
C751 C754 1.363 . S
N752 C754 1.356 . S
N752 H764 0.984 . S
N752 H765 0.985 . S
N753 C755 1.356 . S
N753 H758 0.984 . S
N753 H759 0.985 . S
C754 C748 1.379 . S
C754 C751 1.363 . S
C754 N752 1.356 . S
C755 C749 1.363 . S
C755 C750 1.379 . S
C755 N753 1.356 . S
N756 C748 1.356 . S
N756 H762 0.984 . S
N756 H763 0.984 . S
N757 C750 1.356 . S
N757 H760 0.984 . S
N757 H761 0.985 . S
H758 N753 0.984 . S
H759 N753 0.985 . S
H760 N757 0.984 . S
H761 N757 0.985 . S
H762 N756 0.984 . S
H763 N756 0.984 . S
H764 N752 0.984 . S
H765 N752 0.985 . S
C766 C767 1.363 . S
C766 C772 1.379 . S
C766 N774 1.356 . S
C767 C766 1.363 . S
C767 C773 1.363 . S
C768 C769 1.363 . S
C768 C773 1.379 . S
C768 N775 1.356 . S
C769 C768 1.363 . S
C769 C772 1.363 . S
N770 C772 1.356 . S
N770 H782 0.984 . S
N770 H783 0.985 . S
N771 C773 1.356 . S
N771 H776 0.984 . S
N771 H777 0.985 . S
C772 C766 1.379 . S
C772 C769 1.363 . S
C772 N770 1.356 . S
C773 C767 1.363 . S
C773 C768 1.379 . S
C773 N771 1.356 . S
N774 C766 1.356 . S
N774 H780 0.984 . S
N774 H781 0.984 . S
N775 C768 1.356 . S
N775 H778 0.984 . S
N775 H779 0.985 1_565 S
H776 N771 0.984 . S
H777 N771 0.985 . S
H778 N775 0.984 . S
H779 N775 0.985 1_545 S
H780 N774 0.984 . S
H781 N774 0.984 . S
H782 N770 0.984 . S
H783 N770 0.985 . S
C784 C785 1.363 . S
C784 C790 1.379 . S
C784 N792 1.356 . S
C785 C784 1.363 . S
C785 C791 1.363 . S
C786 C787 1.363 . S
C786 C791 1.379 . S
C786 N793 1.356 . S
C787 C786 1.363 . S
C787 C790 1.363 . S
N788 C790 1.356 . S
N788 H800 0.984 . S
N788 H801 0.985 . S
N789 C791 1.356 . S
N789 H794 0.984 . S
N789 H795 0.985 . S
C790 C784 1.379 . S
C790 C787 1.363 . S
C790 N788 1.356 . S
C791 C785 1.363 . S
C791 C786 1.379 . S
C791 N789 1.356 . S
N792 C784 1.356 . S
N792 H798 0.984 . S
N792 H799 0.984 . S
N793 C786 1.356 . S
N793 H796 0.984 . S
N793 H797 0.985 . S
H794 N789 0.984 . S
H795 N789 0.985 . S
H796 N793 0.984 . S
H797 N793 0.985 . S
H798 N792 0.984 . S
H799 N792 0.984 . S
H800 N788 0.984 . S
H801 N788 0.985 . S
C802 C803 1.363 . S
C802 C808 1.379 . S
C802 N810 1.356 . S
C803 C802 1.363 . S
C803 C809 1.363 . S
C804 C805 1.363 . S
C804 C809 1.379 . S
C804 N811 1.356 . S
C805 C804 1.363 . S
C805 C808 1.363 . S
N806 C808 1.356 . S
N806 H818 0.984 . S
N806 H819 0.985 . S
N807 C809 1.356 . S
N807 H812 0.984 . S
N807 H813 0.985 . S
C808 C802 1.379 . S
C808 C805 1.363 . S
C808 N806 1.356 . S
C809 C803 1.363 . S
C809 C804 1.379 . S
C809 N807 1.356 . S
N810 C802 1.356 . S
N810 H816 0.984 . S
N810 H817 0.984 . S
N811 C804 1.356 . S
N811 H814 0.984 . S
N811 H815 0.985 . S
H812 N807 0.984 . S
H813 N807 0.985 . S
H814 N811 0.984 . S
H815 N811 0.985 . S
H816 N810 0.984 . S
H817 N810 0.984 . S
H818 N806 0.984 . S
H819 N806 0.985 . S
C820 C821 1.363 . S
C820 C826 1.379 . S
C820 N828 1.356 . S
C821 C820 1.363 . S
C821 C827 1.363 . S
C822 C823 1.363 . S
C822 C827 1.379 . S
C822 N829 1.356 . S
C823 C822 1.363 . S
C823 C826 1.363 . S
N824 C826 1.356 . S
N824 H836 0.984 . S
N824 H837 0.985 . S
N825 C827 1.356 . S
N825 H830 0.984 . S
N825 H831 0.985 . S
C826 C820 1.379 . S
C826 C823 1.363 . S
C826 N824 1.356 . S
C827 C821 1.363 . S
C827 C822 1.379 . S
C827 N825 1.356 . S
N828 C820 1.356 . S
N828 H834 0.984 . S
N828 H835 0.984 . S
N829 C822 1.356 . S
N829 H832 0.984 . S
N829 H833 0.985 . S
H830 N825 0.984 . S
H831 N825 0.985 . S
H832 N829 0.984 . S
H833 N829 0.985 . S
H834 N828 0.984 . S
H835 N828 0.984 . S
H836 N824 0.984 . S
H837 N824 0.985 . S
C838 C839 1.363 . S
C838 C844 1.379 . S
C838 N846 1.356 . S
C839 C838 1.363 . S
C839 C845 1.363 . S
C840 C841 1.363 . S
C840 C845 1.379 . S
C840 N847 1.356 . S
C841 C840 1.363 . S
C841 C844 1.363 . S
N842 C844 1.356 . S
N842 H854 0.984 . S
N842 H855 0.985 . S
N843 C845 1.356 . S
N843 H848 0.984 . S
N843 H849 0.985 . S
C844 C838 1.379 . S
C844 C841 1.363 . S
C844 N842 1.356 . S
C845 C839 1.363 . S
C845 C840 1.379 . S
C845 N843 1.356 . S
N846 C838 1.356 . S
N846 H852 0.984 . S
N846 H853 0.984 . S
N847 C840 1.356 . S
N847 H850 0.984 . S
N847 H851 0.985 . S
H848 N843 0.984 . S
H849 N843 0.985 . S
H850 N847 0.984 . S
H851 N847 0.985 . S
H852 N846 0.984 . S
H853 N846 0.984 . S
H854 N842 0.984 . S
H855 N842 0.985 . S
C856 C857 1.363 . S
C856 C862 1.379 . S
C856 N864 1.356 . S
C857 C856 1.363 . S
C857 C863 1.363 . S
C858 C859 1.363 . S
C858 C863 1.379 . S
C858 N865 1.356 . S
C859 C858 1.363 . S
C859 C862 1.363 . S
N860 C862 1.356 . S
N860 H872 0.984 . S
N860 H873 0.985 . S
N861 C863 1.356 . S
N861 H866 0.984 . S
N861 H867 0.985 . S
C862 C856 1.379 . S
C862 C859 1.363 . S
C862 N860 1.356 . S
C863 C857 1.363 . S
C863 C858 1.379 . S
C863 N861 1.356 . S
N864 C856 1.356 . S
N864 H870 0.984 . S
N864 H871 0.984 . S
N865 C858 1.356 . S
N865 H868 0.984 . S
N865 H869 0.985 . S
H866 N861 0.984 . S
H867 N861 0.985 . S
H868 N865 0.984 . S
H869 N865 0.985 . S
H870 N864 0.984 . S
H871 N864 0.984 . S
H872 N860 0.984 . S
H873 N860 0.985 . S
C874 C875 1.363 . S
C874 C880 1.379 . S
C874 N882 1.356 . S
C875 C874 1.363 . S
C875 C881 1.363 . S
C876 C877 1.363 . S
C876 C881 1.379 . S
C876 N883 1.356 . S
C877 C876 1.363 . S
C877 C880 1.363 . S
N878 C880 1.356 . S
N878 H890 0.984 . S
N878 H891 0.985 . S
N879 C881 1.356 . S
N879 H884 0.984 . S
N879 H885 0.985 . S
C880 C874 1.379 . S
C880 C877 1.363 . S
C880 N878 1.356 . S
C881 C875 1.363 . S
C881 C876 1.379 . S
C881 N879 1.356 . S
N882 C874 1.356 . S
N882 H888 0.984 . S
N882 H889 0.984 . S
N883 C876 1.356 . S
N883 H886 0.984 . S
N883 H887 0.985 . S
H884 N879 0.984 . S
H885 N879 0.985 . S
H886 N883 0.984 . S
H887 N883 0.985 . S
H888 N882 0.984 . S
H889 N882 0.984 . S
H890 N878 0.984 . S
H891 N878 0.985 . S
C892 C893 1.363 . S
C892 C898 1.379 . S
C892 N900 1.356 . S
C893 C892 1.363 . S
C893 C899 1.363 . S
C894 C895 1.363 . S
C894 C899 1.379 . S
C894 N901 1.356 . S
C895 C894 1.363 . S
C895 C898 1.363 . S
N896 C898 1.356 . S
N896 H908 0.984 . S
N896 H909 0.985 . S
N897 C899 1.356 . S
N897 H902 0.984 . S
N897 H903 0.985 . S
C898 C892 1.379 . S
C898 C895 1.363 . S
C898 N896 1.356 . S
C899 C893 1.363 . S
C899 C894 1.379 . S
C899 N897 1.356 . S
N900 C892 1.356 . S
N900 H906 0.984 . S
N900 H907 0.984 . S
N901 C894 1.356 . S
N901 H904 0.984 . S
N901 H905 0.985 . S
H902 N897 0.984 . S
H903 N897 0.985 . S
H904 N901 0.984 . S
H905 N901 0.985 . S
H906 N900 0.984 . S
H907 N900 0.984 . S
H908 N896 0.984 . S
H909 N896 0.985 . S
C910 C911 1.363 . S
C910 C916 1.379 . S
C910 N918 1.356 . S
C911 C910 1.363 . S
C911 C917 1.363 . S
C912 C913 1.363 . S
C912 C917 1.379 . S
C912 N919 1.356 . S
C913 C912 1.363 . S
C913 C916 1.363 . S
N914 C916 1.356 . S
N914 H926 0.984 . S
N914 H927 0.985 . S
N915 C917 1.356 . S
N915 H920 0.984 . S
N915 H921 0.985 . S
C916 C910 1.379 . S
C916 C913 1.363 . S
C916 N914 1.356 . S
C917 C911 1.363 . S
C917 C912 1.379 . S
C917 N915 1.356 . S
N918 C910 1.356 . S
N918 H924 0.984 . S
N918 H925 0.984 . S
N919 C912 1.356 . S
N919 H922 0.984 . S
N919 H923 0.985 . S
H920 N915 0.984 . S
H921 N915 0.985 . S
H922 N919 0.984 . S
H923 N919 0.985 . S
H924 N918 0.984 . S
H925 N918 0.984 . S
H926 N914 0.984 . S
H927 N914 0.985 . S
C928 C929 1.363 . S
C928 C934 1.379 . S
C928 N936 1.356 . S
C929 C928 1.363 . S
C929 C935 1.363 . S
C930 C931 1.363 . S
C930 C935 1.379 . S
C930 N937 1.356 . S
C931 C930 1.363 . S
C931 C934 1.363 . S
N932 C934 1.356 . S
N932 H944 0.984 . S
N932 H945 0.985 . S
N933 C935 1.356 . S
N933 H938 0.984 . S
N933 H939 0.985 . S
C934 C928 1.379 . S
C934 C931 1.363 . S
C934 N932 1.356 . S
C935 C929 1.363 . S
C935 C930 1.379 . S
C935 N933 1.356 . S
N936 C928 1.356 . S
N936 H942 0.984 . S
N936 H943 0.984 . S
N937 C930 1.356 . S
N937 H940 0.984 . S
N937 H941 0.985 . S
H938 N933 0.984 . S
H939 N933 0.985 . S
H940 N937 0.984 . S
H941 N937 0.985 . S
H942 N936 0.984 . S
H943 N936 0.984 . S
H944 N932 0.984 . S
H945 N932 0.985 . S
C946 C947 1.363 . S
C946 C952 1.379 . S
C946 N954 1.356 . S
C947 C946 1.363 . S
C947 C953 1.363 . S
C948 C949 1.363 . S
C948 C953 1.379 . S
C948 N955 1.356 . S
C949 C948 1.363 . S
C949 C952 1.363 . S
N950 C952 1.356 . S
N950 H962 0.984 . S
N950 H963 0.985 . S
N951 C953 1.356 . S
N951 H956 0.984 . S
N951 H957 0.985 . S
C952 C946 1.379 . S
C952 C949 1.363 . S
C952 N950 1.356 . S
C953 C947 1.363 . S
C953 C948 1.379 . S
C953 N951 1.356 . S
N954 C946 1.356 . S
N954 H960 0.984 . S
N954 H961 0.984 . S
N955 C948 1.356 . S
N955 H958 0.984 . S
N955 H959 0.985 . S
H956 N951 0.984 . S
H957 N951 0.985 . S
H958 N955 0.984 . S
H959 N955 0.985 . S
H960 N954 0.984 . S
H961 N954 0.984 . S
H962 N950 0.984 . S
H963 N950 0.985 . S
C964 C965 1.363 . S
C964 C970 1.379 . S
C964 N972 1.356 . S
C965 C964 1.363 . S
C965 C971 1.363 . S
C966 C967 1.363 . S
C966 C971 1.379 . S
C966 N973 1.356 . S
C967 C966 1.363 . S
C967 C970 1.363 . S
N968 C970 1.356 . S
N968 H980 0.984 . S
N968 H981 0.985 . S
N969 C971 1.356 . S
N969 H974 0.984 . S
N969 H975 0.985 . S
C970 C964 1.379 . S
C970 C967 1.363 . S
C970 N968 1.356 . S
C971 C965 1.363 . S
C971 C966 1.379 . S
C971 N969 1.356 . S
N972 C964 1.356 . S
N972 H978 0.984 . S
N972 H979 0.984 . S
N973 C966 1.356 . S
N973 H976 0.984 . S
N973 H977 0.985 . S
H974 N969 0.984 . S
H975 N969 0.985 . S
H976 N973 0.984 . S
H977 N973 0.985 . S
H978 N972 0.984 . S
H979 N972 0.984 . S
H980 N968 0.984 . S
H981 N968 0.985 . S
C982 C983 1.363 . S
C982 C988 1.379 . S
C982 N990 1.356 . S
C983 C982 1.363 . S
C983 C989 1.363 . S
C984 C985 1.363 . S
C984 C989 1.379 . S
C984 N991 1.356 . S
C985 C984 1.363 . S
C985 C988 1.363 . S
N986 C988 1.356 . S
N986 H998 0.984 . S
N986 H999 0.985 . S
N987 C989 1.356 . S
N987 H992 0.984 . S
N987 H993 0.985 . S
C988 C982 1.379 . S
C988 C985 1.363 . S
C988 N986 1.356 . S
C989 C983 1.363 . S
C989 C984 1.379 . S
C989 N987 1.356 . S
N990 C982 1.356 . S
N990 H996 0.984 . S
N990 H997 0.984 . S
N991 C984 1.356 . S
N991 H994 0.984 . S
N991 H995 0.985 . S
H992 N987 0.984 . S
H993 N987 0.985 . S
H994 N991 0.984 . S
H995 N991 0.985 . S
H996 N990 0.984 . S
H997 N990 0.984 . S
H998 N986 0.984 . S
H999 N986 0.985 . S
C1000 C1001 1.363 . S
C1000 C1006 1.379 . S
C1000 N1008 1.356 . S
C1001 C1000 1.363 . S
C1001 C1007 1.363 . S
C1002 C1003 1.363 . S
C1002 C1007 1.379 . S
C1002 N1009 1.356 . S
C1003 C1002 1.363 . S
C1003 C1006 1.363 . S
N1004 C1006 1.356 . S
N1004 H1016 0.984 . S
N1004 H1017 0.985 . S
N1005 C1007 1.356 . S
N1005 H1010 0.984 . S
N1005 H1011 0.985 . S
C1006 C1000 1.379 . S
C1006 C1003 1.363 . S
C1006 N1004 1.356 . S
C1007 C1001 1.363 . S
C1007 C1002 1.379 . S
C1007 N1005 1.356 . S
N1008 C1000 1.356 . S
N1008 H1014 0.984 . S
N1008 H1015 0.984 . S
N1009 C1002 1.356 . S
N1009 H1012 0.984 . S
N1009 H1013 0.985 . S
H1010 N1005 0.984 . S
H1011 N1005 0.985 . S
H1012 N1009 0.984 . S
H1013 N1009 0.985 . S
H1014 N1008 0.984 . S
H1015 N1008 0.984 . S
H1016 N1004 0.984 . S
H1017 N1004 0.985 . S
C1018 C1019 1.363 . S
C1018 C1024 1.379 . S
C1018 N1026 1.356 . S
C1019 C1018 1.363 . S
C1019 C1025 1.363 . S
C1020 C1021 1.363 . S
C1020 C1025 1.379 . S
C1020 N1027 1.356 . S
C1021 C1020 1.363 . S
C1021 C1024 1.363 . S
N1022 C1024 1.356 . S
N1022 H1034 0.984 . S
N1022 H1035 0.985 . S
N1023 C1025 1.356 . S
N1023 H1028 0.984 . S
N1023 H1029 0.985 . S
C1024 C1018 1.379 . S
C1024 C1021 1.363 . S
C1024 N1022 1.356 . S
C1025 C1019 1.363 . S
C1025 C1020 1.379 . S
C1025 N1023 1.356 . S
N1026 C1018 1.356 . S
N1026 H1032 0.984 . S
N1026 H1033 0.984 . S
N1027 C1020 1.356 . S
N1027 H1030 0.984 . S
N1027 H1031 0.985 . S
H1028 N1023 0.984 . S
H1029 N1023 0.985 . S
H1030 N1027 0.984 . S
H1031 N1027 0.985 . S
H1032 N1026 0.984 . S
H1033 N1026 0.984 . S
H1034 N1022 0.984 . S
H1035 N1022 0.985 . S
C1036 C1037 1.363 . S
C1036 C1042 1.379 . S
C1036 N1044 1.356 . S
C1037 C1036 1.363 . S
C1037 C1043 1.363 . S
C1038 C1039 1.363 . S
C1038 C1043 1.379 . S
C1038 N1045 1.356 . S
C1039 C1038 1.363 . S
C1039 C1042 1.363 . S
N1040 C1042 1.356 . S
N1040 H1052 0.984 . S
N1040 H1053 0.985 . S
N1041 C1043 1.356 . S
N1041 H1046 0.984 . S
N1041 H1047 0.985 . S
C1042 C1036 1.379 . S
C1042 C1039 1.363 . S
C1042 N1040 1.356 . S
C1043 C1037 1.363 . S
C1043 C1038 1.379 . S
C1043 N1041 1.356 . S
N1044 C1036 1.356 . S
N1044 H1050 0.984 . S
N1044 H1051 0.984 . S
N1045 C1038 1.356 . S
N1045 H1048 0.984 . S
N1045 H1049 0.985 . S
H1046 N1041 0.984 . S
H1047 N1041 0.985 . S
H1048 N1045 0.984 . S
H1049 N1045 0.985 . S
H1050 N1044 0.984 . S
H1051 N1044 0.984 . S
H1052 N1040 0.984 . S
H1053 N1040 0.985 . S
C1054 C1055 1.363 . S
C1054 C1060 1.379 . S
C1054 N1062 1.356 . S
C1055 C1054 1.363 . S
C1055 C1061 1.363 . S
C1056 C1057 1.363 . S
C1056 C1061 1.379 . S
C1056 N1063 1.356 . S
C1057 C1056 1.363 . S
C1057 C1060 1.363 . S
N1058 C1060 1.356 . S
N1058 H1070 0.984 . S
N1058 H1071 0.985 . S
N1059 C1061 1.356 . S
N1059 H1064 0.984 . S
N1059 H1065 0.985 . S
C1060 C1054 1.379 . S
C1060 C1057 1.363 . S
C1060 N1058 1.356 . S
C1061 C1055 1.363 . S
C1061 C1056 1.379 . S
C1061 N1059 1.356 . S
N1062 C1054 1.356 . S
N1062 H1068 0.984 . S
N1062 H1069 0.984 . S
N1063 C1056 1.356 . S
N1063 H1066 0.984 . S
N1063 H1067 0.985 . S
H1064 N1059 0.984 . S
H1065 N1059 0.985 . S
H1066 N1063 0.984 . S
H1067 N1063 0.985 . S
H1068 N1062 0.984 . S
H1069 N1062 0.984 . S
H1070 N1058 0.984 . S
H1071 N1058 0.985 . S
C1072 C1073 1.363 . S
C1072 C1078 1.379 . S
C1072 N1080 1.356 . S
C1073 C1072 1.363 . S
C1073 C1079 1.363 . S
C1074 C1075 1.363 . S
C1074 C1079 1.379 . S
C1074 N1081 1.356 . S
C1075 C1074 1.363 . S
C1075 C1078 1.363 . S
N1076 C1078 1.356 . S
N1076 H1088 0.984 . S
N1076 H1089 0.985 . S
N1077 C1079 1.356 . S
N1077 H1082 0.984 . S
N1077 H1083 0.985 . S
C1078 C1072 1.379 . S
C1078 C1075 1.363 . S
C1078 N1076 1.356 . S
C1079 C1073 1.363 . S
C1079 C1074 1.379 . S
C1079 N1077 1.356 . S
N1080 C1072 1.356 . S
N1080 H1086 0.984 . S
N1080 H1087 0.984 . S
N1081 C1074 1.356 . S
N1081 H1084 0.984 . S
N1081 H1085 0.985 . S
H1082 N1077 0.984 . S
H1083 N1077 0.985 . S
H1084 N1081 0.984 . S
H1085 N1081 0.985 . S
H1086 N1080 0.984 . S
H1087 N1080 0.984 . S
H1088 N1076 0.984 . S
H1089 N1076 0.985 . S
C1090 C1091 1.363 . S
C1090 C1096 1.379 . S
C1090 N1098 1.356 . S
C1091 C1090 1.363 . S
C1091 C1097 1.363 . S
C1092 C1093 1.363 . S
C1092 C1097 1.379 . S
C1092 N1099 1.356 . S
C1093 C1092 1.363 . S
C1093 C1096 1.363 . S
N1094 C1096 1.356 . S
N1094 H1106 0.984 . S
N1094 H1107 0.985 . S
N1095 C1097 1.356 . S
N1095 H1100 0.984 . S
N1095 H1101 0.985 . S
C1096 C1090 1.379 . S
C1096 C1093 1.363 . S
C1096 N1094 1.356 . S
C1097 C1091 1.363 . S
C1097 C1092 1.379 . S
C1097 N1095 1.356 . S
N1098 C1090 1.356 . S
N1098 H1104 0.984 . S
N1098 H1105 0.984 . S
N1099 C1092 1.356 . S
N1099 H1102 0.984 . S
N1099 H1103 0.985 . S
H1100 N1095 0.984 . S
H1101 N1095 0.985 . S
H1102 N1099 0.984 . S
H1103 N1099 0.985 . S
H1104 N1098 0.984 . S
H1105 N1098 0.984 . S
H1106 N1094 0.984 . S
H1107 N1094 0.985 . S
C1108 C1109 1.363 . S
C1108 C1114 1.379 . S
C1108 N1116 1.356 . S
C1109 C1108 1.363 . S
C1109 C1115 1.363 . S
C1110 C1111 1.363 . S
C1110 C1115 1.379 . S
C1110 N1117 1.356 . S
C1111 C1110 1.363 . S
C1111 C1114 1.363 . S
N1112 C1114 1.356 . S
N1112 H1124 0.984 . S
N1112 H1125 0.985 . S
N1113 C1115 1.356 . S
N1113 H1118 0.984 . S
N1113 H1119 0.985 . S
C1114 C1108 1.379 . S
C1114 C1111 1.363 . S
C1114 N1112 1.356 . S
C1115 C1109 1.363 . S
C1115 C1110 1.379 . S
C1115 N1113 1.356 . S
N1116 C1108 1.356 . S
N1116 H1122 0.984 . S
N1116 H1123 0.984 . S
N1117 C1110 1.356 . S
N1117 H1120 0.984 . S
N1117 H1121 0.985 . S
H1118 N1113 0.984 . S
H1119 N1113 0.985 . S
H1120 N1117 0.984 . S
H1121 N1117 0.985 . S
H1122 N1116 0.984 . S
H1123 N1116 0.984 . S
H1124 N1112 0.984 . S
H1125 N1112 0.985 . S
C1126 C1127 1.363 . S
C1126 C1132 1.379 . S
C1126 N1134 1.356 . S
C1127 C1126 1.363 . S
C1127 C1133 1.363 . S
C1128 C1129 1.363 . S
C1128 C1133 1.379 . S
C1128 N1135 1.356 . S
C1129 C1128 1.363 . S
C1129 C1132 1.363 . S
N1130 C1132 1.356 . S
N1130 H1142 0.984 . S
N1130 H1143 0.985 . S
N1131 C1133 1.356 . S
N1131 H1136 0.984 . S
N1131 H1137 0.985 . S
C1132 C1126 1.379 . S
C1132 C1129 1.363 . S
C1132 N1130 1.356 . S
C1133 C1127 1.363 . S
C1133 C1128 1.379 . S
C1133 N1131 1.356 . S
N1134 C1126 1.356 . S
N1134 H1140 0.984 . S
N1134 H1141 0.984 . S
N1135 C1128 1.356 . S
N1135 H1138 0.984 . S
N1135 H1139 0.985 . S
H1136 N1131 0.984 . S
H1137 N1131 0.985 . S
H1138 N1135 0.984 . S
H1139 N1135 0.985 . S
H1140 N1134 0.984 . S
H1141 N1134 0.984 . S
H1142 N1130 0.984 . S
H1143 N1130 0.985 . S
C1144 C1145 1.363 . S
C1144 C1150 1.379 . S
C1144 N1152 1.356 . S
C1145 C1144 1.363 . S
C1145 C1151 1.363 . S
C1146 C1147 1.363 . S
C1146 C1151 1.379 . S
C1146 N1153 1.356 . S
C1147 C1146 1.363 . S
C1147 C1150 1.363 . S
N1148 C1150 1.356 . S
N1148 H1160 0.984 . S
N1148 H1161 0.985 . S
N1149 C1151 1.356 . S
N1149 H1154 0.984 . S
N1149 H1155 0.985 . S
C1150 C1144 1.379 . S
C1150 C1147 1.363 . S
C1150 N1148 1.356 . S
C1151 C1145 1.363 . S
C1151 C1146 1.379 . S
C1151 N1149 1.356 . S
N1152 C1144 1.356 . S
N1152 H1158 0.984 . S
N1152 H1159 0.984 . S
N1153 C1146 1.356 . S
N1153 H1156 0.984 . S
N1153 H1157 0.985 . S
H1154 N1149 0.984 . S
H1155 N1149 0.985 . S
H1156 N1153 0.984 . S
H1157 N1153 0.985 . S
H1158 N1152 0.984 . S
H1159 N1152 0.984 . S
H1160 N1148 0.984 . S
H1161 N1148 0.985 . S
C1162 C1163 1.363 . S
C1162 C1168 1.379 . S
C1162 N1170 1.356 . S
C1163 C1162 1.363 . S
C1163 C1169 1.363 . S
C1164 C1165 1.363 . S
C1164 C1169 1.379 . S
C1164 N1171 1.356 . S
C1165 C1164 1.363 . S
C1165 C1168 1.363 . S
N1166 C1168 1.356 . S
N1166 H1178 0.984 . S
N1166 H1179 0.985 . S
N1167 C1169 1.356 . S
N1167 H1172 0.984 . S
N1167 H1173 0.985 . S
C1168 C1162 1.379 . S
C1168 C1165 1.363 . S
C1168 N1166 1.356 . S
C1169 C1163 1.363 . S
C1169 C1164 1.379 . S
C1169 N1167 1.356 . S
N1170 C1162 1.356 . S
N1170 H1176 0.984 . S
N1170 H1177 0.984 . S
N1171 C1164 1.356 . S
N1171 H1174 0.984 . S
N1171 H1175 0.985 . S
H1172 N1167 0.984 . S
H1173 N1167 0.985 . S
H1174 N1171 0.984 . S
H1175 N1171 0.985 . S
H1176 N1170 0.984 . S
H1177 N1170 0.984 . S
H1178 N1166 0.984 . S
H1179 N1166 0.985 . S
C1180 C1181 1.363 . S
C1180 C1186 1.379 . S
C1180 N1188 1.356 . S
C1181 C1180 1.363 . S
C1181 C1187 1.363 . S
C1182 C1183 1.363 . S
C1182 C1187 1.379 . S
C1182 N1189 1.356 . S
C1183 C1182 1.363 . S
C1183 C1186 1.363 . S
N1184 C1186 1.356 . S
N1184 H1196 0.984 . S
N1184 H1197 0.985 . S
N1185 C1187 1.356 . S
N1185 H1190 0.984 . S
N1185 H1191 0.985 . S
C1186 C1180 1.379 . S
C1186 C1183 1.363 . S
C1186 N1184 1.356 . S
C1187 C1181 1.363 . S
C1187 C1182 1.379 . S
C1187 N1185 1.356 . S
N1188 C1180 1.356 . S
N1188 H1194 0.984 . S
N1188 H1195 0.984 . S
N1189 C1182 1.356 . S
N1189 H1192 0.984 . S
N1189 H1193 0.985 . S
H1190 N1185 0.984 . S
H1191 N1185 0.985 . S
H1192 N1189 0.984 . S
H1193 N1189 0.985 . S
H1194 N1188 0.984 . S
H1195 N1188 0.984 . S
H1196 N1184 0.984 . S
H1197 N1184 0.985 . S
C1198 C1199 1.363 . S
C1198 C1204 1.379 . S
C1198 N1206 1.356 . S
C1199 C1198 1.363 . S
C1199 C1205 1.363 . S
C1200 C1201 1.363 . S
C1200 C1205 1.379 . S
C1200 N1207 1.356 . S
C1201 C1200 1.363 . S
C1201 C1204 1.363 . S
N1202 C1204 1.356 . S
N1202 H1214 0.984 . S
N1202 H1215 0.985 . S
N1203 C1205 1.356 . S
N1203 H1208 0.984 . S
N1203 H1209 0.985 . S
C1204 C1198 1.379 . S
C1204 C1201 1.363 . S
C1204 N1202 1.356 . S
C1205 C1199 1.363 . S
C1205 C1200 1.379 . S
C1205 N1203 1.356 . S
N1206 C1198 1.356 . S
N1206 H1212 0.984 . S
N1206 H1213 0.984 . S
N1207 C1200 1.356 . S
N1207 H1210 0.984 . S
N1207 H1211 0.985 . S
H1208 N1203 0.984 . S
H1209 N1203 0.985 . S
H1210 N1207 0.984 . S
H1211 N1207 0.985 . S
H1212 N1206 0.984 . S
H1213 N1206 0.984 . S
H1214 N1202 0.984 . S
H1215 N1202 0.985 . S
C1216 C1217 1.363 . S
C1216 C1222 1.379 . S
C1216 N1224 1.356 . S
C1217 C1216 1.363 . S
C1217 C1223 1.363 . S
C1218 C1219 1.363 . S
C1218 C1223 1.379 . S
C1218 N1225 1.356 . S
C1219 C1218 1.363 . S
C1219 C1222 1.363 . S
N1220 C1222 1.356 . S
N1220 H1232 0.984 . S
N1220 H1233 0.985 . S
N1221 C1223 1.356 . S
N1221 H1226 0.984 . S
N1221 H1227 0.985 . S
C1222 C1216 1.379 . S
C1222 C1219 1.363 . S
C1222 N1220 1.356 . S
C1223 C1217 1.363 . S
C1223 C1218 1.379 . S
C1223 N1221 1.356 . S
N1224 C1216 1.356 . S
N1224 H1230 0.984 . S
N1224 H1231 0.984 . S
N1225 C1218 1.356 . S
N1225 H1228 0.984 . S
N1225 H1229 0.985 . S
H1226 N1221 0.984 . S
H1227 N1221 0.985 . S
H1228 N1225 0.984 . S
H1229 N1225 0.985 . S
H1230 N1224 0.984 . S
H1231 N1224 0.984 . S
H1232 N1220 0.984 . S
H1233 N1220 0.985 . S
C373 C195 1.404 . S
C371 C17 1.407 . S
C391 C185 1.800 . S
C389 C44 1.578 . S
C409 C186 1.182 . S
C407 C63 1.168 . S
C425 C87 1.439 . S
C427 C208 1.423 . S
C443 C110 1.448 . S
C445 C211 1.431 . S
C463 C194 1.207 . S
C461 C131 1.188 . S
C479 C159 1.513 . S
C481 C184 1.723 . S
C497 C177 1.423 . S
C499 C202 1.422 . S
C517 C215 1.541 . S
C515 C20 1.391 . S
C533 C42 1.447 . S
C535 C264 1.448 . S
C553 C242 1.729 . S
C551 C66 1.543 . S
C571 C256 1.044 . S
C569 C86 1.095 . S
C587 C109 1.085 . S
C589 C217 1.077 . S
C607 C270 1.633 . S
C605 C136 1.522 . S
C623 C157 1.451 . S
C625 C226 1.426 . S
C641 C182 1.484 . S
C643 C247 1.583 . S
C659 C18 1.487 . S
C661 C273 1.430 . S
C677 C112 1.385 . S
C679 C257 1.457 . S
C697 C216 1.430 . S
C695 C134 1.453 . S
C715 C248 1.138 . S
C713 C154 1.210 . S
C731 C180 1.370 . S
C733 C239 1.353 . S
C749 C64 1.442 . S
C751 C246 1.363 . S
C769 C233 1.431 . S
C767 C89 1.405 . S
C785 C39 1.215 . S
C787 C225 1.199 . S
C803 C178 1.407 . S
C805 C288 1.404 . S
C821 C113 1.578 . S
C823 C278 1.800 . S
C841 C279 1.182 . S
C839 C132 1.168 . S
C859 C301 1.423 . S
C857 C156 1.439 . S
C875 C41 1.448 . S
C877 C304 1.431 . S
C895 C287 1.208 . S
C893 C62 1.188 . S
C911 C90 1.513 . S
C913 C277 1.723 . S
C929 C16 1.423 . S
C931 C295 1.422 . S
C947 C181 1.391 . S
C949 C308 1.541 . S
C967 C357 1.448 . S
C965 C111 1.447 . S
C983 C135 1.543 . S
C985 C335 1.729 . S
C1001 C155 1.095 . S
C1003 C349 1.044 . S
C1021 C310 1.077 . S
C1019 C40 1.085 . S
C1037 C67 1.522 . S
C1039 C363 1.633 . S
C1057 C319 1.426 . S
C1055 C88 1.451 . S
C1075 C340 1.583 . S
C1073 C21 1.484 . S
C1093 C366 1.430 . S
C1091 C179 1.487 . S
C1109 C43 1.385 . S
C1111 C350 1.457 . S
C1127 C65 1.453 . S
C1129 C309 1.430 . S
C1147 C341 1.138 . S
C1145 C85 1.210 . S
C1163 C19 1.370 . S
C1165 C332 1.352 . S
C1181 C133 1.442 . S
C1183 C339 1.363 . S
C1201 C326 1.431 . S
C1199 C158 1.405 . S
C1219 C318 1.199 . S
C1217 C108 1.215 . S
