# Generated by pormake.
# Topology ocu, (6,8)-cn, num edge types: 1
# Building blocks:
#     Node 0, Type 0, BuildingBlock: CUWYAW_clean_sbu_0, # of connection points: 6
#     Node 1, Type 0, BuildingBlock: CUWYAW_clean_sbu_0, # of connection points: 6
#     Node 2, Type 0, BuildingBlock: CUWYAW_clean_sbu_0, # of connection points: 6
#     Node 3, Type 0, BuildingBlock: CUWYAW_clean_sbu_0, # of connection points: 6
#     Node 4, Type 0, BuildingBlock: CUWYAW_clean_sbu_0, # of connection points: 6
#     Node 5, Type 0, BuildingBlock: CUWYAW_clean_sbu_0, # of connection points: 6
#     Node 6, Type 0, BuildingBlock: CUWYAW_clean_sbu_0, # of connection points: 6
#     Node 7, Type 0, BuildingBlock: CUWYAW_clean_sbu_0, # of connection points: 6
#     Node 8, Type 1, BuildingBlock: AJUNOK_clean_sbu_0, # of connection points: 8
#     Node 9, Type 1, BuildingBlock: AJUNOK_clean_sbu_0, # of connection points: 8
#     Node 10, Type 1, BuildingBlock: AJUNOK_clean_sbu_0, # of connection points: 8
#     Node 11, Type 1, BuildingBlock: AJUNOK_clean_sbu_0, # of connection points: 8
#     Node 12, Type 1, BuildingBlock: AJUNOK_clean_sbu_0, # of connection points: 8
#     Node 13, Type 1, BuildingBlock: AJUNOK_clean_sbu_0, # of connection points: 8
#     Edge 14, Type (0, 1), BuildingBlock: EZIPEK_clean_linker_0, # of connection points: 2
#     Edge 15, Type (0, 1), BuildingBlock: EZIPEK_clean_linker_0, # of connection points: 2
#     Edge 16, Type (0, 1), BuildingBlock: EZIPEK_clean_linker_0, # of connection points: 2
#     Edge 17, Type (0, 1), BuildingBlock: EZIPEK_clean_linker_0, # of connection points: 2
#     Edge 18, Type (0, 1), BuildingBlock: EZIPEK_clean_linker_0, # of connection points: 2
#     Edge 19, Type (0, 1), BuildingBlock: EZIPEK_clean_linker_0, # of connection points: 2
#     Edge 20, Type (0, 1), BuildingBlock: EZIPEK_clean_linker_0, # of connection points: 2
#     Edge 21, Type (0, 1), BuildingBlock: EZIPEK_clean_linker_0, # of connection points: 2
#     Edge 22, Type (0, 1), BuildingBlock: EZIPEK_clean_linker_0, # of connection points: 2
#     Edge 23, Type (0, 1), BuildingBlock: EZIPEK_clean_linker_0, # of connection points: 2
#     Edge 24, Type (0, 1), BuildingBlock: EZIPEK_clean_linker_0, # of connection points: 2
#     Edge 25, Type (0, 1), BuildingBlock: EZIPEK_clean_linker_0, # of connection points: 2
#     Edge 26, Type (0, 1), BuildingBlock: EZIPEK_clean_linker_0, # of connection points: 2
#     Edge 27, Type (0, 1), BuildingBlock: EZIPEK_clean_linker_0, # of connection points: 2
#     Edge 28, Type (0, 1), BuildingBlock: EZIPEK_clean_linker_0, # of connection points: 2
#     Edge 29, Type (0, 1), BuildingBlock: EZIPEK_clean_linker_0, # of connection points: 2
#     Edge 30, Type (0, 1), BuildingBlock: EZIPEK_clean_linker_0, # of connection points: 2
#     Edge 31, Type (0, 1), BuildingBlock: EZIPEK_clean_linker_0, # of connection points: 2
#     Edge 32, Type (0, 1), BuildingBlock: EZIPEK_clean_linker_0, # of connection points: 2
#     Edge 33, Type (0, 1), BuildingBlock: EZIPEK_clean_linker_0, # of connection points: 2
#     Edge 34, Type (0, 1), BuildingBlock: EZIPEK_clean_linker_0, # of connection points: 2
#     Edge 35, Type (0, 1), BuildingBlock: EZIPEK_clean_linker_0, # of connection points: 2
#     Edge 36, Type (0, 1), BuildingBlock: EZIPEK_clean_linker_0, # of connection points: 2
#     Edge 37, Type (0, 1), BuildingBlock: EZIPEK_clean_linker_0, # of connection points: 2
#     Edge 38, Type (0, 1), BuildingBlock: EZIPEK_clean_linker_0, # of connection points: 2
#     Edge 39, Type (0, 1), BuildingBlock: EZIPEK_clean_linker_0, # of connection points: 2
#     Edge 40, Type (0, 1), BuildingBlock: EZIPEK_clean_linker_0, # of connection points: 2
#     Edge 41, Type (0, 1), BuildingBlock: EZIPEK_clean_linker_0, # of connection points: 2
#     Edge 42, Type (0, 1), BuildingBlock: EZIPEK_clean_linker_0, # of connection points: 2
#     Edge 43, Type (0, 1), BuildingBlock: EZIPEK_clean_linker_0, # of connection points: 2
#     Edge 44, Type (0, 1), BuildingBlock: EZIPEK_clean_linker_0, # of connection points: 2
#     Edge 45, Type (0, 1), BuildingBlock: EZIPEK_clean_linker_0, # of connection points: 2
#     Edge 46, Type (0, 1), BuildingBlock: EZIPEK_clean_linker_0, # of connection points: 2
#     Edge 47, Type (0, 1), BuildingBlock: EZIPEK_clean_linker_0, # of connection points: 2
#     Edge 48, Type (0, 1), BuildingBlock: EZIPEK_clean_linker_0, # of connection points: 2
#     Edge 49, Type (0, 1), BuildingBlock: EZIPEK_clean_linker_0, # of connection points: 2
#     Edge 50, Type (0, 1), BuildingBlock: EZIPEK_clean_linker_0, # of connection points: 2
#     Edge 51, Type (0, 1), BuildingBlock: EZIPEK_clean_linker_0, # of connection points: 2
#     Edge 52, Type (0, 1), BuildingBlock: EZIPEK_clean_linker_0, # of connection points: 2
#     Edge 53, Type (0, 1), BuildingBlock: EZIPEK_clean_linker_0, # of connection points: 2
#     Edge 54, Type (0, 1), BuildingBlock: EZIPEK_clean_linker_0, # of connection points: 2
#     Edge 55, Type (0, 1), BuildingBlock: EZIPEK_clean_linker_0, # of connection points: 2
#     Edge 56, Type (0, 1), BuildingBlock: EZIPEK_clean_linker_0, # of connection points: 2
#     Edge 57, Type (0, 1), BuildingBlock: EZIPEK_clean_linker_0, # of connection points: 2
#     Edge 58, Type (0, 1), BuildingBlock: EZIPEK_clean_linker_0, # of connection points: 2
#     Edge 59, Type (0, 1), BuildingBlock: EZIPEK_clean_linker_0, # of connection points: 2
#     Edge 60, Type (0, 1), BuildingBlock: EZIPEK_clean_linker_0, # of connection points: 2
#     Edge 61, Type (0, 1), BuildingBlock: EZIPEK_clean_linker_0, # of connection points: 2
# Relax obj value: 0.236
# Max RMSD: 0.233
# Mean RMSD: 0.166
data_MOF--net-ocu--node1-CUWYAW_clean_sbu_0--node2-AJUNOK_clean_sbu_0--edge1-EZIPEK_clean_linker_0
_symmetry_space_group_name_H-M    P1
_symmetry_Int_Tables_number       1
_symmetry_cell_setting            triclinic
loop_
_symmetry_equiv_pos_as_xyz
'x, y, z'
_cell_length_a     35.912052
_cell_length_b     35.812197
_cell_length_c     28.965681
_cell_angle_alpha  92.157095
_cell_angle_beta   111.51623
_cell_angle_gamma 111.96373
loop_
_atom_site_label
_atom_site_type_symbol
_atom_site_fract_x
_atom_site_fract_y
_atom_site_fract_z
_atom_type_partial_charge
C0 C 0.36174 0.36142 0.41491 0.0
Eu1 Eu 0.31601 0.30751 0.33022 0.0
C2 C 0.34715 0.38352 0.44322 0.0
C3 C 0.33216 0.41294 0.42311 0.0
C4 C 0.30885 0.42658 0.44333 0.0
C5 C 0.30058 0.41115 0.48386 0.0
C6 C 0.31781 0.38401 0.50628 0.0
C7 C 0.34124 0.37035 0.48614 0.0
C8 C 0.34681 0.32077 0.25473 0.0
C9 C 0.23119 0.33255 0.2659 0.0
C10 C 0.21059 0.20081 0.16726 0.0
Eu11 Eu 0.25547 0.25585 0.25087 0.0
C12 C 0.22894 0.1826 0.14079 0.0
C13 C 0.20451 0.14285 0.11095 0.0
C14 C 0.22518 0.12406 0.09206 0.0
C15 C 0.27043 0.14471 0.10463 0.0
C16 C 0.29458 0.18443 0.13426 0.0
C17 C 0.27384 0.20344 0.15173 0.0
C18 C 0.22645 0.24125 0.32771 0.0
C19 C 0.33954 0.23037 0.3149 0.0
O20 O 0.34641 0.32187 0.41265 0.0
O21 O 0.3597 0.37053 0.37116 0.0
O22 O 0.36857 0.31746 0.29992 0.0
O23 O 0.30815 0.31469 0.24998 0.0
O24 O 0.2641 0.33805 0.31069 0.0
O25 O 0.22234 0.30161 0.23128 0.0
O26 O 0.22142 0.23998 0.16849 0.0
O27 O 0.21631 0.19188 0.21169 0.0
O28 O 0.20429 0.24604 0.28354 0.0
O29 O 0.26465 0.24758 0.33079 0.0
O30 O 0.30787 0.22629 0.26984 0.0
O31 O 0.34735 0.26044 0.34999 0.0
H32 H 0.33621 0.42374 0.39009 0.0
H33 H 0.29568 0.44781 0.42611 0.0
H34 H 0.31144 0.37214 0.53777 0.0
H35 H 0.35236 0.34761 0.50214 0.0
H36 H 0.17005 0.12621 0.10331 0.0
H37 H 0.20647 0.0933 0.06899 0.0
H38 H 0.32957 0.20059 0.14407 0.0
H39 H 0.29321 0.23404 0.17516 0.0
C40 C 0.83404 0.29253 0.16524 0.0
Eu41 Eu 0.80493 0.27773 0.23564 0.0
C42 C 0.82734 0.32198 0.13262 0.0
C43 C 0.86486 0.35234 0.13105 0.0
C44 C 0.87162 0.39336 0.14021 0.0
C45 C 0.84185 0.40326 0.15325 0.0
C46 C 0.79925 0.37284 0.13928 0.0
C47 C 0.79161 0.33172 0.12706 0.0
C48 C 0.72527 0.21602 0.21435 0.0
C49 C 0.74049 0.31916 0.24098 0.0
C50 C 0.75864 0.25421 0.39535 0.0
Eu51 Eu 0.78082 0.26878 0.32093 0.0
C52 C 0.77639 0.23251 0.43345 0.0
C53 C 0.78142 0.24067 0.48373 0.0
C54 C 0.78373 0.21005 0.51244 0.0
C55 C 0.77259 0.17083 0.48589 0.0
C56 C 0.79211 0.17332 0.45148 0.0
C57 C 0.78627 0.20044 0.41927 0.0
C58 C 0.86169 0.3282 0.34603 0.0
C59 C 0.84393 0.22714 0.31477 0.0
O60 O 0.85846 0.30969 0.21312 0.0
O61 O 0.79882 0.26013 0.15914 0.0
O62 O 0.73394 0.24101 0.18504 0.0
O63 O 0.75961 0.22331 0.25338 0.0
O64 O 0.76959 0.32003 0.22306 0.0
O65 O 0.73555 0.29775 0.2762 0.0
O66 O 0.73362 0.23191 0.34939 0.0
O67 O 0.7872 0.29008 0.39614 0.0
O68 O 0.8514 0.30071 0.37186 0.0
O69 O 0.8284 0.32329 0.30604 0.0
O70 O 0.81224 0.22401 0.32874 0.0
O71 O 0.85082 0.24968 0.28139 0.0
H72 H 0.8923 0.34551 0.13303 0.0
H73 H 0.90379 0.41667 0.1474 0.0
H74 H 0.77494 0.37986 0.14682 0.0
H75 H 0.76115 0.30804 0.12444 0.0
H76 H 0.77894 0.26749 0.49841 0.0
H77 H 0.78284 0.21353 0.54924 0.0
H78 H 0.79556 0.14693 0.43727 0.0
H79 H 0.78342 0.19246 0.3818 0.0
C80 C 0.7893 0.73861 0.41049 0.0
Eu81 Eu 0.78024 0.76296 0.3261 0.0
C82 C 0.82078 0.72168 0.43691 0.0
C83 C 0.8095 0.67944 0.42391 0.0
C84 C 0.84214 0.66496 0.43819 0.0
C85 C 0.88597 0.69258 0.46601 0.0
C86 C 0.89727 0.73415 0.48133 0.0
C87 C 0.86481 0.74868 0.46715 0.0
C88 C 0.71587 0.71791 0.23785 0.0
C89 C 0.83232 0.7377 0.26416 0.0
C90 C 0.78485 0.83753 0.17121 0.0
Eu91 Eu 0.78472 0.80527 0.24983 0.0
C92 C 0.75789 0.85867 0.1469 0.0
C93 C 0.77211 0.89006 0.12172 0.0
C94 C 0.74605 0.91104 0.10104 0.0
C95 C 0.70648 0.90071 0.10656 0.0
C96 C 0.69306 0.87017 0.13289 0.0
C97 C 0.71847 0.8491 0.15269 0.0
C98 C 0.84923 0.84652 0.34051 0.0
C99 C 0.73129 0.82943 0.31024 0.0
O100 O 0.8069 0.77734 0.40816 0.0
O101 O 0.75803 0.71591 0.36709 0.0
O102 O 0.74013 0.70417 0.27095 0.0
O103 O 0.72595 0.7556 0.25168 0.0
O104 O 0.82686 0.73788 0.30758 0.0
O105 O 0.81534 0.75986 0.2336 0.0
O106 O 0.76263 0.79862 0.16816 0.0
O107 O 0.81393 0.85619 0.21703 0.0
O108 O 0.82542 0.86225 0.3105 0.0
O109 O 0.83802 0.80976 0.32231 0.0
O110 O 0.73957 0.83197 0.26874 0.0
O111 O 0.74525 0.80496 0.33918 0.0
H112 H 0.7759 0.65799 0.40045 0.0
H113 H 0.83351 0.63262 0.42674 0.0
H114 H 0.93133 0.75542 0.50314 0.0
H115 H 0.87464 0.78139 0.47752 0.0
H116 H 0.80301 0.89817 0.11812 0.0
H117 H 0.75635 0.93485 0.08068 0.0
H118 H 0.66245 0.86219 0.1373 0.0
H119 H 0.70712 0.82513 0.17235 0.0
C120 C 0.26256 0.86039 0.32587 0.0
Eu121 Eu 0.27674 0.80106 0.29469 0.0
C122 C 0.23653 0.86218 0.35405 0.0
C123 C 0.19565 0.86369 0.32877 0.0
C124 C 0.17404 0.87166 0.35645 0.0
C125 C 0.19335 0.87822 0.40939 0.0
C126 C 0.23098 0.87148 0.43415 0.0
C127 C 0.25298 0.86406 0.40669 0.0
C128 C 0.2164 0.73525 0.21952 0.0
C129 C 0.25455 0.72177 0.34558 0.0
C130 C 0.33101 0.68624 0.23921 0.0
Eu131 Eu 0.31111 0.74075 0.2722 0.0
C132 C 0.36469 0.6906 0.22069 0.0
C133 C 0.38898 0.6672 0.23522 0.0
C134 C 0.41288 0.66332 0.20843 0.0
C135 C 0.41188 0.68252 0.16688 0.0
C136 C 0.39313 0.71072 0.15718 0.0
C137 C 0.36925 0.7146 0.18394 0.0
C138 C 0.37244 0.80805 0.34337 0.0
C139 C 0.33164 0.82359 0.22406 0.0
O140 O 0.29787 0.85453 0.35088 0.0
O141 O 0.24041 0.83923 0.27922 0.0
O142 O 0.20723 0.75321 0.25079 0.0
O143 O 0.25591 0.75455 0.22631 0.0
O144 O 0.25749 0.75976 0.34736 0.0
O145 O 0.27117 0.70743 0.31846 0.0
O146 O 0.30008 0.69623 0.21028 0.0
O147 O 0.34467 0.69996 0.28763 0.0
O148 O 0.38081 0.78816 0.31334 0.0
O149 O 0.33323 0.78833 0.33768 0.0
O150 O 0.32523 0.78439 0.21827 0.0
O151 O 0.31972 0.83809 0.25631 0.0
H152 H 0.1819 0.86148 0.28813 0.0
H153 H 0.14488 0.877 0.33712 0.0
H154 H 0.24578 0.87669 0.47502 0.0
H155 H 0.2842 0.86259 0.42711 0.0
H156 H 0.38643 0.64926 0.26412 0.0
H157 H 0.42777 0.64165 0.21624 0.0
H158 H 0.39219 0.72548 0.12505 0.0
H159 H 0.35104 0.73329 0.17242 0.0
C160 C 0.36957 0.81588 0.70119 0.0
Eu161 Eu 0.32983 0.7905 0.76067 0.0
C162 C 0.36335 0.84165 0.66444 0.0
C163 C 0.3386 0.81659 0.5901 0.0
C164 C 0.31142 0.84348 0.53642 0.0
C165 C 0.31841 0.9017 0.56177 0.0
C166 C 0.33467 0.92376 0.63696 0.0
C167 C 0.36171 0.89452 0.68695 0.0
C168 C 0.26755 0.71336 0.73918 0.0
C169 C 0.25148 0.82393 0.74299 0.0
C170 C 0.2414 0.74321 0.87952 0.0
Eu171 Eu 0.2826 0.7748 0.82499 0.0
C172 C 0.24895 0.7169 0.91572 0.0
C173 C 0.26668 0.73258 0.96765 0.0
C174 C 0.26579 0.70571 0.001 0.0
C175 C 0.24388 0.66269 0.98186 0.0
C176 C 0.23891 0.64937 0.93255 0.0
C177 C 0.23863 0.67576 0.89895 0.0
C178 C 0.34852 0.84938 0.85567 0.0
C179 C 0.36524 0.74861 0.85278 0.0
O180 O 0.3847 0.83421 0.7481 0.0
O181 O 0.33606 0.78047 0.68961 0.0
O182 O 0.30595 0.7219 0.73961 0.0
O183 O 0.26275 0.74558 0.74747 0.0
O184 O 0.28837 0.8292 0.73761 0.0
O185 O 0.23818 0.79827 0.77063 0.0
O186 O 0.22767 0.7268 0.83189 0.0
O187 O 0.27157 0.78088 0.89305 0.0
O188 O 0.30973 0.84126 0.85355 0.0
O189 O 0.35162 0.81775 0.84062 0.0
O190 O 0.32835 0.74338 0.85688 0.0
O191 O 0.37576 0.76961 0.81943 0.0
H192 H 0.33638 0.78635 0.5793 0.0
H193 H 0.29614 0.82928 0.49673 0.0
H194 H 0.33267 0.95171 0.64877 0.0
H195 H 0.37218 0.90551 0.72686 0.0
H196 H 0.2782 0.76505 0.98209 0.0
H197 H 0.27637 0.71918 0.03998 0.0
H198 H 0.22835 0.61778 0.91624 0.0
H199 H 0.22748 0.66312 0.85941 0.0
C200 C 0.32062 0.25007 0.68502 0.0
Eu201 Eu 0.29937 0.27444 0.7541 0.0
C202 C 0.34518 0.22772 0.67465 0.0
C203 C 0.38836 0.25018 0.6789 0.0
C204 C 0.41134 0.23038 0.66641 0.0
C205 C 0.39168 0.1877 0.64923 0.0
C206 C 0.34853 0.16499 0.64446 0.0
C207 C 0.32533 0.18486 0.65682 0.0
C208 C 0.34592 0.34717 0.81979 0.0
C209 C 0.33378 0.2393 0.8573 0.0
C210 C 0.26568 0.31763 0.92321 0.0
Eu211 Eu 0.27121 0.28681 0.84424 0.0
C212 C 0.23934 0.33807 0.93282 0.0
C213 C 0.19614 0.32901 0.89804 0.0
C214 C 0.17253 0.34985 0.90735 0.0
C215 C 0.19156 0.37993 0.95178 0.0
C216 C 0.23475 0.38887 0.98642 0.0
C217 C 0.25846 0.3684 0.97683 0.0
C218 C 0.21192 0.22381 0.76513 0.0
C219 C 0.23614 0.31935 0.74212 0.0
O220 O 0.28303 0.2294 0.68816 0.0
O221 O 0.34431 0.28507 0.7176 0.0
O222 O 0.33736 0.34359 0.77188 0.0
O223 O 0.33116 0.31263 0.83049 0.0
O224 O 0.33267 0.24366 0.81161 0.0
O225 O 0.31329 0.25319 0.87872 0.0
O226 O 0.2936 0.33854 0.90466 0.0
O227 O 0.24526 0.27827 0.90236 0.0
O228 O 0.20071 0.24138 0.79443 0.0
O229 O 0.2529 0.23624 0.78334 0.0
O230 O 0.25153 0.32749 0.79203 0.0
O231 O 0.24455 0.29402 0.71712 0.0
H232 H 0.40443 0.28328 0.69164 0.0
H233 H 0.44472 0.24832 0.67066 0.0
H234 H 0.33296 0.13193 0.63142 0.0
H235 H 0.29194 0.16671 0.65228 0.0
H236 H 0.18071 0.30595 0.86367 0.0
H237 H 0.13931 0.34238 0.88004 0.0
H238 H 0.2502 0.41192 0.02086 0.0
H239 H 0.29188 0.37629 0.00388 0.0
C240 C 0.72376 0.35012 0.77197 0.0
Eu241 Eu 0.7645 0.30321 0.77613 0.0
C242 C 0.70184 0.35642 0.80328 0.0
C243 C 0.67577 0.32307 0.81805 0.0
C244 C 0.65879 0.32995 0.85208 0.0
C245 C 0.66708 0.37014 0.87073 0.0
C246 C 0.69349 0.40343 0.85652 0.0
C247 C 0.71096 0.39661 0.82313 0.0
C248 C 0.73646 0.23443 0.70331 0.0
C249 C 0.73476 0.23611 0.84458 0.0
C250 C 0.85838 0.21407 0.8178 0.0
Eu251 Eu 0.81397 0.25712 0.81213 0.0
C252 C 0.87377 0.20405 0.78066 0.0
C253 C 0.91836 0.22444 0.78956 0.0
C254 C 0.93366 0.21333 0.75594 0.0
C255 C 0.90445 0.18155 0.7136 0.0
C256 C 0.85934 0.16396 0.70193 0.0
C257 C 0.84399 0.17508 0.73535 0.0
C258 C 0.83727 0.32122 0.88625 0.0
C259 C 0.8436 0.32354 0.74305 0.0
O260 O 0.7663 0.36314 0.79617 0.0
O261 O 0.7054 0.31412 0.74217 0.0
O262 O 0.74002 0.27074 0.69479 0.0
O263 O 0.74704 0.23659 0.75046 0.0
O264 O 0.73341 0.26957 0.82766 0.0
O265 O 0.76238 0.22189 0.83994 0.0
O266 O 0.81583 0.19746 0.80417 0.0
O267 O 0.87694 0.25271 0.8402 0.0
O268 O 0.83483 0.28516 0.89371 0.0
O269 O 0.83006 0.32256 0.84018 0.0
O270 O 0.8415 0.28797 0.75598 0.0
O271 O 0.81835 0.33927 0.75143 0.0
H272 H 0.6687 0.29176 0.80363 0.0
H273 H 0.63851 0.30411 0.86301 0.0
H274 H 0.7003 0.43469 0.87109 0.0
H275 H 0.73191 0.42266 0.81315 0.0
H276 H 0.94167 0.24758 0.82359 0.0
H277 H 0.96871 0.22662 0.76547 0.0
H278 H 0.83671 0.13899 0.66951 0.0
H279 H 0.80918 0.15957 0.72667 0.0
C280 C 0.81983 0.87485 0.89959 0.0
Eu281 Eu 0.81127 0.81767 0.83253 0.0
C282 C 0.78951 0.89211 0.90447 0.0
C283 C 0.77366 0.91478 0.86972 0.0
C284 C 0.74458 0.93026 0.87468 0.0
C285 C 0.73071 0.92316 0.91419 0.0
C286 C 0.74592 0.90018 0.94852 0.0
C287 C 0.77512 0.88482 0.94372 0.0
C288 C 0.85763 0.83313 0.77214 0.0
C289 C 0.72673 0.80907 0.73054 0.0
C290 C 0.76418 0.69454 0.68384 0.0
Eu291 Eu 0.7735 0.75008 0.75291 0.0
C292 C 0.79295 0.67521 0.67958 0.0
C293 C 0.79299 0.64029 0.70023 0.0
C294 C 0.82129 0.62302 0.69753 0.0
C295 C 0.84973 0.6403 0.67397 0.0
C296 C 0.84982 0.67497 0.65317 0.0
C297 C 0.82154 0.69225 0.65581 0.0
C298 C 0.72868 0.73165 0.81504 0.0
C299 C 0.85597 0.75667 0.85507 0.0
O300 O 0.80991 0.83679 0.90407 0.0
O301 O 0.83306 0.88272 0.86327 0.0
O302 O 0.87524 0.84286 0.82135 0.0
O303 O 0.81586 0.8159 0.75696 0.0
O304 O 0.75126 0.82509 0.77905 0.0
O305 O 0.7291 0.77792 0.70866 0.0
O306 O 0.77725 0.73352 0.68221 0.0
O307 O 0.74867 0.68561 0.71824 0.0
O308 O 0.71049 0.72564 0.76588 0.0
O309 O 0.77034 0.75059 0.82924 0.0
O310 O 0.83346 0.74203 0.806 0.0
O311 O 0.85253 0.78699 0.87746 0.0
H312 H 0.78364 0.92057 0.83872 0.0
H313 H 0.73306 0.94799 0.8479 0.0
H314 H 0.73543 0.89445 0.97919 0.0
H315 H 0.78646 0.86715 0.97072 0.0
H316 H 0.77131 0.62635 0.71862 0.0
H317 H 0.82087 0.59606 0.7135 0.0
H318 H 0.87161 0.68844 0.63471 0.0
H319 H 0.82223 0.71906 0.63942 0.0
Cd320 Cd 0.0248 0.97578 0.61512 0.0
Cd321 Cd 0.06983 0.08509 0.48583 0.0
C322 C 0.11865 0.96711 0.67279 0.0
N323 N 0.07831 0.94706 0.63365 0.0
C324 C 0.09609 0.89027 0.61972 0.0
C325 C 0.13758 0.90993 0.66062 0.0
C326 C 0.14897 0.94928 0.68657 0.0
C327 C 0.06696 0.90952 0.60671 0.0
H328 H 0.12688 0.99648 0.69441 0.0
H329 H 0.03467 0.89386 0.57597 0.0
C330 C 0.9977 0.98351 0.47859 0.0
C331 C 0.99345 0.10338 0.40424 0.0
C332 C 0.96378 0.12066 0.38189 0.0
C333 C 0.95375 0.14309 0.41255 0.0
C334 C 0.97275 0.14641 0.4653 0.0
C335 C 1.00235 0.12855 0.48615 0.0
N336 N 1.01278 0.10819 0.45555 0.0
H337 H 1.00209 0.08705 0.38058 0.0
H338 H 1.01768 0.13183 0.52672 0.0
C339 C 0.09729 0.02621 0.43515 0.0
N340 N 0.10199 0.04226 0.4811 0.0
C341 C 0.13868 1.00182 0.52225 0.0
C342 C 0.13245 0.98363 0.47514 0.0
C343 C 0.11241 0.99631 0.43121 0.0
C344 C 0.1238 0.03204 0.52444 0.0
H345 H 0.07946 0.03475 0.40145 0.0
H346 H 0.13022 0.04736 0.56088 0.0
C347 C 0.09799 0.07478 0.62048 0.0
C348 C 0.96571 0.92388 0.66353 0.0
N349 N 1.00189 0.02684 0.6237 0.0
C350 C 1.02185 0.05239 0.66975 0.0
C351 C 1.00981 0.08386 0.67711 0.0
C352 C 0.97438 0.08668 0.63796 0.0
C353 C 0.95464 0.06061 0.59058 0.0
C354 C 0.96972 0.03111 0.58392 0.0
C355 C 0.12775 0.14112 0.44021 0.0
O356 O 1.0154 0.99187 0.52686 0.0
O357 O 1.0092 0.01186 0.45394 0.0
O358 O 0.07784 0.067 0.57244 0.0
O359 O 0.08738 0.04644 0.64528 0.0
O360 O 0.95669 0.91483 0.61644 0.0
O361 O 1.00156 0.95555 0.68829 0.0
O362 O 0.14012 0.14471 0.48826 0.0
O363 O 0.08929 0.11303 0.41451 0.0
H364 H 0.047 0.04806 0.70088 0.0
H365 H 0.95459 0.01089 0.54748 0.0
H366 H 0.0858 0.85979 0.59907 0.0
H367 H 0.18038 0.9653 0.7187 0.0
H368 H 0.94969 0.11753 0.34109 0.0
H369 H 0.96567 0.16358 0.49002 0.0
H370 H 0.15615 0.99376 0.55678 0.0
H371 H 0.10839 0.98306 0.3945 0.0
H372 H 0.02512 0.10337 0.71434 0.0
H373 H 0.92665 0.06175 0.5601 0.0
Cd374 Cd 0.46532 1.00423 0.06935 0.0
Cd375 Cd 0.55015 0.08826 0.96853 0.0
C376 C 0.52518 0.95912 0.10235 0.0
N377 N 0.50107 0.96686 0.05854 0.0
C378 C 0.53593 0.94566 0.01411 0.0
C379 C 0.56314 0.94014 0.05951 0.0
C380 C 0.55619 0.94466 0.10349 0.0
C381 C 0.50401 0.95825 0.01429 0.0
H382 H 0.52229 0.96674 0.13696 0.0
H383 H 0.48372 0.96316 0.97972 0.0
C384 C 0.45222 0.01417 0.93624 0.0
C385 C 0.48944 0.13075 0.90662 0.0
C386 C 0.46058 0.14974 0.89537 0.0
C387 C 0.44735 0.15909 0.93253 0.0
C388 C 0.46305 0.14914 0.97994 0.0
C389 C 0.49113 0.12953 0.98925 0.0
N390 N 0.50412 0.12129 0.95301 0.0
H391 H 0.49966 0.12296 0.87825 0.0
H392 H 0.50221 0.12059 0.02527 0.0
C393 C 0.55941 0.01584 0.91222 0.0
N394 N 0.57352 0.03775 0.95932 0.0
C395 C 0.63021 0.01434 0.99292 0.0
C396 C 0.61775 0.99303 0.94432 0.0
C397 C 0.58129 0.99306 0.90378 0.0
C398 C 0.60766 0.03697 -0.00042 0.0
H399 H 0.53313 0.01829 0.88066 0.0
H400 H 0.61902 0.05598 0.03609 0.0
C401 C 0.5634 0.07834 0.09955 0.0
C402 C 0.41544 0.94543 0.11831 0.0
N403 N 0.44382 0.05634 0.07152 0.0
C404 C 0.45037 0.07506 0.11715 0.0
C405 C 0.42714 0.09819 0.11906 0.0
C406 C 0.39541 0.09915 0.07347 0.0
C407 C 0.39356 0.08404 0.02728 0.0
C408 C 0.41962 0.06377 0.02746 0.0
C409 C 0.61183 0.14302 0.93123 0.0
O410 O 0.46581 0.02175 0.98445 0.0
O411 O 0.47661 0.03683 0.91649 0.0
O412 O 0.54718 0.07121 0.05137 0.0
O413 O 0.54005 0.05718 0.12159 0.0
O414 O 0.39901 0.94437 0.07076 0.0
O415 O 0.45357 0.97412 0.14337 0.0
O416 O 0.61798 0.15023 0.97765 0.0
O417 O 0.57723 0.11168 0.9029 0.0
H418 H 0.47068 0.06921 0.15166 0.0
H419 H 0.41851 0.05226 0.99222 0.0
H420 H 0.54061 0.94202 0.97963 0.0
H421 H 0.57698 0.94038 0.13904 0.0
H422 H 0.44851 0.15685 0.85817 0.0
H423 H 0.45371 0.15635 0.00933 0.0
H424 H 0.65891 0.01562 0.0245 0.0
H425 H 0.57134 0.97735 0.86572 0.0
H426 H 0.4294 0.11024 0.15533 0.0
H427 H 0.37016 0.08537 0.99155 0.0
Cd428 Cd 1.01053 0.52918 0.17895 0.0
Cd429 Cd 1.01478 0.55775 0.0123 0.0
C430 C 0.10643 0.49885 0.24061 0.0
N431 N 0.06582 0.48612 0.20017 0.0
C432 C 0.07852 0.42486 0.17826 0.0
C433 C 0.1202 0.437 0.22006 0.0
C434 C 0.13313 0.47548 0.25091 0.0
C435 C 0.0526 0.44896 0.16944 0.0
H436 H 0.11911 0.52751 0.26624 0.0
H437 H 1.021 0.43686 0.13739 0.0
C438 C 0.94444 0.47254 0.03488 0.0
C439 C 0.95558 0.59257 0.92523 0.0
C440 C 0.93623 0.61946 0.90675 0.0
C441 C 0.9301 0.64397 0.93991 0.0
C442 C 0.94049 0.63831 0.99008 0.0
C443 C 0.95746 0.60948 0.00612 0.0
N444 N 0.9667 0.58884 0.97454 0.0
H445 H 0.96338 0.57603 0.90076 0.0
H446 H 0.96513 0.6049 0.04457 0.0
C447 C 0.0358 0.49196 0.95023 0.0
N448 N 0.04297 0.50907 -0.00272 0.0
C449 C 0.09725 0.48266 0.0355 0.0
C450 C 0.09162 0.46592 0.98762 0.0
C451 C 0.05982 0.47011 0.94456 0.0
C452 C 0.07264 0.50422 0.03934 0.0
H453 H 1.01261 0.49648 0.91701 0.0
H454 H 0.07752 0.51766 0.07598 0.0
C455 C 0.06586 0.5964 0.14073 0.0
C456 C 0.97281 0.50476 0.24509 0.0
N457 N 0.97251 0.58566 0.18849 0.0
C458 C 0.99175 0.6153 0.23236 0.0
C459 C 0.97132 0.64082 0.24355 0.0
C460 C 0.92916 0.63816 0.21026 0.0
C461 C 0.91138 0.60919 0.16392 0.0
C462 C 0.93272 0.58394 0.15417 0.0
C463 C 0.08242 0.60765 0.98898 0.0
O464 O 0.96239 0.4853 0.08366 0.0
O465 O 0.95754 0.4944 0.00565 0.0
O466 O 0.03376 0.57081 0.10216 0.0
O467 O 0.06851 0.59012 0.18417 0.0
O468 O 0.96065 0.48259 0.20251 0.0
O469 O 1.00905 0.53654 0.26201 0.0
O470 O 0.08423 0.61103 0.03371 0.0
O471 O 0.04624 0.58268 0.95386 0.0
H472 H 0.023 0.61871 0.261 0.0
H473 H 0.91573 0.56174 0.11883 0.0
H474 H 0.0653 0.39611 0.15209 0.0
H475 H 0.16432 0.48786 0.28376 0.0
H476 H 0.92814 0.62262 0.86763 0.0
H477 H 0.93586 0.65629 0.0167 0.0
H478 H 0.12116 0.47982 0.0696 0.0
H479 H 0.05423 0.45722 0.90694 0.0
H480 H 0.98849 0.66212 0.27967 0.0
H481 H 0.87976 0.60481 0.13515 0.0
Cd482 Cd 0.51005 0.46485 0.09632 0.0
Cd483 Cd 0.57161 0.58112 0.97906 0.0
C484 C 0.60811 0.4633 0.15282 0.0
N485 N 0.56531 0.43861 0.12189 0.0
C486 C 0.58173 0.37932 0.12693 0.0
C487 C 0.6258 0.4039 0.15977 0.0
C488 C 0.63905 0.44653 0.17202 0.0
C489 C 0.55194 0.39734 0.10846 0.0
H490 H 0.61816 0.49593 0.16368 0.0
H491 H 0.51776 0.37819 0.08433 0.0
C492 C 0.49384 0.48354 0.96461 0.0
C493 C 0.48923 0.60216 0.91508 0.0
C494 C 0.46296 0.62399 0.90047 0.0
C495 C 0.47084 0.65761 0.9348 0.0
C496 C 0.50436 0.66781 0.98378 0.0
C497 C 0.53008 0.64529 -0.00328 0.0
N498 N 0.52233 0.6133 0.96232 0.0
H499 H 0.48416 0.57709 0.88811 0.0
H500 H 0.55712 0.65413 0.03366 0.0
C501 C 0.59654 0.51936 0.93113 0.0
N502 N 0.59564 0.53021 0.97587 0.0
C503 C 0.61255 0.4752 0.00717 0.0
C504 C 0.61465 0.4642 0.96174 0.0
C505 C 0.60695 0.48677 0.92353 0.0
C506 C 0.60413 0.50935 0.01405 0.0
H507 H 0.58766 0.53516 0.90089 0.0
H508 H 0.60304 0.51794 0.04933 0.0
C509 C 0.58442 0.56696 0.11204 0.0
C510 C 0.45156 0.41278 0.14357 0.0
N511 N 0.47771 0.50852 0.09409 0.0
C512 C 0.48712 0.53227 0.13794 0.0
C513 C 0.47374 0.56402 0.13618 0.0
C514 C 0.45184 0.57162 0.08888 0.0
C515 C 0.4429 0.54691 0.04437 0.0
C516 C 0.45428 0.51387 0.04803 0.0
C517 C 0.6253 0.6315 0.92434 0.0
O518 O 0.51085 0.48789 0.01281 0.0
O519 O 0.50919 0.51221 0.94244 0.0
O520 O 0.57042 0.56161 0.06385 0.0
O521 O 0.56853 0.53702 0.13216 0.0
O522 O 0.44187 0.40434 0.09606 0.0
O523 O 0.48771 0.44406 0.16875 0.0
O524 O 0.64142 0.63386 0.97218 0.0
O525 O 0.58484 0.60649 0.90159 0.0
H526 H 0.50621 0.52732 0.17396 0.0
H527 H 0.44521 0.493 0.01418 0.0
H528 H 0.57031 0.34636 0.11642 0.0
H529 H 0.67279 0.46649 0.19703 0.0
H530 H 0.43736 0.61531 0.86243 0.0
H531 H 0.51128 0.69361 0.01118 0.0
H532 H 0.61754 0.45771 0.03684 0.0
H533 H 0.60764 0.47838 0.88761 0.0
H534 H 0.48116 0.58302 0.17115 0.0
H535 H 0.42609 0.55237 0.0075 0.0
Cd536 Cd 0.02697 0.47417 0.61347 0.0
Cd537 Cd 0.10172 0.5552 0.49881 0.0
C538 C 0.10829 0.45399 0.6711 0.0
N539 N 0.07298 0.44166 0.62592 0.0
C540 C 0.09137 0.38974 0.599 0.0
C541 C 0.12797 0.40193 0.64559 0.0
C542 C 0.13735 0.43546 0.68113 0.0
C543 C 0.06445 0.41085 0.58945 0.0
H544 H 0.11258 0.47689 0.70008 0.0
H545 H 0.03578 0.40166 0.55395 0.0
C546 C 1.0132 0.46961 0.47851 0.0
C547 C 1.02002 0.57027 0.48762 0.0
C548 C 0.99447 0.59006 0.49086 0.0
C549 C 1.01527 0.62994 0.51953 0.0
C550 C 0.06087 0.6484 0.54745 0.0
C551 C 0.0852 0.62694 0.54383 0.0
N552 N 0.06441 0.58908 0.5134 0.0
H553 H 1.00443 0.54087 0.46245 0.0
H554 H 0.12054 0.64123 0.56287 0.0
C555 C 0.13818 0.50003 0.4652 0.0
N556 N 0.1325 0.51011 0.50691 0.0
C557 C 0.17432 0.47621 0.55504 0.0
C558 C 0.18263 0.46749 0.51334 0.0
C559 C 0.16327 0.47821 0.46748 0.0
C560 C 0.14847 0.49759 0.55082 0.0
H561 H 0.12485 0.5107 0.43107 0.0
H562 H 0.14352 0.50605 0.58345 0.0
C563 C 0.12133 0.55769 0.63522 0.0
C564 C 0.96608 0.41691 0.65284 0.0
N565 N 1.00529 0.52409 0.63025 0.0
C566 C 1.00909 0.53241 0.67838 0.0
C567 C 0.98722 0.5541 0.68921 0.0
C568 C 0.96175 0.5675 0.6501 0.0
C569 C 0.96017 0.56028 0.60132 0.0
C570 C 0.98248 0.53835 0.59218 0.0
C571 C 0.15149 0.61215 0.44647 0.0
O572 O 0.02712 0.48095 0.52634 0.0
O573 O 0.03425 0.49146 0.45457 0.0
O574 O 0.10439 0.54852 0.58692 0.0
O575 O 0.09875 0.53681 0.65823 0.0
O576 O 0.95458 0.41719 0.60554 0.0
O577 O 1.00583 0.44105 0.68114 0.0
O578 O 0.17034 0.60468 0.48926 0.0
O579 O 0.10957 0.59354 0.42727 0.0
H580 H 0.02715 0.52023 0.70773 0.0
H581 H 0.97967 0.5309 0.55432 0.0
H582 H 0.08279 0.36328 0.57148 0.0
H583 H 0.16458 0.44459 0.71807 0.0
H584 H 0.95921 0.57573 0.46823 0.0
H585 H 0.07738 0.67964 0.56902 0.0
H586 H 0.18987 0.46902 0.59113 0.0
H587 H 0.1693 0.47148 0.43477 0.0
H588 H 0.98866 0.55896 0.72709 0.0
H589 H 0.94011 0.5697 0.57021 0.0
Cd590 Cd 0.54706 0.99444 0.59057 0.0
Cd591 Cd 0.5516 0.02988 0.4075 0.0
C592 C 0.63654 0.9756 0.6415 0.0
N593 N 0.59268 0.95938 0.61136 0.0
C594 C 0.58951 0.89128 0.60541 0.0
C595 C 0.63434 0.907 0.63741 0.0
C596 C 0.65837 0.94977 0.65444 0.0
C597 C 0.56935 0.91822 0.59243 0.0
H598 H 0.65409 0.00814 0.65724 0.0
H599 H 0.53446 0.90611 0.56873 0.0
C600 C 0.48787 0.96336 0.46577 0.0
C601 C 0.4762 0.076 0.33346 0.0
C602 C 0.45158 0.10113 0.32261 0.0
C603 C 0.44496 0.1212 0.36048 0.0
C604 C 0.4645 0.11308 0.40933 0.0
C605 C 0.48905 0.08792 0.41875 0.0
N606 N 0.49517 0.06911 0.3813 0.0
H607 H 0.48064 0.06273 0.30277 0.0
H608 H 0.504 0.08434 0.45725 0.0
C609 C 0.56913 0.94559 0.34464 0.0
N610 N 0.58852 0.97638 0.38724 0.0
C611 C 0.65391 0.95946 0.40896 0.0
C612 C 0.63503 0.92786 0.36502 0.0
C613 C 0.59099 0.92161 0.33347 0.0
C614 C 0.63094 0.98263 0.41897 0.0
H615 H 0.53633 0.9395 0.31756 0.0
H616 H 0.64846 0.00671 0.45263 0.0
C617 C 0.61631 0.0807 0.54581 0.0
C618 C 0.48686 0.95241 0.63182 0.0
N619 N 0.52904 0.05041 0.5992 0.0
C620 C 0.55386 0.08424 0.63731 0.0
C621 C 0.53651 0.11229 0.64379 0.0
C622 C 0.49264 0.10422 0.61226 0.0
C623 C 0.46928 0.07077 0.57099 0.0
C624 C 0.48829 0.04434 0.56506 0.0
C625 C 0.60607 0.08341 0.37547 0.0
O626 O 0.49213 0.95728 0.50969 0.0
O627 O 0.51976 0.99176 0.46132 0.0
O628 O 0.60764 0.07727 0.49808 0.0
O629 O 0.59295 0.0516 0.56098 0.0
O630 O 0.48177 0.94059 0.58714 0.0
O631 O 0.52323 0.98258 0.66022 0.0
O632 O 0.60793 0.088 0.42024 0.0
O633 O 0.57433 0.05261 0.34163 0.0
H634 H 0.58625 0.08854 0.66389 0.0
H635 H 0.46941 0.01744 0.53491 0.0
H636 H 0.57005 0.85843 0.59206 0.0
H637 H 0.69297 0.96269 0.67982 0.0
H638 H 0.43799 0.10515 0.28404 0.0
H639 H 0.46134 0.12665 0.44095 0.0
H640 H 0.68724 0.96699 0.43591 0.0
H641 H 0.57319 0.89835 0.29898 0.0
H642 H 0.55593 0.13837 0.67526 0.0
H643 H 0.43573 0.06386 0.5452 0.0
C644 C 0.17115 0.1739 0.33646 0.0
C645 C 0.20397 0.21493 0.35845 0.0
C646 C 0.18686 0.20911 0.4346 0.0
C647 C 0.15644 0.16682 0.41411 0.0
N648 N 0.13292 0.10702 0.35113 0.0
N649 N 0.24873 0.26822 0.43346 0.0
C650 C 0.15221 0.14883 0.3665 0.0
C651 C 0.21381 0.23119 0.40926 0.0
N652 N 0.15791 0.15801 0.28667 0.0
N653 N 0.1883 0.22948 0.47645 0.0
H654 H 0.26752 0.28593 0.41559 0.0
H655 H 0.26112 0.27969 0.47215 0.0
H656 H 0.16786 0.21606 0.49455 0.0
H657 H 0.20639 0.26105 0.49006 0.0
H658 H 0.12978 0.131 0.26689 0.0
H659 H 0.17316 0.17282 0.26417 0.0
H660 H 0.13215 0.09196 0.31909 0.0
H661 H 0.12353 0.08714 0.37402 0.0
C662 C 0.8543 0.16215 0.32989 0.0
C663 C 0.87259 0.20575 0.33879 0.0
C664 C 0.94444 0.20817 0.39498 0.0
C665 C 0.9253 0.16479 0.38914 0.0
N666 N 0.86011 0.10109 0.35913 0.0
N667 N 0.93237 0.26996 0.39034 0.0
C668 C 0.87959 0.14193 0.35894 0.0
C669 C 0.91695 0.22869 0.37423 0.0
N670 N 0.81328 0.14003 0.2924 0.0
N671 N 0.98912 0.22987 0.41903 0.0
H672 H 0.913 0.28574 0.37674 0.0
H673 H 0.96249 0.28756 0.4205 0.0
H674 H 1.01064 0.2162 0.43488 0.0
H675 H 1.00516 0.26095 0.41934 0.0
H676 H 0.79953 0.1082 0.28087 0.0
H677 H 0.79469 0.15394 0.26934 0.0
H678 H 0.82617 0.08372 0.34231 0.0
H679 H 0.87762 0.08544 0.38016 0.0
C680 C 0.92927 0.88591 0.37591 0.0
C681 C 0.89018 0.872 0.3833 0.0
C682 C 0.92761 0.9207 0.46364 0.0
C683 C 0.96348 0.94155 0.45024 0.0
N684 N 0.99715 0.94254 0.39113 0.0
N685 N 0.84982 0.87722 0.43189 0.0
C686 C 0.96398 0.92355 0.40577 0.0
C687 C 0.88872 0.88944 0.42669 0.0
N688 N 0.93331 0.86345 0.34024 0.0
N689 N 0.93004 0.9297 0.51106 0.0
H690 H 0.82093 0.85325 0.4064 0.0
H691 H 0.84555 0.8928 0.45931 0.0
H692 H 0.95824 0.94992 0.54104 0.0
H693 H 0.90555 0.91273 0.52259 0.0
H694 H 0.96294 0.87058 0.33671 0.0
H695 H 0.90847 0.83537 0.31772 0.0
H696 H 0.99482 0.9353 0.35466 0.0
H697 H 0.02669 0.96558 0.41578 0.0
C698 C 0.14756 0.88722 0.45214 0.0
C699 C 0.18314 0.90457 0.43795 0.0
C700 C 0.19385 0.97376 0.46762 0.0
C701 C 0.15338 0.95637 0.47215 0.0
N702 N 0.09208 0.89797 0.47272 0.0
N703 N 0.23983 0.96409 0.42972 0.0
C704 C 0.13058 0.9134 0.4665 0.0
C705 C 0.20685 0.94782 0.44594 0.0
N706 N 0.13022 0.84601 0.45141 0.0
N707 N 0.21934 0.01519 0.48337 0.0
H708 H 0.25158 0.94655 0.4144 0.0
H709 H 0.25373 0.995 0.42813 0.0
H710 H 0.21024 0.03535 0.49881 0.0
H711 H 0.25133 0.02907 0.48571 0.0
H712 H 0.10645 0.83181 0.46509 0.0
H713 H 0.14234 0.82644 0.44059 0.0
H714 H 0.07151 0.86677 0.46429 0.0
H715 H 0.07983 0.91682 0.48483 0.0
C716 C 0.20967 0.86557 0.75192 0.0
C717 C 0.2252 0.8487 0.72123 0.0
C718 C 0.18658 0.87608 0.65081 0.0
C719 C 0.16699 0.88788 0.68014 0.0
N720 N 0.15143 0.88274 0.7545 0.0
N721 N 0.22009 0.83147 0.63708 0.0
C722 C 0.176 0.87925 0.72938 0.0
C723 C 0.21156 0.85238 0.66943 0.0
N724 N 0.2285 0.87077 0.80334 0.0
N725 N 0.18227 0.88822 0.6057 0.0
H726 H 0.23718 0.81316 0.64858 0.0
H727 H 0.20653 0.82923 0.59798 0.0
H728 H 0.16453 0.90556 0.5911 0.0
H729 H 0.19943 0.88416 0.58513 0.0
H730 H 0.22136 0.88663 0.82747 0.0
H731 H 0.25532 0.86436 0.82209 0.0
H732 H 0.15375 0.87265 0.78833 0.0
H733 H 0.12536 0.89126 0.73894 0.0
C734 C 0.15526 0.18847 0.67733 0.0
C735 C 0.18195 0.18618 0.72628 0.0
C736 C 0.16639 0.11561 0.69573 0.0
C737 C 0.13447 0.11536 0.64906 0.0
N738 N 0.10346 0.15383 0.59154 0.0
N739 N 0.20454 0.14507 0.78508 0.0
C740 C 0.13088 0.15265 0.63825 0.0
C741 C 0.18543 0.14912 0.73633 0.0
N742 N 0.15317 0.22492 0.66845 0.0
N743 N 0.1791 0.08398 0.70063 0.0
H744 H 0.21752 0.16878 0.81622 0.0
H745 H 0.20386 0.11712 0.79462 0.0
H746 H 0.16746 0.06032 0.66988 0.0
H747 H 0.20469 0.08401 0.73289 0.0
H748 H 0.1409 0.23139 0.63265 0.0
H749 H 0.16411 0.24911 0.69788 0.0
H750 H 0.09371 0.17763 0.58362 0.0
H751 H 0.09151 0.13165 0.55957 0.0
C752 C 0.9317 0.1675 0.64955 0.0
C753 C 0.92178 0.15802 0.69186 0.0
C754 C 0.93513 0.09679 0.6878 0.0
C755 C 0.95205 0.10954 0.65125 0.0
N756 N 0.96861 0.15759 0.59783 0.0
N757 N 0.92161 0.11791 0.75748 0.0
C758 C 0.95066 0.14495 0.63174 0.0
C759 C 0.92582 0.12398 0.71293 0.0
N760 N 0.92263 0.19753 0.62648 0.0
N761 N 0.92659 0.05803 0.69725 0.0
H762 H 0.91385 0.13659 0.77738 0.0
H763 H 0.92973 0.09631 0.77709 0.0
H764 H 0.93073 0.03624 0.67716 0.0
H765 H 0.91054 0.04608 0.7204 0.0
H766 H 0.92499 0.20307 0.59241 0.0
H767 H 0.90975 0.21511 0.63982 0.0
H768 H 0.97213 0.18524 0.58574 0.0
H769 H 0.98253 0.14146 0.58409 0.0
C770 C 0.88619 0.89533 0.73275 0.0
C771 C 0.88212 0.85509 0.74049 0.0
C772 C 0.93065 0.85885 0.69564 0.0
C773 C 0.93545 0.8994 0.6885 0.0
N774 N 0.91841 0.95665 0.70158 0.0
N775 N 0.89496 0.79619 0.72248 0.0
C776 C 0.91316 0.91756 0.70739 0.0
C777 C 0.90287 0.83632 0.71992 0.0
N778 N 0.86302 0.9118 0.7485 0.0
N779 N 0.95464 0.84259 0.68143 0.0
H780 H 0.87529 0.77917 0.73991 0.0
H781 H 0.90498 0.7786 0.70446 0.0
H782 H 0.97465 0.85769 0.66339 0.0
H783 H 0.95723 0.81552 0.69015 0.0
H784 H 0.86086 0.93929 0.74132 0.0
H785 H 0.84357 0.89671 0.76713 0.0
H786 H 0.90728 0.97406 0.71797 0.0
H787 H 0.93544 0.97255 0.681 0.0
C788 C 0.30309 0.09408 0.10819 0.0
C789 C 0.29381 0.12606 0.08675 0.0
C790 C 0.34894 0.13896 0.05241 0.0
C791 C 0.35825 0.10689 0.07396 0.0
N792 N 0.33298 0.0453 0.10776 0.0
N793 N 0.29676 0.16963 0.02563 0.0
C794 C 0.33176 0.0816 0.0967 0.0
C795 C 0.31295 0.14525 0.05423 0.0
N796 N 0.28541 0.07583 0.14034 0.0
N797 N 0.37577 0.16479 0.03309 0.0
H798 H 0.26993 0.17435 0.02619 0.0
H799 H 0.30685 0.18155 -0.00214 0.0
H800 H 0.40368 0.16221 0.03328 0.0
H801 H 0.37266 0.19096 0.02112 0.0
H802 H 0.29293 0.05287 0.15738 0.0
H803 H 0.26474 0.08446 0.15131 0.0
H804 H 0.35085 0.03186 0.09759 0.0
H805 H 0.35085 0.03186 0.09759 0.0
C806 C 0.88616 0.429 0.24605 0.0
C807 C 0.86157 0.43617 0.19861 0.0
C808 C 0.90576 0.50826 0.23404 0.0
C809 C 0.93977 0.49839 0.26541 0.0
N810 N 0.95725 0.45192 0.31575 0.0
N811 N 0.84462 0.48596 0.15136 0.0
C812 C 0.92704 0.46025 0.27852 0.0
C813 C 0.86942 0.47708 0.19393 0.0
N814 N 0.87259 0.39232 0.25951 0.0
N815 N 0.90928 0.54692 0.24242 0.0
H816 H 0.81776 0.46282 0.12187 0.0
H817 H 0.85196 0.516 0.14562 0.0
H818 H 0.88358 0.55493 0.22246 0.0
H819 H 0.93653 0.56844 0.27314 0.0
H820 H 0.84206 0.36869 0.23769 0.0
H821 H 0.84206 0.36869 0.23769 0.0
H822 H 0.95176 0.42198 0.31996 0.0
H823 H 0.98831 0.47496 0.33866 0.0
C824 C 0.63667 0.89391 0.04155 0.0
C825 C 0.67639 0.91939 0.08296 0.0
C826 C 0.6442 0.96506 0.09644 0.0
C827 C 0.60231 0.93473 0.06286 0.0
N828 N 0.55742 0.86827 0.00614 0.0
N829 N 0.71858 0.97797 0.15246 0.0
C830 C 0.59805 0.89884 0.03519 0.0
C831 C 0.68074 0.95517 0.11067 0.0
N832 N 0.6359 0.86376 0.01042 0.0
N833 N 0.64892 1.00317 0.11429 0.0
H834 H 0.74661 0.9721 0.16311 0.0
H835 H 0.72119 1.00111 0.17798 0.0
H836 H 0.62286 0.01198 0.10252 0.0
H837 H 0.67937 0.02732 0.13591 0.0
H838 H 0.60838 0.84537 0.97783 0.0
H839 H 0.66435 0.85985 0.01497 0.0
H840 H 0.55276 0.83961 0.98972 0.0
H841 H 0.52803 0.87001 0.00178 0.0
C842 C 0.14456 0.70191 0.14615 0.0
C843 C 0.1829 0.69871 0.17933 0.0
C844 C 0.14382 0.62379 0.15839 0.0
C845 C 0.10412 0.62836 0.13775 0.0
N846 N 0.0649 0.66983 0.10535 0.0
N847 N 0.21912 0.65571 0.21618 0.0
C848 C 0.10391 0.66675 0.12821 0.0
C849 C 0.18316 0.65927 0.18297 0.0
N850 N 0.14733 0.73882 0.13325 0.0
N851 N 0.14334 0.58548 0.15932 0.0
H852 H 0.2469 0.68149 0.23699 0.0
H853 H 0.22021 0.62847 0.22647 0.0
H854 H 0.11436 0.559 0.14869 0.0
H855 H 0.17135 0.57986 0.16797 0.0
H856 H 0.12116 0.74276 0.10623 0.0
H857 H 0.17743 0.76459 0.14616 0.0
H858 H 0.06205 0.69751 0.10124 0.0
H859 H 0.03508 0.64411 0.09233 0.0
C860 C 0.37954 0.90739 0.92435 0.0
C861 C 0.38543 0.88787 0.88628 0.0
C862 C 0.42404 0.95317 0.8688 0.0
C863 C 0.41778 0.9732 0.90676 0.0
N864 N 0.37199 0.9674 0.95133 0.0
N865 N 0.42974 0.89199 0.84051 0.0
C866 C 0.39074 0.94974 0.92964 0.0
C867 C 0.41287 0.91068 0.864 0.0
N868 N 0.3621 0.88471 0.9541 0.0
N869 N 0.43719 0.9738 0.83499 0.0
H870 H 0.4249 0.86151 0.84171 0.0
H871 H 0.45283 0.908 0.82656 0.0
H872 H 0.43878 1.00326 0.83232 0.0
H873 H 0.43983 0.95953 0.80503 0.0
H874 H 0.35821 0.89741 0.98397 0.0
H875 H 0.35531 0.85346 0.95109 0.0
H876 H 0.35031 0.95154 0.96706 0.0
H877 H 0.37203 0.99568 0.9444 0.0
C878 C 0.18246 0.44525 0.96855 0.0
C879 C 0.1663 0.40182 0.96252 0.0
C880 C 0.101 0.40009 0.97383 0.0
C881 C 0.11851 0.4437 0.98245 0.0
N882 N 0.1837 0.5069 0.00697 0.0
N883 N 0.116 0.33943 0.97364 0.0
C884 C 0.1616 0.46606 0.98558 0.0
C885 C 0.12711 0.37958 0.96913 0.0
N886 N 0.21654 0.46673 0.95597 0.0
N887 N 0.05951 0.37821 0.97053 0.0
H888 H 0.13499 0.32377 0.97213 0.0
H889 H 0.09054 0.32292 0.98396 0.0
H890 H 0.04079 0.39236 0.97694 0.0
H891 H 0.0429 0.34638 0.95868 0.0
H892 H 0.22662 0.49799 0.95531 0.0
H893 H 0.23167 0.45263 0.94135 0.0
H894 H 0.21728 0.52301 0.01636 0.0
H895 H 0.16967 0.52353 0.01965 0.0
C896 C 0.71973 0.20608 0.9175 0.0
C897 C 0.70354 0.21352 0.86767 0.0
C898 C 0.62806 0.18083 0.86325 0.0
C899 C 0.64383 0.16893 0.91056 0.0
N900 N 0.70504 0.16286 0.97667 0.0
N901 N 0.64086 0.20011 0.78917 0.0
C902 C 0.68981 0.17969 0.93617 0.0
C903 C 0.65727 0.19875 0.83946 0.0
N904 N 0.76368 0.22527 0.94797 0.0
N905 N 0.58551 0.17661 0.84173 0.0
H906 H 0.66082 0.21204 0.76995 0.0
H907 H 0.60742 0.18574 0.76539 0.0
H908 H 0.56365 0.16562 0.85884 0.0
H909 H 0.57337 0.18823 0.80985 0.0
H910 H 0.77674 0.22459 0.98637 0.0
H911 H 0.78645 0.24535 0.93624 0.0
H912 H 0.73753 0.16625 0.99326 0.0
H913 H 0.68452 0.14187 0.99029 0.0
C914 C 0.86316 0.70854 0.91485 0.0
C915 C 0.88069 0.73438 0.88511 0.0
C916 C 0.93637 0.70695 0.90084 0.0
C917 C 0.91384 0.67605 0.92251 0.0
N918 N 0.85022 0.64341 0.94138 0.0
N919 N 0.93204 0.75617 0.84612 0.0
C920 C 0.87597 0.67599 0.9277 0.0
C921 C 0.91672 0.73293 0.87695 0.0
N922 N 0.83363 0.71435 0.93014 0.0
N923 N 0.97742 0.71281 0.90506 0.0
H924 H 0.92068 0.77782 0.83111 0.0
H925 H 0.95425 0.75229 0.83339 0.0
H926 H 0.9941 0.69609 0.92482 0.0
H927 H 0.99681 0.73715 0.89379 0.0
H928 H 0.82376 0.6993 0.95652 0.0
H929 H 0.82229 0.73697 0.92061 0.0
H930 H 0.81994 0.64 0.94085 0.0
H931 H 0.8564 0.61744 0.94773 0.0
C932 C 0.17954 0.3638 0.28375 0.0
C933 C 0.20325 0.36001 0.25448 0.0
C934 C 0.17045 0.40415 0.20029 0.0
C935 C 0.14901 0.4101 0.2317 0.0
N936 N 0.13827 0.39648 0.30756 0.0
N937 N 0.22265 0.38108 0.18567 0.0
C938 C 0.15538 0.39017 0.27455 0.0
C939 C 0.19851 0.38126 0.21273 0.0
N940 N 0.17749 0.33979 0.31903 0.0
N941 N 0.16414 0.42076 0.15788 0.0
H942 H 0.24313 0.36568 0.19347 0.0
H943 H 0.2252 0.39831 0.158 0.0
H944 H 0.14708 0.43937 0.14953 0.0
H945 H 0.17363 0.41471 0.12959 0.0
H946 H 0.15597 0.33544 0.33653 0.0
H947 H 0.19428 0.32094 0.32732 0.0
H948 H 0.14612 0.38843 0.34294 0.0
H949 H 0.11815 0.4122 0.30088 0.0
C950 C 0.17491 0.60109 0.96658 0.0
C951 C 0.21087 0.63647 0.00098 0.0
C952 C 0.16019 0.65612 0.02149 0.0
C953 C 0.12404 0.62402 0.98239 0.0
N954 N 0.09882 0.57345 0.90715 0.0
N955 N 0.23487 0.67676 0.08278 0.0
C956 C 0.13167 0.59836 0.95176 0.0
C957 C 0.20257 0.65723 0.03578 0.0
N958 N 0.18244 0.57008 0.94903 0.0
N959 N 0.15414 0.68641 0.04346 0.0
H960 H 0.26547 0.67543 0.09415 0.0
H961 H 0.22966 0.69072 0.11068 0.0
H962 H 0.12329 0.68727 0.03137 0.0
H963 H 0.18049 0.71251 0.06895 0.0
H964 H 0.15733 0.5423 0.92591 0.0
H965 H 0.21426 0.57137 0.96239 0.0
H966 H 0.10398 0.55595 0.88252 0.0
H967 H 0.06853 0.57513 0.89094 0.0
C968 C 0.39986 0.23833 0.92627 0.0
C969 C 0.35885 0.2167 0.8843 0.0
C970 C 0.37188 0.15446 0.88532 0.0
C971 C 0.41573 0.17799 0.92075 0.0
N972 N 0.47334 0.24293 0.97323 0.0
N973 N 0.30676 0.15515 0.82053 0.0
C974 C 0.43014 0.21998 0.94153 0.0
C975 C 0.34488 0.17487 0.86315 0.0
N976 N 0.41032 0.27665 0.95062 0.0
N977 N 0.35607 0.1126 0.87324 0.0
H978 H 0.28572 0.16891 0.80335 0.0
H979 H 0.29762 0.1263 0.80002 0.0
H980 H 0.37513 0.09667 0.88934 0.0
H981 H 0.32306 0.0935 0.85132 0.0
H982 H 0.43778 0.29208 0.98456 0.0
H983 H 0.38979 0.29188 0.93917 0.0
H984 H 0.48696 0.27475 0.98476 0.0
H985 H 0.49665 0.23067 0.9852 0.0
C986 C 0.91083 0.3734 0.95061 0.0
C987 C 0.86419 0.35809 0.92895 0.0
C988 C 0.86953 0.41337 0.98817 0.0
C989 C 0.91608 0.42832 0.00987 0.0
N990 N 0.98032 0.41716 0.02021 0.0
N991 N 0.79868 0.35814 0.93376 0.0
C992 C 0.93628 0.40622 0.99389 0.0
C993 C 0.84339 0.37636 0.94999 0.0
N994 N 0.93106 0.35796 0.9283 0.0
N995 N 0.85054 0.43557 0.00267 0.0
H996 H 0.77871 0.33174 0.90537 0.0
H997 H 0.78172 0.36741 0.95073 0.0
H998 H 0.86891 0.46145 0.03207 0.0
H999 H 0.8173 0.42943 0.98453 0.0
H1000 H 0.96478 0.3714 0.93808 0.0
H1001 H 0.91383 0.33374 0.89696 0.0
H1002 H 0.9964 0.39974 0.01454 0.0
H1003 H 0.99983 0.44155 0.05136 0.0
C1004 C 0.65606 0.91526 0.90678 0.0
C1005 C 0.70121 0.9409 0.92064 0.0
C1006 C 0.68964 1.00101 0.94288 0.0
C1007 C 0.64593 0.97477 0.93507 0.0
N1008 N 0.58848 0.90639 0.91477 0.0
N1009 N 0.76293 0.00699 0.95941 0.0
C1010 C 0.62929 0.93167 0.9183 0.0
C1011 C 0.71858 0.98347 0.94085 0.0
N1012 N 0.63863 0.87556 0.88151 0.0
N1013 N 0.70294 0.04272 0.94995 0.0
H1014 H 0.78534 0.99539 0.95833 0.0
H1015 H 0.77791 0.03708 0.97983 0.0
H1016 H 0.68233 0.05693 0.94986 0.0
H1017 H 0.73291 0.06301 0.95063 0.0
H1018 H 0.60506 0.85658 0.86556 0.0
H1019 H 0.65739 0.86253 0.87273 0.0
H1020 H 0.57588 0.87445 0.90686 0.0
H1021 H 0.56823 0.91725 0.92364 0.0
C1022 C 0.85644 0.67452 0.26613 0.0
C1023 C 0.85712 0.71219 0.24946 0.0
C1024 C 0.90046 0.69873 0.20187 0.0
C1025 C 0.90438 0.66416 0.22392 0.0
N1026 N 0.89179 0.62736 0.28843 0.0
N1027 N 0.89058 0.76272 0.20722 0.0
C1028 C 0.88407 0.65484 0.25934 0.0
C1029 C 0.88188 0.72457 0.21856 0.0
N1030 N 0.82719 0.65528 0.28636 0.0
N1031 N 0.91489 0.70758 0.16443 0.0
H1032 H 0.88092 0.78337 0.22047 0.0
H1033 H 0.91178 0.77578 0.18985 0.0
H1034 H 0.93022 0.69161 0.15323 0.0
H1035 H 0.90853 0.7284 0.14199 0.0
H1036 H 0.82137 0.62602 0.29435 0.0
H1037 H 0.8046 0.6659 0.289 0.0
H1038 H 0.88198 0.62163 0.31809 0.0
H1039 H 0.91281 0.61433 0.28709 0.0
C1040 C 0.33496 0.8821 0.17498 0.0
C1041 C 0.35175 0.8526 0.19351 0.0
C1042 C 0.40781 0.88183 0.15789 0.0
C1043 C 0.39277 0.91292 0.14316 0.0
N1044 N 0.34756 0.94719 0.14706 0.0
N1045 N 0.40202 0.82181 0.19615 0.0
C1046 C 0.35789 0.91421 0.15435 0.0
C1047 C 0.38758 0.85178 0.18309 0.0
N1048 N 0.29482 0.87755 0.17298 0.0
N1049 N 0.44323 0.88232 0.14989 0.0
H1050 H 0.39367 0.80297 0.22033 0.0
H1051 H 0.42169 0.81441 0.18201 0.0
H1052 H 0.45684 0.90171 0.12892 0.0
H1053 H 0.46072 0.86514 0.16557 0.0
H1054 H 0.27891 0.8956 0.15576 0.0
H1055 H 0.27452 0.85241 0.18228 0.0
H1056 H 0.3267 0.95301 0.16064 0.0
H1057 H 0.36298 0.97078 0.13144 0.0
C1058 C 0.64653 0.18644 0.1608 0.0
C1059 C 0.68146 0.18123 0.19813 0.0
C1060 C 0.63686 0.10683 0.17486 0.0
C1061 C 0.6067 0.11272 0.13043 0.0
N1062 N 0.59305 0.16032 0.07561 0.0
N1063 N 0.70742 0.13666 0.24797 0.0
C1064 C 0.61431 0.15307 0.12163 0.0
C1065 C 0.67587 0.14143 0.2078 0.0
N1066 N 0.64422 0.22355 0.16293 0.0
N1067 N 0.62849 0.06832 0.18521 0.0
H1068 H 0.73183 0.16111 0.27732 0.0
H1069 H 0.70889 0.10854 0.25294 0.0
H1070 H 0.60314 0.04181 0.15964 0.0
H1071 H 0.64589 0.0625 0.21959 0.0
H1072 H 0.61758 0.22822 0.13789 0.0
H1073 H 0.66617 0.24765 0.19389 0.0
H1074 H 0.6001 0.18985 0.06804 0.0
H1075 H 0.5746 0.13761 0.04316 0.0
C1076 C 0.67461 0.6622 0.82363 0.0
C1077 C 0.7056 0.7042 0.84538 0.0
C1078 C 0.68214 0.6987 0.91691 0.0
C1079 C 0.65255 0.65646 0.89651 0.0
N1080 N 0.62889 0.59619 0.83453 0.0
N1081 N 0.7484 0.75516 0.92291 0.0
C1082 C 0.65077 0.6379 0.85068 0.0
C1083 C 0.71218 0.72015 0.89504 0.0
N1084 N 0.66902 0.64434 0.77769 0.0
N1085 N 0.68041 0.7195 0.95603 0.0
H1086 H 0.77279 0.76918 0.91037 0.0
H1087 H 0.75731 0.76646 0.96086 0.0
H1088 H 0.65788 0.70612 0.97169 0.0
H1089 H 0.6978 0.75123 0.96892 0.0
H1090 H 0.64166 0.61765 0.75514 0.0
H1091 H 0.6919 0.65598 0.76212 0.0
H1092 H 0.63041 0.57982 0.80532 0.0
H1093 H 0.61249 0.57706 0.85336 0.0
C1094 C 0.43979 0.74595 0.89226 0.0
C1095 C 0.39477 0.72965 0.88451 0.0
C1096 C 0.40195 0.66882 0.91724 0.0
C1097 C 0.44506 0.68297 0.91893 0.0
N1098 N 0.50434 0.73348 0.90445 0.0
N1099 N 0.34288 0.68622 0.91595 0.0
C1100 C 0.46394 0.72132 0.90589 0.0
C1101 C 0.37826 0.69394 0.9042 0.0
N1102 N 0.46063 0.78644 0.89131 0.0
N1103 N 0.38338 0.63108 0.92778 0.0
H1104 H 0.33067 0.70791 0.91859 0.0
H1105 H 0.33073 0.66184 0.93251 0.0
H1106 H 0.40062 0.61308 0.94099 0.0
H1107 H 0.35004 0.61625 0.92005 0.0
H1108 H 0.49424 0.80138 0.9006 0.0
H1109 H 0.44556 0.80666 0.88826 0.0
H1110 H 0.51754 0.75844 0.88922 0.0
H1111 H 0.52337 0.71671 0.91478 0.0
C1112 C 0.37936 0.41972 0.86529 0.0
C1113 C 0.38302 0.38221 0.85784 0.0
C1114 C 0.4544 0.40851 0.93022 0.0
C1115 C 0.45333 0.44757 0.93368 0.0
N1116 N 0.41565 0.4916 0.90638 0.0
N1117 N 0.42714 0.34309 0.8757 0.0
C1118 C 0.41589 0.45351 0.90189 0.0
C1119 C 0.42115 0.37693 0.88857 0.0
N1120 N 0.34076 0.4227 0.83802 0.0
N1121 N 0.48742 0.40166 0.96589 0.0
H1122 H 0.40507 0.32042 0.84323 0.0
H1123 H 0.45615 0.33948 0.89404 0.0
H1124 H 0.51412 0.42444 0.99563 0.0
H1125 H 0.48661 0.37243 0.96828 0.0
H1126 H 0.33394 0.44742 0.84582 0.0
H1127 H 0.31424 0.39926 0.8088 0.0
H1128 H 0.39217 0.49936 0.8803 0.0
H1129 H 0.44002 0.5163 0.93564 0.0
C1130 C 0.60329 0.37481 0.88163 0.0
C1131 C 0.64714 0.37857 0.90366 0.0
C1132 C 0.66523 0.42888 0.9761 0.0
C1133 C 0.62263 0.428 0.95163 0.0
N1134 N 0.54685 0.39028 0.89337 0.0
N1135 N 0.71327 0.3954 0.97854 0.0
C1136 C 0.58999 0.39692 0.90888 0.0
C1137 C 0.67564 0.40057 0.95375 0.0
N1138 N 0.57581 0.35332 0.83322 0.0
N1139 N 0.69673 0.45871 0.0176 0.0
H1140 H 0.72096 0.37457 0.96189 0.0
H1141 H 0.73396 0.40823 0.01663 0.0
H1142 H 0.69071 0.48039 0.03512 0.0
H1143 H 0.72967 0.46346 0.03312 0.0
H1144 H 0.54553 0.35417 0.81302 0.0
H1145 H 0.58417 0.33618 0.81212 0.0
H1146 H 0.52105 0.366 0.86462 0.0
H1147 H 0.53686 0.40704 0.91277 0.0
C1148 C 0.69154 0.33983 0.16721 0.0
C1149 C 0.71226 0.34222 0.22043 0.0
C1150 C 0.67439 0.38388 0.23393 0.0
C1151 C 0.65754 0.3847 0.18143 0.0
N1152 N 0.66035 0.37228 0.10071 0.0
N1153 N 0.73138 0.37616 0.30477 0.0
C1154 C 0.66944 0.3655 0.14894 0.0
C1155 C 0.70592 0.36699 0.25392 0.0
N1156 N 0.69008 0.31111 0.13354 0.0
N1157 N 0.65931 0.39797 0.26469 0.0
H1158 H 0.7561 0.36611 0.32083 0.0
H1159 H 0.73127 0.39744 0.33022 0.0
H1160 H 0.63611 0.41027 0.2517 0.0
H1161 H 0.66684 0.39397 0.30197 0.0
H1162 H 0.67193 0.30564 0.09455 0.0
H1163 H 0.70253 0.28948 0.14477 0.0
H1164 H 0.6725 0.36258 0.07721 0.0
H1165 H 0.64466 0.39123 0.08617 0.0
C1166 C 0.64411 0.6626 0.21479 0.0
C1167 C 0.67463 0.68864 0.19792 0.0
C1168 C 0.64676 0.63521 0.12408 0.0
C1169 C 0.61984 0.6071 0.14448 0.0
N1170 N 0.61095 0.59282 0.22248 0.0
N1171 N 0.70901 0.69945 0.13968 0.0
C1172 C 0.62293 0.6202 0.19339 0.0
C1173 C 0.67612 0.67531 0.15254 0.0
N1174 N 0.63848 0.67797 0.25434 0.0
N1175 N 0.64748 0.62302 0.07952 0.0
H1176 H 0.73168 0.72833 0.16114 0.0
H1177 H 0.71626 0.6901 0.11079 0.0
H1178 H 0.63918 0.59263 0.06503 0.0
H1179 H 0.65893 0.64407 0.05896 0.0
H1180 H 0.61436 0.66067 0.26627 0.0
H1181 H 0.65511 0.70915 0.27137 0.0
H1182 H 0.61526 0.60198 0.25934 0.0
H1183 H 0.60525 0.56212 0.21499 0.0
C1184 C 0.3832 0.62597 0.09533 0.0
C1185 C 0.4183 0.66339 0.12666 0.0
C1186 C 0.47151 0.64593 0.10923 0.0
C1187 C 0.4382 0.60546 0.08744 0.0
N1188 N 0.36098 0.5589 0.04687 0.0
N1189 N 0.49278 0.71373 0.15617 0.0
C1190 C 0.39333 0.59634 0.07525 0.0
C1191 C 0.46145 0.67536 0.13004 0.0
N1192 N 0.34108 0.61751 0.08959 0.0
N1193 N 0.51273 0.655 0.11151 0.0
H1194 H 0.48491 0.73562 0.17038 0.0
H1195 H 0.52599 0.72415 0.16361 0.0
H1196 H 0.52013 0.63336 0.09596 0.0
H1197 H 0.53882 0.68394 0.12606 0.0
H1198 H 0.3144 0.58912 0.07292 0.0
H1199 H 0.33247 0.63936 0.10228 0.0
H1200 H 0.32744 0.55145 0.03303 0.0
H1201 H 0.36712 0.53516 0.03433 0.0
C1202 C 0.39215 0.32551 0.20235 0.0
C1203 C 0.3704 0.34336 0.22257 0.0
C1204 C 0.40243 0.40694 0.19181 0.0
C1205 C 0.42199 0.38812 0.16899 0.0
N1206 N 0.43105 0.32728 0.14826 0.0
N1207 N 0.35319 0.4011 0.23369 0.0
C1208 C 0.41527 0.34669 0.17289 0.0
C1209 C 0.37497 0.38401 0.21618 0.0
N1210 N 0.39191 0.28848 0.21265 0.0
N1211 N 0.41087 0.4474 0.1911 0.0
H1212 H 0.33621 0.38752 0.25535 0.0
H1213 H 0.34989 0.42789 0.2248 0.0
H1214 H 0.42753 0.46419 0.1707 0.0
H1215 H 0.40341 0.46514 0.21257 0.0
H1216 H 0.41136 0.27582 0.2051 0.0
H1217 H 0.37424 0.27128 0.23192 0.0
H1218 H 0.42297 0.29587 0.14383 0.0
H1219 H 0.45015 0.34209 0.12915 0.0
C1220 C 0.92437 0.64023 0.70081 0.0
C1221 C 0.87857 0.6212 0.66962 0.0
C1222 C 0.88701 0.56394 0.63309 0.0
C1223 C 0.93341 0.58557 0.65891 0.0
N1224 N 0.99713 0.6463 0.71373 0.0
N1225 N 0.81683 0.5684 0.60039 0.0
C1226 C 0.95243 0.62417 0.6922 0.0
C1227 C 0.85998 0.58398 0.63416 0.0
N1228 N 0.9408 0.67309 0.7392 0.0
N1229 N 0.86866 0.52366 0.60933 0.0
H1230 H 0.79575 0.58218 0.59985 0.0
H1231 H 0.80301 0.54386 0.57008 0.0
H1232 H 0.88731 0.50729 0.60917 0.0
H1233 H 0.83494 0.50525 0.59445 0.0
H1234 H 0.97307 0.68554 0.7666 0.0
H1235 H 0.92116 0.68584 0.74633 0.0
H1236 H 1.01256 0.67652 0.73378 0.0
H1237 H 1.01879 0.63598 0.70752 0.0
C1238 C 0.36573 0.89081 0.60555 0.0
C1239 C 0.36201 0.91932 0.57057 0.0
C1240 C 0.43001 0.97311 0.62648 0.0
C1241 C 0.44616 0.94315 0.63972 0.0
N1242 N 0.43331 0.87313 0.64075 0.0
N1243 N 0.37594 0.98936 0.56368 0.0
C1244 C 0.41552 0.90131 0.63141 0.0
C1245 C 0.38934 0.96119 0.58552 0.0
N1246 N 0.31305 0.85776 0.61163 0.0
N1247 N 0.45478 0.013 0.65043 0.0
H1248 H 0.34534 0.98085 0.5334 0.0
H1249 H 0.34534 0.98085 0.5334 0.0
H1250 H 0.48521 0.02215 0.68114 0.0
H1251 H 0.44231 0.03506 0.64173 0.0
H1252 H 0.34408 0.87344 0.6127 0.0
H1253 H 0.27947 0.85323 0.594 0.0
H1254 H 0.41686 0.84182 0.62573 0.0
H1255 H 0.46714 0.8825 0.66126 0.0
C1256 C 0.21463 0.36014 0.67666 0.0
C1257 C 0.20619 0.33769 0.71376 0.0
C1258 C 0.1425 0.35317 0.70046 0.0
C1259 C 0.15059 0.37485 0.66285 0.0
N1260 N 0.18581 0.38944 0.60522 0.0
N1261 N 0.15703 0.30654 0.75436 0.0
C1262 C 0.18394 0.37525 0.64769 0.0
C1263 C 0.16876 0.33249 0.72386 0.0
N1264 N 0.25315 0.36926 0.67121 0.0
N1265 N 0.11006 0.3531 0.71468 0.0
H1266 H 0.17594 0.29219 0.7747 0.0
H1267 H 0.12677 0.2967 0.75687 0.0
H1268 H 0.08632 0.36332 0.69442 0.0
H1269 H 0.10775 0.34462 0.74787 0.0
H1270 H 0.26318 0.38936 0.64874 0.0
H1271 H 0.27725 0.35998 0.69284 0.0
H1272 H 0.20709 0.38726 0.58976 0.0
H1273 H 0.16247 0.39895 0.58228 0.0
C1274 C 0.68871 0.1963 0.60995 0.0
C1275 C 0.70972 0.19459 0.66207 0.0
C1276 C 0.67967 0.11901 0.63225 0.0
C1277 C 0.65088 0.12045 0.58392 0.0
N1278 N 0.62306 0.16328 0.53183 0.0
N1279 N 0.71658 0.14809 0.72145 0.0
C1280 C 0.65391 0.15991 0.57421 0.0
C1281 C 0.70275 0.15424 0.67296 0.0
N1282 N 0.70293 0.23193 0.59323 0.0
N1283 N 0.68686 0.08443 0.6391 0.0
H1284 H 0.73338 0.17099 0.75364 0.0
H1285 H 0.7075 0.11877 0.72979 0.0
H1286 H 0.67279 0.05924 0.60946 0.0
H1287 H 0.71095 0.08313 0.67202 0.0
H1288 H 0.68875 0.23446 0.5557 0.0
H1289 H 0.73306 0.25662 0.61407 0.0
H1290 H 0.62179 0.19136 0.52568 0.0
H1291 H 0.59607 0.13801 0.50575 0.0
C1292 C 0.89432 0.3938 0.40754 0.0
C1293 C 0.8992 0.36762 0.37435 0.0
C1294 C 0.97941 0.40295 0.41857 0.0
C1295 C 0.97454 0.43063 0.44979 0.0
N1296 N 0.92864 0.44477 0.48493 0.0
N1297 N 0.94489 0.34973 0.34303 0.0
C1298 C 0.93235 0.42398 0.44752 0.0
C1299 C 0.94141 0.37246 0.37897 0.0
N1300 N 0.85314 0.39012 0.40009 0.0
N1301 N 1.02046 0.4048 0.42865 0.0
H1302 H 0.91732 0.32859 0.31229 0.0
H1303 H 0.97448 0.35413 0.3409 0.0
H1304 H 0.04864 0.42556 0.45916 0.0
H1305 H 0.02633 0.38343 0.41038 0.0
H1306 H 0.84707 0.41088 0.41913 0.0
H1307 H 0.82464 0.36795 0.37155 0.0
H1308 H 0.89919 0.43835 0.4885 0.0
H1309 H 0.95563 0.46542 0.51613 0.0
C1310 C 0.66774 0.83548 0.33411 0.0
C1311 C 0.70703 0.85492 0.32533 0.0
C1312 C 0.69991 0.92221 0.343 0.0
C1313 C 0.66055 0.90264 0.35187 0.0
N1314 N 0.61403 0.83965 0.3654 0.0
N1315 N 0.76076 0.91924 0.32432 0.0
C1316 C 0.6466 0.85896 0.34966 0.0
C1317 C 0.72288 0.89904 0.33075 0.0
N1318 N 0.64876 0.79352 0.32511 0.0
N1319 N 0.71587 0.96383 0.34673 0.0
H1320 H 0.77924 0.90443 0.31872 0.0
H1321 H 0.77474 0.95044 0.32467 0.0
H1322 H 0.69948 0.9808 0.3527 0.0
H1323 H 0.74498 0.98218 0.34419 0.0
H1324 H 0.61773 0.77626 0.32404 0.0
H1325 H 0.6625 0.77563 0.31431 0.0
H1326 H 0.60537 0.80974 0.37161 0.0
H1327 H 0.59826 0.85494 0.37689 0.0
C1328 C 0.1869 0.66026 0.34266 0.0
C1329 C 0.22853 0.69351 0.3717 0.0
C1330 C 0.21564 0.67794 0.44876 0.0
C1331 C 0.1775 0.64078 0.42037 0.0
N1332 N 0.13135 0.59426 0.3391 0.0
N1333 N 0.28436 0.73135 0.45422 0.0
C1334 C 0.1644 0.6314 0.36697 0.0
C1335 C 0.24336 0.70147 0.4253 0.0
N1336 N 0.16753 0.65731 0.29167 0.0
N1337 N 0.22394 0.69263 0.49735 0.0
H1338 H 0.30508 0.74933 0.43852 0.0
H1339 H 0.29918 0.7358 0.49355 0.0
H1340 H 0.20299 0.67851 0.51464 0.0
H1341 H 0.24845 0.72137 0.51825 0.0
H1342 H 0.13518 0.6371 0.26887 0.0
H1343 H 0.18202 0.67876 0.27336 0.0
H1344 H 0.12131 0.58537 0.3004 0.0
H1345 H 0.11667 0.57058 0.35503 0.0
C1346 C 0.34696 0.15879 0.30405 0.0
C1347 C 0.36671 0.20213 0.32622 0.0
C1348 C 0.43745 0.19236 0.37193 0.0
C1349 C 0.41793 0.14941 0.34885 0.0
N1350 N 0.35014 0.09139 0.29878 0.0
N1351 N 0.43597 0.26023 0.37405 0.0
C1352 C 0.37176 0.13303 0.3159 0.0
C1353 C 0.41323 0.2185 0.35878 0.0
N1354 N 0.30367 0.14148 0.27087 0.0
N1355 N 0.47996 0.20882 0.40742 0.0
H1356 H 0.42158 0.28061 0.36296 0.0
H1357 H 0.47008 0.27525 0.39283 0.0
H1358 H 0.50006 0.19308 0.41438 0.0
H1359 H 0.49455 0.237 0.43224 0.0
H1360 H 0.28867 0.11334 0.24593 0.0
H1361 H 0.28252 0.15573 0.26688 0.0
H1362 H 0.31614 0.07547 0.28003 0.0
H1363 H 0.36597 0.07177 0.30709 0.0
C1364 C 0.69372 0.83638 0.65274 0.0
C1365 C 0.69694 0.82783 0.7015 0.0
C1366 C 0.6593 0.87131 0.70755 0.0
C1367 C 0.65451 0.87849 0.6583 0.0
N1368 N 0.65689 0.85961 0.57896 0.0
N1369 N 0.66974 0.82637 0.76655 0.0
C1370 C 0.66804 0.85801 0.62908 0.0
C1371 C 0.6758 0.84212 0.72627 0.0
N1372 N 0.7176 0.82698 0.63045 0.0
N1373 N 0.64823 0.89244 0.73675 0.0
H1374 H 0.67825 0.80253 0.77893 0.0
H1375 H 0.65152 0.83326 0.78367 0.0
H1376 H 0.63316 0.91209 0.72358 0.0
H1377 H 0.65662 0.89247 0.77521 0.0
H1378 H 0.71955 0.83632 0.59747 0.0
H1379 H 0.73915 0.81359 0.64685 0.0
H1380 H 0.66104 0.84113 0.55432 0.0
H1381 H 0.64014 0.87688 0.56103 0.0
C1382 C 0.69381 0.16088 0.44337 0.0
C1383 C 0.7241 0.14237 0.45916 0.0
C1384 C 0.67453 0.08756 0.38306 0.0
C1385 C 0.64621 0.10759 0.36997 0.0
N1386 N 0.64012 0.17143 0.37163 0.0
N1387 N 0.73691 0.08186 0.44897 0.0
C1388 C 0.66214 0.1485 0.39304 0.0
C1389 C 0.71223 0.10333 0.4303 0.0
N1390 N 0.69165 0.18611 0.47764 0.0
N1391 N 0.66302 0.05219 0.35153 0.0
H1392 H 0.76362 0.09311 0.48436 0.0
H1393 H 0.72953 0.05256 0.43141 0.0
H1394 H 0.63454 0.0409 0.31776 0.0
H1395 H 0.68248 0.03601 0.35707 0.0
H1396 H 0.66845 0.19857 0.46772 0.0
H1397 H 0.70889 0.18927 0.5164 0.0
H1398 H 0.65068 0.20213 0.38772 0.0
H1399 H 0.61357 0.15982 0.33608 0.0
C1400 C 0.94278 0.67926 0.44816 0.0
C1401 C 0.92074 0.67824 0.48024 0.0
C1402 C 0.9709 0.65787 0.54477 0.0
C1403 C 0.98958 0.65419 0.51078 0.0
N1404 N 0.99925 0.66528 0.4336 0.0
N1405 N 0.90935 0.66288 0.55574 0.0
C1406 C 0.97751 0.66647 0.46347 0.0
C1407 C 0.9337 0.66681 0.52782 0.0
N1408 N 0.93008 0.69218 0.40334 0.0
N1409 N 0.98965 0.65414 0.59366 0.0
H1410 H 0.88195 0.66977 0.5449 0.0
H1411 H 0.91424 0.64977 0.5877 0.0
H1412 H 1.01683 0.64694 0.60714 0.0
H1413 H 0.98109 0.66252 0.62173 0.0
H1414 H 0.94573 0.69556 0.37889 0.0
H1415 H 0.90364 0.70045 0.39044 0.0
H1416 H 0.99086 0.67114 0.39717 0.0
H1417 H 0.02671 0.65843 0.44564 0.0
C1418 C 0.39376 0.86476 0.41338 0.0
C1419 C 0.40044 0.85127 0.37138 0.0
C1420 C 0.44953 0.9227 0.37709 0.0
C1421 C 0.44771 0.93359 0.4228 0.0
N1422 N 0.4007 0.92283 0.46665 0.0
N1423 N 0.44093 0.86883 0.31722 0.0
C1424 C 0.41354 0.90709 0.43458 0.0
C1425 C 0.42957 0.88056 0.35363 0.0
N1426 N 0.37236 0.8371 0.43639 0.0
N1427 N 0.46772 0.95297 0.35471 0.0
H1428 H 0.43232 0.83885 0.30171 0.0
H1429 H 0.46437 0.88918 0.3066 0.0
H1430 H 0.47732 0.98371 0.36945 0.0
H1431 H 0.46657 0.94768 0.31851 0.0
H1432 H 0.36975 0.84564 0.46947 0.0
H1433 H 0.36239 0.80554 0.42673 0.0
H1434 H 0.37346 0.90565 0.47378 0.0
H1435 H 0.41451 0.95437 0.48105 0.0
C1436 C 0.28915 0.46078 0.53286 0.0
C1437 C 0.27164 0.42208 0.50076 0.0
C1438 C 0.19734 0.40881 0.49154 0.0
C1439 C 0.21397 0.44964 0.51755 0.0
N1440 N 0.27447 0.51491 0.56486 0.0
N1441 N 0.21023 0.35908 0.44796 0.0
C1442 C 0.25972 0.47559 0.53972 0.0
C1443 C 0.22609 0.39563 0.4803 0.0
N1444 N 0.33381 0.48336 0.55564 0.0
N1445 N 0.15403 0.38301 0.47768 0.0
H1446 H 0.23041 0.34812 0.43908 0.0
H1447 H 0.17689 0.34036 0.42773 0.0
H1448 H 0.13227 0.39224 0.48557 0.0
H1449 H 0.14043 0.35174 0.46254 0.0
H1450 H 0.34941 0.51089 0.58181 0.0
H1451 H 0.35606 0.47324 0.55063 0.0
H1452 H 0.30685 0.53674 0.57841 0.0
H1453 H 0.25389 0.52678 0.57103 0.0
C1454 C 0.41994 0.1629 0.59201 0.0
C1455 C 0.41779 0.16674 0.63978 0.0
C1456 C 0.46491 0.1301 0.67036 0.0
C1457 C 0.46971 0.12855 0.62358 0.0
N1458 N 0.45932 0.15161 0.54437 0.0
N1459 N 0.4445 0.16116 0.72746 0.0
C1460 C 0.44923 0.14723 0.58559 0.0
C1461 C 0.44219 0.1525 0.67981 0.0
N1462 N 0.39351 0.1737 0.55257 0.0
N1463 N 0.48008 0.1087 0.70516 0.0
H1464 H 0.4271 0.17613 0.73581 0.0
H1465 H 0.46642 0.15651 0.75958 0.0
H1466 H 0.49842 0.09298 0.70197 0.0
H1467 H 0.47157 0.10379 0.73584 0.0
H1468 H 0.38979 0.16735 0.51536 0.0
H1469 H 0.37254 0.18622 0.55635 0.0
H1470 H 0.44868 0.16818 0.51765 0.0
H1471 H 0.48211 0.14224 0.53954 0.0
C1472 C 0.91926 0.3507 0.73852 0.0
C1473 C 0.87471 0.34615 0.71887 0.0
C1474 C 0.89174 0.39165 0.66004 0.0
C1475 C 0.9342 0.39157 0.67478 0.0
N1476 N 0.98427 0.36314 0.72241 0.0
N1477 N 0.81674 0.35542 0.65156 0.0
C1478 C 0.94673 0.36881 0.71244 0.0
C1479 C 0.86051 0.36471 0.67699 0.0
N1480 N 0.93652 0.3399 0.78369 0.0
N1481 N 0.88163 0.41907 0.63201 0.0
H1482 H 0.79246 0.3343 0.66046 0.0
H1483 H 0.80419 0.36499 0.61797 0.0
H1484 H 0.9038 0.44069 0.6208 0.0
H1485 H 0.85309 0.42346 0.62493 0.0
H1486 H 0.96982 0.34629 0.80223 0.0
H1487 H 0.91888 0.32886 0.80557 0.0
H1488 H 0.99269 0.3434 0.74553 0.0
H1489 H 1.00449 0.37457 0.70338 0.0
C1490 C 0.20835 0.66411 0.66208 0.0
C1491 C 0.2309 0.67296 0.71502 0.0
C1492 C 0.18769 0.60219 0.71772 0.0
C1493 C 0.16495 0.59368 0.66388 0.0
N1494 N 0.18141 0.61056 0.59191 0.0
N1495 N 0.25302 0.64679 0.7912 0.0
C1496 C 0.18257 0.62279 0.63742 0.0
C1497 C 0.22379 0.64103 0.74258 0.0
N1498 N 0.21329 0.69444 0.63463 0.0
N1499 N 0.17696 0.57296 0.74505 0.0
H1500 H 0.28001 0.67455 0.81002 0.0
H1501 H 0.25265 0.62325 0.81133 0.0
H1502 H 0.15922 0.54193 0.72868 0.0
H1503 H 0.18721 0.57963 0.78421 0.0
H1504 H 0.19522 0.6885 0.59554 0.0
H1505 H 0.23274 0.72551 0.6511 0.0
H1506 H 0.20035 0.63131 0.5765 0.0
H1507 H 0.17008 0.57978 0.57626 0.0
loop_
_geom_bond_atom_site_label_1
_geom_bond_atom_site_label_2
_geom_bond_distance
_geom_bond_site_symmetry_2
_ccdc_geom_bond_type
C0 Eu1 2.835 . S
C0 C2 1.500 . S
C0 O20 1.257 . S
C0 O21 1.260 . S
Eu1 C0 2.835 . S
Eu1 O20 2.473 . S
Eu1 O21 2.480 . S
Eu1 O22 2.430 . S
Eu1 O23 2.670 . S
Eu1 O24 2.394 . S
Eu1 O29 2.355 . S
Eu1 O31 2.374 . S
C2 C0 1.500 . S
C2 C3 1.377 . S
C2 C7 1.377 . S
C3 C2 1.377 . S
C3 C4 1.395 . S
C3 H32 0.931 . S
C4 C3 1.395 . S
C4 C5 1.383 . S
C4 H33 0.931 . S
C5 C4 1.383 . S
C5 C6 1.394 . S
C6 C5 1.394 . S
C6 C7 1.378 . S
C6 H34 0.931 . S
C7 C2 1.377 . S
C7 C6 1.378 . S
C7 H35 0.931 . S
C8 O22 1.259 . S
C8 O23 1.270 . S
C9 O24 1.251 . S
C9 O25 1.251 . S
C10 Eu11 2.835 . S
C10 C12 1.500 . S
C10 O26 1.257 . S
C10 O27 1.260 . S
Eu11 C10 2.835 . S
Eu11 O23 2.355 . S
Eu11 O25 2.374 . S
Eu11 O26 2.473 . S
Eu11 O27 2.480 . S
Eu11 O28 2.430 . S
Eu11 O29 2.670 . S
Eu11 O30 2.394 . S
C12 C10 1.500 . S
C12 C13 1.377 . S
C12 C17 1.377 . S
C13 C12 1.377 . S
C13 C14 1.395 . S
C13 H36 0.931 . S
C14 C13 1.395 . S
C14 C15 1.383 . S
C14 H37 0.931 . S
C15 C14 1.383 . S
C15 C16 1.394 . S
C16 C15 1.394 . S
C16 C17 1.378 . S
C16 H38 0.931 . S
C17 C12 1.377 . S
C17 C16 1.378 . S
C17 H39 0.931 . S
C18 O28 1.259 . S
C18 O29 1.270 . S
C19 O30 1.251 . S
C19 O31 1.251 . S
O20 C0 1.257 . S
O20 Eu1 2.473 . S
O21 C0 1.260 . S
O21 Eu1 2.480 . S
O22 Eu1 2.430 . S
O22 C8 1.259 . S
O23 Eu1 2.670 . S
O23 C8 1.270 . S
O23 Eu11 2.355 . S
O24 Eu1 2.394 . S
O24 C9 1.251 . S
O25 C9 1.251 . S
O25 Eu11 2.374 . S
O26 C10 1.257 . S
O26 Eu11 2.473 . S
O27 C10 1.260 . S
O27 Eu11 2.480 . S
O28 Eu11 2.430 . S
O28 C18 1.259 . S
O29 Eu1 2.355 . S
O29 Eu11 2.670 . S
O29 C18 1.270 . S
O30 Eu11 2.394 . S
O30 C19 1.251 . S
O31 Eu1 2.374 . S
O31 C19 1.251 . S
H32 C3 0.931 . S
H33 C4 0.931 . S
H34 C6 0.931 . S
H35 C7 0.931 . S
H36 C13 0.931 . S
H37 C14 0.931 . S
H38 C16 0.931 . S
H39 C17 0.931 . S
C40 Eu41 2.835 . S
C40 C42 1.500 . S
C40 O60 1.257 . S
C40 O61 1.260 . S
Eu41 C40 2.835 . S
Eu41 O60 2.473 . S
Eu41 O61 2.480 . S
Eu41 O62 2.430 . S
Eu41 O63 2.670 . S
Eu41 O64 2.394 . S
Eu41 O69 2.355 . S
Eu41 O71 2.374 . S
C42 C40 1.500 . S
C42 C43 1.377 . S
C42 C47 1.377 . S
C43 C42 1.377 . S
C43 C44 1.395 . S
C43 H72 0.931 . S
C44 C43 1.395 . S
C44 C45 1.383 . S
C44 H73 0.931 . S
C45 C44 1.383 . S
C45 C46 1.394 . S
C46 C45 1.394 . S
C46 C47 1.378 . S
C46 H74 0.931 . S
C47 C42 1.377 . S
C47 C46 1.378 . S
C47 H75 0.931 . S
C48 O62 1.259 . S
C48 O63 1.270 . S
C49 O64 1.251 . S
C49 O65 1.251 . S
C50 Eu51 2.835 . S
C50 C52 1.500 . S
C50 O66 1.257 . S
C50 O67 1.260 . S
Eu51 C50 2.835 . S
Eu51 O63 2.355 . S
Eu51 O65 2.374 . S
Eu51 O66 2.473 . S
Eu51 O67 2.480 . S
Eu51 O68 2.430 . S
Eu51 O69 2.670 . S
Eu51 O70 2.394 . S
C52 C50 1.500 . S
C52 C53 1.377 . S
C52 C57 1.377 . S
C53 C52 1.377 . S
C53 C54 1.395 . S
C53 H76 0.931 . S
C54 C53 1.395 . S
C54 C55 1.383 . S
C54 H77 0.931 . S
C55 C54 1.383 . S
C55 C56 1.394 . S
C56 C55 1.394 . S
C56 C57 1.378 . S
C56 H78 0.931 . S
C57 C52 1.377 . S
C57 C56 1.378 . S
C57 H79 0.931 . S
C58 O68 1.259 . S
C58 O69 1.270 . S
C59 O70 1.251 . S
C59 O71 1.251 . S
O60 C40 1.257 . S
O60 Eu41 2.473 . S
O61 C40 1.260 . S
O61 Eu41 2.480 . S
O62 Eu41 2.430 . S
O62 C48 1.259 . S
O63 Eu41 2.670 . S
O63 C48 1.270 . S
O63 Eu51 2.355 . S
O64 Eu41 2.394 . S
O64 C49 1.251 . S
O65 C49 1.251 . S
O65 Eu51 2.374 . S
O66 C50 1.257 . S
O66 Eu51 2.473 . S
O67 C50 1.260 . S
O67 Eu51 2.480 . S
O68 Eu51 2.430 . S
O68 C58 1.259 . S
O69 Eu41 2.355 . S
O69 Eu51 2.670 . S
O69 C58 1.270 . S
O70 Eu51 2.394 . S
O70 C59 1.251 . S
O71 Eu41 2.374 . S
O71 C59 1.251 . S
H72 C43 0.931 . S
H73 C44 0.931 . S
H74 C46 0.931 . S
H75 C47 0.931 . S
H76 C53 0.931 . S
H77 C54 0.931 . S
H78 C56 0.931 . S
H79 C57 0.931 . S
C80 Eu81 2.835 . S
C80 C82 1.500 . S
C80 O100 1.257 . S
C80 O101 1.260 . S
Eu81 C80 2.835 . S
Eu81 O100 2.473 . S
Eu81 O101 2.480 . S
Eu81 O102 2.430 . S
Eu81 O103 2.670 . S
Eu81 O104 2.394 . S
Eu81 O109 2.355 . S
Eu81 O111 2.374 . S
C82 C80 1.500 . S
C82 C83 1.377 . S
C82 C87 1.377 . S
C83 C82 1.377 . S
C83 C84 1.395 . S
C83 H112 0.931 . S
C84 C83 1.395 . S
C84 C85 1.383 . S
C84 H113 0.931 . S
C85 C84 1.383 . S
C85 C86 1.394 . S
C86 C85 1.394 . S
C86 C87 1.378 . S
C86 H114 0.931 . S
C87 C82 1.377 . S
C87 C86 1.378 . S
C87 H115 0.931 . S
C88 O102 1.259 . S
C88 O103 1.270 . S
C89 O104 1.251 . S
C89 O105 1.251 . S
C90 Eu91 2.835 . S
C90 C92 1.500 . S
C90 O106 1.257 . S
C90 O107 1.260 . S
Eu91 C90 2.835 . S
Eu91 O103 2.355 . S
Eu91 O105 2.374 . S
Eu91 O106 2.473 . S
Eu91 O107 2.480 . S
Eu91 O108 2.430 . S
Eu91 O109 2.670 . S
Eu91 O110 2.394 . S
C92 C90 1.500 . S
C92 C93 1.377 . S
C92 C97 1.377 . S
C93 C92 1.377 . S
C93 C94 1.395 . S
C93 H116 0.931 . S
C94 C93 1.395 . S
C94 C95 1.383 . S
C94 H117 0.931 . S
C95 C94 1.383 . S
C95 C96 1.394 . S
C96 C95 1.394 . S
C96 C97 1.378 . S
C96 H118 0.931 . S
C97 C92 1.377 . S
C97 C96 1.378 . S
C97 H119 0.931 . S
C98 O108 1.259 . S
C98 O109 1.270 . S
C99 O110 1.251 . S
C99 O111 1.251 . S
O100 C80 1.257 . S
O100 Eu81 2.473 . S
O101 C80 1.260 . S
O101 Eu81 2.480 . S
O102 Eu81 2.430 . S
O102 C88 1.259 . S
O103 Eu81 2.670 . S
O103 C88 1.270 . S
O103 Eu91 2.355 . S
O104 Eu81 2.394 . S
O104 C89 1.251 . S
O105 C89 1.251 . S
O105 Eu91 2.374 . S
O106 C90 1.257 . S
O106 Eu91 2.473 . S
O107 C90 1.260 . S
O107 Eu91 2.480 . S
O108 Eu91 2.430 . S
O108 C98 1.259 . S
O109 Eu81 2.355 . S
O109 Eu91 2.670 . S
O109 C98 1.270 . S
O110 Eu91 2.394 . S
O110 C99 1.251 . S
O111 Eu81 2.374 . S
O111 C99 1.251 . S
H112 C83 0.931 . S
H113 C84 0.931 . S
H114 C86 0.931 . S
H115 C87 0.931 . S
H116 C93 0.931 . S
H117 C94 0.931 . S
H118 C96 0.931 . S
H119 C97 0.931 . S
C120 Eu121 2.835 . S
C120 C122 1.500 . S
C120 O140 1.257 . S
C120 O141 1.260 . S
Eu121 C120 2.835 . S
Eu121 O140 2.473 . S
Eu121 O141 2.480 . S
Eu121 O142 2.430 . S
Eu121 O143 2.670 . S
Eu121 O144 2.394 . S
Eu121 O149 2.355 . S
Eu121 O151 2.374 . S
C122 C120 1.500 . S
C122 C123 1.377 . S
C122 C127 1.377 . S
C123 C122 1.377 . S
C123 C124 1.395 . S
C123 H152 0.931 . S
C124 C123 1.395 . S
C124 C125 1.383 . S
C124 H153 0.931 . S
C125 C124 1.383 . S
C125 C126 1.394 . S
C126 C125 1.394 . S
C126 C127 1.378 . S
C126 H154 0.931 . S
C127 C122 1.377 . S
C127 C126 1.378 . S
C127 H155 0.931 . S
C128 O142 1.259 . S
C128 O143 1.270 . S
C129 O144 1.251 . S
C129 O145 1.251 . S
C130 Eu131 2.835 . S
C130 C132 1.500 . S
C130 O146 1.257 . S
C130 O147 1.260 . S
Eu131 C130 2.835 . S
Eu131 O143 2.355 . S
Eu131 O145 2.374 . S
Eu131 O146 2.473 . S
Eu131 O147 2.480 . S
Eu131 O148 2.430 . S
Eu131 O149 2.670 . S
Eu131 O150 2.394 . S
C132 C130 1.500 . S
C132 C133 1.377 . S
C132 C137 1.377 . S
C133 C132 1.377 . S
C133 C134 1.395 . S
C133 H156 0.931 . S
C134 C133 1.395 . S
C134 C135 1.383 . S
C134 H157 0.931 . S
C135 C134 1.383 . S
C135 C136 1.394 . S
C136 C135 1.394 . S
C136 C137 1.378 . S
C136 H158 0.931 . S
C137 C132 1.377 . S
C137 C136 1.378 . S
C137 H159 0.931 . S
C138 O148 1.259 . S
C138 O149 1.270 . S
C139 O150 1.251 . S
C139 O151 1.251 . S
O140 C120 1.257 . S
O140 Eu121 2.473 . S
O141 C120 1.260 . S
O141 Eu121 2.480 . S
O142 Eu121 2.430 . S
O142 C128 1.259 . S
O143 Eu121 2.670 . S
O143 C128 1.270 . S
O143 Eu131 2.355 . S
O144 Eu121 2.394 . S
O144 C129 1.251 . S
O145 C129 1.251 . S
O145 Eu131 2.374 . S
O146 C130 1.257 . S
O146 Eu131 2.473 . S
O147 C130 1.260 . S
O147 Eu131 2.480 . S
O148 Eu131 2.430 . S
O148 C138 1.259 . S
O149 Eu121 2.355 . S
O149 Eu131 2.670 . S
O149 C138 1.270 . S
O150 Eu131 2.394 . S
O150 C139 1.251 . S
O151 Eu121 2.374 . S
O151 C139 1.251 . S
H152 C123 0.931 . S
H153 C124 0.931 . S
H154 C126 0.931 . S
H155 C127 0.931 . S
H156 C133 0.931 . S
H157 C134 0.931 . S
H158 C136 0.931 . S
H159 C137 0.931 . S
C160 Eu161 2.835 . S
C160 C162 1.500 . S
C160 O180 1.257 . S
C160 O181 1.260 . S
Eu161 C160 2.835 . S
Eu161 O180 2.473 . S
Eu161 O181 2.480 . S
Eu161 O182 2.430 . S
Eu161 O183 2.670 . S
Eu161 O184 2.394 . S
Eu161 O189 2.355 . S
Eu161 O191 2.374 . S
C162 C160 1.500 . S
C162 C163 1.377 . S
C162 C167 1.377 . S
C163 C162 1.377 . S
C163 C164 1.395 . S
C163 H192 0.931 . S
C164 C163 1.395 . S
C164 C165 1.383 . S
C164 H193 0.931 . S
C165 C164 1.383 . S
C165 C166 1.394 . S
C166 C165 1.394 . S
C166 C167 1.378 . S
C166 H194 0.931 . S
C167 C162 1.377 . S
C167 C166 1.378 . S
C167 H195 0.931 . S
C168 O182 1.259 . S
C168 O183 1.270 . S
C169 O184 1.251 . S
C169 O185 1.251 . S
C170 Eu171 2.835 . S
C170 C172 1.500 . S
C170 O186 1.257 . S
C170 O187 1.260 . S
Eu171 C170 2.835 . S
Eu171 O183 2.355 . S
Eu171 O185 2.374 . S
Eu171 O186 2.473 . S
Eu171 O187 2.480 . S
Eu171 O188 2.430 . S
Eu171 O189 2.670 . S
Eu171 O190 2.394 . S
C172 C170 1.500 . S
C172 C173 1.377 . S
C172 C177 1.377 . S
C173 C172 1.377 . S
C173 C174 1.395 1_556 S
C173 H196 0.931 . S
C174 C173 1.395 1_554 S
C174 C175 1.383 1_554 S
C174 H197 0.931 . S
C175 C174 1.383 1_556 S
C175 C176 1.394 . S
C176 C175 1.394 . S
C176 C177 1.378 . S
C176 H198 0.931 . S
C177 C172 1.377 . S
C177 C176 1.378 . S
C177 H199 0.931 . S
C178 O188 1.259 . S
C178 O189 1.270 . S
C179 O190 1.251 . S
C179 O191 1.251 . S
O180 C160 1.257 . S
O180 Eu161 2.473 . S
O181 C160 1.260 . S
O181 Eu161 2.480 . S
O182 Eu161 2.430 . S
O182 C168 1.259 . S
O183 Eu161 2.670 . S
O183 C168 1.270 . S
O183 Eu171 2.355 . S
O184 Eu161 2.394 . S
O184 C169 1.251 . S
O185 C169 1.251 . S
O185 Eu171 2.374 . S
O186 C170 1.257 . S
O186 Eu171 2.473 . S
O187 C170 1.260 . S
O187 Eu171 2.480 . S
O188 Eu171 2.430 . S
O188 C178 1.259 . S
O189 Eu161 2.355 . S
O189 Eu171 2.670 . S
O189 C178 1.270 . S
O190 Eu171 2.394 . S
O190 C179 1.251 . S
O191 Eu161 2.374 . S
O191 C179 1.251 . S
H192 C163 0.931 . S
H193 C164 0.931 . S
H194 C166 0.931 . S
H195 C167 0.931 . S
H196 C173 0.931 . S
H197 C174 0.931 . S
H198 C176 0.931 . S
H199 C177 0.931 . S
C200 Eu201 2.835 . S
C200 C202 1.500 . S
C200 O220 1.257 . S
C200 O221 1.260 . S
Eu201 C200 2.835 . S
Eu201 O220 2.473 . S
Eu201 O221 2.480 . S
Eu201 O222 2.430 . S
Eu201 O223 2.670 . S
Eu201 O224 2.394 . S
Eu201 O229 2.355 . S
Eu201 O231 2.374 . S
C202 C200 1.500 . S
C202 C203 1.377 . S
C202 C207 1.377 . S
C203 C202 1.377 . S
C203 C204 1.395 . S
C203 H232 0.931 . S
C204 C203 1.395 . S
C204 C205 1.383 . S
C204 H233 0.931 . S
C205 C204 1.383 . S
C205 C206 1.394 . S
C206 C205 1.394 . S
C206 C207 1.378 . S
C206 H234 0.931 . S
C207 C202 1.377 . S
C207 C206 1.378 . S
C207 H235 0.931 . S
C208 O222 1.259 . S
C208 O223 1.270 . S
C209 O224 1.251 . S
C209 O225 1.251 . S
C210 Eu211 2.835 . S
C210 C212 1.500 . S
C210 O226 1.257 . S
C210 O227 1.260 . S
Eu211 C210 2.835 . S
Eu211 O223 2.355 . S
Eu211 O225 2.374 . S
Eu211 O226 2.473 . S
Eu211 O227 2.480 . S
Eu211 O228 2.430 . S
Eu211 O229 2.670 . S
Eu211 O230 2.394 . S
C212 C210 1.500 . S
C212 C213 1.377 . S
C212 C217 1.377 . S
C213 C212 1.377 . S
C213 C214 1.395 . S
C213 H236 0.931 . S
C214 C213 1.395 . S
C214 C215 1.383 . S
C214 H237 0.931 . S
C215 C214 1.383 . S
C215 C216 1.394 . S
C216 C215 1.394 . S
C216 C217 1.378 . S
C216 H238 0.931 . S
C217 C212 1.377 . S
C217 C216 1.378 . S
C217 H239 0.931 . S
C218 O228 1.259 . S
C218 O229 1.270 . S
C219 O230 1.251 . S
C219 O231 1.251 . S
O220 C200 1.257 . S
O220 Eu201 2.473 . S
O221 C200 1.260 . S
O221 Eu201 2.480 . S
O222 Eu201 2.430 . S
O222 C208 1.259 . S
O223 Eu201 2.670 . S
O223 C208 1.270 . S
O223 Eu211 2.355 . S
O224 Eu201 2.394 . S
O224 C209 1.251 . S
O225 C209 1.251 . S
O225 Eu211 2.374 . S
O226 C210 1.257 . S
O226 Eu211 2.473 . S
O227 C210 1.260 . S
O227 Eu211 2.480 . S
O228 Eu211 2.430 . S
O228 C218 1.259 . S
O229 Eu201 2.355 . S
O229 Eu211 2.670 . S
O229 C218 1.270 . S
O230 Eu211 2.394 . S
O230 C219 1.251 . S
O231 Eu201 2.374 . S
O231 C219 1.251 . S
H232 C203 0.931 . S
H233 C204 0.931 . S
H234 C206 0.931 . S
H235 C207 0.931 . S
H236 C213 0.931 . S
H237 C214 0.931 . S
H238 C216 0.931 . S
H239 C217 0.931 . S
C240 Eu241 2.835 . S
C240 C242 1.500 . S
C240 O260 1.257 . S
C240 O261 1.260 . S
Eu241 C240 2.835 . S
Eu241 O260 2.473 . S
Eu241 O261 2.480 . S
Eu241 O262 2.430 . S
Eu241 O263 2.670 . S
Eu241 O264 2.394 . S
Eu241 O269 2.355 . S
Eu241 O271 2.374 . S
C242 C240 1.500 . S
C242 C243 1.377 . S
C242 C247 1.377 . S
C243 C242 1.377 . S
C243 C244 1.395 . S
C243 H272 0.931 . S
C244 C243 1.395 . S
C244 C245 1.383 . S
C244 H273 0.931 . S
C245 C244 1.383 . S
C245 C246 1.394 . S
C246 C245 1.394 . S
C246 C247 1.378 . S
C246 H274 0.931 . S
C247 C242 1.377 . S
C247 C246 1.378 . S
C247 H275 0.931 . S
C248 O262 1.259 . S
C248 O263 1.270 . S
C249 O264 1.251 . S
C249 O265 1.251 . S
C250 Eu251 2.835 . S
C250 C252 1.500 . S
C250 O266 1.257 . S
C250 O267 1.260 . S
Eu251 C250 2.835 . S
Eu251 O263 2.355 . S
Eu251 O265 2.374 . S
Eu251 O266 2.473 . S
Eu251 O267 2.480 . S
Eu251 O268 2.430 . S
Eu251 O269 2.670 . S
Eu251 O270 2.394 . S
C252 C250 1.500 . S
C252 C253 1.377 . S
C252 C257 1.377 . S
C253 C252 1.377 . S
C253 C254 1.395 . S
C253 H276 0.931 . S
C254 C253 1.395 . S
C254 C255 1.383 . S
C254 H277 0.931 . S
C255 C254 1.383 . S
C255 C256 1.394 . S
C256 C255 1.394 . S
C256 C257 1.378 . S
C256 H278 0.931 . S
C257 C252 1.377 . S
C257 C256 1.378 . S
C257 H279 0.931 . S
C258 O268 1.259 . S
C258 O269 1.270 . S
C259 O270 1.251 . S
C259 O271 1.251 . S
O260 C240 1.257 . S
O260 Eu241 2.473 . S
O261 C240 1.260 . S
O261 Eu241 2.480 . S
O262 Eu241 2.430 . S
O262 C248 1.259 . S
O263 Eu241 2.670 . S
O263 C248 1.270 . S
O263 Eu251 2.355 . S
O264 Eu241 2.394 . S
O264 C249 1.251 . S
O265 C249 1.251 . S
O265 Eu251 2.374 . S
O266 C250 1.257 . S
O266 Eu251 2.473 . S
O267 C250 1.260 . S
O267 Eu251 2.480 . S
O268 Eu251 2.430 . S
O268 C258 1.259 . S
O269 Eu241 2.355 . S
O269 Eu251 2.670 . S
O269 C258 1.270 . S
O270 Eu251 2.394 . S
O270 C259 1.251 . S
O271 Eu241 2.374 . S
O271 C259 1.251 . S
H272 C243 0.931 . S
H273 C244 0.931 . S
H274 C246 0.931 . S
H275 C247 0.931 . S
H276 C253 0.931 . S
H277 C254 0.931 . S
H278 C256 0.931 . S
H279 C257 0.931 . S
C280 Eu281 2.835 . S
C280 C282 1.500 . S
C280 O300 1.257 . S
C280 O301 1.260 . S
Eu281 C280 2.835 . S
Eu281 O300 2.473 . S
Eu281 O301 2.480 . S
Eu281 O302 2.430 . S
Eu281 O303 2.670 . S
Eu281 O304 2.394 . S
Eu281 O309 2.355 . S
Eu281 O311 2.374 . S
C282 C280 1.500 . S
C282 C283 1.377 . S
C282 C287 1.377 . S
C283 C282 1.377 . S
C283 C284 1.395 . S
C283 H312 0.931 . S
C284 C283 1.395 . S
C284 C285 1.383 . S
C284 H313 0.931 . S
C285 C284 1.383 . S
C285 C286 1.394 . S
C286 C285 1.394 . S
C286 C287 1.378 . S
C286 H314 0.931 . S
C287 C282 1.377 . S
C287 C286 1.378 . S
C287 H315 0.931 . S
C288 O302 1.259 . S
C288 O303 1.270 . S
C289 O304 1.251 . S
C289 O305 1.251 . S
C290 Eu291 2.835 . S
C290 C292 1.500 . S
C290 O306 1.257 . S
C290 O307 1.260 . S
Eu291 C290 2.835 . S
Eu291 O303 2.355 . S
Eu291 O305 2.374 . S
Eu291 O306 2.473 . S
Eu291 O307 2.480 . S
Eu291 O308 2.430 . S
Eu291 O309 2.670 . S
Eu291 O310 2.394 . S
C292 C290 1.500 . S
C292 C293 1.377 . S
C292 C297 1.377 . S
C293 C292 1.377 . S
C293 C294 1.395 . S
C293 H316 0.931 . S
C294 C293 1.395 . S
C294 C295 1.383 . S
C294 H317 0.931 . S
C295 C294 1.383 . S
C295 C296 1.394 . S
C296 C295 1.394 . S
C296 C297 1.378 . S
C296 H318 0.931 . S
C297 C292 1.377 . S
C297 C296 1.378 . S
C297 H319 0.931 . S
C298 O308 1.259 . S
C298 O309 1.270 . S
C299 O310 1.251 . S
C299 O311 1.251 . S
O300 C280 1.257 . S
O300 Eu281 2.473 . S
O301 C280 1.260 . S
O301 Eu281 2.480 . S
O302 Eu281 2.430 . S
O302 C288 1.259 . S
O303 Eu281 2.670 . S
O303 C288 1.270 . S
O303 Eu291 2.355 . S
O304 Eu281 2.394 . S
O304 C289 1.251 . S
O305 C289 1.251 . S
O305 Eu291 2.374 . S
O306 C290 1.257 . S
O306 Eu291 2.473 . S
O307 C290 1.260 . S
O307 Eu291 2.480 . S
O308 Eu291 2.430 . S
O308 C298 1.259 . S
O309 Eu281 2.355 . S
O309 Eu291 2.670 . S
O309 C298 1.270 . S
O310 Eu291 2.394 . S
O310 C299 1.251 . S
O311 Eu281 2.374 . S
O311 C299 1.251 . S
H312 C283 0.931 . S
H313 C284 0.931 . S
H314 C286 0.931 . S
H315 C287 0.931 . S
H316 C293 0.931 . S
H317 C294 0.931 . S
H318 C296 0.931 . S
H319 C297 0.931 . S
Cd320 N323 2.334 1_545 S
Cd320 N349 2.304 1_455 S
Cd320 O356 2.268 1_445 S
Cd320 O359 2.273 . S
Cd320 O360 2.417 1_445 S
Cd320 O361 2.324 1_445 S
Cd321 N336 2.304 1_455 S
Cd321 N340 2.334 . S
Cd321 O357 2.273 1_445 S
Cd321 O358 2.268 . S
Cd321 O362 2.417 . S
Cd321 O363 2.330 . S
C322 N323 1.332 . S
C322 C326 1.381 . S
C322 H328 0.931 1_565 S
N323 Cd320 2.334 1_565 S
N323 C322 1.332 . S
N323 C327 1.328 . S
C324 C325 1.396 . S
C324 C327 1.378 . S
C324 H366 0.931 . S
C325 C324 1.396 . S
C325 C326 1.382 . S
C326 C322 1.381 . S
C326 C325 1.382 . S
C326 H367 0.930 . S
C327 N323 1.328 . S
C327 C324 1.378 . S
C327 H329 0.930 . S
H328 C322 0.931 1_545 S
H329 C327 0.930 . S
C330 O356 1.238 . S
C330 O357 1.253 . S
C331 C332 1.379 . S
C331 N336 1.337 . S
C331 H337 0.929 . S
C332 C331 1.379 . S
C332 C333 1.380 . S
C332 H368 0.929 . S
C333 C332 1.380 . S
C333 C334 1.399 . S
C334 C333 1.399 . S
C334 C335 1.376 1_655 S
C334 H369 0.931 . S
C335 C334 1.376 1_455 S
C335 N336 1.338 1_455 S
C335 H338 0.930 . S
N336 Cd321 2.304 1_655 S
N336 C331 1.337 . S
N336 C335 1.338 1_655 S
H337 C331 0.929 . S
H338 C335 0.930 . S
C339 N340 1.332 1_565 S
C339 C343 1.381 . S
C339 H345 0.931 . S
N340 Cd321 2.334 . S
N340 C339 1.332 1_545 S
N340 C344 1.328 . S
C341 C342 1.396 . S
C341 C344 1.378 1_565 S
C341 H370 0.931 1_565 S
C342 C341 1.396 . S
C342 C343 1.382 . S
C343 C339 1.381 . S
C343 C342 1.382 . S
C343 H371 0.930 . S
C344 N340 1.328 . S
C344 C341 1.378 1_545 S
C344 H346 0.930 . S
H345 C339 0.931 . S
H346 C344 0.930 . S
C347 O358 1.238 . S
C347 O359 1.253 . S
C348 O360 1.239 . S
C348 O361 1.236 . S
N349 Cd320 2.304 1_655 S
N349 C350 1.337 . S
N349 C354 1.338 . S
C350 N349 1.337 . S
C350 C351 1.379 . S
C350 H364 0.929 1_655 S
C351 C350 1.379 . S
C351 C352 1.380 . S
C351 H372 0.929 . S
C352 C351 1.380 . S
C352 C353 1.399 . S
C353 C352 1.399 . S
C353 C354 1.376 . S
C353 H373 0.931 . S
C354 N349 1.338 . S
C354 C353 1.376 . S
C354 H365 0.930 . S
C355 O362 1.239 . S
C355 O363 1.230 . S
O356 Cd320 2.268 1_665 S
O356 C330 1.238 . S
O357 Cd321 2.273 1_665 S
O357 C330 1.253 . S
O358 Cd321 2.268 . S
O358 C347 1.238 . S
O359 Cd320 2.273 . S
O359 C347 1.253 . S
O360 Cd320 2.417 1_665 S
O360 C348 1.239 . S
O361 Cd320 2.324 1_665 S
O361 C348 1.236 . S
O362 Cd321 2.417 . S
O362 C355 1.239 . S
O363 Cd321 2.330 . S
O363 C355 1.230 . S
H364 C350 0.929 1_455 S
H365 C354 0.930 . S
H366 C324 0.931 . S
H367 C326 0.930 . S
H368 C332 0.929 . S
H369 C334 0.931 . S
H370 C341 0.931 1_545 S
H371 C343 0.930 . S
H372 C351 0.929 . S
H373 C353 0.931 . S
Cd374 N377 2.334 1_545 S
Cd374 N403 2.304 . S
Cd374 O410 2.268 1_544 S
Cd374 O413 2.273 . S
Cd374 O414 2.417 1_545 S
Cd374 O415 2.330 1_545 S
Cd375 N390 2.304 . S
Cd375 N394 2.334 . S
Cd375 O411 2.273 1_545 S
Cd375 O412 2.268 1_556 S
Cd375 O416 2.417 . S
Cd375 O417 2.330 . S
C376 N377 1.332 . S
C376 C380 1.381 . S
C376 H382 0.931 1_565 S
N377 Cd374 2.334 1_565 S
N377 C376 1.332 . S
N377 C381 1.328 . S
C378 C379 1.396 . S
C378 C381 1.378 . S
C378 H420 0.924 1_554 S
C379 C378 1.396 . S
C379 C380 1.382 . S
C380 C376 1.381 . S
C380 C379 1.382 . S
C380 H421 0.930 . S
C381 N377 1.328 . S
C381 C378 1.378 . S
C381 H383 0.930 1_554 S
H382 C376 0.931 1_545 S
H383 C381 0.930 1_556 S
C384 O410 1.238 . S
C384 O411 1.253 . S
C385 C386 1.379 . S
C385 N390 1.337 . S
C385 H391 0.929 . S
C386 C385 1.379 . S
C386 C387 1.380 . S
C386 H422 0.929 . S
C387 C386 1.380 . S
C387 C388 1.399 . S
C388 C387 1.399 . S
C388 C389 1.376 . S
C388 H423 0.931 1_556 S
C389 C388 1.376 . S
C389 N390 1.338 . S
C389 H392 0.930 1_556 S
N390 Cd375 2.304 . S
N390 C385 1.337 . S
N390 C389 1.338 . S
H391 C385 0.929 . S
H392 C389 0.930 1_554 S
C393 N394 1.332 1_565 S
C393 C397 1.381 . S
C393 H399 0.931 . S
N394 Cd375 2.334 . S
N394 C393 1.332 1_545 S
N394 C398 1.328 . S
C395 C396 1.396 1_544 S
C395 C398 1.378 1_554 S
C395 H424 0.931 . S
C396 C395 1.396 1_566 S
C396 C397 1.382 . S
C397 C393 1.381 . S
C397 C396 1.382 . S
C397 H425 0.930 . S
C398 N394 1.328 . S
C398 C395 1.378 1_556 S
C398 H400 0.930 1_556 S
H399 C393 0.931 . S
H400 C398 0.930 1_554 S
C401 O412 1.238 . S
C401 O413 1.253 . S
C402 O414 1.239 . S
C402 O415 1.231 . S
N403 Cd374 2.304 . S
N403 C404 1.337 . S
N403 C408 1.338 1_554 S
C404 N403 1.337 . S
C404 C405 1.379 . S
C404 H418 0.929 . S
C405 C404 1.379 . S
C405 C406 1.380 . S
C405 H426 0.929 . S
C406 C405 1.380 . S
C406 C407 1.399 1_554 S
C407 C406 1.399 1_556 S
C407 C408 1.376 . S
C407 H427 0.931 . S
C408 N403 1.338 1_556 S
C408 C407 1.376 . S
C408 H419 0.930 . S
C409 O416 1.239 . S
C409 O417 1.230 . S
O410 Cd374 2.268 1_566 S
O410 C384 1.238 . S
O411 Cd375 2.273 1_565 S
O411 C384 1.253 . S
O412 Cd375 2.268 1_554 S
O412 C401 1.238 . S
O413 Cd374 2.273 . S
O413 C401 1.253 . S
O414 Cd374 2.417 1_565 S
O414 C402 1.239 . S
O415 Cd374 2.330 1_565 S
O415 C402 1.231 . S
O416 Cd375 2.417 . S
O416 C409 1.239 . S
O417 Cd375 2.330 . S
O417 C409 1.230 . S
H418 C404 0.929 . S
H419 C408 0.930 . S
H420 C378 0.924 1_556 S
H421 C380 0.930 . S
H422 C386 0.929 . S
H423 C388 0.931 1_554 S
H424 C395 0.931 . S
H425 C397 0.930 . S
H426 C405 0.929 . S
H427 C407 0.931 . S
Cd428 N431 2.334 1_655 S
Cd428 N457 2.304 . S
Cd428 O464 2.268 . S
Cd428 O467 2.273 1_655 S
Cd428 O468 2.417 . S
Cd428 O469 2.330 . S
Cd429 N444 2.304 1_455 S
Cd429 N448 2.334 . S
Cd429 O465 2.273 1_454 S
Cd429 O466 2.268 . S
Cd429 O470 2.417 . S
Cd429 O471 2.330 1_554 S
C430 N431 1.332 . S
C430 C434 1.381 . S
C430 H436 0.931 . S
N431 Cd428 2.334 1_455 S
N431 C430 1.332 . S
N431 C435 1.328 . S
C432 C433 1.396 . S
C432 C435 1.378 . S
C432 H474 0.931 . S
C433 C432 1.396 . S
C433 C434 1.382 . S
C434 C430 1.381 . S
C434 C433 1.382 . S
C434 H475 0.930 . S
C435 N431 1.328 . S
C435 C432 1.378 . S
C435 H437 0.930 1_455 S
H436 C430 0.931 . S
H437 C435 0.930 1_655 S
C438 O464 1.238 1_556 S
C438 O465 1.253 . S
C439 C440 1.379 . S
C439 N444 1.337 1_556 S
C439 H445 0.929 . S
C440 C439 1.379 . S
C440 C441 1.380 1_556 S
C440 H476 0.929 . S
C441 C440 1.380 1_554 S
C441 C442 1.399 . S
C442 C441 1.399 . S
C442 C443 1.376 1_655 S
C442 H477 0.931 . S
C443 C442 1.376 1_455 S
C443 N444 1.338 1_455 S
C443 H446 0.930 . S
N444 Cd429 2.304 1_655 S
N444 C439 1.337 1_554 S
N444 C443 1.338 1_655 S
H445 C439 0.929 . S
H446 C443 0.930 . S
C447 N448 1.332 1_556 S
C447 C451 1.381 . S
C447 H453 0.931 . S
N448 Cd429 2.334 . S
N448 C447 1.332 1_554 S
N448 C452 1.328 . S
C449 C450 1.396 . S
C449 C452 1.378 . S
C449 H478 0.931 . S
C450 C449 1.396 . S
C450 C451 1.382 1_554 S
C451 C447 1.381 . S
C451 C450 1.382 1_556 S
C451 H479 0.930 . S
C452 N448 1.328 . S
C452 C449 1.378 . S
C452 H454 0.930 . S
H453 C447 0.931 . S
H454 C452 0.930 . S
C455 O466 1.238 . S
C455 O467 1.253 . S
C456 O468 1.239 . S
C456 O469 1.230 . S
N457 Cd428 2.304 . S
N457 C458 1.337 . S
N457 C462 1.338 . S
C458 N457 1.337 . S
C458 C459 1.379 . S
C458 H472 0.929 . S
C459 C458 1.379 . S
C459 C460 1.380 . S
C459 H480 0.929 . S
C460 C459 1.380 . S
C460 C461 1.399 . S
C461 C460 1.399 . S
C461 C462 1.376 . S
C461 H481 0.931 . S
C462 N457 1.338 . S
C462 C461 1.376 . S
C462 H473 0.930 . S
C463 O470 1.239 1_556 S
C463 O471 1.230 . S
O464 Cd428 2.268 . S
O464 C438 1.238 1_554 S
O465 Cd429 2.273 1_656 S
O465 C438 1.253 . S
O466 Cd429 2.268 . S
O466 C455 1.238 . S
O467 Cd428 2.273 1_455 S
O467 C455 1.253 . S
O468 Cd428 2.417 . S
O468 C456 1.239 . S
O469 Cd428 2.330 . S
O469 C456 1.230 . S
O470 Cd429 2.417 . S
O470 C463 1.239 1_554 S
O471 Cd429 2.330 1_556 S
O471 C463 1.230 . S
H472 C458 0.929 . S
H473 C462 0.930 . S
H474 C432 0.931 . S
H475 C434 0.930 . S
H476 C440 0.929 . S
H477 C442 0.931 . S
H478 C449 0.931 . S
H479 C451 0.930 . S
H480 C459 0.929 . S
H481 C461 0.931 . S
Cd482 N485 2.334 . S
Cd482 N511 2.304 . S
Cd482 O518 2.268 . S
Cd482 O521 2.273 . S
Cd482 O522 2.417 . S
Cd482 O523 2.330 . S
Cd483 N498 2.304 . S
Cd483 N502 2.334 1_556 S
Cd483 O519 2.273 . S
Cd483 O520 2.268 1_556 S
Cd483 O524 2.417 . S
Cd483 O525 2.330 . S
C484 N485 1.332 . S
C484 C488 1.381 . S
C484 H490 0.931 . S
N485 Cd482 2.334 . S
N485 C484 1.332 . S
N485 C489 1.328 . S
C486 C487 1.396 . S
C486 C489 1.378 . S
C486 H528 0.931 . S
C487 C486 1.396 . S
C487 C488 1.382 . S
C488 C484 1.381 . S
C488 C487 1.382 . S
C488 H529 0.930 . S
C489 N485 1.328 . S
C489 C486 1.378 . S
C489 H491 0.930 . S
H490 C484 0.931 . S
H491 C489 0.930 . S
C492 O518 1.238 1_556 S
C492 O519 1.253 . S
C493 C494 1.379 . S
C493 N498 1.337 . S
C493 H499 0.929 . S
C494 C493 1.379 . S
C494 C495 1.380 . S
C494 H530 0.929 . S
C495 C494 1.380 . S
C495 C496 1.399 1_556 S
C496 C495 1.399 1_554 S
C496 C497 1.376 . S
C496 H531 0.931 . S
C497 C496 1.376 . S
C497 N498 1.338 1_554 S
C497 H500 0.930 . S
N498 Cd483 2.304 . S
N498 C493 1.337 . S
N498 C497 1.338 1_556 S
H499 C493 0.929 . S
H500 C497 0.930 . S
C501 N502 1.332 1_556 S
C501 C505 1.381 . S
C501 H507 0.931 . S
N502 Cd483 2.334 1_554 S
N502 C501 1.332 1_554 S
N502 C506 1.328 . S
C503 C504 1.396 . S
C503 C506 1.378 . S
C503 H532 0.931 . S
C504 C503 1.396 . S
C504 C505 1.382 1_554 S
C505 C501 1.381 . S
C505 C504 1.382 1_556 S
C505 H533 0.930 . S
C506 N502 1.328 . S
C506 C503 1.378 . S
C506 H508 0.930 . S
H507 C501 0.931 . S
H508 C506 0.930 . S
C509 O520 1.238 . S
C509 O521 1.253 . S
C510 O522 1.239 . S
C510 O523 1.230 . S
N511 Cd482 2.304 . S
N511 C512 1.337 . S
N511 C516 1.338 . S
C512 N511 1.337 . S
C512 C513 1.379 . S
C512 H526 0.929 . S
C513 C512 1.379 . S
C513 C514 1.380 . S
C513 H534 0.929 . S
C514 C513 1.380 . S
C514 C515 1.399 . S
C515 C514 1.399 . S
C515 C516 1.376 . S
C515 H535 0.931 . S
C516 N511 1.338 . S
C516 C515 1.376 . S
C516 H527 0.930 . S
C517 O524 1.239 . S
C517 O525 1.230 . S
O518 Cd482 2.268 . S
O518 C492 1.238 1_554 S
O519 Cd483 2.273 . S
O519 C492 1.253 . S
O520 Cd483 2.268 1_554 S
O520 C509 1.238 . S
O521 Cd482 2.273 . S
O521 C509 1.253 . S
O522 Cd482 2.417 . S
O522 C510 1.239 . S
O523 Cd482 2.330 . S
O523 C510 1.230 . S
O524 Cd483 2.417 . S
O524 C517 1.239 . S
O525 Cd483 2.330 . S
O525 C517 1.230 . S
H526 C512 0.929 . S
H527 C516 0.930 . S
H528 C486 0.931 . S
H529 C488 0.930 . S
H530 C494 0.929 . S
H531 C496 0.931 . S
H532 C503 0.931 . S
H533 C505 0.930 . S
H534 C513 0.929 . S
H535 C515 0.931 . S
Cd536 N539 2.334 . S
Cd536 N565 2.304 1_455 S
Cd536 O572 2.268 . S
Cd536 O575 2.273 . S
Cd536 O576 2.417 1_455 S
Cd536 O577 2.330 . S
Cd537 N552 2.304 . S
Cd537 N556 2.334 . S
Cd537 O573 2.273 . S
Cd537 O574 2.268 . S
Cd537 O578 2.417 . S
Cd537 O579 2.330 . S
C538 N539 1.332 . S
C538 C542 1.381 . S
C538 H544 0.931 . S
N539 Cd536 2.334 . S
N539 C538 1.332 . S
N539 C543 1.328 . S
C540 C541 1.396 . S
C540 C543 1.378 . S
C540 H582 0.931 . S
C541 C540 1.396 . S
C541 C542 1.382 . S
C542 C538 1.381 . S
C542 C541 1.382 . S
C542 H583 0.930 . S
C543 N539 1.328 . S
C543 C540 1.378 . S
C543 H545 0.930 . S
H544 C538 0.931 . S
H545 C543 0.930 . S
C546 O572 1.238 1_655 S
C546 O573 1.253 1_655 S
C547 C548 1.379 . S
C547 N552 1.337 1_655 S
C547 H553 0.929 . S
C548 C547 1.379 . S
C548 C549 1.380 . S
C548 H584 0.929 . S
C549 C548 1.380 . S
C549 C550 1.399 1_655 S
C550 C549 1.399 1_455 S
C550 C551 1.376 . S
C550 H585 0.931 . S
C551 C550 1.376 . S
C551 N552 1.338 . S
C551 H554 0.930 . S
N552 Cd537 2.304 . S
N552 C547 1.337 1_455 S
N552 C551 1.338 . S
H553 C547 0.929 . S
H554 C551 0.930 . S
C555 N556 1.332 . S
C555 C559 1.381 . S
C555 H561 0.931 . S
N556 Cd537 2.334 . S
N556 C555 1.332 . S
N556 C560 1.328 . S
C557 C558 1.396 . S
C557 C560 1.378 . S
C557 H586 0.931 . S
C558 C557 1.396 . S
C558 C559 1.382 . S
C559 C555 1.381 . S
C559 C558 1.382 . S
C559 H587 0.930 . S
C560 N556 1.328 . S
C560 C557 1.378 . S
C560 H562 0.930 . S
H561 C555 0.931 . S
H562 C560 0.930 . S
C563 O574 1.238 . S
C563 O575 1.253 . S
C564 O576 1.239 1_455 S
C564 O577 1.230 . S
N565 Cd536 2.304 1_655 S
N565 C566 1.337 1_655 S
N565 C570 1.338 . S
C566 N565 1.337 1_455 S
C566 C567 1.379 1_455 S
C566 H580 0.929 . S
C567 C566 1.379 1_655 S
C567 C568 1.380 . S
C567 H588 0.929 1_655 S
C568 C567 1.380 . S
C568 C569 1.399 . S
C569 C568 1.399 . S
C569 C570 1.376 . S
C569 H589 0.931 . S
C570 N565 1.338 . S
C570 C569 1.376 . S
C570 H581 0.930 . S
C571 O578 1.239 . S
C571 O579 1.230 . S
O572 Cd536 2.268 . S
O572 C546 1.238 1_455 S
O573 Cd537 2.273 . S
O573 C546 1.253 1_455 S
O574 Cd537 2.268 . S
O574 C563 1.238 . S
O575 Cd536 2.273 . S
O575 C563 1.253 . S
O576 Cd536 2.417 1_655 S
O576 C564 1.239 1_655 S
O577 Cd536 2.330 . S
O577 C564 1.230 . S
O578 Cd537 2.417 . S
O578 C571 1.239 . S
O579 Cd537 2.330 . S
O579 C571 1.230 . S
H580 C566 0.929 . S
H581 C570 0.930 . S
H582 C540 0.931 . S
H583 C542 0.930 . S
H584 C548 0.929 . S
H585 C550 0.931 . S
H586 C557 0.931 . S
H587 C559 0.930 . S
H588 C567 0.929 1_455 S
H589 C569 0.931 . S
Cd590 N593 2.334 . S
Cd590 N619 2.304 1_565 S
Cd590 O626 2.268 . S
Cd590 O629 2.273 1_565 S
Cd590 O630 2.417 . S
Cd590 O631 2.330 . S
Cd591 N606 2.304 . S
Cd591 N610 2.334 1_545 S
Cd591 O627 2.273 1_545 S
Cd591 O628 2.268 . S
Cd591 O632 2.417 . S
Cd591 O633 2.330 . S
C592 N593 1.332 . S
C592 C596 1.381 . S
C592 H598 0.931 . S
N593 Cd590 2.334 . S
N593 C592 1.332 . S
N593 C597 1.328 . S
C594 C595 1.396 . S
C594 C597 1.378 . S
C594 H636 0.931 . S
C595 C594 1.396 . S
C595 C596 1.382 . S
C596 C592 1.381 . S
C596 C595 1.382 . S
C596 H637 0.930 . S
C597 N593 1.328 . S
C597 C594 1.378 . S
C597 H599 0.930 . S
H598 C592 0.931 . S
H599 C597 0.930 . S
C600 O626 1.238 . S
C600 O627 1.253 . S
C601 C602 1.379 . S
C601 N606 1.337 . S
C601 H607 0.929 . S
C602 C601 1.379 . S
C602 C603 1.380 . S
C602 H638 0.929 . S
C603 C602 1.380 . S
C603 C604 1.399 . S
C604 C603 1.399 . S
C604 C605 1.376 . S
C604 H639 0.931 . S
C605 C604 1.376 . S
C605 N606 1.338 . S
C605 H608 0.930 . S
N606 Cd591 2.304 . S
N606 C601 1.337 . S
N606 C605 1.338 . S
H607 C601 0.929 . S
H608 C605 0.930 . S
C609 N610 1.332 . S
C609 C613 1.381 . S
C609 H615 0.931 . S
N610 Cd591 2.334 1_565 S
N610 C609 1.332 . S
N610 C614 1.328 . S
C611 C612 1.396 . S
C611 C614 1.378 . S
C611 H640 0.931 . S
C612 C611 1.396 . S
C612 C613 1.382 . S
C613 C609 1.381 . S
C613 C612 1.382 . S
C613 H641 0.930 . S
C614 N610 1.328 . S
C614 C611 1.378 . S
C614 H616 0.930 1_565 S
H615 C609 0.931 . S
H616 C614 0.930 1_545 S
C617 O628 1.238 . S
C617 O629 1.253 . S
C618 O630 1.239 . S
C618 O631 1.230 . S
N619 Cd590 2.304 1_545 S
N619 C620 1.337 . S
N619 C624 1.338 . S
C620 N619 1.337 . S
C620 C621 1.379 . S
C620 H634 0.929 . S
C621 C620 1.379 . S
C621 C622 1.380 . S
C621 H642 0.929 . S
C622 C621 1.380 . S
C622 C623 1.399 . S
C623 C622 1.399 . S
C623 C624 1.376 . S
C623 H643 0.931 . S
C624 N619 1.338 . S
C624 C623 1.376 . S
C624 H635 0.930 1_545 S
C625 O632 1.239 . S
C625 O633 1.230 . S
O626 Cd590 2.268 . S
O626 C600 1.238 . S
O627 Cd591 2.273 1_565 S
O627 C600 1.253 . S
O628 Cd591 2.268 . S
O628 C617 1.238 . S
O629 Cd590 2.273 1_545 S
O629 C617 1.253 . S
O630 Cd590 2.417 . S
O630 C618 1.239 . S
O631 Cd590 2.330 . S
O631 C618 1.230 . S
O632 Cd591 2.417 . S
O632 C625 1.239 . S
O633 Cd591 2.330 . S
O633 C625 1.230 . S
H634 C620 0.929 . S
H635 C624 0.930 1_565 S
H636 C594 0.931 . S
H637 C596 0.930 . S
H638 C602 0.929 . S
H639 C604 0.931 . S
H640 C611 0.931 . S
H641 C613 0.930 . S
H642 C621 0.929 . S
H643 C623 0.931 . S
C644 C645 1.363 . S
C644 C650 1.379 . S
C644 N652 1.356 . S
C645 C644 1.363 . S
C645 C651 1.363 . S
C646 C647 1.363 . S
C646 C651 1.379 . S
C646 N653 1.356 . S
C647 C646 1.363 . S
C647 C650 1.363 . S
N648 C650 1.356 . S
N648 H660 0.984 . S
N648 H661 0.985 . S
N649 C651 1.356 . S
N649 H654 0.984 . S
N649 H655 0.985 . S
C650 C644 1.379 . S
C650 C647 1.363 . S
C650 N648 1.356 . S
C651 C645 1.363 . S
C651 C646 1.379 . S
C651 N649 1.356 . S
N652 C644 1.356 . S
N652 H658 0.984 . S
N652 H659 0.984 . S
N653 C646 1.356 . S
N653 H656 0.984 . S
N653 H657 0.985 . S
H654 N649 0.984 . S
H655 N649 0.985 . S
H656 N653 0.984 . S
H657 N653 0.985 . S
H658 N652 0.984 . S
H659 N652 0.984 . S
H660 N648 0.984 . S
H661 N648 0.985 . S
C662 C663 1.363 . S
C662 C668 1.379 . S
C662 N670 1.356 . S
C663 C662 1.363 . S
C663 C669 1.363 . S
C664 C665 1.363 . S
C664 C669 1.379 . S
C664 N671 1.356 . S
C665 C664 1.363 . S
C665 C668 1.363 . S
N666 C668 1.356 . S
N666 H678 0.984 . S
N666 H679 0.985 . S
N667 C669 1.356 . S
N667 H672 0.984 . S
N667 H673 0.985 . S
C668 C662 1.379 . S
C668 C665 1.363 . S
C668 N666 1.356 . S
C669 C663 1.363 . S
C669 C664 1.379 . S
C669 N667 1.356 . S
N670 C662 1.356 . S
N670 H676 0.984 . S
N670 H677 0.984 . S
N671 C664 1.356 . S
N671 H674 0.984 . S
N671 H675 0.985 . S
H672 N667 0.984 . S
H673 N667 0.985 . S
H674 N671 0.984 . S
H675 N671 0.985 . S
H676 N670 0.984 . S
H677 N670 0.984 . S
H678 N666 0.984 . S
H679 N666 0.985 . S
C680 C681 1.363 . S
C680 C686 1.379 . S
C680 N688 1.356 . S
C681 C680 1.363 . S
C681 C687 1.363 . S
C682 C683 1.363 . S
C682 C687 1.379 . S
C682 N689 1.356 . S
C683 C682 1.363 . S
C683 C686 1.363 . S
N684 C686 1.356 . S
N684 H696 0.984 . S
N684 H697 0.985 . S
N685 C687 1.356 . S
N685 H690 0.984 . S
N685 H691 0.985 . S
C686 C680 1.379 . S
C686 C683 1.363 . S
C686 N684 1.356 . S
C687 C681 1.363 . S
C687 C682 1.379 . S
C687 N685 1.356 . S
N688 C680 1.356 . S
N688 H694 0.984 . S
N688 H695 0.984 . S
N689 C682 1.356 . S
N689 H692 0.984 . S
N689 H693 0.985 . S
H690 N685 0.984 . S
H691 N685 0.985 . S
H692 N689 0.984 . S
H693 N689 0.985 . S
H694 N688 0.984 . S
H695 N688 0.984 . S
H696 N684 0.984 . S
H697 N684 0.985 . S
C698 C699 1.363 . S
C698 C704 1.379 . S
C698 N706 1.356 . S
C699 C698 1.363 . S
C699 C705 1.363 . S
C700 C701 1.363 . S
C700 C705 1.379 . S
C700 N707 1.356 . S
C701 C700 1.363 . S
C701 C704 1.363 . S
N702 C704 1.356 . S
N702 H714 0.984 . S
N702 H715 0.985 . S
N703 C705 1.356 . S
N703 H708 0.984 . S
N703 H709 0.985 . S
C704 C698 1.379 . S
C704 C701 1.363 . S
C704 N702 1.356 . S
C705 C699 1.363 . S
C705 C700 1.379 . S
C705 N703 1.356 . S
N706 C698 1.356 . S
N706 H712 0.984 . S
N706 H713 0.984 . S
N707 C700 1.356 . S
N707 H710 0.984 1_565 S
N707 H711 0.985 1_565 S
H708 N703 0.984 . S
H709 N703 0.985 . S
H710 N707 0.984 1_545 S
H711 N707 0.985 1_545 S
H712 N706 0.984 . S
H713 N706 0.984 . S
H714 N702 0.984 . S
H715 N702 0.985 . S
C716 C717 1.363 . S
C716 C722 1.379 . S
C716 N724 1.356 . S
C717 C716 1.363 . S
C717 C723 1.363 . S
C718 C719 1.363 . S
C718 C723 1.379 . S
C718 N725 1.356 . S
C719 C718 1.363 . S
C719 C722 1.363 . S
N720 C722 1.356 . S
N720 H732 0.984 . S
N720 H733 0.985 . S
N721 C723 1.356 . S
N721 H726 0.984 . S
N721 H727 0.985 . S
C722 C716 1.379 . S
C722 C719 1.363 . S
C722 N720 1.356 . S
C723 C717 1.363 . S
C723 C718 1.379 . S
C723 N721 1.356 . S
N724 C716 1.356 . S
N724 H730 0.984 . S
N724 H731 0.984 . S
N725 C718 1.356 . S
N725 H728 0.984 . S
N725 H729 0.985 . S
H726 N721 0.984 . S
H727 N721 0.985 . S
H728 N725 0.984 . S
H729 N725 0.985 . S
H730 N724 0.984 . S
H731 N724 0.984 . S
H732 N720 0.984 . S
H733 N720 0.985 . S
C734 C735 1.363 . S
C734 C740 1.379 . S
C734 N742 1.356 . S
C735 C734 1.363 . S
C735 C741 1.363 . S
C736 C737 1.363 . S
C736 C741 1.379 . S
C736 N743 1.356 . S
C737 C736 1.363 . S
C737 C740 1.363 . S
N738 C740 1.356 . S
N738 H750 0.984 . S
N738 H751 0.985 . S
N739 C741 1.356 . S
N739 H744 0.984 . S
N739 H745 0.985 . S
C740 C734 1.379 . S
C740 C737 1.363 . S
C740 N738 1.356 . S
C741 C735 1.363 . S
C741 C736 1.379 . S
C741 N739 1.356 . S
N742 C734 1.356 . S
N742 H748 0.984 . S
N742 H749 0.984 . S
N743 C736 1.356 . S
N743 H746 0.984 . S
N743 H747 0.985 . S
H744 N739 0.984 . S
H745 N739 0.985 . S
H746 N743 0.984 . S
H747 N743 0.985 . S
H748 N742 0.984 . S
H749 N742 0.984 . S
H750 N738 0.984 . S
H751 N738 0.985 . S
C752 C753 1.363 . S
C752 C758 1.379 . S
C752 N760 1.356 . S
C753 C752 1.363 . S
C753 C759 1.363 . S
C754 C755 1.363 . S
C754 C759 1.379 . S
C754 N761 1.356 . S
C755 C754 1.363 . S
C755 C758 1.363 . S
N756 C758 1.356 . S
N756 H768 0.984 . S
N756 H769 0.985 . S
N757 C759 1.356 . S
N757 H762 0.984 . S
N757 H763 0.985 . S
C758 C752 1.379 . S
C758 C755 1.363 . S
C758 N756 1.356 . S
C759 C753 1.363 . S
C759 C754 1.379 . S
C759 N757 1.356 . S
N760 C752 1.356 . S
N760 H766 0.984 . S
N760 H767 0.984 . S
N761 C754 1.356 . S
N761 H764 0.984 . S
N761 H765 0.985 . S
H762 N757 0.984 . S
H763 N757 0.985 . S
H764 N761 0.984 . S
H765 N761 0.985 . S
H766 N760 0.984 . S
H767 N760 0.984 . S
H768 N756 0.984 . S
H769 N756 0.985 . S
C770 C771 1.363 . S
C770 C776 1.379 . S
C770 N778 1.356 . S
C771 C770 1.363 . S
C771 C777 1.363 . S
C772 C773 1.363 . S
C772 C777 1.379 . S
C772 N779 1.356 . S
C773 C772 1.363 . S
C773 C776 1.363 . S
N774 C776 1.356 . S
N774 H786 0.984 . S
N774 H787 0.985 . S
N775 C777 1.356 . S
N775 H780 0.984 . S
N775 H781 0.985 . S
C776 C770 1.379 . S
C776 C773 1.363 . S
C776 N774 1.356 . S
C777 C771 1.363 . S
C777 C772 1.379 . S
C777 N775 1.356 . S
N778 C770 1.356 . S
N778 H784 0.984 . S
N778 H785 0.984 . S
N779 C772 1.356 . S
N779 H782 0.984 . S
N779 H783 0.985 . S
H780 N775 0.984 . S
H781 N775 0.985 . S
H782 N779 0.984 . S
H783 N779 0.985 . S
H784 N778 0.984 . S
H785 N778 0.984 . S
H786 N774 0.984 . S
H787 N774 0.985 . S
C788 C789 1.363 . S
C788 C794 1.379 . S
C788 N796 1.356 . S
C789 C788 1.363 . S
C789 C795 1.363 . S
C790 C791 1.363 . S
C790 C795 1.379 . S
C790 N797 1.356 . S
C791 C790 1.363 . S
C791 C794 1.363 . S
N792 C794 1.356 . S
N792 H804 0.984 . S
N792 H805 0.985 . S
N793 C795 1.356 . S
N793 H798 0.984 . S
N793 H799 0.985 . S
C794 C788 1.379 . S
C794 C791 1.363 . S
C794 N792 1.356 . S
C795 C789 1.363 . S
C795 C790 1.379 . S
C795 N793 1.356 . S
N796 C788 1.356 . S
N796 H802 0.984 . S
N796 H803 0.984 . S
N797 C790 1.356 . S
N797 H800 0.984 1_554 S
N797 H801 0.986 . S
H798 N793 0.984 . S
H799 N793 0.985 . S
H800 N797 0.984 1_556 S
H801 N797 0.986 . S
H802 N796 0.984 . S
H803 N796 0.984 . S
H804 N792 0.984 . S
H805 N792 0.985 . S
C806 C807 1.363 . S
C806 C812 1.379 . S
C806 N814 1.356 . S
C807 C806 1.363 . S
C807 C813 1.363 . S
C808 C809 1.363 . S
C808 C813 1.379 . S
C808 N815 1.356 . S
C809 C808 1.363 . S
C809 C812 1.363 . S
N810 C812 1.356 . S
N810 H822 0.984 . S
N810 H823 0.985 . S
N811 C813 1.356 . S
N811 H816 0.984 . S
N811 H817 0.985 . S
C812 C806 1.379 . S
C812 C809 1.363 . S
C812 N810 1.356 . S
C813 C807 1.363 . S
C813 C808 1.379 . S
C813 N811 1.356 . S
N814 C806 1.356 . S
N814 H820 0.984 . S
N814 H821 0.984 . S
N815 C808 1.356 . S
N815 H818 0.984 1_655 S
N815 H819 0.985 1_655 S
H816 N811 0.984 . S
H817 N811 0.985 . S
H818 N815 0.984 1_455 S
H819 N815 0.985 1_455 S
H820 N814 0.984 . S
H821 N814 0.984 . S
H822 N810 0.984 . S
H823 N810 0.985 . S
C824 C825 1.363 . S
C824 C830 1.379 . S
C824 N832 1.356 . S
C825 C824 1.363 . S
C825 C831 1.363 . S
C826 C827 1.363 . S
C826 C831 1.379 . S
C826 N833 1.356 . S
C827 C826 1.363 . S
C827 C830 1.363 . S
N828 C830 1.339 1_556 S
N828 H840 0.997 . S
N828 H841 0.990 . S
N829 C831 1.356 . S
N829 H834 0.984 . S
N829 H835 0.985 . S
C830 C824 1.379 . S
C830 C827 1.363 . S
C830 N828 1.339 1_554 S
C831 C825 1.363 . S
C831 C826 1.379 . S
C831 N829 1.356 . S
N832 C824 1.356 . S
N832 H838 0.984 . S
N832 H839 0.984 . S
N833 C826 1.356 . S
N833 H836 0.984 . S
N833 H837 0.985 1_565 S
H834 N829 0.984 . S
H835 N829 0.985 . S
H836 N833 0.984 . S
H837 N833 0.985 1_545 S
H838 N832 0.984 . S
H839 N832 0.984 . S
H840 N828 0.997 . S
H841 N828 0.990 . S
C842 C843 1.363 . S
C842 C848 1.379 . S
C842 N850 1.356 . S
C843 C842 1.363 . S
C843 C849 1.363 . S
C844 C845 1.363 . S
C844 C849 1.379 . S
C844 N851 1.356 . S
C845 C844 1.363 . S
C845 C848 1.363 . S
N846 C848 1.356 . S
N846 H858 0.984 . S
N846 H859 0.985 . S
N847 C849 1.356 . S
N847 H852 0.984 . S
N847 H853 0.985 . S
C848 C842 1.379 . S
C848 C845 1.363 . S
C848 N846 1.356 . S
C849 C843 1.363 . S
C849 C844 1.379 . S
C849 N847 1.356 . S
N850 C842 1.356 . S
N850 H856 0.984 . S
N850 H857 0.984 . S
N851 C844 1.356 . S
N851 H854 0.984 . S
N851 H855 0.985 . S
H852 N847 0.984 . S
H853 N847 0.985 . S
H854 N851 0.984 . S
H855 N851 0.985 . S
H856 N850 0.984 . S
H857 N850 0.984 . S
H858 N846 0.984 . S
H859 N846 0.985 . S
C860 C861 1.363 . S
C860 C866 1.379 . S
C860 N868 1.356 . S
C861 C860 1.363 . S
C861 C867 1.363 . S
C862 C863 1.363 . S
C862 C867 1.379 . S
C862 N869 1.356 . S
C863 C862 1.363 . S
C863 C866 1.363 . S
N864 C866 1.356 . S
N864 H876 0.984 . S
N864 H877 0.985 . S
N865 C867 1.356 . S
N865 H870 0.984 . S
N865 H871 0.985 . S
C866 C860 1.379 . S
C866 C863 1.363 . S
C866 N864 1.356 . S
C867 C861 1.363 . S
C867 C862 1.379 . S
C867 N865 1.356 . S
N868 C860 1.356 . S
N868 H874 0.984 . S
N868 H875 0.984 . S
N869 C862 1.356 . S
N869 H872 0.984 . S
N869 H873 0.985 . S
H870 N865 0.984 . S
H871 N865 0.985 . S
H872 N869 0.984 . S
H873 N869 0.985 . S
H874 N868 0.984 . S
H875 N868 0.984 . S
H876 N864 0.984 . S
H877 N864 0.985 . S
C878 C879 1.363 . S
C878 C884 1.379 . S
C878 N886 1.356 . S
C879 C878 1.363 . S
C879 C885 1.363 . S
C880 C881 1.363 . S
C880 C885 1.379 1_554 S
C880 N887 1.356 . S
C881 C880 1.363 . S
C881 C884 1.363 1_554 S
N882 C884 1.356 1_554 S
N882 H894 0.984 . S
N882 H895 0.985 . S
N883 C885 1.356 . S
N883 H888 0.984 . S
N883 H889 0.985 . S
C884 C878 1.379 . S
C884 C881 1.363 1_556 S
C884 N882 1.356 1_556 S
C885 C879 1.363 . S
C885 C880 1.379 1_556 S
C885 N883 1.356 . S
N886 C878 1.356 . S
N886 H892 0.984 . S
N886 H893 0.984 . S
N887 C880 1.356 . S
N887 H890 0.984 . S
N887 H891 0.985 . S
H888 N883 0.984 . S
H889 N883 0.985 . S
H890 N887 0.984 . S
H891 N887 0.985 . S
H892 N886 0.984 . S
H893 N886 0.984 . S
H894 N882 0.984 . S
H895 N882 0.985 . S
C896 C897 1.363 . S
C896 C902 1.379 . S
C896 N904 1.356 . S
C897 C896 1.363 . S
C897 C903 1.363 . S
C898 C899 1.363 . S
C898 C903 1.379 . S
C898 N905 1.356 . S
C899 C898 1.363 . S
C899 C902 1.363 . S
N900 C902 1.356 . S
N900 H912 0.984 . S
N900 H913 0.985 . S
N901 C903 1.356 . S
N901 H906 0.984 . S
N901 H907 0.985 . S
C902 C896 1.379 . S
C902 C899 1.363 . S
C902 N900 1.356 . S
C903 C897 1.363 . S
C903 C898 1.379 . S
C903 N901 1.356 . S
N904 C896 1.356 . S
N904 H910 0.984 . S
N904 H911 0.984 . S
N905 C898 1.356 . S
N905 H908 0.984 . S
N905 H909 0.985 . S
H906 N901 0.984 . S
H907 N901 0.985 . S
H908 N905 0.984 . S
H909 N905 0.985 . S
H910 N904 0.984 . S
H911 N904 0.984 . S
H912 N900 0.984 . S
H913 N900 0.985 . S
C914 C915 1.363 . S
C914 C920 1.379 . S
C914 N922 1.356 . S
C915 C914 1.363 . S
C915 C921 1.363 . S
C916 C917 1.363 . S
C916 C921 1.379 . S
C916 N923 1.356 . S
C917 C916 1.363 . S
C917 C920 1.363 . S
N918 C920 1.356 1_554 S
N918 H930 0.984 . S
N918 H931 0.985 . S
N919 C921 1.356 . S
N919 H924 0.984 . S
N919 H925 0.985 . S
C920 C914 1.379 . S
C920 C917 1.363 . S
C920 N918 1.356 1_556 S
C921 C915 1.363 . S
C921 C916 1.379 . S
C921 N919 1.356 . S
N922 C914 1.356 . S
N922 H928 0.984 . S
N922 H929 0.984 . S
N923 C916 1.356 . S
N923 H926 0.984 . S
N923 H927 0.985 . S
H924 N919 0.984 . S
H925 N919 0.985 . S
H926 N923 0.984 . S
H927 N923 0.985 . S
H928 N922 0.984 . S
H929 N922 0.984 . S
H930 N918 0.984 . S
H931 N918 0.985 . S
C932 C933 1.363 . S
C932 C938 1.379 . S
C932 N940 1.356 . S
C933 C932 1.363 . S
C933 C939 1.363 . S
C934 C935 1.363 . S
C934 C939 1.379 . S
C934 N941 1.356 . S
C935 C934 1.363 . S
C935 C938 1.363 . S
N936 C938 1.356 . S
N936 H948 0.984 . S
N936 H949 0.985 . S
N937 C939 1.356 . S
N937 H942 0.984 . S
N937 H943 0.985 . S
C938 C932 1.379 . S
C938 C935 1.363 . S
C938 N936 1.356 . S
C939 C933 1.363 . S
C939 C934 1.379 . S
C939 N937 1.356 . S
N940 C932 1.356 . S
N940 H946 0.984 . S
N940 H947 0.984 . S
N941 C934 1.356 . S
N941 H944 0.984 . S
N941 H945 0.985 . S
H942 N937 0.984 . S
H943 N937 0.985 . S
H944 N941 0.984 . S
H945 N941 0.985 . S
H946 N940 0.984 . S
H947 N940 0.984 . S
H948 N936 0.984 . S
H949 N936 0.985 . S
C950 C951 1.363 1_556 S
C950 C956 1.379 . S
C950 N958 1.356 . S
C951 C950 1.363 1_554 S
C951 C957 1.363 . S
C952 C953 1.345 1_554 S
C952 C957 1.383 . S
C952 N959 1.367 . S
C953 C952 1.345 1_556 S
C953 C956 1.363 . S
N954 C956 1.356 . S
N954 H966 0.984 . S
N954 H967 0.985 . S
N955 C957 1.356 . S
N955 H960 0.984 . S
N955 H961 0.985 . S
C956 C950 1.379 . S
C956 C953 1.363 . S
C956 N954 1.356 . S
C957 C951 1.363 . S
C957 C952 1.383 . S
C957 N955 1.356 . S
N958 C950 1.356 . S
N958 H964 0.984 . S
N958 H965 0.984 . S
N959 C952 1.367 . S
N959 H962 0.984 1_554 S
N959 H963 0.985 . S
H960 N955 0.984 . S
H961 N955 0.985 . S
H962 N959 0.984 1_556 S
H963 N959 0.985 . S
H964 N958 0.984 . S
H965 N958 0.984 . S
H966 N954 0.984 . S
H967 N954 0.985 . S
C968 C969 1.363 . S
C968 C974 1.379 . S
C968 N976 1.356 . S
C969 C968 1.363 . S
C969 C975 1.363 . S
C970 C971 1.363 . S
C970 C975 1.379 . S
C970 N977 1.356 . S
C971 C970 1.363 . S
C971 C974 1.363 . S
N972 C974 1.356 . S
N972 H984 0.984 1_556 S
N972 H985 0.985 . S
N973 C975 1.356 . S
N973 H978 0.984 . S
N973 H979 0.985 . S
C974 C968 1.379 . S
C974 C971 1.363 . S
C974 N972 1.356 . S
C975 C969 1.363 . S
C975 C970 1.379 . S
C975 N973 1.356 . S
N976 C968 1.356 . S
N976 H982 0.984 . S
N976 H983 0.984 . S
N977 C970 1.356 . S
N977 H980 0.984 . S
N977 H981 0.985 . S
H978 N973 0.984 . S
H979 N973 0.985 . S
H980 N977 0.984 . S
H981 N977 0.985 . S
H982 N976 0.984 . S
H983 N976 0.984 . S
H984 N972 0.984 1_554 S
H985 N972 0.985 . S
C986 C987 1.363 . S
C986 C992 1.379 . S
C986 N994 1.356 . S
C987 C986 1.363 . S
C987 C993 1.363 . S
C988 C989 1.363 . S
C988 C993 1.379 . S
C988 N995 1.356 . S
C989 C988 1.363 . S
C989 C992 1.363 . S
N990 C992 1.356 . S
N990 H1002 0.984 . S
N990 H1003 0.985 . S
N991 C993 1.356 . S
N991 H996 0.984 . S
N991 H997 0.985 . S
C992 C986 1.379 . S
C992 C989 1.363 . S
C992 N990 1.356 . S
C993 C987 1.363 . S
C993 C988 1.379 . S
C993 N991 1.356 . S
N994 C986 1.356 . S
N994 H1000 0.984 . S
N994 H1001 0.984 . S
N995 C988 1.356 . S
N995 H998 0.984 . S
N995 H999 0.985 . S
H996 N991 0.984 . S
H997 N991 0.985 . S
H998 N995 0.984 . S
H999 N995 0.985 . S
H1000 N994 0.984 . S
H1001 N994 0.984 . S
H1002 N990 0.984 . S
H1003 N990 0.985 . S
C1004 C1005 1.363 . S
C1004 C1010 1.379 . S
C1004 N1012 1.356 . S
C1005 C1004 1.363 . S
C1005 C1011 1.363 . S
C1006 C1007 1.363 . S
C1006 C1011 1.379 . S
C1006 N1013 1.356 1_565 S
C1007 C1006 1.363 . S
C1007 C1010 1.363 . S
N1008 C1010 1.356 . S
N1008 H1020 0.984 . S
N1008 H1021 0.985 . S
N1009 C1011 1.356 1_545 S
N1009 H1014 0.984 . S
N1009 H1015 0.985 . S
C1010 C1004 1.379 . S
C1010 C1007 1.363 . S
C1010 N1008 1.356 . S
C1011 C1005 1.363 . S
C1011 C1006 1.379 . S
C1011 N1009 1.356 1_565 S
N1012 C1004 1.356 . S
N1012 H1018 0.984 . S
N1012 H1019 0.984 . S
N1013 C1006 1.356 1_545 S
N1013 H1016 0.984 . S
N1013 H1017 0.985 . S
H1014 N1009 0.984 . S
H1015 N1009 0.985 . S
H1016 N1013 0.984 . S
H1017 N1013 0.985 . S
H1018 N1012 0.984 . S
H1019 N1012 0.984 . S
H1020 N1008 0.984 . S
H1021 N1008 0.985 . S
C1022 C1023 1.363 . S
C1022 C1028 1.379 . S
C1022 N1030 1.356 . S
C1023 C1022 1.363 . S
C1023 C1029 1.363 . S
C1024 C1025 1.363 . S
C1024 C1029 1.379 . S
C1024 N1031 1.356 . S
C1025 C1024 1.363 . S
C1025 C1028 1.363 . S
N1026 C1028 1.356 . S
N1026 H1038 0.984 . S
N1026 H1039 0.985 . S
N1027 C1029 1.356 . S
N1027 H1032 0.984 . S
N1027 H1033 0.985 . S
C1028 C1022 1.379 . S
C1028 C1025 1.363 . S
C1028 N1026 1.356 . S
C1029 C1023 1.363 . S
C1029 C1024 1.379 . S
C1029 N1027 1.356 . S
N1030 C1022 1.356 . S
N1030 H1036 0.984 . S
N1030 H1037 0.984 . S
N1031 C1024 1.356 . S
N1031 H1034 0.984 . S
N1031 H1035 0.985 . S
H1032 N1027 0.984 . S
H1033 N1027 0.985 . S
H1034 N1031 0.984 . S
H1035 N1031 0.985 . S
H1036 N1030 0.984 . S
H1037 N1030 0.984 . S
H1038 N1026 0.984 . S
H1039 N1026 0.985 . S
C1040 C1041 1.363 . S
C1040 C1046 1.379 . S
C1040 N1048 1.356 . S
C1041 C1040 1.363 . S
C1041 C1047 1.363 . S
C1042 C1043 1.363 . S
C1042 C1047 1.379 . S
C1042 N1049 1.356 . S
C1043 C1042 1.363 . S
C1043 C1046 1.363 . S
N1044 C1046 1.356 . S
N1044 H1056 0.984 . S
N1044 H1057 0.985 . S
N1045 C1047 1.356 . S
N1045 H1050 0.984 . S
N1045 H1051 0.985 . S
C1046 C1040 1.379 . S
C1046 C1043 1.363 . S
C1046 N1044 1.356 . S
C1047 C1041 1.363 . S
C1047 C1042 1.379 . S
C1047 N1045 1.356 . S
N1048 C1040 1.356 . S
N1048 H1054 0.984 . S
N1048 H1055 0.984 . S
N1049 C1042 1.356 . S
N1049 H1052 0.984 . S
N1049 H1053 0.985 . S
H1050 N1045 0.984 . S
H1051 N1045 0.985 . S
H1052 N1049 0.984 . S
H1053 N1049 0.985 . S
H1054 N1048 0.984 . S
H1055 N1048 0.984 . S
H1056 N1044 0.984 . S
H1057 N1044 0.985 . S
C1058 C1059 1.363 . S
C1058 C1064 1.379 . S
C1058 N1066 1.356 . S
C1059 C1058 1.363 . S
C1059 C1065 1.363 . S
C1060 C1061 1.363 . S
C1060 C1065 1.379 . S
C1060 N1067 1.356 . S
C1061 C1060 1.363 . S
C1061 C1064 1.363 . S
N1062 C1064 1.356 . S
N1062 H1074 0.984 . S
N1062 H1075 0.985 . S
N1063 C1065 1.356 . S
N1063 H1068 0.984 . S
N1063 H1069 0.985 . S
C1064 C1058 1.379 . S
C1064 C1061 1.363 . S
C1064 N1062 1.356 . S
C1065 C1059 1.363 . S
C1065 C1060 1.379 . S
C1065 N1063 1.356 . S
N1066 C1058 1.356 . S
N1066 H1072 0.984 . S
N1066 H1073 0.984 . S
N1067 C1060 1.356 . S
N1067 H1070 0.984 . S
N1067 H1071 0.985 . S
H1068 N1063 0.984 . S
H1069 N1063 0.985 . S
H1070 N1067 0.984 . S
H1071 N1067 0.985 . S
H1072 N1066 0.984 . S
H1073 N1066 0.984 . S
H1074 N1062 0.984 . S
H1075 N1062 0.985 . S
C1076 C1077 1.363 . S
C1076 C1082 1.379 . S
C1076 N1084 1.356 . S
C1077 C1076 1.363 . S
C1077 C1083 1.363 . S
C1078 C1079 1.363 . S
C1078 C1083 1.379 . S
C1078 N1085 1.356 . S
C1079 C1078 1.363 . S
C1079 C1082 1.363 . S
N1080 C1082 1.356 . S
N1080 H1092 0.984 . S
N1080 H1093 0.985 . S
N1081 C1083 1.356 . S
N1081 H1086 0.984 . S
N1081 H1087 0.985 . S
C1082 C1076 1.379 . S
C1082 C1079 1.363 . S
C1082 N1080 1.356 . S
C1083 C1077 1.363 . S
C1083 C1078 1.379 . S
C1083 N1081 1.356 . S
N1084 C1076 1.356 . S
N1084 H1090 0.984 . S
N1084 H1091 0.984 . S
N1085 C1078 1.356 . S
N1085 H1088 0.984 . S
N1085 H1089 0.985 . S
H1086 N1081 0.984 . S
H1087 N1081 0.985 . S
H1088 N1085 0.984 . S
H1089 N1085 0.985 . S
H1090 N1084 0.984 . S
H1091 N1084 0.984 . S
H1092 N1080 0.984 . S
H1093 N1080 0.985 . S
C1094 C1095 1.363 . S
C1094 C1100 1.379 . S
C1094 N1102 1.356 . S
C1095 C1094 1.363 . S
C1095 C1101 1.363 . S
C1096 C1097 1.363 . S
C1096 C1101 1.379 . S
C1096 N1103 1.356 . S
C1097 C1096 1.363 . S
C1097 C1100 1.363 . S
N1098 C1100 1.356 . S
N1098 H1110 0.984 . S
N1098 H1111 0.985 . S
N1099 C1101 1.356 . S
N1099 H1104 0.984 . S
N1099 H1105 0.985 . S
C1100 C1094 1.379 . S
C1100 C1097 1.363 . S
C1100 N1098 1.356 . S
C1101 C1095 1.363 . S
C1101 C1096 1.379 . S
C1101 N1099 1.356 . S
N1102 C1094 1.356 . S
N1102 H1108 0.984 . S
N1102 H1109 0.984 . S
N1103 C1096 1.356 . S
N1103 H1106 0.984 . S
N1103 H1107 0.985 . S
H1104 N1099 0.984 . S
H1105 N1099 0.985 . S
H1106 N1103 0.984 . S
H1107 N1103 0.985 . S
H1108 N1102 0.984 . S
H1109 N1102 0.984 . S
H1110 N1098 0.984 . S
H1111 N1098 0.985 . S
C1112 C1113 1.363 . S
C1112 C1118 1.379 . S
C1112 N1120 1.356 . S
C1113 C1112 1.363 . S
C1113 C1119 1.363 . S
C1114 C1115 1.363 . S
C1114 C1119 1.379 . S
C1114 N1121 1.356 . S
C1115 C1114 1.363 . S
C1115 C1118 1.363 . S
N1116 C1118 1.356 . S
N1116 H1128 0.984 . S
N1116 H1129 0.985 . S
N1117 C1119 1.356 . S
N1117 H1122 0.984 . S
N1117 H1123 0.985 . S
C1118 C1112 1.379 . S
C1118 C1115 1.363 . S
C1118 N1116 1.356 . S
C1119 C1113 1.363 . S
C1119 C1114 1.379 . S
C1119 N1117 1.356 . S
N1120 C1112 1.356 . S
N1120 H1126 0.984 . S
N1120 H1127 0.984 . S
N1121 C1114 1.356 . S
N1121 H1124 0.984 . S
N1121 H1125 0.985 . S
H1122 N1117 0.984 . S
H1123 N1117 0.985 . S
H1124 N1121 0.984 . S
H1125 N1121 0.985 . S
H1126 N1120 0.984 . S
H1127 N1120 0.984 . S
H1128 N1116 0.984 . S
H1129 N1116 0.985 . S
C1130 C1131 1.363 . S
C1130 C1136 1.379 . S
C1130 N1138 1.356 . S
C1131 C1130 1.363 . S
C1131 C1137 1.363 . S
C1132 C1133 1.363 . S
C1132 C1137 1.379 . S
C1132 N1139 1.356 1_556 S
C1133 C1132 1.363 . S
C1133 C1136 1.363 . S
N1134 C1136 1.356 . S
N1134 H1146 0.984 . S
N1134 H1147 0.985 . S
N1135 C1137 1.356 . S
N1135 H1140 0.984 . S
N1135 H1141 0.985 . S
C1136 C1130 1.379 . S
C1136 C1133 1.363 . S
C1136 N1134 1.356 . S
C1137 C1131 1.363 . S
C1137 C1132 1.379 . S
C1137 N1135 1.356 . S
N1138 C1130 1.356 . S
N1138 H1144 0.984 . S
N1138 H1145 0.984 . S
N1139 C1132 1.356 1_554 S
N1139 H1142 0.984 . S
N1139 H1143 0.985 . S
H1140 N1135 0.984 . S
H1141 N1135 0.985 . S
H1142 N1139 0.984 . S
H1143 N1139 0.985 . S
H1144 N1138 0.984 . S
H1145 N1138 0.984 . S
H1146 N1134 0.984 . S
H1147 N1134 0.985 . S
C1148 C1149 1.363 . S
C1148 C1154 1.379 . S
C1148 N1156 1.356 . S
C1149 C1148 1.363 . S
C1149 C1155 1.363 . S
C1150 C1151 1.363 . S
C1150 C1155 1.379 . S
C1150 N1157 1.356 . S
C1151 C1150 1.363 . S
C1151 C1154 1.363 . S
N1152 C1154 1.356 . S
N1152 H1164 0.984 . S
N1152 H1165 0.985 . S
N1153 C1155 1.356 . S
N1153 H1158 0.984 . S
N1153 H1159 0.985 . S
C1154 C1148 1.379 . S
C1154 C1151 1.363 . S
C1154 N1152 1.356 . S
C1155 C1149 1.363 . S
C1155 C1150 1.379 . S
C1155 N1153 1.356 . S
N1156 C1148 1.356 . S
N1156 H1162 0.984 . S
N1156 H1163 0.984 . S
N1157 C1150 1.356 . S
N1157 H1160 0.984 . S
N1157 H1161 0.985 . S
H1158 N1153 0.984 . S
H1159 N1153 0.985 . S
H1160 N1157 0.984 . S
H1161 N1157 0.985 . S
H1162 N1156 0.984 . S
H1163 N1156 0.984 . S
H1164 N1152 0.984 . S
H1165 N1152 0.985 . S
C1166 C1167 1.363 . S
C1166 C1172 1.379 . S
C1166 N1174 1.356 . S
C1167 C1166 1.363 . S
C1167 C1173 1.363 . S
C1168 C1169 1.363 . S
C1168 C1173 1.379 . S
C1168 N1175 1.356 . S
C1169 C1168 1.363 . S
C1169 C1172 1.363 . S
N1170 C1172 1.356 . S
N1170 H1182 0.984 . S
N1170 H1183 0.985 . S
N1171 C1173 1.356 . S
N1171 H1176 0.984 . S
N1171 H1177 0.985 . S
C1172 C1166 1.379 . S
C1172 C1169 1.363 . S
C1172 N1170 1.356 . S
C1173 C1167 1.363 . S
C1173 C1168 1.379 . S
C1173 N1171 1.356 . S
N1174 C1166 1.356 . S
N1174 H1180 0.984 . S
N1174 H1181 0.984 . S
N1175 C1168 1.356 . S
N1175 H1178 0.984 . S
N1175 H1179 0.985 . S
H1176 N1171 0.984 . S
H1177 N1171 0.985 . S
H1178 N1175 0.984 . S
H1179 N1175 0.985 . S
H1180 N1174 0.984 . S
H1181 N1174 0.984 . S
H1182 N1170 0.984 . S
H1183 N1170 0.985 . S
C1184 C1185 1.363 . S
C1184 C1190 1.379 . S
C1184 N1192 1.356 . S
C1185 C1184 1.363 . S
C1185 C1191 1.363 . S
C1186 C1187 1.363 . S
C1186 C1191 1.379 . S
C1186 N1193 1.356 . S
C1187 C1186 1.363 . S
C1187 C1190 1.363 . S
N1188 C1190 1.356 . S
N1188 H1200 0.984 . S
N1188 H1201 0.985 . S
N1189 C1191 1.356 . S
N1189 H1194 0.984 . S
N1189 H1195 0.985 . S
C1190 C1184 1.379 . S
C1190 C1187 1.363 . S
C1190 N1188 1.356 . S
C1191 C1185 1.363 . S
C1191 C1186 1.379 . S
C1191 N1189 1.356 . S
N1192 C1184 1.356 . S
N1192 H1198 0.984 . S
N1192 H1199 0.984 . S
N1193 C1186 1.356 . S
N1193 H1196 0.984 . S
N1193 H1197 0.985 . S
H1194 N1189 0.984 . S
H1195 N1189 0.985 . S
H1196 N1193 0.984 . S
H1197 N1193 0.985 . S
H1198 N1192 0.984 . S
H1199 N1192 0.984 . S
H1200 N1188 0.984 . S
H1201 N1188 0.985 . S
C1202 C1203 1.363 . S
C1202 C1208 1.379 . S
C1202 N1210 1.356 . S
C1203 C1202 1.363 . S
C1203 C1209 1.363 . S
C1204 C1205 1.363 . S
C1204 C1209 1.379 . S
C1204 N1211 1.356 . S
C1205 C1204 1.363 . S
C1205 C1208 1.363 . S
N1206 C1208 1.356 . S
N1206 H1218 0.984 . S
N1206 H1219 0.985 . S
N1207 C1209 1.356 . S
N1207 H1212 0.984 . S
N1207 H1213 0.985 . S
C1208 C1202 1.379 . S
C1208 C1205 1.363 . S
C1208 N1206 1.356 . S
C1209 C1203 1.363 . S
C1209 C1204 1.379 . S
C1209 N1207 1.356 . S
N1210 C1202 1.356 . S
N1210 H1216 0.984 . S
N1210 H1217 0.984 . S
N1211 C1204 1.356 . S
N1211 H1214 0.984 . S
N1211 H1215 0.985 . S
H1212 N1207 0.984 . S
H1213 N1207 0.985 . S
H1214 N1211 0.984 . S
H1215 N1211 0.985 . S
H1216 N1210 0.984 . S
H1217 N1210 0.984 . S
H1218 N1206 0.984 . S
H1219 N1206 0.985 . S
C1220 C1221 1.363 . S
C1220 C1226 1.379 . S
C1220 N1228 1.356 . S
C1221 C1220 1.363 . S
C1221 C1227 1.363 . S
C1222 C1223 1.363 . S
C1222 C1227 1.379 . S
C1222 N1229 1.356 . S
C1223 C1222 1.363 . S
C1223 C1226 1.363 . S
N1224 C1226 1.356 . S
N1224 H1236 0.984 . S
N1224 H1237 0.985 . S
N1225 C1227 1.356 . S
N1225 H1230 0.984 . S
N1225 H1231 0.985 . S
C1226 C1220 1.379 . S
C1226 C1223 1.363 . S
C1226 N1224 1.356 . S
C1227 C1221 1.363 . S
C1227 C1222 1.379 . S
C1227 N1225 1.356 . S
N1228 C1220 1.356 . S
N1228 H1234 0.984 . S
N1228 H1235 0.984 . S
N1229 C1222 1.356 . S
N1229 H1232 0.984 . S
N1229 H1233 0.985 . S
H1230 N1225 0.984 . S
H1231 N1225 0.985 . S
H1232 N1229 0.984 . S
H1233 N1229 0.985 . S
H1234 N1228 0.984 . S
H1235 N1228 0.984 . S
H1236 N1224 0.984 . S
H1237 N1224 0.985 . S
C1238 C1239 1.363 . S
C1238 C1244 1.379 . S
C1238 N1246 1.356 . S
C1239 C1238 1.363 . S
C1239 C1245 1.363 . S
C1240 C1241 1.363 . S
C1240 C1245 1.379 . S
C1240 N1247 1.356 . S
C1241 C1240 1.363 . S
C1241 C1244 1.363 . S
N1242 C1244 1.356 . S
N1242 H1254 0.984 . S
N1242 H1255 0.985 . S
N1243 C1245 1.356 . S
N1243 H1248 0.984 . S
N1243 H1249 0.985 . S
C1244 C1238 1.379 . S
C1244 C1241 1.363 . S
C1244 N1242 1.356 . S
C1245 C1239 1.363 . S
C1245 C1240 1.379 . S
C1245 N1243 1.356 . S
N1246 C1238 1.356 . S
N1246 H1252 0.984 . S
N1246 H1253 0.984 . S
N1247 C1240 1.356 . S
N1247 H1250 0.984 . S
N1247 H1251 0.985 . S
H1248 N1243 0.984 . S
H1249 N1243 0.985 . S
H1250 N1247 0.984 . S
H1251 N1247 0.985 . S
H1252 N1246 0.984 . S
H1253 N1246 0.984 . S
H1254 N1242 0.984 . S
H1255 N1242 0.985 . S
C1256 C1257 1.363 . S
C1256 C1262 1.379 . S
C1256 N1264 1.356 . S
C1257 C1256 1.363 . S
C1257 C1263 1.363 . S
C1258 C1259 1.363 . S
C1258 C1263 1.379 . S
C1258 N1265 1.356 . S
C1259 C1258 1.363 . S
C1259 C1262 1.363 . S
N1260 C1262 1.356 . S
N1260 H1272 0.984 . S
N1260 H1273 0.985 . S
N1261 C1263 1.356 . S
N1261 H1266 0.984 . S
N1261 H1267 0.985 . S
C1262 C1256 1.379 . S
C1262 C1259 1.363 . S
C1262 N1260 1.356 . S
C1263 C1257 1.363 . S
C1263 C1258 1.379 . S
C1263 N1261 1.356 . S
N1264 C1256 1.356 . S
N1264 H1270 0.984 . S
N1264 H1271 0.984 . S
N1265 C1258 1.356 . S
N1265 H1268 0.984 . S
N1265 H1269 0.985 . S
H1266 N1261 0.984 . S
H1267 N1261 0.985 . S
H1268 N1265 0.984 . S
H1269 N1265 0.985 . S
H1270 N1264 0.984 . S
H1271 N1264 0.984 . S
H1272 N1260 0.984 . S
H1273 N1260 0.985 . S
C1274 C1275 1.363 . S
C1274 C1280 1.379 . S
C1274 N1282 1.356 . S
C1275 C1274 1.363 . S
C1275 C1281 1.363 . S
C1276 C1277 1.363 . S
C1276 C1281 1.379 . S
C1276 N1283 1.356 . S
C1277 C1276 1.363 . S
C1277 C1280 1.363 . S
N1278 C1280 1.356 . S
N1278 H1290 0.984 . S
N1278 H1291 0.985 . S
N1279 C1281 1.356 . S
N1279 H1284 0.984 . S
N1279 H1285 0.985 . S
C1280 C1274 1.379 . S
C1280 C1277 1.363 . S
C1280 N1278 1.356 . S
C1281 C1275 1.363 . S
C1281 C1276 1.379 . S
C1281 N1279 1.356 . S
N1282 C1274 1.356 . S
N1282 H1288 0.984 . S
N1282 H1289 0.984 . S
N1283 C1276 1.356 . S
N1283 H1286 0.984 . S
N1283 H1287 0.985 . S
H1284 N1279 0.984 . S
H1285 N1279 0.985 . S
H1286 N1283 0.984 . S
H1287 N1283 0.985 . S
H1288 N1282 0.984 . S
H1289 N1282 0.984 . S
H1290 N1278 0.984 . S
H1291 N1278 0.985 . S
C1292 C1293 1.363 . S
C1292 C1298 1.379 . S
C1292 N1300 1.356 . S
C1293 C1292 1.363 . S
C1293 C1299 1.363 . S
C1294 C1295 1.363 . S
C1294 C1299 1.379 . S
C1294 N1301 1.356 . S
C1295 C1294 1.363 . S
C1295 C1298 1.363 . S
N1296 C1298 1.356 . S
N1296 H1308 0.984 . S
N1296 H1309 0.985 . S
N1297 C1299 1.356 . S
N1297 H1302 0.984 . S
N1297 H1303 0.985 . S
C1298 C1292 1.379 . S
C1298 C1295 1.363 . S
C1298 N1296 1.356 . S
C1299 C1293 1.363 . S
C1299 C1294 1.379 . S
C1299 N1297 1.356 . S
N1300 C1292 1.356 . S
N1300 H1306 0.984 . S
N1300 H1307 0.984 . S
N1301 C1294 1.356 . S
N1301 H1304 0.984 1_655 S
N1301 H1305 0.985 . S
H1302 N1297 0.984 . S
H1303 N1297 0.985 . S
H1304 N1301 0.984 1_455 S
H1305 N1301 0.985 . S
H1306 N1300 0.984 . S
H1307 N1300 0.984 . S
H1308 N1296 0.984 . S
H1309 N1296 0.985 . S
C1310 C1311 1.363 . S
C1310 C1316 1.379 . S
C1310 N1318 1.356 . S
C1311 C1310 1.363 . S
C1311 C1317 1.363 . S
C1312 C1313 1.363 . S
C1312 C1317 1.379 . S
C1312 N1319 1.356 . S
C1313 C1312 1.363 . S
C1313 C1316 1.363 . S
N1314 C1316 1.356 . S
N1314 H1326 0.984 . S
N1314 H1327 0.985 . S
N1315 C1317 1.356 . S
N1315 H1320 0.984 . S
N1315 H1321 0.985 . S
C1316 C1310 1.379 . S
C1316 C1313 1.363 . S
C1316 N1314 1.356 . S
C1317 C1311 1.363 . S
C1317 C1312 1.379 . S
C1317 N1315 1.356 . S
N1318 C1310 1.356 . S
N1318 H1324 0.984 . S
N1318 H1325 0.984 . S
N1319 C1312 1.356 . S
N1319 H1322 0.984 . S
N1319 H1323 0.985 . S
H1320 N1315 0.984 . S
H1321 N1315 0.985 . S
H1322 N1319 0.984 . S
H1323 N1319 0.985 . S
H1324 N1318 0.984 . S
H1325 N1318 0.984 . S
H1326 N1314 0.984 . S
H1327 N1314 0.985 . S
C1328 C1329 1.363 . S
C1328 C1334 1.379 . S
C1328 N1336 1.356 . S
C1329 C1328 1.363 . S
C1329 C1335 1.363 . S
C1330 C1331 1.363 . S
C1330 C1335 1.379 . S
C1330 N1337 1.356 . S
C1331 C1330 1.363 . S
C1331 C1334 1.363 . S
N1332 C1334 1.356 . S
N1332 H1344 0.984 . S
N1332 H1345 0.985 . S
N1333 C1335 1.356 . S
N1333 H1338 0.984 . S
N1333 H1339 0.985 . S
C1334 C1328 1.379 . S
C1334 C1331 1.363 . S
C1334 N1332 1.356 . S
C1335 C1329 1.363 . S
C1335 C1330 1.379 . S
C1335 N1333 1.356 . S
N1336 C1328 1.356 . S
N1336 H1342 0.984 . S
N1336 H1343 0.984 . S
N1337 C1330 1.356 . S
N1337 H1340 0.984 . S
N1337 H1341 0.985 . S
H1338 N1333 0.984 . S
H1339 N1333 0.985 . S
H1340 N1337 0.984 . S
H1341 N1337 0.985 . S
H1342 N1336 0.984 . S
H1343 N1336 0.984 . S
H1344 N1332 0.984 . S
H1345 N1332 0.985 . S
C1346 C1347 1.363 . S
C1346 C1352 1.379 . S
C1346 N1354 1.356 . S
C1347 C1346 1.363 . S
C1347 C1353 1.363 . S
C1348 C1349 1.363 . S
C1348 C1353 1.379 . S
C1348 N1355 1.356 . S
C1349 C1348 1.363 . S
C1349 C1352 1.363 . S
N1350 C1352 1.356 . S
N1350 H1362 0.984 . S
N1350 H1363 0.985 . S
N1351 C1353 1.356 . S
N1351 H1356 0.984 . S
N1351 H1357 0.985 . S
C1352 C1346 1.379 . S
C1352 C1349 1.363 . S
C1352 N1350 1.356 . S
C1353 C1347 1.363 . S
C1353 C1348 1.379 . S
C1353 N1351 1.356 . S
N1354 C1346 1.356 . S
N1354 H1360 0.984 . S
N1354 H1361 0.984 . S
N1355 C1348 1.356 . S
N1355 H1358 0.984 . S
N1355 H1359 0.985 . S
H1356 N1351 0.984 . S
H1357 N1351 0.985 . S
H1358 N1355 0.984 . S
H1359 N1355 0.985 . S
H1360 N1354 0.984 . S
H1361 N1354 0.984 . S
H1362 N1350 0.984 . S
H1363 N1350 0.985 . S
C1364 C1365 1.363 . S
C1364 C1370 1.379 . S
C1364 N1372 1.356 . S
C1365 C1364 1.363 . S
C1365 C1371 1.363 . S
C1366 C1367 1.363 . S
C1366 C1371 1.379 . S
C1366 N1373 1.356 . S
C1367 C1366 1.363 . S
C1367 C1370 1.363 . S
N1368 C1370 1.356 . S
N1368 H1380 0.984 . S
N1368 H1381 0.985 . S
N1369 C1371 1.356 . S
N1369 H1374 0.984 . S
N1369 H1375 0.985 . S
C1370 C1364 1.379 . S
C1370 C1367 1.363 . S
C1370 N1368 1.356 . S
C1371 C1365 1.363 . S
C1371 C1366 1.379 . S
C1371 N1369 1.356 . S
N1372 C1364 1.356 . S
N1372 H1378 0.984 . S
N1372 H1379 0.984 . S
N1373 C1366 1.356 . S
N1373 H1376 0.984 . S
N1373 H1377 0.985 . S
H1374 N1369 0.984 . S
H1375 N1369 0.985 . S
H1376 N1373 0.984 . S
H1377 N1373 0.985 . S
H1378 N1372 0.984 . S
H1379 N1372 0.984 . S
H1380 N1368 0.984 . S
H1381 N1368 0.985 . S
C1382 C1383 1.363 . S
C1382 C1388 1.379 . S
C1382 N1390 1.356 . S
C1383 C1382 1.363 . S
C1383 C1389 1.363 . S
C1384 C1385 1.363 . S
C1384 C1389 1.379 . S
C1384 N1391 1.356 . S
C1385 C1384 1.363 . S
C1385 C1388 1.363 . S
N1386 C1388 1.356 . S
N1386 H1398 0.984 . S
N1386 H1399 0.985 . S
N1387 C1389 1.356 . S
N1387 H1392 0.984 . S
N1387 H1393 0.985 . S
C1388 C1382 1.379 . S
C1388 C1385 1.363 . S
C1388 N1386 1.356 . S
C1389 C1383 1.363 . S
C1389 C1384 1.379 . S
C1389 N1387 1.356 . S
N1390 C1382 1.356 . S
N1390 H1396 0.984 . S
N1390 H1397 0.984 . S
N1391 C1384 1.356 . S
N1391 H1394 0.984 . S
N1391 H1395 0.985 . S
H1392 N1387 0.984 . S
H1393 N1387 0.985 . S
H1394 N1391 0.984 . S
H1395 N1391 0.985 . S
H1396 N1390 0.984 . S
H1397 N1390 0.984 . S
H1398 N1386 0.984 . S
H1399 N1386 0.985 . S
C1400 C1401 1.363 . S
C1400 C1406 1.379 . S
C1400 N1408 1.356 . S
C1401 C1400 1.363 . S
C1401 C1407 1.363 . S
C1402 C1403 1.363 . S
C1402 C1407 1.379 . S
C1402 N1409 1.356 . S
C1403 C1402 1.363 . S
C1403 C1406 1.363 . S
N1404 C1406 1.356 1_455 S
N1404 H1416 0.984 . S
N1404 H1417 0.985 . S
N1405 C1407 1.356 . S
N1405 H1410 0.984 . S
N1405 H1411 0.985 . S
C1406 C1400 1.379 . S
C1406 C1403 1.363 . S
C1406 N1404 1.356 1_655 S
C1407 C1401 1.363 . S
C1407 C1402 1.379 . S
C1407 N1405 1.356 . S
N1408 C1400 1.356 . S
N1408 H1414 0.984 . S
N1408 H1415 0.984 . S
N1409 C1402 1.356 . S
N1409 H1412 0.984 . S
N1409 H1413 0.985 . S
H1410 N1405 0.984 . S
H1411 N1405 0.985 . S
H1412 N1409 0.984 . S
H1413 N1409 0.985 . S
H1414 N1408 0.984 . S
H1415 N1408 0.984 . S
H1416 N1404 0.984 . S
H1417 N1404 0.985 . S
C1418 C1419 1.363 . S
C1418 C1424 1.379 . S
C1418 N1426 1.356 . S
C1419 C1418 1.363 . S
C1419 C1425 1.363 . S
C1420 C1421 1.363 . S
C1420 C1425 1.379 . S
C1420 N1427 1.356 . S
C1421 C1420 1.363 . S
C1421 C1424 1.363 . S
N1422 C1424 1.356 . S
N1422 H1434 0.984 . S
N1422 H1435 0.985 . S
N1423 C1425 1.356 . S
N1423 H1428 0.984 . S
N1423 H1429 0.985 . S
C1424 C1418 1.379 . S
C1424 C1421 1.363 . S
C1424 N1422 1.356 . S
C1425 C1419 1.363 . S
C1425 C1420 1.379 . S
C1425 N1423 1.356 . S
N1426 C1418 1.356 . S
N1426 H1432 0.984 . S
N1426 H1433 0.984 . S
N1427 C1420 1.356 . S
N1427 H1430 0.984 . S
N1427 H1431 0.985 . S
H1428 N1423 0.984 . S
H1429 N1423 0.985 . S
H1430 N1427 0.984 . S
H1431 N1427 0.985 . S
H1432 N1426 0.984 . S
H1433 N1426 0.984 . S
H1434 N1422 0.984 . S
H1435 N1422 0.985 . S
C1436 C1437 1.363 . S
C1436 C1442 1.379 . S
C1436 N1444 1.356 . S
C1437 C1436 1.363 . S
C1437 C1443 1.363 . S
C1438 C1439 1.363 . S
C1438 C1443 1.379 . S
C1438 N1445 1.356 . S
C1439 C1438 1.363 . S
C1439 C1442 1.363 . S
N1440 C1442 1.356 . S
N1440 H1452 0.984 . S
N1440 H1453 0.985 . S
N1441 C1443 1.356 . S
N1441 H1446 0.984 . S
N1441 H1447 0.985 . S
C1442 C1436 1.379 . S
C1442 C1439 1.363 . S
C1442 N1440 1.356 . S
C1443 C1437 1.363 . S
C1443 C1438 1.379 . S
C1443 N1441 1.356 . S
N1444 C1436 1.356 . S
N1444 H1450 0.984 . S
N1444 H1451 0.984 . S
N1445 C1438 1.356 . S
N1445 H1448 0.984 . S
N1445 H1449 0.985 . S
H1446 N1441 0.984 . S
H1447 N1441 0.985 . S
H1448 N1445 0.984 . S
H1449 N1445 0.985 . S
H1450 N1444 0.984 . S
H1451 N1444 0.984 . S
H1452 N1440 0.984 . S
H1453 N1440 0.985 . S
C1454 C1455 1.363 . S
C1454 C1460 1.379 . S
C1454 N1462 1.356 . S
C1455 C1454 1.363 . S
C1455 C1461 1.363 . S
C1456 C1457 1.363 . S
C1456 C1461 1.379 . S
C1456 N1463 1.356 . S
C1457 C1456 1.363 . S
C1457 C1460 1.363 . S
N1458 C1460 1.356 . S
N1458 H1470 0.984 . S
N1458 H1471 0.985 . S
N1459 C1461 1.356 . S
N1459 H1464 0.984 . S
N1459 H1465 0.985 . S
C1460 C1454 1.379 . S
C1460 C1457 1.363 . S
C1460 N1458 1.356 . S
C1461 C1455 1.363 . S
C1461 C1456 1.379 . S
C1461 N1459 1.356 . S
N1462 C1454 1.356 . S
N1462 H1468 0.984 . S
N1462 H1469 0.984 . S
N1463 C1456 1.356 . S
N1463 H1466 0.984 . S
N1463 H1467 0.985 . S
H1464 N1459 0.984 . S
H1465 N1459 0.985 . S
H1466 N1463 0.984 . S
H1467 N1463 0.985 . S
H1468 N1462 0.984 . S
H1469 N1462 0.984 . S
H1470 N1458 0.984 . S
H1471 N1458 0.985 . S
C1472 C1473 1.363 . S
C1472 C1478 1.379 . S
C1472 N1480 1.356 . S
C1473 C1472 1.363 . S
C1473 C1479 1.363 . S
C1474 C1475 1.363 . S
C1474 C1479 1.379 . S
C1474 N1481 1.356 . S
C1475 C1474 1.363 . S
C1475 C1478 1.363 . S
N1476 C1478 1.356 . S
N1476 H1488 0.984 . S
N1476 H1489 0.985 1_655 S
N1477 C1479 1.356 . S
N1477 H1482 0.984 . S
N1477 H1483 0.985 . S
C1478 C1472 1.379 . S
C1478 C1475 1.363 . S
C1478 N1476 1.356 . S
C1479 C1473 1.363 . S
C1479 C1474 1.379 . S
C1479 N1477 1.356 . S
N1480 C1472 1.356 . S
N1480 H1486 0.984 . S
N1480 H1487 0.984 . S
N1481 C1474 1.356 . S
N1481 H1484 0.984 . S
N1481 H1485 0.985 . S
H1482 N1477 0.984 . S
H1483 N1477 0.985 . S
H1484 N1481 0.984 . S
H1485 N1481 0.985 . S
H1486 N1480 0.984 . S
H1487 N1480 0.984 . S
H1488 N1476 0.984 . S
H1489 N1476 0.985 1_455 S
C1490 C1491 1.363 . S
C1490 C1496 1.379 . S
C1490 N1498 1.356 . S
C1491 C1490 1.363 . S
C1491 C1497 1.363 . S
C1492 C1493 1.363 . S
C1492 C1497 1.379 . S
C1492 N1499 1.356 . S
C1493 C1492 1.363 . S
C1493 C1496 1.363 . S
N1494 C1496 1.356 . S
N1494 H1506 0.984 . S
N1494 H1507 0.985 . S
N1495 C1497 1.356 . S
N1495 H1500 0.984 . S
N1495 H1501 0.985 . S
C1496 C1490 1.379 . S
C1496 C1493 1.363 . S
C1496 N1494 1.356 . S
C1497 C1491 1.363 . S
C1497 C1492 1.379 . S
C1497 N1495 1.356 . S
N1498 C1490 1.356 . S
N1498 H1504 0.984 . S
N1498 H1505 0.984 . S
N1499 C1492 1.356 . S
N1499 H1502 0.984 . S
N1499 H1503 0.985 . S
H1500 N1495 0.984 . S
H1501 N1495 0.985 . S
H1502 N1499 0.984 . S
H1503 N1499 0.985 . S
H1504 N1498 0.984 . S
H1505 N1498 0.984 . S
H1506 N1494 0.984 . S
H1507 N1494 0.985 . S
C647 C355 2.500 . S
C645 C18 2.481 . S
C665 C333 2.529 . S
C663 C59 2.511 . S
C683 C330 0.981 . S
C681 C98 0.953 . S
C699 C125 1.071 . S
C701 C342 1.024 . S
C717 C169 2.467 . S
C719 C325 2.466 . S
C737 C347 0.994 . S
C735 C218 0.977 . S
C753 C255 1.436 . S
C755 C352 1.347 . S
C771 C288 2.485 . S
C773 C348 2.504 . S
C791 C406 1.092 . S
C789 C15 1.186 . S
C807 C45 0.786 . S
C809 C456 0.790 . S
C827 C379 0.488 . S
C825 C95 0.381 . S
C845 C455 0.805 . S
C843 C128 0.797 . S
C861 C178 0.894 . S
C863 C384 0.907 . S
C881 C450 1.635 . S
C879 C215 1.724 . S
C897 C249 2.306 . S
C899 C409 2.361 . S
C915 C299 2.240 . S
C917 C441 2.222 1_556 S
C933 C9 2.813 . S
C935 C433 2.836 . S
C951 C175 0.774 1_554 S
C953 C463 0.780 . S
C971 C387 1.718 . S
C969 C209 1.736 . S
C989 C438 1.386 . S
C987 C258 1.416 . S
C1005 C285 1.506 . S
C1007 C396 1.485 . S
C1023 C89 3.286 . S
C1025 C460 3.251 . S
C1043 C402 2.643 . S
C1041 C139 2.549 . S
C1059 C48 1.345 . S
C1061 C401 1.351 . S
C1077 C298 2.481 . S
C1079 C517 2.499 . S
C1095 C179 2.465 . S
C1097 C495 2.467 . S
C1115 C492 1.000 . S
C1113 C208 0.982 . S
C1133 C504 1.331 1_556 S
C1131 C245 1.427 . S
C1149 C49 2.513 . S
C1151 C487 2.527 . S
C1169 C509 0.982 . S
C1167 C88 0.953 . S
C1185 C135 1.076 . S
C1187 C514 1.032 . S
C1203 C8 2.484 . S
C1205 C510 2.504 . S
C1221 C295 1.497 . S
C1223 C568 1.471 . S
C1241 C618 0.785 . S
C1239 C165 0.775 . S
C1257 C219 1.732 . S
C1259 C541 1.712 . S
C1275 C248 1.403 . S
C1277 C617 1.375 . S
C1295 C546 1.344 . S
C1293 C58 1.337 . S
C1311 C99 3.278 . S
C1313 C612 3.237 . S
C1331 C571 2.639 . S
C1329 C129 2.547 . S
C1349 C603 2.827 . S
C1347 C19 2.806 . S
C1367 C595 2.224 . S
C1365 C289 2.242 . S
C1383 C55 0.786 . S
C1385 C625 0.792 . S
C1401 C85 0.397 . S
C1403 C549 0.491 . S
C1421 C600 0.815 . S
C1419 C138 0.806 . S
C1437 C5 1.194 . S
C1439 C558 1.099 . S
C1455 C205 1.737 . S
C1457 C622 1.653 . S
C1475 C564 2.373 1_655 S
C1473 C259 2.317 . S
C1493 C563 0.909 . S
C1491 C168 0.896 . S
