# Generated by pormake.
# Topology gar, (4,6)-cn, num edge types: 1
# Building blocks:
#     Node 0, Type 0, BuildingBlock: GALJAG_clean_sbu_0, # of connection points: 4
#     Node 1, Type 0, BuildingBlock: GALJAG_clean_sbu_0, # of connection points: 4
#     Node 2, Type 0, BuildingBlock: GALJAG_clean_sbu_0, # of connection points: 4
#     Node 3, Type 0, BuildingBlock: GALJAG_clean_sbu_0, # of connection points: 4
#     Node 4, Type 0, BuildingBlock: GALJAG_clean_sbu_0, # of connection points: 4
#     Node 5, Type 0, BuildingBlock: GALJAG_clean_sbu_0, # of connection points: 4
#     Node 6, Type 0, BuildingBlock: GALJAG_clean_sbu_0, # of connection points: 4
#     Node 7, Type 0, BuildingBlock: GALJAG_clean_sbu_0, # of connection points: 4
#     Node 8, Type 0, BuildingBlock: GALJAG_clean_sbu_0, # of connection points: 4
#     Node 9, Type 0, BuildingBlock: GALJAG_clean_sbu_0, # of connection points: 4
#     Node 10, Type 0, BuildingBlock: GALJAG_clean_sbu_0, # of connection points: 4
#     Node 11, Type 0, BuildingBlock: GALJAG_clean_sbu_0, # of connection points: 4
#     Node 12, Type 0, BuildingBlock: GALJAG_clean_sbu_0, # of connection points: 4
#     Node 13, Type 0, BuildingBlock: GALJAG_clean_sbu_0, # of connection points: 4
#     Node 14, Type 0, BuildingBlock: GALJAG_clean_sbu_0, # of connection points: 4
#     Node 15, Type 0, BuildingBlock: GALJAG_clean_sbu_0, # of connection points: 4
#     Node 16, Type 0, BuildingBlock: GALJAG_clean_sbu_0, # of connection points: 4
#     Node 17, Type 0, BuildingBlock: GALJAG_clean_sbu_0, # of connection points: 4
#     Node 18, Type 0, BuildingBlock: GALJAG_clean_sbu_0, # of connection points: 4
#     Node 19, Type 0, BuildingBlock: GALJAG_clean_sbu_0, # of connection points: 4
#     Node 20, Type 0, BuildingBlock: GALJAG_clean_sbu_0, # of connection points: 4
#     Node 21, Type 0, BuildingBlock: GALJAG_clean_sbu_0, # of connection points: 4
#     Node 22, Type 0, BuildingBlock: GALJAG_clean_sbu_0, # of connection points: 4
#     Node 23, Type 0, BuildingBlock: GALJAG_clean_sbu_0, # of connection points: 4
#     Node 24, Type 1, BuildingBlock: KUMBOL_clean_sbu_0, # of connection points: 6
#     Node 25, Type 1, BuildingBlock: KUMBOL_clean_sbu_0, # of connection points: 6
#     Node 26, Type 1, BuildingBlock: KUMBOL_clean_sbu_0, # of connection points: 6
#     Node 27, Type 1, BuildingBlock: KUMBOL_clean_sbu_0, # of connection points: 6
#     Node 28, Type 1, BuildingBlock: KUMBOL_clean_sbu_0, # of connection points: 6
#     Node 29, Type 1, BuildingBlock: KUMBOL_clean_sbu_0, # of connection points: 6
#     Node 30, Type 1, BuildingBlock: KUMBOL_clean_sbu_0, # of connection points: 6
#     Node 31, Type 1, BuildingBlock: KUMBOL_clean_sbu_0, # of connection points: 6
#     Node 32, Type 1, BuildingBlock: KUMBOL_clean_sbu_0, # of connection points: 6
#     Node 33, Type 1, BuildingBlock: KUMBOL_clean_sbu_0, # of connection points: 6
#     Node 34, Type 1, BuildingBlock: KUMBOL_clean_sbu_0, # of connection points: 6
#     Node 35, Type 1, BuildingBlock: KUMBOL_clean_sbu_0, # of connection points: 6
#     Node 36, Type 1, BuildingBlock: KUMBOL_clean_sbu_0, # of connection points: 6
#     Node 37, Type 1, BuildingBlock: KUMBOL_clean_sbu_0, # of connection points: 6
#     Node 38, Type 1, BuildingBlock: KUMBOL_clean_sbu_0, # of connection points: 6
#     Node 39, Type 1, BuildingBlock: KUMBOL_clean_sbu_0, # of connection points: 6
#     Edge 40, Type (0, 1), BuildingBlock: XIVTED_clean_linker_0, # of connection points: 2
#     Edge 41, Type (0, 1), BuildingBlock: XIVTED_clean_linker_0, # of connection points: 2
#     Edge 42, Type (0, 1), BuildingBlock: XIVTED_clean_linker_0, # of connection points: 2
#     Edge 43, Type (0, 1), BuildingBlock: XIVTED_clean_linker_0, # of connection points: 2
#     Edge 44, Type (0, 1), BuildingBlock: XIVTED_clean_linker_0, # of connection points: 2
#     Edge 45, Type (0, 1), BuildingBlock: XIVTED_clean_linker_0, # of connection points: 2
#     Edge 46, Type (0, 1), BuildingBlock: XIVTED_clean_linker_0, # of connection points: 2
#     Edge 47, Type (0, 1), BuildingBlock: XIVTED_clean_linker_0, # of connection points: 2
#     Edge 48, Type (0, 1), BuildingBlock: XIVTED_clean_linker_0, # of connection points: 2
#     Edge 49, Type (0, 1), BuildingBlock: XIVTED_clean_linker_0, # of connection points: 2
#     Edge 50, Type (0, 1), BuildingBlock: XIVTED_clean_linker_0, # of connection points: 2
#     Edge 51, Type (0, 1), BuildingBlock: XIVTED_clean_linker_0, # of connection points: 2
#     Edge 52, Type (0, 1), BuildingBlock: XIVTED_clean_linker_0, # of connection points: 2
#     Edge 53, Type (0, 1), BuildingBlock: XIVTED_clean_linker_0, # of connection points: 2
#     Edge 54, Type (0, 1), BuildingBlock: XIVTED_clean_linker_0, # of connection points: 2
#     Edge 55, Type (0, 1), BuildingBlock: XIVTED_clean_linker_0, # of connection points: 2
#     Edge 56, Type (0, 1), BuildingBlock: XIVTED_clean_linker_0, # of connection points: 2
#     Edge 57, Type (0, 1), BuildingBlock: XIVTED_clean_linker_0, # of connection points: 2
#     Edge 58, Type (0, 1), BuildingBlock: XIVTED_clean_linker_0, # of connection points: 2
#     Edge 59, Type (0, 1), BuildingBlock: XIVTED_clean_linker_0, # of connection points: 2
#     Edge 60, Type (0, 1), BuildingBlock: XIVTED_clean_linker_0, # of connection points: 2
#     Edge 61, Type (0, 1), BuildingBlock: XIVTED_clean_linker_0, # of connection points: 2
#     Edge 62, Type (0, 1), BuildingBlock: XIVTED_clean_linker_0, # of connection points: 2
#     Edge 63, Type (0, 1), BuildingBlock: XIVTED_clean_linker_0, # of connection points: 2
#     Edge 64, Type (0, 1), BuildingBlock: XIVTED_clean_linker_0, # of connection points: 2
#     Edge 65, Type (0, 1), BuildingBlock: XIVTED_clean_linker_0, # of connection points: 2
#     Edge 66, Type (0, 1), BuildingBlock: XIVTED_clean_linker_0, # of connection points: 2
#     Edge 67, Type (0, 1), BuildingBlock: XIVTED_clean_linker_0, # of connection points: 2
#     Edge 68, Type (0, 1), BuildingBlock: XIVTED_clean_linker_0, # of connection points: 2
#     Edge 69, Type (0, 1), BuildingBlock: XIVTED_clean_linker_0, # of connection points: 2
#     Edge 70, Type (0, 1), BuildingBlock: XIVTED_clean_linker_0, # of connection points: 2
#     Edge 71, Type (0, 1), BuildingBlock: XIVTED_clean_linker_0, # of connection points: 2
#     Edge 72, Type (0, 1), BuildingBlock: XIVTED_clean_linker_0, # of connection points: 2
#     Edge 73, Type (0, 1), BuildingBlock: XIVTED_clean_linker_0, # of connection points: 2
#     Edge 74, Type (0, 1), BuildingBlock: XIVTED_clean_linker_0, # of connection points: 2
#     Edge 75, Type (0, 1), BuildingBlock: XIVTED_clean_linker_0, # of connection points: 2
#     Edge 76, Type (0, 1), BuildingBlock: XIVTED_clean_linker_0, # of connection points: 2
#     Edge 77, Type (0, 1), BuildingBlock: XIVTED_clean_linker_0, # of connection points: 2
#     Edge 78, Type (0, 1), BuildingBlock: XIVTED_clean_linker_0, # of connection points: 2
#     Edge 79, Type (0, 1), BuildingBlock: XIVTED_clean_linker_0, # of connection points: 2
#     Edge 80, Type (0, 1), BuildingBlock: XIVTED_clean_linker_0, # of connection points: 2
#     Edge 81, Type (0, 1), BuildingBlock: XIVTED_clean_linker_0, # of connection points: 2
#     Edge 82, Type (0, 1), BuildingBlock: XIVTED_clean_linker_0, # of connection points: 2
#     Edge 83, Type (0, 1), BuildingBlock: XIVTED_clean_linker_0, # of connection points: 2
#     Edge 84, Type (0, 1), BuildingBlock: XIVTED_clean_linker_0, # of connection points: 2
#     Edge 85, Type (0, 1), BuildingBlock: XIVTED_clean_linker_0, # of connection points: 2
#     Edge 86, Type (0, 1), BuildingBlock: XIVTED_clean_linker_0, # of connection points: 2
#     Edge 87, Type (0, 1), BuildingBlock: XIVTED_clean_linker_0, # of connection points: 2
#     Edge 88, Type (0, 1), BuildingBlock: XIVTED_clean_linker_0, # of connection points: 2
#     Edge 89, Type (0, 1), BuildingBlock: XIVTED_clean_linker_0, # of connection points: 2
#     Edge 90, Type (0, 1), BuildingBlock: XIVTED_clean_linker_0, # of connection points: 2
#     Edge 91, Type (0, 1), BuildingBlock: XIVTED_clean_linker_0, # of connection points: 2
#     Edge 92, Type (0, 1), BuildingBlock: XIVTED_clean_linker_0, # of connection points: 2
#     Edge 93, Type (0, 1), BuildingBlock: XIVTED_clean_linker_0, # of connection points: 2
#     Edge 94, Type (0, 1), BuildingBlock: XIVTED_clean_linker_0, # of connection points: 2
#     Edge 95, Type (0, 1), BuildingBlock: XIVTED_clean_linker_0, # of connection points: 2
#     Edge 96, Type (0, 1), BuildingBlock: XIVTED_clean_linker_0, # of connection points: 2
#     Edge 97, Type (0, 1), BuildingBlock: XIVTED_clean_linker_0, # of connection points: 2
#     Edge 98, Type (0, 1), BuildingBlock: XIVTED_clean_linker_0, # of connection points: 2
#     Edge 99, Type (0, 1), BuildingBlock: XIVTED_clean_linker_0, # of connection points: 2
#     Edge 100, Type (0, 1), BuildingBlock: XIVTED_clean_linker_0, # of connection points: 2
#     Edge 101, Type (0, 1), BuildingBlock: XIVTED_clean_linker_0, # of connection points: 2
#     Edge 102, Type (0, 1), BuildingBlock: XIVTED_clean_linker_0, # of connection points: 2
#     Edge 103, Type (0, 1), BuildingBlock: XIVTED_clean_linker_0, # of connection points: 2
#     Edge 104, Type (0, 1), BuildingBlock: XIVTED_clean_linker_0, # of connection points: 2
#     Edge 105, Type (0, 1), BuildingBlock: XIVTED_clean_linker_0, # of connection points: 2
#     Edge 106, Type (0, 1), BuildingBlock: XIVTED_clean_linker_0, # of connection points: 2
#     Edge 107, Type (0, 1), BuildingBlock: XIVTED_clean_linker_0, # of connection points: 2
#     Edge 108, Type (0, 1), BuildingBlock: XIVTED_clean_linker_0, # of connection points: 2
#     Edge 109, Type (0, 1), BuildingBlock: XIVTED_clean_linker_0, # of connection points: 2
#     Edge 110, Type (0, 1), BuildingBlock: XIVTED_clean_linker_0, # of connection points: 2
#     Edge 111, Type (0, 1), BuildingBlock: XIVTED_clean_linker_0, # of connection points: 2
#     Edge 112, Type (0, 1), BuildingBlock: XIVTED_clean_linker_0, # of connection points: 2
#     Edge 113, Type (0, 1), BuildingBlock: XIVTED_clean_linker_0, # of connection points: 2
#     Edge 114, Type (0, 1), BuildingBlock: XIVTED_clean_linker_0, # of connection points: 2
#     Edge 115, Type (0, 1), BuildingBlock: XIVTED_clean_linker_0, # of connection points: 2
#     Edge 116, Type (0, 1), BuildingBlock: XIVTED_clean_linker_0, # of connection points: 2
#     Edge 117, Type (0, 1), BuildingBlock: XIVTED_clean_linker_0, # of connection points: 2
#     Edge 118, Type (0, 1), BuildingBlock: XIVTED_clean_linker_0, # of connection points: 2
#     Edge 119, Type (0, 1), BuildingBlock: XIVTED_clean_linker_0, # of connection points: 2
#     Edge 120, Type (0, 1), BuildingBlock: XIVTED_clean_linker_0, # of connection points: 2
#     Edge 121, Type (0, 1), BuildingBlock: XIVTED_clean_linker_0, # of connection points: 2
#     Edge 122, Type (0, 1), BuildingBlock: XIVTED_clean_linker_0, # of connection points: 2
#     Edge 123, Type (0, 1), BuildingBlock: XIVTED_clean_linker_0, # of connection points: 2
#     Edge 124, Type (0, 1), BuildingBlock: XIVTED_clean_linker_0, # of connection points: 2
#     Edge 125, Type (0, 1), BuildingBlock: XIVTED_clean_linker_0, # of connection points: 2
#     Edge 126, Type (0, 1), BuildingBlock: XIVTED_clean_linker_0, # of connection points: 2
#     Edge 127, Type (0, 1), BuildingBlock: XIVTED_clean_linker_0, # of connection points: 2
#     Edge 128, Type (0, 1), BuildingBlock: XIVTED_clean_linker_0, # of connection points: 2
#     Edge 129, Type (0, 1), BuildingBlock: XIVTED_clean_linker_0, # of connection points: 2
#     Edge 130, Type (0, 1), BuildingBlock: XIVTED_clean_linker_0, # of connection points: 2
#     Edge 131, Type (0, 1), BuildingBlock: XIVTED_clean_linker_0, # of connection points: 2
#     Edge 132, Type (0, 1), BuildingBlock: XIVTED_clean_linker_0, # of connection points: 2
#     Edge 133, Type (0, 1), BuildingBlock: XIVTED_clean_linker_0, # of connection points: 2
#     Edge 134, Type (0, 1), BuildingBlock: XIVTED_clean_linker_0, # of connection points: 2
#     Edge 135, Type (0, 1), BuildingBlock: XIVTED_clean_linker_0, # of connection points: 2
# Relax obj value: 0.136
# Max RMSD: 0.323
# Mean RMSD: 0.168
data_MOF--net-gar--node1-GALJAG_clean_sbu_0--node2-KUMBOL_clean_sbu_0--edge1-XIVTED_clean_linker_0
_symmetry_space_group_name_H-M    P1
_symmetry_Int_Tables_number       1
_symmetry_cell_setting            triclinic
loop_
_symmetry_equiv_pos_as_xyz
'x, y, z'
_cell_length_a     61.733045
_cell_length_b     56.317597
_cell_length_c     56.21447
_cell_angle_alpha  100.17462
_cell_angle_beta   93.461884
_cell_angle_gamma 101.6004
loop_
_atom_site_label
_atom_site_type_symbol
_atom_site_fract_x
_atom_site_fract_y
_atom_site_fract_z
_atom_type_partial_charge
In0 In 0.10367 0.32451 0.37843 0.0
O1 O 0.12502 0.31638 0.34754 0.0
O2 O 0.1416 0.33124 0.38282 0.0
C3 C 0.07034 0.31379 0.34245 0.0
C4 C 0.09865 0.29459 0.41141 0.0
C5 C 0.09856 0.3706 0.39584 0.0
O6 O 0.08806 0.32957 0.34265 0.0
O7 O 0.06988 0.30226 0.35984 0.0
O8 O 0.08266 0.35206 0.39153 0.0
O9 O 0.11738 0.36586 0.39255 0.0
C10 C 0.14328 0.32427 0.36057 0.0
O11 O 0.10182 0.31778 0.41718 0.0
O12 O 0.09835 0.28638 0.38896 0.0
In13 In 0.01666 0.77426 0.68514 0.0
O14 O 0.01306 0.78217 0.64712 0.0
O15 O 0.03202 0.81108 0.67453 0.0
C16 C 0.00853 0.72709 0.66153 0.0
C17 C 0.05618 0.77725 0.71009 0.0
C18 C 0.97989 0.77922 0.70792 0.0
O19 O 1.00089 0.74346 0.65314 0.0
O20 O 0.0193 0.73436 0.68217 0.0
O21 O 0.98803 0.76032 0.7063 0.0
O22 O 0.99095 0.7964 0.69917 0.0
C23 C 0.0247 0.80385 0.65237 0.0
O24 O 0.04043 0.7844 0.72065 0.0
O25 O 0.05226 0.77054 0.68741 0.0
In26 In 0.60374 0.81847 0.87591 0.0
O27 O 0.62623 0.81026 0.8459 0.0
O28 O 0.64149 0.8292 0.88079 0.0
C29 C 0.57103 0.81091 0.83966 0.0
C30 C 0.59976 0.78756 0.90801 0.0
C31 C 0.59704 0.86267 0.89716 0.0
O32 O 0.58863 0.8273 0.84165 0.0
O33 O 0.57039 0.79722 0.85528 0.0
O34 O 0.5819 0.84335 0.89307 0.0
O35 O 0.61576 0.85964 0.89108 0.0
C36 C 0.644 0.82104 0.85902 0.0
O37 O 0.60407 0.81073 0.91422 0.0
O38 O 0.59785 0.77963 0.88533 0.0
In39 In 0.5131 0.27138 0.1879 0.0
O40 O 0.49809 0.24044 0.15574 0.0
O41 O 0.51395 0.23078 0.18597 0.0
C42 C 0.52402 0.3054 0.16007 0.0
C43 C 0.47429 0.27486 0.20665 0.0
C44 C 0.55294 0.27713 0.21317 0.0
O45 O 0.51984 0.28242 0.15209 0.0
O46 O 0.52256 0.31168 0.1826 0.0
O47 O 0.53604 0.28075 0.22376 0.0
O48 O 0.54969 0.27178 0.19035 0.0
C49 C 0.50411 0.22367 0.16488 0.0
O50 O 0.48958 0.26818 0.21794 0.0
O51 O 0.47912 0.28091 0.1868 0.0
In52 In 0.10068 0.82201 0.12899 0.0
O53 O 0.099 0.78907 0.09614 0.0
O54 O 0.09069 0.78087 0.13017 0.0
C55 C 0.09877 0.86345 0.10814 0.0
C56 C 0.06462 0.82049 0.15512 0.0
C57 C 0.14221 0.82471 0.15222 0.0
O58 O 0.10563 0.86434 0.12993 0.0
O59 O 0.09381 0.84158 0.096 0.0
O60 O 0.12647 0.83152 0.16291 0.0
O61 O 0.13767 0.81808 0.12948 0.0
C62 C 0.09318 0.77241 0.10844 0.0
O63 O 0.08443 0.82768 0.16468 0.0
O64 O 0.06284 0.81436 0.13225 0.0
In65 In 0.5294 0.77703 0.43072 0.0
O66 O 0.54689 0.77151 0.39581 0.0
O67 O 0.5675 0.78717 0.42852 0.0
C68 C 0.48819 0.77309 0.40608 0.0
C69 C 0.53053 0.73516 0.45122 0.0
C70 C 0.53556 0.82623 0.45245 0.0
O71 O 0.50449 0.76695 0.39605 0.0
O72 O 0.49209 0.77996 0.42886 0.0
O73 O 0.53123 0.80906 0.46445 0.0
O74 O 0.53704 0.8185 0.43027 0.0
C75 C 0.56641 0.78033 0.40575 0.0
O76 O 0.53455 0.75683 0.46376 0.0
O77 O 0.52524 0.7347 0.42911 0.0
In78 In 0.60151 0.32344 0.62779 0.0
O79 O 0.59997 0.2896 0.59585 0.0
O80 O 0.5929 0.28263 0.63062 0.0
C81 C 0.59854 0.36372 0.60546 0.0
C82 C 0.56513 0.322 0.65347 0.0
C83 C 0.64335 0.32812 0.65131 0.0
O84 O 0.59461 0.34166 0.59382 0.0
O85 O 0.60491 0.36541 0.62756 0.0
O86 O 0.62713 0.33379 0.66187 0.0
O87 O 0.63905 0.32156 0.62853 0.0
C88 C 0.595 0.2735 0.60895 0.0
O89 O 0.58483 0.33044 0.6631 0.0
O90 O 0.56364 0.31454 0.63076 0.0
In91 In 0.02503 0.27396 0.93188 0.0
O92 O 0.03019 0.25455 0.96544 0.0
O93 O 0.0214 0.23182 0.93099 0.0
C94 C 0.03247 0.32374 0.9524 0.0
C95 C 0.06118 0.27513 0.90581 0.0
C96 C 0.9835 0.26897 0.90752 0.0
O97 O 0.02756 0.30708 0.96488 0.0
O98 O 0.03383 0.31524 0.93037 0.0
O99 O 1.00001 0.26349 0.89747 0.0
O100 O 0.98738 0.27591 0.93031 0.0
C101 C 0.02655 0.23276 0.95322 0.0
O102 O 0.04136 0.26798 0.89635 0.0
O103 O 0.06301 0.28152 0.92868 0.0
In104 In 0.43581 0.04746 0.30205 0.0
O105 O 0.4593 0.06593 0.27751 0.0
O106 O 0.46369 0.03165 0.28578 0.0
C107 C 0.45658 0.06293 0.34698 0.0
C108 C 0.40582 0.0761 0.30099 0.0
C109 C 0.4128 1.00022 0.29019 0.0
O110 O 0.46399 0.07168 0.32915 0.0
O111 O 0.43874 0.04672 0.34205 0.0
O112 O 0.41108 0.01579 0.27696 0.0
O113 O 0.42585 1.00857 0.30927 0.0
C114 C 0.47031 0.04915 0.27497 0.0
O115 O 0.41316 0.07054 0.32014 0.0
O116 O 0.41376 0.06741 0.28201 0.0
In117 In 0.2987 0.18259 0.51364 0.0
O118 O 0.30197 0.2182 0.54328 0.0
O119 O 0.29878 0.18354 0.55406 0.0
C120 C 0.30078 0.20071 0.4716 0.0
C121 C 0.33122 0.15648 0.51468 0.0
C122 C 0.25562 0.15955 0.51003 0.0
O123 O 0.31375 0.21115 0.49045 0.0
O124 O 0.28715 0.18173 0.47415 0.0
O125 O 0.27084 0.14805 0.50479 0.0
O126 O 0.26214 0.18267 0.51686 0.0
C127 C 0.30054 0.20648 0.56059 0.0
O128 O 0.31089 0.14645 0.50968 0.0
O129 O 0.33533 0.17978 0.51846 0.0
In130 In 0.18081 0.01893 0.77853 0.0
O131 O 0.14761 0.01604 0.75118 0.0
O132 O 0.17752 0.02109 0.73579 0.0
C133 C 0.15788 0.02121 0.82296 0.0
C134 C 0.20395 0.97717 0.77659 0.0
C135 C 0.20699 0.06766 0.78173 0.0
O136 O 0.15064 1.00621 0.8031 0.0
O137 O 0.17636 0.03468 0.8206 0.0
O138 O 0.21522 0.04872 0.78149 0.0
O139 O 0.18606 0.06219 0.7809 0.0
C140 C 0.15677 0.01944 0.73205 0.0
O141 O 0.18572 0.97649 0.76443 0.0
O142 O 0.21067 0.99859 0.78954 0.0
In143 In 0.32256 0.93615 0.03745 0.0
O144 O 0.31739 0.90471 0.05854 0.0
O145 O 0.33761 0.93919 0.07619 0.0
C146 C 0.30965 0.90986 0.99211 0.0
C147 C 0.29248 0.96364 0.05004 0.0
C148 C 0.36431 0.9542 0.02847 0.0
O149 O 0.31091 0.8998 0.01035 0.0
O150 O 0.31367 0.93315 0.99695 0.0
O151 O 0.35051 0.96779 0.03286 0.0
O152 O 0.3571 0.93172 0.02893 0.0
C153 C 0.32952 0.91706 0.07729 0.0
O154 O 0.31281 0.97283 0.04976 0.0
O155 O 0.28715 0.94042 0.04376 0.0
In156 In 0.32302 0.39383 0.04209 0.0
O157 O 0.31517 0.36035 0.06114 0.0
O158 O 0.32284 0.39624 0.08306 0.0
C159 C 0.32363 0.37379 0.99451 0.0
C160 C 0.2863 0.41298 0.03849 0.0
C161 C 0.36575 0.41933 0.05005 0.0
O162 O 0.3209 0.36046 0.01048 0.0
O163 O 0.32575 0.39657 1.00263 0.0
O164 O 0.3495 0.42962 0.05338 0.0
O165 O 0.36048 0.39612 0.04343 0.0
C166 C 0.31746 0.37331 0.08231 0.0
O167 O 0.30559 0.4263 0.04408 0.0
O168 O 0.2855 0.39006 0.03498 0.0
In169 In 0.79072 0.13871 0.03254 0.0
O170 O 0.80156 0.10205 0.03207 0.0
O171 O 0.81912 0.12718 0.01238 0.0
C172 C 0.74632 0.12437 0.03143 0.0
C173 C 0.80514 0.16015 0.07886 0.0
C174 C 0.78911 0.1719 1.00386 0.0
O175 O 0.75755 0.11199 0.01817 0.0
O176 O 0.75755 0.14333 0.04549 0.0
O177 O 0.80008 0.1773 0.02445 0.0
O178 O 0.7799 0.14935 0.99707 0.0
C179 C 0.81698 0.10656 0.01877 0.0
O180 O 0.81225 0.16916 0.06109 0.0
O181 O 0.7918 0.13941 0.07322 0.0
In182 In 0.19898 0.54081 0.26766 0.0
O183 O 0.22706 0.51953 0.26455 0.0
O184 O 0.19892 0.50527 0.28159 0.0
C185 C 0.22292 0.58733 0.27206 0.0
C186 C 0.17847 0.52671 0.22217 0.0
C187 C 0.17297 0.55238 0.30276 0.0
O188 O 0.22967 0.57147 0.28217 0.0
O189 O 0.20454 0.57948 0.25924 0.0
O190 O 0.16526 0.5424 0.28124 0.0
O191 O 0.1938 0.55597 0.30677 0.0
C192 C 0.21765 0.50288 0.27512 0.0
O193 O 0.16898 0.5221 0.24058 0.0
O194 O 0.19867 0.53763 0.22658 0.0
In195 In 0.82561 0.899 0.54554 0.0
O196 O 0.81502 0.86584 0.56483 0.0
O197 O 0.82711 0.90123 0.58665 0.0
C198 C 0.8251 0.87573 0.49871 0.0
C199 C 0.79154 0.92251 0.54213 0.0
C200 C 0.86847 0.92405 0.55175 0.0
O201 O 0.82155 0.8639 0.51577 0.0
O202 O 0.82895 0.89891 0.5054 0.0
O203 O 0.85227 0.93458 0.55273 0.0
O204 O 0.86314 0.90074 0.5478 0.0
C205 C 0.81964 0.87862 0.58605 0.0
O206 O 0.81003 0.93273 0.55395 0.0
O207 O 0.78986 0.90014 0.53254 0.0
In208 In 0.93855 0.0742 0.28271 0.0
O209 O 0.96897 0.08577 0.25811 0.0
O210 O 0.94173 0.05964 0.24004 0.0
C211 C 0.96287 0.0737 0.32906 0.0
C212 C 0.91544 0.11591 0.28415 0.0
C213 C 0.91268 0.02539 0.27992 0.0
O214 O 0.97185 0.07662 0.30974 0.0
O215 O 0.9422 0.07258 0.32557 0.0
O216 O 0.90473 0.04466 0.28343 0.0
O217 O 0.93312 0.03054 0.27708 0.0
C218 C 0.96084 0.07192 0.23788 0.0
O219 O 0.90753 0.09368 0.27371 0.0
O220 O 0.93488 0.11743 0.29401 0.0
In221 In 0.28685 0.64707 0.51879 0.0
O222 O 0.2976 0.61046 0.51884 0.0
O223 O 0.32128 0.64056 0.51145 0.0
C224 C 0.24228 0.63227 0.51481 0.0
C225 C 0.29625 0.67224 0.56503 0.0
C226 C 0.28704 0.66835 0.47947 0.0
O227 O 0.25469 0.61751 0.50827 0.0
O228 O 0.2524 0.65401 0.52399 0.0
O229 O 0.29405 0.68051 0.50056 0.0
O230 O 0.28088 0.64536 0.47811 0.0
C231 C 0.31704 0.61824 0.51368 0.0
O232 O 0.30108 0.68207 0.54698 0.0
O233 O 0.28739 0.64948 0.55979 0.0
In234 In 0.4383 0.57421 0.77911 0.0
O235 O 0.4071 0.59345 0.77002 0.0
O236 O 0.4341 0.61726 0.79085 0.0
C237 C 0.41311 0.52489 0.77494 0.0
C238 C 0.46142 0.57276 0.73491 0.0
C239 C 0.46177 0.57349 0.82591 0.0
O240 O 0.40441 0.54355 0.77556 0.0
O241 O 0.43402 0.53093 0.77584 0.0
O242 O 0.47114 0.57697 0.80693 0.0
O243 O 0.44106 0.57196 0.82191 0.0
C244 C 0.41476 0.61565 0.78067 0.0
O245 O 0.46892 0.58685 0.75519 0.0
O246 O 0.44254 0.55978 0.73672 0.0
In247 In 0.69649 0.02816 0.75622 0.0
O248 O 0.72429 1.00685 0.75776 0.0
O249 O 0.69872 1.00037 0.78083 0.0
C250 C 0.71968 0.07474 0.7588 0.0
C251 C 0.68111 1.00935 0.7094 0.0
C252 C 0.66374 0.03997 0.78236 0.0
O253 O 0.72743 0.05936 0.76873 0.0
O254 O 0.70069 0.06642 0.74739 0.0
O255 O 0.66002 0.02551 0.76201 0.0
O256 O 0.68403 0.0478 0.79001 0.0
C257 C 0.71659 0.99547 0.77385 0.0
O258 O 0.67122 1.00262 0.72684 0.0
O259 O 0.69955 0.02432 0.71559 0.0
In260 In 0.79674 0.68333 0.01992 0.0
O261 O 0.80901 0.64759 0.01951 0.0
O262 O 0.8335 0.68079 0.02644 0.0
C263 C 0.75319 0.66101 0.01244 0.0
C264 C 0.79694 0.70759 0.06636 0.0
C265 C 0.80145 0.70338 0.97917 0.0
O266 O 0.76847 0.64943 1.00812 0.0
O267 O 0.75984 0.68398 0.02005 0.0
O268 O 0.80683 0.71615 1.0003 0.0
O269 O 0.79418 0.68073 0.97866 0.0
C270 C 0.82932 0.6576 0.02421 0.0
O271 O 0.80382 0.71872 0.0497 0.0
O272 O 0.79045 0.68453 0.05964 0.0
In273 In 0.93152 0.53873 0.7967 0.0
O274 O 0.90374 0.55957 0.80381 0.0
O275 O 0.92553 0.56985 0.77793 0.0
C276 C 0.90807 0.49206 0.79069 0.0
C277 C 0.9579 0.53115 0.7611 0.0
C278 C 0.95183 0.55225 0.84235 0.0
O279 O 0.89952 0.50953 0.78616 0.0
O280 O 0.92837 0.49823 0.79868 0.0
O281 O 0.96054 0.55976 0.82459 0.0
O282 O 0.93279 0.53839 0.83714 0.0
C283 C 0.9087 0.57311 0.78852 0.0
O284 O 0.96523 0.54463 0.78157 0.0
O285 O 0.93737 0.52177 0.75864 0.0
In286 In 0.82437 0.44337 0.53924 0.0
O287 O 0.81316 0.41287 0.56027 0.0
O288 O 0.8384 0.44354 0.57777 0.0
C289 C 0.81241 0.41615 0.49413 0.0
C290 C 0.79616 0.47364 0.55048 0.0
C291 C 0.86698 0.45971 0.53188 0.0
O292 O 0.81377 0.40666 0.5127 0.0
O293 O 0.81601 0.43942 0.49842 0.0
O294 O 0.85326 0.47363 0.53429 0.0
O295 O 0.85932 0.43767 0.53369 0.0
C296 C 0.82647 0.42285 0.57889 0.0
O297 O 0.81683 0.48147 0.55117 0.0
O298 O 0.78965 0.45055 0.54398 0.0
In299 In 0.67999 0.51665 0.27568 0.0
O300 O 0.68456 0.47387 0.26304 0.0
O301 O 0.71024 0.49692 0.28658 0.0
C302 C 0.70633 0.56524 0.27879 0.0
C303 C 0.65632 0.51658 0.22868 0.0
C304 C 0.65722 0.51961 0.32021 0.0
O305 O 0.71449 0.54647 0.27987 0.0
O306 O 0.68535 0.55967 0.27655 0.0
O307 O 0.64983 0.50438 0.30053 0.0
O308 O 0.67565 0.53297 0.31754 0.0
C309 C 0.70318 0.47508 0.2747 0.0
O310 O 0.64705 0.51426 0.24798 0.0
O311 O 0.67694 0.51742 0.23257 0.0
Gd312 Gd 0.08489 0.0683 0.04571 0.0
Gd313 Gd 0.03557 0.02627 0.0157 0.0
C314 C 0.02583 0.94271 0.01204 0.0
C315 C 0.0246 0.92716 0.96873 0.0
C316 C 0.02908 0.97119 0.98428 0.0
C317 C 0.02898 0.96704 1.00768 0.0
C318 C 0.02621 0.95124 0.96444 0.0
C319 C 0.02441 0.92289 0.99253 0.0
C320 C 0.02317 0.9389 0.0357 0.0
C321 C 0.02268 0.95895 0.05403 0.0
N322 N 0.03003 0.9866 0.02597 0.0
C323 C 0.02574 0.98269 0.04874 0.0
H324 H 0.02538 0.99782 0.06327 0.0
C325 C 0.02647 0.999 0.95792 0.0
N326 N 0.03007 0.99456 0.98085 0.0
C327 C 0.02376 0.9799 0.93765 0.0
C328 C 0.02402 0.95596 0.9409 0.0
H329 H 0.02639 0.01751 0.95522 0.0
H330 H 0.0223 0.90412 0.99557 0.0
H331 H 0.09458 0.10183 1.0019 0.0
H332 H 0.02073 0.92053 0.03982 0.0
H333 H 0.02003 0.95617 0.07228 0.0
H334 H 0.02266 0.91162 0.95375 0.0
H335 H 0.09894 0.07235 0.10563 0.0
H336 H 0.09486 0.17705 0.03215 0.0
H337 H 0.09794 0.14497 0.99707 0.0
H338 H 0.09439 0.17738 0.11716 0.0
H339 H 0.02151 0.98368 0.91954 0.0
H340 H 0.02177 0.94114 0.92518 0.0
H341 H 0.09276 0.18882 0.07697 0.0
H342 H 0.10355 0.10328 0.14348 0.0
N343 N 0.08827 0.10893 0.03905 0.0
C344 C 0.09322 0.15807 0.03436 0.0
C345 C 0.09505 0.14004 0.01455 0.0
C346 C 0.09069 0.15163 0.05712 0.0
C347 C 0.08867 0.12663 0.05903 0.0
C348 C 0.09301 0.11552 0.01736 0.0
N349 N 0.09058 0.09654 0.08303 0.0
C350 C 0.08984 0.12023 0.08173 0.0
C351 C 0.0994 0.10821 0.12628 0.0
C352 C 0.09686 0.13213 0.12545 0.0
C353 C 0.09665 0.09068 0.10475 0.0
C354 C 0.09268 0.13861 0.10297 0.0
H355 H 0.09919 0.14573 0.14215 0.0
O356 O 0.11342 0.05113 0.04836 0.0
O357 O 0.06856 0.02797 0.03511 0.0
O358 O 0.03028 0.03875 0.05679 0.0
O359 O 0.05942 0.07136 0.07446 0.0
O360 O 0.08331 0.04071 0.07042 0.0
O361 O 0.11833 0.08904 0.04432 0.0
O362 O 0.00602 0.03075 0.99543 0.0
O363 O 0.05198 0.06661 0.02601 0.0
O364 O 0.0889 0.05856 1.00405 0.0
O365 O 0.06266 0.02241 0.9888 0.0
O366 O 0.03667 0.05396 0.99112 0.0
O367 O 1.00399 0.02175 0.03118 0.0
C368 C 0.0729 0.02126 0.05516 0.0
C369 C 0.09258 0.16311 0.10104 0.0
C370 C 0.09162 0.16962 0.07814 0.0
C371 C 0.12778 0.0714 0.04848 0.0
C372 C 0.14668 0.07787 0.06737 0.0
C373 C 0.14994 0.09912 0.08568 0.0
C374 C 0.162 0.06256 0.06667 0.0
C375 C 0.18059 0.06825 0.084 0.0
C376 C 0.16828 0.1048 0.10308 0.0
C377 C 0.1836 0.08953 0.10225 0.0
C378 C 0.0398 0.05659 0.07577 0.0
C379 C 0.04719 0.07336 1.00614 0.0
C380 C 0.99318 0.02551 0.01209 0.0
C381 C 0.97147 1.00903 1.00384 0.0
C382 C 0.96887 0.98331 0.9979 0.0
C383 C 0.95288 0.01958 1.00236 0.0
C384 C 0.93154 1.00469 0.99519 0.0
C385 C 0.94769 0.96832 0.99073 0.0
C386 C 0.92906 0.9789 0.98949 0.0
C387 C 0.08084 0.03896 0.98621 0.0
H388 H 0.13847 0.11141 0.08649 0.0
H389 H 0.15969 0.04648 0.0522 0.0
H390 H 0.17071 0.12117 0.11717 0.0
H391 H 0.19772 0.0943 0.1159 0.0
H392 H 0.9831 0.97489 0.99896 0.0
H393 H 0.95503 0.03948 1.00735 0.0
H394 H 0.94568 0.94846 0.98621 0.0
H395 H 0.91281 0.96698 0.98389 0.0
Gd396 Gd 0.30631 0.81552 0.30526 0.0
Gd397 Gd 0.32175 0.775 0.25213 0.0
C398 C 0.27959 0.71092 0.19598 0.0
C399 C 0.28114 0.67545 0.21454 0.0
C400 C 0.30111 0.71662 0.23485 0.0
C401 C 0.29312 0.72644 0.2162 0.0
C402 C 0.29565 0.69083 0.23387 0.0
C403 C 0.27314 0.68548 0.1956 0.0
C404 C 0.27364 0.72129 0.17636 0.0
C405 C 0.28184 0.74634 0.17681 0.0
N406 N 0.29982 0.75099 0.21701 0.0
C407 C 0.29519 0.76093 0.19726 0.0
H408 H 0.30137 0.78039 0.19761 0.0
C409 C 0.32552 0.72235 0.27028 0.0
N410 N 0.3151 0.73207 0.25328 0.0
C411 C 0.32063 0.69696 0.27005 0.0
C412 C 0.30537 0.68116 0.252 0.0
H413 H 0.33727 0.73376 0.28465 0.0
H414 H 0.26253 0.67331 0.18039 0.0
H415 H 0.32599 0.80921 0.35977 0.0
H416 H 0.26332 0.70998 0.16049 0.0
H417 H 0.2778 0.75446 0.1615 0.0
H418 H 0.27653 0.65569 0.21372 0.0
H419 H 0.29248 0.8575 0.2726 0.0
H420 H 0.36499 0.87889 0.39746 0.0
H421 H 0.34962 0.83452 0.39612 0.0
H422 H 0.35416 0.93399 0.34419 0.0
H423 H 0.32857 0.68962 0.28396 0.0
H424 H 0.30156 0.66151 0.25195 0.0
H425 H 0.36701 0.9158 0.37767 0.0
H426 H 0.30264 0.9016 0.27326 0.0
N427 N 0.32817 0.8389 0.34068 0.0
C428 C 0.35457 0.86787 0.38152 0.0
C429 C 0.34587 0.84288 0.38088 0.0
C430 C 0.34911 0.87855 0.36193 0.0
C431 C 0.33543 0.86341 0.34163 0.0
C432 C 0.33247 0.82864 0.36032 0.0
N433 N 0.31393 0.8585 0.30434 0.0
C434 C 0.32804 0.87356 0.32291 0.0
C435 C 0.30999 0.89396 0.28733 0.0
C436 C 0.32536 0.90934 0.30555 0.0
C437 C 0.30424 0.8686 0.28713 0.0
C438 C 0.33433 0.8993 0.32388 0.0
H439 H 0.32984 0.92896 0.30558 0.0
O440 O 0.27083 0.81488 0.30221 0.0
O441 O 0.30137 0.77796 0.28301 0.0
O442 O 0.28692 0.78123 0.24224 0.0
O443 O 0.28457 0.81585 0.27107 0.0
O444 O 0.30301 0.78019 0.32015 0.0
O445 O 0.28805 0.81623 0.33702 0.0
O446 O 0.35741 0.77659 0.25514 0.0
O447 O 0.32651 0.81237 0.27429 0.0
O448 O 0.34138 0.81036 0.31478 0.0
O449 O 0.34385 0.77538 0.28654 0.0
O450 O 0.32517 0.81035 0.23724 0.0
O451 O 0.33985 0.77409 0.22022 0.0
C452 C 0.29972 0.76537 0.29941 0.0
C453 C 0.34893 0.91428 0.34335 0.0
C454 C 0.35627 0.90392 0.36239 0.0
C455 C 0.26885 0.81133 0.3243 0.0
C456 C 0.25307 0.78867 0.32717 0.0
C457 C 0.23467 0.77788 0.30999 0.0
C458 C 0.25764 0.77629 0.34589 0.0
C459 C 0.24464 0.75311 0.34715 0.0
C460 C 0.22151 0.75491 0.31125 0.0
C461 C 0.22654 0.74244 0.32957 0.0
C462 C 0.27722 0.79977 0.25045 0.0
C463 C 0.32843 0.82512 0.25802 0.0
C464 C 0.35914 0.77958 0.23286 0.0
C465 C 0.37468 0.80218 0.2294 0.0
C466 C 0.39384 0.81262 0.24557 0.0
C467 C 0.36934 0.81472 0.21109 0.0
C468 C 0.38245 0.83764 0.20915 0.0
C469 C 0.40707 0.83536 0.24369 0.0
C470 C 0.40137 0.84793 0.22573 0.0
C471 C 0.35125 0.79194 0.30688 0.0
H472 H 0.23078 0.78689 0.29527 0.0
H473 H 0.272 0.78419 0.35901 0.0
H474 H 0.2075 0.7466 0.2978 0.0
H475 H 0.21619 0.72461 0.33013 0.0
H476 H 0.39832 0.80347 0.25996 0.0
H477 H 0.35435 0.80712 0.19884 0.0
H478 H 0.4217 0.84338 0.25637 0.0
H479 H 0.41185 0.86553 0.22466 0.0
Gd480 Gd 0.54164 0.04132 0.54883 0.0
Gd481 Gd 0.59393 0.05722 0.52159 0.0
C482 C 0.63095 0.13638 0.52296 0.0
C483 C 0.62816 0.13871 0.48016 0.0
C484 C 0.61206 0.10058 0.49314 0.0
C485 C 0.61895 0.11166 0.51705 0.0
C486 C 0.61695 0.11381 0.47435 0.0
C487 C 0.63513 0.14999 0.50444 0.0
C488 C 0.63886 0.14648 0.54724 0.0
C489 C 0.63536 0.13172 0.56475 0.0
N490 N 0.61476 0.09791 0.53443 0.0
C491 C 0.62349 0.10725 0.55793 0.0
H492 H 0.62089 0.09611 0.57169 0.0
C493 C 0.59629 0.06402 0.46469 0.0
N494 N 0.60139 0.07649 0.48819 0.0
C495 C 0.60074 0.07635 0.44542 0.0
C496 C 0.61089 0.10144 0.45026 0.0
H497 H 0.58835 0.04467 0.46075 0.0
H498 H 0.64416 0.16906 0.50865 0.0
H499 H 0.51282 1.00351 0.49906 0.0
H500 H 0.64809 0.16542 0.55255 0.0
H501 H 0.64175 0.1392 0.58351 0.0
H502 H 0.63192 0.14925 0.466 0.0
H503 H 0.54982 0.05266 0.6095 0.0
H504 H 0.48607 0.93381 0.51762 0.0
H505 H 0.49139 0.96069 0.48714 0.0
H506 H 0.50548 0.94817 0.60361 0.0
H507 H 0.59629 0.06652 0.42686 0.0
H508 H 0.61435 0.11094 0.4353 0.0
H509 H 0.49154 0.92925 0.56113 0.0
H510 H 0.54322 0.03007 0.64316 0.0
N511 N 0.5203 1.0009 0.53587 0.0
C512 C 0.49555 0.95264 0.52298 0.0
C513 C 0.49847 0.96777 0.50575 0.0
C514 C 0.50436 0.96222 0.54708 0.0
C515 C 0.51666 0.98682 0.55306 0.0
C516 C 0.51068 0.99209 0.51262 0.0
N517 N 0.5353 0.02144 0.58199 0.0
C518 C 0.52439 0.99743 0.5769 0.0
C519 C 0.53788 0.02064 0.6246 0.0
C520 C 0.52736 0.99566 0.61958 0.0
C521 C 0.54153 0.0334 0.6055 0.0
C522 C 0.52022 0.9838 0.59552 0.0
H523 H 0.5245 0.98583 0.63441 0.0
O524 O 0.52093 0.06261 0.56949 0.0
O525 O 0.56839 0.07195 0.54247 0.0
O526 O 0.59852 0.05413 0.56121 0.0
O527 O 0.56752 0.02587 0.56742 0.0
O528 O 0.55708 0.07636 0.57615 0.0
O529 O 0.51068 0.04575 0.53168 0.0
O530 O 0.61246 0.03196 0.50302 0.0
O531 O 0.5669 0.02658 0.52761 0.0
O532 O 0.53677 0.04452 0.50931 0.0
O533 O 0.56826 0.07126 0.50119 0.0
O534 O 0.57831 0.02262 0.49388 0.0
O535 O 0.62663 0.05583 0.5373 0.0
C536 C 0.57033 0.08696 0.56248 0.0
C537 C 0.50871 0.95901 0.58959 0.0
C538 C 0.50079 0.94824 0.5654 0.0
C539 C 0.50556 0.05856 0.55136 0.0
C540 C 0.48234 0.05214 0.55669 0.0
C541 C 0.47492 0.03229 0.5682 0.0
C542 C 0.46728 0.06589 0.54963 0.0
C543 C 0.44477 0.05999 0.55403 0.0
C544 C 0.45267 0.02632 0.57268 0.0
C545 C 0.43768 0.04002 0.56569 0.0
C546 C 0.58886 0.03645 0.57219 0.0
C547 C 0.56479 0.01197 0.50729 0.0
C548 C 0.62953 0.03909 0.51932 0.0
C549 C 0.65147 0.04234 0.51017 0.0
C550 C 0.65744 0.05826 0.49397 0.0
C551 C 0.66614 0.02797 0.5167 0.0
C552 C 0.68646 0.02885 0.50657 0.0
C553 C 0.67777 0.05942 0.48404 0.0
C554 C 0.69213 0.04462 0.49009 0.0
C555 C 0.54687 0.06073 0.4969 0.0
H556 H 0.48629 0.02146 0.57367 0.0
H557 H 0.47307 0.08094 0.54035 0.0
H558 H 0.44701 1.01103 0.58166 0.0
H559 H 0.4206 0.03514 0.5697 0.0
H560 H 0.64631 0.06946 0.48875 0.0
H561 H 0.66141 0.01549 0.52906 0.0
H562 H 0.68229 0.07161 0.47142 0.0
H563 H 0.70772 0.04559 0.48204 0.0
Gd564 Gd 0.33896 0.28809 0.78299 0.0
Gd565 Gd 0.28408 0.30264 0.77047 0.0
C566 C 0.25481 0.29749 0.69236 0.0
C567 C 0.25453 0.34036 0.69127 0.0
C568 C 0.26773 0.32891 0.72838 0.0
C569 C 0.26413 0.30462 0.71677 0.0
C570 C 0.26217 0.34696 0.71608 0.0
C571 C 0.25087 0.31562 0.6794 0.0
C572 C 0.24857 0.27231 0.68217 0.0
C573 C 0.2505 0.25501 0.69669 0.0
N574 N 0.26755 0.28764 0.73011 0.0
C575 C 0.25965 0.26304 0.72087 0.0
H576 H 0.26101 0.24934 0.73171 0.0
C577 C 0.27411 0.35704 0.76584 0.0
N578 N 0.27449 0.33437 0.75244 0.0
C579 C 0.26885 0.37563 0.75448 0.0
C580 C 0.26332 0.37073 0.72938 0.0
H581 H 0.27858 0.36101 0.78523 0.0
H582 H 0.24404 0.31055 0.66054 0.0
H583 H 0.36181 0.34177 0.82145 0.0
H584 H 0.24138 0.26605 0.66349 0.0
H585 H 0.24503 0.23546 0.68927 0.0
H586 H 0.25048 0.35402 0.68139 0.0
H587 H 0.34397 0.22949 0.7689 0.0
H588 H 0.38225 0.32579 0.8897 0.0
H589 H 0.37809 0.35604 0.86371 0.0
H590 H 0.37312 0.23781 0.87269 0.0
H591 H 0.26917 0.39375 0.76508 0.0
H592 H 0.25914 0.38511 0.72063 0.0
H593 H 0.37978 0.28143 0.89307 0.0
H594 H 0.35338 0.19702 0.78943 0.0
N595 N 0.35568 0.30352 0.82326 0.0
C596 C 0.37496 0.31934 0.87107 0.0
C597 C 0.37272 0.33645 0.85643 0.0
C598 C 0.36878 0.29411 0.8611 0.0
C599 C 0.35931 0.28673 0.83676 0.0
C600 C 0.3634 0.32818 0.83233 0.0
N601 N 0.34859 0.2566 0.80141 0.0
C602 C 0.35558 0.26235 0.82541 0.0
C603 C 0.35392 0.21528 0.79983 0.0
C604 C 0.35976 0.22052 0.82488 0.0
C605 C 0.34867 0.23373 0.78826 0.0
C606 C 0.36116 0.24445 0.83792 0.0
H607 H 0.36394 0.20625 0.8338 0.0
O608 O 0.36197 0.27474 0.75863 0.0
O609 O 0.31333 0.29104 0.75441 0.0
O610 O 0.2802 0.26104 0.77151 0.0
O611 O 0.31292 0.25491 0.79026 0.0
O612 O 0.32794 0.26059 0.74841 0.0
O613 O 0.37017 0.31218 0.77849 0.0
O614 O 0.26154 0.31564 0.79567 0.0
O615 O 0.30962 0.29932 0.79883 0.0
O616 O 0.3427 0.32974 0.78193 0.0
O617 O 0.30992 0.33597 0.76341 0.0
O618 O 0.29524 0.32985 0.80535 0.0
O619 O 0.25234 0.27898 0.77404 0.0
C620 C 0.31396 0.27155 0.73942 0.0
C621 C 0.36903 0.25134 0.86266 0.0
C622 C 0.37282 0.27617 0.87426 0.0
C623 C 0.37695 0.29521 0.76381 0.0
C624 C 0.40011 0.29295 0.76911 0.0
C625 C 0.40625 0.28524 0.79042 0.0
C626 C 0.41629 0.29876 0.75305 0.0
C627 C 0.43857 0.29711 0.75849 0.0
C628 C 0.42808 0.28325 0.79575 0.0
C629 C 0.4441 0.28912 0.78 0.0
C630 C 0.29151 0.24686 0.78161 0.0
C631 C 0.30909 0.31859 0.81412 0.0
C632 C 0.24611 0.29561 0.78969 0.0
C633 C 0.22318 0.29893 0.78519 0.0
C634 C 0.21693 0.30713 0.7642 0.0
C635 C 0.20736 0.29378 0.80178 0.0
C636 C 0.18529 0.29654 0.7972 0.0
C637 C 0.19532 0.31022 0.75973 0.0
C638 C 0.17964 0.305 0.77601 0.0
C639 C 0.33131 0.34402 0.77206 0.0
H640 H 0.39417 0.28079 0.80298 0.0
H641 H 0.41163 0.30496 0.73667 0.0
H642 H 0.43263 0.27716 0.8122 0.0
H643 H 0.46086 0.28716 0.78459 0.0
H644 H 0.22876 0.31109 0.75125 0.0
H645 H 0.21211 0.28721 0.81791 0.0
H646 H 0.19067 0.31668 0.74352 0.0
H647 H 0.16305 0.3078 0.77207 0.0
Gd648 Gd 0.06563 0.01813 0.51558 0.0
Gd649 Gd 0.05454 0.0745 0.54487 0.0
C650 C 0.06222 0.09932 0.62753 0.0
C651 C 0.02448 0.10157 0.63599 0.0
C652 C 0.03304 0.08991 0.59441 0.0
C653 C 0.05497 0.09185 0.60253 0.0
C654 C 0.0176 0.09524 0.61099 0.0
C655 C 0.04677 0.1036 0.64425 0.0
C656 C 0.0849 0.10307 0.63489 0.0
C657 C 0.09978 0.10034 0.61741 0.0
N658 N 0.06946 0.08791 0.58584 0.0
C659 C 0.09177 0.09311 0.59284 0.0
H660 H 0.10356 0.09119 0.57962 0.0
C661 C 0.00609 0.08451 0.56113 0.0
N662 N 0.02704 0.08399 0.57014 0.0
C663 C 0.99018 0.08962 0.57685 0.0
C664 C 0.99587 0.0947 0.60191 0.0
H665 H 1.00137 0.08059 0.54184 0.0
H666 H 0.05199 0.10913 0.66353 0.0
H667 H 0.01689 1.00161 0.48041 0.0
H668 H 0.09114 0.10876 0.65391 0.0
H669 H 0.11742 0.10376 0.62283 0.0
H670 H 0.01283 0.10553 0.64902 0.0
H671 H 0.1188 0.0119 0.51915 0.0
H672 H 0.02993 0.98424 0.40628 0.0
H673 H 1.00336 0.98916 0.43706 0.0
H674 H 0.10821 0.98733 0.41196 0.0
H675 H 0.97352 0.08958 0.5696 0.0
H676 H 0.98352 0.0987 0.61403 0.0
H677 H 0.06917 0.98384 0.39707 0.0
H678 H 0.14685 1.00293 0.49168 0.0
N679 N 0.05105 1.00497 0.4745 0.0
C680 C 0.03602 0.9899 0.42535 0.0
C681 C 0.02098 0.99259 0.44266 0.0
C682 C 0.05865 0.99363 0.43293 0.0
C683 C 0.0657 1.00105 0.45798 0.0
C684 C 0.02878 0.99977 0.46729 0.0
N685 N 0.09339 1.00879 0.49064 0.0
C686 C 0.08758 1.00291 0.46633 0.0
C687 C 0.13027 1.00299 0.48429 0.0
C688 C 0.12479 0.99801 0.4592 0.0
C689 C 0.11424 1.00811 0.49983 0.0
C690 C 0.10314 0.99757 0.44991 0.0
H691 H 0.13722 0.994 0.44719 0.0
O692 O 0.07564 0.98955 0.53222 0.0
O693 O 0.06643 0.0411 0.55357 0.0
O694 O 0.09053 0.07793 0.53711 0.0
O695 O 0.0912 0.04717 0.5042 0.0
O696 O 0.09383 0.02706 0.54591 0.0
O697 O 0.04401 0.98168 0.51037 0.0
O698 O 0.04402 0.10344 0.52924 0.0
O699 O 0.0536 0.0515 0.50696 0.0
O700 O 0.02967 0.01451 0.52328 0.0
O701 O 0.02895 0.04522 0.55622 0.0
O702 O 0.02622 0.0655 0.51467 0.0
O703 O 0.07682 0.11042 0.54842 0.0
C704 C 0.08533 0.039 0.56332 0.0
C705 C 0.09646 0.9913 0.42487 0.0
C706 C 0.07424 0.98934 0.41639 0.0
C707 C 0.05763 0.9732 0.52352 0.0
C708 C 0.06006 0.9478 0.51548 0.0
C709 C 0.06474 0.93894 0.49188 0.0
C710 C 0.05759 0.93215 0.53234 0.0
C711 C 0.05967 0.90753 0.52596 0.0
C712 C 0.06674 0.91438 0.48528 0.0
C713 C 0.06414 0.89868 0.50216 0.0
C714 C 0.10001 0.06875 0.51818 0.0
C715 C 0.03467 0.05354 0.49724 0.0
C716 C 0.06271 0.11925 0.53631 0.0
C717 C 0.0615 0.14507 0.54447 0.0
C718 C 0.055 0.15361 0.56729 0.0
C719 C 0.06656 0.16132 0.5284 0.0
C720 C 0.06492 0.18616 0.53466 0.0
C721 C 0.05359 0.17835 0.57388 0.0
C722 C 0.05846 0.19455 0.55771 0.0
C723 C 0.02033 0.02347 0.54239 0.0
H724 H 0.06679 0.95091 0.47869 0.0
H725 H 0.05368 0.93916 0.55045 0.0
H726 H 0.07032 0.90748 0.46705 0.0
H727 H 0.06588 0.87978 0.49671 0.0
H728 H 0.05098 0.14121 0.57985 0.0
H729 H 0.07191 0.1545 0.51095 0.0
H730 H 0.04851 0.18496 0.59149 0.0
H731 H 0.0568 0.21348 0.56311 0.0
Gd732 Gd 0.28564 0.77911 0.78507 0.0
Gd733 Gd 0.33426 0.8164 0.77098 0.0
C734 C 0.33363 0.86784 0.71646 0.0
C735 C 0.34932 0.84693 0.68225 0.0
C736 C 0.34443 0.82918 0.7185 0.0
C737 C 0.33546 0.84859 0.72894 0.0
C738 C 0.35155 0.82813 0.69504 0.0
C739 C 0.34037 0.86676 0.69293 0.0
C740 C 0.32566 0.88792 0.72826 0.0
C741 C 0.32064 0.88887 0.75225 0.0
N742 N 0.32942 0.84919 0.75179 0.0
C743 C 0.32309 0.86946 0.76391 0.0
H744 H 0.32058 0.87082 0.78288 0.0
C745 C 0.35535 0.79193 0.72187 0.0
N746 N 0.34603 0.81119 0.73134 0.0
C747 C 0.36268 0.79012 0.69869 0.0
C748 C 0.36073 0.80825 0.68518 0.0
H749 H 0.35668 0.77747 0.73175 0.0
H750 H 0.33902 0.88132 0.68301 0.0
H751 H 0.30355 0.72917 0.79291 0.0
H752 H 0.324 0.90308 0.71932 0.0
H753 H 0.31525 0.90472 0.76191 0.0
H754 H 0.35463 0.84642 0.66417 0.0
H755 H 0.26082 0.82475 0.80891 0.0
H756 H 0.2858 0.71134 0.86108 0.0
H757 H 0.3039 0.70239 0.82335 0.0
H758 H 0.24797 0.77494 0.89256 0.0
H759 H 0.36973 0.77464 0.69121 0.0
H760 H 0.36636 0.80674 0.66719 0.0
H761 H 0.26461 0.73835 0.88664 0.0
H762 H 0.24295 0.8373 0.8455 0.0
N763 N 0.28714 0.75369 0.81382 0.0
C764 C 0.286 0.72329 0.84792 0.0
C765 C 0.29636 0.71828 0.82675 0.0
C766 C 0.27589 0.74359 0.85178 0.0
C767 C 0.27656 0.75847 0.83403 0.0
C768 C 0.29663 0.7337 0.80976 0.0
N769 N 0.26878 0.79312 0.81996 0.0
C770 C 0.26706 0.77888 0.83721 0.0
C771 C 0.24972 0.82084 0.84344 0.0
C772 C 0.24806 0.80654 0.86142 0.0
C773 C 0.26005 0.81373 0.82268 0.0
C774 C 0.25678 0.78524 0.85845 0.0
H775 H 0.2401 0.81212 0.87751 0.0
O776 O 0.25152 0.77175 0.76975 0.0
O777 O 0.29968 0.8197 0.78223 0.0
O778 O 0.32346 0.83046 0.80785 0.0
O779 O 0.30848 0.79424 0.81942 0.0
O780 O 0.26855 0.80462 0.76647 0.0
O781 O 0.26743 0.74112 0.77218 0.0
O782 O 0.36746 0.81843 0.78779 0.0
O783 O 0.32097 0.77783 0.77812 0.0
O784 O 0.29745 0.76215 0.75015 0.0
O785 O 0.31269 0.79708 0.73629 0.0
O786 O 0.35366 0.78599 0.77418 0.0
O787 O 0.35697 0.8519 0.78431 0.0
C788 C 0.28307 0.82509 0.77069 0.0
C789 C 0.25584 0.77038 0.87614 0.0
C790 C 0.26534 0.74957 0.87279 0.0
C791 C 0.24876 0.74795 0.76817 0.0
C792 C 0.22895 0.73625 0.7787 0.0
C793 C 0.22965 0.71816 0.7929 0.0
C794 C 0.20885 0.74362 0.77453 0.0
C795 C 0.18958 0.73301 0.78409 0.0
C796 C 0.21047 0.70754 0.80248 0.0
C797 C 0.19044 0.71474 0.79795 0.0
C798 C 0.31856 0.81764 0.82512 0.0
C799 C 0.33847 0.76812 0.77791 0.0
C800 C 0.3737 0.84201 0.78859 0.0
C801 C 0.39396 0.84974 0.77673 0.0
C802 C 0.3938 0.86361 0.75826 0.0
C803 C 0.41332 0.84167 0.78279 0.0
C804 C 0.43227 0.84686 0.77025 0.0
C805 C 0.4125 0.86887 0.74579 0.0
C806 C 0.43156 0.86048 0.7516 0.0
C807 C 0.30256 0.7736 0.73206 0.0
H808 H 0.24492 0.71219 0.79657 0.0
H809 H 0.20806 0.75736 0.76337 0.0
H810 H 0.21109 0.69357 0.81334 0.0
H811 H 0.17568 0.70614 0.80528 0.0
H812 H 0.3792 0.87016 0.75318 0.0
H813 H 0.41352 0.83133 0.7973 0.0
H814 H 0.41213 0.87931 0.7314 0.0
H815 H 0.44565 0.86444 0.74126 0.0
Gd816 Gd 0.53844 0.06435 0.99218 0.0
Gd817 Gd 0.56649 0.04153 0.04176 0.0
C818 C 0.64138 0.0634 0.06333 0.0
C819 C 0.65298 0.02499 0.04918 0.0
C820 C 0.61402 0.0269 0.04394 0.0
C821 C 0.61924 0.05166 0.05452 0.0
C822 C 0.63073 0.01311 0.04163 0.0
C823 C 0.65829 0.0501 0.06004 0.0
C824 C 0.64578 0.08795 0.07572 0.0
C825 C 0.62822 0.09994 0.07957 0.0
N826 N 0.6025 0.06395 0.0573 0.0
C827 C 0.60656 0.08755 0.07034 0.0
H828 H 0.59324 0.09715 0.0734 0.0
C829 C 0.58602 0.9909 0.02975 0.0
N830 N 0.59236 0.01597 0.03721 0.0
C831 C 0.60199 0.97645 0.02686 0.0
C832 C 0.62448 0.98766 0.03252 0.0
H833 H 0.56862 0.98223 0.02526 0.0
H834 H 0.67544 0.05891 0.06636 0.0
H835 H 0.50804 1.00951 0.96282 0.0
H836 H 0.66256 0.09763 0.08276 0.0
H837 H 0.63138 0.1188 0.08948 0.0
H838 H 0.6661 0.01478 0.04732 0.0
H839 H 0.54088 0.12487 1.00791 0.0
H840 H 0.44023 0.01537 0.95325 0.0
H841 H 0.46899 0.9905 0.94801 0.0
H842 H 0.44338 0.10114 0.98409 0.0
H843 H 0.59694 0.95671 0.02028 0.0
H844 H 0.63683 0.97641 0.03041 0.0
H845 H 0.43079 0.05672 0.96698 0.0
H846 H 0.51528 0.1536 0.01132 0.0
N847 N 0.50158 0.04472 0.97708 0.0
C848 C 0.45739 0.02384 0.95984 0.0
C849 C 0.47358 1.00976 0.95681 0.0
C850 C 0.46365 0.04884 0.97079 0.0
C851 C 0.4862 0.05891 0.97914 0.0
C852 C 0.49575 0.02064 0.96527 0.0
N853 N 0.51518 0.09285 0.9956 0.0
C854 C 0.49323 0.0838 0.9887 0.0
C855 C 0.50884 0.134 1.005 0.0
C856 C 0.48605 0.12482 0.99886 0.0
C857 C 0.5233 0.1177 1.00299 0.0
C858 C 0.478 0.09947 0.9903 0.0
H859 H 0.47489 0.13749 1.00038 0.0
O860 O 0.55248 0.08837 0.96826 0.0
O861 O 0.56934 0.06427 0.01369 0.0
O862 O 0.55617 0.07793 0.05483 0.0
O863 O 0.52679 0.07987 0.02747 0.0
O864 O 0.56816 0.09691 1.00304 0.0
O865 O 0.53976 0.04903 0.95433 0.0
O866 O 0.55622 0.01551 0.06521 0.0
O867 O 0.53529 0.04129 0.02044 0.0
O868 O 0.54643 0.02666 0.97959 0.0
O869 O 0.57695 0.02592 1.00587 0.0
O870 O 0.5376 1.00847 0.03067 0.0
O871 O 0.56327 0.0551 0.07958 0.0
C872 C 0.58042 0.08564 0.01434 0.0
C873 C 0.45538 0.08944 0.98284 0.0
C874 C 0.44821 0.06415 0.97311 0.0
C875 C 0.54859 0.07043 0.94935 0.0
C876 C 0.54012 0.07583 0.92652 0.0
C877 C 0.51812 0.07812 0.922 0.0
C878 C 0.55454 0.07768 0.90846 0.0
C879 C 0.54723 0.08132 0.88556 0.0
C880 C 0.51069 0.08192 0.89921 0.0
C881 C 0.5251 0.08327 0.88092 0.0
C882 C 0.53807 0.086 0.04923 0.0
C883 C 0.52488 0.01954 0.01969 0.0
C884 C 0.55873 0.03295 0.08447 0.0
C885 C 0.57118 0.0296 0.10621 0.0
C886 C 0.59037 0.01982 0.10502 0.0
C887 C 0.56365 0.03678 0.12872 0.0
C888 C 0.57487 0.03404 0.15019 0.0
C889 C 0.60168 0.01704 0.12634 0.0
C890 C 0.59391 0.02396 0.14886 0.0
C891 C 0.56439 0.0183 0.98494 0.0
H892 H 0.50675 0.07669 0.93587 0.0
H893 H 0.57141 0.07541 0.91201 0.0
H894 H 0.49368 0.08353 0.89563 0.0
H895 H 0.51904 0.08585 0.86327 0.0
H896 H 0.59652 0.01425 0.08775 0.0
H897 H 0.54864 0.04404 0.12944 0.0
H898 H 0.61642 1.0094 0.12538 0.0
H899 H 0.60278 0.02154 0.16518 0.0
Gd900 Gd 0.27577 0.256 0.26009 0.0
Gd901 Gd 0.32478 0.30427 0.28774 0.0
C902 C 0.39436 0.3211 0.25968 0.0
C903 C 0.41837 0.31821 0.29428 0.0
C904 C 0.37811 0.30933 0.29502 0.0
C905 C 0.37542 0.31461 0.27218 0.0
C906 C 0.39962 0.31081 0.30624 0.0
C907 C 0.41574 0.32339 0.27104 0.0
C908 C 0.39135 0.32377 0.23563 0.0
C909 C 0.37 0.31816 0.224 0.0
N910 N 0.35437 0.31105 0.26134 0.0
C911 C 0.35187 0.31113 0.23683 0.0
H912 H 0.33634 0.30425 0.22594 0.0
C913 C 0.36186 0.29627 0.32865 0.0
N914 N 0.35968 0.30162 0.30589 0.0
C915 C 0.38272 0.29727 0.34035 0.0
C916 C 0.40172 0.30456 0.3291 0.0
H917 H 0.34759 0.29184 0.33842 0.0
H918 H 0.43033 0.32836 0.26167 0.0
H919 H 0.24429 0.26292 0.30621 0.0
H920 H 0.40541 0.32859 0.22544 0.0
H921 H 0.36747 0.31834 0.20482 0.0
H922 H 0.43495 0.31951 0.30265 0.0
H923 H 0.27178 0.23526 0.19977 0.0
H924 H 0.18366 0.27962 0.28021 0.0
H925 H 0.20759 0.27192 0.31364 0.0
H926 H 0.18827 0.27082 0.19464 0.0
H927 H 0.3841 0.2928 0.35826 0.0
H928 H 0.41791 0.30542 0.33824 0.0
H929 H 0.17714 0.28057 0.23592 0.0
H930 H 0.24761 0.23538 0.16328 0.0
N931 N 0.24162 0.26624 0.26906 0.0
C932 C 0.19985 0.27586 0.27687 0.0
C933 C 0.21327 0.27142 0.29575 0.0
C934 C 0.207 0.27407 0.2536 0.0
C935 C 0.22804 0.26859 0.25013 0.0
C936 C 0.23417 0.2665 0.29149 0.0
N937 N 0.25322 0.25449 0.22422 0.0
C938 C 0.2341 0.26266 0.22692 0.0
C939 C 0.24375 0.24338 0.18105 0.0
C940 C 0.22499 0.25359 0.18339 0.0
C941 C 0.25746 0.24343 0.20181 0.0
C942 C 0.21957 0.26268 0.20657 0.0
H943 H 0.21426 0.25328 0.1673 0.0
O944 O 0.28101 0.21839 0.25402 0.0
O945 O 0.31238 0.26626 0.26808 0.0
O946 O 0.31261 0.3149 0.25283 0.0
O947 O 0.28177 0.28332 0.23444 0.0
O948 O 0.30035 0.24524 0.23395 0.0
O949 O 0.24989 0.22537 0.26507 0.0
O950 O 0.321 0.31458 0.32589 0.0
O951 O 0.28815 0.29073 0.28709 0.0
O952 O 0.2823 0.259 0.3008 0.0
O953 O 0.32038 0.26946 0.30438 0.0
O954 O 0.29932 0.3272 0.28369 0.0
O955 O 0.33831 0.34201 0.30716 0.0
C956 C 0.31798 0.25604 0.24838 0.0
C957 C 0.19951 0.27036 0.21004 0.0
C958 C 0.19318 0.27595 0.23354 0.0
C959 C 0.26251 0.2095 0.26219 0.0
C960 C 0.264 0.19502 0.28149 0.0
C961 C 0.24967 0.19541 0.30003 0.0
C962 C 0.28038 0.18105 0.28174 0.0
C963 C 0.28284 0.16788 0.30036 0.0
C964 C 0.25203 0.18237 0.31863 0.0
C965 C 0.26859 0.16875 0.31892 0.0
C966 C 0.29662 0.30417 0.23481 0.0
C967 C 0.2821 0.31068 0.28585 0.0
C968 C 0.33027 0.33769 0.32733 0.0
C969 C 0.31811 0.35513 0.34027 0.0
C970 C 0.31536 0.35481 0.36481 0.0
C971 C 0.30751 0.3702 0.32827 0.0
C972 C 0.29341 0.38392 0.34042 0.0
C973 C 0.30181 0.36886 0.37709 0.0
C974 C 0.29071 0.38315 0.36495 0.0
C975 C 0.30164 0.25896 0.3122 0.0
H976 H 0.23681 0.20599 0.30035 0.0
H977 H 0.29161 0.1809 0.26763 0.0
H978 H 0.24106 0.1829 0.33293 0.0
H979 H 0.27004 0.15868 0.33345 0.0
H980 H 0.32332 0.34323 0.37434 0.0
H981 H 0.30951 0.3706 0.30934 0.0
H982 H 0.29966 0.36837 0.39598 0.0
H983 H 0.28014 0.39377 0.37478 0.0
Gd984 Gd 0.56313 0.51495 0.0119 0.0
Gd985 Gd 0.5511 0.56996 0.04253 0.0
C986 C 0.55853 0.59272 0.12547 0.0
C987 C 0.52047 0.59277 0.13416 0.0
C988 C 0.52923 0.58269 0.09244 0.0
C989 C 0.55132 0.58557 0.10043 0.0
C990 C 0.51357 0.58669 0.10916 0.0
C991 C 0.54293 0.59578 0.1423 0.0
C992 C 0.58128 0.59732 0.13279 0.0
C993 C 0.59623 0.59561 0.11526 0.0
N994 N 0.56593 0.58273 0.08364 0.0
C995 C 0.58826 0.5886 0.09066 0.0
H996 H 0.60017 0.58739 0.07752 0.0
C997 C 0.5019 0.57633 0.05935 0.0
N998 N 0.52322 0.57704 0.06818 0.0
C999 C 0.48577 0.58012 0.0752 0.0
C1000 C 0.49157 0.58504 0.10023 0.0
H1001 H 0.49709 0.57238 0.04007 0.0
H1002 H 0.54813 0.60105 0.1616 0.0
H1003 H 0.51411 0.4968 0.97569 0.0
H1004 H 0.5875 0.6028 0.15182 0.0
H1005 H 0.61391 0.59961 0.12066 0.0
H1006 H 0.50867 0.59572 0.14729 0.0
H1007 H 0.61656 0.50764 0.01487 0.0
H1008 H 0.5292 0.48945 0.90207 0.0
H1009 H 0.5017 0.48804 0.93223 0.0
H1010 H 0.60788 0.49695 0.90818 0.0
H1011 H 0.46886 0.57914 0.06808 0.0
H1012 H 0.47905 0.588 0.11248 0.0
H1013 H 0.56888 0.49331 0.89332 0.0
H1014 H 0.64509 0.50256 0.98689 0.0
N1015 N 0.54868 0.50468 0.97078 0.0
C1016 C 0.53486 0.49354 0.92126 0.0
C1017 C 0.51929 0.49265 0.93822 0.0
C1018 C 0.5575 0.49841 0.92922 0.0
C1019 C 0.56404 0.50365 0.95445 0.0
C1020 C 0.5265 0.4978 0.96301 0.0
N1021 N 0.59171 0.50858 0.98714 0.0
C1022 C 0.58612 0.50554 0.96284 0.0
C1023 C 0.62865 0.50361 0.97992 0.0
C1024 C 0.6236 0.50203 0.95509 0.0
C1025 C 0.61238 0.50659 0.99576 0.0
C1026 C 0.60205 0.50249 0.94619 0.0
H1027 H 0.63625 0.49966 0.94286 0.0
O1028 O 0.55455 0.48714 0.0343 0.0
O1029 O 0.5645 0.53695 0.0502 0.0
O1030 O 0.58729 0.57654 0.03559 0.0
O1031 O 0.59106 0.5446 1.00521 0.0
O1032 O 0.59171 0.52258 0.04181 0.0
O1033 O 0.55934 0.47594 0.99671 0.0
O1034 O 0.53849 0.59981 0.03088 0.0
O1035 O 0.55067 0.54834 1.00392 0.0
O1036 O 0.52663 0.51079 0.01701 0.0
O1037 O 0.52636 0.53872 0.05222 0.0
O1038 O 0.52323 0.56204 0.01181 0.0
O1039 O 0.57321 0.60565 0.0444 0.0
C1040 C 0.58352 0.53464 0.05955 0.0
C1041 C 0.5958 0.49901 0.92118 0.0
C1042 C 0.57359 0.49697 0.91272 0.0
C1043 C 0.55649 0.46902 0.01735 0.0
C1044 C 0.57001 0.45203 0.02427 0.0
C1045 C 0.5893 0.44907 0.01307 0.0
C1046 C 0.56322 0.43814 0.042 0.0
C1047 C 0.57546 0.42125 0.04837 0.0
C1048 C 0.60176 0.43277 0.01972 0.0
C1049 C 0.5949 0.41889 0.03721 0.0
C1050 C 0.59838 0.56681 0.0185 0.0
C1051 C 0.5319 0.55079 0.99415 0.0
C1052 C 0.5578 0.61499 0.03509 0.0
C1053 C 0.55836 0.64122 0.04343 0.0
C1054 C 0.55346 0.6507 0.06673 0.0
C1055 C 0.56373 0.65699 0.027 0.0
C1056 C 0.564 0.68232 0.03337 0.0
C1057 C 0.55394 0.67596 0.07343 0.0
C1058 C 0.55914 0.69171 0.0569 0.0
C1059 C 0.51742 0.51799 0.03686 0.0
H1060 H 0.59467 0.45908 0.99901 0.0
H1061 H 0.54807 0.43995 0.05027 0.0
H1062 H 0.61664 0.43067 0.01108 0.0
H1063 H 0.60477 0.40622 0.04195 0.0
H1064 H 0.54925 0.63865 0.07957 0.0
H1065 H 0.56787 0.64939 0.00917 0.0
H1066 H 0.55012 0.68334 0.09142 0.0
H1067 H 0.55902 0.7111 0.06241 0.0
Gd1068 Gd 0.78654 0.27952 0.29068 0.0
Gd1069 Gd 0.83428 0.31603 0.27359 0.0
C1070 C 0.83094 0.36382 0.21606 0.0
C1071 C 0.84651 0.34191 0.18236 0.0
C1072 C 0.84285 0.32613 0.21984 0.0
C1073 C 0.83354 0.34552 0.22954 0.0
C1074 C 0.84962 0.32416 0.19619 0.0
C1075 C 0.83715 0.3617 0.19227 0.0
C1076 C 0.82287 0.3841 0.22718 0.0
C1077 C 0.81862 0.38629 0.2515 0.0
N1078 N 0.82816 0.34723 0.25271 0.0
C1079 C 0.82188 0.36783 0.26415 0.0
H1080 H 0.82004 0.37021 0.28333 0.0
C1081 C 0.85538 0.29024 0.22511 0.0
N1082 N 0.84538 0.30921 0.23371 0.0
C1083 C 0.86244 0.28758 0.20179 0.0
C1084 C 0.85947 0.30454 0.18721 0.0
H1085 H 0.85751 0.27664 0.23579 0.0
H1086 H 0.8352 0.3755 0.18158 0.0
H1087 H 0.80665 0.23206 0.30228 0.0
H1088 H 0.82061 0.39856 0.21746 0.0
H1089 H 0.81324 0.40238 0.26063 0.0
H1090 H 0.85151 0.34066 0.16411 0.0
H1091 H 0.76012 0.32499 0.31179 0.0
H1092 H 0.79055 0.21879 0.37242 0.0
H1093 H 0.80853 0.2081 0.33496 0.0
H1094 H 0.75059 0.28164 0.39972 0.0
H1095 H 0.87004 0.27233 0.19501 0.0
H1096 H 0.86488 0.30236 0.16912 0.0
H1097 H 0.76861 0.24613 0.39631 0.0
H1098 H 0.74238 0.33904 0.34786 0.0
N1099 N 0.78939 0.25673 0.32155 0.0
C1100 C 0.79006 0.22952 0.35825 0.0
C1101 C 0.80035 0.22353 0.33723 0.0
C1102 C 0.77916 0.24921 0.36069 0.0
C1103 C 0.77896 0.2625 0.34167 0.0
C1104 C 0.79974 0.23737 0.31894 0.0
N1105 N 0.7696 0.29508 0.32501 0.0
C1106 C 0.76873 0.28234 0.34347 0.0
C1107 C 0.74978 0.32308 0.34691 0.0
C1108 C 0.74898 0.31031 0.36606 0.0
C1109 C 0.76008 0.31509 0.3264 0.0
C1110 C 0.75851 0.28964 0.36452 0.0
H1111 H 0.74103 0.31657 0.38195 0.0
O1112 O 0.75328 0.27023 0.27251 0.0
O1113 O 0.79994 0.31944 0.28545 0.0
O1114 O 0.8242 0.33194 0.31024 0.0
O1115 O 0.80989 0.29689 0.32422 0.0
O1116 O 0.76835 0.30377 0.27153 0.0
O1117 O 0.76814 0.24118 0.28236 0.0
O1118 O 0.86783 0.31932 0.29015 0.0
O1119 O 0.82178 0.27822 0.28295 0.0
O1120 O 0.79823 0.26088 0.25657 0.0
O1121 O 0.81231 0.29437 0.23995 0.0
O1122 O 0.85424 0.28635 0.27788 0.0
O1123 O 0.85677 0.35198 0.28479 0.0
C1124 C 0.78286 0.32415 0.2741 0.0
C1125 C 0.75841 0.27633 0.38344 0.0
C1126 C 0.76868 0.25613 0.38151 0.0
C1127 C 0.74996 0.24725 0.27492 0.0
C1128 C 0.72926 0.23829 0.28554 0.0
C1129 C 0.72895 0.22541 0.3048 0.0
C1130 C 0.70952 0.24403 0.27686 0.0
C1131 C 0.68958 0.23736 0.28726 0.0
C1132 C 0.7092 0.21867 0.31526 0.0
C1133 C 0.68963 0.22464 0.30664 0.0
C1134 C 0.81987 0.32033 0.32847 0.0
C1135 C 0.83941 0.26872 0.28266 0.0
C1136 C 0.87375 0.34263 0.28944 0.0
C1137 C 0.89356 0.34961 0.27662 0.0
C1138 C 0.89266 0.36202 0.25708 0.0
C1139 C 0.9132 0.34219 0.28287 0.0
C1140 C 0.93169 0.34652 0.26947 0.0
C1141 C 0.91089 0.36644 0.24377 0.0
C1142 C 0.93023 0.35865 0.24977 0.0
C1143 C 0.80262 0.27085 0.23741 0.0
H1144 H 0.74392 0.22077 0.31195 0.0
H1145 H 0.7099 0.25438 0.2623 0.0
H1146 H 0.70908 0.20882 0.33015 0.0
H1147 H 0.67452 0.21905 0.31493 0.0
H1148 H 0.87781 0.36805 0.25183 0.0
H1149 H 0.91399 0.333 0.29819 0.0
H1150 H 0.90994 0.37573 0.22857 0.0
H1151 H 0.94395 0.36191 0.23879 0.0
Gd1152 Gd 0.03195 0.56778 0.48031 0.0
Gd1153 Gd 0.06756 0.55319 0.52815 0.0
C1154 C 0.1432 0.5741 0.53934 0.0
C1155 C 0.15334 0.53499 0.52481 0.0
C1156 C 0.11433 0.53733 0.52423 0.0
C1157 C 0.12051 0.56264 0.53321 0.0
C1158 C 0.13077 0.52322 0.52054 0.0
C1159 C 0.15954 0.56035 0.5343 0.0
C1160 C 0.1488 0.59882 0.55127 0.0
C1161 C 0.13201 0.61139 0.5573 0.0
N1162 N 0.1044 0.57565 0.53784 0.0
C1163 C 0.10979 0.59942 0.55059 0.0
H1164 H 0.0971 0.60937 0.55578 0.0
C1165 C 0.08588 0.50097 0.51559 0.0
N1166 N 0.09234 0.52627 0.52069 0.0
C1167 C 0.10158 0.48634 0.51149 0.0
C1168 C 0.12409 0.49752 0.51358 0.0
H1169 H 0.06854 0.49201 0.51392 0.0
H1170 H 0.17702 0.569 0.53842 0.0
H1171 H 0.02559 0.50313 0.46191 0.0
H1172 H 0.16602 0.60819 0.55641 0.0
H1173 H 0.13616 0.63033 0.56705 0.0
H1174 H 0.16614 0.52448 0.52174 0.0
H1175 H 1.00289 0.60997 0.50093 0.0
H1176 H 0.95993 0.47348 0.42951 0.0
H1177 H 0.99811 0.46877 0.43914 0.0
H1178 H 0.92236 0.53871 0.4527 0.0
H1179 H 0.09629 0.46643 0.50674 0.0
H1180 H 0.13622 0.4861 0.51053 0.0
H1181 H 0.93183 0.49949 0.43504 0.0
H1182 H 0.96449 0.61533 0.49897 0.0
N1183 N 0.00558 0.53021 0.46163 0.0
C1184 C 0.97248 0.4894 0.43853 0.0
C1185 C 0.99401 0.48673 0.44376 0.0
C1186 C 0.96706 0.51213 0.44659 0.0
C1187 C 0.98406 0.53236 0.45839 0.0
C1188 C 0.01012 0.50704 0.45593 0.0
N1189 N 0.99486 0.57267 0.48147 0.0
C1190 C 0.97856 0.55419 0.46876 0.0
C1191 C 0.96814 0.59795 0.49052 0.0
C1192 C 0.95115 0.57889 0.47807 0.0
C1193 C 0.98996 0.59464 0.49178 0.0
C1194 C 0.9562 0.55672 0.46695 0.0
H1195 H 0.93422 0.5815 0.47709 0.0
O1196 O 0.0368 0.60716 0.48131 0.0
O1197 O 0.06472 0.5791 0.50318 0.0
O1198 O 0.06043 0.59132 0.53819 0.0
O1199 O 0.02535 0.58386 0.51841 0.0
O1200 O 0.0652 0.5775 0.46581 0.0
O1201 O 0.02357 0.58117 0.44777 0.0
O1202 O 0.04719 0.54722 0.55784 0.0
O1203 O 0.03363 0.54887 0.51105 0.0
O1204 O 0.04948 0.53957 0.46037 0.0
O1205 O 0.07388 0.53297 0.49146 0.0
O1206 O 0.04128 0.51739 0.5203 0.0
O1207 O 0.08268 0.5554 0.56467 0.0
C1208 C 0.077 0.5835 0.48654 0.0
C1209 C 0.93954 0.53705 0.45433 0.0
C1210 C 0.94496 0.51478 0.44417 0.0
C1211 C 0.03108 0.60434 0.45812 0.0
C1212 C 0.04635 0.61986 0.4451 0.0
C1213 C 0.04927 0.64564 0.45105 0.0
C1214 C 0.0592 0.60941 0.42811 0.0
C1215 C 0.0754 0.62454 0.41774 0.0
C1216 C 0.06511 0.66078 0.44047 0.0
C1217 C 0.07829 0.65033 0.42405 0.0
C1218 C 0.04007 0.59533 0.53699 0.0
C1219 C 0.02583 0.5265 0.51108 0.0
C1220 C 0.06396 0.5487 0.57338 0.0
C1221 C 0.06231 0.52856 0.587 0.0
C1222 C 0.07036 0.50733 0.57857 0.0
C1223 C 0.05168 0.53024 0.60832 0.0
C1224 C 0.04873 0.51069 0.62105 0.0
C1225 C 0.06743 0.4878 0.59113 0.0
C1226 C 0.05651 0.48934 0.61221 0.0
C1227 C 0.06527 0.52904 0.46848 0.0
H1228 H 0.03954 0.65404 0.46419 0.0
H1229 H 0.05719 0.58952 0.42357 0.0
H1230 H 0.06737 0.68066 0.44523 0.0
H1231 H 0.09061 0.66236 0.41617 0.0
H1232 H 0.07881 0.50581 0.56233 0.0
H1233 H 0.04526 0.54655 0.6147 0.0
H1234 H 0.07356 0.47141 0.58446 0.0
H1235 H 0.05436 0.47404 0.62175 0.0
Gd1236 Gd 0.83811 0.78789 0.28481 0.0
Gd1237 Gd 0.78344 0.80227 0.27902 0.0
C1238 C 0.72517 0.75973 0.2239 0.0
C1239 C 0.73406 0.77623 0.18771 0.0
C1240 C 0.75863 0.79114 0.2252 0.0
C1241 C 0.74506 0.77481 0.23645 0.0
C1242 C 0.75313 0.79226 0.20075 0.0
C1243 C 0.72005 0.76007 0.1993 0.0
C1244 C 0.71058 0.74558 0.23673 0.0
C1245 C 0.71556 0.74748 0.26164 0.0
N1246 N 0.75051 0.77488 0.26017 0.0
C1247 C 0.7355 0.76267 0.27323 0.0
H1248 H 0.7393 0.76421 0.29255 0.0
C1249 C 0.78972 0.82419 0.22846 0.0
N1250 N 0.77682 0.80652 0.2384 0.0
C1251 C 0.78491 0.82603 0.2043 0.0
C1252 C 0.76668 0.80981 0.19029 0.0
H1253 H 0.80407 0.83662 0.23879 0.0
H1254 H 0.70499 0.74839 0.18926 0.0
H1255 H 0.85809 0.83893 0.32656 0.0
H1256 H 0.6951 0.73386 0.22778 0.0
H1257 H 0.70406 0.73728 0.27193 0.0
H1258 H 0.72968 0.77668 0.16886 0.0
H1259 H 0.84279 0.72953 0.26688 0.0
H1260 H 0.87788 0.81818 0.39287 0.0
H1261 H 0.87348 0.85059 0.36956 0.0
H1262 H 0.86959 0.73044 0.36987 0.0
H1263 H 0.7954 0.83983 0.19645 0.0
H1264 H 0.76305 0.81123 0.17156 0.0
H1265 H 0.8758 0.77308 0.39299 0.0
H1266 H 0.85132 0.69508 0.28501 0.0
N1267 N 0.85342 0.80031 0.3256 0.0
C1268 C 0.87114 0.81297 0.37398 0.0
C1269 C 0.86877 0.83131 0.36086 0.0
C1270 C 0.86558 0.78816 0.36229 0.0
C1271 C 0.85682 0.78241 0.3377 0.0
C1272 C 0.86006 0.82462 0.33646 0.0
N1273 N 0.84656 0.75442 0.30079 0.0
C1274 C 0.8532 0.75856 0.32484 0.0
C1275 C 0.85172 0.71279 0.29647 0.0
C1276 C 0.85707 0.7163 0.32154 0.0
C1277 C 0.84692 0.7323 0.28628 0.0
C1278 C 0.8584 0.73959 0.33599 0.0
H1279 H 0.86095 0.70123 0.32938 0.0
O1280 O 0.85965 0.7773 0.25716 0.0
O1281 O 0.81167 0.79377 0.25892 0.0
O1282 O 0.77815 0.75982 0.27373 0.0
O1283 O 0.81181 0.75335 0.29 0.0
O1284 O 0.82481 0.7623 0.24964 0.0
O1285 O 0.87173 0.8093 0.28508 0.0
O1286 O 0.76814 0.83398 0.27972 0.0
O1287 O 0.8137 0.80596 0.3044 0.0
O1288 O 0.84328 0.82924 0.28316 0.0
O1289 O 0.80857 0.83964 0.2821 0.0
O1290 O 0.78349 0.7898 0.31482 0.0
O1291 O 0.76146 0.81136 0.30662 0.0
C1292 C 0.81078 0.77446 0.24292 0.0
C1293 C 0.86579 0.74482 0.36087 0.0
C1294 C 0.86935 0.7691 0.37402 0.0
C1295 C 0.8766 0.79491 0.26641 0.0
C1296 C 0.8984 0.78803 0.26875 0.0
C1297 C 0.90327 0.7753 0.28698 0.0
C1298 C 0.91474 0.79478 0.25317 0.0
C1299 C 0.93593 0.78907 0.25606 0.0
C1300 C 0.92396 0.76923 0.28966 0.0
C1301 C 0.94016 0.77604 0.27441 0.0
C1302 C 0.79025 0.74512 0.28174 0.0
C1303 C 0.80438 0.7976 0.32161 0.0
C1304 C 0.75539 0.82826 0.29646 0.0
C1305 C 0.73099 0.82558 0.29102 0.0
C1306 C 0.72242 0.82823 0.26812 0.0
C1307 C 0.71597 0.81913 0.30814 0.0
C1308 C 0.6927 0.81505 0.30221 0.0
C1309 C 0.69959 0.82461 0.26235 0.0
C1310 C 0.68488 0.81812 0.27914 0.0
C1311 C 0.83069 0.84582 0.2826 0.0
H1312 H 0.89114 0.7702 0.29928 0.0
H1313 H 0.91114 0.80493 0.23927 0.0
H1314 H 0.92752 0.75929 0.30374 0.0
H1315 H 0.95603 0.77094 0.27691 0.0
H1316 H 0.73331 0.83291 0.25447 0.0
H1317 H 0.72234 0.81667 0.32572 0.0
H1318 H 0.69323 0.82677 0.24466 0.0
H1319 H 0.66725 0.81569 0.27406 0.0
Gd1320 Gd 0.80144 0.30536 0.80542 0.0
Gd1321 Gd 0.81609 0.26626 0.75205 0.0
C1322 C 0.76616 0.19426 0.71446 0.0
C1323 C 0.78908 0.16393 0.71345 0.0
C1324 C 0.80401 0.20688 0.73292 0.0
C1325 C 0.78425 0.21296 0.72671 0.0
C1326 C 0.80658 0.18221 0.72668 0.0
C1327 C 0.76888 0.16996 0.70731 0.0
C1328 C 0.74546 0.2001 0.71096 0.0
C1329 C 0.74271 0.2234 0.72134 0.0
N1330 N 0.78202 0.23648 0.73493 0.0
C1331 C 0.76088 0.24095 0.73399 0.0
H1332 H 0.75706 0.25722 0.74427 0.0
C1333 C 0.83999 0.21918 0.75343 0.0
N1334 N 0.82031 0.22477 0.74639 0.0
C1335 C 0.84332 0.1951 0.74778 0.0
C1336 C 0.82654 0.17648 0.7343 0.0
H1337 H 0.85361 0.23333 0.76282 0.0
H1338 H 0.75522 0.15552 0.69781 0.0
H1339 H 0.84996 0.34627 0.82033 0.0
H1340 H 0.73121 0.1863 0.70172 0.0
H1341 H 0.72635 0.22761 0.72051 0.0
H1342 H 0.79081 0.14497 0.70842 0.0
H1343 H 0.74569 0.29714 0.80599 0.0
H1344 H 0.83792 0.41904 0.82533 0.0
H1345 H 0.86395 0.39137 0.82842 0.0
H1346 H 0.75862 0.40507 0.81402 0.0
H1347 H 0.85899 0.19101 0.75354 0.0
H1348 H 0.82913 0.1578 0.7299 0.0
H1349 H 0.79858 0.42393 0.81937 0.0
H1350 H 0.7173 0.32212 0.8078 0.0
N1351 N 0.81633 0.34815 0.81201 0.0
C1352 C 0.83166 0.39922 0.82173 0.0
C1353 C 0.84639 0.38367 0.82352 0.0
C1354 C 0.80891 0.38903 0.81627 0.0
C1355 C 0.80162 0.36308 0.81181 0.0
C1356 C 0.83839 0.35806 0.81874 0.0
N1357 N 0.77274 0.32755 0.80634 0.0
C1358 C 0.77914 0.35249 0.80898 0.0
C1359 C 0.73462 0.33088 0.80795 0.0
C1360 C 0.74084 0.35634 0.80933 0.0
C1361 C 0.75086 0.31673 0.80683 0.0
C1362 C 0.76334 0.36753 0.81026 0.0
H1363 H 0.72822 0.36726 0.8103 0.0
O1364 O 0.79102 0.28723 0.83517 0.0
O1365 O 0.80194 0.26727 0.78673 0.0
O1366 O 0.78883 0.28429 0.73785 0.0
O1367 O 0.78019 0.31029 0.77223 0.0
O1368 O 0.77258 0.27238 0.8007 0.0
O1369 O 0.81384 0.32261 0.84281 0.0
O1370 O 0.85144 0.27183 0.74901 0.0
O1371 O 0.8241 0.30311 0.77653 0.0
O1372 O 0.83729 0.30136 0.81159 0.0
O1373 O 0.83627 0.26342 0.78708 0.0
O1374 O 0.82153 0.30248 0.73925 0.0
O1375 O 0.82837 0.25973 0.71648 0.0
C1376 C 0.78268 0.25648 0.78955 0.0
C1377 C 0.77052 0.39326 0.81325 0.0
C1378 C 0.79327 0.404 0.81626 0.0
C1379 C 0.80191 0.30529 0.85181 0.0
C1380 C 0.78997 0.31253 0.87272 0.0
C1381 C 0.78316 0.3351 0.87741 0.0
C1382 C 0.78549 0.29601 0.88849 0.0
C1383 C 0.77455 0.30175 0.90915 0.0
C1384 C 0.77231 0.34104 0.89812 0.0
C1385 C 0.76817 0.32454 0.91411 0.0
C1386 C 0.77737 0.30047 0.74848 0.0
C1387 C 0.82607 0.31636 0.76053 0.0
C1388 C 0.84916 0.26735 0.72541 0.0
C1389 C 0.86369 0.28552 0.71428 0.0
C1390 C 0.8868 0.2886 0.71867 0.0
C1391 C 0.85506 0.30089 0.70084 0.0
C1392 C 0.86936 0.31962 0.69231 0.0
C1393 C 0.90109 0.30696 0.71002 0.0
C1394 C 0.89247 0.32248 0.69702 0.0
C1395 C 0.84533 0.28113 0.80612 0.0
H1396 H 0.78631 0.34806 0.86525 0.0
H1397 H 0.79098 0.27868 0.88488 0.0
H1398 H 0.76718 0.3585 0.90184 0.0
H1399 H 0.75988 0.32942 0.93013 0.0
H1400 H 0.89378 0.277 0.72909 0.0
H1401 H 0.83724 0.29871 0.69751 0.0
H1402 H 0.91889 0.30926 0.71352 0.0
H1403 H 0.90391 0.33648 0.69034 0.0
Gd1404 Gd 0.78329 0.76618 0.76804 0.0
Gd1405 Gd 0.83031 0.81605 0.7972 0.0
C1406 C 0.90008 0.84064 0.77435 0.0
C1407 C 0.9193 0.8104 0.78644 0.0
C1408 C 0.88012 0.80761 0.79212 0.0
C1409 C 0.8804 0.82845 0.78241 0.0
C1410 C 0.89959 0.79824 0.79417 0.0
C1411 C 0.91953 0.83152 0.77646 0.0
C1412 C 0.89966 0.8617 0.76451 0.0
C1413 C 0.88011 0.87046 0.76346 0.0
N1414 N 0.86132 0.83669 0.7806 0.0
C1415 C 0.86115 0.85793 0.77201 0.0
H1416 H 0.84638 0.86548 0.77214 0.0
C1417 C 0.85952 0.7745 0.80729 0.0
N1418 N 0.86062 0.79601 0.79881 0.0
C1419 C 0.8784 0.76464 0.80985 0.0
C1420 C 0.89857 0.77664 0.80343 0.0
H1421 H 0.84409 0.76426 0.81157 0.0
H1422 H 0.93478 0.84059 0.77034 0.0
H1423 H 0.76023 0.77155 0.82287 0.0
H1424 H 0.9144 0.87151 0.75804 0.0
H1425 H 0.87971 0.88706 0.75641 0.0
H1426 H 0.93436 0.8034 0.78775 0.0
H1427 H 0.7721 0.75473 0.70793 0.0
H1428 H 0.69323 0.77691 0.8094 0.0
H1429 H 0.72448 0.77396 0.83736 0.0
H1430 H 0.68415 0.77662 0.72445 0.0
H1431 H 0.87728 0.74758 0.81652 0.0
H1432 H 0.91312 0.76882 0.80519 0.0
H1433 H 0.67888 0.77968 0.76777 0.0
H1434 H 0.74238 0.75677 0.67731 0.0
N1435 N 0.75034 0.77243 0.78583 0.0
C1436 C 0.70911 0.77572 0.8026 0.0
C1437 C 0.72666 0.77392 0.81839 0.0
C1438 C 0.71221 0.77592 0.77824 0.0
C1439 C 0.73312 0.77381 0.77016 0.0
C1440 C 0.74718 0.77236 0.80977 0.0
N1441 N 0.75544 0.76741 0.73807 0.0
C1442 C 0.73596 0.77184 0.74569 0.0
C1443 C 0.74045 0.76141 0.69647 0.0
C1444 C 0.72092 0.76776 0.70403 0.0
C1445 C 0.75733 0.76059 0.71381 0.0
C1446 C 0.71817 0.77229 0.72883 0.0
H1447 H 0.70768 0.76799 0.69056 0.0
O1448 O 0.76132 0.73104 0.7517 0.0
O1449 O 0.81986 0.77868 0.77473 0.0
O1450 O 0.82265 0.82272 0.75904 0.0
O1451 O 0.79006 0.79347 0.74221 0.0
O1452 O 0.80716 0.75983 0.7397 0.0
O1453 O 0.79096 0.73167 0.77422 0.0
O1454 O 0.8347 0.82492 0.83672 0.0
O1455 O 0.79358 0.80184 0.7939 0.0
O1456 O 0.79039 0.76077 0.80642 0.0
O1457 O 0.82089 0.79185 0.82464 0.0
O1458 O 0.80465 0.83832 0.79111 0.0
O1459 O 0.84244 0.85392 0.81637 0.0
C1460 C 0.82497 0.77068 0.75381 0.0
C1461 C 0.69789 0.77598 0.7371 0.0
C1462 C 0.69486 0.77763 0.76174 0.0
C1463 C 0.77476 0.71814 0.75882 0.0
C1464 C 0.78084 0.6993 0.74027 0.0
C1465 C 0.77397 0.69652 0.71543 0.0
C1466 C 0.79469 0.68453 0.74761 0.0
C1467 C 0.80216 0.66749 0.73048 0.0
C1468 C 0.78123 0.67944 0.69829 0.0
C1469 C 0.7954 0.66508 0.70571 0.0
C1470 C 0.80628 0.81279 0.74143 0.0
C1471 C 0.78729 0.82127 0.79123 0.0
C1472 C 0.83883 0.8486 0.83754 0.0
C1473 C 0.82455 0.86239 0.85203 0.0
C1474 C 0.82116 0.8588 0.87572 0.0
C1475 C 0.81292 0.87777 0.84176 0.0
C1476 C 0.79762 0.88897 0.8546 0.0
C1477 C 0.80612 0.87007 0.88871 0.0
C1478 C 0.79427 0.88494 0.87819 0.0
C1479 C 0.80529 0.77202 0.825 0.0
H1480 H 0.76322 0.70764 0.7092 0.0
H1481 H 0.80023 0.68687 0.76673 0.0
H1482 H 0.77598 0.67744 0.67918 0.0
H1483 H 0.80092 0.65199 0.69216 0.0
H1484 H 0.82984 0.84693 0.88399 0.0
H1485 H 0.81515 0.88039 0.82337 0.0
H1486 H 0.80349 0.8671 0.90691 0.0
H1487 H 0.78268 0.89346 0.88859 0.0
Gd1488 Gd 0.58492 0.56791 0.54302 0.0
Gd1489 Gd 0.53475 0.52727 0.51281 0.0
C1490 C 0.52363 0.44318 0.50523 0.0
C1491 C 0.52124 0.42946 0.46151 0.0
C1492 C 0.52652 0.47317 0.47903 0.0
C1493 C 0.52696 0.46792 0.50203 0.0
C1494 C 0.52297 0.45396 0.45843 0.0
C1495 C 0.52156 0.42407 0.4849 0.0
C1496 C 0.52134 0.43832 0.5286 0.0
C1497 C 0.52123 0.45773 0.54778 0.0
N1498 N 0.52855 0.48682 0.52113 0.0
C1499 C 0.52443 0.48191 0.5436 0.0
H1500 H 0.52437 0.49659 0.55872 0.0
C1501 C 0.52358 0.50253 0.45447 0.0
N1502 N 0.52768 0.49693 0.4768 0.0
C1503 C 0.52017 0.48419 0.43347 0.0
C1504 C 0.52026 0.45984 0.43542 0.0
H1505 H 0.52362 0.52134 0.45275 0.0
H1506 H 0.5193 0.405 0.48703 0.0
H1507 H 0.59572 0.59872 0.49737 0.0
H1508 H 0.51878 0.4196 0.53185 0.0
H1509 H 0.51879 0.45413 0.56582 0.0
H1510 H 0.51878 0.41448 0.44592 0.0
H1511 H 0.5959 0.57353 0.60308 0.0
H1512 H 0.60204 0.67579 0.52462 0.0
H1513 H 0.60202 0.64135 0.49056 0.0
H1514 H 0.60094 0.68044 0.61036 0.0
H1515 H 0.51753 0.48886 0.41581 0.0
H1516 H 0.51749 0.44563 0.41915 0.0
H1517 H 0.60096 0.69016 0.56936 0.0
H1518 H 0.6019 0.60586 0.64012 0.0
N1519 N 0.59118 0.60839 0.53487 0.0
C1520 C 0.59917 0.65702 0.52774 0.0
C1521 C 0.59926 0.63765 0.50851 0.0
C1522 C 0.59643 0.65201 0.551 0.0
C1523 C 0.59273 0.62721 0.55405 0.0
C1524 C 0.59563 0.6134 0.5125 0.0
N1525 N 0.59155 0.59799 0.57917 0.0
C1526 C 0.59285 0.62181 0.57702 0.0
C1527 C 0.59919 0.61059 0.6225 0.0
C1528 C 0.59909 0.63496 0.62065 0.0
C1529 C 0.59579 0.59232 0.60145 0.0
C1530 C 0.59646 0.64095 0.59768 0.0
H1531 H 0.60191 0.64912 0.63697 0.0
O1532 O 0.61333 0.55721 0.55946 0.0
O1533 O 0.56772 0.52776 0.53167 0.0
O1534 O 0.53067 0.53866 0.55424 0.0
O1535 O 0.55866 0.57294 0.57062 0.0
O1536 O 0.58245 0.5397 0.56696 0.0
O1537 O 0.6174 0.57713 0.52996 0.0
O1538 O 0.50572 0.53582 0.49517 0.0
O1539 O 0.55213 0.56724 0.52394 0.0
O1540 O 0.58917 0.5562 0.5015 0.0
O1541 O 0.56094 0.52207 0.48533 0.0
O1542 O 0.53701 0.55568 0.48891 0.0
O1543 O 0.50317 0.52129 0.52825 0.0
C1544 C 0.5719 0.52061 0.55152 0.0
C1545 C 0.59845 0.66551 0.59472 0.0
C1546 C 0.59845 0.67104 0.57138 0.0
C1547 C 0.62715 0.56771 0.546 0.0
C1548 C 0.64854 0.58201 0.55845 0.0
C1549 C 0.652 0.60728 0.56841 0.0
C1550 C 0.66581 0.56961 0.56056 0.0
C1551 C 0.68665 0.58208 0.57262 0.0
C1552 C 0.67277 0.61994 0.58029 0.0
C1553 C 0.69007 0.60747 0.58236 0.0
C1554 C 0.53966 0.55737 0.57262 0.0
C1555 C 0.54785 0.57462 0.5043 0.0
C1556 C 0.49275 0.52858 0.51103 0.0
C1557 C 0.47044 0.51419 0.50164 0.0
C1558 C 0.46626 0.48872 0.49253 0.0
C1559 C 0.45292 0.52659 0.50208 0.0
C1560 C 0.4311 0.51384 0.49347 0.0
C1561 C 0.44457 0.4758 0.48405 0.0
C1562 C 0.42704 0.48822 0.48456 0.0
C1563 C 0.57999 0.53743 0.4832 0.0
H1564 H 0.63878 0.61714 0.56697 0.0
H1565 H 0.663 0.55015 0.55246 0.0
H1566 H 0.67545 0.63945 0.58796 0.0
H1567 H 0.70596 0.61758 0.59178 0.0
H1568 H 0.47966 0.47889 0.49207 0.0
H1569 H 0.45633 0.54624 0.50951 0.0
H1570 H 0.44134 0.45611 0.47703 0.0
H1571 H 0.41042 0.47789 0.4777 0.0
Gd1572 Gd 0.03954 0.53957 0.04955 0.0
Gd1573 Gd 0.09098 0.55576 0.02155 0.0
C1574 C 0.12476 0.63673 0.02681 0.0
C1575 C 0.12005 0.6415 0.98482 0.0
C1576 C 0.10655 0.60159 0.99575 0.0
C1577 C 0.11376 0.61163 0.01999 0.0
C1578 C 0.11023 0.61626 0.97786 0.0
C1579 C 0.12727 0.65172 0.00925 0.0
C1580 C 0.13355 0.64588 0.05095 0.0
C1581 C 0.13218 0.62991 0.06737 0.0
N1582 N 0.11121 0.59664 0.03662 0.0
C1583 C 0.12127 0.60517 0.0598 0.0
H1584 H 0.12073 0.59345 0.07298 0.0
C1585 C 0.09299 0.56568 0.96554 0.0
N1586 N 0.09724 0.57711 0.98946 0.0
C1587 C 0.09633 0.57948 0.9472 0.0
C1588 C 0.10462 0.60496 0.9534 0.0
H1589 H 0.08641 0.546 0.96069 0.0
H1590 H 0.1354 0.67108 0.01426 0.0
H1591 H 0.01119 0.49834 1.00145 0.0
H1592 H 0.14203 0.66504 0.05691 0.0
H1593 H 0.1395 0.63665 0.08593 0.0
H1594 H 0.12275 0.65312 0.97137 0.0
H1595 H 0.04705 0.55459 0.11026 0.0
H1596 H 0.98727 0.43014 0.02416 0.0
H1597 H 0.99115 0.45495 0.99187 0.0
H1598 H 0.00692 0.45007 0.11023 0.0
H1599 H 0.09242 0.57047 0.92832 0.0
H1600 H 0.10721 0.61561 0.93914 0.0
H1601 H 0.99345 0.42842 0.06836 0.0
H1602 H 0.04123 0.53431 0.1455 0.0
N1603 N 0.01945 0.49828 0.0388 0.0
C1604 C 0.99618 0.44926 0.0285 0.0
C1605 C 0.99828 0.46321 0.01026 0.0
C1606 C 1.005 0.46038 0.05229 0.0
C1607 C 0.01653 0.4853 0.05694 0.0
C1608 C 0.00973 0.48792 0.01583 0.0
N1609 N 0.03398 0.5217 0.08416 0.0
C1610 C 0.02402 0.49742 0.0804 0.0
C1611 C 0.03637 0.52369 0.12728 0.0
C1612 C 0.02693 0.49847 0.12365 0.0
C1613 C 0.0396 0.53513 0.10724 0.0
C1614 C 0.02034 0.48506 0.10001 0.0
H1615 H 0.0244 0.48965 0.13921 0.0
O1616 O 0.01914 0.56189 0.06944 0.0
O1617 O 0.06519 0.57087 0.04158 0.0
O1618 O 0.09702 0.55546 0.06162 0.0
O1619 O 0.06664 0.52734 0.06984 0.0
O1620 O 0.05458 0.57541 0.0757 0.0
O1621 O 0.00748 0.54172 0.03294 0.0
O1622 O 0.11357 0.53386 0.03322 0.0
O1623 O 0.06474 0.52456 0.02785 0.0
O1624 O 0.03226 0.54018 0.0099 0.0
O1625 O 0.06342 0.56508 0.99903 0.0
O1626 O 0.07514 0.52145 0.9936 0.0
O1627 O 0.12071 0.55252 1.00348 0.0
C1628 C 0.06713 0.58605 0.0615 0.0
C1629 C 0.00974 0.45995 0.09543 0.0
C1630 C 1.00208 0.44763 0.0716 0.0
C1631 C 1.00303 0.55611 0.05197 0.0
C1632 C 0.98027 0.55036 0.0589 0.0
C1633 C 0.97338 0.5308 0.07093 0.0
C1634 C 0.96517 0.56462 0.0531 0.0
C1635 C 0.94314 0.55947 0.05926 0.0
C1636 C 0.95162 0.52559 0.07719 0.0
C1637 C 0.93659 0.53977 0.07143 0.0
C1638 C 0.0877 0.53917 0.07437 0.0
C1639 C 0.06251 0.51014 1.00738 0.0
C1640 C 0.12627 0.53697 0.01596 0.0
C1641 C 0.13184 0.51456 1.00215 0.0
C1642 C 0.12009 0.5026 0.97965 0.0
C1643 C 0.14921 0.50503 0.01153 0.0
C1644 C 0.15476 0.48358 0.99862 0.0
C1645 C 0.12532 0.48124 0.96692 0.0
C1646 C 0.1425 0.47176 0.97628 0.0
C1647 C 0.04206 0.55447 0.99567 0.0
H1648 H 0.98479 0.51962 0.07548 0.0
H1649 H 0.97054 0.57948 0.04344 0.0
H1650 H 0.94638 0.51052 0.08658 0.0
H1651 H 0.91991 0.53547 0.07679 0.0
H1652 H 0.107 0.50982 0.97174 0.0
H1653 H 0.15828 0.51424 0.02891 0.0
H1654 H 0.11617 0.47214 0.94959 0.0
H1655 H 0.14651 0.45546 0.96572 0.0
H1656 H 0.0346 0.22742 1.00138 0.0
H1657 H 0.04987 0.08742 0.96293 0.0
H1658 H 0.02504 0.18602 0.92799 0.0
H1659 H 0.04004 0.11626 0.03673 0.0
H1660 H 0.04477 0.12582 0.95141 0.0
H1661 H 0.03998 0.18983 0.01604 0.0
C1662 C 0.03354 0.21051 0.98832 0.0
C1663 C 0.02925 0.21014 0.96328 0.0
C1664 C 0.0438 0.12402 0.9702 0.0
C1665 C 0.03573 0.16687 0.98006 0.0
C1666 C 0.04681 0.10198 0.97686 0.0
C1667 C 0.04584 0.0985 1.00097 0.0
C1668 C 0.03956 0.1433 0.98762 0.0
C1669 C 0.04143 0.11815 0.01803 0.0
C1670 C 0.03661 0.189 0.99675 0.0
C1671 C 0.02819 0.18749 0.9474 0.0
N1672 N 0.03858 0.13968 0.01107 0.0
N1673 N 0.03151 0.16712 0.95598 0.0
H1674 H 0.17387 0.79928 0.13553 0.0
H1675 H 0.25258 0.83538 0.26137 0.0
H1676 H 0.15838 0.84423 0.19989 0.0
H1677 H 0.25526 0.77249 0.20629 0.0
H1678 H 0.2208 0.84207 0.23741 0.0
H1679 H 0.20651 0.79295 0.15898 0.0
C1680 C 0.17744 0.80808 0.15451 0.0
C1681 C 0.16327 0.82242 0.16565 0.0
C1682 C 0.22842 0.82687 0.23045 0.0
C1683 C 0.20082 0.81519 0.19275 0.0
C1684 C 0.24673 0.82299 0.24416 0.0
C1685 C 0.25726 0.80351 0.23581 0.0
C1686 C 0.22038 0.81136 0.20789 0.0
C1687 C 0.24833 0.78809 0.21336 0.0
C1688 C 0.19603 0.80429 0.16795 0.0
C1689 C 0.16875 0.83308 0.19044 0.0
N1690 N 0.23063 0.79242 0.20019 0.0
N1691 N 0.18702 0.82935 0.20303 0.0
H1692 H 0.53784 0.85062 0.50064 0.0
H1693 H 0.54991 0.98404 0.46312 0.0
H1694 H 0.53943 0.86397 0.42752 0.0
H1695 H 0.56178 0.97725 0.53765 0.0
H1696 H 0.54132 0.93916 0.45104 0.0
H1697 H 0.54267 0.89558 0.51567 0.0
C1698 C 0.53915 0.8629 0.48774 0.0
C1699 C 0.53829 0.85331 0.46271 0.0
C1700 C 0.54559 0.94729 0.47011 0.0
C1701 C 0.54362 0.90483 0.4798 0.0
C1702 C 0.55038 0.97303 0.47705 0.0
C1703 C 0.55632 0.98455 0.50146 0.0
C1704 C 0.54694 0.93247 0.4876 0.0
C1705 C 0.55691 0.9692 0.51866 0.0
C1706 C 0.54193 0.88859 0.49635 0.0
C1707 C 0.54007 0.87027 0.44695 0.0
N1708 N 0.55236 0.94397 0.51141 0.0
N1709 N 0.54258 0.89492 0.4557 0.0
H1710 H 0.52104 0.30206 0.63753 0.0
H1711 H 0.4813 0.3234 0.77167 0.0
H1712 H 0.5646 0.33754 0.70238 0.0
H1713 H 0.43656 0.28578 0.7083 0.0
H1714 H 0.5113 0.33075 0.74583 0.0
H1715 H 0.48947 0.29779 0.66222 0.0
C1716 C 0.52396 0.30907 0.65693 0.0
C1717 C 0.54557 0.32015 0.66787 0.0
C1718 C 0.49494 0.32095 0.73746 0.0
C1719 C 0.50945 0.31528 0.6963 0.0
C1720 C 0.47774 0.31666 0.75227 0.0
C1721 C 0.45632 0.30366 0.74226 0.0
C1722 C 0.49091 0.31219 0.71226 0.0
C1723 C 0.45274 0.29592 0.71687 0.0
C1724 C 0.50592 0.3066 0.67102 0.0
C1725 C 0.54831 0.32885 0.69311 0.0
N1726 N 0.46987 0.30013 0.70278 0.0
N1727 N 0.53054 0.32618 0.70639 0.0
H1728 H 0.01106 0.79124 0.60391 0.0
H1729 H 0.0761 0.91877 0.57387 0.0
H1730 H 0.05061 0.85057 0.65807 0.0
H1731 H 0.03626 0.85958 0.5198 0.0
H1732 H 0.06807 0.8935 0.60466 0.0
H1733 H 0.02082 0.81559 0.57274 0.0
C1734 C 0.02176 0.80945 0.60926 0.0
C1735 C 0.03 0.81894 0.63364 0.0
C1736 C 0.06114 0.88596 0.58606 0.0
C1737 C 0.04136 0.84689 0.59797 0.0
C1738 C 0.06569 0.9004 0.56846 0.0
C1739 C 0.05667 0.89135 0.54424 0.0
C1740 C 0.04744 0.86225 0.57946 0.0
C1741 C 0.04365 0.86725 0.53821 0.0
C1742 C 0.02738 0.82332 0.59143 0.0
C1743 C 0.04384 0.84259 0.6395 0.0
N1744 N 0.0393 0.8536 0.55574 0.0
N1745 N 0.04909 0.85577 0.62178 0.0
H1746 H 0.56839 0.84022 0.80636 0.0
H1747 H 0.43576 0.80296 0.78383 0.0
H1748 H 0.52893 0.78233 0.83625 0.0
H1749 H 0.47568 0.87117 0.77143 0.0
H1750 H 0.46976 0.79051 0.79641 0.0
H1751 H 0.53461 0.84617 0.78559 0.0
C1752 C 0.55264 0.82843 0.80819 0.0
C1753 C 0.55143 0.81093 0.82327 0.0
C1754 C 0.47102 0.80811 0.79076 0.0
C1755 C 0.51264 0.8179 0.7998 0.0
C1756 C 0.45162 0.81536 0.78376 0.0
C1757 C 0.45276 0.8383 0.77674 0.0
C1758 C 0.49175 0.82383 0.79058 0.0
C1759 C 0.47388 0.85323 0.77643 0.0
C1760 C 0.53334 0.83195 0.79645 0.0
C1761 C 0.53058 0.79612 0.82489 0.0
N1762 N 0.49248 0.84578 0.78334 0.0
N1763 N 0.51193 0.80012 0.81352 0.0
H1764 H 0.48192 0.2032 0.12017 0.0
H1765 H 0.55692 0.10495 0.0959 0.0
H1766 H 0.5247 0.18822 0.17674 0.0
H1767 H 0.50081 0.10521 0.04619 0.0
H1768 H 0.54434 0.13429 0.12633 0.0
H1769 H 0.48687 0.16586 0.09343 0.0
C1770 C 0.492 0.19177 0.12709 0.0
C1771 C 0.50315 0.1989 0.15054 0.0
C1772 C 0.53471 0.1278 0.1088 0.0
C1773 C 0.50924 0.15657 0.12001 0.0
C1774 C 0.54196 0.11113 0.09133 0.0
C1775 C 0.53022 0.10303 0.06819 0.0
C1776 C 0.51572 0.13661 0.10302 0.0
C1777 C 0.51075 0.11144 0.06352 0.0
C1778 C 0.49486 0.1705 0.11183 0.0
C1779 C 0.51593 0.18343 0.1587 0.0
N1780 N 0.50427 0.12802 0.08068 0.0
N1781 N 0.51896 0.16319 0.14328 0.0
H1782 H 0.15111 0.32337 0.31325 0.0
H1783 H 0.27489 0.31016 0.33272 0.0
H1784 H 0.1845 0.33088 0.3847 0.0
H1785 H 0.24885 0.32974 0.26779 0.0
H1786 H 0.24293 0.32004 0.35296 0.0
H1787 H 0.187 0.32708 0.29648 0.0
C1788 C 0.16602 0.32573 0.32539 0.0
C1789 C 0.16486 0.32647 0.35033 0.0
C1790 C 0.24427 0.32249 0.33439 0.0
C1791 C 0.20591 0.33061 0.33129 0.0
C1792 C 0.26238 0.31666 0.32283 0.0
C1793 C 0.2638 0.31827 0.29838 0.0
C1794 C 0.22737 0.32952 0.3212 0.0
C1795 C 0.24779 0.3276 0.28648 0.0
C1796 C 0.18651 0.3281 0.31585 0.0
C1797 C 0.18469 0.32998 0.36532 0.0
N1798 N 0.22986 0.33237 0.29785 0.0
N1799 N 0.2044 0.33156 0.35551 0.0
H1800 H 0.94691 0.0403 0.19263 0.0
H1801 H 0.05202 0.09158 0.11968 0.0
H1802 H 1.00196 0.09852 0.22673 0.0
H1803 H 1.00018 0.02857 0.08832 0.0
H1804 H 0.03396 0.09522 0.15771 0.0
H1805 H 0.96527 0.03674 0.15475 0.0
C1806 C 0.96285 0.05248 0.1924 0.0
C1807 C 0.97249 0.06982 0.21377 0.0
C1808 C 0.02642 0.08051 0.14262 0.0
C1809 C 0.99432 0.06576 0.16881 0.0
C1810 C 0.03693 0.07832 0.12054 0.0
C1811 C 0.02818 0.05953 0.09989 0.0
C1812 C 0.00642 0.06397 0.14493 0.0
C1813 C 0.00806 0.04343 0.10312 0.0
C1814 C 0.97347 0.05037 0.17041 0.0
C1815 C 0.99343 0.0848 0.21131 0.0
N1816 N 0.99814 0.04603 0.12468 0.0
N1817 N 1.00335 0.08247 0.18971 0.0
H1818 H 0.27163 0.64613 0.43252 0.0
H1819 H 0.25765 0.77289 0.39505 0.0
H1820 H 0.29425 0.7177 0.47913 0.0
H1821 H 0.24549 0.70394 0.34347 0.0
H1822 H 0.27011 0.75233 0.42626 0.0
H1823 H 0.26172 0.66637 0.39957 0.0
C1824 C 0.27477 0.66612 0.43572 0.0
C1825 C 0.28371 0.68028 0.4586 0.0
C1826 C 0.26477 0.74165 0.40812 0.0
C1827 C 0.27211 0.70348 0.42118 0.0
C1828 C 0.25765 0.75339 0.39027 0.0
C1829 C 0.25063 0.74015 0.36656 0.0
C1830 C 0.26476 0.71637 0.40237 0.0
C1831 C 0.25057 0.71481 0.36156 0.0
C1832 C 0.26904 0.67764 0.41694 0.0
C1833 C 0.28739 0.70608 0.46179 0.0
N1834 N 0.25757 0.70372 0.37934 0.0
N1835 N 0.28141 0.71683 0.44335 0.0
H1836 H 0.6973 0.02565 0.6697 0.0
H1837 H 0.57617 1.0006 0.59912 0.0
H1838 H 0.63876 0.98375 0.69322 0.0
H1839 H 0.63332 0.05316 0.58581 0.0
H1840 H 0.5998 0.98776 0.62881 0.0
H1841 H 0.67526 0.02779 0.63292 0.0
C1842 C 0.67993 0.01638 0.66684 0.0
C1843 C 0.66974 1.00488 0.68469 0.0
C1844 C 0.60712 1.002 0.61924 0.0
C1845 C 0.64433 1.00773 0.64297 0.0
C1846 C 0.59362 1.00948 0.60243 0.0
C1847 C 0.60267 0.02828 0.5902 0.0
C1848 C 0.62983 0.01325 0.62366 0.0
C1849 C 0.62551 0.03877 0.59491 0.0
C1850 C 0.6673 0.01779 0.64594 0.0
C1851 C 0.6472 0.99304 0.67999 0.0
N1852 N 0.63825 0.03117 0.6113 0.0
N1853 N 0.63512 0.99513 0.65974 0.0
H1854 H 0.3345 0.40059 0.95974 0.0
H1855 H 0.30993 0.28668 0.84647 0.0
H1856 H 0.31468 0.32523 0.96939 0.0
H1857 H 0.32204 0.36369 0.84177 0.0
H1858 H 0.31591 0.29883 0.89127 0.0
H1859 H 0.3344 0.38594 0.91649 0.0
C1860 C 0.33012 0.38086 0.95275 0.0
C1861 C 0.32437 0.36415 0.96826 0.0
C1862 C 0.3175 0.313 0.88036 0.0
C1863 C 0.32409 0.34702 0.91817 0.0
C1864 C 0.3143 0.30608 0.85487 0.0
C1865 C 0.31587 0.32427 0.84051 0.0
C1866 C 0.32217 0.33823 0.89132 0.0
C1867 C 0.3209 0.34911 0.85219 0.0
C1868 C 0.33008 0.37246 0.92792 0.0
C1869 C 0.3191 0.33876 0.95805 0.0
N1870 N 0.32387 0.3553 0.87676 0.0
N1871 N 0.31892 0.33094 0.93357 0.0
H1872 H 0.00814 0.07374 0.34174 0.0
H1873 H 0.99185 0.05076 0.47979 0.0
H1874 H 0.94582 0.06608 0.37296 0.0
H1875 H 0.05613 0.05766 0.45295 0.0
H1876 H 0.97578 0.05538 0.44047 0.0
H1877 H 0.02623 0.06773 0.3802 0.0
C1878 C 0.99809 0.07091 0.35654 0.0
C1879 C 0.97501 0.07067 0.35331 0.0
C1880 C 0.99339 0.05578 0.4428 0.0
C1881 C 0.99627 0.06339 0.39873 0.0
C1882 C 1.00278 0.053 0.46561 0.0
C1883 C 0.02569 0.05348 0.47057 0.0
C1884 C 0.00663 0.05946 0.42361 0.0
C1885 C 0.03844 0.05677 0.45065 0.0
C1886 C 0.0086 0.06737 0.37877 0.0
C1887 C 0.96348 0.06665 0.37386 0.0
N1888 N 0.02887 0.05964 0.42849 0.0
N1889 N 0.97402 0.06328 0.39509 0.0
H1890 H 0.28757 0.65518 0.60684 0.0
H1891 H 0.30803 0.79044 0.68946 0.0
H1892 H 0.31042 0.7222 0.58009 0.0
H1893 H 0.29304 0.72325 0.71787 0.0
H1894 H 0.30796 0.76582 0.64905 0.0
H1895 H 0.28898 0.67979 0.64758 0.0
C1896 C 0.29306 0.67507 0.60959 0.0
C1897 C 0.29888 0.68667 0.59007 0.0
C1898 C 0.30468 0.75646 0.66412 0.0
C1899 C 0.30028 0.715 0.63657 0.0
C1900 C 0.30473 0.77052 0.68722 0.0
C1901 C 0.30081 0.75893 0.70716 0.0
C1902 C 0.30041 0.73057 0.66085 0.0
C1903 C 0.29622 0.73301 0.70306 0.0
C1904 C 0.29381 0.68912 0.63284 0.0
C1905 C 0.30582 0.7125 0.59464 0.0
N1906 N 0.29618 0.71972 0.68039 0.0
N1907 N 0.30621 0.72581 0.61739 0.0
H1908 H 0.61894 0.02477 0.77001 0.0
H1909 H 0.58948 0.10835 0.88877 0.0
H1910 H 0.66772 0.07394 0.82439 0.0
H1911 H 0.54042 0.05328 0.83971 0.0
H1912 H 0.61762 0.10094 0.86133 0.0
H1913 H 0.58943 0.03894 0.79197 0.0
C1914 C 0.62343 0.03854 0.78659 0.0
C1915 C 0.64578 0.04803 0.79557 0.0
C1916 C 0.60065 0.0907 0.85634 0.0
C1917 C 0.61218 0.0645 0.82056 0.0
C1918 C 0.58459 0.09503 0.87192 0.0
C1919 C 0.56272 0.0812 0.86655 0.0
C1920 C 0.59483 0.07226 0.83531 0.0
C1921 C 0.55713 0.06432 0.84445 0.0
C1922 C 0.60659 0.04668 0.79904 0.0
C1923 C 0.65069 0.06597 0.81698 0.0
N1924 N 0.57319 0.06003 0.82976 0.0
N1925 N 0.63401 0.07356 0.82878 0.0
H1926 H 0.30246 0.32478 0.08584 0.0
H1927 H 0.31159 0.35273 0.23164 0.0
H1928 H 0.32358 0.398 0.1295 0.0
H1929 H 0.28376 0.28108 0.18751 0.0
H1930 H 0.31601 0.3698 0.19458 0.0
H1931 H 0.29567 0.30834 0.12295 0.0
C1932 C 0.30572 0.33738 0.10322 0.0
C1933 C 0.31364 0.36279 0.10454 0.0
C1934 C 0.30861 0.35038 0.19301 0.0
C1935 C 0.30586 0.34414 0.14716 0.0
C1936 C 0.30601 0.34064 0.21418 0.0
C1937 C 0.29677 0.31546 0.21277 0.0
C1938 C 0.30222 0.33478 0.17016 0.0
C1939 C 0.29016 0.30066 0.18961 0.0
C1940 C 0.30176 0.32802 0.12442 0.0
C1941 C 0.31749 0.37827 0.1276 0.0
N1942 N 0.29312 0.31047 0.16928 0.0
N1943 N 0.31362 0.36872 0.14794 0.0
H1944 H 0.30067 0.01367 0.06486 0.0
H1945 H 0.17271 0.01773 0.07484 0.0
H1946 H 0.24762 0.94859 0.05137 0.0
H1947 H 0.22598 0.08261 0.08898 0.0
H1948 H 0.20005 0.99191 0.06837 0.0
H1949 H 0.27372 0.03906 0.07575 0.0
C1950 C 0.28333 1.00472 0.06424 0.0
C1951 C 0.27633 0.979 0.05709 0.0
C1952 C 0.20579 0.01178 0.07303 0.0
C1953 C 0.24538 1.00794 0.06955 0.0
C1954 C 0.19019 0.02653 0.07665 0.0
C1955 C 0.19709 0.05236 0.08228 0.0
C1956 C 0.22847 0.02294 0.07494 0.0
C1957 C 0.21994 0.06277 0.08482 0.0
C1958 C 0.26795 0.01922 0.07049 0.0
C1959 C 0.25369 0.96837 0.05669 0.0
N1960 N 0.23481 0.04803 0.08096 0.0
N1961 N 0.239 0.98291 0.06275 0.0
H1962 H 0.71852 0.67994 0.0297 0.0
H1963 H 0.62694 0.55495 0.98474 0.0
H1964 H 0.73418 0.61323 0.99093 0.0
H1965 H 0.62036 0.612 0.04448 0.0
H1966 H 0.66418 0.57833 0.98129 0.0
H1967 H 0.68008 0.65765 0.0293 0.0
C1968 C 0.71381 0.66067 0.02088 0.0
C1969 C 0.72956 0.64836 0.01044 0.0
C1970 C 0.65454 0.58565 0.99515 0.0
C1971 C 0.68566 0.6228 0.0099 0.0
C1972 C 0.63332 0.57223 0.99725 0.0
C1973 C 0.62059 0.58115 0.01529 0.0
C1974 C 0.66293 0.60841 0.01089 0.0
C1975 C 0.62954 0.60417 0.03043 0.0
C1976 C 0.69191 0.64794 0.02077 0.0
C1977 C 0.72256 0.62337 0.9993 0.0
N1978 N 0.65012 0.61698 0.02789 0.0
N1979 N 0.70111 0.61138 0.99933 0.0
H1980 H 0.6944 0.42728 0.2451 0.0
H1981 H 0.79005 0.36981 0.30945 0.0
H1982 H 0.74102 0.47114 0.30406 0.0
H1983 H 0.7528 0.33478 0.2409 0.0
H1984 H 0.77212 0.40555 0.30954 0.0
H1985 H 0.71407 0.39313 0.24504 0.0
C1986 C 0.70871 0.43001 0.25817 0.0
C1987 C 0.71557 0.45304 0.27457 0.0
C1988 C 0.76797 0.39024 0.29424 0.0
C1989 C 0.73897 0.41226 0.27481 0.0
C1990 C 0.77859 0.36961 0.29403 0.0
C1991 C 0.77411 0.34878 0.27456 0.0
C1992 C 0.75176 0.39055 0.27524 0.0
C1993 C 0.75774 0.35011 0.25611 0.0
C1994 C 0.72015 0.41014 0.2581 0.0
C1995 C 0.73462 0.45431 0.29087 0.0
N1996 N 0.74749 0.37002 0.25693 0.0
N1997 N 0.74526 0.43467 0.29062 0.0
H1998 H 0.89912 0.43287 0.52396 0.0
H1999 H 0.99314 0.5516 0.52149 0.0
H2000 H 0.88732 0.50644 0.52842 0.0
H2001 H 1.00459 0.47781 0.50366 0.0
H2002 H 0.95425 0.53484 0.52357 0.0
H2003 H 0.93763 0.44824 0.51639 0.0
C2004 C 0.90464 0.45224 0.52333 0.0
C2005 C 0.89011 0.46849 0.52701 0.0
C2006 C 0.9651 0.52218 0.51893 0.0
C2007 C 0.93395 0.48608 0.51835 0.0
C2008 C 0.9874 0.53181 0.51745 0.0
C2009 C 1.002 0.5161 0.51155 0.0
C2010 C 0.95735 0.49652 0.51524 0.0
C2011 C 0.99371 0.49053 0.50791 0.0
C2012 C 0.92656 0.46095 0.51892 0.0
C2013 C 0.89801 0.49332 0.52584 0.0
N2014 N 0.97186 0.48146 0.50984 0.0
N2015 N 0.91942 0.50137 0.52172 0.0
H2016 H 0.38944 0.09941 0.34025 0.0
H2017 H 0.29552 0.13887 0.26162 0.0
H2018 H 0.38288 0.08585 0.26187 0.0
H2019 H 0.31063 0.16465 0.33903 0.0
H2020 H 0.32617 0.11746 0.26152 0.0
H2021 H 0.35946 0.12177 0.34029 0.0
C2022 C 0.38173 0.10125 0.32303 0.0
C2023 C 0.38859 0.09075 0.301 0.0
C2024 C 0.32279 0.1278 0.27852 0.0
C2025 C 0.35418 0.11615 0.30093 0.0
C2026 C 0.30533 0.14007 0.27861 0.0
C2027 C 0.30057 0.15365 0.30037 0.0
C2028 C 0.33551 0.12895 0.30038 0.0
C2029 C 0.31355 0.15416 0.32189 0.0
C2030 C 0.36463 0.11401 0.32308 0.0
C2031 C 0.37808 0.09369 0.27924 0.0
N2032 N 0.33046 0.14199 0.32135 0.0
N2033 N 0.36128 0.10604 0.27975 0.0
H2034 H 0.3259 0.10629 0.50752 0.0
H2035 H 0.45151 0.11027 0.55669 0.0
H2036 H 0.37576 0.17379 0.52901 0.0
H2037 H 0.4014 0.04303 0.53422 0.0
H2038 H 0.42465 0.13375 0.54502 0.0
H2039 H 0.35388 0.08278 0.51549 0.0
C2040 C 0.3428 0.11617 0.51374 0.0
C2041 C 0.34849 0.14206 0.51765 0.0
C2042 C 0.41955 0.11385 0.54259 0.0
C2043 C 0.38066 0.11522 0.52703 0.0
C2044 C 0.43493 0.10039 0.54913 0.0
C2045 C 0.42875 0.07457 0.54654 0.0
C2046 C 0.39777 0.10148 0.53334 0.0
C2047 C 0.40687 0.06291 0.53694 0.0
C2048 C 0.35877 0.10273 0.51835 0.0
C2049 C 0.37064 0.15386 0.52576 0.0
N2050 N 0.39222 0.07642 0.53075 0.0
N2051 N 0.38589 0.14037 0.53029 0.0
H2052 H 0.7518 0.58541 0.29184 0.0
H2053 H 0.74951 0.71885 0.25801 0.0
H2054 H 0.69192 0.60587 0.2675 0.0
H2055 H 0.80413 0.70837 0.30338 0.0
H2056 H 0.72992 0.67656 0.25809 0.0
H2057 H 0.77252 0.62811 0.29295 0.0
C2058 C 0.74291 0.59873 0.28666 0.0
C2059 C 0.7198 0.59151 0.2796 0.0
C2060 C 0.74617 0.68338 0.26812 0.0
C2061 C 0.74389 0.64119 0.28052 0.0
C2062 C 0.75745 0.70791 0.26828 0.0
C2063 C 0.77865 0.71808 0.28109 0.0
C2064 C 0.75602 0.6679 0.28048 0.0
C2065 C 0.78799 0.70185 0.29314 0.0
C2066 C 0.75484 0.6233 0.28736 0.0
C2067 C 0.70957 0.61013 0.27316 0.0
N2068 N 0.77676 0.67787 0.29248 0.0
N2069 N 0.72154 0.63365 0.27362 0.0
H2070 H 0.86431 0.47426 0.77383 0.0
H2071 H 0.86979 0.33354 0.77436 0.0
H2072 H 0.9237 0.45109 0.79592 0.0
H2073 H 0.8102 0.35606 0.75239 0.0
H2074 H 0.89049 0.3764 0.77969 0.0
H2075 H 0.84443 0.43102 0.76433 0.0
C2076 C 0.87314 0.46006 0.77671 0.0
C2077 C 0.89565 0.46621 0.78572 0.0
C2078 C 0.87289 0.37206 0.77374 0.0
C2079 C 0.87314 0.4168 0.77465 0.0
C2080 C 0.86114 0.34772 0.77087 0.0
C2081 C 0.83828 0.34186 0.76396 0.0
C2082 C 0.86159 0.39049 0.76956 0.0
C2083 C 0.82777 0.36031 0.75852 0.0
C2084 C 0.86182 0.4354 0.77119 0.0
C2085 C 0.90632 0.44714 0.78908 0.0
N2086 N 0.83947 0.38399 0.76178 0.0
N2087 N 0.89496 0.42328 0.78354 0.0
H2088 H 0.10274 0.91047 0.13389 0.0
H2089 H 0.07747 0.97805 0.02319 0.0
H2090 H 0.08681 0.86882 0.06073 0.0
H2091 H 0.07412 1.00732 0.09869 0.0
H2092 H 0.08345 0.93904 0.03458 0.0
H2093 H 0.09581 0.94708 0.11971 0.0
C2094 C 0.09791 0.90896 0.11474 0.0
C2095 C 0.09544 0.8862 0.09862 0.0
C2096 C 0.08126 0.95398 0.0486 0.0
C2097 C 0.08734 0.92891 0.0819 0.0
C2098 C 0.07769 0.97624 0.04206 0.0
C2099 C 0.07483 0.99607 0.05992 0.0
C2100 C 0.08256 0.95165 0.07326 0.0
C2101 C 0.07599 0.99266 0.08417 0.0
C2102 C 0.09382 0.93002 0.10661 0.0
C2103 C 0.08899 0.88581 0.07395 0.0
N2104 N 0.07978 0.97123 0.09001 0.0
N2105 N 0.08526 0.90673 0.06637 0.0
H2106 H 0.97045 0.24965 0.85931 0.0
H2107 H 0.85981 0.30413 0.85346 0.0
H2108 H 0.94786 0.28867 0.92279 0.0
H2109 H 0.87671 0.25305 0.79469 0.0
H2110 H 0.89235 0.30033 0.87873 0.0
H2111 H 0.93679 0.25193 0.83526 0.0
C2112 C 0.95834 0.25858 0.86828 0.0
C2113 C 0.9621 0.26889 0.89325 0.0
C2114 C 0.88886 0.28982 0.86033 0.0
C2115 C 0.92327 0.27192 0.86545 0.0
C2116 C 0.87026 0.29203 0.84579 0.0
C2117 C 0.86512 0.27865 0.82176 0.0
C2118 C 0.90282 0.27436 0.8508 0.0
C2119 C 0.87947 0.26333 0.81306 0.0
C2120 C 0.93906 0.2599 0.85447 0.0
C2121 C 0.9457 0.28032 0.90368 0.0
N2122 N 0.89757 0.26171 0.82742 0.0
N2123 N 0.92716 0.28166 0.88977 0.0
H2124 H 0.58972 0.23823 0.63682 0.0
H2125 H 0.5735 0.1191 0.5296 0.0
H2126 H 0.59458 0.24593 0.56226 0.0
H2127 H 0.58176 0.11791 0.60597 0.0
H2128 H 0.58089 0.16472 0.53959 0.0
H2129 H 0.58581 0.19385 0.62455 0.0
C2130 C 0.58993 0.23061 0.61776 0.0
C2131 C 0.59246 0.24611 0.60061 0.0
C2132 C 0.5813 0.15446 0.55412 0.0
C2133 C 0.58787 0.1944 0.58618 0.0
C2134 C 0.57725 0.1284 0.5484 0.0
C2135 C 0.57734 0.11457 0.56697 0.0
C2136 C 0.58504 0.16679 0.57861 0.0
C2137 C 0.58169 0.1277 0.59104 0.0
C2138 C 0.58776 0.20508 0.61074 0.0
C2139 C 0.59266 0.23482 0.57617 0.0
N2140 N 0.58524 0.15281 0.59609 0.0
N2141 N 0.59029 0.20969 0.56967 0.0
H2142 H 0.56803 0.76247 0.35759 0.0
H2143 H 0.694 0.83216 0.35179 0.0
H2144 H 0.60963 0.80522 0.42135 0.0
H2145 H 0.65348 0.78057 0.29201 0.0
H2146 H 0.66435 0.82227 0.37814 0.0
H2147 H 0.59972 0.76898 0.33375 0.0
C2148 C 0.58389 0.77316 0.36663 0.0
C2149 C 0.5861 0.78331 0.39155 0.0
C2150 C 0.66205 0.81303 0.35928 0.0
C2151 C 0.62273 0.79108 0.36415 0.0
C2152 C 0.67904 0.81856 0.34425 0.0
C2153 C 0.6762 0.80748 0.31947 0.0
C2154 C 0.64204 0.79628 0.3495 0.0
C2155 C 0.65632 0.79007 0.31079 0.0
C2156 C 0.60205 0.77687 0.35298 0.0
C2157 C 0.60714 0.797 0.4022 0.0
N2158 N 0.64007 0.7852 0.32565 0.0
N2159 N 0.62459 0.80062 0.38844 0.0
H2160 H 0.08583 0.24417 0.403 0.0
H2161 H 0.08609 0.23535 0.54365 0.0
H2162 H 0.1022 0.30821 0.46091 0.0
H2163 H 0.05481 0.17532 0.48515 0.0
H2164 H 0.09474 0.2619 0.51388 0.0
H2165 H 0.07767 0.21796 0.43313 0.0
C2166 C 0.08782 0.2527 0.42207 0.0
C2167 C 0.09466 0.2784 0.42946 0.0
C2168 C 0.08597 0.24291 0.50761 0.0
C2169 C 0.08534 0.24854 0.46407 0.0
C2170 C 0.0809 0.22775 0.52461 0.0
C2171 C 0.06979 0.20294 0.51697 0.0
C2172 C 0.08002 0.23318 0.48275 0.0
C2173 C 0.0638 0.19413 0.49195 0.0
C2174 C 0.08307 0.23775 0.43926 0.0
C2175 C 0.09691 0.28847 0.45442 0.0
N2176 N 0.06905 0.20917 0.47579 0.0
N2177 N 0.09229 0.27352 0.47083 0.0
H2178 H 0.59147 0.27417 0.19336 0.0
H2179 H 0.65699 0.25404 0.3128 0.0
H2180 H 0.56276 0.27687 0.26165 0.0
H2181 H 0.67517 0.23566 0.23991 0.0
H2182 H 0.6242 0.26649 0.29622 0.0
H2183 H 0.62484 0.26584 0.21233 0.0
C2184 C 0.5923 0.2733 0.21249 0.0
C2185 C 0.57425 0.27605 0.22592 0.0
C2186 C 0.63543 0.25975 0.28394 0.0
C2187 C 0.61246 0.26609 0.24777 0.0
C2188 C 0.65405 0.25246 0.29334 0.0
C2189 C 0.669 0.24393 0.27775 0.0
C2190 C 0.63184 0.25859 0.25881 0.0
C2191 C 0.66444 0.24257 0.25272 0.0
C2192 C 0.61134 0.26837 0.22329 0.0
C2193 C 0.57633 0.27485 0.25067 0.0
N2194 N 0.64637 0.24989 0.2441 0.0
N2195 N 0.59508 0.26975 0.26081 0.0
H2196 H 0.62771 0.90547 0.91437 0.0
H2197 H 0.53626 0.98419 0.95007 0.0
H2198 H 0.55707 0.87498 0.90351 0.0
H2199 H 0.6046 1.00585 0.98127 0.0
H2200 H 0.54469 0.94731 0.92564 0.0
H2201 H 0.62031 0.94556 0.93243 0.0
C2202 C 0.61066 0.90727 0.91574 0.0
C2203 C 0.59296 0.88694 0.90772 0.0
C2204 C 0.55784 0.96027 0.93771 0.0
C2205 C 0.58442 0.93253 0.92795 0.0
C2206 C 0.55309 0.98137 0.9515 0.0
C2207 C 0.5697 0.99784 0.96789 0.0
C2208 C 0.57938 0.95587 0.94021 0.0
C2209 C 0.59124 0.99335 0.96908 0.0
C2210 C 0.60646 0.93008 0.926 0.0
C2211 C 0.57118 0.89019 0.90974 0.0
N2212 N 0.59545 0.97267 0.95551 0.0
N2213 N 0.5675 0.9126 0.91969 0.0
H2214 H 0.95525 0.81449 0.70646 0.0
H2215 H 0.85085 0.73833 0.75874 0.0
H2216 H 0.95404 0.74452 0.72822 0.0
H2217 H 0.84892 0.80376 0.7297 0.0
H2218 H 0.88878 0.74025 0.74747 0.0
H2219 H 0.91682 0.81198 0.71632 0.0
C2220 C 0.94698 0.79875 0.71356 0.0
C2221 C 0.95782 0.77967 0.71651 0.0
C2222 C 0.88013 0.75427 0.7436 0.0
C2223 C 0.91384 0.77646 0.72739 0.0
C2224 C 0.85859 0.75322 0.75014 0.0
C2225 C 0.84738 0.77165 0.74625 0.0
C2226 C 0.8904 0.77385 0.73292 0.0
C2227 C 0.85747 0.78987 0.734 0.0
C2228 C 0.92499 0.7972 0.71895 0.0
C2229 C 0.94631 0.75964 0.72564 0.0
N2230 N 0.87861 0.79076 0.72807 0.0
N2231 N 0.92495 0.75854 0.73071 0.0
H2232 H 0.11857 0.9918 0.83468 0.0
H2233 H 0.11777 0.06982 0.97226 0.0
H2234 H 0.16947 0.0553 0.86724 0.0
H2235 H 0.07115 1.00146 0.94361 0.0
H2236 H 0.1357 0.0655 0.93416 0.0
H2237 H 0.10046 0.99556 0.87287 0.0
C2238 C 0.1261 1.00661 0.84969 0.0
C2239 C 0.146 0.02316 0.84691 0.0
C2240 C 0.12151 0.05136 0.93601 0.0
C2241 C 0.12456 0.02783 0.89211 0.0
C2242 C 0.11108 0.05382 0.95812 0.0
C2243 C 0.09238 0.03613 0.96204 0.0
C2244 C 0.11356 0.031 0.91666 0.0
C2245 C 0.08513 0.01594 0.94214 0.0
C2246 C 0.11559 1.00876 0.87181 0.0
C2247 C 0.15436 0.04187 0.8678 0.0
N2248 N 0.09548 0.01406 0.92082 0.0
N2249 N 0.14379 0.04364 0.88893 0.0
H2250 H 0.85567 0.4393 0.61984 0.0
H2251 H 0.83428 0.30686 0.657 0.0
H2252 H 0.80432 0.37724 0.58389 0.0
H2253 H 0.88349 0.36963 0.6958 0.0
H2254 H 0.82071 0.33358 0.63264 0.0
H2255 H 0.8637 0.41548 0.65042 0.0
C2256 C 0.84589 0.42078 0.61858 0.0
C2257 C 0.82947 0.4101 0.5992 0.0
C2258 C 0.83438 0.34158 0.64658 0.0
C2259 C 0.83868 0.38269 0.6339 0.0
C2260 C 0.84209 0.32633 0.66059 0.0
C2261 C 0.86021 0.33597 0.6783 0.0
C2262 C 0.84494 0.36665 0.65019 0.0
C2263 C 0.8698 0.36131 0.68196 0.0
C2264 C 0.85051 0.40717 0.636 0.0
C2265 C 0.81724 0.38609 0.59845 0.0
N2266 N 0.86215 0.37575 0.6679 0.0
N2267 N 0.82225 0.3731 0.61541 0.0
H2268 H 0.44091 0.05207 0.38869 0.0
H2269 H 0.56016 0.0915 0.46493 0.0
H2270 H 0.49956 0.08826 0.36056 0.0
H2271 H 0.50272 0.04272 0.48313 0.0
H2272 H 0.53738 0.09771 0.43022 0.0
H2273 H 0.46236 0.05697 0.42766 0.0
C2274 C 0.45829 0.0613 0.39084 0.0
C2275 C 0.46863 0.06939 0.37135 0.0
C2276 C 0.52985 0.0858 0.442 0.0
C2277 C 0.49338 0.07471 0.41573 0.0
C2278 C 0.54285 0.0821 0.46168 0.0
C2279 C 0.5335 0.06612 0.47668 0.0
C2280 C 0.50736 0.07367 0.43761 0.0
C2281 C 0.51082 0.05496 0.47199 0.0
C2282 C 0.47055 0.06406 0.41306 0.0
C2283 C 0.49108 0.08157 0.37516 0.0
N2284 N 0.49861 0.05887 0.45284 0.0
N2285 N 0.50288 0.08354 0.3969 0.0
H2286 H 0.81477 0.75606 0.08788 0.0
H2287 H 0.77813 0.73677 0.21898 0.0
H2288 H 0.77705 0.68788 0.10257 0.0
H2289 H 0.82658 0.79956 0.20831 0.0
H2290 H 0.77158 0.72239 0.17484 0.0
H2291 H 0.81408 0.7756 0.13046 0.0
C2292 C 0.80626 0.74525 0.10001 0.0
C2293 C 0.79615 0.72023 0.09171 0.0
C2294 C 0.78329 0.73962 0.18206 0.0
C2295 C 0.79509 0.74249 0.14032 0.0
C2296 C 0.78681 0.74794 0.2072 0.0
C2297 C 0.80233 0.76978 0.21712 0.0
C2298 C 0.79587 0.7529 0.16672 0.0
C2299 C 0.8139 0.78307 0.20123 0.0
C2300 C 0.80585 0.7564 0.12429 0.0
C2301 C 0.78526 0.70714 0.10821 0.0
N2302 N 0.81052 0.77438 0.17681 0.0
N2303 N 0.78507 0.71837 0.13166 0.0
H2304 H 0.11143 0.01877 0.71892 0.0
H2305 H 0.12814 0.04176 0.58091 0.0
H2306 H 0.17405 0.02751 0.68834 0.0
H2307 H 0.06381 0.0351 0.60761 0.0
H2308 H 0.14413 0.03731 0.62034 0.0
H2309 H 0.09345 0.02465 0.68035 0.0
C2310 C 0.12157 0.02181 0.70424 0.0
C2311 C 0.1447 0.0224 0.7077 0.0
C2312 C 0.12653 0.03692 0.61795 0.0
C2313 C 0.12356 0.02951 0.66211 0.0
C2314 C 0.11718 0.03961 0.59508 0.0
C2315 C 0.09428 0.03915 0.59004 0.0
C2316 C 0.11325 0.03334 0.63714 0.0
C2317 C 0.0815 0.03597 0.60996 0.0
C2318 C 0.11112 0.02528 0.68194 0.0
C2319 C 0.15635 0.02667 0.68728 0.0
N2320 N 0.09102 0.03316 0.63217 0.0
N2321 N 0.14586 0.02994 0.66597 0.0
H2322 H 0.80538 0.366 0.48059 0.0
H2323 H 0.8245 0.37035 0.34178 0.0
H2324 H 0.81459 0.43283 0.45136 0.0
H2325 H 0.81472 0.30344 0.37097 0.0
H2326 H 0.82033 0.39347 0.38163 0.0
H2327 H 0.80683 0.34243 0.44005 0.0
C2328 C 0.80742 0.37567 0.46556 0.0
C2329 C 0.80996 0.40141 0.46932 0.0
C2330 C 0.81913 0.37373 0.37933 0.0
C2331 C 0.81202 0.37465 0.423 0.0
C2332 C 0.8217 0.36054 0.35662 0.0
C2333 C 0.81989 0.3349 0.35302 0.0
C2334 C 0.81481 0.36122 0.39862 0.0
C2335 C 0.81608 0.32316 0.37289 0.0
C2336 C 0.80837 0.36223 0.44245 0.0
C2337 C 0.81257 0.413 0.44924 0.0
N2338 N 0.81361 0.33641 0.39482 0.0
N2339 N 0.81371 0.39955 0.42696 0.0
H2340 H 0.49687 0.01581 0.26878 0.0
H2341 H 0.56041 0.07594 0.16742 0.0
H2342 H 0.4872 0.08355 0.24828 0.0
H2343 H 0.56768 1.00645 0.1855 0.0
H2344 H 0.53836 0.08253 0.20167 0.0
H2345 H 0.52706 0.01529 0.24277 0.0
C2346 C 0.50119 0.03066 0.25887 0.0
C2347 C 0.48936 0.0496 0.2604 0.0
C2348 C 0.54503 0.066 0.19839 0.0
C2349 C 0.5239 0.04913 0.23063 0.0
C2350 C 0.55761 0.06225 0.17888 0.0
C2351 C 0.56556 0.04045 0.17348 0.0
C2352 C 0.54023 0.04773 0.21249 0.0
C2353 C 0.56182 0.02349 0.18905 0.0
C2354 C 0.51847 0.03038 0.24408 0.0
C2355 C 0.49578 0.06849 0.24741 0.0
N2356 N 0.54912 0.02731 0.20767 0.0
N2357 N 0.51252 0.06767 0.23288 0.0
H2358 H 0.81978 0.75089 0.97456 0.0
H2359 H 0.78129 0.72748 0.83194 0.0
H2360 H 0.78588 0.67997 0.93263 0.0
H2361 H 0.82755 0.79316 0.87007 0.0
H2362 H 0.78061 0.71092 0.86933 0.0
H2363 H 0.82083 0.7678 0.93716 0.0
C2364 C 0.8126 0.73887 0.9575 0.0
C2365 C 0.80276 0.71397 0.95674 0.0
C2366 C 0.79094 0.72895 0.86951 0.0
C2367 C 0.80373 0.73322 0.91388 0.0
C2368 C 0.79129 0.73848 0.84814 0.0
C2369 C 0.80454 0.76178 0.8477 0.0
C2370 C 0.80376 0.74286 0.89079 0.0
C2371 C 0.81715 0.77508 0.86939 0.0
C2372 C 0.81321 0.74852 0.93615 0.0
C2373 C 0.79369 0.69926 0.9341 0.0
N2374 N 0.81639 0.76548 0.89 0.0
N2375 N 0.79431 0.70911 0.91365 0.0
H2376 H 0.85124 0.11267 0.99038 0.0
H2377 H 0.89137 0.99108 0.01291 0.0
H2378 H 0.81661 0.06175 0.03154 0.0
H2379 H 0.92762 0.04515 0.97608 0.0
H2380 H 0.86138 0.01382 0.0157 0.0
H2381 H 0.8771 0.08552 0.98111 0.0
C2382 C 0.84901 0.09569 0.99736 0.0
C2383 C 0.83187 0.08953 0.0119 0.0
C2384 C 0.87582 0.02058 1.00683 0.0
C2385 C 0.86146 0.05835 1.00142 0.0
C2386 C 0.89285 1.00752 1.00509 0.0
C2387 C 0.9121 0.01641 0.99448 0.0
C2388 C 0.87805 0.04262 0.99783 0.0
C2389 C 0.91323 0.0379 0.98479 0.0
C2390 C 0.86379 0.08018 0.99207 0.0
C2391 C 0.82969 0.06725 0.02036 0.0
N2392 N 0.89654 0.05034 0.98684 0.0
N2393 N 0.84441 0.05252 0.01512 0.0
H2394 H 0.38241 0.46819 0.07003 0.0
H2395 H 0.49639 0.47248 0.01131 0.0
H2396 H 0.40171 0.40283 0.03328 0.0
H2397 H 0.48933 0.52843 0.07184 0.0
H2398 H 0.46042 0.44802 0.01691 0.0
H2399 H 0.42022 0.49198 0.06904 0.0
C2400 C 0.39465 0.45882 0.06195 0.0
C2401 C 0.38892 0.43351 0.05168 0.0
C2402 C 0.46674 0.46565 0.029 0.0
C2403 C 0.43197 0.46064 0.05015 0.0
C2404 C 0.48727 0.47974 0.02575 0.0
C2405 C 0.49581 0.50286 0.04086 0.0
C2406 C 0.45439 0.47478 0.04728 0.0
C2407 C 0.48325 0.51101 0.05945 0.0
C2408 C 0.4162 0.47238 0.06143 0.0
C2409 C 0.40542 0.42229 0.04145 0.0
N2410 N 0.46305 0.49711 0.06198 0.0
N2411 N 0.4261 0.43597 0.04068 0.0
H2412 H 0.42704 0.66553 0.80533 0.0
H2413 H 0.32168 0.71762 0.75302 0.0
H2414 H 0.37322 0.61759 0.75679 0.0
H2415 H 0.37302 0.76092 0.80744 0.0
H2416 H 0.33887 0.68138 0.75377 0.0
H2417 H 0.40749 0.69978 0.80567 0.0
C2418 C 0.41113 0.66189 0.79465 0.0
C2419 C 0.40229 0.6377 0.78104 0.0
C2420 C 0.34625 0.69864 0.76596 0.0
C2421 C 0.37886 0.67859 0.78124 0.0
C2422 C 0.33605 0.7196 0.76582 0.0
C2423 C 0.3448 0.74301 0.78116 0.0
C2424 C 0.36616 0.70045 0.78103 0.0
C2425 C 0.36464 0.74361 0.7959 0.0
C2426 C 0.39976 0.68184 0.79487 0.0
C2427 C 0.38124 0.63535 0.76773 0.0
N2428 N 0.37427 0.72331 0.79546 0.0
N2429 N 0.37061 0.65503 0.76814 0.0
H2430 H 0.21278 0.6608 0.52884 0.0
H2431 H 0.10626 0.55857 0.46505 0.0
H2432 H 0.21627 0.58842 0.49039 0.0
H2433 H 0.10231 0.62733 0.51017 0.0
H2434 H 0.14678 0.57087 0.47037 0.0
H2435 H 0.1725 0.65028 0.51935 0.0
C2436 C 0.20504 0.64264 0.51845 0.0
C2437 C 0.21785 0.62541 0.51043 0.0
C2438 C 0.13712 0.58329 0.47922 0.0
C2439 C 0.1718 0.6134 0.49919 0.0
C2440 C 0.11403 0.57606 0.47649 0.0
C2441 C 0.10124 0.59115 0.48886 0.0
C2442 C 0.14735 0.60623 0.49371 0.0
C2443 C 0.11185 0.61466 0.50155 0.0
C2444 C 0.18206 0.63671 0.51293 0.0
C2445 C 0.20698 0.6022 0.49701 0.0
N2446 N 0.13439 0.62144 0.5039 0.0
N2447 N 0.18455 0.59687 0.49178 0.0
H2448 H 0.75744 0.98599 0.76551 0.0
H2449 H 0.75331 0.88988 0.85532 0.0
H2450 H 0.7017 0.96656 0.8063 0.0
H2451 H 0.81316 0.92299 0.82706 0.0
H2452 H 0.73287 0.91481 0.83481 0.0
H2453 H 0.77679 0.95939 0.78475 0.0
C2454 C 0.74924 0.97601 0.77843 0.0
C2455 C 0.72799 0.97853 0.78441 0.0
C2456 C 0.75049 0.91663 0.83317 0.0
C2457 C 0.75001 0.94811 0.80651 0.0
C2458 C 0.76219 0.90254 0.845 0.0
C2459 C 0.785 0.90441 0.84296 0.0
C2460 C 0.76168 0.93264 0.81918 0.0
C2461 C 0.79555 0.92074 0.82892 0.0
C2462 C 0.76031 0.96091 0.78947 0.0
C2463 C 0.71812 0.96519 0.80126 0.0
N2464 N 0.78381 0.93419 0.81757 0.0
N2465 N 0.72921 0.95055 0.81175 0.0
H2466 H 0.75783 0.91109 0.50548 0.0
H2467 H 0.70342 0.02555 0.55159 0.0
H2468 H 0.78598 0.96561 0.56954 0.0
H2469 H 0.70299 0.99551 0.47548 0.0
H2470 H 0.72798 0.99846 0.56132 0.0
H2471 H 0.73134 0.93651 0.49712 0.0
C2472 C 0.75822 0.92823 0.51795 0.0
C2473 C 0.77411 0.93633 0.5382 0.0
C2474 C 0.72247 0.99784 0.54251 0.0
C2475 C 0.74389 0.96526 0.52885 0.0
C2476 C 0.70849 0.01319 0.53698 0.0
C2477 C 0.70137 0.01279 0.51271 0.0
C2478 C 0.72891 0.9816 0.52366 0.0
C2479 C 0.70834 0.99648 0.49439 0.0
C2480 C 0.74325 0.94277 0.51308 0.0
C2481 C 0.77403 0.95877 0.55368 0.0
N2482 N 0.72161 0.98138 0.50024 0.0
N2483 N 0.75909 0.97244 0.54875 0.0
H2484 H 0.36731 0.50463 0.76648 0.0
H2485 H 0.37531 0.3676 0.78759 0.0
H2486 H 0.42931 0.48355 0.78107 0.0
H2487 H 0.31556 0.38246 0.7555 0.0
H2488 H 0.39441 0.41032 0.78789 0.0
H2489 H 0.34755 0.46155 0.76509 0.0
C2490 C 0.37688 0.49108 0.76942 0.0
C2491 C 0.40028 0.49827 0.77385 0.0
C2492 C 0.37708 0.40436 0.78081 0.0
C2493 C 0.37732 0.44805 0.77255 0.0
C2494 C 0.36599 0.37969 0.78062 0.0
C2495 C 0.34335 0.37072 0.77169 0.0
C2496 C 0.36571 0.42105 0.77225 0.0
C2497 C 0.33273 0.38803 0.76293 0.0
C2498 C 0.36549 0.46628 0.76858 0.0
C2499 C 0.41139 0.47933 0.7775 0.0
N2500 N 0.34382 0.41203 0.76356 0.0
N2501 N 0.39996 0.45554 0.77691 0.0
H2502 H 0.25915 0.61068 0.30428 0.0
H2503 H 0.26635 0.74121 0.26448 0.0
H2504 H 0.21311 0.62352 0.24955 0.0
H2505 H 0.304 0.73203 0.32803 0.0
H2506 H 0.24678 0.69799 0.25851 0.0
H2507 H 0.27683 0.65472 0.31239 0.0
C2508 C 0.25286 0.62275 0.29388 0.0
C2509 C 0.23468 0.61347 0.2762 0.0
C2510 C 0.25928 0.70537 0.27381 0.0
C2511 C 0.25465 0.66377 0.28548 0.0
C2512 C 0.27053 0.72996 0.27709 0.0
C2513 C 0.28734 0.7397 0.2962 0.0
C2514 C 0.26497 0.69048 0.28973 0.0
C2515 C 0.29154 0.72482 0.31268 0.0
C2516 C 0.26284 0.64788 0.29863 0.0
C2517 C 0.2271 0.62991 0.26334 0.0
N2518 N 0.28068 0.70075 0.30884 0.0
N2519 N 0.23715 0.65425 0.2682 0.0
H2520 H 0.52756 0.68852 0.42515 0.0
H2521 H 0.5439 0.61818 0.53628 0.0
H2522 H 0.53912 0.72872 0.49904 0.0
H2523 H 0.54905 0.58914 0.46115 0.0
H2524 H 0.53998 0.65789 0.52488 0.0
H2525 H 0.53246 0.65131 0.43944 0.0
C2526 C 0.53104 0.6896 0.44447 0.0
C2527 C 0.53288 0.71212 0.46076 0.0
C2528 C 0.54211 0.64284 0.51096 0.0
C2529 C 0.53859 0.66867 0.47764 0.0
C2530 C 0.5445 0.62017 0.51751 0.0
C2531 C 0.54725 0.6002 0.49974 0.0
C2532 C 0.54198 0.64546 0.48638 0.0
C2533 C 0.54721 0.60389 0.4756 0.0
C2534 C 0.53394 0.66817 0.45269 0.0
C2535 C 0.53752 0.71193 0.48567 0.0
N2536 N 0.54462 0.62573 0.46975 0.0
N2537 N 0.54013 0.69066 0.49332 0.0
H2538 H 0.6578 0.34609 0.69961 0.0
H2539 H 0.76243 0.28126 0.70011 0.0
H2540 H 0.67754 0.30686 0.63439 0.0
H2541 H 0.75096 0.3343 0.76071 0.0
H2542 H 0.73133 0.28953 0.67602 0.0
H2543 H 0.69121 0.34111 0.72241 0.0
C2544 C 0.66925 0.3366 0.68999 0.0
C2545 C 0.66475 0.327 0.66491 0.0
C2546 C 0.73563 0.29942 0.69459 0.0
C2547 C 0.7032 0.3208 0.69123 0.0
C2548 C 0.75351 0.29473 0.70845 0.0
C2549 C 0.7594 0.30681 0.73286 0.0
C2550 C 0.72323 0.31626 0.70506 0.0
C2551 C 0.74697 0.32409 0.74231 0.0
C2552 C 0.68838 0.33373 0.70308 0.0
C2553 C 0.68028 0.31474 0.65361 0.0
N2554 N 0.72951 0.32811 0.72857 0.0
N2555 N 0.69862 0.31184 0.66682 0.0
H2556 H 0.03818 0.36062 0.92635 0.0
H2557 H 0.06 0.47615 0.0384 0.0
H2558 H 0.03481 0.34965 1.00012 0.0
H2559 H 0.04995 0.48105 0.9631 0.0
H2560 H 0.05164 0.43057 0.02635 0.0
H2561 H 0.04386 0.40499 0.94073 0.0
C2562 C 0.03864 0.3675 0.94567 0.0
C2563 C 0.03598 0.35109 0.96196 0.0
C2564 C 0.05107 0.44164 0.01251 0.0
C2565 C 0.04266 0.40278 0.97886 0.0
C2566 C 0.05568 0.46767 0.01942 0.0
C2567 C 0.05527 0.48253 1.00176 0.0
C2568 C 0.04645 0.43037 0.98773 0.0
C2569 C 0.05022 0.47045 0.97738 0.0
C2570 C 0.04185 0.39303 0.95392 0.0
C2571 C 0.03675 0.36148 0.98683 0.0
N2572 N 0.04611 0.44534 0.97117 0.0
N2573 N 0.0401 0.3866 0.99452 0.0
H2574 H 0.06495 0.83182 0.20451 0.0
H2575 H 0.93301 0.78646 0.20632 0.0
H2576 H 0.02008 0.80415 0.1392 0.0
H2577 H 0.98003 0.80895 0.27026 0.0
H2578 H 0.96377 0.79592 0.18127 0.0
H2579 H 0.03334 0.82644 0.22862 0.0
C2580 C 0.04841 0.82471 0.1952 0.0
C2581 C 0.04523 0.81837 0.16975 0.0
C2582 C 0.96731 0.79887 0.2008 0.0
C2583 C 0.00869 0.81204 0.1974 0.0
C2584 C 0.94973 0.79362 0.21512 0.0
C2585 C 0.95391 0.79666 0.24047 0.0
C2586 C 0.98924 0.80742 0.21188 0.0
C2587 C 0.97599 0.80587 0.2508 0.0
C2588 C 0.03031 0.8216 0.20901 0.0
C2589 C 0.02334 0.80925 0.15877 0.0
N2590 N 0.99271 0.81081 0.23653 0.0
N2591 N 0.00594 0.80629 0.17263 0.0
H2592 H 0.53085 0.29456 0.11256 0.0
H2593 H 0.55966 0.43405 0.09255 0.0
H2594 H 0.53239 0.35637 0.17075 0.0
H2595 H 0.57281 0.37175 0.04331 0.0
H2596 H 0.54639 0.40642 0.12042 0.0
H2597 H 0.54274 0.32311 0.08582 0.0
C2598 C 0.53366 0.31421 0.11973 0.0
C2599 C 0.5307 0.32311 0.14396 0.0
C2600 C 0.55225 0.39889 0.10353 0.0
C2601 C 0.54441 0.35607 0.11328 0.0
C2602 C 0.55971 0.41457 0.08761 0.0
C2603 C 0.56745 0.40516 0.06566 0.0
C2604 C 0.5523 0.37362 0.09725 0.0
C2605 C 0.56729 0.37985 0.06017 0.0
C2606 C 0.54053 0.33053 0.10443 0.0
C2607 C 0.53455 0.34877 0.15218 0.0
N2608 N 0.55978 0.365 0.0758 0.0
N2609 N 0.54122 0.36443 0.13683 0.0
H2610 H 0.02857 0.28508 0.34105 0.0
H2611 H 0.97475 0.37076 0.26832 0.0
H2612 H 0.06673 0.34026 0.30682 0.0
H2613 H 0.9362 0.30436 0.28602 0.0
H2614 H 0.00863 0.35857 0.28095 0.0
H2615 H 0.99459 0.2899 0.31936 0.0
C2616 C 0.02984 0.29781 0.32858 0.0
C2617 C 0.05045 0.31248 0.32591 0.0
C2618 C 0.99277 0.34653 0.28188 0.0
C2619 C 0.01172 0.31844 0.30147 0.0
C2620 C 0.97336 0.35345 0.27457 0.0
C2621 C 0.95248 0.33867 0.2762 0.0
C2622 C 0.99141 0.3248 0.29122 0.0
C2623 C 0.95187 0.31664 0.28491 0.0
C2624 C 0.01044 0.30064 0.31628 0.0
C2625 C 0.05116 0.32871 0.30956 0.0
N2626 N 0.97103 0.31049 0.2923 0.0
N2627 N 0.03205 0.33152 0.29824 0.0
H2628 H 0.03362 0.6946 0.67071 0.0
H2629 H 0.99869 0.60486 0.54222 0.0
H2630 H 0.98394 0.70493 0.61836 0.0
H2631 H 0.06518 0.62199 0.57859 0.0
H2632 H 0.98782 0.63336 0.57487 0.0
H2633 H 0.03925 0.65882 0.64205 0.0
C2634 C 0.02352 0.68898 0.65341 0.0
C2635 C 0.00847 0.70284 0.64669 0.0
C2636 C 1.00476 0.6308 0.57563 0.0
C2637 C 0.01488 0.66217 0.61406 0.0
C2638 C 0.0111 0.61477 0.55688 0.0
C2639 C 0.03313 0.6117 0.55719 0.0
C2640 C 0.02042 0.64339 0.59511 0.0
C2641 C 0.04815 0.62417 0.57734 0.0
C2642 C 0.02688 0.66873 0.63706 0.0
C2643 C 0.99583 0.69481 0.62409 0.0
N2644 N 0.04153 0.63957 0.59552 0.0
N2645 N 0.99944 0.67503 0.60842 0.0
H2646 H 0.6847 0.83737 0.88486 0.0
H2647 H 0.75168 0.83186 0.76719 0.0
H2648 H 0.65297 0.81571 0.81149 0.0
H2649 H 0.77891 0.82693 0.83805 0.0
H2650 H 0.71709 0.83848 0.78443 0.0
H2651 H 0.72088 0.84507 0.86883 0.0
C2652 C 0.68536 0.83426 0.86537 0.0
C2653 C 0.66588 0.82543 0.84946 0.0
C2654 C 0.7308 0.83636 0.79624 0.0
C2655 C 0.70711 0.83474 0.83105 0.0
C2656 C 0.75038 0.83253 0.78642 0.0
C2657 C 0.76751 0.82791 0.80118 0.0
C2658 C 0.72878 0.83593 0.82096 0.0
C2659 C 0.76561 0.82966 0.82607 0.0
C2660 C 0.70598 0.8388 0.85625 0.0
C2661 C 0.66765 0.82207 0.82437 0.0
N2662 N 0.74643 0.83324 0.83518 0.0
N2663 N 0.68795 0.82668 0.81591 0.0
H2664 H 0.50201 0.60095 0.7248 0.0
H2665 H 0.50088 0.52829 0.58478 0.0
H2666 H 0.449 0.54089 0.68945 0.0
H2667 H 0.55098 0.5928 0.61675 0.0
H2668 H 0.48271 0.53212 0.62267 0.0
H2669 H 0.5205 0.59787 0.68686 0.0
C2670 C 0.49409 0.58704 0.70922 0.0
C2671 C 0.47349 0.57124 0.71113 0.0
C2672 C 0.4977 0.54552 0.6216 0.0
C2673 C 0.49534 0.5674 0.66624 0.0
C2674 C 0.50828 0.54336 0.59961 0.0
C2675 C 0.528 0.56012 0.59668 0.0
C2676 C 0.50652 0.56465 0.64182 0.0
C2677 C 0.53613 0.57911 0.61743 0.0
C2678 C 0.50482 0.58529 0.68725 0.0
C2679 C 0.46465 0.55369 0.68956 0.0
N2680 N 0.5256 0.58073 0.63862 0.0
N2681 N 0.47543 0.55229 0.66858 0.0
H2682 H 0.76518 0.16532 0.95981 0.0
H2683 H 0.78719 0.31002 0.95785 0.0
H2684 H 0.80433 0.22179 0.01693 0.0
H2685 H 0.75494 0.25294 0.89743 0.0
H2686 H 0.7887 0.2783 0.98236 0.0
H2687 H 0.75755 0.19749 0.93854 0.0
C2688 C 0.77228 0.18449 0.96778 0.0
C2689 C 0.78557 0.19092 0.99002 0.0
C2690 C 0.78101 0.27275 0.96384 0.0
C2691 C 0.77666 0.22781 0.96604 0.0
C2692 C 0.77993 0.29086 0.95 0.0
C2693 C 0.77108 0.28395 0.92564 0.0
C2694 C 0.77316 0.24769 0.95314 0.0
C2695 C 0.76208 0.2589 0.91614 0.0
C2696 C 0.76782 0.20285 0.95572 0.0
C2697 C 0.79416 0.21603 0.99969 0.0
N2698 N 0.76354 0.24163 0.92984 0.0
N2699 N 0.78957 0.23358 0.98762 0.0
H2700 H 0.13516 0.50323 0.20831 0.0
H2701 H 0.13201 0.55815 0.08755 0.0
H2702 H 0.19341 0.5418 0.18138 0.0
H2703 H 0.0758 0.50822 0.10647 0.0
H2704 H 0.15483 0.551 0.12117 0.0
H2705 H 0.11336 0.50289 0.1704 0.0
C2706 C 0.14343 0.51128 0.19425 0.0
C2707 C 0.16607 0.52275 0.19804 0.0
C2708 C 0.13751 0.54156 0.11799 0.0
C2709 C 0.1412 0.52275 0.15484 0.0
C2710 C 0.12436 0.54577 0.09884 0.0
C2711 C 0.10172 0.53426 0.09448 0.0
C2712 C 0.12801 0.52583 0.13311 0.0
C2713 C 0.093 0.51798 0.10948 0.0
C2714 C 0.13097 0.51112 0.17264 0.0
C2715 C 0.17597 0.53285 0.17924 0.0
N2716 N 0.10611 0.51443 0.12829 0.0
N2717 N 0.16341 0.53289 0.15857 0.0
H2718 H 0.8325 0.89831 0.45996 0.0
H2719 H 0.80542 0.77313 0.35933 0.0
H2720 H 0.81578 0.82603 0.47822 0.0
H2721 H 0.81646 0.84617 0.34286 0.0
H2722 H 0.81219 0.79154 0.40295 0.0
H2723 H 0.82978 0.87907 0.41717 0.0
C2724 C 0.82831 0.87834 0.45498 0.0
C2725 C 0.82426 0.86379 0.47277 0.0
C2726 C 0.81337 0.80355 0.3898 0.0
C2727 C 0.82104 0.84148 0.42347 0.0
C2728 C 0.80962 0.79305 0.36498 0.0
C2729 C 0.81105 0.80821 0.3476 0.0
C2730 C 0.81815 0.82942 0.39726 0.0
C2731 C 0.81583 0.83388 0.35573 0.0
C2732 C 0.82674 0.86733 0.43047 0.0
C2733 C 0.81897 0.83797 0.46514 0.0
N2734 N 0.81925 0.84365 0.37991 0.0
N2735 N 0.81744 0.82764 0.44106 0.0
H2736 H 0.50706 0.57446 0.83951 0.0
H2737 H 0.48908 0.54745 0.97608 0.0
H2738 H 0.44401 0.56441 0.86918 0.0
H2739 H 0.55399 0.55724 0.95066 0.0
H2740 H 0.47335 0.55272 0.93682 0.0
H2741 H 0.52473 0.56806 0.878 0.0
C2742 C 0.49675 0.57102 0.85397 0.0
C2743 C 0.4736 0.57024 0.85028 0.0
C2744 C 0.49103 0.55362 0.93946 0.0
C2745 C 0.4944 0.56249 0.89579 0.0
C2746 C 0.50022 0.55046 0.96223 0.0
C2747 C 0.52319 0.55146 0.96755 0.0
C2748 C 0.50454 0.55824 0.92068 0.0
C2749 C 0.53623 0.55583 0.94806 0.0
C2750 C 0.50703 0.56727 0.87624 0.0
C2751 C 0.46175 0.56544 0.87044 0.0
N2752 N 0.52685 0.55902 0.92594 0.0
N2753 N 0.47207 0.56186 0.89171 0.0
H2754 H 0.79168 0.14539 0.12038 0.0
H2755 H 0.80911 0.28366 0.19313 0.0
H2756 H 0.82549 0.20867 0.0935 0.0
H2757 H 0.79382 0.22036 0.22751 0.0
H2758 H 0.81259 0.2562 0.1554 0.0
H2759 H 0.79109 0.17225 0.15952 0.0
C2760 C 0.79934 0.16485 0.12288 0.0
C2761 C 0.80857 0.17486 0.1037 0.0
C2762 C 0.80855 0.24835 0.17125 0.0
C2763 C 0.80743 0.2057 0.14805 0.0
C2764 C 0.80653 0.26401 0.19277 0.0
C2765 C 0.8018 0.25438 0.21368 0.0
C2766 C 0.80532 0.22282 0.17052 0.0
C2767 C 0.79788 0.22867 0.21195 0.0
C2768 C 0.79888 0.18018 0.14514 0.0
C2769 C 0.8182 0.2002 0.10783 0.0
N2770 N 0.79979 0.21377 0.19075 0.0
N2771 N 0.81713 0.21482 0.12948 0.0
H2772 H 0.18624 0.58114 0.34776 0.0
H2773 H 0.06244 0.58605 0.37931 0.0
H2774 H 0.12771 0.54327 0.29953 0.0
H2775 H 0.1206 0.63704 0.41825 0.0
H2776 H 0.08627 0.56664 0.35241 0.0
H2777 H 0.16249 0.59804 0.37663 0.0
C2778 C 0.16838 0.5762 0.34337 0.0
C2779 C 0.15888 0.56089 0.32123 0.0
C2780 C 0.09382 0.58211 0.3668 0.0
C2781 C 0.13172 0.58017 0.354 0.0
C2782 C 0.08025 0.59313 0.38216 0.0
C2783 C 0.0896 0.61323 0.40089 0.0
C2784 C 0.11692 0.59113 0.37033 0.0
C2785 C 0.11274 0.62179 0.40379 0.0
C2786 C 0.15486 0.58595 0.35977 0.0
C2787 C 0.13568 0.5551 0.31638 0.0
N2788 N 0.12565 0.61064 0.38868 0.0
N2789 N 0.12288 0.5648 0.33263 0.0
H2790 H 0.80307 0.83054 0.5905 0.0
H2791 H 0.82205 0.86063 0.73641 0.0
H2792 H 0.8298 0.90339 0.63302 0.0
H2793 H 0.79289 0.78822 0.69456 0.0
H2794 H 0.82499 0.87657 0.6987 0.0
H2795 H 0.79896 0.81454 0.62826 0.0
C2796 C 0.80806 0.84316 0.60775 0.0
C2797 C 0.81681 0.86834 0.60856 0.0
C2798 C 0.81779 0.8572 0.69774 0.0
C2799 C 0.81219 0.85018 0.6519 0.0
C2800 C 0.81621 0.84806 0.71932 0.0
C2801 C 0.807 0.82305 0.71877 0.0
C2802 C 0.81026 0.84118 0.6753 0.0
C2803 C 0.79952 0.80772 0.696 0.0
C2804 C 0.8057 0.83404 0.62932 0.0
C2805 C 0.82298 0.88384 0.63147 0.0
N2806 N 0.80137 0.81697 0.67523 0.0
N2807 N 0.82059 0.87453 0.65214 0.0
H2808 H 0.7522 0.46078 0.55682 0.0
H2809 H 0.73073 0.59666 0.56583 0.0
H2810 H 0.80518 0.52414 0.55813 0.0
H2811 H 0.68343 0.536 0.58304 0.0
H2812 H 0.75862 0.57111 0.5634 0.0
H2813 H 0.72669 0.48838 0.56598 0.0
C2814 C 0.75846 0.48053 0.55909 0.0
C2815 C 0.78077 0.49021 0.55661 0.0
C2816 C 0.74219 0.56351 0.56794 0.0
C2817 C 0.7517 0.52193 0.56703 0.0
C2818 C 0.72632 0.57813 0.56947 0.0
C2819 C 0.70463 0.56831 0.57428 0.0
C2820 C 0.73624 0.53892 0.57111 0.0
C2821 C 0.69979 0.54412 0.5787 0.0
C2822 C 0.74393 0.49629 0.56443 0.0
C2823 C 0.78806 0.51595 0.55986 0.0
N2824 N 0.71537 0.53019 0.57674 0.0
N2825 N 0.7735 0.53095 0.56471 0.0
H2826 H 0.22135 0.17904 0.52737 0.0
H2827 H 0.12819 0.05495 0.48457 0.0
H2828 H 0.23635 0.11129 0.4902 0.0
H2829 H 0.12253 0.11412 0.54266 0.0
H2830 H 0.16587 0.07726 0.48079 0.0
H2831 H 0.1828 0.15741 0.52721 0.0
C2832 C 0.21649 0.15964 0.51904 0.0
C2833 C 0.23207 0.14688 0.50892 0.0
C2834 C 0.15629 0.08527 0.49433 0.0
C2835 C 0.18798 0.12206 0.50857 0.0
C2836 C 0.13482 0.07252 0.49656 0.0
C2837 C 0.12226 0.08238 0.51428 0.0
C2838 C 0.16505 0.10824 0.50959 0.0
C2839 C 0.13158 0.10559 0.52889 0.0
C2840 C 0.19451 0.14729 0.51901 0.0
C2841 C 0.22486 0.12175 0.49833 0.0
N2842 N 0.15236 0.11768 0.52622 0.0
N2843 N 0.2033 0.11012 0.49843 0.0
H2844 H 0.19579 0.93048 0.74502 0.0
H2845 H 0.28984 0.86954 0.80774 0.0
H2846 H 0.24106 0.97178 0.80627 0.0
H2847 H 0.25364 0.83738 0.73799 0.0
H2848 H 0.27206 0.90555 0.80912 0.0
H2849 H 0.21533 0.89611 0.74383 0.0
C2850 C 0.20978 0.9326 0.75838 0.0
C2851 C 0.21629 0.955 0.77577 0.0
C2852 C 0.26811 0.89082 0.79329 0.0
C2853 C 0.23955 0.91391 0.77464 0.0
C2854 C 0.27865 0.87003 0.79234 0.0
C2855 C 0.27441 0.84991 0.77215 0.0
C2856 C 0.25224 0.89201 0.77431 0.0
C2857 C 0.25838 0.85213 0.75375 0.0
C2858 C 0.22114 0.9126 0.75764 0.0
C2859 C 0.23494 0.95547 0.79233 0.0
N2860 N 0.24822 0.87215 0.75529 0.0
N2861 N 0.24551 0.93571 0.79141 0.0
H2862 H 0.39534 0.92773 0.01465 0.0
H2863 H 0.49342 0.04663 0.03006 0.0
H2864 H 0.38531 1.00233 0.03095 0.0
H2865 H 0.50164 0.97263 1.0038 0.0
H2866 H 0.45347 0.03105 0.02833 0.0
H2867 H 0.43393 0.94386 1.0086 0.0
C2868 C 0.40127 0.94752 0.01687 0.0
C2869 C 0.38724 0.96376 0.02355 0.0
C2870 C 0.46392 0.01821 0.02262 0.0
C2871 C 0.43134 0.98235 0.01673 0.0
C2872 C 0.48673 0.02716 0.02342 0.0
C2873 C 0.50068 1.01092 0.01645 0.0
C2874 C 0.45512 0.99275 0.01541 0.0
C2875 C 0.49128 0.98571 0.00898 0.0
C2876 C 0.42328 0.95672 0.01333 0.0
C2877 C 0.39567 0.9892 0.02596 0.0
N2878 N 0.46904 0.97735 0.00871 0.0
N2879 N 0.41727 0.99775 0.02275 0.0
H2880 H 0.91471 0.60175 0.75404 0.0
H2881 H 0.79881 0.643 0.76828 0.0
H2882 H 0.8705 0.58132 0.80718 0.0
H2883 H 0.84055 0.65941 0.71186 0.0
H2884 H 0.82574 0.62177 0.78385 0.0
H2885 H 0.88895 0.62523 0.73991 0.0
C2886 C 0.89968 0.60242 0.76289 0.0
C2887 C 0.89463 0.58952 0.78172 0.0
C2888 C 0.82902 0.62995 0.76803 0.0
C2889 C 0.86504 0.61604 0.76551 0.0
C2890 C 0.81366 0.64206 0.75916 0.0
C2891 C 0.81752 0.65295 0.73878 0.0
C2892 C 0.84841 0.62875 0.75648 0.0
C2893 C 0.83688 0.65101 0.72747 0.0
C2894 C 0.88493 0.61571 0.75474 0.0
C2895 C 0.87497 0.59098 0.79256 0.0
N2896 N 0.85168 0.6392 0.73653 0.0
N2897 N 0.86081 0.6039 0.78421 0.0
H2898 H 0.82346 0.60759 0.01933 0.0
H2899 H 0.95044 0.60979 0.06151 0.0
H2900 H 0.87422 0.67464 0.0373 0.0
H2901 H 0.89892 0.5434 0.04259 0.0
H2902 H 0.92338 0.63386 0.05169 0.0
H2903 H 0.85134 0.58389 0.02679 0.0
C2904 C 0.84052 0.61735 0.02476 0.0
C2905 C 0.8465 0.64317 0.02772 0.0
C2906 C 0.91801 0.61402 0.04966 0.0
C2907 C 0.87864 0.61604 0.03644 0.0
C2908 C 0.93349 0.60022 0.05514 0.0
C2909 C 0.927 0.57446 0.05298 0.0
C2910 C 0.89582 0.60203 0.0419 0.0
C2911 C 0.90469 0.56321 0.04494 0.0
C2912 C 0.85646 0.60378 0.02905 0.0
C2913 C 0.86888 0.65476 0.03479 0.0
N2914 N 0.88997 0.57703 0.03973 0.0
N2915 N 0.88413 0.64113 0.03898 0.0
H2916 H 0.25301 0.08687 0.7897 0.0
H2917 H 0.24733 0.22389 0.76672 0.0
H2918 H 0.19172 0.10937 0.77502 0.0
H2919 H 0.3069 0.20821 0.79834 0.0
H2920 H 0.22769 0.18159 0.76713 0.0
H2921 H 0.27353 0.12952 0.79035 0.0
C2922 C 0.24376 0.10064 0.78659 0.0
C2923 C 0.22032 0.09398 0.78235 0.0
C2924 C 0.24509 0.18726 0.77396 0.0
C2925 C 0.24417 0.14369 0.7828 0.0
C2926 C 0.2565 0.2117 0.77374 0.0
C2927 C 0.27925 0.22033 0.78236 0.0
C2928 C 0.25621 0.17043 0.78263 0.0
C2929 C 0.28964 0.2029 0.7912 0.0
C2930 C 0.25559 0.12519 0.787 0.0
C2931 C 0.20964 0.11318 0.77846 0.0
N2932 N 0.27823 0.17911 0.79097 0.0
N2933 N 0.22149 0.1367 0.77865 0.0
H2934 H 0.38437 0.9769 0.24965 0.0
H2935 H 0.36179 0.84721 0.29349 0.0
H2936 H 0.41432 0.96426 0.31638 0.0
H2937 H 0.32701 0.85917 0.22934 0.0
H2938 H 0.38368 0.88932 0.29983 0.0
H2939 H 0.36507 0.93329 0.23992 0.0
C2940 C 0.38686 0.96495 0.26223 0.0
C2941 C 0.40089 0.97417 0.28387 0.0
C2942 C 0.37126 0.88285 0.28436 0.0
C2943 C 0.37903 0.92449 0.27289 0.0
C2944 C 0.35868 0.85887 0.28085 0.0
C2945 C 0.34202 0.85024 0.26146 0.0
C2946 C 0.3672 0.89828 0.26828 0.0
C2947 C 0.33931 0.86557 0.24492 0.0
C2948 C 0.37589 0.94011 0.25667 0.0
C2949 C 0.40362 0.95794 0.29951 0.0
N2950 N 0.35158 0.88909 0.2489 0.0
N2951 N 0.39276 0.93393 0.29373 0.0
H2952 H 0.58751 0.36735 0.55729 0.0
H2953 H 0.57056 0.50682 0.59484 0.0
H2954 H 0.60019 0.41085 0.62983 0.0
H2955 H 0.57694 0.47682 0.52028 0.0
H2956 H 0.57676 0.4689 0.6064 0.0
H2957 H 0.57997 0.40391 0.54212 0.0
C2958 C 0.58882 0.38451 0.57006 0.0
C2959 C 0.59464 0.38577 0.59502 0.0
C2960 C 0.57673 0.47031 0.58744 0.0
C2961 C 0.58561 0.42786 0.57766 0.0
C2962 C 0.57306 0.49209 0.58073 0.0
C2963 C 0.57297 0.49526 0.55645 0.0
C2964 C 0.58052 0.45089 0.56989 0.0
C2965 C 0.57651 0.47527 0.53917 0.0
C2966 C 0.58449 0.40543 0.56133 0.0
C2967 C 0.5959 0.4087 0.61049 0.0
N2968 N 0.5801 0.45399 0.54619 0.0
N2969 N 0.59135 0.42847 0.60166 0.0
H2970 H 0.47287 0.75107 0.35877 0.0
H2971 H 0.37388 0.82244 0.34888 0.0
H2972 H 0.45558 0.79805 0.42063 0.0
H2973 H 0.37607 0.75595 0.29845 0.0
H2974 H 0.40575 0.81674 0.37362 0.0
H2975 H 0.43967 0.75523 0.33487 0.0
C2976 C 0.46204 0.76214 0.36741 0.0
C2977 C 0.46708 0.77408 0.39189 0.0
C2978 C 0.39914 0.80327 0.35724 0.0
C2979 C 0.42905 0.77942 0.36427 0.0
C2980 C 0.38072 0.80641 0.34311 0.0
C2981 C 0.37151 0.78929 0.32175 0.0
C2982 C 0.40906 0.78314 0.34979 0.0
C2983 C 0.38212 0.76951 0.31487 0.0
C2984 C 0.44304 0.76453 0.35371 0.0
C2985 C 0.45235 0.78832 0.40194 0.0
N2986 N 0.40024 0.76707 0.32871 0.0
N2987 N 0.43422 0.79076 0.38809 0.0
H2988 H 0.09294 0.74638 0.06118 0.0
H2989 H 0.08135 0.61607 0.10482 0.0
H2990 H 0.08702 0.73589 0.13483 0.0
H2991 H 0.06802 0.6189 0.02941 0.0
H2992 H 0.08875 0.66106 0.11491 0.0
H2993 H 0.08834 0.70116 0.04803 0.0
C2994 C 0.09068 0.73467 0.07457 0.0
C2995 C 0.0903 0.74514 0.0992 0.0
C2996 C 0.08439 0.65202 0.09608 0.0
C2997 C 0.08531 0.69339 0.0843 0.0
C2998 C 0.08027 0.62624 0.09028 0.0
C2999 C 0.07439 0.6136 0.0662 0.0
C3000 C 0.08245 0.66574 0.07774 0.0
C3001 C 0.07295 0.62787 0.04817 0.0
C3002 C 0.08803 0.70885 0.06704 0.0
C3003 C 0.08735 0.7289 0.11567 0.0
N3004 N 0.07694 0.65317 0.05429 0.0
N3005 N 0.08508 0.70413 0.10798 0.0
H3006 H 0.10581 0.29311 0.92096 0.0
H3007 H 0.14194 0.272 0.78515 0.0
H3008 H 0.06052 0.2606 0.85672 0.0
H3009 H 0.18871 0.30747 0.84751 0.0
H3010 H 0.1126 0.26557 0.81192 0.0
H3011 H 0.13683 0.29661 0.89538 0.0
C3012 C 0.10239 0.28659 0.90152 0.0
C3013 C 0.08047 0.27659 0.891 0.0
C3014 C 0.12926 0.27471 0.81987 0.0
C3015 C 0.11591 0.28054 0.86159 0.0
C3016 C 0.14608 0.27847 0.80453 0.0
C3017 C 0.16788 0.2906 0.81398 0.0
C3018 C 0.13404 0.28311 0.84507 0.0
C3019 C 0.1722 0.298 0.83937 0.0
C3020 C 0.12011 0.28862 0.88692 0.0
C3021 C 0.07708 0.26849 0.86568 0.0
N3022 N 0.15542 0.29432 0.854 0.0
N3023 N 0.09452 0.27068 0.85194 0.0
H3024 H 0.58341 0.73747 0.8998 0.0
H3025 H 0.58873 0.73001 0.04106 0.0
H3026 H 0.60727 0.8009 0.95733 0.0
H3027 H 0.55138 0.67168 0.98431 0.0
H3028 H 0.59832 0.75545 0.01057 0.0
H3029 H 0.57491 0.71182 0.93044 0.0
C3030 C 0.58702 0.74594 0.91886 0.0
C3031 C 0.596 0.77133 0.92604 0.0
C3032 C 0.58802 0.73707 1.00483 0.0
C3033 C 0.58628 0.74221 0.96116 0.0
C3034 C 0.5824 0.72259 0.02226 0.0
C3035 C 0.56931 0.69856 0.01531 0.0
C3036 C 0.58058 0.72746 0.98023 0.0
C3037 C 0.56188 0.68987 0.99054 0.0
C3038 C 0.58207 0.73135 0.93634 0.0
C3039 C 0.60029 0.7814 0.95099 0.0
N3040 N 0.56767 0.70425 0.97394 0.0
N3041 N 0.59539 0.76683 0.96764 0.0
H3042 H 0.08029 0.74414 0.69312 0.0
H3043 H 0.18034 0.77912 0.79266 0.0
H3044 H 0.07662 0.79874 0.75628 0.0
H3045 H 0.15125 0.70303 0.76101 0.0
H3046 H 0.14658 0.79094 0.77724 0.0
H3047 H 0.1113 0.73328 0.71443 0.0
C3048 C 0.0862 0.75409 0.71142 0.0
C3049 C 0.07596 0.77249 0.72294 0.0
C3050 C 0.14752 0.77165 0.77411 0.0
C3051 C 0.11155 0.76008 0.74734 0.0
C3052 C 0.16668 0.76492 0.78279 0.0
C3053 C 0.16842 0.74008 0.77805 0.0
C3054 C 0.13045 0.75346 0.76003 0.0
C3055 C 0.15043 0.72233 0.76513 0.0
C3056 C 0.10374 0.74767 0.72362 0.0
C3057 C 0.08414 0.78449 0.7468 0.0
N3058 N 0.13233 0.72942 0.75616 0.0
N3059 N 0.10174 0.77827 0.75822 0.0
H3060 H 0.05954 0.38568 0.39237 0.0
H3061 H 0.1059 0.51712 0.47156 0.0
H3062 H 0.12966 0.41293 0.41426 0.0
H3063 H 0.04417 0.49979 0.42549 0.0
H3064 H 0.11586 0.4803 0.44957 0.0
H3065 H 0.05369 0.42762 0.40401 0.0
C3066 C 0.07371 0.40053 0.39966 0.0
C3067 C 0.09507 0.39588 0.40272 0.0
C3068 C 0.10025 0.48469 0.44403 0.0
C3069 C 0.08852 0.44381 0.41591 0.0
C3070 C 0.09447 0.50565 0.4567 0.0
C3071 C 0.07364 0.51085 0.45121 0.0
C3072 C 0.08498 0.46866 0.42587 0.0
C3073 C 0.05999 0.49597 0.43102 0.0
C3074 C 0.07039 0.42448 0.40603 0.0
C3075 C 0.1129 0.41578 0.41186 0.0
N3076 N 0.06563 0.4751 0.41945 0.0
N3077 N 0.10918 0.43891 0.41847 0.0
H3078 H 0.43829 0.2833 0.18193 0.0
H3079 H 0.35346 0.25432 0.27916 0.0
H3080 H 0.45854 0.26121 0.24808 0.0
H3081 H 0.33347 0.25331 0.20418 0.0
H3082 H 0.39212 0.25754 0.26954 0.0
H3083 H 0.39998 0.27546 0.19184 0.0
C3084 C 0.4347 0.27698 0.19868 0.0
C3085 C 0.45161 0.27282 0.21418 0.0
C3086 C 0.37925 0.25647 0.25518 0.0
C3087 C 0.40765 0.26345 0.22546 0.0
C3088 C 0.3573 0.25489 0.26071 0.0
C3089 C 0.34067 0.25491 0.24264 0.0
C3090 C 0.38437 0.25824 0.23147 0.0
C3091 C 0.34606 0.25408 0.21874 0.0
C3092 C 0.41277 0.27225 0.20419 0.0
C3093 C 0.44596 0.26462 0.23563 0.0
N3094 N 0.36757 0.25637 0.21392 0.0
N3095 N 0.42439 0.26021 0.24069 0.0
H3096 H 0.67005 0.55365 0.36407 0.0
H3097 H 0.56839 0.50053 0.44059 0.0
H3098 H 0.61749 0.49133 0.33281 0.0
H3099 H 0.61822 0.56638 0.46902 0.0
H3100 H 0.58601 0.49622 0.40225 0.0
H3101 H 0.65205 0.55773 0.40214 0.0
C3102 C 0.65472 0.54067 0.36497 0.0
C3103 C 0.64567 0.52203 0.34434 0.0
C3104 C 0.59319 0.51169 0.41677 0.0
C3105 C 0.62427 0.52672 0.38952 0.0
C3106 C 0.58295 0.51427 0.43902 0.0
C3107 C 0.59131 0.53406 0.45893 0.0
C3108 C 0.61248 0.52886 0.41357 0.0
C3109 C 0.61071 0.55074 0.45482 0.0
C3110 C 0.64431 0.54309 0.38707 0.0
C3111 C 0.62551 0.50608 0.34764 0.0
N3112 N 0.62036 0.54777 0.43313 0.0
N3113 N 0.61578 0.50875 0.36933 0.0
H3114 H 0.31888 0.86856 0.08098 0.0
H3115 H 0.38361 0.88733 0.21272 0.0
H3116 H 0.35387 0.94022 0.12044 0.0
H3117 H 0.36589 0.81765 0.16209 0.0
H3118 H 0.36968 0.90747 0.18151 0.0
H3119 H 0.33177 0.84983 0.11364 0.0
C3120 C 0.32911 0.88037 0.09664 0.0
C3121 C 0.33542 0.90594 0.09798 0.0
C3122 C 0.36892 0.88778 0.1773 0.0
C3123 C 0.35035 0.88465 0.13534 0.0
C3124 C 0.37698 0.8763 0.19503 0.0
C3125 C 0.37574 0.8507 0.19011 0.0
C3126 C 0.35948 0.87351 0.1546 0.0
C3127 C 0.36678 0.83732 0.16691 0.0
C3128 C 0.33658 0.86967 0.1152 0.0
C3129 C 0.34871 0.92039 0.11869 0.0
N3130 N 0.3589 0.84884 0.15012 0.0
N3131 N 0.3558 0.90954 0.13659 0.0
H3132 H 0.93651 0.53696 0.88273 0.0
H3133 H 0.05343 0.58557 0.96362 0.0
H3134 H 0.99423 0.57861 0.85751 0.0
H3135 H 0.99914 0.53112 0.97968 0.0
H3136 H 0.03068 0.58862 0.92753 0.0
H3137 H 0.95777 0.54087 0.92173 0.0
C3138 C 0.95361 0.54717 0.88551 0.0
C3139 C 0.96372 0.55725 0.86682 0.0
C3140 C 0.02381 0.57605 0.93902 0.0
C3141 C 0.98822 0.56161 0.91131 0.0
C3142 C 0.03685 0.57413 0.9595 0.0
C3143 C 0.02843 0.55761 0.9744 0.0
C3144 C 1.00214 0.56157 0.93365 0.0
C3145 C 0.0065 0.54391 0.96864 0.0
C3146 C 0.96577 0.54932 0.90774 0.0
C3147 C 0.98588 0.57042 0.87144 0.0
N3148 N 0.99419 0.54614 0.9487 0.0
N3149 N 0.99749 0.57205 0.89321 0.0
H3150 H 0.29131 0.18238 0.59756 0.0
H3151 H 0.31353 0.30161 0.70509 0.0
H3152 H 0.30833 0.25613 0.58282 0.0
H3153 H 0.29973 0.22575 0.71391 0.0
H3154 H 0.30804 0.28713 0.66045 0.0
H3155 H 0.2909 0.19949 0.6401 0.0
C3156 C 0.29503 0.20229 0.60329 0.0
C3157 C 0.30008 0.2178 0.58652 0.0
C3158 C 0.30591 0.27374 0.67223 0.0
C3159 C 0.29973 0.23785 0.63594 0.0
C3160 C 0.30883 0.282 0.69762 0.0
C3161 C 0.30675 0.26479 0.71311 0.0
C3162 C 0.30106 0.24819 0.66252 0.0
C3163 C 0.3013 0.23961 0.70261 0.0
C3164 C 0.29474 0.21213 0.62774 0.0
C3165 C 0.30448 0.24349 0.59517 0.0
N3166 N 0.29868 0.23215 0.67815 0.0
N3167 N 0.30437 0.25277 0.61937 0.0
H3168 H 0.67399 0.52184 0.18463 0.0
H3169 H 0.56203 0.53281 0.10385 0.0
H3170 H 0.61139 0.51799 0.21497 0.0
H3171 H 0.62602 0.53456 0.07714 0.0
H3172 H 0.57844 0.52863 0.1441 0.0
H3173 H 0.65617 0.52706 0.14608 0.0
C3174 C 0.65645 0.52197 0.18342 0.0
C3175 C 0.64459 0.51922 0.20396 0.0
C3176 C 0.58899 0.53004 0.1295 0.0
C3177 C 0.62326 0.52562 0.15811 0.0
C3178 C 0.57952 0.53263 0.10624 0.0
C3179 C 0.59241 0.53444 0.08626 0.0
C3180 C 0.61177 0.52899 0.13349 0.0
C3181 C 0.61505 0.53351 0.0914 0.0
C3182 C 0.64612 0.52506 0.16102 0.0
C3183 C 0.62166 0.51984 0.20019 0.0
N3184 N 0.62369 0.53093 0.11385 0.0
N3185 N 0.612 0.52291 0.17822 0.0
H3186 H 0.3098 0.92787 0.95008 0.0
H3187 H 0.31225 0.79805 0.86607 0.0
H3188 H 0.30443 0.85995 0.977 0.0
H3189 H 0.32304 0.86733 0.8411 0.0
H3190 H 0.30709 0.81978 0.90624 0.0
H3191 H 0.31139 0.90517 0.9092 0.0
C3192 C 0.30863 0.9081 0.94732 0.0
C3193 C 0.30708 0.89578 0.96697 0.0
C3194 C 0.31068 0.83025 0.89201 0.0
C3195 C 0.30924 0.86975 0.92029 0.0
C3196 C 0.31368 0.81786 0.86907 0.0
C3197 C 0.31803 0.83087 0.85016 0.0
C3198 C 0.31215 0.85588 0.89612 0.0
C3199 C 0.31983 0.85654 0.85514 0.0
C3200 C 0.30969 0.89518 0.924 0.0
C3201 C 0.30566 0.87017 0.96235 0.0
N3202 N 0.31681 0.86818 0.87761 0.0
N3203 N 0.30693 0.85802 0.93951 0.0
H3204 H 0.94718 0.49747 0.71877 0.0
H3205 H 0.05667 0.5486 0.66016 0.0
H3206 H 1.00071 0.5548 0.75866 0.0
H3207 H 0.01414 0.47713 0.63192 0.0
H3208 H 0.03543 0.55264 0.69551 0.0
H3209 H 0.97045 0.4911 0.68559 0.0
C3210 C 0.96387 0.50868 0.72054 0.0
C3211 C 0.97207 0.52675 0.74139 0.0
C3212 C 0.03087 0.53599 0.68169 0.0
C3213 C 0.99867 0.51964 0.70355 0.0
C3214 C 0.0429 0.53373 0.66153 0.0
C3215 C 0.03705 0.51253 0.6432 0.0
C3216 C 0.01268 0.51706 0.68328 0.0
C3217 C 0.01921 0.49369 0.6458 0.0
C3218 C 0.97716 0.50496 0.70166 0.0
C3219 C 0.9938 0.54069 0.74285 0.0
N3220 N 0.00749 0.4965 0.66539 0.0
N3221 N 0.00633 0.53698 0.72405 0.0
H3222 H 0.26743 0.1898 0.43495 0.0
H3223 H 0.33742 0.24953 0.33807 0.0
H3224 H 0.33484 0.23111 0.45469 0.0
H3225 H 0.26674 0.24445 0.33797 0.0
H3226 H 0.33782 0.23613 0.3773 0.0
H3227 H 0.26791 0.20299 0.39575 0.0
C3228 C 0.28236 0.20168 0.43104 0.0
C3229 C 0.3011 0.20948 0.44819 0.0
C3230 C 0.32229 0.23809 0.36867 0.0
C3231 C 0.30185 0.22428 0.40307 0.0
C3232 C 0.32204 0.24591 0.34636 0.0
C3233 C 0.30213 0.24892 0.33497 0.0
C3234 C 0.30237 0.2325 0.37934 0.0
C3235 C 0.28254 0.2427 0.3461 0.0
C3236 C 0.28258 0.20922 0.40867 0.0
C3237 C 0.31998 0.22484 0.44207 0.0
N3238 N 0.28315 0.23474 0.36758 0.0
N3239 N 0.31996 0.23159 0.41991 0.0
H3240 H 0.35876 0.6305 0.49984 0.0
H3241 H 0.38895 0.49994 0.50687 0.0
H3242 H 0.31259 0.57001 0.51884 0.0
H3243 H 0.43171 0.55903 0.4817 0.0
H3244 H 0.36038 0.52459 0.51079 0.0
H3245 H 0.38562 0.60422 0.49324 0.0
C3246 C 0.35429 0.61167 0.50266 0.0
C3247 C 0.33344 0.60244 0.50995 0.0
C3248 C 0.37599 0.53209 0.50431 0.0
C3249 C 0.36414 0.57213 0.50238 0.0
C3250 C 0.39224 0.51796 0.50193 0.0
C3251 C 0.41284 0.52752 0.49416 0.0
C3252 C 0.38039 0.55593 0.4989 0.0
C3253 C 0.41626 0.5511 0.48821 0.0
C3254 C 0.36962 0.59662 0.49882 0.0
C3255 C 0.32851 0.57786 0.51326 0.0
N3256 N 0.40028 0.56449 0.49082 0.0
N3257 N 0.34378 0.56355 0.5095 0.0
H3258 H 0.90533 0.90622 0.54024 0.0
H3259 H 0.99072 0.03719 0.57439 0.0
H3260 H 0.88442 0.97366 0.56774 0.0
H3261 H 1.0007 0.976 0.52115 0.0
H3262 H 0.95413 0.01274 0.57927 0.0
H3263 H 0.94319 0.93022 0.54071 0.0
C3264 C 0.90876 0.92604 0.5466 0.0
C3265 C 0.89171 0.938 0.55378 0.0
C3266 C 0.96444 1.00477 0.56658 0.0
C3267 C 0.93493 0.96552 0.55448 0.0
C3268 C 0.98529 0.01872 0.56373 0.0
C3269 C 0.9987 1.00889 0.54699 0.0
C3270 C 0.95724 0.98065 0.55299 0.0
C3271 C 0.99092 0.98457 0.53406 0.0
C3272 C 0.93032 0.93973 0.54678 0.0
C3273 C 0.89708 0.96375 0.56187 0.0
N3274 N 0.97077 0.97133 0.53735 0.0
N3275 N 0.91824 0.97668 0.56199 0.0
H3276 H 0.92879 0.16612 0.30745 0.0
H3277 H 0.82094 0.21755 0.2606 0.0
H3278 H 0.8731 0.1177 0.26211 0.0
H3279 H 0.87597 0.26231 0.30949 0.0
H3280 H 0.83813 0.18127 0.26099 0.0
H3281 H 0.90941 0.20054 0.30816 0.0
C3282 C 0.9125 0.16242 0.29755 0.0
C3283 C 0.90309 0.13805 0.28471 0.0
C3284 C 0.84637 0.1989 0.27204 0.0
C3285 C 0.87984 0.17911 0.28541 0.0
C3286 C 0.83621 0.21991 0.2721 0.0
C3287 C 0.84606 0.24378 0.28596 0.0
C3288 C 0.86723 0.20106 0.28548 0.0
C3289 C 0.86683 0.24472 0.29912 0.0
C3290 C 0.90123 0.18246 0.298 0.0
C3291 C 0.88157 0.13561 0.27241 0.0
N3292 N 0.87634 0.22433 0.29857 0.0
N3293 N 0.87103 0.15538 0.27305 0.0
H3294 H 0.7192 0.15106 0.05525 0.0
H3295 H 0.60758 0.05633 0.99544 0.0
H3296 H 0.71786 0.08452 1.003 0.0
H3297 H 0.60838 0.1298 0.034 0.0
H3298 H 0.64792 0.06564 0.99953 0.0
H3299 H 0.67863 0.14253 0.04998 0.0
C3300 C 0.71035 0.13458 0.04274 0.0
C3301 C 0.72186 0.11845 0.02949 0.0
C3302 C 0.63937 0.07978 1.00714 0.0
C3303 C 0.67554 0.10878 0.02325 0.0
C3304 C 0.61629 0.07433 1.00516 0.0
C3305 C 0.60475 0.09192 0.01559 0.0
C3306 C 0.65101 0.10312 0.01949 0.0
C3307 C 0.61683 0.11557 0.02637 0.0
C3308 C 0.68722 0.12985 0.03964 0.0
C3309 C 0.70961 0.09742 0.01355 0.0
N3310 N 0.63943 0.12042 0.02841 0.0
N3311 N 0.68707 0.09317 0.01088 0.0
H3312 H 0.25912 0.49525 0.26611 0.0
H3313 H 0.24961 0.38579 0.34092 0.0
H3314 H 0.19993 0.4652 0.29729 0.0
H3315 H 0.30934 0.41541 0.31045 0.0
H3316 H 0.23021 0.41237 0.32183 0.0
H3317 H 0.27693 0.4638 0.27891 0.0
C3318 C 0.24982 0.4819 0.27546 0.0
C3319 C 0.2281 0.48292 0.28082 0.0
C3320 C 0.24753 0.41302 0.3192 0.0
C3321 C 0.24832 0.44703 0.29557 0.0
C3322 C 0.25863 0.39794 0.3302 0.0
C3323 C 0.28118 0.39871 0.32753 0.0
C3324 C 0.2591 0.42914 0.30555 0.0
C3325 C 0.29195 0.41432 0.31298 0.0
C3326 C 0.25999 0.46398 0.28278 0.0
C3327 C 0.21677 0.46517 0.29292 0.0
N3328 N 0.28086 0.42911 0.30271 0.0
N3329 N 0.22705 0.44807 0.30001 0.0
H3330 H 0.24331 0.38783 0.02547 0.0
H3331 H 0.19596 0.50951 0.01992 0.0
H3332 H 0.28381 0.46169 0.04417 0.0
H3333 H 0.15664 0.43526 0.99826 0.0
H3334 H 0.22758 0.49266 0.03211 0.0
H3335 H 0.21077 0.40513 0.01831 0.0
C3336 C 0.24533 0.40771 0.02819 0.0
C3337 C 0.26632 0.42334 0.03533 0.0
C3338 C 0.212 0.48006 0.0248 0.0
C3339 C 0.22911 0.44333 0.02711 0.0
C3340 C 0.19388 0.48968 0.01799 0.0
C3341 C 0.17362 0.47378 1.00788 0.0
C3342 C 0.20986 0.45434 0.02155 0.0
C3343 C 0.17202 0.44822 1.00557 0.0
C3344 C 0.22674 0.41759 0.02408 0.0
C3345 C 0.26795 0.44896 0.03861 0.0
N3346 N 0.18989 0.43932 0.01225 0.0
N3347 N 0.24961 0.45815 0.03439 0.0
H3348 H 0.86744 1.00816 0.28417 0.0
H3349 H 0.87561 0.86542 0.28153 0.0
H3350 H 0.92781 0.9817 0.2759 0.0
H3351 H 0.81316 0.88841 0.28294 0.0
H3352 H 0.89454 0.90785 0.28064 0.0
H3353 H 0.84739 0.96564 0.28478 0.0
C3354 C 0.87658 0.99353 0.28243 0.0
C3355 C 0.89961 0.99908 0.2799 0.0
C3356 C 0.87669 0.90378 0.28115 0.0
C3357 C 0.87635 0.94943 0.28078 0.0
C3358 C 0.86571 0.87927 0.2817 0.0
C3359 C 0.84242 0.87263 0.28234 0.0
C3360 C 0.86467 0.92263 0.28134 0.0
C3361 C 0.83101 0.89212 0.28248 0.0
C3362 C 0.86502 0.96905 0.28279 0.0
C3363 C 0.91018 0.97881 0.27781 0.0
N3364 N 0.84212 0.91589 0.28204 0.0
N3365 N 0.89864 0.95532 0.27835 0.0
H3366 H 0.76179 0.09762 0.77989 0.0
H3367 H 0.73966 0.23223 0.78097 0.0
H3368 H 0.70278 0.1116 0.74474 0.0
H3369 H 0.80602 0.22009 0.79112 0.0
H3370 H 0.72522 0.18758 0.77227 0.0
H3371 H 0.77825 0.14215 0.78743 0.0
C3372 C 0.75239 0.11002 0.77364 0.0
C3373 C 0.73086 0.10098 0.76181 0.0
C3374 C 0.74297 0.19462 0.77621 0.0
C3375 C 0.74931 0.15162 0.7707 0.0
C3376 C 0.75117 0.22005 0.7813 0.0
C3377 C 0.77409 0.22963 0.7856 0.0
C3378 C 0.75776 0.17868 0.77637 0.0
C3379 C 0.78831 0.21324 0.78669 0.0
C3380 C 0.76177 0.13535 0.77793 0.0
C3381 C 0.7194 0.11778 0.754 0.0
N3382 N 0.77992 0.18844 0.78199 0.0
N3383 N 0.72868 0.14228 0.75879 0.0
loop_
_geom_bond_atom_site_label_1
_geom_bond_atom_site_label_2
_geom_bond_distance
_geom_bond_site_symmetry_2
_ccdc_geom_bond_type
In0 O1 2.294 . S
In0 O2 2.326 . S
In0 O6 2.266 . S
In0 O7 2.326 . S
In0 O8 2.266 . S
In0 O9 2.326 . S
In0 O11 2.294 . S
In0 O12 2.326 . S
O1 In0 2.294 . S
O1 C10 1.240 . S
O2 In0 2.326 . S
O2 C10 1.252 . S
C3 O6 1.252 . S
C3 O7 1.260 . S
C4 O11 1.240 . S
C4 O12 1.252 . S
C5 O8 1.252 . S
C5 O9 1.260 . S
O6 In0 2.266 . S
O6 C3 1.252 . S
O7 In0 2.326 . S
O7 C3 1.260 . S
O8 In0 2.266 . S
O8 C5 1.252 . S
O9 In0 2.326 . S
O9 C5 1.260 . S
C10 O1 1.240 . S
C10 O2 1.252 . S
O11 In0 2.294 . S
O11 C4 1.240 . S
O12 In0 2.326 . S
O12 C4 1.252 . S
In13 O14 2.294 . S
In13 O15 2.326 . S
In13 O19 2.266 1_455 S
In13 O20 2.326 1_455 S
In13 O21 2.262 1_455 S
In13 O22 2.319 1_455 S
In13 O24 2.298 . S
In13 O25 2.333 . S
O14 In13 2.294 . S
O14 C23 1.240 . S
O15 In13 2.326 . S
O15 C23 1.252 . S
C16 O19 1.252 . S
C16 O20 1.260 . S
C17 O24 1.240 . S
C17 O25 1.252 . S
C18 O21 1.252 . S
C18 O22 1.260 . S
O19 In13 2.266 1_655 S
O19 C16 1.252 . S
O20 In13 2.326 1_655 S
O20 C16 1.260 . S
O21 In13 2.262 1_655 S
O21 C18 1.252 . S
O22 In13 2.319 1_655 S
O22 C18 1.260 . S
C23 O14 1.240 . S
C23 O15 1.252 . S
O24 In13 2.298 . S
O24 C17 1.240 . S
O25 In13 2.333 . S
O25 C17 1.252 . S
In26 O27 2.294 . S
In26 O28 2.326 . S
In26 O32 2.266 . S
In26 O33 2.326 . S
In26 O34 2.266 . S
In26 O35 2.326 . S
In26 O37 2.294 . S
In26 O38 2.326 . S
O27 In26 2.294 . S
O27 C36 1.240 . S
O28 In26 2.326 . S
O28 C36 1.252 . S
C29 O32 1.252 . S
C29 O33 1.260 . S
C30 O37 1.240 . S
C30 O38 1.252 . S
C31 O34 1.252 . S
C31 O35 1.260 . S
O32 In26 2.266 . S
O32 C29 1.252 . S
O33 In26 2.326 . S
O33 C29 1.260 . S
O34 In26 2.266 . S
O34 C31 1.252 . S
O35 In26 2.326 . S
O35 C31 1.260 . S
C36 O27 1.240 . S
C36 O28 1.252 . S
O37 In26 2.294 . S
O37 C30 1.240 . S
O38 In26 2.326 . S
O38 C30 1.252 . S
In39 O40 2.294 . S
In39 O41 2.326 . S
In39 O45 2.266 . S
In39 O46 2.326 . S
In39 O47 2.266 . S
In39 O48 2.326 . S
In39 O50 2.294 . S
In39 O51 2.326 . S
O40 In39 2.294 . S
O40 C49 1.240 . S
O41 In39 2.326 . S
O41 C49 1.252 . S
C42 O45 1.252 . S
C42 O46 1.260 . S
C43 O50 1.240 . S
C43 O51 1.252 . S
C44 O47 1.252 . S
C44 O48 1.260 . S
O45 In39 2.266 . S
O45 C42 1.252 . S
O46 In39 2.326 . S
O46 C42 1.260 . S
O47 In39 2.266 . S
O47 C44 1.252 . S
O48 In39 2.326 . S
O48 C44 1.260 . S
C49 O40 1.240 . S
C49 O41 1.252 . S
O50 In39 2.294 . S
O50 C43 1.240 . S
O51 In39 2.326 . S
O51 C43 1.252 . S
In52 O53 2.294 . S
In52 O54 2.326 . S
In52 O58 2.266 . S
In52 O59 2.326 . S
In52 O60 2.266 . S
In52 O61 2.326 . S
In52 O63 2.294 . S
In52 O64 2.326 . S
O53 In52 2.294 . S
O53 C62 1.240 . S
O54 In52 2.326 . S
O54 C62 1.252 . S
C55 O58 1.252 . S
C55 O59 1.260 . S
C56 O63 1.240 . S
C56 O64 1.252 . S
C57 O60 1.252 . S
C57 O61 1.260 . S
O58 In52 2.266 . S
O58 C55 1.252 . S
O59 In52 2.326 . S
O59 C55 1.260 . S
O60 In52 2.266 . S
O60 C57 1.252 . S
O61 In52 2.326 . S
O61 C57 1.260 . S
C62 O53 1.240 . S
C62 O54 1.252 . S
O63 In52 2.294 . S
O63 C56 1.240 . S
O64 In52 2.326 . S
O64 C56 1.252 . S
In65 O66 2.294 . S
In65 O67 2.326 . S
In65 O71 2.266 . S
In65 O72 2.326 . S
In65 O73 2.266 . S
In65 O74 2.326 . S
In65 O76 2.294 . S
In65 O77 2.326 . S
O66 In65 2.294 . S
O66 C75 1.240 . S
O67 In65 2.326 . S
O67 C75 1.252 . S
C68 O71 1.252 . S
C68 O72 1.260 . S
C69 O76 1.240 . S
C69 O77 1.252 . S
C70 O73 1.252 . S
C70 O74 1.260 . S
O71 In65 2.266 . S
O71 C68 1.252 . S
O72 In65 2.326 . S
O72 C68 1.260 . S
O73 In65 2.266 . S
O73 C70 1.252 . S
O74 In65 2.326 . S
O74 C70 1.260 . S
C75 O66 1.240 . S
C75 O67 1.252 . S
O76 In65 2.294 . S
O76 C69 1.240 . S
O77 In65 2.326 . S
O77 C69 1.252 . S
In78 O79 2.294 . S
In78 O80 2.326 . S
In78 O84 2.266 . S
In78 O85 2.326 . S
In78 O86 2.266 . S
In78 O87 2.326 . S
In78 O89 2.294 . S
In78 O90 2.326 . S
O79 In78 2.294 . S
O79 C88 1.240 . S
O80 In78 2.326 . S
O80 C88 1.252 . S
C81 O84 1.252 . S
C81 O85 1.260 . S
C82 O89 1.240 . S
C82 O90 1.252 . S
C83 O86 1.252 . S
C83 O87 1.260 . S
O84 In78 2.266 . S
O84 C81 1.252 . S
O85 In78 2.326 . S
O85 C81 1.260 . S
O86 In78 2.266 . S
O86 C83 1.252 . S
O87 In78 2.326 . S
O87 C83 1.260 . S
C88 O79 1.240 . S
C88 O80 1.252 . S
O89 In78 2.294 . S
O89 C82 1.240 . S
O90 In78 2.326 . S
O90 C82 1.252 . S
In91 O92 2.294 . S
In91 O93 2.326 . S
In91 O97 2.266 . S
In91 O98 2.326 . S
In91 O99 2.266 1_455 S
In91 O100 2.326 1_455 S
In91 O102 2.294 . S
In91 O103 2.326 . S
O92 In91 2.294 . S
O92 C101 1.240 . S
O93 In91 2.326 . S
O93 C101 1.252 . S
C94 O97 1.252 . S
C94 O98 1.260 . S
C95 O102 1.240 . S
C95 O103 1.252 . S
C96 O99 1.252 . S
C96 O100 1.260 . S
O97 In91 2.266 . S
O97 C94 1.252 . S
O98 In91 2.326 . S
O98 C94 1.260 . S
O99 In91 2.266 1_655 S
O99 C96 1.252 . S
O100 In91 2.326 1_655 S
O100 C96 1.260 . S
C101 O92 1.240 . S
C101 O93 1.252 . S
O102 In91 2.294 . S
O102 C95 1.240 . S
O103 In91 2.326 . S
O103 C95 1.252 . S
In104 O105 2.294 . S
In104 O106 2.326 . S
In104 O110 2.266 . S
In104 O111 2.326 . S
In104 O112 2.266 1_545 S
In104 O113 2.326 1_545 S
In104 O115 2.294 . S
In104 O116 2.326 . S
O105 In104 2.294 . S
O105 C114 1.240 . S
O106 In104 2.326 . S
O106 C114 1.252 . S
C107 O110 1.252 . S
C107 O111 1.260 . S
C108 O115 1.240 . S
C108 O116 1.252 . S
C109 O112 1.252 . S
C109 O113 1.260 . S
O110 In104 2.266 . S
O110 C107 1.252 . S
O111 In104 2.326 . S
O111 C107 1.260 . S
O112 In104 2.266 1_565 S
O112 C109 1.252 . S
O113 In104 2.326 1_565 S
O113 C109 1.260 . S
C114 O105 1.240 . S
C114 O106 1.252 . S
O115 In104 2.294 . S
O115 C108 1.240 . S
O116 In104 2.326 . S
O116 C108 1.252 . S
In117 O118 2.294 . S
In117 O119 2.326 . S
In117 O123 2.266 . S
In117 O124 2.326 . S
In117 O125 2.266 . S
In117 O126 2.326 . S
In117 O128 2.294 . S
In117 O129 2.326 . S
O118 In117 2.294 . S
O118 C127 1.240 . S
O119 In117 2.326 . S
O119 C127 1.252 . S
C120 O123 1.252 . S
C120 O124 1.260 . S
C121 O128 1.240 . S
C121 O129 1.252 . S
C122 O125 1.252 . S
C122 O126 1.260 . S
O123 In117 2.266 . S
O123 C120 1.252 . S
O124 In117 2.326 . S
O124 C120 1.260 . S
O125 In117 2.266 . S
O125 C122 1.252 . S
O126 In117 2.326 . S
O126 C122 1.260 . S
C127 O118 1.240 . S
C127 O119 1.252 . S
O128 In117 2.294 . S
O128 C121 1.240 . S
O129 In117 2.326 . S
O129 C121 1.252 . S
In130 O131 2.294 1_545 S
In130 O132 2.326 1_545 S
In130 O136 2.266 . S
In130 O137 2.326 . S
In130 O138 2.264 . S
In130 O139 2.322 . S
In130 O141 2.296 1_545 S
In130 O142 2.330 1_545 S
O131 In130 2.294 1_565 S
O131 C140 1.240 . S
O132 In130 2.326 1_565 S
O132 C140 1.252 . S
C133 O136 1.252 . S
C133 O137 1.260 . S
C134 O141 1.240 . S
C134 O142 1.252 . S
C135 O138 1.252 . S
C135 O139 1.260 . S
O136 In130 2.266 . S
O136 C133 1.252 . S
O137 In130 2.326 . S
O137 C133 1.260 . S
O138 In130 2.264 . S
O138 C135 1.252 . S
O139 In130 2.322 . S
O139 C135 1.260 . S
C140 O131 1.240 . S
C140 O132 1.252 . S
O141 In130 2.296 1_565 S
O141 C134 1.240 . S
O142 In130 2.330 1_565 S
O142 C134 1.252 . S
In143 O144 2.294 . S
In143 O145 2.326 . S
In143 O149 2.266 1_554 S
In143 O150 2.326 1_554 S
In143 O151 2.266 . S
In143 O152 2.326 . S
In143 O154 2.294 . S
In143 O155 2.326 . S
O144 In143 2.294 . S
O144 C153 1.240 . S
O145 In143 2.326 . S
O145 C153 1.252 . S
C146 O149 1.252 . S
C146 O150 1.260 . S
C147 O154 1.240 . S
C147 O155 1.252 . S
C148 O151 1.252 . S
C148 O152 1.260 . S
O149 In143 2.266 1_556 S
O149 C146 1.252 . S
O150 In143 2.326 1_556 S
O150 C146 1.260 . S
O151 In143 2.266 . S
O151 C148 1.252 . S
O152 In143 2.326 . S
O152 C148 1.260 . S
C153 O144 1.240 . S
C153 O145 1.252 . S
O154 In143 2.294 . S
O154 C147 1.240 . S
O155 In143 2.326 . S
O155 C147 1.252 . S
In156 O157 2.294 . S
In156 O158 2.326 . S
In156 O162 2.266 . S
In156 O163 2.326 1_554 S
In156 O164 2.266 . S
In156 O165 2.326 . S
In156 O167 2.294 . S
In156 O168 2.326 . S
O157 In156 2.294 . S
O157 C166 1.240 . S
O158 In156 2.326 . S
O158 C166 1.252 . S
C159 O162 1.252 1_556 S
C159 O163 1.260 . S
C160 O167 1.240 . S
C160 O168 1.252 . S
C161 O164 1.252 . S
C161 O165 1.260 . S
O162 In156 2.266 . S
O162 C159 1.252 1_554 S
O163 In156 2.326 1_556 S
O163 C159 1.260 . S
O164 In156 2.266 . S
O164 C161 1.252 . S
O165 In156 2.326 . S
O165 C161 1.260 . S
C166 O157 1.240 . S
C166 O158 1.252 . S
O167 In156 2.294 . S
O167 C160 1.240 . S
O168 In156 2.326 . S
O168 C160 1.252 . S
In169 O170 2.294 . S
In169 O171 2.326 . S
In169 O175 2.266 . S
In169 O176 2.326 . S
In169 O177 2.266 . S
In169 O178 2.326 1_554 S
In169 O180 2.294 . S
In169 O181 2.326 . S
O170 In169 2.294 . S
O170 C179 1.240 . S
O171 In169 2.326 . S
O171 C179 1.252 . S
C172 O175 1.252 . S
C172 O176 1.260 . S
C173 O180 1.240 . S
C173 O181 1.252 . S
C174 O177 1.252 1_556 S
C174 O178 1.260 . S
O175 In169 2.266 . S
O175 C172 1.252 . S
O176 In169 2.326 . S
O176 C172 1.260 . S
O177 In169 2.266 . S
O177 C174 1.252 1_554 S
O178 In169 2.326 1_556 S
O178 C174 1.260 . S
C179 O170 1.240 . S
C179 O171 1.252 . S
O180 In169 2.294 . S
O180 C173 1.240 . S
O181 In169 2.326 . S
O181 C173 1.252 . S
In182 O183 2.294 . S
In182 O184 2.326 . S
In182 O188 2.266 . S
In182 O189 2.326 . S
In182 O190 2.266 . S
In182 O191 2.326 . S
In182 O193 2.294 . S
In182 O194 2.326 . S
O183 In182 2.294 . S
O183 C192 1.240 . S
O184 In182 2.326 . S
O184 C192 1.252 . S
C185 O188 1.252 . S
C185 O189 1.260 . S
C186 O193 1.240 . S
C186 O194 1.252 . S
C187 O190 1.252 . S
C187 O191 1.260 . S
O188 In182 2.266 . S
O188 C185 1.252 . S
O189 In182 2.326 . S
O189 C185 1.260 . S
O190 In182 2.266 . S
O190 C187 1.252 . S
O191 In182 2.326 . S
O191 C187 1.260 . S
C192 O183 1.240 . S
C192 O184 1.252 . S
O193 In182 2.294 . S
O193 C186 1.240 . S
O194 In182 2.326 . S
O194 C186 1.252 . S
In195 O196 2.294 . S
In195 O197 2.326 . S
In195 O201 2.266 . S
In195 O202 2.326 . S
In195 O203 2.266 . S
In195 O204 2.326 . S
In195 O206 2.294 . S
In195 O207 2.326 . S
O196 In195 2.294 . S
O196 C205 1.240 . S
O197 In195 2.326 . S
O197 C205 1.252 . S
C198 O201 1.252 . S
C198 O202 1.260 . S
C199 O206 1.240 . S
C199 O207 1.252 . S
C200 O203 1.252 . S
C200 O204 1.260 . S
O201 In195 2.266 . S
O201 C198 1.252 . S
O202 In195 2.326 . S
O202 C198 1.260 . S
O203 In195 2.266 . S
O203 C200 1.252 . S
O204 In195 2.326 . S
O204 C200 1.260 . S
C205 O196 1.240 . S
C205 O197 1.252 . S
O206 In195 2.294 . S
O206 C199 1.240 . S
O207 In195 2.326 . S
O207 C199 1.252 . S
In208 O209 2.294 . S
In208 O210 2.326 . S
In208 O214 2.266 . S
In208 O215 2.326 . S
In208 O216 2.266 . S
In208 O217 2.326 . S
In208 O219 2.294 . S
In208 O220 2.326 . S
O209 In208 2.294 . S
O209 C218 1.240 . S
O210 In208 2.326 . S
O210 C218 1.252 . S
C211 O214 1.252 . S
C211 O215 1.260 . S
C212 O219 1.240 . S
C212 O220 1.252 . S
C213 O216 1.252 . S
C213 O217 1.260 . S
O214 In208 2.266 . S
O214 C211 1.252 . S
O215 In208 2.326 . S
O215 C211 1.260 . S
O216 In208 2.266 . S
O216 C213 1.252 . S
O217 In208 2.326 . S
O217 C213 1.260 . S
C218 O209 1.240 . S
C218 O210 1.252 . S
O219 In208 2.294 . S
O219 C212 1.240 . S
O220 In208 2.326 . S
O220 C212 1.252 . S
In221 O222 2.294 . S
In221 O223 2.326 . S
In221 O227 2.266 . S
In221 O228 2.326 . S
In221 O229 2.266 . S
In221 O230 2.326 . S
In221 O232 2.294 . S
In221 O233 2.326 . S
O222 In221 2.294 . S
O222 C231 1.240 . S
O223 In221 2.326 . S
O223 C231 1.252 . S
C224 O227 1.252 . S
C224 O228 1.260 . S
C225 O232 1.240 . S
C225 O233 1.252 . S
C226 O229 1.252 . S
C226 O230 1.260 . S
O227 In221 2.266 . S
O227 C224 1.252 . S
O228 In221 2.326 . S
O228 C224 1.260 . S
O229 In221 2.266 . S
O229 C226 1.252 . S
O230 In221 2.326 . S
O230 C226 1.260 . S
C231 O222 1.240 . S
C231 O223 1.252 . S
O232 In221 2.294 . S
O232 C225 1.240 . S
O233 In221 2.326 . S
O233 C225 1.252 . S
In234 O235 2.294 . S
In234 O236 2.326 . S
In234 O240 2.266 . S
In234 O241 2.326 . S
In234 O242 2.266 . S
In234 O243 2.326 . S
In234 O245 2.294 . S
In234 O246 2.326 . S
O235 In234 2.294 . S
O235 C244 1.240 . S
O236 In234 2.326 . S
O236 C244 1.252 . S
C237 O240 1.252 . S
C237 O241 1.260 . S
C238 O245 1.240 . S
C238 O246 1.252 . S
C239 O242 1.252 . S
C239 O243 1.260 . S
O240 In234 2.266 . S
O240 C237 1.252 . S
O241 In234 2.326 . S
O241 C237 1.260 . S
O242 In234 2.266 . S
O242 C239 1.252 . S
O243 In234 2.326 . S
O243 C239 1.260 . S
C244 O235 1.240 . S
C244 O236 1.252 . S
O245 In234 2.294 . S
O245 C238 1.240 . S
O246 In234 2.326 . S
O246 C238 1.252 . S
In247 O248 2.294 . S
In247 O249 2.326 . S
In247 O253 2.266 . S
In247 O254 2.326 . S
In247 O255 2.266 . S
In247 O256 2.326 . S
In247 O258 2.294 . S
In247 O259 2.326 . S
O248 In247 2.294 . S
O248 C257 1.240 . S
O249 In247 2.326 . S
O249 C257 1.252 . S
C250 O253 1.252 . S
C250 O254 1.260 . S
C251 O258 1.240 . S
C251 O259 1.252 . S
C252 O255 1.252 . S
C252 O256 1.260 . S
O253 In247 2.266 . S
O253 C250 1.252 . S
O254 In247 2.326 . S
O254 C250 1.260 . S
O255 In247 2.266 . S
O255 C252 1.252 . S
O256 In247 2.326 . S
O256 C252 1.260 . S
C257 O248 1.240 . S
C257 O249 1.252 . S
O258 In247 2.294 . S
O258 C251 1.240 . S
O259 In247 2.326 . S
O259 C251 1.252 . S
In260 O261 2.297 . S
In260 O262 2.327 . S
In260 O266 2.265 1_554 S
In260 O267 2.325 1_554 S
In260 O268 2.253 1_554 S
In260 O269 2.307 1_554 S
In260 O271 2.305 . S
In260 O272 2.345 . S
O261 In260 2.297 . S
O261 C270 1.240 . S
O262 In260 2.327 . S
O262 C270 1.252 . S
C263 O266 1.252 . S
C263 O267 1.260 . S
C264 O271 1.240 . S
C264 O272 1.252 . S
C265 O268 1.252 . S
C265 O269 1.260 . S
O266 In260 2.265 1_556 S
O266 C263 1.252 . S
O267 In260 2.325 1_556 S
O267 C263 1.260 . S
O268 In260 2.253 1_556 S
O268 C265 1.252 . S
O269 In260 2.307 1_556 S
O269 C265 1.260 . S
C270 O261 1.240 . S
C270 O262 1.252 . S
O271 In260 2.305 . S
O271 C264 1.240 . S
O272 In260 2.345 . S
O272 C264 1.252 . S
In273 O274 2.294 . S
In273 O275 2.326 . S
In273 O279 2.266 . S
In273 O280 2.326 . S
In273 O281 2.266 . S
In273 O282 2.326 . S
In273 O284 2.294 . S
In273 O285 2.326 . S
O274 In273 2.294 . S
O274 C283 1.240 . S
O275 In273 2.326 . S
O275 C283 1.252 . S
C276 O279 1.252 . S
C276 O280 1.260 . S
C277 O284 1.240 . S
C277 O285 1.252 . S
C278 O281 1.252 . S
C278 O282 1.260 . S
O279 In273 2.266 . S
O279 C276 1.252 . S
O280 In273 2.326 . S
O280 C276 1.260 . S
O281 In273 2.266 . S
O281 C278 1.252 . S
O282 In273 2.326 . S
O282 C278 1.260 . S
C283 O274 1.240 . S
C283 O275 1.252 . S
O284 In273 2.294 . S
O284 C277 1.240 . S
O285 In273 2.326 . S
O285 C277 1.252 . S
In286 O287 2.294 . S
In286 O288 2.326 . S
In286 O292 2.266 . S
In286 O293 2.326 . S
In286 O294 2.266 . S
In286 O295 2.326 . S
In286 O297 2.294 . S
In286 O298 2.326 . S
O287 In286 2.294 . S
O287 C296 1.240 . S
O288 In286 2.326 . S
O288 C296 1.252 . S
C289 O292 1.252 . S
C289 O293 1.260 . S
C290 O297 1.240 . S
C290 O298 1.252 . S
C291 O294 1.252 . S
C291 O295 1.260 . S
O292 In286 2.266 . S
O292 C289 1.252 . S
O293 In286 2.326 . S
O293 C289 1.260 . S
O294 In286 2.266 . S
O294 C291 1.252 . S
O295 In286 2.326 . S
O295 C291 1.260 . S
C296 O287 1.240 . S
C296 O288 1.252 . S
O297 In286 2.294 . S
O297 C290 1.240 . S
O298 In286 2.326 . S
O298 C290 1.252 . S
In299 O300 2.294 . S
In299 O301 2.326 . S
In299 O305 2.266 . S
In299 O306 2.326 . S
In299 O307 2.266 . S
In299 O308 2.326 . S
In299 O310 2.294 . S
In299 O311 2.326 . S
O300 In299 2.294 . S
O300 C309 1.240 . S
O301 In299 2.326 . S
O301 C309 1.252 . S
C302 O305 1.252 . S
C302 O306 1.260 . S
C303 O310 1.240 . S
C303 O311 1.252 . S
C304 O307 1.252 . S
C304 O308 1.260 . S
O305 In299 2.266 . S
O305 C302 1.252 . S
O306 In299 2.326 . S
O306 C302 1.260 . S
O307 In299 2.266 . S
O307 C304 1.252 . S
O308 In299 2.326 . S
O308 C304 1.260 . S
C309 O300 1.240 . S
C309 O301 1.252 . S
O310 In299 2.294 . S
O310 C303 1.240 . S
O311 In299 2.326 . S
O311 C303 1.252 . S
Gd312 N343 2.661 . S
Gd312 N349 2.601 . S
Gd312 O356 2.545 . S
Gd312 O357 2.606 . S
Gd312 O359 2.429 . S
Gd312 O360 2.545 . S
Gd312 O361 2.412 . S
Gd312 O363 2.362 . S
Gd312 O364 2.324 . S
Gd312 C371 2.828 . S
Gd313 N322 2.661 1_545 S
Gd313 N326 2.601 1_544 S
Gd313 O357 2.362 . S
Gd313 O358 2.324 . S
Gd313 O362 2.545 1_554 S
Gd313 O363 2.606 . S
Gd313 O365 2.429 1_554 S
Gd313 O366 2.545 . S
Gd313 O367 2.412 1_455 S
Gd313 C380 2.828 1_455 S
C314 C317 1.409 1_655 S
C314 C319 1.439 . S
C314 C320 1.414 1_655 S
C315 C318 1.437 . S
C315 C319 1.317 1_556 S
C315 H334 0.929 . S
C316 C317 1.426 1_556 S
C316 C318 1.413 1_455 S
C316 N326 1.359 . S
C317 C314 1.409 1_455 S
C317 C316 1.426 1_554 S
C317 N322 1.350 . S
C318 C315 1.437 . S
C318 C316 1.413 1_655 S
C318 C328 1.391 . S
C319 C314 1.439 . S
C319 C315 1.317 1_554 S
C319 H330 0.930 . S
C320 C314 1.414 1_455 S
C320 C321 1.359 . S
C320 H332 0.925 1_455 S
C321 C320 1.359 . S
C321 C323 1.402 . S
C321 H333 0.930 . S
N322 Gd313 2.661 1_565 S
N322 C317 1.350 . S
N322 C323 1.307 . S
C323 C321 1.402 . S
C323 N322 1.307 . S
C323 H324 0.930 1_565 S
H324 C323 0.930 1_545 S
C325 N326 1.334 . S
C325 C327 1.394 . S
C325 H329 0.930 1_565 S
N326 Gd313 2.601 1_566 S
N326 C316 1.359 . S
N326 C325 1.334 . S
C327 C325 1.394 . S
C327 C328 1.359 1_455 S
C327 H339 0.930 . S
C328 C318 1.391 . S
C328 C327 1.359 1_655 S
C328 H340 0.929 . S
H329 C325 0.930 1_545 S
H330 C319 0.930 . S
H331 C348 0.930 1_556 S
H332 C320 0.925 1_655 S
H333 C321 0.930 . S
H334 C315 0.929 . S
H335 C353 0.930 . S
H336 C344 0.930 . S
H337 C345 0.930 . S
H338 C369 0.929 . S
H339 C327 0.930 . S
H340 C328 0.929 . S
H341 C370 0.930 . S
H342 C351 0.930 . S
N343 Gd312 2.661 . S
N343 C347 1.350 . S
N343 C348 1.307 . S
C344 H336 0.930 . S
C344 C345 1.355 1_554 S
C344 C346 1.412 . S
C345 H337 0.930 . S
C345 C344 1.355 1_556 S
C345 C348 1.402 1_556 S
C346 C344 1.412 . S
C346 C347 1.417 . S
C346 C370 1.431 . S
C347 N343 1.350 . S
C347 C346 1.417 . S
C347 C350 1.426 . S
C348 H331 0.930 1_554 S
C348 N343 1.307 . S
C348 C345 1.402 1_554 S
N349 Gd312 2.601 . S
N349 C350 1.359 . S
N349 C353 1.334 . S
C350 C347 1.426 . S
C350 N349 1.359 . S
C350 C354 1.413 . S
C351 H342 0.930 . S
C351 C352 1.359 . S
C351 C353 1.394 . S
C352 C351 1.359 . S
C352 C354 1.391 . S
C352 H355 0.929 . S
C353 H335 0.930 . S
C353 N349 1.334 . S
C353 C351 1.394 . S
C354 C350 1.413 . S
C354 C352 1.391 . S
C354 C369 1.437 . S
H355 C352 0.929 . S
O356 Gd312 2.545 . S
O356 C371 1.258 . S
O357 Gd312 2.606 . S
O357 Gd313 2.362 . S
O357 C368 1.284 . S
O358 Gd313 2.324 . S
O358 C378 1.254 . S
O359 Gd312 2.429 . S
O359 C378 1.268 . S
O360 Gd312 2.545 . S
O360 C368 1.250 . S
O361 Gd312 2.412 . S
O361 C371 1.252 . S
O362 Gd313 2.545 1_556 S
O362 C380 1.258 1_456 S
O363 Gd312 2.362 . S
O363 Gd313 2.606 . S
O363 C379 1.284 . S
O364 Gd312 2.324 . S
O364 C387 1.254 1_554 S
O365 Gd313 2.429 1_556 S
O365 C387 1.268 . S
O366 Gd313 2.545 . S
O366 C379 1.250 . S
O367 Gd313 2.412 1_655 S
O367 C380 1.252 . S
C368 O357 1.284 . S
C368 O360 1.250 . S
C369 H338 0.929 . S
C369 C354 1.437 . S
C369 C370 1.317 . S
C370 H341 0.930 . S
C370 C346 1.431 . S
C370 C369 1.317 . S
C371 Gd312 2.828 . S
C371 O356 1.258 . S
C371 O361 1.252 . S
C371 C372 1.497 . S
C372 C371 1.497 . S
C372 C373 1.395 . S
C372 C374 1.380 . S
C373 C372 1.395 . S
C373 C376 1.398 . S
C373 H388 0.930 . S
C374 C372 1.380 . S
C374 C375 1.391 . S
C374 H389 0.930 . S
C375 C374 1.391 . S
C375 C377 1.387 . S
C376 C373 1.398 . S
C376 C377 1.380 . S
C376 H390 0.930 . S
C377 C375 1.387 . S
C377 C376 1.380 . S
C377 H391 0.930 . S
C378 O358 1.254 . S
C378 O359 1.268 . S
C379 O363 1.284 . S
C379 O366 1.250 . S
C380 Gd313 2.828 1_655 S
C380 O362 1.258 1_654 S
C380 O367 1.252 . S
C380 C381 1.495 1_554 S
C381 C380 1.495 1_556 S
C381 C382 1.403 . S
C381 C383 1.374 1_556 S
C382 C381 1.403 . S
C382 C385 1.398 . S
C382 H392 0.930 . S
C383 C381 1.374 1_554 S
C383 C384 1.391 . S
C383 H393 0.930 . S
C384 C383 1.391 . S
C384 C386 1.387 1_554 S
C385 C382 1.398 . S
C385 C386 1.380 . S
C385 H394 0.930 . S
C386 C384 1.387 1_556 S
C386 C385 1.380 . S
C386 H395 0.930 . S
C387 O364 1.254 1_556 S
C387 O365 1.268 . S
H388 C373 0.930 . S
H389 C374 0.930 . S
H390 C376 0.930 . S
H391 C377 0.930 . S
H392 C382 0.930 . S
H393 C383 0.930 . S
H394 C385 0.930 . S
H395 C386 0.930 . S
Gd396 N427 2.661 . S
Gd396 N433 2.601 . S
Gd396 O440 2.545 . S
Gd396 O441 2.606 . S
Gd396 O443 2.429 . S
Gd396 O444 2.545 . S
Gd396 O445 2.412 . S
Gd396 O447 2.362 . S
Gd396 O448 2.324 . S
Gd396 C455 2.828 . S
Gd397 N406 2.661 . S
Gd397 N410 2.601 . S
Gd397 O441 2.362 . S
Gd397 O442 2.324 . S
Gd397 O446 2.545 . S
Gd397 O447 2.606 . S
Gd397 O449 2.429 . S
Gd397 O450 2.545 . S
Gd397 O451 2.412 . S
Gd397 C464 2.828 . S
C398 C401 1.417 . S
C398 C403 1.431 . S
C398 C404 1.412 . S
C399 C402 1.437 . S
C399 C403 1.317 . S
C399 H418 0.929 . S
C400 C401 1.426 . S
C400 C402 1.413 . S
C400 N410 1.359 . S
C401 C398 1.417 . S
C401 C400 1.426 . S
C401 N406 1.350 . S
C402 C399 1.437 . S
C402 C400 1.413 . S
C402 C412 1.391 . S
C403 C398 1.431 . S
C403 C399 1.317 . S
C403 H414 0.930 . S
C404 C398 1.412 . S
C404 C405 1.355 . S
C404 H416 0.930 . S
C405 C404 1.355 . S
C405 C407 1.402 . S
C405 H417 0.930 . S
N406 Gd397 2.661 . S
N406 C401 1.350 . S
N406 C407 1.307 . S
C407 C405 1.402 . S
C407 N406 1.307 . S
C407 H408 0.930 . S
H408 C407 0.930 . S
C409 N410 1.334 . S
C409 C411 1.394 . S
C409 H413 0.930 . S
N410 Gd397 2.601 . S
N410 C400 1.359 . S
N410 C409 1.334 . S
C411 C409 1.394 . S
C411 C412 1.359 . S
C411 H423 0.930 . S
C412 C402 1.391 . S
C412 C411 1.359 . S
C412 H424 0.929 . S
H413 C409 0.930 . S
H414 C403 0.930 . S
H415 C432 0.930 . S
H416 C404 0.930 . S
H417 C405 0.930 . S
H418 C399 0.929 . S
H419 C437 0.930 . S
H420 C428 0.930 . S
H421 C429 0.930 . S
H422 C453 0.929 . S
H423 C411 0.930 . S
H424 C412 0.929 . S
H425 C454 0.930 . S
H426 C435 0.930 . S
N427 Gd396 2.661 . S
N427 C431 1.350 . S
N427 C432 1.307 . S
C428 H420 0.930 . S
C428 C429 1.355 . S
C428 C430 1.412 . S
C429 H421 0.930 . S
C429 C428 1.355 . S
C429 C432 1.402 . S
C430 C428 1.412 . S
C430 C431 1.417 . S
C430 C454 1.431 . S
C431 N427 1.350 . S
C431 C430 1.417 . S
C431 C434 1.426 . S
C432 H415 0.930 . S
C432 N427 1.307 . S
C432 C429 1.402 . S
N433 Gd396 2.601 . S
N433 C434 1.359 . S
N433 C437 1.334 . S
C434 C431 1.426 . S
C434 N433 1.359 . S
C434 C438 1.413 . S
C435 H426 0.930 . S
C435 C436 1.359 . S
C435 C437 1.394 . S
C436 C435 1.359 . S
C436 C438 1.391 . S
C436 H439 0.929 . S
C437 H419 0.930 . S
C437 N433 1.334 . S
C437 C435 1.394 . S
C438 C434 1.413 . S
C438 C436 1.391 . S
C438 C453 1.437 . S
H439 C436 0.929 . S
O440 Gd396 2.545 . S
O440 C455 1.258 . S
O441 Gd396 2.606 . S
O441 Gd397 2.362 . S
O441 C452 1.284 . S
O442 Gd397 2.324 . S
O442 C462 1.254 . S
O443 Gd396 2.429 . S
O443 C462 1.268 . S
O444 Gd396 2.545 . S
O444 C452 1.250 . S
O445 Gd396 2.412 . S
O445 C455 1.252 . S
O446 Gd397 2.545 . S
O446 C464 1.258 . S
O447 Gd396 2.362 . S
O447 Gd397 2.606 . S
O447 C463 1.284 . S
O448 Gd396 2.324 . S
O448 C471 1.254 . S
O449 Gd397 2.429 . S
O449 C471 1.268 . S
O450 Gd397 2.545 . S
O450 C463 1.250 . S
O451 Gd397 2.412 . S
O451 C464 1.252 . S
C452 O441 1.284 . S
C452 O444 1.250 . S
C453 H422 0.929 . S
C453 C438 1.437 . S
C453 C454 1.317 . S
C454 H425 0.930 . S
C454 C430 1.431 . S
C454 C453 1.317 . S
C455 Gd396 2.828 . S
C455 O440 1.258 . S
C455 O445 1.252 . S
C455 C456 1.497 . S
C456 C455 1.497 . S
C456 C457 1.395 . S
C456 C458 1.380 . S
C457 C456 1.395 . S
C457 C460 1.398 . S
C457 H472 0.930 . S
C458 C456 1.380 . S
C458 C459 1.391 . S
C458 H473 0.930 . S
C459 C458 1.391 . S
C459 C461 1.387 . S
C460 C457 1.398 . S
C460 C461 1.380 . S
C460 H474 0.930 . S
C461 C459 1.387 . S
C461 C460 1.380 . S
C461 H475 0.930 . S
C462 O442 1.254 . S
C462 O443 1.268 . S
C463 O447 1.284 . S
C463 O450 1.250 . S
C464 Gd397 2.828 . S
C464 O446 1.258 . S
C464 O451 1.252 . S
C464 C465 1.497 . S
C465 C464 1.497 . S
C465 C466 1.395 . S
C465 C467 1.380 . S
C466 C465 1.395 . S
C466 C469 1.398 . S
C466 H476 0.930 . S
C467 C465 1.380 . S
C467 C468 1.391 . S
C467 H477 0.930 . S
C468 C467 1.391 . S
C468 C470 1.387 . S
C469 C466 1.398 . S
C469 C470 1.380 . S
C469 H478 0.930 . S
C470 C468 1.387 . S
C470 C469 1.380 . S
C470 H479 0.930 . S
C471 O448 1.254 . S
C471 O449 1.268 . S
H472 C457 0.930 . S
H473 C458 0.930 . S
H474 C460 0.930 . S
H475 C461 0.930 . S
H476 C466 0.930 . S
H477 C467 0.930 . S
H478 C469 0.930 . S
H479 C470 0.930 . S
Gd480 N511 2.661 1_545 S
Gd480 N517 2.601 1_545 S
Gd480 O524 2.545 . S
Gd480 O525 2.606 . S
Gd480 O527 2.429 . S
Gd480 O528 2.545 . S
Gd480 O529 2.412 . S
Gd480 O531 2.362 1_545 S
Gd480 O532 2.324 . S
Gd480 C539 2.828 . S
Gd481 N490 2.661 . S
Gd481 N494 2.601 . S
Gd481 O525 2.362 . S
Gd481 O526 2.324 . S
Gd481 O530 2.545 . S
Gd481 O531 2.606 1_545 S
Gd481 O533 2.429 . S
Gd481 O534 2.545 1_545 S
Gd481 O535 2.412 . S
Gd481 C548 2.828 . S
C482 C485 1.417 . S
C482 C487 1.431 . S
C482 C488 1.412 . S
C483 C486 1.437 . S
C483 C487 1.317 . S
C483 H502 0.929 . S
C484 C485 1.426 . S
C484 C486 1.413 . S
C484 N494 1.359 . S
C485 C482 1.417 . S
C485 C484 1.426 . S
C485 N490 1.350 . S
C486 C483 1.437 . S
C486 C484 1.413 . S
C486 C496 1.391 . S
C487 C482 1.431 . S
C487 C483 1.317 . S
C487 H498 0.930 . S
C488 C482 1.412 . S
C488 C489 1.355 . S
C488 H500 0.930 . S
C489 C488 1.355 . S
C489 C491 1.402 . S
C489 H501 0.930 . S
N490 Gd481 2.661 . S
N490 C485 1.350 . S
N490 C491 1.307 . S
C491 C489 1.402 . S
C491 N490 1.307 . S
C491 H492 0.930 . S
H492 C491 0.930 . S
C493 N494 1.334 . S
C493 C495 1.394 . S
C493 H497 0.930 . S
N494 Gd481 2.601 . S
N494 C484 1.359 . S
N494 C493 1.334 . S
C495 C493 1.394 . S
C495 C496 1.359 . S
C495 H507 0.930 . S
C496 C486 1.391 . S
C496 C495 1.359 . S
C496 H508 0.929 . S
H497 C493 0.930 . S
H498 C487 0.930 . S
H499 C516 0.930 . S
H500 C488 0.930 . S
H501 C489 0.930 . S
H502 C483 0.929 . S
H503 C521 0.930 . S
H504 C512 0.930 . S
H505 C513 0.930 . S
H506 C537 0.929 . S
H507 C495 0.930 . S
H508 C496 0.929 . S
H509 C538 0.930 . S
H510 C519 0.930 . S
N511 Gd480 2.661 1_565 S
N511 C515 1.350 . S
N511 C516 1.307 . S
C512 H504 0.930 . S
C512 C513 1.355 . S
C512 C514 1.412 . S
C513 H505 0.930 . S
C513 C512 1.355 . S
C513 C516 1.402 . S
C514 C512 1.412 . S
C514 C515 1.417 . S
C514 C538 1.431 . S
C515 N511 1.350 . S
C515 C514 1.417 . S
C515 C518 1.426 . S
C516 H499 0.930 . S
C516 N511 1.307 . S
C516 C513 1.402 . S
N517 Gd480 2.601 1_565 S
N517 C518 1.359 . S
N517 C521 1.334 1_565 S
C518 C515 1.426 . S
C518 N517 1.359 . S
C518 C522 1.413 . S
C519 H510 0.930 . S
C519 C520 1.359 . S
C519 C521 1.394 1_565 S
C520 C519 1.359 . S
C520 C522 1.391 . S
C520 H523 0.929 . S
C521 H503 0.930 . S
C521 N517 1.334 1_545 S
C521 C519 1.394 1_545 S
C522 C518 1.413 . S
C522 C520 1.391 . S
C522 C537 1.437 . S
H523 C520 0.929 . S
O524 Gd480 2.545 . S
O524 C539 1.258 . S
O525 Gd480 2.606 . S
O525 Gd481 2.362 . S
O525 C536 1.284 . S
O526 Gd481 2.324 . S
O526 C546 1.254 . S
O527 Gd480 2.429 . S
O527 C546 1.268 . S
O528 Gd480 2.545 . S
O528 C536 1.250 . S
O529 Gd480 2.412 . S
O529 C539 1.252 . S
O530 Gd481 2.545 . S
O530 C548 1.258 . S
O531 Gd480 2.362 1_565 S
O531 Gd481 2.606 1_565 S
O531 C547 1.284 . S
O532 Gd480 2.324 . S
O532 C555 1.254 . S
O533 Gd481 2.429 . S
O533 C555 1.268 . S
O534 Gd481 2.545 1_565 S
O534 C547 1.250 . S
O535 Gd481 2.412 . S
O535 C548 1.252 . S
C536 O525 1.284 . S
C536 O528 1.250 . S
C537 H506 0.929 . S
C537 C522 1.437 . S
C537 C538 1.317 . S
C538 H509 0.930 . S
C538 C514 1.431 . S
C538 C537 1.317 . S
C539 Gd480 2.828 . S
C539 O524 1.258 . S
C539 O529 1.252 . S
C539 C540 1.497 . S
C540 C539 1.497 . S
C540 C541 1.395 . S
C540 C542 1.380 . S
C541 C540 1.395 . S
C541 C544 1.398 . S
C541 H556 0.930 . S
C542 C540 1.380 . S
C542 C543 1.391 . S
C542 H557 0.930 . S
C543 C542 1.391 . S
C543 C545 1.387 . S
C544 C541 1.398 . S
C544 C545 1.380 . S
C544 H558 0.930 . S
C545 C543 1.387 . S
C545 C544 1.380 . S
C545 H559 0.930 . S
C546 O526 1.254 . S
C546 O527 1.268 . S
C547 O531 1.284 . S
C547 O534 1.250 . S
C548 Gd481 2.828 . S
C548 O530 1.258 . S
C548 O535 1.252 . S
C548 C549 1.497 1_545 S
C549 C548 1.497 1_565 S
C549 C550 1.395 . S
C549 C551 1.380 . S
C550 C549 1.395 . S
C550 C553 1.398 . S
C550 H560 0.932 1_565 S
C551 C549 1.380 . S
C551 C552 1.391 . S
C551 H561 0.930 . S
C552 C551 1.391 . S
C552 C554 1.387 . S
C553 C550 1.398 . S
C553 C554 1.380 . S
C553 H562 0.930 . S
C554 C552 1.387 . S
C554 C553 1.380 . S
C554 H563 0.930 . S
C555 O532 1.254 . S
C555 O533 1.268 . S
H556 C541 0.930 . S
H557 C542 0.930 . S
H558 C544 0.930 . S
H559 C545 0.930 . S
H560 C550 0.932 1_545 S
H561 C551 0.930 . S
H562 C553 0.930 . S
H563 C554 0.930 . S
Gd564 N595 2.661 . S
Gd564 N601 2.601 . S
Gd564 O608 2.545 . S
Gd564 O609 2.606 . S
Gd564 O611 2.429 . S
Gd564 O612 2.545 . S
Gd564 O613 2.412 . S
Gd564 O615 2.362 . S
Gd564 O616 2.324 . S
Gd564 C623 2.828 . S
Gd565 N574 2.661 . S
Gd565 N578 2.601 . S
Gd565 O609 2.362 . S
Gd565 O610 2.324 . S
Gd565 O614 2.545 . S
Gd565 O615 2.606 . S
Gd565 O617 2.429 . S
Gd565 O618 2.545 . S
Gd565 O619 2.412 . S
Gd565 C632 2.828 . S
C566 C569 1.417 . S
C566 C571 1.431 . S
C566 C572 1.412 . S
C567 C570 1.437 . S
C567 C571 1.317 . S
C567 H586 0.929 . S
C568 C569 1.426 . S
C568 C570 1.413 . S
C568 N578 1.359 . S
C569 C566 1.417 . S
C569 C568 1.426 . S
C569 N574 1.350 . S
C570 C567 1.437 . S
C570 C568 1.413 . S
C570 C580 1.391 . S
C571 C566 1.431 . S
C571 C567 1.317 . S
C571 H582 0.930 . S
C572 C566 1.412 . S
C572 C573 1.355 . S
C572 H584 0.930 . S
C573 C572 1.355 . S
C573 C575 1.402 . S
C573 H585 0.930 . S
N574 Gd565 2.661 . S
N574 C569 1.350 . S
N574 C575 1.307 . S
C575 C573 1.402 . S
C575 N574 1.307 . S
C575 H576 0.930 . S
H576 C575 0.930 . S
C577 N578 1.334 . S
C577 C579 1.394 . S
C577 H581 0.930 . S
N578 Gd565 2.601 . S
N578 C568 1.359 . S
N578 C577 1.334 . S
C579 C577 1.394 . S
C579 C580 1.359 . S
C579 H591 0.930 . S
C580 C570 1.391 . S
C580 C579 1.359 . S
C580 H592 0.929 . S
H581 C577 0.930 . S
H582 C571 0.930 . S
H583 C600 0.930 . S
H584 C572 0.930 . S
H585 C573 0.930 . S
H586 C567 0.929 . S
H587 C605 0.930 . S
H588 C596 0.930 . S
H589 C597 0.930 . S
H590 C621 0.929 . S
H591 C579 0.930 . S
H592 C580 0.929 . S
H593 C622 0.930 . S
H594 C603 0.930 . S
N595 Gd564 2.661 . S
N595 C599 1.350 . S
N595 C600 1.307 . S
C596 H588 0.930 . S
C596 C597 1.355 . S
C596 C598 1.412 . S
C597 H589 0.930 . S
C597 C596 1.355 . S
C597 C600 1.402 . S
C598 C596 1.412 . S
C598 C599 1.417 . S
C598 C622 1.431 . S
C599 N595 1.350 . S
C599 C598 1.417 . S
C599 C602 1.426 . S
C600 H583 0.930 . S
C600 N595 1.307 . S
C600 C597 1.402 . S
N601 Gd564 2.601 . S
N601 C602 1.359 . S
N601 C605 1.334 . S
C602 C599 1.426 . S
C602 N601 1.359 . S
C602 C606 1.413 . S
C603 H594 0.930 . S
C603 C604 1.359 . S
C603 C605 1.394 . S
C604 C603 1.359 . S
C604 C606 1.391 . S
C604 H607 0.929 . S
C605 H587 0.930 . S
C605 N601 1.334 . S
C605 C603 1.394 . S
C606 C602 1.413 . S
C606 C604 1.391 . S
C606 C621 1.437 . S
H607 C604 0.929 . S
O608 Gd564 2.545 . S
O608 C623 1.258 . S
O609 Gd564 2.606 . S
O609 Gd565 2.362 . S
O609 C620 1.284 . S
O610 Gd565 2.324 . S
O610 C630 1.254 . S
O611 Gd564 2.429 . S
O611 C630 1.268 . S
O612 Gd564 2.545 . S
O612 C620 1.250 . S
O613 Gd564 2.412 . S
O613 C623 1.252 . S
O614 Gd565 2.545 . S
O614 C632 1.258 . S
O615 Gd564 2.362 . S
O615 Gd565 2.606 . S
O615 C631 1.284 . S
O616 Gd564 2.324 . S
O616 C639 1.254 . S
O617 Gd565 2.429 . S
O617 C639 1.268 . S
O618 Gd565 2.545 . S
O618 C631 1.250 . S
O619 Gd565 2.412 . S
O619 C632 1.252 . S
C620 O609 1.284 . S
C620 O612 1.250 . S
C621 H590 0.929 . S
C621 C606 1.437 . S
C621 C622 1.317 . S
C622 H593 0.930 . S
C622 C598 1.431 . S
C622 C621 1.317 . S
C623 Gd564 2.828 . S
C623 O608 1.258 . S
C623 O613 1.252 . S
C623 C624 1.497 . S
C624 C623 1.497 . S
C624 C625 1.395 . S
C624 C626 1.380 . S
C625 C624 1.395 . S
C625 C628 1.398 . S
C625 H640 0.930 . S
C626 C624 1.380 . S
C626 C627 1.391 . S
C626 H641 0.930 . S
C627 C626 1.391 . S
C627 C629 1.387 . S
C628 C625 1.398 . S
C628 C629 1.380 . S
C628 H642 0.930 . S
C629 C627 1.387 . S
C629 C628 1.380 . S
C629 H643 0.930 . S
C630 O610 1.254 . S
C630 O611 1.268 . S
C631 O615 1.284 . S
C631 O618 1.250 . S
C632 Gd565 2.828 . S
C632 O614 1.258 . S
C632 O619 1.252 . S
C632 C633 1.497 . S
C633 C632 1.497 . S
C633 C634 1.395 . S
C633 C635 1.380 . S
C634 C633 1.395 . S
C634 C637 1.398 . S
C634 H644 0.930 . S
C635 C633 1.380 . S
C635 C636 1.391 . S
C635 H645 0.930 . S
C636 C635 1.391 . S
C636 C638 1.387 . S
C637 C634 1.398 . S
C637 C638 1.380 . S
C637 H646 0.930 . S
C638 C636 1.387 . S
C638 C637 1.380 . S
C638 H647 0.930 . S
C639 O616 1.254 . S
C639 O617 1.268 . S
H640 C625 0.930 . S
H641 C626 0.930 . S
H642 C628 0.930 . S
H643 C629 0.930 . S
H644 C634 0.930 . S
H645 C635 0.930 . S
H646 C637 0.930 . S
H647 C638 0.930 . S
Gd648 N679 2.661 . S
Gd648 N685 2.601 . S
Gd648 O692 2.545 . S
Gd648 O693 2.606 1_565 S
Gd648 O695 2.429 1_565 S
Gd648 O696 2.545 . S
Gd648 O697 2.412 . S
Gd648 O699 2.362 1_565 S
Gd648 O700 2.324 . S
Gd648 C707 2.828 . S
Gd649 N658 2.661 . S
Gd649 N662 2.601 . S
Gd649 O693 2.362 . S
Gd649 O694 2.324 . S
Gd649 O698 2.545 . S
Gd649 O699 2.606 . S
Gd649 O701 2.429 . S
Gd649 O702 2.545 . S
Gd649 O703 2.412 . S
Gd649 C716 2.828 . S
C650 C653 1.417 . S
C650 C655 1.431 . S
C650 C656 1.412 . S
C651 C654 1.437 . S
C651 C655 1.317 . S
C651 H670 0.929 . S
C652 C653 1.426 . S
C652 C654 1.413 . S
C652 N662 1.359 . S
C653 C650 1.417 . S
C653 C652 1.426 . S
C653 N658 1.350 . S
C654 C651 1.437 . S
C654 C652 1.413 . S
C654 C664 1.391 . S
C655 C650 1.431 . S
C655 C651 1.317 . S
C655 H666 0.930 . S
C656 C650 1.412 . S
C656 C657 1.355 . S
C656 H668 0.930 . S
C657 C656 1.355 . S
C657 C659 1.402 . S
C657 H669 0.930 . S
N658 Gd649 2.661 . S
N658 C653 1.350 . S
N658 C659 1.307 . S
C659 C657 1.402 . S
C659 N658 1.307 . S
C659 H660 0.930 . S
H660 C659 0.930 . S
C661 N662 1.334 . S
C661 C663 1.394 . S
C661 H665 0.930 . S
N662 Gd649 2.601 . S
N662 C652 1.359 . S
N662 C661 1.334 . S
C663 C661 1.394 . S
C663 C664 1.359 . S
C663 H675 0.930 1_455 S
C664 C654 1.391 . S
C664 C663 1.359 . S
C664 H676 0.929 . S
H665 C661 0.930 . S
H666 C655 0.930 . S
H667 C684 0.930 . S
H668 C656 0.930 . S
H669 C657 0.930 . S
H670 C651 0.929 . S
H671 C689 0.930 . S
H672 C680 0.930 . S
H673 C681 0.930 1_655 S
H674 C705 0.929 . S
H675 C663 0.930 1_655 S
H676 C664 0.929 . S
H677 C706 0.930 . S
H678 C687 0.930 . S
N679 Gd648 2.661 . S
N679 C683 1.350 . S
N679 C684 1.307 . S
C680 H672 0.930 . S
C680 C681 1.355 . S
C680 C682 1.412 . S
C681 H673 0.930 1_455 S
C681 C680 1.355 . S
C681 C684 1.402 . S
C682 C680 1.412 . S
C682 C683 1.417 . S
C682 C706 1.431 . S
C683 N679 1.350 . S
C683 C682 1.417 . S
C683 C686 1.426 . S
C684 H667 0.930 . S
C684 N679 1.307 . S
C684 C681 1.402 . S
N685 Gd648 2.601 . S
N685 C686 1.359 . S
N685 C689 1.334 . S
C686 C683 1.426 . S
C686 N685 1.359 . S
C686 C690 1.413 . S
C687 H678 0.930 . S
C687 C688 1.359 . S
C687 C689 1.394 . S
C688 C687 1.359 . S
C688 C690 1.391 . S
C688 H691 0.929 . S
C689 H671 0.930 . S
C689 N685 1.334 . S
C689 C687 1.394 . S
C690 C686 1.413 . S
C690 C688 1.391 . S
C690 C705 1.437 . S
H691 C688 0.929 . S
O692 Gd648 2.545 . S
O692 C707 1.258 . S
O693 Gd648 2.606 1_545 S
O693 Gd649 2.362 . S
O693 C704 1.284 . S
O694 Gd649 2.324 . S
O694 C714 1.254 . S
O695 Gd648 2.429 1_545 S
O695 C714 1.268 . S
O696 Gd648 2.545 . S
O696 C704 1.250 1_565 S
O697 Gd648 2.412 . S
O697 C707 1.252 . S
O698 Gd649 2.545 . S
O698 C716 1.258 . S
O699 Gd648 2.362 1_545 S
O699 Gd649 2.606 . S
O699 C715 1.284 . S
O700 Gd648 2.324 . S
O700 C723 1.254 1_565 S
O701 Gd649 2.429 . S
O701 C723 1.268 . S
O702 Gd649 2.545 . S
O702 C715 1.250 . S
O703 Gd649 2.412 . S
O703 C716 1.252 . S
C704 O693 1.284 . S
C704 O696 1.250 1_545 S
C705 H674 0.929 . S
C705 C690 1.437 . S
C705 C706 1.317 . S
C706 H677 0.930 . S
C706 C682 1.431 . S
C706 C705 1.317 . S
C707 Gd648 2.828 . S
C707 O692 1.258 . S
C707 O697 1.252 . S
C707 C708 1.497 . S
C708 C707 1.497 . S
C708 C709 1.395 . S
C708 C710 1.380 . S
C709 C708 1.395 . S
C709 C712 1.398 . S
C709 H724 0.930 . S
C710 C708 1.380 . S
C710 C711 1.391 . S
C710 H725 0.930 . S
C711 C710 1.391 . S
C711 C713 1.387 . S
C712 C709 1.398 . S
C712 C713 1.380 . S
C712 H726 0.930 . S
C713 C711 1.387 . S
C713 C712 1.380 . S
C713 H727 0.930 . S
C714 O694 1.254 . S
C714 O695 1.268 . S
C715 O699 1.284 . S
C715 O702 1.250 . S
C716 Gd649 2.828 . S
C716 O698 1.258 . S
C716 O703 1.252 . S
C716 C717 1.497 . S
C717 C716 1.497 . S
C717 C718 1.395 . S
C717 C719 1.380 . S
C718 C717 1.395 . S
C718 C721 1.398 . S
C718 H728 0.930 . S
C719 C717 1.380 . S
C719 C720 1.391 . S
C719 H729 0.930 . S
C720 C719 1.391 . S
C720 C722 1.387 . S
C721 C718 1.398 . S
C721 C722 1.380 . S
C721 H730 0.930 . S
C722 C720 1.387 . S
C722 C721 1.380 . S
C722 H731 0.930 . S
C723 O700 1.254 1_545 S
C723 O701 1.268 . S
H724 C709 0.930 . S
H725 C710 0.930 . S
H726 C712 0.930 . S
H727 C713 0.930 . S
H728 C718 0.930 . S
H729 C719 0.930 . S
H730 C721 0.930 . S
H731 C722 0.930 . S
Gd732 N763 2.661 . S
Gd732 N769 2.601 . S
Gd732 O776 2.545 . S
Gd732 O777 2.606 . S
Gd732 O779 2.429 . S
Gd732 O780 2.545 . S
Gd732 O781 2.412 . S
Gd732 O783 2.362 . S
Gd732 O784 2.324 . S
Gd732 C791 2.828 . S
Gd733 N742 2.661 . S
Gd733 N746 2.601 . S
Gd733 O777 2.362 . S
Gd733 O778 2.324 . S
Gd733 O782 2.545 . S
Gd733 O783 2.606 . S
Gd733 O785 2.429 . S
Gd733 O786 2.545 . S
Gd733 O787 2.412 . S
Gd733 C800 2.828 . S
C734 C737 1.417 . S
C734 C739 1.431 . S
C734 C740 1.412 . S
C735 C738 1.437 . S
C735 C739 1.317 . S
C735 H754 0.929 . S
C736 C737 1.426 . S
C736 C738 1.413 . S
C736 N746 1.359 . S
C737 C734 1.417 . S
C737 C736 1.426 . S
C737 N742 1.350 . S
C738 C735 1.437 . S
C738 C736 1.413 . S
C738 C748 1.391 . S
C739 C734 1.431 . S
C739 C735 1.317 . S
C739 H750 0.930 . S
C740 C734 1.412 . S
C740 C741 1.355 . S
C740 H752 0.930 . S
C741 C740 1.355 . S
C741 C743 1.402 . S
C741 H753 0.930 . S
N742 Gd733 2.661 . S
N742 C737 1.350 . S
N742 C743 1.307 . S
C743 C741 1.402 . S
C743 N742 1.307 . S
C743 H744 0.930 . S
H744 C743 0.930 . S
C745 N746 1.334 . S
C745 C747 1.394 . S
C745 H749 0.930 . S
N746 Gd733 2.601 . S
N746 C736 1.359 . S
N746 C745 1.334 . S
C747 C745 1.394 . S
C747 C748 1.359 . S
C747 H759 0.930 . S
C748 C738 1.391 . S
C748 C747 1.359 . S
C748 H760 0.929 . S
H749 C745 0.930 . S
H750 C739 0.930 . S
H751 C768 0.930 . S
H752 C740 0.930 . S
H753 C741 0.930 . S
H754 C735 0.929 . S
H755 C773 0.930 . S
H756 C764 0.930 . S
H757 C765 0.930 . S
H758 C789 0.929 . S
H759 C747 0.930 . S
H760 C748 0.929 . S
H761 C790 0.930 . S
H762 C771 0.930 . S
N763 Gd732 2.661 . S
N763 C767 1.350 . S
N763 C768 1.307 . S
C764 H756 0.930 . S
C764 C765 1.355 . S
C764 C766 1.412 . S
C765 H757 0.930 . S
C765 C764 1.355 . S
C765 C768 1.402 . S
C766 C764 1.412 . S
C766 C767 1.417 . S
C766 C790 1.431 . S
C767 N763 1.350 . S
C767 C766 1.417 . S
C767 C770 1.426 . S
C768 H751 0.930 . S
C768 N763 1.307 . S
C768 C765 1.402 . S
N769 Gd732 2.601 . S
N769 C770 1.359 . S
N769 C773 1.334 . S
C770 C767 1.426 . S
C770 N769 1.359 . S
C770 C774 1.413 . S
C771 H762 0.930 . S
C771 C772 1.359 . S
C771 C773 1.394 . S
C772 C771 1.359 . S
C772 C774 1.391 . S
C772 H775 0.929 . S
C773 H755 0.930 . S
C773 N769 1.334 . S
C773 C771 1.394 . S
C774 C770 1.413 . S
C774 C772 1.391 . S
C774 C789 1.437 . S
H775 C772 0.929 . S
O776 Gd732 2.545 . S
O776 C791 1.258 . S
O777 Gd732 2.606 . S
O777 Gd733 2.362 . S
O777 C788 1.284 . S
O778 Gd733 2.324 . S
O778 C798 1.254 . S
O779 Gd732 2.429 . S
O779 C798 1.268 . S
O780 Gd732 2.545 . S
O780 C788 1.250 . S
O781 Gd732 2.412 . S
O781 C791 1.252 . S
O782 Gd733 2.545 . S
O782 C800 1.258 . S
O783 Gd732 2.362 . S
O783 Gd733 2.606 . S
O783 C799 1.284 . S
O784 Gd732 2.324 . S
O784 C807 1.254 . S
O785 Gd733 2.429 . S
O785 C807 1.268 . S
O786 Gd733 2.545 . S
O786 C799 1.250 . S
O787 Gd733 2.412 . S
O787 C800 1.252 . S
C788 O777 1.284 . S
C788 O780 1.250 . S
C789 H758 0.929 . S
C789 C774 1.437 . S
C789 C790 1.317 . S
C790 H761 0.930 . S
C790 C766 1.431 . S
C790 C789 1.317 . S
C791 Gd732 2.828 . S
C791 O776 1.258 . S
C791 O781 1.252 . S
C791 C792 1.497 . S
C792 C791 1.497 . S
C792 C793 1.395 . S
C792 C794 1.380 . S
C793 C792 1.395 . S
C793 C796 1.398 . S
C793 H808 0.930 . S
C794 C792 1.380 . S
C794 C795 1.391 . S
C794 H809 0.930 . S
C795 C794 1.391 . S
C795 C797 1.387 . S
C796 C793 1.398 . S
C796 C797 1.380 . S
C796 H810 0.930 . S
C797 C795 1.387 . S
C797 C796 1.380 . S
C797 H811 0.930 . S
C798 O778 1.254 . S
C798 O779 1.268 . S
C799 O783 1.284 . S
C799 O786 1.250 . S
C800 Gd733 2.828 . S
C800 O782 1.258 . S
C800 O787 1.252 . S
C800 C801 1.497 . S
C801 C800 1.497 . S
C801 C802 1.395 . S
C801 C803 1.380 . S
C802 C801 1.395 . S
C802 C805 1.398 . S
C802 H812 0.930 . S
C803 C801 1.380 . S
C803 C804 1.391 . S
C803 H813 0.930 . S
C804 C803 1.391 . S
C804 C806 1.387 . S
C805 C802 1.398 . S
C805 C806 1.380 . S
C805 H814 0.930 . S
C806 C804 1.387 . S
C806 C805 1.380 . S
C806 H815 0.930 . S
C807 O784 1.254 . S
C807 O785 1.268 . S
H808 C793 0.930 . S
H809 C794 0.930 . S
H810 C796 0.930 . S
H811 C797 0.930 . S
H812 C802 0.930 . S
H813 C803 0.930 . S
H814 C805 0.930 . S
H815 C806 0.930 . S
Gd816 N847 2.661 . S
Gd816 N853 2.601 . S
Gd816 O860 2.545 . S
Gd816 O861 2.606 1_556 S
Gd816 O863 2.429 1_556 S
Gd816 O864 2.545 . S
Gd816 O865 2.412 . S
Gd816 O867 2.362 1_556 S
Gd816 O868 2.324 . S
Gd816 C875 2.828 . S
Gd817 N826 2.661 . S
Gd817 N830 2.601 . S
Gd817 O861 2.362 . S
Gd817 O862 2.324 . S
Gd817 O866 2.545 . S
Gd817 O867 2.606 . S
Gd817 O869 2.456 . S
Gd817 O870 2.545 . S
Gd817 O871 2.412 . S
Gd817 C884 2.828 . S
C818 C821 1.417 . S
C818 C823 1.431 . S
C818 C824 1.412 . S
C819 C822 1.437 . S
C819 C823 1.317 . S
C819 H838 0.929 . S
C820 C821 1.426 . S
C820 C822 1.413 . S
C820 N830 1.359 . S
C821 C818 1.417 . S
C821 C820 1.426 . S
C821 N826 1.350 . S
C822 C819 1.437 . S
C822 C820 1.413 . S
C822 C832 1.391 1_545 S
C823 C818 1.431 . S
C823 C819 1.317 . S
C823 H834 0.930 . S
C824 C818 1.412 . S
C824 C825 1.355 . S
C824 H836 0.930 . S
C825 C824 1.355 . S
C825 C827 1.402 . S
C825 H837 0.930 . S
N826 Gd817 2.661 . S
N826 C821 1.350 . S
N826 C827 1.307 . S
C827 C825 1.402 . S
C827 N826 1.307 . S
C827 H828 0.930 . S
H828 C827 0.930 . S
C829 N830 1.334 1_565 S
C829 C831 1.394 . S
C829 H833 0.930 . S
N830 Gd817 2.601 . S
N830 C820 1.359 . S
N830 C829 1.334 1_545 S
C831 C829 1.394 . S
C831 C832 1.359 . S
C831 H843 0.930 . S
C832 C822 1.391 1_565 S
C832 C831 1.359 . S
C832 H844 0.929 . S
H833 C829 0.930 . S
H834 C823 0.930 . S
H835 C852 0.900 1_565 S
H836 C824 0.930 . S
H837 C825 0.930 . S
H838 C819 0.929 . S
H839 C857 0.930 . S
H840 C848 0.930 . S
H841 C849 0.930 . S
H842 C873 0.929 . S
H843 C831 0.930 . S
H844 C832 0.929 . S
H845 C874 0.930 . S
H846 C855 0.930 . S
N847 Gd816 2.661 . S
N847 C851 1.350 . S
N847 C852 1.355 . S
C848 H840 0.930 . S
C848 C849 1.355 . S
C848 C850 1.412 1_565 S
C849 H841 0.930 . S
C849 C848 1.355 . S
C849 C852 1.384 1_565 S
C850 C848 1.412 1_545 S
C850 C851 1.417 . S
C850 C874 1.431 . S
C851 N847 1.350 . S
C851 C850 1.417 . S
C851 C854 1.426 . S
C852 H835 0.900 1_545 S
C852 N847 1.355 . S
C852 C849 1.384 1_545 S
N853 Gd816 2.601 . S
N853 C854 1.359 . S
N853 C857 1.334 . S
C854 C851 1.426 . S
C854 N853 1.359 . S
C854 C858 1.413 . S
C855 H846 0.930 . S
C855 C856 1.359 . S
C855 C857 1.394 . S
C856 C855 1.359 . S
C856 C858 1.391 . S
C856 H859 0.929 . S
C857 H839 0.930 . S
C857 N853 1.334 . S
C857 C855 1.394 . S
C858 C854 1.413 . S
C858 C856 1.391 . S
C858 C873 1.437 . S
H859 C856 0.929 . S
O860 Gd816 2.545 . S
O860 C875 1.258 . S
O861 Gd816 2.606 1_554 S
O861 Gd817 2.362 . S
O861 C872 1.284 . S
O862 Gd817 2.324 . S
O862 C882 1.254 . S
O863 Gd816 2.429 1_554 S
O863 C882 1.268 . S
O864 Gd816 2.545 . S
O864 C872 1.250 1_556 S
O865 Gd816 2.412 . S
O865 C875 1.252 . S
O866 Gd817 2.545 . S
O866 C884 1.258 . S
O867 Gd816 2.362 1_554 S
O867 Gd817 2.606 . S
O867 C883 1.284 . S
O868 Gd816 2.324 . S
O868 C891 1.254 . S
O869 Gd817 2.456 . S
O869 C891 1.279 1_554 S
O870 Gd817 2.545 . S
O870 C883 1.250 . S
O871 Gd817 2.412 . S
O871 C884 1.252 . S
C872 O861 1.284 . S
C872 O864 1.250 1_554 S
C873 H842 0.929 . S
C873 C858 1.437 . S
C873 C874 1.317 . S
C874 H845 0.930 . S
C874 C850 1.431 . S
C874 C873 1.317 . S
C875 Gd816 2.828 . S
C875 O860 1.258 . S
C875 O865 1.252 . S
C875 C876 1.497 . S
C876 C875 1.497 . S
C876 C877 1.395 . S
C876 C878 1.380 . S
C877 C876 1.395 . S
C877 C880 1.398 . S
C877 H892 0.930 . S
C878 C876 1.380 . S
C878 C879 1.391 . S
C878 H893 0.930 . S
C879 C878 1.391 . S
C879 C881 1.387 . S
C880 C877 1.398 . S
C880 C881 1.380 . S
C880 H894 0.930 . S
C881 C879 1.387 . S
C881 C880 1.380 . S
C881 H895 0.930 . S
C882 O862 1.254 . S
C882 O863 1.268 . S
C883 O867 1.284 . S
C883 O870 1.250 . S
C884 Gd817 2.828 . S
C884 O866 1.258 . S
C884 O871 1.252 . S
C884 C885 1.497 . S
C885 C884 1.497 . S
C885 C886 1.395 1_545 S
C885 C887 1.380 . S
C886 C885 1.395 1_565 S
C886 C889 1.398 . S
C886 H896 0.930 . S
C887 C885 1.380 . S
C887 C888 1.391 . S
C887 H897 0.930 . S
C888 C887 1.391 . S
C888 C890 1.392 1_545 S
C889 C886 1.398 . S
C889 C890 1.377 . S
C889 H898 0.930 . S
C890 C888 1.392 1_565 S
C890 C889 1.377 . S
C890 H899 0.929 . S
C891 O868 1.254 . S
C891 O869 1.279 1_556 S
H892 C877 0.930 . S
H893 C878 0.930 . S
H894 C880 0.930 . S
H895 C881 0.930 . S
H896 C886 0.930 . S
H897 C887 0.930 . S
H898 C889 0.930 . S
H899 C890 0.929 . S
Gd900 N931 2.661 . S
Gd900 N937 2.601 . S
Gd900 O944 2.545 . S
Gd900 O945 2.606 . S
Gd900 O947 2.429 . S
Gd900 O948 2.545 . S
Gd900 O949 2.412 . S
Gd900 O951 2.362 . S
Gd900 O952 2.324 . S
Gd900 C959 2.828 . S
Gd901 N910 2.661 . S
Gd901 N914 2.601 . S
Gd901 O945 2.362 . S
Gd901 O946 2.324 . S
Gd901 O950 2.545 . S
Gd901 O951 2.606 . S
Gd901 O953 2.429 . S
Gd901 O954 2.545 . S
Gd901 O955 2.412 . S
Gd901 C968 2.828 . S
C902 C905 1.417 . S
C902 C907 1.431 . S
C902 C908 1.412 . S
C903 C906 1.437 . S
C903 C907 1.317 . S
C903 H922 0.929 . S
C904 C905 1.426 . S
C904 C906 1.413 . S
C904 N914 1.359 . S
C905 C902 1.417 . S
C905 C904 1.426 . S
C905 N910 1.350 . S
C906 C903 1.437 . S
C906 C904 1.413 . S
C906 C916 1.391 . S
C907 C902 1.431 . S
C907 C903 1.317 . S
C907 H918 0.930 . S
C908 C902 1.412 . S
C908 C909 1.355 . S
C908 H920 0.930 . S
C909 C908 1.355 . S
C909 C911 1.402 . S
C909 H921 0.930 . S
N910 Gd901 2.661 . S
N910 C905 1.350 . S
N910 C911 1.307 . S
C911 C909 1.402 . S
C911 N910 1.307 . S
C911 H912 0.930 . S
H912 C911 0.930 . S
C913 N914 1.334 . S
C913 C915 1.394 . S
C913 H917 0.930 . S
N914 Gd901 2.601 . S
N914 C904 1.359 . S
N914 C913 1.334 . S
C915 C913 1.394 . S
C915 C916 1.359 . S
C915 H927 0.930 . S
C916 C906 1.391 . S
C916 C915 1.359 . S
C916 H928 0.929 . S
H917 C913 0.930 . S
H918 C907 0.930 . S
H919 C936 0.930 . S
H920 C908 0.930 . S
H921 C909 0.930 . S
H922 C903 0.929 . S
H923 C941 0.930 . S
H924 C932 0.930 . S
H925 C933 0.930 . S
H926 C957 0.929 . S
H927 C915 0.930 . S
H928 C916 0.929 . S
H929 C958 0.930 . S
H930 C939 0.930 . S
N931 Gd900 2.661 . S
N931 C935 1.350 . S
N931 C936 1.307 . S
C932 H924 0.930 . S
C932 C933 1.355 . S
C932 C934 1.412 . S
C933 H925 0.930 . S
C933 C932 1.355 . S
C933 C936 1.402 . S
C934 C932 1.412 . S
C934 C935 1.417 . S
C934 C958 1.431 . S
C935 N931 1.350 . S
C935 C934 1.417 . S
C935 C938 1.426 . S
C936 H919 0.930 . S
C936 N931 1.307 . S
C936 C933 1.402 . S
N937 Gd900 2.601 . S
N937 C938 1.359 . S
N937 C941 1.334 . S
C938 C935 1.426 . S
C938 N937 1.359 . S
C938 C942 1.413 . S
C939 H930 0.930 . S
C939 C940 1.359 . S
C939 C941 1.394 . S
C940 C939 1.359 . S
C940 C942 1.391 . S
C940 H943 0.929 . S
C941 H923 0.930 . S
C941 N937 1.334 . S
C941 C939 1.394 . S
C942 C938 1.413 . S
C942 C940 1.391 . S
C942 C957 1.437 . S
H943 C940 0.929 . S
O944 Gd900 2.545 . S
O944 C959 1.258 . S
O945 Gd900 2.606 . S
O945 Gd901 2.362 . S
O945 C956 1.284 . S
O946 Gd901 2.324 . S
O946 C966 1.254 . S
O947 Gd900 2.429 . S
O947 C966 1.268 . S
O948 Gd900 2.545 . S
O948 C956 1.250 . S
O949 Gd900 2.412 . S
O949 C959 1.252 . S
O950 Gd901 2.545 . S
O950 C968 1.258 . S
O951 Gd900 2.362 . S
O951 Gd901 2.606 . S
O951 C967 1.284 . S
O952 Gd900 2.324 . S
O952 C975 1.254 . S
O953 Gd901 2.429 . S
O953 C975 1.268 . S
O954 Gd901 2.545 . S
O954 C967 1.250 . S
O955 Gd901 2.412 . S
O955 C968 1.252 . S
C956 O945 1.284 . S
C956 O948 1.250 . S
C957 H926 0.929 . S
C957 C942 1.437 . S
C957 C958 1.317 . S
C958 H929 0.930 . S
C958 C934 1.431 . S
C958 C957 1.317 . S
C959 Gd900 2.828 . S
C959 O944 1.258 . S
C959 O949 1.252 . S
C959 C960 1.497 . S
C960 C959 1.497 . S
C960 C961 1.395 . S
C960 C962 1.380 . S
C961 C960 1.395 . S
C961 C964 1.398 . S
C961 H976 0.930 . S
C962 C960 1.380 . S
C962 C963 1.391 . S
C962 H977 0.930 . S
C963 C962 1.391 . S
C963 C965 1.387 . S
C964 C961 1.398 . S
C964 C965 1.380 . S
C964 H978 0.930 . S
C965 C963 1.387 . S
C965 C964 1.380 . S
C965 H979 0.930 . S
C966 O946 1.254 . S
C966 O947 1.268 . S
C967 O951 1.284 . S
C967 O954 1.250 . S
C968 Gd901 2.828 . S
C968 O950 1.258 . S
C968 O955 1.252 . S
C968 C969 1.497 . S
C969 C968 1.497 . S
C969 C970 1.395 . S
C969 C971 1.380 . S
C970 C969 1.395 . S
C970 C973 1.398 . S
C970 H980 0.930 . S
C971 C969 1.380 . S
C971 C972 1.391 . S
C971 H981 0.930 . S
C972 C971 1.391 . S
C972 C974 1.387 . S
C973 C970 1.398 . S
C973 C974 1.380 . S
C973 H982 0.930 . S
C974 C972 1.387 . S
C974 C973 1.380 . S
C974 H983 0.930 . S
C975 O952 1.254 . S
C975 O953 1.268 . S
H976 C961 0.930 . S
H977 C962 0.930 . S
H978 C964 0.930 . S
H979 C965 0.930 . S
H980 C970 0.930 . S
H981 C971 0.930 . S
H982 C973 0.930 . S
H983 C974 0.930 . S
Gd984 N1015 2.661 1_554 S
Gd984 N1021 2.601 1_554 S
Gd984 O1028 2.545 . S
Gd984 O1029 2.606 . S
Gd984 O1031 2.429 . S
Gd984 O1032 2.545 . S
Gd984 O1033 2.412 . S
Gd984 O1035 2.362 1_554 S
Gd984 O1036 2.324 . S
Gd984 C1043 2.828 . S
Gd985 N994 2.661 . S
Gd985 N998 2.601 . S
Gd985 O1029 2.362 . S
Gd985 O1030 2.324 . S
Gd985 O1034 2.545 . S
Gd985 O1035 2.606 1_554 S
Gd985 O1037 2.429 . S
Gd985 O1038 2.545 1_554 S
Gd985 O1039 2.412 . S
Gd985 C1052 2.828 . S
C986 C989 1.417 . S
C986 C991 1.431 . S
C986 C992 1.412 . S
C987 C990 1.437 . S
C987 C991 1.317 . S
C987 H1006 0.929 . S
C988 C989 1.426 . S
C988 C990 1.413 . S
C988 N998 1.359 . S
C989 C986 1.417 . S
C989 C988 1.426 . S
C989 N994 1.350 . S
C990 C987 1.437 . S
C990 C988 1.413 . S
C990 C1000 1.391 . S
C991 C986 1.431 . S
C991 C987 1.317 . S
C991 H1002 0.930 . S
C992 C986 1.412 . S
C992 C993 1.355 . S
C992 H1004 0.930 . S
C993 C992 1.355 . S
C993 C995 1.402 . S
C993 H1005 0.930 . S
N994 Gd985 2.661 . S
N994 C989 1.350 . S
N994 C995 1.307 . S
C995 C993 1.402 . S
C995 N994 1.307 . S
C995 H996 0.930 . S
H996 C995 0.930 . S
C997 N998 1.334 . S
C997 C999 1.394 . S
C997 H1001 0.930 . S
N998 Gd985 2.601 . S
N998 C988 1.359 . S
N998 C997 1.334 . S
C999 C997 1.394 . S
C999 C1000 1.359 . S
C999 H1011 0.930 . S
C1000 C990 1.391 . S
C1000 C999 1.359 . S
C1000 H1012 0.929 . S
H1001 C997 0.930 . S
H1002 C991 0.930 . S
H1003 C1020 0.930 . S
H1004 C992 0.930 . S
H1005 C993 0.930 . S
H1006 C987 0.929 . S
H1007 C1025 0.930 . S
H1008 C1016 0.930 . S
H1009 C1017 0.930 . S
H1010 C1041 0.929 . S
H1011 C999 0.930 . S
H1012 C1000 0.929 . S
H1013 C1042 0.930 . S
H1014 C1023 0.930 . S
N1015 Gd984 2.661 1_556 S
N1015 C1019 1.350 . S
N1015 C1020 1.307 . S
C1016 H1008 0.930 . S
C1016 C1017 1.355 . S
C1016 C1018 1.412 . S
C1017 H1009 0.930 . S
C1017 C1016 1.355 . S
C1017 C1020 1.402 . S
C1018 C1016 1.412 . S
C1018 C1019 1.417 . S
C1018 C1042 1.431 . S
C1019 N1015 1.350 . S
C1019 C1018 1.417 . S
C1019 C1022 1.426 . S
C1020 H1003 0.930 . S
C1020 N1015 1.307 . S
C1020 C1017 1.402 . S
N1021 Gd984 2.601 1_556 S
N1021 C1022 1.359 . S
N1021 C1025 1.334 . S
C1022 C1019 1.426 . S
C1022 N1021 1.359 . S
C1022 C1026 1.413 . S
C1023 H1014 0.930 . S
C1023 C1024 1.359 . S
C1023 C1025 1.394 . S
C1024 C1023 1.359 . S
C1024 C1026 1.391 . S
C1024 H1027 0.929 . S
C1025 H1007 0.930 . S
C1025 N1021 1.334 . S
C1025 C1023 1.394 . S
C1026 C1022 1.413 . S
C1026 C1024 1.391 . S
C1026 C1041 1.437 . S
H1027 C1024 0.929 . S
O1028 Gd984 2.545 . S
O1028 C1043 1.258 . S
O1029 Gd984 2.606 . S
O1029 Gd985 2.362 . S
O1029 C1040 1.284 . S
O1030 Gd985 2.324 . S
O1030 C1050 1.254 . S
O1031 Gd984 2.429 . S
O1031 C1050 1.268 . S
O1032 Gd984 2.545 . S
O1032 C1040 1.250 . S
O1033 Gd984 2.412 . S
O1033 C1043 1.252 . S
O1034 Gd985 2.545 . S
O1034 C1052 1.258 . S
O1035 Gd984 2.362 1_556 S
O1035 Gd985 2.606 1_556 S
O1035 C1051 1.284 . S
O1036 Gd984 2.324 . S
O1036 C1059 1.254 . S
O1037 Gd985 2.429 . S
O1037 C1059 1.268 . S
O1038 Gd985 2.545 1_556 S
O1038 C1051 1.250 . S
O1039 Gd985 2.412 . S
O1039 C1052 1.252 . S
C1040 O1029 1.284 . S
C1040 O1032 1.250 . S
C1041 H1010 0.929 . S
C1041 C1026 1.437 . S
C1041 C1042 1.317 . S
C1042 H1013 0.930 . S
C1042 C1018 1.431 . S
C1042 C1041 1.317 . S
C1043 Gd984 2.828 . S
C1043 O1028 1.258 . S
C1043 O1033 1.252 . S
C1043 C1044 1.497 . S
C1044 C1043 1.497 . S
C1044 C1045 1.395 . S
C1044 C1046 1.380 . S
C1045 C1044 1.395 . S
C1045 C1048 1.398 . S
C1045 H1060 0.930 1_554 S
C1046 C1044 1.380 . S
C1046 C1047 1.391 . S
C1046 H1061 0.930 . S
C1047 C1046 1.391 . S
C1047 C1049 1.387 . S
C1048 C1045 1.398 . S
C1048 C1049 1.380 . S
C1048 H1062 0.930 . S
C1049 C1047 1.387 . S
C1049 C1048 1.380 . S
C1049 H1063 0.930 . S
C1050 O1030 1.254 . S
C1050 O1031 1.268 . S
C1051 O1035 1.284 . S
C1051 O1038 1.250 . S
C1052 Gd985 2.828 . S
C1052 O1034 1.258 . S
C1052 O1039 1.252 . S
C1052 C1053 1.497 . S
C1053 C1052 1.497 . S
C1053 C1054 1.395 . S
C1053 C1055 1.380 1_554 S
C1054 C1053 1.395 . S
C1054 C1057 1.398 . S
C1054 H1064 0.930 . S
C1055 C1053 1.380 1_556 S
C1055 C1056 1.391 . S
C1055 H1065 0.930 . S
C1056 C1055 1.391 . S
C1056 C1058 1.387 . S
C1057 C1054 1.398 . S
C1057 C1058 1.380 1_554 S
C1057 H1066 0.930 . S
C1058 C1056 1.387 . S
C1058 C1057 1.380 1_556 S
C1058 H1067 0.930 . S
C1059 O1036 1.254 . S
C1059 O1037 1.268 . S
H1060 C1045 0.930 1_556 S
H1061 C1046 0.930 . S
H1062 C1048 0.930 . S
H1063 C1049 0.930 . S
H1064 C1054 0.930 . S
H1065 C1055 0.930 . S
H1066 C1057 0.930 . S
H1067 C1058 0.930 . S
Gd1068 N1099 2.661 . S
Gd1068 N1105 2.601 . S
Gd1068 O1112 2.545 . S
Gd1068 O1113 2.606 . S
Gd1068 O1115 2.429 . S
Gd1068 O1116 2.545 . S
Gd1068 O1117 2.412 . S
Gd1068 O1119 2.362 . S
Gd1068 O1120 2.324 . S
Gd1068 C1127 2.828 . S
Gd1069 N1078 2.661 . S
Gd1069 N1082 2.601 . S
Gd1069 O1113 2.362 . S
Gd1069 O1114 2.324 . S
Gd1069 O1118 2.545 . S
Gd1069 O1119 2.606 . S
Gd1069 O1121 2.429 . S
Gd1069 O1122 2.545 . S
Gd1069 O1123 2.412 . S
Gd1069 C1136 2.828 . S
C1070 C1073 1.417 . S
C1070 C1075 1.431 . S
C1070 C1076 1.412 . S
C1071 C1074 1.437 . S
C1071 C1075 1.317 . S
C1071 H1090 0.929 . S
C1072 C1073 1.426 . S
C1072 C1074 1.413 . S
C1072 N1082 1.359 . S
C1073 C1070 1.417 . S
C1073 C1072 1.426 . S
C1073 N1078 1.350 . S
C1074 C1071 1.437 . S
C1074 C1072 1.413 . S
C1074 C1084 1.391 . S
C1075 C1070 1.431 . S
C1075 C1071 1.317 . S
C1075 H1086 0.930 . S
C1076 C1070 1.412 . S
C1076 C1077 1.355 . S
C1076 H1088 0.930 . S
C1077 C1076 1.355 . S
C1077 C1079 1.402 . S
C1077 H1089 0.930 . S
N1078 Gd1069 2.661 . S
N1078 C1073 1.350 . S
N1078 C1079 1.307 . S
C1079 C1077 1.402 . S
C1079 N1078 1.307 . S
C1079 H1080 0.930 . S
H1080 C1079 0.930 . S
C1081 N1082 1.334 . S
C1081 C1083 1.394 . S
C1081 H1085 0.930 . S
N1082 Gd1069 2.601 . S
N1082 C1072 1.359 . S
N1082 C1081 1.334 . S
C1083 C1081 1.394 . S
C1083 C1084 1.359 . S
C1083 H1095 0.930 . S
C1084 C1074 1.391 . S
C1084 C1083 1.359 . S
C1084 H1096 0.929 . S
H1085 C1081 0.930 . S
H1086 C1075 0.930 . S
H1087 C1104 0.930 . S
H1088 C1076 0.930 . S
H1089 C1077 0.930 . S
H1090 C1071 0.929 . S
H1091 C1109 0.930 . S
H1092 C1100 0.930 . S
H1093 C1101 0.930 . S
H1094 C1125 0.929 . S
H1095 C1083 0.930 . S
H1096 C1084 0.929 . S
H1097 C1126 0.930 . S
H1098 C1107 0.930 . S
N1099 Gd1068 2.661 . S
N1099 C1103 1.350 . S
N1099 C1104 1.307 . S
C1100 H1092 0.930 . S
C1100 C1101 1.355 . S
C1100 C1102 1.412 . S
C1101 H1093 0.930 . S
C1101 C1100 1.355 . S
C1101 C1104 1.402 . S
C1102 C1100 1.412 . S
C1102 C1103 1.417 . S
C1102 C1126 1.431 . S
C1103 N1099 1.350 . S
C1103 C1102 1.417 . S
C1103 C1106 1.426 . S
C1104 H1087 0.930 . S
C1104 N1099 1.307 . S
C1104 C1101 1.402 . S
N1105 Gd1068 2.601 . S
N1105 C1106 1.359 . S
N1105 C1109 1.334 . S
C1106 C1103 1.426 . S
C1106 N1105 1.359 . S
C1106 C1110 1.413 . S
C1107 H1098 0.930 . S
C1107 C1108 1.359 . S
C1107 C1109 1.394 . S
C1108 C1107 1.359 . S
C1108 C1110 1.391 . S
C1108 H1111 0.929 . S
C1109 H1091 0.930 . S
C1109 N1105 1.334 . S
C1109 C1107 1.394 . S
C1110 C1106 1.413 . S
C1110 C1108 1.391 . S
C1110 C1125 1.437 . S
H1111 C1108 0.929 . S
O1112 Gd1068 2.545 . S
O1112 C1127 1.258 . S
O1113 Gd1068 2.606 . S
O1113 Gd1069 2.362 . S
O1113 C1124 1.284 . S
O1114 Gd1069 2.324 . S
O1114 C1134 1.254 . S
O1115 Gd1068 2.429 . S
O1115 C1134 1.268 . S
O1116 Gd1068 2.545 . S
O1116 C1124 1.250 . S
O1117 Gd1068 2.412 . S
O1117 C1127 1.252 . S
O1118 Gd1069 2.545 . S
O1118 C1136 1.258 . S
O1119 Gd1068 2.362 . S
O1119 Gd1069 2.606 . S
O1119 C1135 1.284 . S
O1120 Gd1068 2.324 . S
O1120 C1143 1.254 . S
O1121 Gd1069 2.429 . S
O1121 C1143 1.268 . S
O1122 Gd1069 2.545 . S
O1122 C1135 1.250 . S
O1123 Gd1069 2.412 . S
O1123 C1136 1.252 . S
C1124 O1113 1.284 . S
C1124 O1116 1.250 . S
C1125 H1094 0.929 . S
C1125 C1110 1.437 . S
C1125 C1126 1.317 . S
C1126 H1097 0.930 . S
C1126 C1102 1.431 . S
C1126 C1125 1.317 . S
C1127 Gd1068 2.828 . S
C1127 O1112 1.258 . S
C1127 O1117 1.252 . S
C1127 C1128 1.497 . S
C1128 C1127 1.497 . S
C1128 C1129 1.395 . S
C1128 C1130 1.380 . S
C1129 C1128 1.395 . S
C1129 C1132 1.398 . S
C1129 H1144 0.930 . S
C1130 C1128 1.380 . S
C1130 C1131 1.391 . S
C1130 H1145 0.930 . S
C1131 C1130 1.391 . S
C1131 C1133 1.387 . S
C1132 C1129 1.398 . S
C1132 C1133 1.380 . S
C1132 H1146 0.930 . S
C1133 C1131 1.387 . S
C1133 C1132 1.380 . S
C1133 H1147 0.930 . S
C1134 O1114 1.254 . S
C1134 O1115 1.268 . S
C1135 O1119 1.284 . S
C1135 O1122 1.250 . S
C1136 Gd1069 2.828 . S
C1136 O1118 1.258 . S
C1136 O1123 1.252 . S
C1136 C1137 1.497 . S
C1137 C1136 1.497 . S
C1137 C1138 1.395 . S
C1137 C1139 1.380 . S
C1138 C1137 1.395 . S
C1138 C1141 1.398 . S
C1138 H1148 0.930 . S
C1139 C1137 1.380 . S
C1139 C1140 1.391 . S
C1139 H1149 0.930 . S
C1140 C1139 1.391 . S
C1140 C1142 1.387 . S
C1141 C1138 1.398 . S
C1141 C1142 1.380 . S
C1141 H1150 0.930 . S
C1142 C1140 1.387 . S
C1142 C1141 1.380 . S
C1142 H1151 0.930 . S
C1143 O1120 1.254 . S
C1143 O1121 1.268 . S
H1144 C1129 0.930 . S
H1145 C1130 0.930 . S
H1146 C1132 0.930 . S
H1147 C1133 0.930 . S
H1148 C1138 0.930 . S
H1149 C1139 0.930 . S
H1150 C1141 0.930 . S
H1151 C1142 0.930 . S
Gd1152 N1183 2.661 . S
Gd1152 N1189 2.601 . S
Gd1152 O1196 2.545 . S
Gd1152 O1197 2.606 . S
Gd1152 O1199 2.429 . S
Gd1152 O1200 2.545 . S
Gd1152 O1201 2.412 . S
Gd1152 O1203 2.362 . S
Gd1152 O1204 2.324 . S
Gd1152 C1211 2.828 . S
Gd1153 N1162 2.661 . S
Gd1153 N1166 2.601 . S
Gd1153 O1197 2.362 . S
Gd1153 O1198 2.324 . S
Gd1153 O1202 2.545 . S
Gd1153 O1203 2.606 . S
Gd1153 O1205 2.429 . S
Gd1153 O1206 2.545 . S
Gd1153 O1207 2.412 . S
Gd1153 C1220 2.828 . S
C1154 C1157 1.417 . S
C1154 C1159 1.431 . S
C1154 C1160 1.412 . S
C1155 C1158 1.437 . S
C1155 C1159 1.317 . S
C1155 H1174 0.929 . S
C1156 C1157 1.426 . S
C1156 C1158 1.413 . S
C1156 N1166 1.359 . S
C1157 C1154 1.417 . S
C1157 C1156 1.426 . S
C1157 N1162 1.350 . S
C1158 C1155 1.437 . S
C1158 C1156 1.413 . S
C1158 C1168 1.391 . S
C1159 C1154 1.431 . S
C1159 C1155 1.317 . S
C1159 H1170 0.930 . S
C1160 C1154 1.412 . S
C1160 C1161 1.355 . S
C1160 H1172 0.930 . S
C1161 C1160 1.355 . S
C1161 C1163 1.402 . S
C1161 H1173 0.930 . S
N1162 Gd1153 2.661 . S
N1162 C1157 1.350 . S
N1162 C1163 1.307 . S
C1163 C1161 1.402 . S
C1163 N1162 1.307 . S
C1163 H1164 0.930 . S
H1164 C1163 0.930 . S
C1165 N1166 1.334 . S
C1165 C1167 1.394 . S
C1165 H1169 0.930 . S
N1166 Gd1153 2.601 . S
N1166 C1156 1.359 . S
N1166 C1165 1.334 . S
C1167 C1165 1.394 . S
C1167 C1168 1.359 . S
C1167 H1179 0.930 . S
C1168 C1158 1.391 . S
C1168 C1167 1.359 . S
C1168 H1180 0.929 . S
H1169 C1165 0.930 . S
H1170 C1159 0.930 . S
H1171 C1188 0.930 . S
H1172 C1160 0.930 . S
H1173 C1161 0.930 . S
H1174 C1155 0.929 . S
H1175 C1193 0.930 . S
H1176 C1184 0.930 . S
H1177 C1185 0.930 . S
H1178 C1209 0.929 . S
H1179 C1167 0.930 . S
H1180 C1168 0.929 . S
H1181 C1210 0.930 . S
H1182 C1191 0.930 . S
N1183 Gd1152 2.661 . S
N1183 C1187 1.350 1_455 S
N1183 C1188 1.307 . S
C1184 H1176 0.930 . S
C1184 C1185 1.355 . S
C1184 C1186 1.412 . S
C1185 H1177 0.930 . S
C1185 C1184 1.355 . S
C1185 C1188 1.402 1_655 S
C1186 C1184 1.412 . S
C1186 C1187 1.417 . S
C1186 C1210 1.431 . S
C1187 N1183 1.350 1_655 S
C1187 C1186 1.417 . S
C1187 C1190 1.426 . S
C1188 H1171 0.930 . S
C1188 N1183 1.307 . S
C1188 C1185 1.402 1_455 S
N1189 Gd1152 2.601 . S
N1189 C1190 1.359 1_455 S
N1189 C1193 1.334 . S
C1190 C1187 1.426 . S
C1190 N1189 1.359 1_655 S
C1190 C1194 1.413 . S
C1191 H1182 0.930 . S
C1191 C1192 1.359 . S
C1191 C1193 1.394 1_655 S
C1192 C1191 1.359 . S
C1192 C1194 1.391 . S
C1192 H1195 0.929 . S
C1193 H1175 0.930 . S
C1193 N1189 1.334 . S
C1193 C1191 1.394 1_455 S
C1194 C1190 1.413 . S
C1194 C1192 1.391 . S
C1194 C1209 1.437 . S
H1195 C1192 0.929 . S
O1196 Gd1152 2.545 . S
O1196 C1211 1.258 . S
O1197 Gd1152 2.606 . S
O1197 Gd1153 2.362 . S
O1197 C1208 1.284 . S
O1198 Gd1153 2.324 . S
O1198 C1218 1.254 . S
O1199 Gd1152 2.429 . S
O1199 C1218 1.268 . S
O1200 Gd1152 2.545 . S
O1200 C1208 1.250 . S
O1201 Gd1152 2.412 . S
O1201 C1211 1.252 . S
O1202 Gd1153 2.545 . S
O1202 C1220 1.258 . S
O1203 Gd1152 2.362 . S
O1203 Gd1153 2.606 . S
O1203 C1219 1.284 . S
O1204 Gd1152 2.324 . S
O1204 C1227 1.254 . S
O1205 Gd1153 2.429 . S
O1205 C1227 1.268 . S
O1206 Gd1153 2.545 . S
O1206 C1219 1.250 . S
O1207 Gd1153 2.412 . S
O1207 C1220 1.252 . S
C1208 O1197 1.284 . S
C1208 O1200 1.250 . S
C1209 H1178 0.929 . S
C1209 C1194 1.437 . S
C1209 C1210 1.317 . S
C1210 H1181 0.930 . S
C1210 C1186 1.431 . S
C1210 C1209 1.317 . S
C1211 Gd1152 2.828 . S
C1211 O1196 1.258 . S
C1211 O1201 1.252 . S
C1211 C1212 1.497 . S
C1212 C1211 1.497 . S
C1212 C1213 1.395 . S
C1212 C1214 1.380 . S
C1213 C1212 1.395 . S
C1213 C1216 1.398 . S
C1213 H1228 0.930 . S
C1214 C1212 1.380 . S
C1214 C1215 1.391 . S
C1214 H1229 0.930 . S
C1215 C1214 1.391 . S
C1215 C1217 1.387 . S
C1216 C1213 1.398 . S
C1216 C1217 1.380 . S
C1216 H1230 0.930 . S
C1217 C1215 1.387 . S
C1217 C1216 1.380 . S
C1217 H1231 0.930 . S
C1218 O1198 1.254 . S
C1218 O1199 1.268 . S
C1219 O1203 1.284 . S
C1219 O1206 1.250 . S
C1220 Gd1153 2.828 . S
C1220 O1202 1.258 . S
C1220 O1207 1.252 . S
C1220 C1221 1.497 . S
C1221 C1220 1.497 . S
C1221 C1222 1.395 . S
C1221 C1223 1.380 . S
C1222 C1221 1.395 . S
C1222 C1225 1.398 . S
C1222 H1232 0.930 . S
C1223 C1221 1.380 . S
C1223 C1224 1.391 1_455 S
C1223 H1233 0.930 . S
C1224 C1223 1.391 1_655 S
C1224 C1226 1.387 . S
C1225 C1222 1.398 . S
C1225 C1226 1.380 1_455 S
C1225 H1234 0.930 . S
C1226 C1224 1.387 . S
C1226 C1225 1.380 1_655 S
C1226 H1235 0.930 . S
C1227 O1204 1.254 . S
C1227 O1205 1.268 . S
H1228 C1213 0.930 . S
H1229 C1214 0.930 . S
H1230 C1216 0.930 . S
H1231 C1217 0.930 . S
H1232 C1222 0.930 . S
H1233 C1223 0.930 . S
H1234 C1225 0.930 . S
H1235 C1226 0.930 . S
Gd1236 N1267 2.661 . S
Gd1236 N1273 2.601 . S
Gd1236 O1280 2.545 . S
Gd1236 O1281 2.606 . S
Gd1236 O1283 2.429 . S
Gd1236 O1284 2.545 . S
Gd1236 O1285 2.412 . S
Gd1236 O1287 2.362 . S
Gd1236 O1288 2.324 . S
Gd1236 C1295 2.828 . S
Gd1237 N1246 2.661 . S
Gd1237 N1250 2.601 . S
Gd1237 O1281 2.362 . S
Gd1237 O1282 2.324 . S
Gd1237 O1286 2.545 . S
Gd1237 O1287 2.606 . S
Gd1237 O1289 2.429 . S
Gd1237 O1290 2.545 . S
Gd1237 O1291 2.412 . S
Gd1237 C1304 2.828 . S
C1238 C1241 1.417 . S
C1238 C1243 1.431 . S
C1238 C1244 1.412 . S
C1239 C1242 1.437 . S
C1239 C1243 1.317 . S
C1239 H1258 0.929 . S
C1240 C1241 1.426 . S
C1240 C1242 1.413 . S
C1240 N1250 1.359 . S
C1241 C1238 1.417 . S
C1241 C1240 1.426 . S
C1241 N1246 1.350 . S
C1242 C1239 1.437 . S
C1242 C1240 1.413 . S
C1242 C1252 1.391 . S
C1243 C1238 1.431 . S
C1243 C1239 1.317 . S
C1243 H1254 0.930 . S
C1244 C1238 1.412 . S
C1244 C1245 1.355 . S
C1244 H1256 0.930 . S
C1245 C1244 1.355 . S
C1245 C1247 1.402 . S
C1245 H1257 0.930 . S
N1246 Gd1237 2.661 . S
N1246 C1241 1.350 . S
N1246 C1247 1.307 . S
C1247 C1245 1.402 . S
C1247 N1246 1.307 . S
C1247 H1248 0.930 . S
H1248 C1247 0.930 . S
C1249 N1250 1.334 . S
C1249 C1251 1.394 . S
C1249 H1253 0.930 . S
N1250 Gd1237 2.601 . S
N1250 C1240 1.359 . S
N1250 C1249 1.334 . S
C1251 C1249 1.394 . S
C1251 C1252 1.359 . S
C1251 H1263 0.930 . S
C1252 C1242 1.391 . S
C1252 C1251 1.359 . S
C1252 H1264 0.929 . S
H1253 C1249 0.930 . S
H1254 C1243 0.930 . S
H1255 C1272 0.930 . S
H1256 C1244 0.930 . S
H1257 C1245 0.930 . S
H1258 C1239 0.929 . S
H1259 C1277 0.930 . S
H1260 C1268 0.930 . S
H1261 C1269 0.930 . S
H1262 C1293 0.929 . S
H1263 C1251 0.930 . S
H1264 C1252 0.929 . S
H1265 C1294 0.930 . S
H1266 C1275 0.930 . S
N1267 Gd1236 2.661 . S
N1267 C1271 1.350 . S
N1267 C1272 1.307 . S
C1268 H1260 0.930 . S
C1268 C1269 1.355 . S
C1268 C1270 1.412 . S
C1269 H1261 0.930 . S
C1269 C1268 1.355 . S
C1269 C1272 1.402 . S
C1270 C1268 1.412 . S
C1270 C1271 1.417 . S
C1270 C1294 1.431 . S
C1271 N1267 1.350 . S
C1271 C1270 1.417 . S
C1271 C1274 1.426 . S
C1272 H1255 0.930 . S
C1272 N1267 1.307 . S
C1272 C1269 1.402 . S
N1273 Gd1236 2.601 . S
N1273 C1274 1.359 . S
N1273 C1277 1.334 . S
C1274 C1271 1.426 . S
C1274 N1273 1.359 . S
C1274 C1278 1.413 . S
C1275 H1266 0.930 . S
C1275 C1276 1.359 . S
C1275 C1277 1.394 . S
C1276 C1275 1.359 . S
C1276 C1278 1.391 . S
C1276 H1279 0.929 . S
C1277 H1259 0.930 . S
C1277 N1273 1.334 . S
C1277 C1275 1.394 . S
C1278 C1274 1.413 . S
C1278 C1276 1.391 . S
C1278 C1293 1.437 . S
H1279 C1276 0.929 . S
O1280 Gd1236 2.545 . S
O1280 C1295 1.258 . S
O1281 Gd1236 2.606 . S
O1281 Gd1237 2.362 . S
O1281 C1292 1.284 . S
O1282 Gd1237 2.324 . S
O1282 C1302 1.254 . S
O1283 Gd1236 2.429 . S
O1283 C1302 1.268 . S
O1284 Gd1236 2.545 . S
O1284 C1292 1.250 . S
O1285 Gd1236 2.412 . S
O1285 C1295 1.252 . S
O1286 Gd1237 2.545 . S
O1286 C1304 1.258 . S
O1287 Gd1236 2.362 . S
O1287 Gd1237 2.606 . S
O1287 C1303 1.284 . S
O1288 Gd1236 2.324 . S
O1288 C1311 1.254 . S
O1289 Gd1237 2.429 . S
O1289 C1311 1.268 . S
O1290 Gd1237 2.545 . S
O1290 C1303 1.250 . S
O1291 Gd1237 2.412 . S
O1291 C1304 1.252 . S
C1292 O1281 1.284 . S
C1292 O1284 1.250 . S
C1293 H1262 0.929 . S
C1293 C1278 1.437 . S
C1293 C1294 1.317 . S
C1294 H1265 0.930 . S
C1294 C1270 1.431 . S
C1294 C1293 1.317 . S
C1295 Gd1236 2.828 . S
C1295 O1280 1.258 . S
C1295 O1285 1.252 . S
C1295 C1296 1.497 . S
C1296 C1295 1.497 . S
C1296 C1297 1.395 . S
C1296 C1298 1.380 . S
C1297 C1296 1.395 . S
C1297 C1300 1.398 . S
C1297 H1312 0.930 . S
C1298 C1296 1.380 . S
C1298 C1299 1.391 . S
C1298 H1313 0.930 . S
C1299 C1298 1.391 . S
C1299 C1301 1.387 . S
C1300 C1297 1.398 . S
C1300 C1301 1.380 . S
C1300 H1314 0.930 . S
C1301 C1299 1.387 . S
C1301 C1300 1.380 . S
C1301 H1315 0.930 . S
C1302 O1282 1.254 . S
C1302 O1283 1.268 . S
C1303 O1287 1.284 . S
C1303 O1290 1.250 . S
C1304 Gd1237 2.828 . S
C1304 O1286 1.258 . S
C1304 O1291 1.252 . S
C1304 C1305 1.497 . S
C1305 C1304 1.497 . S
C1305 C1306 1.395 . S
C1305 C1307 1.380 . S
C1306 C1305 1.395 . S
C1306 C1309 1.398 . S
C1306 H1316 0.930 . S
C1307 C1305 1.380 . S
C1307 C1308 1.391 . S
C1307 H1317 0.930 . S
C1308 C1307 1.391 . S
C1308 C1310 1.387 . S
C1309 C1306 1.398 . S
C1309 C1310 1.380 . S
C1309 H1318 0.930 . S
C1310 C1308 1.387 . S
C1310 C1309 1.380 . S
C1310 H1319 0.930 . S
C1311 O1288 1.254 . S
C1311 O1289 1.268 . S
H1312 C1297 0.930 . S
H1313 C1298 0.930 . S
H1314 C1300 0.930 . S
H1315 C1301 0.930 . S
H1316 C1306 0.930 . S
H1317 C1307 0.930 . S
H1318 C1309 0.930 . S
H1319 C1310 0.930 . S
Gd1320 N1351 2.661 . S
Gd1320 N1357 2.601 . S
Gd1320 O1364 2.545 . S
Gd1320 O1365 2.606 . S
Gd1320 O1367 2.429 . S
Gd1320 O1368 2.545 . S
Gd1320 O1369 2.412 . S
Gd1320 O1371 2.362 . S
Gd1320 O1372 2.324 . S
Gd1320 C1379 2.828 . S
Gd1321 N1330 2.661 . S
Gd1321 N1334 2.601 . S
Gd1321 O1365 2.362 . S
Gd1321 O1366 2.324 . S
Gd1321 O1370 2.545 . S
Gd1321 O1371 2.606 . S
Gd1321 O1373 2.429 . S
Gd1321 O1374 2.545 . S
Gd1321 O1375 2.412 . S
Gd1321 C1388 2.828 . S
C1322 C1325 1.417 . S
C1322 C1327 1.431 . S
C1322 C1328 1.412 . S
C1323 C1326 1.437 . S
C1323 C1327 1.317 . S
C1323 H1342 0.929 . S
C1324 C1325 1.426 . S
C1324 C1326 1.413 . S
C1324 N1334 1.359 . S
C1325 C1322 1.417 . S
C1325 C1324 1.426 . S
C1325 N1330 1.350 . S
C1326 C1323 1.437 . S
C1326 C1324 1.413 . S
C1326 C1336 1.391 . S
C1327 C1322 1.431 . S
C1327 C1323 1.317 . S
C1327 H1338 0.930 . S
C1328 C1322 1.412 . S
C1328 C1329 1.355 . S
C1328 H1340 0.930 . S
C1329 C1328 1.355 . S
C1329 C1331 1.402 . S
C1329 H1341 0.930 . S
N1330 Gd1321 2.661 . S
N1330 C1325 1.350 . S
N1330 C1331 1.307 . S
C1331 C1329 1.402 . S
C1331 N1330 1.307 . S
C1331 H1332 0.930 . S
H1332 C1331 0.930 . S
C1333 N1334 1.334 . S
C1333 C1335 1.394 . S
C1333 H1337 0.930 . S
N1334 Gd1321 2.601 . S
N1334 C1324 1.359 . S
N1334 C1333 1.334 . S
C1335 C1333 1.394 . S
C1335 C1336 1.359 . S
C1335 H1347 0.930 . S
C1336 C1326 1.391 . S
C1336 C1335 1.359 . S
C1336 H1348 0.929 . S
H1337 C1333 0.930 . S
H1338 C1327 0.930 . S
H1339 C1356 0.930 . S
H1340 C1328 0.930 . S
H1341 C1329 0.930 . S
H1342 C1323 0.929 . S
H1343 C1361 0.930 . S
H1344 C1352 0.930 . S
H1345 C1353 0.930 . S
H1346 C1377 0.929 . S
H1347 C1335 0.930 . S
H1348 C1336 0.929 . S
H1349 C1378 0.930 . S
H1350 C1359 0.930 . S
N1351 Gd1320 2.661 . S
N1351 C1355 1.350 . S
N1351 C1356 1.307 . S
C1352 H1344 0.930 . S
C1352 C1353 1.355 . S
C1352 C1354 1.412 . S
C1353 H1345 0.930 . S
C1353 C1352 1.355 . S
C1353 C1356 1.402 . S
C1354 C1352 1.412 . S
C1354 C1355 1.417 . S
C1354 C1378 1.431 . S
C1355 N1351 1.350 . S
C1355 C1354 1.417 . S
C1355 C1358 1.426 . S
C1356 H1339 0.930 . S
C1356 N1351 1.307 . S
C1356 C1353 1.402 . S
N1357 Gd1320 2.601 . S
N1357 C1358 1.359 . S
N1357 C1361 1.334 . S
C1358 C1355 1.426 . S
C1358 N1357 1.359 . S
C1358 C1362 1.413 . S
C1359 H1350 0.930 . S
C1359 C1360 1.359 . S
C1359 C1361 1.394 . S
C1360 C1359 1.359 . S
C1360 C1362 1.391 . S
C1360 H1363 0.929 . S
C1361 H1343 0.930 . S
C1361 N1357 1.334 . S
C1361 C1359 1.394 . S
C1362 C1358 1.413 . S
C1362 C1360 1.391 . S
C1362 C1377 1.437 . S
H1363 C1360 0.929 . S
O1364 Gd1320 2.545 . S
O1364 C1379 1.258 . S
O1365 Gd1320 2.606 . S
O1365 Gd1321 2.362 . S
O1365 C1376 1.284 . S
O1366 Gd1321 2.324 . S
O1366 C1386 1.254 . S
O1367 Gd1320 2.429 . S
O1367 C1386 1.268 . S
O1368 Gd1320 2.545 . S
O1368 C1376 1.250 . S
O1369 Gd1320 2.412 . S
O1369 C1379 1.252 . S
O1370 Gd1321 2.545 . S
O1370 C1388 1.258 . S
O1371 Gd1320 2.362 . S
O1371 Gd1321 2.606 . S
O1371 C1387 1.284 . S
O1372 Gd1320 2.324 . S
O1372 C1395 1.254 . S
O1373 Gd1321 2.429 . S
O1373 C1395 1.268 . S
O1374 Gd1321 2.545 . S
O1374 C1387 1.250 . S
O1375 Gd1321 2.412 . S
O1375 C1388 1.252 . S
C1376 O1365 1.284 . S
C1376 O1368 1.250 . S
C1377 H1346 0.929 . S
C1377 C1362 1.437 . S
C1377 C1378 1.317 . S
C1378 H1349 0.930 . S
C1378 C1354 1.431 . S
C1378 C1377 1.317 . S
C1379 Gd1320 2.828 . S
C1379 O1364 1.258 . S
C1379 O1369 1.252 . S
C1379 C1380 1.497 . S
C1380 C1379 1.497 . S
C1380 C1381 1.395 . S
C1380 C1382 1.380 . S
C1381 C1380 1.395 . S
C1381 C1384 1.398 . S
C1381 H1396 0.930 . S
C1382 C1380 1.380 . S
C1382 C1383 1.391 . S
C1382 H1397 0.930 . S
C1383 C1382 1.391 . S
C1383 C1385 1.387 . S
C1384 C1381 1.398 . S
C1384 C1385 1.380 . S
C1384 H1398 0.930 . S
C1385 C1383 1.387 . S
C1385 C1384 1.380 . S
C1385 H1399 0.930 . S
C1386 O1366 1.254 . S
C1386 O1367 1.268 . S
C1387 O1371 1.284 . S
C1387 O1374 1.250 . S
C1388 Gd1321 2.828 . S
C1388 O1370 1.258 . S
C1388 O1375 1.252 . S
C1388 C1389 1.497 . S
C1389 C1388 1.497 . S
C1389 C1390 1.395 . S
C1389 C1391 1.380 . S
C1390 C1389 1.395 . S
C1390 C1393 1.398 . S
C1390 H1400 0.930 . S
C1391 C1389 1.380 . S
C1391 C1392 1.391 . S
C1391 H1401 0.930 . S
C1392 C1391 1.391 . S
C1392 C1394 1.387 . S
C1393 C1390 1.398 . S
C1393 C1394 1.380 . S
C1393 H1402 0.930 . S
C1394 C1392 1.387 . S
C1394 C1393 1.380 . S
C1394 H1403 0.930 . S
C1395 O1372 1.254 . S
C1395 O1373 1.268 . S
H1396 C1381 0.930 . S
H1397 C1382 0.930 . S
H1398 C1384 0.930 . S
H1399 C1385 0.930 . S
H1400 C1390 0.930 . S
H1401 C1391 0.930 . S
H1402 C1393 0.930 . S
H1403 C1394 0.930 . S
Gd1404 N1435 2.661 . S
Gd1404 N1441 2.601 . S
Gd1404 O1448 2.545 . S
Gd1404 O1449 2.606 . S
Gd1404 O1451 2.429 . S
Gd1404 O1452 2.545 . S
Gd1404 O1453 2.412 . S
Gd1404 O1455 2.362 . S
Gd1404 O1456 2.324 . S
Gd1404 C1463 2.828 . S
Gd1405 N1414 2.661 . S
Gd1405 N1418 2.601 . S
Gd1405 O1449 2.362 . S
Gd1405 O1450 2.324 . S
Gd1405 O1454 2.545 . S
Gd1405 O1455 2.606 . S
Gd1405 O1457 2.429 . S
Gd1405 O1458 2.545 . S
Gd1405 O1459 2.412 . S
Gd1405 C1472 2.828 . S
C1406 C1409 1.417 . S
C1406 C1411 1.431 . S
C1406 C1412 1.412 . S
C1407 C1410 1.437 . S
C1407 C1411 1.317 . S
C1407 H1426 0.929 . S
C1408 C1409 1.426 . S
C1408 C1410 1.413 . S
C1408 N1418 1.359 . S
C1409 C1406 1.417 . S
C1409 C1408 1.426 . S
C1409 N1414 1.350 . S
C1410 C1407 1.437 . S
C1410 C1408 1.413 . S
C1410 C1420 1.391 . S
C1411 C1406 1.431 . S
C1411 C1407 1.317 . S
C1411 H1422 0.930 . S
C1412 C1406 1.412 . S
C1412 C1413 1.355 . S
C1412 H1424 0.930 . S
C1413 C1412 1.355 . S
C1413 C1415 1.402 . S
C1413 H1425 0.930 . S
N1414 Gd1405 2.661 . S
N1414 C1409 1.350 . S
N1414 C1415 1.307 . S
C1415 C1413 1.402 . S
C1415 N1414 1.307 . S
C1415 H1416 0.930 . S
H1416 C1415 0.930 . S
C1417 N1418 1.334 . S
C1417 C1419 1.394 . S
C1417 H1421 0.930 . S
N1418 Gd1405 2.601 . S
N1418 C1408 1.359 . S
N1418 C1417 1.334 . S
C1419 C1417 1.394 . S
C1419 C1420 1.359 . S
C1419 H1431 0.930 . S
C1420 C1410 1.391 . S
C1420 C1419 1.359 . S
C1420 H1432 0.929 . S
H1421 C1417 0.930 . S
H1422 C1411 0.930 . S
H1423 C1440 0.930 . S
H1424 C1412 0.930 . S
H1425 C1413 0.930 . S
H1426 C1407 0.929 . S
H1427 C1445 0.930 . S
H1428 C1436 0.930 . S
H1429 C1437 0.930 . S
H1430 C1461 0.929 . S
H1431 C1419 0.930 . S
H1432 C1420 0.929 . S
H1433 C1462 0.930 . S
H1434 C1443 0.930 . S
N1435 Gd1404 2.661 . S
N1435 C1439 1.350 . S
N1435 C1440 1.307 . S
C1436 H1428 0.930 . S
C1436 C1437 1.355 . S
C1436 C1438 1.412 . S
C1437 H1429 0.930 . S
C1437 C1436 1.355 . S
C1437 C1440 1.402 . S
C1438 C1436 1.412 . S
C1438 C1439 1.417 . S
C1438 C1462 1.431 . S
C1439 N1435 1.350 . S
C1439 C1438 1.417 . S
C1439 C1442 1.426 . S
C1440 H1423 0.930 . S
C1440 N1435 1.307 . S
C1440 C1437 1.402 . S
N1441 Gd1404 2.601 . S
N1441 C1442 1.359 . S
N1441 C1445 1.334 . S
C1442 C1439 1.426 . S
C1442 N1441 1.359 . S
C1442 C1446 1.413 . S
C1443 H1434 0.930 . S
C1443 C1444 1.359 . S
C1443 C1445 1.394 . S
C1444 C1443 1.359 . S
C1444 C1446 1.391 . S
C1444 H1447 0.929 . S
C1445 H1427 0.930 . S
C1445 N1441 1.334 . S
C1445 C1443 1.394 . S
C1446 C1442 1.413 . S
C1446 C1444 1.391 . S
C1446 C1461 1.437 . S
H1447 C1444 0.929 . S
O1448 Gd1404 2.545 . S
O1448 C1463 1.258 . S
O1449 Gd1404 2.606 . S
O1449 Gd1405 2.362 . S
O1449 C1460 1.284 . S
O1450 Gd1405 2.324 . S
O1450 C1470 1.254 . S
O1451 Gd1404 2.429 . S
O1451 C1470 1.268 . S
O1452 Gd1404 2.545 . S
O1452 C1460 1.250 . S
O1453 Gd1404 2.412 . S
O1453 C1463 1.252 . S
O1454 Gd1405 2.545 . S
O1454 C1472 1.258 . S
O1455 Gd1404 2.362 . S
O1455 Gd1405 2.606 . S
O1455 C1471 1.284 . S
O1456 Gd1404 2.324 . S
O1456 C1479 1.254 . S
O1457 Gd1405 2.429 . S
O1457 C1479 1.268 . S
O1458 Gd1405 2.545 . S
O1458 C1471 1.250 . S
O1459 Gd1405 2.412 . S
O1459 C1472 1.252 . S
C1460 O1449 1.284 . S
C1460 O1452 1.250 . S
C1461 H1430 0.929 . S
C1461 C1446 1.437 . S
C1461 C1462 1.317 . S
C1462 H1433 0.930 . S
C1462 C1438 1.431 . S
C1462 C1461 1.317 . S
C1463 Gd1404 2.828 . S
C1463 O1448 1.258 . S
C1463 O1453 1.252 . S
C1463 C1464 1.497 . S
C1464 C1463 1.497 . S
C1464 C1465 1.395 . S
C1464 C1466 1.380 . S
C1465 C1464 1.395 . S
C1465 C1468 1.398 . S
C1465 H1480 0.930 . S
C1466 C1464 1.380 . S
C1466 C1467 1.391 . S
C1466 H1481 0.930 . S
C1467 C1466 1.391 . S
C1467 C1469 1.387 . S
C1468 C1465 1.398 . S
C1468 C1469 1.380 . S
C1468 H1482 0.930 . S
C1469 C1467 1.387 . S
C1469 C1468 1.380 . S
C1469 H1483 0.930 . S
C1470 O1450 1.254 . S
C1470 O1451 1.268 . S
C1471 O1455 1.284 . S
C1471 O1458 1.250 . S
C1472 Gd1405 2.828 . S
C1472 O1454 1.258 . S
C1472 O1459 1.252 . S
C1472 C1473 1.497 . S
C1473 C1472 1.497 . S
C1473 C1474 1.395 . S
C1473 C1475 1.380 . S
C1474 C1473 1.395 . S
C1474 C1477 1.398 . S
C1474 H1484 0.930 . S
C1475 C1473 1.380 . S
C1475 C1476 1.391 . S
C1475 H1485 0.930 . S
C1476 C1475 1.391 . S
C1476 C1478 1.387 . S
C1477 C1474 1.398 . S
C1477 C1478 1.380 . S
C1477 H1486 0.930 . S
C1478 C1476 1.387 . S
C1478 C1477 1.380 . S
C1478 H1487 0.930 . S
C1479 O1456 1.254 . S
C1479 O1457 1.268 . S
H1480 C1465 0.930 . S
H1481 C1466 0.930 . S
H1482 C1468 0.930 . S
H1483 C1469 0.930 . S
H1484 C1474 0.930 . S
H1485 C1475 0.930 . S
H1486 C1477 0.930 . S
H1487 C1478 0.930 . S
Gd1488 N1519 2.661 . S
Gd1488 N1525 2.601 . S
Gd1488 O1532 2.545 . S
Gd1488 O1533 2.606 . S
Gd1488 O1535 2.429 . S
Gd1488 O1536 2.545 . S
Gd1488 O1537 2.412 . S
Gd1488 O1539 2.362 . S
Gd1488 O1540 2.324 . S
Gd1488 C1547 2.828 . S
Gd1489 N1498 2.661 . S
Gd1489 N1502 2.601 . S
Gd1489 O1533 2.362 . S
Gd1489 O1534 2.324 . S
Gd1489 O1538 2.545 . S
Gd1489 O1539 2.606 . S
Gd1489 O1541 2.429 . S
Gd1489 O1542 2.545 . S
Gd1489 O1543 2.412 . S
Gd1489 C1556 2.828 . S
C1490 C1493 1.417 . S
C1490 C1495 1.431 . S
C1490 C1496 1.412 . S
C1491 C1494 1.437 . S
C1491 C1495 1.317 . S
C1491 H1510 0.929 . S
C1492 C1493 1.426 . S
C1492 C1494 1.413 . S
C1492 N1502 1.359 . S
C1493 C1490 1.417 . S
C1493 C1492 1.426 . S
C1493 N1498 1.350 . S
C1494 C1491 1.437 . S
C1494 C1492 1.413 . S
C1494 C1504 1.391 . S
C1495 C1490 1.431 . S
C1495 C1491 1.317 . S
C1495 H1506 0.930 . S
C1496 C1490 1.412 . S
C1496 C1497 1.355 . S
C1496 H1508 0.930 . S
C1497 C1496 1.355 . S
C1497 C1499 1.402 . S
C1497 H1509 0.930 . S
N1498 Gd1489 2.661 . S
N1498 C1493 1.350 . S
N1498 C1499 1.307 . S
C1499 C1497 1.402 . S
C1499 N1498 1.307 . S
C1499 H1500 0.930 . S
H1500 C1499 0.930 . S
C1501 N1502 1.334 . S
C1501 C1503 1.394 . S
C1501 H1505 0.930 . S
N1502 Gd1489 2.601 . S
N1502 C1492 1.359 . S
N1502 C1501 1.334 . S
C1503 C1501 1.394 . S
C1503 C1504 1.359 . S
C1503 H1515 0.930 . S
C1504 C1494 1.391 . S
C1504 C1503 1.359 . S
C1504 H1516 0.929 . S
H1505 C1501 0.930 . S
H1506 C1495 0.930 . S
H1507 C1524 0.930 . S
H1508 C1496 0.930 . S
H1509 C1497 0.930 . S
H1510 C1491 0.929 . S
H1511 C1529 0.930 . S
H1512 C1520 0.930 . S
H1513 C1521 0.930 . S
H1514 C1545 0.929 . S
H1515 C1503 0.930 . S
H1516 C1504 0.929 . S
H1517 C1546 0.930 . S
H1518 C1527 0.930 . S
N1519 Gd1488 2.661 . S
N1519 C1523 1.350 . S
N1519 C1524 1.307 . S
C1520 H1512 0.930 . S
C1520 C1521 1.355 . S
C1520 C1522 1.412 . S
C1521 H1513 0.930 . S
C1521 C1520 1.355 . S
C1521 C1524 1.402 . S
C1522 C1520 1.412 . S
C1522 C1523 1.417 . S
C1522 C1546 1.431 . S
C1523 N1519 1.350 . S
C1523 C1522 1.417 . S
C1523 C1526 1.426 . S
C1524 H1507 0.930 . S
C1524 N1519 1.307 . S
C1524 C1521 1.402 . S
N1525 Gd1488 2.601 . S
N1525 C1526 1.359 . S
N1525 C1529 1.334 . S
C1526 C1523 1.426 . S
C1526 N1525 1.359 . S
C1526 C1530 1.413 . S
C1527 H1518 0.930 . S
C1527 C1528 1.359 . S
C1527 C1529 1.394 . S
C1528 C1527 1.359 . S
C1528 C1530 1.391 . S
C1528 H1531 0.929 . S
C1529 H1511 0.930 . S
C1529 N1525 1.334 . S
C1529 C1527 1.394 . S
C1530 C1526 1.413 . S
C1530 C1528 1.391 . S
C1530 C1545 1.437 . S
H1531 C1528 0.929 . S
O1532 Gd1488 2.545 . S
O1532 C1547 1.258 . S
O1533 Gd1488 2.606 . S
O1533 Gd1489 2.362 . S
O1533 C1544 1.284 . S
O1534 Gd1489 2.324 . S
O1534 C1554 1.254 . S
O1535 Gd1488 2.429 . S
O1535 C1554 1.268 . S
O1536 Gd1488 2.545 . S
O1536 C1544 1.250 . S
O1537 Gd1488 2.412 . S
O1537 C1547 1.252 . S
O1538 Gd1489 2.545 . S
O1538 C1556 1.258 . S
O1539 Gd1488 2.362 . S
O1539 Gd1489 2.606 . S
O1539 C1555 1.284 . S
O1540 Gd1488 2.324 . S
O1540 C1563 1.254 . S
O1541 Gd1489 2.429 . S
O1541 C1563 1.268 . S
O1542 Gd1489 2.545 . S
O1542 C1555 1.250 . S
O1543 Gd1489 2.412 . S
O1543 C1556 1.252 . S
C1544 O1533 1.284 . S
C1544 O1536 1.250 . S
C1545 H1514 0.929 . S
C1545 C1530 1.437 . S
C1545 C1546 1.317 . S
C1546 H1517 0.930 . S
C1546 C1522 1.431 . S
C1546 C1545 1.317 . S
C1547 Gd1488 2.828 . S
C1547 O1532 1.258 . S
C1547 O1537 1.252 . S
C1547 C1548 1.497 . S
C1548 C1547 1.497 . S
C1548 C1549 1.395 . S
C1548 C1550 1.380 . S
C1549 C1548 1.395 . S
C1549 C1552 1.398 . S
C1549 H1564 0.930 . S
C1550 C1548 1.380 . S
C1550 C1551 1.391 . S
C1550 H1565 0.930 . S
C1551 C1550 1.391 . S
C1551 C1553 1.387 . S
C1552 C1549 1.398 . S
C1552 C1553 1.380 . S
C1552 H1566 0.930 . S
C1553 C1551 1.387 . S
C1553 C1552 1.380 . S
C1553 H1567 0.930 . S
C1554 O1534 1.254 . S
C1554 O1535 1.268 . S
C1555 O1539 1.284 . S
C1555 O1542 1.250 . S
C1556 Gd1489 2.828 . S
C1556 O1538 1.258 . S
C1556 O1543 1.252 . S
C1556 C1557 1.497 . S
C1557 C1556 1.497 . S
C1557 C1558 1.395 . S
C1557 C1559 1.380 . S
C1558 C1557 1.395 . S
C1558 C1561 1.398 . S
C1558 H1568 0.930 . S
C1559 C1557 1.380 . S
C1559 C1560 1.391 . S
C1559 H1569 0.930 . S
C1560 C1559 1.391 . S
C1560 C1562 1.387 . S
C1561 C1558 1.398 . S
C1561 C1562 1.380 . S
C1561 H1570 0.930 . S
C1562 C1560 1.387 . S
C1562 C1561 1.380 . S
C1562 H1571 0.930 . S
C1563 O1540 1.254 . S
C1563 O1541 1.268 . S
H1564 C1549 0.930 . S
H1565 C1550 0.930 . S
H1566 C1552 0.930 . S
H1567 C1553 0.930 . S
H1568 C1558 0.930 . S
H1569 C1559 0.930 . S
H1570 C1561 0.930 . S
H1571 C1562 0.930 . S
Gd1572 N1603 2.661 1_455 S
Gd1572 N1609 2.604 . S
Gd1572 O1616 2.545 1_455 S
Gd1572 O1617 2.606 . S
Gd1572 O1619 2.429 . S
Gd1572 O1620 2.545 . S
Gd1572 O1621 2.412 1_455 S
Gd1572 O1623 2.362 . S
Gd1572 O1624 2.324 . S
Gd1572 C1631 2.828 1_455 S
Gd1573 N1582 2.661 . S
Gd1573 N1586 2.601 1_554 S
Gd1573 O1617 2.362 . S
Gd1573 O1618 2.324 . S
Gd1573 O1622 2.545 1_554 S
Gd1573 O1623 2.606 . S
Gd1573 O1625 2.429 1_554 S
Gd1573 O1626 2.545 . S
Gd1573 O1627 2.412 . S
Gd1573 C1640 2.828 . S
C1574 C1577 1.417 . S
C1574 C1579 1.431 . S
C1574 C1580 1.412 . S
C1575 C1578 1.437 . S
C1575 C1579 1.317 1_556 S
C1575 H1594 0.929 . S
C1576 C1577 1.426 1_556 S
C1576 C1578 1.413 . S
C1576 N1586 1.359 . S
C1577 C1574 1.417 . S
C1577 C1576 1.426 1_554 S
C1577 N1582 1.350 . S
C1578 C1575 1.437 . S
C1578 C1576 1.413 . S
C1578 C1588 1.391 . S
C1579 C1574 1.431 . S
C1579 C1575 1.317 1_554 S
C1579 H1590 0.930 . S
C1580 C1574 1.412 . S
C1580 C1581 1.355 . S
C1580 H1592 0.930 . S
C1581 C1580 1.355 . S
C1581 C1583 1.402 . S
C1581 H1593 0.930 . S
N1582 Gd1573 2.661 . S
N1582 C1577 1.350 . S
N1582 C1583 1.307 . S
C1583 C1581 1.402 . S
C1583 N1582 1.307 . S
C1583 H1584 0.930 . S
H1584 C1583 0.930 . S
C1585 N1586 1.334 . S
C1585 C1587 1.394 . S
C1585 H1589 0.930 . S
N1586 Gd1573 2.601 1_556 S
N1586 C1576 1.359 . S
N1586 C1585 1.334 . S
C1587 C1585 1.394 . S
C1587 C1588 1.359 . S
C1587 H1599 0.930 . S
C1588 C1578 1.391 . S
C1588 C1587 1.359 . S
C1588 H1600 0.929 . S
H1589 C1585 0.930 . S
H1590 C1579 0.930 . S
H1591 C1608 0.930 1_556 S
H1592 C1580 0.930 . S
H1593 C1581 0.930 . S
H1594 C1575 0.929 . S
H1595 C1613 0.930 . S
H1596 C1604 0.929 . S
H1597 C1605 0.930 . S
H1598 C1629 0.929 . S
H1599 C1587 0.930 . S
H1600 C1588 0.929 . S
H1601 C1630 0.930 . S
H1602 C1611 0.930 . S
N1603 Gd1572 2.661 1_655 S
N1603 C1607 1.350 . S
N1603 C1608 1.307 . S
C1604 H1596 0.929 . S
C1604 C1605 1.355 1_554 S
C1604 C1606 1.412 . S
C1605 H1597 0.930 . S
C1605 C1604 1.355 1_556 S
C1605 C1608 1.402 1_556 S
C1606 C1604 1.412 . S
C1606 C1607 1.417 . S
C1606 C1630 1.431 . S
C1607 N1603 1.350 . S
C1607 C1606 1.417 . S
C1607 C1610 1.426 . S
C1608 H1591 0.930 1_554 S
C1608 N1603 1.307 . S
C1608 C1605 1.402 1_554 S
N1609 Gd1572 2.604 . S
N1609 C1610 1.355 1_455 S
N1609 C1613 1.335 . S
C1610 C1607 1.426 . S
C1610 N1609 1.355 1_655 S
C1610 C1614 1.413 . S
C1611 H1602 0.930 . S
C1611 C1612 1.359 . S
C1611 C1613 1.394 1_655 S
C1612 C1611 1.359 . S
C1612 C1614 1.391 . S
C1612 H1615 0.929 . S
C1613 H1595 0.930 . S
C1613 N1609 1.335 . S
C1613 C1611 1.394 1_455 S
C1614 C1610 1.413 . S
C1614 C1612 1.391 . S
C1614 C1629 1.437 . S
H1615 C1612 0.929 . S
O1616 Gd1572 2.545 1_655 S
O1616 C1631 1.258 . S
O1617 Gd1572 2.606 . S
O1617 Gd1573 2.362 . S
O1617 C1628 1.284 . S
O1618 Gd1573 2.324 . S
O1618 C1638 1.254 . S
O1619 Gd1572 2.429 . S
O1619 C1638 1.268 . S
O1620 Gd1572 2.545 . S
O1620 C1628 1.250 . S
O1621 Gd1572 2.412 1_655 S
O1621 C1631 1.252 . S
O1622 Gd1573 2.545 1_556 S
O1622 C1640 1.258 1_556 S
O1623 Gd1572 2.362 . S
O1623 Gd1573 2.606 . S
O1623 C1639 1.284 . S
O1624 Gd1572 2.324 . S
O1624 C1647 1.254 1_554 S
O1625 Gd1573 2.429 1_556 S
O1625 C1647 1.268 . S
O1626 Gd1573 2.545 . S
O1626 C1639 1.250 . S
O1627 Gd1573 2.412 . S
O1627 C1640 1.252 . S
C1628 O1617 1.284 . S
C1628 O1620 1.250 . S
C1629 H1598 0.929 . S
C1629 C1614 1.437 . S
C1629 C1630 1.317 . S
C1630 H1601 0.930 . S
C1630 C1606 1.431 . S
C1630 C1629 1.317 . S
C1631 Gd1572 2.828 1_655 S
C1631 O1616 1.258 . S
C1631 O1621 1.252 . S
C1631 C1632 1.497 . S
C1632 C1631 1.497 . S
C1632 C1633 1.395 . S
C1632 C1634 1.380 . S
C1633 C1632 1.395 . S
C1633 C1636 1.398 . S
C1633 H1648 0.930 . S
C1634 C1632 1.380 . S
C1634 C1635 1.391 . S
C1634 H1649 0.930 . S
C1635 C1634 1.391 . S
C1635 C1637 1.387 . S
C1636 C1633 1.398 . S
C1636 C1637 1.380 . S
C1636 H1650 0.930 . S
C1637 C1635 1.387 . S
C1637 C1636 1.380 . S
C1637 H1651 0.930 . S
C1638 O1618 1.254 . S
C1638 O1619 1.268 . S
C1639 O1623 1.284 . S
C1639 O1626 1.250 . S
C1640 Gd1573 2.828 . S
C1640 O1622 1.258 1_554 S
C1640 O1627 1.252 . S
C1640 C1641 1.497 1_554 S
C1641 C1640 1.497 1_556 S
C1641 C1642 1.395 . S
C1641 C1643 1.380 1_556 S
C1642 C1641 1.395 . S
C1642 C1645 1.398 . S
C1642 H1652 0.930 . S
C1643 C1641 1.380 1_554 S
C1643 C1644 1.391 . S
C1643 H1653 0.930 . S
C1644 C1643 1.391 . S
C1644 C1646 1.387 1_554 S
C1645 C1642 1.398 . S
C1645 C1646 1.380 . S
C1645 H1654 0.930 . S
C1646 C1644 1.387 1_556 S
C1646 C1645 1.380 . S
C1646 H1655 0.930 . S
C1647 O1624 1.254 1_556 S
C1647 O1625 1.268 . S
H1648 C1633 0.930 . S
H1649 C1634 0.930 . S
H1650 C1636 0.930 . S
H1651 C1637 0.930 . S
H1652 C1642 0.930 . S
H1653 C1643 0.930 . S
H1654 C1645 0.930 . S
H1655 C1646 0.930 . S
H1656 C1662 0.930 . S
H1657 C1666 0.930 . S
H1658 C1671 0.929 1_655 S
H1659 C1669 0.929 . S
H1660 C1664 0.929 . S
H1661 C1670 0.929 . S
C1662 H1656 0.930 . S
C1662 C1663 1.367 . S
C1662 C1670 1.378 . S
C1663 C1662 1.367 . S
C1663 C1671 1.433 . S
C1664 H1660 0.929 . S
C1664 C1666 1.378 . S
C1664 C1668 1.350 . S
C1665 C1668 1.463 1_556 S
C1665 C1670 1.350 . S
C1665 N1673 1.427 . S
C1666 H1657 0.930 . S
C1666 C1664 1.378 . S
C1666 C1667 1.367 . S
C1667 C1666 1.367 . S
C1667 C1669 1.433 . S
C1668 C1664 1.350 . S
C1668 C1665 1.463 1_554 S
C1668 N1672 1.427 . S
C1669 H1659 0.929 . S
C1669 C1667 1.433 . S
C1669 N1672 1.384 . S
C1670 H1661 0.929 . S
C1670 C1662 1.378 . S
C1670 C1665 1.350 . S
C1671 H1658 0.929 1_455 S
C1671 C1663 1.433 . S
C1671 N1673 1.384 . S
N1672 C1668 1.427 . S
N1672 C1669 1.384 . S
N1673 C1665 1.427 . S
N1673 C1671 1.384 . S
H1674 C1680 0.930 . S
H1675 C1684 0.930 . S
H1676 C1689 0.929 . S
H1677 C1687 0.929 . S
H1678 C1682 0.929 . S
H1679 C1688 0.929 . S
C1680 H1674 0.930 . S
C1680 C1681 1.367 . S
C1680 C1688 1.378 . S
C1681 C1680 1.367 . S
C1681 C1689 1.433 . S
C1682 H1678 0.929 . S
C1682 C1684 1.378 . S
C1682 C1686 1.350 . S
C1683 C1686 1.463 . S
C1683 C1688 1.350 . S
C1683 N1691 1.427 . S
C1684 H1675 0.930 . S
C1684 C1682 1.378 . S
C1684 C1685 1.367 . S
C1685 C1684 1.367 . S
C1685 C1687 1.433 . S
C1686 C1682 1.350 . S
C1686 C1683 1.463 . S
C1686 N1690 1.427 . S
C1687 H1677 0.929 . S
C1687 C1685 1.433 . S
C1687 N1690 1.384 . S
C1688 H1679 0.929 . S
C1688 C1680 1.378 . S
C1688 C1683 1.350 . S
C1689 H1676 0.929 . S
C1689 C1681 1.433 . S
C1689 N1691 1.384 . S
N1690 C1686 1.427 . S
N1690 C1687 1.384 . S
N1691 C1683 1.427 . S
N1691 C1689 1.384 . S
H1692 C1698 0.930 . S
H1693 C1702 0.930 . S
H1694 C1707 0.929 . S
H1695 C1705 0.929 . S
H1696 C1700 0.929 . S
H1697 C1706 0.929 . S
C1698 H1692 0.930 . S
C1698 C1699 1.367 . S
C1698 C1706 1.378 . S
C1699 C1698 1.367 . S
C1699 C1707 1.433 . S
C1700 H1696 0.929 . S
C1700 C1702 1.378 . S
C1700 C1704 1.350 . S
C1701 C1704 1.463 . S
C1701 C1706 1.350 . S
C1701 N1709 1.427 . S
C1702 H1693 0.930 . S
C1702 C1700 1.378 . S
C1702 C1703 1.367 . S
C1703 C1702 1.367 . S
C1703 C1705 1.433 . S
C1704 C1700 1.350 . S
C1704 C1701 1.463 . S
C1704 N1708 1.427 . S
C1705 H1695 0.929 . S
C1705 C1703 1.433 . S
C1705 N1708 1.384 . S
C1706 H1697 0.929 . S
C1706 C1698 1.378 . S
C1706 C1701 1.350 . S
C1707 H1694 0.929 . S
C1707 C1699 1.433 . S
C1707 N1709 1.384 . S
N1708 C1704 1.427 . S
N1708 C1705 1.384 . S
N1709 C1701 1.427 . S
N1709 C1707 1.384 . S
H1710 C1716 0.930 . S
H1711 C1720 0.930 . S
H1712 C1725 0.929 . S
H1713 C1723 0.929 . S
H1714 C1718 0.929 . S
H1715 C1724 0.929 . S
C1716 H1710 0.930 . S
C1716 C1717 1.367 . S
C1716 C1724 1.378 . S
C1717 C1716 1.367 . S
C1717 C1725 1.433 . S
C1718 H1714 0.929 . S
C1718 C1720 1.378 . S
C1718 C1722 1.350 . S
C1719 C1722 1.463 . S
C1719 C1724 1.350 . S
C1719 N1727 1.427 . S
C1720 H1711 0.930 . S
C1720 C1718 1.378 . S
C1720 C1721 1.367 . S
C1721 C1720 1.367 . S
C1721 C1723 1.433 . S
C1722 C1718 1.350 . S
C1722 C1719 1.463 . S
C1722 N1726 1.427 . S
C1723 H1713 0.929 . S
C1723 C1721 1.433 . S
C1723 N1726 1.384 . S
C1724 H1715 0.929 . S
C1724 C1716 1.378 . S
C1724 C1719 1.350 . S
C1725 H1712 0.929 . S
C1725 C1717 1.433 . S
C1725 N1727 1.384 . S
N1726 C1722 1.427 . S
N1726 C1723 1.384 . S
N1727 C1719 1.427 . S
N1727 C1725 1.384 . S
H1728 C1734 0.930 1_655 S
H1729 C1738 0.930 . S
H1730 C1743 0.929 . S
H1731 C1741 0.929 . S
H1732 C1736 0.929 . S
H1733 C1742 0.929 . S
C1734 H1728 0.930 1_455 S
C1734 C1735 1.367 . S
C1734 C1742 1.378 . S
C1735 C1734 1.367 . S
C1735 C1743 1.433 . S
C1736 H1732 0.929 . S
C1736 C1738 1.378 . S
C1736 C1740 1.350 . S
C1737 C1740 1.463 . S
C1737 C1742 1.350 . S
C1737 N1745 1.427 . S
C1738 H1729 0.930 . S
C1738 C1736 1.378 . S
C1738 C1739 1.367 . S
C1739 C1738 1.367 . S
C1739 C1741 1.433 . S
C1740 C1736 1.350 . S
C1740 C1737 1.463 . S
C1740 N1744 1.427 . S
C1741 H1731 0.929 . S
C1741 C1739 1.433 . S
C1741 N1744 1.384 . S
C1742 H1733 0.929 . S
C1742 C1734 1.378 . S
C1742 C1737 1.350 . S
C1743 H1730 0.929 . S
C1743 C1735 1.433 . S
C1743 N1745 1.384 . S
N1744 C1740 1.427 . S
N1744 C1741 1.384 . S
N1745 C1737 1.427 . S
N1745 C1743 1.384 . S
H1746 C1752 0.930 . S
H1747 C1756 0.930 . S
H1748 C1761 0.929 . S
H1749 C1759 0.929 . S
H1750 C1754 0.929 . S
H1751 C1760 0.929 . S
C1752 H1746 0.930 . S
C1752 C1753 1.367 . S
C1752 C1760 1.378 . S
C1753 C1752 1.367 . S
C1753 C1761 1.433 . S
C1754 H1750 0.929 . S
C1754 C1756 1.378 . S
C1754 C1758 1.350 . S
C1755 C1758 1.463 . S
C1755 C1760 1.350 . S
C1755 N1763 1.427 . S
C1756 H1747 0.930 . S
C1756 C1754 1.378 . S
C1756 C1757 1.367 . S
C1757 C1756 1.367 . S
C1757 C1759 1.433 . S
C1758 C1754 1.350 . S
C1758 C1755 1.463 . S
C1758 N1762 1.427 . S
C1759 H1749 0.929 . S
C1759 C1757 1.433 . S
C1759 N1762 1.384 . S
C1760 H1751 0.929 . S
C1760 C1752 1.378 . S
C1760 C1755 1.350 . S
C1761 H1748 0.929 . S
C1761 C1753 1.433 . S
C1761 N1763 1.384 . S
N1762 C1758 1.427 . S
N1762 C1759 1.384 . S
N1763 C1755 1.427 . S
N1763 C1761 1.384 . S
H1764 C1770 0.930 . S
H1765 C1774 0.930 . S
H1766 C1779 0.929 . S
H1767 C1777 0.929 . S
H1768 C1772 0.929 . S
H1769 C1778 0.929 . S
C1770 H1764 0.930 . S
C1770 C1771 1.367 . S
C1770 C1778 1.378 . S
C1771 C1770 1.367 . S
C1771 C1779 1.433 . S
C1772 H1768 0.929 . S
C1772 C1774 1.378 . S
C1772 C1776 1.350 . S
C1773 C1776 1.463 . S
C1773 C1778 1.350 . S
C1773 N1781 1.427 . S
C1774 H1765 0.930 . S
C1774 C1772 1.378 . S
C1774 C1775 1.367 . S
C1775 C1774 1.367 . S
C1775 C1777 1.433 . S
C1776 C1772 1.350 . S
C1776 C1773 1.463 . S
C1776 N1780 1.427 . S
C1777 H1767 0.929 . S
C1777 C1775 1.433 . S
C1777 N1780 1.384 . S
C1778 H1769 0.929 . S
C1778 C1770 1.378 . S
C1778 C1773 1.350 . S
C1779 H1766 0.929 . S
C1779 C1771 1.433 . S
C1779 N1781 1.384 . S
N1780 C1776 1.427 . S
N1780 C1777 1.384 . S
N1781 C1773 1.427 . S
N1781 C1779 1.384 . S
H1782 C1788 0.930 . S
H1783 C1792 0.930 . S
H1784 C1797 0.929 . S
H1785 C1795 0.929 . S
H1786 C1790 0.929 . S
H1787 C1796 0.929 . S
C1788 H1782 0.930 . S
C1788 C1789 1.367 . S
C1788 C1796 1.378 . S
C1789 C1788 1.367 . S
C1789 C1797 1.433 . S
C1790 H1786 0.929 . S
C1790 C1792 1.378 . S
C1790 C1794 1.350 . S
C1791 C1794 1.463 . S
C1791 C1796 1.350 . S
C1791 N1799 1.427 . S
C1792 H1783 0.930 . S
C1792 C1790 1.378 . S
C1792 C1793 1.367 . S
C1793 C1792 1.367 . S
C1793 C1795 1.433 . S
C1794 C1790 1.350 . S
C1794 C1791 1.463 . S
C1794 N1798 1.427 . S
C1795 H1785 0.929 . S
C1795 C1793 1.433 . S
C1795 N1798 1.384 . S
C1796 H1787 0.929 . S
C1796 C1788 1.378 . S
C1796 C1791 1.350 . S
C1797 H1784 0.929 . S
C1797 C1789 1.433 . S
C1797 N1799 1.384 . S
N1798 C1794 1.427 . S
N1798 C1795 1.384 . S
N1799 C1791 1.427 . S
N1799 C1797 1.384 . S
H1800 C1806 0.930 . S
H1801 C1810 0.930 . S
H1802 C1815 0.929 . S
H1803 C1813 0.929 . S
H1804 C1808 0.929 . S
H1805 C1814 0.929 . S
C1806 H1800 0.930 . S
C1806 C1807 1.367 . S
C1806 C1814 1.378 . S
C1807 C1806 1.367 . S
C1807 C1815 1.433 . S
C1808 H1804 0.929 . S
C1808 C1810 1.378 . S
C1808 C1812 1.350 . S
C1809 C1812 1.449 1_655 S
C1809 C1814 1.359 . S
C1809 N1817 1.431 1_655 S
C1810 H1801 0.930 . S
C1810 C1808 1.378 . S
C1810 C1811 1.367 . S
C1811 C1810 1.367 . S
C1811 C1813 1.433 . S
C1812 C1808 1.350 . S
C1812 C1809 1.449 1_455 S
C1812 N1816 1.427 . S
C1813 H1803 0.929 . S
C1813 C1811 1.433 . S
C1813 N1816 1.384 . S
C1814 H1805 0.929 . S
C1814 C1806 1.378 . S
C1814 C1809 1.359 . S
C1815 H1802 0.929 . S
C1815 C1807 1.433 . S
C1815 N1817 1.384 1_655 S
N1816 C1812 1.427 . S
N1816 C1813 1.384 . S
N1817 C1809 1.431 1_455 S
N1817 C1815 1.384 1_455 S
H1818 C1824 0.930 . S
H1819 C1828 0.930 . S
H1820 C1833 0.929 . S
H1821 C1831 0.929 . S
H1822 C1826 0.929 . S
H1823 C1832 0.929 . S
C1824 H1818 0.930 . S
C1824 C1825 1.367 . S
C1824 C1832 1.378 . S
C1825 C1824 1.367 . S
C1825 C1833 1.433 . S
C1826 H1822 0.929 . S
C1826 C1828 1.378 . S
C1826 C1830 1.350 . S
C1827 C1830 1.463 . S
C1827 C1832 1.350 . S
C1827 N1835 1.427 . S
C1828 H1819 0.930 . S
C1828 C1826 1.378 . S
C1828 C1829 1.367 . S
C1829 C1828 1.367 . S
C1829 C1831 1.433 . S
C1830 C1826 1.350 . S
C1830 C1827 1.463 . S
C1830 N1834 1.427 . S
C1831 H1821 0.929 . S
C1831 C1829 1.433 . S
C1831 N1834 1.384 . S
C1832 H1823 0.929 . S
C1832 C1824 1.378 . S
C1832 C1827 1.350 . S
C1833 H1820 0.929 . S
C1833 C1825 1.433 . S
C1833 N1835 1.384 . S
N1834 C1830 1.427 . S
N1834 C1831 1.384 . S
N1835 C1827 1.427 . S
N1835 C1833 1.384 . S
H1836 C1842 0.930 . S
H1837 C1846 0.930 1_565 S
H1838 C1851 0.929 . S
H1839 C1849 0.929 . S
H1840 C1844 0.929 1_565 S
H1841 C1850 0.929 . S
C1842 H1836 0.930 . S
C1842 C1843 1.367 . S
C1842 C1850 1.378 . S
C1843 C1842 1.367 . S
C1843 C1851 1.433 . S
C1844 H1840 0.929 1_545 S
C1844 C1846 1.378 . S
C1844 C1848 1.350 . S
C1845 C1848 1.463 . S
C1845 C1850 1.350 . S
C1845 N1853 1.427 . S
C1846 H1837 0.930 1_545 S
C1846 C1844 1.378 . S
C1846 C1847 1.367 . S
C1847 C1846 1.367 . S
C1847 C1849 1.433 . S
C1848 C1844 1.350 . S
C1848 C1845 1.463 . S
C1848 N1852 1.427 . S
C1849 H1839 0.929 . S
C1849 C1847 1.433 . S
C1849 N1852 1.384 . S
C1850 H1841 0.929 . S
C1850 C1842 1.378 . S
C1850 C1845 1.350 . S
C1851 H1838 0.929 . S
C1851 C1843 1.433 . S
C1851 N1853 1.384 . S
N1852 C1848 1.427 . S
N1852 C1849 1.384 . S
N1853 C1845 1.427 . S
N1853 C1851 1.384 . S
H1854 C1860 0.930 . S
H1855 C1864 0.930 . S
H1856 C1869 0.929 . S
H1857 C1867 0.929 . S
H1858 C1862 0.929 . S
H1859 C1868 0.929 . S
C1860 H1854 0.930 . S
C1860 C1861 1.367 . S
C1860 C1868 1.378 . S
C1861 C1860 1.367 . S
C1861 C1869 1.433 . S
C1862 H1858 0.929 . S
C1862 C1864 1.378 . S
C1862 C1866 1.350 . S
C1863 C1866 1.463 . S
C1863 C1868 1.350 . S
C1863 N1871 1.427 . S
C1864 H1855 0.930 . S
C1864 C1862 1.378 . S
C1864 C1865 1.367 . S
C1865 C1864 1.367 . S
C1865 C1867 1.433 . S
C1866 C1862 1.350 . S
C1866 C1863 1.463 . S
C1866 N1870 1.427 . S
C1867 H1857 0.929 . S
C1867 C1865 1.433 . S
C1867 N1870 1.384 . S
C1868 H1859 0.929 . S
C1868 C1860 1.378 . S
C1868 C1863 1.350 . S
C1869 H1856 0.929 . S
C1869 C1861 1.433 . S
C1869 N1871 1.384 . S
N1870 C1866 1.427 . S
N1870 C1867 1.384 . S
N1871 C1863 1.427 . S
N1871 C1869 1.384 . S
H1872 C1878 0.930 . S
H1873 C1882 0.930 . S
H1874 C1887 0.929 . S
H1875 C1885 0.929 . S
H1876 C1880 0.929 . S
H1877 C1886 0.929 . S
C1878 H1872 0.930 . S
C1878 C1879 1.367 . S
C1878 C1886 1.378 . S
C1879 C1878 1.367 . S
C1879 C1887 1.433 . S
C1880 H1876 0.929 . S
C1880 C1882 1.378 . S
C1880 C1884 1.350 . S
C1881 C1884 1.463 . S
C1881 C1886 1.350 1_455 S
C1881 N1889 1.427 . S
C1882 H1873 0.930 . S
C1882 C1880 1.378 . S
C1882 C1883 1.367 . S
C1883 C1882 1.367 . S
C1883 C1885 1.433 . S
C1884 C1880 1.350 . S
C1884 C1881 1.463 . S
C1884 N1888 1.427 . S
C1885 H1875 0.929 . S
C1885 C1883 1.433 . S
C1885 N1888 1.384 . S
C1886 H1877 0.929 . S
C1886 C1878 1.378 . S
C1886 C1881 1.350 1_655 S
C1887 H1874 0.929 . S
C1887 C1879 1.433 . S
C1887 N1889 1.384 1_655 S
N1888 C1884 1.427 . S
N1888 C1885 1.384 . S
N1889 C1881 1.427 . S
N1889 C1887 1.384 1_455 S
H1890 C1896 0.930 . S
H1891 C1900 0.930 . S
H1892 C1905 0.929 . S
H1893 C1903 0.929 . S
H1894 C1898 0.929 . S
H1895 C1904 0.929 . S
C1896 H1890 0.930 . S
C1896 C1897 1.367 . S
C1896 C1904 1.378 . S
C1897 C1896 1.367 . S
C1897 C1905 1.433 . S
C1898 H1894 0.929 . S
C1898 C1900 1.378 . S
C1898 C1902 1.350 . S
C1899 C1902 1.463 . S
C1899 C1904 1.350 . S
C1899 N1907 1.427 . S
C1900 H1891 0.930 . S
C1900 C1898 1.378 . S
C1900 C1901 1.367 . S
C1901 C1900 1.367 . S
C1901 C1903 1.433 . S
C1902 C1898 1.350 . S
C1902 C1899 1.463 . S
C1902 N1906 1.427 . S
C1903 H1893 0.929 . S
C1903 C1901 1.433 . S
C1903 N1906 1.384 . S
C1904 H1895 0.929 . S
C1904 C1896 1.378 . S
C1904 C1899 1.350 . S
C1905 H1892 0.929 . S
C1905 C1897 1.433 . S
C1905 N1907 1.384 . S
N1906 C1902 1.427 . S
N1906 C1903 1.384 . S
N1907 C1899 1.427 . S
N1907 C1905 1.384 . S
H1908 C1914 0.930 . S
H1909 C1918 0.930 . S
H1910 C1923 0.929 . S
H1911 C1921 0.929 . S
H1912 C1916 0.929 . S
H1913 C1922 0.929 . S
C1914 H1908 0.930 . S
C1914 C1915 1.367 . S
C1914 C1922 1.378 . S
C1915 C1914 1.367 . S
C1915 C1923 1.433 . S
C1916 H1912 0.929 . S
C1916 C1918 1.378 . S
C1916 C1920 1.350 . S
C1917 C1920 1.463 . S
C1917 C1922 1.350 . S
C1917 N1925 1.427 . S
C1918 H1909 0.930 . S
C1918 C1916 1.378 . S
C1918 C1919 1.367 . S
C1919 C1918 1.367 . S
C1919 C1921 1.433 . S
C1920 C1916 1.350 . S
C1920 C1917 1.463 . S
C1920 N1924 1.427 . S
C1921 H1911 0.929 . S
C1921 C1919 1.433 . S
C1921 N1924 1.384 . S
C1922 H1913 0.929 . S
C1922 C1914 1.378 . S
C1922 C1917 1.350 . S
C1923 H1910 0.929 . S
C1923 C1915 1.433 . S
C1923 N1925 1.384 . S
N1924 C1920 1.427 . S
N1924 C1921 1.384 . S
N1925 C1917 1.427 . S
N1925 C1923 1.384 . S
H1926 C1932 0.930 . S
H1927 C1936 0.930 . S
H1928 C1941 0.929 . S
H1929 C1939 0.929 . S
H1930 C1934 0.929 . S
H1931 C1940 0.929 . S
C1932 H1926 0.930 . S
C1932 C1933 1.367 . S
C1932 C1940 1.378 . S
C1933 C1932 1.367 . S
C1933 C1941 1.433 . S
C1934 H1930 0.929 . S
C1934 C1936 1.378 . S
C1934 C1938 1.350 . S
C1935 C1938 1.463 . S
C1935 C1940 1.350 . S
C1935 N1943 1.427 . S
C1936 H1927 0.930 . S
C1936 C1934 1.378 . S
C1936 C1937 1.367 . S
C1937 C1936 1.367 . S
C1937 C1939 1.433 . S
C1938 C1934 1.350 . S
C1938 C1935 1.463 . S
C1938 N1942 1.427 . S
C1939 H1929 0.929 . S
C1939 C1937 1.433 . S
C1939 N1942 1.384 . S
C1940 H1931 0.929 . S
C1940 C1932 1.378 . S
C1940 C1935 1.350 . S
C1941 H1928 0.929 . S
C1941 C1933 1.433 . S
C1941 N1943 1.384 . S
N1942 C1938 1.427 . S
N1942 C1939 1.384 . S
N1943 C1935 1.427 . S
N1943 C1941 1.384 . S
H1944 C1950 0.930 1_556 S
H1945 C1954 0.930 . S
H1946 C1959 0.929 . S
H1947 C1957 0.929 . S
H1948 C1952 0.929 . S
H1949 C1958 0.929 1_556 S
C1950 H1944 0.930 1_554 S
C1950 C1951 1.367 . S
C1950 C1958 1.378 . S
C1951 C1950 1.367 . S
C1951 C1959 1.433 . S
C1952 H1948 0.929 . S
C1952 C1954 1.378 1_565 S
C1952 C1956 1.350 . S
C1953 C1956 1.463 . S
C1953 C1958 1.350 . S
C1953 N1961 1.427 . S
C1954 H1945 0.930 . S
C1954 C1952 1.378 1_545 S
C1954 C1955 1.367 . S
C1955 C1954 1.367 . S
C1955 C1957 1.433 . S
C1956 C1952 1.350 . S
C1956 C1953 1.463 . S
C1956 N1960 1.427 1_565 S
C1957 H1947 0.929 . S
C1957 C1955 1.433 . S
C1957 N1960 1.384 . S
C1958 H1949 0.929 1_554 S
C1958 C1950 1.378 . S
C1958 C1953 1.350 . S
C1959 H1946 0.929 . S
C1959 C1951 1.433 . S
C1959 N1961 1.384 . S
N1960 C1956 1.427 1_545 S
N1960 C1957 1.384 . S
N1961 C1953 1.427 . S
N1961 C1959 1.384 . S
H1962 C1968 0.930 . S
H1963 C1972 0.930 . S
H1964 C1977 0.929 . S
H1965 C1975 0.929 . S
H1966 C1970 0.929 . S
H1967 C1976 0.929 . S
C1968 H1962 0.930 . S
C1968 C1969 1.367 . S
C1968 C1976 1.378 . S
C1969 C1968 1.367 . S
C1969 C1977 1.433 . S
C1970 H1966 0.929 . S
C1970 C1972 1.378 . S
C1970 C1974 1.350 . S
C1971 C1974 1.463 . S
C1971 C1976 1.350 . S
C1971 N1979 1.427 . S
C1972 H1963 0.930 . S
C1972 C1970 1.378 . S
C1972 C1973 1.367 . S
C1973 C1972 1.367 . S
C1973 C1975 1.433 . S
C1974 C1970 1.350 . S
C1974 C1971 1.463 . S
C1974 N1978 1.427 . S
C1975 H1965 0.929 . S
C1975 C1973 1.433 . S
C1975 N1978 1.384 . S
C1976 H1967 0.929 . S
C1976 C1968 1.378 . S
C1976 C1971 1.350 . S
C1977 H1964 0.929 . S
C1977 C1969 1.433 . S
C1977 N1979 1.384 . S
N1978 C1974 1.427 . S
N1978 C1975 1.384 . S
N1979 C1971 1.427 . S
N1979 C1977 1.384 . S
H1980 C1986 0.930 . S
H1981 C1990 0.930 . S
H1982 C1995 0.929 . S
H1983 C1993 0.929 . S
H1984 C1988 0.929 . S
H1985 C1994 0.929 . S
C1986 H1980 0.930 . S
C1986 C1987 1.367 . S
C1986 C1994 1.378 . S
C1987 C1986 1.367 . S
C1987 C1995 1.433 . S
C1988 H1984 0.929 . S
C1988 C1990 1.378 . S
C1988 C1992 1.350 . S
C1989 C1992 1.463 . S
C1989 C1994 1.350 . S
C1989 N1997 1.427 . S
C1990 H1981 0.930 . S
C1990 C1988 1.378 . S
C1990 C1991 1.367 . S
C1991 C1990 1.367 . S
C1991 C1993 1.433 . S
C1992 C1988 1.350 . S
C1992 C1989 1.463 . S
C1992 N1996 1.427 . S
C1993 H1983 0.929 . S
C1993 C1991 1.433 . S
C1993 N1996 1.384 . S
C1994 H1985 0.929 . S
C1994 C1986 1.378 . S
C1994 C1989 1.350 . S
C1995 H1982 0.929 . S
C1995 C1987 1.433 . S
C1995 N1997 1.384 . S
N1996 C1992 1.427 . S
N1996 C1993 1.384 . S
N1997 C1989 1.427 . S
N1997 C1995 1.384 . S
H1998 C2004 0.930 . S
H1999 C2008 0.930 . S
H2000 C2013 0.929 . S
H2001 C2011 0.929 1_455 S
H2002 C2006 0.929 . S
H2003 C2012 0.929 . S
C2004 H1998 0.930 . S
C2004 C2005 1.367 . S
C2004 C2012 1.378 . S
C2005 C2004 1.367 . S
C2005 C2013 1.433 . S
C2006 H2002 0.929 . S
C2006 C2008 1.378 . S
C2006 C2010 1.350 . S
C2007 C2010 1.463 . S
C2007 C2012 1.350 . S
C2007 N2015 1.427 . S
C2008 H1999 0.930 . S
C2008 C2006 1.378 . S
C2008 C2009 1.367 . S
C2009 C2008 1.367 . S
C2009 C2011 1.433 . S
C2010 C2006 1.350 . S
C2010 C2007 1.463 . S
C2010 N2014 1.427 . S
C2011 H2001 0.929 1_655 S
C2011 C2009 1.433 . S
C2011 N2014 1.384 . S
C2012 H2003 0.929 . S
C2012 C2004 1.378 . S
C2012 C2007 1.350 . S
C2013 H2000 0.929 . S
C2013 C2005 1.433 . S
C2013 N2015 1.384 . S
N2014 C2010 1.427 . S
N2014 C2011 1.384 . S
N2015 C2007 1.427 . S
N2015 C2013 1.384 . S
H2016 C2022 0.930 . S
H2017 C2026 0.930 . S
H2018 C2031 0.929 . S
H2019 C2029 0.929 . S
H2020 C2024 0.929 . S
H2021 C2030 0.929 . S
C2022 H2016 0.930 . S
C2022 C2023 1.367 . S
C2022 C2030 1.378 . S
C2023 C2022 1.367 . S
C2023 C2031 1.433 . S
C2024 H2020 0.929 . S
C2024 C2026 1.378 . S
C2024 C2028 1.350 . S
C2025 C2028 1.463 . S
C2025 C2030 1.350 . S
C2025 N2033 1.427 . S
C2026 H2017 0.930 . S
C2026 C2024 1.378 . S
C2026 C2027 1.367 . S
C2027 C2026 1.367 . S
C2027 C2029 1.433 . S
C2028 C2024 1.350 . S
C2028 C2025 1.463 . S
C2028 N2032 1.427 . S
C2029 H2019 0.929 . S
C2029 C2027 1.433 . S
C2029 N2032 1.384 . S
C2030 H2021 0.929 . S
C2030 C2022 1.378 . S
C2030 C2025 1.350 . S
C2031 H2018 0.929 . S
C2031 C2023 1.433 . S
C2031 N2033 1.384 . S
N2032 C2028 1.427 . S
N2032 C2029 1.384 . S
N2033 C2025 1.427 . S
N2033 C2031 1.384 . S
H2034 C2040 0.930 . S
H2035 C2044 0.930 . S
H2036 C2049 0.929 . S
H2037 C2047 0.929 . S
H2038 C2042 0.929 . S
H2039 C2048 0.929 . S
C2040 H2034 0.930 . S
C2040 C2041 1.367 . S
C2040 C2048 1.378 . S
C2041 C2040 1.367 . S
C2041 C2049 1.433 . S
C2042 H2038 0.929 . S
C2042 C2044 1.378 . S
C2042 C2046 1.350 . S
C2043 C2046 1.463 . S
C2043 C2048 1.350 . S
C2043 N2051 1.427 . S
C2044 H2035 0.930 . S
C2044 C2042 1.378 . S
C2044 C2045 1.367 . S
C2045 C2044 1.367 . S
C2045 C2047 1.433 . S
C2046 C2042 1.350 . S
C2046 C2043 1.463 . S
C2046 N2050 1.427 . S
C2047 H2037 0.929 . S
C2047 C2045 1.433 . S
C2047 N2050 1.384 . S
C2048 H2039 0.929 . S
C2048 C2040 1.378 . S
C2048 C2043 1.350 . S
C2049 H2036 0.929 . S
C2049 C2041 1.433 . S
C2049 N2051 1.384 . S
N2050 C2046 1.427 . S
N2050 C2047 1.384 . S
N2051 C2043 1.427 . S
N2051 C2049 1.384 . S
H2052 C2058 0.930 . S
H2053 C2062 0.930 . S
H2054 C2067 0.929 . S
H2055 C2065 0.929 . S
H2056 C2060 0.929 . S
H2057 C2066 0.929 . S
C2058 H2052 0.930 . S
C2058 C2059 1.367 . S
C2058 C2066 1.378 . S
C2059 C2058 1.367 . S
C2059 C2067 1.433 . S
C2060 H2056 0.929 . S
C2060 C2062 1.378 . S
C2060 C2064 1.350 . S
C2061 C2064 1.463 . S
C2061 C2066 1.350 . S
C2061 N2069 1.427 . S
C2062 H2053 0.930 . S
C2062 C2060 1.378 . S
C2062 C2063 1.367 . S
C2063 C2062 1.367 . S
C2063 C2065 1.433 . S
C2064 C2060 1.350 . S
C2064 C2061 1.463 . S
C2064 N2068 1.427 . S
C2065 H2055 0.929 . S
C2065 C2063 1.433 . S
C2065 N2068 1.384 . S
C2066 H2057 0.929 . S
C2066 C2058 1.378 . S
C2066 C2061 1.350 . S
C2067 H2054 0.929 . S
C2067 C2059 1.433 . S
C2067 N2069 1.384 . S
N2068 C2064 1.427 . S
N2068 C2065 1.384 . S
N2069 C2061 1.427 . S
N2069 C2067 1.384 . S
H2070 C2076 0.930 . S
H2071 C2080 0.930 . S
H2072 C2085 0.929 . S
H2073 C2083 0.929 . S
H2074 C2078 0.929 . S
H2075 C2084 0.929 . S
C2076 H2070 0.930 . S
C2076 C2077 1.367 . S
C2076 C2084 1.378 . S
C2077 C2076 1.367 . S
C2077 C2085 1.433 . S
C2078 H2074 0.929 . S
C2078 C2080 1.378 . S
C2078 C2082 1.350 . S
C2079 C2082 1.463 . S
C2079 C2084 1.350 . S
C2079 N2087 1.427 . S
C2080 H2071 0.930 . S
C2080 C2078 1.378 . S
C2080 C2081 1.367 . S
C2081 C2080 1.367 . S
C2081 C2083 1.433 . S
C2082 C2078 1.350 . S
C2082 C2079 1.463 . S
C2082 N2086 1.427 . S
C2083 H2073 0.929 . S
C2083 C2081 1.433 . S
C2083 N2086 1.384 . S
C2084 H2075 0.929 . S
C2084 C2076 1.378 . S
C2084 C2079 1.350 . S
C2085 H2072 0.929 . S
C2085 C2077 1.433 . S
C2085 N2087 1.384 . S
N2086 C2082 1.427 . S
N2086 C2083 1.384 . S
N2087 C2079 1.427 . S
N2087 C2085 1.384 . S
H2088 C2094 0.930 . S
H2089 C2098 0.930 . S
H2090 C2103 0.929 . S
H2091 C2101 0.929 . S
H2092 C2096 0.929 . S
H2093 C2102 0.929 . S
C2094 H2088 0.930 . S
C2094 C2095 1.367 . S
C2094 C2102 1.378 . S
C2095 C2094 1.367 . S
C2095 C2103 1.433 . S
C2096 H2092 0.929 . S
C2096 C2098 1.378 . S
C2096 C2100 1.350 . S
C2097 C2100 1.463 . S
C2097 C2102 1.350 . S
C2097 N2105 1.427 . S
C2098 H2089 0.930 . S
C2098 C2096 1.378 . S
C2098 C2099 1.367 . S
C2099 C2098 1.367 . S
C2099 C2101 1.433 . S
C2100 C2096 1.350 . S
C2100 C2097 1.463 . S
C2100 N2104 1.427 . S
C2101 H2091 0.929 . S
C2101 C2099 1.433 . S
C2101 N2104 1.384 . S
C2102 H2093 0.929 . S
C2102 C2094 1.378 . S
C2102 C2097 1.350 . S
C2103 H2090 0.929 . S
C2103 C2095 1.433 . S
C2103 N2105 1.384 . S
N2104 C2100 1.427 . S
N2104 C2101 1.384 . S
N2105 C2097 1.427 . S
N2105 C2103 1.384 . S
H2106 C2112 0.930 . S
H2107 C2116 0.930 . S
H2108 C2121 0.929 . S
H2109 C2119 0.929 . S
H2110 C2114 0.929 . S
H2111 C2120 0.929 . S
C2112 H2106 0.930 . S
C2112 C2113 1.367 . S
C2112 C2120 1.378 . S
C2113 C2112 1.367 . S
C2113 C2121 1.433 . S
C2114 H2110 0.929 . S
C2114 C2116 1.378 . S
C2114 C2118 1.350 . S
C2115 C2118 1.463 . S
C2115 C2120 1.350 . S
C2115 N2123 1.427 . S
C2116 H2107 0.930 . S
C2116 C2114 1.378 . S
C2116 C2117 1.367 . S
C2117 C2116 1.367 . S
C2117 C2119 1.433 . S
C2118 C2114 1.350 . S
C2118 C2115 1.463 . S
C2118 N2122 1.427 . S
C2119 H2109 0.929 . S
C2119 C2117 1.433 . S
C2119 N2122 1.384 . S
C2120 H2111 0.929 . S
C2120 C2112 1.378 . S
C2120 C2115 1.350 . S
C2121 H2108 0.929 . S
C2121 C2113 1.433 . S
C2121 N2123 1.384 . S
N2122 C2118 1.427 . S
N2122 C2119 1.384 . S
N2123 C2115 1.427 . S
N2123 C2121 1.384 . S
H2124 C2130 0.930 . S
H2125 C2134 0.930 . S
H2126 C2139 0.929 . S
H2127 C2137 0.929 . S
H2128 C2132 0.929 . S
H2129 C2138 0.929 . S
C2130 H2124 0.930 . S
C2130 C2131 1.367 . S
C2130 C2138 1.378 . S
C2131 C2130 1.367 . S
C2131 C2139 1.433 . S
C2132 H2128 0.929 . S
C2132 C2134 1.378 . S
C2132 C2136 1.350 . S
C2133 C2136 1.463 . S
C2133 C2138 1.350 . S
C2133 N2141 1.427 . S
C2134 H2125 0.930 . S
C2134 C2132 1.378 . S
C2134 C2135 1.367 . S
C2135 C2134 1.367 . S
C2135 C2137 1.433 . S
C2136 C2132 1.350 . S
C2136 C2133 1.463 . S
C2136 N2140 1.427 . S
C2137 H2127 0.929 . S
C2137 C2135 1.433 . S
C2137 N2140 1.384 . S
C2138 H2129 0.929 . S
C2138 C2130 1.378 . S
C2138 C2133 1.350 . S
C2139 H2126 0.929 . S
C2139 C2131 1.433 . S
C2139 N2141 1.384 . S
N2140 C2136 1.427 . S
N2140 C2137 1.384 . S
N2141 C2133 1.427 . S
N2141 C2139 1.384 . S
H2142 C2148 0.930 . S
H2143 C2152 0.930 . S
H2144 C2157 0.929 . S
H2145 C2155 0.929 . S
H2146 C2150 0.929 . S
H2147 C2156 0.929 . S
C2148 H2142 0.930 . S
C2148 C2149 1.367 . S
C2148 C2156 1.378 . S
C2149 C2148 1.367 . S
C2149 C2157 1.433 . S
C2150 H2146 0.929 . S
C2150 C2152 1.378 . S
C2150 C2154 1.350 . S
C2151 C2154 1.463 . S
C2151 C2156 1.350 . S
C2151 N2159 1.427 . S
C2152 H2143 0.930 . S
C2152 C2150 1.378 . S
C2152 C2153 1.367 . S
C2153 C2152 1.367 . S
C2153 C2155 1.433 . S
C2154 C2150 1.350 . S
C2154 C2151 1.463 . S
C2154 N2158 1.427 . S
C2155 H2145 0.929 . S
C2155 C2153 1.433 . S
C2155 N2158 1.384 . S
C2156 H2147 0.929 . S
C2156 C2148 1.378 . S
C2156 C2151 1.350 . S
C2157 H2144 0.929 . S
C2157 C2149 1.433 . S
C2157 N2159 1.384 . S
N2158 C2154 1.427 . S
N2158 C2155 1.384 . S
N2159 C2151 1.427 . S
N2159 C2157 1.384 . S
H2160 C2166 0.930 . S
H2161 C2170 0.930 . S
H2162 C2175 0.929 . S
H2163 C2173 0.929 . S
H2164 C2168 0.929 . S
H2165 C2174 0.929 . S
C2166 H2160 0.930 . S
C2166 C2167 1.367 . S
C2166 C2174 1.378 . S
C2167 C2166 1.367 . S
C2167 C2175 1.433 . S
C2168 H2164 0.929 . S
C2168 C2170 1.378 . S
C2168 C2172 1.350 . S
C2169 C2172 1.463 . S
C2169 C2174 1.350 . S
C2169 N2177 1.427 . S
C2170 H2161 0.930 . S
C2170 C2168 1.378 . S
C2170 C2171 1.367 . S
C2171 C2170 1.367 . S
C2171 C2173 1.433 . S
C2172 C2168 1.350 . S
C2172 C2169 1.463 . S
C2172 N2176 1.427 . S
C2173 H2163 0.929 . S
C2173 C2171 1.433 . S
C2173 N2176 1.384 . S
C2174 H2165 0.929 . S
C2174 C2166 1.378 . S
C2174 C2169 1.350 . S
C2175 H2162 0.929 . S
C2175 C2167 1.433 . S
C2175 N2177 1.384 . S
N2176 C2172 1.427 . S
N2176 C2173 1.384 . S
N2177 C2169 1.427 . S
N2177 C2175 1.384 . S
H2178 C2184 0.930 . S
H2179 C2188 0.930 . S
H2180 C2193 0.929 . S
H2181 C2191 0.929 . S
H2182 C2186 0.929 . S
H2183 C2192 0.929 . S
C2184 H2178 0.930 . S
C2184 C2185 1.367 . S
C2184 C2192 1.378 . S
C2185 C2184 1.367 . S
C2185 C2193 1.433 . S
C2186 H2182 0.929 . S
C2186 C2188 1.378 . S
C2186 C2190 1.350 . S
C2187 C2190 1.463 . S
C2187 C2192 1.350 . S
C2187 N2195 1.427 . S
C2188 H2179 0.930 . S
C2188 C2186 1.378 . S
C2188 C2189 1.367 . S
C2189 C2188 1.367 . S
C2189 C2191 1.433 . S
C2190 C2186 1.350 . S
C2190 C2187 1.463 . S
C2190 N2194 1.427 . S
C2191 H2181 0.929 . S
C2191 C2189 1.433 . S
C2191 N2194 1.384 . S
C2192 H2183 0.929 . S
C2192 C2184 1.378 . S
C2192 C2187 1.350 . S
C2193 H2180 0.929 . S
C2193 C2185 1.433 . S
C2193 N2195 1.384 . S
N2194 C2190 1.427 . S
N2194 C2191 1.384 . S
N2195 C2187 1.427 . S
N2195 C2193 1.384 . S
H2196 C2202 0.930 . S
H2197 C2206 0.930 1_554 S
H2198 C2211 0.929 . S
H2199 C2209 0.929 1_545 S
H2200 C2204 0.929 . S
H2201 C2210 0.929 . S
C2202 H2196 0.930 . S
C2202 C2203 1.367 . S
C2202 C2210 1.378 . S
C2203 C2202 1.367 . S
C2203 C2211 1.433 . S
C2204 H2200 0.929 . S
C2204 C2206 1.378 . S
C2204 C2208 1.350 . S
C2205 C2208 1.463 . S
C2205 C2210 1.350 . S
C2205 N2213 1.427 . S
C2206 H2197 0.930 1_556 S
C2206 C2204 1.378 . S
C2206 C2207 1.367 . S
C2207 C2206 1.367 . S
C2207 C2209 1.433 . S
C2208 C2204 1.350 . S
C2208 C2205 1.463 . S
C2208 N2212 1.427 . S
C2209 H2199 0.929 1_565 S
C2209 C2207 1.433 . S
C2209 N2212 1.384 . S
C2210 H2201 0.929 . S
C2210 C2202 1.378 . S
C2210 C2205 1.350 . S
C2211 H2198 0.929 . S
C2211 C2203 1.433 . S
C2211 N2213 1.384 . S
N2212 C2208 1.427 . S
N2212 C2209 1.384 . S
N2213 C2205 1.427 . S
N2213 C2211 1.384 . S
H2214 C2220 0.930 . S
H2215 C2224 0.930 . S
H2216 C2229 0.929 . S
H2217 C2227 0.929 . S
H2218 C2222 0.929 . S
H2219 C2228 0.929 . S
C2220 H2214 0.930 . S
C2220 C2221 1.367 . S
C2220 C2228 1.378 . S
C2221 C2220 1.367 . S
C2221 C2229 1.433 . S
C2222 H2218 0.929 . S
C2222 C2224 1.378 . S
C2222 C2226 1.350 . S
C2223 C2226 1.463 . S
C2223 C2228 1.350 . S
C2223 N2231 1.427 . S
C2224 H2215 0.930 . S
C2224 C2222 1.378 . S
C2224 C2225 1.367 . S
C2225 C2224 1.367 . S
C2225 C2227 1.433 . S
C2226 C2222 1.350 . S
C2226 C2223 1.463 . S
C2226 N2230 1.427 . S
C2227 H2217 0.929 . S
C2227 C2225 1.433 . S
C2227 N2230 1.384 . S
C2228 H2219 0.929 . S
C2228 C2220 1.378 . S
C2228 C2223 1.350 . S
C2229 H2216 0.929 . S
C2229 C2221 1.433 . S
C2229 N2231 1.384 . S
N2230 C2226 1.427 . S
N2230 C2227 1.384 . S
N2231 C2223 1.427 . S
N2231 C2229 1.384 . S
H2232 C2238 0.930 . S
H2233 C2242 0.930 1_565 S
H2234 C2247 0.929 . S
H2235 C2245 0.929 . S
H2236 C2240 0.913 1_565 S
H2237 C2246 0.929 . S
C2238 H2232 0.930 . S
C2238 C2239 1.367 . S
C2238 C2246 1.378 . S
C2239 C2238 1.367 . S
C2239 C2247 1.433 1_545 S
C2240 H2236 0.913 1_545 S
C2240 C2242 1.378 . S
C2240 C2244 1.366 . S
C2241 C2244 1.463 . S
C2241 C2246 1.350 . S
C2241 N2249 1.427 1_545 S
C2242 H2233 0.930 1_545 S
C2242 C2240 1.378 . S
C2242 C2243 1.367 . S
C2243 C2242 1.367 . S
C2243 C2245 1.433 . S
C2244 C2240 1.366 . S
C2244 C2241 1.463 . S
C2244 N2248 1.427 . S
C2245 H2235 0.929 . S
C2245 C2243 1.433 . S
C2245 N2248 1.384 . S
C2246 H2237 0.929 . S
C2246 C2238 1.378 . S
C2246 C2241 1.350 . S
C2247 H2234 0.929 . S
C2247 C2239 1.433 1_565 S
C2247 N2249 1.384 . S
N2248 C2244 1.427 . S
N2248 C2245 1.384 . S
N2249 C2241 1.427 1_565 S
N2249 C2247 1.384 . S
H2250 C2256 0.930 . S
H2251 C2260 0.930 . S
H2252 C2265 0.929 . S
H2253 C2263 0.929 . S
H2254 C2258 0.929 . S
H2255 C2264 0.929 . S
C2256 H2250 0.930 . S
C2256 C2257 1.367 . S
C2256 C2264 1.378 . S
C2257 C2256 1.367 . S
C2257 C2265 1.433 . S
C2258 H2254 0.929 . S
C2258 C2260 1.378 . S
C2258 C2262 1.350 . S
C2259 C2262 1.463 . S
C2259 C2264 1.350 . S
C2259 N2267 1.427 . S
C2260 H2251 0.930 . S
C2260 C2258 1.378 . S
C2260 C2261 1.367 . S
C2261 C2260 1.367 . S
C2261 C2263 1.433 . S
C2262 C2258 1.350 . S
C2262 C2259 1.463 . S
C2262 N2266 1.427 . S
C2263 H2253 0.929 . S
C2263 C2261 1.433 . S
C2263 N2266 1.384 . S
C2264 H2255 0.929 . S
C2264 C2256 1.378 . S
C2264 C2259 1.350 . S
C2265 H2252 0.929 . S
C2265 C2257 1.433 . S
C2265 N2267 1.384 . S
N2266 C2262 1.427 . S
N2266 C2263 1.384 . S
N2267 C2259 1.427 . S
N2267 C2265 1.384 . S
H2268 C2274 0.930 . S
H2269 C2278 0.930 . S
H2270 C2283 0.929 1_565 S
H2271 C2281 0.929 . S
H2272 C2276 0.929 . S
H2273 C2282 0.929 . S
C2274 H2268 0.930 . S
C2274 C2275 1.367 . S
C2274 C2282 1.378 . S
C2275 C2274 1.367 . S
C2275 C2283 1.433 . S
C2276 H2272 0.929 . S
C2276 C2278 1.378 . S
C2276 C2280 1.350 . S
C2277 C2280 1.463 . S
C2277 C2282 1.350 . S
C2277 N2285 1.427 . S
C2278 H2269 0.930 . S
C2278 C2276 1.378 . S
C2278 C2279 1.367 . S
C2279 C2278 1.367 . S
C2279 C2281 1.433 . S
C2280 C2276 1.350 . S
C2280 C2277 1.463 . S
C2280 N2284 1.427 . S
C2281 H2271 0.929 . S
C2281 C2279 1.433 . S
C2281 N2284 1.384 . S
C2282 H2273 0.929 . S
C2282 C2274 1.378 . S
C2282 C2277 1.350 . S
C2283 H2270 0.929 1_545 S
C2283 C2275 1.433 . S
C2283 N2285 1.384 . S
N2284 C2280 1.427 . S
N2284 C2281 1.384 . S
N2285 C2277 1.427 . S
N2285 C2283 1.384 . S
H2286 C2292 0.930 . S
H2287 C2296 0.930 . S
H2288 C2301 0.929 . S
H2289 C2299 0.929 . S
H2290 C2294 0.929 . S
H2291 C2300 0.929 . S
C2292 H2286 0.930 . S
C2292 C2293 1.367 . S
C2292 C2300 1.378 . S
C2293 C2292 1.367 . S
C2293 C2301 1.433 . S
C2294 H2290 0.929 . S
C2294 C2296 1.378 . S
C2294 C2298 1.350 . S
C2295 C2298 1.463 . S
C2295 C2300 1.350 . S
C2295 N2303 1.427 . S
C2296 H2287 0.930 . S
C2296 C2294 1.378 . S
C2296 C2297 1.367 . S
C2297 C2296 1.367 . S
C2297 C2299 1.433 . S
C2298 C2294 1.350 . S
C2298 C2295 1.463 . S
C2298 N2302 1.427 . S
C2299 H2289 0.929 . S
C2299 C2297 1.433 . S
C2299 N2302 1.384 . S
C2300 H2291 0.929 . S
C2300 C2292 1.378 . S
C2300 C2295 1.350 . S
C2301 H2288 0.929 . S
C2301 C2293 1.433 . S
C2301 N2303 1.384 . S
N2302 C2298 1.427 . S
N2302 C2299 1.384 . S
N2303 C2295 1.427 . S
N2303 C2301 1.384 . S
H2304 C2310 0.930 . S
H2305 C2314 0.930 . S
H2306 C2319 0.929 . S
H2307 C2317 0.929 1_565 S
H2308 C2312 0.929 . S
H2309 C2318 0.929 . S
C2310 H2304 0.930 . S
C2310 C2311 1.367 . S
C2310 C2318 1.378 . S
C2311 C2310 1.367 . S
C2311 C2319 1.433 1_565 S
C2312 H2308 0.929 . S
C2312 C2314 1.378 . S
C2312 C2316 1.350 . S
C2313 C2316 1.452 1_565 S
C2313 C2318 1.361 . S
C2313 N2321 1.426 1_565 S
C2314 H2305 0.930 . S
C2314 C2312 1.378 . S
C2314 C2315 1.367 . S
C2315 C2314 1.367 . S
C2315 C2317 1.433 . S
C2316 C2312 1.350 . S
C2316 C2313 1.452 1_545 S
C2316 N2320 1.427 1_545 S
C2317 H2307 0.929 1_545 S
C2317 C2315 1.433 . S
C2317 N2320 1.384 1_545 S
C2318 H2309 0.929 . S
C2318 C2310 1.378 . S
C2318 C2313 1.361 . S
C2319 H2306 0.929 . S
C2319 C2311 1.433 1_545 S
C2319 N2321 1.384 . S
N2320 C2316 1.427 1_565 S
N2320 C2317 1.384 1_565 S
N2321 C2313 1.426 1_545 S
N2321 C2319 1.384 . S
H2322 C2328 0.930 . S
H2323 C2332 0.930 . S
H2324 C2337 0.929 . S
H2325 C2335 0.929 . S
H2326 C2330 0.929 . S
H2327 C2336 0.929 . S
C2328 H2322 0.930 . S
C2328 C2329 1.367 . S
C2328 C2336 1.378 . S
C2329 C2328 1.367 . S
C2329 C2337 1.433 . S
C2330 H2326 0.929 . S
C2330 C2332 1.378 . S
C2330 C2334 1.350 . S
C2331 C2334 1.463 . S
C2331 C2336 1.350 . S
C2331 N2339 1.427 . S
C2332 H2323 0.930 . S
C2332 C2330 1.378 . S
C2332 C2333 1.367 . S
C2333 C2332 1.367 . S
C2333 C2335 1.433 . S
C2334 C2330 1.350 . S
C2334 C2331 1.463 . S
C2334 N2338 1.427 . S
C2335 H2325 0.929 . S
C2335 C2333 1.433 . S
C2335 N2338 1.384 . S
C2336 H2327 0.929 . S
C2336 C2328 1.378 . S
C2336 C2331 1.350 . S
C2337 H2324 0.929 . S
C2337 C2329 1.433 . S
C2337 N2339 1.384 . S
N2338 C2334 1.427 . S
N2338 C2335 1.384 . S
N2339 C2331 1.427 . S
N2339 C2337 1.384 . S
H2340 C2346 0.930 . S
H2341 C2350 0.930 . S
H2342 C2355 0.929 . S
H2343 C2353 0.929 1_565 S
H2344 C2348 0.929 . S
H2345 C2354 0.929 . S
C2346 H2340 0.930 . S
C2346 C2347 1.367 1_565 S
C2346 C2354 1.378 . S
C2347 C2346 1.367 1_545 S
C2347 C2355 1.433 . S
C2348 H2344 0.929 . S
C2348 C2350 1.378 . S
C2348 C2352 1.350 . S
C2349 C2352 1.463 . S
C2349 C2354 1.350 1_545 S
C2349 N2357 1.427 . S
C2350 H2341 0.930 . S
C2350 C2348 1.378 . S
C2350 C2351 1.367 . S
C2351 C2350 1.367 . S
C2351 C2353 1.433 . S
C2352 C2348 1.350 . S
C2352 C2349 1.463 . S
C2352 N2356 1.427 . S
C2353 H2343 0.929 1_545 S
C2353 C2351 1.433 . S
C2353 N2356 1.384 . S
C2354 H2345 0.929 . S
C2354 C2346 1.378 . S
C2354 C2349 1.350 1_565 S
C2355 H2342 0.929 . S
C2355 C2347 1.433 . S
C2355 N2357 1.384 . S
N2356 C2352 1.427 . S
N2356 C2353 1.384 . S
N2357 C2349 1.427 . S
N2357 C2355 1.384 . S
H2358 C2364 0.930 . S
H2359 C2368 0.930 . S
H2360 C2373 0.929 . S
H2361 C2371 0.929 . S
H2362 C2366 0.929 . S
H2363 C2372 0.929 . S
C2364 H2358 0.930 . S
C2364 C2365 1.367 . S
C2364 C2372 1.378 . S
C2365 C2364 1.367 . S
C2365 C2373 1.433 . S
C2366 H2362 0.929 . S
C2366 C2368 1.378 . S
C2366 C2370 1.350 . S
C2367 C2370 1.463 . S
C2367 C2372 1.350 . S
C2367 N2375 1.427 . S
C2368 H2359 0.930 . S
C2368 C2366 1.378 . S
C2368 C2369 1.367 . S
C2369 C2368 1.367 . S
C2369 C2371 1.433 . S
C2370 C2366 1.350 . S
C2370 C2367 1.463 . S
C2370 N2374 1.427 . S
C2371 H2361 0.929 . S
C2371 C2369 1.433 . S
C2371 N2374 1.384 . S
C2372 H2363 0.929 . S
C2372 C2364 1.378 . S
C2372 C2367 1.350 . S
C2373 H2360 0.929 . S
C2373 C2365 1.433 . S
C2373 N2375 1.384 . S
N2374 C2370 1.427 . S
N2374 C2371 1.384 . S
N2375 C2367 1.427 . S
N2375 C2373 1.384 . S
H2376 C2382 0.930 . S
H2377 C2386 0.930 . S
H2378 C2391 0.929 . S
H2379 C2389 0.929 . S
H2380 C2384 0.929 . S
H2381 C2390 0.929 . S
C2382 H2376 0.930 . S
C2382 C2383 1.367 . S
C2382 C2390 1.378 . S
C2383 C2382 1.367 . S
C2383 C2391 1.433 . S
C2384 H2380 0.929 . S
C2384 C2386 1.378 . S
C2384 C2388 1.350 . S
C2385 C2388 1.463 . S
C2385 C2390 1.350 . S
C2385 N2393 1.427 . S
C2386 H2377 0.930 . S
C2386 C2384 1.378 . S
C2386 C2387 1.367 . S
C2387 C2386 1.367 . S
C2387 C2389 1.433 . S
C2388 C2384 1.350 . S
C2388 C2385 1.463 . S
C2388 N2392 1.427 . S
C2389 H2379 0.929 . S
C2389 C2387 1.433 . S
C2389 N2392 1.384 . S
C2390 H2381 0.929 . S
C2390 C2382 1.378 . S
C2390 C2385 1.350 . S
C2391 H2378 0.929 . S
C2391 C2383 1.433 . S
C2391 N2393 1.384 . S
N2392 C2388 1.427 . S
N2392 C2389 1.384 . S
N2393 C2385 1.427 . S
N2393 C2391 1.384 . S
H2394 C2400 0.930 . S
H2395 C2404 0.930 . S
H2396 C2409 0.929 . S
H2397 C2407 0.929 . S
H2398 C2402 0.929 . S
H2399 C2408 0.929 . S
C2400 H2394 0.930 . S
C2400 C2401 1.367 . S
C2400 C2408 1.378 . S
C2401 C2400 1.367 . S
C2401 C2409 1.433 . S
C2402 H2398 0.929 . S
C2402 C2404 1.378 . S
C2402 C2406 1.350 . S
C2403 C2406 1.463 . S
C2403 C2408 1.350 . S
C2403 N2411 1.427 . S
C2404 H2395 0.930 . S
C2404 C2402 1.378 . S
C2404 C2405 1.367 . S
C2405 C2404 1.367 . S
C2405 C2407 1.433 . S
C2406 C2402 1.350 . S
C2406 C2403 1.463 . S
C2406 N2410 1.427 . S
C2407 H2397 0.929 . S
C2407 C2405 1.433 . S
C2407 N2410 1.384 . S
C2408 H2399 0.929 . S
C2408 C2400 1.378 . S
C2408 C2403 1.350 . S
C2409 H2396 0.929 . S
C2409 C2401 1.433 . S
C2409 N2411 1.384 . S
N2410 C2406 1.427 . S
N2410 C2407 1.384 . S
N2411 C2403 1.427 . S
N2411 C2409 1.384 . S
H2412 C2418 0.930 . S
H2413 C2422 0.930 . S
H2414 C2427 0.929 . S
H2415 C2425 0.929 . S
H2416 C2420 0.929 . S
H2417 C2426 0.929 . S
C2418 H2412 0.930 . S
C2418 C2419 1.367 . S
C2418 C2426 1.378 . S
C2419 C2418 1.367 . S
C2419 C2427 1.433 . S
C2420 H2416 0.929 . S
C2420 C2422 1.378 . S
C2420 C2424 1.350 . S
C2421 C2424 1.463 . S
C2421 C2426 1.350 . S
C2421 N2429 1.427 . S
C2422 H2413 0.930 . S
C2422 C2420 1.378 . S
C2422 C2423 1.367 . S
C2423 C2422 1.367 . S
C2423 C2425 1.433 . S
C2424 C2420 1.350 . S
C2424 C2421 1.463 . S
C2424 N2428 1.427 . S
C2425 H2415 0.929 . S
C2425 C2423 1.433 . S
C2425 N2428 1.384 . S
C2426 H2417 0.929 . S
C2426 C2418 1.378 . S
C2426 C2421 1.350 . S
C2427 H2414 0.929 . S
C2427 C2419 1.433 . S
C2427 N2429 1.384 . S
N2428 C2424 1.427 . S
N2428 C2425 1.384 . S
N2429 C2421 1.427 . S
N2429 C2427 1.384 . S
H2430 C2436 0.930 . S
H2431 C2440 0.930 . S
H2432 C2445 0.929 . S
H2433 C2443 0.929 . S
H2434 C2438 0.929 . S
H2435 C2444 0.929 . S
C2436 H2430 0.930 . S
C2436 C2437 1.367 . S
C2436 C2444 1.378 . S
C2437 C2436 1.367 . S
C2437 C2445 1.433 . S
C2438 H2434 0.929 . S
C2438 C2440 1.378 . S
C2438 C2442 1.350 . S
C2439 C2442 1.463 . S
C2439 C2444 1.350 . S
C2439 N2447 1.427 . S
C2440 H2431 0.930 . S
C2440 C2438 1.378 . S
C2440 C2441 1.367 . S
C2441 C2440 1.367 . S
C2441 C2443 1.433 . S
C2442 C2438 1.350 . S
C2442 C2439 1.463 . S
C2442 N2446 1.427 . S
C2443 H2433 0.929 . S
C2443 C2441 1.433 . S
C2443 N2446 1.384 . S
C2444 H2435 0.929 . S
C2444 C2436 1.378 . S
C2444 C2439 1.350 . S
C2445 H2432 0.929 . S
C2445 C2437 1.433 . S
C2445 N2447 1.384 . S
N2446 C2442 1.427 . S
N2446 C2443 1.384 . S
N2447 C2439 1.427 . S
N2447 C2445 1.384 . S
H2448 C2454 0.948 . S
H2449 C2458 0.930 . S
H2450 C2463 0.929 . S
H2451 C2461 0.929 . S
H2452 C2456 0.929 . S
H2453 C2462 0.929 . S
C2454 H2448 0.948 . S
C2454 C2455 1.367 1_545 S
C2454 C2462 1.360 1_545 S
C2455 C2454 1.367 1_565 S
C2455 C2463 1.433 . S
C2456 H2452 0.929 . S
C2456 C2458 1.378 . S
C2456 C2460 1.350 . S
C2457 C2460 1.463 . S
C2457 C2462 1.350 . S
C2457 N2465 1.427 . S
C2458 H2449 0.930 . S
C2458 C2456 1.378 . S
C2458 C2459 1.367 . S
C2459 C2458 1.367 . S
C2459 C2461 1.433 . S
C2460 C2456 1.350 . S
C2460 C2457 1.463 . S
C2460 N2464 1.427 . S
C2461 H2451 0.929 . S
C2461 C2459 1.433 . S
C2461 N2464 1.384 . S
C2462 H2453 0.929 . S
C2462 C2454 1.360 1_565 S
C2462 C2457 1.350 . S
C2463 H2450 0.929 . S
C2463 C2455 1.433 . S
C2463 N2465 1.384 . S
N2464 C2460 1.427 . S
N2464 C2461 1.384 . S
N2465 C2457 1.427 . S
N2465 C2463 1.384 . S
H2466 C2472 0.930 . S
H2467 C2476 0.930 . S
H2468 C2481 0.929 . S
H2469 C2479 0.929 . S
H2470 C2474 0.929 . S
H2471 C2480 0.929 . S
C2472 H2466 0.930 . S
C2472 C2473 1.367 . S
C2472 C2480 1.378 . S
C2473 C2472 1.367 . S
C2473 C2481 1.433 . S
C2474 H2470 0.929 . S
C2474 C2476 1.378 . S
C2474 C2478 1.350 . S
C2475 C2478 1.463 . S
C2475 C2480 1.350 . S
C2475 N2483 1.427 . S
C2476 H2467 0.930 . S
C2476 C2474 1.378 . S
C2476 C2477 1.367 . S
C2477 C2476 1.367 . S
C2477 C2479 1.433 . S
C2478 C2474 1.350 . S
C2478 C2475 1.463 . S
C2478 N2482 1.427 . S
C2479 H2469 0.929 . S
C2479 C2477 1.433 . S
C2479 N2482 1.384 . S
C2480 H2471 0.929 . S
C2480 C2472 1.378 . S
C2480 C2475 1.350 . S
C2481 H2468 0.929 . S
C2481 C2473 1.433 . S
C2481 N2483 1.384 . S
N2482 C2478 1.427 . S
N2482 C2479 1.384 . S
N2483 C2475 1.427 . S
N2483 C2481 1.384 . S
H2484 C2490 0.930 . S
H2485 C2494 0.930 . S
H2486 C2499 0.929 . S
H2487 C2497 0.929 . S
H2488 C2492 0.929 . S
H2489 C2498 0.929 . S
C2490 H2484 0.930 . S
C2490 C2491 1.367 . S
C2490 C2498 1.378 . S
C2491 C2490 1.367 . S
C2491 C2499 1.433 . S
C2492 H2488 0.929 . S
C2492 C2494 1.378 . S
C2492 C2496 1.350 . S
C2493 C2496 1.463 . S
C2493 C2498 1.350 . S
C2493 N2501 1.427 . S
C2494 H2485 0.930 . S
C2494 C2492 1.378 . S
C2494 C2495 1.367 . S
C2495 C2494 1.367 . S
C2495 C2497 1.433 . S
C2496 C2492 1.350 . S
C2496 C2493 1.463 . S
C2496 N2500 1.427 . S
C2497 H2487 0.929 . S
C2497 C2495 1.433 . S
C2497 N2500 1.384 . S
C2498 H2489 0.929 . S
C2498 C2490 1.378 . S
C2498 C2493 1.350 . S
C2499 H2486 0.929 . S
C2499 C2491 1.433 . S
C2499 N2501 1.384 . S
N2500 C2496 1.427 . S
N2500 C2497 1.384 . S
N2501 C2493 1.427 . S
N2501 C2499 1.384 . S
H2502 C2508 0.930 . S
H2503 C2512 0.930 . S
H2504 C2517 0.929 . S
H2505 C2515 0.929 . S
H2506 C2510 0.929 . S
H2507 C2516 0.929 . S
C2508 H2502 0.930 . S
C2508 C2509 1.367 . S
C2508 C2516 1.378 . S
C2509 C2508 1.367 . S
C2509 C2517 1.433 . S
C2510 H2506 0.929 . S
C2510 C2512 1.378 . S
C2510 C2514 1.350 . S
C2511 C2514 1.463 . S
C2511 C2516 1.350 . S
C2511 N2519 1.427 . S
C2512 H2503 0.930 . S
C2512 C2510 1.378 . S
C2512 C2513 1.367 . S
C2513 C2512 1.367 . S
C2513 C2515 1.433 . S
C2514 C2510 1.350 . S
C2514 C2511 1.463 . S
C2514 N2518 1.427 . S
C2515 H2505 0.929 . S
C2515 C2513 1.433 . S
C2515 N2518 1.384 . S
C2516 H2507 0.929 . S
C2516 C2508 1.378 . S
C2516 C2511 1.350 . S
C2517 H2504 0.929 . S
C2517 C2509 1.433 . S
C2517 N2519 1.384 . S
N2518 C2514 1.427 . S
N2518 C2515 1.384 . S
N2519 C2511 1.427 . S
N2519 C2517 1.384 . S
H2520 C2526 0.930 . S
H2521 C2530 0.930 . S
H2522 C2535 0.929 . S
H2523 C2533 0.929 . S
H2524 C2528 0.929 . S
H2525 C2534 0.929 . S
C2526 H2520 0.930 . S
C2526 C2527 1.367 . S
C2526 C2534 1.378 . S
C2527 C2526 1.367 . S
C2527 C2535 1.433 . S
C2528 H2524 0.929 . S
C2528 C2530 1.378 . S
C2528 C2532 1.350 . S
C2529 C2532 1.463 . S
C2529 C2534 1.350 . S
C2529 N2537 1.427 . S
C2530 H2521 0.930 . S
C2530 C2528 1.378 . S
C2530 C2531 1.367 . S
C2531 C2530 1.367 . S
C2531 C2533 1.433 . S
C2532 C2528 1.350 . S
C2532 C2529 1.463 . S
C2532 N2536 1.427 . S
C2533 H2523 0.929 . S
C2533 C2531 1.433 . S
C2533 N2536 1.384 . S
C2534 H2525 0.929 . S
C2534 C2526 1.378 . S
C2534 C2529 1.350 . S
C2535 H2522 0.929 . S
C2535 C2527 1.433 . S
C2535 N2537 1.384 . S
N2536 C2532 1.427 . S
N2536 C2533 1.384 . S
N2537 C2529 1.427 . S
N2537 C2535 1.384 . S
H2538 C2544 0.930 . S
H2539 C2548 0.930 . S
H2540 C2553 0.929 . S
H2541 C2551 0.929 . S
H2542 C2546 0.929 . S
H2543 C2552 0.929 . S
C2544 H2538 0.930 . S
C2544 C2545 1.367 . S
C2544 C2552 1.378 . S
C2545 C2544 1.367 . S
C2545 C2553 1.433 . S
C2546 H2542 0.929 . S
C2546 C2548 1.378 . S
C2546 C2550 1.350 . S
C2547 C2550 1.463 . S
C2547 C2552 1.350 . S
C2547 N2555 1.427 . S
C2548 H2539 0.930 . S
C2548 C2546 1.378 . S
C2548 C2549 1.367 . S
C2549 C2548 1.367 . S
C2549 C2551 1.433 . S
C2550 C2546 1.350 . S
C2550 C2547 1.463 . S
C2550 N2554 1.427 . S
C2551 H2541 0.929 . S
C2551 C2549 1.433 . S
C2551 N2554 1.384 . S
C2552 H2543 0.929 . S
C2552 C2544 1.378 . S
C2552 C2547 1.350 . S
C2553 H2540 0.929 . S
C2553 C2545 1.433 . S
C2553 N2555 1.384 . S
N2554 C2550 1.427 . S
N2554 C2551 1.384 . S
N2555 C2547 1.427 . S
N2555 C2553 1.384 . S
H2556 C2562 0.930 1_655 S
H2557 C2566 0.930 . S
H2558 C2571 0.929 . S
H2559 C2569 0.929 1_556 S
H2560 C2564 0.929 . S
H2561 C2570 0.929 . S
C2562 H2556 0.930 1_455 S
C2562 C2563 1.367 . S
C2562 C2570 1.378 . S
C2563 C2562 1.367 . S
C2563 C2571 1.433 . S
C2564 H2560 0.929 . S
C2564 C2566 1.378 . S
C2564 C2568 1.350 . S
C2565 C2568 1.463 1_556 S
C2565 C2570 1.350 . S
C2565 N2573 1.427 1_556 S
C2566 H2557 0.930 . S
C2566 C2564 1.378 . S
C2566 C2567 1.367 . S
C2567 C2566 1.367 . S
C2567 C2569 1.433 . S
C2568 C2564 1.350 . S
C2568 C2565 1.463 1_554 S
C2568 N2572 1.427 1_554 S
C2569 H2559 0.929 1_554 S
C2569 C2567 1.433 . S
C2569 N2572 1.384 1_554 S
C2570 H2561 0.929 . S
C2570 C2562 1.378 . S
C2570 C2565 1.350 . S
C2571 H2558 0.929 . S
C2571 C2563 1.433 . S
C2571 N2573 1.384 1_556 S
N2572 C2568 1.427 1_556 S
N2572 C2569 1.384 1_556 S
N2573 C2565 1.427 1_554 S
N2573 C2571 1.384 1_554 S
H2574 C2580 0.930 . S
H2575 C2584 0.930 . S
H2576 C2589 0.929 . S
H2577 C2587 0.929 . S
H2578 C2582 0.929 . S
H2579 C2588 0.929 . S
C2580 H2574 0.930 . S
C2580 C2581 1.367 . S
C2580 C2588 1.378 . S
C2581 C2580 1.367 . S
C2581 C2589 1.433 . S
C2582 H2578 0.929 . S
C2582 C2584 1.378 . S
C2582 C2586 1.350 . S
C2583 C2586 1.463 . S
C2583 C2588 1.350 1_655 S
C2583 N2591 1.427 . S
C2584 H2575 0.930 . S
C2584 C2582 1.378 . S
C2584 C2585 1.367 . S
C2585 C2584 1.367 . S
C2585 C2587 1.433 . S
C2586 C2582 1.350 . S
C2586 C2583 1.463 . S
C2586 N2590 1.427 . S
C2587 H2577 0.929 . S
C2587 C2585 1.433 . S
C2587 N2590 1.384 . S
C2588 H2579 0.929 . S
C2588 C2580 1.378 . S
C2588 C2583 1.350 1_455 S
C2589 H2576 0.929 . S
C2589 C2581 1.433 . S
C2589 N2591 1.384 1_455 S
N2590 C2586 1.427 . S
N2590 C2587 1.384 . S
N2591 C2583 1.427 . S
N2591 C2589 1.384 1_655 S
H2592 C2598 0.930 . S
H2593 C2602 0.930 . S
H2594 C2607 0.929 . S
H2595 C2605 0.929 . S
H2596 C2600 0.929 . S
H2597 C2606 0.929 . S
C2598 H2592 0.930 . S
C2598 C2599 1.367 . S
C2598 C2606 1.378 . S
C2599 C2598 1.367 . S
C2599 C2607 1.433 . S
C2600 H2596 0.929 . S
C2600 C2602 1.378 . S
C2600 C2604 1.350 . S
C2601 C2604 1.463 . S
C2601 C2606 1.350 . S
C2601 N2609 1.427 . S
C2602 H2593 0.930 . S
C2602 C2600 1.378 . S
C2602 C2603 1.367 . S
C2603 C2602 1.367 . S
C2603 C2605 1.433 . S
C2604 C2600 1.350 . S
C2604 C2601 1.463 . S
C2604 N2608 1.427 . S
C2605 H2595 0.929 . S
C2605 C2603 1.433 . S
C2605 N2608 1.384 . S
C2606 H2597 0.929 . S
C2606 C2598 1.378 . S
C2606 C2601 1.350 . S
C2607 H2594 0.929 . S
C2607 C2599 1.433 . S
C2607 N2609 1.384 . S
N2608 C2604 1.427 . S
N2608 C2605 1.384 . S
N2609 C2601 1.427 . S
N2609 C2607 1.384 . S
H2610 C2616 0.930 . S
H2611 C2620 0.930 . S
H2612 C2625 0.929 . S
H2613 C2623 0.929 . S
H2614 C2618 0.929 1_455 S
H2615 C2624 0.929 . S
C2616 H2610 0.930 . S
C2616 C2617 1.367 . S
C2616 C2624 1.378 . S
C2617 C2616 1.367 . S
C2617 C2625 1.433 . S
C2618 H2614 0.929 1_655 S
C2618 C2620 1.378 . S
C2618 C2622 1.350 . S
C2619 C2622 1.463 1_455 S
C2619 C2624 1.350 . S
C2619 N2627 1.427 . S
C2620 H2611 0.930 . S
C2620 C2618 1.378 . S
C2620 C2621 1.367 . S
C2621 C2620 1.367 . S
C2621 C2623 1.433 . S
C2622 C2618 1.350 . S
C2622 C2619 1.463 1_655 S
C2622 N2626 1.427 . S
C2623 H2613 0.929 . S
C2623 C2621 1.433 . S
C2623 N2626 1.384 . S
C2624 H2615 0.929 . S
C2624 C2616 1.378 . S
C2624 C2619 1.350 . S
C2625 H2612 0.929 . S
C2625 C2617 1.433 . S
C2625 N2627 1.384 . S
N2626 C2622 1.427 . S
N2626 C2623 1.384 . S
N2627 C2619 1.427 . S
N2627 C2625 1.384 . S
H2628 C2634 0.930 . S
H2629 C2638 0.930 1_655 S
H2630 C2643 0.929 . S
H2631 C2641 0.929 . S
H2632 C2636 0.929 . S
H2633 C2642 0.929 . S
C2634 H2628 0.930 . S
C2634 C2635 1.367 1_455 S
C2634 C2642 1.378 . S
C2635 C2634 1.367 1_655 S
C2635 C2643 1.433 . S
C2636 H2632 0.929 . S
C2636 C2638 1.378 1_655 S
C2636 C2640 1.350 1_655 S
C2637 C2640 1.463 . S
C2637 C2642 1.350 . S
C2637 N2645 1.427 1_455 S
C2638 H2629 0.930 1_455 S
C2638 C2636 1.378 1_455 S
C2638 C2639 1.367 . S
C2639 C2638 1.367 . S
C2639 C2641 1.433 . S
C2640 C2636 1.350 1_455 S
C2640 C2637 1.463 . S
C2640 N2644 1.427 . S
C2641 H2631 0.929 . S
C2641 C2639 1.433 . S
C2641 N2644 1.384 . S
C2642 H2633 0.929 . S
C2642 C2634 1.378 . S
C2642 C2637 1.350 . S
C2643 H2630 0.929 . S
C2643 C2635 1.433 . S
C2643 N2645 1.384 . S
N2644 C2640 1.427 . S
N2644 C2641 1.384 . S
N2645 C2637 1.427 1_655 S
N2645 C2643 1.384 . S
H2646 C2652 0.930 . S
H2647 C2656 0.930 . S
H2648 C2661 0.929 . S
H2649 C2659 0.929 . S
H2650 C2654 0.929 . S
H2651 C2660 0.929 . S
C2652 H2646 0.930 . S
C2652 C2653 1.367 . S
C2652 C2660 1.378 . S
C2653 C2652 1.367 . S
C2653 C2661 1.433 . S
C2654 H2650 0.929 . S
C2654 C2656 1.378 . S
C2654 C2658 1.350 . S
C2655 C2658 1.463 . S
C2655 C2660 1.350 . S
C2655 N2663 1.427 . S
C2656 H2647 0.930 . S
C2656 C2654 1.378 . S
C2656 C2657 1.367 . S
C2657 C2656 1.367 . S
C2657 C2659 1.433 . S
C2658 C2654 1.350 . S
C2658 C2655 1.463 . S
C2658 N2662 1.427 . S
C2659 H2649 0.929 . S
C2659 C2657 1.433 . S
C2659 N2662 1.384 . S
C2660 H2651 0.929 . S
C2660 C2652 1.378 . S
C2660 C2655 1.350 . S
C2661 H2648 0.929 . S
C2661 C2653 1.433 . S
C2661 N2663 1.384 . S
N2662 C2658 1.427 . S
N2662 C2659 1.384 . S
N2663 C2655 1.427 . S
N2663 C2661 1.384 . S
H2664 C2670 0.930 . S
H2665 C2674 0.930 . S
H2666 C2679 0.929 . S
H2667 C2677 0.929 . S
H2668 C2672 0.929 . S
H2669 C2678 0.929 . S
C2670 H2664 0.930 . S
C2670 C2671 1.367 . S
C2670 C2678 1.378 . S
C2671 C2670 1.367 . S
C2671 C2679 1.433 . S
C2672 H2668 0.929 . S
C2672 C2674 1.378 . S
C2672 C2676 1.350 . S
C2673 C2676 1.463 . S
C2673 C2678 1.350 . S
C2673 N2681 1.427 . S
C2674 H2665 0.930 . S
C2674 C2672 1.378 . S
C2674 C2675 1.367 . S
C2675 C2674 1.367 . S
C2675 C2677 1.433 . S
C2676 C2672 1.350 . S
C2676 C2673 1.463 . S
C2676 N2680 1.427 . S
C2677 H2667 0.929 . S
C2677 C2675 1.433 . S
C2677 N2680 1.384 . S
C2678 H2669 0.929 . S
C2678 C2670 1.378 . S
C2678 C2673 1.350 . S
C2679 H2666 0.929 . S
C2679 C2671 1.433 . S
C2679 N2681 1.384 . S
N2680 C2676 1.427 . S
N2680 C2677 1.384 . S
N2681 C2673 1.427 . S
N2681 C2679 1.384 . S
H2682 C2688 0.930 . S
H2683 C2692 0.930 . S
H2684 C2697 0.929 1_554 S
H2685 C2695 0.929 . S
H2686 C2690 0.929 . S
H2687 C2696 0.929 . S
C2688 H2682 0.930 . S
C2688 C2689 1.367 . S
C2688 C2696 1.378 . S
C2689 C2688 1.367 . S
C2689 C2697 1.433 . S
C2690 H2686 0.929 . S
C2690 C2692 1.378 . S
C2690 C2694 1.350 . S
C2691 C2694 1.463 . S
C2691 C2696 1.350 . S
C2691 N2699 1.427 . S
C2692 H2683 0.930 . S
C2692 C2690 1.378 . S
C2692 C2693 1.367 . S
C2693 C2692 1.367 . S
C2693 C2695 1.433 . S
C2694 C2690 1.350 . S
C2694 C2691 1.463 . S
C2694 N2698 1.427 . S
C2695 H2685 0.929 . S
C2695 C2693 1.433 . S
C2695 N2698 1.384 . S
C2696 H2687 0.929 . S
C2696 C2688 1.378 . S
C2696 C2691 1.350 . S
C2697 H2684 0.929 1_556 S
C2697 C2689 1.433 . S
C2697 N2699 1.384 . S
N2698 C2694 1.427 . S
N2698 C2695 1.384 . S
N2699 C2691 1.427 . S
N2699 C2697 1.384 . S
H2700 C2706 0.930 . S
H2701 C2710 0.930 . S
H2702 C2715 0.929 . S
H2703 C2713 0.929 . S
H2704 C2708 0.929 . S
H2705 C2714 0.929 . S
C2706 H2700 0.930 . S
C2706 C2707 1.367 . S
C2706 C2714 1.378 . S
C2707 C2706 1.367 . S
C2707 C2715 1.433 . S
C2708 H2704 0.929 . S
C2708 C2710 1.378 . S
C2708 C2712 1.350 . S
C2709 C2712 1.463 . S
C2709 C2714 1.350 . S
C2709 N2717 1.427 . S
C2710 H2701 0.930 . S
C2710 C2708 1.378 . S
C2710 C2711 1.367 . S
C2711 C2710 1.367 . S
C2711 C2713 1.433 . S
C2712 C2708 1.350 . S
C2712 C2709 1.463 . S
C2712 N2716 1.427 . S
C2713 H2703 0.929 . S
C2713 C2711 1.433 . S
C2713 N2716 1.384 . S
C2714 H2705 0.929 . S
C2714 C2706 1.378 . S
C2714 C2709 1.350 . S
C2715 H2702 0.929 . S
C2715 C2707 1.433 . S
C2715 N2717 1.384 . S
N2716 C2712 1.427 . S
N2716 C2713 1.384 . S
N2717 C2709 1.427 . S
N2717 C2715 1.384 . S
H2718 C2724 0.930 . S
H2719 C2728 0.930 . S
H2720 C2733 0.929 . S
H2721 C2731 0.929 . S
H2722 C2726 0.929 . S
H2723 C2732 0.929 . S
C2724 H2718 0.930 . S
C2724 C2725 1.367 . S
C2724 C2732 1.378 . S
C2725 C2724 1.367 . S
C2725 C2733 1.433 . S
C2726 H2722 0.929 . S
C2726 C2728 1.378 . S
C2726 C2730 1.350 . S
C2727 C2730 1.463 . S
C2727 C2732 1.350 . S
C2727 N2735 1.427 . S
C2728 H2719 0.930 . S
C2728 C2726 1.378 . S
C2728 C2729 1.367 . S
C2729 C2728 1.367 . S
C2729 C2731 1.433 . S
C2730 C2726 1.350 . S
C2730 C2727 1.463 . S
C2730 N2734 1.427 . S
C2731 H2721 0.929 . S
C2731 C2729 1.433 . S
C2731 N2734 1.384 . S
C2732 H2723 0.929 . S
C2732 C2724 1.378 . S
C2732 C2727 1.350 . S
C2733 H2720 0.929 . S
C2733 C2725 1.433 . S
C2733 N2735 1.384 . S
N2734 C2730 1.427 . S
N2734 C2731 1.384 . S
N2735 C2727 1.427 . S
N2735 C2733 1.384 . S
H2736 C2742 0.930 . S
H2737 C2746 0.930 . S
H2738 C2751 0.929 . S
H2739 C2749 0.929 . S
H2740 C2744 0.929 . S
H2741 C2750 0.929 . S
C2742 H2736 0.930 . S
C2742 C2743 1.367 . S
C2742 C2750 1.378 . S
C2743 C2742 1.367 . S
C2743 C2751 1.433 . S
C2744 H2740 0.929 . S
C2744 C2746 1.378 . S
C2744 C2748 1.350 . S
C2745 C2748 1.463 . S
C2745 C2750 1.350 . S
C2745 N2753 1.427 . S
C2746 H2737 0.930 . S
C2746 C2744 1.378 . S
C2746 C2747 1.367 . S
C2747 C2746 1.367 . S
C2747 C2749 1.433 . S
C2748 C2744 1.350 . S
C2748 C2745 1.463 . S
C2748 N2752 1.427 . S
C2749 H2739 0.929 . S
C2749 C2747 1.433 . S
C2749 N2752 1.384 . S
C2750 H2741 0.929 . S
C2750 C2742 1.378 . S
C2750 C2745 1.350 . S
C2751 H2738 0.929 . S
C2751 C2743 1.433 . S
C2751 N2753 1.384 . S
N2752 C2748 1.427 . S
N2752 C2749 1.384 . S
N2753 C2745 1.427 . S
N2753 C2751 1.384 . S
H2754 C2760 0.930 . S
H2755 C2764 0.930 . S
H2756 C2769 0.929 . S
H2757 C2767 0.929 . S
H2758 C2762 0.929 . S
H2759 C2768 0.929 . S
C2760 H2754 0.930 . S
C2760 C2761 1.367 . S
C2760 C2768 1.378 . S
C2761 C2760 1.367 . S
C2761 C2769 1.433 . S
C2762 H2758 0.929 . S
C2762 C2764 1.378 . S
C2762 C2766 1.350 . S
C2763 C2766 1.463 . S
C2763 C2768 1.350 . S
C2763 N2771 1.427 . S
C2764 H2755 0.930 . S
C2764 C2762 1.378 . S
C2764 C2765 1.367 . S
C2765 C2764 1.367 . S
C2765 C2767 1.433 . S
C2766 C2762 1.350 . S
C2766 C2763 1.463 . S
C2766 N2770 1.427 . S
C2767 H2757 0.929 . S
C2767 C2765 1.433 . S
C2767 N2770 1.384 . S
C2768 H2759 0.929 . S
C2768 C2760 1.378 . S
C2768 C2763 1.350 . S
C2769 H2756 0.929 . S
C2769 C2761 1.433 . S
C2769 N2771 1.384 . S
N2770 C2766 1.427 . S
N2770 C2767 1.384 . S
N2771 C2763 1.427 . S
N2771 C2769 1.384 . S
H2772 C2778 0.930 . S
H2773 C2782 0.930 . S
H2774 C2787 0.929 . S
H2775 C2785 0.929 . S
H2776 C2780 0.929 . S
H2777 C2786 0.929 . S
C2778 H2772 0.930 . S
C2778 C2779 1.367 . S
C2778 C2786 1.378 . S
C2779 C2778 1.367 . S
C2779 C2787 1.433 . S
C2780 H2776 0.929 . S
C2780 C2782 1.378 . S
C2780 C2784 1.350 . S
C2781 C2784 1.463 . S
C2781 C2786 1.350 . S
C2781 N2789 1.427 . S
C2782 H2773 0.930 . S
C2782 C2780 1.378 . S
C2782 C2783 1.367 . S
C2783 C2782 1.367 . S
C2783 C2785 1.433 . S
C2784 C2780 1.350 . S
C2784 C2781 1.463 . S
C2784 N2788 1.427 . S
C2785 H2775 0.929 . S
C2785 C2783 1.433 . S
C2785 N2788 1.384 . S
C2786 H2777 0.929 . S
C2786 C2778 1.378 . S
C2786 C2781 1.350 . S
C2787 H2774 0.929 . S
C2787 C2779 1.433 . S
C2787 N2789 1.384 . S
N2788 C2784 1.427 . S
N2788 C2785 1.384 . S
N2789 C2781 1.427 . S
N2789 C2787 1.384 . S
H2790 C2796 0.930 . S
H2791 C2800 0.930 . S
H2792 C2805 0.929 . S
H2793 C2803 0.929 . S
H2794 C2798 0.929 . S
H2795 C2804 0.929 . S
C2796 H2790 0.930 . S
C2796 C2797 1.367 . S
C2796 C2804 1.378 . S
C2797 C2796 1.367 . S
C2797 C2805 1.433 . S
C2798 H2794 0.929 . S
C2798 C2800 1.378 . S
C2798 C2802 1.350 . S
C2799 C2802 1.463 . S
C2799 C2804 1.350 . S
C2799 N2807 1.427 . S
C2800 H2791 0.930 . S
C2800 C2798 1.378 . S
C2800 C2801 1.367 . S
C2801 C2800 1.367 . S
C2801 C2803 1.433 . S
C2802 C2798 1.350 . S
C2802 C2799 1.463 . S
C2802 N2806 1.427 . S
C2803 H2793 0.929 . S
C2803 C2801 1.433 . S
C2803 N2806 1.384 . S
C2804 H2795 0.929 . S
C2804 C2796 1.378 . S
C2804 C2799 1.350 . S
C2805 H2792 0.929 . S
C2805 C2797 1.433 . S
C2805 N2807 1.384 . S
N2806 C2802 1.427 . S
N2806 C2803 1.384 . S
N2807 C2799 1.427 . S
N2807 C2805 1.384 . S
H2808 C2814 0.930 . S
H2809 C2818 0.930 . S
H2810 C2823 0.929 . S
H2811 C2821 0.929 . S
H2812 C2816 0.929 . S
H2813 C2822 0.929 . S
C2814 H2808 0.930 . S
C2814 C2815 1.367 . S
C2814 C2822 1.378 . S
C2815 C2814 1.367 . S
C2815 C2823 1.433 . S
C2816 H2812 0.929 . S
C2816 C2818 1.378 . S
C2816 C2820 1.350 . S
C2817 C2820 1.463 . S
C2817 C2822 1.350 . S
C2817 N2825 1.427 . S
C2818 H2809 0.930 . S
C2818 C2816 1.378 . S
C2818 C2819 1.367 . S
C2819 C2818 1.367 . S
C2819 C2821 1.433 . S
C2820 C2816 1.350 . S
C2820 C2817 1.463 . S
C2820 N2824 1.427 . S
C2821 H2811 0.929 . S
C2821 C2819 1.433 . S
C2821 N2824 1.384 . S
C2822 H2813 0.929 . S
C2822 C2814 1.378 . S
C2822 C2817 1.350 . S
C2823 H2810 0.929 . S
C2823 C2815 1.433 . S
C2823 N2825 1.384 . S
N2824 C2820 1.427 . S
N2824 C2821 1.384 . S
N2825 C2817 1.427 . S
N2825 C2823 1.384 . S
H2826 C2832 0.930 . S
H2827 C2836 0.930 . S
H2828 C2841 0.929 . S
H2829 C2839 0.929 . S
H2830 C2834 0.929 . S
H2831 C2840 0.929 . S
C2832 H2826 0.930 . S
C2832 C2833 1.367 . S
C2832 C2840 1.378 . S
C2833 C2832 1.367 . S
C2833 C2841 1.433 . S
C2834 H2830 0.929 . S
C2834 C2836 1.378 . S
C2834 C2838 1.350 . S
C2835 C2838 1.463 . S
C2835 C2840 1.350 . S
C2835 N2843 1.427 . S
C2836 H2827 0.930 . S
C2836 C2834 1.378 . S
C2836 C2837 1.367 . S
C2837 C2836 1.367 . S
C2837 C2839 1.433 . S
C2838 C2834 1.350 . S
C2838 C2835 1.463 . S
C2838 N2842 1.427 . S
C2839 H2829 0.929 . S
C2839 C2837 1.433 . S
C2839 N2842 1.384 . S
C2840 H2831 0.929 . S
C2840 C2832 1.378 . S
C2840 C2835 1.350 . S
C2841 H2828 0.929 . S
C2841 C2833 1.433 . S
C2841 N2843 1.384 . S
N2842 C2838 1.427 . S
N2842 C2839 1.384 . S
N2843 C2835 1.427 . S
N2843 C2841 1.384 . S
H2844 C2850 0.930 . S
H2845 C2854 0.930 . S
H2846 C2859 0.929 . S
H2847 C2857 0.929 . S
H2848 C2852 0.929 . S
H2849 C2858 0.929 . S
C2850 H2844 0.930 . S
C2850 C2851 1.367 . S
C2850 C2858 1.378 . S
C2851 C2850 1.367 . S
C2851 C2859 1.433 . S
C2852 H2848 0.929 . S
C2852 C2854 1.378 . S
C2852 C2856 1.350 . S
C2853 C2856 1.463 . S
C2853 C2858 1.350 . S
C2853 N2861 1.427 . S
C2854 H2845 0.930 . S
C2854 C2852 1.378 . S
C2854 C2855 1.367 . S
C2855 C2854 1.367 . S
C2855 C2857 1.433 . S
C2856 C2852 1.350 . S
C2856 C2853 1.463 . S
C2856 N2860 1.427 . S
C2857 H2847 0.929 . S
C2857 C2855 1.433 . S
C2857 N2860 1.384 . S
C2858 H2849 0.929 . S
C2858 C2850 1.378 . S
C2858 C2853 1.350 . S
C2859 H2846 0.929 . S
C2859 C2851 1.433 . S
C2859 N2861 1.384 . S
N2860 C2856 1.427 . S
N2860 C2857 1.384 . S
N2861 C2853 1.427 . S
N2861 C2859 1.384 . S
H2862 C2868 0.930 . S
H2863 C2872 0.930 . S
H2864 C2877 0.929 . S
H2865 C2875 0.929 . S
H2866 C2870 0.929 . S
H2867 C2876 0.929 . S
C2868 H2862 0.930 . S
C2868 C2869 1.367 . S
C2868 C2876 1.378 . S
C2869 C2868 1.367 . S
C2869 C2877 1.433 1_554 S
C2870 H2866 0.929 . S
C2870 C2872 1.378 . S
C2870 C2874 1.352 1_556 S
C2871 C2874 1.461 1_565 S
C2871 C2876 1.350 . S
C2871 N2879 1.427 1_554 S
C2872 H2863 0.930 . S
C2872 C2870 1.378 . S
C2872 C2873 1.367 1_556 S
C2873 C2872 1.367 1_554 S
C2873 C2875 1.433 . S
C2874 C2870 1.352 1_554 S
C2874 C2871 1.461 1_545 S
C2874 N2878 1.426 1_545 S
C2875 H2865 0.929 . S
C2875 C2873 1.433 . S
C2875 N2878 1.384 1_545 S
C2876 H2867 0.929 . S
C2876 C2868 1.378 . S
C2876 C2871 1.350 . S
C2877 H2864 0.929 . S
C2877 C2869 1.433 1_556 S
C2877 N2879 1.384 . S
N2878 C2874 1.426 1_565 S
N2878 C2875 1.384 1_565 S
N2879 C2871 1.427 1_556 S
N2879 C2877 1.384 . S
H2880 C2886 0.930 . S
H2881 C2890 0.930 . S
H2882 C2895 0.929 . S
H2883 C2893 0.929 . S
H2884 C2888 0.929 . S
H2885 C2894 0.929 . S
C2886 H2880 0.930 . S
C2886 C2887 1.367 . S
C2886 C2894 1.378 . S
C2887 C2886 1.367 . S
C2887 C2895 1.433 . S
C2888 H2884 0.929 . S
C2888 C2890 1.378 . S
C2888 C2892 1.350 . S
C2889 C2892 1.463 . S
C2889 C2894 1.350 . S
C2889 N2897 1.427 . S
C2890 H2881 0.930 . S
C2890 C2888 1.378 . S
C2890 C2891 1.367 . S
C2891 C2890 1.367 . S
C2891 C2893 1.433 . S
C2892 C2888 1.350 . S
C2892 C2889 1.463 . S
C2892 N2896 1.427 . S
C2893 H2883 0.929 . S
C2893 C2891 1.433 . S
C2893 N2896 1.384 . S
C2894 H2885 0.929 . S
C2894 C2886 1.378 . S
C2894 C2889 1.350 . S
C2895 H2882 0.929 . S
C2895 C2887 1.433 . S
C2895 N2897 1.384 . S
N2896 C2892 1.427 . S
N2896 C2893 1.384 . S
N2897 C2889 1.427 . S
N2897 C2895 1.384 . S
H2898 C2904 0.930 . S
H2899 C2908 0.930 . S
H2900 C2913 0.929 . S
H2901 C2911 0.929 . S
H2902 C2906 0.929 . S
H2903 C2912 0.929 . S
C2904 H2898 0.930 . S
C2904 C2905 1.367 . S
C2904 C2912 1.378 . S
C2905 C2904 1.367 . S
C2905 C2913 1.433 . S
C2906 H2902 0.929 . S
C2906 C2908 1.378 . S
C2906 C2910 1.350 . S
C2907 C2910 1.463 . S
C2907 C2912 1.350 . S
C2907 N2915 1.427 . S
C2908 H2899 0.930 . S
C2908 C2906 1.378 . S
C2908 C2909 1.367 . S
C2909 C2908 1.367 . S
C2909 C2911 1.433 . S
C2910 C2906 1.350 . S
C2910 C2907 1.463 . S
C2910 N2914 1.427 . S
C2911 H2901 0.929 . S
C2911 C2909 1.433 . S
C2911 N2914 1.384 . S
C2912 H2903 0.929 . S
C2912 C2904 1.378 . S
C2912 C2907 1.350 . S
C2913 H2900 0.929 . S
C2913 C2905 1.433 . S
C2913 N2915 1.384 . S
N2914 C2910 1.427 . S
N2914 C2911 1.384 . S
N2915 C2907 1.427 . S
N2915 C2913 1.384 . S
H2916 C2922 0.930 . S
H2917 C2926 0.930 . S
H2918 C2931 0.929 . S
H2919 C2929 0.929 . S
H2920 C2924 0.929 . S
H2921 C2930 0.929 . S
C2922 H2916 0.930 . S
C2922 C2923 1.367 . S
C2922 C2930 1.378 . S
C2923 C2922 1.367 . S
C2923 C2931 1.433 . S
C2924 H2920 0.929 . S
C2924 C2926 1.378 . S
C2924 C2928 1.350 . S
C2925 C2928 1.463 . S
C2925 C2930 1.350 . S
C2925 N2933 1.427 . S
C2926 H2917 0.930 . S
C2926 C2924 1.378 . S
C2926 C2927 1.367 . S
C2927 C2926 1.367 . S
C2927 C2929 1.433 . S
C2928 C2924 1.350 . S
C2928 C2925 1.463 . S
C2928 N2932 1.427 . S
C2929 H2919 0.929 . S
C2929 C2927 1.433 . S
C2929 N2932 1.384 . S
C2930 H2921 0.929 . S
C2930 C2922 1.378 . S
C2930 C2925 1.350 . S
C2931 H2918 0.929 . S
C2931 C2923 1.433 . S
C2931 N2933 1.384 . S
N2932 C2928 1.427 . S
N2932 C2929 1.384 . S
N2933 C2925 1.427 . S
N2933 C2931 1.384 . S
H2934 C2940 0.930 . S
H2935 C2944 0.930 . S
H2936 C2949 0.929 . S
H2937 C2947 0.929 . S
H2938 C2942 0.929 . S
H2939 C2948 0.929 . S
C2940 H2934 0.930 . S
C2940 C2941 1.367 . S
C2940 C2948 1.378 . S
C2941 C2940 1.367 . S
C2941 C2949 1.433 . S
C2942 H2938 0.929 . S
C2942 C2944 1.378 . S
C2942 C2946 1.350 . S
C2943 C2946 1.463 . S
C2943 C2948 1.350 . S
C2943 N2951 1.427 . S
C2944 H2935 0.930 . S
C2944 C2942 1.378 . S
C2944 C2945 1.367 . S
C2945 C2944 1.367 . S
C2945 C2947 1.433 . S
C2946 C2942 1.350 . S
C2946 C2943 1.463 . S
C2946 N2950 1.427 . S
C2947 H2937 0.929 . S
C2947 C2945 1.433 . S
C2947 N2950 1.384 . S
C2948 H2939 0.929 . S
C2948 C2940 1.378 . S
C2948 C2943 1.350 . S
C2949 H2936 0.929 . S
C2949 C2941 1.433 . S
C2949 N2951 1.384 . S
N2950 C2946 1.427 . S
N2950 C2947 1.384 . S
N2951 C2943 1.427 . S
N2951 C2949 1.384 . S
H2952 C2958 0.930 . S
H2953 C2962 0.930 . S
H2954 C2967 0.929 . S
H2955 C2965 0.929 . S
H2956 C2960 0.929 . S
H2957 C2966 0.929 . S
C2958 H2952 0.930 . S
C2958 C2959 1.367 . S
C2958 C2966 1.378 . S
C2959 C2958 1.367 . S
C2959 C2967 1.433 . S
C2960 H2956 0.929 . S
C2960 C2962 1.378 . S
C2960 C2964 1.350 . S
C2961 C2964 1.463 . S
C2961 C2966 1.350 . S
C2961 N2969 1.427 . S
C2962 H2953 0.930 . S
C2962 C2960 1.378 . S
C2962 C2963 1.367 . S
C2963 C2962 1.367 . S
C2963 C2965 1.433 . S
C2964 C2960 1.350 . S
C2964 C2961 1.463 . S
C2964 N2968 1.427 . S
C2965 H2955 0.929 . S
C2965 C2963 1.433 . S
C2965 N2968 1.384 . S
C2966 H2957 0.929 . S
C2966 C2958 1.378 . S
C2966 C2961 1.350 . S
C2967 H2954 0.929 . S
C2967 C2959 1.433 . S
C2967 N2969 1.384 . S
N2968 C2964 1.427 . S
N2968 C2965 1.384 . S
N2969 C2961 1.427 . S
N2969 C2967 1.384 . S
H2970 C2976 0.930 . S
H2971 C2980 0.930 . S
H2972 C2985 0.929 . S
H2973 C2983 0.929 . S
H2974 C2978 0.929 . S
H2975 C2984 0.929 . S
C2976 H2970 0.930 . S
C2976 C2977 1.367 . S
C2976 C2984 1.378 . S
C2977 C2976 1.367 . S
C2977 C2985 1.433 . S
C2978 H2974 0.929 . S
C2978 C2980 1.378 . S
C2978 C2982 1.350 . S
C2979 C2982 1.463 . S
C2979 C2984 1.350 . S
C2979 N2987 1.427 . S
C2980 H2971 0.930 . S
C2980 C2978 1.378 . S
C2980 C2981 1.367 . S
C2981 C2980 1.367 . S
C2981 C2983 1.433 . S
C2982 C2978 1.350 . S
C2982 C2979 1.463 . S
C2982 N2986 1.427 . S
C2983 H2973 0.929 . S
C2983 C2981 1.433 . S
C2983 N2986 1.384 . S
C2984 H2975 0.929 . S
C2984 C2976 1.378 . S
C2984 C2979 1.350 . S
C2985 H2972 0.929 . S
C2985 C2977 1.433 . S
C2985 N2987 1.384 . S
N2986 C2982 1.427 . S
N2986 C2983 1.384 . S
N2987 C2979 1.427 . S
N2987 C2985 1.384 . S
H2988 C2994 0.930 . S
H2989 C2998 0.930 . S
H2990 C3003 0.929 . S
H2991 C3001 0.929 . S
H2992 C2996 0.929 . S
H2993 C3002 0.929 . S
C2994 H2988 0.930 . S
C2994 C2995 1.367 . S
C2994 C3002 1.378 . S
C2995 C2994 1.367 . S
C2995 C3003 1.433 . S
C2996 H2992 0.929 . S
C2996 C2998 1.378 . S
C2996 C3000 1.350 . S
C2997 C3000 1.463 . S
C2997 C3002 1.350 . S
C2997 N3005 1.427 . S
C2998 H2989 0.930 . S
C2998 C2996 1.378 . S
C2998 C2999 1.367 . S
C2999 C2998 1.367 . S
C2999 C3001 1.433 . S
C3000 C2996 1.350 . S
C3000 C2997 1.463 . S
C3000 N3004 1.427 . S
C3001 H2991 0.929 . S
C3001 C2999 1.433 . S
C3001 N3004 1.384 . S
C3002 H2993 0.929 . S
C3002 C2994 1.378 . S
C3002 C2997 1.350 . S
C3003 H2990 0.929 . S
C3003 C2995 1.433 . S
C3003 N3005 1.384 . S
N3004 C3000 1.427 . S
N3004 C3001 1.384 . S
N3005 C2997 1.427 . S
N3005 C3003 1.384 . S
H3006 C3012 0.930 . S
H3007 C3016 0.930 . S
H3008 C3021 0.929 . S
H3009 C3019 0.929 . S
H3010 C3014 0.929 . S
H3011 C3020 0.929 . S
C3012 H3006 0.930 . S
C3012 C3013 1.367 . S
C3012 C3020 1.378 . S
C3013 C3012 1.367 . S
C3013 C3021 1.433 . S
C3014 H3010 0.929 . S
C3014 C3016 1.378 . S
C3014 C3018 1.350 . S
C3015 C3018 1.463 . S
C3015 C3020 1.350 . S
C3015 N3023 1.427 . S
C3016 H3007 0.930 . S
C3016 C3014 1.378 . S
C3016 C3017 1.367 . S
C3017 C3016 1.367 . S
C3017 C3019 1.433 . S
C3018 C3014 1.350 . S
C3018 C3015 1.463 . S
C3018 N3022 1.427 . S
C3019 H3009 0.929 . S
C3019 C3017 1.433 . S
C3019 N3022 1.384 . S
C3020 H3011 0.929 . S
C3020 C3012 1.378 . S
C3020 C3015 1.350 . S
C3021 H3008 0.929 . S
C3021 C3013 1.433 . S
C3021 N3023 1.384 . S
N3022 C3018 1.427 . S
N3022 C3019 1.384 . S
N3023 C3015 1.427 . S
N3023 C3021 1.384 . S
H3024 C3030 0.930 . S
H3025 C3034 0.930 . S
H3026 C3039 0.929 . S
H3027 C3037 0.929 . S
H3028 C3032 0.929 . S
H3029 C3038 0.929 . S
C3030 H3024 0.930 . S
C3030 C3031 1.367 . S
C3030 C3038 1.378 . S
C3031 C3030 1.367 . S
C3031 C3039 1.433 . S
C3032 H3028 0.929 . S
C3032 C3034 1.378 . S
C3032 C3036 1.350 . S
C3033 C3036 1.463 . S
C3033 C3038 1.350 . S
C3033 N3041 1.427 . S
C3034 H3025 0.930 . S
C3034 C3032 1.378 . S
C3034 C3035 1.367 . S
C3035 C3034 1.367 . S
C3035 C3037 1.433 . S
C3036 C3032 1.350 . S
C3036 C3033 1.463 . S
C3036 N3040 1.427 . S
C3037 H3027 0.929 . S
C3037 C3035 1.433 . S
C3037 N3040 1.384 . S
C3038 H3029 0.929 . S
C3038 C3030 1.378 . S
C3038 C3033 1.350 . S
C3039 H3026 0.929 . S
C3039 C3031 1.433 . S
C3039 N3041 1.384 . S
N3040 C3036 1.427 . S
N3040 C3037 1.384 . S
N3041 C3033 1.427 . S
N3041 C3039 1.384 . S
H3042 C3048 0.930 . S
H3043 C3052 0.930 . S
H3044 C3057 0.929 . S
H3045 C3055 0.929 . S
H3046 C3050 0.929 . S
H3047 C3056 0.929 . S
C3048 H3042 0.930 . S
C3048 C3049 1.367 . S
C3048 C3056 1.378 . S
C3049 C3048 1.367 . S
C3049 C3057 1.433 . S
C3050 H3046 0.929 . S
C3050 C3052 1.378 . S
C3050 C3054 1.350 . S
C3051 C3054 1.463 . S
C3051 C3056 1.350 . S
C3051 N3059 1.427 . S
C3052 H3043 0.930 . S
C3052 C3050 1.378 . S
C3052 C3053 1.367 . S
C3053 C3052 1.367 . S
C3053 C3055 1.433 . S
C3054 C3050 1.350 . S
C3054 C3051 1.463 . S
C3054 N3058 1.427 . S
C3055 H3045 0.929 . S
C3055 C3053 1.433 . S
C3055 N3058 1.384 . S
C3056 H3047 0.929 . S
C3056 C3048 1.378 . S
C3056 C3051 1.350 . S
C3057 H3044 0.929 . S
C3057 C3049 1.433 . S
C3057 N3059 1.384 . S
N3058 C3054 1.427 . S
N3058 C3055 1.384 . S
N3059 C3051 1.427 . S
N3059 C3057 1.384 . S
H3060 C3066 0.930 . S
H3061 C3070 0.930 . S
H3062 C3075 0.929 . S
H3063 C3073 0.929 . S
H3064 C3068 0.929 . S
H3065 C3074 0.929 . S
C3066 H3060 0.930 . S
C3066 C3067 1.367 . S
C3066 C3074 1.378 . S
C3067 C3066 1.367 . S
C3067 C3075 1.433 . S
C3068 H3064 0.929 . S
C3068 C3070 1.378 . S
C3068 C3072 1.350 . S
C3069 C3072 1.463 . S
C3069 C3074 1.350 . S
C3069 N3077 1.427 . S
C3070 H3061 0.930 . S
C3070 C3068 1.378 . S
C3070 C3071 1.367 . S
C3071 C3070 1.367 . S
C3071 C3073 1.433 . S
C3072 C3068 1.350 . S
C3072 C3069 1.463 . S
C3072 N3076 1.427 . S
C3073 H3063 0.929 . S
C3073 C3071 1.433 . S
C3073 N3076 1.384 . S
C3074 H3065 0.929 . S
C3074 C3066 1.378 . S
C3074 C3069 1.350 . S
C3075 H3062 0.929 . S
C3075 C3067 1.433 . S
C3075 N3077 1.384 . S
N3076 C3072 1.427 . S
N3076 C3073 1.384 . S
N3077 C3069 1.427 . S
N3077 C3075 1.384 . S
H3078 C3084 0.930 . S
H3079 C3088 0.930 . S
H3080 C3093 0.929 . S
H3081 C3091 0.929 . S
H3082 C3086 0.929 . S
H3083 C3092 0.929 . S
C3084 H3078 0.930 . S
C3084 C3085 1.367 . S
C3084 C3092 1.378 . S
C3085 C3084 1.367 . S
C3085 C3093 1.433 . S
C3086 H3082 0.929 . S
C3086 C3088 1.378 . S
C3086 C3090 1.350 . S
C3087 C3090 1.463 . S
C3087 C3092 1.350 . S
C3087 N3095 1.427 . S
C3088 H3079 0.930 . S
C3088 C3086 1.378 . S
C3088 C3089 1.367 . S
C3089 C3088 1.367 . S
C3089 C3091 1.433 . S
C3090 C3086 1.350 . S
C3090 C3087 1.463 . S
C3090 N3094 1.427 . S
C3091 H3081 0.929 . S
C3091 C3089 1.433 . S
C3091 N3094 1.384 . S
C3092 H3083 0.929 . S
C3092 C3084 1.378 . S
C3092 C3087 1.350 . S
C3093 H3080 0.929 . S
C3093 C3085 1.433 . S
C3093 N3095 1.384 . S
N3094 C3090 1.427 . S
N3094 C3091 1.384 . S
N3095 C3087 1.427 . S
N3095 C3093 1.384 . S
H3096 C3102 0.930 . S
H3097 C3106 0.930 . S
H3098 C3111 0.929 . S
H3099 C3109 0.929 . S
H3100 C3104 0.929 . S
H3101 C3110 0.929 . S
C3102 H3096 0.930 . S
C3102 C3103 1.367 . S
C3102 C3110 1.378 . S
C3103 C3102 1.367 . S
C3103 C3111 1.433 . S
C3104 H3100 0.929 . S
C3104 C3106 1.378 . S
C3104 C3108 1.350 . S
C3105 C3108 1.463 . S
C3105 C3110 1.350 . S
C3105 N3113 1.427 . S
C3106 H3097 0.930 . S
C3106 C3104 1.378 . S
C3106 C3107 1.367 . S
C3107 C3106 1.367 . S
C3107 C3109 1.433 . S
C3108 C3104 1.350 . S
C3108 C3105 1.463 . S
C3108 N3112 1.427 . S
C3109 H3099 0.929 . S
C3109 C3107 1.433 . S
C3109 N3112 1.384 . S
C3110 H3101 0.929 . S
C3110 C3102 1.378 . S
C3110 C3105 1.350 . S
C3111 H3098 0.929 . S
C3111 C3103 1.433 . S
C3111 N3113 1.384 . S
N3112 C3108 1.427 . S
N3112 C3109 1.384 . S
N3113 C3105 1.427 . S
N3113 C3111 1.384 . S
H3114 C3120 0.930 . S
H3115 C3124 0.930 . S
H3116 C3129 0.929 . S
H3117 C3127 0.929 . S
H3118 C3122 0.929 . S
H3119 C3128 0.929 . S
C3120 H3114 0.930 . S
C3120 C3121 1.367 . S
C3120 C3128 1.378 . S
C3121 C3120 1.367 . S
C3121 C3129 1.433 . S
C3122 H3118 0.929 . S
C3122 C3124 1.378 . S
C3122 C3126 1.350 . S
C3123 C3126 1.463 . S
C3123 C3128 1.350 . S
C3123 N3131 1.427 . S
C3124 H3115 0.930 . S
C3124 C3122 1.378 . S
C3124 C3125 1.367 . S
C3125 C3124 1.367 . S
C3125 C3127 1.433 . S
C3126 C3122 1.350 . S
C3126 C3123 1.463 . S
C3126 N3130 1.427 . S
C3127 H3117 0.929 . S
C3127 C3125 1.433 . S
C3127 N3130 1.384 . S
C3128 H3119 0.929 . S
C3128 C3120 1.378 . S
C3128 C3123 1.350 . S
C3129 H3116 0.929 . S
C3129 C3121 1.433 . S
C3129 N3131 1.384 . S
N3130 C3126 1.427 . S
N3130 C3127 1.384 . S
N3131 C3123 1.427 . S
N3131 C3129 1.384 . S
H3132 C3138 0.930 . S
H3133 C3142 0.930 . S
H3134 C3147 0.929 . S
H3135 C3145 0.929 . S
H3136 C3140 0.929 . S
H3137 C3146 0.929 . S
C3138 H3132 0.930 . S
C3138 C3139 1.367 . S
C3138 C3146 1.378 . S
C3139 C3138 1.367 . S
C3139 C3147 1.433 . S
C3140 H3136 0.929 . S
C3140 C3142 1.378 1_655 S
C3140 C3144 1.350 . S
C3141 C3144 1.463 . S
C3141 C3146 1.350 . S
C3141 N3149 1.427 . S
C3142 H3133 0.930 . S
C3142 C3140 1.378 1_455 S
C3142 C3143 1.367 . S
C3143 C3142 1.367 . S
C3143 C3145 1.433 . S
C3144 C3140 1.350 . S
C3144 C3141 1.463 . S
C3144 N3148 1.427 . S
C3145 H3135 0.929 . S
C3145 C3143 1.433 . S
C3145 N3148 1.384 1_455 S
C3146 H3137 0.929 . S
C3146 C3138 1.378 . S
C3146 C3141 1.350 . S
C3147 H3134 0.929 . S
C3147 C3139 1.433 . S
C3147 N3149 1.384 . S
N3148 C3144 1.427 . S
N3148 C3145 1.384 1_655 S
N3149 C3141 1.427 . S
N3149 C3147 1.384 . S
H3150 C3156 0.930 . S
H3151 C3160 0.930 . S
H3152 C3165 0.929 . S
H3153 C3163 0.929 . S
H3154 C3158 0.929 . S
H3155 C3164 0.929 . S
C3156 H3150 0.930 . S
C3156 C3157 1.367 . S
C3156 C3164 1.378 . S
C3157 C3156 1.367 . S
C3157 C3165 1.433 . S
C3158 H3154 0.929 . S
C3158 C3160 1.378 . S
C3158 C3162 1.350 . S
C3159 C3162 1.463 . S
C3159 C3164 1.350 . S
C3159 N3167 1.427 . S
C3160 H3151 0.930 . S
C3160 C3158 1.378 . S
C3160 C3161 1.367 . S
C3161 C3160 1.367 . S
C3161 C3163 1.433 . S
C3162 C3158 1.350 . S
C3162 C3159 1.463 . S
C3162 N3166 1.427 . S
C3163 H3153 0.929 . S
C3163 C3161 1.433 . S
C3163 N3166 1.384 . S
C3164 H3155 0.929 . S
C3164 C3156 1.378 . S
C3164 C3159 1.350 . S
C3165 H3152 0.929 . S
C3165 C3157 1.433 . S
C3165 N3167 1.384 . S
N3166 C3162 1.427 . S
N3166 C3163 1.384 . S
N3167 C3159 1.427 . S
N3167 C3165 1.384 . S
H3168 C3174 0.930 . S
H3169 C3178 0.930 . S
H3170 C3183 0.929 . S
H3171 C3181 0.929 . S
H3172 C3176 0.929 . S
H3173 C3182 0.929 . S
C3174 H3168 0.930 . S
C3174 C3175 1.367 . S
C3174 C3182 1.378 . S
C3175 C3174 1.367 . S
C3175 C3183 1.433 . S
C3176 H3172 0.929 . S
C3176 C3178 1.378 . S
C3176 C3180 1.350 . S
C3177 C3180 1.463 . S
C3177 C3182 1.350 . S
C3177 N3185 1.427 . S
C3178 H3169 0.930 . S
C3178 C3176 1.378 . S
C3178 C3179 1.367 . S
C3179 C3178 1.367 . S
C3179 C3181 1.433 . S
C3180 C3176 1.350 . S
C3180 C3177 1.463 . S
C3180 N3184 1.427 . S
C3181 H3171 0.929 . S
C3181 C3179 1.433 . S
C3181 N3184 1.384 . S
C3182 H3173 0.929 . S
C3182 C3174 1.378 . S
C3182 C3177 1.350 . S
C3183 H3170 0.929 . S
C3183 C3175 1.433 . S
C3183 N3185 1.384 . S
N3184 C3180 1.427 . S
N3184 C3181 1.384 . S
N3185 C3177 1.427 . S
N3185 C3183 1.384 . S
H3186 C3192 0.930 . S
H3187 C3196 0.930 . S
H3188 C3201 0.929 . S
H3189 C3199 0.929 . S
H3190 C3194 0.929 . S
H3191 C3200 0.929 . S
C3192 H3186 0.930 . S
C3192 C3193 1.367 . S
C3192 C3200 1.378 . S
C3193 C3192 1.367 . S
C3193 C3201 1.433 . S
C3194 H3190 0.929 . S
C3194 C3196 1.378 . S
C3194 C3198 1.350 . S
C3195 C3198 1.463 . S
C3195 C3200 1.350 . S
C3195 N3203 1.427 . S
C3196 H3187 0.930 . S
C3196 C3194 1.378 . S
C3196 C3197 1.367 . S
C3197 C3196 1.367 . S
C3197 C3199 1.433 . S
C3198 C3194 1.350 . S
C3198 C3195 1.463 . S
C3198 N3202 1.427 . S
C3199 H3189 0.929 . S
C3199 C3197 1.433 . S
C3199 N3202 1.384 . S
C3200 H3191 0.929 . S
C3200 C3192 1.378 . S
C3200 C3195 1.350 . S
C3201 H3188 0.929 . S
C3201 C3193 1.433 . S
C3201 N3203 1.384 . S
N3202 C3198 1.427 . S
N3202 C3199 1.384 . S
N3203 C3195 1.427 . S
N3203 C3201 1.384 . S
H3204 C3210 0.930 . S
H3205 C3214 0.930 . S
H3206 C3219 0.929 . S
H3207 C3217 0.929 . S
H3208 C3212 0.929 . S
H3209 C3218 0.929 . S
C3210 H3204 0.930 . S
C3210 C3211 1.367 . S
C3210 C3218 1.378 . S
C3211 C3210 1.367 . S
C3211 C3219 1.433 . S
C3212 H3208 0.929 . S
C3212 C3214 1.378 . S
C3212 C3216 1.350 . S
C3213 C3216 1.463 . S
C3213 C3218 1.350 . S
C3213 N3221 1.427 . S
C3214 H3205 0.930 . S
C3214 C3212 1.378 . S
C3214 C3215 1.367 . S
C3215 C3214 1.367 . S
C3215 C3217 1.433 . S
C3216 C3212 1.350 . S
C3216 C3213 1.463 . S
C3216 N3220 1.427 . S
C3217 H3207 0.929 . S
C3217 C3215 1.433 . S
C3217 N3220 1.384 . S
C3218 H3209 0.929 . S
C3218 C3210 1.378 . S
C3218 C3213 1.350 . S
C3219 H3206 0.929 . S
C3219 C3211 1.433 . S
C3219 N3221 1.384 . S
N3220 C3216 1.427 . S
N3220 C3217 1.384 . S
N3221 C3213 1.427 . S
N3221 C3219 1.384 . S
H3222 C3228 0.930 . S
H3223 C3232 0.930 . S
H3224 C3237 0.929 . S
H3225 C3235 0.929 . S
H3226 C3230 0.929 . S
H3227 C3236 0.929 . S
C3228 H3222 0.930 . S
C3228 C3229 1.367 . S
C3228 C3236 1.378 . S
C3229 C3228 1.367 . S
C3229 C3237 1.433 . S
C3230 H3226 0.929 . S
C3230 C3232 1.378 . S
C3230 C3234 1.350 . S
C3231 C3234 1.463 . S
C3231 C3236 1.350 . S
C3231 N3239 1.427 . S
C3232 H3223 0.930 . S
C3232 C3230 1.378 . S
C3232 C3233 1.367 . S
C3233 C3232 1.367 . S
C3233 C3235 1.433 . S
C3234 C3230 1.350 . S
C3234 C3231 1.463 . S
C3234 N3238 1.427 . S
C3235 H3225 0.929 . S
C3235 C3233 1.433 . S
C3235 N3238 1.384 . S
C3236 H3227 0.929 . S
C3236 C3228 1.378 . S
C3236 C3231 1.350 . S
C3237 H3224 0.929 . S
C3237 C3229 1.433 . S
C3237 N3239 1.384 . S
N3238 C3234 1.427 . S
N3238 C3235 1.384 . S
N3239 C3231 1.427 . S
N3239 C3237 1.384 . S
H3240 C3246 0.930 . S
H3241 C3250 0.930 . S
H3242 C3255 0.929 . S
H3243 C3253 0.929 . S
H3244 C3248 0.929 . S
H3245 C3254 0.929 . S
C3246 H3240 0.930 . S
C3246 C3247 1.367 . S
C3246 C3254 1.378 . S
C3247 C3246 1.367 . S
C3247 C3255 1.433 . S
C3248 H3244 0.929 . S
C3248 C3250 1.378 . S
C3248 C3252 1.350 . S
C3249 C3252 1.463 . S
C3249 C3254 1.350 . S
C3249 N3257 1.427 . S
C3250 H3241 0.930 . S
C3250 C3248 1.378 . S
C3250 C3251 1.367 . S
C3251 C3250 1.367 . S
C3251 C3253 1.433 . S
C3252 C3248 1.350 . S
C3252 C3249 1.463 . S
C3252 N3256 1.427 . S
C3253 H3243 0.929 . S
C3253 C3251 1.433 . S
C3253 N3256 1.384 . S
C3254 H3245 0.929 . S
C3254 C3246 1.378 . S
C3254 C3249 1.350 . S
C3255 H3242 0.929 . S
C3255 C3247 1.433 . S
C3255 N3257 1.384 . S
N3256 C3252 1.427 . S
N3256 C3253 1.384 . S
N3257 C3249 1.427 . S
N3257 C3255 1.384 . S
H3258 C3264 0.930 . S
H3259 C3268 0.930 . S
H3260 C3273 0.929 . S
H3261 C3271 0.929 . S
H3262 C3266 0.929 . S
H3263 C3272 0.929 . S
C3264 H3258 0.930 . S
C3264 C3265 1.367 . S
C3264 C3272 1.378 . S
C3265 C3264 1.367 . S
C3265 C3273 1.433 . S
C3266 H3262 0.929 . S
C3266 C3268 1.378 . S
C3266 C3270 1.350 . S
C3267 C3270 1.463 . S
C3267 C3272 1.350 . S
C3267 N3275 1.427 . S
C3268 H3259 0.930 . S
C3268 C3266 1.378 . S
C3268 C3269 1.367 . S
C3269 C3268 1.367 . S
C3269 C3271 1.433 . S
C3270 C3266 1.350 . S
C3270 C3267 1.463 . S
C3270 N3274 1.427 . S
C3271 H3261 0.929 . S
C3271 C3269 1.433 . S
C3271 N3274 1.384 . S
C3272 H3263 0.929 . S
C3272 C3264 1.378 . S
C3272 C3267 1.350 . S
C3273 H3260 0.929 . S
C3273 C3265 1.433 . S
C3273 N3275 1.384 . S
N3274 C3270 1.427 . S
N3274 C3271 1.384 . S
N3275 C3267 1.427 . S
N3275 C3273 1.384 . S
H3276 C3282 0.930 . S
H3277 C3286 0.930 . S
H3278 C3291 0.929 . S
H3279 C3289 0.929 . S
H3280 C3284 0.929 . S
H3281 C3290 0.929 . S
C3282 H3276 0.930 . S
C3282 C3283 1.367 . S
C3282 C3290 1.378 . S
C3283 C3282 1.367 . S
C3283 C3291 1.433 . S
C3284 H3280 0.929 . S
C3284 C3286 1.378 . S
C3284 C3288 1.350 . S
C3285 C3288 1.463 . S
C3285 C3290 1.350 . S
C3285 N3293 1.427 . S
C3286 H3277 0.930 . S
C3286 C3284 1.378 . S
C3286 C3287 1.367 . S
C3287 C3286 1.367 . S
C3287 C3289 1.433 . S
C3288 C3284 1.350 . S
C3288 C3285 1.463 . S
C3288 N3292 1.427 . S
C3289 H3279 0.929 . S
C3289 C3287 1.433 . S
C3289 N3292 1.384 . S
C3290 H3281 0.929 . S
C3290 C3282 1.378 . S
C3290 C3285 1.350 . S
C3291 H3278 0.929 . S
C3291 C3283 1.433 . S
C3291 N3293 1.384 . S
N3292 C3288 1.427 . S
N3292 C3289 1.384 . S
N3293 C3285 1.427 . S
N3293 C3291 1.384 . S
H3294 C3300 0.930 . S
H3295 C3304 0.930 . S
H3296 C3309 0.929 . S
H3297 C3307 0.929 . S
H3298 C3302 0.929 . S
H3299 C3308 0.929 . S
C3300 H3294 0.930 . S
C3300 C3301 1.367 . S
C3300 C3308 1.378 . S
C3301 C3300 1.367 . S
C3301 C3309 1.433 1_554 S
C3302 H3298 0.929 . S
C3302 C3304 1.378 . S
C3302 C3306 1.350 1_556 S
C3303 C3306 1.463 . S
C3303 C3308 1.350 . S
C3303 N3311 1.427 1_554 S
C3304 H3295 0.930 . S
C3304 C3302 1.378 . S
C3304 C3305 1.367 1_556 S
C3305 C3304 1.367 1_554 S
C3305 C3307 1.433 . S
C3306 C3302 1.350 1_554 S
C3306 C3303 1.463 . S
C3306 N3310 1.427 . S
C3307 H3297 0.929 . S
C3307 C3305 1.433 . S
C3307 N3310 1.384 . S
C3308 H3299 0.929 . S
C3308 C3300 1.378 . S
C3308 C3303 1.350 . S
C3309 H3296 0.929 . S
C3309 C3301 1.433 1_556 S
C3309 N3311 1.384 . S
N3310 C3306 1.427 . S
N3310 C3307 1.384 . S
N3311 C3303 1.427 1_556 S
N3311 C3309 1.384 . S
H3312 C3318 0.930 . S
H3313 C3322 0.930 . S
H3314 C3327 0.929 . S
H3315 C3325 0.929 . S
H3316 C3320 0.929 . S
H3317 C3326 0.929 . S
C3318 H3312 0.930 . S
C3318 C3319 1.367 . S
C3318 C3326 1.378 . S
C3319 C3318 1.367 . S
C3319 C3327 1.433 . S
C3320 H3316 0.929 . S
C3320 C3322 1.378 . S
C3320 C3324 1.350 . S
C3321 C3324 1.463 . S
C3321 C3326 1.350 . S
C3321 N3329 1.427 . S
C3322 H3313 0.930 . S
C3322 C3320 1.378 . S
C3322 C3323 1.367 . S
C3323 C3322 1.367 . S
C3323 C3325 1.433 . S
C3324 C3320 1.350 . S
C3324 C3321 1.463 . S
C3324 N3328 1.427 . S
C3325 H3315 0.929 . S
C3325 C3323 1.433 . S
C3325 N3328 1.384 . S
C3326 H3317 0.929 . S
C3326 C3318 1.378 . S
C3326 C3321 1.350 . S
C3327 H3314 0.929 . S
C3327 C3319 1.433 . S
C3327 N3329 1.384 . S
N3328 C3324 1.427 . S
N3328 C3325 1.384 . S
N3329 C3321 1.427 . S
N3329 C3327 1.384 . S
H3330 C3336 0.930 . S
H3331 C3340 0.930 . S
H3332 C3345 0.929 . S
H3333 C3343 0.929 . S
H3334 C3338 0.929 . S
H3335 C3344 0.929 . S
C3336 H3330 0.930 . S
C3336 C3337 1.367 . S
C3336 C3344 1.378 . S
C3337 C3336 1.367 . S
C3337 C3345 1.433 . S
C3338 H3334 0.929 . S
C3338 C3340 1.378 . S
C3338 C3342 1.350 . S
C3339 C3342 1.463 . S
C3339 C3344 1.350 . S
C3339 N3347 1.427 . S
C3340 H3331 0.930 . S
C3340 C3338 1.378 . S
C3340 C3341 1.367 . S
C3341 C3340 1.367 . S
C3341 C3343 1.433 . S
C3342 C3338 1.350 . S
C3342 C3339 1.463 . S
C3342 N3346 1.427 . S
C3343 H3333 0.929 . S
C3343 C3341 1.433 . S
C3343 N3346 1.384 . S
C3344 H3335 0.929 . S
C3344 C3336 1.378 . S
C3344 C3339 1.350 . S
C3345 H3332 0.929 . S
C3345 C3337 1.433 . S
C3345 N3347 1.384 . S
N3346 C3342 1.427 . S
N3346 C3343 1.384 . S
N3347 C3339 1.427 . S
N3347 C3345 1.384 . S
H3348 C3354 0.930 . S
H3349 C3358 0.930 . S
H3350 C3363 0.929 . S
H3351 C3361 0.929 . S
H3352 C3356 0.929 . S
H3353 C3362 0.929 . S
C3354 H3348 0.930 . S
C3354 C3355 1.367 . S
C3354 C3362 1.378 . S
C3355 C3354 1.367 . S
C3355 C3363 1.433 . S
C3356 H3352 0.929 . S
C3356 C3358 1.378 . S
C3356 C3360 1.350 . S
C3357 C3360 1.463 . S
C3357 C3362 1.350 . S
C3357 N3365 1.427 . S
C3358 H3349 0.930 . S
C3358 C3356 1.378 . S
C3358 C3359 1.367 . S
C3359 C3358 1.367 . S
C3359 C3361 1.433 . S
C3360 C3356 1.350 . S
C3360 C3357 1.463 . S
C3360 N3364 1.427 . S
C3361 H3351 0.929 . S
C3361 C3359 1.433 . S
C3361 N3364 1.384 . S
C3362 H3353 0.929 . S
C3362 C3354 1.378 . S
C3362 C3357 1.350 . S
C3363 H3350 0.929 . S
C3363 C3355 1.433 . S
C3363 N3365 1.384 . S
N3364 C3360 1.427 . S
N3364 C3361 1.384 . S
N3365 C3357 1.427 . S
N3365 C3363 1.384 . S
H3366 C3372 0.930 . S
H3367 C3376 0.930 . S
H3368 C3381 0.929 . S
H3369 C3379 0.929 . S
H3370 C3374 0.929 . S
H3371 C3380 0.929 . S
C3372 H3366 0.930 . S
C3372 C3373 1.367 . S
C3372 C3380 1.378 . S
C3373 C3372 1.367 . S
C3373 C3381 1.433 . S
C3374 H3370 0.929 . S
C3374 C3376 1.378 . S
C3374 C3378 1.350 . S
C3375 C3378 1.463 . S
C3375 C3380 1.350 . S
C3375 N3383 1.427 . S
C3376 H3367 0.930 . S
C3376 C3374 1.378 . S
C3376 C3377 1.367 . S
C3377 C3376 1.367 . S
C3377 C3379 1.433 . S
C3378 C3374 1.350 . S
C3378 C3375 1.463 . S
C3378 N3382 1.427 . S
C3379 H3369 0.929 . S
C3379 C3377 1.433 . S
C3379 N3382 1.384 . S
C3380 H3371 0.929 . S
C3380 C3372 1.378 . S
C3380 C3375 1.350 . S
C3381 H3368 0.929 . S
C3381 C3373 1.433 . S
C3381 N3383 1.384 . S
N3382 C3378 1.427 . S
N3382 C3379 1.384 . S
N3383 C3375 1.427 . S
N3383 C3381 1.384 . S
C1663 C101 1.731 . S
C1667 C379 1.558 . S
C1681 C57 2.172 . S
C1685 C462 2.135 . S
C1699 C70 1.403 . S
C1703 C547 1.298 . S
C1721 C627 1.460 . S
C1717 C82 1.553 . S
C1735 C23 1.600 . S
C1739 C711 1.592 . S
C1757 C804 0.902 . S
C1753 C29 0.920 . S
C1775 C882 0.816 . S
C1771 C49 0.793 . S
C1789 C10 1.555 . S
C1793 C967 1.322 . S
C1811 C378 1.944 . S
C1807 C218 2.036 . S
C1825 C226 0.742 . S
C1829 C459 0.754 . S
C1847 C546 1.230 . S
C1843 C251 1.263 . S
C1865 C631 1.423 . S
C1861 C159 1.543 . S
C1879 C211 2.091 . S
C1883 C715 1.885 . S
C1901 C807 1.134 . S
C1897 C225 1.226 . S
C1919 C879 0.806 . S
C1915 C252 0.792 . S
C1937 C966 1.471 . S
C1933 C166 1.615 . S
C1955 C375 1.417 . S
C1951 C147 1.490 . S
C1969 C263 1.885 . S
C1973 C1050 1.824 1_556 S
C1991 C1124 2.153 . S
C1987 C309 2.369 . S
C2009 C1219 0.603 1_655 S
C2005 C291 0.354 . S
C2023 C108 1.099 . S
C2027 C963 1.159 . S
C2041 C121 1.493 . S
C2045 C543 1.490 . S
C2059 C302 2.178 . S
C2063 C1302 2.093 . S
C2081 C1387 0.690 . S
C2077 C276 0.681 . S
C2099 C368 1.825 1_565 S
C2095 C55 1.939 . S
C2117 C1395 2.352 . S
C2113 C96 2.394 . S
C2131 C88 1.757 . S
C2135 C536 1.681 . S
C2149 C75 1.775 . S
C2153 C1308 1.639 . S
C2171 C720 1.607 . S
C2167 C4 1.658 . S
C2185 C44 1.160 . S
C2189 C1131 1.044 . S
C2207 C891 1.229 1_565 S
C2203 C31 1.210 . S
C2225 C1460 1.518 . S
C2221 C18 1.643 . S
C2243 C387 2.203 . S
C2239 C133 2.302 . S
C2261 C1392 0.829 . S
C2257 C296 0.884 . S
C2275 C107 1.419 . S
C2279 C555 1.362 . S
C2293 C264 1.867 . S
C2297 C1292 1.757 . S
C2311 C140 2.289 . S
C2315 C704 2.137 . S
C2333 C1134 1.265 . S
C2329 C289 1.355 . S
C2347 C114 0.998 . S
C2351 C888 0.935 . S
C2365 C265 1.854 . S
C2369 C1479 1.728 . S
C2383 C179 1.587 . S
C2387 C384 1.469 . S
C2401 C161 2.130 . S
C2405 C1059 2.055 . S
C2419 C244 2.606 . S
C2423 C799 2.435 . S
C2437 C224 0.842 . S
C2441 C1208 0.833 . S
C2459 C1476 0.950 . S
C2455 C257 0.948 1_565 S
C2473 C199 1.583 . S
C2477 C552 1.520 . S
C2495 C639 2.340 . S
C2491 C237 2.435 . S
C2513 C452 0.939 . S
C2509 C185 0.988 . S
C2527 C69 1.735 . S
C2531 C1555 1.570 . S
C2549 C1386 2.127 . S
C2545 C83 2.169 . S
C2563 C94 1.405 . S
C2567 C1639 1.298 . S
C2581 C56 1.552 . S
C2585 C1299 1.444 . S
C2599 C42 1.612 . S
C2603 C1047 1.605 . S
C2621 C1140 0.884 . S
C2617 C3 0.926 . S
C2639 C1218 0.828 . S
C2635 C16 0.797 . S
C2657 C1471 1.339 . S
C2653 C36 1.564 . S
C2675 C1554 1.932 . S
C2671 C238 2.036 . S
C2689 C174 0.748 . S
C2693 C1383 0.737 . S
C2711 C1638 1.211 . S
C2707 C186 1.253 . S
C2729 C1303 1.431 . S
C2725 C198 1.543 . S
C2747 C1051 1.897 . S
C2743 C239 2.098 . S
C2761 C173 1.225 . S
C2765 C1143 1.133 . S
C2783 C1215 0.785 . S
C2779 C187 0.807 . S
C2797 C205 1.617 . S
C2801 C1470 1.477 . S
C2819 C1551 1.426 . S
C2815 C290 1.487 . S
C2833 C122 1.882 . S
C2837 C714 1.832 . S
C2855 C788 2.160 . S
C2851 C134 2.381 . S
C2873 C883 0.606 . S
C2869 C148 0.358 . S
C2891 C1467 1.158 . S
C2887 C283 1.107 . S
C2905 C270 1.491 . S
C2909 C1635 1.490 . S
C2927 C630 2.091 . S
C2923 C135 2.172 . S
C2945 C463 0.691 . S
C2941 C109 0.674 . S
C2959 C81 1.937 . S
C2963 C1544 1.815 . S
C2981 C471 2.349 . S
C2977 C68 2.393 . S
C2995 C62 1.761 . S
C2999 C1628 1.666 . S
C3013 C95 1.775 . S
C3017 C636 1.638 . S
C3031 C30 1.662 . S
C3035 C1056 1.598 . S
C3053 C795 1.054 . S
C3049 C17 1.153 . S
C3067 C5 1.200 . S
C3071 C1227 1.237 . S
C3085 C43 1.645 . S
C3089 C956 1.521 . S
C3107 C1563 2.192 . S
C3103 C304 2.302 . S
C3121 C153 0.877 . S
C3125 C468 0.855 . S
C3143 C1647 1.361 . S
C3139 C278 1.419 . S
C3157 C127 1.864 . S
C3161 C620 1.769 . S
C3175 C303 2.281 . S
C3179 C1040 2.139 . S
C3197 C798 1.261 . S
C3193 C146 1.357 . S
C3211 C277 0.997 . S
C3215 C1224 0.930 . S
C3233 C975 1.735 . S
C3229 C120 1.853 . S
C3251 C1560 1.483 . S
C3247 C231 1.585 . S
C3269 C723 2.043 1_665 S
C3265 C200 2.131 . S
C3283 C212 2.610 . S
C3287 C1135 2.442 . S
C3305 C872 0.822 . S
C3301 C172 0.842 . S
C3319 C192 0.960 . S
C3323 C972 0.931 . S
C3337 C160 1.587 . S
C3341 C1644 1.511 . S
C3359 C1311 2.338 . S
C3355 C213 2.437 1_565 S
C3377 C1376 0.939 . S
C3373 C250 0.990 . S
