# Generated by pormake.
# Topology anh, (6,3)-cn, num edge types: 1
# Building blocks:
#     Node 0, Type 0, BuildingBlock: BETFEN_clean_sbu_0, # of connection points: 6
#     Node 1, Type 0, BuildingBlock: BETFEN_clean_sbu_0, # of connection points: 6
#     Node 2, Type 0, BuildingBlock: BETFEN_clean_sbu_0, # of connection points: 6
#     Node 3, Type 1, BuildingBlock: OLANEW_clean_sbu_2, # of connection points: 3
#     Node 4, Type 1, BuildingBlock: OLANEW_clean_sbu_2, # of connection points: 3
#     Node 5, Type 1, BuildingBlock: OLANEW_clean_sbu_2, # of connection points: 3
#     Node 6, Type 1, BuildingBlock: OLANEW_clean_sbu_2, # of connection points: 3
#     Node 7, Type 1, BuildingBlock: OLANEW_clean_sbu_2, # of connection points: 3
#     Node 8, Type 1, BuildingBlock: OLANEW_clean_sbu_2, # of connection points: 3
#     Edge 9, Type (0, 1), BuildingBlock: KIFKEQ_clean_linker_1, # of connection points: 2
#     Edge 10, Type (0, 1), BuildingBlock: KIFKEQ_clean_linker_1, # of connection points: 2
#     Edge 11, Type (0, 1), BuildingBlock: KIFKEQ_clean_linker_1, # of connection points: 2
#     Edge 12, Type (0, 1), BuildingBlock: KIFKEQ_clean_linker_1, # of connection points: 2
#     Edge 13, Type (0, 1), BuildingBlock: KIFKEQ_clean_linker_1, # of connection points: 2
#     Edge 14, Type (0, 1), BuildingBlock: KIFKEQ_clean_linker_1, # of connection points: 2
#     Edge 15, Type (0, 1), BuildingBlock: KIFKEQ_clean_linker_1, # of connection points: 2
#     Edge 16, Type (0, 1), BuildingBlock: KIFKEQ_clean_linker_1, # of connection points: 2
#     Edge 17, Type (0, 1), BuildingBlock: KIFKEQ_clean_linker_1, # of connection points: 2
#     Edge 18, Type (0, 1), BuildingBlock: KIFKEQ_clean_linker_1, # of connection points: 2
#     Edge 19, Type (0, 1), BuildingBlock: KIFKEQ_clean_linker_1, # of connection points: 2
#     Edge 20, Type (0, 1), BuildingBlock: KIFKEQ_clean_linker_1, # of connection points: 2
#     Edge 21, Type (0, 1), BuildingBlock: KIFKEQ_clean_linker_1, # of connection points: 2
#     Edge 22, Type (0, 1), BuildingBlock: KIFKEQ_clean_linker_1, # of connection points: 2
#     Edge 23, Type (0, 1), BuildingBlock: KIFKEQ_clean_linker_1, # of connection points: 2
#     Edge 24, Type (0, 1), BuildingBlock: KIFKEQ_clean_linker_1, # of connection points: 2
#     Edge 25, Type (0, 1), BuildingBlock: KIFKEQ_clean_linker_1, # of connection points: 2
#     Edge 26, Type (0, 1), BuildingBlock: KIFKEQ_clean_linker_1, # of connection points: 2
# Relax obj value: 0.139
# Max RMSD: 0.166
# Mean RMSD: 0.114
data_MOF--net-anh--node1-BETFEN_clean_sbu_0--node2-OLANEW_clean_sbu_2--edge1-KIFKEQ_clean_linker_1
_symmetry_space_group_name_H-M    P1
_symmetry_Int_Tables_number       1
_symmetry_cell_setting            triclinic
loop_
_symmetry_equiv_pos_as_xyz
'x, y, z'
_cell_length_a     33.88224
_cell_length_b     37.781798
_cell_length_c     51.586603
_cell_angle_alpha  89.927864
_cell_angle_beta   92.649237
_cell_angle_gamma 108.42579
loop_
_atom_site_label
_atom_site_type_symbol
_atom_site_fract_x
_atom_site_fract_y
_atom_site_fract_z
_atom_type_partial_charge
Pr0 Pr 0.01211 0.49582 0.16427 0.0
Pr1 Pr 0.03799 0.58299 0.14503 0.0
C2 C 0.98035 0.43107 0.18929 0.0
C3 C 0.94059 0.40081 0.19117 0.0
C4 C 0.91076 0.39182 0.17037 0.0
C5 C 0.87371 0.36221 0.17234 0.0
C6 C 0.86574 0.34116 0.19518 0.0
C7 C 0.8955 0.35091 0.2161 0.0
C8 C 0.93254 0.38038 0.21407 0.0
C9 C 0.0192 0.50747 0.11124 0.0
C10 C 0.93765 0.53684 0.15115 0.0
C11 C 0.06772 0.64626 0.11852 0.0
C12 C 0.10532 0.67857 0.12328 0.0
C13 C 0.13309 0.67816 0.14421 0.0
C14 C 0.16868 0.70874 0.14929 0.0
C15 C 0.17738 0.74042 0.13348 0.0
C16 C 0.14947 0.74062 0.1124 0.0
C17 C 0.11371 0.70989 0.10734 0.0
C18 C 0.04851 0.57844 0.1993 0.0
C19 C 0.11034 0.54024 0.15622 0.0
O20 O 0.98232 0.4635 0.19921 0.0
O21 O 0.99895 0.43357 0.16735 0.0
O22 O 1.00417 0.52551 0.1264 0.0
O23 O 0.02776 0.48006 0.12297 0.0
O24 O 0.96527 0.56708 0.14216 0.0
O25 O 0.9481 0.50834 0.16097 0.0
O26 O 0.07453 0.61511 0.11226 0.0
O27 O 0.03902 0.64172 0.13558 0.0
O28 O 0.03726 0.55278 0.18265 0.0
O29 O 0.05486 0.61006 0.1876 0.0
O30 O 0.08475 0.51426 0.17024 0.0
O31 O 0.09779 0.56476 0.14254 0.0
H32 H 0.9163 0.40744 0.15255 0.0
H33 H 0.85172 0.35535 0.15577 0.0
H34 H 0.89012 0.33589 0.23416 0.0
H35 H 0.95505 0.38713 0.2304 0.0
H36 H 0.12703 0.6542 0.15677 0.0
H37 H 0.18897 0.70781 0.16595 0.0
H38 H 0.15539 0.7644 0.09971 0.0
H39 H 0.09262 0.7106 0.09106 0.0
Pr40 Pr 0.56517 0.03423 0.52519 0.0
Pr41 Pr 0.46552 1.00623 0.53358 0.0
C42 C 0.64287 0.06684 0.50969 0.0
C43 C 0.66925 0.10449 0.50325 0.0
C44 C 0.71229 0.11473 0.50871 0.0
C45 C 0.73782 0.15079 0.50356 0.0
C46 C 0.72068 0.17722 0.49281 0.0
C47 C 0.67742 0.16684 0.48739 0.0
C48 C 0.65187 0.13078 0.49267 0.0
C49 C 0.5404 0.02257 0.576 0.0
C50 C 0.51383 0.09768 0.52981 0.0
C51 C 0.39069 0.97745 0.55375 0.0
C52 C 0.35454 0.94439 0.54741 0.0
C53 C 0.34569 0.93086 0.52176 0.0
C54 C 0.31333 0.89788 0.51606 0.0
C55 C 0.28945 0.87757 0.53593 0.0
C56 C 0.29818 0.89137 0.56159 0.0
C57 C 0.33046 0.92457 0.56726 0.0
C58 C 0.48123 1.00525 0.48055 0.0
C59 C 0.51849 0.94385 0.52961 0.0
O60 O 0.61121 0.05083 0.49355 0.0
O61 O 0.63407 0.06157 0.5341 0.0
O62 O 0.52383 0.03723 0.5585 0.0
O63 O 0.57252 0.01473 0.56786 0.0
O64 O 0.48021 0.07121 0.53719 0.0
O65 O 0.5475 0.09014 0.52256 0.0
O66 O 0.42407 0.97044 0.56309 0.0
O67 O 0.39867 1.00437 0.53673 0.0
O68 O 0.50682 0.01363 0.4996 0.0
O69 O 0.44379 0.99658 0.48885 0.0
O70 O 0.55059 0.96971 0.52006 0.0
O71 O 0.48596 0.9519 0.5383 0.0
H72 H 0.72615 0.09481 0.51701 0.0
H73 H 0.77107 0.15782 0.50765 0.0
H74 H 0.66328 0.18671 0.47936 0.0
H75 H 0.61858 0.12352 0.48862 0.0
H76 H 0.36435 0.94538 0.50617 0.0
H77 H 0.30782 0.88768 0.49617 0.0
H78 H 0.28015 0.87644 0.57728 0.0
H79 H 0.33709 0.93443 0.5872 0.0
Pr80 Pr 0.49412 0.49286 0.80036 0.0
Pr81 Pr 0.52512 0.57847 0.82282 0.0
C82 C 0.47329 0.43082 0.77082 0.0
C83 C 0.4775 0.39397 0.7757 0.0
C84 C 0.50442 0.38959 0.79605 0.0
C85 C 0.50307 0.354 0.8041 0.0
C86 C 0.47464 0.32223 0.79199 0.0
C87 C 0.44928 0.32675 0.77068 0.0
C88 C 0.4506 0.36245 0.76267 0.0
C89 C 0.50839 0.49483 0.85454 0.0
C90 C 0.59449 0.53684 0.81339 0.0
C91 C 0.54184 0.64031 0.85245 0.0
C92 C 0.52762 0.67242 0.85724 0.0
C93 C 0.5139 0.6907 0.83676 0.0
C94 C 0.50409 0.7232 0.8416 0.0
C95 C 0.50762 0.73777 0.86701 0.0
C96 C 0.51947 0.71827 0.88758 0.0
C97 C 0.52948 0.68589 0.88269 0.0
C98 C 0.52269 0.56945 0.76899 0.0
C99 C 0.42296 0.53461 0.81255 0.0
O100 O 0.50806 0.45831 0.76838 0.0
O101 O 0.447 0.43931 0.78554 0.0
O102 O 0.51267 0.52121 0.83919 0.0
O103 O 0.49654 0.46362 0.84142 0.0
O104 O 0.5838 0.55959 0.82902 0.0
O105 O 0.56703 0.51341 0.79719 0.0
O106 O 0.51757 0.60774 0.85958 0.0
O107 O 0.55945 0.63938 0.83047 0.0
O108 O 0.49645 0.54998 0.78408 0.0
O109 O 0.55009 0.59711 0.7814 0.0
O110 O 0.43054 0.50487 0.80318 0.0
O111 O 0.45271 0.56511 0.82086 0.0
H112 H 0.52515 0.4137 0.80649 0.0
H113 H 0.52331 0.35133 0.82034 0.0
H114 H 0.42683 0.30276 0.76114 0.0
H115 H 0.42928 0.36542 0.74714 0.0
H116 H 0.51195 0.68051 0.81696 0.0
H117 H 0.49554 0.73775 0.82527 0.0
H118 H 0.52187 0.72848 0.90739 0.0
H119 H 0.53966 0.67184 0.89875 0.0
O120 O 0.5297 0.05639 0.27691 0.0
Cd121 Cd 0.53359 0.06366 0.2298 0.0
O122 O 0.51802 0.99557 0.27697 0.0
Cd123 Cd 0.50212 0.98609 0.23537 0.0
O124 O 0.45697 0.95205 0.20611 0.0
C125 C 0.41939 0.9516 0.20721 0.0
O126 O 0.41049 0.97326 0.22438 0.0
C127 C 0.52537 0.02633 0.28925 0.0
C128 C 0.6039 0.12328 0.21795 0.0
O129 O 0.56902 0.12848 0.22178 0.0
O130 O 0.60544 0.08986 0.21943 0.0
O131 O 0.51908 0.48114 0.57171 0.0
Cd132 Cd 0.52252 0.44554 0.53155 0.0
O133 O 0.51898 0.53706 0.55859 0.0
Cd134 Cd 0.51523 0.59558 0.5594 0.0
O135 O 0.50877 0.65268 0.55413 0.0
C136 C 0.54003 0.68243 0.5555 0.0
O137 O 0.57722 0.67944 0.56052 0.0
C138 C 0.51824 0.51403 0.57695 0.0
C139 C 0.51969 0.36947 0.53574 0.0
O140 O 0.55418 0.39622 0.53836 0.0
O141 O 0.48639 0.37842 0.53204 0.0
O142 O 0.04584 0.52637 0.90346 0.0
Cd143 Cd 0.0491 0.5282 0.8562 0.0
O144 O 0.98157 0.52814 0.90536 0.0
Cd145 Cd 0.96232 0.52519 0.86423 0.0
O146 O 0.90503 0.52048 0.84113 0.0
C147 C 0.89496 0.5499 0.83782 0.0
O148 O 0.92119 0.58195 0.84618 0.0
C149 C 0.01552 0.5276 0.91667 0.0
C150 C 0.12858 0.52995 0.84238 0.0
O151 O 0.12099 0.55984 0.84877 0.0
O152 O 0.09845 0.49917 0.8421 0.0
O153 O 0.04623 0.56587 0.40859 0.0
Cd154 Cd 0.03731 0.56219 0.45535 0.0
O155 O 0.98988 0.51846 0.39929 0.0
Cd156 Cd 0.97273 0.50241 0.43881 0.0
O157 O 0.93278 0.45364 0.45801 0.0
C158 C 0.92008 0.42536 0.4429 0.0
O159 O 0.93266 0.42863 0.41903 0.0
C160 C 0.02121 0.54446 0.3919 0.0
C161 C 0.08723 0.62862 0.479 0.0
O162 O 0.10071 0.60075 0.47657 0.0
O163 O 0.04985 0.62479 0.47069 0.0
O164 O 0.52076 0.06084 0.78043 0.0
Cd165 Cd 0.52204 0.06879 0.82741 0.0
O166 O 0.45277 0.03606 0.77339 0.0
Cd167 Cd 0.43645 0.03926 0.81362 0.0
O168 O 0.4161 0.03769 0.85358 0.0
C169 C 0.41224 0.06491 0.8666 0.0
O170 O 0.39744 0.05863 0.88985 0.0
C171 C 0.48932 0.04682 0.76493 0.0
C172 C 0.51666 1.00125 0.8506 0.0
O173 O 0.55217 0.02476 0.84601 0.0
O174 O 0.48398 1.01022 0.84482 0.0
O175 O 0.53628 0.49401 0.0646 0.0
Cd176 Cd 0.54641 0.4972 0.11193 0.0
O177 O 0.49711 0.53087 0.05997 0.0
Cd178 Cd 0.47623 0.52976 0.0997 0.0
O179 O 0.42055 0.52881 0.1205 0.0
C180 C 0.39173 0.53375 0.10567 0.0
O181 O 0.39832 0.53877 0.08083 0.0
C182 C 0.51822 0.51215 0.05021 0.0
C183 C 0.63053 0.50678 0.12518 0.0
O184 O 0.60382 0.47418 0.1222 0.0
O185 O 0.61742 0.53495 0.12239 0.0
H186 H 0.17282 0.59438 0.1344 0.0
H187 H 0.14732 0.48798 0.17241 0.0
H188 H 0.24178 0.59293 0.12501 0.0
H189 H 0.21712 0.48665 0.16278 0.0
H190 H 0.36292 0.51818 0.15498 0.0
H191 H 0.29622 0.52026 0.17058 0.0
H192 H 0.26344 0.55253 0.09433 0.0
H193 H 0.32925 0.55059 0.07886 0.0
C194 C 0.18196 0.57072 0.14096 0.0
C195 C 0.15412 0.54097 0.15382 0.0
C196 C 0.22158 0.56991 0.13549 0.0
C197 C 0.23464 0.5394 0.14276 0.0
C198 C 0.20788 0.51055 0.15695 0.0
C199 C 0.1679 0.51129 0.1624 0.0
C200 C 0.34141 0.52573 0.14161 0.0
C201 C 0.35157 0.53442 0.1157 0.0
C202 C 0.3032 0.52675 0.15052 0.0
C203 C 0.27478 0.53692 0.13375 0.0
C204 C 0.28493 0.54521 0.10786 0.0
C205 C 0.32269 0.5439 0.09896 0.0
H206 H 0.7181 0.21709 0.44897 0.0
H207 H 0.78516 0.223 0.52296 0.0
H208 H 0.76513 0.27823 0.43803 0.0
H209 H 0.83295 0.28385 0.51172 0.0
H210 H 0.88594 0.40856 0.49043 0.0
H211 H 0.83603 0.34958 0.50341 0.0
H212 H 0.83874 0.30265 0.42746 0.0
H213 H 0.88788 0.36129 0.41442 0.0
C214 C 0.74268 0.2316 0.46298 0.0
C215 C 0.74806 0.21519 0.48677 0.0
C216 C 0.76986 0.26644 0.45662 0.0
C217 C 0.80293 0.2857 0.47394 0.0
C218 C 0.80764 0.26977 0.49804 0.0
C219 C 0.78056 0.23479 0.50435 0.0
C220 C 0.87587 0.38561 0.47655 0.0
C221 C 0.89078 0.38965 0.45138 0.0
C222 C 0.84742 0.35184 0.48401 0.0
C223 C 0.83325 0.32159 0.46638 0.0
C224 C 0.84849 0.32564 0.44133 0.0
C225 C 0.87691 0.35922 0.43392 0.0
H226 H 0.4491 0.76593 0.84475 0.0
H227 H 0.55546 0.79366 0.89929 0.0
H228 H 0.4489 0.83026 0.84658 0.0
H229 H 0.55396 0.8575 0.90207 0.0
H230 H 0.57959 0.97213 0.86138 0.0
H231 H 0.57311 0.90765 0.87115 0.0
H232 H 0.43937 0.88091 0.87195 0.0
H233 H 0.44578 0.94543 0.86159 0.0
C234 C 0.47194 0.7856 0.85749 0.0
C235 C 0.50265 0.77482 0.87157 0.0
C236 C 0.4715 0.82236 0.8588 0.0
C237 C 0.5017 0.84904 0.8743 0.0
C238 C 0.53068 0.83767 0.88967 0.0
C239 C 0.53122 0.80096 0.88829 0.0
C240 C 0.54886 0.95267 0.86406 0.0
C241 C 0.51319 0.96374 0.86039 0.0
C242 C 0.54513 0.91572 0.86985 0.0
C243 C 0.50567 0.88912 0.87216 0.0
C244 C 0.47013 0.90068 0.86991 0.0
C245 C 0.47386 0.93765 0.86408 0.0
H246 H 0.9012 0.58379 0.12642 0.0
H247 H 0.87214 0.48277 0.17118 0.0
H248 H 0.82731 0.57691 0.12135 0.0
H249 H 0.79846 0.47653 0.16676 0.0
H250 H 0.66853 0.45283 0.12769 0.0
H251 H 0.74238 0.46095 0.13489 0.0
H252 H 0.76791 0.57998 0.14341 0.0
H253 H 0.69403 0.57189 0.1354 0.0
C254 C 0.87914 0.56031 0.13542 0.0
C255 C 0.89276 0.53376 0.1491 0.0
C256 C 0.83668 0.55647 0.13263 0.0
C257 C 0.80672 0.52608 0.14357 0.0
C258 C 0.82047 0.49993 0.15767 0.0
C259 C 0.86288 0.50365 0.16034 0.0
C260 C 0.68985 0.48074 0.1312 0.0
C261 C 0.67532 0.51171 0.1309 0.0
C262 C 0.73228 0.4854 0.1355 0.0
C263 C 0.76132 0.52115 0.13975 0.0
C264 C 0.74663 0.55209 0.13982 0.0
C265 C 0.70418 0.54743 0.1354 0.0
H266 H 0.23102 0.86127 0.49565 0.0
H267 H 0.27416 0.81219 0.56237 0.0
H268 H 0.1805 0.80081 0.48385 0.0
H269 H 0.22292 0.75183 0.5509 0.0
H270 H 0.16644 0.64443 0.50022 0.0
H271 H 0.21305 0.70474 0.51585 0.0
H272 H 0.11648 0.75454 0.49867 0.0
H273 H 0.06991 0.69431 0.48279 0.0
C274 C 0.22951 0.83759 0.50787 0.0
C275 C 0.25665 0.84146 0.52988 0.0
C276 C 0.20032 0.80305 0.50126 0.0
C277 C 0.19776 0.77154 0.51643 0.0
C278 C 0.2244 0.77554 0.53871 0.0
C279 C 0.25344 0.81016 0.54542 0.0
C280 C 0.15502 0.66817 0.49995 0.0
C281 C 0.11453 0.6646 0.49015 0.0
C282 C 0.18167 0.70268 0.50904 0.0
C283 C 0.16848 0.73442 0.50842 0.0
C284 C 0.12769 0.73068 0.49912 0.0
C285 C 0.10096 0.69613 0.49015 0.0
H286 H 0.46934 0.3031 0.8429 0.0
H287 H 0.46589 0.25687 0.76595 0.0
H288 H 0.45582 0.24114 0.86123 0.0
H289 H 0.45144 0.19458 0.78431 0.0
H290 H 0.47044 0.09709 0.8313 0.0
H291 H 0.48656 0.15894 0.81295 0.0
H292 H 0.39615 0.18218 0.86078 0.0
H293 H 0.37936 0.11953 0.87869 0.0
C294 C 0.46615 0.27973 0.82993 0.0
C295 C 0.46883 0.2848 0.80299 0.0
C296 C 0.45789 0.24422 0.84041 0.0
C297 C 0.45233 0.21306 0.82418 0.0
C298 C 0.45582 0.21818 0.79728 0.0
C299 C 0.46381 0.25372 0.78677 0.0
C300 C 0.45315 0.1148 0.83735 0.0
C301 C 0.42271 0.10284 0.85579 0.0
C302 C 0.46271 0.1505 0.82704 0.0
C303 C 0.44237 0.17527 0.83527 0.0
C304 C 0.41251 0.1637 0.85417 0.0
C305 C 0.40282 0.12784 0.86435 0.0
H306 H 0.46098 0.88302 0.55046 0.0
H307 H 0.57893 0.91537 0.51379 0.0
H308 H 0.46505 0.82014 0.55618 0.0
H309 H 0.58252 0.85237 0.51896 0.0
H310 H 0.60091 0.75033 0.55839 0.0
H311 H 0.59444 0.81192 0.55149 0.0
H312 H 0.4621 0.7624 0.53538 0.0
H313 H 0.46854 0.70043 0.54291 0.0
C314 C 0.48765 0.87674 0.54338 0.0
C315 C 0.51973 0.90464 0.53175 0.0
C316 C 0.48987 0.84044 0.54656 0.0
C317 C 0.52426 0.83085 0.53822 0.0
C318 C 0.55589 0.85862 0.52612 0.0
C319 C 0.55369 0.89489 0.52297 0.0
C320 C 0.57033 0.7524 0.55338 0.0
C321 C 0.53527 0.72013 0.55123 0.0
C322 C 0.56665 0.78793 0.54921 0.0
C323 C 0.52776 0.79253 0.54266 0.0
C324 C 0.49256 0.76023 0.54062 0.0
C325 C 0.49626 0.72456 0.54482 0.0
H326 H 0.65899 0.58324 0.84278 0.0
H327 H 0.63046 0.49352 0.786 0.0
H328 H 0.73143 0.5859 0.84483 0.0
H329 H 0.70386 0.49671 0.78782 0.0
H330 H 0.8284 0.48708 0.82705 0.0
H331 H 0.75583 0.48369 0.81834 0.0
H332 H 0.79218 0.60406 0.8187 0.0
H333 H 0.86441 0.6075 0.82791 0.0
C334 C 0.66814 0.56416 0.83058 0.0
C335 C 0.63875 0.53816 0.8142 0.0
C336 C 0.70991 0.56593 0.83161 0.0
C337 C 0.72358 0.54179 0.8163 0.0
C338 C 0.69427 0.51561 0.79994 0.0
C339 C 0.65227 0.51388 0.79884 0.0
C340 C 0.82098 0.51282 0.82488 0.0
C341 C 0.85215 0.54757 0.82852 0.0
C342 C 0.77938 0.51086 0.81979 0.0
C343 C 0.76813 0.5436 0.81822 0.0
C344 C 0.79968 0.5783 0.82037 0.0
C345 C 0.84116 0.58027 0.8255 0.0
H346 H 0.25568 0.74067 0.14959 0.0
H347 H 0.18407 0.81468 0.13132 0.0
H348 H 0.31485 0.7938 0.16391 0.0
H349 H 0.24402 0.8681 0.14455 0.0
H350 H 0.33626 0.94293 0.20636 0.0
H351 H 0.27952 0.89382 0.18502 0.0
H352 H 0.36839 0.8492 0.15112 0.0
H353 H 0.42537 0.89803 0.17306 0.0
C354 C 0.25265 0.76833 0.14841 0.0
C355 C 0.21487 0.77329 0.13958 0.0
C356 C 0.28685 0.7989 0.15631 0.0
C357 C 0.28424 0.83531 0.15552 0.0
C358 C 0.24696 0.84042 0.14576 0.0
C359 C 0.2127 0.80979 0.13788 0.0
C360 C 0.34382 0.92292 0.19414 0.0
C361 C 0.38541 0.92427 0.19163 0.0
C362 C 0.31119 0.89482 0.18173 0.0
C363 C 0.31928 0.86735 0.16643 0.0
C364 C 0.36099 0.86956 0.16308 0.0
C365 C 0.39369 0.89771 0.17553 0.0
H366 H 0.45426 0.12577 0.54752 0.0
H367 H 0.57482 0.16026 0.51403 0.0
H368 H 0.45583 0.19057 0.54986 0.0
H369 H 0.57589 0.22502 0.51567 0.0
H370 H 0.45216 0.30671 0.52686 0.0
H371 H 0.45071 0.24184 0.52508 0.0
H372 H 0.58311 0.27653 0.54384 0.0
H373 H 0.58463 0.3415 0.54486 0.0
C374 C 0.48103 0.14709 0.54045 0.0
C375 C 0.5144 0.13747 0.53058 0.0
C376 C 0.48184 0.18445 0.54167 0.0
C377 C 0.51599 0.21347 0.53297 0.0
C378 C 0.54929 0.20377 0.52298 0.0
C379 C 0.54854 0.1664 0.52185 0.0
C380 C 0.48097 0.30053 0.53071 0.0
C381 C 0.51851 0.32954 0.53601 0.0
C382 C 0.48013 0.26314 0.52981 0.0
C383 C 0.51681 0.25351 0.53426 0.0
C384 C 0.55429 0.2826 0.53985 0.0
C385 C 0.55513 0.32001 0.54066 0.0
H386 H 0.35414 0.4736 0.81703 0.0
H387 H 0.39302 0.59367 0.81205 0.0
H388 H 0.28303 0.47252 0.82337 0.0
H389 H 0.3216 0.59269 0.81676 0.0
H390 H 0.20165 0.58416 0.85537 0.0
H391 H 0.27186 0.58482 0.84711 0.0
H392 H 0.22177 0.47932 0.80576 0.0
H393 H 0.15158 0.47783 0.81554 0.0
C394 C 0.34727 0.49973 0.8168 0.0
C395 C 0.37918 0.53372 0.81419 0.0
C396 C 0.30636 0.49916 0.82029 0.0
C397 C 0.2962 0.53255 0.82075 0.0
C398 C 0.32813 0.56644 0.81723 0.0
C399 C 0.36914 0.56704 0.8143 0.0
C400 C 0.20568 0.56116 0.84446 0.0
C401 C 0.17111 0.53092 0.83615 0.0
C402 C 0.24604 0.56162 0.83951 0.0
C403 C 0.2529 0.53218 0.82562 0.0
C404 C 0.21805 0.50219 0.81693 0.0
C405 C 0.17768 0.50142 0.82235 0.0
H406 H 0.85696 0.27386 0.21815 0.0
H407 H 0.78644 0.33513 0.17661 0.0
H408 H 0.79356 0.22186 0.2227 0.0
H409 H 0.72319 0.28219 0.17999 0.0
H410 H 0.61227 0.19775 0.21796 0.0
H411 H 0.67502 0.24999 0.21145 0.0
H412 H 0.74317 0.17279 0.19868 0.0
H413 H 0.68072 0.12063 0.20593 0.0
C414 C 0.82793 0.27629 0.20997 0.0
C415 C 0.8269 0.3089 0.19716 0.0
C416 C 0.79157 0.24616 0.21225 0.0
C417 C 0.75314 0.24768 0.20166 0.0
C418 C 0.75212 0.28015 0.18863 0.0
C419 C 0.78853 0.31038 0.18642 0.0
C420 C 0.64061 0.19191 0.21366 0.0
C421 C 0.6415 0.15499 0.21261 0.0
C422 C 0.67659 0.22191 0.20977 0.0
C423 C 0.71432 0.21571 0.20464 0.0
C424 C 0.71491 0.17869 0.20306 0.0
C425 C 0.67899 0.14873 0.20706 0.0
H426 H 0.99689 0.55974 0.08283 0.0
H427 H 0.04991 0.4703 0.07645 0.0
H428 H 0.99966 0.56826 0.03587 0.0
H429 H 0.0521 0.47835 0.02957 0.0
H430 H 0.08095 0.52227 0.94811 0.0
H431 H 0.08555 0.52126 0.99548 0.0
H432 H 0.96279 0.53257 0.99754 0.0
H433 H 0.95835 0.53415 0.95041 0.0
C434 C 0.00927 0.54203 0.07138 0.0
C435 C 0.02289 0.51418 0.08318 0.0
C436 C 0.01071 0.54678 0.04451 0.0
C437 C 0.02592 0.52385 0.02898 0.0
C438 C 0.04062 0.49672 0.04099 0.0
C439 C 0.03908 0.49192 0.06781 0.0
C440 C 0.05507 0.52475 0.95867 0.0
C441 C 0.01923 0.5281 0.94543 0.0
C442 C 0.05762 0.52404 0.98581 0.0
C443 C 0.02451 0.52682 0.00026 0.0
C444 C 0.98906 0.53087 0.98702 0.0
C445 C 0.98643 0.53145 0.95995 0.0
H446 H 0.43152 0.01477 0.44036 0.0
H447 H 0.55356 1.00586 0.45873 0.0
H448 H 0.44754 0.02306 0.39461 0.0
H449 H 0.56933 0.01336 0.41258 0.0
H450 H 0.53971 0.97446 0.3222 0.0
H451 H 0.5335 0.97169 0.36934 0.0
H452 H 0.50437 0.07489 0.36819 0.0
H453 H 0.51146 0.07827 0.3212 0.0
C454 C 0.46177 0.01455 0.43457 0.0
C455 C 0.49143 1.00986 0.45302 0.0
C456 C 0.47099 0.01951 0.40846 0.0
C457 C 0.50972 0.01907 0.40018 0.0
C458 C 0.53929 0.01389 0.41856 0.0
C459 C 0.53037 1.00976 0.44487 0.0
C460 C 0.53259 0.99683 0.33206 0.0
C461 C 0.5259 0.02651 0.31798 0.0
C462 C 0.52924 0.9953 0.35901 0.0
C463 C 0.51831 0.023 0.37226 0.0
C464 C 0.5127 0.05315 0.35834 0.0
C465 C 0.51691 0.05511 0.33149 0.0
H466 H 0.57841 0.60665 0.73384 0.0
H467 H 0.46262 0.51738 0.74026 0.0
H468 H 0.57579 0.59472 0.68714 0.0
H469 H 0.45905 0.50623 0.69359 0.0
H470 H 0.49119 0.46656 0.61658 0.0
H471 H 0.4919 0.48101 0.66239 0.0
H472 H 0.54093 0.5987 0.64624 0.0
H473 H 0.54244 0.58396 0.60033 0.0
C474 C 0.55223 0.58468 0.7252 0.0
C475 C 0.52082 0.56285 0.74066 0.0
C476 C 0.55052 0.57801 0.6984 0.0
C477 C 0.51722 0.54946 0.68648 0.0
C478 C 0.48553 0.52803 0.70207 0.0
C479 C 0.48742 0.53454 0.72883 0.0
C480 C 0.50199 0.49559 0.6227 0.0
C481 C 0.51614 0.52412 0.60457 0.0
C482 C 0.50205 0.50391 0.64906 0.0
C483 C 0.51616 0.54107 0.65814 0.0
C484 C 0.53003 0.56973 0.64 0.0
C485 C 0.53015 0.56134 0.61352 0.0
H486 H 0.47775 0.04267 0.59626 0.0
H487 H 0.57932 1.00073 0.61753 0.0
H488 H 0.46421 0.04703 0.642 0.0
H489 H 0.56538 1.00448 0.66332 0.0
H490 H 0.563 0.06353 0.74071 0.0
H491 H 0.57321 0.05472 0.69506 0.0
H492 H 0.44004 1.00971 0.6804 0.0
H493 H 0.42966 0.01903 0.72604 0.0
C494 C 0.49685 0.03396 0.61074 0.0
C495 C 0.52978 0.02164 0.60342 0.0
C496 C 0.48898 0.03629 0.63691 0.0
C497 C 0.51395 0.02638 0.65629 0.0
C498 C 0.54606 0.01291 0.64886 0.0
C499 C 0.55387 1.01052 0.62266 0.0
C500 C 0.53581 0.0518 0.72777 0.0
C501 C 0.49546 0.04205 0.73706 0.0
C502 C 0.54174 0.04648 0.70164 0.0
C503 C 0.50745 0.03133 0.68414 0.0
C504 C 0.46709 0.02172 0.69337 0.0
C505 C 0.46113 0.02696 0.71955 0.0
H506 H 0.54011 0.4542 0.88822 0.0
H507 H 0.486 0.54313 0.88465 0.0
H508 H 0.54736 0.46026 0.93539 0.0
H509 H 0.48955 0.54749 0.93169 0.0
H510 H 0.52472 0.56845 0.0161 0.0
H511 H 0.5271 0.56592 0.96913 0.0
H512 H 0.51526 0.44848 0.97324 0.0
H513 H 0.51684 0.45248 0.02032 0.0
C514 C 0.52948 0.47487 0.8977 0.0
C515 C 0.51298 0.49851 0.88298 0.0
C516 C 0.53317 0.4782 0.9248 0.0
C517 C 0.51901 0.50439 0.93783 0.0
C518 C 0.50204 0.52772 0.92274 0.0
C519 C 0.49969 0.52516 0.89566 0.0
C520 C 0.52307 0.54227 0.00683 0.0
C521 C 0.52065 0.51069 0.02175 0.0
C522 C 0.52396 0.54058 0.97979 0.0
C523 C 0.5209 0.50684 0.9669 0.0
C524 C 0.51859 0.47526 0.98212 0.0
C525 C 0.51913 0.47735 0.00921 0.0
H526 H 0.05983 0.63212 0.23643 0.0
H527 H 0.03947 0.5143 0.22598 0.0
H528 H 0.05618 0.6239 0.28332 0.0
H529 H 0.0357 0.50587 0.2729 0.0
H530 H 0.97608 0.50087 0.35184 0.0
H531 H 0.98626 0.50922 0.30562 0.0
H532 H 0.09243 0.60721 0.32184 0.0
H533 H 0.082 0.59917 0.36831 0.0
C534 C 0.05483 0.60448 0.24422 0.0
C535 C 0.04914 0.57367 0.22763 0.0
C536 C 0.05295 0.59981 0.27106 0.0
C537 C 0.04531 0.56419 0.28179 0.0
C538 C 0.04088 0.53355 0.26516 0.0
C539 C 0.04294 0.5383 0.23833 0.0
C540 C 1.00171 0.5242 0.34563 0.0
C541 C 0.02818 0.54943 0.36381 0.0
C542 C 1.00768 0.52879 0.31911 0.0
C543 C 0.04021 0.55879 0.31008 0.0
C544 C 0.06687 0.58398 0.32822 0.0
C545 C 0.061 0.5793 0.35483 0.0
loop_
_geom_bond_atom_site_label_1
_geom_bond_atom_site_label_2
_geom_bond_distance
_geom_bond_site_symmetry_2
_ccdc_geom_bond_type
Pr0 C2 2.880 . S
Pr0 O20 2.562 . S
Pr0 O21 2.490 . S
Pr0 O22 2.695 1_655 S
Pr0 O23 2.512 . S
Pr0 O25 2.437 . S
Pr0 O28 2.436 . S
Pr0 O30 2.438 1_655 S
Pr1 C11 2.880 . S
Pr1 O22 2.436 . S
Pr1 O24 2.438 1_455 S
Pr1 O26 2.562 . S
Pr1 O27 2.490 . S
Pr1 O28 2.695 1_455 S
Pr1 O29 2.512 . S
Pr1 O31 2.437 . S
C2 Pr0 2.880 . S
C2 C3 1.491 . S
C2 O20 1.254 . S
C2 O21 1.225 . S
C3 C2 1.491 . S
C3 C4 1.392 . S
C3 C8 1.356 . S
C4 C3 1.392 . S
C4 C5 1.368 . S
C4 H32 0.929 . S
C5 C4 1.368 . S
C5 C6 1.386 . S
C5 H33 0.929 . S
C6 C5 1.386 . S
C6 C7 1.373 . S
C7 C6 1.373 . S
C7 C8 1.409 . S
C7 H34 0.931 . S
C8 C3 1.356 . S
C8 C7 1.409 . S
C8 H35 0.930 . S
C9 O22 1.270 . S
C9 O23 1.248 1_455 S
C10 O24 1.267 . S
C10 O25 1.278 . S
C11 Pr1 2.880 . S
C11 C12 1.491 . S
C11 O26 1.254 . S
C11 O27 1.225 . S
C12 C11 1.491 . S
C12 C13 1.392 . S
C12 C17 1.356 . S
C13 C12 1.392 . S
C13 C14 1.368 . S
C13 H36 0.929 . S
C14 C13 1.368 . S
C14 C15 1.386 . S
C14 H37 0.929 . S
C15 C14 1.386 . S
C15 C16 1.373 . S
C16 C15 1.373 . S
C16 C17 1.409 . S
C16 H38 0.931 . S
C17 C12 1.356 . S
C17 C16 1.409 . S
C17 H39 0.930 . S
C18 O28 1.270 1_455 S
C18 O29 1.248 . S
C19 O30 1.267 . S
C19 O31 1.278 . S
O20 Pr0 2.562 . S
O20 C2 1.254 . S
O21 Pr0 2.490 . S
O21 C2 1.225 . S
O22 Pr0 2.695 1_455 S
O22 Pr1 2.436 . S
O22 C9 1.270 . S
O23 Pr0 2.512 . S
O23 C9 1.248 1_655 S
O24 Pr1 2.438 1_655 S
O24 C10 1.267 . S
O25 Pr0 2.437 . S
O25 C10 1.278 . S
O26 Pr1 2.562 . S
O26 C11 1.254 . S
O27 Pr1 2.490 . S
O27 C11 1.225 . S
O28 Pr0 2.436 . S
O28 Pr1 2.695 1_655 S
O28 C18 1.270 1_655 S
O29 Pr1 2.512 . S
O29 C18 1.248 . S
O30 Pr0 2.438 1_455 S
O30 C19 1.267 . S
O31 Pr1 2.437 . S
O31 C19 1.278 . S
H32 C4 0.929 . S
H33 C5 0.929 . S
H34 C7 0.931 . S
H35 C8 0.930 . S
H36 C13 0.929 . S
H37 C14 0.929 . S
H38 C16 0.931 . S
H39 C17 0.930 . S
Pr40 C42 2.880 . S
Pr40 O60 2.562 . S
Pr40 O61 2.490 . S
Pr40 O62 2.695 . S
Pr40 O63 2.512 . S
Pr40 O65 2.437 . S
Pr40 O68 2.436 . S
Pr40 O70 2.438 1_545 S
Pr41 C51 2.880 . S
Pr41 O62 2.436 1_565 S
Pr41 O64 2.438 1_565 S
Pr41 O66 2.562 . S
Pr41 O67 2.490 . S
Pr41 O68 2.695 1_565 S
Pr41 O69 2.512 1_565 S
Pr41 O71 2.437 . S
C42 Pr40 2.880 . S
C42 C43 1.491 . S
C42 O60 1.254 . S
C42 O61 1.225 . S
C43 C42 1.491 . S
C43 C44 1.392 . S
C43 C48 1.356 . S
C44 C43 1.392 . S
C44 C45 1.368 . S
C44 H72 0.929 . S
C45 C44 1.368 . S
C45 C46 1.386 . S
C45 H73 0.929 . S
C46 C45 1.386 . S
C46 C47 1.373 . S
C47 C46 1.373 . S
C47 C48 1.409 . S
C47 H74 0.931 . S
C48 C43 1.356 . S
C48 C47 1.409 . S
C48 H75 0.930 . S
C49 O62 1.270 . S
C49 O63 1.248 . S
C50 O64 1.267 . S
C50 O65 1.278 . S
C51 Pr41 2.880 . S
C51 C52 1.491 . S
C51 O66 1.254 . S
C51 O67 1.225 . S
C52 C51 1.491 . S
C52 C53 1.392 . S
C52 C57 1.356 . S
C53 C52 1.392 . S
C53 C54 1.368 . S
C53 H76 0.929 . S
C54 C53 1.368 . S
C54 C55 1.386 . S
C54 H77 0.929 . S
C55 C54 1.386 . S
C55 C56 1.373 . S
C56 C55 1.373 . S
C56 C57 1.409 . S
C56 H78 0.931 . S
C57 C52 1.356 . S
C57 C56 1.409 . S
C57 H79 0.930 . S
C58 O68 1.270 . S
C58 O69 1.248 . S
C59 O70 1.267 . S
C59 O71 1.278 . S
O60 Pr40 2.562 . S
O60 C42 1.254 . S
O61 Pr40 2.490 . S
O61 C42 1.225 . S
O62 Pr40 2.695 . S
O62 Pr41 2.436 1_545 S
O62 C49 1.270 . S
O63 Pr40 2.512 . S
O63 C49 1.248 . S
O64 Pr41 2.438 1_545 S
O64 C50 1.267 . S
O65 Pr40 2.437 . S
O65 C50 1.278 . S
O66 Pr41 2.562 . S
O66 C51 1.254 . S
O67 Pr41 2.490 . S
O67 C51 1.225 . S
O68 Pr40 2.436 . S
O68 Pr41 2.695 1_545 S
O68 C58 1.270 . S
O69 Pr41 2.512 1_545 S
O69 C58 1.248 . S
O70 Pr40 2.438 1_565 S
O70 C59 1.267 . S
O71 Pr41 2.437 . S
O71 C59 1.278 . S
H72 C44 0.929 . S
H73 C45 0.929 . S
H74 C47 0.931 . S
H75 C48 0.930 . S
H76 C53 0.929 . S
H77 C54 0.929 . S
H78 C56 0.931 . S
H79 C57 0.930 . S
Pr80 C82 2.880 . S
Pr80 O100 2.562 . S
Pr80 O101 2.490 . S
Pr80 O102 2.695 . S
Pr80 O103 2.512 . S
Pr80 O105 2.437 . S
Pr80 O108 2.436 . S
Pr80 O110 2.438 . S
Pr81 C91 2.880 . S
Pr81 O102 2.436 . S
Pr81 O104 2.438 . S
Pr81 O106 2.562 . S
Pr81 O107 2.490 . S
Pr81 O108 2.695 . S
Pr81 O109 2.512 . S
Pr81 O111 2.437 . S
C82 Pr80 2.880 . S
C82 C83 1.491 . S
C82 O100 1.254 . S
C82 O101 1.225 . S
C83 C82 1.491 . S
C83 C84 1.392 . S
C83 C88 1.356 . S
C84 C83 1.392 . S
C84 C85 1.368 . S
C84 H112 0.929 . S
C85 C84 1.368 . S
C85 C86 1.386 . S
C85 H113 0.929 . S
C86 C85 1.386 . S
C86 C87 1.373 . S
C87 C86 1.373 . S
C87 C88 1.409 . S
C87 H114 0.931 . S
C88 C83 1.356 . S
C88 C87 1.409 . S
C88 H115 0.930 . S
C89 O102 1.270 . S
C89 O103 1.248 . S
C90 O104 1.267 . S
C90 O105 1.278 . S
C91 Pr81 2.880 . S
C91 C92 1.491 . S
C91 O106 1.254 . S
C91 O107 1.225 . S
C92 C91 1.491 . S
C92 C93 1.392 . S
C92 C97 1.356 . S
C93 C92 1.392 . S
C93 C94 1.368 . S
C93 H116 0.929 . S
C94 C93 1.368 . S
C94 C95 1.386 . S
C94 H117 0.929 . S
C95 C94 1.386 . S
C95 C96 1.373 . S
C96 C95 1.373 . S
C96 C97 1.409 . S
C96 H118 0.931 . S
C97 C92 1.356 . S
C97 C96 1.409 . S
C97 H119 0.930 . S
C98 O108 1.270 . S
C98 O109 1.248 . S
C99 O110 1.267 . S
C99 O111 1.278 . S
O100 Pr80 2.562 . S
O100 C82 1.254 . S
O101 Pr80 2.490 . S
O101 C82 1.225 . S
O102 Pr80 2.695 . S
O102 Pr81 2.436 . S
O102 C89 1.270 . S
O103 Pr80 2.512 . S
O103 C89 1.248 . S
O104 Pr81 2.438 . S
O104 C90 1.267 . S
O105 Pr80 2.437 . S
O105 C90 1.278 . S
O106 Pr81 2.562 . S
O106 C91 1.254 . S
O107 Pr81 2.490 . S
O107 C91 1.225 . S
O108 Pr80 2.436 . S
O108 Pr81 2.695 . S
O108 C98 1.270 . S
O109 Pr81 2.512 . S
O109 C98 1.248 . S
O110 Pr80 2.438 . S
O110 C99 1.267 . S
O111 Pr81 2.437 . S
O111 C99 1.278 . S
H112 C84 0.929 . S
H113 C85 0.929 . S
H114 C87 0.931 . S
H115 C88 0.930 . S
H116 C93 0.929 . S
H117 C94 0.929 . S
H118 C96 0.931 . S
H119 C97 0.930 . S
O120 Cd121 2.300 . S
O120 C127 1.275 . S
Cd121 O120 2.300 . S
Cd121 O129 2.381 . S
Cd121 O130 2.378 . S
O122 Cd123 2.385 1_545 S
O122 C127 1.255 . S
Cd123 O122 2.385 1_565 S
Cd123 O124 2.317 . S
O124 Cd123 2.317 . S
O124 C125 1.232 . S
C125 O124 1.232 . S
C125 O126 1.218 . S
O126 C125 1.218 . S
C127 O120 1.275 . S
C127 O122 1.255 . S
C128 O129 1.258 . S
C128 O130 1.256 . S
O129 Cd121 2.381 . S
O129 C128 1.258 . S
O130 Cd121 2.378 . S
O130 C128 1.256 . S
O131 Cd132 2.300 . S
O131 C138 1.275 . S
Cd132 O131 2.300 . S
Cd132 O140 2.381 . S
Cd132 O141 2.378 . S
O133 Cd134 2.385 . S
O133 C138 1.255 . S
Cd134 O133 2.385 . S
Cd134 O135 2.317 . S
O135 Cd134 2.317 . S
O135 C136 1.232 . S
C136 O135 1.232 . S
C136 O137 1.218 . S
O137 C136 1.218 . S
C138 O131 1.275 . S
C138 O133 1.255 . S
C139 O140 1.258 . S
C139 O141 1.256 . S
O140 Cd132 2.381 . S
O140 C139 1.258 . S
O141 Cd132 2.378 . S
O141 C139 1.256 . S
O142 Cd143 2.300 . S
O142 C149 1.275 . S
Cd143 O142 2.300 . S
Cd143 O151 2.381 . S
Cd143 O152 2.378 . S
O144 Cd145 2.385 . S
O144 C149 1.255 1_655 S
Cd145 O144 2.385 . S
Cd145 O146 2.317 . S
O146 Cd145 2.317 . S
O146 C147 1.232 . S
C147 O146 1.232 . S
C147 O148 1.218 . S
O148 C147 1.218 . S
C149 O142 1.275 . S
C149 O144 1.255 1_455 S
C150 O151 1.258 . S
C150 O152 1.256 . S
O151 Cd143 2.381 . S
O151 C150 1.258 . S
O152 Cd143 2.378 . S
O152 C150 1.256 . S
O153 Cd154 2.300 . S
O153 C160 1.275 1_455 S
Cd154 O153 2.300 . S
Cd154 O162 2.381 . S
Cd154 O163 2.378 . S
O155 Cd156 2.385 . S
O155 C160 1.255 . S
Cd156 O155 2.385 . S
Cd156 O157 2.317 . S
O157 Cd156 2.317 . S
O157 C158 1.232 . S
C158 O157 1.232 . S
C158 O159 1.218 . S
O159 C158 1.218 . S
C160 O153 1.275 1_655 S
C160 O155 1.255 . S
C161 O162 1.258 . S
C161 O163 1.256 . S
O162 Cd154 2.381 . S
O162 C161 1.258 . S
O163 Cd154 2.378 . S
O163 C161 1.256 . S
O164 Cd165 2.300 . S
O164 C171 1.275 1_565 S
Cd165 O164 2.300 . S
Cd165 O173 2.381 . S
Cd165 O174 2.378 . S
O166 Cd167 2.385 . S
O166 C171 1.255 . S
Cd167 O166 2.385 . S
Cd167 O168 2.317 . S
O168 Cd167 2.317 . S
O168 C169 1.232 . S
C169 O168 1.232 . S
C169 O170 1.218 . S
O170 C169 1.218 . S
C171 O164 1.275 1_545 S
C171 O166 1.255 . S
C172 O173 1.258 . S
C172 O174 1.256 . S
O173 Cd165 2.381 . S
O173 C172 1.258 . S
O174 Cd165 2.378 . S
O174 C172 1.256 . S
O175 Cd176 2.300 . S
O175 C182 1.275 . S
Cd176 O175 2.300 . S
Cd176 O184 2.381 . S
Cd176 O185 2.378 . S
O177 Cd178 2.385 . S
O177 C182 1.255 . S
Cd178 O177 2.385 . S
Cd178 O179 2.317 . S
O179 Cd178 2.317 . S
O179 C180 1.232 . S
C180 O179 1.232 . S
C180 O181 1.218 . S
O181 C180 1.218 . S
C182 O175 1.275 . S
C182 O177 1.255 . S
C183 O184 1.258 . S
C183 O185 1.256 . S
O184 Cd176 2.381 . S
O184 C183 1.258 . S
O185 Cd176 2.378 . S
O185 C183 1.256 . S
H186 C194 0.950 . S
H187 C199 0.950 . S
H188 C196 0.950 . S
H189 C198 0.950 . S
H190 C200 0.950 . S
H191 C202 0.950 . S
H192 C204 0.950 . S
H193 C205 0.950 . S
C194 H186 0.950 . S
C194 C195 1.386 . S
C194 C196 1.391 . S
C195 C194 1.386 . S
C195 C199 1.393 . S
C196 H188 0.950 . S
C196 C194 1.391 . S
C196 C197 1.400 . S
C197 C196 1.400 . S
C197 C198 1.398 . S
C197 C203 1.491 . S
C198 H189 0.950 . S
C198 C197 1.398 . S
C198 C199 1.391 . S
C199 H187 0.950 . S
C199 C195 1.393 . S
C199 C198 1.391 . S
C200 H190 0.950 . S
C200 C201 1.386 . S
C200 C202 1.391 . S
C201 C200 1.386 . S
C201 C205 1.393 . S
C202 H191 0.950 . S
C202 C200 1.391 . S
C202 C203 1.400 . S
C203 C197 1.491 . S
C203 C202 1.400 . S
C203 C204 1.398 . S
C204 H192 0.950 . S
C204 C203 1.398 . S
C204 C205 1.391 . S
C205 H193 0.950 . S
C205 C201 1.393 . S
C205 C204 1.391 . S
H206 C214 0.950 . S
H207 C219 0.950 . S
H208 C216 0.950 . S
H209 C218 0.950 . S
H210 C220 0.950 . S
H211 C222 0.950 . S
H212 C224 0.950 . S
H213 C225 0.950 . S
C214 H206 0.950 . S
C214 C215 1.386 . S
C214 C216 1.391 . S
C215 C214 1.386 . S
C215 C219 1.393 . S
C216 H208 0.950 . S
C216 C214 1.391 . S
C216 C217 1.400 . S
C217 C216 1.400 . S
C217 C218 1.398 . S
C217 C223 1.491 . S
C218 H209 0.950 . S
C218 C217 1.398 . S
C218 C219 1.391 . S
C219 H207 0.950 . S
C219 C215 1.393 . S
C219 C218 1.391 . S
C220 H210 0.950 . S
C220 C221 1.386 . S
C220 C222 1.391 . S
C221 C220 1.386 . S
C221 C225 1.393 . S
C222 H211 0.950 . S
C222 C220 1.391 . S
C222 C223 1.400 . S
C223 C217 1.491 . S
C223 C222 1.400 . S
C223 C224 1.398 . S
C224 H212 0.950 . S
C224 C223 1.398 . S
C224 C225 1.391 . S
C225 H213 0.950 . S
C225 C221 1.393 . S
C225 C224 1.391 . S
H226 C234 0.950 . S
H227 C239 0.950 . S
H228 C236 0.950 . S
H229 C238 0.950 . S
H230 C240 0.950 . S
H231 C242 0.950 . S
H232 C244 0.950 . S
H233 C245 0.950 . S
C234 H226 0.950 . S
C234 C235 1.386 . S
C234 C236 1.391 . S
C235 C234 1.386 . S
C235 C239 1.393 . S
C236 H228 0.950 . S
C236 C234 1.391 . S
C236 C237 1.400 . S
C237 C236 1.400 . S
C237 C238 1.398 . S
C237 C243 1.491 . S
C238 H229 0.950 . S
C238 C237 1.398 . S
C238 C239 1.391 . S
C239 H227 0.950 . S
C239 C235 1.393 . S
C239 C238 1.391 . S
C240 H230 0.950 . S
C240 C241 1.386 . S
C240 C242 1.391 . S
C241 C240 1.386 . S
C241 C245 1.393 . S
C242 H231 0.950 . S
C242 C240 1.391 . S
C242 C243 1.400 . S
C243 C237 1.491 . S
C243 C242 1.400 . S
C243 C244 1.398 . S
C244 H232 0.950 . S
C244 C243 1.398 . S
C244 C245 1.391 . S
C245 H233 0.950 . S
C245 C241 1.393 . S
C245 C244 1.391 . S
H246 C254 0.950 . S
H247 C259 0.950 . S
H248 C256 0.950 . S
H249 C258 0.950 . S
H250 C260 0.950 . S
H251 C262 0.950 . S
H252 C264 0.950 . S
H253 C265 0.950 . S
C254 H246 0.950 . S
C254 C255 1.386 . S
C254 C256 1.391 . S
C255 C254 1.386 . S
C255 C259 1.393 . S
C256 H248 0.950 . S
C256 C254 1.391 . S
C256 C257 1.400 . S
C257 C256 1.400 . S
C257 C258 1.398 . S
C257 C263 1.491 . S
C258 H249 0.950 . S
C258 C257 1.398 . S
C258 C259 1.391 . S
C259 H247 0.950 . S
C259 C255 1.393 . S
C259 C258 1.391 . S
C260 H250 0.950 . S
C260 C261 1.386 . S
C260 C262 1.391 . S
C261 C260 1.386 . S
C261 C265 1.393 . S
C262 H251 0.950 . S
C262 C260 1.391 . S
C262 C263 1.400 . S
C263 C257 1.491 . S
C263 C262 1.400 . S
C263 C264 1.398 . S
C264 H252 0.950 . S
C264 C263 1.398 . S
C264 C265 1.391 . S
C265 H253 0.950 . S
C265 C261 1.393 . S
C265 C264 1.391 . S
H266 C274 0.950 . S
H267 C279 0.950 . S
H268 C276 0.950 . S
H269 C278 0.950 . S
H270 C280 0.950 . S
H271 C282 0.950 . S
H272 C284 0.950 . S
H273 C285 0.950 . S
C274 H266 0.950 . S
C274 C275 1.386 . S
C274 C276 1.391 . S
C275 C274 1.386 . S
C275 C279 1.393 . S
C276 H268 0.950 . S
C276 C274 1.391 . S
C276 C277 1.400 . S
C277 C276 1.400 . S
C277 C278 1.398 . S
C277 C283 1.491 . S
C278 H269 0.950 . S
C278 C277 1.398 . S
C278 C279 1.391 . S
C279 H267 0.950 . S
C279 C275 1.393 . S
C279 C278 1.391 . S
C280 H270 0.950 . S
C280 C281 1.386 . S
C280 C282 1.391 . S
C281 C280 1.386 . S
C281 C285 1.393 . S
C282 H271 0.950 . S
C282 C280 1.391 . S
C282 C283 1.400 . S
C283 C277 1.491 . S
C283 C282 1.400 . S
C283 C284 1.398 . S
C284 H272 0.950 . S
C284 C283 1.398 . S
C284 C285 1.391 . S
C285 H273 0.950 . S
C285 C281 1.393 . S
C285 C284 1.391 . S
H286 C294 0.950 . S
H287 C299 0.950 . S
H288 C296 0.950 . S
H289 C298 0.950 . S
H290 C300 0.950 . S
H291 C302 0.950 . S
H292 C304 0.950 . S
H293 C305 0.950 . S
C294 H286 0.950 . S
C294 C295 1.386 . S
C294 C296 1.391 . S
C295 C294 1.386 . S
C295 C299 1.393 . S
C296 H288 0.950 . S
C296 C294 1.391 . S
C296 C297 1.400 . S
C297 C296 1.400 . S
C297 C298 1.398 . S
C297 C303 1.491 . S
C298 H289 0.950 . S
C298 C297 1.398 . S
C298 C299 1.391 . S
C299 H287 0.950 . S
C299 C295 1.393 . S
C299 C298 1.391 . S
C300 H290 0.950 . S
C300 C301 1.386 . S
C300 C302 1.391 . S
C301 C300 1.386 . S
C301 C305 1.393 . S
C302 H291 0.950 . S
C302 C300 1.391 . S
C302 C303 1.400 . S
C303 C297 1.491 . S
C303 C302 1.400 . S
C303 C304 1.398 . S
C304 H292 0.950 . S
C304 C303 1.398 . S
C304 C305 1.391 . S
C305 H293 0.950 . S
C305 C301 1.393 . S
C305 C304 1.391 . S
H306 C314 0.950 . S
H307 C319 0.950 . S
H308 C316 0.950 . S
H309 C318 0.950 . S
H310 C320 0.950 . S
H311 C322 0.950 . S
H312 C324 0.950 . S
H313 C325 0.950 . S
C314 H306 0.950 . S
C314 C315 1.386 . S
C314 C316 1.391 . S
C315 C314 1.386 . S
C315 C319 1.393 . S
C316 H308 0.950 . S
C316 C314 1.391 . S
C316 C317 1.400 . S
C317 C316 1.400 . S
C317 C318 1.398 . S
C317 C323 1.491 . S
C318 H309 0.950 . S
C318 C317 1.398 . S
C318 C319 1.391 . S
C319 H307 0.950 . S
C319 C315 1.393 . S
C319 C318 1.391 . S
C320 H310 0.950 . S
C320 C321 1.386 . S
C320 C322 1.391 . S
C321 C320 1.386 . S
C321 C325 1.393 . S
C322 H311 0.950 . S
C322 C320 1.391 . S
C322 C323 1.400 . S
C323 C317 1.491 . S
C323 C322 1.400 . S
C323 C324 1.398 . S
C324 H312 0.950 . S
C324 C323 1.398 . S
C324 C325 1.391 . S
C325 H313 0.950 . S
C325 C321 1.393 . S
C325 C324 1.391 . S
H326 C334 0.950 . S
H327 C339 0.950 . S
H328 C336 0.950 . S
H329 C338 0.950 . S
H330 C340 0.950 . S
H331 C342 0.950 . S
H332 C344 0.950 . S
H333 C345 0.950 . S
C334 H326 0.950 . S
C334 C335 1.386 . S
C334 C336 1.391 . S
C335 C334 1.386 . S
C335 C339 1.393 . S
C336 H328 0.950 . S
C336 C334 1.391 . S
C336 C337 1.400 . S
C337 C336 1.400 . S
C337 C338 1.398 . S
C337 C343 1.491 . S
C338 H329 0.950 . S
C338 C337 1.398 . S
C338 C339 1.391 . S
C339 H327 0.950 . S
C339 C335 1.393 . S
C339 C338 1.391 . S
C340 H330 0.950 . S
C340 C341 1.386 . S
C340 C342 1.391 . S
C341 C340 1.386 . S
C341 C345 1.393 . S
C342 H331 0.950 . S
C342 C340 1.391 . S
C342 C343 1.400 . S
C343 C337 1.491 . S
C343 C342 1.400 . S
C343 C344 1.398 . S
C344 H332 0.950 . S
C344 C343 1.398 . S
C344 C345 1.391 . S
C345 H333 0.950 . S
C345 C341 1.393 . S
C345 C344 1.391 . S
H346 C354 0.950 . S
H347 C359 0.950 . S
H348 C356 0.950 . S
H349 C358 0.950 . S
H350 C360 0.950 . S
H351 C362 0.950 . S
H352 C364 0.950 . S
H353 C365 0.950 . S
C354 H346 0.950 . S
C354 C355 1.386 . S
C354 C356 1.391 . S
C355 C354 1.386 . S
C355 C359 1.393 . S
C356 H348 0.950 . S
C356 C354 1.391 . S
C356 C357 1.400 . S
C357 C356 1.400 . S
C357 C358 1.398 . S
C357 C363 1.491 . S
C358 H349 0.950 . S
C358 C357 1.398 . S
C358 C359 1.391 . S
C359 H347 0.950 . S
C359 C355 1.393 . S
C359 C358 1.391 . S
C360 H350 0.950 . S
C360 C361 1.386 . S
C360 C362 1.391 . S
C361 C360 1.386 . S
C361 C365 1.393 . S
C362 H351 0.950 . S
C362 C360 1.391 . S
C362 C363 1.400 . S
C363 C357 1.491 . S
C363 C362 1.400 . S
C363 C364 1.398 . S
C364 H352 0.950 . S
C364 C363 1.398 . S
C364 C365 1.391 . S
C365 H353 0.950 . S
C365 C361 1.393 . S
C365 C364 1.391 . S
H366 C374 0.950 . S
H367 C379 0.950 . S
H368 C376 0.950 . S
H369 C378 0.950 . S
H370 C380 0.950 . S
H371 C382 0.950 . S
H372 C384 0.950 . S
H373 C385 0.950 . S
C374 H366 0.950 . S
C374 C375 1.386 . S
C374 C376 1.391 . S
C375 C374 1.386 . S
C375 C379 1.393 . S
C376 H368 0.950 . S
C376 C374 1.391 . S
C376 C377 1.400 . S
C377 C376 1.400 . S
C377 C378 1.398 . S
C377 C383 1.491 . S
C378 H369 0.950 . S
C378 C377 1.398 . S
C378 C379 1.391 . S
C379 H367 0.950 . S
C379 C375 1.393 . S
C379 C378 1.391 . S
C380 H370 0.950 . S
C380 C381 1.386 . S
C380 C382 1.391 . S
C381 C380 1.386 . S
C381 C385 1.393 . S
C382 H371 0.950 . S
C382 C380 1.391 . S
C382 C383 1.400 . S
C383 C377 1.491 . S
C383 C382 1.400 . S
C383 C384 1.398 . S
C384 H372 0.950 . S
C384 C383 1.398 . S
C384 C385 1.391 . S
C385 H373 0.950 . S
C385 C381 1.393 . S
C385 C384 1.391 . S
H386 C394 0.950 . S
H387 C399 0.950 . S
H388 C396 0.950 . S
H389 C398 0.950 . S
H390 C400 0.950 . S
H391 C402 0.950 . S
H392 C404 0.950 . S
H393 C405 0.950 . S
C394 H386 0.950 . S
C394 C395 1.386 . S
C394 C396 1.391 . S
C395 C394 1.386 . S
C395 C399 1.393 . S
C396 H388 0.950 . S
C396 C394 1.391 . S
C396 C397 1.400 . S
C397 C396 1.400 . S
C397 C398 1.398 . S
C397 C403 1.491 . S
C398 H389 0.950 . S
C398 C397 1.398 . S
C398 C399 1.391 . S
C399 H387 0.950 . S
C399 C395 1.393 . S
C399 C398 1.391 . S
C400 H390 0.950 . S
C400 C401 1.386 . S
C400 C402 1.391 . S
C401 C400 1.386 . S
C401 C405 1.393 . S
C402 H391 0.950 . S
C402 C400 1.391 . S
C402 C403 1.400 . S
C403 C397 1.491 . S
C403 C402 1.400 . S
C403 C404 1.398 . S
C404 H392 0.950 . S
C404 C403 1.398 . S
C404 C405 1.391 . S
C405 H393 0.950 . S
C405 C401 1.393 . S
C405 C404 1.391 . S
H406 C414 0.950 . S
H407 C419 0.950 . S
H408 C416 0.950 . S
H409 C418 0.950 . S
H410 C420 0.950 . S
H411 C422 0.950 . S
H412 C424 0.950 . S
H413 C425 0.950 . S
C414 H406 0.950 . S
C414 C415 1.386 . S
C414 C416 1.391 . S
C415 C414 1.386 . S
C415 C419 1.393 . S
C416 H408 0.950 . S
C416 C414 1.391 . S
C416 C417 1.400 . S
C417 C416 1.400 . S
C417 C418 1.398 . S
C417 C423 1.491 . S
C418 H409 0.950 . S
C418 C417 1.398 . S
C418 C419 1.391 . S
C419 H407 0.950 . S
C419 C415 1.393 . S
C419 C418 1.391 . S
C420 H410 0.950 . S
C420 C421 1.386 . S
C420 C422 1.391 . S
C421 C420 1.386 . S
C421 C425 1.393 . S
C422 H411 0.950 . S
C422 C420 1.391 . S
C422 C423 1.400 . S
C423 C417 1.491 . S
C423 C422 1.400 . S
C423 C424 1.398 . S
C424 H412 0.950 . S
C424 C423 1.398 . S
C424 C425 1.391 . S
C425 H413 0.950 . S
C425 C421 1.393 . S
C425 C424 1.391 . S
H426 C434 0.950 . S
H427 C439 0.950 . S
H428 C436 0.950 . S
H429 C438 0.950 . S
H430 C440 0.950 . S
H431 C442 0.950 . S
H432 C444 0.950 . S
H433 C445 0.950 . S
C434 H426 0.950 . S
C434 C435 1.386 1_655 S
C434 C436 1.391 . S
C435 C434 1.386 1_455 S
C435 C439 1.393 . S
C436 H428 0.950 . S
C436 C434 1.391 . S
C436 C437 1.400 1_655 S
C437 C436 1.400 1_455 S
C437 C438 1.398 . S
C437 C443 1.486 1_554 S
C438 H429 0.950 . S
C438 C437 1.398 . S
C438 C439 1.391 . S
C439 H427 0.950 . S
C439 C435 1.393 . S
C439 C438 1.391 . S
C440 H430 0.950 . S
C440 C441 1.386 . S
C440 C442 1.391 . S
C441 C440 1.386 . S
C441 C445 1.393 1_455 S
C442 H431 0.950 . S
C442 C440 1.391 . S
C442 C443 1.403 . S
C443 C437 1.486 1_556 S
C443 C442 1.403 . S
C443 C444 1.401 1_455 S
C444 H432 0.950 . S
C444 C443 1.401 1_655 S
C444 C445 1.391 . S
C445 H433 0.950 . S
C445 C441 1.393 1_655 S
C445 C444 1.391 . S
H446 C454 0.950 . S
H447 C459 0.950 . S
H448 C456 0.950 . S
H449 C458 0.950 . S
H450 C460 0.950 . S
H451 C462 0.950 . S
H452 C464 0.950 . S
H453 C465 0.950 . S
C454 H446 0.950 . S
C454 C455 1.386 1_565 S
C454 C456 1.391 . S
C455 C454 1.386 1_545 S
C455 C459 1.393 . S
C456 H448 0.950 . S
C456 C454 1.391 . S
C456 C457 1.400 1_565 S
C457 C456 1.400 1_545 S
C457 C458 1.398 . S
C457 C463 1.491 . S
C458 H449 0.950 . S
C458 C457 1.398 . S
C458 C459 1.391 . S
C459 H447 0.950 . S
C459 C455 1.393 . S
C459 C458 1.391 . S
C460 H450 0.950 . S
C460 C461 1.386 . S
C460 C462 1.391 . S
C461 C460 1.386 . S
C461 C465 1.393 1_545 S
C462 H451 0.950 . S
C462 C460 1.391 . S
C462 C463 1.400 . S
C463 C457 1.491 . S
C463 C462 1.400 . S
C463 C464 1.398 1_545 S
C464 H452 0.950 . S
C464 C463 1.398 1_565 S
C464 C465 1.391 . S
C465 H453 0.950 . S
C465 C461 1.393 1_565 S
C465 C464 1.391 . S
H466 C474 0.950 . S
H467 C479 0.950 . S
H468 C476 0.950 . S
H469 C478 0.950 . S
H470 C480 0.950 . S
H471 C482 0.950 . S
H472 C484 0.950 . S
H473 C485 0.950 . S
C474 H466 0.950 . S
C474 C475 1.386 . S
C474 C476 1.391 . S
C475 C474 1.386 . S
C475 C479 1.393 . S
C476 H468 0.950 . S
C476 C474 1.391 . S
C476 C477 1.400 . S
C477 C476 1.400 . S
C477 C478 1.398 . S
C477 C483 1.491 . S
C478 H469 0.950 . S
C478 C477 1.398 . S
C478 C479 1.391 . S
C479 H467 0.950 . S
C479 C475 1.393 . S
C479 C478 1.391 . S
C480 H470 0.950 . S
C480 C481 1.386 . S
C480 C482 1.391 . S
C481 C480 1.386 . S
C481 C485 1.393 . S
C482 H471 0.950 . S
C482 C480 1.391 . S
C482 C483 1.400 . S
C483 C477 1.491 . S
C483 C482 1.400 . S
C483 C484 1.398 . S
C484 H472 0.950 . S
C484 C483 1.398 . S
C484 C485 1.391 . S
C485 H473 0.950 . S
C485 C481 1.393 . S
C485 C484 1.391 . S
H486 C494 0.950 . S
H487 C499 0.965 . S
H488 C496 0.950 . S
H489 C498 0.966 . S
H490 C500 0.950 1_565 S
H491 C502 0.950 1_565 S
H492 C504 0.950 . S
H493 C505 0.950 . S
C494 H486 0.950 . S
C494 C495 1.386 . S
C494 C496 1.391 . S
C495 C494 1.386 . S
C495 C499 1.379 1_545 S
C496 H488 0.950 . S
C496 C494 1.391 . S
C496 C497 1.400 . S
C497 C496 1.400 . S
C497 C498 1.382 1_545 S
C497 C503 1.491 . S
C498 H489 0.966 . S
C498 C497 1.382 1_565 S
C498 C499 1.391 . S
C499 H487 0.965 . S
C499 C495 1.379 1_565 S
C499 C498 1.391 . S
C500 H490 0.950 1_545 S
C500 C501 1.386 . S
C500 C502 1.391 . S
C501 C500 1.386 . S
C501 C505 1.393 . S
C502 H491 0.950 1_545 S
C502 C500 1.391 . S
C502 C503 1.400 . S
C503 C497 1.491 . S
C503 C502 1.400 . S
C503 C504 1.398 . S
C504 H492 0.950 . S
C504 C503 1.398 . S
C504 C505 1.391 . S
C505 H493 0.950 . S
C505 C501 1.393 . S
C505 C504 1.391 . S
H506 C514 0.950 . S
H507 C519 0.950 . S
H508 C516 0.950 . S
H509 C518 0.950 . S
H510 C520 0.950 . S
H511 C522 0.950 . S
H512 C524 0.950 . S
H513 C525 0.950 . S
C514 H506 0.950 . S
C514 C515 1.386 . S
C514 C516 1.391 . S
C515 C514 1.386 . S
C515 C519 1.393 . S
C516 H508 0.950 . S
C516 C514 1.391 . S
C516 C517 1.400 . S
C517 C516 1.400 . S
C517 C518 1.398 . S
C517 C523 1.491 1_556 S
C518 H509 0.950 . S
C518 C517 1.398 . S
C518 C519 1.391 . S
C519 H507 0.950 . S
C519 C515 1.393 . S
C519 C518 1.391 . S
C520 H510 0.950 . S
C520 C521 1.386 . S
C520 C522 1.391 . S
C521 C520 1.386 . S
C521 C525 1.393 . S
C522 H511 0.950 . S
C522 C520 1.391 . S
C522 C523 1.400 . S
C523 C517 1.491 1_554 S
C523 C522 1.400 . S
C523 C524 1.398 . S
C524 H512 0.950 . S
C524 C523 1.398 . S
C524 C525 1.391 . S
C525 H513 0.950 . S
C525 C521 1.393 . S
C525 C524 1.391 . S
H526 C534 0.950 . S
H527 C539 0.950 . S
H528 C536 0.950 . S
H529 C538 0.950 . S
H530 C540 0.950 . S
H531 C542 0.950 . S
H532 C544 0.950 . S
H533 C545 0.950 . S
C534 H526 0.950 . S
C534 C535 1.386 . S
C534 C536 1.391 . S
C535 C534 1.386 . S
C535 C539 1.393 1_455 S
C536 H528 0.950 . S
C536 C534 1.391 . S
C536 C537 1.397 1_455 S
C537 C536 1.397 1_655 S
C537 C538 1.402 . S
C537 C543 1.491 . S
C538 H529 0.950 . S
C538 C537 1.402 . S
C538 C539 1.391 . S
C539 H527 0.950 . S
C539 C535 1.393 1_655 S
C539 C538 1.391 . S
C540 H530 0.950 . S
C540 C541 1.386 . S
C540 C542 1.391 . S
C541 C540 1.386 . S
C541 C545 1.393 1_655 S
C542 H531 0.950 . S
C542 C540 1.391 . S
C542 C543 1.400 . S
C543 C537 1.491 . S
C543 C542 1.400 . S
C543 C544 1.398 1_655 S
C544 H532 0.950 . S
C544 C543 1.398 1_455 S
C544 C545 1.391 . S
C545 H533 0.950 . S
C545 C541 1.393 1_455 S
C545 C544 1.391 . S
C195 C19 2.040 . S
C201 C180 1.771 . S
C215 C46 1.357 . S
C221 C158 1.225 . S
C235 C95 0.355 . S
C241 C172 0.181 . S
C255 C10 1.854 . S
C261 C183 1.811 . S
C281 C161 1.071 . S
C275 C55 1.078 . S
C301 C169 0.730 . S
C295 C86 0.620 . S
C315 C59 3.270 . S
C321 C136 2.911 . S
C335 C90 2.115 . S
C341 C147 1.816 . S
C355 C15 1.418 . S
C361 C125 1.207 . S
C381 C139 2.820 . S
C375 C50 2.889 . S
C401 C150 1.753 . S
C395 C99 1.793 . S
C415 C6 1.021 . S
C421 C128 1.014 . S
C441 C149 1.380 . S
C435 C9 1.419 . S
C455 C58 1.463 . S
C461 C127 1.460 . S
C475 C98 1.663 . S
C481 C138 1.659 . S
C501 C171 1.196 . S
C495 C49 1.233 . S
C521 C182 1.407 . S
C515 C89 1.423 . S
C535 C18 1.489 . S
C541 C160 1.459 . S
