# Generated by pormake.
# Topology gar, (4,6)-cn, num edge types: 1
# Building blocks:
#     Node 0, Type 0, BuildingBlock: GALJAG_clean_sbu_0, # of connection points: 4
#     Node 1, Type 0, BuildingBlock: GALJAG_clean_sbu_0, # of connection points: 4
#     Node 2, Type 0, BuildingBlock: GALJAG_clean_sbu_0, # of connection points: 4
#     Node 3, Type 0, BuildingBlock: GALJAG_clean_sbu_0, # of connection points: 4
#     Node 4, Type 0, BuildingBlock: GALJAG_clean_sbu_0, # of connection points: 4
#     Node 5, Type 0, BuildingBlock: GALJAG_clean_sbu_0, # of connection points: 4
#     Node 6, Type 0, BuildingBlock: GALJAG_clean_sbu_0, # of connection points: 4
#     Node 7, Type 0, BuildingBlock: GALJAG_clean_sbu_0, # of connection points: 4
#     Node 8, Type 0, BuildingBlock: GALJAG_clean_sbu_0, # of connection points: 4
#     Node 9, Type 0, BuildingBlock: GALJAG_clean_sbu_0, # of connection points: 4
#     Node 10, Type 0, BuildingBlock: GALJAG_clean_sbu_0, # of connection points: 4
#     Node 11, Type 0, BuildingBlock: GALJAG_clean_sbu_0, # of connection points: 4
#     Node 12, Type 0, BuildingBlock: GALJAG_clean_sbu_0, # of connection points: 4
#     Node 13, Type 0, BuildingBlock: GALJAG_clean_sbu_0, # of connection points: 4
#     Node 14, Type 0, BuildingBlock: GALJAG_clean_sbu_0, # of connection points: 4
#     Node 15, Type 0, BuildingBlock: GALJAG_clean_sbu_0, # of connection points: 4
#     Node 16, Type 0, BuildingBlock: GALJAG_clean_sbu_0, # of connection points: 4
#     Node 17, Type 0, BuildingBlock: GALJAG_clean_sbu_0, # of connection points: 4
#     Node 18, Type 0, BuildingBlock: GALJAG_clean_sbu_0, # of connection points: 4
#     Node 19, Type 0, BuildingBlock: GALJAG_clean_sbu_0, # of connection points: 4
#     Node 20, Type 0, BuildingBlock: GALJAG_clean_sbu_0, # of connection points: 4
#     Node 21, Type 0, BuildingBlock: GALJAG_clean_sbu_0, # of connection points: 4
#     Node 22, Type 0, BuildingBlock: GALJAG_clean_sbu_0, # of connection points: 4
#     Node 23, Type 0, BuildingBlock: GALJAG_clean_sbu_0, # of connection points: 4
#     Node 24, Type 1, BuildingBlock: PAMTOO_clean_sbu_0, # of connection points: 6
#     Node 25, Type 1, BuildingBlock: PAMTOO_clean_sbu_0, # of connection points: 6
#     Node 26, Type 1, BuildingBlock: PAMTOO_clean_sbu_0, # of connection points: 6
#     Node 27, Type 1, BuildingBlock: PAMTOO_clean_sbu_0, # of connection points: 6
#     Node 28, Type 1, BuildingBlock: PAMTOO_clean_sbu_0, # of connection points: 6
#     Node 29, Type 1, BuildingBlock: PAMTOO_clean_sbu_0, # of connection points: 6
#     Node 30, Type 1, BuildingBlock: PAMTOO_clean_sbu_0, # of connection points: 6
#     Node 31, Type 1, BuildingBlock: PAMTOO_clean_sbu_0, # of connection points: 6
#     Node 32, Type 1, BuildingBlock: PAMTOO_clean_sbu_0, # of connection points: 6
#     Node 33, Type 1, BuildingBlock: PAMTOO_clean_sbu_0, # of connection points: 6
#     Node 34, Type 1, BuildingBlock: PAMTOO_clean_sbu_0, # of connection points: 6
#     Node 35, Type 1, BuildingBlock: PAMTOO_clean_sbu_0, # of connection points: 6
#     Node 36, Type 1, BuildingBlock: PAMTOO_clean_sbu_0, # of connection points: 6
#     Node 37, Type 1, BuildingBlock: PAMTOO_clean_sbu_0, # of connection points: 6
#     Node 38, Type 1, BuildingBlock: PAMTOO_clean_sbu_0, # of connection points: 6
#     Node 39, Type 1, BuildingBlock: PAMTOO_clean_sbu_0, # of connection points: 6
#     Edge 40, Type (0, 1), BuildingBlock: TEMPAE_clean_linker_10, # of connection points: 2
#     Edge 41, Type (0, 1), BuildingBlock: TEMPAE_clean_linker_10, # of connection points: 2
#     Edge 42, Type (0, 1), BuildingBlock: TEMPAE_clean_linker_10, # of connection points: 2
#     Edge 43, Type (0, 1), BuildingBlock: TEMPAE_clean_linker_10, # of connection points: 2
#     Edge 44, Type (0, 1), BuildingBlock: TEMPAE_clean_linker_10, # of connection points: 2
#     Edge 45, Type (0, 1), BuildingBlock: TEMPAE_clean_linker_10, # of connection points: 2
#     Edge 46, Type (0, 1), BuildingBlock: TEMPAE_clean_linker_10, # of connection points: 2
#     Edge 47, Type (0, 1), BuildingBlock: TEMPAE_clean_linker_10, # of connection points: 2
#     Edge 48, Type (0, 1), BuildingBlock: TEMPAE_clean_linker_10, # of connection points: 2
#     Edge 49, Type (0, 1), BuildingBlock: TEMPAE_clean_linker_10, # of connection points: 2
#     Edge 50, Type (0, 1), BuildingBlock: TEMPAE_clean_linker_10, # of connection points: 2
#     Edge 51, Type (0, 1), BuildingBlock: TEMPAE_clean_linker_10, # of connection points: 2
#     Edge 52, Type (0, 1), BuildingBlock: TEMPAE_clean_linker_10, # of connection points: 2
#     Edge 53, Type (0, 1), BuildingBlock: TEMPAE_clean_linker_10, # of connection points: 2
#     Edge 54, Type (0, 1), BuildingBlock: TEMPAE_clean_linker_10, # of connection points: 2
#     Edge 55, Type (0, 1), BuildingBlock: TEMPAE_clean_linker_10, # of connection points: 2
#     Edge 56, Type (0, 1), BuildingBlock: TEMPAE_clean_linker_10, # of connection points: 2
#     Edge 57, Type (0, 1), BuildingBlock: TEMPAE_clean_linker_10, # of connection points: 2
#     Edge 58, Type (0, 1), BuildingBlock: TEMPAE_clean_linker_10, # of connection points: 2
#     Edge 59, Type (0, 1), BuildingBlock: TEMPAE_clean_linker_10, # of connection points: 2
#     Edge 60, Type (0, 1), BuildingBlock: TEMPAE_clean_linker_10, # of connection points: 2
#     Edge 61, Type (0, 1), BuildingBlock: TEMPAE_clean_linker_10, # of connection points: 2
#     Edge 62, Type (0, 1), BuildingBlock: TEMPAE_clean_linker_10, # of connection points: 2
#     Edge 63, Type (0, 1), BuildingBlock: TEMPAE_clean_linker_10, # of connection points: 2
#     Edge 64, Type (0, 1), BuildingBlock: TEMPAE_clean_linker_10, # of connection points: 2
#     Edge 65, Type (0, 1), BuildingBlock: TEMPAE_clean_linker_10, # of connection points: 2
#     Edge 66, Type (0, 1), BuildingBlock: TEMPAE_clean_linker_10, # of connection points: 2
#     Edge 67, Type (0, 1), BuildingBlock: TEMPAE_clean_linker_10, # of connection points: 2
#     Edge 68, Type (0, 1), BuildingBlock: TEMPAE_clean_linker_10, # of connection points: 2
#     Edge 69, Type (0, 1), BuildingBlock: TEMPAE_clean_linker_10, # of connection points: 2
#     Edge 70, Type (0, 1), BuildingBlock: TEMPAE_clean_linker_10, # of connection points: 2
#     Edge 71, Type (0, 1), BuildingBlock: TEMPAE_clean_linker_10, # of connection points: 2
#     Edge 72, Type (0, 1), BuildingBlock: TEMPAE_clean_linker_10, # of connection points: 2
#     Edge 73, Type (0, 1), BuildingBlock: TEMPAE_clean_linker_10, # of connection points: 2
#     Edge 74, Type (0, 1), BuildingBlock: TEMPAE_clean_linker_10, # of connection points: 2
#     Edge 75, Type (0, 1), BuildingBlock: TEMPAE_clean_linker_10, # of connection points: 2
#     Edge 76, Type (0, 1), BuildingBlock: TEMPAE_clean_linker_10, # of connection points: 2
#     Edge 77, Type (0, 1), BuildingBlock: TEMPAE_clean_linker_10, # of connection points: 2
#     Edge 78, Type (0, 1), BuildingBlock: TEMPAE_clean_linker_10, # of connection points: 2
#     Edge 79, Type (0, 1), BuildingBlock: TEMPAE_clean_linker_10, # of connection points: 2
#     Edge 80, Type (0, 1), BuildingBlock: TEMPAE_clean_linker_10, # of connection points: 2
#     Edge 81, Type (0, 1), BuildingBlock: TEMPAE_clean_linker_10, # of connection points: 2
#     Edge 82, Type (0, 1), BuildingBlock: TEMPAE_clean_linker_10, # of connection points: 2
#     Edge 83, Type (0, 1), BuildingBlock: TEMPAE_clean_linker_10, # of connection points: 2
#     Edge 84, Type (0, 1), BuildingBlock: TEMPAE_clean_linker_10, # of connection points: 2
#     Edge 85, Type (0, 1), BuildingBlock: TEMPAE_clean_linker_10, # of connection points: 2
#     Edge 86, Type (0, 1), BuildingBlock: TEMPAE_clean_linker_10, # of connection points: 2
#     Edge 87, Type (0, 1), BuildingBlock: TEMPAE_clean_linker_10, # of connection points: 2
#     Edge 88, Type (0, 1), BuildingBlock: TEMPAE_clean_linker_10, # of connection points: 2
#     Edge 89, Type (0, 1), BuildingBlock: TEMPAE_clean_linker_10, # of connection points: 2
#     Edge 90, Type (0, 1), BuildingBlock: TEMPAE_clean_linker_10, # of connection points: 2
#     Edge 91, Type (0, 1), BuildingBlock: TEMPAE_clean_linker_10, # of connection points: 2
#     Edge 92, Type (0, 1), BuildingBlock: TEMPAE_clean_linker_10, # of connection points: 2
#     Edge 93, Type (0, 1), BuildingBlock: TEMPAE_clean_linker_10, # of connection points: 2
#     Edge 94, Type (0, 1), BuildingBlock: TEMPAE_clean_linker_10, # of connection points: 2
#     Edge 95, Type (0, 1), BuildingBlock: TEMPAE_clean_linker_10, # of connection points: 2
#     Edge 96, Type (0, 1), BuildingBlock: TEMPAE_clean_linker_10, # of connection points: 2
#     Edge 97, Type (0, 1), BuildingBlock: TEMPAE_clean_linker_10, # of connection points: 2
#     Edge 98, Type (0, 1), BuildingBlock: TEMPAE_clean_linker_10, # of connection points: 2
#     Edge 99, Type (0, 1), BuildingBlock: TEMPAE_clean_linker_10, # of connection points: 2
#     Edge 100, Type (0, 1), BuildingBlock: TEMPAE_clean_linker_10, # of connection points: 2
#     Edge 101, Type (0, 1), BuildingBlock: TEMPAE_clean_linker_10, # of connection points: 2
#     Edge 102, Type (0, 1), BuildingBlock: TEMPAE_clean_linker_10, # of connection points: 2
#     Edge 103, Type (0, 1), BuildingBlock: TEMPAE_clean_linker_10, # of connection points: 2
#     Edge 104, Type (0, 1), BuildingBlock: TEMPAE_clean_linker_10, # of connection points: 2
#     Edge 105, Type (0, 1), BuildingBlock: TEMPAE_clean_linker_10, # of connection points: 2
#     Edge 106, Type (0, 1), BuildingBlock: TEMPAE_clean_linker_10, # of connection points: 2
#     Edge 107, Type (0, 1), BuildingBlock: TEMPAE_clean_linker_10, # of connection points: 2
#     Edge 108, Type (0, 1), BuildingBlock: TEMPAE_clean_linker_10, # of connection points: 2
#     Edge 109, Type (0, 1), BuildingBlock: TEMPAE_clean_linker_10, # of connection points: 2
#     Edge 110, Type (0, 1), BuildingBlock: TEMPAE_clean_linker_10, # of connection points: 2
#     Edge 111, Type (0, 1), BuildingBlock: TEMPAE_clean_linker_10, # of connection points: 2
#     Edge 112, Type (0, 1), BuildingBlock: TEMPAE_clean_linker_10, # of connection points: 2
#     Edge 113, Type (0, 1), BuildingBlock: TEMPAE_clean_linker_10, # of connection points: 2
#     Edge 114, Type (0, 1), BuildingBlock: TEMPAE_clean_linker_10, # of connection points: 2
#     Edge 115, Type (0, 1), BuildingBlock: TEMPAE_clean_linker_10, # of connection points: 2
#     Edge 116, Type (0, 1), BuildingBlock: TEMPAE_clean_linker_10, # of connection points: 2
#     Edge 117, Type (0, 1), BuildingBlock: TEMPAE_clean_linker_10, # of connection points: 2
#     Edge 118, Type (0, 1), BuildingBlock: TEMPAE_clean_linker_10, # of connection points: 2
#     Edge 119, Type (0, 1), BuildingBlock: TEMPAE_clean_linker_10, # of connection points: 2
#     Edge 120, Type (0, 1), BuildingBlock: TEMPAE_clean_linker_10, # of connection points: 2
#     Edge 121, Type (0, 1), BuildingBlock: TEMPAE_clean_linker_10, # of connection points: 2
#     Edge 122, Type (0, 1), BuildingBlock: TEMPAE_clean_linker_10, # of connection points: 2
#     Edge 123, Type (0, 1), BuildingBlock: TEMPAE_clean_linker_10, # of connection points: 2
#     Edge 124, Type (0, 1), BuildingBlock: TEMPAE_clean_linker_10, # of connection points: 2
#     Edge 125, Type (0, 1), BuildingBlock: TEMPAE_clean_linker_10, # of connection points: 2
#     Edge 126, Type (0, 1), BuildingBlock: TEMPAE_clean_linker_10, # of connection points: 2
#     Edge 127, Type (0, 1), BuildingBlock: TEMPAE_clean_linker_10, # of connection points: 2
#     Edge 128, Type (0, 1), BuildingBlock: TEMPAE_clean_linker_10, # of connection points: 2
#     Edge 129, Type (0, 1), BuildingBlock: TEMPAE_clean_linker_10, # of connection points: 2
#     Edge 130, Type (0, 1), BuildingBlock: TEMPAE_clean_linker_10, # of connection points: 2
#     Edge 131, Type (0, 1), BuildingBlock: TEMPAE_clean_linker_10, # of connection points: 2
#     Edge 132, Type (0, 1), BuildingBlock: TEMPAE_clean_linker_10, # of connection points: 2
#     Edge 133, Type (0, 1), BuildingBlock: TEMPAE_clean_linker_10, # of connection points: 2
#     Edge 134, Type (0, 1), BuildingBlock: TEMPAE_clean_linker_10, # of connection points: 2
#     Edge 135, Type (0, 1), BuildingBlock: TEMPAE_clean_linker_10, # of connection points: 2
# Relax obj value: 0.158
# Max RMSD: 0.269
# Mean RMSD: 0.173
data_MOF--net-gar--node1-GALJAG_clean_sbu_0--node2-PAMTOO_clean_sbu_0--edge1-TEMPAE_clean_linker_10
_symmetry_space_group_name_H-M    P1
_symmetry_Int_Tables_number       1
_symmetry_cell_setting            triclinic
loop_
_symmetry_equiv_pos_as_xyz
'x, y, z'
_cell_length_a     60.569769
_cell_length_b     60.550606
_cell_length_c     58.203012
_cell_angle_alpha  96.800798
_cell_angle_beta   95.930017
_cell_angle_gamma 104.94343
loop_
_atom_site_label
_atom_site_type_symbol
_atom_site_fract_x
_atom_site_fract_y
_atom_site_fract_z
_atom_type_partial_charge
In0 In 0.05104 0.32712 0.36351 0.0
O1 O 0.07508 0.30654 0.34713 0.0
O2 O 0.08451 0.34212 0.34595 0.0
C3 C 1.00566 0.32082 0.34264 0.0
C4 C 0.04872 0.29346 0.3911 0.0
C5 C 0.05721 0.36933 0.39041 0.0
O6 O 0.02168 0.31945 0.33057 0.0
O7 O 0.01261 0.325 0.36419 0.0
O8 O 0.05525 0.35066 0.39866 0.0
O9 O 0.05769 0.36717 0.36858 0.0
C10 C 0.08983 0.3233 0.3418 0.0
O11 O 0.06216 0.31363 0.39695 0.0
O12 O 0.03663 0.29027 0.37132 0.0
In13 In 0.01878 0.75966 0.6955 0.0
O14 O 0.01811 0.77718 0.66271 0.0
O15 O 0.02678 0.79923 0.69523 0.0
C16 C 0.01277 0.71699 0.66917 0.0
C17 C 0.0648 0.7666 0.71467 0.0
C18 C 0.97807 0.75944 0.71548 0.0
O19 O 1.00772 0.73379 0.66117 0.0
O20 O 0.01974 0.7211 0.69089 0.0
O21 O 0.99781 0.76421 0.72756 0.0
O22 O 0.97887 0.75399 0.69406 0.0
C23 C 0.02364 0.79766 0.67322 0.0
O24 O 0.04826 0.76201 0.72667 0.0
O25 O 0.05812 0.76817 0.69383 0.0
In26 In 0.55224 0.82702 0.86779 0.0
O27 O 0.57477 0.82616 0.83638 0.0
O28 O 0.59081 0.82622 0.8701 0.0
C29 C 0.50627 0.81987 0.84806 0.0
C30 C 0.54868 0.7894 0.89014 0.0
C31 C 0.55719 0.86915 0.8949 0.0
O32 O 0.52271 0.82281 0.83583 0.0
O33 O 0.51306 0.82001 0.86927 0.0
O34 O 0.55317 0.85004 0.90233 0.0
O35 O 0.56006 0.86761 0.87359 0.0
C36 C 0.59303 0.82539 0.84875 0.0
O37 O 0.55839 0.80988 0.8998 0.0
O38 O 0.54075 0.78759 0.86879 0.0
In39 In 0.5181 0.25876 0.1991 0.0
O40 O 0.50758 0.2317 0.16567 0.0
O41 O 0.51922 0.22046 0.19656 0.0
C42 C 0.5225 0.29586 0.1757 0.0
C43 C 0.47744 0.25908 0.21857 0.0
C44 C 0.56421 0.26647 0.21778 0.0
O45 O 0.51721 0.27519 0.16564 0.0
O46 O 0.52553 0.29799 0.19777 0.0
O47 O 0.5478 0.26046 0.22968 0.0
O48 O 0.55733 0.26919 0.19738 0.0
C49 C 0.5125 0.2154 0.17482 0.0
O50 O 0.49722 0.26482 0.23075 0.0
O51 O 0.47825 0.2525 0.19739 0.0
In52 In 0.07894 0.81863 0.12418 0.0
O53 O 0.07785 0.78874 0.09339 0.0
O54 O 0.06679 0.77921 0.12488 0.0
C55 C 0.07854 0.85926 0.10469 0.0
C56 C 0.04216 0.81457 0.14839 0.0
C57 C 0.12179 0.8233 0.14876 0.0
O58 O 0.07229 0.83924 0.09269 0.0
O59 O 0.08587 0.85874 0.12563 0.0
O60 O 0.10599 0.82999 0.1575 0.0
O61 O 0.11663 0.81543 0.12722 0.0
C62 C 0.07047 0.77225 0.10471 0.0
O63 O 0.06281 0.81966 0.15808 0.0
O64 O 0.0399 0.81159 0.12631 0.0
In65 In 0.50687 0.78318 0.45642 0.0
O66 O 0.52297 0.78092 0.42262 0.0
O67 O 0.54603 0.79071 0.45433 0.0
C68 C 0.46433 0.77814 0.4309 0.0
C69 C 0.50746 0.74251 0.47597 0.0
C70 C 0.5146 0.82965 0.47579 0.0
O71 O 0.4811 0.77338 0.42228 0.0
O72 O 0.4684 0.78434 0.45279 0.0
O73 O 0.50671 0.81308 0.48681 0.0
O74 O 0.51923 0.82277 0.45602 0.0
C75 C 0.54367 0.78663 0.43225 0.0
O76 O 0.51378 0.76256 0.48792 0.0
O77 O 0.49996 0.74302 0.45508 0.0
In78 In 0.57861 0.31894 0.62647 0.0
O79 O 0.55789 0.28473 0.60108 0.0
O80 O 0.59268 0.28802 0.61284 0.0
C81 C 0.57702 0.35944 0.60698 0.0
C82 C 0.5422 0.31224 0.65144 0.0
C83 C 0.61817 0.32325 0.65703 0.0
O84 O 0.58187 0.34242 0.59579 0.0
O85 O 0.57374 0.35619 0.62746 0.0
O86 O 0.59804 0.31332 0.66053 0.0
O87 O 0.61863 0.332 0.63828 0.0
C88 C 0.57403 0.27499 0.60166 0.0
O89 O 0.5624 0.32394 0.66007 0.0
O90 O 0.54027 0.30376 0.63019 0.0
In91 In 0.00868 0.28315 0.95809 0.0
O92 O 0.02796 0.26276 0.98209 0.0
O93 O 0.99359 0.24613 0.9692 0.0
C94 C 0.01539 0.32811 0.98165 0.0
C95 C 0.04071 0.28693 0.92777 0.0
C96 C 0.96773 0.28108 0.93107 0.0
O97 O 0.9975 0.31178 0.98158 0.0
O98 O 0.03053 0.32148 0.97161 0.0
O99 O 0.98424 0.27528 0.92267 0.0
O100 O 0.97157 0.28711 0.95295 0.0
C101 C 0.01184 0.24449 0.98052 0.0
O102 O 0.0204 0.27382 0.92234 0.0
O103 O 0.04462 0.29814 0.94815 0.0
In104 In 0.40722 0.05395 0.31753 0.0
O105 O 0.42334 0.06001 0.28418 0.0
O106 O 0.41524 0.02603 0.29283 0.0
C107 C 0.43902 0.07725 0.35415 0.0
C108 C 0.37703 0.07816 0.30725 0.0
C109 C 0.38406 0.01339 0.32827 0.0
O110 O 0.44443 0.07144 0.33449 0.0
O111 O 0.41766 0.07224 0.35492 0.0
O112 O 0.37484 0.02461 0.31506 0.0
O113 O 0.40516 0.02256 0.33591 0.0
C114 C 0.42339 0.03921 0.2788 0.0
O115 O 0.37442 0.06426 0.32183 0.0
O116 O 0.39532 0.08039 0.29809 0.0
In117 In 0.28056 0.20521 0.52443 0.0
O118 O 0.29123 0.23838 0.55227 0.0
O119 O 0.27415 0.20656 0.56232 0.0
C120 C 0.28612 0.22408 0.48406 0.0
C121 C 0.31397 0.18358 0.53222 0.0
C122 C 0.23664 0.17769 0.5158 0.0
O123 O 0.27626 0.23199 0.49991 0.0
O124 O 0.29348 0.20733 0.48885 0.0
O125 O 0.2537 0.17055 0.51117 0.0
O126 O 0.24159 0.19893 0.52379 0.0
C127 C 0.28291 0.22798 0.56839 0.0
O128 O 0.29297 0.17301 0.5259 0.0
O129 O 0.31833 0.20539 0.53491 0.0
In130 In 0.1338 0.05674 0.79831 0.0
O131 O 0.10454 0.06353 0.77339 0.0
O132 O 0.12598 0.04467 0.75887 0.0
C133 C 0.11529 0.05185 0.83885 0.0
C134 C 0.15411 0.02197 0.79811 0.0
C135 C 0.16369 0.09921 0.80101 0.0
O136 O 0.10282 0.0494 0.8194 0.0
O137 O 0.13661 0.05685 0.8377 0.0
O138 O 0.16692 0.08098 0.79096 0.0
O139 O 0.14517 0.09621 0.80983 0.0
C140 C 0.10969 0.05372 0.75511 0.0
O141 O 0.16494 0.04302 0.804 0.0
O142 O 0.13258 0.01818 0.79229 0.0
In143 In 0.27193 0.93245 0.0031 0.0
O144 O 0.27227 0.89945 0.01772 0.0
O145 O 0.26334 0.92569 0.03932 0.0
C146 C 0.25714 0.90713 0.96071 0.0
C147 C 0.25262 0.96766 1.00197 0.0
C148 C 0.31793 0.94931 0.01281 0.0
O149 O 0.24627 0.90314 0.97782 0.0
O150 O 0.27464 0.92438 0.96492 0.0
O151 O 0.30442 0.95512 0.02593 0.0
O152 O 0.3082 0.93482 0.99493 0.0
C153 C 0.26699 0.90601 0.03725 0.0
O154 O 0.27317 0.96935 0.99879 0.0
O155 O 0.2414 0.94787 0.00524 0.0
In156 In 0.29648 0.39315 0.04767 0.0
O157 O 0.2751 0.37339 0.07313 0.0
O158 O 0.31102 0.37762 0.07833 0.0
C159 C 0.29161 0.36963 0.0036 0.0
C160 C 0.26508 0.41788 0.04637 0.0
C161 C 0.33936 0.42237 0.05224 0.0
O162 O 0.29491 0.36033 0.02156 0.0
O163 O 0.29008 0.39 0.00808 0.0
O164 O 0.32508 0.42514 0.06591 0.0
O165 O 0.33218 0.40476 0.03679 0.0
C166 C 0.292 0.37045 0.08571 0.0
O167 O 0.25978 0.39636 0.03957 0.0
O168 O 0.28617 0.42687 0.05403 0.0
In169 In 0.79692 0.14381 0.05673 0.0
O170 O 0.79747 0.10662 0.04829 0.0
O171 O 0.82861 0.13053 0.06515 0.0
C172 C 0.75112 0.13145 0.05633 0.0
C173 C 0.80788 0.17407 0.09662 0.0
C174 C 0.80267 0.16004 0.01601 0.0
O175 O 0.76382 0.11902 0.06241 0.0
O176 O 0.76162 0.1506 0.05095 0.0
O177 O 0.81578 0.16944 0.03478 0.0
O178 O 0.78743 0.14192 0.01765 0.0
C179 C 0.81813 0.10983 0.05686 0.0
O180 O 0.81451 0.17938 0.07769 0.0
O181 O 0.79657 0.15327 0.09561 0.0
In182 In 0.18424 0.54558 0.25245 0.0
O183 O 0.209 0.53904 0.28092 0.0
O184 O 0.20102 0.51597 0.2488 0.0
C185 C 0.21156 0.58503 0.24296 0.0
C186 C 0.15518 0.52252 0.21422 0.0
C187 C 0.15832 0.55765 0.28395 0.0
O188 O 0.21865 0.57271 0.25641 0.0
O189 O 0.19074 0.57716 0.23385 0.0
O190 O 0.16079 0.53754 0.28024 0.0
O191 O 0.16897 0.57164 0.27183 0.0
C192 C 0.2123 0.52169 0.26907 0.0
O193 O 0.14967 0.52209 0.2345 0.0
O194 O 0.17577 0.53356 0.21343 0.0
In195 In 0.79814 0.89265 0.54946 0.0
O196 O 0.77624 0.87143 0.57359 0.0
O197 O 0.81229 0.87669 0.57996 0.0
C198 C 0.79372 0.86902 0.50551 0.0
C199 C 0.76698 0.9177 0.54922 0.0
C200 C 0.8405 0.92301 0.5537 0.0
O201 O 0.79856 0.86046 0.52358 0.0
O202 O 0.79045 0.88873 0.50982 0.0
O203 O 0.82674 0.92438 0.56833 0.0
O204 O 0.83315 0.90612 0.53747 0.0
C205 C 0.79301 0.86865 0.58652 0.0
O206 O 0.78772 0.92596 0.55847 0.0
O207 O 0.76184 0.89671 0.54019 0.0
In208 In 0.94604 0.0397 0.27789 0.0
O209 O 0.96069 0.02531 0.24604 0.0
O210 O 0.96544 0.06134 0.2523 0.0
C211 C 0.96832 0.04226 0.32182 0.0
C212 C 0.92153 0.07134 0.28089 0.0
C213 C 0.91716 0.99662 0.27176 0.0
O214 O 0.97922 0.04551 0.30455 0.0
O215 O 0.94683 0.03861 0.3169 0.0
O216 O 0.91129 0.01332 0.26431 0.0
O217 O 0.93778 1.00151 0.28154 0.0
C218 C 0.96802 0.04442 0.23907 0.0
O219 O 0.91325 0.05096 0.2703 0.0
O220 O 0.94237 0.07594 0.28997 0.0
In221 In 0.29258 0.66262 0.55333 0.0
O222 O 0.29659 0.62943 0.53464 0.0
O223 O 0.32429 0.64945 0.56038 0.0
C224 C 0.24771 0.64003 0.54312 0.0
C225 C 0.2916 0.68095 0.59725 0.0
C226 C 0.30964 0.69704 0.52916 0.0
O227 O 0.26169 0.63322 0.55623 0.0
O228 O 0.25637 0.65829 0.53503 0.0
O229 O 0.31237 0.69963 0.55112 0.0
O230 O 0.299 0.67686 0.51933 0.0
C231 C 0.31617 0.63132 0.54562 0.0
O232 O 0.27899 0.68374 0.57983 0.0
O233 O 0.30486 0.66847 0.59265 0.0
In234 In 0.45226 0.54121 0.77982 0.0
O235 O 0.4191 0.55212 0.77462 0.0
O236 O 0.44871 0.57722 0.79336 0.0
C237 C 0.41884 0.50083 0.77584 0.0
C238 C 0.47346 0.54818 0.74071 0.0
C239 C 0.48018 0.54128 0.81994 0.0
O240 O 0.42415 0.51585 0.79391 0.0
O241 O 0.43025 0.5062 0.75936 0.0
O242 O 0.47724 0.55965 0.81351 0.0
O243 O 0.47042 0.52337 0.80546 0.0
C244 C 0.42759 0.5725 0.78515 0.0
O245 O 0.47815 0.53485 0.75443 0.0
O246 O 0.45885 0.55819 0.74707 0.0
In247 In 0.6747 0.04798 0.76103 0.0
O248 O 0.69911 0.02653 0.75215 0.0
O249 O 0.68892 0.02734 0.78604 0.0
C250 C 0.70508 0.08887 0.76026 0.0
C251 C 0.64401 0.02571 0.72332 0.0
C252 C 0.64874 0.06068 0.79187 0.0
O253 O 0.70689 0.07673 0.77614 0.0
O254 O 0.68795 0.08028 0.74459 0.0
O255 O 0.6544 0.04196 0.79132 0.0
O256 O 0.65614 0.07297 0.77675 0.0
C257 C 0.70091 0.02021 0.77196 0.0
O258 O 0.63888 0.02664 0.74375 0.0
O259 O 0.66479 0.03548 0.72196 0.0
In260 In 0.78045 0.70434 0.02557 0.0
O261 O 0.79154 0.67114 0.02357 0.0
O262 O 0.81726 0.70251 0.03719 0.0
C263 C 0.73677 0.67635 0.01678 0.0
C264 C 0.78326 0.72659 0.06988 0.0
C265 C 0.78689 0.72515 0.98638 0.0
O266 O 0.75377 0.66995 0.01054 0.0
O267 O 0.74166 0.69711 0.0264 0.0
O268 O 0.77215 0.72821 0.99933 0.0
O269 O 0.79874 0.71249 0.99365 0.0
C270 C 0.81238 0.68076 0.03187 0.0
O271 O 0.79049 0.73742 0.05361 0.0
O272 O 0.7754 0.70509 0.06378 0.0
In273 In 0.91396 0.558 0.81447 0.0
O274 O 0.88379 0.55893 0.78878 0.0
O275 O 0.90037 0.5896 0.8127 0.0
C276 C 0.88971 0.51976 0.82919 0.0
C277 C 0.93419 0.54495 0.77828 0.0
C278 C 0.94482 0.58169 0.85139 0.0
O279 O 0.88054 0.53482 0.82259 0.0
O280 O 0.91124 0.52455 0.82933 0.0
O281 O 0.95055 0.57597 0.83182 0.0
O282 O 0.92337 0.57637 0.85202 0.0
C283 C 0.8844 0.57952 0.79619 0.0
O284 O 0.93336 0.56554 0.78346 0.0
O285 O 0.92503 0.53123 0.79143 0.0
In286 In 0.7764 0.42652 0.50311 0.0
O287 O 0.76619 0.40157 0.529 0.0
O288 O 0.80192 0.41642 0.52801 0.0
C289 C 0.75406 0.39721 0.4645 0.0
C290 C 0.75473 0.4552 0.52387 0.0
C291 C 0.81603 0.4509 0.49091 0.0
O292 O 0.75814 0.39074 0.4839 0.0
O293 O 0.7604 0.41883 0.46474 0.0
O294 O 0.80118 0.46025 0.4981 0.0
O295 O 0.81033 0.42912 0.48871 0.0
C296 C 0.78679 0.40321 0.53714 0.0
O297 O 0.77447 0.45412 0.53182 0.0
O298 O 0.74551 0.44149 0.50528 0.0
In299 In 0.63647 0.55602 0.2988 0.0
O300 O 0.66489 0.54019 0.31172 0.0
O301 O 0.63871 0.51982 0.28474 0.0
C302 C 0.66896 0.59709 0.30501 0.0
C303 C 0.61383 0.55595 0.2554 0.0
C304 C 0.61544 0.55214 0.33819 0.0
O305 O 0.67354 0.578 0.30048 0.0
O306 O 0.64801 0.59549 0.30672 0.0
O307 O 0.61474 0.53489 0.32337 0.0
O308 O 0.62549 0.57123 0.33249 0.0
C309 C 0.65721 0.5214 0.29786 0.0
O310 O 0.60336 0.55391 0.27307 0.0
O311 O 0.635 0.55763 0.25974 0.0
Dy312 Dy 0.06866 0.06586 0.05242 0.0
Dy313 Dy 0.01928 0.03532 0.02674 0.0
C314 C 0.06091 0.04624 0.99771 0.0
O315 O 0.0473 0.09141 0.04922 0.0
O316 O 0.02441 0.07127 0.01609 0.0
O317 O 0.0957 0.09785 0.05672 0.0
O318 O 0.09993 0.07076 0.07631 0.0
O319 O 0.01164 0.04831 0.0621 0.0
O320 O 0.04844 0.05943 0.08201 0.0
O321 O 0.03256 0.01181 0.04869 0.0
O322 O 0.0708 0.02838 0.049 0.0
O323 O 0.99473 1.00185 0.01534 0.0
O324 O 0.98709 0.03266 0.00561 0.0
C325 C 0.03365 0.09115 0.02997 0.0
O326 O 0.07065 0.06393 0.01403 0.0
O327 O 0.04342 0.02981 1.00141 0.0
C328 C 0.13172 0.09043 0.06037 0.0
C329 C 0.17207 0.08418 0.04405 0.0
C330 C 0.15071 0.07624 0.02954 0.0
C331 C 0.13079 0.07933 0.03764 0.0
C332 C 0.15305 0.09965 0.07454 0.0
C333 C 0.17318 0.09663 0.06639 0.0
C334 C 0.11009 0.09015 0.06957 0.0
C335 C 0.02599 0.05433 0.08183 0.0
C336 C 0.05397 0.01047 0.05189 0.0
C337 C 0.95644 1.00387 0.01344 0.0
C338 C 0.91273 1.00317 0.02551 0.0
C339 C 0.93225 0.01017 0.04275 0.0
C340 C 0.95397 0.01049 0.03672 0.0
C341 C 0.93685 0.99442 0.99678 0.0
C342 C 0.91503 0.99384 0.00284 0.0
C343 C 0.97915 0.01058 0.0059 0.0
H344 H 0.14899 0.06614 0.01247 0.0
H345 H 0.11445 0.07193 0.0265 0.0
H346 H 0.154 0.10829 0.09216 0.0
H347 H 0.18942 0.1031 0.07791 0.0
H348 H 0.93118 0.01759 0.06033 0.0
H349 H 0.96901 0.01772 0.04979 0.0
H350 H 0.93855 0.98912 0.97876 0.0
H351 H 0.90022 0.98794 0.98933 0.0
Dy352 Dy 0.31038 0.8028 0.26844 0.0
Dy353 Dy 0.2773 0.79751 0.30943 0.0
C354 C 0.30809 0.84547 0.30212 0.0
O355 O 0.3344 0.80449 0.30132 0.0
O356 O 0.3077 0.78502 0.32219 0.0
O357 O 0.34032 0.82194 0.25502 0.0
O358 O 0.31866 0.7896 0.23531 0.0
O359 O 0.26435 0.76532 0.28371 0.0
O360 O 0.29895 0.76545 0.27136 0.0
O361 O 0.25532 0.80706 0.2807 0.0
O362 O 0.27576 0.8027 0.24991 0.0
O363 O 0.25751 0.7774 0.33223 0.0
O364 O 0.26136 0.81426 0.33532 0.0
C365 C 0.32932 0.79342 0.31909 0.0
O366 O 0.30514 0.83701 0.28 0.0
O367 O 0.30371 0.83162 0.31764 0.0
C368 C 0.33015 0.82024 0.2148 0.0
C369 C 0.31535 0.83707 0.1748 0.0
C370 C 0.30687 0.84175 0.19582 0.0
C371 C 0.31424 0.83345 0.21566 0.0
C372 C 0.33926 0.81609 0.19406 0.0
C373 C 0.33202 0.82465 0.17414 0.0
C374 C 0.33457 0.80864 0.23475 0.0
C375 C 0.27782 0.75453 0.27367 0.0
C376 C 0.25736 0.80628 0.25829 0.0
C377 C 0.26465 0.79823 0.36977 0.0
C378 C 0.2818 0.79621 0.41605 0.0
C379 C 0.29618 0.79725 0.39848 0.0
C380 C 0.28774 0.79853 0.37569 0.0
C381 C 0.25057 0.79878 0.3873 0.0
C382 C 0.25918 0.79808 0.41038 0.0
C383 C 0.25533 0.7957 0.34508 0.0
H384 H 0.29427 0.85157 0.1968 0.0
H385 H 0.30692 0.83671 0.23151 0.0
H386 H 0.35134 0.80568 0.19309 0.0
H387 H 0.33875 0.82086 0.15804 0.0
H388 H 0.31353 0.79554 0.4018 0.0
H389 H 0.29899 0.79854 0.36243 0.0
H390 H 0.23278 0.79894 0.38303 0.0
H391 H 0.24778 0.79798 0.42355 0.0
Dy392 Dy 0.51563 0.04828 0.54391 0.0
Dy393 Dy 0.56875 0.05634 0.53308 0.0
C394 C 0.53055 0.06425 0.49681 0.0
O395 O 0.51686 0.01358 0.52457 0.0
O396 O 0.55567 0.0178 0.53286 0.0
O397 O 0.47913 0.03715 0.53137 0.0
O398 O 0.4912 0.05125 0.56789 0.0
O399 O 0.56891 0.05685 0.57141 0.0
O400 O 0.53283 0.03302 0.57106 0.0
O401 O 0.56398 0.09248 0.53801 0.0
O402 O 0.53459 0.08523 0.56036 0.0
O403 O 0.60548 0.07087 0.54362 0.0
O404 O 0.59266 0.05005 0.5097 0.0
C405 C 0.53455 1.00444 0.52575 0.0
O406 O 0.51909 0.06794 0.514 0.0
O407 O 0.54709 0.05413 0.49908 0.0
C408 C 0.45866 0.06048 0.55019 0.0
C409 C 0.42989 0.09045 0.54816 0.0
C410 C 0.45067 0.09523 0.5385 0.0
C411 C 0.46496 0.08042 0.53959 0.0
C412 C 0.43805 0.05568 0.55993 0.0
C413 C 0.42379 0.07053 0.55895 0.0
C414 C 0.47359 0.04481 0.5513 0.0
C415 C 0.55404 0.04243 0.58117 0.0
C416 C 0.55101 0.10006 0.55228 0.0
C417 C 0.62737 0.04612 0.52895 0.0
C418 C 0.6579 0.01822 0.53493 0.0
C419 C 0.65075 0.02916 0.55441 0.0
C420 C 0.63559 0.0429 0.55146 0.0
C421 C 0.63468 0.03544 0.50954 0.0
C422 C 0.64965 0.02156 0.51247 0.0
C423 C 0.61071 0.05988 0.52521 0.0
H424 H 0.456 0.11053 0.53031 0.0
H425 H 0.48094 0.08452 0.53213 0.0
H426 H 0.43293 0.04039 0.56821 0.0
H427 H 0.40779 0.06621 0.56632 0.0
H428 H 0.65699 0.02726 0.57199 0.0
H429 H 0.63027 0.05087 0.56681 0.0
H430 H 0.62855 0.03758 0.49201 0.0
H431 H 0.65443 0.01313 0.49703 0.0
Dy432 Dy 0.31432 0.29325 0.78929 0.0
Dy433 Dy 0.2642 0.3073 0.78309 0.0
C434 C 0.31242 0.34319 0.77857 0.0
O435 O 0.31119 0.31107 0.82451 0.0
O436 O 0.27176 0.30257 0.82033 0.0
O437 O 0.35085 0.30271 0.80186 0.0
O438 O 0.33432 0.26888 0.78192 0.0
O439 O 0.25636 0.26891 0.77866 0.0
O440 O 0.28827 0.26452 0.80059 0.0
O441 O 0.27329 0.30382 0.74651 0.0
O442 O 0.29829 0.28131 0.75206 0.0
O443 O 0.2279 0.29977 0.76962 0.0
O444 O 0.24438 0.33067 0.79438 0.0
C445 C 0.29189 0.30932 0.83359 0.0
O446 O 0.32118 0.32579 0.77394 0.0
O447 O 0.29218 0.34045 0.78588 0.0
C448 C 0.37266 0.28692 0.77557 0.0
C449 C 0.40878 0.29182 0.74727 0.0
C450 C 0.40299 0.31134 0.75788 0.0
C451 C 0.38518 0.30893 0.77179 0.0
C452 C 0.37836 0.26742 0.76498 0.0
C453 C 0.3961 0.26981 0.75098 0.0
C454 C 0.35389 0.284 0.79056 0.0
C455 C 0.26665 0.25648 0.79072 0.0
C456 C 0.28554 0.2903 0.73824 0.0
C457 C 0.20528 0.31243 0.79721 0.0
C458 C 0.16809 0.30484 0.82418 0.0
C459 C 0.17678 0.28646 0.81556 0.0
C460 C 0.19518 0.29021 0.8023 0.0
C461 C 0.1967 0.33076 0.80579 0.0
C462 C 0.17845 0.32706 0.81913 0.0
C463 C 0.22488 0.3171 0.78338 0.0
H464 H 0.41249 0.32859 0.75578 0.0
H465 H 0.38134 0.32439 0.77966 0.0
H466 H 0.36903 0.25024 0.76753 0.0
H467 H 0.39971 0.25432 0.74287 0.0
H468 H 0.16921 0.26905 0.8188 0.0
H469 H 0.20146 0.27571 0.79605 0.0
H470 H 0.20427 0.34809 0.80229 0.0
H471 H 0.17269 0.34178 0.82576 0.0
Dy472 Dy 0.04671 0.02542 0.53687 0.0
Dy473 Dy 0.0334 0.07605 0.54136 0.0
C474 C 0.99642 0.0293 0.54762 0.0
O475 O 0.04112 0.03207 0.49964 0.0
O476 O 0.01958 0.05815 0.50501 0.0
O477 O 0.03996 0.98889 0.52389 0.0
O478 O 0.07041 0.00648 0.54854 0.0
O479 O 0.06401 0.07955 0.52265 0.0
O480 O 0.07951 0.05386 0.53962 0.0
O481 O 0.05164 0.074 0.57659 0.0
O482 O 0.04232 0.03457 0.57401 0.0
O483 O 0.04515 0.11306 0.552 0.0
O484 O 0.01022 0.09729 0.53474 0.0
C485 C 0.02773 0.04422 0.49129 0.0
O486 O 0.00886 0.017 0.53778 0.0
O487 O 1.00362 0.05195 0.55337 0.0
C488 C 0.05266 0.96761 0.55184 0.0
C489 C 0.04564 0.93191 0.58008 0.0
C490 C 0.03582 0.95051 0.58412 0.0
C491 C 0.03933 0.96819 0.57017 0.0
C492 C 0.06225 0.94903 0.54758 0.0
C493 C 0.05878 0.93139 0.56149 0.0
C494 C 0.05741 0.9866 0.53763 0.0
C495 C 0.08177 0.07201 0.52883 0.0
C496 C 0.04943 0.05521 0.58649 0.0
C497 C 0.02917 0.13424 0.52579 0.0
C498 C 0.03389 0.16855 0.49578 0.0
C499 C 0.0527 0.16015 0.50308 0.0
C500 C 0.05037 0.14318 0.51781 0.0
C501 C 0.01035 0.14245 0.51844 0.0
C502 C 0.01263 0.15929 0.50359 0.0
C503 C 0.02638 0.11657 0.54179 0.0
H504 H 0.0258 0.95168 0.59836 0.0
H505 H 0.03186 0.98245 0.57386 0.0
H506 H 0.07258 0.94823 0.53354 0.0
H507 H 0.0663 0.91722 0.55756 0.0
H508 H 0.06943 0.16696 0.49776 0.0
H509 H 0.06524 0.1372 0.52304 0.0
H510 H 0.99379 0.13579 0.5242 0.0
H511 H 0.99759 0.16489 0.49807 0.0
Dy512 Dy 0.29108 0.82284 0.77444 0.0
Dy513 Dy 0.27981 0.76465 0.78932 0.0
C514 C 0.26934 0.80457 0.82237 0.0
O515 O 0.32577 0.81733 0.7887 0.0
O516 O 0.31839 0.77999 0.7988 0.0
O517 O 0.30418 0.85865 0.79029 0.0
O518 O 0.28733 0.8497 0.75437 0.0
O519 O 0.28903 0.7844 0.76228 0.0
O520 O 0.29919 0.80819 0.73968 0.0
O521 O 0.24428 0.76795 0.77648 0.0
O522 O 0.25247 0.80465 0.76457 0.0
O523 O 0.27461 0.73116 0.76898 0.0
O524 O 0.27785 0.73496 0.80701 0.0
C525 C 0.33276 0.80015 0.79679 0.0
O526 O 0.27371 0.81865 0.80664 0.0
O527 O 0.27306 0.78399 0.82115 0.0
C528 C 0.28023 0.88102 0.77709 0.0
C529 C 0.24961 0.90863 0.78307 0.0
C530 C 0.24487 0.88659 0.79001 0.0
C531 C 0.26002 0.87287 0.78696 0.0
C532 C 0.28525 0.90309 0.77056 0.0
C533 C 0.2701 0.9168 0.77354 0.0
C534 C 0.29531 0.86604 0.77227 0.0
C535 C 0.295 0.78675 0.742 0.0
C536 C 0.23774 0.78486 0.7674 0.0
C537 C 0.29388 0.70759 0.78784 0.0
C538 C 0.3262 0.68134 0.7896 0.0
C539 C 0.33231 0.70376 0.78359 0.0
C540 C 0.31629 0.71678 0.78276 0.0
C541 C 0.2877 0.68529 0.79378 0.0
C542 C 0.30369 0.67226 0.79465 0.0
C543 C 0.27705 0.72129 0.78755 0.0
H544 H 0.22917 0.87972 0.79724 0.0
H545 H 0.25578 0.85573 0.7919 0.0
H546 H 0.30074 0.9096 0.76286 0.0
H547 H 0.27441 0.93383 0.76836 0.0
H548 H 0.34955 0.71134 0.77983 0.0
H549 H 0.32142 0.73406 0.77825 0.0
H550 H 0.27048 0.67794 0.79776 0.0
H551 H 0.29832 0.65495 0.799 0.0
Dy552 Dy 0.52942 0.05762 0.01253 0.0
Dy553 Dy 0.53899 0.02898 0.05463 0.0
C554 C 0.54244 0.00932 1.00225 0.0
O555 O 0.49537 0.04499 0.02448 0.0
O556 O 0.50255 0.01346 0.03838 0.0
O557 O 0.51198 0.05919 0.97868 0.0
O558 O 0.53576 0.08994 0.99901 0.0
O559 O 0.52306 0.05596 0.07038 0.0
O560 O 0.53494 0.08226 0.04603 0.0
O561 O 0.57113 0.05706 0.0554 0.0
O562 O 0.56705 0.06069 0.01669 0.0
O563 O 0.5541 0.02799 0.0896 0.0
O564 O 0.53438 0.99631 0.0675 0.0
C565 C 0.4881 0.02477 0.03115 0.0
O566 O 0.52905 0.02201 0.99533 0.0
O567 O 0.55235 0.01287 0.02408 0.0
C568 C 0.53605 0.08473 0.95874 0.0
C569 C 0.55999 0.0917 0.92027 0.0
C570 C 0.56888 0.0825 0.93906 0.0
C571 C 0.55698 0.07899 0.95809 0.0
C572 C 0.52712 0.09408 0.94019 0.0
C573 C 0.539 0.09749 0.92096 0.0
C574 C 0.52366 0.08057 0.97875 0.0
C575 C 0.52766 0.07732 0.06581 0.0
C576 C 0.57984 0.06421 0.03704 0.0
C577 C 0.52842 1.00127 0.10657 0.0
C578 C 0.50127 0.99739 0.14302 0.0
C579 C 0.49433 0.00584 0.12279 0.0
C580 C 0.50775 0.00771 0.10474 0.0
C581 C 0.53511 0.99203 0.12622 0.0
C582 C 0.52155 0.99 0.14433 0.0
C583 C 0.54353 0.00617 0.0887 0.0
H584 H 0.58474 0.0774 0.93877 0.0
H585 H 0.56401 0.07156 0.97221 0.0
H586 H 0.51093 0.09855 0.94051 0.0
H587 H 0.5318 0.10457 0.90665 0.0
H588 H 0.4791 0.01209 0.12132 0.0
H589 H 0.50242 0.01502 0.08969 0.0
H590 H 0.55105 0.98701 0.12783 0.0
H591 H 0.52721 0.98319 0.15959 0.0
Dy592 Dy 0.27033 0.26846 0.26961 0.0
Dy593 Dy 0.30046 0.31819 0.2965 0.0
C594 C 0.29019 0.27532 0.32402 0.0
O595 O 0.24403 0.28887 0.27367 0.0
O596 O 0.26403 0.31495 0.30521 0.0
O597 O 0.23984 0.23969 0.26595 0.0
O598 O 0.26444 0.23997 0.24157 0.0
O599 O 0.28615 0.3262 0.26217 0.0
O600 O 0.27852 0.28989 0.24143 0.0
O601 O 0.32545 0.30401 0.27712 0.0
O602 O 0.30736 0.26546 0.27306 0.0
O603 O 0.32968 0.34803 0.29942 0.0
O604 O 0.30796 0.34475 0.32673 0.0
C605 C 0.24426 0.30403 0.29199 0.0
O606 O 0.27276 0.26507 0.30766 0.0
O607 O 0.30619 0.29333 0.3205 0.0
C608 C 0.24852 0.20462 0.25392 0.0
C609 C 0.26402 0.16684 0.26509 0.0
C610 C 0.2554 0.17968 0.28193 0.0
C611 C 0.24783 0.19851 0.27644 0.0
C612 C 0.25478 0.19032 0.23645 0.0
C613 C 0.26255 0.17156 0.242 0.0
C614 C 0.24677 0.22758 0.24958 0.0
C615 C 0.28191 0.31226 0.24212 0.0
C616 C 0.32598 0.28239 0.27224 0.0
C617 C 0.32301 0.38203 0.31791 0.0
C618 C 0.31297 0.42464 0.31699 0.0
C619 C 0.31548 0.41171 0.29623 0.0
C620 C 0.32034 0.39051 0.29666 0.0
C621 C 0.32204 0.39563 0.33883 0.0
C622 C 0.31694 0.41678 0.33838 0.0
C623 C 0.32456 0.35828 0.31828 0.0
H624 H 0.25595 0.17609 0.29975 0.0
H625 H 0.24296 0.20912 0.29029 0.0
H626 H 0.25537 0.1947 0.21896 0.0
H627 H 0.26914 0.162 0.22868 0.0
H628 H 0.31214 0.41722 0.27948 0.0
H629 H 0.32088 0.38033 0.28022 0.0
H630 H 0.32412 0.38937 0.35539 0.0
H631 H 0.3151 0.42652 0.35459 0.0
Dy632 Dy 0.5484 0.52152 0.0369 0.0
Dy633 Dy 0.53365 0.57111 0.03988 0.0
C634 C 0.49771 0.52463 0.04745 0.0
O635 O 0.54396 0.52856 0.99976 0.0
O636 O 0.51881 0.55084 0.00447 0.0
O637 O 0.54214 0.48509 0.02385 0.0
O638 O 0.57226 0.50287 0.04889 0.0
O639 O 0.56476 0.575 0.02184 0.0
O640 O 0.58086 0.55039 0.03997 0.0
O641 O 0.55103 0.57028 0.07604 0.0
O642 O 0.54438 0.53102 0.07402 0.0
O643 O 0.54436 0.60833 0.04904 0.0
O644 O 0.50968 0.59116 0.03188 0.0
C645 C 0.52858 0.53834 0.99095 0.0
O646 O 0.5104 0.51248 0.03778 0.0
O647 O 0.50462 0.54728 0.05294 0.0
C648 C 0.55447 0.46405 0.05218 0.0
C649 C 0.54672 0.42849 0.08052 0.0
C650 C 0.53703 0.44722 0.08428 0.0
C651 C 0.54089 0.46482 0.07027 0.0
C652 C 0.56397 0.44537 0.04822 0.0
C653 C 0.56014 0.42779 0.06219 0.0
C654 C 0.55946 0.48293 0.03789 0.0
C655 C 0.58284 0.56824 0.02877 0.0
C656 C 0.55024 0.55179 0.08624 0.0
C657 C 0.52765 0.62778 0.0214 0.0
C658 C 0.53131 0.66053 0.98972 0.0
C659 C 0.55117 0.65623 1.00103 0.0
C660 C 0.54937 0.64007 0.01662 0.0
C661 C 0.50781 0.63197 0.01008 0.0
C662 C 0.5096 0.64803 0.99439 0.0
C663 C 0.52537 0.61088 0.03827 0.0
H664 H 0.52682 0.44852 0.09833 0.0
H665 H 0.53347 0.47915 0.07371 0.0
H666 H 0.57449 0.44443 0.03436 0.0
H667 H 0.56758 0.41352 0.0585 0.0
H668 H 0.56821 0.66568 0.99823 0.0
H669 H 0.56507 0.63736 0.02501 0.0
H670 H 0.49084 0.62279 0.01337 0.0
H671 H 0.49388 0.65052 0.98582 0.0
Dy672 Dy 0.78974 0.31911 0.27156 0.0
Dy673 Dy 0.78045 0.26683 0.28542 0.0
C674 C 0.77512 0.30822 0.32053 0.0
O675 O 0.82564 0.31432 0.27753 0.0
O676 O 0.81785 0.28502 0.29982 0.0
O677 O 0.80584 0.35591 0.27942 0.0
O678 O 0.78174 0.3417 0.24777 0.0
O679 O 0.79988 0.26732 0.25521 0.0
O680 O 0.78858 0.29565 0.2385 0.0
O681 O 0.74647 0.26762 0.26525 0.0
O682 O 0.75133 0.3067 0.27221 0.0
O683 O 0.76846 0.22986 0.27493 0.0
O684 O 0.78271 0.24413 0.311 0.0
C685 C 0.8328 0.30115 0.29154 0.0
O686 O 0.78987 0.32199 0.31007 0.0
O687 O 0.76572 0.28652 0.31166 0.0
C688 C 0.78041 0.37754 0.26726 0.0
C689 C 0.75334 0.40856 0.27588 0.0
C690 C 0.75876 0.39555 0.29309 0.0
C691 C 0.77204 0.3801 0.28878 0.0
C692 C 0.77522 0.39055 0.25014 0.0
C693 C 0.76178 0.40585 0.25435 0.0
C694 C 0.7933 0.36039 0.26189 0.0
C695 C 0.79733 0.27796 0.23728 0.0
C696 C 0.73774 0.28555 0.26581 0.0
C697 C 0.79185 0.21069 0.29478 0.0
C698 C 0.82185 0.18193 0.29304 0.0
C699 C 0.82884 0.20455 0.2877 0.0
C700 C 0.81397 0.21877 0.28854 0.0
C701 C 0.7848 0.18825 0.30024 0.0
C702 C 0.79967 0.17397 0.29939 0.0
C703 C 0.77613 0.22559 0.29528 0.0
H704 H 0.75284 0.39735 0.30996 0.0
H705 H 0.77558 0.37003 0.3022 0.0
H706 H 0.78124 0.3886 0.23332 0.0
H707 H 0.75763 0.41519 0.24051 0.0
H708 H 0.84588 0.21133 0.28304 0.0
H709 H 0.8197 0.23609 0.28426 0.0
H710 H 0.76775 0.18171 0.30499 0.0
H711 H 0.79363 0.15656 0.30331 0.0
Dy712 Dy 0.02863 0.5612 0.50081 0.0
Dy713 Dy 0.03489 0.53211 0.54329 0.0
C714 C 0.03899 0.51148 0.49145 0.0
O715 O 0.99351 0.54942 0.51012 0.0
O716 O 0.99826 0.51794 0.52624 0.0
O717 O 0.0123 0.56427 0.467 0.0
O718 O 0.03893 0.59319 0.48695 0.0
O719 O 0.01969 0.55978 0.55848 0.0
O720 O 0.03322 0.58588 0.53442 0.0
O721 O 0.0683 0.5588 0.5441 0.0
O722 O 0.06526 0.56071 0.50513 0.0
O723 O 0.05031 0.53067 0.57794 0.0
O724 O 0.02821 0.49957 0.55658 0.0
C725 C 0.985 0.52933 0.51652 0.0
O726 O 0.02677 0.52496 0.48381 0.0
O727 O 0.04803 0.51476 0.5135 0.0
C728 C 0.03954 0.58591 0.44693 0.0
C729 C 0.06604 0.58897 0.41009 0.0
C730 C 0.06955 0.57544 0.42739 0.0
C731 C 0.05638 0.57389 0.4456 0.0
C732 C 0.03579 0.59937 0.42971 0.0
C733 C 0.04893 0.6008 0.41125 0.0
C734 C 0.02649 0.58447 0.46669 0.0
C735 C 0.0251 0.58113 0.55395 0.0
C736 C 0.0778 0.56399 0.52551 0.0
C737 C 0.02556 0.50479 0.59655 0.0
C738 C 1.00253 0.50202 0.63595 0.0
C739 C 0.99413 0.51093 0.61666 0.0
C740 C 1.00556 0.51228 0.59711 0.0
C741 C 0.03355 0.49505 0.61525 0.0
C742 C 0.02205 0.49361 0.63486 0.0
C743 C 0.03901 0.50911 0.57735 0.0
H744 H 0.08229 0.56576 0.42665 0.0
H745 H 0.05934 0.56328 0.4587 0.0
H746 H 0.02282 0.60875 0.43059 0.0
H747 H 0.04593 0.61131 0.39806 0.0
H748 H 0.9794 0.51792 0.61709 0.0
H749 H 0.99931 0.52001 0.58279 0.0
H750 H 0.04902 0.48924 0.61499 0.0
H751 H 0.02875 0.48648 0.6494 0.0
Dy752 Dy 0.81705 0.79227 0.29117 0.0
Dy753 Dy 0.76578 0.80321 0.28591 0.0
C754 C 0.81171 0.84028 0.27932 0.0
O755 O 0.81372 0.81035 0.3263 0.0
O756 O 0.77433 0.79897 0.32305 0.0
O757 O 0.85395 0.80486 0.30184 0.0
O758 O 0.83878 0.76942 0.28528 0.0
O759 O 0.75982 0.76496 0.28178 0.0
O760 O 0.79292 0.76266 0.30329 0.0
O761 O 0.77398 0.79957 0.24898 0.0
O762 O 0.80031 0.77846 0.25439 0.0
O763 O 0.72888 0.79352 0.27448 0.0
O764 O 0.74551 0.8265 0.29579 0.0
C765 C 0.79458 0.8073 0.3359 0.0
O766 O 0.82044 0.82318 0.27332 0.0
O767 O 0.79297 0.83702 0.28942 0.0
C768 C 0.87578 0.78878 0.27593 0.0
C769 C 0.91048 0.7943 0.24599 0.0
C770 C 0.9119 0.81126 0.26527 0.0
C771 C 0.89486 0.80848 0.28008 0.0
C772 C 0.87432 0.77181 0.25664 0.0
C773 C 0.89144 0.77454 0.24189 0.0
C774 C 0.85785 0.78597 0.29194 0.0
C775 C 0.77138 0.7534 0.29364 0.0
C776 C 0.78661 0.78652 0.24058 0.0
C777 C 0.7077 0.80803 0.30194 0.0
C778 C 0.67346 0.80298 0.33224 0.0
C779 C 0.69264 0.79413 0.33643 0.0
C780 C 0.7096 0.79668 0.32146 0.0
C781 C 0.68857 0.81667 0.29758 0.0
C782 C 0.67164 0.81418 0.31252 0.0
C783 C 0.72592 0.81182 0.28659 0.0
H784 H 0.92645 0.82654 0.2692 0.0
H785 H 0.89668 0.82178 0.29488 0.0
H786 H 0.85995 0.75636 0.25288 0.0
H787 H 0.88964 0.76123 0.2271 0.0
H788 H 0.69479 0.78563 0.35153 0.0
H789 H 0.72431 0.78999 0.32524 0.0
H790 H 0.68677 0.82552 0.28266 0.0
H791 H 0.657 0.82091 0.3085 0.0
Dy792 Dy 0.80889 0.30516 0.7756 0.0
Dy793 Dy 0.77759 0.30517 0.81734 0.0
C794 C 0.80785 0.3522 0.80484 0.0
O795 O 0.83331 0.30969 0.80871 0.0
O796 O 0.80717 0.29147 0.83062 0.0
O797 O 0.83975 0.31935 0.76083 0.0
O798 O 0.81436 0.28839 0.74274 0.0
O799 O 0.76558 0.27028 0.796 0.0
O800 O 0.79968 0.26917 0.78359 0.0
O801 O 0.75904 0.31894 0.78912 0.0
O802 O 0.77297 0.30266 0.75817 0.0
O803 O 0.74489 0.29411 0.83021 0.0
O804 O 0.77488 0.31564 0.85346 0.0
C805 C 0.82871 0.29926 0.82691 0.0
O806 O 0.8075 0.34162 0.78374 0.0
O807 O 0.80099 0.34066 0.82164 0.0
C808 C 0.83291 0.31459 0.71947 0.0
C809 C 0.82727 0.3329 0.67775 0.0
C810 C 0.83692 0.34766 0.69888 0.0
C811 C 0.83964 0.33861 0.71958 0.0
C812 C 0.82454 0.2998 0.69817 0.0
C813 C 0.82162 0.30886 0.67749 0.0
C814 C 0.8328 0.30478 0.74143 0.0
C815 C 0.77911 0.25856 0.7877 0.0
C816 C 0.75762 0.31227 0.76649 0.0
C817 C 0.75268 0.28407 0.86746 0.0
C818 C 0.76166 0.25372 0.89785 0.0
C819 C 0.75779 0.24666 0.87359 0.0
C820 C 0.75345 0.26172 0.85853 0.0
C821 C 0.75507 0.29068 0.89168 0.0
C822 C 0.75948 0.27556 0.90682 0.0
C823 C 0.75429 0.30159 0.85188 0.0
H824 H 0.84191 0.36626 0.6995 0.0
H825 H 0.84636 0.3505 0.73569 0.0
H826 H 0.81938 0.2812 0.69765 0.0
H827 H 0.81402 0.29704 0.66152 0.0
H828 H 0.75901 0.22979 0.86623 0.0
H829 H 0.75203 0.25632 0.8399 0.0
H830 H 0.75495 0.30799 0.89886 0.0
H831 H 0.76251 0.28147 0.92547 0.0
Dy832 Dy 0.77155 0.76641 0.77123 0.0
Dy833 Dy 0.80108 0.81749 0.79653 0.0
C834 C 0.79204 0.77527 0.82599 0.0
O835 O 0.74373 0.78447 0.77755 0.0
O836 O 0.76454 0.81598 0.80398 0.0
O837 O 0.74306 0.73593 0.76926 0.0
O838 O 0.76492 0.73886 0.74209 0.0
O839 O 0.78573 0.82412 0.76214 0.0
O840 O 0.77797 0.78744 0.74233 0.0
O841 O 0.82618 0.80305 0.77734 0.0
O842 O 0.80887 0.76436 0.77403 0.0
O843 O 0.83017 0.8472 0.79781 0.0
O844 O 0.80869 0.84558 0.82532 0.0
C845 C 0.74449 0.80229 0.79337 0.0
O846 O 0.77588 0.763 0.80918 0.0
O847 O 0.80645 0.79462 0.82288 0.0
C848 C 0.75218 0.70244 0.75311 0.0
C849 C 0.76768 0.66287 0.75573 0.0
C850 C 0.76787 0.67783 0.77617 0.0
C851 C 0.76031 0.69754 0.77487 0.0
C852 C 0.75044 0.68671 0.73286 0.0
C853 C 0.7582 0.66703 0.73414 0.0
C854 C 0.74882 0.72525 0.75104 0.0
C855 C 0.78111 0.8097 0.74244 0.0
C856 C 0.82713 0.78151 0.77273 0.0
C857 C 0.82076 0.88104 0.81206 0.0
C858 C 0.80277 0.91845 0.80605 0.0
C859 C 0.80417 0.90314 0.78656 0.0
C860 C 0.81307 0.88455 0.78953 0.0
C861 C 0.82109 0.89737 0.8314 0.0
C862 C 0.81218 0.91611 0.8284 0.0
C863 C 0.82455 0.85868 0.81561 0.0
H864 H 0.77543 0.67524 0.793 0.0
H865 H 0.76209 0.70959 0.79072 0.0
H866 H 0.74432 0.69033 0.71593 0.0
H867 H 0.75782 0.65568 0.71817 0.0
H868 H 0.79715 0.90482 0.76916 0.0
H869 H 0.81256 0.87217 0.77431 0.0
H870 H 0.82683 0.89481 0.84889 0.0
H871 H 0.81113 0.92776 0.84362 0.0
Dy872 Dy 0.5685 0.56549 0.55188 0.0
Dy873 Dy 0.51819 0.53521 0.52653 0.0
C874 C 0.56107 0.54511 0.49737 0.0
O875 O 0.55446 0.59091 0.53344 0.0
O876 O 0.51587 0.57268 0.52967 0.0
O877 O 0.6029 0.58707 0.55113 0.0
O878 O 0.5912 0.58041 0.58411 0.0
O879 O 0.51475 0.53867 0.56446 0.0
O880 O 0.54415 0.57133 0.57708 0.0
O881 O 0.53749 0.50819 0.53203 0.0
O882 O 0.56648 0.52941 0.56062 0.0
O883 O 0.48921 0.5051 0.52383 0.0
O884 O 0.4897 0.52879 0.4988 0.0
C885 C 0.53282 0.59134 0.5287 0.0
O886 O 0.57535 0.54998 0.51705 0.0
O887 O 0.53886 0.54179 0.49741 0.0
C888 C 0.62931 0.58067 0.57999 0.0
C889 C 0.66761 0.56264 0.58387 0.0
C890 C 0.64558 0.54892 0.58607 0.0
C891 C 0.62664 0.55786 0.58415 0.0
C892 C 0.65139 0.59493 0.57926 0.0
C893 C 0.67048 0.586 0.58128 0.0
C894 C 0.60884 0.58839 0.57351 0.0
C895 C 0.52583 0.55582 0.58085 0.0
C896 C 0.5541 0.50917 0.54905 0.0
C897 C 0.45426 0.51244 0.51057 0.0
C898 C 0.41267 0.52333 0.51586 0.0
C899 C 0.42944 0.52632 0.53537 0.0
C900 C 0.45017 0.52104 0.53272 0.0
C901 C 0.43695 0.5079 0.49138 0.0
C902 C 0.41623 0.51334 0.49399 0.0
C903 C 0.47743 0.51117 0.50688 0.0
H904 H 0.64261 0.53077 0.58763 0.0
H905 H 0.60972 0.54651 0.58466 0.0
H906 H 0.65369 0.61259 0.57602 0.0
H907 H 0.6873 0.59702 0.57974 0.0
H908 H 0.42729 0.53433 0.55234 0.0
H909 H 0.46346 0.52491 0.54772 0.0
H910 H 0.43995 0.50136 0.47417 0.0
H911 H 0.40348 0.51083 0.47873 0.0
Dy912 Dy 0.01327 0.54561 0.04673 0.0
Dy913 Dy 0.06551 0.55396 0.03296 0.0
C914 C 0.02557 0.56094 0.99821 0.0
O915 O 0.01808 0.50952 0.0406 0.0
O916 O 0.04612 0.51703 0.01665 0.0
O917 O 0.97633 0.53111 0.0378 0.0
O918 O 0.99055 0.55219 0.07133 0.0
O919 O 0.0638 0.53361 0.06224 0.0
O920 O 0.03612 0.54603 0.07957 0.0
O921 O 0.06516 0.58821 0.05376 0.0
O922 O 0.02631 0.58421 0.04762 0.0
O923 O 0.10221 0.56624 0.04401 0.0
O924 O 0.089 0.55081 0.008 0.0
C925 C 0.03047 0.50212 0.02554 0.0
O926 O 0.01118 0.54636 0.00833 0.0
O927 O 0.04721 0.5697 0.00724 0.0
C928 C 0.95575 0.55627 0.05316 0.0
C929 C 0.92561 0.58463 0.04853 0.0
C930 C 0.94693 0.59004 0.03989 0.0
C931 C 0.96185 0.57598 0.0422 0.0
C932 C 0.93448 0.55066 0.0616 0.0
C933 C 0.91952 0.56469 0.05929 0.0
C934 C 0.97191 0.54214 0.05665 0.0
C935 C 0.05297 0.53616 0.0802 0.0
C936 C 0.04759 0.59743 0.05383 0.0
C937 C 0.12249 0.54293 0.02531 0.0
C938 C 0.15257 0.51454 0.0296 0.0
C939 C 0.1597 0.53588 0.02141 0.0
C940 C 0.14477 0.54996 0.01933 0.0
C941 C 0.11518 0.52159 0.03327 0.0
C942 C 0.13009 0.50752 0.03542 0.0
C943 C 0.10714 0.55811 0.02396 0.0
H944 H 0.9523 0.60538 0.03176 0.0
H945 H 0.97829 0.58065 0.03567 0.0
H946 H 0.92951 0.53552 0.07013 0.0
H947 H 0.90311 0.55983 0.06583 0.0
H948 H 0.17698 0.54191 0.01705 0.0
H949 H 0.15071 0.56645 0.01328 0.0
H950 H 0.09798 0.51588 0.03797 0.0
H951 H 0.12397 0.49109 0.0415 0.0
C952 C 0.9956 0.2047 0.99261 0.0
C953 C 0.0147 0.22246 0.98926 0.0
C954 C 0.99812 0.1837 0.9999 0.0
C955 C 0.02025 0.17952 0.00329 0.0
C956 C 0.03955 0.19736 0.99972 0.0
C957 C 0.03661 0.21848 0.99319 0.0
C958 C 0.97696 0.16592 0.00403 0.0
C959 C 0.06344 0.19394 1.00228 0.0
C960 C 0.03225 0.13312 0.04018 0.0
C961 C 0.02961 0.11357 0.02328 0.0
C962 C 0.02877 0.15421 0.03407 0.0
C963 C 0.02321 0.15659 0.01026 0.0
C964 C 0.02079 0.13696 0.99312 0.0
C965 C 0.02362 0.11585 0.99978 0.0
C966 C 0.03093 0.17401 0.05326 0.0
C967 C 0.0156 0.13835 0.96751 0.0
H968 H 0.97854 0.20728 0.9897 0.0
H969 H 0.05158 0.23172 0.99047 0.0
H970 H 0.97401 0.14988 0.9914 0.0
H971 H 0.97957 0.16131 0.02181 0.0
H972 H 0.96123 0.17215 1.00219 0.0
H973 H 0.07664 0.20901 0.99837 0.0
H974 H 0.06835 0.19103 0.02033 0.0
H975 H 0.06363 0.17832 0.99031 0.0
H976 H 0.03675 0.13186 0.05839 0.0
H977 H 0.0217 0.10118 0.98638 0.0
H978 H 0.01499 0.17986 0.05184 0.0
H979 H 0.04542 0.1889 0.05139 0.0
H980 H 0.03398 0.16923 0.07092 0.0
H981 H 0.99881 0.14231 0.96394 0.0
H982 H 0.01494 0.12201 0.95619 0.0
H983 H 0.029 0.15262 0.9626 0.0
C984 C 0.15423 0.80515 0.15743 0.0
C985 C 0.14345 0.82259 0.16325 0.0
C986 C 0.17308 0.80261 0.17237 0.0
C987 C 0.18204 0.81837 0.19336 0.0
C988 C 0.17178 0.83661 0.19877 0.0
C989 C 0.15241 0.8382 0.18397 0.0
C990 C 0.18284 0.78249 0.16609 0.0
C991 C 0.18117 0.85439 0.22035 0.0
C992 C 0.21504 0.80068 0.24491 0.0
C993 C 0.23817 0.80947 0.24175 0.0
C994 C 0.19674 0.80303 0.2291 0.0
C995 C 0.20152 0.81532 0.21004 0.0
C996 C 0.22491 0.82468 0.20709 0.0
C997 C 0.24285 0.82122 0.22262 0.0
C998 C 0.17221 0.79203 0.23263 0.0
C999 C 0.23106 0.83855 0.18764 0.0
H1000 H 0.14727 0.79282 0.14164 0.0
H1001 H 0.14424 0.85175 0.18861 0.0
H1002 H 0.20142 0.78885 0.16455 0.0
H1003 H 0.18142 0.77158 0.1802 0.0
H1004 H 0.17379 0.77155 0.14939 0.0
H1005 H 0.17268 0.86864 0.22104 0.0
H1006 H 0.17856 0.84607 0.23621 0.0
H1007 H 0.20002 0.86188 0.22094 0.0
H1008 H 0.21122 0.7914 0.25948 0.0
H1009 H 0.26064 0.82821 0.22008 0.0
H1010 H 0.1628 0.78025 0.21655 0.0
H1011 H 0.16308 0.80554 0.23595 0.0
H1012 H 0.17132 0.78205 0.2475 0.0
H1013 H 0.22561 0.8271 0.17056 0.0
H1014 H 0.24988 0.84694 0.1893 0.0
H1015 H 0.22177 0.85213 0.18747 0.0
C1016 C 0.51286 0.86305 0.50661 0.0
C1017 C 0.51741 0.85509 0.48433 0.0
C1018 C 0.51517 0.88691 0.51411 0.0
C1019 C 0.52203 0.90361 0.49905 0.0
C1020 C 0.52655 0.89558 0.47655 0.0
C1021 C 0.5243 0.87174 0.46959 0.0
C1022 C 0.5103 0.8943 0.53829 0.0
C1023 C 0.53378 0.91224 0.45962 0.0
C1024 C 0.50935 0.9635 0.50904 0.0
C1025 C 0.5309 0.9785 0.51934 0.0
C1026 C 0.50616 0.93933 0.50267 0.0
C1027 C 0.52484 0.92938 0.50675 0.0
C1028 C 0.54652 0.94441 0.51744 0.0
C1029 C 0.54928 0.96849 0.52344 0.0
C1030 C 0.48274 0.92441 0.4912 0.0
C1031 C 0.56704 0.93506 0.52244 0.0
H1032 H 0.5075 0.8506 0.51826 0.0
H1033 H 0.52782 0.8661 0.45231 0.0
H1034 H 0.52582 0.90708 0.5484 0.0
H1035 H 0.49622 0.90293 0.53716 0.0
H1036 H 0.50525 0.87949 0.54803 0.0
H1037 H 0.53633 0.90343 0.44264 0.0
H1038 H 0.52051 0.92159 0.45632 0.0
H1039 H 0.55012 0.92539 0.46728 0.0
H1040 H 0.49491 0.97069 0.50567 0.0
H1041 H 0.56605 0.97953 0.53145 0.0
H1042 H 0.47646 0.91026 0.5014 0.0
H1043 H 0.48405 0.91624 0.47348 0.0
H1044 H 0.46979 0.93442 0.48963 0.0
H1045 H 0.56276 0.92109 0.53332 0.0
H1046 H 0.5825 0.94864 0.53163 0.0
H1047 H 0.57142 0.92737 0.50584 0.0
C1048 C 0.52526 0.32055 0.68807 0.0
C1049 C 0.52243 0.30894 0.66516 0.0
C1050 C 0.50676 0.31779 0.70125 0.0
C1051 C 0.48481 0.30292 0.69142 0.0
C1052 C 0.48186 0.29107 0.66831 0.0
C1053 C 0.50064 0.29428 0.65545 0.0
C1054 C 0.5107 0.33089 0.72572 0.0
C1055 C 0.45886 0.27492 0.65717 0.0
C1056 C 0.44286 0.27997 0.73339 0.0
C1057 C 0.42805 0.29442 0.73261 0.0
C1058 C 0.46115 0.28236 0.71993 0.0
C1059 C 0.465 0.29975 0.70535 0.0
C1060 C 0.45012 0.31436 0.70441 0.0
C1061 C 0.43185 0.31147 0.71792 0.0
C1062 C 0.47651 0.26637 0.72147 0.0
C1063 C 0.45357 0.33315 0.68918 0.0
H1064 H 0.54199 0.33195 0.69572 0.0
H1065 H 0.49827 0.2852 0.63779 0.0
H1066 H 0.49882 0.34205 0.72715 0.0
H1067 H 0.50682 0.31859 0.73841 0.0
H1068 H 0.52872 0.34191 0.7308 0.0
H1069 H 0.45938 0.2669 0.63913 0.0
H1070 H 0.45342 0.26097 0.66785 0.0
H1071 H 0.44548 0.28446 0.65659 0.0
H1072 H 0.44043 0.26696 0.74487 0.0
H1073 H 0.42039 0.32252 0.71679 0.0
H1074 H 0.4945 0.27654 0.72825 0.0
H1075 H 0.47667 0.25725 0.70382 0.0
H1076 H 0.47084 0.25328 0.73305 0.0
H1077 H 0.47101 0.34534 0.69439 0.0
H1078 H 0.44053 0.34306 0.69034 0.0
H1079 H 0.45256 0.32551 0.67068 0.0
C1080 C 0.0224 0.81468 0.63599 0.0
C1081 C 0.02643 0.818 0.66051 0.0
C1082 C 0.02522 0.83352 0.6235 0.0
C1083 C 0.03231 0.85641 0.63574 0.0
C1084 C 0.03628 0.8599 0.66052 0.0
C1085 C 0.03329 0.84068 0.6726 0.0
C1086 C 0.02079 0.82891 0.59713 0.0
C1087 C 0.04386 0.88396 0.67428 0.0
C1088 C 0.06066 0.90391 0.60187 0.0
C1089 C 0.04237 0.91316 0.59514 0.0
C1090 C 0.05773 0.88582 0.61538 0.0
C1091 C 0.03597 0.87659 0.62249 0.0
C1092 C 0.01753 0.88608 0.61612 0.0
C1093 C 0.02094 0.9042 0.60259 0.0
C1094 C 0.07792 0.87636 0.62181 0.0
C1095 C 0.99403 0.87677 0.62323 0.0
H1096 H 0.01708 0.79724 0.62645 0.0
H1097 H 0.03645 0.84344 0.69153 0.0
H1098 H 1.00744 0.83711 0.59065 0.0
H1099 H 0.03676 0.83672 0.58991 0.0
H1100 H 0.01496 0.81014 0.59022 0.0
H1101 H 0.04584 0.8838 0.69345 0.0
H1102 H 0.06058 0.8936 0.6696 0.0
H1103 H 0.0311 0.89358 0.66979 0.0
H1104 H 0.0774 0.91091 0.59663 0.0
H1105 H 1.00661 0.91099 0.59736 0.0
H1106 H 0.07376 0.85786 0.61412 0.0
H1107 H 0.08133 0.87733 0.64105 0.0
H1108 H 0.0939 0.88588 0.6156 0.0
H1109 H 0.98673 0.8584 0.61522 0.0
H1110 H 0.98177 0.88665 0.61781 0.0
H1111 H 0.9955 0.87734 0.64246 0.0
C1112 C 0.46518 0.81733 0.8552 0.0
C1113 C 0.48109 0.81707 0.83919 0.0
C1114 C 0.44152 0.81494 0.84792 0.0
C1115 C 0.43288 0.81188 0.82379 0.0
C1116 C 0.44881 0.81151 0.80745 0.0
C1117 C 0.47257 0.81424 0.81528 0.0
C1118 C 0.4257 0.81577 0.86622 0.0
C1119 C 0.44067 0.80804 0.78158 0.0
C1120 C 0.36716 0.78422 0.80653 0.0
C1121 C 0.35846 0.80332 0.80348 0.0
C1122 C 0.39109 0.78667 0.81244 0.0
C1123 C 0.40726 0.80886 0.81592 0.0
C1124 C 0.39862 0.82822 0.81286 0.0
C1125 C 0.3746 0.82523 0.80654 0.0
C1126 C 0.39906 0.76534 0.81508 0.0
C1127 C 0.4148 0.85229 0.81661 0.0
H1128 H 0.47129 0.81959 0.87373 0.0
H1129 H 0.48445 0.81396 0.80262 0.0
H1130 H 0.41715 0.82972 0.86425 0.0
H1131 H 0.4119 0.79924 0.86381 0.0
H1132 H 0.43501 0.81883 0.88427 0.0
H1133 H 0.45492 0.80797 0.77101 0.0
H1134 H 0.4271 0.7914 0.77641 0.0
H1135 H 0.43283 0.82197 0.77731 0.0
H1136 H 0.35522 0.76712 0.80408 0.0
H1137 H 0.36844 0.84023 0.80432 0.0
H1138 H 0.407 0.7664 0.83337 0.0
H1139 H 0.41249 0.76428 0.80372 0.0
H1140 H 0.38469 0.74921 0.81054 0.0
H1141 H 0.4237 0.85663 0.83487 0.0
H1142 H 0.40568 0.86556 0.81321 0.0
H1143 H 0.4283 0.85313 0.80499 0.0
C1144 C 0.49933 0.18585 0.13844 0.0
C1145 C 0.51241 0.19308 0.16069 0.0
C1146 C 0.50058 0.1659 0.12398 0.0
C1147 C 0.51583 0.1531 0.13154 0.0
C1148 C 0.52883 0.16015 0.15417 0.0
C1149 C 0.52674 0.17981 0.16854 0.0
C1150 C 0.48591 0.15883 0.10033 0.0
C1151 C 0.54574 0.1475 0.16283 0.0
C1152 C 0.50943 0.092 0.09955 0.0
C1153 C 0.52489 0.09639 0.08316 0.0
C1154 C 0.5062 0.11018 0.11532 0.0
C1155 C 0.5192 0.13333 0.11522 0.0
C1156 C 0.53525 0.1377 0.09908 0.0
C1157 C 0.53764 0.11932 0.08313 0.0
C1158 C 0.48852 0.10467 0.13175 0.0
C1159 C 0.54997 0.16188 0.09863 0.0
H1160 H 0.48818 0.19594 0.13222 0.0
H1161 H 0.5371 0.18536 0.18559 0.0
H1162 H 0.49712 0.16108 0.08639 0.0
H1163 H 0.47629 0.14027 0.09801 0.0
H1164 H 0.47337 0.16919 0.09792 0.0
H1165 H 0.55384 0.15447 0.18115 0.0
H1166 H 0.53699 0.12884 0.16177 0.0
H1167 H 0.55955 0.14896 0.15151 0.0
H1168 H 0.4994 0.07439 0.09967 0.0
H1169 H 0.54981 0.12293 0.07073 0.0
H1170 H 0.4752 0.11395 0.12841 0.0
H1171 H 0.49679 0.11076 0.15011 0.0
H1172 H 0.47987 0.08586 0.12979 0.0
H1173 H 0.53884 0.17305 0.09385 0.0
H1174 H 0.56255 0.16227 0.08598 0.0
H1175 H 0.55959 0.16951 0.11627 0.0
C1176 C 0.12706 0.33913 0.32449 0.0
C1177 C 0.11215 0.321 0.33313 0.0
C1178 C 0.14828 0.3371 0.31711 0.0
C1179 C 0.15543 0.31661 0.31873 0.0
C1180 C 0.14044 0.29834 0.32754 0.0
C1181 C 0.11917 0.30065 0.33433 0.0
C1182 C 0.1631 0.357 0.30754 0.0
C1183 C 0.14706 0.2763 0.33018 0.0
C1184 C 0.20115 0.30081 0.28249 0.0
C1185 C 0.22173 0.30819 0.29843 0.0
C1186 C 0.17987 0.30394 0.28859 0.0
C1187 C 0.1785 0.31428 0.31149 0.0
C1188 C 0.19922 0.32176 0.32765 0.0
C1189 C 0.22037 0.31888 0.32093 0.0
C1190 C 0.15871 0.29602 0.27042 0.0
C1191 C 0.199 0.33244 0.35236 0.0
H1192 H 0.12212 0.35498 0.32341 0.0
H1193 H 0.10813 0.2865 0.34109 0.0
H1194 H 0.18002 0.36381 0.31882 0.0
H1195 H 0.16656 0.35094 0.28985 0.0
H1196 H 0.15491 0.37135 0.30641 0.0
H1197 H 0.13387 0.26379 0.33758 0.0
H1198 H 0.14946 0.26794 0.31296 0.0
H1199 H 0.16376 0.2803 0.34178 0.0
H1200 H 0.20166 0.29259 0.26505 0.0
H1201 H 0.23585 0.32458 0.33363 0.0
H1202 H 0.15088 0.31049 0.26854 0.0
H1203 H 0.14561 0.282 0.27606 0.0
H1204 H 0.16266 0.28953 0.25308 0.0
H1205 H 0.19259 0.34801 0.35227 0.0
H1206 H 0.21637 0.33745 0.36291 0.0
H1207 H 0.187 0.32001 0.36102 0.0
C1208 C 0.9815 0.06771 0.20767 0.0
C1209 C 0.97706 0.04656 0.21635 0.0
C1210 C 0.98869 0.06963 0.18555 0.0
C1211 C 0.99173 0.04999 0.17176 0.0
C1212 C 0.98741 0.02863 0.18052 0.0
C1213 C 0.98007 0.02715 0.20261 0.0
C1214 C 0.993 0.09271 0.17691 0.0
C1215 C 0.99063 0.0073 0.16656 0.0
C1216 C 0.9931 0.04876 0.10598 0.0
C1217 C 0.0169 0.05437 0.10475 0.0
C1218 C 0.98463 0.04756 0.12762 0.0
C1219 C 1.00029 0.05196 0.1486 0.0
C1220 C 0.02429 0.0579 0.14746 0.0
C1221 C 0.03226 0.05909 0.12568 0.0
C1222 C 0.9589 0.04131 0.12802 0.0
C1223 C 0.04164 0.06264 0.16928 0.0
H1224 H 0.97905 0.08275 0.21805 0.0
H1225 H 0.97659 0.01072 0.2091 0.0
H1226 H 0.01124 0.09866 0.1739 0.0
H1227 H 0.98206 0.09095 0.15992 0.0
H1228 H 0.98931 0.10618 0.18944 0.0
H1229 H 0.98633 0.99195 0.17567 0.0
H1230 H 0.97957 1.00331 0.14935 0.0
H1231 H 0.00878 0.01047 0.16314 0.0
H1232 H 0.98103 0.04509 0.09001 0.0
H1233 H 0.05069 0.0634 0.1251 0.0
H1234 H 0.95436 0.05502 0.13945 0.0
H1235 H 0.95338 0.02505 0.13547 0.0
H1236 H 0.94902 0.03898 0.11031 0.0
H1237 H 0.03921 0.0769 0.18172 0.0
H1238 H 0.05973 0.06739 0.1655 0.0
H1239 H 0.0389 0.0471 0.17815 0.0
C1240 C 0.31588 0.73895 0.5272 0.0
C1241 C 0.31466 0.71672 0.51613 0.0
C1242 C 0.31473 0.75669 0.51406 0.0
C1243 C 0.31272 0.75203 0.48944 0.0
C1244 C 0.31416 0.73036 0.4785 0.0
C1245 C 0.31483 0.71282 0.49199 0.0
C1246 C 0.31331 0.77957 0.52636 0.0
C1247 C 0.31286 0.72499 0.4523 0.0
C1248 C 0.27349 0.77413 0.44927 0.0
C1249 C 0.28936 0.78966 0.43882 0.0
C1250 C 0.28092 0.76333 0.46736 0.0
C1251 C 0.30484 0.7677 0.47481 0.0
C1252 C 0.32085 0.78478 0.46584 0.0
C1253 C 0.31286 0.79585 0.44818 0.0
C1254 C 0.26319 0.74568 0.477 0.0
C1255 C 0.3465 0.78997 0.47331 0.0
H1256 H 0.31585 0.74202 0.54593 0.0
H1257 H 0.31422 0.6957 0.48348 0.0
H1258 H 0.32322 0.79417 0.51849 0.0
H1259 H 0.29503 0.78007 0.52446 0.0
H1260 H 0.31987 0.78216 0.54531 0.0
H1261 H 0.31774 0.70886 0.44696 0.0
H1262 H 0.29495 0.72285 0.44397 0.0
H1263 H 0.32434 0.73943 0.4455 0.0
H1264 H 0.25534 0.76897 0.44226 0.0
H1265 H 0.32524 0.80841 0.44081 0.0
H1266 H 0.26663 0.74822 0.49636 0.0
H1267 H 0.26425 0.72805 0.4705 0.0
H1268 H 0.24533 0.74659 0.47172 0.0
H1269 H 0.3505 0.78966 0.49228 0.0
H1270 H 0.35595 0.80704 0.46923 0.0
H1271 H 0.35304 0.77651 0.46381 0.0
C1272 C 0.60347 0.01748 0.70456 0.0
C1273 C 0.62642 0.01787 0.70255 0.0
C1274 C 0.58789 0.01664 0.68473 0.0
C1275 C 0.59548 0.01572 0.66255 0.0
C1276 C 0.61773 0.01306 0.66025 0.0
C1277 C 0.63311 0.01447 0.68039 0.0
C1278 C 0.5643 0.01949 0.6879 0.0
C1279 C 0.62614 0.01122 0.63675 0.0
C1280 C 0.55549 0.01272 0.60693 0.0
C1281 C 0.56208 0.03582 0.60326 0.0
C1282 C 0.56575 0.00577 0.62655 0.0
C1283 C 0.58249 0.02251 0.64289 0.0
C1284 C 0.58815 0.04608 0.6398 0.0
C1285 C 0.5781 0.05238 0.61979 0.0
C1286 C 0.55966 0.98046 0.62904 0.0
C1287 C 0.6055 0.06458 0.65715 0.0
H1288 H 0.59823 0.01994 0.72172 0.0
H1289 H 0.65078 0.01438 0.67884 0.0
H1290 H 0.56437 0.0377 0.68689 0.0
H1291 H 0.55094 0.00834 0.67386 0.0
H1292 H 0.55943 0.01535 0.70509 0.0
H1293 H 0.64183 1.00489 0.6374 0.0
H1294 H 0.61252 0.99942 0.62335 0.0
H1295 H 0.63043 0.02852 0.63108 0.0
H1296 H 0.54326 0.99992 0.59386 0.0
H1297 H 0.58301 0.07025 0.61688 0.0
H1298 H 0.55729 0.97802 0.6473 0.0
H1299 H 0.57403 0.97326 0.62459 0.0
H1300 H 0.54371 0.9704 0.61726 0.0
H1301 H 0.60105 0.06359 0.67509 0.0
H1302 H 0.60638 0.08225 0.65316 0.0
H1303 H 0.6229 0.06182 0.65701 0.0
C1304 C 0.29358 0.33622 0.97413 0.0
C1305 C 0.29114 0.35864 0.97918 0.0
C1306 C 0.29411 0.32647 0.95099 0.0
C1307 C 0.29227 0.33947 0.93248 0.0
C1308 C 0.28974 0.36207 0.93755 0.0
C1309 C 0.28914 0.3713 0.96072 0.0
C1310 C 0.29666 0.30227 0.94632 0.0
C1311 C 0.28775 0.37663 0.91848 0.0
C1312 C 0.31329 0.32598 0.87407 0.0
C1313 C 0.29245 0.31529 0.85933 0.0
C1314 C 0.3136 0.33319 0.89807 0.0
C1315 C 0.29258 0.32956 0.90768 0.0
C1316 C 0.2716 0.31805 0.89305 0.0
C1317 C 0.27178 0.31114 0.86915 0.0
C1318 C 0.33635 0.34547 0.91299 0.0
C1319 C 0.24879 0.31371 0.90247 0.0
H1320 H 0.29522 0.32635 0.98827 0.0
H1321 H 0.28732 0.38867 0.96438 0.0
H1322 H 0.28175 0.29113 0.93387 0.0
H1323 H 0.31241 0.30249 0.93806 0.0
H1324 H 0.2978 0.29437 0.96253 0.0
H1325 H 0.28615 0.39398 0.92534 0.0
H1326 H 0.30314 0.3789 0.90926 0.0
H1327 H 0.27244 0.36774 0.90537 0.0
H1328 H 0.32937 0.32929 0.86675 0.0
H1329 H 0.25555 0.30277 0.85806 0.0
H1330 H 0.3384 0.33722 0.92881 0.0
H1331 H 0.33672 0.36367 0.91898 0.0
H1332 H 0.35128 0.34544 0.90339 0.0
H1333 H 0.24953 0.30491 0.91809 0.0
H1334 H 0.23423 0.30297 0.8893 0.0
H1335 H 0.24517 0.33044 0.90803 0.0
C1336 C 1.00319 0.04917 0.35239 0.0
C1337 C 0.9792 0.04167 0.34581 0.0
C1338 C 0.01314 0.04893 0.37538 0.0
C1339 C 0.99877 0.04071 0.39208 0.0
C1340 C 0.9746 0.03256 0.38526 0.0
C1341 C 0.96516 0.03328 0.36237 0.0
C1342 C 0.03894 0.05803 0.38197 0.0
C1343 C 0.95858 0.02348 0.40231 0.0
C1344 C 0.02213 0.0243 0.44949 0.0
C1345 C 0.02205 0.04343 0.46561 0.0
C1346 C 0.01526 0.02338 0.42536 0.0
C1347 C 0.00855 0.04218 0.41714 0.0
C1348 C 0.00943 0.06189 0.4333 0.0
C1349 C 0.01597 0.0622 0.45722 0.0
C1350 C 0.01437 1.00195 0.40877 0.0
C1351 C 1.00279 0.08249 0.42544 0.0
H1352 H 0.01417 0.05561 0.33971 0.0
H1353 H 0.94661 0.02722 0.35743 0.0
H1354 H 0.04304 0.07371 0.39532 0.0
H1355 H 0.04596 0.04502 0.38986 0.0
H1356 H 0.04786 0.06252 0.36671 0.0
H1357 H 0.9404 0.01627 0.39386 0.0
H1358 H 0.96417 0.00979 0.41044 0.0
H1359 H 0.95926 0.03763 0.41657 0.0
H1360 H 0.02684 0.00977 0.45578 0.0
H1361 H 0.01624 0.07727 0.46943 0.0
H1362 H 0.02392 0.00664 0.394 0.0
H1363 H 0.99618 0.9931 0.40127 0.0
H1364 H 0.02174 0.9896 0.41753 0.0
H1365 H 0.0124 0.08841 0.41107 0.0
H1366 H 1.00626 0.09722 0.43988 0.0
H1367 H 0.98413 0.07748 0.41855 0.0
C1368 C 0.30538 0.68942 0.64024 0.0
C1369 C 0.29173 0.69292 0.62079 0.0
C1370 C 0.3067 0.70231 0.66228 0.0
C1371 C 0.29437 0.71919 0.6646 0.0
C1372 C 0.28007 0.72226 0.64512 0.0
C1373 C 0.27881 0.70896 0.6235 0.0
C1374 C 0.3217 0.69835 0.6829 0.0
C1375 C 0.26673 0.7402 0.64687 0.0
C1376 C 0.28054 0.74678 0.72082 0.0
C1377 C 0.2968 0.76835 0.72426 0.0
C1378 C 0.28079 0.72965 0.70253 0.0
C1379 C 0.29716 0.73474 0.68691 0.0
C1380 C 0.31405 0.75638 0.69075 0.0
C1381 C 0.31364 0.773 0.70947 0.0
C1382 C 0.26255 0.70676 0.69903 0.0
C1383 C 0.33157 0.76256 0.67423 0.0
H1384 H 0.31526 0.6769 0.63816 0.0
H1385 H 0.26819 0.71168 0.6085 0.0
H1386 H 0.33653 0.71387 0.68869 0.0
H1387 H 0.31181 0.69567 0.69783 0.0
H1388 H 0.32847 0.68318 0.67865 0.0
H1389 H 0.25595 0.73993 0.63014 0.0
H1390 H 0.25533 0.73732 0.66059 0.0
H1391 H 0.27889 0.75771 0.65199 0.0
H1392 H 0.26674 0.74382 0.73145 0.0
H1393 H 0.32606 0.78987 0.71215 0.0
H1394 H 0.27011 0.69225 0.69445 0.0
H1395 H 0.24913 0.70629 0.68434 0.0
H1396 H 0.25406 0.70399 0.71489 0.0
H1397 H 0.3402 0.74864 0.67098 0.0
H1398 H 0.34495 0.77906 0.68106 0.0
H1399 H 0.32268 0.76432 0.65717 0.0
C1400 C 0.62954 0.08904 0.80968 0.0
C1401 C 0.63467 0.06769 0.80904 0.0
C1402 C 0.61664 0.09605 0.82639 0.0
C1403 C 0.60879 0.08134 0.84272 0.0
C1404 C 0.61368 0.05964 0.84192 0.0
C1405 C 0.62658 0.05309 0.82507 0.0
C1406 C 0.61171 0.11929 0.8268 0.0
C1407 C 0.60557 0.04346 0.85909 0.0
C1408 C 0.59617 0.10202 0.90231 0.0
C1409 C 0.57208 0.09359 0.8995 0.0
C1410 C 0.60836 0.09964 0.88344 0.0
C1411 C 0.59608 0.08865 0.86129 0.0
C1412 C 0.57166 0.08188 0.85794 0.0
C1413 C 0.5599 0.08442 0.87717 0.0
C1414 C 0.63442 0.10724 0.88765 0.0
C1415 C 0.55801 0.07027 0.8345 0.0
H1416 H 0.63578 0.10036 0.79726 0.0
H1417 H 0.63048 0.03655 0.82457 0.0
H1418 H 0.59286 0.11718 0.82568 0.0
H1419 H 0.61992 0.13051 0.84358 0.0
H1420 H 0.6182 0.12823 0.81224 0.0
H1421 H 0.6104 0.02699 0.85571 0.0
H1422 H 0.61317 0.05195 0.87715 0.0
H1423 H 0.58654 0.03937 0.85821 0.0
H1424 H 0.60556 0.10949 0.91954 0.0
H1425 H 0.54126 0.07783 0.87498 0.0
H1426 H 0.64132 0.11706 0.87383 0.0
H1427 H 0.64109 0.09177 0.88699 0.0
H1428 H 0.64118 0.11816 0.90494 0.0
H1429 H 0.56483 0.07959 0.82032 0.0
H1430 H 0.5394 0.06936 0.83392 0.0
H1431 H 0.55966 0.0524 0.8309 0.0
C1432 C 0.26878 0.35653 0.11712 0.0
C1433 C 0.28998 0.3614 0.10835 0.0
C1434 C 0.26688 0.34945 0.1392 0.0
C1435 C 0.28663 0.34703 0.15291 0.0
C1436 C 0.30806 0.35182 0.14408 0.0
C1437 C 0.30948 0.35899 0.12199 0.0
C1438 C 0.24372 0.34455 0.14787 0.0
C1439 C 0.3295 0.34928 0.15796 0.0
C1440 C 0.28705 0.3454 0.21859 0.0
C1441 C 0.28202 0.32156 0.21946 0.0
C1442 C 0.28835 0.35397 0.19709 0.0
C1443 C 0.28465 0.33839 0.17593 0.0
C1444 C 0.27931 0.31435 0.17672 0.0
C1445 C 0.278 0.30628 0.19834 0.0
C1446 C 0.29396 0.37973 0.19703 0.0
C1447 C 0.27528 0.29706 0.15471 0.0
H1448 H 0.25364 0.35852 0.10682 0.0
H1449 H 0.32596 0.36284 0.11545 0.0
H1450 H 0.23816 0.32623 0.15065 0.0
H1451 H 0.24507 0.35542 0.16497 0.0
H1452 H 0.23017 0.34789 0.13545 0.0
H1453 H 0.34493 0.35409 0.1489 0.0
H1454 H 0.33301 0.36033 0.17527 0.0
H1455 H 0.32684 0.33114 0.16116 0.0
H1456 H 0.29023 0.3574 0.23471 0.0
H1457 H 0.2741 0.28782 0.19862 0.0
H1458 H 0.28024 0.3839 0.1856 0.0
H1459 H 0.31033 0.38572 0.18975 0.0
H1460 H 0.29574 0.38953 0.21482 0.0
H1461 H 0.26098 0.29909 0.14235 0.0
H1462 H 0.271 0.27892 0.15824 0.0
H1463 H 0.29094 0.30031 0.14587 0.0
C1464 C 0.25818 0.01018 0.00577 0.0
C1465 C 0.2433 0.98785 0.00393 0.0
C1466 C 0.2502 0.02976 0.01063 0.0
C1467 C 0.22679 0.0268 0.01348 0.0
C1468 C 0.21142 1.00429 0.01031 0.0
C1469 C 0.21992 0.98504 0.00571 0.0
C1470 C 0.26708 0.05347 0.014 0.0
C1471 C 0.18618 1.00049 0.01282 0.0
C1472 C 0.20427 0.06668 0.05339 0.0
C1473 C 0.19174 0.0758 0.03716 0.0
C1474 C 0.2178 0.05237 0.04599 0.0
C1475 C 0.21848 0.04687 0.02181 0.0
C1476 C 0.20801 0.05806 0.00563 0.0
C1477 C 0.19495 0.07268 0.01357 0.0
C1478 C 0.22931 0.04124 0.06387 0.0
C1479 C 0.20851 0.05277 0.97971 0.0
H1480 H 0.27631 0.0124 0.00439 0.0
H1481 H 0.20838 0.96779 0.00411 0.0
H1482 H 0.25972 0.06545 0.00466 0.0
H1483 H 0.27063 0.06073 0.03285 0.0
H1484 H 0.2837 0.05296 0.00779 0.0
H1485 H 0.17622 0.98205 0.00787 0.0
H1486 H 0.18442 0.00619 0.03121 0.0
H1487 H 0.17838 0.01098 1.00175 0.0
H1488 H 0.20195 0.06894 0.07165 0.0
H1489 H 0.1858 0.08023 1.00102 0.0
H1490 H 0.24699 0.04139 0.06033 0.0
H1491 H 0.21929 0.02292 0.0628 0.0
H1492 H 0.23035 0.0501 0.08195 0.0
H1493 H 0.22586 0.05171 0.97609 0.0
H1494 H 0.20359 0.06598 0.97012 0.0
H1495 H 0.19611 0.03572 0.97275 0.0
C1496 C 0.70815 0.63789 1.00259 0.0
C1497 C 0.71357 0.66017 0.0154 0.0
C1498 C 0.68688 0.62175 0.00295 0.0
C1499 C 0.67087 0.62795 0.01678 0.0
C1500 C 0.67614 0.65055 0.02945 0.0
C1501 C 0.69733 0.66644 0.02844 0.0
C1502 C 0.68166 0.59799 0.9888 0.0
C1503 C 0.65965 0.65778 0.0446 0.0
C1504 C 0.60724 0.59561 0.00665 0.0
C1505 C 0.60572 0.58163 0.02432 0.0
C1506 C 0.62849 0.61002 0.00333 0.0
C1507 C 0.64869 0.61082 0.01835 0.0
C1508 C 0.64738 0.59628 0.03584 0.0
C1509 C 0.62591 0.58167 0.03847 0.0
C1510 C 0.6292 0.6249 0.9842 0.0
C1511 C 0.66848 0.59687 0.05242 0.0
H1512 H 0.72066 0.63298 0.99248 0.0
H1513 H 0.70149 0.68358 0.03851 0.0
H1514 H 0.67981 0.58475 1.00063 0.0
H1515 H 0.66502 0.59414 0.97712 0.0
H1516 H 0.69539 0.5963 0.978 0.0
H1517 H 0.66635 0.676 0.05334 0.0
H1518 H 0.64281 0.65578 0.03392 0.0
H1519 H 0.65643 0.64641 0.05821 0.0
H1520 H 0.5917 0.59549 0.99549 0.0
H1521 H 0.62481 0.57098 0.05222 0.0
H1522 H 0.64273 0.62274 0.97333 0.0
H1523 H 0.63373 0.64338 0.99203 0.0
H1524 H 0.6124 0.62067 0.97268 0.0
H1525 H 0.68238 0.59387 0.04249 0.0
H1526 H 0.66478 0.58373 0.06432 0.0
H1527 H 0.67516 0.61424 0.06314 0.0
C1528 C 0.68877 0.5049 0.31279 0.0
C1529 C 0.6697 0.50334 0.2962 0.0
C1530 C 0.70181 0.48883 0.31059 0.0
C1531 C 0.69582 0.47095 0.29116 0.0
C1532 C 0.67627 0.46901 0.27462 0.0
C1533 C 0.66337 0.48515 0.27742 0.0
C1534 C 0.72231 0.49132 0.32878 0.0
C1535 C 0.66943 0.45032 0.25356 0.0
C1536 C 0.74348 0.44589 0.27161 0.0
C1537 C 0.73875 0.42468 0.28018 0.0
C1538 C 0.72959 0.461 0.27498 0.0
C1539 C 0.71064 0.45499 0.28753 0.0
C1540 C 0.70591 0.43378 0.29652 0.0
C1541 C 0.71991 0.41884 0.29262 0.0
C1542 C 0.73518 0.48341 0.26502 0.0
C1543 C 0.68599 0.42684 0.31017 0.0
H1544 H 0.69369 0.51886 0.32741 0.0
H1545 H 0.64869 0.4839 0.2645 0.0
H1546 H 0.721 0.4748 0.33572 0.0
H1547 H 0.73841 0.49533 0.3207 0.0
H1548 H 0.72379 0.50522 0.3436 0.0
H1549 H 0.65324 0.45057 0.24285 0.0
H1550 H 0.68341 0.45257 0.24242 0.0
H1551 H 0.66705 0.43306 0.25913 0.0
H1552 H 0.7582 0.45082 0.26236 0.0
H1553 H 0.71584 0.40238 0.29903 0.0
H1554 H 0.73886 0.49828 0.27929 0.0
H1555 H 0.72009 0.48429 0.25297 0.0
H1556 H 0.75028 0.48537 0.25535 0.0
H1557 H 0.68765 0.44035 0.32539 0.0
H1558 H 0.68502 0.41009 0.31659 0.0
H1559 H 0.6695 0.42535 0.29905 0.0
C1560 C 0.85492 0.45357 0.47925 0.0
C1561 C 0.8397 0.46433 0.48949 0.0
C1562 C 0.87853 0.46488 0.48161 0.0
C1563 C 0.88703 0.48719 0.49494 0.0
C1564 C 0.87154 0.49856 0.50433 0.0
C1565 C 0.84797 0.48706 0.50124 0.0
C1566 C 0.8945 0.4525 0.4708 0.0
C1567 C 0.88002 0.52225 0.5189 0.0
C1568 C 0.94868 0.50337 0.52525 0.0
C1569 C 0.95996 0.51877 0.51134 0.0
C1570 C 0.92483 0.49313 0.52021 0.0
C1571 C 0.91222 0.498 0.50045 0.0
C1572 C 0.92362 0.51331 0.48617 0.0
C1573 C 0.94735 0.52376 0.49197 0.0
C1574 C 0.9131 0.47725 0.53612 0.0
C1575 C 0.91081 0.51844 0.46466 0.0
H1576 H 0.8485 0.43602 0.47008 0.0
H1577 H 0.83623 0.49536 0.5093 0.0
H1578 H 0.90613 0.46402 0.46101 0.0
H1579 H 0.90551 0.44777 0.48478 0.0
H1580 H 0.88489 0.43649 0.45876 0.0
H1581 H 0.86561 0.5293 0.52361 0.0
H1582 H 0.89068 0.52125 0.53524 0.0
H1583 H 0.89115 0.53454 0.50941 0.0
H1584 H 0.95845 0.49961 0.54027 0.0
H1585 H 0.95616 0.53547 0.48102 0.0
H1586 H 0.905 0.45972 0.52616 0.0
H1587 H 0.89913 0.48369 0.54299 0.0
H1588 H 0.9253 0.4758 0.55113 0.0
H1589 H 0.90234 0.50213 0.45261 0.0
H1590 H 0.92237 0.53038 0.45514 0.0
H1591 H 0.897 0.52629 0.46959 0.0
C1592 C 0.36338 0.10623 0.28539 0.0
C1593 C 0.35953 0.09009 0.30091 0.0
C1594 C 0.34667 0.11752 0.27921 0.0
C1595 C 0.32566 0.11238 0.28873 0.0
C1596 C 0.32157 0.09588 0.30415 0.0
C1597 C 0.33862 0.08496 0.31012 0.0
C1598 C 0.35162 0.1352 0.26282 0.0
C1599 C 0.29934 0.09001 0.3146 0.0
C1600 C 0.2946 0.159 0.29215 0.0
C1601 C 0.27781 0.15135 0.27233 0.0
C1602 C 0.30996 0.14619 0.29794 0.0
C1603 C 0.3085 0.12522 0.28353 0.0
C1604 C 0.29117 0.117 0.26389 0.0
C1605 C 0.27601 0.13024 0.25846 0.0
C1606 C 0.32829 0.15553 0.31899 0.0
C1607 C 0.2891 0.09458 0.24828 0.0
H1608 H 0.37952 0.11015 0.27821 0.0
H1609 H 0.33554 0.07236 0.32203 0.0
H1610 H 0.33782 0.13061 0.24759 0.0
H1611 H 0.35173 0.15243 0.27189 0.0
H1612 H 0.36848 0.13661 0.25635 0.0
H1613 H 0.29844 0.07597 0.32544 0.0
H1614 H 0.29767 0.10556 0.32567 0.0
H1615 H 0.28435 0.08459 0.30053 0.0
H1616 H 0.2964 0.17557 0.30263 0.0
H1617 H 0.263 0.1243 0.24318 0.0
H1618 H 0.34563 0.15936 0.3133 0.0
H1619 H 0.3276 0.1424 0.33087 0.0
H1620 H 0.32635 0.17157 0.32898 0.0
H1621 H 0.3049 0.09595 0.23983 0.0
H1622 H 0.27393 0.09003 0.23443 0.0
H1623 H 0.28761 0.08026 0.2588 0.0
C1624 C 0.35514 0.18316 0.54285 0.0
C1625 C 0.3319 0.17112 0.53556 0.0
C1626 C 0.37216 0.17126 0.54556 0.0
C1627 C 0.36577 0.14677 0.54078 0.0
C1628 C 0.34231 0.13458 0.5335 0.0
C1629 C 0.3257 0.14688 0.53103 0.0
C1630 C 0.39698 0.18487 0.55344 0.0
C1631 C 0.33474 0.1085 0.52817 0.0
C1632 C 0.40977 0.11438 0.52578 0.0
C1633 C 0.41443 0.10594 0.54667 0.0
C1634 C 0.39442 0.12816 0.5238 0.0
C1635 C 0.3835 0.13375 0.5432 0.0
C1636 C 0.38855 0.12576 0.56451 0.0
C1637 C 0.40389 0.11191 0.56596 0.0
C1638 C 0.38939 0.1362 0.50072 0.0
C1639 C 0.37741 0.13145 0.58564 0.0
H1640 H 0.36005 0.20189 0.54637 0.0
H1641 H 0.30778 0.13743 0.52537 0.0
H1642 H 0.40368 0.17937 0.56965 0.0
H1643 H 0.40777 0.18131 0.53993 0.0
H1644 H 0.39909 0.20379 0.55679 0.0
H1645 H 0.31582 0.10162 0.52273 0.0
H1646 H 0.3437 0.10249 0.51399 0.0
H1647 H 0.33959 0.10099 0.54379 0.0
H1648 H 0.41766 0.10966 0.51072 0.0
H1649 H 0.40767 0.10574 0.58226 0.0
H1650 H 0.3924 0.15524 0.50327 0.0
H1651 H 0.37097 0.1284 0.49343 0.0
H1652 H 0.40021 0.13142 0.48771 0.0
H1653 H 0.38038 0.15043 0.58985 0.0
H1654 H 0.38411 0.12499 0.60126 0.0
H1655 H 0.35847 0.12364 0.58182 0.0
C1656 C 0.68164 0.6401 0.31547 0.0
C1657 C 0.68645 0.61954 0.3067 0.0
C1658 C 0.69734 0.66165 0.31535 0.0
C1659 C 0.71811 0.66263 0.30584 0.0
C1660 C 0.72339 0.64187 0.29768 0.0
C1661 C 0.70755 0.62055 0.29839 0.0
C1662 C 0.69126 0.6834 0.32457 0.0
C1663 C 0.74517 0.64219 0.28709 0.0
C1664 C 0.74112 0.71657 0.27906 0.0
C1665 C 0.75929 0.7295 0.29621 0.0
C1666 C 0.72811 0.69451 0.28172 0.0
C1667 C 0.73307 0.6853 0.30227 0.0
C1668 C 0.75168 0.69809 0.31951 0.0
C1669 C 0.76477 0.72001 0.31615 0.0
C1670 C 0.70874 0.68125 0.26269 0.0
C1671 C 0.75723 0.68897 0.3418 0.0
H1672 H 0.66542 0.63937 0.32208 0.0
H1673 H 0.71132 0.60467 0.29157 0.0
H1674 H 0.70592 0.69516 0.33689 0.0
H1675 H 0.68784 0.69273 0.30989 0.0
H1676 H 0.67575 0.67967 0.33365 0.0
H1677 H 0.7477 0.62464 0.28345 0.0
H1678 H 0.74439 0.64938 0.27044 0.0
H1679 H 0.76045 0.65355 0.29889 0.0
H1680 H 0.73698 0.72378 0.26351 0.0
H1681 H 0.7787 0.73008 0.32952 0.0
H1682 H 0.69196 0.6788 0.2695 0.0
H1683 H 0.71078 0.66383 0.25702 0.0
H1684 H 0.70806 0.69027 0.24718 0.0
H1685 H 0.74249 0.68719 0.35194 0.0
H1686 H 0.77293 0.7005 0.35294 0.0
H1687 H 0.75983 0.67152 0.33778 0.0
C1688 C 0.85189 0.49052 0.82706 0.0
C1689 C 0.876 0.4967 0.8323 0.0
C1690 C 0.83896 0.46739 0.82489 0.0
C1691 C 0.85052 0.45021 0.82809 0.0
C1692 C 0.87465 0.45661 0.83518 0.0
C1693 C 0.88713 0.47985 0.83722 0.0
C1694 C 0.81321 0.46118 0.81756 0.0
C1695 C 0.88752 0.43875 0.839 0.0
C1696 C 0.81787 0.38897 0.83292 0.0
C1697 C 0.81714 0.37757 0.81027 0.0
C1698 C 0.82814 0.41279 0.83887 0.0
C1699 C 0.83788 0.42544 0.82177 0.0
C1700 C 0.83658 0.4142 0.7987 0.0
C1701 C 0.8262 0.39037 0.79322 0.0
C1702 C 0.82917 0.42426 0.8636 0.0
C1703 C 0.84675 0.42723 0.77997 0.0
H1704 H 0.84322 0.50355 0.82334 0.0
H1705 H 0.90577 0.48461 0.84143 0.0
H1706 H 0.80901 0.45243 0.79917 0.0
H1707 H 0.80403 0.44895 0.82845 0.0
H1708 H 0.80652 0.47667 0.81888 0.0
H1709 H 0.90579 0.44677 0.84685 0.0
H1710 H 0.879 0.42688 0.85055 0.0
H1711 H 0.88727 0.42815 0.82201 0.0
H1712 H 0.81081 0.37923 0.8462 0.0
H1713 H 0.82565 0.38171 0.77568 0.0
H1714 H 0.82227 0.43955 0.86361 0.0
H1715 H 0.84739 0.43054 0.87204 0.0
H1716 H 0.81927 0.41232 0.87435 0.0
H1717 H 0.83947 0.44209 0.77824 0.0
H1718 H 0.84342 0.41612 0.76267 0.0
H1719 H 0.86569 0.43431 0.78495 0.0
C1720 C 0.08057 0.90222 0.11157 0.0
C1721 C 0.07636 0.88149 0.09585 0.0
C1722 C 0.07769 0.92303 0.10424 0.0
C1723 C 0.07061 0.92381 0.08034 0.0
C1724 C 0.0667 0.90304 0.06428 0.0
C1725 C 0.06944 0.88231 0.07216 0.0
C1726 C 0.08186 0.94421 0.12234 0.0
C1727 C 0.05941 0.90263 0.03864 0.0
C1728 C 0.04078 0.97093 0.06512 0.0
C1729 C 0.05864 0.98836 0.05896 0.0
C1730 C 0.04441 0.95018 0.0719 0.0
C1731 C 0.0665 0.946 0.07248 0.0
C1732 C 0.08461 0.96342 0.06609 0.0
C1733 C 0.08056 0.98422 0.05962 0.0
C1734 C 0.02444 0.93273 0.07873 0.0
C1735 C 0.10842 0.96008 0.06606 0.0
H1736 H 0.08581 0.90213 0.12992 0.0
H1737 H 0.06606 0.86667 0.05967 0.0
H1738 H 0.09512 0.95874 0.11768 0.0
H1739 H 0.06576 0.9497 0.12272 0.0
H1740 H 0.08764 0.94113 0.14013 0.0
H1741 H 0.05817 0.8857 0.0281 0.0
H1742 H 0.04237 0.90627 0.03607 0.0
H1743 H 0.07191 0.91639 0.03195 0.0
H1744 H 0.02373 0.97356 0.06488 0.0
H1745 H 0.09463 0.99721 0.05492 0.0
H1746 H 0.02874 0.92991 0.09696 0.0
H1747 H 0.02121 0.91586 0.06735 0.0
H1748 H 0.00832 0.9383 0.07741 0.0
H1749 H 0.11553 0.95849 0.08394 0.0
H1750 H 0.12052 0.97462 0.05994 0.0
H1751 H 0.10752 0.94377 0.0546 0.0
C1752 C 0.93235 0.29558 0.92524 0.0
C1753 C 0.94619 0.28207 0.91644 0.0
C1754 C 0.91275 0.29791 0.91136 0.0
C1755 C 0.90625 0.286 0.88813 0.0
C1756 C 0.9198 0.27178 0.8794 0.0
C1757 C 0.93969 0.27025 0.89348 0.0
C1758 C 0.89936 0.31371 0.92137 0.0
C1759 C 0.91339 0.25831 0.85503 0.0
C1760 C 0.84463 0.2791 0.85794 0.0
C1761 C 0.84826 0.29597 0.84303 0.0
C1762 C 0.86321 0.27548 0.87248 0.0
C1763 C 0.88608 0.28937 0.87264 0.0
C1764 C 0.88972 0.30669 0.85793 0.0
C1765 C 0.87094 0.30957 0.84322 0.0
C1766 C 0.85839 0.25653 0.88745 0.0
C1767 C 0.91354 0.32236 0.85779 0.0
H1768 H 0.93725 0.30494 0.94287 0.0
H1769 H 0.95014 0.2597 0.88649 0.0
H1770 H 0.89987 0.32786 0.91076 0.0
H1771 H 0.88099 0.30406 0.92057 0.0
H1772 H 0.90634 0.32148 0.93979 0.0
H1773 H 0.92456 0.24673 0.85139 0.0
H1774 H 0.89515 0.24772 0.85251 0.0
H1775 H 0.9149 0.27042 0.84202 0.0
H1776 H 0.82726 0.26838 0.85792 0.0
H1777 H 0.87405 0.32277 0.83197 0.0
H1778 H 0.86418 0.26387 0.90614 0.0
H1779 H 0.86828 0.24395 0.88285 0.0
H1780 H 0.83977 0.24714 0.8853 0.0
H1781 H 0.92092 0.3314 0.87573 0.0
H1782 H 0.91345 0.33552 0.84603 0.0
H1783 H 0.92517 0.31198 0.85206 0.0
C1784 C 0.58775 0.23863 0.59951 0.0
C1785 C 0.57095 0.24971 0.59248 0.0
C1786 C 0.58459 0.2146 0.59283 0.0
C1787 C 0.56425 0.20085 0.57822 0.0
C1788 C 0.54743 0.21205 0.57061 0.0
C1789 C 0.55082 0.23608 0.57799 0.0
C1790 C 0.60292 0.20378 0.60191 0.0
C1791 C 0.52567 0.19856 0.5547 0.0
C1792 C 0.56626 0.14189 0.54566 0.0
C1793 C 0.55448 0.12585 0.55895 0.0
C1794 C 0.56914 0.16602 0.5514 0.0
C1795 C 0.56052 0.17487 0.5713 0.0
C1796 C 0.54873 0.15876 0.58485 0.0
C1797 C 0.54565 0.13467 0.57842 0.0
C1798 C 0.58136 0.18211 0.53597 0.0
C1799 C 0.53954 0.16699 0.60643 0.0
H1800 H 0.60329 0.2487 0.61087 0.0
H1801 H 0.53761 0.24421 0.57243 0.0
H1802 H 0.59537 0.19008 0.61217 0.0
H1803 H 0.6095 0.19541 0.58711 0.0
H1804 H 0.61769 0.21661 0.61317 0.0
H1805 H 0.51483 0.2098 0.54923 0.0
H1806 H 0.53007 0.18945 0.53886 0.0
H1807 H 0.51534 0.18517 0.56371 0.0
H1808 H 0.57299 0.13553 0.53044 0.0
H1809 H 0.53652 0.1227 0.58894 0.0
H1810 H 0.5972 0.1943 0.54614 0.0
H1811 H 0.57009 0.1926 0.52964 0.0
H1812 H 0.58625 0.17266 0.52062 0.0
H1813 H 0.55383 0.17912 0.6189 0.0
H1814 H 0.53108 0.1525 0.61537 0.0
H1815 H 0.52685 0.17661 0.60174 0.0
C1816 C 0.58632 0.79649 0.42959 0.0
C1817 C 0.56339 0.78864 0.41854 0.0
C1818 C 0.60496 0.7988 0.41655 0.0
C1819 C 0.60063 0.79307 0.39185 0.0
C1820 C 0.5775 0.78494 0.38067 0.0
C1821 C 0.55924 0.78288 0.3941 0.0
C1822 C 0.62931 0.80759 0.42918 0.0
C1823 C 0.572 0.77856 0.35444 0.0
C1824 C 0.64592 0.81905 0.35433 0.0
C1825 C 0.65545 0.80067 0.34831 0.0
C1826 C 0.62847 0.81696 0.3688 0.0
C1827 C 0.62016 0.79595 0.37756 0.0
C1828 C 0.62994 0.77744 0.37188 0.0
C1829 C 0.64744 0.78003 0.3574 0.0
C1830 C 0.6187 0.8372 0.37449 0.0
C1831 C 0.62157 0.7547 0.38071 0.0
H1832 H 0.58972 0.80099 0.44844 0.0
H1833 H 0.54161 0.77677 0.38538 0.0
H1834 H 0.63911 0.79482 0.42502 0.0
H1835 H 0.63829 0.82384 0.42318 0.0
H1836 H 0.62983 0.81097 0.44844 0.0
H1837 H 0.55315 0.77204 0.34844 0.0
H1838 H 0.57905 0.79387 0.34598 0.0
H1839 H 0.58034 0.76506 0.34834 0.0
H1840 H 0.65221 0.83522 0.34779 0.0
H1841 H 0.65446 0.76563 0.35273 0.0
H1842 H 0.62027 0.84198 0.3937 0.0
H1843 H 0.60006 0.83231 0.36755 0.0
H1844 H 0.62755 0.85262 0.36701 0.0
H1845 H 0.62287 0.75759 0.40004 0.0
H1846 H 0.63155 0.74233 0.37555 0.0
H1847 H 0.60311 0.74669 0.3737 0.0
C1848 C 0.06221 0.27871 0.42715 0.0
C1849 C 0.04707 0.27506 0.40625 0.0
C1850 C 0.06065 0.2615 0.4417 0.0
C1851 C 0.0434 0.24013 0.43536 0.0
C1852 C 0.02811 0.23637 0.41425 0.0
C1853 C 0.03018 0.25379 0.39994 0.0
C1854 C 0.07744 0.26621 0.46391 0.0
C1855 C 0.00936 0.21397 0.40687 0.0
C1856 C 0.05043 0.18736 0.46242 0.0
C1857 C 0.03642 0.18695 0.48028 0.0
C1858 C 0.05301 0.20461 0.44786 0.0
C1859 C 0.04114 0.22185 0.45095 0.0
C1860 C 0.02694 0.22153 0.46886 0.0
C1861 C 0.02486 0.20424 0.48332 0.0
C1862 C 0.0684 0.20431 0.42908 0.0
C1863 C 0.01389 0.23948 0.47275 0.0
H1864 H 0.07535 0.29505 0.43215 0.0
H1865 H 0.01838 0.25081 0.38386 0.0
H1866 H 0.06794 0.26527 0.47922 0.0
H1867 H 0.08694 0.2528 0.4639 0.0
H1868 H 0.09015 0.28347 0.46613 0.0
H1869 H 0.99894 0.21365 0.38991 0.0
H1870 H 0.01707 0.19921 0.4053 0.0
H1871 H 0.99768 0.21131 0.42038 0.0
H1872 H 0.0592 0.17399 0.45957 0.0
H1873 H 0.01433 0.20447 0.49725 0.0
H1874 H 0.08194 0.22102 0.43138 0.0
H1875 H 0.05815 0.20227 0.41164 0.0
H1876 H 0.07689 0.19011 0.42926 0.0
H1877 H 0.02615 0.257 0.47686 0.0
H1878 H 1.00335 0.23672 0.48721 0.0
H1879 H 1.00231 0.23912 0.45655 0.0
C1880 C 0.60595 0.27467 0.21078 0.0
C1881 C 0.58947 0.26931 0.22612 0.0
C1882 C 0.62966 0.27688 0.21757 0.0
C1883 C 0.63763 0.27381 0.24046 0.0
C1884 C 0.62111 0.26849 0.25613 0.0
C1885 C 0.59738 0.26625 0.24881 0.0
C1886 C 0.64623 0.2825 0.20006 0.0
C1887 C 0.62853 0.26517 0.28072 0.0
C1888 C 0.69674 0.26034 0.25065 0.0
C1889 C 0.71199 0.28216 0.25975 0.0
C1890 C 0.67269 0.25732 0.24466 0.0
C1891 C 0.66321 0.27648 0.2479 0.0
C1892 C 0.67849 0.29846 0.25739 0.0
C1893 C 0.70243 0.30102 0.26306 0.0
C1894 C 0.6574 0.23356 0.23451 0.0
C1895 C 0.66956 0.31949 0.26139 0.0
H1896 H 0.6003 0.27703 0.19318 0.0
H1897 H 0.58501 0.26207 0.2609 0.0
H1898 H 0.6596 0.29897 0.20684 0.0
H1899 H 0.65525 0.2688 0.1974 0.0
H1900 H 0.63743 0.28412 0.18288 0.0
H1901 H 0.61382 0.26119 0.29088 0.0
H1902 H 0.63688 0.25086 0.28034 0.0
H1903 H 0.64152 0.28103 0.28996 0.0
H1904 H 0.70363 0.24555 0.24794 0.0
H1905 H 0.71373 0.318 0.27016 0.0
H1906 H 0.64921 0.23382 0.21663 0.0
H1907 H 0.64331 0.2284 0.24519 0.0
H1908 H 0.66709 0.22027 0.23363 0.0
H1909 H 0.66187 0.3229 0.24448 0.0
H1910 H 0.68335 0.33519 0.26972 0.0
H1911 H 0.65572 0.31632 0.27266 0.0
C1912 C 0.54607 0.88934 0.93029 0.0
C1913 C 0.55656 0.89088 0.90986 0.0
C1914 C 0.54422 0.90914 0.94448 0.0
C1915 C 0.55357 0.93141 0.93864 0.0
C1916 C 0.56454 0.93317 0.91821 0.0
C1917 C 0.56562 0.91293 0.90393 0.0
C1918 C 0.53191 0.90614 0.96566 0.0
C1919 C 0.57524 0.95648 0.91151 0.0
C1920 C 0.5301 0.98052 0.96499 0.0
C1921 C 0.54601 0.99028 0.98526 0.0
C1922 C 0.53254 0.96173 0.94953 0.0
C1923 C 0.55169 0.95264 0.95397 0.0
C1924 C 0.56822 0.96296 0.97399 0.0
C1925 C 0.56505 0.98136 0.98947 0.0
C1926 C 0.51414 0.95108 0.92882 0.0
C1927 C 0.58918 0.95434 0.97929 0.0
H1928 H 0.53879 0.87244 0.935 0.0
H1929 H 0.57378 0.91437 0.88825 0.0
H1930 H 0.54387 0.91507 0.98172 0.0
H1931 H 0.51739 0.91419 0.96449 0.0
H1932 H 0.52499 0.88767 0.96749 0.0
H1933 H 0.5838 0.95507 0.89563 0.0
H1934 H 0.56182 0.96564 0.90825 0.0
H1935 H 0.58817 0.9673 0.92613 0.0
H1936 H 0.51526 0.98713 0.96154 0.0
H1937 H 0.57759 0.98883 0.00491 0.0
H1938 H 0.50569 0.93286 0.93045 0.0
H1939 H 0.52199 0.95086 0.91244 0.0
H1940 H 0.50071 0.96053 0.9273 0.0
H1941 H 0.58377 0.93648 0.98341 0.0
H1942 H 0.60145 0.96541 0.99429 0.0
H1943 H 0.59832 0.95373 0.96375 0.0
C1944 C 0.93549 0.75852 0.70947 0.0
C1945 C 0.95584 0.76109 0.72491 0.0
C1946 C 0.9147 0.76092 0.71747 0.0
C1947 C 0.91357 0.76582 0.74177 0.0
C1948 C 0.93396 0.76804 0.75751 0.0
C1949 C 0.95467 0.76582 0.74898 0.0
C1950 C 0.89393 0.75863 0.69972 0.0
C1951 C 0.93397 0.77299 0.78351 0.0
C1952 C 0.86733 0.79546 0.76099 0.0
C1953 C 0.8493 0.77706 0.76534 0.0
C1954 C 0.888 0.79206 0.75358 0.0
C1955 C 0.8915 0.76962 0.75046 0.0
C1956 C 0.8735 0.75093 0.75505 0.0
C1957 C 0.85279 0.7548 0.76222 0.0
C1958 C 0.90611 0.81265 0.74877 0.0
C1959 C 0.8761 0.72669 0.75232 0.0
H1960 H 0.93586 0.75497 0.69084 0.0
H1961 H 0.97003 0.76789 0.76127 0.0
H1962 H 0.87904 0.74496 0.70315 0.0
H1963 H 0.88892 0.77507 0.70127 0.0
H1964 H 0.89722 0.75434 0.68152 0.0
H1965 H 0.95057 0.77301 0.79361 0.0
H1966 H 0.93075 0.79009 0.7881 0.0
H1967 H 0.9198 0.75987 0.78894 0.0
H1968 H 0.86521 0.81278 0.7631 0.0
H1969 H 0.83931 0.7403 0.76544 0.0
H1970 H 0.90914 0.80996 0.73029 0.0
H1971 H 0.92271 0.81454 0.75987 0.0
H1972 H 0.90109 0.82901 0.7521 0.0
H1973 H 0.87784 0.72107 0.73392 0.0
H1974 H 0.86117 0.7141 0.75732 0.0
H1975 H 0.89207 0.72629 0.76328 0.0
C1976 C 0.08384 0.0508 0.8642 0.0
C1977 C 0.10612 0.0492 0.86141 0.0
C1978 C 0.07577 0.04961 0.88603 0.0
C1979 C 0.09014 0.04622 0.9054 0.0
C1980 C 0.11239 0.04389 0.90242 0.0
C1981 C 0.12017 0.04567 0.8806 0.0
C1982 C 0.05213 0.05262 0.88853 0.0
C1983 C 0.12813 0.0398 0.92238 0.0
C1984 C 0.08144 0.06641 0.96758 0.0
C1985 C 0.06871 0.04589 0.97425 0.0
C1986 C 0.0881 0.0668 0.94516 0.0
C1987 C 0.08239 0.04606 0.92903 0.0
C1988 C 0.06982 0.02519 0.93576 0.0
C1989 C 0.06291 0.0254 0.95817 0.0
C1990 C 0.10114 0.0895 0.93867 0.0
C1991 C 0.06385 1.00261 0.91935 0.0
H1992 H 0.07294 0.05362 0.84948 0.0
H1993 H 0.13736 0.04424 0.87855 0.0
H1994 H 0.04152 0.03752 0.89516 0.0
H1995 H 0.05371 0.06811 0.90153 0.0
H1996 H 0.04289 0.05465 0.87174 0.0
H1997 H 0.14429 0.03689 0.91684 0.0
H1998 H 0.13277 0.05492 0.93645 0.0
H1999 H 0.11912 0.02456 0.92998 0.0
H2000 H 0.08584 0.08238 0.97977 0.0
H2001 H 0.05315 0.00945 0.96317 0.0
H2002 H 0.09184 0.09303 0.92266 0.0
H2003 H 0.11842 0.08856 0.9347 0.0
H2004 H 0.10342 0.10425 0.95284 0.0
H2005 H 0.05326 1.00382 0.90307 0.0
H2006 H 0.05419 0.98786 0.92725 0.0
H2007 H 0.07987 0.99891 0.91433 0.0
C2008 C 0.81535 0.39829 0.56849 0.0
C2009 C 0.79286 0.39132 0.55642 0.0
C2010 C 0.82126 0.38807 0.58769 0.0
C2011 C 0.80435 0.37022 0.59464 0.0
C2012 C 0.78178 0.36263 0.58208 0.0
C2013 C 0.77623 0.37345 0.56317 0.0
C2014 C 0.84539 0.39684 0.60094 0.0
C2015 C 0.76345 0.34338 0.58888 0.0
C2016 C 0.8255 0.33272 0.63455 0.0
C2017 C 0.8218 0.34256 0.65637 0.0
C2018 C 0.81959 0.34134 0.61417 0.0
C2019 C 0.81001 0.36035 0.61579 0.0
C2020 C 0.80629 0.37039 0.63775 0.0
C2021 C 0.81209 0.36126 0.65776 0.0
C2022 C 0.82361 0.33017 0.59095 0.0
C2023 C 0.79622 0.39079 0.64011 0.0
H2024 H 0.8282 0.41218 0.5633 0.0
H2025 H 0.75888 0.36798 0.55371 0.0
H2026 H 0.84467 0.40421 0.61915 0.0
H2027 H 0.8534 0.38238 0.60188 0.0
H2028 H 0.85669 0.41036 0.59278 0.0
H2029 H 0.74722 0.33854 0.57638 0.0
H2030 H 0.76982 0.32784 0.58977 0.0
H2031 H 0.75949 0.34878 0.60652 0.0
H2032 H 0.83317 0.31838 0.63343 0.0
H2033 H 0.80871 0.36859 0.67451 0.0
H2034 H 0.83603 0.34292 0.58303 0.0
H2035 H 0.80723 0.32447 0.57868 0.0
H2036 H 0.83045 0.315 0.59262 0.0
H2037 H 0.80725 0.40547 0.6332 0.0
H2038 H 0.79461 0.39667 0.65853 0.0
H2039 H 0.77888 0.38619 0.62961 0.0
C2040 C 0.44843 0.08106 0.39702 0.0
C2041 C 0.45598 0.08448 0.37545 0.0
C2042 C 0.46411 0.08183 0.41666 0.0
C2043 C 0.48797 0.08697 0.41479 0.0
C2044 C 0.49587 0.09294 0.39372 0.0
C2045 C 0.47968 0.09121 0.37406 0.0
C2046 C 0.45492 0.07507 0.43876 0.0
C2047 C 0.52124 0.09966 0.39147 0.0
C2048 C 0.52196 0.09389 0.47433 0.0
C2049 C 0.52421 0.0715 0.47461 0.0
C2050 C 0.51237 0.10008 0.45395 0.0
C2051 C 0.50388 0.08306 0.43396 0.0
C2052 C 0.50742 0.06078 0.43386 0.0
C2053 C 0.51799 0.0554 0.45421 0.0
C2054 C 0.50994 0.12431 0.45435 0.0
C2055 C 0.4982 0.04199 0.41304 0.0
H2056 H 0.4301 0.07592 0.39815 0.0
H2057 H 0.48553 0.09411 0.3574 0.0
H2058 H 0.45885 0.05878 0.44233 0.0
H2059 H 0.46341 0.08855 0.45391 0.0
H2060 H 0.43596 0.07242 0.43755 0.0
H2061 H 0.52471 0.10897 0.37632 0.0
H2062 H 0.53149 0.11076 0.40758 0.0
H2063 H 0.52732 0.08388 0.38887 0.0
H2064 H 0.52713 0.10636 0.49023 0.0
H2065 H 0.51978 0.03808 0.45468 0.0
H2066 H 0.49211 0.12443 0.45704 0.0
H2067 H 0.51315 0.13054 0.4375 0.0
H2068 H 0.52204 0.13658 0.46873 0.0
H2069 H 0.47904 0.0373 0.41043 0.0
H2070 H 0.50373 0.02616 0.41527 0.0
H2071 H 0.50405 0.0482 0.39694 0.0
C2072 C 0.79406 0.76124 0.10179 0.0
C2073 C 0.78329 0.73768 0.09415 0.0
C2074 C 0.79434 0.7713 0.12503 0.0
C2075 C 0.78345 0.75751 0.14094 0.0
C2076 C 0.77213 0.73385 0.13309 0.0
C2077 C 0.77226 0.72427 0.10993 0.0
C2078 C 0.80672 0.79654 0.13271 0.0
C2079 C 0.76025 0.71845 0.14931 0.0
C2080 C 0.80356 0.77179 0.20644 0.0
C2081 C 0.78614 0.78064 0.21486 0.0
C2082 C 0.80333 0.76513 0.18245 0.0
C2083 C 0.78514 0.76713 0.16621 0.0
C2084 C 0.7678 0.77664 0.17447 0.0
C2085 C 0.76856 0.78339 0.19868 0.0
C2086 C 0.8223 0.75528 0.17457 0.0
C2087 C 0.74805 0.77899 0.15778 0.0
H2088 H 0.80256 0.77175 0.08972 0.0
H2089 H 0.76373 0.70608 0.1042 0.0
H2090 H 0.79505 0.80566 0.14072 0.0
H2091 H 0.82161 0.79827 0.14626 0.0
H2092 H 0.81314 0.80524 0.11797 0.0
H2093 H 0.75108 0.70077 0.14017 0.0
H2094 H 0.77315 0.71702 0.16365 0.0
H2095 H 0.74761 0.7261 0.15745 0.0
H2096 H 0.81746 0.76987 0.21867 0.0
H2097 H 0.75507 0.79027 0.20494 0.0
H2098 H 0.83017 0.76452 0.1608 0.0
H2099 H 0.81496 0.73683 0.16686 0.0
H2100 H 0.83612 0.75648 0.18917 0.0
H2101 H 0.75471 0.78839 0.14359 0.0
H2102 H 0.73693 0.78827 0.16666 0.0
H2103 H 0.73726 0.76158 0.14947 0.0
C2104 C 0.0797 0.06271 0.72701 0.0
C2105 C 0.09898 0.05416 0.731 0.0
C2106 C 0.07023 0.06389 0.70413 0.0
C2107 C 0.08048 0.05667 0.68478 0.0
C2108 C 0.1 0.04811 0.68878 0.0
C2109 C 0.10886 0.04681 0.71173 0.0
C2110 C 0.04921 0.07275 0.70065 0.0
C2111 C 0.11165 0.0404 0.66878 0.0
C2112 C 0.04741 0.03746 0.62325 0.0
C2113 C 0.05564 0.05679 0.61221 0.0
C2114 C 0.05454 0.0376 0.64705 0.0
C2115 C 0.07064 0.05742 0.66024 0.0
C2116 C 0.07854 0.07725 0.64939 0.0
C2117 C 0.07081 0.07677 0.62557 0.0
C2118 C 0.04537 0.01617 0.65786 0.0
C2119 C 0.09593 0.09865 0.66269 0.0
H2120 H 0.07198 0.06847 0.74178 0.0
H2121 H 0.12386 0.04033 0.71459 0.0
H2122 H 0.05308 0.08809 0.69152 0.0
H2123 H 0.03494 0.05934 0.68939 0.0
H2124 H 0.0432 0.07761 0.71743 0.0
H2125 H 0.12708 0.03483 0.67485 0.0
H2126 H 0.09936 0.02578 0.65681 0.0
H2127 H 0.11703 0.05471 0.65851 0.0
H2128 H 0.03552 0.02198 0.61318 0.0
H2129 H 0.07736 0.09174 0.6172 0.0
H2130 H 0.03852 0.02071 0.6742 0.0
H2131 H 0.05958 0.00837 0.66256 0.0
H2132 H 0.03148 1.00297 0.64586 0.0
H2133 H 0.08987 0.10444 0.67911 0.0
H2134 H 0.09922 0.11312 0.65229 0.0
H2135 H 0.11249 0.09461 0.66762 0.0
C2136 C 0.74737 0.35764 0.44306 0.0
C2137 C 0.74699 0.38065 0.44267 0.0
C2138 C 0.7474 0.34321 0.42244 0.0
C2139 C 0.74651 0.35193 0.40098 0.0
C2140 C 0.74318 0.37414 0.4002 0.0
C2141 C 0.74371 0.38841 0.42118 0.0
C2142 C 0.75112 0.31968 0.42406 0.0
C2143 C 0.74132 0.38368 0.37748 0.0
C2144 C 0.78396 0.33509 0.35779 0.0
C2145 C 0.76788 0.31803 0.34177 0.0
C2146 C 0.77717 0.34586 0.37738 0.0
C2147 C 0.75358 0.3399 0.38053 0.0
C2148 C 0.73722 0.32265 0.36432 0.0
C2149 C 0.74466 0.31164 0.3452 0.0
C2150 C 0.79527 0.36377 0.39462 0.0
C2151 C 0.71188 0.31641 0.36676 0.0
H2152 H 0.74966 0.35147 0.45965 0.0
H2153 H 0.74306 0.4061 0.4208 0.0
H2154 H 0.74002 0.3065 0.4098 0.0
H2155 H 0.76933 0.32042 0.42217 0.0
H2156 H 0.74754 0.31398 0.44108 0.0
H2157 H 0.73419 0.39887 0.37916 0.0
H2158 H 0.75871 0.38919 0.37208 0.0
H2159 H 0.73023 0.37027 0.36338 0.0
H2160 H 0.8019 0.33995 0.35501 0.0
H2161 H 0.73221 0.29869 0.33245 0.0
H2162 H 0.7947 0.35915 0.41248 0.0
H2163 H 0.7917 0.38087 0.39499 0.0
H2164 H 0.81298 0.36546 0.3902 0.0
H2165 H 0.70924 0.31206 0.38444 0.0
H2166 H 0.70164 0.30157 0.35354 0.0
H2167 H 0.70508 0.33151 0.36468 0.0
C2168 C 0.43385 0.0079 0.25425 0.0
C2169 C 0.43291 0.03092 0.2582 0.0
C2170 C 0.44385 0.99995 0.23541 0.0
C2171 C 0.45301 0.0154 0.22019 0.0
C2172 C 0.4516 0.03852 0.22377 0.0
C2173 C 0.4416 0.04603 0.24281 0.0
C2174 C 0.44512 0.97521 0.23214 0.0
C2175 C 0.46105 0.05542 0.20772 0.0
C2176 C 0.50061 0.00662 0.1859 0.0
C2177 C 0.48849 0.9985 0.16334 0.0
C2178 C 0.48907 0.01116 0.20482 0.0
C2179 C 0.4649 0.00776 0.20099 0.0
C2180 C 0.45241 0.99851 0.17853 0.0
C2181 C 0.46435 0.99382 0.15998 0.0
C2182 C 0.50292 0.02072 0.22865 0.0
C2183 C 0.4266 0.99464 0.17382 0.0
H2184 H 0.4271 0.99614 0.26611 0.0
H2185 H 0.4408 0.06381 0.24578 0.0
H2186 H 0.43728 0.96651 0.21421 0.0
H2187 H 0.46344 0.97486 0.23423 0.0
H2188 H 0.43619 0.96512 0.24487 0.0
H2189 H 0.45771 0.07249 0.21235 0.0
H2190 H 0.47995 0.05807 0.20856 0.0
H2191 H 0.45321 0.04836 0.18937 0.0
H2192 H 0.51926 0.01055 0.18864 0.0
H2193 H 0.45484 0.98714 0.14266 0.0
H2194 H 0.49519 0.01075 0.24202 0.0
H2195 H 0.5026 0.03889 0.23358 0.0
H2196 H 0.52119 0.0203 0.22914 0.0
H2197 H 0.41794 0.98433 0.18651 0.0
H2198 H 0.41925 0.98561 0.15585 0.0
H2199 H 0.42252 0.01154 0.17611 0.0
C2200 C 0.80506 0.72855 0.94965 0.0
C2201 C 0.78918 0.73412 0.96372 0.0
C2202 C 0.8065 0.73544 0.92746 0.0
C2203 C 0.79177 0.74833 0.91901 0.0
C2204 C 0.77601 0.75441 0.93332 0.0
C2205 C 0.77488 0.74721 0.95545 0.0
C2206 C 0.82353 0.72852 0.91287 0.0
C2207 C 0.76005 0.76821 0.92508 0.0
C2208 C 0.80764 0.78222 0.86888 0.0
C2209 C 0.79311 0.76773 0.84952 0.0
C2210 C 0.80746 0.77611 0.8915 0.0
C2211 C 0.79247 0.75494 0.89499 0.0
C2212 C 0.7781 0.74004 0.87547 0.0
C2213 C 0.77855 0.74661 0.85307 0.0
C2214 C 0.82308 0.79252 0.91175 0.0
C2215 C 0.76199 0.71722 0.8783 0.0
H2216 H 0.81617 0.7184 0.95582 0.0
H2217 H 0.76254 0.75157 0.96615 0.0
H2218 H 0.81417 0.71732 0.89645 0.0
H2219 H 0.83514 0.74407 0.90789 0.0
H2220 H 0.83422 0.71906 0.92218 0.0
H2221 H 0.74937 0.77224 0.93855 0.0
H2222 H 0.7702 0.78467 0.92035 0.0
H2223 H 0.7484 0.7584 0.90913 0.0
H2224 H 0.8189 0.79862 0.86647 0.0
H2225 H 0.76725 0.73522 0.83834 0.0
H2226 H 0.8345 0.78364 0.92082 0.0
H2227 H 0.81258 0.79807 0.92465 0.0
H2228 H 0.83399 0.80814 0.90613 0.0
H2229 H 0.77189 0.70644 0.88652 0.0
H2230 H 0.75228 0.70736 0.86135 0.0
H2231 H 0.74944 0.72023 0.89008 0.0
C2232 C 0.81561 0.06794 0.04883 0.0
C2233 C 0.8291 0.09078 0.05622 0.0
C2234 C 0.82588 0.04977 0.04577 0.0
C2235 C 0.85017 0.05469 0.04996 0.0
C2236 C 0.86376 0.07753 0.05872 0.0
C2237 C 0.85301 0.09535 0.06184 0.0
C2238 C 0.81085 0.02559 0.03675 0.0
C2239 C 0.88977 0.08341 0.06339 0.0
C2240 C 0.88421 0.01051 0.05176 0.0
C2241 C 0.89194 0.01072 0.02985 0.0
C2242 C 0.86907 0.02348 0.05812 0.0
C2243 C 0.86167 0.0369 0.04219 0.0
C2244 C 0.86769 0.03542 0.01934 0.0
C2245 C 0.88273 0.02232 0.01344 0.0
C2246 C 0.86253 0.02425 0.08247 0.0
C2247 C 0.86005 0.0494 1.00177 0.0
H2248 H 0.79704 0.06432 0.04479 0.0
H2249 H 0.86341 0.11297 0.06773 0.0
H2250 H 0.81249 0.02099 0.0181 0.0
H2251 H 0.81646 0.01284 0.04646 0.0
H2252 H 0.79236 0.024 0.03815 0.0
H2253 H 0.89762 0.10151 0.07209 0.0
H2254 H 0.89523 0.07159 0.07454 0.0
H2255 H 0.89673 0.08106 0.04663 0.0
H2256 H 0.89106 1.00131 0.06439 0.0
H2257 H 0.88879 0.02287 0.99658 0.0
H2258 H 0.84407 0.02377 0.08219 0.0
H2259 H 0.87289 0.04068 0.09335 0.0
H2260 H 0.8658 0.00967 0.09093 0.0
H2261 H 0.84119 0.04716 1.00049 0.0
H2262 H 0.86426 0.04448 0.98409 0.0
H2263 H 0.86875 0.06804 0.00761 0.0
C2264 C 0.37401 0.43899 0.03388 0.0
C2265 C 0.36237 0.43876 0.05347 0.0
C2266 C 0.39577 0.45446 0.03439 0.0
C2267 C 0.40643 0.46972 0.05521 0.0
C2268 C 0.39479 0.46955 0.07511 0.0
C2269 C 0.37272 0.45423 0.07392 0.0
C2270 C 0.4074 0.45437 0.01264 0.0
C2271 C 0.40584 0.4852 0.09776 0.0
C2272 C 0.47148 0.48994 0.05862 0.0
C2273 C 0.47471 0.51193 0.05199 0.0
C2274 C 0.44946 0.47659 0.06112 0.0
C2275 C 0.43012 0.48517 0.05615 0.0
C2276 C 0.43339 0.50767 0.05009 0.0
C2277 C 0.45576 0.52095 0.0484 0.0
C2278 C 0.44682 0.45295 0.06823 0.0
C2279 C 0.41317 0.51722 0.04417 0.0
H2280 H 0.36596 0.4272 0.01797 0.0
H2281 H 0.36375 0.45404 0.08911 0.0
H2282 H 0.41223 0.47203 0.00789 0.0
H2283 H 0.42353 0.44911 0.01598 0.0
H2284 H 0.39619 0.44239 0.9975 0.0
H2285 H 0.39435 0.48324 0.11152 0.0
H2286 H 0.42209 0.48127 0.10422 0.0
H2287 H 0.41046 0.50352 0.09489 0.0
H2288 H 0.48621 0.48308 0.06168 0.0
H2289 H 0.45828 0.53793 0.04315 0.0
H2290 H 0.43782 0.43944 0.05324 0.0
H2291 H 0.43612 0.45079 0.0826 0.0
H2292 H 0.46374 0.44997 0.07403 0.0
H2293 H 0.40244 0.50691 0.0279 0.0
H2294 H 0.41873 0.53561 0.04153 0.0
H2295 H 0.40205 0.51579 0.05821 0.0
C2296 C 0.42366 0.61209 0.79865 0.0
C2297 C 0.41383 0.58946 0.787 0.0
C2298 C 0.41066 0.62829 0.79998 0.0
C2299 C 0.38733 0.62168 0.78936 0.0
C2300 C 0.37735 0.59884 0.77764 0.0
C2301 C 0.39069 0.58303 0.77664 0.0
C2302 C 0.42189 0.65247 0.81267 0.0
C2303 C 0.35255 0.59108 0.76607 0.0
C2304 C 0.34476 0.65418 0.80847 0.0
C2305 C 0.34306 0.66729 0.79036 0.0
C2306 C 0.35965 0.63984 0.80877 0.0
C2307 C 0.37317 0.6385 0.79047 0.0
C2308 C 0.37201 0.65216 0.77247 0.0
C2309 C 0.357 0.6664 0.77264 0.0
C2310 C 0.36048 0.62567 0.82835 0.0
C2311 C 0.38608 0.65116 0.75261 0.0
H2312 H 0.44154 0.61717 0.80667 0.0
H2313 H 0.38297 0.56559 0.76757 0.0
H2314 H 0.42137 0.66521 0.80054 0.0
H2315 H 0.41218 0.65645 0.82705 0.0
H2316 H 0.44013 0.65484 0.82012 0.0
H2317 H 0.34741 0.57273 0.75761 0.0
H2318 H 0.34091 0.59317 0.77919 0.0
H2319 H 0.34989 0.60205 0.75264 0.0
H2320 H 0.33434 0.65507 0.82243 0.0
H2321 H 0.35565 0.67631 0.75848 0.0
H2322 H 0.37854 0.62875 0.83666 0.0
H2323 H 0.35395 0.60699 0.82123 0.0
H2324 H 0.34996 0.62972 0.84198 0.0
H2325 H 0.40458 0.65444 0.75952 0.0
H2326 H 0.38436 0.66395 0.74081 0.0
H2327 H 0.38041 0.63361 0.74219 0.0
C2328 C 0.20701 0.63964 0.53099 0.0
C2329 C 0.22297 0.62799 0.53847 0.0
C2330 C 0.18327 0.62887 0.52817 0.0
C2331 C 0.1755 0.6058 0.53247 0.0
C2332 C 0.19161 0.59371 0.53922 0.0
C2333 C 0.21522 0.60507 0.5424 0.0
C2334 C 0.16651 0.64238 0.5213 0.0
C2335 C 0.18391 0.56891 0.54344 0.0
C2336 C 0.11557 0.58546 0.54899 0.0
C2337 C 0.10286 0.57404 0.52748 0.0
C2338 C 0.13928 0.596 0.55082 0.0
C2339 C 0.1505 0.5946 0.53075 0.0
C2340 C 0.13782 0.58268 0.50908 0.0
C2341 C 0.11405 0.57271 0.50765 0.0
C2342 C 0.15225 0.60895 0.57413 0.0
C2343 C 0.14934 0.58047 0.48744 0.0
H2344 H 0.21305 0.65743 0.52806 0.0
H2345 H 0.22762 0.59602 0.54802 0.0
H2346 H 0.15473 0.6331 0.50524 0.0
H2347 H 0.15567 0.64395 0.53533 0.0
H2348 H 0.1754 0.66002 0.51815 0.0
H2349 H 0.19868 0.56154 0.54711 0.0
H2350 H 0.17405 0.56784 0.5585 0.0
H2351 H 0.17221 0.55806 0.52799 0.0
H2352 H 0.10689 0.58664 0.56429 0.0
H2353 H 0.10423 0.56372 0.49102 0.0
H2354 H 0.16041 0.62722 0.57246 0.0
H2355 H 0.1663 0.60129 0.57982 0.0
H2356 H 0.14087 0.60865 0.58795 0.0
H2357 H 0.15718 0.59786 0.48305 0.0
H2358 H 0.13708 0.57007 0.47209 0.0
H2359 H 0.16351 0.57222 0.49072 0.0
C2360 C 0.71705 0.99864 0.80018 0.0
C2361 C 0.71661 0.0064 0.77845 0.0
C2362 C 0.73201 0.98552 0.80654 0.0
C2363 C 0.74685 0.98026 0.79078 0.0
C2364 C 0.74682 0.98848 0.76903 0.0
C2365 C 0.73159 1.00141 0.76307 0.0
C2366 C 0.73149 0.97679 0.82979 0.0
C2367 C 0.76249 0.98317 0.75184 0.0
C2368 C 0.79747 0.95821 0.81141 0.0
C2369 C 0.78862 0.93457 0.80317 0.0
C2370 C 0.78393 0.97344 0.80783 0.0
C2371 C 0.76106 0.96454 0.79611 0.0
C2372 C 0.75189 0.94054 0.78847 0.0
C2373 C 0.76586 0.92585 0.79202 0.0
C2374 C 0.79418 0.999 0.81603 0.0
C2375 C 0.72747 0.93041 0.77619 0.0
H2376 H 0.70553 1.0026 0.81213 0.0
H2377 H 0.7314 0.00758 0.74633 0.0
H2378 H 0.7254 0.95762 0.82688 0.0
H2379 H 0.74912 0.98173 0.83972 0.0
H2380 H 0.71997 0.98363 0.84061 0.0
H2381 H 0.76144 0.9922 0.73638 0.0
H2382 H 0.78065 0.9883 0.76044 0.0
H2383 H 0.75774 0.96428 0.74568 0.0
H2384 H 0.8151 0.96478 0.82011 0.0
H2385 H 0.75898 0.90742 0.78609 0.0
H2386 H 0.78307 0.00571 0.82747 0.0
H2387 H 0.79496 0.00842 0.80077 0.0
H2388 H 0.81186 1.00297 0.82576 0.0
H2389 H 0.71511 0.93564 0.78703 0.0
H2390 H 0.72269 0.91122 0.77245 0.0
H2391 H 0.72547 0.93719 0.75943 0.0
C2392 C 0.72872 0.92316 0.53457 0.0
C2393 C 0.7503 0.93175 0.54847 0.0
C2394 C 0.7132 0.93679 0.53285 0.0
C2395 C 0.71934 0.95945 0.54554 0.0
C2396 C 0.7409 0.96799 0.56004 0.0
C2397 C 0.75617 0.95409 0.56122 0.0
C2398 C 0.69048 0.92714 0.51703 0.0
C2399 C 0.74796 0.99195 0.57406 0.0
C2400 C 0.69103 1.00354 0.52348 0.0
C2401 C 0.67382 1.00332 0.53793 0.0
C2402 C 0.70581 0.98924 0.52567 0.0
C2403 C 0.7036 0.97455 0.54298 0.0
C2404 C 0.68648 0.97438 0.55783 0.0
C2405 C 0.67171 0.98865 0.55504 0.0
C2406 C 0.72378 0.98985 0.50942 0.0
C2407 C 0.68371 0.95908 0.57661 0.0
H2408 H 0.72412 0.90592 0.52464 0.0
H2409 H 0.7728 0.96078 0.57208 0.0
H2410 H 0.67597 0.92781 0.52702 0.0
H2411 H 0.68956 0.93788 0.50296 0.0
H2412 H 0.68802 0.90898 0.50886 0.0
H2413 H 0.76483 0.99559 0.58534 0.0
H2414 H 0.74923 1.00506 0.56211 0.0
H2415 H 0.73468 0.99406 0.58527 0.0
H2416 H 0.69312 0.01508 0.51049 0.0
H2417 H 0.65828 0.98806 0.56608 0.0
H2418 H 0.72144 0.97229 0.49975 0.0
H2419 H 0.74128 0.99528 0.51966 0.0
H2420 H 0.72294 1.00188 0.49657 0.0
H2421 H 0.67954 0.94068 0.5686 0.0
H2422 H 0.66989 0.96136 0.58706 0.0
H2423 H 0.70017 0.96294 0.58858 0.0
C2424 C 0.39248 0.4639 0.75335 0.0
C2425 C 0.40124 0.47849 0.77468 0.0
C2426 C 0.37637 0.44231 0.75245 0.0
C2427 C 0.36927 0.435 0.77342 0.0
C2428 C 0.37784 0.44985 0.79493 0.0
C2429 C 0.39354 0.47148 0.79526 0.0
C2430 C 0.3673 0.42713 0.72913 0.0
C2431 C 0.37108 0.44257 0.81774 0.0
C2432 C 0.31639 0.38476 0.77394 0.0
C2433 C 0.32645 0.36656 0.77615 0.0
C2434 C 0.32999 0.40701 0.77218 0.0
C2435 C 0.35424 0.41122 0.77323 0.0
C2436 C 0.36441 0.39284 0.77532 0.0
C2437 C 0.35039 0.37075 0.77653 0.0
C2438 C 0.31848 0.42607 0.76946 0.0
C2439 C 0.39021 0.39662 0.77698 0.0
H2440 H 0.39828 0.46933 0.73739 0.0
H2441 H 0.4003 0.48267 0.81181 0.0
H2442 H 0.37352 0.4114 0.72851 0.0
H2443 H 0.34816 0.42136 0.72679 0.0
H2444 H 0.37288 0.43614 0.7143 0.0
H2445 H 0.37866 0.45646 0.83286 0.0
H2446 H 0.35204 0.43766 0.81694 0.0
H2447 H 0.37694 0.42712 0.82084 0.0
H2448 H 0.29789 0.3816 0.77347 0.0
H2449 H 0.35836 0.35684 0.77841 0.0
H2450 H 0.32364 0.43438 0.75411 0.0
H2451 H 0.32423 0.43962 0.78506 0.0
H2452 H 0.29936 0.41963 0.76724 0.0
H2453 H 0.3966 0.40392 0.76155 0.0
H2454 H 0.39534 0.38039 0.7781 0.0
H2455 H 0.39897 0.40934 0.79268 0.0
C2456 C 0.21662 0.62164 0.22611 0.0
C2457 C 0.22531 0.60843 0.24107 0.0
C2458 C 0.22705 0.64539 0.22776 0.0
C2459 C 0.24633 0.65602 0.245 0.0
C2460 C 0.2563 0.64238 0.25876 0.0
C2461 C 0.24573 0.61864 0.25649 0.0
C2462 C 0.21632 0.65934 0.21239 0.0
C2463 C 0.27681 0.65313 0.2774 0.0
C2464 C 0.27988 0.7188 0.24884 0.0
C2465 C 0.26928 0.72951 0.2655 0.0
C2466 C 0.27217 0.69488 0.24136 0.0
C2467 C 0.2538 0.68148 0.25118 0.0
C2468 C 0.24293 0.69227 0.26785 0.0
C2469 C 0.25069 0.71622 0.27464 0.0
C2470 C 0.28378 0.68393 0.2232 0.0
C2471 C 0.22345 0.67846 0.27894 0.0
H2472 H 0.20097 0.61369 0.21396 0.0
H2473 H 0.25259 0.60842 0.26797 0.0
H2474 H 0.2065 0.66901 0.22277 0.0
H2475 H 0.22981 0.67219 0.20577 0.0
H2476 H 0.20429 0.64817 0.19728 0.0
H2477 H 0.28426 0.63992 0.28441 0.0
H2478 H 0.2905 0.66548 0.27048 0.0
H2479 H 0.27137 0.66298 0.29207 0.0
H2480 H 0.29414 0.72913 0.24157 0.0
H2481 H 0.24253 0.72446 0.28759 0.0
H2482 H 0.27073 0.67349 0.2085 0.0
H2483 H 0.29253 0.672 0.23093 0.0
H2484 H 0.29676 0.697 0.21616 0.0
H2485 H 0.20895 0.66871 0.26526 0.0
H2486 H 0.21684 0.68956 0.29156 0.0
H2487 H 0.22942 0.66564 0.28826 0.0
C2488 C 0.50627 0.69972 0.46899 0.0
C2489 C 0.50974 0.72027 0.4848 0.0
C2490 C 0.50924 0.67893 0.47632 0.0
C2491 C 0.51557 0.67793 0.50033 0.0
C2492 C 0.5187 0.69851 0.51647 0.0
C2493 C 0.51598 0.71925 0.50859 0.0
C2494 C 0.50601 0.65802 0.45811 0.0
C2495 C 0.52509 0.69868 0.54223 0.0
C2496 C 0.50578 0.61707 0.5202 0.0
C2497 C 0.52797 0.61348 0.52183 0.0
C2498 C 0.50158 0.63783 0.51374 0.0
C2499 C 0.5198 0.65577 0.50825 0.0
C2500 C 0.54215 0.65213 0.50977 0.0
C2501 C 0.54593 0.63144 0.5166 0.0
C2502 C 0.47748 0.64058 0.51282 0.0
C2503 C 0.56225 0.67008 0.50383 0.0
H2504 H 0.50159 0.69996 0.45056 0.0
H2505 H 0.51876 0.73474 0.52117 0.0
H2506 H 0.52232 0.65285 0.45838 0.0
H2507 H 0.49263 0.64321 0.46215 0.0
H2508 H 0.50084 0.66126 0.44022 0.0
H2509 H 0.52564 0.71539 0.5528 0.0
H2510 H 0.51247 0.68457 0.54834 0.0
H2511 H 0.54226 0.69542 0.54546 0.0
H2512 H 0.49161 0.60367 0.52414 0.0
H2513 H 0.56318 0.62925 0.51753 0.0
H2514 H 0.47093 0.64222 0.49477 0.0
H2515 H 0.47768 0.65668 0.52424 0.0
H2516 H 0.46531 0.62574 0.51841 0.0
H2517 H 0.55853 0.67309 0.48556 0.0
H2518 H 0.57857 0.66487 0.50573 0.0
H2519 H 0.56482 0.68676 0.51533 0.0
C2520 C 0.66131 0.33714 0.67138 0.0
C2521 C 0.63927 0.32309 0.67305 0.0
C2522 C 0.68111 0.33653 0.68634 0.0
C2523 C 0.67908 0.32114 0.70315 0.0
C2524 C 0.65685 0.30684 0.70473 0.0
C2525 C 0.63736 0.30815 0.68994 0.0
C2526 C 0.70424 0.35243 0.68418 0.0
C2527 C 0.65366 0.28982 0.72191 0.0
C2528 C 0.73203 0.30258 0.72731 0.0
C2529 C 0.73806 0.31521 0.75 0.0
C2530 C 0.71316 0.30448 0.71193 0.0
C2531 C 0.70003 0.31978 0.719 0.0
C2532 C 0.7064 0.33301 0.74168 0.0
C2533 C 0.72505 0.3304 0.7569 0.0
C2534 C 0.70692 0.28964 0.68822 0.0
C2535 C 0.69338 0.34988 0.74998 0.0
H2536 H 0.66308 0.34876 0.65847 0.0
H2537 H 0.62053 0.29705 0.69137 0.0
H2538 H 0.71199 0.36328 0.70128 0.0
H2539 H 0.71621 0.34213 0.67931 0.0
H2540 H 0.70294 0.36394 0.67088 0.0
H2541 H 0.63539 0.27959 0.72075 0.0
H2542 H 0.66437 0.27773 0.71867 0.0
H2543 H 0.65955 0.29912 0.73999 0.0
H2544 H 0.74178 0.29071 0.72169 0.0
H2545 H 0.72953 0.34042 0.77424 0.0
H2546 H 0.70706 0.30066 0.67428 0.0
H2547 H 0.68916 0.27807 0.68663 0.0
H2548 H 0.71894 0.27885 0.68512 0.0
H2549 H 0.69282 0.3621 0.73728 0.0
H2550 H 0.70128 0.35996 0.76742 0.0
H2551 H 0.67529 0.34044 0.75102 0.0
C2552 C 0.03916 0.36951 0.99693 0.0
C2553 C 0.01747 0.35328 0.9902 0.0
C2554 C 0.04136 0.39342 0.00354 0.0
C2555 C 0.02148 0.40188 1.00259 0.0
C2556 C 0.99954 0.38552 0.99565 0.0
C2557 C 0.9978 0.3616 0.98999 0.0
C2558 C 0.06509 0.40968 0.01154 0.0
C2559 C 0.97782 0.39337 0.99351 0.0
C2560 C 0.02318 0.46161 0.0363 0.0
C2561 C 0.0277 0.47645 0.01946 0.0
C2562 C 0.0216 0.43767 0.03126 0.0
C2563 C 0.02364 0.42771 0.00845 0.0
C2564 C 0.02778 0.4426 0.99126 0.0
C2565 C 0.03023 0.46666 0.99706 0.0
C2566 C 0.01816 0.4231 0.05058 0.0
C2567 C 0.02939 0.43307 0.96653 0.0
H2568 H 0.05453 0.36347 0.99715 0.0
H2569 H 0.98096 0.34944 0.9845 0.0
H2570 H 0.06945 0.42195 0.99892 0.0
H2571 H 0.06542 0.42007 0.02868 0.0
H2572 H 0.07861 0.40036 0.01321 0.0
H2573 H 0.96213 0.37876 0.9874 0.0
H2574 H 0.97585 0.40231 0.01062 0.0
H2575 H 0.979 0.406 0.98103 0.0
H2576 H 0.02152 0.46887 0.05377 0.0
H2577 H 0.03369 0.47779 0.98383 0.0
H2578 H 0.03203 0.41423 0.05243 0.0
H2579 H 1.00152 0.40949 0.04619 0.0
H2580 H 0.01823 0.43351 0.06765 0.0
H2581 H 0.04439 0.42577 0.96628 0.0
H2582 H 0.03128 0.44646 0.95483 0.0
H2583 H 0.01371 0.41878 0.95942 0.0
C2584 C 0.99951 0.80545 0.15064 0.0
C2585 C 0.02233 0.81187 0.16197 0.0
C2586 C 0.9807 0.8025 0.16345 0.0
C2587 C 0.98475 0.80605 0.18823 0.0
C2588 C 1.00777 0.81262 0.19972 0.0
C2589 C 0.02622 0.81544 0.1865 0.0
C2590 C 0.95647 0.7955 0.15048 0.0
C2591 C 0.01295 0.8166 0.22606 0.0
C2592 C 0.93855 0.81866 0.2237 0.0
C2593 C 0.92895 0.79712 0.23048 0.0
C2594 C 0.95638 0.82171 0.20965 0.0
C2595 C 0.965 0.8028 0.2022 0.0
C2596 C 0.95522 0.78095 0.20876 0.0
C2597 C 0.93734 0.77837 0.22274 0.0
C2598 C 0.96615 0.84525 0.20295 0.0
C2599 C 0.96394 0.76035 0.20137 0.0
H2600 H 0.99632 0.80263 0.13171 0.0
H2601 H 0.04377 0.82039 0.19543 0.0
H2602 H 0.94667 0.77881 0.15505 0.0
H2603 H 0.94733 0.80855 0.15581 0.0
H2604 H 0.95619 0.79363 0.13123 0.0
H2605 H 0.03177 0.82173 0.23235 0.0
H2606 H 1.00548 0.83035 0.23343 0.0
H2607 H 1.00479 0.80062 0.23301 0.0
H2608 H 0.93201 0.83319 0.22928 0.0
H2609 H 0.93027 0.76172 0.22807 0.0
H2610 H 0.96485 0.84399 0.18366 0.0
H2611 H 0.98473 0.85186 0.2101 0.0
H2612 H 0.95711 0.85801 0.20952 0.0
H2613 H 0.96285 0.75719 0.18206 0.0
H2614 H 0.95404 0.74438 0.20725 0.0
H2615 H 0.98237 0.76392 0.20871 0.0
C2616 C 0.52162 0.31206 0.13798 0.0
C2617 C 0.52538 0.31584 0.16251 0.0
C2618 C 0.52472 0.33062 0.12509 0.0
C2619 C 0.5318 0.35366 0.13693 0.0
C2620 C 0.53546 0.35761 0.16172 0.0
C2621 C 0.5322 0.33868 0.17419 0.0
C2622 C 0.52061 0.32554 0.09873 0.0
C2623 C 0.54302 0.38185 0.17507 0.0
C2624 C 0.56108 0.40046 0.10281 0.0
C2625 C 0.543 0.40981 0.09564 0.0
C2626 C 0.55777 0.38251 0.11649 0.0
C2627 C 0.53581 0.37354 0.12331 0.0
C2628 C 0.51756 0.3831 0.11644 0.0
C2629 C 0.52136 0.40107 0.10274 0.0
C2630 C 0.57776 0.37296 0.12347 0.0
C2631 C 0.49387 0.37406 0.12323 0.0
H2632 H 0.51634 0.29449 0.12876 0.0
H2633 H 0.53515 0.34179 0.19313 0.0
H2634 H 0.50744 0.33374 0.09179 0.0
H2635 H 0.53674 0.33306 0.09164 0.0
H2636 H 0.5147 0.3067 0.09215 0.0
H2637 H 0.5447 0.38205 0.19428 0.0
H2638 H 0.55989 0.39125 0.17051 0.0
H2639 H 0.53042 0.39148 0.17006 0.0
H2640 H 0.57798 0.4073 0.09782 0.0
H2641 H 0.50719 0.40794 0.09716 0.0
H2642 H 0.5735 0.35436 0.11614 0.0
H2643 H 0.58096 0.37428 0.14277 0.0
H2644 H 0.59389 0.38219 0.1173 0.0
H2645 H 0.48659 0.3556 0.11552 0.0
H2646 H 0.48174 0.38387 0.11728 0.0
H2647 H 0.49503 0.37499 0.14248 0.0
C2648 C 0.97121 0.30931 0.30986 0.0
C2649 C 0.98069 0.31811 0.33327 0.0
C2650 C 0.94744 0.30623 0.30186 0.0
C2651 C 0.93259 0.31236 0.31745 0.0
C2652 C 0.94225 0.32156 0.34097 0.0
C2653 C 0.96585 0.32414 0.34853 0.0
C2654 C 0.93811 0.29609 0.27674 0.0
C2655 C 0.92759 0.32871 0.35835 0.0
C2656 C 0.87501 0.32402 0.29456 0.0
C2657 C 0.85839 0.30396 0.29772 0.0
C2658 C 0.899 0.32684 0.30054 0.0
C2659 C 0.907 0.30902 0.30953 0.0
C2660 C 0.8903 0.28852 0.31221 0.0
C2661 C 0.86642 0.28635 0.30655 0.0
C2662 C 0.91583 0.34918 0.29766 0.0
C2663 C 0.89763 0.2688 0.32129 0.0
H2664 H 0.98229 0.30448 0.29785 0.0
H2665 H 0.97276 0.33105 0.36663 0.0
H2666 H 0.92415 0.27991 0.27596 0.0
H2667 H 0.93042 0.30827 0.2681 0.0
H2668 H 0.95165 0.2922 0.26673 0.0
H2669 H 0.93772 0.33628 0.3758 0.0
H2670 H 0.91939 0.3416 0.35184 0.0
H2671 H 0.9135 0.31351 0.3604 0.0
H2672 H 0.86925 0.33781 0.28778 0.0
H2673 H 0.85399 0.27063 0.30889 0.0
H2674 H 0.92856 0.34561 0.28637 0.0
H2675 H 0.9256 0.35799 0.31492 0.0
H2676 H 0.9071 0.36114 0.28988 0.0
H2677 H 0.91043 0.26383 0.3109 0.0
H2678 H 0.88282 0.25333 0.32066 0.0
H2679 H 0.90613 0.27435 0.33964 0.0
C2680 C 0.99913 0.68906 0.63159 0.0
C2681 C 0.01253 0.69525 0.65374 0.0
C2682 C 1.00012 0.66974 0.61595 0.0
C2683 C 0.01543 0.6565 0.62216 0.0
C2684 C 0.02884 0.66257 0.64463 0.0
C2685 C 0.02701 0.6816 0.6602 0.0
C2686 C 0.98499 0.66371 0.59257 0.0
C2687 C 0.0458 0.64945 0.65194 0.0
C2688 C 1.00743 0.59585 0.58815 0.0
C2689 C 0.02254 0.60032 0.57142 0.0
C2690 C 1.00479 0.61385 0.60456 0.0
C2691 C 0.01802 0.63698 0.60483 0.0
C2692 C 0.03358 0.6415 0.58822 0.0
C2693 C 0.03541 0.62328 0.57162 0.0
C2694 C 0.98758 0.60814 0.62143 0.0
C2695 C 0.04849 0.66566 0.58807 0.0
H2696 H 0.98788 0.69944 0.62639 0.0
H2697 H 0.03764 0.68636 0.67714 0.0
H2698 H 0.99587 0.66623 0.57837 0.0
H2699 H 0.97502 0.64523 0.58975 0.0
H2700 H 0.97272 0.67447 0.59106 0.0
H2701 H 0.05463 0.65593 0.6701 0.0
H2702 H 0.03687 0.6308 0.65063 0.0
H2703 H 0.05905 0.65098 0.63995 0.0
H2704 H 0.99731 0.57824 0.58817 0.0
H2705 H 0.0473 0.62699 0.55899 0.0
H2706 H 0.97466 0.61809 0.61927 0.0
H2707 H 0.99643 0.61328 0.63967 0.0
H2708 H 0.97837 0.58942 0.61884 0.0
H2709 H 0.03747 0.67724 0.58439 0.0
H2710 H 0.06047 0.66622 0.57479 0.0
H2711 H 0.05878 0.67266 0.60552 0.0
C2712 C 0.63216 0.81678 0.85392 0.0
C2713 C 0.61509 0.8228 0.83952 0.0
C2714 C 0.65276 0.81374 0.84598 0.0
C2715 C 0.65725 0.81717 0.82296 0.0
C2716 C 0.64022 0.82355 0.80838 0.0
C2717 C 0.61945 0.82602 0.81665 0.0
C2718 C 0.66971 0.80651 0.8623 0.0
C2719 C 0.64401 0.82794 0.78394 0.0
C2720 C 0.7212 0.82813 0.81155 0.0
C2721 C 0.72199 0.80657 0.79997 0.0
C2722 C 0.70039 0.83198 0.81838 0.0
C2723 C 0.67949 0.81378 0.81427 0.0
C2724 C 0.68022 0.792 0.80259 0.0
C2725 C 0.70111 0.78878 0.79543 0.0
C2726 C 0.70086 0.85569 0.83016 0.0
C2727 C 0.65892 0.77174 0.79811 0.0
H2728 H 0.62926 0.81407 0.87156 0.0
H2729 H 0.60669 0.83072 0.8052 0.0
H2730 H 0.67258 0.79012 0.85422 0.0
H2731 H 0.68661 0.81978 0.86536 0.0
H2732 H 0.66369 0.804 0.87944 0.0
H2733 H 0.62978 0.8336 0.77496 0.0
H2734 H 0.66049 0.84143 0.78447 0.0
H2735 H 0.64547 0.81199 0.77343 0.0
H2736 H 0.73694 0.84217 0.81522 0.0
H2737 H 0.70117 0.77196 0.78674 0.0
H2738 H 0.69719 0.85483 0.84836 0.0
H2739 H 0.6872 0.86191 0.82094 0.0
H2740 H 0.71779 0.86851 0.83059 0.0
H2741 H 0.65297 0.7678 0.81495 0.0
H2742 H 0.66202 0.75597 0.78875 0.0
H2743 H 0.64473 0.77612 0.78761 0.0
C2744 C 0.49798 0.53842 0.71061 0.0
C2745 C 0.48299 0.55104 0.71829 0.0
C2746 C 0.50576 0.54009 0.68868 0.0
C2747 C 0.49837 0.5547 0.67401 0.0
C2748 C 0.48362 0.56781 0.68193 0.0
C2749 C 0.47615 0.56584 0.70389 0.0
C2750 C 0.52151 0.52583 0.68097 0.0
C2751 C 0.47525 0.58356 0.66696 0.0
C2752 C 0.53164 0.57239 0.62363 0.0
C2753 C 0.51818 0.55671 0.60446 0.0
C2754 C 0.52544 0.57198 0.64631 0.0
C2755 C 0.50523 0.55555 0.65001 0.0
C2756 C 0.49136 0.53997 0.63066 0.0
C2757 C 0.49799 0.54072 0.60823 0.0
C2758 C 0.54068 0.58895 0.6664 0.0
C2759 C 0.4696 0.52228 0.63367 0.0
H2760 H 0.50334 0.52694 0.72157 0.0
H2761 H 0.46457 0.57568 0.70963 0.0
H2762 H 0.51276 0.51327 0.66517 0.0
H2763 H 0.53736 0.53714 0.67617 0.0
H2764 H 0.52656 0.51616 0.69476 0.0
H2765 H 0.46463 0.59333 0.67602 0.0
H2766 H 0.49015 0.59608 0.66191 0.0
H2767 H 0.46475 0.57323 0.65061 0.0
H2768 H 0.54733 0.58473 0.62104 0.0
H2769 H 0.48739 0.52851 0.59363 0.0
H2770 H 0.54723 0.57946 0.67954 0.0
H2771 H 0.53056 0.59942 0.67524 0.0
H2772 H 0.55565 0.60082 0.66065 0.0
H2773 H 0.4738 0.51066 0.6458 0.0
H2774 H 0.46055 0.51158 0.61685 0.0
H2775 H 0.4576 0.53105 0.64157 0.0
C2776 C 0.81549 0.19438 0.99606 0.0
C2777 C 0.80223 0.17151 0.99509 0.0
C2778 C 0.81129 0.20735 0.97852 0.0
C2779 C 0.79351 0.19709 0.95964 0.0
C2780 C 0.78149 0.17342 0.95756 0.0
C2781 C 0.786 0.16089 0.97537 0.0
C2782 C 0.8246 0.23252 0.98119 0.0
C2783 C 0.76267 0.16181 0.93745 0.0
C2784 C 0.76032 0.23576 0.93434 0.0
C2785 C 0.76961 0.23901 0.91357 0.0
C2786 C 0.76808 0.2222 0.94952 0.0
C2787 C 0.78554 0.21168 0.94372 0.0
C2788 C 0.79503 0.21493 0.92278 0.0
C2789 C 0.78698 0.22864 0.90796 0.0
C2790 C 0.75753 0.21906 0.97174 0.0
C2791 C 0.81378 0.20414 0.91614 0.0
H2792 H 0.82814 0.20262 0.01125 0.0
H2793 H 0.77585 0.14313 0.97447 0.0
H2794 H 0.83047 0.23691 0.96446 0.0
H2795 H 0.81316 0.24347 0.986 0.0
H2796 H 0.83986 0.23696 0.99493 0.0
H2797 H 0.75705 0.14275 0.93685 0.0
H2798 H 0.7475 0.16864 0.93923 0.0
H2799 H 0.76857 0.16566 0.92058 0.0
H2800 H 0.74682 0.24367 0.93861 0.0
H2801 H 0.79454 0.23154 0.89211 0.0
H2802 H 0.77117 0.22516 0.98711 0.0
H2803 H 0.74935 0.20044 0.97187 0.0
H2804 H 0.7443 0.22862 0.97376 0.0
H2805 H 0.82966 0.21171 0.9289 0.0
H2806 H 0.81802 0.20689 0.8984 0.0
H2807 H 0.80849 0.18528 0.91675 0.0
C2808 C 0.11474 0.50429 0.19501 0.0
C2809 C 0.1378 0.51512 0.19321 0.0
C2810 C 0.09717 0.50241 0.1766 0.0
C2811 C 0.10292 0.51205 0.15632 0.0
C2812 C 0.12637 0.52122 0.1537 0.0
C2813 C 0.14357 0.52238 0.17213 0.0
C2814 C 0.07243 0.4916 0.17955 0.0
C2815 C 0.13324 0.5316 0.13224 0.0
C2816 C 0.06553 0.50618 0.09904 0.0
C2817 C 0.06041 0.52754 0.10126 0.0
C2818 C 0.07729 0.49959 0.11786 0.0
C2819 C 0.08479 0.51522 0.13896 0.0
C2820 C 0.078 0.53601 0.1418 0.0
C2821 C 0.06554 0.5418 0.12286 0.0
C2822 C 0.0833 0.47684 0.11447 0.0
C2823 C 0.08583 0.55321 0.16401 0.0
H2824 H 0.11026 0.4984 0.21124 0.0
H2825 H 0.1614 0.53061 0.17062 0.0
H2826 H 0.06406 0.50542 0.18441 0.0
H2827 H 0.06257 0.48108 0.16299 0.0
H2828 H 0.07126 0.48048 0.1935 0.0
H2829 H 0.15226 0.53702 0.13252 0.0
H2830 H 0.1255 0.51901 0.11621 0.0
H2831 H 0.12663 0.54697 0.13107 0.0
H2832 H 0.0612 0.49506 0.08225 0.0
H2833 H 0.06153 0.55833 0.12438 0.0
H2834 H 0.08236 0.46873 0.1306 0.0
H2835 H 0.10122 0.47985 0.11037 0.0
H2836 H 0.07162 0.46456 0.09981 0.0
H2837 H 0.08222 0.54449 0.17946 0.0
H2838 H 0.07726 0.56738 0.16421 0.0
H2839 H 0.10476 0.56093 0.16578 0.0
C2840 C 0.78981 0.8699 0.46242 0.0
C2841 C 0.79348 0.85802 0.48114 0.0
C2842 C 0.79059 0.86067 0.43929 0.0
C2843 C 0.79504 0.83886 0.43453 0.0
C2844 C 0.79857 0.82662 0.45331 0.0
C2845 C 0.79782 0.83637 0.47639 0.0
C2846 C 0.78674 0.87438 0.41992 0.0
C2847 C 0.80318 0.80326 0.449 0.0
C2848 C 0.77499 0.80832 0.37184 0.0
C2849 C 0.79538 0.81378 0.3616 0.0
C2850 C 0.77482 0.81564 0.39565 0.0
C2851 C 0.79553 0.82887 0.4098 0.0
C2852 C 0.81632 0.8339 0.39977 0.0
C2853 C 0.81601 0.82627 0.37585 0.0
C2854 C 0.75226 0.80977 0.4055 0.0
C2855 C 0.83877 0.84805 0.41415 0.0
H2856 H 0.78653 0.88667 0.46585 0.0
H2857 H 0.80075 0.82709 0.49072 0.0
H2858 H 0.80193 0.87775 0.41038 0.0
H2859 H 0.77161 0.86428 0.40713 0.0
H2860 H 0.78377 0.8912 0.42653 0.0
H2861 H 0.8055 0.79591 0.4654 0.0
H2862 H 0.78864 0.79101 0.43692 0.0
H2863 H 0.81892 0.80468 0.44045 0.0
H2864 H 0.75893 0.79857 0.36114 0.0
H2865 H 0.83185 0.83061 0.3682 0.0
H2866 H 0.74741 0.82586 0.41099 0.0
H2867 H 0.75412 0.80135 0.42124 0.0
H2868 H 0.73797 0.79811 0.39262 0.0
H2869 H 0.83763 0.86583 0.41982 0.0
H2870 H 0.85366 0.84916 0.40428 0.0
H2871 H 0.84208 0.84046 0.43017 0.0
C2872 C 0.50327 0.56045 0.859 0.0
C2873 C 0.49122 0.54023 0.84374 0.0
C2874 C 0.5113 0.55965 0.88243 0.0
C2875 C 0.50677 0.53816 0.891 0.0
C2876 C 0.49522 0.51764 0.87544 0.0
C2877 C 0.48781 0.51891 0.85202 0.0
C2878 C 0.52392 0.58191 0.89824 0.0
C2879 C 0.48961 0.49442 0.88381 0.0
C2880 C 0.53835 0.53316 0.9499 0.0
C2881 C 0.52265 0.53657 0.96518 0.0
C2882 C 0.53354 0.53373 0.92575 0.0
C2883 C 0.51234 0.53734 0.91656 0.0
C2884 C 0.49621 0.54017 0.93188 0.0
C2885 C 0.50165 0.53998 0.95592 0.0
C2886 C 0.55137 0.53102 0.91015 0.0
C2887 C 0.4732 0.54358 0.92291 0.0
H2888 H 0.50601 0.57699 0.85276 0.0
H2889 H 0.47838 0.50318 0.84044 0.0
H2890 H 0.51305 0.58583 0.91152 0.0
H2891 H 0.54009 0.58015 0.90773 0.0
H2892 H 0.52826 0.59676 0.88843 0.0
H2893 H 0.48192 0.47994 0.86926 0.0
H2894 H 0.50538 0.49146 0.89288 0.0
H2895 H 0.47723 0.49412 0.89663 0.0
H2896 H 0.55473 0.5308 0.95692 0.0
H2897 H 0.48936 0.54256 0.96755 0.0
H2898 H 0.55677 0.54676 0.90181 0.0
H2899 H 0.54387 0.51626 0.8959 0.0
H2900 H 0.56691 0.52815 0.91988 0.0
H2901 H 0.47591 0.55972 0.91504 0.0
H2902 H 0.46222 0.54463 0.93692 0.0
H2903 H 0.46374 0.52908 0.90899 0.0
C2904 C 0.82409 0.2142 0.1182 0.0
C2905 C 0.81075 0.19138 0.1175 0.0
C2906 C 0.82492 0.23131 0.13703 0.0
C2907 C 0.81181 0.22541 0.15525 0.0
C2908 C 0.79873 0.20228 0.15483 0.0
C2909 C 0.79851 0.18551 0.13603 0.0
C2910 C 0.83943 0.2557 0.13722 0.0
C2911 C 0.78446 0.19534 0.17396 0.0
C2912 C 0.82217 0.25858 0.21606 0.0
C2913 C 0.80391 0.26885 0.21529 0.0
C2914 C 0.82627 0.24599 0.19598 0.0
C2915 C 0.81138 0.24321 0.17485 0.0
C2916 C 0.79393 0.25494 0.17362 0.0
C2917 C 0.79054 0.26789 0.19394 0.0
C2918 C 0.84542 0.23424 0.19787 0.0
C2919 C 0.7776 0.2522 0.15141 0.0
H2920 H 0.8336 0.21876 0.10387 0.0
H2921 H 0.78811 0.16791 0.13549 0.0
H2922 H 0.82814 0.26745 0.13605 0.0
H2923 H 0.85131 0.26187 0.1539 0.0
H2924 H 0.84977 0.2571 0.1225 0.0
H2925 H 0.77511 0.17665 0.17086 0.0
H2926 H 0.79571 0.19925 0.19105 0.0
H2927 H 0.77165 0.20547 0.17528 0.0
H2928 H 0.83273 0.25966 0.2326 0.0
H2929 H 0.77641 0.27585 0.19343 0.0
H2930 H 0.85506 0.23615 0.18269 0.0
H2931 H 0.83791 0.21547 0.19783 0.0
H2932 H 0.85775 0.24131 0.21418 0.0
H2933 H 0.78724 0.2546 0.13629 0.0
H2934 H 0.76698 0.26467 0.15252 0.0
H2935 H 0.76583 0.23441 0.14795 0.0
C2936 C 0.14322 0.58731 0.30571 0.0
C2937 C 0.14421 0.56434 0.30122 0.0
C2938 C 0.1303 0.594 0.32255 0.0
C2939 C 0.11812 0.57726 0.33504 0.0
C2940 C 0.11876 0.55398 0.33028 0.0
C2941 C 0.13186 0.5478 0.31342 0.0
C2942 C 0.13001 0.61898 0.32727 0.0
C2943 C 0.10594 0.53565 0.34328 0.0
C2944 C 0.10374 0.59289 0.3953 0.0
C2945 C 0.0799 0.58984 0.39064 0.0
C2946 C 0.11668 0.59007 0.37716 0.0
C2947 C 0.10544 0.58408 0.35385 0.0
C2948 C 0.08164 0.58242 0.34893 0.0
C2949 C 0.0691 0.58536 0.36746 0.0
C2950 C 0.14209 0.59215 0.38307 0.0
C2951 C 0.06914 0.57614 0.32424 0.0
H2952 H 0.15276 0.60014 0.29626 0.0
H2953 H 0.13254 0.53002 0.30991 0.0
H2954 H 0.11198 0.62022 0.32536 0.0
H2955 H 0.13786 0.62642 0.34554 0.0
H2956 H 0.13961 0.62963 0.31532 0.0
H2957 H 0.10759 0.51819 0.3369 0.0
H2958 H 0.11268 0.54004 0.3622 0.0
H2959 H 0.08735 0.53498 0.34142 0.0
H2960 H 0.11214 0.59671 0.41325 0.0
H2961 H 0.05063 0.5829 0.36388 0.0
H2962 H 0.1523 0.60353 0.37211 0.0
H2963 H 0.14513 0.57486 0.37928 0.0
H2964 H 0.14861 0.59914 0.40176 0.0
H2965 H 0.07882 0.58697 0.31251 0.0
H2966 H 0.05139 0.57824 0.32314 0.0
H2967 H 0.06798 0.55786 0.31764 0.0
C2968 C 0.76889 0.85301 0.61666 0.0
C2969 C 0.79048 0.85888 0.60875 0.0
C2970 C 0.76649 0.84542 0.63847 0.0
C2971 C 0.78612 0.84353 0.65278 0.0
C2972 C 0.80792 0.84921 0.64476 0.0
C2973 C 0.80984 0.85685 0.62292 0.0
C2974 C 0.74293 0.83958 0.64627 0.0
C2975 C 0.82928 0.84729 0.65932 0.0
C2976 C 0.78509 0.84228 0.71831 0.0
C2977 C 0.78092 0.81856 0.71953 0.0
C2978 C 0.78651 0.85065 0.69674 0.0
C2979 C 0.78377 0.83498 0.67581 0.0
C2980 C 0.77917 0.81102 0.67691 0.0
C2981 C 0.77776 0.80314 0.69863 0.0
C2982 C 0.79128 0.87632 0.69638 0.0
C2983 C 0.77617 0.79366 0.65514 0.0
H2984 H 0.75385 0.85467 0.60594 0.0
H2985 H 0.82661 0.86146 0.61704 0.0
H2986 H 0.73797 0.8213 0.64926 0.0
H2987 H 0.74335 0.85048 0.66312 0.0
H2988 H 0.72943 0.8422 0.63327 0.0
H2989 H 0.84496 0.8524 0.65068 0.0
H2990 H 0.83215 0.85844 0.67651 0.0
H2991 H 0.82693 0.82924 0.66274 0.0
H2992 H 0.78754 0.85438 0.73425 0.0
H2993 H 0.77455 0.78477 0.6992 0.0
H2994 H 0.77755 0.87986 0.6844 0.0
H2995 H 0.80784 0.88282 0.68961 0.0
H2996 H 0.79225 0.88617 0.71399 0.0
H2997 H 0.76204 0.7952 0.64224 0.0
H2998 H 0.77219 0.77558 0.65886 0.0
H2999 H 0.79218 0.79727 0.64687 0.0
C3000 C 0.75699 0.48956 0.55291 0.0
C3001 C 0.74389 0.47188 0.53522 0.0
C3002 C 0.74731 0.50612 0.56345 0.0
C3003 C 0.72392 0.50471 0.55628 0.0
C3004 C 0.71048 0.48664 0.53872 0.0
C3005 C 0.72071 0.47049 0.52825 0.0
C3006 C 0.76216 0.52533 0.58191 0.0
C3007 C 0.68536 0.48451 0.53085 0.0
C3008 C 0.68858 0.53355 0.59322 0.0
C3009 C 0.68631 0.55142 0.58065 0.0
C3010 C 0.70189 0.51884 0.58627 0.0
C3011 C 0.71347 0.52243 0.56658 0.0
C3012 C 0.71303 0.54173 0.55522 0.0
C3013 C 0.69932 0.55595 0.56231 0.0
C3014 C 0.70203 0.49843 0.59884 0.0
C3015 C 0.72554 0.54632 0.53439 0.0
H3016 H 0.77499 0.49071 0.55825 0.0
H3017 H 0.71057 0.45677 0.51465 0.0
H3018 H 0.76336 0.54228 0.57592 0.0
H3019 H 0.75422 0.52557 0.59824 0.0
H3020 H 0.7799 0.52356 0.58595 0.0
H3021 H 0.67714 0.46896 0.51762 0.0
H3022 H 0.67568 0.48358 0.54605 0.0
H3023 H 0.68372 0.50005 0.52321 0.0
H3024 H 0.67888 0.53027 0.60769 0.0
H3025 H 0.69753 0.56958 0.55236 0.0
H3026 H 0.71983 0.49686 0.60266 0.0
H3027 H 0.69168 0.4823 0.58744 0.0
H3028 H 0.69463 0.49975 0.61547 0.0
H3029 H 0.74346 0.54498 0.53792 0.0
H3030 H 0.72612 0.56369 0.52967 0.0
H3031 H 0.71662 0.53312 0.51912 0.0
C3032 C 0.19715 0.16881 0.52736 0.0
C3033 C 0.21326 0.16195 0.51457 0.0
C3034 C 0.1758 0.15328 0.52859 0.0
C3035 C 0.17022 0.13048 0.51632 0.0
C3036 C 0.18609 0.12372 0.50268 0.0
C3037 C 0.20756 0.13947 0.50219 0.0
C3038 C 0.1595 0.16109 0.54359 0.0
C3039 C 0.18052 0.09976 0.48888 0.0
C3040 C 0.12483 0.08499 0.53848 0.0
C3041 C 0.10473 0.08505 0.52426 0.0
C3042 C 0.14639 0.09938 0.53578 0.0
C3043 C 0.14788 0.11373 0.51812 0.0
C3044 C 0.12774 0.11301 0.50303 0.0
C3045 C 0.10639 0.09888 0.50646 0.0
C3046 C 0.16741 0.09995 0.55248 0.0
C3047 C 0.12865 0.12762 0.48367 0.0
H3048 H 0.20157 0.18611 0.53713 0.0
H3049 H 0.21998 0.13412 0.49226 0.0
H3050 H 0.1427 0.1592 0.53288 0.0
H3051 H 0.15611 0.14999 0.55742 0.0
H3052 H 0.16645 0.17938 0.55206 0.0
H3053 H 0.19415 0.09765 0.4781 0.0
H3054 H 0.1785 0.08672 0.50094 0.0
H3055 H 0.16389 0.09598 0.47722 0.0
H3056 H 0.12359 0.07445 0.55235 0.0
H3057 H 0.0909 0.09883 0.49528 0.0
H3058 H 0.17432 0.11745 0.5629 0.0
H3059 H 0.1812 0.0965 0.54265 0.0
H3060 H 0.16352 0.0871 0.56466 0.0
H3061 H 0.13341 0.14618 0.49126 0.0
H3062 H 0.11185 0.12348 0.47216 0.0
H3063 H 0.14209 0.1251 0.47284 0.0
C3064 C 0.15438 0.98047 0.78871 0.0
C3065 C 0.16617 1.00357 0.79743 0.0
C3066 C 0.16625 0.96333 0.78686 0.0
C3067 C 0.19042 0.9695 0.79391 0.0
C3068 C 0.20225 0.9927 0.80328 0.0
C3069 C 0.19 0.00941 0.8049 0.0
C3070 C 0.15306 0.93875 0.77683 0.0
C3071 C 0.228 1.00002 0.81103 0.0
C3072 C 0.2229 0.92508 0.80578 0.0
C3073 C 0.23317 0.92298 0.78539 0.0
C3074 C 0.20825 0.93954 0.80851 0.0
C3075 C 0.20375 0.95214 0.7904 0.0
C3076 C 0.21347 0.9495 0.76949 0.0
C3077 C 0.22805 0.93497 0.76725 0.0
C3078 C 0.19824 0.94193 0.83107 0.0
C3079 C 0.20904 0.96255 0.74972 0.0
H3080 H 0.13596 0.97586 0.78294 0.0
H3081 H 0.19922 0.02722 0.81176 0.0
H3082 H 0.15901 0.93365 0.76011 0.0
H3083 H 0.15647 0.92677 0.7889 0.0
H3084 H 0.13416 0.93649 0.77353 0.0
H3085 H 0.23441 0.01852 0.81895 0.0
H3086 H 0.23261 0.98933 0.82398 0.0
H3087 H 0.23713 0.9972 0.79584 0.0
H3088 H 0.22687 0.91595 0.81991 0.0
H3089 H 0.23555 0.93306 0.75126 0.0
H3090 H 0.1793 0.93916 0.82743 0.0
H3091 H 0.20571 0.95973 0.84064 0.0
H3092 H 0.20178 0.92951 0.84259 0.0
H3093 H 0.19021 0.95947 0.74461 0.0
H3094 H 0.21672 0.95749 0.73408 0.0
H3095 H 0.21644 0.98139 0.75557 0.0
C3096 C 0.35294 0.97658 0.03677 0.0
C3097 C 0.34307 0.95954 0.01736 0.0
C3098 C 0.37669 0.98743 0.04049 0.0
C3099 C 0.39074 0.98102 0.02441 0.0
C3100 C 0.38093 0.96347 0.00507 0.0
C3101 C 0.35715 0.95292 1.00178 0.0
C3102 C 0.38667 0.00605 0.06134 0.0
C3103 C 0.39546 0.95617 0.98761 0.0
C3104 C 0.44711 0.02336 0.0183 0.0
C3105 C 0.46316 0.01427 0.0303 0.0
C3106 C 0.42339 0.01292 0.01662 0.0
C3107 C 0.41565 0.99307 0.02735 0.0
C3108 C 0.43173 0.98419 0.04004 0.0
C3109 C 0.45534 0.99487 0.0413 0.0
C3110 C 0.40665 0.02281 0.00292 0.0
C3111 C 0.42402 0.96316 0.05188 0.0
H3112 H 0.34206 0.98171 0.04886 0.0
H3113 H 0.34954 0.93971 0.98679 0.0
H3114 H 0.4009 1.00181 0.07193 0.0
H3115 H 0.39411 0.02276 0.05533 0.0
H3116 H 0.37353 0.00831 0.07271 0.0
H3117 H 0.38523 0.9418 0.9739 0.0
H3118 H 0.4035 0.97107 0.97903 0.0
H3119 H 0.40967 0.95059 0.99667 0.0
H3120 H 0.45307 0.03836 0.0098 0.0
H3121 H 0.46768 0.98794 0.05086 0.0
H3122 H 0.39386 0.02672 0.01396 0.0
H3123 H 0.39694 0.00988 0.98773 0.0
H3124 H 0.41546 0.03886 0.99641 0.0
H3125 H 0.4114 0.96577 0.06373 0.0
H3126 H 0.43868 0.95926 0.06216 0.0
H3127 H 0.4152 0.94789 0.03857 0.0
C3128 C 0.86815 0.61328 0.79559 0.0
C3129 C 0.86678 0.59028 0.78716 0.0
C3130 C 0.85066 0.62318 0.78823 0.0
C3131 C 0.83138 0.60965 0.77219 0.0
C3132 C 0.83013 0.58655 0.76329 0.0
C3133 C 0.84792 0.57713 0.77086 0.0
C3134 C 0.85261 0.64799 0.79792 0.0
C3135 C 0.80979 0.57169 0.74619 0.0
C3136 C 0.77869 0.63171 0.77476 0.0
C3137 C 0.7806 0.64534 0.75684 0.0
C3138 C 0.79439 0.61881 0.77911 0.0
C3139 C 0.81237 0.61971 0.76523 0.0
C3140 C 0.81338 0.63214 0.74609 0.0
C3141 C 0.79741 0.64483 0.74211 0.0
C3142 C 0.79267 0.6055 0.79953 0.0
C3143 C 0.83232 0.63348 0.73092 0.0
H3144 H 0.88274 0.62346 0.80816 0.0
H3145 H 0.84682 0.5593 0.76434 0.0
H3146 H 0.85153 0.65821 0.78344 0.0
H3147 H 0.83802 0.64875 0.80779 0.0
H3148 H 0.86903 0.6563 0.80975 0.0
H3149 H 0.81187 0.55429 0.74031 0.0
H3150 H 0.79378 0.56953 0.75439 0.0
H3151 H 0.80743 0.58024 0.73063 0.0
H3152 H 0.76555 0.632 0.78602 0.0
H3153 H 0.79911 0.6556 0.72842 0.0
H3154 H 0.80727 0.61412 0.81353 0.0
H3155 H 0.79391 0.58771 0.79419 0.0
H3156 H 0.77628 0.60445 0.80688 0.0
H3157 H 0.84893 0.64416 0.74108 0.0
H3158 H 0.82892 0.6413 0.71506 0.0
H3159 H 0.83439 0.61603 0.72545 0.0
C3160 C 0.82284 0.64331 0.02853 0.0
C3161 C 0.82961 0.66743 0.03476 0.0
C3162 C 0.83883 0.63029 0.03088 0.0
C3163 C 0.86221 0.64163 0.03967 0.0
C3164 C 0.86917 0.666 0.04601 0.0
C3165 C 0.85277 0.67862 0.04348 0.0
C3166 C 0.83068 0.60435 0.02396 0.0
C3167 C 0.89394 0.67872 0.05542 0.0
C3168 C 0.89814 0.60493 0.0651 0.0
C3169 C 0.90985 0.59979 0.04645 0.0
C3170 C 0.88291 0.61884 0.06328 0.0
C3171 C 0.87927 0.62788 0.04229 0.0
C3172 C 0.89127 0.62305 0.02352 0.0
C3173 C 0.90639 0.60906 0.02582 0.0
C3174 C 0.87051 0.62364 0.08372 0.0
C3175 C 0.88782 0.63231 1.00084 0.0
H3176 H 0.80497 0.63453 0.02177 0.0
H3177 H 0.85812 0.69726 0.0483 0.0
H3178 H 0.8403 0.59885 0.01015 0.0
H3179 H 0.83423 0.59573 0.03917 0.0
H3180 H 0.81192 0.59818 0.01737 0.0
H3181 H 0.89658 0.69769 0.05953 0.0
H3182 H 0.89941 0.67226 0.07153 0.0
H3183 H 0.90537 0.67539 0.04248 0.0
H3184 H 0.901 0.59817 0.08125 0.0
H3185 H 0.91516 0.605 0.01123 0.0
H3186 H 0.8516 0.6166 0.07852 0.0
H3187 H 0.87404 0.64256 0.08907 0.0
H3188 H 0.87574 0.61587 0.09904 0.0
H3189 H 0.8696 0.62524 0.99257 0.0
H3190 H 0.89916 0.62779 0.98828 0.0
H3191 H 0.89137 0.65141 0.00423 0.0
C3192 C 0.17712 0.14194 0.81461 0.0
C3193 C 0.18018 0.12212 0.80176 0.0
C3194 C 0.19232 0.16383 0.81458 0.0
C3195 C 0.21081 0.1659 0.80119 0.0
C3196 C 0.21424 0.14586 0.78863 0.0
C3197 C 0.19895 0.12422 0.78915 0.0
C3198 C 0.18824 0.18481 0.82836 0.0
C3199 C 0.23358 0.14735 0.77394 0.0
C3200 C 0.23226 0.22255 0.77835 0.0
C3201 C 0.25302 0.23301 0.79326 0.0
C3202 C 0.21846 0.20074 0.78077 0.0
C3203 C 0.22542 0.18913 0.79873 0.0
C3204 C 0.24636 0.19953 0.81388 0.0
C3205 C 0.26002 0.22133 0.81086 0.0
C3206 C 0.19643 0.19012 0.76404 0.0
C3207 C 0.25419 0.18772 0.83336 0.0
H3208 H 0.16273 0.14038 0.8245 0.0
H3209 H 0.20143 0.10894 0.77921 0.0
H3210 H 0.20431 0.19506 0.83978 0.0
H3211 H 0.18338 0.19612 0.81623 0.0
H3212 H 0.17432 0.18009 0.83938 0.0
H3213 H 0.23471 0.13003 0.76633 0.0
H3214 H 0.23087 0.15717 0.75945 0.0
H3215 H 0.25035 0.15685 0.78457 0.0
H3216 H 0.22675 0.23138 0.76461 0.0
H3217 H 0.27595 0.22939 0.82256 0.0
H3218 H 0.18144 0.18684 0.77385 0.0
H3219 H 0.19688 0.17321 0.7547 0.0
H3220 H 0.19359 0.20135 0.75089 0.0
H3221 H 0.24087 0.18434 0.84521 0.0
H3222 H 0.27078 0.1982 0.84377 0.0
H3223 H 0.2563 0.17073 0.82606 0.0
C3224 C 0.34772 0.98239 0.32662 0.0
C3225 C 0.37178 0.99009 0.33201 0.0
C3226 C 0.33608 0.95909 0.32596 0.0
C3227 C 0.34896 0.94322 0.33034 0.0
C3228 C 0.37305 0.95125 0.33759 0.0
C3229 C 0.3842 0.97474 0.33853 0.0
C3230 C 0.31028 0.95121 0.31867 0.0
C3231 C 0.38738 0.93479 0.34224 0.0
C3232 C 0.31849 0.88055 0.33263 0.0
C3233 C 0.31787 0.87052 0.3095 0.0
C3234 C 0.32835 0.90434 0.33977 0.0
C3235 C 0.33799 0.91817 0.32341 0.0
C3236 C 0.33734 0.9081 0.30004 0.0
C3237 C 0.32715 0.88442 0.29335 0.0
C3238 C 0.32852 0.91467 0.36472 0.0
C3239 C 0.34763 0.92229 0.28211 0.0
H3240 H 0.33808 0.99439 0.32193 0.0
H3241 H 0.40283 0.98074 0.3428 0.0
H3242 H 0.30647 0.94249 0.30027 0.0
H3243 H 0.30192 0.93854 0.32959 0.0
H3244 H 0.30244 0.96593 0.31999 0.0
H3245 H 0.40508 0.94403 0.35105 0.0
H3246 H 0.37905 0.92216 0.3532 0.0
H3247 H 0.38877 0.92486 0.32541 0.0
H3248 H 0.31124 0.86984 0.34514 0.0
H3249 H 0.32681 0.87674 0.27547 0.0
H3250 H 0.31984 0.92874 0.36509 0.0
H3251 H 0.34655 0.92248 0.37329 0.0
H3252 H 0.31974 0.90162 0.3751 0.0
H3253 H 0.33894 0.9361 0.27994 0.0
H3254 H 0.34598 0.91167 0.26477 0.0
H3255 H 0.36619 0.93085 0.28816 0.0
C3256 C 0.58114 0.38656 0.57568 0.0
C3257 C 0.57454 0.38123 0.59734 0.0
C3258 C 0.5787 0.40706 0.56703 0.0
C3259 C 0.56901 0.42285 0.57997 0.0
C3260 C 0.56221 0.4174 0.60176 0.0
C3261 C 0.56518 0.39706 0.61012 0.0
C3262 C 0.58664 0.41189 0.54398 0.0
C3263 C 0.55151 0.43306 0.61632 0.0
C3264 C 0.57892 0.48703 0.57008 0.0
C3265 C 0.55852 0.48689 0.55589 0.0
C3266 C 0.58282 0.46652 0.57734 0.0
C3267 C 0.56579 0.44486 0.57088 0.0
C3268 C 0.54521 0.44461 0.55647 0.0
C3269 C 0.54196 0.4653 0.54906 0.0
C3270 C 0.60527 0.46812 0.5922 0.0
C3271 C 0.52621 0.42242 0.54923 0.0
H3272 H 0.58844 0.37477 0.56548 0.0
H3273 H 0.55984 0.39342 0.6268 0.0
H3274 H 0.57188 0.41275 0.53147 0.0
H3275 H 0.59965 0.42896 0.54638 0.0
H3276 H 0.59432 0.39847 0.53617 0.0
H3277 H 0.5467 0.42641 0.63262 0.0
H3278 H 0.56375 0.45055 0.62107 0.0
H3279 H 0.53582 0.43498 0.60603 0.0
H3280 H 0.59204 0.5033 0.57556 0.0
H3281 H 0.52602 0.46461 0.5383 0.0
H3282 H 0.61366 0.45543 0.58419 0.0
H3283 H 0.60186 0.46371 0.6097 0.0
H3284 H 0.61746 0.48567 0.59447 0.0
H3285 H 0.53297 0.40904 0.53993 0.0
H3286 H 0.51144 0.42473 0.5377 0.0
H3287 H 0.51984 0.41578 0.56498 0.0
C3288 C 0.42839 0.79177 0.42395 0.0
C3289 C 0.44264 0.77833 0.41604 0.0
C3290 C 0.40933 0.79404 0.40907 0.0
C3291 C 0.40395 0.78218 0.38576 0.0
C3292 C 0.41778 0.76786 0.37805 0.0
C3293 C 0.43702 0.76638 0.39309 0.0
C3294 C 0.39547 0.80982 0.41806 0.0
C3295 C 0.41246 0.75432 0.35371 0.0
C3296 C 0.34385 0.7742 0.35161 0.0
C3297 C 0.34834 0.79058 0.33624 0.0
C3298 C 0.36162 0.77127 0.36774 0.0
C3299 C 0.38454 0.78542 0.3691 0.0
C3300 C 0.38906 0.80233 0.35398 0.0
C3301 C 0.37108 0.8045 0.33765 0.0
C3302 C 0.3559 0.75273 0.38308 0.0
C3303 C 0.41298 0.81826 0.3551 0.0
H3304 H 0.43264 0.80125 0.44154 0.0
H3305 H 0.44783 0.7559 0.38677 0.0
H3306 H 0.39673 0.82405 0.40744 0.0
H3307 H 0.37697 0.80022 0.41627 0.0
H3308 H 0.4015 0.81747 0.43667 0.0
H3309 H 0.42366 0.7426 0.35094 0.0
H3310 H 0.39416 0.74386 0.35031 0.0
H3311 H 0.41489 0.76638 0.34066 0.0
H3312 H 0.32641 0.76333 0.35081 0.0
H3313 H 0.37481 0.81741 0.32614 0.0
H3314 H 0.36012 0.76057 0.40175 0.0
H3315 H 0.36653 0.74049 0.38017 0.0
H3316 H 0.33739 0.74285 0.37965 0.0
H3317 H 0.41932 0.82739 0.3732 0.0
H3318 H 0.41348 0.83134 0.34315 0.0
H3319 H 0.42508 0.80806 0.35038 0.0
C3320 C 0.07042 0.73869 0.0733 0.0
C3321 C 0.0672 0.74681 0.09605 0.0
C3322 C 0.06762 0.71478 0.06565 0.0
C3323 C 0.06163 0.69824 0.08104 0.0
C3324 C 0.05845 0.70643 0.10403 0.0
C3325 C 0.06115 0.73031 0.11112 0.0
C3326 C 0.07104 0.70717 0.04096 0.0
C3327 C 0.05221 0.6899 0.12131 0.0
C3328 C 0.03312 0.63347 0.0576 0.0
C3329 C 0.05154 0.62333 0.06048 0.0
C3330 C 0.03623 0.65757 0.0637 0.0
C3331 C 0.05835 0.67245 0.07324 0.0
C3332 C 0.07706 0.66237 0.07611 0.0
C3333 C 0.07349 0.63818 0.06966 0.0
C3334 C 0.01566 0.66711 0.06003 0.0
C3335 C 0.10092 0.67716 0.08635 0.0
H3336 H 0.07511 0.75104 0.06139 0.0
H3337 H 0.05866 0.73609 0.12876 0.0
H3338 H 0.08499 0.69837 0.04114 0.0
H3339 H 0.05506 0.69447 0.03163 0.0
H3340 H 0.07553 0.72189 0.03101 0.0
H3341 H 0.05069 0.69886 0.13862 0.0
H3342 H 0.03557 0.67686 0.11447 0.0
H3343 H 0.0655 0.68042 0.12371 0.0
H3344 H 0.01604 0.62251 0.05046 0.0
H3345 H 0.08797 0.63086 0.07206 0.0
H3346 H 0.01927 0.68093 0.0489 0.0
H3347 H 0.01234 0.67503 0.07705 0.0
H3348 H 0.99978 0.65358 0.05168 0.0
H3349 H 0.10661 0.69119 0.07583 0.0
H3350 H 0.11381 0.66702 0.08707 0.0
H3351 H 0.10065 0.68551 0.10431 0.0
C3352 C 0.08041 0.30507 0.91866 0.0
C3353 C 0.05872 0.28898 0.91187 0.0
C3354 C 0.09782 0.30719 0.90413 0.0
C3355 C 0.09364 0.29279 0.8822 0.0
C3356 C 0.07177 0.27646 0.87524 0.0
C3357 C 0.05459 0.27481 0.89009 0.0
C3358 C 0.12073 0.32495 0.91227 0.0
C3359 C 0.06657 0.26067 0.85212 0.0
C3360 C 0.13177 0.31331 0.83621 0.0
C3361 C 0.14848 0.30102 0.83847 0.0
C3362 C 0.11378 0.3106 0.85006 0.0
C3363 C 0.11211 0.29503 0.86657 0.0
C3364 C 0.1286 0.28221 0.86866 0.0
C3365 C 0.14656 0.28541 0.85472 0.0
C3366 C 0.09668 0.32468 0.84723 0.0
C3367 C 0.1275 0.26536 0.88593 0.0
H3368 H 0.08382 0.31612 0.93542 0.0
H3369 H 0.03794 0.26228 0.8847 0.0
H3370 H 0.13483 0.31633 0.91315 0.0
H3371 H 0.12427 0.33726 0.89954 0.0
H3372 H 0.12127 0.33488 0.92973 0.0
H3373 H 0.04884 0.24879 0.8493 0.0
H3374 H 0.06849 0.27106 0.83762 0.0
H3375 H 0.07911 0.25019 0.85124 0.0
H3376 H 0.13267 0.32508 0.82347 0.0
H3377 H 0.15941 0.276 0.85695 0.0
H3378 H 0.0974 0.33592 0.86395 0.0
H3379 H 0.07889 0.31307 0.84286 0.0
H3380 H 0.10006 0.33574 0.83336 0.0
H3381 H 0.12992 0.27474 0.90398 0.0
H3382 H 0.14087 0.25586 0.88466 0.0
H3383 H 0.11026 0.25262 0.883 0.0
C3384 C 0.5579 0.77275 0.92616 0.0
C3385 C 0.54647 0.76943 0.90325 0.0
C3386 C 0.55554 0.75446 0.93934 0.0
C3387 C 0.54121 0.73221 0.92955 0.0
C3388 C 0.52976 0.72866 0.90633 0.0
C3389 C 0.5326 0.74728 0.89343 0.0
C3390 C 0.56824 0.75905 0.9639 0.0
C3391 C 0.51421 0.70528 0.89527 0.0
C3392 C 0.55033 0.68125 0.95861 0.0
C3393 C 0.53327 0.67825 0.9735 0.0
C3394 C 0.55285 0.6984 0.94394 0.0
C3395 C 0.53786 0.71291 0.94391 0.0
C3396 C 0.52031 0.70969 0.95851 0.0
C3397 C 0.5183 0.69255 0.97314 0.0
C3398 C 0.57185 0.70125 0.92875 0.0
C3399 C 0.50391 0.7247 0.95904 0.0
H3400 H 0.56872 0.78977 0.9339 0.0
H3401 H 0.52366 0.74456 0.87578 0.0
H3402 H 0.5557 0.75572 0.97654 0.0
H3403 H 0.57926 0.74712 0.96576 0.0
H3404 H 0.5793 0.77712 0.96871 0.0
H3405 H 0.50698 0.70518 0.8769 0.0
H3406 H 0.52387 0.69203 0.89557 0.0
H3407 H 0.49971 0.70013 0.90547 0.0
H3408 H 0.56176 0.67012 0.95835 0.0
H3409 H 0.50527 0.69075 0.98474 0.0
H3410 H 0.58407 0.71872 0.9338 0.0
H3411 H 0.56452 0.69983 0.9102 0.0
H3412 H 0.58162 0.68815 0.93021 0.0
H3413 H 0.51364 0.74292 0.96571 0.0
H3414 H 0.49037 0.71917 0.97029 0.0
H3415 H 0.4954 0.72426 0.94111 0.0
C3416 C 0.09813 0.77074 0.74733 0.0
C3417 C 0.08996 0.76925 0.7235 0.0
C3418 C 0.12183 0.77332 0.75527 0.0
C3419 C 0.13805 0.77408 0.73911 0.0
C3420 C 0.12977 0.77236 0.71504 0.0
C3421 C 0.10615 0.77017 0.70765 0.0
C3422 C 0.12958 0.77542 0.7811 0.0
C3423 C 0.14591 0.77273 0.69691 0.0
C3424 C 0.20362 0.80127 0.75822 0.0
C3425 C 0.21216 0.78193 0.76037 0.0
C3426 C 0.17977 0.79902 0.75196 0.0
C3427 C 0.16358 0.77681 0.74716 0.0
C3428 C 0.17209 0.75721 0.74929 0.0
C3429 C 0.196 0.75999 0.75604 0.0
C3430 C 0.1719 0.82057 0.75046 0.0
C3431 C 0.1559 0.73314 0.74406 0.0
H3432 H 0.08603 0.77011 0.75986 0.0
H3433 H 0.10029 0.76895 0.68919 0.0
H3434 H 0.13726 0.76117 0.78456 0.0
H3435 H 0.14318 0.79189 0.78715 0.0
H3436 H 0.11516 0.77489 0.79154 0.0
H3437 H 0.13686 0.77062 0.67886 0.0
H3438 H 0.15969 0.7893 0.70028 0.0
H3439 H 0.15445 0.75865 0.69807 0.0
H3440 H 0.21561 0.81839 0.76174 0.0
H3441 H 0.2021 0.74483 0.75754 0.0
H3442 H 0.15822 0.82094 0.76168 0.0
H3443 H 0.16431 0.82049 0.73226 0.0
H3444 H 0.18625 0.83661 0.75592 0.0
H3445 H 0.14218 0.73149 0.75548 0.0
H3446 H 0.16496 0.71964 0.74662 0.0
H3447 H 0.14729 0.72983 0.72572 0.0
C3448 C 0.04697 0.39026 0.42595 0.0
C3449 C 0.05634 0.3912 0.40487 0.0
C3450 C 0.04426 0.41024 0.43917 0.0
C3451 C 0.05168 0.43206 0.43163 0.0
C3452 C 0.06166 0.43322 0.4106 0.0
C3453 C 0.06353 0.41278 0.39733 0.0
C3454 C 0.03302 0.40788 0.46107 0.0
C3455 C 0.07045 0.45608 0.40216 0.0
C3456 C 0.02633 0.48067 0.45575 0.0
C3457 C 0.04276 0.49215 0.47513 0.0
C3458 C 0.02907 0.4613 0.44135 0.0
C3459 C 0.04909 0.45353 0.44592 0.0
C3460 C 0.06613 0.46567 0.46495 0.0
C3461 C 0.06261 0.4845 0.47946 0.0
C3462 C 0.01014 0.44866 0.42172 0.0
C3463 C 0.08804 0.4586 0.47021 0.0
H3464 H 0.04108 0.37368 0.43185 0.0
H3465 H 0.07077 0.41374 0.38109 0.0
H3466 H 0.04521 0.4182 0.47645 0.0
H3467 H 0.01773 0.4148 0.45982 0.0
H3468 H 0.02746 0.38964 0.46418 0.0
H3469 H 0.0786 0.45428 0.38605 0.0
H3470 H 0.05604 0.4639 0.39854 0.0
H3471 H 0.08329 0.46829 0.41598 0.0
H3472 H 0.01088 0.48631 0.45232 0.0
H3473 H 0.07554 0.49335 0.49423 0.0
H3474 H 1.00297 0.4306 0.42473 0.0
H3475 H 0.01717 0.44783 0.40488 0.0
H3476 H 0.99587 0.45704 0.42011 0.0
H3477 H 0.08391 0.44122 0.47566 0.0
H3478 H 0.10046 0.47094 0.48431 0.0
H3479 H 0.09652 0.45742 0.45427 0.0
C3480 C 0.43484 0.25757 0.2118 0.0
C3481 C 0.45514 0.26088 0.22757 0.0
C3482 C 0.41393 0.26008 0.21934 0.0
C3483 C 0.41264 0.26581 0.24347 0.0
C3484 C 0.43296 0.26876 0.25956 0.0
C3485 C 0.45381 0.26645 0.25149 0.0
C3486 C 0.39323 0.25706 0.20125 0.0
C3487 C 0.43274 0.27458 0.28543 0.0
C3488 C 0.36615 0.29583 0.26058 0.0
C3489 C 0.34812 0.27765 0.26529 0.0
C3490 C 0.38692 0.29223 0.25371 0.0
C3491 C 0.39049 0.26983 0.25159 0.0
C3492 C 0.3725 0.25137 0.25656 0.0
C3493 C 0.35166 0.25542 0.26311 0.0
C3494 C 0.40502 0.31255 0.24837 0.0
C3495 C 0.37525 0.22721 0.25492 0.0
H3496 H 0.43537 0.25337 0.19328 0.0
H3497 H 0.46914 0.26907 0.26399 0.0
H3498 H 0.37837 0.24355 0.205 0.0
H3499 H 0.38808 0.27341 0.20201 0.0
H3500 H 0.39667 0.25214 0.18324 0.0
H3501 H 0.44929 0.27496 0.29588 0.0
H3502 H 0.42944 0.29173 0.28929 0.0
H3503 H 0.41853 0.26172 0.29114 0.0
H3504 H 0.36395 0.31312 0.26198 0.0
H3505 H 0.33816 0.24111 0.26667 0.0
H3506 H 0.40827 0.30919 0.23003 0.0
H3507 H 0.42154 0.31489 0.25979 0.0
H3508 H 0.39987 0.32891 0.25087 0.0
H3509 H 0.37711 0.22093 0.23672 0.0
H3510 H 0.36034 0.21487 0.26024 0.0
H3511 H 0.39121 0.22727 0.26619 0.0
C3512 C 0.60039 0.52872 0.36904 0.0
C3513 C 0.60702 0.55023 0.36125 0.0
C3514 C 0.59386 0.52695 0.39146 0.0
C3515 C 0.59369 0.54714 0.40645 0.0
C3516 C 0.60022 0.56888 0.39858 0.0
C3517 C 0.60691 0.57016 0.3762 0.0
C3518 C 0.58716 0.50346 0.39913 0.0
C3519 C 0.59999 0.59082 0.41376 0.0
C3520 C 0.55427 0.54165 0.45366 0.0
C3521 C 0.56977 0.54439 0.47422 0.0
C3522 C 0.56181 0.54226 0.43166 0.0
C3523 C 0.58551 0.54548 0.42983 0.0
C3524 C 0.60126 0.54777 0.45038 0.0
C3525 C 0.59324 0.54731 0.47233 0.0
C3526 C 0.54438 0.53994 0.41036 0.0
C3527 C 0.62664 0.55101 0.44921 0.0
H3528 H 0.60064 0.51325 0.35772 0.0
H3529 H 0.61208 0.58687 0.3704 0.0
H3530 H 0.59802 0.50353 0.41571 0.0
H3531 H 0.56897 0.49931 0.40256 0.0
H3532 H 0.58902 0.48955 0.38583 0.0
H3533 H 0.60589 0.60639 0.40527 0.0
H3534 H 0.58227 0.58967 0.41784 0.0
H3535 H 0.61129 0.59306 0.43061 0.0
H3536 H 0.53609 0.53943 0.45472 0.0
H3537 H 0.60539 0.54944 0.48799 0.0
H3538 H 0.54488 0.52528 0.39723 0.0
H3539 H 0.54876 0.55582 0.40209 0.0
H3540 H 0.5265 0.53709 0.41463 0.0
H3541 H 0.62914 0.53681 0.43673 0.0
H3542 H 0.6365 0.5514 0.46651 0.0
H3543 H 0.63395 0.56744 0.44263 0.0
C3544 C 0.27087 0.87064 0.05318 0.0
C3545 C 0.26834 0.89309 0.05699 0.0
C3546 C 0.27615 0.85956 0.07198 0.0
C3547 C 0.27925 0.8714 0.09503 0.0
C3548 C 0.27539 0.89353 0.09902 0.0
C3549 C 0.26982 0.90408 0.07989 0.0
C3550 C 0.27951 0.83567 0.06714 0.0
C3551 C 0.2785 0.90662 0.12341 0.0
C3552 C 0.28228 0.83968 0.14708 0.0
C3553 C 0.30619 0.8447 0.15358 0.0
C3554 C 0.27317 0.84775 0.12768 0.0
C3555 C 0.28841 0.86151 0.11481 0.0
C3556 C 0.31259 0.86632 0.12111 0.0
C3557 C 0.32121 0.85767 0.14038 0.0
C3558 C 0.2473 0.842 0.12136 0.0
C3559 C 0.32936 0.88106 0.10784 0.0
H3560 H 0.26953 0.86203 0.03546 0.0
H3561 H 0.26787 0.92145 0.08288 0.0
H3562 H 0.29796 0.83655 0.07191 0.0
H3563 H 0.26946 0.82403 0.07802 0.0
H3564 H 0.27418 0.82794 0.04846 0.0
H3565 H 0.27331 0.92295 0.12361 0.0
H3566 H 0.2682 0.89576 0.13471 0.0
H3567 H 0.29688 0.91088 0.13121 0.0
H3568 H 0.2707 0.8294 0.15723 0.0
H3569 H 0.33969 0.86162 0.14556 0.0
H3570 H 0.24218 0.83724 0.10219 0.0
H3571 H 0.24139 0.85741 0.12701 0.0
H3572 H 0.23819 0.82755 0.12998 0.0
H3573 H 0.32636 0.87332 0.08915 0.0
H3574 H 0.34762 0.88299 0.11489 0.0
H3575 H 0.32652 0.89851 0.10866 0.0
C3576 C 0.98348 0.58516 0.87268 0.0
C3577 C 0.96167 0.58906 0.8728 0.0
C3578 C 0.99705 0.58503 0.89362 0.0
C3579 C 0.98871 0.58944 0.91504 0.0
C3580 C 0.96813 0.59637 0.9153 0.0
C3581 C 0.95465 0.59584 0.89407 0.0
C3582 C 0.01885 0.57745 0.89258 0.0
C3583 C 0.95911 0.60199 0.93788 0.0
C3584 C 0.9986 0.55285 0.96128 0.0
C3585 C 0.01693 0.56811 0.9766 0.0
C3586 C 0.9896 0.55957 0.94097 0.0
C3587 C 0.9988 0.58234 0.93628 0.0
C3588 C 0.01728 0.59789 0.95177 0.0
C3589 C 0.02636 0.59046 0.9717 0.0
C3590 C 0.97018 0.54229 0.92459 0.0
C3591 C 0.02705 0.62243 0.94761 0.0
H3592 H 0.98904 0.58006 0.85623 0.0
H3593 H 0.93792 0.59921 0.89418 0.0
H3594 H 0.0328 0.58793 0.90644 0.0
H3595 H 0.01538 0.55916 0.89553 0.0
H3596 H 0.02505 0.57873 0.87535 0.0
H3597 H 0.94582 0.61151 0.93547 0.0
H3598 H 0.95117 0.5857 0.94441 0.0
H3599 H 0.97334 0.61249 0.95148 0.0
H3600 H 0.99142 0.53555 0.96508 0.0
H3601 H 0.04036 0.60235 0.9838 0.0
H3602 H 0.97499 0.54035 0.90672 0.0
H3603 H 0.95451 0.54859 0.92354 0.0
H3604 H 0.9658 0.525 0.93029 0.0
H3605 H 0.03224 0.62263 0.9299 0.0
H3606 H 0.04221 0.63195 0.96069 0.0
H3607 H 0.01358 0.63181 0.94844 0.0
C3608 C 0.27134 0.22657 0.60833 0.0
C3609 C 0.28282 0.2395 0.59246 0.0
C3610 C 0.27112 0.2366 0.63131 0.0
C3611 C 0.28276 0.26024 0.63888 0.0
C3612 C 0.29406 0.27355 0.62285 0.0
C3613 C 0.29392 0.26305 0.59981 0.0
C3614 C 0.25883 0.22168 0.64769 0.0
C3615 C 0.30675 0.29876 0.6302 0.0
C3616 C 0.268 0.28736 0.69615 0.0
C3617 C 0.28533 0.28448 0.71255 0.0
C3618 C 0.2673 0.28028 0.672 0.0
C3619 C 0.28444 0.27029 0.66403 0.0
C3620 C 0.30243 0.26821 0.68048 0.0
C3621 C 0.30261 0.27522 0.70439 0.0
C3622 C 0.24778 0.28276 0.65509 0.0
C3623 C 0.32119 0.25785 0.67291 0.0
H3624 H 0.26256 0.2084 0.60283 0.0
H3625 H 0.30275 0.27319 0.58767 0.0
H3626 H 0.27152 0.22022 0.66221 0.0
H3627 H 0.24633 0.22975 0.65555 0.0
H3628 H 0.24944 0.20399 0.63875 0.0
H3629 H 0.31336 0.30712 0.61535 0.0
H3630 H 0.29523 0.30823 0.63796 0.0
H3631 H 0.32155 0.30048 0.64385 0.0
H3632 H 0.25461 0.29453 0.70221 0.0
H3633 H 0.31633 0.2732 0.71678 0.0
H3634 H 0.23669 0.26537 0.64707 0.0
H3635 H 0.25466 0.2917 0.6407 0.0
H3636 H 0.23691 0.29253 0.66371 0.0
H3637 H 0.31359 0.23937 0.66542 0.0
H3638 H 0.33487 0.259 0.68763 0.0
H3639 H 0.32928 0.26675 0.65905 0.0
C3640 C 0.61601 0.55755 0.21289 0.0
C3641 C 0.6028 0.55656 0.23141 0.0
C3642 C 0.60638 0.55802 0.18998 0.0
C3643 C 0.58286 0.55762 0.18523 0.0
C3644 C 0.56945 0.55696 0.20389 0.0
C3645 C 0.57954 0.55636 0.22674 0.0
C3646 C 0.62135 0.5585 0.17074 0.0
C3647 C 0.54436 0.55662 0.19965 0.0
C3648 C 0.56535 0.57535 0.12642 0.0
C3649 C 0.55672 0.5538 0.11208 0.0
C3650 C 0.57305 0.57691 0.15048 0.0
C3651 C 0.57222 0.55647 0.16048 0.0
C3652 C 0.56284 0.53472 0.14621 0.0
C3653 C 0.5552 0.53366 0.12237 0.0
C3654 C 0.58278 0.60045 0.16505 0.0
C3655 C 0.56166 0.51244 0.15592 0.0
H3656 H 0.63401 0.55775 0.21625 0.0
H3657 H 0.56923 0.55572 0.24091 0.0
H3658 H 0.61433 0.54267 0.15762 0.0
H3659 H 0.62124 0.57353 0.16157 0.0
H3660 H 0.63951 0.55953 0.1774 0.0
H3661 H 0.5366 0.5574 0.21611 0.0
H3662 H 0.54247 0.57144 0.19084 0.0
H3663 H 0.53445 0.5406 0.18782 0.0
H3664 H 0.56658 0.59102 0.11879 0.0
H3665 H 0.54848 0.51685 0.11166 0.0
H3666 H 0.60153 0.6034 0.17058 0.0
H3667 H 0.57451 0.6014 0.18114 0.0
H3668 H 0.5803 0.61456 0.15535 0.0
H3669 H 0.57938 0.51138 0.16153 0.0
H3670 H 0.55262 0.49693 0.14293 0.0
H3671 H 0.55261 0.51204 0.17155 0.0
C3672 C 0.23445 0.87037 0.93526 0.0
C3673 C 0.25215 0.89109 0.93857 0.0
C3674 C 0.23223 0.8534 0.91585 0.0
C3675 C 0.24831 0.85727 0.89978 0.0
C3676 C 0.26544 0.87866 0.90246 0.0
C3677 C 0.26701 0.89537 0.92173 0.0
C3678 C 0.21335 0.83105 0.91309 0.0
C3679 C 0.28291 0.8835 0.88562 0.0
C3680 C 0.268 0.8111 0.86514 0.0
C3681 C 0.25958 0.8132 0.84247 0.0
C3682 C 0.26273 0.82397 0.88444 0.0
C3683 C 0.24843 0.83881 0.88074 0.0
C3684 C 0.2379 0.83891 0.85793 0.0
C3685 C 0.24382 0.82626 0.839 0.0
C3686 C 0.27439 0.82351 0.90852 0.0
C3687 C 0.22213 0.85403 0.85327 0.0
H3688 H 0.22287 0.86706 0.94824 0.0
H3689 H 0.28064 0.91142 0.92415 0.0
H3690 H 0.20454 0.82632 0.8948 0.0
H3691 H 0.22097 0.8169 0.91706 0.0
H3692 H 0.20031 0.83214 0.92495 0.0
H3693 H 0.29489 0.90118 0.89008 0.0
H3694 H 0.29325 0.87081 0.88571 0.0
H3695 H 0.27399 0.88157 0.86758 0.0
H3696 H 0.28014 0.80092 0.86771 0.0
H3697 H 0.23697 0.82747 0.82136 0.0
H3698 H 0.26194 0.82223 0.92132 0.0
H3699 H 0.28822 0.83988 0.91432 0.0
H3700 H 0.28225 0.80886 0.90884 0.0
H3701 H 0.21146 0.84823 0.83582 0.0
H3702 H 0.23265 0.87207 0.85373 0.0
H3703 H 0.21054 0.85411 0.86682 0.0
C3704 C 0.9524 0.55232 0.74247 0.0
C3705 C 0.9446 0.53721 0.75816 0.0
C3706 C 0.96172 0.54488 0.7229 0.0
C3707 C 0.96335 0.52185 0.71913 0.0
C3708 C 0.95568 0.50658 0.73504 0.0
C3709 C 0.94631 0.51445 0.75437 0.0
C3710 C 0.96965 0.56159 0.70617 0.0
C3711 C 0.95732 0.48196 0.73159 0.0
C3712 C 0.9682 0.4993 0.657 0.0
C3713 C 0.99218 0.50373 0.6578 0.0
C3714 C 0.95845 0.50435 0.67708 0.0
C3715 C 0.97307 0.51384 0.69845 0.0
C3716 C 0.99716 0.5171 0.69966 0.0
C3717 C 1.00646 0.51208 0.67927 0.0
C3718 C 0.93265 0.50059 0.6752 0.0
C3719 C 0.01323 0.527 0.72224 0.0
H3720 H 0.95102 0.56991 0.74535 0.0
H3721 H 0.9403 0.50273 0.76653 0.0
H3722 H 0.98822 0.56371 0.70492 0.0
H3723 H 0.96002 0.55461 0.68842 0.0
H3724 H 0.96713 0.57888 0.71162 0.0
H3725 H 0.95078 0.47238 0.74574 0.0
H3726 H 0.94727 0.47261 0.71464 0.0
H3727 H 0.97553 0.48181 0.73096 0.0
H3728 H 0.9571 0.49251 0.64048 0.0
H3729 H 0.02502 0.5158 0.67995 0.0
H3730 H 0.92875 0.51753 0.67841 0.0
H3731 H 0.92559 0.49037 0.68869 0.0
H3732 H 0.92359 0.49151 0.65773 0.0
H3733 H 0.01337 0.54528 0.72738 0.0
H3734 H 0.03119 0.52636 0.72071 0.0
H3735 H 1.0071 0.51742 0.73651 0.0
C3736 C 0.27754 0.24974 0.45518 0.0
C3737 C 0.28808 0.23274 0.4612 0.0
C3738 C 0.27837 0.257 0.43305 0.0
C3739 C 0.29009 0.24709 0.41651 0.0
C3740 C 0.30106 0.23019 0.42268 0.0
C3741 C 0.29989 0.22322 0.44485 0.0
C3742 C 0.2664 0.27502 0.42723 0.0
C3743 C 0.31382 0.21921 0.40571 0.0
C3744 C 0.27343 0.24863 0.35168 0.0
C3745 C 0.29094 0.26734 0.34735 0.0
C3746 C 0.27299 0.24187 0.374 0.0
C3747 C 0.29049 0.25402 0.3926 0.0
C3748 C 0.30841 0.27268 0.38828 0.0
C3749 C 0.30842 0.27911 0.36578 0.0
C3750 C 0.25359 0.22183 0.37774 0.0
C3751 C 0.3275 0.28603 0.4075 0.0
H3752 H 0.26833 0.25715 0.46765 0.0
H3753 H 0.30811 0.21007 0.4493 0.0
H3754 H 0.27886 0.28992 0.42212 0.0
H3755 H 0.25268 0.26766 0.41207 0.0
H3756 H 0.25847 0.28143 0.44212 0.0
H3757 H 0.32199 0.2068 0.41338 0.0
H3758 H 0.30173 0.2099 0.38984 0.0
H3759 H 0.32741 0.23275 0.40005 0.0
H3760 H 0.25981 0.23937 0.33766 0.0
H3761 H 0.32202 0.29361 0.36274 0.0
H3762 H 0.24383 0.22771 0.39123 0.0
H3763 H 0.26071 0.20824 0.38428 0.0
H3764 H 0.24141 0.21402 0.36147 0.0
H3765 H 0.32012 0.29402 0.42192 0.0
H3766 H 0.34036 0.29987 0.40129 0.0
H3767 H 0.33654 0.27413 0.41489 0.0
C3768 C 0.35137 0.61747 0.55112 0.0
C3769 C 0.32828 0.6134 0.54155 0.0
C3770 C 0.36316 0.60068 0.54668 0.0
C3771 C 0.35139 0.57932 0.53259 0.0
C3772 C 0.32789 0.57489 0.52342 0.0
C3773 C 0.31662 0.59209 0.52791 0.0
C3774 C 0.38834 0.606 0.55658 0.0
C3775 C 0.3148 0.5522 0.50852 0.0
C3776 C 0.39016 0.54935 0.5023 0.0
C3777 C 0.39362 0.53416 0.51781 0.0
C3778 C 0.37559 0.56349 0.50639 0.0
C3779 C 0.36416 0.56222 0.52638 0.0
C3780 C 0.3664 0.54585 0.54128 0.0
C3781 C 0.38127 0.53203 0.53687 0.0
C3782 C 0.37368 0.58085 0.49018 0.0
C3783 C 0.35413 0.54383 0.56255 0.0
H3784 H 0.36036 0.63394 0.56171 0.0
H3785 H 0.29866 0.58884 0.52066 0.0
H3786 H 0.39111 0.59255 0.56705 0.0
H3787 H 0.3989 0.60579 0.54211 0.0
H3788 H 0.39471 0.62315 0.56781 0.0
H3789 H 0.29619 0.55093 0.50407 0.0
H3790 H 0.3223 0.55023 0.49205 0.0
H3791 H 0.31644 0.53755 0.51773 0.0
H3792 H 0.39999 0.55128 0.48777 0.0
H3793 H 0.38391 0.52018 0.54878 0.0
H3794 H 0.38185 0.59861 0.4996 0.0
H3795 H 0.35531 0.57963 0.48446 0.0
H3796 H 0.3822 0.57833 0.47444 0.0
H3797 H 0.36168 0.55954 0.5757 0.0
H3798 H 0.35557 0.52849 0.57073 0.0
H3799 H 0.33559 0.54265 0.55787 0.0
C3800 C 0.87442 0.94125 0.535 0.0
C3801 C 0.86302 0.94024 0.55477 0.0
C3802 C 0.89568 0.95754 0.53538 0.0
C3803 C 0.90605 0.97295 0.55619 0.0
C3804 C 0.89459 0.97209 0.57623 0.0
C3805 C 0.87306 0.95586 0.57521 0.0
C3806 C 0.90716 0.95808 0.51353 0.0
C3807 C 0.90531 0.98792 0.59885 0.0
C3808 C 0.97092 0.99466 0.55947 0.0
C3809 C 0.97363 0.01652 0.55264 0.0
C3810 C 0.94914 0.9809 0.56207 0.0
C3811 C 0.92947 0.98895 0.55713 0.0
C3812 C 0.9322 0.01141 0.55104 0.0
C3813 C 0.95437 0.0251 0.54915 0.0
C3814 C 0.94712 0.95732 0.56914 0.0
C3815 C 0.91161 0.02045 0.54527 0.0
H3816 H 0.86662 0.92936 0.51909 0.0
H3817 H 0.86427 0.95512 0.59052 0.0
H3818 H 0.91139 0.97581 0.50891 0.0
H3819 H 0.92362 0.95336 0.51668 0.0
H3820 H 0.89612 0.94598 0.49838 0.0
H3821 H 0.89381 0.98568 0.61258 0.0
H3822 H 0.92176 0.98444 0.60538 0.0
H3823 H 0.90949 0.00622 0.59593 0.0
H3824 H 0.9859 0.98815 0.56248 0.0
H3825 H 0.95648 0.04198 0.54378 0.0
H3826 H 0.9383 0.94373 0.55415 0.0
H3827 H 0.93651 0.95485 0.58356 0.0
H3828 H 0.96423 0.95473 0.57486 0.0
H3829 H 0.9011 0.0102 0.52888 0.0
H3830 H 0.91675 0.03895 0.54294 0.0
H3831 H 0.90042 0.01846 0.55925 0.0
C3832 C 0.91742 0.11075 0.29469 0.0
C3833 C 0.9077 0.08826 0.28265 0.0
C3834 C 0.90425 0.12675 0.29668 0.0
C3835 C 0.88081 0.12007 0.28641 0.0
C3836 C 0.87097 0.09741 0.27414 0.0
C3837 C 0.88452 0.08181 0.27242 0.0
C3838 C 0.91537 0.15075 0.30985 0.0
C3839 C 0.84606 0.0896 0.26294 0.0
C3840 C 0.83931 0.15243 0.30887 0.0
C3841 C 0.83752 0.16659 0.29173 0.0
C3842 C 0.85359 0.13749 0.30755 0.0
C3843 C 0.86643 0.13664 0.28861 0.0
C3844 C 0.86494 0.15109 0.27141 0.0
C3845 C 0.85052 0.16586 0.27317 0.0
C3846 C 0.85476 0.12242 0.32629 0.0
C3847 C 0.87829 0.15065 0.25091 0.0
H3848 H 0.93532 0.11585 0.30263 0.0
H3849 H 0.87688 0.06446 0.26309 0.0
H3850 H 0.91415 0.16383 0.2983 0.0
H3851 H 0.90607 0.15404 0.32479 0.0
H3852 H 0.93383 0.15331 0.31663 0.0
H3853 H 0.84108 0.07148 0.25383 0.0
H3854 H 0.8346 0.09094 0.27643 0.0
H3855 H 0.84294 0.10102 0.25013 0.0
H3856 H 0.82961 0.15313 0.32345 0.0
H3857 H 0.84904 0.17652 0.25969 0.0
H3858 H 0.87289 0.12562 0.33446 0.0
H3859 H 0.8486 0.10393 0.3184 0.0
H3860 H 0.84417 0.12556 0.34017 0.0
H3861 H 0.89696 0.15414 0.2572 0.0
H3862 H 0.87592 0.16356 0.23951 0.0
H3863 H 0.87263 0.13321 0.24026 0.0
C3864 C 0.71227 0.13845 0.05006 0.0
C3865 C 0.72584 0.12342 0.0543 0.0
C3866 C 0.68812 0.1305 0.04713 0.0
C3867 C 0.67752 0.10697 0.04817 0.0
C3868 C 0.69119 0.09178 0.05249 0.0
C3869 C 0.71522 0.10025 0.05568 0.0
C3870 C 0.67397 0.1472 0.04292 0.0
C3871 C 0.68044 0.06651 0.05352 0.0
C3872 C 0.61666 0.08627 0.06178 0.0
C3873 C 0.60452 0.07644 0.03955 0.0
C3874 C 0.64032 0.09725 0.0647 0.0
C3875 C 0.65209 0.09805 0.04495 0.0
C3876 C 0.63983 0.0887 0.02237 0.0
C3877 C 0.61607 0.07813 0.01991 0.0
C3878 C 0.65281 0.10738 0.089 0.0
C3879 C 0.65196 0.08905 1.00096 0.0
H3880 H 0.72051 0.15639 0.04902 0.0
H3881 H 0.72571 0.08857 0.05883 0.0
H3882 H 0.66277 0.14137 0.02581 0.0
H3883 H 0.66246 0.14758 0.05652 0.0
H3884 H 0.68491 0.16505 0.04307 0.0
H3885 H 0.69357 0.05695 0.05664 0.0
H3886 H 0.66948 0.06477 0.06769 0.0
H3887 H 0.66911 0.0582 0.03688 0.0
H3888 H 0.60769 0.08531 0.07697 0.0
H3889 H 0.60669 0.07057 1.0027 0.0
H3890 H 0.66311 0.12549 0.08932 0.0
H3891 H 0.66502 0.0974 0.09418 0.0
H3892 H 0.64077 0.10715 0.10218 0.0
H3893 H 0.66221 0.10688 1.00002 0.0
H3894 H 0.63969 0.08241 0.98455 0.0
H3895 H 0.66418 0.07823 1.0021 0.0
C3896 C 0.24466 0.51991 0.29813 0.0
C3897 C 0.22875 0.50964 0.27806 0.0
C3898 C 0.26072 0.50886 0.30675 0.0
C3899 C 0.26051 0.48692 0.29518 0.0
C3900 C 0.24447 0.47647 0.2749 0.0
C3901 C 0.22885 0.48809 0.26646 0.0
C3902 C 0.27784 0.52059 0.3282 0.0
C3903 C 0.24361 0.45291 0.26228 0.0
C3904 C 0.31046 0.46055 0.30114 0.0
C3905 C 0.30269 0.44408 0.3156 0.0
C3906 C 0.29764 0.47589 0.29559 0.0
C3907 C 0.27652 0.47437 0.30452 0.0
C3908 C 0.26948 0.45888 0.32043 0.0
C3909 C 0.28276 0.44395 0.32587 0.0
C3910 C 0.30586 0.49253 0.27891 0.0
C3911 C 0.24697 0.4567 0.33017 0.0
H3912 H 0.24471 0.53672 0.30699 0.0
H3913 H 0.21654 0.48016 0.25095 0.0
H3914 H 0.27523 0.5099 0.34243 0.0
H3915 H 0.29569 0.52225 0.32429 0.0
H3916 H 0.27624 0.53805 0.33462 0.0
H3917 H 0.23006 0.44725 0.24677 0.0
H3918 H 0.26053 0.45313 0.25647 0.0
H3919 H 0.24016 0.43991 0.27433 0.0
H3920 H 0.32598 0.46069 0.29334 0.0
H3921 H 0.2766 0.43101 0.33683 0.0
H3922 H 0.30433 0.50999 0.28538 0.0
H3923 H 0.29486 0.48653 0.26169 0.0
H3924 H 0.32406 0.49392 0.27632 0.0
H3925 H 0.24535 0.47396 0.3372 0.0
H3926 H 0.2453 0.44574 0.34426 0.0
H3927 H 0.23237 0.44884 0.31596 0.0
C3928 C 0.25478 0.45531 0.05347 0.0
C3929 C 0.2481 0.43158 0.04487 0.0
C3930 C 0.23907 0.46868 0.05151 0.0
C3931 C 0.21613 0.4581 0.04059 0.0
C3932 C 0.20922 0.43409 0.03209 0.0
C3933 C 0.22528 0.42111 0.03438 0.0
C3934 C 0.24707 0.4942 0.0609 0.0
C3935 C 0.18495 0.42219 0.0203 0.0
C3936 C 0.17016 0.48896 0.05218 0.0
C3937 C 0.16861 0.49979 0.03227 0.0
C3938 C 0.18546 0.47526 0.05508 0.0
C3939 C 0.19953 0.47226 0.03764 0.0
C3940 C 0.19794 0.48301 0.01743 0.0
C3941 C 0.18252 0.49665 0.01501 0.0
C3942 C 0.18673 0.46417 0.07691 0.0
C3943 C 0.21256 0.48013 0.99838 0.0
H3944 H 0.27238 0.46349 0.06164 0.0
H3945 H 0.22001 0.40278 0.02768 0.0
H3946 H 0.24546 0.50437 0.04647 0.0
H3947 H 0.23597 0.49858 0.07375 0.0
H3948 H 0.26528 0.49966 0.06948 0.0
H3949 H 0.18219 0.40332 0.01505 0.0
H3950 H 0.17236 0.42477 0.0322 0.0
H3951 H 0.18118 0.42993 0.00451 0.0
H3952 H 0.15968 0.49154 0.06573 0.0
H3953 H 0.18119 0.5047 0.99944 0.0
H3954 H 0.20443 0.47049 0.08668 0.0
H3955 H 0.183 0.44515 0.07219 0.0
H3956 H 0.17438 0.46792 0.08865 0.0
H3957 H 0.23111 0.4867 0.00561 0.0
H3958 H 0.20909 0.48945 0.98367 0.0
H3959 H 0.20925 0.46153 0.99146 0.0
C3960 C 0.87906 0.96778 0.25706 0.0
C3961 C 0.90079 0.9736 0.27071 0.0
C3962 C 0.86302 0.94632 0.25689 0.0
C3963 C 0.86877 0.93056 0.27102 0.0
C3964 C 0.89071 0.93639 0.2848 0.0
C3965 C 0.90652 0.95776 0.28432 0.0
C3966 C 0.83997 0.94052 0.24164 0.0
C3967 C 0.89742 0.92016 0.30028 0.0
C3968 C 0.82228 0.8834 0.28953 0.0
C3969 C 0.82415 0.86369 0.27548 0.0
C3970 C 0.83623 0.90546 0.28779 0.0
C3971 C 0.85205 0.90781 0.27132 0.0
C3972 C 0.8531 0.88807 0.25628 0.0
C3973 C 0.83929 0.86623 0.25869 0.0
C3974 C 0.83483 0.92607 0.30433 0.0
C3975 C 0.86942 0.88988 0.23821 0.0
H3976 H 0.87458 0.98 0.24651 0.0
H3977 H 0.92323 0.96225 0.29504 0.0
H3978 H 0.8375 0.92429 0.22939 0.0
H3979 H 0.82584 0.93749 0.25258 0.0
H3980 H 0.83835 0.95447 0.23133 0.0
H3981 H 0.91496 0.92752 0.31031 0.0
H3982 H 0.88485 0.91613 0.3128 0.0
H3983 H 0.89694 0.90359 0.28954 0.0
H3984 H 0.81067 0.88149 0.30259 0.0
H3985 H 0.84062 0.85106 0.2476 0.0
H3986 H 0.83225 0.94001 0.29447 0.0
H3987 H 0.85134 0.93311 0.31627 0.0
H3988 H 0.82059 0.92159 0.31501 0.0
H3989 H 0.86747 0.90345 0.22753 0.0
H3990 H 0.86648 0.87329 0.22637 0.0
H3991 H 0.88749 0.89501 0.24706 0.0
C3992 C 0.71652 0.12593 0.74432 0.0
C3993 C 0.72037 0.11232 0.76135 0.0
C3994 C 0.72863 0.14936 0.74704 0.0
C3995 C 0.74484 0.15927 0.76729 0.0
C3996 C 0.74989 0.14522 0.78374 0.0
C3997 C 0.73758 0.12184 0.78055 0.0
C3998 C 0.72294 0.16382 0.72904 0.0
C3999 C 0.76711 0.1552 0.80553 0.0
C4000 C 0.78335 0.2202 0.77071 0.0
C4001 C 0.77085 0.23313 0.7828 0.0
C4002 C 0.77517 0.19603 0.76552 0.0
C4003 C 0.75415 0.18469 0.77277 0.0
C4004 C 0.74165 0.19765 0.78525 0.0
C4005 C 0.75011 0.22172 0.79003 0.0
C4006 C 0.78886 0.18267 0.75212 0.0
C4007 C 0.71922 0.18611 0.79346 0.0
H4008 H 0.70335 0.11855 0.72935 0.0
H4009 H 0.74072 0.11129 0.79367 0.0
H4010 H 0.71326 0.17554 0.73653 0.0
H4011 H 0.73896 0.17479 0.7242 0.0
H4012 H 0.71228 0.15302 0.71295 0.0
H4013 H 0.77122 0.14152 0.81494 0.0
H4014 H 0.78335 0.16621 0.80116 0.0
H4015 H 0.75996 0.16635 0.81752 0.0
H4016 H 0.79938 0.22895 0.76503 0.0
H4017 H 0.74039 0.23158 0.79945 0.0
H4018 H 0.7783 0.17315 0.73546 0.0
H4019 H 0.79321 0.16962 0.76229 0.0
H4020 H 0.8051 0.19408 0.74811 0.0
H4021 H 0.70635 0.17656 0.77824 0.0
H4022 H 0.71187 0.1987 0.80334 0.0
H4023 H 0.72196 0.17333 0.80485 0.0
loop_
_geom_bond_atom_site_label_1
_geom_bond_atom_site_label_2
_geom_bond_distance
_geom_bond_site_symmetry_2
_ccdc_geom_bond_type
In0 O1 2.294 . S
In0 O2 2.326 . S
In0 O6 2.266 . S
In0 O7 2.312 1_455 S
In0 O8 2.266 . S
In0 O9 2.326 . S
In0 O11 2.294 . S
In0 O12 2.326 . S
O1 In0 2.294 . S
O1 C10 1.240 . S
O2 In0 2.326 . S
O2 C10 1.252 . S
C3 O6 1.252 1_655 S
C3 O7 1.261 . S
C4 O11 1.240 . S
C4 O12 1.252 . S
C5 O8 1.252 . S
C5 O9 1.260 . S
O6 In0 2.266 . S
O6 C3 1.252 1_455 S
O7 In0 2.312 1_655 S
O7 C3 1.261 . S
O8 In0 2.266 . S
O8 C5 1.252 . S
O9 In0 2.326 . S
O9 C5 1.260 . S
C10 O1 1.240 . S
C10 O2 1.252 . S
O11 In0 2.294 . S
O11 C4 1.240 . S
O12 In0 2.326 . S
O12 C4 1.252 . S
In13 O14 2.294 . S
In13 O15 2.326 . S
In13 O19 2.266 . S
In13 O20 2.326 . S
In13 O21 2.266 . S
In13 O22 2.326 1_455 S
In13 O24 2.294 . S
In13 O25 2.326 . S
O14 In13 2.294 . S
O14 C23 1.240 . S
O15 In13 2.326 . S
O15 C23 1.252 . S
C16 O19 1.252 . S
C16 O20 1.260 . S
C17 O24 1.240 . S
C17 O25 1.252 . S
C18 O21 1.252 1_655 S
C18 O22 1.260 . S
O19 In13 2.266 . S
O19 C16 1.252 . S
O20 In13 2.326 . S
O20 C16 1.260 . S
O21 In13 2.266 . S
O21 C18 1.252 1_455 S
O22 In13 2.326 1_655 S
O22 C18 1.260 . S
C23 O14 1.240 . S
C23 O15 1.252 . S
O24 In13 2.294 . S
O24 C17 1.240 . S
O25 In13 2.326 . S
O25 C17 1.252 . S
In26 O27 2.294 . S
In26 O28 2.326 . S
In26 O32 2.266 . S
In26 O33 2.326 . S
In26 O34 2.266 . S
In26 O35 2.326 . S
In26 O37 2.294 . S
In26 O38 2.326 . S
O27 In26 2.294 . S
O27 C36 1.240 . S
O28 In26 2.326 . S
O28 C36 1.252 . S
C29 O32 1.252 . S
C29 O33 1.260 . S
C30 O37 1.240 . S
C30 O38 1.252 . S
C31 O34 1.252 . S
C31 O35 1.260 . S
O32 In26 2.266 . S
O32 C29 1.252 . S
O33 In26 2.326 . S
O33 C29 1.260 . S
O34 In26 2.266 . S
O34 C31 1.252 . S
O35 In26 2.326 . S
O35 C31 1.260 . S
C36 O27 1.240 . S
C36 O28 1.252 . S
O37 In26 2.294 . S
O37 C30 1.240 . S
O38 In26 2.326 . S
O38 C30 1.252 . S
In39 O40 2.294 . S
In39 O41 2.326 . S
In39 O45 2.266 . S
In39 O46 2.326 . S
In39 O47 2.266 . S
In39 O48 2.326 . S
In39 O50 2.294 . S
In39 O51 2.326 . S
O40 In39 2.294 . S
O40 C49 1.240 . S
O41 In39 2.326 . S
O41 C49 1.252 . S
C42 O45 1.252 . S
C42 O46 1.260 . S
C43 O50 1.240 . S
C43 O51 1.252 . S
C44 O47 1.252 . S
C44 O48 1.260 . S
O45 In39 2.266 . S
O45 C42 1.252 . S
O46 In39 2.326 . S
O46 C42 1.260 . S
O47 In39 2.266 . S
O47 C44 1.252 . S
O48 In39 2.326 . S
O48 C44 1.260 . S
C49 O40 1.240 . S
C49 O41 1.252 . S
O50 In39 2.294 . S
O50 C43 1.240 . S
O51 In39 2.326 . S
O51 C43 1.252 . S
In52 O53 2.294 . S
In52 O54 2.326 . S
In52 O58 2.266 . S
In52 O59 2.326 . S
In52 O60 2.266 . S
In52 O61 2.326 . S
In52 O63 2.294 . S
In52 O64 2.326 . S
O53 In52 2.294 . S
O53 C62 1.240 . S
O54 In52 2.326 . S
O54 C62 1.252 . S
C55 O58 1.252 . S
C55 O59 1.260 . S
C56 O63 1.240 . S
C56 O64 1.252 . S
C57 O60 1.252 . S
C57 O61 1.260 . S
O58 In52 2.266 . S
O58 C55 1.252 . S
O59 In52 2.326 . S
O59 C55 1.260 . S
O60 In52 2.266 . S
O60 C57 1.252 . S
O61 In52 2.326 . S
O61 C57 1.260 . S
C62 O53 1.240 . S
C62 O54 1.252 . S
O63 In52 2.294 . S
O63 C56 1.240 . S
O64 In52 2.326 . S
O64 C56 1.252 . S
In65 O66 2.294 . S
In65 O67 2.326 . S
In65 O71 2.266 . S
In65 O72 2.326 . S
In65 O73 2.266 . S
In65 O74 2.326 . S
In65 O76 2.294 . S
In65 O77 2.326 . S
O66 In65 2.294 . S
O66 C75 1.240 . S
O67 In65 2.326 . S
O67 C75 1.252 . S
C68 O71 1.252 . S
C68 O72 1.260 . S
C69 O76 1.240 . S
C69 O77 1.252 . S
C70 O73 1.252 . S
C70 O74 1.260 . S
O71 In65 2.266 . S
O71 C68 1.252 . S
O72 In65 2.326 . S
O72 C68 1.260 . S
O73 In65 2.266 . S
O73 C70 1.252 . S
O74 In65 2.326 . S
O74 C70 1.260 . S
C75 O66 1.240 . S
C75 O67 1.252 . S
O76 In65 2.294 . S
O76 C69 1.240 . S
O77 In65 2.326 . S
O77 C69 1.252 . S
In78 O79 2.294 . S
In78 O80 2.326 . S
In78 O84 2.266 . S
In78 O85 2.326 . S
In78 O86 2.266 . S
In78 O87 2.326 . S
In78 O89 2.294 . S
In78 O90 2.326 . S
O79 In78 2.294 . S
O79 C88 1.240 . S
O80 In78 2.326 . S
O80 C88 1.252 . S
C81 O84 1.252 . S
C81 O85 1.260 . S
C82 O89 1.240 . S
C82 O90 1.252 . S
C83 O86 1.252 . S
C83 O87 1.260 . S
O84 In78 2.266 . S
O84 C81 1.252 . S
O85 In78 2.326 . S
O85 C81 1.260 . S
O86 In78 2.266 . S
O86 C83 1.252 . S
O87 In78 2.326 . S
O87 C83 1.260 . S
C88 O79 1.240 . S
C88 O80 1.252 . S
O89 In78 2.294 . S
O89 C82 1.240 . S
O90 In78 2.326 . S
O90 C82 1.252 . S
In91 O92 2.295 . S
In91 O93 2.328 1_455 S
In91 O97 2.265 . S
In91 O98 2.324 . S
In91 O99 2.263 1_455 S
In91 O100 2.320 1_455 S
In91 O102 2.298 . S
In91 O103 2.332 . S
O92 In91 2.295 . S
O92 C101 1.235 . S
O93 In91 2.328 1_655 S
O93 C101 1.251 1_655 S
C94 O97 1.252 . S
C94 O98 1.260 . S
C95 O102 1.240 . S
C95 O103 1.252 . S
C96 O99 1.252 . S
C96 O100 1.260 . S
O97 In91 2.265 . S
O97 C94 1.252 . S
O98 In91 2.324 . S
O98 C94 1.260 . S
O99 In91 2.263 1_655 S
O99 C96 1.252 . S
O100 In91 2.320 1_655 S
O100 C96 1.260 . S
C101 O92 1.235 . S
C101 O93 1.251 1_455 S
O102 In91 2.298 . S
O102 C95 1.240 . S
O103 In91 2.332 . S
O103 C95 1.252 . S
In104 O105 2.294 . S
In104 O106 2.326 . S
In104 O110 2.266 . S
In104 O111 2.326 . S
In104 O112 2.266 1_545 S
In104 O113 2.326 1_545 S
In104 O115 2.294 . S
In104 O116 2.326 . S
O105 In104 2.294 . S
O105 C114 1.240 . S
O106 In104 2.326 . S
O106 C114 1.252 . S
C107 O110 1.252 . S
C107 O111 1.260 . S
C108 O115 1.240 . S
C108 O116 1.252 . S
C109 O112 1.252 . S
C109 O113 1.260 . S
O110 In104 2.266 . S
O110 C107 1.252 . S
O111 In104 2.326 . S
O111 C107 1.260 . S
O112 In104 2.266 1_565 S
O112 C109 1.252 . S
O113 In104 2.326 1_565 S
O113 C109 1.260 . S
C114 O105 1.240 . S
C114 O106 1.252 . S
O115 In104 2.294 . S
O115 C108 1.240 . S
O116 In104 2.326 . S
O116 C108 1.252 . S
In117 O118 2.294 . S
In117 O119 2.326 . S
In117 O123 2.266 . S
In117 O124 2.326 . S
In117 O125 2.266 . S
In117 O126 2.326 . S
In117 O128 2.294 . S
In117 O129 2.326 . S
O118 In117 2.294 . S
O118 C127 1.240 . S
O119 In117 2.326 . S
O119 C127 1.252 . S
C120 O123 1.252 . S
C120 O124 1.260 . S
C121 O128 1.240 . S
C121 O129 1.252 . S
C122 O125 1.252 . S
C122 O126 1.260 . S
O123 In117 2.266 . S
O123 C120 1.252 . S
O124 In117 2.326 . S
O124 C120 1.260 . S
O125 In117 2.266 . S
O125 C122 1.252 . S
O126 In117 2.326 . S
O126 C122 1.260 . S
C127 O118 1.240 . S
C127 O119 1.252 . S
O128 In117 2.294 . S
O128 C121 1.240 . S
O129 In117 2.326 . S
O129 C121 1.252 . S
In130 O131 2.294 . S
In130 O132 2.326 . S
In130 O136 2.266 . S
In130 O137 2.326 . S
In130 O138 2.266 . S
In130 O139 2.326 . S
In130 O141 2.294 . S
In130 O142 2.326 . S
O131 In130 2.294 . S
O131 C140 1.240 . S
O132 In130 2.326 . S
O132 C140 1.252 . S
C133 O136 1.252 . S
C133 O137 1.260 . S
C134 O141 1.240 . S
C134 O142 1.252 . S
C135 O138 1.252 . S
C135 O139 1.260 . S
O136 In130 2.266 . S
O136 C133 1.252 . S
O137 In130 2.326 . S
O137 C133 1.260 . S
O138 In130 2.266 . S
O138 C135 1.252 . S
O139 In130 2.326 . S
O139 C135 1.260 . S
C140 O131 1.240 . S
C140 O132 1.252 . S
O141 In130 2.294 . S
O141 C134 1.240 . S
O142 In130 2.326 . S
O142 C134 1.252 . S
In143 O144 2.296 . S
In143 O145 2.329 . S
In143 O149 2.264 1_554 S
In143 O150 2.322 1_554 S
In143 O151 2.258 1_554 S
In143 O152 2.324 1_554 S
In143 O154 2.294 . S
In143 O155 2.321 . S
O144 In143 2.296 . S
O144 C153 1.240 . S
O145 In143 2.329 . S
O145 C153 1.252 . S
C146 O149 1.252 . S
C146 O150 1.260 . S
C147 O154 1.240 . S
C147 O155 1.254 . S
C148 O151 1.252 . S
C148 O152 1.258 . S
O149 In143 2.264 1_556 S
O149 C146 1.252 . S
O150 In143 2.322 1_556 S
O150 C146 1.260 . S
O151 In143 2.258 1_556 S
O151 C148 1.252 . S
O152 In143 2.324 1_556 S
O152 C148 1.258 . S
C153 O144 1.240 . S
C153 O145 1.252 . S
O154 In143 2.294 . S
O154 C147 1.240 . S
O155 In143 2.321 . S
O155 C147 1.254 . S
In156 O157 2.294 . S
In156 O158 2.326 . S
In156 O162 2.266 . S
In156 O163 2.326 1_554 S
In156 O164 2.266 . S
In156 O165 2.326 . S
In156 O167 2.294 . S
In156 O168 2.326 . S
O157 In156 2.294 . S
O157 C166 1.240 . S
O158 In156 2.326 . S
O158 C166 1.252 . S
C159 O162 1.252 1_556 S
C159 O163 1.260 . S
C160 O167 1.240 . S
C160 O168 1.252 . S
C161 O164 1.252 . S
C161 O165 1.260 . S
O162 In156 2.266 . S
O162 C159 1.252 1_554 S
O163 In156 2.326 1_556 S
O163 C159 1.260 . S
O164 In156 2.266 . S
O164 C161 1.252 . S
O165 In156 2.326 . S
O165 C161 1.260 . S
C166 O157 1.240 . S
C166 O158 1.252 . S
O167 In156 2.294 . S
O167 C160 1.240 . S
O168 In156 2.326 . S
O168 C160 1.252 . S
In169 O170 2.294 . S
In169 O171 2.326 . S
In169 O175 2.266 . S
In169 O176 2.326 . S
In169 O177 2.266 . S
In169 O178 2.326 . S
In169 O180 2.294 . S
In169 O181 2.326 . S
O170 In169 2.294 . S
O170 C179 1.240 . S
O171 In169 2.326 . S
O171 C179 1.252 . S
C172 O175 1.252 . S
C172 O176 1.260 . S
C173 O180 1.240 . S
C173 O181 1.252 . S
C174 O177 1.252 . S
C174 O178 1.260 . S
O175 In169 2.266 . S
O175 C172 1.252 . S
O176 In169 2.326 . S
O176 C172 1.260 . S
O177 In169 2.266 . S
O177 C174 1.252 . S
O178 In169 2.326 . S
O178 C174 1.260 . S
C179 O170 1.240 . S
C179 O171 1.252 . S
O180 In169 2.294 . S
O180 C173 1.240 . S
O181 In169 2.326 . S
O181 C173 1.252 . S
In182 O183 2.294 . S
In182 O184 2.326 . S
In182 O188 2.266 . S
In182 O189 2.326 . S
In182 O190 2.266 . S
In182 O191 2.326 . S
In182 O193 2.294 . S
In182 O194 2.326 . S
O183 In182 2.294 . S
O183 C192 1.240 . S
O184 In182 2.326 . S
O184 C192 1.252 . S
C185 O188 1.252 . S
C185 O189 1.260 . S
C186 O193 1.240 . S
C186 O194 1.252 . S
C187 O190 1.252 . S
C187 O191 1.260 . S
O188 In182 2.266 . S
O188 C185 1.252 . S
O189 In182 2.326 . S
O189 C185 1.260 . S
O190 In182 2.266 . S
O190 C187 1.252 . S
O191 In182 2.326 . S
O191 C187 1.260 . S
C192 O183 1.240 . S
C192 O184 1.252 . S
O193 In182 2.294 . S
O193 C186 1.240 . S
O194 In182 2.326 . S
O194 C186 1.252 . S
In195 O196 2.294 . S
In195 O197 2.326 . S
In195 O201 2.266 . S
In195 O202 2.326 . S
In195 O203 2.266 . S
In195 O204 2.326 . S
In195 O206 2.294 . S
In195 O207 2.326 . S
O196 In195 2.294 . S
O196 C205 1.240 . S
O197 In195 2.326 . S
O197 C205 1.252 . S
C198 O201 1.252 . S
C198 O202 1.260 . S
C199 O206 1.240 . S
C199 O207 1.252 . S
C200 O203 1.252 . S
C200 O204 1.260 . S
O201 In195 2.266 . S
O201 C198 1.252 . S
O202 In195 2.326 . S
O202 C198 1.260 . S
O203 In195 2.266 . S
O203 C200 1.252 . S
O204 In195 2.326 . S
O204 C200 1.260 . S
C205 O196 1.240 . S
C205 O197 1.252 . S
O206 In195 2.294 . S
O206 C199 1.240 . S
O207 In195 2.326 . S
O207 C199 1.252 . S
In208 O209 2.294 . S
In208 O210 2.326 . S
In208 O214 2.266 . S
In208 O215 2.326 . S
In208 O216 2.262 1_545 S
In208 O217 2.326 1_545 S
In208 O219 2.294 . S
In208 O220 2.326 . S
O209 In208 2.294 . S
O209 C218 1.240 . S
O210 In208 2.326 . S
O210 C218 1.252 . S
C211 O214 1.252 . S
C211 O215 1.260 . S
C212 O219 1.240 . S
C212 O220 1.252 . S
C213 O216 1.258 . S
C213 O217 1.260 . S
O214 In208 2.266 . S
O214 C211 1.252 . S
O215 In208 2.326 . S
O215 C211 1.260 . S
O216 In208 2.262 1_565 S
O216 C213 1.258 . S
O217 In208 2.326 1_565 S
O217 C213 1.260 . S
C218 O209 1.240 . S
C218 O210 1.252 . S
O219 In208 2.294 . S
O219 C212 1.240 . S
O220 In208 2.326 . S
O220 C212 1.252 . S
In221 O222 2.294 . S
In221 O223 2.326 . S
In221 O227 2.266 . S
In221 O228 2.326 . S
In221 O229 2.266 . S
In221 O230 2.326 . S
In221 O232 2.294 . S
In221 O233 2.326 . S
O222 In221 2.294 . S
O222 C231 1.240 . S
O223 In221 2.326 . S
O223 C231 1.252 . S
C224 O227 1.252 . S
C224 O228 1.260 . S
C225 O232 1.240 . S
C225 O233 1.252 . S
C226 O229 1.252 . S
C226 O230 1.260 . S
O227 In221 2.266 . S
O227 C224 1.252 . S
O228 In221 2.326 . S
O228 C224 1.260 . S
O229 In221 2.266 . S
O229 C226 1.252 . S
O230 In221 2.326 . S
O230 C226 1.260 . S
C231 O222 1.240 . S
C231 O223 1.252 . S
O232 In221 2.294 . S
O232 C225 1.240 . S
O233 In221 2.326 . S
O233 C225 1.252 . S
In234 O235 2.294 . S
In234 O236 2.326 . S
In234 O240 2.266 . S
In234 O241 2.326 . S
In234 O242 2.266 . S
In234 O243 2.326 . S
In234 O245 2.294 . S
In234 O246 2.326 . S
O235 In234 2.294 . S
O235 C244 1.240 . S
O236 In234 2.326 . S
O236 C244 1.252 . S
C237 O240 1.252 . S
C237 O241 1.260 . S
C238 O245 1.240 . S
C238 O246 1.252 . S
C239 O242 1.252 . S
C239 O243 1.260 . S
O240 In234 2.266 . S
O240 C237 1.252 . S
O241 In234 2.326 . S
O241 C237 1.260 . S
O242 In234 2.266 . S
O242 C239 1.252 . S
O243 In234 2.326 . S
O243 C239 1.260 . S
C244 O235 1.240 . S
C244 O236 1.252 . S
O245 In234 2.294 . S
O245 C238 1.240 . S
O246 In234 2.326 . S
O246 C238 1.252 . S
In247 O248 2.294 . S
In247 O249 2.326 . S
In247 O253 2.266 . S
In247 O254 2.326 . S
In247 O255 2.266 . S
In247 O256 2.326 . S
In247 O258 2.294 . S
In247 O259 2.326 . S
O248 In247 2.294 . S
O248 C257 1.240 . S
O249 In247 2.326 . S
O249 C257 1.252 . S
C250 O253 1.252 . S
C250 O254 1.260 . S
C251 O258 1.240 . S
C251 O259 1.252 . S
C252 O255 1.252 . S
C252 O256 1.260 . S
O253 In247 2.266 . S
O253 C250 1.252 . S
O254 In247 2.326 . S
O254 C250 1.260 . S
O255 In247 2.266 . S
O255 C252 1.252 . S
O256 In247 2.326 . S
O256 C252 1.260 . S
C257 O248 1.240 . S
C257 O249 1.252 . S
O258 In247 2.294 . S
O258 C251 1.240 . S
O259 In247 2.326 . S
O259 C251 1.252 . S
In260 O261 2.294 . S
In260 O262 2.326 . S
In260 O266 2.266 . S
In260 O267 2.326 . S
In260 O268 2.266 . S
In260 O269 2.326 1_554 S
In260 O271 2.294 . S
In260 O272 2.326 . S
O261 In260 2.294 . S
O261 C270 1.240 . S
O262 In260 2.326 . S
O262 C270 1.252 . S
C263 O266 1.252 . S
C263 O267 1.260 . S
C264 O271 1.240 . S
C264 O272 1.252 . S
C265 O268 1.252 1_556 S
C265 O269 1.260 . S
O266 In260 2.266 . S
O266 C263 1.252 . S
O267 In260 2.326 . S
O267 C263 1.260 . S
O268 In260 2.266 . S
O268 C265 1.252 1_554 S
O269 In260 2.326 1_556 S
O269 C265 1.260 . S
C270 O261 1.240 . S
C270 O262 1.252 . S
O271 In260 2.294 . S
O271 C264 1.240 . S
O272 In260 2.326 . S
O272 C264 1.252 . S
In273 O274 2.294 . S
In273 O275 2.326 . S
In273 O279 2.266 . S
In273 O280 2.326 . S
In273 O281 2.266 . S
In273 O282 2.326 . S
In273 O284 2.294 . S
In273 O285 2.326 . S
O274 In273 2.294 . S
O274 C283 1.240 . S
O275 In273 2.326 . S
O275 C283 1.252 . S
C276 O279 1.252 . S
C276 O280 1.260 . S
C277 O284 1.240 . S
C277 O285 1.252 . S
C278 O281 1.252 . S
C278 O282 1.260 . S
O279 In273 2.266 . S
O279 C276 1.252 . S
O280 In273 2.326 . S
O280 C276 1.260 . S
O281 In273 2.266 . S
O281 C278 1.252 . S
O282 In273 2.326 . S
O282 C278 1.260 . S
C283 O274 1.240 . S
C283 O275 1.252 . S
O284 In273 2.294 . S
O284 C277 1.240 . S
O285 In273 2.326 . S
O285 C277 1.252 . S
In286 O287 2.294 . S
In286 O288 2.326 . S
In286 O292 2.266 . S
In286 O293 2.326 . S
In286 O294 2.266 . S
In286 O295 2.326 . S
In286 O297 2.294 . S
In286 O298 2.326 . S
O287 In286 2.294 . S
O287 C296 1.240 . S
O288 In286 2.326 . S
O288 C296 1.252 . S
C289 O292 1.252 . S
C289 O293 1.260 . S
C290 O297 1.240 . S
C290 O298 1.252 . S
C291 O294 1.252 . S
C291 O295 1.260 . S
O292 In286 2.266 . S
O292 C289 1.252 . S
O293 In286 2.326 . S
O293 C289 1.260 . S
O294 In286 2.266 . S
O294 C291 1.252 . S
O295 In286 2.326 . S
O295 C291 1.260 . S
C296 O287 1.240 . S
C296 O288 1.252 . S
O297 In286 2.294 . S
O297 C290 1.240 . S
O298 In286 2.326 . S
O298 C290 1.252 . S
In299 O300 2.294 . S
In299 O301 2.326 . S
In299 O305 2.266 . S
In299 O306 2.326 . S
In299 O307 2.266 . S
In299 O308 2.326 . S
In299 O310 2.294 . S
In299 O311 2.326 . S
O300 In299 2.294 . S
O300 C309 1.240 . S
O301 In299 2.326 . S
O301 C309 1.252 . S
C302 O305 1.252 . S
C302 O306 1.260 . S
C303 O310 1.240 . S
C303 O311 1.252 . S
C304 O307 1.252 . S
C304 O308 1.260 . S
O305 In299 2.266 . S
O305 C302 1.252 . S
O306 In299 2.326 . S
O306 C302 1.260 . S
O307 In299 2.266 . S
O307 C304 1.252 . S
O308 In299 2.326 . S
O308 C304 1.260 . S
C309 O300 1.240 . S
C309 O301 1.252 . S
O310 In299 2.294 . S
O310 C303 1.240 . S
O311 In299 2.326 . S
O311 C303 1.252 . S
Dy312 O315 2.307 . S
Dy312 O317 2.395 . S
Dy312 O318 2.379 . S
Dy312 O320 2.339 . S
Dy312 O322 2.298 . S
Dy312 O326 2.275 . S
Dy312 C334 2.738 . S
Dy313 O316 2.298 . S
Dy313 O319 2.275 . S
Dy313 O321 2.307 . S
Dy313 O323 2.395 1_455 S
Dy313 O324 2.379 1_455 S
Dy313 O327 2.339 1_554 S
Dy313 C343 2.738 1_455 S
C314 O326 1.254 . S
C314 O327 1.257 1_554 S
O315 Dy312 2.307 . S
O315 C325 1.266 . S
O316 Dy313 2.298 . S
O316 C325 1.236 . S
O317 Dy312 2.395 . S
O317 C334 1.255 . S
O318 Dy312 2.379 . S
O318 C334 1.249 . S
O319 Dy313 2.275 . S
O319 C335 1.254 . S
O320 Dy312 2.339 . S
O320 C335 1.257 . S
O321 Dy313 2.307 . S
O321 C336 1.266 . S
O322 Dy312 2.298 . S
O322 C336 1.236 . S
O323 Dy313 2.395 1_655 S
O323 C343 1.255 . S
O324 Dy313 2.379 1_655 S
O324 C343 1.249 . S
C325 O315 1.266 . S
C325 O316 1.236 . S
O326 Dy312 2.275 . S
O326 C314 1.254 . S
O327 Dy313 2.339 1_556 S
O327 C314 1.257 1_556 S
C328 C331 1.344 . S
C328 C332 1.328 . S
C328 C334 1.516 . S
C329 C330 1.304 . S
C329 C333 1.323 . S
C330 C329 1.304 . S
C330 C331 1.371 . S
C330 H344 0.930 . S
C331 C328 1.344 . S
C331 C330 1.371 . S
C331 H345 0.931 . S
C332 C328 1.328 . S
C332 C333 1.433 . S
C332 H346 0.931 . S
C333 C329 1.323 . S
C333 C332 1.433 . S
C333 H347 0.933 . S
C334 Dy312 2.738 . S
C334 O317 1.255 . S
C334 O318 1.249 . S
C334 C328 1.516 . S
C335 O319 1.254 . S
C335 O320 1.257 . S
C336 O321 1.266 . S
C336 O322 1.236 . S
C337 C340 1.344 . S
C337 C341 1.328 . S
C337 C343 1.516 . S
C338 C339 1.304 . S
C338 C342 1.323 . S
C339 C338 1.304 . S
C339 C340 1.371 . S
C339 H348 0.930 . S
C340 C337 1.344 . S
C340 C339 1.371 . S
C340 H349 0.931 . S
C341 C337 1.328 . S
C341 C342 1.433 . S
C341 H350 0.931 1_554 S
C342 C338 1.323 . S
C342 C341 1.433 . S
C342 H351 0.933 1_554 S
C343 Dy313 2.738 1_655 S
C343 O323 1.255 . S
C343 O324 1.249 . S
C343 C337 1.516 . S
H344 C330 0.930 . S
H345 C331 0.931 . S
H346 C332 0.931 . S
H347 C333 0.933 . S
H348 C339 0.930 . S
H349 C340 0.931 . S
H350 C341 0.931 1_556 S
H351 C342 0.933 1_556 S
Dy352 O355 2.307 . S
Dy352 O357 2.395 . S
Dy352 O358 2.379 . S
Dy352 O360 2.339 . S
Dy352 O362 2.298 . S
Dy352 O366 2.275 . S
Dy352 C374 2.738 . S
Dy353 O356 2.298 . S
Dy353 O359 2.275 . S
Dy353 O361 2.307 . S
Dy353 O363 2.395 . S
Dy353 O364 2.379 . S
Dy353 O367 2.339 . S
Dy353 C383 2.738 . S
C354 O366 1.254 . S
C354 O367 1.257 . S
O355 Dy352 2.307 . S
O355 C365 1.266 . S
O356 Dy353 2.298 . S
O356 C365 1.236 . S
O357 Dy352 2.395 . S
O357 C374 1.255 . S
O358 Dy352 2.379 . S
O358 C374 1.249 . S
O359 Dy353 2.275 . S
O359 C375 1.254 . S
O360 Dy352 2.339 . S
O360 C375 1.257 . S
O361 Dy353 2.307 . S
O361 C376 1.266 . S
O362 Dy352 2.298 . S
O362 C376 1.236 . S
O363 Dy353 2.395 . S
O363 C383 1.255 . S
O364 Dy353 2.379 . S
O364 C383 1.249 . S
C365 O355 1.266 . S
C365 O356 1.236 . S
O366 Dy352 2.275 . S
O366 C354 1.254 . S
O367 Dy353 2.339 . S
O367 C354 1.257 . S
C368 C371 1.344 . S
C368 C372 1.328 . S
C368 C374 1.516 . S
C369 C370 1.304 . S
C369 C373 1.323 . S
C370 C369 1.304 . S
C370 C371 1.371 . S
C370 H384 0.930 . S
C371 C368 1.344 . S
C371 C370 1.371 . S
C371 H385 0.931 . S
C372 C368 1.328 . S
C372 C373 1.433 . S
C372 H386 0.931 . S
C373 C369 1.323 . S
C373 C372 1.433 . S
C373 H387 0.933 . S
C374 Dy352 2.738 . S
C374 O357 1.255 . S
C374 O358 1.249 . S
C374 C368 1.516 . S
C375 O359 1.254 . S
C375 O360 1.257 . S
C376 O361 1.266 . S
C376 O362 1.236 . S
C377 C380 1.344 . S
C377 C381 1.328 . S
C377 C383 1.516 . S
C378 C379 1.304 . S
C378 C382 1.323 . S
C379 C378 1.304 . S
C379 C380 1.371 . S
C379 H388 0.930 . S
C380 C377 1.344 . S
C380 C379 1.371 . S
C380 H389 0.931 . S
C381 C377 1.328 . S
C381 C382 1.433 . S
C381 H390 0.931 . S
C382 C378 1.323 . S
C382 C381 1.433 . S
C382 H391 0.933 . S
C383 Dy353 2.738 . S
C383 O363 1.255 . S
C383 O364 1.249 . S
C383 C377 1.516 . S
H384 C370 0.930 . S
H385 C371 0.931 . S
H386 C372 0.931 . S
H387 C373 0.933 . S
H388 C379 0.930 . S
H389 C380 0.931 . S
H390 C381 0.931 . S
H391 C382 0.933 . S
Dy392 O395 2.307 1_545 S
Dy392 O397 2.395 . S
Dy392 O398 2.379 . S
Dy392 O400 2.339 . S
Dy392 O402 2.298 . S
Dy392 O406 2.275 . S
Dy392 C414 2.738 . S
Dy393 O396 2.298 1_545 S
Dy393 O399 2.275 . S
Dy393 O401 2.307 . S
Dy393 O403 2.395 . S
Dy393 O404 2.379 . S
Dy393 O407 2.339 . S
Dy393 C423 2.738 . S
C394 O406 1.254 . S
C394 O407 1.257 . S
O395 Dy392 2.307 1_565 S
O395 C405 1.266 . S
O396 Dy393 2.298 1_565 S
O396 C405 1.236 . S
O397 Dy392 2.395 . S
O397 C414 1.255 . S
O398 Dy392 2.379 . S
O398 C414 1.249 . S
O399 Dy393 2.275 . S
O399 C415 1.254 . S
O400 Dy392 2.339 . S
O400 C415 1.257 . S
O401 Dy393 2.307 . S
O401 C416 1.266 . S
O402 Dy392 2.298 . S
O402 C416 1.236 . S
O403 Dy393 2.395 . S
O403 C423 1.255 . S
O404 Dy393 2.379 . S
O404 C423 1.249 . S
C405 O395 1.266 . S
C405 O396 1.236 . S
O406 Dy392 2.275 . S
O406 C394 1.254 . S
O407 Dy393 2.339 . S
O407 C394 1.257 . S
C408 C411 1.344 . S
C408 C412 1.328 . S
C408 C414 1.516 . S
C409 C410 1.304 . S
C409 C413 1.323 . S
C410 C409 1.304 . S
C410 C411 1.371 . S
C410 H424 0.930 . S
C411 C408 1.344 . S
C411 C410 1.371 . S
C411 H425 0.931 . S
C412 C408 1.328 . S
C412 C413 1.433 . S
C412 H426 0.931 . S
C413 C409 1.323 . S
C413 C412 1.433 . S
C413 H427 0.933 . S
C414 Dy392 2.738 . S
C414 O397 1.255 . S
C414 O398 1.249 . S
C414 C408 1.516 . S
C415 O399 1.254 . S
C415 O400 1.257 . S
C416 O401 1.266 . S
C416 O402 1.236 . S
C417 C420 1.344 . S
C417 C421 1.328 . S
C417 C423 1.516 1_565 S
C418 C419 1.304 . S
C418 C422 1.323 . S
C419 C418 1.304 . S
C419 C420 1.371 . S
C419 H428 0.930 . S
C420 C417 1.344 . S
C420 C419 1.371 . S
C420 H429 0.931 . S
C421 C417 1.328 . S
C421 C422 1.433 . S
C421 H430 0.952 . S
C422 C418 1.323 . S
C422 C421 1.433 . S
C422 H431 0.933 . S
C423 Dy393 2.738 . S
C423 O403 1.255 . S
C423 O404 1.249 . S
C423 C417 1.516 1_545 S
H424 C410 0.930 . S
H425 C411 0.931 . S
H426 C412 0.931 . S
H427 C413 0.933 . S
H428 C419 0.930 . S
H429 C420 0.931 . S
H430 C421 0.952 . S
H431 C422 0.933 . S
Dy432 O435 2.307 . S
Dy432 O437 2.395 . S
Dy432 O438 2.379 . S
Dy432 O440 2.339 . S
Dy432 O442 2.298 . S
Dy432 O446 2.275 . S
Dy432 C454 2.738 . S
Dy433 O436 2.298 . S
Dy433 O439 2.275 . S
Dy433 O441 2.307 . S
Dy433 O443 2.395 . S
Dy433 O444 2.379 . S
Dy433 O447 2.339 . S
Dy433 C463 2.738 . S
C434 O446 1.254 . S
C434 O447 1.257 . S
O435 Dy432 2.307 . S
O435 C445 1.266 . S
O436 Dy433 2.298 . S
O436 C445 1.236 . S
O437 Dy432 2.395 . S
O437 C454 1.255 . S
O438 Dy432 2.379 . S
O438 C454 1.249 . S
O439 Dy433 2.275 . S
O439 C455 1.254 . S
O440 Dy432 2.339 . S
O440 C455 1.257 . S
O441 Dy433 2.307 . S
O441 C456 1.266 . S
O442 Dy432 2.298 . S
O442 C456 1.236 . S
O443 Dy433 2.395 . S
O443 C463 1.255 . S
O444 Dy433 2.379 . S
O444 C463 1.249 . S
C445 O435 1.266 . S
C445 O436 1.236 . S
O446 Dy432 2.275 . S
O446 C434 1.254 . S
O447 Dy433 2.339 . S
O447 C434 1.257 . S
C448 C451 1.344 . S
C448 C452 1.328 . S
C448 C454 1.516 . S
C449 C450 1.304 . S
C449 C453 1.323 . S
C450 C449 1.304 . S
C450 C451 1.371 . S
C450 H464 0.930 . S
C451 C448 1.344 . S
C451 C450 1.371 . S
C451 H465 0.931 . S
C452 C448 1.328 . S
C452 C453 1.433 . S
C452 H466 0.931 . S
C453 C449 1.323 . S
C453 C452 1.433 . S
C453 H467 0.933 . S
C454 Dy432 2.738 . S
C454 O437 1.255 . S
C454 O438 1.249 . S
C454 C448 1.516 . S
C455 O439 1.254 . S
C455 O440 1.257 . S
C456 O441 1.266 . S
C456 O442 1.236 . S
C457 C460 1.344 . S
C457 C461 1.328 . S
C457 C463 1.516 . S
C458 C459 1.304 . S
C458 C462 1.323 . S
C459 C458 1.304 . S
C459 C460 1.371 . S
C459 H468 0.930 . S
C460 C457 1.344 . S
C460 C459 1.371 . S
C460 H469 0.931 . S
C461 C457 1.328 . S
C461 C462 1.433 . S
C461 H470 0.931 . S
C462 C458 1.323 . S
C462 C461 1.433 . S
C462 H471 0.933 . S
C463 Dy433 2.738 . S
C463 O443 1.255 . S
C463 O444 1.249 . S
C463 C457 1.516 . S
H464 C450 0.930 . S
H465 C451 0.931 . S
H466 C452 0.931 . S
H467 C453 0.933 . S
H468 C459 0.930 . S
H469 C460 0.931 . S
H470 C461 0.931 . S
H471 C462 0.933 . S
Dy472 O475 2.307 . S
Dy472 O477 2.395 1_545 S
Dy472 O478 2.379 1_545 S
Dy472 O480 2.339 . S
Dy472 O482 2.298 . S
Dy472 O486 2.275 . S
Dy472 C494 2.738 1_545 S
Dy473 O476 2.298 . S
Dy473 O479 2.275 . S
Dy473 O481 2.307 . S
Dy473 O483 2.395 . S
Dy473 O484 2.379 . S
Dy473 O487 2.339 1_455 S
Dy473 C503 2.738 . S
C474 O486 1.215 1_655 S
C474 O487 1.273 . S
O475 Dy472 2.307 . S
O475 C485 1.266 . S
O476 Dy473 2.298 . S
O476 C485 1.236 . S
O477 Dy472 2.395 1_565 S
O477 C494 1.255 . S
O478 Dy472 2.379 1_565 S
O478 C494 1.249 . S
O479 Dy473 2.275 . S
O479 C495 1.254 . S
O480 Dy472 2.339 . S
O480 C495 1.257 . S
O481 Dy473 2.307 . S
O481 C496 1.266 . S
O482 Dy472 2.298 . S
O482 C496 1.236 . S
O483 Dy473 2.395 . S
O483 C503 1.255 . S
O484 Dy473 2.379 . S
O484 C503 1.249 . S
C485 O475 1.266 . S
C485 O476 1.236 . S
O486 Dy472 2.275 . S
O486 C474 1.215 1_455 S
O487 Dy473 2.339 1_655 S
O487 C474 1.273 . S
C488 C491 1.344 . S
C488 C492 1.328 . S
C488 C494 1.516 . S
C489 C490 1.304 . S
C489 C493 1.323 . S
C490 C489 1.304 . S
C490 C491 1.371 . S
C490 H504 0.930 . S
C491 C488 1.344 . S
C491 C490 1.371 . S
C491 H505 0.931 . S
C492 C488 1.328 . S
C492 C493 1.433 . S
C492 H506 0.931 . S
C493 C489 1.323 . S
C493 C492 1.433 . S
C493 H507 0.933 . S
C494 Dy472 2.738 1_565 S
C494 O477 1.255 . S
C494 O478 1.249 . S
C494 C488 1.516 . S
C495 O479 1.254 . S
C495 O480 1.257 . S
C496 O481 1.266 . S
C496 O482 1.236 . S
C497 C500 1.344 . S
C497 C501 1.328 . S
C497 C503 1.516 . S
C498 C499 1.304 . S
C498 C502 1.323 . S
C499 C498 1.304 . S
C499 C500 1.371 . S
C499 H508 0.930 . S
C500 C497 1.344 . S
C500 C499 1.371 . S
C500 H509 0.931 . S
C501 C497 1.328 . S
C501 C502 1.433 . S
C501 H510 0.931 1_455 S
C502 C498 1.323 . S
C502 C501 1.433 . S
C502 H511 0.933 1_455 S
C503 Dy473 2.738 . S
C503 O483 1.255 . S
C503 O484 1.249 . S
C503 C497 1.516 . S
H504 C490 0.930 . S
H505 C491 0.931 . S
H506 C492 0.931 . S
H507 C493 0.933 . S
H508 C499 0.930 . S
H509 C500 0.931 . S
H510 C501 0.931 1_655 S
H511 C502 0.933 1_655 S
Dy512 O515 2.307 . S
Dy512 O517 2.395 . S
Dy512 O518 2.379 . S
Dy512 O520 2.339 . S
Dy512 O522 2.298 . S
Dy512 O526 2.275 . S
Dy512 C534 2.738 . S
Dy513 O516 2.298 . S
Dy513 O519 2.275 . S
Dy513 O521 2.307 . S
Dy513 O523 2.395 . S
Dy513 O524 2.379 . S
Dy513 O527 2.339 . S
Dy513 C543 2.738 . S
C514 O526 1.254 . S
C514 O527 1.257 . S
O515 Dy512 2.307 . S
O515 C525 1.266 . S
O516 Dy513 2.298 . S
O516 C525 1.236 . S
O517 Dy512 2.395 . S
O517 C534 1.255 . S
O518 Dy512 2.379 . S
O518 C534 1.249 . S
O519 Dy513 2.275 . S
O519 C535 1.254 . S
O520 Dy512 2.339 . S
O520 C535 1.257 . S
O521 Dy513 2.307 . S
O521 C536 1.266 . S
O522 Dy512 2.298 . S
O522 C536 1.236 . S
O523 Dy513 2.395 . S
O523 C543 1.255 . S
O524 Dy513 2.379 . S
O524 C543 1.249 . S
C525 O515 1.266 . S
C525 O516 1.236 . S
O526 Dy512 2.275 . S
O526 C514 1.254 . S
O527 Dy513 2.339 . S
O527 C514 1.257 . S
C528 C531 1.344 . S
C528 C532 1.328 . S
C528 C534 1.516 . S
C529 C530 1.304 . S
C529 C533 1.323 . S
C530 C529 1.304 . S
C530 C531 1.371 . S
C530 H544 0.930 . S
C531 C528 1.344 . S
C531 C530 1.371 . S
C531 H545 0.931 . S
C532 C528 1.328 . S
C532 C533 1.433 . S
C532 H546 0.931 . S
C533 C529 1.323 . S
C533 C532 1.433 . S
C533 H547 0.933 . S
C534 Dy512 2.738 . S
C534 O517 1.255 . S
C534 O518 1.249 . S
C534 C528 1.516 . S
C535 O519 1.254 . S
C535 O520 1.257 . S
C536 O521 1.266 . S
C536 O522 1.236 . S
C537 C540 1.344 . S
C537 C541 1.328 . S
C537 C543 1.516 . S
C538 C539 1.304 . S
C538 C542 1.323 . S
C539 C538 1.304 . S
C539 C540 1.371 . S
C539 H548 0.930 . S
C540 C537 1.344 . S
C540 C539 1.371 . S
C540 H549 0.931 . S
C541 C537 1.328 . S
C541 C542 1.433 . S
C541 H550 0.931 . S
C542 C538 1.323 . S
C542 C541 1.433 . S
C542 H551 0.933 . S
C543 Dy513 2.738 . S
C543 O523 1.255 . S
C543 O524 1.249 . S
C543 C537 1.516 . S
H544 C530 0.930 . S
H545 C531 0.931 . S
H546 C532 0.931 . S
H547 C533 0.933 . S
H548 C539 0.930 . S
H549 C540 0.931 . S
H550 C541 0.931 . S
H551 C542 0.933 . S
Dy552 O555 2.307 1_556 S
Dy552 O557 2.395 . S
Dy552 O558 2.379 . S
Dy552 O560 2.339 1_556 S
Dy552 O562 2.298 1_556 S
Dy552 O566 2.275 1_556 S
Dy552 C574 2.738 . S
Dy553 O556 2.298 . S
Dy553 O559 2.275 . S
Dy553 O561 2.307 . S
Dy553 O563 2.395 . S
Dy553 O564 2.379 . S
Dy553 O567 2.339 . S
Dy553 C583 2.738 . S
C554 O566 1.254 . S
C554 O567 1.257 . S
O555 Dy552 2.307 1_554 S
O555 C565 1.266 . S
O556 Dy553 2.298 . S
O556 C565 1.236 . S
O557 Dy552 2.395 . S
O557 C574 1.255 . S
O558 Dy552 2.379 . S
O558 C574 1.249 . S
O559 Dy553 2.275 . S
O559 C575 1.254 . S
O560 Dy552 2.339 1_554 S
O560 C575 1.257 . S
O561 Dy553 2.307 . S
O561 C576 1.266 . S
O562 Dy552 2.298 1_554 S
O562 C576 1.236 . S
O563 Dy553 2.395 . S
O563 C583 1.255 . S
O564 Dy553 2.379 . S
O564 C583 1.249 . S
C565 O555 1.266 . S
C565 O556 1.236 . S
O566 Dy552 2.275 1_554 S
O566 C554 1.254 . S
O567 Dy553 2.339 . S
O567 C554 1.257 . S
C568 C571 1.344 . S
C568 C572 1.328 . S
C568 C574 1.516 . S
C569 C570 1.304 . S
C569 C573 1.323 . S
C570 C569 1.304 . S
C570 C571 1.371 . S
C570 H584 0.930 . S
C571 C568 1.344 . S
C571 C570 1.371 . S
C571 H585 0.931 . S
C572 C568 1.328 . S
C572 C573 1.433 . S
C572 H586 0.931 . S
C573 C569 1.323 . S
C573 C572 1.433 . S
C573 H587 0.933 . S
C574 Dy552 2.738 . S
C574 O557 1.255 . S
C574 O558 1.249 . S
C574 C568 1.516 . S
C575 O559 1.254 . S
C575 O560 1.257 . S
C576 O561 1.266 . S
C576 O562 1.236 . S
C577 C580 1.344 . S
C577 C581 1.328 1_545 S
C577 C583 1.516 . S
C578 C579 1.304 . S
C578 C582 1.323 1_545 S
C579 C578 1.304 . S
C579 C580 1.371 . S
C579 H588 0.930 . S
C580 C577 1.344 . S
C580 C579 1.371 . S
C580 H589 0.931 . S
C581 C577 1.328 1_565 S
C581 C582 1.433 . S
C581 H590 0.931 . S
C582 C578 1.323 1_565 S
C582 C581 1.433 . S
C582 H591 0.933 . S
C583 Dy553 2.738 . S
C583 O563 1.255 . S
C583 O564 1.249 . S
C583 C577 1.516 . S
H584 C570 0.930 . S
H585 C571 0.931 . S
H586 C572 0.931 . S
H587 C573 0.933 . S
H588 C579 0.930 . S
H589 C580 0.931 . S
H590 C581 0.931 . S
H591 C582 0.933 . S
Dy592 O595 2.307 . S
Dy592 O597 2.395 . S
Dy592 O598 2.379 . S
Dy592 O600 2.339 . S
Dy592 O602 2.298 . S
Dy592 O606 2.275 . S
Dy592 C614 2.738 . S
Dy593 O596 2.298 . S
Dy593 O599 2.275 . S
Dy593 O601 2.307 . S
Dy593 O603 2.395 . S
Dy593 O604 2.379 . S
Dy593 O607 2.339 . S
Dy593 C623 2.738 . S
C594 O606 1.254 . S
C594 O607 1.257 . S
O595 Dy592 2.307 . S
O595 C605 1.266 . S
O596 Dy593 2.298 . S
O596 C605 1.236 . S
O597 Dy592 2.395 . S
O597 C614 1.255 . S
O598 Dy592 2.379 . S
O598 C614 1.249 . S
O599 Dy593 2.275 . S
O599 C615 1.254 . S
O600 Dy592 2.339 . S
O600 C615 1.257 . S
O601 Dy593 2.307 . S
O601 C616 1.266 . S
O602 Dy592 2.298 . S
O602 C616 1.236 . S
O603 Dy593 2.395 . S
O603 C623 1.255 . S
O604 Dy593 2.379 . S
O604 C623 1.249 . S
C605 O595 1.266 . S
C605 O596 1.236 . S
O606 Dy592 2.275 . S
O606 C594 1.254 . S
O607 Dy593 2.339 . S
O607 C594 1.257 . S
C608 C611 1.344 . S
C608 C612 1.328 . S
C608 C614 1.516 . S
C609 C610 1.304 . S
C609 C613 1.323 . S
C610 C609 1.304 . S
C610 C611 1.371 . S
C610 H624 0.930 . S
C611 C608 1.344 . S
C611 C610 1.371 . S
C611 H625 0.931 . S
C612 C608 1.328 . S
C612 C613 1.433 . S
C612 H626 0.931 . S
C613 C609 1.323 . S
C613 C612 1.433 . S
C613 H627 0.933 . S
C614 Dy592 2.738 . S
C614 O597 1.255 . S
C614 O598 1.249 . S
C614 C608 1.516 . S
C615 O599 1.254 . S
C615 O600 1.257 . S
C616 O601 1.266 . S
C616 O602 1.236 . S
C617 C620 1.344 . S
C617 C621 1.328 . S
C617 C623 1.516 . S
C618 C619 1.304 . S
C618 C622 1.323 . S
C619 C618 1.304 . S
C619 C620 1.371 . S
C619 H628 0.930 . S
C620 C617 1.344 . S
C620 C619 1.371 . S
C620 H629 0.931 . S
C621 C617 1.328 . S
C621 C622 1.433 . S
C621 H630 0.931 . S
C622 C618 1.323 . S
C622 C621 1.433 . S
C622 H631 0.933 . S
C623 Dy593 2.738 . S
C623 O603 1.255 . S
C623 O604 1.249 . S
C623 C617 1.516 . S
H624 C610 0.930 . S
H625 C611 0.931 . S
H626 C612 0.931 . S
H627 C613 0.933 . S
H628 C619 0.930 . S
H629 C620 0.931 . S
H630 C621 0.931 . S
H631 C622 0.933 . S
Dy632 O635 2.307 1_554 S
Dy632 O637 2.395 . S
Dy632 O638 2.379 . S
Dy632 O640 2.339 . S
Dy632 O642 2.298 . S
Dy632 O646 2.275 . S
Dy632 C654 2.738 . S
Dy633 O636 2.298 1_554 S
Dy633 O639 2.275 . S
Dy633 O641 2.307 . S
Dy633 O643 2.395 . S
Dy633 O644 2.379 . S
Dy633 O647 2.339 . S
Dy633 C663 2.738 . S
C634 O646 1.254 . S
C634 O647 1.257 . S
O635 Dy632 2.307 1_556 S
O635 C645 1.266 . S
O636 Dy633 2.298 1_556 S
O636 C645 1.236 . S
O637 Dy632 2.395 . S
O637 C654 1.255 . S
O638 Dy632 2.379 . S
O638 C654 1.249 . S
O639 Dy633 2.275 . S
O639 C655 1.254 . S
O640 Dy632 2.339 . S
O640 C655 1.257 . S
O641 Dy633 2.307 . S
O641 C656 1.266 . S
O642 Dy632 2.298 . S
O642 C656 1.236 . S
O643 Dy633 2.395 . S
O643 C663 1.255 . S
O644 Dy633 2.379 . S
O644 C663 1.249 . S
C645 O635 1.266 . S
C645 O636 1.236 . S
O646 Dy632 2.275 . S
O646 C634 1.254 . S
O647 Dy633 2.339 . S
O647 C634 1.257 . S
C648 C651 1.344 . S
C648 C652 1.328 . S
C648 C654 1.516 . S
C649 C650 1.304 . S
C649 C653 1.323 . S
C650 C649 1.304 . S
C650 C651 1.371 . S
C650 H664 0.930 . S
C651 C648 1.344 . S
C651 C650 1.371 . S
C651 H665 0.931 . S
C652 C648 1.328 . S
C652 C653 1.433 . S
C652 H666 0.931 . S
C653 C649 1.323 . S
C653 C652 1.433 . S
C653 H667 0.933 . S
C654 Dy632 2.738 . S
C654 O637 1.255 . S
C654 O638 1.249 . S
C654 C648 1.516 . S
C655 O639 1.254 . S
C655 O640 1.257 . S
C656 O641 1.266 . S
C656 O642 1.236 . S
C657 C660 1.344 . S
C657 C661 1.328 . S
C657 C663 1.516 1_556 S
C658 C659 1.304 . S
C658 C662 1.323 . S
C659 C658 1.304 . S
C659 C660 1.371 . S
C659 H668 0.930 . S
C660 C657 1.344 . S
C660 C659 1.371 . S
C660 H669 0.931 . S
C661 C657 1.328 . S
C661 C662 1.433 . S
C661 H670 0.931 . S
C662 C658 1.323 . S
C662 C661 1.433 . S
C662 H671 0.933 . S
C663 Dy633 2.738 . S
C663 O643 1.255 . S
C663 O644 1.249 . S
C663 C657 1.516 1_554 S
H664 C650 0.930 . S
H665 C651 0.931 . S
H666 C652 0.931 . S
H667 C653 0.933 . S
H668 C659 0.930 . S
H669 C660 0.931 . S
H670 C661 0.931 . S
H671 C662 0.933 . S
Dy672 O675 2.307 . S
Dy672 O677 2.395 . S
Dy672 O678 2.379 . S
Dy672 O680 2.339 . S
Dy672 O682 2.298 . S
Dy672 O686 2.275 . S
Dy672 C694 2.738 . S
Dy673 O676 2.298 . S
Dy673 O679 2.275 . S
Dy673 O681 2.307 . S
Dy673 O683 2.395 . S
Dy673 O684 2.379 . S
Dy673 O687 2.339 . S
Dy673 C703 2.738 . S
C674 O686 1.254 . S
C674 O687 1.257 . S
O675 Dy672 2.307 . S
O675 C685 1.266 . S
O676 Dy673 2.298 . S
O676 C685 1.236 . S
O677 Dy672 2.395 . S
O677 C694 1.255 . S
O678 Dy672 2.379 . S
O678 C694 1.249 . S
O679 Dy673 2.275 . S
O679 C695 1.254 . S
O680 Dy672 2.339 . S
O680 C695 1.257 . S
O681 Dy673 2.307 . S
O681 C696 1.266 . S
O682 Dy672 2.298 . S
O682 C696 1.236 . S
O683 Dy673 2.395 . S
O683 C703 1.255 . S
O684 Dy673 2.379 . S
O684 C703 1.249 . S
C685 O675 1.266 . S
C685 O676 1.236 . S
O686 Dy672 2.275 . S
O686 C674 1.254 . S
O687 Dy673 2.339 . S
O687 C674 1.257 . S
C688 C691 1.344 . S
C688 C692 1.328 . S
C688 C694 1.516 . S
C689 C690 1.304 . S
C689 C693 1.323 . S
C690 C689 1.304 . S
C690 C691 1.371 . S
C690 H704 0.930 . S
C691 C688 1.344 . S
C691 C690 1.371 . S
C691 H705 0.931 . S
C692 C688 1.328 . S
C692 C693 1.433 . S
C692 H706 0.931 . S
C693 C689 1.323 . S
C693 C692 1.433 . S
C693 H707 0.933 . S
C694 Dy672 2.738 . S
C694 O677 1.255 . S
C694 O678 1.249 . S
C694 C688 1.516 . S
C695 O679 1.254 . S
C695 O680 1.257 . S
C696 O681 1.266 . S
C696 O682 1.236 . S
C697 C700 1.344 . S
C697 C701 1.328 . S
C697 C703 1.516 . S
C698 C699 1.304 . S
C698 C702 1.323 . S
C699 C698 1.304 . S
C699 C700 1.371 . S
C699 H708 0.930 . S
C700 C697 1.344 . S
C700 C699 1.371 . S
C700 H709 0.931 . S
C701 C697 1.328 . S
C701 C702 1.433 . S
C701 H710 0.931 . S
C702 C698 1.323 . S
C702 C701 1.433 . S
C702 H711 0.933 . S
C703 Dy673 2.738 . S
C703 O683 1.255 . S
C703 O684 1.249 . S
C703 C697 1.516 . S
H704 C690 0.930 . S
H705 C691 0.931 . S
H706 C692 0.931 . S
H707 C693 0.933 . S
H708 C699 0.930 . S
H709 C700 0.931 . S
H710 C701 0.931 . S
H711 C702 0.933 . S
Dy712 O715 2.307 1_455 S
Dy712 O717 2.395 . S
Dy712 O718 2.379 . S
Dy712 O720 2.339 . S
Dy712 O722 2.298 . S
Dy712 O726 2.275 . S
Dy712 C734 2.738 . S
Dy713 O716 2.298 1_455 S
Dy713 O719 2.275 . S
Dy713 O721 2.307 . S
Dy713 O723 2.359 1_455 S
Dy713 O724 2.379 . S
Dy713 O727 2.339 . S
Dy713 C743 2.738 1_455 S
C714 O726 1.254 . S
C714 O727 1.257 . S
O715 Dy712 2.307 1_655 S
O715 C725 1.266 . S
O716 Dy713 2.298 1_655 S
O716 C725 1.236 . S
O717 Dy712 2.395 . S
O717 C734 1.255 . S
O718 Dy712 2.379 . S
O718 C734 1.249 . S
O719 Dy713 2.275 . S
O719 C735 1.254 . S
O720 Dy712 2.339 . S
O720 C735 1.257 . S
O721 Dy713 2.307 . S
O721 C736 1.266 . S
O722 Dy712 2.298 . S
O722 C736 1.236 . S
O723 Dy713 2.359 1_655 S
O723 C743 1.251 . S
O724 Dy713 2.379 . S
O724 C743 1.249 1_455 S
C725 O715 1.266 . S
C725 O716 1.236 . S
O726 Dy712 2.275 . S
O726 C714 1.254 . S
O727 Dy713 2.339 . S
O727 C714 1.257 . S
C728 C731 1.344 . S
C728 C732 1.328 . S
C728 C734 1.516 . S
C729 C730 1.304 . S
C729 C733 1.323 . S
C730 C729 1.304 . S
C730 C731 1.371 . S
C730 H744 0.930 . S
C731 C728 1.344 . S
C731 C730 1.371 . S
C731 H745 0.931 . S
C732 C728 1.328 . S
C732 C733 1.433 . S
C732 H746 0.931 . S
C733 C729 1.323 . S
C733 C732 1.433 . S
C733 H747 0.933 . S
C734 Dy712 2.738 . S
C734 O717 1.255 . S
C734 O718 1.249 . S
C734 C728 1.516 . S
C735 O719 1.254 . S
C735 O720 1.257 . S
C736 O721 1.266 . S
C736 O722 1.236 . S
C737 C740 1.344 . S
C737 C741 1.328 . S
C737 C743 1.516 . S
C738 C739 1.304 . S
C738 C742 1.323 . S
C739 C738 1.304 . S
C739 C740 1.371 . S
C739 H748 0.930 . S
C740 C737 1.344 . S
C740 C739 1.371 . S
C740 H749 0.931 . S
C741 C737 1.328 . S
C741 C742 1.433 . S
C741 H750 0.931 . S
C742 C738 1.323 . S
C742 C741 1.433 . S
C742 H751 0.933 . S
C743 Dy713 2.738 1_655 S
C743 O723 1.251 . S
C743 O724 1.249 1_655 S
C743 C737 1.516 . S
H744 C730 0.930 . S
H745 C731 0.931 . S
H746 C732 0.931 . S
H747 C733 0.933 . S
H748 C739 0.930 . S
H749 C740 0.931 . S
H750 C741 0.931 . S
H751 C742 0.933 . S
Dy752 O755 2.307 . S
Dy752 O757 2.395 . S
Dy752 O758 2.379 . S
Dy752 O760 2.339 . S
Dy752 O762 2.298 . S
Dy752 O766 2.275 . S
Dy752 C774 2.738 . S
Dy753 O756 2.298 . S
Dy753 O759 2.275 . S
Dy753 O761 2.307 . S
Dy753 O763 2.395 . S
Dy753 O764 2.379 . S
Dy753 O767 2.339 . S
Dy753 C783 2.738 . S
C754 O766 1.254 . S
C754 O767 1.257 . S
O755 Dy752 2.307 . S
O755 C765 1.266 . S
O756 Dy753 2.298 . S
O756 C765 1.236 . S
O757 Dy752 2.395 . S
O757 C774 1.255 . S
O758 Dy752 2.379 . S
O758 C774 1.249 . S
O759 Dy753 2.275 . S
O759 C775 1.254 . S
O760 Dy752 2.339 . S
O760 C775 1.257 . S
O761 Dy753 2.307 . S
O761 C776 1.266 . S
O762 Dy752 2.298 . S
O762 C776 1.236 . S
O763 Dy753 2.395 . S
O763 C783 1.255 . S
O764 Dy753 2.379 . S
O764 C783 1.249 . S
C765 O755 1.266 . S
C765 O756 1.236 . S
O766 Dy752 2.275 . S
O766 C754 1.254 . S
O767 Dy753 2.339 . S
O767 C754 1.257 . S
C768 C771 1.344 . S
C768 C772 1.328 . S
C768 C774 1.516 . S
C769 C770 1.304 . S
C769 C773 1.323 . S
C770 C769 1.304 . S
C770 C771 1.371 . S
C770 H784 0.930 . S
C771 C768 1.344 . S
C771 C770 1.371 . S
C771 H785 0.931 . S
C772 C768 1.328 . S
C772 C773 1.433 . S
C772 H786 0.931 . S
C773 C769 1.323 . S
C773 C772 1.433 . S
C773 H787 0.933 . S
C774 Dy752 2.738 . S
C774 O757 1.255 . S
C774 O758 1.249 . S
C774 C768 1.516 . S
C775 O759 1.254 . S
C775 O760 1.257 . S
C776 O761 1.266 . S
C776 O762 1.236 . S
C777 C780 1.344 . S
C777 C781 1.328 . S
C777 C783 1.516 . S
C778 C779 1.304 . S
C778 C782 1.323 . S
C779 C778 1.304 . S
C779 C780 1.371 . S
C779 H788 0.930 . S
C780 C777 1.344 . S
C780 C779 1.371 . S
C780 H789 0.931 . S
C781 C777 1.328 . S
C781 C782 1.433 . S
C781 H790 0.931 . S
C782 C778 1.323 . S
C782 C781 1.433 . S
C782 H791 0.933 . S
C783 Dy753 2.738 . S
C783 O763 1.255 . S
C783 O764 1.249 . S
C783 C777 1.516 . S
H784 C770 0.930 . S
H785 C771 0.931 . S
H786 C772 0.931 . S
H787 C773 0.933 . S
H788 C779 0.930 . S
H789 C780 0.931 . S
H790 C781 0.931 . S
H791 C782 0.933 . S
Dy792 O795 2.307 . S
Dy792 O797 2.395 . S
Dy792 O798 2.379 . S
Dy792 O800 2.339 . S
Dy792 O802 2.298 . S
Dy792 O806 2.275 . S
Dy792 C814 2.738 . S
Dy793 O796 2.298 . S
Dy793 O799 2.275 . S
Dy793 O801 2.307 . S
Dy793 O803 2.395 . S
Dy793 O804 2.379 . S
Dy793 O807 2.339 . S
Dy793 C823 2.738 . S
C794 O806 1.254 . S
C794 O807 1.257 . S
O795 Dy792 2.307 . S
O795 C805 1.266 . S
O796 Dy793 2.298 . S
O796 C805 1.236 . S
O797 Dy792 2.395 . S
O797 C814 1.255 . S
O798 Dy792 2.379 . S
O798 C814 1.249 . S
O799 Dy793 2.275 . S
O799 C815 1.254 . S
O800 Dy792 2.339 . S
O800 C815 1.257 . S
O801 Dy793 2.307 . S
O801 C816 1.266 . S
O802 Dy792 2.298 . S
O802 C816 1.236 . S
O803 Dy793 2.395 . S
O803 C823 1.255 . S
O804 Dy793 2.379 . S
O804 C823 1.249 . S
C805 O795 1.266 . S
C805 O796 1.236 . S
O806 Dy792 2.275 . S
O806 C794 1.254 . S
O807 Dy793 2.339 . S
O807 C794 1.257 . S
C808 C811 1.344 . S
C808 C812 1.328 . S
C808 C814 1.516 . S
C809 C810 1.304 . S
C809 C813 1.323 . S
C810 C809 1.304 . S
C810 C811 1.371 . S
C810 H824 0.930 . S
C811 C808 1.344 . S
C811 C810 1.371 . S
C811 H825 0.931 . S
C812 C808 1.328 . S
C812 C813 1.433 . S
C812 H826 0.931 . S
C813 C809 1.323 . S
C813 C812 1.433 . S
C813 H827 0.933 . S
C814 Dy792 2.738 . S
C814 O797 1.255 . S
C814 O798 1.249 . S
C814 C808 1.516 . S
C815 O799 1.254 . S
C815 O800 1.257 . S
C816 O801 1.266 . S
C816 O802 1.236 . S
C817 C820 1.344 . S
C817 C821 1.328 . S
C817 C823 1.516 . S
C818 C819 1.304 . S
C818 C822 1.323 . S
C819 C818 1.304 . S
C819 C820 1.371 . S
C819 H828 0.930 . S
C820 C817 1.344 . S
C820 C819 1.371 . S
C820 H829 0.931 . S
C821 C817 1.328 . S
C821 C822 1.433 . S
C821 H830 0.931 . S
C822 C818 1.323 . S
C822 C821 1.433 . S
C822 H831 0.933 . S
C823 Dy793 2.738 . S
C823 O803 1.255 . S
C823 O804 1.249 . S
C823 C817 1.516 . S
H824 C810 0.930 . S
H825 C811 0.931 . S
H826 C812 0.931 . S
H827 C813 0.933 . S
H828 C819 0.930 . S
H829 C820 0.931 . S
H830 C821 0.931 . S
H831 C822 0.933 . S
Dy832 O835 2.307 . S
Dy832 O837 2.395 . S
Dy832 O838 2.379 . S
Dy832 O840 2.339 . S
Dy832 O842 2.298 . S
Dy832 O846 2.275 . S
Dy832 C854 2.738 . S
Dy833 O836 2.298 . S
Dy833 O839 2.275 . S
Dy833 O841 2.307 . S
Dy833 O843 2.395 . S
Dy833 O844 2.379 . S
Dy833 O847 2.339 . S
Dy833 C863 2.738 . S
C834 O846 1.254 . S
C834 O847 1.257 . S
O835 Dy832 2.307 . S
O835 C845 1.266 . S
O836 Dy833 2.298 . S
O836 C845 1.236 . S
O837 Dy832 2.395 . S
O837 C854 1.255 . S
O838 Dy832 2.379 . S
O838 C854 1.249 . S
O839 Dy833 2.275 . S
O839 C855 1.254 . S
O840 Dy832 2.339 . S
O840 C855 1.257 . S
O841 Dy833 2.307 . S
O841 C856 1.266 . S
O842 Dy832 2.298 . S
O842 C856 1.236 . S
O843 Dy833 2.395 . S
O843 C863 1.255 . S
O844 Dy833 2.379 . S
O844 C863 1.249 . S
C845 O835 1.266 . S
C845 O836 1.236 . S
O846 Dy832 2.275 . S
O846 C834 1.254 . S
O847 Dy833 2.339 . S
O847 C834 1.257 . S
C848 C851 1.344 . S
C848 C852 1.328 . S
C848 C854 1.516 . S
C849 C850 1.304 . S
C849 C853 1.323 . S
C850 C849 1.304 . S
C850 C851 1.371 . S
C850 H864 0.930 . S
C851 C848 1.344 . S
C851 C850 1.371 . S
C851 H865 0.931 . S
C852 C848 1.328 . S
C852 C853 1.433 . S
C852 H866 0.931 . S
C853 C849 1.323 . S
C853 C852 1.433 . S
C853 H867 0.933 . S
C854 Dy832 2.738 . S
C854 O837 1.255 . S
C854 O838 1.249 . S
C854 C848 1.516 . S
C855 O839 1.254 . S
C855 O840 1.257 . S
C856 O841 1.266 . S
C856 O842 1.236 . S
C857 C860 1.344 . S
C857 C861 1.328 . S
C857 C863 1.516 . S
C858 C859 1.304 . S
C858 C862 1.323 . S
C859 C858 1.304 . S
C859 C860 1.371 . S
C859 H868 0.930 . S
C860 C857 1.344 . S
C860 C859 1.371 . S
C860 H869 0.931 . S
C861 C857 1.328 . S
C861 C862 1.433 . S
C861 H870 0.931 . S
C862 C858 1.323 . S
C862 C861 1.433 . S
C862 H871 0.933 . S
C863 Dy833 2.738 . S
C863 O843 1.255 . S
C863 O844 1.249 . S
C863 C857 1.516 . S
H864 C850 0.930 . S
H865 C851 0.931 . S
H866 C852 0.931 . S
H867 C853 0.933 . S
H868 C859 0.930 . S
H869 C860 0.931 . S
H870 C861 0.931 . S
H871 C862 0.933 . S
Dy872 O875 2.307 . S
Dy872 O877 2.395 . S
Dy872 O878 2.379 . S
Dy872 O880 2.339 . S
Dy872 O882 2.298 . S
Dy872 O886 2.275 . S
Dy872 C894 2.738 . S
Dy873 O876 2.298 . S
Dy873 O879 2.275 . S
Dy873 O881 2.307 . S
Dy873 O883 2.395 . S
Dy873 O884 2.379 . S
Dy873 O887 2.339 . S
Dy873 C903 2.738 . S
C874 O886 1.254 . S
C874 O887 1.257 . S
O875 Dy872 2.307 . S
O875 C885 1.266 . S
O876 Dy873 2.298 . S
O876 C885 1.236 . S
O877 Dy872 2.395 . S
O877 C894 1.255 . S
O878 Dy872 2.379 . S
O878 C894 1.249 . S
O879 Dy873 2.275 . S
O879 C895 1.254 . S
O880 Dy872 2.339 . S
O880 C895 1.257 . S
O881 Dy873 2.307 . S
O881 C896 1.266 . S
O882 Dy872 2.298 . S
O882 C896 1.236 . S
O883 Dy873 2.395 . S
O883 C903 1.255 . S
O884 Dy873 2.379 . S
O884 C903 1.249 . S
C885 O875 1.266 . S
C885 O876 1.236 . S
O886 Dy872 2.275 . S
O886 C874 1.254 . S
O887 Dy873 2.339 . S
O887 C874 1.257 . S
C888 C891 1.344 . S
C888 C892 1.328 . S
C888 C894 1.516 . S
C889 C890 1.304 . S
C889 C893 1.323 . S
C890 C889 1.304 . S
C890 C891 1.371 . S
C890 H904 0.930 . S
C891 C888 1.344 . S
C891 C890 1.371 . S
C891 H905 0.931 . S
C892 C888 1.328 . S
C892 C893 1.433 . S
C892 H906 0.931 . S
C893 C889 1.323 . S
C893 C892 1.433 . S
C893 H907 0.933 . S
C894 Dy872 2.738 . S
C894 O877 1.255 . S
C894 O878 1.249 . S
C894 C888 1.516 . S
C895 O879 1.254 . S
C895 O880 1.257 . S
C896 O881 1.266 . S
C896 O882 1.236 . S
C897 C900 1.344 . S
C897 C901 1.328 . S
C897 C903 1.516 . S
C898 C899 1.304 . S
C898 C902 1.323 . S
C899 C898 1.304 . S
C899 C900 1.371 . S
C899 H908 0.930 . S
C900 C897 1.344 . S
C900 C899 1.371 . S
C900 H909 0.931 . S
C901 C897 1.328 . S
C901 C902 1.433 . S
C901 H910 0.931 . S
C902 C898 1.323 . S
C902 C901 1.433 . S
C902 H911 0.933 . S
C903 Dy873 2.738 . S
C903 O883 1.255 . S
C903 O884 1.249 . S
C903 C897 1.516 . S
H904 C890 0.930 . S
H905 C891 0.931 . S
H906 C892 0.931 . S
H907 C893 0.933 . S
H908 C899 0.930 . S
H909 C900 0.931 . S
H910 C901 0.931 . S
H911 C902 0.933 . S
Dy912 O915 2.307 1_655 S
Dy912 O917 2.395 . S
Dy912 O918 2.379 . S
Dy912 O920 2.339 1_655 S
Dy912 O922 2.298 1_655 S
Dy912 O926 2.275 1_655 S
Dy912 C934 2.738 . S
Dy913 O916 2.298 . S
Dy913 O919 2.275 . S
Dy913 O921 2.307 . S
Dy913 O923 2.395 . S
Dy913 O924 2.379 . S
Dy913 O927 2.339 1_554 S
Dy913 C943 2.738 . S
C914 O926 1.254 . S
C914 O927 1.257 1_554 S
O915 Dy912 2.307 1_455 S
O915 C925 1.266 . S
O916 Dy913 2.298 . S
O916 C925 1.236 . S
O917 Dy912 2.395 . S
O917 C934 1.255 . S
O918 Dy912 2.379 . S
O918 C934 1.249 . S
O919 Dy913 2.275 . S
O919 C935 1.254 . S
O920 Dy912 2.339 1_455 S
O920 C935 1.257 . S
O921 Dy913 2.307 . S
O921 C936 1.266 . S
O922 Dy912 2.298 1_455 S
O922 C936 1.236 . S
O923 Dy913 2.395 . S
O923 C943 1.255 . S
O924 Dy913 2.379 . S
O924 C943 1.249 . S
C925 O915 1.266 . S
C925 O916 1.236 . S
O926 Dy912 2.275 1_455 S
O926 C914 1.254 . S
O927 Dy913 2.339 1_556 S
O927 C914 1.257 1_556 S
C928 C931 1.344 . S
C928 C932 1.328 . S
C928 C934 1.516 . S
C929 C930 1.304 . S
C929 C933 1.323 . S
C930 C929 1.304 . S
C930 C931 1.371 . S
C930 H944 0.930 . S
C931 C928 1.344 . S
C931 C930 1.371 . S
C931 H945 0.931 . S
C932 C928 1.328 . S
C932 C933 1.433 . S
C932 H946 0.931 . S
C933 C929 1.323 . S
C933 C932 1.433 . S
C933 H947 0.933 . S
C934 Dy912 2.738 . S
C934 O917 1.255 . S
C934 O918 1.249 . S
C934 C928 1.516 . S
C935 O919 1.254 . S
C935 O920 1.257 . S
C936 O921 1.266 . S
C936 O922 1.236 . S
C937 C940 1.344 . S
C937 C941 1.328 . S
C937 C943 1.516 . S
C938 C939 1.304 . S
C938 C942 1.337 . S
C939 C938 1.304 . S
C939 C940 1.371 . S
C939 H948 0.930 . S
C940 C937 1.344 . S
C940 C939 1.371 . S
C940 H949 0.931 . S
C941 C937 1.328 . S
C941 C942 1.435 . S
C941 H950 0.931 1_554 S
C942 C938 1.337 . S
C942 C941 1.435 . S
C942 H951 0.917 1_554 S
C943 Dy913 2.738 . S
C943 O923 1.255 . S
C943 O924 1.249 . S
C943 C937 1.516 . S
H944 C930 0.930 . S
H945 C931 0.931 . S
H946 C932 0.931 . S
H947 C933 0.933 . S
H948 C939 0.930 . S
H949 C940 0.931 . S
H950 C941 0.931 1_556 S
H951 C942 0.917 1_556 S
C952 C953 1.391 1_655 S
C952 C954 1.409 . S
C952 H968 0.931 . S
C953 C952 1.391 1_455 S
C953 C957 1.376 . S
C954 C952 1.409 . S
C954 C955 1.363 1_656 S
C954 C958 1.521 1_556 S
C955 C954 1.363 1_454 S
C955 C956 1.410 . S
C955 C963 1.503 . S
C956 C955 1.410 . S
C956 C957 1.392 1_554 S
C956 C959 1.511 . S
C957 C953 1.376 . S
C957 C956 1.392 1_556 S
C957 H969 0.929 . S
C958 C954 1.521 1_554 S
C958 H970 0.960 1_554 S
C958 H971 0.967 . S
C958 H972 0.957 1_554 S
C959 C956 1.511 . S
C959 H973 0.961 . S
C959 H974 0.961 . S
C959 H975 0.961 1_554 S
C960 C961 1.370 . S
C960 C962 1.363 . S
C960 H976 0.931 . S
C961 C960 1.370 . S
C961 C965 1.408 . S
C962 C960 1.363 . S
C962 C963 1.370 . S
C962 C966 1.524 . S
C963 C955 1.503 . S
C963 C962 1.370 . S
C963 C964 1.403 . S
C964 C963 1.403 . S
C964 C965 1.404 . S
C964 C967 1.539 1_554 S
C965 C961 1.408 . S
C965 C964 1.404 . S
C965 H977 0.930 . S
C966 C962 1.524 . S
C966 H978 0.956 . S
C966 H979 0.961 . S
C966 H980 0.961 . S
C967 C964 1.539 1_556 S
C967 H981 0.958 . S
C967 H982 0.961 . S
C967 H983 0.960 . S
H968 C952 0.931 . S
H969 C957 0.929 . S
H970 C958 0.960 1_556 S
H971 C958 0.967 . S
H972 C958 0.957 1_556 S
H973 C959 0.961 . S
H974 C959 0.961 . S
H975 C959 0.961 1_556 S
H976 C960 0.931 . S
H977 C965 0.930 . S
H978 C966 0.956 . S
H979 C966 0.961 . S
H980 C966 0.961 . S
H981 C967 0.958 . S
H982 C967 0.961 . S
H983 C967 0.960 . S
C984 C985 1.391 . S
C984 C986 1.394 . S
C984 H1000 0.931 . S
C985 C984 1.391 . S
C985 C989 1.376 . S
C986 C984 1.394 . S
C986 C987 1.369 . S
C986 C990 1.531 . S
C987 C986 1.369 . S
C987 C988 1.410 . S
C987 C995 1.503 . S
C988 C987 1.410 . S
C988 C989 1.392 . S
C988 C991 1.511 . S
C989 C985 1.376 . S
C989 C988 1.392 . S
C989 H1001 0.929 . S
C990 C986 1.531 . S
C990 H1002 0.960 . S
C990 H1003 0.962 . S
C990 H1004 0.960 . S
C991 C988 1.511 . S
C991 H1005 0.961 . S
C991 H1006 0.961 . S
C991 H1007 0.961 . S
C992 C993 1.370 . S
C992 C994 1.363 . S
C992 H1008 0.931 . S
C993 C992 1.370 . S
C993 C997 1.408 . S
C994 C992 1.363 . S
C994 C995 1.370 . S
C994 C998 1.524 . S
C995 C987 1.503 . S
C995 C994 1.370 . S
C995 C996 1.403 . S
C996 C995 1.403 . S
C996 C997 1.404 . S
C996 C999 1.539 . S
C997 C993 1.408 . S
C997 C996 1.404 . S
C997 H1009 0.930 . S
C998 C994 1.524 . S
C998 H1010 0.956 . S
C998 H1011 0.961 . S
C998 H1012 0.961 . S
C999 C996 1.539 . S
C999 H1013 0.958 . S
C999 H1014 0.961 . S
C999 H1015 0.960 . S
H1000 C984 0.931 . S
H1001 C989 0.929 . S
H1002 C990 0.960 . S
H1003 C990 0.962 . S
H1004 C990 0.960 . S
H1005 C991 0.961 . S
H1006 C991 0.961 . S
H1007 C991 0.961 . S
H1008 C992 0.931 . S
H1009 C997 0.930 . S
H1010 C998 0.956 . S
H1011 C998 0.961 . S
H1012 C998 0.961 . S
H1013 C999 0.958 . S
H1014 C999 0.961 . S
H1015 C999 0.960 . S
C1016 C1017 1.391 . S
C1016 C1018 1.394 . S
C1016 H1032 0.931 . S
C1017 C1016 1.391 . S
C1017 C1021 1.376 . S
C1018 C1016 1.394 . S
C1018 C1019 1.369 . S
C1018 C1022 1.531 . S
C1019 C1018 1.369 . S
C1019 C1020 1.410 . S
C1019 C1027 1.503 . S
C1020 C1019 1.410 . S
C1020 C1021 1.392 . S
C1020 C1023 1.511 . S
C1021 C1017 1.376 . S
C1021 C1020 1.392 . S
C1021 H1033 0.929 . S
C1022 C1018 1.531 . S
C1022 H1034 0.960 . S
C1022 H1035 0.962 . S
C1022 H1036 0.960 . S
C1023 C1020 1.511 . S
C1023 H1037 0.961 . S
C1023 H1038 0.961 . S
C1023 H1039 0.961 . S
C1024 C1025 1.370 . S
C1024 C1026 1.363 . S
C1024 H1040 0.931 . S
C1025 C1024 1.370 . S
C1025 C1029 1.408 . S
C1026 C1024 1.363 . S
C1026 C1027 1.370 . S
C1026 C1030 1.524 . S
C1027 C1019 1.503 . S
C1027 C1026 1.370 . S
C1027 C1028 1.403 . S
C1028 C1027 1.403 . S
C1028 C1029 1.404 . S
C1028 C1031 1.539 . S
C1029 C1025 1.408 . S
C1029 C1028 1.404 . S
C1029 H1041 0.930 . S
C1030 C1026 1.524 . S
C1030 H1042 0.956 . S
C1030 H1043 0.961 . S
C1030 H1044 0.961 . S
C1031 C1028 1.539 . S
C1031 H1045 0.958 . S
C1031 H1046 0.961 . S
C1031 H1047 0.960 . S
H1032 C1016 0.931 . S
H1033 C1021 0.929 . S
H1034 C1022 0.960 . S
H1035 C1022 0.962 . S
H1036 C1022 0.960 . S
H1037 C1023 0.961 . S
H1038 C1023 0.961 . S
H1039 C1023 0.961 . S
H1040 C1024 0.931 . S
H1041 C1029 0.930 . S
H1042 C1030 0.956 . S
H1043 C1030 0.961 . S
H1044 C1030 0.961 . S
H1045 C1031 0.958 . S
H1046 C1031 0.961 . S
H1047 C1031 0.960 . S
C1048 C1049 1.391 . S
C1048 C1050 1.394 . S
C1048 H1064 0.931 . S
C1049 C1048 1.391 . S
C1049 C1053 1.376 . S
C1050 C1048 1.394 . S
C1050 C1051 1.369 . S
C1050 C1054 1.531 . S
C1051 C1050 1.369 . S
C1051 C1052 1.410 . S
C1051 C1059 1.503 . S
C1052 C1051 1.410 . S
C1052 C1053 1.392 . S
C1052 C1055 1.511 . S
C1053 C1049 1.376 . S
C1053 C1052 1.392 . S
C1053 H1065 0.929 . S
C1054 C1050 1.531 . S
C1054 H1066 0.960 . S
C1054 H1067 0.962 . S
C1054 H1068 0.960 . S
C1055 C1052 1.511 . S
C1055 H1069 0.961 . S
C1055 H1070 0.961 . S
C1055 H1071 0.961 . S
C1056 C1057 1.370 . S
C1056 C1058 1.363 . S
C1056 H1072 0.931 . S
C1057 C1056 1.370 . S
C1057 C1061 1.408 . S
C1058 C1056 1.363 . S
C1058 C1059 1.370 . S
C1058 C1062 1.524 . S
C1059 C1051 1.503 . S
C1059 C1058 1.370 . S
C1059 C1060 1.403 . S
C1060 C1059 1.403 . S
C1060 C1061 1.404 . S
C1060 C1063 1.539 . S
C1061 C1057 1.408 . S
C1061 C1060 1.404 . S
C1061 H1073 0.930 . S
C1062 C1058 1.524 . S
C1062 H1074 0.956 . S
C1062 H1075 0.961 . S
C1062 H1076 0.961 . S
C1063 C1060 1.539 . S
C1063 H1077 0.958 . S
C1063 H1078 0.961 . S
C1063 H1079 0.960 . S
H1064 C1048 0.931 . S
H1065 C1053 0.929 . S
H1066 C1054 0.960 . S
H1067 C1054 0.962 . S
H1068 C1054 0.960 . S
H1069 C1055 0.961 . S
H1070 C1055 0.961 . S
H1071 C1055 0.961 . S
H1072 C1056 0.931 . S
H1073 C1061 0.930 . S
H1074 C1062 0.956 . S
H1075 C1062 0.961 . S
H1076 C1062 0.961 . S
H1077 C1063 0.958 . S
H1078 C1063 0.961 . S
H1079 C1063 0.960 . S
C1080 C1081 1.391 . S
C1080 C1082 1.394 . S
C1080 H1096 0.931 . S
C1081 C1080 1.391 . S
C1081 C1085 1.376 . S
C1082 C1080 1.394 . S
C1082 C1083 1.369 . S
C1082 C1086 1.531 . S
C1083 C1082 1.369 . S
C1083 C1084 1.410 . S
C1083 C1091 1.503 . S
C1084 C1083 1.410 . S
C1084 C1085 1.392 . S
C1084 C1087 1.511 . S
C1085 C1081 1.376 . S
C1085 C1084 1.392 . S
C1085 H1097 0.929 . S
C1086 C1082 1.531 . S
C1086 H1098 0.960 . S
C1086 H1099 0.962 . S
C1086 H1100 0.960 . S
C1087 C1084 1.511 . S
C1087 H1101 0.961 . S
C1087 H1102 0.961 . S
C1087 H1103 0.961 . S
C1088 C1089 1.370 . S
C1088 C1090 1.363 . S
C1088 H1104 0.931 . S
C1089 C1088 1.370 . S
C1089 C1093 1.408 . S
C1090 C1088 1.363 . S
C1090 C1091 1.370 . S
C1090 C1094 1.524 . S
C1091 C1083 1.503 . S
C1091 C1090 1.370 . S
C1091 C1092 1.403 . S
C1092 C1091 1.403 . S
C1092 C1093 1.404 . S
C1092 C1095 1.539 . S
C1093 C1089 1.408 . S
C1093 C1092 1.404 . S
C1093 H1105 0.930 . S
C1094 C1090 1.524 . S
C1094 H1106 0.956 . S
C1094 H1107 0.961 . S
C1094 H1108 0.961 . S
C1095 C1092 1.539 . S
C1095 H1109 0.958 . S
C1095 H1110 0.961 . S
C1095 H1111 0.960 . S
H1096 C1080 0.931 . S
H1097 C1085 0.929 . S
H1098 C1086 0.960 . S
H1099 C1086 0.962 . S
H1100 C1086 0.960 . S
H1101 C1087 0.961 . S
H1102 C1087 0.961 . S
H1103 C1087 0.961 . S
H1104 C1088 0.931 . S
H1105 C1093 0.930 . S
H1106 C1094 0.956 . S
H1107 C1094 0.961 . S
H1108 C1094 0.961 . S
H1109 C1095 0.958 . S
H1110 C1095 0.961 . S
H1111 C1095 0.960 . S
C1112 C1113 1.391 . S
C1112 C1114 1.394 . S
C1112 H1128 0.931 . S
C1113 C1112 1.391 . S
C1113 C1117 1.376 . S
C1114 C1112 1.394 . S
C1114 C1115 1.369 . S
C1114 C1118 1.531 . S
C1115 C1114 1.369 . S
C1115 C1116 1.410 . S
C1115 C1123 1.503 . S
C1116 C1115 1.410 . S
C1116 C1117 1.392 . S
C1116 C1119 1.511 . S
C1117 C1113 1.376 . S
C1117 C1116 1.392 . S
C1117 H1129 0.929 . S
C1118 C1114 1.531 . S
C1118 H1130 0.960 . S
C1118 H1131 0.962 . S
C1118 H1132 0.960 . S
C1119 C1116 1.511 . S
C1119 H1133 0.961 . S
C1119 H1134 0.961 . S
C1119 H1135 0.961 . S
C1120 C1121 1.370 . S
C1120 C1122 1.363 . S
C1120 H1136 0.931 . S
C1121 C1120 1.370 . S
C1121 C1125 1.408 . S
C1122 C1120 1.363 . S
C1122 C1123 1.370 . S
C1122 C1126 1.524 . S
C1123 C1115 1.503 . S
C1123 C1122 1.370 . S
C1123 C1124 1.403 . S
C1124 C1123 1.403 . S
C1124 C1125 1.404 . S
C1124 C1127 1.539 . S
C1125 C1121 1.408 . S
C1125 C1124 1.404 . S
C1125 H1137 0.930 . S
C1126 C1122 1.524 . S
C1126 H1138 0.956 . S
C1126 H1139 0.961 . S
C1126 H1140 0.961 . S
C1127 C1124 1.539 . S
C1127 H1141 0.958 . S
C1127 H1142 0.961 . S
C1127 H1143 0.960 . S
H1128 C1112 0.931 . S
H1129 C1117 0.929 . S
H1130 C1118 0.960 . S
H1131 C1118 0.962 . S
H1132 C1118 0.960 . S
H1133 C1119 0.961 . S
H1134 C1119 0.961 . S
H1135 C1119 0.961 . S
H1136 C1120 0.931 . S
H1137 C1125 0.930 . S
H1138 C1126 0.956 . S
H1139 C1126 0.961 . S
H1140 C1126 0.961 . S
H1141 C1127 0.958 . S
H1142 C1127 0.961 . S
H1143 C1127 0.960 . S
C1144 C1145 1.391 . S
C1144 C1146 1.394 . S
C1144 H1160 0.931 . S
C1145 C1144 1.391 . S
C1145 C1149 1.376 . S
C1146 C1144 1.394 . S
C1146 C1147 1.369 . S
C1146 C1150 1.531 . S
C1147 C1146 1.369 . S
C1147 C1148 1.410 . S
C1147 C1155 1.503 . S
C1148 C1147 1.410 . S
C1148 C1149 1.392 . S
C1148 C1151 1.511 . S
C1149 C1145 1.376 . S
C1149 C1148 1.392 . S
C1149 H1161 0.929 . S
C1150 C1146 1.531 . S
C1150 H1162 0.960 . S
C1150 H1163 0.962 . S
C1150 H1164 0.960 . S
C1151 C1148 1.511 . S
C1151 H1165 0.961 . S
C1151 H1166 0.961 . S
C1151 H1167 0.961 . S
C1152 C1153 1.370 . S
C1152 C1154 1.363 . S
C1152 H1168 0.931 . S
C1153 C1152 1.370 . S
C1153 C1157 1.408 . S
C1154 C1152 1.363 . S
C1154 C1155 1.370 . S
C1154 C1158 1.524 . S
C1155 C1147 1.503 . S
C1155 C1154 1.370 . S
C1155 C1156 1.403 . S
C1156 C1155 1.403 . S
C1156 C1157 1.404 . S
C1156 C1159 1.539 . S
C1157 C1153 1.408 . S
C1157 C1156 1.404 . S
C1157 H1169 0.930 . S
C1158 C1154 1.524 . S
C1158 H1170 0.956 . S
C1158 H1171 0.961 . S
C1158 H1172 0.961 . S
C1159 C1156 1.539 . S
C1159 H1173 0.958 . S
C1159 H1174 0.961 . S
C1159 H1175 0.960 . S
H1160 C1144 0.931 . S
H1161 C1149 0.929 . S
H1162 C1150 0.960 . S
H1163 C1150 0.962 . S
H1164 C1150 0.960 . S
H1165 C1151 0.961 . S
H1166 C1151 0.961 . S
H1167 C1151 0.961 . S
H1168 C1152 0.931 . S
H1169 C1157 0.930 . S
H1170 C1158 0.956 . S
H1171 C1158 0.961 . S
H1172 C1158 0.961 . S
H1173 C1159 0.958 . S
H1174 C1159 0.961 . S
H1175 C1159 0.960 . S
C1176 C1177 1.391 . S
C1176 C1178 1.394 . S
C1176 H1192 0.931 . S
C1177 C1176 1.391 . S
C1177 C1181 1.376 . S
C1178 C1176 1.394 . S
C1178 C1179 1.369 . S
C1178 C1182 1.531 . S
C1179 C1178 1.369 . S
C1179 C1180 1.410 . S
C1179 C1187 1.503 . S
C1180 C1179 1.410 . S
C1180 C1181 1.392 . S
C1180 C1183 1.511 . S
C1181 C1177 1.376 . S
C1181 C1180 1.392 . S
C1181 H1193 0.929 . S
C1182 C1178 1.531 . S
C1182 H1194 0.960 . S
C1182 H1195 0.962 . S
C1182 H1196 0.960 . S
C1183 C1180 1.511 . S
C1183 H1197 0.961 . S
C1183 H1198 0.961 . S
C1183 H1199 0.961 . S
C1184 C1185 1.370 . S
C1184 C1186 1.363 . S
C1184 H1200 0.931 . S
C1185 C1184 1.370 . S
C1185 C1189 1.408 . S
C1186 C1184 1.363 . S
C1186 C1187 1.370 . S
C1186 C1190 1.524 . S
C1187 C1179 1.503 . S
C1187 C1186 1.370 . S
C1187 C1188 1.403 . S
C1188 C1187 1.403 . S
C1188 C1189 1.404 . S
C1188 C1191 1.539 . S
C1189 C1185 1.408 . S
C1189 C1188 1.404 . S
C1189 H1201 0.930 . S
C1190 C1186 1.524 . S
C1190 H1202 0.956 . S
C1190 H1203 0.961 . S
C1190 H1204 0.961 . S
C1191 C1188 1.539 . S
C1191 H1205 0.958 . S
C1191 H1206 0.961 . S
C1191 H1207 0.960 . S
H1192 C1176 0.931 . S
H1193 C1181 0.929 . S
H1194 C1182 0.960 . S
H1195 C1182 0.962 . S
H1196 C1182 0.960 . S
H1197 C1183 0.961 . S
H1198 C1183 0.961 . S
H1199 C1183 0.961 . S
H1200 C1184 0.931 . S
H1201 C1189 0.930 . S
H1202 C1190 0.956 . S
H1203 C1190 0.961 . S
H1204 C1190 0.961 . S
H1205 C1191 0.958 . S
H1206 C1191 0.961 . S
H1207 C1191 0.960 . S
C1208 C1209 1.391 . S
C1208 C1210 1.394 . S
C1208 H1224 0.931 . S
C1209 C1208 1.391 . S
C1209 C1213 1.376 . S
C1210 C1208 1.394 . S
C1210 C1211 1.369 . S
C1210 C1214 1.531 . S
C1211 C1210 1.369 . S
C1211 C1212 1.392 1_655 S
C1211 C1219 1.503 1_655 S
C1212 C1211 1.392 1_455 S
C1212 C1213 1.365 1_455 S
C1212 C1215 1.556 . S
C1213 C1209 1.376 . S
C1213 C1212 1.365 1_655 S
C1213 H1225 0.929 . S
C1214 C1210 1.531 . S
C1214 H1226 0.960 . S
C1214 H1227 0.962 . S
C1214 H1228 0.960 . S
C1215 C1212 1.556 . S
C1215 H1229 0.961 . S
C1215 H1230 0.961 . S
C1215 H1231 0.961 . S
C1216 C1217 1.370 . S
C1216 C1218 1.363 1_455 S
C1216 H1232 0.924 1_455 S
C1217 C1216 1.370 . S
C1217 C1221 1.408 . S
C1218 C1216 1.363 1_655 S
C1218 C1219 1.370 1_655 S
C1218 C1222 1.524 . S
C1219 C1211 1.503 1_455 S
C1219 C1218 1.370 1_455 S
C1219 C1220 1.403 . S
C1220 C1219 1.403 . S
C1220 C1221 1.404 . S
C1220 C1223 1.539 . S
C1221 C1217 1.408 . S
C1221 C1220 1.404 . S
C1221 H1233 0.930 . S
C1222 C1218 1.524 . S
C1222 H1234 0.956 . S
C1222 H1235 0.961 . S
C1222 H1236 0.961 . S
C1223 C1220 1.539 . S
C1223 H1237 0.958 . S
C1223 H1238 0.961 . S
C1223 H1239 0.960 . S
H1224 C1208 0.931 . S
H1225 C1213 0.929 . S
H1226 C1214 0.960 . S
H1227 C1214 0.962 . S
H1228 C1214 0.960 . S
H1229 C1215 0.961 . S
H1230 C1215 0.961 . S
H1231 C1215 0.961 . S
H1232 C1216 0.924 1_655 S
H1233 C1221 0.930 . S
H1234 C1222 0.956 . S
H1235 C1222 0.961 . S
H1236 C1222 0.961 . S
H1237 C1223 0.958 . S
H1238 C1223 0.961 . S
H1239 C1223 0.960 . S
C1240 C1241 1.391 . S
C1240 C1242 1.394 . S
C1240 H1256 0.931 . S
C1241 C1240 1.391 . S
C1241 C1245 1.376 . S
C1242 C1240 1.394 . S
C1242 C1243 1.369 . S
C1242 C1246 1.531 . S
C1243 C1242 1.369 . S
C1243 C1244 1.410 . S
C1243 C1251 1.503 . S
C1244 C1243 1.410 . S
C1244 C1245 1.392 . S
C1244 C1247 1.511 . S
C1245 C1241 1.376 . S
C1245 C1244 1.392 . S
C1245 H1257 0.929 . S
C1246 C1242 1.531 . S
C1246 H1258 0.960 . S
C1246 H1259 0.962 . S
C1246 H1260 0.960 . S
C1247 C1244 1.511 . S
C1247 H1261 0.961 . S
C1247 H1262 0.961 . S
C1247 H1263 0.961 . S
C1248 C1249 1.370 . S
C1248 C1250 1.363 . S
C1248 H1264 0.931 . S
C1249 C1248 1.370 . S
C1249 C1253 1.408 . S
C1250 C1248 1.363 . S
C1250 C1251 1.370 . S
C1250 C1254 1.524 . S
C1251 C1243 1.503 . S
C1251 C1250 1.370 . S
C1251 C1252 1.403 . S
C1252 C1251 1.403 . S
C1252 C1253 1.404 . S
C1252 C1255 1.539 . S
C1253 C1249 1.408 . S
C1253 C1252 1.404 . S
C1253 H1265 0.930 . S
C1254 C1250 1.524 . S
C1254 H1266 0.956 . S
C1254 H1267 0.961 . S
C1254 H1268 0.961 . S
C1255 C1252 1.539 . S
C1255 H1269 0.958 . S
C1255 H1270 0.961 . S
C1255 H1271 0.960 . S
H1256 C1240 0.931 . S
H1257 C1245 0.929 . S
H1258 C1246 0.960 . S
H1259 C1246 0.962 . S
H1260 C1246 0.960 . S
H1261 C1247 0.961 . S
H1262 C1247 0.961 . S
H1263 C1247 0.961 . S
H1264 C1248 0.931 . S
H1265 C1253 0.930 . S
H1266 C1254 0.956 . S
H1267 C1254 0.961 . S
H1268 C1254 0.961 . S
H1269 C1255 0.958 . S
H1270 C1255 0.961 . S
H1271 C1255 0.960 . S
C1272 C1273 1.391 . S
C1272 C1274 1.394 . S
C1272 H1288 0.931 . S
C1273 C1272 1.391 . S
C1273 C1277 1.376 . S
C1274 C1272 1.394 . S
C1274 C1275 1.369 . S
C1274 C1278 1.531 . S
C1275 C1274 1.369 . S
C1275 C1276 1.410 . S
C1275 C1283 1.503 . S
C1276 C1275 1.410 . S
C1276 C1277 1.392 . S
C1276 C1279 1.511 . S
C1277 C1273 1.376 . S
C1277 C1276 1.392 . S
C1277 H1289 0.929 . S
C1278 C1274 1.531 . S
C1278 H1290 0.960 . S
C1278 H1291 0.962 . S
C1278 H1292 0.960 . S
C1279 C1276 1.511 . S
C1279 H1293 0.961 . S
C1279 H1294 0.961 . S
C1279 H1295 0.961 . S
C1280 C1281 1.370 . S
C1280 C1282 1.363 . S
C1280 H1296 0.931 . S
C1281 C1280 1.370 . S
C1281 C1285 1.408 . S
C1282 C1280 1.363 . S
C1282 C1283 1.370 . S
C1282 C1286 1.524 . S
C1283 C1275 1.503 . S
C1283 C1282 1.370 . S
C1283 C1284 1.403 . S
C1284 C1283 1.403 . S
C1284 C1285 1.404 . S
C1284 C1287 1.539 . S
C1285 C1281 1.408 . S
C1285 C1284 1.404 . S
C1285 H1297 0.930 . S
C1286 C1282 1.524 . S
C1286 H1298 0.956 . S
C1286 H1299 0.961 . S
C1286 H1300 0.961 . S
C1287 C1284 1.539 . S
C1287 H1301 0.958 . S
C1287 H1302 0.961 . S
C1287 H1303 0.960 . S
H1288 C1272 0.931 . S
H1289 C1277 0.929 . S
H1290 C1278 0.960 . S
H1291 C1278 0.962 . S
H1292 C1278 0.960 . S
H1293 C1279 0.961 . S
H1294 C1279 0.961 . S
H1295 C1279 0.961 . S
H1296 C1280 0.931 . S
H1297 C1285 0.930 . S
H1298 C1286 0.956 . S
H1299 C1286 0.961 . S
H1300 C1286 0.961 . S
H1301 C1287 0.958 . S
H1302 C1287 0.961 . S
H1303 C1287 0.960 . S
C1304 C1305 1.391 . S
C1304 C1306 1.394 . S
C1304 H1320 0.931 . S
C1305 C1304 1.391 . S
C1305 C1309 1.376 . S
C1306 C1304 1.394 . S
C1306 C1307 1.369 . S
C1306 C1310 1.531 . S
C1307 C1306 1.369 . S
C1307 C1308 1.410 . S
C1307 C1315 1.503 . S
C1308 C1307 1.410 . S
C1308 C1309 1.392 . S
C1308 C1311 1.511 . S
C1309 C1305 1.376 . S
C1309 C1308 1.392 . S
C1309 H1321 0.929 . S
C1310 C1306 1.531 . S
C1310 H1322 0.960 . S
C1310 H1323 0.962 . S
C1310 H1324 0.960 . S
C1311 C1308 1.511 . S
C1311 H1325 0.961 . S
C1311 H1326 0.961 . S
C1311 H1327 0.961 . S
C1312 C1313 1.370 . S
C1312 C1314 1.363 . S
C1312 H1328 0.931 . S
C1313 C1312 1.370 . S
C1313 C1317 1.408 . S
C1314 C1312 1.363 . S
C1314 C1315 1.370 . S
C1314 C1318 1.524 . S
C1315 C1307 1.503 . S
C1315 C1314 1.370 . S
C1315 C1316 1.403 . S
C1316 C1315 1.403 . S
C1316 C1317 1.404 . S
C1316 C1319 1.539 . S
C1317 C1313 1.408 . S
C1317 C1316 1.404 . S
C1317 H1329 0.930 . S
C1318 C1314 1.524 . S
C1318 H1330 0.956 . S
C1318 H1331 0.961 . S
C1318 H1332 0.961 . S
C1319 C1316 1.539 . S
C1319 H1333 0.958 . S
C1319 H1334 0.961 . S
C1319 H1335 0.960 . S
H1320 C1304 0.931 . S
H1321 C1309 0.929 . S
H1322 C1310 0.960 . S
H1323 C1310 0.962 . S
H1324 C1310 0.960 . S
H1325 C1311 0.961 . S
H1326 C1311 0.961 . S
H1327 C1311 0.961 . S
H1328 C1312 0.931 . S
H1329 C1317 0.930 . S
H1330 C1318 0.956 . S
H1331 C1318 0.961 . S
H1332 C1318 0.961 . S
H1333 C1319 0.958 . S
H1334 C1319 0.961 . S
H1335 C1319 0.960 . S
C1336 C1337 1.391 . S
C1336 C1338 1.394 . S
C1336 H1352 0.931 . S
C1337 C1336 1.391 . S
C1337 C1341 1.376 . S
C1338 C1336 1.394 . S
C1338 C1339 1.369 . S
C1338 C1342 1.531 1_655 S
C1339 C1338 1.369 . S
C1339 C1340 1.410 . S
C1339 C1347 1.503 1_655 S
C1340 C1339 1.410 . S
C1340 C1341 1.392 . S
C1340 C1343 1.487 1_545 S
C1341 C1337 1.376 . S
C1341 C1340 1.392 . S
C1341 H1353 0.929 . S
C1342 C1338 1.531 1_455 S
C1342 H1354 0.960 . S
C1342 H1355 0.962 . S
C1342 H1356 0.960 . S
C1343 C1340 1.487 1_565 S
C1343 H1357 0.984 . S
C1343 H1358 0.978 . S
C1343 H1359 0.946 1_565 S
C1344 C1345 1.370 . S
C1344 C1346 1.363 . S
C1344 H1360 0.931 . S
C1345 C1344 1.370 . S
C1345 C1349 1.408 . S
C1346 C1344 1.363 . S
C1346 C1347 1.370 . S
C1346 C1350 1.524 . S
C1347 C1339 1.503 1_455 S
C1347 C1346 1.370 . S
C1347 C1348 1.403 1_455 S
C1348 C1347 1.403 1_655 S
C1348 C1349 1.404 1_655 S
C1348 C1351 1.539 . S
C1349 C1345 1.408 . S
C1349 C1348 1.404 1_455 S
C1349 H1361 0.930 . S
C1350 C1346 1.524 . S
C1350 H1362 0.956 . S
C1350 H1363 0.962 . S
C1350 H1364 0.961 . S
C1351 C1348 1.539 . S
C1351 H1365 0.958 . S
C1351 H1366 0.961 . S
C1351 H1367 0.960 . S
H1352 C1336 0.931 . S
H1353 C1341 0.929 . S
H1354 C1342 0.960 . S
H1355 C1342 0.962 . S
H1356 C1342 0.960 . S
H1357 C1343 0.984 . S
H1358 C1343 0.978 . S
H1359 C1343 0.946 1_545 S
H1360 C1344 0.931 . S
H1361 C1349 0.930 . S
H1362 C1350 0.956 . S
H1363 C1350 0.962 . S
H1364 C1350 0.961 . S
H1365 C1351 0.958 . S
H1366 C1351 0.961 . S
H1367 C1351 0.960 . S
C1368 C1369 1.391 . S
C1368 C1370 1.394 . S
C1368 H1384 0.931 . S
C1369 C1368 1.391 . S
C1369 C1373 1.376 . S
C1370 C1368 1.394 . S
C1370 C1371 1.369 . S
C1370 C1374 1.531 . S
C1371 C1370 1.369 . S
C1371 C1372 1.410 . S
C1371 C1379 1.503 . S
C1372 C1371 1.410 . S
C1372 C1373 1.392 . S
C1372 C1375 1.511 . S
C1373 C1369 1.376 . S
C1373 C1372 1.392 . S
C1373 H1385 0.929 . S
C1374 C1370 1.531 . S
C1374 H1386 0.960 . S
C1374 H1387 0.962 . S
C1374 H1388 0.960 . S
C1375 C1372 1.511 . S
C1375 H1389 0.961 . S
C1375 H1390 0.961 . S
C1375 H1391 0.961 . S
C1376 C1377 1.370 . S
C1376 C1378 1.363 . S
C1376 H1392 0.931 . S
C1377 C1376 1.370 . S
C1377 C1381 1.408 . S
C1378 C1376 1.363 . S
C1378 C1379 1.370 . S
C1378 C1382 1.524 . S
C1379 C1371 1.503 . S
C1379 C1378 1.370 . S
C1379 C1380 1.403 . S
C1380 C1379 1.403 . S
C1380 C1381 1.404 . S
C1380 C1383 1.539 . S
C1381 C1377 1.408 . S
C1381 C1380 1.404 . S
C1381 H1393 0.930 . S
C1382 C1378 1.524 . S
C1382 H1394 0.956 . S
C1382 H1395 0.961 . S
C1382 H1396 0.961 . S
C1383 C1380 1.539 . S
C1383 H1397 0.958 . S
C1383 H1398 0.961 . S
C1383 H1399 0.960 . S
H1384 C1368 0.931 . S
H1385 C1373 0.929 . S
H1386 C1374 0.960 . S
H1387 C1374 0.962 . S
H1388 C1374 0.960 . S
H1389 C1375 0.961 . S
H1390 C1375 0.961 . S
H1391 C1375 0.961 . S
H1392 C1376 0.931 . S
H1393 C1381 0.930 . S
H1394 C1382 0.956 . S
H1395 C1382 0.961 . S
H1396 C1382 0.961 . S
H1397 C1383 0.958 . S
H1398 C1383 0.961 . S
H1399 C1383 0.960 . S
C1400 C1401 1.391 . S
C1400 C1402 1.394 . S
C1400 H1416 0.931 . S
C1401 C1400 1.391 . S
C1401 C1405 1.376 . S
C1402 C1400 1.394 . S
C1402 C1403 1.369 . S
C1402 C1406 1.531 . S
C1403 C1402 1.369 . S
C1403 C1404 1.410 . S
C1403 C1411 1.503 . S
C1404 C1403 1.410 . S
C1404 C1405 1.392 . S
C1404 C1407 1.511 . S
C1405 C1401 1.376 . S
C1405 C1404 1.392 . S
C1405 H1417 0.929 . S
C1406 C1402 1.531 . S
C1406 H1418 0.960 . S
C1406 H1419 0.962 . S
C1406 H1420 0.960 . S
C1407 C1404 1.511 . S
C1407 H1421 0.961 . S
C1407 H1422 0.961 . S
C1407 H1423 0.961 . S
C1408 C1409 1.370 . S
C1408 C1410 1.363 . S
C1408 H1424 0.931 . S
C1409 C1408 1.370 . S
C1409 C1413 1.408 . S
C1410 C1408 1.363 . S
C1410 C1411 1.370 . S
C1410 C1414 1.524 . S
C1411 C1403 1.503 . S
C1411 C1410 1.370 . S
C1411 C1412 1.403 . S
C1412 C1411 1.403 . S
C1412 C1413 1.404 . S
C1412 C1415 1.539 . S
C1413 C1409 1.408 . S
C1413 C1412 1.404 . S
C1413 H1425 0.930 . S
C1414 C1410 1.524 . S
C1414 H1426 0.956 . S
C1414 H1427 0.961 . S
C1414 H1428 0.961 . S
C1415 C1412 1.539 . S
C1415 H1429 0.958 . S
C1415 H1430 0.961 . S
C1415 H1431 0.960 . S
H1416 C1400 0.931 . S
H1417 C1405 0.929 . S
H1418 C1406 0.960 . S
H1419 C1406 0.962 . S
H1420 C1406 0.960 . S
H1421 C1407 0.961 . S
H1422 C1407 0.961 . S
H1423 C1407 0.961 . S
H1424 C1408 0.931 . S
H1425 C1413 0.930 . S
H1426 C1414 0.956 . S
H1427 C1414 0.961 . S
H1428 C1414 0.961 . S
H1429 C1415 0.958 . S
H1430 C1415 0.961 . S
H1431 C1415 0.960 . S
C1432 C1433 1.391 . S
C1432 C1434 1.394 . S
C1432 H1448 0.931 . S
C1433 C1432 1.391 . S
C1433 C1437 1.376 . S
C1434 C1432 1.394 . S
C1434 C1435 1.369 . S
C1434 C1438 1.531 . S
C1435 C1434 1.369 . S
C1435 C1436 1.410 . S
C1435 C1443 1.503 . S
C1436 C1435 1.410 . S
C1436 C1437 1.392 . S
C1436 C1439 1.511 . S
C1437 C1433 1.376 . S
C1437 C1436 1.392 . S
C1437 H1449 0.929 . S
C1438 C1434 1.531 . S
C1438 H1450 0.960 . S
C1438 H1451 0.962 . S
C1438 H1452 0.960 . S
C1439 C1436 1.511 . S
C1439 H1453 0.961 . S
C1439 H1454 0.961 . S
C1439 H1455 0.961 . S
C1440 C1441 1.370 . S
C1440 C1442 1.363 . S
C1440 H1456 0.931 . S
C1441 C1440 1.370 . S
C1441 C1445 1.408 . S
C1442 C1440 1.363 . S
C1442 C1443 1.370 . S
C1442 C1446 1.524 . S
C1443 C1435 1.503 . S
C1443 C1442 1.370 . S
C1443 C1444 1.403 . S
C1444 C1443 1.403 . S
C1444 C1445 1.404 . S
C1444 C1447 1.539 . S
C1445 C1441 1.408 . S
C1445 C1444 1.404 . S
C1445 H1457 0.930 . S
C1446 C1442 1.524 . S
C1446 H1458 0.956 . S
C1446 H1459 0.961 . S
C1446 H1460 0.961 . S
C1447 C1444 1.539 . S
C1447 H1461 0.958 . S
C1447 H1462 0.961 . S
C1447 H1463 0.960 . S
H1448 C1432 0.931 . S
H1449 C1437 0.929 . S
H1450 C1438 0.960 . S
H1451 C1438 0.962 . S
H1452 C1438 0.960 . S
H1453 C1439 0.961 . S
H1454 C1439 0.961 . S
H1455 C1439 0.961 . S
H1456 C1440 0.931 . S
H1457 C1445 0.930 . S
H1458 C1446 0.956 . S
H1459 C1446 0.961 . S
H1460 C1446 0.961 . S
H1461 C1447 0.958 . S
H1462 C1447 0.961 . S
H1463 C1447 0.960 . S
C1464 C1465 1.391 . S
C1464 C1466 1.394 . S
C1464 H1480 0.931 . S
C1465 C1464 1.391 . S
C1465 C1469 1.376 . S
C1466 C1464 1.394 . S
C1466 C1467 1.369 . S
C1466 C1470 1.531 1_565 S
C1467 C1466 1.369 . S
C1467 C1468 1.410 . S
C1467 C1475 1.503 . S
C1468 C1467 1.410 . S
C1468 C1469 1.392 . S
C1468 C1471 1.511 . S
C1469 C1465 1.376 . S
C1469 C1468 1.392 . S
C1469 H1481 0.929 . S
C1470 C1466 1.531 1_545 S
C1470 H1482 0.960 . S
C1470 H1483 0.962 . S
C1470 H1484 0.960 . S
C1471 C1468 1.511 . S
C1471 H1485 0.961 . S
C1471 H1486 0.961 . S
C1471 H1487 0.961 . S
C1472 C1473 1.370 . S
C1472 C1474 1.363 1_545 S
C1472 H1488 0.931 . S
C1473 C1472 1.370 . S
C1473 C1477 1.408 . S
C1474 C1472 1.363 1_565 S
C1474 C1475 1.370 . S
C1474 C1478 1.524 . S
C1475 C1467 1.503 . S
C1475 C1474 1.370 . S
C1475 C1476 1.403 . S
C1476 C1475 1.403 . S
C1476 C1477 1.404 1_565 S
C1476 C1479 1.584 . S
C1477 C1473 1.408 . S
C1477 C1476 1.404 1_545 S
C1477 H1489 0.930 . S
C1478 C1474 1.524 . S
C1478 H1490 0.956 . S
C1478 H1491 0.961 . S
C1478 H1492 0.961 . S
C1479 C1476 1.584 . S
C1479 H1493 0.939 1_554 S
C1479 H1494 0.957 1_554 S
C1479 H1495 0.951 1_554 S
H1480 C1464 0.931 . S
H1481 C1469 0.929 . S
H1482 C1470 0.960 . S
H1483 C1470 0.962 . S
H1484 C1470 0.960 . S
H1485 C1471 0.961 . S
H1486 C1471 0.961 . S
H1487 C1471 0.961 . S
H1488 C1472 0.931 . S
H1489 C1477 0.930 . S
H1490 C1478 0.956 . S
H1491 C1478 0.961 . S
H1492 C1478 0.961 . S
H1493 C1479 0.939 1_556 S
H1494 C1479 0.957 1_556 S
H1495 C1479 0.951 1_556 S
C1496 C1497 1.391 . S
C1496 C1498 1.394 . S
C1496 H1512 0.931 1_554 S
C1497 C1496 1.391 . S
C1497 C1501 1.376 . S
C1498 C1496 1.394 . S
C1498 C1499 1.369 . S
C1498 C1502 1.531 1_554 S
C1499 C1498 1.369 . S
C1499 C1500 1.410 . S
C1499 C1507 1.503 . S
C1500 C1499 1.410 . S
C1500 C1501 1.392 . S
C1500 C1503 1.511 . S
C1501 C1497 1.376 . S
C1501 C1500 1.392 . S
C1501 H1513 0.929 . S
C1502 C1498 1.531 1_556 S
C1502 H1514 0.960 . S
C1502 H1515 0.962 . S
C1502 H1516 0.960 . S
C1503 C1500 1.511 . S
C1503 H1517 0.961 . S
C1503 H1518 0.961 . S
C1503 H1519 0.961 . S
C1504 C1505 1.370 . S
C1504 C1506 1.363 . S
C1504 H1520 0.931 1_554 S
C1505 C1504 1.370 . S
C1505 C1509 1.408 . S
C1506 C1504 1.363 . S
C1506 C1507 1.370 . S
C1506 C1510 1.524 1_554 S
C1507 C1499 1.503 . S
C1507 C1506 1.370 . S
C1507 C1508 1.403 . S
C1508 C1507 1.403 . S
C1508 C1509 1.404 . S
C1508 C1511 1.539 . S
C1509 C1505 1.408 . S
C1509 C1508 1.404 . S
C1509 H1521 0.930 . S
C1510 C1506 1.524 1_556 S
C1510 H1522 0.956 . S
C1510 H1523 0.961 1_556 S
C1510 H1524 0.961 . S
C1511 C1508 1.539 . S
C1511 H1525 0.958 . S
C1511 H1526 0.961 . S
C1511 H1527 0.960 . S
H1512 C1496 0.931 1_556 S
H1513 C1501 0.929 . S
H1514 C1502 0.960 . S
H1515 C1502 0.962 . S
H1516 C1502 0.960 . S
H1517 C1503 0.961 . S
H1518 C1503 0.961 . S
H1519 C1503 0.961 . S
H1520 C1504 0.931 1_556 S
H1521 C1509 0.930 . S
H1522 C1510 0.956 . S
H1523 C1510 0.961 1_554 S
H1524 C1510 0.961 . S
H1525 C1511 0.958 . S
H1526 C1511 0.961 . S
H1527 C1511 0.960 . S
C1528 C1529 1.391 . S
C1528 C1530 1.394 . S
C1528 H1544 0.931 . S
C1529 C1528 1.391 . S
C1529 C1533 1.376 . S
C1530 C1528 1.394 . S
C1530 C1531 1.369 . S
C1530 C1534 1.531 . S
C1531 C1530 1.369 . S
C1531 C1532 1.410 . S
C1531 C1539 1.503 . S
C1532 C1531 1.410 . S
C1532 C1533 1.392 . S
C1532 C1535 1.511 . S
C1533 C1529 1.376 . S
C1533 C1532 1.392 . S
C1533 H1545 0.929 . S
C1534 C1530 1.531 . S
C1534 H1546 0.960 . S
C1534 H1547 0.962 . S
C1534 H1548 0.960 . S
C1535 C1532 1.511 . S
C1535 H1549 0.961 . S
C1535 H1550 0.961 . S
C1535 H1551 0.961 . S
C1536 C1537 1.370 . S
C1536 C1538 1.363 . S
C1536 H1552 0.931 . S
C1537 C1536 1.370 . S
C1537 C1541 1.408 . S
C1538 C1536 1.363 . S
C1538 C1539 1.370 . S
C1538 C1542 1.524 . S
C1539 C1531 1.503 . S
C1539 C1538 1.370 . S
C1539 C1540 1.403 . S
C1540 C1539 1.403 . S
C1540 C1541 1.404 . S
C1540 C1543 1.539 . S
C1541 C1537 1.408 . S
C1541 C1540 1.404 . S
C1541 H1553 0.930 . S
C1542 C1538 1.524 . S
C1542 H1554 0.956 . S
C1542 H1555 0.961 . S
C1542 H1556 0.961 . S
C1543 C1540 1.539 . S
C1543 H1557 0.958 . S
C1543 H1558 0.961 . S
C1543 H1559 0.960 . S
H1544 C1528 0.931 . S
H1545 C1533 0.929 . S
H1546 C1534 0.960 . S
H1547 C1534 0.962 . S
H1548 C1534 0.960 . S
H1549 C1535 0.961 . S
H1550 C1535 0.961 . S
H1551 C1535 0.961 . S
H1552 C1536 0.931 . S
H1553 C1541 0.930 . S
H1554 C1542 0.956 . S
H1555 C1542 0.961 . S
H1556 C1542 0.961 . S
H1557 C1543 0.958 . S
H1558 C1543 0.961 . S
H1559 C1543 0.960 . S
C1560 C1561 1.391 . S
C1560 C1562 1.394 . S
C1560 H1576 0.931 . S
C1561 C1560 1.391 . S
C1561 C1565 1.376 . S
C1562 C1560 1.394 . S
C1562 C1563 1.369 . S
C1562 C1566 1.531 . S
C1563 C1562 1.369 . S
C1563 C1564 1.410 . S
C1563 C1571 1.503 . S
C1564 C1563 1.410 . S
C1564 C1565 1.392 . S
C1564 C1567 1.511 . S
C1565 C1561 1.376 . S
C1565 C1564 1.392 . S
C1565 H1577 0.929 . S
C1566 C1562 1.531 . S
C1566 H1578 0.960 . S
C1566 H1579 0.962 . S
C1566 H1580 0.960 . S
C1567 C1564 1.511 . S
C1567 H1581 0.961 . S
C1567 H1582 0.961 . S
C1567 H1583 0.961 . S
C1568 C1569 1.370 . S
C1568 C1570 1.363 . S
C1568 H1584 0.931 . S
C1569 C1568 1.370 . S
C1569 C1573 1.408 . S
C1570 C1568 1.363 . S
C1570 C1571 1.370 . S
C1570 C1574 1.524 . S
C1571 C1563 1.503 . S
C1571 C1570 1.370 . S
C1571 C1572 1.403 . S
C1572 C1571 1.403 . S
C1572 C1573 1.404 . S
C1572 C1575 1.539 . S
C1573 C1569 1.408 . S
C1573 C1572 1.404 . S
C1573 H1585 0.930 . S
C1574 C1570 1.524 . S
C1574 H1586 0.956 . S
C1574 H1587 0.961 . S
C1574 H1588 0.961 . S
C1575 C1572 1.539 . S
C1575 H1589 0.958 . S
C1575 H1590 0.961 . S
C1575 H1591 0.960 . S
H1576 C1560 0.931 . S
H1577 C1565 0.929 . S
H1578 C1566 0.960 . S
H1579 C1566 0.962 . S
H1580 C1566 0.960 . S
H1581 C1567 0.961 . S
H1582 C1567 0.961 . S
H1583 C1567 0.961 . S
H1584 C1568 0.931 . S
H1585 C1573 0.930 . S
H1586 C1574 0.956 . S
H1587 C1574 0.961 . S
H1588 C1574 0.961 . S
H1589 C1575 0.958 . S
H1590 C1575 0.961 . S
H1591 C1575 0.960 . S
C1592 C1593 1.391 . S
C1592 C1594 1.394 . S
C1592 H1608 0.931 . S
C1593 C1592 1.391 . S
C1593 C1597 1.376 . S
C1594 C1592 1.394 . S
C1594 C1595 1.369 . S
C1594 C1598 1.531 . S
C1595 C1594 1.369 . S
C1595 C1596 1.410 . S
C1595 C1603 1.503 . S
C1596 C1595 1.410 . S
C1596 C1597 1.392 . S
C1596 C1599 1.511 . S
C1597 C1593 1.376 . S
C1597 C1596 1.392 . S
C1597 H1609 0.929 . S
C1598 C1594 1.531 . S
C1598 H1610 0.960 . S
C1598 H1611 0.962 . S
C1598 H1612 0.960 . S
C1599 C1596 1.511 . S
C1599 H1613 0.961 . S
C1599 H1614 0.961 . S
C1599 H1615 0.961 . S
C1600 C1601 1.370 . S
C1600 C1602 1.363 . S
C1600 H1616 0.931 . S
C1601 C1600 1.370 . S
C1601 C1605 1.408 . S
C1602 C1600 1.363 . S
C1602 C1603 1.370 . S
C1602 C1606 1.524 . S
C1603 C1595 1.503 . S
C1603 C1602 1.370 . S
C1603 C1604 1.403 . S
C1604 C1603 1.403 . S
C1604 C1605 1.404 . S
C1604 C1607 1.539 . S
C1605 C1601 1.408 . S
C1605 C1604 1.404 . S
C1605 H1617 0.930 . S
C1606 C1602 1.524 . S
C1606 H1618 0.956 . S
C1606 H1619 0.961 . S
C1606 H1620 0.961 . S
C1607 C1604 1.539 . S
C1607 H1621 0.958 . S
C1607 H1622 0.961 . S
C1607 H1623 0.960 . S
H1608 C1592 0.931 . S
H1609 C1597 0.929 . S
H1610 C1598 0.960 . S
H1611 C1598 0.962 . S
H1612 C1598 0.960 . S
H1613 C1599 0.961 . S
H1614 C1599 0.961 . S
H1615 C1599 0.961 . S
H1616 C1600 0.931 . S
H1617 C1605 0.930 . S
H1618 C1606 0.956 . S
H1619 C1606 0.961 . S
H1620 C1606 0.961 . S
H1621 C1607 0.958 . S
H1622 C1607 0.961 . S
H1623 C1607 0.960 . S
C1624 C1625 1.391 . S
C1624 C1626 1.394 . S
C1624 H1640 0.931 . S
C1625 C1624 1.391 . S
C1625 C1629 1.376 . S
C1626 C1624 1.394 . S
C1626 C1627 1.369 . S
C1626 C1630 1.531 . S
C1627 C1626 1.369 . S
C1627 C1628 1.410 . S
C1627 C1635 1.503 . S
C1628 C1627 1.410 . S
C1628 C1629 1.392 . S
C1628 C1631 1.511 . S
C1629 C1625 1.376 . S
C1629 C1628 1.392 . S
C1629 H1641 0.929 . S
C1630 C1626 1.531 . S
C1630 H1642 0.960 . S
C1630 H1643 0.962 . S
C1630 H1644 0.960 . S
C1631 C1628 1.511 . S
C1631 H1645 0.961 . S
C1631 H1646 0.961 . S
C1631 H1647 0.961 . S
C1632 C1633 1.370 . S
C1632 C1634 1.363 . S
C1632 H1648 0.931 . S
C1633 C1632 1.370 . S
C1633 C1637 1.408 . S
C1634 C1632 1.363 . S
C1634 C1635 1.370 . S
C1634 C1638 1.524 . S
C1635 C1627 1.503 . S
C1635 C1634 1.370 . S
C1635 C1636 1.403 . S
C1636 C1635 1.403 . S
C1636 C1637 1.404 . S
C1636 C1639 1.539 . S
C1637 C1633 1.408 . S
C1637 C1636 1.404 . S
C1637 H1649 0.930 . S
C1638 C1634 1.524 . S
C1638 H1650 0.956 . S
C1638 H1651 0.961 . S
C1638 H1652 0.961 . S
C1639 C1636 1.539 . S
C1639 H1653 0.958 . S
C1639 H1654 0.961 . S
C1639 H1655 0.960 . S
H1640 C1624 0.931 . S
H1641 C1629 0.929 . S
H1642 C1630 0.960 . S
H1643 C1630 0.962 . S
H1644 C1630 0.960 . S
H1645 C1631 0.961 . S
H1646 C1631 0.961 . S
H1647 C1631 0.961 . S
H1648 C1632 0.931 . S
H1649 C1637 0.930 . S
H1650 C1638 0.956 . S
H1651 C1638 0.961 . S
H1652 C1638 0.961 . S
H1653 C1639 0.958 . S
H1654 C1639 0.961 . S
H1655 C1639 0.960 . S
C1656 C1657 1.391 . S
C1656 C1658 1.394 . S
C1656 H1672 0.931 . S
C1657 C1656 1.391 . S
C1657 C1661 1.376 . S
C1658 C1656 1.394 . S
C1658 C1659 1.369 . S
C1658 C1662 1.531 . S
C1659 C1658 1.369 . S
C1659 C1660 1.410 . S
C1659 C1667 1.503 . S
C1660 C1659 1.410 . S
C1660 C1661 1.392 . S
C1660 C1663 1.511 . S
C1661 C1657 1.376 . S
C1661 C1660 1.392 . S
C1661 H1673 0.929 . S
C1662 C1658 1.531 . S
C1662 H1674 0.960 . S
C1662 H1675 0.962 . S
C1662 H1676 0.960 . S
C1663 C1660 1.511 . S
C1663 H1677 0.961 . S
C1663 H1678 0.961 . S
C1663 H1679 0.961 . S
C1664 C1665 1.370 . S
C1664 C1666 1.363 . S
C1664 H1680 0.931 . S
C1665 C1664 1.370 . S
C1665 C1669 1.408 . S
C1666 C1664 1.363 . S
C1666 C1667 1.370 . S
C1666 C1670 1.524 . S
C1667 C1659 1.503 . S
C1667 C1666 1.370 . S
C1667 C1668 1.403 . S
C1668 C1667 1.403 . S
C1668 C1669 1.404 . S
C1668 C1671 1.539 . S
C1669 C1665 1.408 . S
C1669 C1668 1.404 . S
C1669 H1681 0.930 . S
C1670 C1666 1.524 . S
C1670 H1682 0.956 . S
C1670 H1683 0.961 . S
C1670 H1684 0.961 . S
C1671 C1668 1.539 . S
C1671 H1685 0.958 . S
C1671 H1686 0.961 . S
C1671 H1687 0.960 . S
H1672 C1656 0.931 . S
H1673 C1661 0.929 . S
H1674 C1662 0.960 . S
H1675 C1662 0.962 . S
H1676 C1662 0.960 . S
H1677 C1663 0.961 . S
H1678 C1663 0.961 . S
H1679 C1663 0.961 . S
H1680 C1664 0.931 . S
H1681 C1669 0.930 . S
H1682 C1670 0.956 . S
H1683 C1670 0.961 . S
H1684 C1670 0.961 . S
H1685 C1671 0.958 . S
H1686 C1671 0.961 . S
H1687 C1671 0.960 . S
C1688 C1689 1.391 . S
C1688 C1690 1.394 . S
C1688 H1704 0.931 . S
C1689 C1688 1.391 . S
C1689 C1693 1.376 . S
C1690 C1688 1.394 . S
C1690 C1691 1.369 . S
C1690 C1694 1.531 . S
C1691 C1690 1.369 . S
C1691 C1692 1.410 . S
C1691 C1699 1.503 . S
C1692 C1691 1.410 . S
C1692 C1693 1.392 . S
C1692 C1695 1.511 . S
C1693 C1689 1.376 . S
C1693 C1692 1.392 . S
C1693 H1705 0.929 . S
C1694 C1690 1.531 . S
C1694 H1706 0.960 . S
C1694 H1707 0.962 . S
C1694 H1708 0.960 . S
C1695 C1692 1.511 . S
C1695 H1709 0.961 . S
C1695 H1710 0.961 . S
C1695 H1711 0.961 . S
C1696 C1697 1.370 . S
C1696 C1698 1.363 . S
C1696 H1712 0.931 . S
C1697 C1696 1.370 . S
C1697 C1701 1.408 . S
C1698 C1696 1.363 . S
C1698 C1699 1.370 . S
C1698 C1702 1.524 . S
C1699 C1691 1.503 . S
C1699 C1698 1.370 . S
C1699 C1700 1.403 . S
C1700 C1699 1.403 . S
C1700 C1701 1.404 . S
C1700 C1703 1.539 . S
C1701 C1697 1.408 . S
C1701 C1700 1.404 . S
C1701 H1713 0.930 . S
C1702 C1698 1.524 . S
C1702 H1714 0.956 . S
C1702 H1715 0.961 . S
C1702 H1716 0.961 . S
C1703 C1700 1.539 . S
C1703 H1717 0.958 . S
C1703 H1718 0.961 . S
C1703 H1719 0.960 . S
H1704 C1688 0.931 . S
H1705 C1693 0.929 . S
H1706 C1694 0.960 . S
H1707 C1694 0.962 . S
H1708 C1694 0.960 . S
H1709 C1695 0.961 . S
H1710 C1695 0.961 . S
H1711 C1695 0.961 . S
H1712 C1696 0.931 . S
H1713 C1701 0.930 . S
H1714 C1702 0.956 . S
H1715 C1702 0.961 . S
H1716 C1702 0.961 . S
H1717 C1703 0.958 . S
H1718 C1703 0.961 . S
H1719 C1703 0.960 . S
C1720 C1721 1.391 . S
C1720 C1722 1.394 . S
C1720 H1736 0.931 . S
C1721 C1720 1.391 . S
C1721 C1725 1.376 . S
C1722 C1720 1.394 . S
C1722 C1723 1.369 . S
C1722 C1726 1.531 . S
C1723 C1722 1.369 . S
C1723 C1724 1.410 . S
C1723 C1731 1.503 . S
C1724 C1723 1.410 . S
C1724 C1725 1.392 . S
C1724 C1727 1.511 . S
C1725 C1721 1.376 . S
C1725 C1724 1.392 . S
C1725 H1737 0.929 . S
C1726 C1722 1.531 . S
C1726 H1738 0.960 . S
C1726 H1739 0.962 . S
C1726 H1740 0.960 . S
C1727 C1724 1.511 . S
C1727 H1741 0.961 . S
C1727 H1742 0.961 . S
C1727 H1743 0.961 . S
C1728 C1729 1.370 . S
C1728 C1730 1.363 . S
C1728 H1744 0.931 . S
C1729 C1728 1.370 . S
C1729 C1733 1.408 . S
C1730 C1728 1.363 . S
C1730 C1731 1.370 . S
C1730 C1734 1.524 . S
C1731 C1723 1.503 . S
C1731 C1730 1.370 . S
C1731 C1732 1.403 . S
C1732 C1731 1.403 . S
C1732 C1733 1.404 . S
C1732 C1735 1.539 . S
C1733 C1729 1.408 . S
C1733 C1732 1.404 . S
C1733 H1745 0.930 . S
C1734 C1730 1.524 . S
C1734 H1746 0.956 . S
C1734 H1747 0.961 . S
C1734 H1748 0.961 . S
C1735 C1732 1.539 . S
C1735 H1749 0.958 . S
C1735 H1750 0.961 . S
C1735 H1751 0.960 . S
H1736 C1720 0.931 . S
H1737 C1725 0.929 . S
H1738 C1726 0.960 . S
H1739 C1726 0.962 . S
H1740 C1726 0.960 . S
H1741 C1727 0.961 . S
H1742 C1727 0.961 . S
H1743 C1727 0.961 . S
H1744 C1728 0.931 . S
H1745 C1733 0.930 . S
H1746 C1734 0.956 . S
H1747 C1734 0.961 . S
H1748 C1734 0.961 . S
H1749 C1735 0.958 . S
H1750 C1735 0.961 . S
H1751 C1735 0.960 . S
C1752 C1753 1.391 . S
C1752 C1754 1.394 . S
C1752 H1768 0.931 . S
C1753 C1752 1.391 . S
C1753 C1757 1.376 . S
C1754 C1752 1.394 . S
C1754 C1755 1.369 . S
C1754 C1758 1.531 . S
C1755 C1754 1.369 . S
C1755 C1756 1.410 . S
C1755 C1763 1.503 . S
C1756 C1755 1.410 . S
C1756 C1757 1.392 . S
C1756 C1759 1.511 . S
C1757 C1753 1.376 . S
C1757 C1756 1.392 . S
C1757 H1769 0.929 . S
C1758 C1754 1.531 . S
C1758 H1770 0.960 . S
C1758 H1771 0.962 . S
C1758 H1772 0.960 . S
C1759 C1756 1.511 . S
C1759 H1773 0.961 . S
C1759 H1774 0.961 . S
C1759 H1775 0.961 . S
C1760 C1761 1.370 . S
C1760 C1762 1.363 . S
C1760 H1776 0.931 . S
C1761 C1760 1.370 . S
C1761 C1765 1.408 . S
C1762 C1760 1.363 . S
C1762 C1763 1.370 . S
C1762 C1766 1.524 . S
C1763 C1755 1.503 . S
C1763 C1762 1.370 . S
C1763 C1764 1.403 . S
C1764 C1763 1.403 . S
C1764 C1765 1.404 . S
C1764 C1767 1.539 . S
C1765 C1761 1.408 . S
C1765 C1764 1.404 . S
C1765 H1777 0.930 . S
C1766 C1762 1.524 . S
C1766 H1778 0.956 . S
C1766 H1779 0.961 . S
C1766 H1780 0.961 . S
C1767 C1764 1.539 . S
C1767 H1781 0.958 . S
C1767 H1782 0.961 . S
C1767 H1783 0.960 . S
H1768 C1752 0.931 . S
H1769 C1757 0.929 . S
H1770 C1758 0.960 . S
H1771 C1758 0.962 . S
H1772 C1758 0.960 . S
H1773 C1759 0.961 . S
H1774 C1759 0.961 . S
H1775 C1759 0.961 . S
H1776 C1760 0.931 . S
H1777 C1765 0.930 . S
H1778 C1766 0.956 . S
H1779 C1766 0.961 . S
H1780 C1766 0.961 . S
H1781 C1767 0.958 . S
H1782 C1767 0.961 . S
H1783 C1767 0.960 . S
C1784 C1785 1.391 . S
C1784 C1786 1.394 . S
C1784 H1800 0.931 . S
C1785 C1784 1.391 . S
C1785 C1789 1.376 . S
C1786 C1784 1.394 . S
C1786 C1787 1.369 . S
C1786 C1790 1.531 . S
C1787 C1786 1.369 . S
C1787 C1788 1.410 . S
C1787 C1795 1.503 . S
C1788 C1787 1.410 . S
C1788 C1789 1.392 . S
C1788 C1791 1.511 . S
C1789 C1785 1.376 . S
C1789 C1788 1.392 . S
C1789 H1801 0.929 . S
C1790 C1786 1.531 . S
C1790 H1802 0.960 . S
C1790 H1803 0.962 . S
C1790 H1804 0.960 . S
C1791 C1788 1.511 . S
C1791 H1805 0.961 . S
C1791 H1806 0.961 . S
C1791 H1807 0.961 . S
C1792 C1793 1.370 . S
C1792 C1794 1.363 . S
C1792 H1808 0.931 . S
C1793 C1792 1.370 . S
C1793 C1797 1.408 . S
C1794 C1792 1.363 . S
C1794 C1795 1.370 . S
C1794 C1798 1.524 . S
C1795 C1787 1.503 . S
C1795 C1794 1.370 . S
C1795 C1796 1.403 . S
C1796 C1795 1.403 . S
C1796 C1797 1.404 . S
C1796 C1799 1.539 . S
C1797 C1793 1.408 . S
C1797 C1796 1.404 . S
C1797 H1809 0.930 . S
C1798 C1794 1.524 . S
C1798 H1810 0.956 . S
C1798 H1811 0.961 . S
C1798 H1812 0.961 . S
C1799 C1796 1.539 . S
C1799 H1813 0.958 . S
C1799 H1814 0.961 . S
C1799 H1815 0.960 . S
H1800 C1784 0.931 . S
H1801 C1789 0.929 . S
H1802 C1790 0.960 . S
H1803 C1790 0.962 . S
H1804 C1790 0.960 . S
H1805 C1791 0.961 . S
H1806 C1791 0.961 . S
H1807 C1791 0.961 . S
H1808 C1792 0.931 . S
H1809 C1797 0.930 . S
H1810 C1798 0.956 . S
H1811 C1798 0.961 . S
H1812 C1798 0.961 . S
H1813 C1799 0.958 . S
H1814 C1799 0.961 . S
H1815 C1799 0.960 . S
C1816 C1817 1.391 . S
C1816 C1818 1.394 . S
C1816 H1832 0.931 . S
C1817 C1816 1.391 . S
C1817 C1821 1.376 . S
C1818 C1816 1.394 . S
C1818 C1819 1.369 . S
C1818 C1822 1.531 . S
C1819 C1818 1.369 . S
C1819 C1820 1.410 . S
C1819 C1827 1.503 . S
C1820 C1819 1.410 . S
C1820 C1821 1.392 . S
C1820 C1823 1.511 . S
C1821 C1817 1.376 . S
C1821 C1820 1.392 . S
C1821 H1833 0.929 . S
C1822 C1818 1.531 . S
C1822 H1834 0.960 . S
C1822 H1835 0.962 . S
C1822 H1836 0.960 . S
C1823 C1820 1.511 . S
C1823 H1837 0.961 . S
C1823 H1838 0.961 . S
C1823 H1839 0.961 . S
C1824 C1825 1.370 . S
C1824 C1826 1.363 . S
C1824 H1840 0.931 . S
C1825 C1824 1.370 . S
C1825 C1829 1.408 . S
C1826 C1824 1.363 . S
C1826 C1827 1.370 . S
C1826 C1830 1.524 . S
C1827 C1819 1.503 . S
C1827 C1826 1.370 . S
C1827 C1828 1.403 . S
C1828 C1827 1.403 . S
C1828 C1829 1.404 . S
C1828 C1831 1.539 . S
C1829 C1825 1.408 . S
C1829 C1828 1.404 . S
C1829 H1841 0.930 . S
C1830 C1826 1.524 . S
C1830 H1842 0.956 . S
C1830 H1843 0.961 . S
C1830 H1844 0.961 . S
C1831 C1828 1.539 . S
C1831 H1845 0.958 . S
C1831 H1846 0.961 . S
C1831 H1847 0.960 . S
H1832 C1816 0.931 . S
H1833 C1821 0.929 . S
H1834 C1822 0.960 . S
H1835 C1822 0.962 . S
H1836 C1822 0.960 . S
H1837 C1823 0.961 . S
H1838 C1823 0.961 . S
H1839 C1823 0.961 . S
H1840 C1824 0.931 . S
H1841 C1829 0.930 . S
H1842 C1830 0.956 . S
H1843 C1830 0.961 . S
H1844 C1830 0.961 . S
H1845 C1831 0.958 . S
H1846 C1831 0.961 . S
H1847 C1831 0.960 . S
C1848 C1849 1.391 . S
C1848 C1850 1.394 . S
C1848 H1864 0.931 . S
C1849 C1848 1.391 . S
C1849 C1853 1.376 . S
C1850 C1848 1.394 . S
C1850 C1851 1.369 . S
C1850 C1854 1.531 . S
C1851 C1850 1.369 . S
C1851 C1852 1.410 . S
C1851 C1859 1.503 . S
C1852 C1851 1.410 . S
C1852 C1853 1.392 . S
C1852 C1855 1.511 1_455 S
C1853 C1849 1.376 . S
C1853 C1852 1.392 . S
C1853 H1865 0.929 . S
C1854 C1850 1.531 . S
C1854 H1866 0.960 . S
C1854 H1867 0.962 . S
C1854 H1868 0.960 . S
C1855 C1852 1.511 1_655 S
C1855 H1869 0.961 . S
C1855 H1870 0.961 . S
C1855 H1871 0.961 . S
C1856 C1857 1.370 . S
C1856 C1858 1.363 . S
C1856 H1872 0.931 . S
C1857 C1856 1.370 . S
C1857 C1861 1.408 . S
C1858 C1856 1.363 . S
C1858 C1859 1.370 . S
C1858 C1862 1.524 . S
C1859 C1851 1.503 . S
C1859 C1858 1.370 . S
C1859 C1860 1.403 . S
C1860 C1859 1.403 . S
C1860 C1861 1.404 . S
C1860 C1863 1.539 . S
C1861 C1857 1.408 . S
C1861 C1860 1.404 . S
C1861 H1873 0.930 . S
C1862 C1858 1.524 . S
C1862 H1874 0.956 . S
C1862 H1875 0.961 . S
C1862 H1876 0.961 . S
C1863 C1860 1.539 . S
C1863 H1877 0.958 . S
C1863 H1878 0.961 1_455 S
C1863 H1879 0.960 . S
H1864 C1848 0.931 . S
H1865 C1853 0.929 . S
H1866 C1854 0.960 . S
H1867 C1854 0.962 . S
H1868 C1854 0.960 . S
H1869 C1855 0.961 . S
H1870 C1855 0.961 . S
H1871 C1855 0.961 . S
H1872 C1856 0.931 . S
H1873 C1861 0.930 . S
H1874 C1862 0.956 . S
H1875 C1862 0.961 . S
H1876 C1862 0.961 . S
H1877 C1863 0.958 . S
H1878 C1863 0.961 1_655 S
H1879 C1863 0.960 . S
C1880 C1881 1.391 . S
C1880 C1882 1.394 . S
C1880 H1896 0.931 . S
C1881 C1880 1.391 . S
C1881 C1885 1.376 . S
C1882 C1880 1.394 . S
C1882 C1883 1.369 . S
C1882 C1886 1.531 . S
C1883 C1882 1.369 . S
C1883 C1884 1.410 . S
C1883 C1891 1.503 . S
C1884 C1883 1.410 . S
C1884 C1885 1.392 . S
C1884 C1887 1.511 . S
C1885 C1881 1.376 . S
C1885 C1884 1.392 . S
C1885 H1897 0.929 . S
C1886 C1882 1.531 . S
C1886 H1898 0.960 . S
C1886 H1899 0.962 . S
C1886 H1900 0.960 . S
C1887 C1884 1.511 . S
C1887 H1901 0.961 . S
C1887 H1902 0.961 . S
C1887 H1903 0.961 . S
C1888 C1889 1.370 . S
C1888 C1890 1.363 . S
C1888 H1904 0.931 . S
C1889 C1888 1.370 . S
C1889 C1893 1.408 . S
C1890 C1888 1.363 . S
C1890 C1891 1.370 . S
C1890 C1894 1.524 . S
C1891 C1883 1.503 . S
C1891 C1890 1.370 . S
C1891 C1892 1.403 . S
C1892 C1891 1.403 . S
C1892 C1893 1.404 . S
C1892 C1895 1.539 . S
C1893 C1889 1.408 . S
C1893 C1892 1.404 . S
C1893 H1905 0.930 . S
C1894 C1890 1.524 . S
C1894 H1906 0.956 . S
C1894 H1907 0.961 . S
C1894 H1908 0.961 . S
C1895 C1892 1.539 . S
C1895 H1909 0.958 . S
C1895 H1910 0.961 . S
C1895 H1911 0.960 . S
H1896 C1880 0.931 . S
H1897 C1885 0.929 . S
H1898 C1886 0.960 . S
H1899 C1886 0.962 . S
H1900 C1886 0.960 . S
H1901 C1887 0.961 . S
H1902 C1887 0.961 . S
H1903 C1887 0.961 . S
H1904 C1888 0.931 . S
H1905 C1893 0.930 . S
H1906 C1894 0.956 . S
H1907 C1894 0.961 . S
H1908 C1894 0.961 . S
H1909 C1895 0.958 . S
H1910 C1895 0.961 . S
H1911 C1895 0.960 . S
C1912 C1913 1.391 . S
C1912 C1914 1.394 . S
C1912 H1928 0.931 . S
C1913 C1912 1.391 . S
C1913 C1917 1.376 . S
C1914 C1912 1.394 . S
C1914 C1915 1.369 . S
C1914 C1918 1.531 . S
C1915 C1914 1.369 . S
C1915 C1916 1.410 . S
C1915 C1923 1.503 . S
C1916 C1915 1.410 . S
C1916 C1917 1.392 . S
C1916 C1919 1.511 . S
C1917 C1913 1.376 . S
C1917 C1916 1.392 . S
C1917 H1929 0.929 . S
C1918 C1914 1.531 . S
C1918 H1930 0.960 . S
C1918 H1931 0.962 . S
C1918 H1932 0.960 . S
C1919 C1916 1.511 . S
C1919 H1933 0.961 . S
C1919 H1934 0.961 . S
C1919 H1935 0.961 . S
C1920 C1921 1.370 . S
C1920 C1922 1.363 . S
C1920 H1936 0.931 . S
C1921 C1920 1.370 . S
C1921 C1925 1.408 . S
C1922 C1920 1.363 . S
C1922 C1923 1.370 . S
C1922 C1926 1.524 . S
C1923 C1915 1.503 . S
C1923 C1922 1.370 . S
C1923 C1924 1.403 . S
C1924 C1923 1.403 . S
C1924 C1925 1.404 . S
C1924 C1927 1.539 . S
C1925 C1921 1.408 . S
C1925 C1924 1.404 . S
C1925 H1937 0.915 1_565 S
C1926 C1922 1.524 . S
C1926 H1938 0.956 . S
C1926 H1939 0.961 . S
C1926 H1940 0.961 . S
C1927 C1924 1.539 . S
C1927 H1941 0.958 . S
C1927 H1942 0.961 . S
C1927 H1943 0.960 . S
H1928 C1912 0.931 . S
H1929 C1917 0.929 . S
H1930 C1918 0.960 . S
H1931 C1918 0.962 . S
H1932 C1918 0.960 . S
H1933 C1919 0.961 . S
H1934 C1919 0.961 . S
H1935 C1919 0.961 . S
H1936 C1920 0.931 . S
H1937 C1925 0.915 1_545 S
H1938 C1926 0.956 . S
H1939 C1926 0.961 . S
H1940 C1926 0.961 . S
H1941 C1927 0.958 . S
H1942 C1927 0.961 . S
H1943 C1927 0.960 . S
C1944 C1945 1.391 . S
C1944 C1946 1.394 . S
C1944 H1960 0.931 . S
C1945 C1944 1.391 . S
C1945 C1949 1.376 . S
C1946 C1944 1.394 . S
C1946 C1947 1.369 . S
C1946 C1950 1.531 . S
C1947 C1946 1.369 . S
C1947 C1948 1.410 . S
C1947 C1955 1.503 . S
C1948 C1947 1.410 . S
C1948 C1949 1.392 . S
C1948 C1951 1.511 . S
C1949 C1945 1.376 . S
C1949 C1948 1.392 . S
C1949 H1961 0.929 . S
C1950 C1946 1.531 . S
C1950 H1962 0.960 . S
C1950 H1963 0.962 . S
C1950 H1964 0.960 . S
C1951 C1948 1.511 . S
C1951 H1965 0.961 . S
C1951 H1966 0.961 . S
C1951 H1967 0.961 . S
C1952 C1953 1.370 . S
C1952 C1954 1.363 . S
C1952 H1968 0.931 . S
C1953 C1952 1.370 . S
C1953 C1957 1.408 . S
C1954 C1952 1.363 . S
C1954 C1955 1.370 . S
C1954 C1958 1.524 . S
C1955 C1947 1.503 . S
C1955 C1954 1.370 . S
C1955 C1956 1.403 . S
C1956 C1955 1.403 . S
C1956 C1957 1.404 . S
C1956 C1959 1.539 . S
C1957 C1953 1.408 . S
C1957 C1956 1.404 . S
C1957 H1969 0.930 . S
C1958 C1954 1.524 . S
C1958 H1970 0.956 . S
C1958 H1971 0.961 . S
C1958 H1972 0.961 . S
C1959 C1956 1.539 . S
C1959 H1973 0.958 . S
C1959 H1974 0.961 . S
C1959 H1975 0.960 . S
H1960 C1944 0.931 . S
H1961 C1949 0.929 . S
H1962 C1950 0.960 . S
H1963 C1950 0.962 . S
H1964 C1950 0.960 . S
H1965 C1951 0.961 . S
H1966 C1951 0.961 . S
H1967 C1951 0.961 . S
H1968 C1952 0.931 . S
H1969 C1957 0.930 . S
H1970 C1958 0.956 . S
H1971 C1958 0.961 . S
H1972 C1958 0.961 . S
H1973 C1959 0.958 . S
H1974 C1959 0.961 . S
H1975 C1959 0.960 . S
C1976 C1977 1.391 . S
C1976 C1978 1.394 . S
C1976 H1992 0.931 . S
C1977 C1976 1.391 . S
C1977 C1981 1.376 . S
C1978 C1976 1.394 . S
C1978 C1979 1.369 . S
C1978 C1982 1.531 . S
C1979 C1978 1.369 . S
C1979 C1980 1.410 . S
C1979 C1987 1.503 . S
C1980 C1979 1.410 . S
C1980 C1981 1.392 . S
C1980 C1983 1.511 . S
C1981 C1977 1.376 . S
C1981 C1980 1.392 . S
C1981 H1993 0.929 . S
C1982 C1978 1.531 . S
C1982 H1994 0.960 . S
C1982 H1995 0.962 . S
C1982 H1996 0.960 . S
C1983 C1980 1.511 . S
C1983 H1997 0.961 . S
C1983 H1998 0.961 . S
C1983 H1999 0.961 . S
C1984 C1985 1.370 . S
C1984 C1986 1.363 . S
C1984 H2000 0.931 . S
C1985 C1984 1.370 . S
C1985 C1989 1.408 . S
C1986 C1984 1.363 . S
C1986 C1987 1.370 . S
C1986 C1990 1.524 . S
C1987 C1979 1.503 . S
C1987 C1986 1.370 . S
C1987 C1988 1.403 . S
C1988 C1987 1.403 . S
C1988 C1989 1.404 . S
C1988 C1991 1.539 . S
C1989 C1985 1.408 . S
C1989 C1988 1.404 . S
C1989 H2001 0.930 . S
C1990 C1986 1.524 . S
C1990 H2002 0.956 . S
C1990 H2003 0.961 . S
C1990 H2004 0.961 . S
C1991 C1988 1.539 . S
C1991 H2005 0.958 1_545 S
C1991 H2006 0.961 1_545 S
C1991 H2007 0.960 . S
H1992 C1976 0.931 . S
H1993 C1981 0.929 . S
H1994 C1982 0.960 . S
H1995 C1982 0.962 . S
H1996 C1982 0.960 . S
H1997 C1983 0.961 . S
H1998 C1983 0.961 . S
H1999 C1983 0.961 . S
H2000 C1984 0.931 . S
H2001 C1989 0.930 . S
H2002 C1990 0.956 . S
H2003 C1990 0.961 . S
H2004 C1990 0.961 . S
H2005 C1991 0.958 1_565 S
H2006 C1991 0.961 1_565 S
H2007 C1991 0.960 . S
C2008 C2009 1.391 . S
C2008 C2010 1.394 . S
C2008 H2024 0.931 . S
C2009 C2008 1.391 . S
C2009 C2013 1.376 . S
C2010 C2008 1.394 . S
C2010 C2011 1.369 . S
C2010 C2014 1.531 . S
C2011 C2010 1.369 . S
C2011 C2012 1.410 . S
C2011 C2019 1.503 . S
C2012 C2011 1.410 . S
C2012 C2013 1.392 . S
C2012 C2015 1.511 . S
C2013 C2009 1.376 . S
C2013 C2012 1.392 . S
C2013 H2025 0.929 . S
C2014 C2010 1.531 . S
C2014 H2026 0.960 . S
C2014 H2027 0.962 . S
C2014 H2028 0.960 . S
C2015 C2012 1.511 . S
C2015 H2029 0.961 . S
C2015 H2030 0.961 . S
C2015 H2031 0.961 . S
C2016 C2017 1.370 . S
C2016 C2018 1.363 . S
C2016 H2032 0.931 . S
C2017 C2016 1.370 . S
C2017 C2021 1.408 . S
C2018 C2016 1.363 . S
C2018 C2019 1.370 . S
C2018 C2022 1.524 . S
C2019 C2011 1.503 . S
C2019 C2018 1.370 . S
C2019 C2020 1.403 . S
C2020 C2019 1.403 . S
C2020 C2021 1.404 . S
C2020 C2023 1.539 . S
C2021 C2017 1.408 . S
C2021 C2020 1.404 . S
C2021 H2033 0.930 . S
C2022 C2018 1.524 . S
C2022 H2034 0.956 . S
C2022 H2035 0.961 . S
C2022 H2036 0.961 . S
C2023 C2020 1.539 . S
C2023 H2037 0.958 . S
C2023 H2038 0.961 . S
C2023 H2039 0.960 . S
H2024 C2008 0.931 . S
H2025 C2013 0.929 . S
H2026 C2014 0.960 . S
H2027 C2014 0.962 . S
H2028 C2014 0.960 . S
H2029 C2015 0.961 . S
H2030 C2015 0.961 . S
H2031 C2015 0.961 . S
H2032 C2016 0.931 . S
H2033 C2021 0.930 . S
H2034 C2022 0.956 . S
H2035 C2022 0.961 . S
H2036 C2022 0.961 . S
H2037 C2023 0.958 . S
H2038 C2023 0.961 . S
H2039 C2023 0.960 . S
C2040 C2041 1.391 1_565 S
C2040 C2042 1.394 . S
C2040 H2056 0.931 . S
C2041 C2040 1.391 1_545 S
C2041 C2045 1.376 . S
C2042 C2040 1.394 . S
C2042 C2043 1.369 1_565 S
C2042 C2046 1.531 . S
C2043 C2042 1.369 1_545 S
C2043 C2044 1.410 . S
C2043 C2051 1.503 . S
C2044 C2043 1.410 . S
C2044 C2045 1.392 . S
C2044 C2047 1.511 . S
C2045 C2041 1.376 . S
C2045 C2044 1.392 . S
C2045 H2057 0.929 . S
C2046 C2042 1.531 . S
C2046 H2058 0.960 . S
C2046 H2059 0.962 . S
C2046 H2060 0.960 . S
C2047 C2044 1.511 . S
C2047 H2061 0.961 . S
C2047 H2062 0.961 . S
C2047 H2063 0.961 . S
C2048 C2049 1.370 . S
C2048 C2050 1.363 . S
C2048 H2064 0.931 . S
C2049 C2048 1.370 . S
C2049 C2053 1.408 . S
C2050 C2048 1.363 . S
C2050 C2051 1.370 . S
C2050 C2054 1.524 . S
C2051 C2043 1.503 . S
C2051 C2050 1.370 . S
C2051 C2052 1.403 . S
C2052 C2051 1.403 . S
C2052 C2053 1.404 . S
C2052 C2055 1.539 1_545 S
C2053 C2049 1.408 . S
C2053 C2052 1.404 . S
C2053 H2065 0.930 . S
C2054 C2050 1.524 . S
C2054 H2066 0.956 . S
C2054 H2067 0.961 . S
C2054 H2068 0.961 . S
C2055 C2052 1.539 1_565 S
C2055 H2069 0.958 . S
C2055 H2070 0.962 1_565 S
C2055 H2071 0.943 1_565 S
H2056 C2040 0.931 . S
H2057 C2045 0.929 . S
H2058 C2046 0.960 . S
H2059 C2046 0.962 . S
H2060 C2046 0.960 . S
H2061 C2047 0.961 . S
H2062 C2047 0.961 . S
H2063 C2047 0.961 . S
H2064 C2048 0.931 . S
H2065 C2053 0.930 . S
H2066 C2054 0.956 . S
H2067 C2054 0.961 . S
H2068 C2054 0.961 . S
H2069 C2055 0.958 . S
H2070 C2055 0.962 1_545 S
H2071 C2055 0.943 1_545 S
C2072 C2073 1.391 . S
C2072 C2074 1.394 . S
C2072 H2088 0.931 . S
C2073 C2072 1.391 . S
C2073 C2077 1.376 . S
C2074 C2072 1.394 . S
C2074 C2075 1.369 . S
C2074 C2078 1.531 . S
C2075 C2074 1.369 . S
C2075 C2076 1.410 . S
C2075 C2083 1.503 . S
C2076 C2075 1.410 . S
C2076 C2077 1.392 . S
C2076 C2079 1.511 . S
C2077 C2073 1.376 . S
C2077 C2076 1.392 . S
C2077 H2089 0.929 . S
C2078 C2074 1.531 . S
C2078 H2090 0.960 . S
C2078 H2091 0.962 . S
C2078 H2092 0.960 . S
C2079 C2076 1.511 . S
C2079 H2093 0.961 . S
C2079 H2094 0.961 . S
C2079 H2095 0.961 . S
C2080 C2081 1.370 . S
C2080 C2082 1.363 . S
C2080 H2096 0.931 . S
C2081 C2080 1.370 . S
C2081 C2085 1.408 . S
C2082 C2080 1.363 . S
C2082 C2083 1.370 . S
C2082 C2086 1.524 . S
C2083 C2075 1.503 . S
C2083 C2082 1.370 . S
C2083 C2084 1.403 . S
C2084 C2083 1.403 . S
C2084 C2085 1.404 . S
C2084 C2087 1.539 . S
C2085 C2081 1.408 . S
C2085 C2084 1.404 . S
C2085 H2097 0.930 . S
C2086 C2082 1.524 . S
C2086 H2098 0.956 . S
C2086 H2099 0.961 . S
C2086 H2100 0.961 . S
C2087 C2084 1.539 . S
C2087 H2101 0.958 . S
C2087 H2102 0.961 . S
C2087 H2103 0.960 . S
H2088 C2072 0.931 . S
H2089 C2077 0.929 . S
H2090 C2078 0.960 . S
H2091 C2078 0.962 . S
H2092 C2078 0.960 . S
H2093 C2079 0.961 . S
H2094 C2079 0.961 . S
H2095 C2079 0.961 . S
H2096 C2080 0.931 . S
H2097 C2085 0.930 . S
H2098 C2086 0.956 . S
H2099 C2086 0.961 . S
H2100 C2086 0.961 . S
H2101 C2087 0.958 . S
H2102 C2087 0.961 . S
H2103 C2087 0.960 . S
C2104 C2105 1.391 . S
C2104 C2106 1.394 . S
C2104 H2120 0.931 . S
C2105 C2104 1.391 . S
C2105 C2109 1.376 . S
C2106 C2104 1.394 . S
C2106 C2107 1.369 . S
C2106 C2110 1.531 . S
C2107 C2106 1.369 . S
C2107 C2108 1.410 . S
C2107 C2115 1.503 . S
C2108 C2107 1.410 . S
C2108 C2109 1.392 . S
C2108 C2111 1.511 . S
C2109 C2105 1.376 . S
C2109 C2108 1.392 . S
C2109 H2121 0.929 . S
C2110 C2106 1.531 . S
C2110 H2122 0.960 . S
C2110 H2123 0.962 . S
C2110 H2124 0.960 . S
C2111 C2108 1.511 . S
C2111 H2125 0.961 . S
C2111 H2126 0.961 . S
C2111 H2127 0.961 . S
C2112 C2113 1.370 . S
C2112 C2114 1.363 . S
C2112 H2128 0.931 . S
C2113 C2112 1.370 . S
C2113 C2117 1.408 . S
C2114 C2112 1.363 . S
C2114 C2115 1.370 . S
C2114 C2118 1.493 1_545 S
C2115 C2107 1.503 . S
C2115 C2114 1.370 . S
C2115 C2116 1.403 . S
C2116 C2115 1.403 . S
C2116 C2117 1.404 . S
C2116 C2119 1.539 . S
C2117 C2113 1.408 . S
C2117 C2116 1.404 . S
C2117 H2129 0.930 . S
C2118 C2114 1.493 1_565 S
C2118 H2130 0.952 . S
C2118 H2131 0.974 . S
C2118 H2132 0.983 . S
C2119 C2116 1.539 . S
C2119 H2133 0.958 . S
C2119 H2134 0.961 . S
C2119 H2135 0.960 . S
H2120 C2104 0.931 . S
H2121 C2109 0.929 . S
H2122 C2110 0.960 . S
H2123 C2110 0.962 . S
H2124 C2110 0.960 . S
H2125 C2111 0.961 . S
H2126 C2111 0.961 . S
H2127 C2111 0.961 . S
H2128 C2112 0.931 . S
H2129 C2117 0.930 . S
H2130 C2118 0.952 . S
H2131 C2118 0.974 . S
H2132 C2118 0.983 . S
H2133 C2119 0.958 . S
H2134 C2119 0.961 . S
H2135 C2119 0.960 . S
C2136 C2137 1.391 . S
C2136 C2138 1.394 . S
C2136 H2152 0.931 . S
C2137 C2136 1.391 . S
C2137 C2141 1.376 . S
C2138 C2136 1.394 . S
C2138 C2139 1.369 . S
C2138 C2142 1.531 . S
C2139 C2138 1.369 . S
C2139 C2140 1.410 . S
C2139 C2147 1.503 . S
C2140 C2139 1.410 . S
C2140 C2141 1.392 . S
C2140 C2143 1.511 . S
C2141 C2137 1.376 . S
C2141 C2140 1.392 . S
C2141 H2153 0.929 . S
C2142 C2138 1.531 . S
C2142 H2154 0.960 . S
C2142 H2155 0.962 . S
C2142 H2156 0.960 . S
C2143 C2140 1.511 . S
C2143 H2157 0.961 . S
C2143 H2158 0.961 . S
C2143 H2159 0.961 . S
C2144 C2145 1.370 . S
C2144 C2146 1.363 . S
C2144 H2160 0.931 . S
C2145 C2144 1.370 . S
C2145 C2149 1.408 . S
C2146 C2144 1.363 . S
C2146 C2147 1.370 . S
C2146 C2150 1.524 . S
C2147 C2139 1.503 . S
C2147 C2146 1.370 . S
C2147 C2148 1.403 . S
C2148 C2147 1.403 . S
C2148 C2149 1.404 . S
C2148 C2151 1.539 . S
C2149 C2145 1.408 . S
C2149 C2148 1.404 . S
C2149 H2161 0.930 . S
C2150 C2146 1.524 . S
C2150 H2162 0.956 . S
C2150 H2163 0.961 . S
C2150 H2164 0.961 . S
C2151 C2148 1.539 . S
C2151 H2165 0.958 . S
C2151 H2166 0.961 . S
C2151 H2167 0.960 . S
H2152 C2136 0.931 . S
H2153 C2141 0.929 . S
H2154 C2142 0.960 . S
H2155 C2142 0.962 . S
H2156 C2142 0.960 . S
H2157 C2143 0.961 . S
H2158 C2143 0.961 . S
H2159 C2143 0.961 . S
H2160 C2144 0.931 . S
H2161 C2149 0.930 . S
H2162 C2150 0.956 . S
H2163 C2150 0.961 . S
H2164 C2150 0.961 . S
H2165 C2151 0.958 . S
H2166 C2151 0.961 . S
H2167 C2151 0.960 . S
C2168 C2169 1.391 1_565 S
C2168 C2170 1.394 . S
C2168 H2184 0.931 . S
C2169 C2168 1.391 1_545 S
C2169 C2173 1.376 . S
C2170 C2168 1.394 . S
C2170 C2171 1.369 1_565 S
C2170 C2174 1.531 . S
C2171 C2170 1.369 1_545 S
C2171 C2172 1.410 . S
C2171 C2179 1.503 . S
C2172 C2171 1.410 . S
C2172 C2173 1.392 . S
C2172 C2175 1.511 . S
C2173 C2169 1.376 . S
C2173 C2172 1.392 . S
C2173 H2185 0.929 . S
C2174 C2170 1.531 . S
C2174 H2186 0.960 . S
C2174 H2187 0.962 . S
C2174 H2188 0.960 . S
C2175 C2172 1.511 . S
C2175 H2189 0.961 . S
C2175 H2190 0.961 . S
C2175 H2191 0.961 . S
C2176 C2177 1.371 . S
C2176 C2178 1.363 . S
C2176 H2192 0.931 . S
C2177 C2176 1.371 . S
C2177 C2181 1.408 1_545 S
C2178 C2176 1.363 . S
C2178 C2179 1.370 . S
C2178 C2182 1.524 . S
C2179 C2171 1.503 . S
C2179 C2178 1.370 . S
C2179 C2180 1.403 1_545 S
C2180 C2179 1.403 1_565 S
C2180 C2181 1.404 . S
C2180 C2183 1.539 . S
C2181 C2177 1.408 1_565 S
C2181 C2180 1.404 . S
C2181 H2193 0.930 . S
C2182 C2178 1.524 . S
C2182 H2194 0.956 . S
C2182 H2195 0.961 . S
C2182 H2196 0.961 . S
C2183 C2180 1.539 . S
C2183 H2197 0.958 . S
C2183 H2198 0.961 . S
C2183 H2199 0.960 . S
H2184 C2168 0.931 . S
H2185 C2173 0.929 . S
H2186 C2174 0.960 . S
H2187 C2174 0.962 . S
H2188 C2174 0.960 . S
H2189 C2175 0.961 . S
H2190 C2175 0.961 . S
H2191 C2175 0.961 . S
H2192 C2176 0.931 . S
H2193 C2181 0.930 . S
H2194 C2182 0.956 . S
H2195 C2182 0.961 . S
H2196 C2182 0.961 . S
H2197 C2183 0.958 . S
H2198 C2183 0.961 . S
H2199 C2183 0.960 . S
C2200 C2201 1.391 . S
C2200 C2202 1.394 . S
C2200 H2216 0.931 . S
C2201 C2200 1.391 . S
C2201 C2205 1.376 . S
C2202 C2200 1.394 . S
C2202 C2203 1.369 . S
C2202 C2206 1.531 . S
C2203 C2202 1.369 . S
C2203 C2204 1.410 . S
C2203 C2211 1.503 . S
C2204 C2203 1.410 . S
C2204 C2205 1.392 . S
C2204 C2207 1.511 . S
C2205 C2201 1.376 . S
C2205 C2204 1.392 . S
C2205 H2217 0.929 . S
C2206 C2202 1.531 . S
C2206 H2218 0.960 . S
C2206 H2219 0.962 . S
C2206 H2220 0.960 . S
C2207 C2204 1.511 . S
C2207 H2221 0.961 . S
C2207 H2222 0.961 . S
C2207 H2223 0.961 . S
C2208 C2209 1.370 . S
C2208 C2210 1.363 . S
C2208 H2224 0.931 . S
C2209 C2208 1.370 . S
C2209 C2213 1.408 . S
C2210 C2208 1.363 . S
C2210 C2211 1.370 . S
C2210 C2214 1.524 . S
C2211 C2203 1.503 . S
C2211 C2210 1.370 . S
C2211 C2212 1.403 . S
C2212 C2211 1.403 . S
C2212 C2213 1.404 . S
C2212 C2215 1.539 . S
C2213 C2209 1.408 . S
C2213 C2212 1.404 . S
C2213 H2225 0.930 . S
C2214 C2210 1.524 . S
C2214 H2226 0.956 . S
C2214 H2227 0.961 . S
C2214 H2228 0.961 . S
C2215 C2212 1.539 . S
C2215 H2229 0.958 . S
C2215 H2230 0.961 . S
C2215 H2231 0.960 . S
H2216 C2200 0.931 . S
H2217 C2205 0.929 . S
H2218 C2206 0.960 . S
H2219 C2206 0.962 . S
H2220 C2206 0.960 . S
H2221 C2207 0.961 . S
H2222 C2207 0.961 . S
H2223 C2207 0.961 . S
H2224 C2208 0.931 . S
H2225 C2213 0.930 . S
H2226 C2214 0.956 . S
H2227 C2214 0.961 . S
H2228 C2214 0.961 . S
H2229 C2215 0.958 . S
H2230 C2215 0.961 . S
H2231 C2215 0.960 . S
C2232 C2233 1.391 . S
C2232 C2234 1.394 . S
C2232 H2248 0.931 . S
C2233 C2232 1.391 . S
C2233 C2237 1.376 . S
C2234 C2232 1.394 . S
C2234 C2235 1.369 . S
C2234 C2238 1.531 . S
C2235 C2234 1.369 . S
C2235 C2236 1.410 . S
C2235 C2243 1.503 . S
C2236 C2235 1.410 . S
C2236 C2237 1.392 . S
C2236 C2239 1.511 . S
C2237 C2233 1.376 . S
C2237 C2236 1.392 . S
C2237 H2249 0.929 . S
C2238 C2234 1.531 . S
C2238 H2250 0.960 . S
C2238 H2251 0.962 . S
C2238 H2252 0.960 . S
C2239 C2236 1.511 . S
C2239 H2253 0.961 . S
C2239 H2254 0.961 . S
C2239 H2255 0.961 . S
C2240 C2241 1.370 . S
C2240 C2242 1.363 . S
C2240 H2256 0.931 . S
C2241 C2240 1.370 . S
C2241 C2245 1.408 . S
C2242 C2240 1.363 . S
C2242 C2243 1.370 . S
C2242 C2246 1.524 . S
C2243 C2235 1.503 . S
C2243 C2242 1.370 . S
C2243 C2244 1.403 . S
C2244 C2243 1.403 . S
C2244 C2245 1.404 . S
C2244 C2247 1.539 . S
C2245 C2241 1.408 . S
C2245 C2244 1.404 . S
C2245 H2257 0.930 1_554 S
C2246 C2242 1.524 . S
C2246 H2258 0.956 . S
C2246 H2259 0.961 . S
C2246 H2260 0.961 . S
C2247 C2244 1.539 . S
C2247 H2261 0.958 1_554 S
C2247 H2262 0.961 1_554 S
C2247 H2263 0.960 . S
H2248 C2232 0.931 . S
H2249 C2237 0.929 . S
H2250 C2238 0.960 . S
H2251 C2238 0.962 . S
H2252 C2238 0.960 . S
H2253 C2239 0.961 . S
H2254 C2239 0.961 . S
H2255 C2239 0.961 . S
H2256 C2240 0.931 . S
H2257 C2245 0.930 1_556 S
H2258 C2246 0.956 . S
H2259 C2246 0.961 . S
H2260 C2246 0.961 . S
H2261 C2247 0.958 1_556 S
H2262 C2247 0.961 1_556 S
H2263 C2247 0.960 . S
C2264 C2265 1.391 . S
C2264 C2266 1.394 . S
C2264 H2280 0.931 . S
C2265 C2264 1.391 . S
C2265 C2269 1.376 . S
C2266 C2264 1.394 . S
C2266 C2267 1.369 . S
C2266 C2270 1.531 1_554 S
C2267 C2266 1.369 . S
C2267 C2268 1.410 . S
C2267 C2275 1.503 . S
C2268 C2267 1.410 . S
C2268 C2269 1.392 . S
C2268 C2271 1.511 . S
C2269 C2265 1.376 . S
C2269 C2268 1.392 . S
C2269 H2281 0.929 . S
C2270 C2266 1.531 1_556 S
C2270 H2282 0.960 . S
C2270 H2283 0.962 . S
C2270 H2284 0.960 . S
C2271 C2268 1.511 . S
C2271 H2285 0.961 . S
C2271 H2286 0.961 . S
C2271 H2287 0.961 . S
C2272 C2273 1.370 . S
C2272 C2274 1.363 . S
C2272 H2288 0.931 . S
C2273 C2272 1.370 . S
C2273 C2277 1.408 . S
C2274 C2272 1.363 . S
C2274 C2275 1.370 . S
C2274 C2278 1.524 . S
C2275 C2267 1.503 . S
C2275 C2274 1.370 . S
C2275 C2276 1.403 . S
C2276 C2275 1.403 . S
C2276 C2277 1.404 . S
C2276 C2279 1.539 . S
C2277 C2273 1.408 . S
C2277 C2276 1.404 . S
C2277 H2289 0.930 . S
C2278 C2274 1.524 . S
C2278 H2290 0.956 . S
C2278 H2291 0.961 . S
C2278 H2292 0.961 . S
C2279 C2276 1.539 . S
C2279 H2293 0.958 . S
C2279 H2294 0.961 . S
C2279 H2295 0.960 . S
H2280 C2264 0.931 . S
H2281 C2269 0.929 . S
H2282 C2270 0.960 . S
H2283 C2270 0.962 . S
H2284 C2270 0.960 . S
H2285 C2271 0.961 . S
H2286 C2271 0.961 . S
H2287 C2271 0.961 . S
H2288 C2272 0.931 . S
H2289 C2277 0.930 . S
H2290 C2278 0.956 . S
H2291 C2278 0.961 . S
H2292 C2278 0.961 . S
H2293 C2279 0.958 . S
H2294 C2279 0.961 . S
H2295 C2279 0.960 . S
C2296 C2297 1.391 . S
C2296 C2298 1.394 . S
C2296 H2312 0.931 . S
C2297 C2296 1.391 . S
C2297 C2301 1.376 . S
C2298 C2296 1.394 . S
C2298 C2299 1.369 . S
C2298 C2302 1.531 . S
C2299 C2298 1.369 . S
C2299 C2300 1.410 . S
C2299 C2307 1.503 . S
C2300 C2299 1.410 . S
C2300 C2301 1.392 . S
C2300 C2303 1.511 . S
C2301 C2297 1.376 . S
C2301 C2300 1.392 . S
C2301 H2313 0.929 . S
C2302 C2298 1.531 . S
C2302 H2314 0.960 . S
C2302 H2315 0.962 . S
C2302 H2316 0.960 . S
C2303 C2300 1.511 . S
C2303 H2317 0.961 . S
C2303 H2318 0.961 . S
C2303 H2319 0.961 . S
C2304 C2305 1.370 . S
C2304 C2306 1.363 . S
C2304 H2320 0.931 . S
C2305 C2304 1.370 . S
C2305 C2309 1.408 . S
C2306 C2304 1.363 . S
C2306 C2307 1.370 . S
C2306 C2310 1.524 . S
C2307 C2299 1.503 . S
C2307 C2306 1.370 . S
C2307 C2308 1.403 . S
C2308 C2307 1.403 . S
C2308 C2309 1.404 . S
C2308 C2311 1.539 . S
C2309 C2305 1.408 . S
C2309 C2308 1.404 . S
C2309 H2321 0.930 . S
C2310 C2306 1.524 . S
C2310 H2322 0.956 . S
C2310 H2323 0.961 . S
C2310 H2324 0.961 . S
C2311 C2308 1.539 . S
C2311 H2325 0.958 . S
C2311 H2326 0.961 . S
C2311 H2327 0.960 . S
H2312 C2296 0.931 . S
H2313 C2301 0.929 . S
H2314 C2302 0.960 . S
H2315 C2302 0.962 . S
H2316 C2302 0.960 . S
H2317 C2303 0.961 . S
H2318 C2303 0.961 . S
H2319 C2303 0.961 . S
H2320 C2304 0.931 . S
H2321 C2309 0.930 . S
H2322 C2310 0.956 . S
H2323 C2310 0.961 . S
H2324 C2310 0.961 . S
H2325 C2311 0.958 . S
H2326 C2311 0.961 . S
H2327 C2311 0.960 . S
C2328 C2329 1.391 . S
C2328 C2330 1.394 . S
C2328 H2344 0.931 . S
C2329 C2328 1.391 . S
C2329 C2333 1.376 . S
C2330 C2328 1.394 . S
C2330 C2331 1.369 . S
C2330 C2334 1.531 . S
C2331 C2330 1.369 . S
C2331 C2332 1.410 . S
C2331 C2339 1.503 . S
C2332 C2331 1.410 . S
C2332 C2333 1.392 . S
C2332 C2335 1.511 . S
C2333 C2329 1.376 . S
C2333 C2332 1.392 . S
C2333 H2345 0.929 . S
C2334 C2330 1.531 . S
C2334 H2346 0.960 . S
C2334 H2347 0.962 . S
C2334 H2348 0.960 . S
C2335 C2332 1.511 . S
C2335 H2349 0.961 . S
C2335 H2350 0.961 . S
C2335 H2351 0.961 . S
C2336 C2337 1.370 . S
C2336 C2338 1.363 . S
C2336 H2352 0.931 . S
C2337 C2336 1.370 . S
C2337 C2341 1.408 . S
C2338 C2336 1.363 . S
C2338 C2339 1.370 . S
C2338 C2342 1.524 . S
C2339 C2331 1.503 . S
C2339 C2338 1.370 . S
C2339 C2340 1.403 . S
C2340 C2339 1.403 . S
C2340 C2341 1.404 . S
C2340 C2343 1.539 . S
C2341 C2337 1.408 . S
C2341 C2340 1.404 . S
C2341 H2353 0.930 . S
C2342 C2338 1.524 . S
C2342 H2354 0.956 . S
C2342 H2355 0.961 . S
C2342 H2356 0.961 . S
C2343 C2340 1.539 . S
C2343 H2357 0.958 . S
C2343 H2358 0.961 . S
C2343 H2359 0.960 . S
H2344 C2328 0.931 . S
H2345 C2333 0.929 . S
H2346 C2334 0.960 . S
H2347 C2334 0.962 . S
H2348 C2334 0.960 . S
H2349 C2335 0.961 . S
H2350 C2335 0.961 . S
H2351 C2335 0.961 . S
H2352 C2336 0.931 . S
H2353 C2341 0.930 . S
H2354 C2342 0.956 . S
H2355 C2342 0.961 . S
H2356 C2342 0.961 . S
H2357 C2343 0.958 . S
H2358 C2343 0.961 . S
H2359 C2343 0.960 . S
C2360 C2361 1.391 . S
C2360 C2362 1.394 . S
C2360 H2376 0.931 . S
C2361 C2360 1.391 . S
C2361 C2365 1.376 . S
C2362 C2360 1.394 . S
C2362 C2363 1.369 1_545 S
C2362 C2366 1.531 . S
C2363 C2362 1.369 1_565 S
C2363 C2364 1.410 . S
C2363 C2371 1.503 . S
C2364 C2363 1.410 . S
C2364 C2365 1.392 1_565 S
C2364 C2367 1.511 . S
C2365 C2361 1.376 . S
C2365 C2364 1.392 1_545 S
C2365 H2377 0.929 . S
C2366 C2362 1.531 . S
C2366 H2378 0.960 1_545 S
C2366 H2379 0.962 . S
C2366 H2380 0.960 . S
C2367 C2364 1.511 . S
C2367 H2381 0.961 . S
C2367 H2382 0.961 . S
C2367 H2383 0.961 . S
C2368 C2369 1.370 . S
C2368 C2370 1.363 . S
C2368 H2384 0.931 . S
C2369 C2368 1.370 . S
C2369 C2373 1.408 . S
C2370 C2368 1.363 . S
C2370 C2371 1.370 . S
C2370 C2374 1.524 . S
C2371 C2363 1.503 . S
C2371 C2370 1.370 . S
C2371 C2372 1.403 . S
C2372 C2371 1.403 . S
C2372 C2373 1.404 . S
C2372 C2375 1.539 . S
C2373 C2369 1.408 . S
C2373 C2372 1.404 . S
C2373 H2385 0.930 . S
C2374 C2370 1.524 . S
C2374 H2386 0.956 1_565 S
C2374 H2387 0.961 . S
C2374 H2388 0.961 . S
C2375 C2372 1.539 . S
C2375 H2389 0.958 . S
C2375 H2390 0.961 . S
C2375 H2391 0.960 . S
H2376 C2360 0.931 . S
H2377 C2365 0.929 . S
H2378 C2366 0.960 1_565 S
H2379 C2366 0.962 . S
H2380 C2366 0.960 . S
H2381 C2367 0.961 . S
H2382 C2367 0.961 . S
H2383 C2367 0.961 . S
H2384 C2368 0.931 . S
H2385 C2373 0.930 . S
H2386 C2374 0.956 1_545 S
H2387 C2374 0.961 . S
H2388 C2374 0.961 . S
H2389 C2375 0.958 . S
H2390 C2375 0.961 . S
H2391 C2375 0.960 . S
C2392 C2393 1.391 . S
C2392 C2394 1.394 . S
C2392 H2408 0.931 . S
C2393 C2392 1.391 . S
C2393 C2397 1.376 . S
C2394 C2392 1.394 . S
C2394 C2395 1.369 . S
C2394 C2398 1.531 . S
C2395 C2394 1.369 . S
C2395 C2396 1.410 . S
C2395 C2403 1.503 . S
C2396 C2395 1.410 . S
C2396 C2397 1.392 . S
C2396 C2399 1.511 . S
C2397 C2393 1.376 . S
C2397 C2396 1.392 . S
C2397 H2409 0.929 . S
C2398 C2394 1.531 . S
C2398 H2410 0.960 . S
C2398 H2411 0.962 . S
C2398 H2412 0.960 . S
C2399 C2396 1.511 . S
C2399 H2413 0.961 . S
C2399 H2414 0.961 . S
C2399 H2415 0.961 . S
C2400 C2401 1.370 . S
C2400 C2402 1.363 . S
C2400 H2416 0.931 . S
C2401 C2400 1.370 . S
C2401 C2405 1.408 . S
C2402 C2400 1.363 . S
C2402 C2403 1.370 . S
C2402 C2406 1.524 . S
C2403 C2395 1.503 . S
C2403 C2402 1.370 . S
C2403 C2404 1.403 . S
C2404 C2403 1.403 . S
C2404 C2405 1.404 . S
C2404 C2407 1.539 . S
C2405 C2401 1.408 . S
C2405 C2404 1.404 . S
C2405 H2417 0.930 . S
C2406 C2402 1.524 . S
C2406 H2418 0.956 . S
C2406 H2419 0.961 . S
C2406 H2420 0.961 . S
C2407 C2404 1.539 . S
C2407 H2421 0.958 . S
C2407 H2422 0.961 . S
C2407 H2423 0.960 . S
H2408 C2392 0.931 . S
H2409 C2397 0.929 . S
H2410 C2398 0.960 . S
H2411 C2398 0.962 . S
H2412 C2398 0.960 . S
H2413 C2399 0.961 . S
H2414 C2399 0.961 . S
H2415 C2399 0.961 . S
H2416 C2400 0.931 . S
H2417 C2405 0.930 . S
H2418 C2406 0.956 . S
H2419 C2406 0.961 . S
H2420 C2406 0.961 . S
H2421 C2407 0.958 . S
H2422 C2407 0.961 . S
H2423 C2407 0.960 . S
C2424 C2425 1.391 . S
C2424 C2426 1.394 . S
C2424 H2440 0.931 . S
C2425 C2424 1.391 . S
C2425 C2429 1.376 . S
C2426 C2424 1.394 . S
C2426 C2427 1.369 . S
C2426 C2430 1.531 . S
C2427 C2426 1.369 . S
C2427 C2428 1.410 . S
C2427 C2435 1.503 . S
C2428 C2427 1.410 . S
C2428 C2429 1.392 . S
C2428 C2431 1.511 . S
C2429 C2425 1.376 . S
C2429 C2428 1.392 . S
C2429 H2441 0.929 . S
C2430 C2426 1.531 . S
C2430 H2442 0.960 . S
C2430 H2443 0.962 . S
C2430 H2444 0.960 . S
C2431 C2428 1.511 . S
C2431 H2445 0.961 . S
C2431 H2446 0.961 . S
C2431 H2447 0.961 . S
C2432 C2433 1.370 . S
C2432 C2434 1.363 . S
C2432 H2448 0.931 . S
C2433 C2432 1.370 . S
C2433 C2437 1.408 . S
C2434 C2432 1.363 . S
C2434 C2435 1.370 . S
C2434 C2438 1.524 . S
C2435 C2427 1.503 . S
C2435 C2434 1.370 . S
C2435 C2436 1.403 . S
C2436 C2435 1.403 . S
C2436 C2437 1.404 . S
C2436 C2439 1.539 . S
C2437 C2433 1.408 . S
C2437 C2436 1.404 . S
C2437 H2449 0.930 . S
C2438 C2434 1.524 . S
C2438 H2450 0.956 . S
C2438 H2451 0.961 . S
C2438 H2452 0.961 . S
C2439 C2436 1.539 . S
C2439 H2453 0.958 . S
C2439 H2454 0.961 . S
C2439 H2455 0.960 . S
H2440 C2424 0.931 . S
H2441 C2429 0.929 . S
H2442 C2430 0.960 . S
H2443 C2430 0.962 . S
H2444 C2430 0.960 . S
H2445 C2431 0.961 . S
H2446 C2431 0.961 . S
H2447 C2431 0.961 . S
H2448 C2432 0.931 . S
H2449 C2437 0.930 . S
H2450 C2438 0.956 . S
H2451 C2438 0.961 . S
H2452 C2438 0.961 . S
H2453 C2439 0.958 . S
H2454 C2439 0.961 . S
H2455 C2439 0.960 . S
C2456 C2457 1.391 . S
C2456 C2458 1.394 . S
C2456 H2472 0.931 . S
C2457 C2456 1.391 . S
C2457 C2461 1.376 . S
C2458 C2456 1.394 . S
C2458 C2459 1.369 . S
C2458 C2462 1.531 . S
C2459 C2458 1.369 . S
C2459 C2460 1.410 . S
C2459 C2467 1.503 . S
C2460 C2459 1.410 . S
C2460 C2461 1.392 . S
C2460 C2463 1.511 . S
C2461 C2457 1.376 . S
C2461 C2460 1.392 . S
C2461 H2473 0.929 . S
C2462 C2458 1.531 . S
C2462 H2474 0.960 . S
C2462 H2475 0.962 . S
C2462 H2476 0.960 . S
C2463 C2460 1.511 . S
C2463 H2477 0.961 . S
C2463 H2478 0.961 . S
C2463 H2479 0.961 . S
C2464 C2465 1.370 . S
C2464 C2466 1.363 . S
C2464 H2480 0.931 . S
C2465 C2464 1.370 . S
C2465 C2469 1.408 . S
C2466 C2464 1.363 . S
C2466 C2467 1.370 . S
C2466 C2470 1.524 . S
C2467 C2459 1.503 . S
C2467 C2466 1.370 . S
C2467 C2468 1.403 . S
C2468 C2467 1.403 . S
C2468 C2469 1.404 . S
C2468 C2471 1.539 . S
C2469 C2465 1.408 . S
C2469 C2468 1.404 . S
C2469 H2481 0.930 . S
C2470 C2466 1.524 . S
C2470 H2482 0.956 . S
C2470 H2483 0.961 . S
C2470 H2484 0.961 . S
C2471 C2468 1.539 . S
C2471 H2485 0.958 . S
C2471 H2486 0.961 . S
C2471 H2487 0.960 . S
H2472 C2456 0.931 . S
H2473 C2461 0.929 . S
H2474 C2462 0.960 . S
H2475 C2462 0.962 . S
H2476 C2462 0.960 . S
H2477 C2463 0.961 . S
H2478 C2463 0.961 . S
H2479 C2463 0.961 . S
H2480 C2464 0.931 . S
H2481 C2469 0.930 . S
H2482 C2470 0.956 . S
H2483 C2470 0.961 . S
H2484 C2470 0.961 . S
H2485 C2471 0.958 . S
H2486 C2471 0.961 . S
H2487 C2471 0.960 . S
C2488 C2489 1.391 . S
C2488 C2490 1.394 . S
C2488 H2504 0.931 . S
C2489 C2488 1.391 . S
C2489 C2493 1.376 . S
C2490 C2488 1.394 . S
C2490 C2491 1.369 . S
C2490 C2494 1.531 . S
C2491 C2490 1.369 . S
C2491 C2492 1.410 . S
C2491 C2499 1.503 . S
C2492 C2491 1.410 . S
C2492 C2493 1.392 . S
C2492 C2495 1.511 . S
C2493 C2489 1.376 . S
C2493 C2492 1.392 . S
C2493 H2505 0.929 . S
C2494 C2490 1.531 . S
C2494 H2506 0.960 . S
C2494 H2507 0.962 . S
C2494 H2508 0.960 . S
C2495 C2492 1.511 . S
C2495 H2509 0.961 . S
C2495 H2510 0.961 . S
C2495 H2511 0.961 . S
C2496 C2497 1.370 . S
C2496 C2498 1.363 . S
C2496 H2512 0.931 . S
C2497 C2496 1.370 . S
C2497 C2501 1.408 . S
C2498 C2496 1.363 . S
C2498 C2499 1.370 . S
C2498 C2502 1.524 . S
C2499 C2491 1.503 . S
C2499 C2498 1.370 . S
C2499 C2500 1.403 . S
C2500 C2499 1.403 . S
C2500 C2501 1.404 . S
C2500 C2503 1.539 . S
C2501 C2497 1.408 . S
C2501 C2500 1.404 . S
C2501 H2513 0.930 . S
C2502 C2498 1.524 . S
C2502 H2514 0.956 . S
C2502 H2515 0.961 . S
C2502 H2516 0.961 . S
C2503 C2500 1.539 . S
C2503 H2517 0.958 . S
C2503 H2518 0.961 . S
C2503 H2519 0.960 . S
H2504 C2488 0.931 . S
H2505 C2493 0.929 . S
H2506 C2494 0.960 . S
H2507 C2494 0.962 . S
H2508 C2494 0.960 . S
H2509 C2495 0.961 . S
H2510 C2495 0.961 . S
H2511 C2495 0.961 . S
H2512 C2496 0.931 . S
H2513 C2501 0.930 . S
H2514 C2502 0.956 . S
H2515 C2502 0.961 . S
H2516 C2502 0.961 . S
H2517 C2503 0.958 . S
H2518 C2503 0.961 . S
H2519 C2503 0.960 . S
C2520 C2521 1.391 . S
C2520 C2522 1.394 . S
C2520 H2536 0.931 . S
C2521 C2520 1.391 . S
C2521 C2525 1.376 . S
C2522 C2520 1.394 . S
C2522 C2523 1.369 . S
C2522 C2526 1.531 . S
C2523 C2522 1.369 . S
C2523 C2524 1.410 . S
C2523 C2531 1.503 . S
C2524 C2523 1.410 . S
C2524 C2525 1.392 . S
C2524 C2527 1.511 . S
C2525 C2521 1.376 . S
C2525 C2524 1.392 . S
C2525 H2537 0.929 . S
C2526 C2522 1.531 . S
C2526 H2538 0.960 . S
C2526 H2539 0.962 . S
C2526 H2540 0.960 . S
C2527 C2524 1.511 . S
C2527 H2541 0.961 . S
C2527 H2542 0.961 . S
C2527 H2543 0.961 . S
C2528 C2529 1.370 . S
C2528 C2530 1.363 . S
C2528 H2544 0.931 . S
C2529 C2528 1.370 . S
C2529 C2533 1.408 . S
C2530 C2528 1.363 . S
C2530 C2531 1.370 . S
C2530 C2534 1.524 . S
C2531 C2523 1.503 . S
C2531 C2530 1.370 . S
C2531 C2532 1.403 . S
C2532 C2531 1.403 . S
C2532 C2533 1.404 . S
C2532 C2535 1.539 . S
C2533 C2529 1.408 . S
C2533 C2532 1.404 . S
C2533 H2545 0.930 . S
C2534 C2530 1.524 . S
C2534 H2546 0.956 . S
C2534 H2547 0.961 . S
C2534 H2548 0.961 . S
C2535 C2532 1.539 . S
C2535 H2549 0.958 . S
C2535 H2550 0.961 . S
C2535 H2551 0.960 . S
H2536 C2520 0.931 . S
H2537 C2525 0.929 . S
H2538 C2526 0.960 . S
H2539 C2526 0.962 . S
H2540 C2526 0.960 . S
H2541 C2527 0.961 . S
H2542 C2527 0.961 . S
H2543 C2527 0.961 . S
H2544 C2528 0.931 . S
H2545 C2533 0.930 . S
H2546 C2534 0.956 . S
H2547 C2534 0.961 . S
H2548 C2534 0.961 . S
H2549 C2535 0.958 . S
H2550 C2535 0.961 . S
H2551 C2535 0.960 . S
C2552 C2553 1.391 . S
C2552 C2554 1.394 1_556 S
C2552 H2568 0.931 . S
C2553 C2552 1.391 . S
C2553 C2557 1.376 1_455 S
C2554 C2552 1.394 1_554 S
C2554 C2555 1.369 . S
C2554 C2558 1.531 . S
C2555 C2554 1.369 . S
C2555 C2556 1.410 1_455 S
C2555 C2563 1.503 . S
C2556 C2555 1.410 1_655 S
C2556 C2557 1.392 1_554 S
C2556 C2559 1.511 . S
C2557 C2553 1.376 1_655 S
C2557 C2556 1.392 1_556 S
C2557 H2569 0.929 . S
C2558 C2554 1.531 . S
C2558 H2570 0.960 . S
C2558 H2571 0.962 . S
C2558 H2572 0.960 1_554 S
C2559 C2556 1.511 . S
C2559 H2573 0.961 . S
C2559 H2574 0.961 . S
C2559 H2575 0.961 1_554 S
C2560 C2561 1.370 . S
C2560 C2562 1.363 . S
C2560 H2576 0.931 . S
C2561 C2560 1.370 . S
C2561 C2565 1.408 . S
C2562 C2560 1.363 . S
C2562 C2563 1.370 . S
C2562 C2566 1.524 . S
C2563 C2555 1.503 . S
C2563 C2562 1.370 . S
C2563 C2564 1.403 . S
C2564 C2563 1.403 . S
C2564 C2565 1.404 . S
C2564 C2567 1.539 1_554 S
C2565 C2561 1.408 . S
C2565 C2564 1.404 . S
C2565 H2577 0.930 . S
C2566 C2562 1.524 . S
C2566 H2578 0.956 . S
C2566 H2579 0.961 . S
C2566 H2580 0.961 . S
C2567 C2564 1.539 1_556 S
C2567 H2581 0.958 . S
C2567 H2582 0.961 1_455 S
C2567 H2583 0.960 1_455 S
H2568 C2552 0.931 . S
H2569 C2557 0.929 . S
H2570 C2558 0.960 . S
H2571 C2558 0.962 . S
H2572 C2558 0.960 1_556 S
H2573 C2559 0.961 . S
H2574 C2559 0.961 . S
H2575 C2559 0.961 1_556 S
H2576 C2560 0.931 . S
H2577 C2565 0.930 . S
H2578 C2566 0.956 . S
H2579 C2566 0.961 . S
H2580 C2566 0.961 . S
H2581 C2567 0.958 . S
H2582 C2567 0.961 1_655 S
H2583 C2567 0.960 1_655 S
C2584 C2585 1.365 1_655 S
C2584 C2586 1.394 . S
C2584 H2600 0.931 . S
C2585 C2584 1.365 1_455 S
C2585 C2589 1.378 . S
C2586 C2584 1.394 . S
C2586 C2587 1.369 . S
C2586 C2590 1.531 . S
C2587 C2586 1.369 . S
C2587 C2588 1.410 . S
C2587 C2595 1.503 . S
C2588 C2587 1.410 . S
C2588 C2589 1.392 1_655 S
C2588 C2591 1.511 . S
C2589 C2585 1.378 . S
C2589 C2588 1.392 1_455 S
C2589 H2601 0.929 . S
C2590 C2586 1.531 . S
C2590 H2602 0.960 . S
C2590 H2603 0.962 . S
C2590 H2604 0.960 . S
C2591 C2588 1.511 . S
C2591 H2605 0.961 1_655 S
C2591 H2606 0.961 . S
C2591 H2607 0.961 1_655 S
C2592 C2593 1.370 . S
C2592 C2594 1.363 . S
C2592 H2608 0.931 . S
C2593 C2592 1.370 . S
C2593 C2597 1.408 . S
C2594 C2592 1.363 . S
C2594 C2595 1.370 . S
C2594 C2598 1.524 . S
C2595 C2587 1.503 . S
C2595 C2594 1.370 . S
C2595 C2596 1.403 . S
C2596 C2595 1.403 . S
C2596 C2597 1.404 . S
C2596 C2599 1.539 . S
C2597 C2593 1.408 . S
C2597 C2596 1.404 . S
C2597 H2609 0.930 . S
C2598 C2594 1.524 . S
C2598 H2610 0.956 . S
C2598 H2611 0.961 . S
C2598 H2612 0.961 . S
C2599 C2596 1.539 . S
C2599 H2613 0.958 . S
C2599 H2614 0.961 . S
C2599 H2615 0.960 . S
H2600 C2584 0.931 . S
H2601 C2589 0.929 . S
H2602 C2590 0.960 . S
H2603 C2590 0.962 . S
H2604 C2590 0.960 . S
H2605 C2591 0.961 1_455 S
H2606 C2591 0.961 . S
H2607 C2591 0.961 1_455 S
H2608 C2592 0.931 . S
H2609 C2597 0.930 . S
H2610 C2598 0.956 . S
H2611 C2598 0.961 . S
H2612 C2598 0.961 . S
H2613 C2599 0.958 . S
H2614 C2599 0.961 . S
H2615 C2599 0.960 . S
C2616 C2617 1.391 . S
C2616 C2618 1.394 . S
C2616 H2632 0.931 . S
C2617 C2616 1.391 . S
C2617 C2621 1.376 . S
C2618 C2616 1.394 . S
C2618 C2619 1.369 . S
C2618 C2622 1.531 . S
C2619 C2618 1.369 . S
C2619 C2620 1.410 . S
C2619 C2627 1.503 . S
C2620 C2619 1.410 . S
C2620 C2621 1.392 . S
C2620 C2623 1.511 . S
C2621 C2617 1.376 . S
C2621 C2620 1.392 . S
C2621 H2633 0.929 . S
C2622 C2618 1.531 . S
C2622 H2634 0.960 . S
C2622 H2635 0.962 . S
C2622 H2636 0.960 . S
C2623 C2620 1.511 . S
C2623 H2637 0.961 . S
C2623 H2638 0.961 . S
C2623 H2639 0.961 . S
C2624 C2625 1.370 . S
C2624 C2626 1.363 . S
C2624 H2640 0.931 . S
C2625 C2624 1.370 . S
C2625 C2629 1.408 . S
C2626 C2624 1.363 . S
C2626 C2627 1.370 . S
C2626 C2630 1.524 . S
C2627 C2619 1.503 . S
C2627 C2626 1.370 . S
C2627 C2628 1.403 . S
C2628 C2627 1.403 . S
C2628 C2629 1.404 . S
C2628 C2631 1.539 . S
C2629 C2625 1.408 . S
C2629 C2628 1.404 . S
C2629 H2641 0.930 . S
C2630 C2626 1.524 . S
C2630 H2642 0.956 . S
C2630 H2643 0.961 . S
C2630 H2644 0.961 . S
C2631 C2628 1.539 . S
C2631 H2645 0.958 . S
C2631 H2646 0.961 . S
C2631 H2647 0.960 . S
H2632 C2616 0.931 . S
H2633 C2621 0.929 . S
H2634 C2622 0.960 . S
H2635 C2622 0.962 . S
H2636 C2622 0.960 . S
H2637 C2623 0.961 . S
H2638 C2623 0.961 . S
H2639 C2623 0.961 . S
H2640 C2624 0.931 . S
H2641 C2629 0.930 . S
H2642 C2630 0.956 . S
H2643 C2630 0.961 . S
H2644 C2630 0.961 . S
H2645 C2631 0.958 . S
H2646 C2631 0.961 . S
H2647 C2631 0.960 . S
C2648 C2649 1.391 . S
C2648 C2650 1.394 . S
C2648 H2664 0.931 . S
C2649 C2648 1.391 . S
C2649 C2653 1.376 . S
C2650 C2648 1.394 . S
C2650 C2651 1.369 . S
C2650 C2654 1.531 . S
C2651 C2650 1.369 . S
C2651 C2652 1.410 . S
C2651 C2659 1.503 . S
C2652 C2651 1.410 . S
C2652 C2653 1.392 . S
C2652 C2655 1.511 . S
C2653 C2649 1.376 . S
C2653 C2652 1.392 . S
C2653 H2665 0.929 . S
C2654 C2650 1.531 . S
C2654 H2666 0.960 . S
C2654 H2667 0.962 . S
C2654 H2668 0.960 . S
C2655 C2652 1.511 . S
C2655 H2669 0.961 . S
C2655 H2670 0.961 . S
C2655 H2671 0.961 . S
C2656 C2657 1.370 . S
C2656 C2658 1.363 . S
C2656 H2672 0.931 . S
C2657 C2656 1.370 . S
C2657 C2661 1.408 . S
C2658 C2656 1.363 . S
C2658 C2659 1.370 . S
C2658 C2662 1.524 . S
C2659 C2651 1.503 . S
C2659 C2658 1.370 . S
C2659 C2660 1.403 . S
C2660 C2659 1.403 . S
C2660 C2661 1.404 . S
C2660 C2663 1.539 . S
C2661 C2657 1.408 . S
C2661 C2660 1.404 . S
C2661 H2673 0.930 . S
C2662 C2658 1.524 . S
C2662 H2674 0.956 . S
C2662 H2675 0.961 . S
C2662 H2676 0.961 . S
C2663 C2660 1.539 . S
C2663 H2677 0.958 . S
C2663 H2678 0.961 . S
C2663 H2679 0.960 . S
H2664 C2648 0.931 . S
H2665 C2653 0.929 . S
H2666 C2654 0.960 . S
H2667 C2654 0.962 . S
H2668 C2654 0.960 . S
H2669 C2655 0.961 . S
H2670 C2655 0.961 . S
H2671 C2655 0.961 . S
H2672 C2656 0.931 . S
H2673 C2661 0.930 . S
H2674 C2662 0.956 . S
H2675 C2662 0.961 . S
H2676 C2662 0.961 . S
H2677 C2663 0.958 . S
H2678 C2663 0.961 . S
H2679 C2663 0.960 . S
C2680 C2681 1.391 . S
C2680 C2682 1.394 . S
C2680 H2696 0.931 . S
C2681 C2680 1.391 . S
C2681 C2685 1.376 . S
C2682 C2680 1.394 . S
C2682 C2683 1.369 . S
C2682 C2686 1.531 . S
C2683 C2682 1.369 . S
C2683 C2684 1.410 . S
C2683 C2691 1.503 . S
C2684 C2683 1.410 . S
C2684 C2685 1.392 . S
C2684 C2687 1.511 . S
C2685 C2681 1.376 . S
C2685 C2684 1.392 . S
C2685 H2697 0.929 . S
C2686 C2682 1.531 . S
C2686 H2698 0.960 . S
C2686 H2699 0.962 1_455 S
C2686 H2700 0.960 . S
C2687 C2684 1.511 . S
C2687 H2701 0.961 . S
C2687 H2702 0.961 . S
C2687 H2703 0.961 . S
C2688 C2689 1.370 1_655 S
C2688 C2690 1.363 . S
C2688 H2704 0.931 . S
C2689 C2688 1.370 1_455 S
C2689 C2693 1.408 . S
C2690 C2688 1.363 . S
C2690 C2691 1.370 1_655 S
C2690 C2694 1.524 . S
C2691 C2683 1.503 . S
C2691 C2690 1.370 1_455 S
C2691 C2692 1.403 . S
C2692 C2691 1.403 . S
C2692 C2693 1.404 . S
C2692 C2695 1.539 . S
C2693 C2689 1.408 . S
C2693 C2692 1.404 . S
C2693 H2705 0.930 . S
C2694 C2690 1.524 . S
C2694 H2706 0.956 . S
C2694 H2707 0.961 . S
C2694 H2708 0.961 . S
C2695 C2692 1.539 . S
C2695 H2709 0.958 . S
C2695 H2710 0.961 . S
C2695 H2711 0.960 . S
H2696 C2680 0.931 . S
H2697 C2685 0.929 . S
H2698 C2686 0.960 . S
H2699 C2686 0.962 1_655 S
H2700 C2686 0.960 . S
H2701 C2687 0.961 . S
H2702 C2687 0.961 . S
H2703 C2687 0.961 . S
H2704 C2688 0.931 . S
H2705 C2693 0.930 . S
H2706 C2694 0.956 . S
H2707 C2694 0.961 . S
H2708 C2694 0.961 . S
H2709 C2695 0.958 . S
H2710 C2695 0.961 . S
H2711 C2695 0.960 . S
C2712 C2713 1.391 . S
C2712 C2714 1.394 . S
C2712 H2728 0.931 . S
C2713 C2712 1.391 . S
C2713 C2717 1.376 . S
C2714 C2712 1.394 . S
C2714 C2715 1.369 . S
C2714 C2718 1.531 . S
C2715 C2714 1.369 . S
C2715 C2716 1.410 . S
C2715 C2723 1.503 . S
C2716 C2715 1.410 . S
C2716 C2717 1.392 . S
C2716 C2719 1.511 . S
C2717 C2713 1.376 . S
C2717 C2716 1.392 . S
C2717 H2729 0.929 . S
C2718 C2714 1.531 . S
C2718 H2730 0.960 . S
C2718 H2731 0.962 . S
C2718 H2732 0.960 . S
C2719 C2716 1.511 . S
C2719 H2733 0.961 . S
C2719 H2734 0.961 . S
C2719 H2735 0.961 . S
C2720 C2721 1.370 . S
C2720 C2722 1.363 . S
C2720 H2736 0.931 . S
C2721 C2720 1.370 . S
C2721 C2725 1.408 . S
C2722 C2720 1.363 . S
C2722 C2723 1.370 . S
C2722 C2726 1.524 . S
C2723 C2715 1.503 . S
C2723 C2722 1.370 . S
C2723 C2724 1.403 . S
C2724 C2723 1.403 . S
C2724 C2725 1.404 . S
C2724 C2727 1.539 . S
C2725 C2721 1.408 . S
C2725 C2724 1.404 . S
C2725 H2737 0.930 . S
C2726 C2722 1.524 . S
C2726 H2738 0.956 . S
C2726 H2739 0.961 . S
C2726 H2740 0.961 . S
C2727 C2724 1.539 . S
C2727 H2741 0.958 . S
C2727 H2742 0.961 . S
C2727 H2743 0.960 . S
H2728 C2712 0.931 . S
H2729 C2717 0.929 . S
H2730 C2718 0.960 . S
H2731 C2718 0.962 . S
H2732 C2718 0.960 . S
H2733 C2719 0.961 . S
H2734 C2719 0.961 . S
H2735 C2719 0.961 . S
H2736 C2720 0.931 . S
H2737 C2725 0.930 . S
H2738 C2726 0.956 . S
H2739 C2726 0.961 . S
H2740 C2726 0.961 . S
H2741 C2727 0.958 . S
H2742 C2727 0.961 . S
H2743 C2727 0.960 . S
C2744 C2745 1.391 . S
C2744 C2746 1.394 . S
C2744 H2760 0.931 . S
C2745 C2744 1.391 . S
C2745 C2749 1.376 . S
C2746 C2744 1.394 . S
C2746 C2747 1.369 . S
C2746 C2750 1.531 . S
C2747 C2746 1.369 . S
C2747 C2748 1.410 . S
C2747 C2755 1.503 . S
C2748 C2747 1.410 . S
C2748 C2749 1.392 . S
C2748 C2751 1.511 . S
C2749 C2745 1.376 . S
C2749 C2748 1.392 . S
C2749 H2761 0.929 . S
C2750 C2746 1.531 . S
C2750 H2762 0.960 . S
C2750 H2763 0.962 . S
C2750 H2764 0.960 . S
C2751 C2748 1.511 . S
C2751 H2765 0.961 . S
C2751 H2766 0.961 . S
C2751 H2767 0.961 . S
C2752 C2753 1.370 . S
C2752 C2754 1.363 . S
C2752 H2768 0.931 . S
C2753 C2752 1.370 . S
C2753 C2757 1.408 . S
C2754 C2752 1.363 . S
C2754 C2755 1.370 . S
C2754 C2758 1.524 . S
C2755 C2747 1.503 . S
C2755 C2754 1.370 . S
C2755 C2756 1.403 . S
C2756 C2755 1.403 . S
C2756 C2757 1.404 . S
C2756 C2759 1.539 . S
C2757 C2753 1.408 . S
C2757 C2756 1.404 . S
C2757 H2769 0.930 . S
C2758 C2754 1.524 . S
C2758 H2770 0.956 . S
C2758 H2771 0.961 . S
C2758 H2772 0.961 . S
C2759 C2756 1.539 . S
C2759 H2773 0.958 . S
C2759 H2774 0.961 . S
C2759 H2775 0.960 . S
H2760 C2744 0.931 . S
H2761 C2749 0.929 . S
H2762 C2750 0.960 . S
H2763 C2750 0.962 . S
H2764 C2750 0.960 . S
H2765 C2751 0.961 . S
H2766 C2751 0.961 . S
H2767 C2751 0.961 . S
H2768 C2752 0.931 . S
H2769 C2757 0.930 . S
H2770 C2758 0.956 . S
H2771 C2758 0.961 . S
H2772 C2758 0.961 . S
H2773 C2759 0.958 . S
H2774 C2759 0.961 . S
H2775 C2759 0.960 . S
C2776 C2777 1.391 . S
C2776 C2778 1.394 1_554 S
C2776 H2792 0.931 . S
C2777 C2776 1.391 . S
C2777 C2781 1.376 1_554 S
C2778 C2776 1.394 1_556 S
C2778 C2779 1.369 . S
C2778 C2782 1.527 . S
C2779 C2778 1.369 . S
C2779 C2780 1.410 . S
C2779 C2787 1.503 . S
C2780 C2779 1.410 . S
C2780 C2781 1.392 . S
C2780 C2783 1.511 . S
C2781 C2777 1.376 1_556 S
C2781 C2780 1.392 . S
C2781 H2793 0.929 . S
C2782 C2778 1.527 . S
C2782 H2794 0.985 . S
C2782 H2795 0.946 1_556 S
C2782 H2796 0.956 1_556 S
C2783 C2780 1.511 . S
C2783 H2797 0.961 . S
C2783 H2798 0.961 . S
C2783 H2799 0.961 . S
C2784 C2785 1.370 . S
C2784 C2786 1.363 . S
C2784 H2800 0.931 . S
C2785 C2784 1.370 . S
C2785 C2789 1.408 . S
C2786 C2784 1.363 . S
C2786 C2787 1.370 . S
C2786 C2790 1.524 1_556 S
C2787 C2779 1.503 . S
C2787 C2786 1.370 . S
C2787 C2788 1.403 . S
C2788 C2787 1.403 . S
C2788 C2789 1.404 . S
C2788 C2791 1.539 . S
C2789 C2785 1.408 . S
C2789 C2788 1.404 . S
C2789 H2801 0.930 . S
C2790 C2786 1.524 1_554 S
C2790 H2802 0.956 . S
C2790 H2803 0.961 . S
C2790 H2804 0.961 . S
C2791 C2788 1.539 . S
C2791 H2805 0.958 . S
C2791 H2806 0.961 . S
C2791 H2807 0.960 . S
H2792 C2776 0.931 . S
H2793 C2781 0.929 . S
H2794 C2782 0.985 . S
H2795 C2782 0.946 1_554 S
H2796 C2782 0.956 1_554 S
H2797 C2783 0.961 . S
H2798 C2783 0.961 . S
H2799 C2783 0.961 . S
H2800 C2784 0.931 . S
H2801 C2789 0.930 . S
H2802 C2790 0.956 . S
H2803 C2790 0.961 . S
H2804 C2790 0.961 . S
H2805 C2791 0.958 . S
H2806 C2791 0.961 . S
H2807 C2791 0.960 . S
C2808 C2809 1.391 . S
C2808 C2810 1.394 . S
C2808 H2824 0.931 . S
C2809 C2808 1.391 . S
C2809 C2813 1.376 . S
C2810 C2808 1.394 . S
C2810 C2811 1.369 . S
C2810 C2814 1.531 . S
C2811 C2810 1.369 . S
C2811 C2812 1.410 . S
C2811 C2819 1.503 . S
C2812 C2811 1.410 . S
C2812 C2813 1.392 . S
C2812 C2815 1.511 . S
C2813 C2809 1.376 . S
C2813 C2812 1.392 . S
C2813 H2825 0.929 . S
C2814 C2810 1.531 . S
C2814 H2826 0.960 . S
C2814 H2827 0.962 . S
C2814 H2828 0.960 . S
C2815 C2812 1.511 . S
C2815 H2829 0.961 . S
C2815 H2830 0.961 . S
C2815 H2831 0.961 . S
C2816 C2817 1.370 . S
C2816 C2818 1.363 . S
C2816 H2832 0.931 . S
C2817 C2816 1.370 . S
C2817 C2821 1.408 . S
C2818 C2816 1.363 . S
C2818 C2819 1.370 . S
C2818 C2822 1.524 . S
C2819 C2811 1.503 . S
C2819 C2818 1.370 . S
C2819 C2820 1.403 . S
C2820 C2819 1.403 . S
C2820 C2821 1.404 . S
C2820 C2823 1.539 . S
C2821 C2817 1.408 . S
C2821 C2820 1.404 . S
C2821 H2833 0.930 . S
C2822 C2818 1.524 . S
C2822 H2834 0.956 . S
C2822 H2835 0.961 . S
C2822 H2836 0.961 . S
C2823 C2820 1.539 . S
C2823 H2837 0.958 . S
C2823 H2838 0.961 . S
C2823 H2839 0.960 . S
H2824 C2808 0.931 . S
H2825 C2813 0.929 . S
H2826 C2814 0.960 . S
H2827 C2814 0.962 . S
H2828 C2814 0.960 . S
H2829 C2815 0.961 . S
H2830 C2815 0.961 . S
H2831 C2815 0.961 . S
H2832 C2816 0.931 . S
H2833 C2821 0.930 . S
H2834 C2822 0.956 . S
H2835 C2822 0.961 . S
H2836 C2822 0.961 . S
H2837 C2823 0.958 . S
H2838 C2823 0.961 . S
H2839 C2823 0.960 . S
C2840 C2841 1.391 . S
C2840 C2842 1.394 . S
C2840 H2856 0.931 . S
C2841 C2840 1.391 . S
C2841 C2845 1.376 . S
C2842 C2840 1.394 . S
C2842 C2843 1.369 . S
C2842 C2846 1.531 . S
C2843 C2842 1.369 . S
C2843 C2844 1.410 . S
C2843 C2851 1.503 . S
C2844 C2843 1.410 . S
C2844 C2845 1.392 . S
C2844 C2847 1.511 . S
C2845 C2841 1.376 . S
C2845 C2844 1.392 . S
C2845 H2857 0.929 . S
C2846 C2842 1.531 . S
C2846 H2858 0.960 . S
C2846 H2859 0.962 . S
C2846 H2860 0.960 . S
C2847 C2844 1.511 . S
C2847 H2861 0.961 . S
C2847 H2862 0.961 . S
C2847 H2863 0.961 . S
C2848 C2849 1.370 . S
C2848 C2850 1.363 . S
C2848 H2864 0.931 . S
C2849 C2848 1.370 . S
C2849 C2853 1.408 . S
C2850 C2848 1.363 . S
C2850 C2851 1.370 . S
C2850 C2854 1.524 . S
C2851 C2843 1.503 . S
C2851 C2850 1.370 . S
C2851 C2852 1.403 . S
C2852 C2851 1.403 . S
C2852 C2853 1.404 . S
C2852 C2855 1.539 . S
C2853 C2849 1.408 . S
C2853 C2852 1.404 . S
C2853 H2865 0.930 . S
C2854 C2850 1.524 . S
C2854 H2866 0.956 . S
C2854 H2867 0.961 . S
C2854 H2868 0.961 . S
C2855 C2852 1.539 . S
C2855 H2869 0.958 . S
C2855 H2870 0.961 . S
C2855 H2871 0.960 . S
H2856 C2840 0.931 . S
H2857 C2845 0.929 . S
H2858 C2846 0.960 . S
H2859 C2846 0.962 . S
H2860 C2846 0.960 . S
H2861 C2847 0.961 . S
H2862 C2847 0.961 . S
H2863 C2847 0.961 . S
H2864 C2848 0.931 . S
H2865 C2853 0.930 . S
H2866 C2854 0.956 . S
H2867 C2854 0.961 . S
H2868 C2854 0.961 . S
H2869 C2855 0.958 . S
H2870 C2855 0.961 . S
H2871 C2855 0.960 . S
C2872 C2873 1.391 . S
C2872 C2874 1.394 . S
C2872 H2888 0.931 . S
C2873 C2872 1.391 . S
C2873 C2877 1.376 . S
C2874 C2872 1.394 . S
C2874 C2875 1.369 . S
C2874 C2878 1.531 . S
C2875 C2874 1.369 . S
C2875 C2876 1.410 . S
C2875 C2883 1.503 . S
C2876 C2875 1.410 . S
C2876 C2877 1.392 . S
C2876 C2879 1.511 . S
C2877 C2873 1.376 . S
C2877 C2876 1.392 . S
C2877 H2889 0.929 . S
C2878 C2874 1.531 . S
C2878 H2890 0.960 . S
C2878 H2891 0.962 . S
C2878 H2892 0.960 . S
C2879 C2876 1.511 . S
C2879 H2893 0.961 . S
C2879 H2894 0.961 . S
C2879 H2895 0.961 . S
C2880 C2881 1.370 . S
C2880 C2882 1.363 . S
C2880 H2896 0.931 . S
C2881 C2880 1.370 . S
C2881 C2885 1.408 . S
C2882 C2880 1.363 . S
C2882 C2883 1.370 . S
C2882 C2886 1.524 . S
C2883 C2875 1.503 . S
C2883 C2882 1.370 . S
C2883 C2884 1.403 . S
C2884 C2883 1.403 . S
C2884 C2885 1.404 . S
C2884 C2887 1.539 . S
C2885 C2881 1.408 . S
C2885 C2884 1.404 . S
C2885 H2897 0.930 . S
C2886 C2882 1.524 . S
C2886 H2898 0.956 . S
C2886 H2899 0.961 . S
C2886 H2900 0.961 . S
C2887 C2884 1.539 . S
C2887 H2901 0.958 . S
C2887 H2902 0.961 . S
C2887 H2903 0.960 . S
H2888 C2872 0.931 . S
H2889 C2877 0.929 . S
H2890 C2878 0.960 . S
H2891 C2878 0.962 . S
H2892 C2878 0.960 . S
H2893 C2879 0.961 . S
H2894 C2879 0.961 . S
H2895 C2879 0.961 . S
H2896 C2880 0.931 . S
H2897 C2885 0.930 . S
H2898 C2886 0.956 . S
H2899 C2886 0.961 . S
H2900 C2886 0.961 . S
H2901 C2887 0.958 . S
H2902 C2887 0.961 . S
H2903 C2887 0.960 . S
C2904 C2905 1.391 . S
C2904 C2906 1.394 . S
C2904 H2920 0.931 . S
C2905 C2904 1.391 . S
C2905 C2909 1.376 . S
C2906 C2904 1.394 . S
C2906 C2907 1.369 . S
C2906 C2910 1.531 . S
C2907 C2906 1.369 . S
C2907 C2908 1.410 . S
C2907 C2915 1.503 . S
C2908 C2907 1.410 . S
C2908 C2909 1.392 . S
C2908 C2911 1.511 . S
C2909 C2905 1.376 . S
C2909 C2908 1.392 . S
C2909 H2921 0.929 . S
C2910 C2906 1.531 . S
C2910 H2922 0.960 . S
C2910 H2923 0.962 . S
C2910 H2924 0.960 . S
C2911 C2908 1.511 . S
C2911 H2925 0.961 . S
C2911 H2926 0.961 . S
C2911 H2927 0.961 . S
C2912 C2913 1.370 . S
C2912 C2914 1.363 . S
C2912 H2928 0.931 . S
C2913 C2912 1.370 . S
C2913 C2917 1.408 . S
C2914 C2912 1.363 . S
C2914 C2915 1.370 . S
C2914 C2918 1.524 . S
C2915 C2907 1.503 . S
C2915 C2914 1.370 . S
C2915 C2916 1.403 . S
C2916 C2915 1.403 . S
C2916 C2917 1.404 . S
C2916 C2919 1.539 . S
C2917 C2913 1.408 . S
C2917 C2916 1.404 . S
C2917 H2929 0.930 . S
C2918 C2914 1.524 . S
C2918 H2930 0.956 . S
C2918 H2931 0.961 . S
C2918 H2932 0.961 . S
C2919 C2916 1.539 . S
C2919 H2933 0.958 . S
C2919 H2934 0.961 . S
C2919 H2935 0.960 . S
H2920 C2904 0.931 . S
H2921 C2909 0.929 . S
H2922 C2910 0.960 . S
H2923 C2910 0.962 . S
H2924 C2910 0.960 . S
H2925 C2911 0.961 . S
H2926 C2911 0.961 . S
H2927 C2911 0.961 . S
H2928 C2912 0.931 . S
H2929 C2917 0.930 . S
H2930 C2918 0.956 . S
H2931 C2918 0.961 . S
H2932 C2918 0.961 . S
H2933 C2919 0.958 . S
H2934 C2919 0.961 . S
H2935 C2919 0.960 . S
C2936 C2937 1.391 . S
C2936 C2938 1.394 . S
C2936 H2952 0.931 . S
C2937 C2936 1.391 . S
C2937 C2941 1.376 . S
C2938 C2936 1.394 . S
C2938 C2939 1.369 . S
C2938 C2942 1.531 . S
C2939 C2938 1.369 . S
C2939 C2940 1.410 . S
C2939 C2947 1.503 . S
C2940 C2939 1.410 . S
C2940 C2941 1.392 . S
C2940 C2943 1.511 . S
C2941 C2937 1.376 . S
C2941 C2940 1.392 . S
C2941 H2953 0.929 . S
C2942 C2938 1.531 . S
C2942 H2954 0.960 . S
C2942 H2955 0.962 . S
C2942 H2956 0.960 . S
C2943 C2940 1.511 . S
C2943 H2957 0.961 . S
C2943 H2958 0.961 . S
C2943 H2959 0.961 . S
C2944 C2945 1.370 . S
C2944 C2946 1.363 . S
C2944 H2960 0.931 . S
C2945 C2944 1.370 . S
C2945 C2949 1.408 . S
C2946 C2944 1.363 . S
C2946 C2947 1.370 . S
C2946 C2950 1.524 . S
C2947 C2939 1.503 . S
C2947 C2946 1.370 . S
C2947 C2948 1.403 . S
C2948 C2947 1.403 . S
C2948 C2949 1.404 . S
C2948 C2951 1.539 . S
C2949 C2945 1.408 . S
C2949 C2948 1.404 . S
C2949 H2961 0.930 . S
C2950 C2946 1.524 . S
C2950 H2962 0.956 . S
C2950 H2963 0.961 . S
C2950 H2964 0.961 . S
C2951 C2948 1.539 . S
C2951 H2965 0.958 . S
C2951 H2966 0.961 . S
C2951 H2967 0.960 . S
H2952 C2936 0.931 . S
H2953 C2941 0.929 . S
H2954 C2942 0.960 . S
H2955 C2942 0.962 . S
H2956 C2942 0.960 . S
H2957 C2943 0.961 . S
H2958 C2943 0.961 . S
H2959 C2943 0.961 . S
H2960 C2944 0.931 . S
H2961 C2949 0.930 . S
H2962 C2950 0.956 . S
H2963 C2950 0.961 . S
H2964 C2950 0.961 . S
H2965 C2951 0.958 . S
H2966 C2951 0.961 . S
H2967 C2951 0.960 . S
C2968 C2969 1.391 . S
C2968 C2970 1.394 . S
C2968 H2984 0.931 . S
C2969 C2968 1.391 . S
C2969 C2973 1.376 . S
C2970 C2968 1.394 . S
C2970 C2971 1.369 . S
C2970 C2974 1.531 . S
C2971 C2970 1.369 . S
C2971 C2972 1.410 . S
C2971 C2979 1.503 . S
C2972 C2971 1.410 . S
C2972 C2973 1.392 . S
C2972 C2975 1.511 . S
C2973 C2969 1.376 . S
C2973 C2972 1.392 . S
C2973 H2985 0.929 . S
C2974 C2970 1.531 . S
C2974 H2986 0.960 . S
C2974 H2987 0.962 . S
C2974 H2988 0.960 . S
C2975 C2972 1.511 . S
C2975 H2989 0.961 . S
C2975 H2990 0.961 . S
C2975 H2991 0.961 . S
C2976 C2977 1.370 . S
C2976 C2978 1.363 . S
C2976 H2992 0.931 . S
C2977 C2976 1.370 . S
C2977 C2981 1.408 . S
C2978 C2976 1.363 . S
C2978 C2979 1.370 . S
C2978 C2982 1.524 . S
C2979 C2971 1.503 . S
C2979 C2978 1.370 . S
C2979 C2980 1.403 . S
C2980 C2979 1.403 . S
C2980 C2981 1.404 . S
C2980 C2983 1.539 . S
C2981 C2977 1.408 . S
C2981 C2980 1.404 . S
C2981 H2993 0.930 . S
C2982 C2978 1.524 . S
C2982 H2994 0.956 . S
C2982 H2995 0.961 . S
C2982 H2996 0.961 . S
C2983 C2980 1.539 . S
C2983 H2997 0.958 . S
C2983 H2998 0.961 . S
C2983 H2999 0.960 . S
H2984 C2968 0.931 . S
H2985 C2973 0.929 . S
H2986 C2974 0.960 . S
H2987 C2974 0.962 . S
H2988 C2974 0.960 . S
H2989 C2975 0.961 . S
H2990 C2975 0.961 . S
H2991 C2975 0.961 . S
H2992 C2976 0.931 . S
H2993 C2981 0.930 . S
H2994 C2982 0.956 . S
H2995 C2982 0.961 . S
H2996 C2982 0.961 . S
H2997 C2983 0.958 . S
H2998 C2983 0.961 . S
H2999 C2983 0.960 . S
C3000 C3001 1.391 . S
C3000 C3002 1.394 . S
C3000 H3016 0.931 . S
C3001 C3000 1.391 . S
C3001 C3005 1.376 . S
C3002 C3000 1.394 . S
C3002 C3003 1.369 . S
C3002 C3006 1.531 . S
C3003 C3002 1.369 . S
C3003 C3004 1.410 . S
C3003 C3011 1.503 . S
C3004 C3003 1.410 . S
C3004 C3005 1.392 . S
C3004 C3007 1.511 . S
C3005 C3001 1.376 . S
C3005 C3004 1.392 . S
C3005 H3017 0.929 . S
C3006 C3002 1.531 . S
C3006 H3018 0.960 . S
C3006 H3019 0.962 . S
C3006 H3020 0.960 . S
C3007 C3004 1.511 . S
C3007 H3021 0.961 . S
C3007 H3022 0.961 . S
C3007 H3023 0.961 . S
C3008 C3009 1.370 . S
C3008 C3010 1.363 . S
C3008 H3024 0.931 . S
C3009 C3008 1.370 . S
C3009 C3013 1.408 . S
C3010 C3008 1.363 . S
C3010 C3011 1.370 . S
C3010 C3014 1.524 . S
C3011 C3003 1.503 . S
C3011 C3010 1.370 . S
C3011 C3012 1.403 . S
C3012 C3011 1.403 . S
C3012 C3013 1.404 . S
C3012 C3015 1.539 . S
C3013 C3009 1.408 . S
C3013 C3012 1.404 . S
C3013 H3025 0.930 . S
C3014 C3010 1.524 . S
C3014 H3026 0.956 . S
C3014 H3027 0.961 . S
C3014 H3028 0.961 . S
C3015 C3012 1.539 . S
C3015 H3029 0.958 . S
C3015 H3030 0.961 . S
C3015 H3031 0.960 . S
H3016 C3000 0.931 . S
H3017 C3005 0.929 . S
H3018 C3006 0.960 . S
H3019 C3006 0.962 . S
H3020 C3006 0.960 . S
H3021 C3007 0.961 . S
H3022 C3007 0.961 . S
H3023 C3007 0.961 . S
H3024 C3008 0.931 . S
H3025 C3013 0.930 . S
H3026 C3014 0.956 . S
H3027 C3014 0.961 . S
H3028 C3014 0.961 . S
H3029 C3015 0.958 . S
H3030 C3015 0.961 . S
H3031 C3015 0.960 . S
C3032 C3033 1.391 . S
C3032 C3034 1.394 . S
C3032 H3048 0.931 . S
C3033 C3032 1.391 . S
C3033 C3037 1.376 . S
C3034 C3032 1.394 . S
C3034 C3035 1.369 . S
C3034 C3038 1.531 . S
C3035 C3034 1.369 . S
C3035 C3036 1.410 . S
C3035 C3043 1.503 . S
C3036 C3035 1.410 . S
C3036 C3037 1.392 . S
C3036 C3039 1.511 . S
C3037 C3033 1.376 . S
C3037 C3036 1.392 . S
C3037 H3049 0.929 . S
C3038 C3034 1.531 . S
C3038 H3050 0.960 . S
C3038 H3051 0.962 . S
C3038 H3052 0.960 . S
C3039 C3036 1.511 . S
C3039 H3053 0.961 . S
C3039 H3054 0.961 . S
C3039 H3055 0.961 . S
C3040 C3041 1.370 . S
C3040 C3042 1.363 . S
C3040 H3056 0.931 . S
C3041 C3040 1.370 . S
C3041 C3045 1.408 . S
C3042 C3040 1.363 . S
C3042 C3043 1.370 . S
C3042 C3046 1.524 . S
C3043 C3035 1.503 . S
C3043 C3042 1.370 . S
C3043 C3044 1.403 . S
C3044 C3043 1.403 . S
C3044 C3045 1.404 . S
C3044 C3047 1.539 . S
C3045 C3041 1.408 . S
C3045 C3044 1.404 . S
C3045 H3057 0.930 . S
C3046 C3042 1.524 . S
C3046 H3058 0.956 . S
C3046 H3059 0.961 . S
C3046 H3060 0.961 . S
C3047 C3044 1.539 . S
C3047 H3061 0.958 . S
C3047 H3062 0.961 . S
C3047 H3063 0.960 . S
H3048 C3032 0.931 . S
H3049 C3037 0.929 . S
H3050 C3038 0.960 . S
H3051 C3038 0.962 . S
H3052 C3038 0.960 . S
H3053 C3039 0.961 . S
H3054 C3039 0.961 . S
H3055 C3039 0.961 . S
H3056 C3040 0.931 . S
H3057 C3045 0.930 . S
H3058 C3046 0.956 . S
H3059 C3046 0.961 . S
H3060 C3046 0.961 . S
H3061 C3047 0.958 . S
H3062 C3047 0.961 . S
H3063 C3047 0.960 . S
C3064 C3065 1.391 . S
C3064 C3066 1.394 . S
C3064 H3080 0.931 . S
C3065 C3064 1.391 . S
C3065 C3069 1.376 . S
C3066 C3064 1.394 . S
C3066 C3067 1.369 . S
C3066 C3070 1.531 . S
C3067 C3066 1.369 . S
C3067 C3068 1.410 . S
C3067 C3075 1.503 . S
C3068 C3067 1.410 . S
C3068 C3069 1.392 . S
C3068 C3071 1.511 . S
C3069 C3065 1.376 . S
C3069 C3068 1.392 . S
C3069 H3081 0.929 1_565 S
C3070 C3066 1.531 . S
C3070 H3082 0.960 . S
C3070 H3083 0.962 . S
C3070 H3084 0.960 . S
C3071 C3068 1.511 . S
C3071 H3085 0.961 1_565 S
C3071 H3086 0.961 . S
C3071 H3087 0.961 . S
C3072 C3073 1.370 . S
C3072 C3074 1.363 . S
C3072 H3088 0.931 . S
C3073 C3072 1.370 . S
C3073 C3077 1.408 . S
C3074 C3072 1.363 . S
C3074 C3075 1.370 . S
C3074 C3078 1.524 . S
C3075 C3067 1.503 . S
C3075 C3074 1.370 . S
C3075 C3076 1.403 . S
C3076 C3075 1.403 . S
C3076 C3077 1.404 . S
C3076 C3079 1.539 . S
C3077 C3073 1.408 . S
C3077 C3076 1.404 . S
C3077 H3089 0.930 . S
C3078 C3074 1.524 . S
C3078 H3090 0.956 . S
C3078 H3091 0.961 . S
C3078 H3092 0.961 . S
C3079 C3076 1.539 . S
C3079 H3093 0.958 . S
C3079 H3094 0.961 . S
C3079 H3095 0.960 . S
H3080 C3064 0.931 . S
H3081 C3069 0.929 1_545 S
H3082 C3070 0.960 . S
H3083 C3070 0.962 . S
H3084 C3070 0.960 . S
H3085 C3071 0.961 1_545 S
H3086 C3071 0.961 . S
H3087 C3071 0.961 . S
H3088 C3072 0.931 . S
H3089 C3077 0.930 . S
H3090 C3078 0.956 . S
H3091 C3078 0.961 . S
H3092 C3078 0.961 . S
H3093 C3079 0.958 . S
H3094 C3079 0.961 . S
H3095 C3079 0.960 . S
C3096 C3097 1.391 1_556 S
C3096 C3098 1.394 1_556 S
C3096 H3112 0.931 . S
C3097 C3096 1.391 1_554 S
C3097 C3101 1.376 . S
C3098 C3096 1.394 1_554 S
C3098 C3099 1.369 . S
C3098 C3102 1.531 1_564 S
C3099 C3098 1.369 . S
C3099 C3100 1.410 . S
C3099 C3107 1.506 . S
C3100 C3099 1.410 . S
C3100 C3101 1.392 . S
C3100 C3103 1.511 . S
C3101 C3097 1.376 . S
C3101 C3100 1.392 . S
C3101 H3113 0.929 . S
C3102 C3098 1.531 1_546 S
C3102 H3114 0.960 1_556 S
C3102 H3115 0.962 . S
C3102 H3116 0.960 . S
C3103 C3100 1.511 . S
C3103 H3117 0.961 . S
C3103 H3118 0.961 . S
C3103 H3119 0.961 . S
C3104 C3105 1.370 1_556 S
C3104 C3106 1.363 . S
C3104 H3120 0.931 . S
C3105 C3104 1.370 1_554 S
C3105 C3109 1.408 . S
C3106 C3104 1.363 . S
C3106 C3107 1.370 1_546 S
C3106 C3110 1.524 1_545 S
C3107 C3099 1.506 . S
C3107 C3106 1.370 1_564 S
C3107 C3108 1.399 1_565 S
C3108 C3107 1.399 1_545 S
C3108 C3109 1.404 . S
C3108 C3111 1.539 . S
C3109 C3105 1.408 . S
C3109 C3108 1.404 . S
C3109 H3121 0.930 . S
C3110 C3106 1.524 1_565 S
C3110 H3122 0.956 . S
C3110 H3123 0.961 . S
C3110 H3124 0.961 . S
C3111 C3108 1.539 . S
C3111 H3125 0.958 . S
C3111 H3126 0.961 . S
C3111 H3127 0.960 1_545 S
H3112 C3096 0.931 . S
H3113 C3101 0.929 . S
H3114 C3102 0.960 1_554 S
H3115 C3102 0.962 . S
H3116 C3102 0.960 . S
H3117 C3103 0.961 . S
H3118 C3103 0.961 . S
H3119 C3103 0.961 . S
H3120 C3104 0.931 . S
H3121 C3109 0.930 . S
H3122 C3110 0.956 . S
H3123 C3110 0.961 . S
H3124 C3110 0.961 . S
H3125 C3111 0.958 . S
H3126 C3111 0.961 . S
H3127 C3111 0.960 1_565 S
C3128 C3129 1.391 . S
C3128 C3130 1.394 . S
C3128 H3144 0.931 . S
C3129 C3128 1.391 . S
C3129 C3133 1.376 . S
C3130 C3128 1.394 . S
C3130 C3131 1.369 . S
C3130 C3134 1.531 . S
C3131 C3130 1.369 . S
C3131 C3132 1.410 . S
C3131 C3139 1.503 . S
C3132 C3131 1.410 . S
C3132 C3133 1.392 . S
C3132 C3135 1.511 . S
C3133 C3129 1.376 . S
C3133 C3132 1.392 . S
C3133 H3145 0.929 . S
C3134 C3130 1.531 . S
C3134 H3146 0.960 . S
C3134 H3147 0.962 . S
C3134 H3148 0.960 . S
C3135 C3132 1.511 . S
C3135 H3149 0.961 . S
C3135 H3150 0.961 . S
C3135 H3151 0.961 . S
C3136 C3137 1.370 . S
C3136 C3138 1.363 . S
C3136 H3152 0.931 . S
C3137 C3136 1.370 . S
C3137 C3141 1.408 . S
C3138 C3136 1.363 . S
C3138 C3139 1.370 . S
C3138 C3142 1.524 . S
C3139 C3131 1.503 . S
C3139 C3138 1.370 . S
C3139 C3140 1.403 . S
C3140 C3139 1.403 . S
C3140 C3141 1.404 . S
C3140 C3143 1.539 . S
C3141 C3137 1.408 . S
C3141 C3140 1.404 . S
C3141 H3153 0.930 . S
C3142 C3138 1.524 . S
C3142 H3154 0.956 . S
C3142 H3155 0.961 . S
C3142 H3156 0.961 . S
C3143 C3140 1.539 . S
C3143 H3157 0.958 . S
C3143 H3158 0.961 . S
C3143 H3159 0.960 . S
H3144 C3128 0.931 . S
H3145 C3133 0.929 . S
H3146 C3134 0.960 . S
H3147 C3134 0.962 . S
H3148 C3134 0.960 . S
H3149 C3135 0.961 . S
H3150 C3135 0.961 . S
H3151 C3135 0.961 . S
H3152 C3136 0.931 . S
H3153 C3141 0.930 . S
H3154 C3142 0.956 . S
H3155 C3142 0.961 . S
H3156 C3142 0.961 . S
H3157 C3143 0.958 . S
H3158 C3143 0.961 . S
H3159 C3143 0.960 . S
C3160 C3161 1.391 . S
C3160 C3162 1.394 . S
C3160 H3176 0.931 . S
C3161 C3160 1.391 . S
C3161 C3165 1.376 . S
C3162 C3160 1.394 . S
C3162 C3163 1.369 . S
C3162 C3166 1.531 . S
C3163 C3162 1.369 . S
C3163 C3164 1.410 . S
C3163 C3171 1.503 . S
C3164 C3163 1.410 . S
C3164 C3165 1.392 . S
C3164 C3167 1.511 . S
C3165 C3161 1.376 . S
C3165 C3164 1.392 . S
C3165 H3177 0.929 . S
C3166 C3162 1.531 . S
C3166 H3178 0.960 . S
C3166 H3179 0.962 . S
C3166 H3180 0.960 . S
C3167 C3164 1.511 . S
C3167 H3181 0.961 . S
C3167 H3182 0.961 . S
C3167 H3183 0.961 . S
C3168 C3169 1.370 . S
C3168 C3170 1.363 . S
C3168 H3184 0.931 . S
C3169 C3168 1.370 . S
C3169 C3173 1.408 . S
C3170 C3168 1.363 . S
C3170 C3171 1.370 . S
C3170 C3174 1.524 . S
C3171 C3163 1.503 . S
C3171 C3170 1.370 . S
C3171 C3172 1.403 . S
C3172 C3171 1.403 . S
C3172 C3173 1.404 . S
C3172 C3175 1.539 . S
C3173 C3169 1.408 . S
C3173 C3172 1.404 . S
C3173 H3185 0.930 . S
C3174 C3170 1.524 . S
C3174 H3186 0.956 . S
C3174 H3187 0.961 . S
C3174 H3188 0.961 . S
C3175 C3172 1.539 . S
C3175 H3189 0.958 . S
C3175 H3190 0.961 . S
C3175 H3191 0.960 . S
H3176 C3160 0.931 . S
H3177 C3165 0.929 . S
H3178 C3166 0.960 . S
H3179 C3166 0.962 . S
H3180 C3166 0.960 . S
H3181 C3167 0.961 . S
H3182 C3167 0.961 . S
H3183 C3167 0.961 . S
H3184 C3168 0.931 . S
H3185 C3173 0.930 . S
H3186 C3174 0.956 . S
H3187 C3174 0.961 . S
H3188 C3174 0.961 . S
H3189 C3175 0.958 . S
H3190 C3175 0.961 . S
H3191 C3175 0.960 . S
C3192 C3193 1.391 . S
C3192 C3194 1.394 . S
C3192 H3208 0.931 . S
C3193 C3192 1.391 . S
C3193 C3197 1.376 . S
C3194 C3192 1.394 . S
C3194 C3195 1.369 . S
C3194 C3198 1.531 . S
C3195 C3194 1.369 . S
C3195 C3196 1.410 . S
C3195 C3203 1.503 . S
C3196 C3195 1.410 . S
C3196 C3197 1.392 . S
C3196 C3199 1.511 . S
C3197 C3193 1.376 . S
C3197 C3196 1.392 . S
C3197 H3209 0.929 . S
C3198 C3194 1.531 . S
C3198 H3210 0.960 . S
C3198 H3211 0.962 . S
C3198 H3212 0.960 . S
C3199 C3196 1.511 . S
C3199 H3213 0.961 . S
C3199 H3214 0.961 . S
C3199 H3215 0.961 . S
C3200 C3201 1.370 . S
C3200 C3202 1.363 . S
C3200 H3216 0.931 . S
C3201 C3200 1.370 . S
C3201 C3205 1.408 . S
C3202 C3200 1.363 . S
C3202 C3203 1.370 . S
C3202 C3206 1.524 . S
C3203 C3195 1.503 . S
C3203 C3202 1.370 . S
C3203 C3204 1.403 . S
C3204 C3203 1.403 . S
C3204 C3205 1.404 . S
C3204 C3207 1.539 . S
C3205 C3201 1.408 . S
C3205 C3204 1.404 . S
C3205 H3217 0.930 . S
C3206 C3202 1.524 . S
C3206 H3218 0.956 . S
C3206 H3219 0.961 . S
C3206 H3220 0.961 . S
C3207 C3204 1.539 . S
C3207 H3221 0.958 . S
C3207 H3222 0.961 . S
C3207 H3223 0.960 . S
H3208 C3192 0.931 . S
H3209 C3197 0.929 . S
H3210 C3198 0.960 . S
H3211 C3198 0.962 . S
H3212 C3198 0.960 . S
H3213 C3199 0.961 . S
H3214 C3199 0.961 . S
H3215 C3199 0.961 . S
H3216 C3200 0.931 . S
H3217 C3205 0.930 . S
H3218 C3206 0.956 . S
H3219 C3206 0.961 . S
H3220 C3206 0.961 . S
H3221 C3207 0.958 . S
H3222 C3207 0.961 . S
H3223 C3207 0.960 . S
C3224 C3225 1.391 . S
C3224 C3226 1.394 . S
C3224 H3240 0.931 . S
C3225 C3224 1.391 . S
C3225 C3229 1.376 . S
C3226 C3224 1.394 . S
C3226 C3227 1.369 . S
C3226 C3230 1.531 . S
C3227 C3226 1.369 . S
C3227 C3228 1.410 . S
C3227 C3235 1.503 . S
C3228 C3227 1.410 . S
C3228 C3229 1.392 . S
C3228 C3231 1.511 . S
C3229 C3225 1.376 . S
C3229 C3228 1.392 . S
C3229 H3241 0.929 . S
C3230 C3226 1.531 . S
C3230 H3242 0.960 . S
C3230 H3243 0.962 . S
C3230 H3244 0.960 . S
C3231 C3228 1.511 . S
C3231 H3245 0.961 . S
C3231 H3246 0.961 . S
C3231 H3247 0.961 . S
C3232 C3233 1.370 . S
C3232 C3234 1.363 . S
C3232 H3248 0.931 . S
C3233 C3232 1.370 . S
C3233 C3237 1.408 . S
C3234 C3232 1.363 . S
C3234 C3235 1.370 . S
C3234 C3238 1.524 . S
C3235 C3227 1.503 . S
C3235 C3234 1.370 . S
C3235 C3236 1.403 . S
C3236 C3235 1.403 . S
C3236 C3237 1.404 . S
C3236 C3239 1.539 . S
C3237 C3233 1.408 . S
C3237 C3236 1.404 . S
C3237 H3249 0.930 . S
C3238 C3234 1.524 . S
C3238 H3250 0.956 . S
C3238 H3251 0.961 . S
C3238 H3252 0.961 . S
C3239 C3236 1.539 . S
C3239 H3253 0.958 . S
C3239 H3254 0.961 . S
C3239 H3255 0.960 . S
H3240 C3224 0.931 . S
H3241 C3229 0.929 . S
H3242 C3230 0.960 . S
H3243 C3230 0.962 . S
H3244 C3230 0.960 . S
H3245 C3231 0.961 . S
H3246 C3231 0.961 . S
H3247 C3231 0.961 . S
H3248 C3232 0.931 . S
H3249 C3237 0.930 . S
H3250 C3238 0.956 . S
H3251 C3238 0.961 . S
H3252 C3238 0.961 . S
H3253 C3239 0.958 . S
H3254 C3239 0.961 . S
H3255 C3239 0.960 . S
C3256 C3257 1.391 . S
C3256 C3258 1.394 . S
C3256 H3272 0.931 . S
C3257 C3256 1.391 . S
C3257 C3261 1.376 . S
C3258 C3256 1.394 . S
C3258 C3259 1.369 . S
C3258 C3262 1.531 . S
C3259 C3258 1.369 . S
C3259 C3260 1.410 . S
C3259 C3267 1.503 . S
C3260 C3259 1.410 . S
C3260 C3261 1.392 . S
C3260 C3263 1.511 . S
C3261 C3257 1.376 . S
C3261 C3260 1.392 . S
C3261 H3273 0.929 . S
C3262 C3258 1.531 . S
C3262 H3274 0.960 . S
C3262 H3275 0.962 . S
C3262 H3276 0.960 . S
C3263 C3260 1.511 . S
C3263 H3277 0.961 . S
C3263 H3278 0.961 . S
C3263 H3279 0.961 . S
C3264 C3265 1.370 . S
C3264 C3266 1.363 . S
C3264 H3280 0.931 . S
C3265 C3264 1.370 . S
C3265 C3269 1.408 . S
C3266 C3264 1.363 . S
C3266 C3267 1.370 . S
C3266 C3270 1.524 . S
C3267 C3259 1.503 . S
C3267 C3266 1.370 . S
C3267 C3268 1.403 . S
C3268 C3267 1.403 . S
C3268 C3269 1.404 . S
C3268 C3271 1.539 . S
C3269 C3265 1.408 . S
C3269 C3268 1.404 . S
C3269 H3281 0.930 . S
C3270 C3266 1.524 . S
C3270 H3282 0.956 . S
C3270 H3283 0.961 . S
C3270 H3284 0.961 . S
C3271 C3268 1.539 . S
C3271 H3285 0.958 . S
C3271 H3286 0.961 . S
C3271 H3287 0.960 . S
H3272 C3256 0.931 . S
H3273 C3261 0.929 . S
H3274 C3262 0.960 . S
H3275 C3262 0.962 . S
H3276 C3262 0.960 . S
H3277 C3263 0.961 . S
H3278 C3263 0.961 . S
H3279 C3263 0.961 . S
H3280 C3264 0.931 . S
H3281 C3269 0.930 . S
H3282 C3270 0.956 . S
H3283 C3270 0.961 . S
H3284 C3270 0.961 . S
H3285 C3271 0.958 . S
H3286 C3271 0.961 . S
H3287 C3271 0.960 . S
C3288 C3289 1.391 . S
C3288 C3290 1.394 . S
C3288 H3304 0.931 . S
C3289 C3288 1.391 . S
C3289 C3293 1.376 . S
C3290 C3288 1.394 . S
C3290 C3291 1.369 . S
C3290 C3294 1.531 . S
C3291 C3290 1.369 . S
C3291 C3292 1.410 . S
C3291 C3299 1.503 . S
C3292 C3291 1.410 . S
C3292 C3293 1.392 . S
C3292 C3295 1.511 . S
C3293 C3289 1.376 . S
C3293 C3292 1.392 . S
C3293 H3305 0.929 . S
C3294 C3290 1.531 . S
C3294 H3306 0.960 . S
C3294 H3307 0.962 . S
C3294 H3308 0.960 . S
C3295 C3292 1.511 . S
C3295 H3309 0.961 . S
C3295 H3310 0.961 . S
C3295 H3311 0.961 . S
C3296 C3297 1.370 . S
C3296 C3298 1.363 . S
C3296 H3312 0.931 . S
C3297 C3296 1.370 . S
C3297 C3301 1.408 . S
C3298 C3296 1.363 . S
C3298 C3299 1.370 . S
C3298 C3302 1.524 . S
C3299 C3291 1.503 . S
C3299 C3298 1.370 . S
C3299 C3300 1.403 . S
C3300 C3299 1.403 . S
C3300 C3301 1.404 . S
C3300 C3303 1.539 . S
C3301 C3297 1.408 . S
C3301 C3300 1.404 . S
C3301 H3313 0.930 . S
C3302 C3298 1.524 . S
C3302 H3314 0.956 . S
C3302 H3315 0.961 . S
C3302 H3316 0.961 . S
C3303 C3300 1.539 . S
C3303 H3317 0.958 . S
C3303 H3318 0.961 . S
C3303 H3319 0.960 . S
H3304 C3288 0.931 . S
H3305 C3293 0.929 . S
H3306 C3294 0.960 . S
H3307 C3294 0.962 . S
H3308 C3294 0.960 . S
H3309 C3295 0.961 . S
H3310 C3295 0.961 . S
H3311 C3295 0.961 . S
H3312 C3296 0.931 . S
H3313 C3301 0.930 . S
H3314 C3302 0.956 . S
H3315 C3302 0.961 . S
H3316 C3302 0.961 . S
H3317 C3303 0.958 . S
H3318 C3303 0.961 . S
H3319 C3303 0.960 . S
C3320 C3321 1.391 . S
C3320 C3322 1.394 . S
C3320 H3336 0.931 . S
C3321 C3320 1.391 . S
C3321 C3325 1.376 . S
C3322 C3320 1.394 . S
C3322 C3323 1.369 . S
C3322 C3326 1.531 1_455 S
C3323 C3322 1.369 . S
C3323 C3324 1.410 . S
C3323 C3331 1.503 . S
C3324 C3323 1.410 . S
C3324 C3325 1.392 . S
C3324 C3327 1.511 . S
C3325 C3321 1.376 . S
C3325 C3324 1.392 . S
C3325 H3337 0.929 . S
C3326 C3322 1.531 1_655 S
C3326 H3338 0.960 . S
C3326 H3339 0.962 . S
C3326 H3340 0.960 . S
C3327 C3324 1.511 . S
C3327 H3341 0.961 . S
C3327 H3342 0.961 . S
C3327 H3343 0.961 . S
C3328 C3329 1.370 . S
C3328 C3330 1.363 . S
C3328 H3344 0.931 . S
C3329 C3328 1.370 . S
C3329 C3333 1.408 . S
C3330 C3328 1.363 . S
C3330 C3331 1.370 . S
C3330 C3334 1.524 . S
C3331 C3323 1.503 . S
C3331 C3330 1.370 . S
C3331 C3332 1.403 . S
C3332 C3331 1.403 . S
C3332 C3333 1.404 . S
C3332 C3335 1.539 . S
C3333 C3329 1.408 . S
C3333 C3332 1.404 . S
C3333 H3345 0.930 . S
C3334 C3330 1.524 . S
C3334 H3346 0.956 . S
C3334 H3347 0.961 . S
C3334 H3348 0.961 . S
C3335 C3332 1.539 . S
C3335 H3349 0.958 . S
C3335 H3350 0.961 . S
C3335 H3351 0.960 . S
H3336 C3320 0.931 . S
H3337 C3325 0.929 . S
H3338 C3326 0.960 . S
H3339 C3326 0.962 . S
H3340 C3326 0.960 . S
H3341 C3327 0.961 . S
H3342 C3327 0.961 . S
H3343 C3327 0.961 . S
H3344 C3328 0.931 . S
H3345 C3333 0.930 . S
H3346 C3334 0.956 . S
H3347 C3334 0.961 . S
H3348 C3334 0.961 . S
H3349 C3335 0.958 . S
H3350 C3335 0.961 . S
H3351 C3335 0.960 . S
C3352 C3353 1.391 . S
C3352 C3354 1.394 . S
C3352 H3368 0.931 . S
C3353 C3352 1.391 . S
C3353 C3357 1.376 . S
C3354 C3352 1.394 . S
C3354 C3355 1.369 . S
C3354 C3358 1.531 . S
C3355 C3354 1.369 . S
C3355 C3356 1.410 . S
C3355 C3363 1.503 . S
C3356 C3355 1.410 . S
C3356 C3357 1.392 . S
C3356 C3359 1.511 . S
C3357 C3353 1.376 . S
C3357 C3356 1.392 . S
C3357 H3369 0.929 . S
C3358 C3354 1.531 . S
C3358 H3370 0.960 . S
C3358 H3371 0.962 . S
C3358 H3372 0.960 . S
C3359 C3356 1.511 . S
C3359 H3373 0.961 . S
C3359 H3374 0.961 . S
C3359 H3375 0.961 . S
C3360 C3361 1.370 . S
C3360 C3362 1.363 . S
C3360 H3376 0.931 . S
C3361 C3360 1.370 . S
C3361 C3365 1.408 . S
C3362 C3360 1.363 . S
C3362 C3363 1.370 . S
C3362 C3366 1.524 . S
C3363 C3355 1.503 . S
C3363 C3362 1.370 . S
C3363 C3364 1.403 . S
C3364 C3363 1.403 . S
C3364 C3365 1.404 . S
C3364 C3367 1.539 . S
C3365 C3361 1.408 . S
C3365 C3364 1.404 . S
C3365 H3377 0.930 . S
C3366 C3362 1.524 . S
C3366 H3378 0.956 . S
C3366 H3379 0.961 . S
C3366 H3380 0.961 . S
C3367 C3364 1.539 . S
C3367 H3381 0.958 . S
C3367 H3382 0.961 . S
C3367 H3383 0.960 . S
H3368 C3352 0.931 . S
H3369 C3357 0.929 . S
H3370 C3358 0.960 . S
H3371 C3358 0.962 . S
H3372 C3358 0.960 . S
H3373 C3359 0.961 . S
H3374 C3359 0.961 . S
H3375 C3359 0.961 . S
H3376 C3360 0.931 . S
H3377 C3365 0.930 . S
H3378 C3366 0.956 . S
H3379 C3366 0.961 . S
H3380 C3366 0.961 . S
H3381 C3367 0.958 . S
H3382 C3367 0.961 . S
H3383 C3367 0.960 . S
C3384 C3385 1.391 . S
C3384 C3386 1.394 . S
C3384 H3400 0.931 . S
C3385 C3384 1.391 . S
C3385 C3389 1.376 . S
C3386 C3384 1.394 . S
C3386 C3387 1.369 . S
C3386 C3390 1.531 . S
C3387 C3386 1.369 . S
C3387 C3388 1.410 . S
C3387 C3395 1.503 . S
C3388 C3387 1.410 . S
C3388 C3389 1.392 . S
C3388 C3391 1.511 . S
C3389 C3385 1.376 . S
C3389 C3388 1.392 . S
C3389 H3401 0.929 . S
C3390 C3386 1.531 . S
C3390 H3402 0.960 . S
C3390 H3403 0.962 . S
C3390 H3404 0.960 . S
C3391 C3388 1.511 . S
C3391 H3405 0.961 . S
C3391 H3406 0.961 . S
C3391 H3407 0.961 . S
C3392 C3393 1.370 . S
C3392 C3394 1.363 . S
C3392 H3408 0.931 . S
C3393 C3392 1.370 . S
C3393 C3397 1.408 . S
C3394 C3392 1.363 . S
C3394 C3395 1.370 . S
C3394 C3398 1.524 . S
C3395 C3387 1.503 . S
C3395 C3394 1.370 . S
C3395 C3396 1.403 . S
C3396 C3395 1.403 . S
C3396 C3397 1.404 . S
C3396 C3399 1.539 . S
C3397 C3393 1.408 . S
C3397 C3396 1.404 . S
C3397 H3409 0.930 . S
C3398 C3394 1.524 . S
C3398 H3410 0.956 . S
C3398 H3411 0.961 . S
C3398 H3412 0.961 . S
C3399 C3396 1.539 . S
C3399 H3413 0.958 . S
C3399 H3414 0.961 . S
C3399 H3415 0.960 . S
H3400 C3384 0.931 . S
H3401 C3389 0.929 . S
H3402 C3390 0.960 . S
H3403 C3390 0.962 . S
H3404 C3390 0.960 . S
H3405 C3391 0.961 . S
H3406 C3391 0.961 . S
H3407 C3391 0.961 . S
H3408 C3392 0.931 . S
H3409 C3397 0.930 . S
H3410 C3398 0.956 . S
H3411 C3398 0.961 . S
H3412 C3398 0.961 . S
H3413 C3399 0.958 . S
H3414 C3399 0.961 . S
H3415 C3399 0.960 . S
C3416 C3417 1.391 . S
C3416 C3418 1.394 . S
C3416 H3432 0.931 . S
C3417 C3416 1.391 . S
C3417 C3421 1.376 . S
C3418 C3416 1.394 . S
C3418 C3419 1.369 . S
C3418 C3422 1.531 . S
C3419 C3418 1.369 . S
C3419 C3420 1.410 . S
C3419 C3427 1.503 . S
C3420 C3419 1.410 . S
C3420 C3421 1.392 . S
C3420 C3423 1.511 . S
C3421 C3417 1.376 . S
C3421 C3420 1.392 . S
C3421 H3433 0.929 . S
C3422 C3418 1.531 . S
C3422 H3434 0.960 . S
C3422 H3435 0.962 . S
C3422 H3436 0.960 . S
C3423 C3420 1.511 . S
C3423 H3437 0.961 . S
C3423 H3438 0.961 . S
C3423 H3439 0.961 . S
C3424 C3425 1.370 . S
C3424 C3426 1.363 . S
C3424 H3440 0.931 . S
C3425 C3424 1.370 . S
C3425 C3429 1.408 . S
C3426 C3424 1.363 . S
C3426 C3427 1.370 . S
C3426 C3430 1.524 . S
C3427 C3419 1.503 . S
C3427 C3426 1.370 . S
C3427 C3428 1.403 . S
C3428 C3427 1.403 . S
C3428 C3429 1.404 . S
C3428 C3431 1.539 . S
C3429 C3425 1.408 . S
C3429 C3428 1.404 . S
C3429 H3441 0.930 . S
C3430 C3426 1.524 . S
C3430 H3442 0.956 . S
C3430 H3443 0.961 . S
C3430 H3444 0.961 . S
C3431 C3428 1.539 . S
C3431 H3445 0.958 . S
C3431 H3446 0.961 . S
C3431 H3447 0.960 . S
H3432 C3416 0.931 . S
H3433 C3421 0.929 . S
H3434 C3422 0.960 . S
H3435 C3422 0.962 . S
H3436 C3422 0.960 . S
H3437 C3423 0.961 . S
H3438 C3423 0.961 . S
H3439 C3423 0.961 . S
H3440 C3424 0.931 . S
H3441 C3429 0.930 . S
H3442 C3430 0.956 . S
H3443 C3430 0.961 . S
H3444 C3430 0.961 . S
H3445 C3431 0.958 . S
H3446 C3431 0.961 . S
H3447 C3431 0.960 . S
C3448 C3449 1.391 . S
C3448 C3450 1.394 . S
C3448 H3464 0.931 . S
C3449 C3448 1.391 . S
C3449 C3453 1.376 . S
C3450 C3448 1.394 . S
C3450 C3451 1.369 . S
C3450 C3454 1.531 . S
C3451 C3450 1.369 . S
C3451 C3452 1.410 . S
C3451 C3459 1.503 . S
C3452 C3451 1.410 . S
C3452 C3453 1.392 . S
C3452 C3455 1.511 . S
C3453 C3449 1.376 . S
C3453 C3452 1.392 . S
C3453 H3465 0.929 . S
C3454 C3450 1.531 . S
C3454 H3466 0.960 . S
C3454 H3467 0.962 . S
C3454 H3468 0.960 . S
C3455 C3452 1.511 . S
C3455 H3469 0.961 . S
C3455 H3470 0.961 . S
C3455 H3471 0.961 . S
C3456 C3457 1.370 . S
C3456 C3458 1.363 . S
C3456 H3472 0.979 . S
C3457 C3456 1.370 . S
C3457 C3461 1.408 . S
C3458 C3456 1.363 . S
C3458 C3459 1.370 . S
C3458 C3462 1.513 1_455 S
C3459 C3451 1.503 . S
C3459 C3458 1.370 . S
C3459 C3460 1.403 . S
C3460 C3459 1.403 . S
C3460 C3461 1.404 . S
C3460 C3463 1.539 . S
C3461 C3457 1.408 . S
C3461 C3460 1.404 . S
C3461 H3473 0.930 . S
C3462 C3458 1.513 1_655 S
C3462 H3474 0.961 . S
C3462 H3475 0.948 1_655 S
C3462 H3476 0.980 . S
C3463 C3460 1.539 . S
C3463 H3477 0.958 . S
C3463 H3478 0.961 . S
C3463 H3479 0.960 . S
H3464 C3448 0.931 . S
H3465 C3453 0.929 . S
H3466 C3454 0.960 . S
H3467 C3454 0.962 . S
H3468 C3454 0.960 . S
H3469 C3455 0.961 . S
H3470 C3455 0.961 . S
H3471 C3455 0.961 . S
H3472 C3456 0.979 . S
H3473 C3461 0.930 . S
H3474 C3462 0.961 . S
H3475 C3462 0.948 1_455 S
H3476 C3462 0.980 . S
H3477 C3463 0.958 . S
H3478 C3463 0.961 . S
H3479 C3463 0.960 . S
C3480 C3481 1.391 . S
C3480 C3482 1.394 . S
C3480 H3496 0.931 . S
C3481 C3480 1.391 . S
C3481 C3485 1.376 . S
C3482 C3480 1.394 . S
C3482 C3483 1.369 . S
C3482 C3486 1.531 . S
C3483 C3482 1.369 . S
C3483 C3484 1.410 . S
C3483 C3491 1.503 . S
C3484 C3483 1.410 . S
C3484 C3485 1.392 . S
C3484 C3487 1.511 . S
C3485 C3481 1.376 . S
C3485 C3484 1.392 . S
C3485 H3497 0.929 . S
C3486 C3482 1.531 . S
C3486 H3498 0.960 . S
C3486 H3499 0.962 . S
C3486 H3500 0.960 . S
C3487 C3484 1.511 . S
C3487 H3501 0.961 . S
C3487 H3502 0.961 . S
C3487 H3503 0.961 . S
C3488 C3489 1.370 . S
C3488 C3490 1.363 . S
C3488 H3504 0.931 . S
C3489 C3488 1.370 . S
C3489 C3493 1.408 . S
C3490 C3488 1.363 . S
C3490 C3491 1.370 . S
C3490 C3494 1.524 . S
C3491 C3483 1.503 . S
C3491 C3490 1.370 . S
C3491 C3492 1.403 . S
C3492 C3491 1.403 . S
C3492 C3493 1.404 . S
C3492 C3495 1.539 . S
C3493 C3489 1.408 . S
C3493 C3492 1.404 . S
C3493 H3505 0.930 . S
C3494 C3490 1.524 . S
C3494 H3506 0.956 . S
C3494 H3507 0.961 . S
C3494 H3508 0.961 . S
C3495 C3492 1.539 . S
C3495 H3509 0.958 . S
C3495 H3510 0.961 . S
C3495 H3511 0.960 . S
H3496 C3480 0.931 . S
H3497 C3485 0.929 . S
H3498 C3486 0.960 . S
H3499 C3486 0.962 . S
H3500 C3486 0.960 . S
H3501 C3487 0.961 . S
H3502 C3487 0.961 . S
H3503 C3487 0.961 . S
H3504 C3488 0.931 . S
H3505 C3493 0.930 . S
H3506 C3494 0.956 . S
H3507 C3494 0.961 . S
H3508 C3494 0.961 . S
H3509 C3495 0.958 . S
H3510 C3495 0.961 . S
H3511 C3495 0.960 . S
C3512 C3513 1.391 . S
C3512 C3514 1.394 . S
C3512 H3528 0.931 . S
C3513 C3512 1.391 . S
C3513 C3517 1.376 . S
C3514 C3512 1.394 . S
C3514 C3515 1.369 . S
C3514 C3518 1.531 . S
C3515 C3514 1.369 . S
C3515 C3516 1.410 . S
C3515 C3523 1.503 . S
C3516 C3515 1.410 . S
C3516 C3517 1.392 . S
C3516 C3519 1.511 . S
C3517 C3513 1.376 . S
C3517 C3516 1.392 . S
C3517 H3529 0.929 . S
C3518 C3514 1.531 . S
C3518 H3530 0.960 . S
C3518 H3531 0.962 . S
C3518 H3532 0.960 . S
C3519 C3516 1.511 . S
C3519 H3533 0.961 . S
C3519 H3534 0.961 . S
C3519 H3535 0.961 . S
C3520 C3521 1.370 . S
C3520 C3522 1.363 . S
C3520 H3536 0.931 . S
C3521 C3520 1.370 . S
C3521 C3525 1.408 . S
C3522 C3520 1.363 . S
C3522 C3523 1.370 . S
C3522 C3526 1.524 . S
C3523 C3515 1.503 . S
C3523 C3522 1.370 . S
C3523 C3524 1.403 . S
C3524 C3523 1.403 . S
C3524 C3525 1.404 . S
C3524 C3527 1.539 . S
C3525 C3521 1.408 . S
C3525 C3524 1.404 . S
C3525 H3537 0.930 . S
C3526 C3522 1.524 . S
C3526 H3538 0.956 . S
C3526 H3539 0.961 . S
C3526 H3540 0.961 . S
C3527 C3524 1.539 . S
C3527 H3541 0.958 . S
C3527 H3542 0.961 . S
C3527 H3543 0.960 . S
H3528 C3512 0.931 . S
H3529 C3517 0.929 . S
H3530 C3518 0.960 . S
H3531 C3518 0.962 . S
H3532 C3518 0.960 . S
H3533 C3519 0.961 . S
H3534 C3519 0.961 . S
H3535 C3519 0.961 . S
H3536 C3520 0.931 . S
H3537 C3525 0.930 . S
H3538 C3526 0.956 . S
H3539 C3526 0.961 . S
H3540 C3526 0.961 . S
H3541 C3527 0.958 . S
H3542 C3527 0.961 . S
H3543 C3527 0.960 . S
C3544 C3545 1.391 . S
C3544 C3546 1.394 . S
C3544 H3560 0.931 . S
C3545 C3544 1.391 . S
C3545 C3549 1.376 . S
C3546 C3544 1.394 . S
C3546 C3547 1.369 . S
C3546 C3550 1.531 . S
C3547 C3546 1.369 . S
C3547 C3548 1.410 . S
C3547 C3555 1.503 . S
C3548 C3547 1.410 . S
C3548 C3549 1.392 . S
C3548 C3551 1.511 . S
C3549 C3545 1.376 . S
C3549 C3548 1.392 . S
C3549 H3561 0.929 . S
C3550 C3546 1.531 . S
C3550 H3562 0.960 . S
C3550 H3563 0.962 . S
C3550 H3564 0.960 . S
C3551 C3548 1.511 . S
C3551 H3565 0.961 . S
C3551 H3566 0.961 . S
C3551 H3567 0.961 . S
C3552 C3553 1.370 . S
C3552 C3554 1.363 . S
C3552 H3568 0.931 . S
C3553 C3552 1.370 . S
C3553 C3557 1.408 . S
C3554 C3552 1.363 . S
C3554 C3555 1.370 . S
C3554 C3558 1.524 . S
C3555 C3547 1.503 . S
C3555 C3554 1.370 . S
C3555 C3556 1.403 . S
C3556 C3555 1.403 . S
C3556 C3557 1.404 . S
C3556 C3559 1.539 . S
C3557 C3553 1.408 . S
C3557 C3556 1.404 . S
C3557 H3569 0.930 . S
C3558 C3554 1.524 . S
C3558 H3570 0.956 . S
C3558 H3571 0.961 . S
C3558 H3572 0.961 . S
C3559 C3556 1.539 . S
C3559 H3573 0.958 . S
C3559 H3574 0.961 . S
C3559 H3575 0.960 . S
H3560 C3544 0.931 . S
H3561 C3549 0.929 . S
H3562 C3550 0.960 . S
H3563 C3550 0.962 . S
H3564 C3550 0.960 . S
H3565 C3551 0.961 . S
H3566 C3551 0.961 . S
H3567 C3551 0.961 . S
H3568 C3552 0.931 . S
H3569 C3557 0.930 . S
H3570 C3558 0.956 . S
H3571 C3558 0.961 . S
H3572 C3558 0.961 . S
H3573 C3559 0.958 . S
H3574 C3559 0.961 . S
H3575 C3559 0.960 . S
C3576 C3577 1.391 . S
C3576 C3578 1.394 . S
C3576 H3592 0.931 . S
C3577 C3576 1.391 . S
C3577 C3581 1.376 . S
C3578 C3576 1.394 . S
C3578 C3579 1.369 . S
C3578 C3582 1.531 . S
C3579 C3578 1.369 . S
C3579 C3580 1.410 . S
C3579 C3587 1.503 . S
C3580 C3579 1.410 . S
C3580 C3581 1.392 . S
C3580 C3583 1.511 . S
C3581 C3577 1.376 . S
C3581 C3580 1.392 . S
C3581 H3593 0.929 . S
C3582 C3578 1.531 . S
C3582 H3594 0.960 . S
C3582 H3595 0.962 . S
C3582 H3596 0.960 . S
C3583 C3580 1.511 . S
C3583 H3597 0.961 . S
C3583 H3598 0.961 . S
C3583 H3599 0.961 . S
C3584 C3585 1.370 . S
C3584 C3586 1.363 . S
C3584 H3600 0.931 . S
C3585 C3584 1.370 . S
C3585 C3589 1.408 1_655 S
C3586 C3584 1.363 . S
C3586 C3587 1.370 . S
C3586 C3590 1.524 . S
C3587 C3579 1.503 . S
C3587 C3586 1.370 . S
C3587 C3588 1.403 . S
C3588 C3587 1.403 . S
C3588 C3589 1.404 1_655 S
C3588 C3591 1.543 . S
C3589 C3585 1.408 1_455 S
C3589 C3588 1.404 1_455 S
C3589 H3601 0.930 . S
C3590 C3586 1.524 . S
C3590 H3602 0.956 . S
C3590 H3603 0.961 . S
C3590 H3604 0.961 . S
C3591 C3588 1.543 . S
C3591 H3605 0.937 1_655 S
C3591 H3606 0.956 1_655 S
C3591 H3607 0.963 . S
H3592 C3576 0.931 . S
H3593 C3581 0.929 . S
H3594 C3582 0.960 . S
H3595 C3582 0.962 . S
H3596 C3582 0.960 . S
H3597 C3583 0.961 . S
H3598 C3583 0.961 . S
H3599 C3583 0.961 . S
H3600 C3584 0.931 . S
H3601 C3589 0.930 . S
H3602 C3590 0.956 . S
H3603 C3590 0.961 . S
H3604 C3590 0.961 . S
H3605 C3591 0.937 1_455 S
H3606 C3591 0.956 1_455 S
H3607 C3591 0.963 . S
C3608 C3609 1.391 . S
C3608 C3610 1.394 . S
C3608 H3624 0.931 . S
C3609 C3608 1.391 . S
C3609 C3613 1.376 . S
C3610 C3608 1.394 . S
C3610 C3611 1.369 . S
C3610 C3614 1.531 . S
C3611 C3610 1.369 . S
C3611 C3612 1.410 . S
C3611 C3619 1.503 . S
C3612 C3611 1.410 . S
C3612 C3613 1.392 . S
C3612 C3615 1.511 . S
C3613 C3609 1.376 . S
C3613 C3612 1.392 . S
C3613 H3625 0.929 . S
C3614 C3610 1.531 . S
C3614 H3626 0.960 . S
C3614 H3627 0.962 . S
C3614 H3628 0.960 . S
C3615 C3612 1.511 . S
C3615 H3629 0.961 . S
C3615 H3630 0.961 . S
C3615 H3631 0.961 . S
C3616 C3617 1.370 . S
C3616 C3618 1.363 . S
C3616 H3632 0.931 . S
C3617 C3616 1.370 . S
C3617 C3621 1.408 . S
C3618 C3616 1.363 . S
C3618 C3619 1.370 . S
C3618 C3622 1.524 . S
C3619 C3611 1.503 . S
C3619 C3618 1.370 . S
C3619 C3620 1.403 . S
C3620 C3619 1.403 . S
C3620 C3621 1.404 . S
C3620 C3623 1.539 . S
C3621 C3617 1.408 . S
C3621 C3620 1.404 . S
C3621 H3633 0.930 . S
C3622 C3618 1.524 . S
C3622 H3634 0.956 . S
C3622 H3635 0.961 . S
C3622 H3636 0.961 . S
C3623 C3620 1.539 . S
C3623 H3637 0.958 . S
C3623 H3638 0.961 . S
C3623 H3639 0.960 . S
H3624 C3608 0.931 . S
H3625 C3613 0.929 . S
H3626 C3614 0.960 . S
H3627 C3614 0.962 . S
H3628 C3614 0.960 . S
H3629 C3615 0.961 . S
H3630 C3615 0.961 . S
H3631 C3615 0.961 . S
H3632 C3616 0.931 . S
H3633 C3621 0.930 . S
H3634 C3622 0.956 . S
H3635 C3622 0.961 . S
H3636 C3622 0.961 . S
H3637 C3623 0.958 . S
H3638 C3623 0.961 . S
H3639 C3623 0.960 . S
C3640 C3641 1.391 . S
C3640 C3642 1.394 . S
C3640 H3656 0.931 . S
C3641 C3640 1.391 . S
C3641 C3645 1.376 . S
C3642 C3640 1.394 . S
C3642 C3643 1.369 . S
C3642 C3646 1.531 . S
C3643 C3642 1.369 . S
C3643 C3644 1.410 . S
C3643 C3651 1.503 . S
C3644 C3643 1.410 . S
C3644 C3645 1.392 . S
C3644 C3647 1.511 . S
C3645 C3641 1.376 . S
C3645 C3644 1.392 . S
C3645 H3657 0.929 . S
C3646 C3642 1.531 . S
C3646 H3658 0.960 . S
C3646 H3659 0.962 . S
C3646 H3660 0.960 . S
C3647 C3644 1.511 . S
C3647 H3661 0.961 . S
C3647 H3662 0.961 . S
C3647 H3663 0.961 . S
C3648 C3649 1.370 . S
C3648 C3650 1.363 . S
C3648 H3664 0.931 . S
C3649 C3648 1.370 . S
C3649 C3653 1.408 . S
C3650 C3648 1.363 . S
C3650 C3651 1.370 . S
C3650 C3654 1.524 . S
C3651 C3643 1.503 . S
C3651 C3650 1.370 . S
C3651 C3652 1.403 . S
C3652 C3651 1.403 . S
C3652 C3653 1.404 . S
C3652 C3655 1.539 . S
C3653 C3649 1.408 . S
C3653 C3652 1.404 . S
C3653 H3665 0.930 . S
C3654 C3650 1.524 . S
C3654 H3666 0.956 . S
C3654 H3667 0.961 . S
C3654 H3668 0.961 . S
C3655 C3652 1.539 . S
C3655 H3669 0.958 . S
C3655 H3670 0.961 . S
C3655 H3671 0.960 . S
H3656 C3640 0.931 . S
H3657 C3645 0.929 . S
H3658 C3646 0.960 . S
H3659 C3646 0.962 . S
H3660 C3646 0.960 . S
H3661 C3647 0.961 . S
H3662 C3647 0.961 . S
H3663 C3647 0.961 . S
H3664 C3648 0.931 . S
H3665 C3653 0.930 . S
H3666 C3654 0.956 . S
H3667 C3654 0.961 . S
H3668 C3654 0.961 . S
H3669 C3655 0.958 . S
H3670 C3655 0.961 . S
H3671 C3655 0.960 . S
C3672 C3673 1.391 . S
C3672 C3674 1.394 . S
C3672 H3688 0.931 . S
C3673 C3672 1.391 . S
C3673 C3677 1.376 . S
C3674 C3672 1.394 . S
C3674 C3675 1.369 . S
C3674 C3678 1.531 . S
C3675 C3674 1.369 . S
C3675 C3676 1.410 . S
C3675 C3683 1.503 . S
C3676 C3675 1.410 . S
C3676 C3677 1.392 . S
C3676 C3679 1.511 . S
C3677 C3673 1.376 . S
C3677 C3676 1.392 . S
C3677 H3689 0.929 . S
C3678 C3674 1.531 . S
C3678 H3690 0.960 . S
C3678 H3691 0.962 . S
C3678 H3692 0.960 . S
C3679 C3676 1.511 . S
C3679 H3693 0.961 . S
C3679 H3694 0.961 . S
C3679 H3695 0.961 . S
C3680 C3681 1.370 . S
C3680 C3682 1.363 . S
C3680 H3696 0.931 . S
C3681 C3680 1.370 . S
C3681 C3685 1.408 . S
C3682 C3680 1.363 . S
C3682 C3683 1.370 . S
C3682 C3686 1.524 . S
C3683 C3675 1.503 . S
C3683 C3682 1.370 . S
C3683 C3684 1.403 . S
C3684 C3683 1.403 . S
C3684 C3685 1.404 . S
C3684 C3687 1.539 . S
C3685 C3681 1.408 . S
C3685 C3684 1.404 . S
C3685 H3697 0.930 . S
C3686 C3682 1.524 . S
C3686 H3698 0.956 . S
C3686 H3699 0.961 . S
C3686 H3700 0.961 . S
C3687 C3684 1.539 . S
C3687 H3701 0.958 . S
C3687 H3702 0.961 . S
C3687 H3703 0.960 . S
H3688 C3672 0.931 . S
H3689 C3677 0.929 . S
H3690 C3678 0.960 . S
H3691 C3678 0.962 . S
H3692 C3678 0.960 . S
H3693 C3679 0.961 . S
H3694 C3679 0.961 . S
H3695 C3679 0.961 . S
H3696 C3680 0.931 . S
H3697 C3685 0.930 . S
H3698 C3686 0.956 . S
H3699 C3686 0.961 . S
H3700 C3686 0.961 . S
H3701 C3687 0.958 . S
H3702 C3687 0.961 . S
H3703 C3687 0.960 . S
C3704 C3705 1.391 . S
C3704 C3706 1.394 . S
C3704 H3720 0.931 . S
C3705 C3704 1.391 . S
C3705 C3709 1.376 . S
C3706 C3704 1.394 . S
C3706 C3707 1.369 . S
C3706 C3710 1.531 . S
C3707 C3706 1.369 . S
C3707 C3708 1.410 . S
C3707 C3715 1.503 . S
C3708 C3707 1.410 . S
C3708 C3709 1.392 . S
C3708 C3711 1.511 . S
C3709 C3705 1.376 . S
C3709 C3708 1.392 . S
C3709 H3721 0.929 . S
C3710 C3706 1.531 . S
C3710 H3722 0.960 . S
C3710 H3723 0.962 . S
C3710 H3724 0.960 . S
C3711 C3708 1.511 . S
C3711 H3725 0.961 . S
C3711 H3726 0.961 . S
C3711 H3727 0.961 . S
C3712 C3713 1.370 . S
C3712 C3714 1.363 . S
C3712 H3728 0.931 . S
C3713 C3712 1.370 . S
C3713 C3717 1.408 . S
C3714 C3712 1.363 . S
C3714 C3715 1.370 . S
C3714 C3718 1.524 . S
C3715 C3707 1.503 . S
C3715 C3714 1.370 . S
C3715 C3716 1.403 . S
C3716 C3715 1.403 . S
C3716 C3717 1.404 . S
C3716 C3719 1.539 . S
C3717 C3713 1.408 . S
C3717 C3716 1.404 . S
C3717 H3729 0.930 . S
C3718 C3714 1.524 . S
C3718 H3730 0.956 . S
C3718 H3731 0.961 . S
C3718 H3732 0.961 . S
C3719 C3716 1.539 . S
C3719 H3733 0.958 . S
C3719 H3734 0.961 . S
C3719 H3735 0.960 . S
H3720 C3704 0.931 . S
H3721 C3709 0.929 . S
H3722 C3710 0.960 . S
H3723 C3710 0.962 . S
H3724 C3710 0.960 . S
H3725 C3711 0.961 . S
H3726 C3711 0.961 . S
H3727 C3711 0.961 . S
H3728 C3712 0.931 . S
H3729 C3717 0.930 . S
H3730 C3718 0.956 . S
H3731 C3718 0.961 . S
H3732 C3718 0.961 . S
H3733 C3719 0.958 . S
H3734 C3719 0.961 . S
H3735 C3719 0.960 . S
C3736 C3737 1.391 . S
C3736 C3738 1.394 . S
C3736 H3752 0.931 . S
C3737 C3736 1.391 . S
C3737 C3741 1.376 . S
C3738 C3736 1.394 . S
C3738 C3739 1.369 . S
C3738 C3742 1.531 . S
C3739 C3738 1.369 . S
C3739 C3740 1.410 . S
C3739 C3747 1.503 . S
C3740 C3739 1.410 . S
C3740 C3741 1.392 . S
C3740 C3743 1.511 . S
C3741 C3737 1.376 . S
C3741 C3740 1.392 . S
C3741 H3753 0.929 . S
C3742 C3738 1.531 . S
C3742 H3754 0.960 . S
C3742 H3755 0.962 . S
C3742 H3756 0.960 . S
C3743 C3740 1.511 . S
C3743 H3757 0.961 . S
C3743 H3758 0.961 . S
C3743 H3759 0.961 . S
C3744 C3745 1.370 . S
C3744 C3746 1.363 . S
C3744 H3760 0.931 . S
C3745 C3744 1.370 . S
C3745 C3749 1.408 . S
C3746 C3744 1.363 . S
C3746 C3747 1.370 . S
C3746 C3750 1.524 . S
C3747 C3739 1.503 . S
C3747 C3746 1.370 . S
C3747 C3748 1.403 . S
C3748 C3747 1.403 . S
C3748 C3749 1.404 . S
C3748 C3751 1.539 . S
C3749 C3745 1.408 . S
C3749 C3748 1.404 . S
C3749 H3761 0.930 . S
C3750 C3746 1.524 . S
C3750 H3762 0.956 . S
C3750 H3763 0.961 . S
C3750 H3764 0.961 . S
C3751 C3748 1.539 . S
C3751 H3765 0.958 . S
C3751 H3766 0.961 . S
C3751 H3767 0.960 . S
H3752 C3736 0.931 . S
H3753 C3741 0.929 . S
H3754 C3742 0.960 . S
H3755 C3742 0.962 . S
H3756 C3742 0.960 . S
H3757 C3743 0.961 . S
H3758 C3743 0.961 . S
H3759 C3743 0.961 . S
H3760 C3744 0.931 . S
H3761 C3749 0.930 . S
H3762 C3750 0.956 . S
H3763 C3750 0.961 . S
H3764 C3750 0.961 . S
H3765 C3751 0.958 . S
H3766 C3751 0.961 . S
H3767 C3751 0.960 . S
C3768 C3769 1.391 . S
C3768 C3770 1.394 . S
C3768 H3784 0.931 . S
C3769 C3768 1.391 . S
C3769 C3773 1.376 . S
C3770 C3768 1.394 . S
C3770 C3771 1.369 . S
C3770 C3774 1.531 . S
C3771 C3770 1.369 . S
C3771 C3772 1.410 . S
C3771 C3779 1.503 . S
C3772 C3771 1.410 . S
C3772 C3773 1.392 . S
C3772 C3775 1.511 . S
C3773 C3769 1.376 . S
C3773 C3772 1.392 . S
C3773 H3785 0.929 . S
C3774 C3770 1.531 . S
C3774 H3786 0.960 . S
C3774 H3787 0.962 . S
C3774 H3788 0.960 . S
C3775 C3772 1.511 . S
C3775 H3789 0.961 . S
C3775 H3790 0.961 . S
C3775 H3791 0.961 . S
C3776 C3777 1.370 . S
C3776 C3778 1.363 . S
C3776 H3792 0.931 . S
C3777 C3776 1.370 . S
C3777 C3781 1.408 . S
C3778 C3776 1.363 . S
C3778 C3779 1.370 . S
C3778 C3782 1.524 . S
C3779 C3771 1.503 . S
C3779 C3778 1.370 . S
C3779 C3780 1.403 . S
C3780 C3779 1.403 . S
C3780 C3781 1.404 . S
C3780 C3783 1.539 . S
C3781 C3777 1.408 . S
C3781 C3780 1.404 . S
C3781 H3793 0.930 . S
C3782 C3778 1.524 . S
C3782 H3794 0.956 . S
C3782 H3795 0.961 . S
C3782 H3796 0.961 . S
C3783 C3780 1.539 . S
C3783 H3797 0.958 . S
C3783 H3798 0.961 . S
C3783 H3799 0.960 . S
H3784 C3768 0.931 . S
H3785 C3773 0.929 . S
H3786 C3774 0.960 . S
H3787 C3774 0.962 . S
H3788 C3774 0.960 . S
H3789 C3775 0.961 . S
H3790 C3775 0.961 . S
H3791 C3775 0.961 . S
H3792 C3776 0.931 . S
H3793 C3781 0.930 . S
H3794 C3782 0.956 . S
H3795 C3782 0.961 . S
H3796 C3782 0.961 . S
H3797 C3783 0.958 . S
H3798 C3783 0.961 . S
H3799 C3783 0.960 . S
C3800 C3801 1.391 . S
C3800 C3802 1.394 . S
C3800 H3816 0.931 . S
C3801 C3800 1.391 . S
C3801 C3805 1.376 . S
C3802 C3800 1.394 . S
C3802 C3803 1.369 . S
C3802 C3806 1.531 . S
C3803 C3802 1.369 . S
C3803 C3804 1.410 . S
C3803 C3811 1.503 . S
C3804 C3803 1.410 . S
C3804 C3805 1.392 . S
C3804 C3807 1.511 . S
C3805 C3801 1.376 . S
C3805 C3804 1.392 . S
C3805 H3817 0.929 . S
C3806 C3802 1.531 . S
C3806 H3818 0.960 . S
C3806 H3819 0.962 . S
C3806 H3820 0.960 . S
C3807 C3804 1.511 . S
C3807 H3821 0.961 . S
C3807 H3822 0.961 . S
C3807 H3823 0.961 . S
C3808 C3809 1.370 . S
C3808 C3810 1.363 . S
C3808 H3824 0.931 . S
C3809 C3808 1.370 . S
C3809 C3813 1.408 . S
C3810 C3808 1.363 . S
C3810 C3811 1.370 . S
C3810 C3814 1.524 . S
C3811 C3803 1.503 . S
C3811 C3810 1.370 . S
C3811 C3812 1.403 . S
C3812 C3811 1.403 . S
C3812 C3813 1.404 . S
C3812 C3815 1.539 . S
C3813 C3809 1.408 . S
C3813 C3812 1.404 . S
C3813 H3825 0.930 1_565 S
C3814 C3810 1.524 . S
C3814 H3826 0.956 . S
C3814 H3827 0.961 . S
C3814 H3828 0.961 . S
C3815 C3812 1.539 . S
C3815 H3829 0.958 . S
C3815 H3830 0.961 1_565 S
C3815 H3831 0.960 . S
H3816 C3800 0.931 . S
H3817 C3805 0.929 . S
H3818 C3806 0.960 . S
H3819 C3806 0.962 . S
H3820 C3806 0.960 . S
H3821 C3807 0.961 . S
H3822 C3807 0.961 . S
H3823 C3807 0.961 . S
H3824 C3808 0.931 . S
H3825 C3813 0.930 1_545 S
H3826 C3814 0.956 . S
H3827 C3814 0.961 . S
H3828 C3814 0.961 . S
H3829 C3815 0.958 . S
H3830 C3815 0.961 1_545 S
H3831 C3815 0.960 . S
C3832 C3833 1.391 . S
C3832 C3834 1.394 . S
C3832 H3848 0.931 . S
C3833 C3832 1.391 . S
C3833 C3837 1.376 . S
C3834 C3832 1.394 . S
C3834 C3835 1.369 . S
C3834 C3838 1.531 . S
C3835 C3834 1.369 . S
C3835 C3836 1.410 . S
C3835 C3843 1.503 . S
C3836 C3835 1.410 . S
C3836 C3837 1.392 . S
C3836 C3839 1.511 . S
C3837 C3833 1.376 . S
C3837 C3836 1.392 . S
C3837 H3849 0.929 . S
C3838 C3834 1.531 . S
C3838 H3850 0.960 . S
C3838 H3851 0.962 . S
C3838 H3852 0.960 . S
C3839 C3836 1.511 . S
C3839 H3853 0.961 . S
C3839 H3854 0.961 . S
C3839 H3855 0.961 . S
C3840 C3841 1.370 . S
C3840 C3842 1.363 . S
C3840 H3856 0.931 . S
C3841 C3840 1.370 . S
C3841 C3845 1.408 . S
C3842 C3840 1.363 . S
C3842 C3843 1.370 . S
C3842 C3846 1.524 . S
C3843 C3835 1.503 . S
C3843 C3842 1.370 . S
C3843 C3844 1.403 . S
C3844 C3843 1.403 . S
C3844 C3845 1.404 . S
C3844 C3847 1.539 . S
C3845 C3841 1.408 . S
C3845 C3844 1.404 . S
C3845 H3857 0.930 . S
C3846 C3842 1.524 . S
C3846 H3858 0.956 . S
C3846 H3859 0.961 . S
C3846 H3860 0.961 . S
C3847 C3844 1.539 . S
C3847 H3861 0.958 . S
C3847 H3862 0.961 . S
C3847 H3863 0.960 . S
H3848 C3832 0.931 . S
H3849 C3837 0.929 . S
H3850 C3838 0.960 . S
H3851 C3838 0.962 . S
H3852 C3838 0.960 . S
H3853 C3839 0.961 . S
H3854 C3839 0.961 . S
H3855 C3839 0.961 . S
H3856 C3840 0.931 . S
H3857 C3845 0.930 . S
H3858 C3846 0.956 . S
H3859 C3846 0.961 . S
H3860 C3846 0.961 . S
H3861 C3847 0.958 . S
H3862 C3847 0.961 . S
H3863 C3847 0.960 . S
C3864 C3865 1.391 . S
C3864 C3866 1.394 . S
C3864 H3880 0.931 . S
C3865 C3864 1.391 . S
C3865 C3869 1.376 . S
C3866 C3864 1.394 . S
C3866 C3867 1.369 . S
C3866 C3870 1.531 . S
C3867 C3866 1.369 . S
C3867 C3868 1.410 . S
C3867 C3875 1.503 . S
C3868 C3867 1.410 . S
C3868 C3869 1.392 . S
C3868 C3871 1.511 . S
C3869 C3865 1.376 . S
C3869 C3868 1.392 . S
C3869 H3881 0.929 . S
C3870 C3866 1.531 . S
C3870 H3882 0.967 . S
C3870 H3883 0.962 . S
C3870 H3884 0.960 1_554 S
C3871 C3868 1.511 . S
C3871 H3885 0.961 . S
C3871 H3886 0.961 . S
C3871 H3887 0.961 . S
C3872 C3873 1.370 . S
C3872 C3874 1.363 . S
C3872 H3888 0.931 . S
C3873 C3872 1.370 . S
C3873 C3877 1.408 . S
C3874 C3872 1.363 . S
C3874 C3875 1.370 . S
C3874 C3878 1.524 . S
C3875 C3867 1.503 . S
C3875 C3874 1.370 . S
C3875 C3876 1.403 . S
C3876 C3875 1.403 . S
C3876 C3877 1.404 . S
C3876 C3879 1.539 . S
C3877 C3873 1.408 . S
C3877 C3876 1.404 . S
C3877 H3889 0.943 . S
C3878 C3874 1.524 . S
C3878 H3890 0.956 . S
C3878 H3891 0.961 . S
C3878 H3892 0.961 . S
C3879 C3876 1.539 . S
C3879 H3893 0.958 1_554 S
C3879 H3894 0.961 1_554 S
C3879 H3895 0.960 . S
H3880 C3864 0.931 . S
H3881 C3869 0.929 . S
H3882 C3870 0.967 . S
H3883 C3870 0.962 . S
H3884 C3870 0.960 1_556 S
H3885 C3871 0.961 . S
H3886 C3871 0.961 . S
H3887 C3871 0.961 . S
H3888 C3872 0.931 . S
H3889 C3877 0.943 . S
H3890 C3878 0.956 . S
H3891 C3878 0.961 . S
H3892 C3878 0.961 . S
H3893 C3879 0.958 1_556 S
H3894 C3879 0.961 1_556 S
H3895 C3879 0.960 . S
C3896 C3897 1.391 . S
C3896 C3898 1.394 . S
C3896 H3912 0.931 . S
C3897 C3896 1.391 . S
C3897 C3901 1.376 . S
C3898 C3896 1.394 . S
C3898 C3899 1.369 . S
C3898 C3902 1.531 . S
C3899 C3898 1.369 . S
C3899 C3900 1.410 . S
C3899 C3907 1.503 . S
C3900 C3899 1.410 . S
C3900 C3901 1.392 . S
C3900 C3903 1.511 . S
C3901 C3897 1.376 . S
C3901 C3900 1.392 . S
C3901 H3913 0.929 . S
C3902 C3898 1.531 . S
C3902 H3914 0.960 . S
C3902 H3915 0.962 . S
C3902 H3916 0.960 . S
C3903 C3900 1.511 . S
C3903 H3917 0.961 . S
C3903 H3918 0.961 . S
C3903 H3919 0.961 . S
C3904 C3905 1.370 . S
C3904 C3906 1.363 . S
C3904 H3920 0.931 . S
C3905 C3904 1.370 . S
C3905 C3909 1.408 . S
C3906 C3904 1.363 . S
C3906 C3907 1.370 . S
C3906 C3910 1.524 . S
C3907 C3899 1.503 . S
C3907 C3906 1.370 . S
C3907 C3908 1.403 . S
C3908 C3907 1.403 . S
C3908 C3909 1.404 . S
C3908 C3911 1.539 . S
C3909 C3905 1.408 . S
C3909 C3908 1.404 . S
C3909 H3921 0.930 . S
C3910 C3906 1.524 . S
C3910 H3922 0.956 . S
C3910 H3923 0.961 . S
C3910 H3924 0.961 . S
C3911 C3908 1.539 . S
C3911 H3925 0.958 . S
C3911 H3926 0.961 . S
C3911 H3927 0.960 . S
H3912 C3896 0.931 . S
H3913 C3901 0.929 . S
H3914 C3902 0.960 . S
H3915 C3902 0.962 . S
H3916 C3902 0.960 . S
H3917 C3903 0.961 . S
H3918 C3903 0.961 . S
H3919 C3903 0.961 . S
H3920 C3904 0.931 . S
H3921 C3909 0.930 . S
H3922 C3910 0.956 . S
H3923 C3910 0.961 . S
H3924 C3910 0.961 . S
H3925 C3911 0.958 . S
H3926 C3911 0.961 . S
H3927 C3911 0.960 . S
C3928 C3929 1.391 . S
C3928 C3930 1.394 . S
C3928 H3944 0.931 . S
C3929 C3928 1.391 . S
C3929 C3933 1.376 . S
C3930 C3928 1.394 . S
C3930 C3931 1.369 . S
C3930 C3934 1.531 . S
C3931 C3930 1.369 . S
C3931 C3932 1.410 . S
C3931 C3939 1.503 . S
C3932 C3931 1.410 . S
C3932 C3933 1.392 . S
C3932 C3935 1.511 1_554 S
C3933 C3929 1.376 . S
C3933 C3932 1.392 . S
C3933 H3945 0.929 . S
C3934 C3930 1.531 . S
C3934 H3946 0.960 . S
C3934 H3947 0.962 . S
C3934 H3948 0.960 . S
C3935 C3932 1.511 1_556 S
C3935 H3949 0.961 . S
C3935 H3950 0.961 . S
C3935 H3951 0.961 . S
C3936 C3937 1.370 . S
C3936 C3938 1.363 . S
C3936 H3952 0.931 . S
C3937 C3936 1.370 . S
C3937 C3941 1.408 . S
C3938 C3936 1.363 . S
C3938 C3939 1.370 . S
C3938 C3942 1.524 . S
C3939 C3931 1.503 . S
C3939 C3938 1.370 . S
C3939 C3940 1.403 . S
C3940 C3939 1.403 . S
C3940 C3941 1.404 . S
C3940 C3943 1.539 . S
C3941 C3937 1.408 . S
C3941 C3940 1.404 . S
C3941 H3953 0.930 . S
C3942 C3938 1.524 . S
C3942 H3954 0.956 . S
C3942 H3955 0.946 1_554 S
C3942 H3956 0.942 1_554 S
C3943 C3940 1.539 . S
C3943 H3957 0.958 . S
C3943 H3958 0.961 . S
C3943 H3959 0.960 . S
H3944 C3928 0.931 . S
H3945 C3933 0.929 . S
H3946 C3934 0.960 . S
H3947 C3934 0.962 . S
H3948 C3934 0.960 . S
H3949 C3935 0.961 . S
H3950 C3935 0.961 . S
H3951 C3935 0.961 . S
H3952 C3936 0.931 . S
H3953 C3941 0.930 . S
H3954 C3942 0.956 . S
H3955 C3942 0.946 1_556 S
H3956 C3942 0.942 1_556 S
H3957 C3943 0.958 . S
H3958 C3943 0.961 . S
H3959 C3943 0.960 . S
C3960 C3961 1.391 . S
C3960 C3962 1.394 . S
C3960 H3976 0.931 . S
C3961 C3960 1.391 . S
C3961 C3965 1.376 . S
C3962 C3960 1.394 . S
C3962 C3963 1.369 . S
C3962 C3966 1.531 . S
C3963 C3962 1.369 . S
C3963 C3964 1.410 . S
C3963 C3971 1.503 . S
C3964 C3963 1.410 . S
C3964 C3965 1.392 . S
C3964 C3967 1.511 . S
C3965 C3961 1.376 . S
C3965 C3964 1.392 . S
C3965 H3977 0.929 . S
C3966 C3962 1.531 . S
C3966 H3978 0.960 . S
C3966 H3979 0.962 . S
C3966 H3980 0.960 . S
C3967 C3964 1.511 . S
C3967 H3981 0.961 . S
C3967 H3982 0.961 . S
C3967 H3983 0.961 . S
C3968 C3969 1.370 . S
C3968 C3970 1.363 . S
C3968 H3984 0.931 . S
C3969 C3968 1.370 . S
C3969 C3973 1.408 . S
C3970 C3968 1.363 . S
C3970 C3971 1.370 . S
C3970 C3974 1.524 . S
C3971 C3963 1.503 . S
C3971 C3970 1.370 . S
C3971 C3972 1.403 . S
C3972 C3971 1.403 . S
C3972 C3973 1.404 . S
C3972 C3975 1.539 . S
C3973 C3969 1.408 . S
C3973 C3972 1.404 . S
C3973 H3985 0.930 . S
C3974 C3970 1.524 . S
C3974 H3986 0.956 . S
C3974 H3987 0.961 . S
C3974 H3988 0.961 . S
C3975 C3972 1.539 . S
C3975 H3989 0.958 . S
C3975 H3990 0.961 . S
C3975 H3991 0.960 . S
H3976 C3960 0.931 . S
H3977 C3965 0.929 . S
H3978 C3966 0.960 . S
H3979 C3966 0.962 . S
H3980 C3966 0.960 . S
H3981 C3967 0.961 . S
H3982 C3967 0.961 . S
H3983 C3967 0.961 . S
H3984 C3968 0.931 . S
H3985 C3973 0.930 . S
H3986 C3974 0.956 . S
H3987 C3974 0.961 . S
H3988 C3974 0.961 . S
H3989 C3975 0.958 . S
H3990 C3975 0.961 . S
H3991 C3975 0.960 . S
C3992 C3993 1.391 . S
C3992 C3994 1.394 . S
C3992 H4008 0.931 . S
C3993 C3992 1.391 . S
C3993 C3997 1.376 . S
C3994 C3992 1.394 . S
C3994 C3995 1.369 . S
C3994 C3998 1.531 . S
C3995 C3994 1.369 . S
C3995 C3996 1.410 . S
C3995 C4003 1.503 . S
C3996 C3995 1.410 . S
C3996 C3997 1.392 . S
C3996 C3999 1.511 . S
C3997 C3993 1.376 . S
C3997 C3996 1.392 . S
C3997 H4009 0.929 . S
C3998 C3994 1.531 . S
C3998 H4010 0.960 . S
C3998 H4011 0.962 . S
C3998 H4012 0.960 . S
C3999 C3996 1.511 . S
C3999 H4013 0.961 . S
C3999 H4014 0.961 . S
C3999 H4015 0.961 . S
C4000 C4001 1.370 . S
C4000 C4002 1.363 . S
C4000 H4016 0.931 . S
C4001 C4000 1.370 . S
C4001 C4005 1.408 . S
C4002 C4000 1.363 . S
C4002 C4003 1.370 . S
C4002 C4006 1.524 . S
C4003 C3995 1.503 . S
C4003 C4002 1.370 . S
C4003 C4004 1.403 . S
C4004 C4003 1.403 . S
C4004 C4005 1.404 . S
C4004 C4007 1.539 . S
C4005 C4001 1.408 . S
C4005 C4004 1.404 . S
C4005 H4017 0.930 . S
C4006 C4002 1.524 . S
C4006 H4018 0.956 . S
C4006 H4019 0.961 . S
C4006 H4020 0.961 . S
C4007 C4004 1.539 . S
C4007 H4021 0.958 . S
C4007 H4022 0.961 . S
C4007 H4023 0.960 . S
H4008 C3992 0.931 . S
H4009 C3997 0.929 . S
H4010 C3998 0.960 . S
H4011 C3998 0.962 . S
H4012 C3998 0.960 . S
H4013 C3999 0.961 . S
H4014 C3999 0.961 . S
H4015 C3999 0.961 . S
H4016 C4000 0.931 . S
H4017 C4005 0.930 . S
H4018 C4006 0.956 . S
H4019 C4006 0.961 . S
H4020 C4006 0.961 . S
H4021 C4007 0.958 . S
H4022 C4007 0.961 . S
H4023 C4007 0.960 . S
C953 C101 2.118 . S
C961 C325 2.054 . S
C985 C57 1.990 . S
C993 C376 2.003 . S
C1017 C70 1.429 . S
C1025 C405 1.397 . S
C1057 C449 1.450 . S
C1049 C82 1.530 . S
C1081 C23 1.380 . S
C1089 C489 1.343 . S
C1121 C525 1.450 . S
C1113 C29 1.476 . S
C1153 C575 1.797 . S
C1145 C49 1.720 . S
C1177 C10 2.259 . S
C1185 C605 2.213 . S
C1217 C335 1.841 . S
C1209 C218 1.850 . S
C1241 C226 0.674 . S
C1249 C378 0.756 . S
C1281 C415 1.237 . S
C1273 C251 1.243 . S
C1313 C445 1.271 . S
C1305 C159 1.312 . S
C1337 C211 1.367 . S
C1345 C485 1.322 . S
C1377 C535 0.892 . S
C1369 C225 0.847 . S
C1409 C569 0.870 . S
C1401 C252 0.853 . S
C1441 C615 1.823 . S
C1433 C166 1.840 . S
C1473 C329 1.230 . S
C1465 C147 1.341 . S
C1497 C263 1.600 . S
C1505 C655 1.653 . S
C1537 C689 1.498 . S
C1529 C309 1.585 . S
C1569 C725 0.816 . S
C1561 C291 0.858 . S
C1593 C108 1.455 . S
C1601 C609 1.432 . S
C1625 C121 1.617 . S
C1633 C409 1.575 . S
C1657 C302 1.547 . S
C1665 C775 1.581 . S
C1697 C794 0.360 . S
C1689 C276 0.139 . S
C1729 C336 2.293 1_565 S
C1721 C55 2.303 . S
C1761 C805 2.313 . S
C1753 C96 2.288 . S
C1785 C88 1.798 . S
C1793 C416 1.801 . S
C1817 C75 1.638 . S
C1825 C778 1.584 . S
C1857 C498 1.481 . S
C1849 C4 1.487 . S
C1881 C44 1.846 . S
C1889 C696 1.837 . S
C1921 C554 2.074 1_566 S
C1913 C31 2.062 . S
C1953 C856 2.429 . S
C1945 C18 2.446 . S
C1985 C314 2.107 1_556 S
C1977 C133 2.118 . S
C2017 C809 0.722 . S
C2009 C296 0.742 . S
C2041 C107 1.447 . S
C2049 C394 1.443 . S
C2073 C264 1.658 . S
C2081 C776 1.658 . S
C2105 C140 1.699 . S
C2113 C496 1.702 . S
C2145 C674 1.121 . S
C2137 C289 1.121 . S
C2169 C114 0.991 . S
C2177 C578 0.971 . S
C2201 C265 2.117 . S
C2209 C834 2.096 . S
C2233 C179 1.193 . S
C2241 C338 1.187 . S
C2265 C161 1.877 . S
C2273 C634 1.884 . S
C2297 C244 1.548 . S
C2305 C538 1.497 . S
C2329 C224 1.081 . S
C2337 C736 1.081 . S
C2369 C858 1.426 . S
C2361 C257 1.470 . S
C2393 C199 1.616 . S
C2401 C418 1.554 . S
C2433 C434 1.809 . S
C2425 C237 1.811 . S
C2465 C375 0.554 . S
C2457 C185 0.525 . S
C2489 C69 2.101 . S
C2497 C885 2.056 . S
C2529 C816 2.005 . S
C2521 C83 1.976 . S
C2553 C94 1.422 . S
C2561 C925 1.384 . S
C2585 C56 1.519 . S
C2593 C769 1.480 . S
C2617 C42 1.387 . S
C2625 C649 1.353 . S
C2657 C685 1.445 . S
C2649 C3 1.478 . S
C2689 C735 1.805 . S
C2681 C16 1.738 . S
C2721 C845 2.221 . S
C2713 C36 2.251 . S
C2753 C895 1.835 . S
C2745 C238 1.865 . S
C2777 C174 0.777 . S
C2785 C818 0.693 . S
C2817 C935 1.237 . S
C2809 C186 1.200 . S
C2849 C765 1.270 . S
C2841 C198 1.307 . S
C2881 C645 1.326 . S
C2873 C239 1.369 . S
C2905 C173 0.841 . S
C2913 C695 0.885 . S
C2945 C729 0.886 . S
C2937 C187 0.852 . S
C2969 C205 1.840 . S
C2977 C855 1.822 . S
C3009 C889 1.258 . S
C3001 C290 1.287 . S
C3033 C122 1.631 . S
C3041 C495 1.661 . S
C3073 C529 1.516 . S
C3065 C134 1.571 1_565 S
C3105 C565 0.836 . S
C3097 C148 0.812 1_554 S
C3137 C849 1.432 . S
C3129 C283 1.451 . S
C3161 C270 1.617 . S
C3169 C929 1.554 . S
C3201 C455 1.578 . S
C3193 C135 1.535 . S
C3233 C354 0.349 . S
C3225 C109 0.204 . S
C3257 C81 2.289 . S
C3265 C896 2.301 . S
C3297 C365 2.309 . S
C3289 C68 2.292 . S
C3321 C62 1.818 . S
C3329 C936 1.812 . S
C3353 C95 1.640 . S
C3361 C458 1.583 . S
C3385 C30 1.486 . S
C3393 C658 1.480 . S
C3425 C536 1.818 . S
C3417 C17 1.821 . S
C3449 C5 2.056 . S
C3457 C714 2.073 . S
C3481 C43 2.436 . S
C3489 C616 2.413 . S
C3521 C874 2.108 . S
C3513 C304 2.118 . S
C3545 C153 0.715 . S
C3553 C369 0.742 . S
C3585 C914 1.446 1_656 S
C3577 C278 1.442 . S
C3609 C127 1.655 . S
C3617 C456 1.649 . S
C3641 C303 1.709 . S
C3649 C656 1.700 . S
C3681 C514 1.124 . S
C3673 C146 1.135 . S
C3705 C277 0.976 . S
C3713 C738 0.976 . S
C3745 C594 2.098 . S
C3737 C120 2.110 . S
C3777 C898 1.169 . S
C3769 C231 1.235 . S
C3809 C474 1.911 1_565 S
C3801 C200 1.878 . S
C3833 C212 1.542 . S
C3841 C698 1.501 . S
C3873 C576 1.083 . S
C3865 C172 1.081 . S
C3897 C192 1.449 . S
C3905 C618 1.440 . S
C3929 C160 1.591 . S
C3937 C938 1.569 . S
C3969 C754 1.818 . S
C3961 C213 1.820 . S
C4001 C815 0.554 . S
C3993 C250 0.527 . S
