# Generated by pormake.
# Topology soc, (4,6)-cn, num edge types: 1
# Building blocks:
#     Node 0, Type 0, BuildingBlock: ESEHIV_clean_sbu_0, # of connection points: 4
#     Node 1, Type 0, BuildingBlock: ESEHIV_clean_sbu_0, # of connection points: 4
#     Node 2, Type 0, BuildingBlock: ESEHIV_clean_sbu_0, # of connection points: 4
#     Node 3, Type 0, BuildingBlock: ESEHIV_clean_sbu_0, # of connection points: 4
#     Node 4, Type 0, BuildingBlock: ESEHIV_clean_sbu_0, # of connection points: 4
#     Node 5, Type 0, BuildingBlock: ESEHIV_clean_sbu_0, # of connection points: 4
#     Node 6, Type 0, BuildingBlock: ESEHIV_clean_sbu_0, # of connection points: 4
#     Node 7, Type 0, BuildingBlock: ESEHIV_clean_sbu_0, # of connection points: 4
#     Node 8, Type 0, BuildingBlock: ESEHIV_clean_sbu_0, # of connection points: 4
#     Node 9, Type 0, BuildingBlock: ESEHIV_clean_sbu_0, # of connection points: 4
#     Node 10, Type 0, BuildingBlock: ESEHIV_clean_sbu_0, # of connection points: 4
#     Node 11, Type 0, BuildingBlock: ESEHIV_clean_sbu_0, # of connection points: 4
#     Node 12, Type 1, BuildingBlock: CUKXOW_clean_sbu_0, # of connection points: 6
#     Node 13, Type 1, BuildingBlock: CUKXOW_clean_sbu_0, # of connection points: 6
#     Node 14, Type 1, BuildingBlock: CUKXOW_clean_sbu_0, # of connection points: 6
#     Node 15, Type 1, BuildingBlock: CUKXOW_clean_sbu_0, # of connection points: 6
#     Node 16, Type 1, BuildingBlock: CUKXOW_clean_sbu_0, # of connection points: 6
#     Node 17, Type 1, BuildingBlock: CUKXOW_clean_sbu_0, # of connection points: 6
#     Node 18, Type 1, BuildingBlock: CUKXOW_clean_sbu_0, # of connection points: 6
#     Node 19, Type 1, BuildingBlock: CUKXOW_clean_sbu_0, # of connection points: 6
#     Edge 20, Type (0, 1), BuildingBlock: OJICUG_clean_linker_0, # of connection points: 2
#     Edge 21, Type (0, 1), BuildingBlock: OJICUG_clean_linker_0, # of connection points: 2
#     Edge 22, Type (0, 1), BuildingBlock: OJICUG_clean_linker_0, # of connection points: 2
#     Edge 23, Type (0, 1), BuildingBlock: OJICUG_clean_linker_0, # of connection points: 2
#     Edge 24, Type (0, 1), BuildingBlock: OJICUG_clean_linker_0, # of connection points: 2
#     Edge 25, Type (0, 1), BuildingBlock: OJICUG_clean_linker_0, # of connection points: 2
#     Edge 26, Type (0, 1), BuildingBlock: OJICUG_clean_linker_0, # of connection points: 2
#     Edge 27, Type (0, 1), BuildingBlock: OJICUG_clean_linker_0, # of connection points: 2
#     Edge 28, Type (0, 1), BuildingBlock: OJICUG_clean_linker_0, # of connection points: 2
#     Edge 29, Type (0, 1), BuildingBlock: OJICUG_clean_linker_0, # of connection points: 2
#     Edge 30, Type (0, 1), BuildingBlock: OJICUG_clean_linker_0, # of connection points: 2
#     Edge 31, Type (0, 1), BuildingBlock: OJICUG_clean_linker_0, # of connection points: 2
#     Edge 32, Type (0, 1), BuildingBlock: OJICUG_clean_linker_0, # of connection points: 2
#     Edge 33, Type (0, 1), BuildingBlock: OJICUG_clean_linker_0, # of connection points: 2
#     Edge 34, Type (0, 1), BuildingBlock: OJICUG_clean_linker_0, # of connection points: 2
#     Edge 35, Type (0, 1), BuildingBlock: OJICUG_clean_linker_0, # of connection points: 2
#     Edge 36, Type (0, 1), BuildingBlock: OJICUG_clean_linker_0, # of connection points: 2
#     Edge 37, Type (0, 1), BuildingBlock: OJICUG_clean_linker_0, # of connection points: 2
#     Edge 38, Type (0, 1), BuildingBlock: OJICUG_clean_linker_0, # of connection points: 2
#     Edge 39, Type (0, 1), BuildingBlock: OJICUG_clean_linker_0, # of connection points: 2
#     Edge 40, Type (0, 1), BuildingBlock: OJICUG_clean_linker_0, # of connection points: 2
#     Edge 41, Type (0, 1), BuildingBlock: OJICUG_clean_linker_0, # of connection points: 2
#     Edge 42, Type (0, 1), BuildingBlock: OJICUG_clean_linker_0, # of connection points: 2
#     Edge 43, Type (0, 1), BuildingBlock: OJICUG_clean_linker_0, # of connection points: 2
#     Edge 44, Type (0, 1), BuildingBlock: OJICUG_clean_linker_0, # of connection points: 2
#     Edge 45, Type (0, 1), BuildingBlock: OJICUG_clean_linker_0, # of connection points: 2
#     Edge 46, Type (0, 1), BuildingBlock: OJICUG_clean_linker_0, # of connection points: 2
#     Edge 47, Type (0, 1), BuildingBlock: OJICUG_clean_linker_0, # of connection points: 2
#     Edge 48, Type (0, 1), BuildingBlock: OJICUG_clean_linker_0, # of connection points: 2
#     Edge 49, Type (0, 1), BuildingBlock: OJICUG_clean_linker_0, # of connection points: 2
#     Edge 50, Type (0, 1), BuildingBlock: OJICUG_clean_linker_0, # of connection points: 2
#     Edge 51, Type (0, 1), BuildingBlock: OJICUG_clean_linker_0, # of connection points: 2
#     Edge 52, Type (0, 1), BuildingBlock: OJICUG_clean_linker_0, # of connection points: 2
#     Edge 53, Type (0, 1), BuildingBlock: OJICUG_clean_linker_0, # of connection points: 2
#     Edge 54, Type (0, 1), BuildingBlock: OJICUG_clean_linker_0, # of connection points: 2
#     Edge 55, Type (0, 1), BuildingBlock: OJICUG_clean_linker_0, # of connection points: 2
#     Edge 56, Type (0, 1), BuildingBlock: OJICUG_clean_linker_0, # of connection points: 2
#     Edge 57, Type (0, 1), BuildingBlock: OJICUG_clean_linker_0, # of connection points: 2
#     Edge 58, Type (0, 1), BuildingBlock: OJICUG_clean_linker_0, # of connection points: 2
#     Edge 59, Type (0, 1), BuildingBlock: OJICUG_clean_linker_0, # of connection points: 2
#     Edge 60, Type (0, 1), BuildingBlock: OJICUG_clean_linker_0, # of connection points: 2
#     Edge 61, Type (0, 1), BuildingBlock: OJICUG_clean_linker_0, # of connection points: 2
#     Edge 62, Type (0, 1), BuildingBlock: OJICUG_clean_linker_0, # of connection points: 2
#     Edge 63, Type (0, 1), BuildingBlock: OJICUG_clean_linker_0, # of connection points: 2
#     Edge 64, Type (0, 1), BuildingBlock: OJICUG_clean_linker_0, # of connection points: 2
#     Edge 65, Type (0, 1), BuildingBlock: OJICUG_clean_linker_0, # of connection points: 2
#     Edge 66, Type (0, 1), BuildingBlock: OJICUG_clean_linker_0, # of connection points: 2
#     Edge 67, Type (0, 1), BuildingBlock: OJICUG_clean_linker_0, # of connection points: 2
# Relax obj value: 0.101
# Max RMSD: 0.176
# Mean RMSD: 0.149
data_MOF--net-soc--node1-ESEHIV_clean_sbu_0--node2-CUKXOW_clean_sbu_0--edge1-OJICUG_clean_linker_0
_symmetry_space_group_name_H-M    P1
_symmetry_Int_Tables_number       1
_symmetry_cell_setting            triclinic
loop_
_symmetry_equiv_pos_as_xyz
'x, y, z'
_cell_length_a     31.081735
_cell_length_b     32.845687
_cell_length_c     34.408504
_cell_angle_alpha  98.439718
_cell_angle_beta   95.18637
_cell_angle_gamma 87.529019
loop_
_atom_site_label
_atom_site_type_symbol
_atom_site_fract_x
_atom_site_fract_y
_atom_site_fract_z
_atom_type_partial_charge
Cu0 Cu 0.09733 0.03429 0.25666 0.0
N1 N 0.123 0.06906 0.22687 0.0
N2 N 0.1623 0.12424 0.22389 0.0
C3 C 0.15727 0.0916 0.24264 0.0
C4 C 0.13004 0.12207 0.19473 0.0
C5 C 0.10586 0.08802 0.19661 0.0
O6 O 0.14478 1.00355 0.2816 0.0
C7 C 1.03062 0.08808 0.26932 0.0
O8 O 1.02154 0.07081 0.23285 0.0
H9 H 0.17559 0.08645 0.26987 0.0
H10 H 0.07588 0.07994 0.17928 0.0
N11 N 1.05922 0.99403 0.23016 0.0
N12 N 1.01014 0.9449 0.22507 0.0
C13 C 1.03969 0.96768 0.24906 0.0
C14 C 1.0418 0.98734 0.19257 0.0
C15 C 1.01128 0.95723 0.18943 0.0
C16 C 0.16781 0.98395 0.25569 0.0
O17 O 0.157 0.98717 0.21842 0.0
H18 H 1.04588 0.96644 0.28034 0.0
H19 H 1.04958 1.00412 0.16946 0.0
O20 O 1.06316 0.07441 0.28945 0.0
H21 H 0.12321 0.14451 0.17471 0.0
H22 H 0.99135 0.9455 0.16306 0.0
Cu23 Cu 1.05001 0.03392 0.72547 0.0
N24 N 1.00892 0.99966 0.69526 0.0
N25 N 0.96143 0.94882 0.68459 0.0
C26 C 0.9911 0.96938 0.71035 0.0
C27 C 0.96066 0.96712 0.65174 0.0
C28 C 0.98989 0.99855 0.65845 0.0
O29 O 1.0154 0.07668 0.7561 0.0
C30 C 0.10778 0.97117 0.72048 0.0
O31 O 0.09613 0.97681 0.68395 0.0
H32 H 1.00041 0.96234 0.73974 0.0
H33 H 0.99639 0.0192 0.6381 0.0
N34 N 0.08686 0.06248 0.6992 0.0
N35 N 0.14495 0.09856 0.69312 0.0
C36 C 0.12087 0.08343 0.71815 0.0
C37 C 0.08922 0.06445 0.6607 0.0
C38 C 0.12493 0.08674 0.65688 0.0
C39 C 0.99521 0.09998 0.73328 0.0
O40 O 1.00083 0.09244 0.6955 0.0
H41 H 0.12848 0.08627 0.74973 0.0
H42 H 0.06718 0.05006 0.63707 0.0
O43 O 0.09006 0.99432 0.74835 0.0
H44 H 0.94015 0.95883 0.62487 0.0
H45 H 0.13523 0.09366 0.62942 0.0
Cu46 Cu 0.38747 0.02297 0.02367 0.0
N47 N 0.3487 0.98529 -0.00304 0.0
N48 N 0.32869 0.93406 0.95023 0.0
C49 C 0.35475 0.96605 0.96076 0.0
C50 C 0.30393 0.93386 0.98041 0.0
C51 C 0.31663 0.96562 0.00956 0.0
O52 O 0.43212 0.991 0.05094 0.0
C53 C 0.3723 0.0701 0.96221 0.0
O54 O 0.33281 0.05968 0.96632 0.0
H55 H 0.37985 0.97394 0.94355 0.0
H56 H 0.305 0.97218 0.03852 0.0
N57 N 0.36243 0.05412 0.06523 0.0
N58 N 0.35832 0.10402 0.11598 0.0
C59 C 0.36902 0.09407 0.07861 0.0
C60 C 0.34709 0.03844 0.09508 0.0
C61 C 0.34419 0.06929 0.1264 0.0
C62 C 0.435 0.95178 0.04352 0.0
O63 O 0.42541 0.93387 0.00729 0.0
H64 H 0.38488 0.11437 0.06268 0.0
H65 H 0.34229 1.00611 0.09544 0.0
O66 O 0.40333 0.05838 0.98555 0.0
H67 H 0.28039 0.91101 0.98222 0.0
H68 H 0.33438 0.06607 0.15517 0.0
Cu69 Cu 0.07941 0.36949 -0.01083 0.0
N70 N 0.12019 0.38715 0.95962 0.0
N71 N 0.17197 0.381 0.91802 0.0
C72 C 0.14931 0.36172 0.94113 0.0
C73 C 0.15644 0.42032 0.92223 0.0
C74 C 0.12443 0.42405 0.94806 0.0
O75 O 0.10688 0.32447 0.01368 0.0
C76 C 1.00133 0.32877 0.95325 0.0
O77 O 1.01041 0.29902 0.97461 0.0
H78 H 0.15214 0.3291 0.94306 0.0
H79 H 0.10469 0.45123 0.95672 0.0
N80 N 1.06507 0.40886 0.03075 0.0
N81 N 1.03179 0.41795 0.08644 0.0
C82 C 1.02798 0.4057 0.04714 0.0
C83 C 0.09285 0.42616 0.06014 0.0
C84 C 0.07233 0.432 0.09454 0.0
C85 C 0.09462 0.31474 0.04531 0.0
O86 O 1.05404 0.32147 0.05275 0.0
H87 H 1.00201 0.387 0.03205 0.0
H88 H 0.12721 0.42808 0.0581 0.0
O89 O 1.0272 0.35803 0.95507 0.0
H90 H 0.16687 0.44443 0.90721 0.0
H91 H 0.08787 0.44095 0.1238 0.0
Cu92 Cu 0.83273 0.07723 0.01708 0.0
N93 N 0.77801 0.10191 0.01294 0.0
N94 N 0.73057 0.14731 -0.00993 0.0
C95 C 0.77184 0.13979 0.00316 0.0
C96 C 0.70953 0.11282 -0.00737 0.0
C97 C 0.73895 0.08482 0.00708 0.0
O98 O 0.87466 0.12033 0.01841 0.0
C99 C 0.81653 1.00005 0.96754 0.0
O100 O 0.79414 0.99437 -0.00325 0.0
H101 H 0.79834 0.15912 0.00011 0.0
H102 H 0.7331 0.05301 0.00898 0.0
N103 N 0.84258 0.05545 0.06361 0.0
N104 N 0.83196 0.02408 0.11461 0.0
C105 C 0.81414 0.03617 0.08093 0.0
C106 C 0.87944 0.05644 0.08738 0.0
C107 C 0.87299 0.03692 0.11904 0.0
C108 C 0.88797 0.15292 0.04091 0.0
O109 O 0.91839 0.17276 0.02805 0.0
H110 H 0.78135 0.03022 0.06866 0.0
H111 H 0.90905 0.06972 0.08163 0.0
O112 O 0.83699 0.03354 0.97048 0.0
H113 H 0.67659 0.10664 0.98086 0.0
H114 H 0.8972 0.03052 0.14219 0.0
Cu115 Cu 0.08298 0.73156 0.02317 0.0
N116 N 1.04982 0.69863 0.98354 0.0
N117 N 1.00225 0.68954 0.93016 0.0
C118 C 1.02004 0.71648 0.96006 0.0
C119 C 1.02176 0.65284 0.93505 0.0
C120 C 1.05113 0.65852 0.96813 0.0
O121 O 1.0421 0.75405 0.06183 0.0
C122 C 0.148 0.77503 -0.00695 0.0
O123 O 0.17249 0.77182 0.02561 0.0
H124 H 1.01324 0.74935 0.96397 0.0
H125 H 0.07254 0.63531 0.97928 0.0
N126 N 0.12923 0.70511 0.04961 0.0
N127 N 0.18885 0.70161 0.09092 0.0
C128 C 0.15234 0.72335 0.08214 0.0
C129 C 0.1516 0.67012 0.03783 0.0
C130 C 0.18819 0.66767 0.06356 0.0
C131 C 1.02648 0.7271 0.07953 0.0
O132 O 1.0403 0.68866 0.07155 0.0
H133 H 0.14381 0.75331 0.09766 0.0
H134 H 0.14343 0.64916 0.01117 0.0
O135 O 0.1077 0.76836 -0.00833 0.0
H136 H 1.01571 0.62407 0.91595 0.0
H137 H 0.21356 0.64403 0.06102 0.0
Cu138 Cu 0.55937 0.53885 0.78099 0.0
N139 N 0.59659 0.56208 0.75027 0.0
N140 N 0.64702 0.60432 0.73787 0.0
C141 C 0.61715 0.59772 0.76232 0.0
C142 C 0.6451 0.57157 0.70913 0.0
C143 C 0.61389 0.54567 0.71675 0.0
O144 O 0.59841 0.51224 0.81805 0.0
C145 C 0.5008 0.60202 0.77475 0.0
O146 O 0.50973 0.59015 0.73814 0.0
H147 H 0.61174 0.61747 0.78962 0.0
H148 H 0.60569 0.5162 0.69984 0.0
N149 N 0.52519 0.49604 0.75394 0.0
N150 N 0.48874 0.43738 0.74567 0.0
C151 C 0.50995 0.46622 0.77162 0.0
C152 C 0.5131 0.48607 0.71533 0.0
C153 C 0.49055 0.44999 0.71014 0.0
C154 C 0.6185 0.48142 0.8 0.0
O155 O 0.61085 0.47224 0.76166 0.0
H156 H 0.51477 0.46573 0.80309 0.0
H157 H 0.52084 0.50329 0.69252 0.0
O158 O 0.51957 0.58308 0.80174 0.0
H159 H 0.66519 0.56644 0.68465 0.0
H160 H 0.47751 0.43389 0.68214 0.0
Cu161 Cu 0.59421 0.52764 0.21796 0.0
N162 N 0.55122 0.49063 0.19485 0.0
N163 N 0.49602 0.4493 0.19699 0.0
C164 C 0.51774 0.48263 0.21477 0.0
C165 C 0.51642 0.43581 0.16428 0.0
C166 C 0.55037 0.46143 0.16294 0.0
O167 O 0.56153 0.57311 0.24609 0.0
C168 C 0.65904 0.47093 0.21779 0.0
O169 O 0.6492 0.47452 0.18053 0.0
H170 H 0.51129 0.49933 0.24329 0.0
H171 H 0.57395 0.45759 0.14134 0.0
N172 N 0.62553 0.55577 0.18616 0.0
N173 N 0.67003 0.60403 0.17469 0.0
C174 C 0.65329 0.58539 0.20215 0.0
C175 C 0.62461 0.55531 0.14694 0.0
C176 C 0.65199 0.58506 0.1398 0.0
C177 C 0.5372 0.58982 0.22038 0.0
O178 O 0.53661 0.57293 0.18328 0.0
H179 H 0.65954 0.59423 0.23365 0.0
H180 H 0.60474 0.53555 0.12523 0.0
O181 O 0.63788 0.49323 0.24375 0.0
H182 H 0.50813 0.40873 0.14341 0.0
H183 H 0.65766 0.59242 0.11108 0.0
Cu184 Cu 0.86387 0.51464 0.50032 0.0
N185 N 0.83819 0.55855 0.47752 0.0
N186 N 0.83088 0.6018 0.43299 0.0
C187 C 0.85882 0.58108 0.45578 0.0
C188 C 0.79111 0.59224 0.4409 0.0
C189 C 0.79574 0.56543 0.46842 0.0
O190 O 0.92406 0.52545 0.51824 0.0
C191 C 0.8747 0.43276 0.45405 0.0
O192 O 0.89743 0.41983 0.48414 0.0
H193 H 0.89344 0.57911 0.4538 0.0
H194 H 0.77014 0.54936 0.47845 0.0
N195 N 0.83538 0.50082 0.54143 0.0
N196 N 0.82453 0.46792 0.5915 0.0
C197 C 0.84721 0.46855 0.56024 0.0
C198 C 0.80382 0.52125 0.56142 0.0
C199 C 0.79736 0.5011 0.59283 0.0
C200 C 0.94344 0.54595 0.54887 0.0
O201 O 0.98591 0.54446 0.55173 0.0
H202 H 0.8736 0.44723 0.55257 0.0
H203 H 0.78803 0.54968 0.5547 0.0
O204 O 0.85996 0.46974 0.45681 0.0
H205 H 0.76101 0.60213 0.42624 0.0
H206 H 0.7752 0.5104 0.61526 0.0
Cu207 Cu 0.58738 0.83659 0.50004 0.0
N208 N 0.62263 0.86594 0.47321 0.0
N209 N 0.66884 0.87133 0.42779 0.0
C210 C 0.65149 0.84618 0.44951 0.0
C211 C 0.65012 0.90875 0.4385 0.0
C212 C 0.62158 0.90533 0.4665 0.0
O213 O 0.6266 0.80966 0.53683 0.0
C214 C 0.51411 0.80363 0.45144 0.0
O215 O 0.49208 0.81369 0.48236 0.0
H216 H 0.65755 0.81322 0.44658 0.0
H217 H 0.60042 0.92943 0.47964 0.0
N218 N 0.5471 0.8672 0.53117 0.0
N219 N 0.49361 0.87448 0.5715 0.0
C220 C 0.5272 0.8507 0.55817 0.0
C221 C 0.52589 0.9033 0.52782 0.0
C222 C 0.49304 0.90802 0.55296 0.0
C223 C 0.64563 0.83541 0.56371 0.0
O224 O 0.63741 0.87488 0.5629 0.0
H225 H 0.53548 0.82034 0.56581 0.0
H226 H 0.53183 0.9234 0.5068 0.0
O227 O 0.55533 0.8029 0.45603 0.0
H228 H 0.65582 0.93643 0.42638 0.0
H229 H 0.46883 0.93275 0.55531 0.0
Cu230 Cu 0.28894 0.54567 0.51326 0.0
N231 N 0.32474 0.57637 0.48886 0.0
N232 N 0.34576 0.62869 0.46115 0.0
C233 C 0.31317 0.61267 0.47673 0.0
C234 C 0.37938 0.60154 0.46414 0.0
C235 C 0.36637 0.5694 0.48144 0.0
O236 O 0.26354 0.58442 0.55401 0.0
C237 C 0.2471 0.51694 0.43717 0.0
O238 O 0.25737 0.55164 0.42621 0.0
H239 H 0.28131 0.6269 0.47933 0.0
H240 H 0.38604 0.54302 0.48817 0.0
N241 N 0.32084 0.50554 0.53716 0.0
N242 N 0.33163 0.45421 0.57307 0.0
C243 C 0.31123 0.49076 0.56974 0.0
C244 C 0.34818 0.47739 0.5194 0.0
C245 C 0.3551 0.44579 0.54161 0.0
C246 C 0.29257 0.60396 0.57705 0.0
O247 O 0.3333 0.59386 0.5721 0.0
H248 H 0.2864 0.50428 0.5882 0.0
H249 H 0.35883 0.47768 0.4904 0.0
O250 O 0.25052 0.51339 0.47371 0.0
H251 H 0.4108 0.60407 0.45364 0.0
H252 H 0.37343 0.41745 0.53379 0.0
Cu253 Cu 0.59997 0.21893 0.52663 0.0
N254 N 0.62974 0.18985 0.48622 0.0
N255 N 0.66947 0.18198 0.43457 0.0
C256 C 0.65934 0.20653 0.46766 0.0
C257 C 0.64532 0.14838 0.43228 0.0
C258 C 0.62077 0.15335 0.46428 0.0
O259 O 0.64087 0.24587 0.56783 0.0
C260 C 0.52714 0.23823 0.48049 0.0
O261 O 0.52244 0.19867 0.4804 0.0
H262 H 0.67081 0.23741 0.47676 0.0
H263 H 0.59632 0.13298 0.46986 0.0
N264 N 0.56881 0.18476 0.5521 0.0
N265 N 0.52164 0.16953 0.59275 0.0
C266 C 0.53419 0.19783 0.57172 0.0
C267 C 0.57879 0.14671 0.56107 0.0
C268 C 0.54969 0.13725 0.58634 0.0
C269 C 0.67049 0.22198 0.58071 0.0
O270 O 0.67366 0.18407 0.56244 0.0
H271 H 0.51993 0.22855 0.57223 0.0
H272 H 0.60631 0.12795 0.55135 0.0
O273 O 0.55949 0.25567 0.50062 0.0
H274 H 0.64436 0.12279 0.40852 0.0
H275 H 0.54968 0.1093 0.59954 0.0
Tb276 Tb 0.34784 0.3028 0.3016 0.0
C277 C 0.35177 0.25426 0.21795 0.0
Tb278 Tb 0.28373 0.32754 0.23803 0.0
O279 O 0.32291 0.24141 0.29596 0.0
O280 O 0.2813 0.29037 0.28336 0.0
O281 O 0.37496 0.26498 0.25195 0.0
C282 C 0.22265 0.32488 0.17783 0.0
O283 O 0.31364 0.27161 0.20891 0.0
C284 C 0.35327 0.37325 0.25143 0.0
C285 C 0.27978 0.37707 0.32165 0.0
O286 O 0.21607 0.32187 0.21395 0.0
O287 O 0.26329 0.33088 0.17594 0.0
O288 O 0.31475 0.38646 0.24024 0.0
O289 O 0.35145 0.33508 0.25256 0.0
O290 O 0.25797 0.36786 0.28681 0.0
O291 O 0.31704 0.35842 0.33146 0.0
C292 C 0.40517 0.29577 0.36361 0.0
O293 O 0.41377 0.30924 0.33149 0.0
O294 O 0.36478 0.28665 0.36045 0.0
C295 C 0.28453 0.25142 0.28183 0.0
Tb296 Tb 0.82038 0.25768 0.2688 0.0
C297 C 0.91631 0.22622 0.26649 0.0
Tb298 Tb 0.88082 0.30478 0.22771 0.0
O299 O 0.82273 0.20353 0.22261 0.0
O300 O 0.8318 0.26207 0.20926 0.0
O301 O 0.88104 0.22759 0.28559 0.0
C302 C 0.93129 0.33682 0.18188 0.0
O303 O 0.92084 0.25014 0.23907 0.0
C304 C 0.86714 0.33855 0.29926 0.0
C305 C 0.78556 0.33926 0.23632 0.0
O306 O 0.94238 0.32994 0.21766 0.0
O307 O 0.8924 0.32421 0.17141 0.0
O308 O 0.87644 0.35887 0.27179 0.0
O309 O 0.87046 0.30042 0.28725 0.0
O310 O 0.81954 0.33713 0.2152 0.0
O311 O 0.78057 0.31301 0.26129 0.0
C312 C 0.77173 0.23237 0.32034 0.0
O313 O 0.76306 0.22713 0.28231 0.0
O314 O 0.80734 0.25206 0.32912 0.0
C315 C 0.8339 0.22415 0.19589 0.0
Tb316 Tb 0.8123 0.82125 0.21884 0.0
C317 C 0.78049 0.8178 0.30288 0.0
Tb318 Tb 0.85717 0.7564 0.26933 0.0
O319 O 0.75919 0.78303 0.18831 0.0
O320 O 0.80367 0.76079 0.22826 0.0
O321 O 0.7771 0.8369 0.27122 0.0
C322 C 0.86725 0.69625 0.3138 0.0
O323 O 0.80799 0.78618 0.30712 0.0
C324 C 0.90281 0.82158 0.26722 0.0
C325 C 0.89046 0.76309 0.18699 0.0
O326 O 0.88147 0.73324 0.32372 0.0
O327 O 0.84897 0.6926 0.27798 0.0
O328 O 0.91953 0.78675 0.27617 0.0
O329 O 0.86199 0.81955 0.26504 0.0
O330 O 0.88541 0.73753 0.21302 0.0
O331 O 0.86859 0.79887 0.18697 0.0
C332 C 0.79462 0.8911 0.1901 0.0
O333 O 0.79675 0.85492 0.16922 0.0
O334 O 0.80266 0.88799 0.22719 0.0
C335 C 0.77063 0.751 0.20535 0.0
Tb336 Tb 0.38814 0.81911 0.22799 0.0
C337 C 0.42203 0.73239 0.24608 0.0
Tb338 Tb 0.34648 0.78007 0.29321 0.0
O339 O 0.44863 0.82411 0.26649 0.0
O340 O 0.38934 0.82748 0.29042 0.0
O341 O 0.41676 0.75726 0.21865 0.0
C342 C 0.34297 0.75208 0.36158 0.0
O343 O 0.4012 0.73821 0.27856 0.0
C344 C 0.30893 0.75246 0.22291 0.0
C345 C 0.30663 0.86323 0.26957 0.0
O346 O 0.37772 0.75632 0.34468 0.0
O347 O 0.30959 0.76437 0.34017 0.0
O348 O 0.29926 0.74093 0.25548 0.0
O349 O 0.33911 0.77757 0.23153 0.0
O350 O 0.31117 0.83945 0.298 0.0
O351 O 0.32976 0.8572 0.23834 0.0
C352 C 0.40849 0.85873 0.16957 0.0
O353 O 0.40964 0.87388 0.20666 0.0
O354 O 0.39541 0.82103 0.16516 0.0
C355 C 0.4296 0.82632 0.2988 0.0
Tb356 Tb 0.27117 0.76475 0.78319 0.0
C357 C 0.3686 0.73031 0.77437 0.0
Tb358 Tb 0.32852 0.80226 0.72803 0.0
O359 O 0.23555 0.72742 0.73309 0.0
O360 O 0.2972 0.74639 0.72863 0.0
O361 O 0.33346 0.73128 0.79437 0.0
C362 C 0.37098 0.82775 0.67172 0.0
O363 O 0.37154 0.75275 0.74545 0.0
C364 C 0.33554 0.83189 0.80293 0.0
C365 C 0.23312 0.8377 0.73839 0.0
O366 O 0.36112 0.85003 0.70422 0.0
O367 O 0.35582 0.79121 0.67037 0.0
O368 O 0.36709 0.83153 0.78058 0.0
O369 O 0.3023 0.81975 0.78216 0.0
O370 O 0.2643 0.8303 0.71379 0.0
O371 O 0.23317 0.81927 0.77023 0.0
C372 C 0.23483 0.75665 0.84913 0.0
O373 O 0.21613 0.74953 0.81354 0.0
O374 O 0.27478 0.76581 0.84724 0.0
C375 C 0.26499 0.7297 0.70888 0.0
Tb376 Tb 0.31981 0.28023 0.72293 0.0
C377 C 0.28716 0.29741 0.8086 0.0
Tb378 Tb 0.3614 0.22805 0.78831 0.0
O379 O 0.28635 0.22782 0.69104 0.0
O380 O 0.30079 0.23075 0.75183 0.0
O381 O 0.28521 0.30844 0.77274 0.0
C382 C 0.37559 0.17316 0.83946 0.0
O383 O 0.31202 0.26618 0.81956 0.0
C384 C 0.40674 0.29341 0.77981 0.0
C385 C 0.39651 0.21615 0.70425 0.0
O386 O 0.38536 0.21175 0.84638 0.0
O387 O 0.35801 0.16533 0.80339 0.0
O388 O 0.41862 0.269 0.80565 0.0
O389 O 0.3727 0.27892 0.76264 0.0
O390 O 0.39086 0.19765 0.73537 0.0
O391 O 0.37818 0.25247 0.69906 0.0
C392 C 0.30444 0.3391 0.67717 0.0
O393 O 0.30189 0.29984 0.66562 0.0
O394 O 0.31411 0.34545 0.71502 0.0
C395 C 0.28659 0.20764 0.72077 0.0
Tb396 Tb 0.82507 0.31895 0.76287 0.0
C397 C 0.86573 0.22929 0.77172 0.0
Tb398 Tb 0.78376 0.26789 0.81224 0.0
O399 O 0.85379 0.35768 0.81476 0.0
O400 O 0.84407 0.29623 0.81682 0.0
O401 O 0.86196 0.26023 0.75027 0.0
C402 C 0.74915 0.23916 0.8704 0.0
O403 O 0.8415 0.22844 0.8016 0.0
C404 C 0.75617 0.25633 0.73742 0.0
C405 C 0.74791 0.35936 0.80848 0.0
O406 O 0.74243 0.22502 0.83326 0.0
O407 O 0.77656 0.26848 0.87492 0.0
O408 O 0.75964 0.22749 0.75959 0.0
O409 O 0.7649 0.29041 0.75805 0.0
O410 O 0.74903 0.32702 0.8275 0.0
O411 O 0.77103 0.36021 0.77824 0.0
C412 C 0.84714 0.35637 0.70419 0.0
O413 O 0.85775 0.36752 0.74136 0.0
O414 O 0.82579 0.32267 0.69982 0.0
C415 C 0.85608 0.32927 0.8374 0.0
Tb416 Tb 0.84476 0.7314 0.71525 0.0
C417 C 0.88539 0.7385 0.8037 0.0
Tb418 Tb 0.8146 0.80337 0.77462 0.0
O419 O 0.8673 0.77398 0.679 0.0
O420 O 0.86796 0.79128 0.73948 0.0
O421 O 0.88035 0.71481 0.7689 0.0
C422 C 0.81124 0.86964 0.8315 0.0
O423 O 0.86502 0.77483 0.81111 0.0
C424 C 0.76263 0.74043 0.76111 0.0
C425 C 0.76889 0.78942 0.68849 0.0
O426 O 0.79877 0.83281 0.83338 0.0
O427 O 0.8247 0.86963 0.79672 0.0
O428 O 0.75009 0.77834 0.77196 0.0
O429 O 0.80345 0.73869 0.76192 0.0
O430 O 0.78177 0.8178 0.71874 0.0
O431 O 0.78433 0.75086 0.68523 0.0
C432 C 0.87003 0.66231 0.67018 0.0
O433 O 0.83019 0.67547 0.67298 0.0
O434 O 0.89519 0.68756 0.69334 0.0
C435 C 0.87379 0.80393 0.70747 0.0
C436 C 0.18101 0.19849 0.23472 0.0
C437 C 0.19275 0.15674 0.23628 0.0
H438 H 0.19997 0.26165 0.2492 0.0
C439 C 0.23442 0.14713 0.25224 0.0
H440 H 0.14888 0.20693 0.22305 0.0
C441 C 0.26357 0.17814 0.26645 0.0
C442 C 0.2519 0.21995 0.26575 0.0
H443 H 0.24452 0.11538 0.25365 0.0
H444 H 0.29545 0.16915 0.27835 0.0
C445 C 0.21021 0.22987 0.2497 0.0
C446 C 0.97195 0.13091 0.3002 0.0
C447 C 1.00979 0.12836 0.28074 0.0
H448 H 0.91269 0.16424 0.31129 0.0
C449 C 1.01944 0.16082 0.26084 0.0
H450 H 0.9633 0.10562 0.31466 0.0
C451 C 0.99011 0.1939 0.25787 0.0
C452 C 0.95058 0.19509 0.27483 0.0
H453 H 1.04806 0.15886 0.24476 0.0
H454 H 0.99742 0.21729 0.2405 0.0
C455 C 0.94273 0.16422 0.2976 0.0
C456 C 0.93983 0.91008 0.21886 0.0
C457 C 0.98255 0.91471 0.23593 0.0
H458 H 0.88107 0.87751 0.21554 0.0
C459 C 0.99796 0.88938 0.26405 0.0
H460 H 0.92689 0.92922 0.19723 0.0
C461 C 0.97166 0.85969 0.27432 0.0
C462 C 0.92888 0.85519 0.25753 0.0
H463 H 1.03078 0.89191 0.27749 0.0
H464 H 0.9849 0.84011 0.29549 0.0
C465 C 0.91323 0.88089 0.22983 0.0
C466 C 0.23992 0.95459 0.24042 0.0
C467 C 0.20619 0.9578 0.26526 0.0
H468 H 0.29786 0.92334 0.22279 0.0
C469 C 0.2077 0.93225 0.29481 0.0
H470 H 0.2399 0.97413 0.21762 0.0
C471 C 0.24121 0.90221 0.29761 0.0
C472 C 0.27367 0.8976 0.27103 0.0
H473 H 0.18188 0.93392 0.31418 0.0
H474 H 0.2407 0.88163 0.31942 0.0
C475 C 0.27319 0.92518 0.24335 0.0
C476 C 0.16648 0.92266 0.69591 0.0
C477 C 0.14076 0.93823 0.72682 0.0
H478 H 0.21536 0.879 0.67509 0.0
C479 C 0.1456 0.92041 0.7616 0.0
H480 H 0.16377 0.93579 0.66866 0.0
C481 C 0.17506 0.88724 0.76501 0.0
C482 C 0.2006 0.87157 0.73388 0.0
H483 H 0.12615 0.93152 0.78577 0.0
H484 H 0.17801 0.87413 0.79226 0.0
C485 C 0.19611 0.88995 0.69945 0.0
C486 C 0.19252 0.14576 0.74018 0.0
C487 C 0.184 0.12189 0.70283 0.0
H488 H 0.23251 0.19146 0.77587 0.0
C489 C 0.2137 0.1224 0.67448 0.0
H490 H 0.17041 0.14621 0.76279 0.0
C491 C 0.24913 0.14798 0.68213 0.0
C492 C 0.25612 0.17373 0.71836 0.0
H493 H 0.20906 0.10376 0.64587 0.0
H494 H 0.27009 0.1491 0.65881 0.0
C495 C 0.22829 0.17149 0.74789 0.0
C496 C 0.95528 0.16517 0.7222 0.0
C497 C 0.96491 0.13453 0.74659 0.0
H498 H 0.91706 0.21835 0.71073 0.0
C499 C 0.94255 0.13597 0.78051 0.0
H500 H 0.97197 0.16527 0.69589 0.0
C501 C 0.91029 0.16672 0.78894 0.0
C502 C 0.90011 0.19675 0.76379 0.0
H503 H 0.94896 0.1127 0.79973 0.0
H504 H 0.89311 0.16673 0.81496 0.0
C505 C 0.92357 0.19577 0.73068 0.0
C506 C 0.93114 0.90595 0.72911 0.0
C507 C 0.93719 0.91387 0.69074 0.0
H508 H 0.90629 0.86518 0.76474 0.0
C509 C 0.92022 0.8862 0.65849 0.0
H510 H 0.94302 0.92679 0.75476 0.0
C511 C 0.89891 0.85123 0.66434 0.0
C512 C 0.89388 0.84283 0.70256 0.0
H513 H 0.92437 0.89084 0.62859 0.0
H514 H 0.88694 0.83029 0.63871 0.0
C515 C 0.90972 0.87081 0.73495 0.0
C516 C 0.35469 0.17952 0.12532 0.0
C517 C 0.36417 0.1427 0.14079 0.0
H518 H 0.34383 0.24467 0.13834 0.0
C519 C 0.37697 0.14404 0.18118 0.0
H520 H 0.34484 0.1791 0.09427 0.0
C521 C 0.37747 0.18152 0.20621 0.0
C522 C 0.36442 0.21789 0.19114 0.0
H523 H 0.38515 0.11595 0.19354 0.0
H524 H 0.38469 0.18162 0.23763 0.0
C525 C 0.35434 0.21687 0.15042 0.0
C526 C 0.96153 0.39511 0.10205 0.0
C527 C 1.0054 0.4028 0.11335 0.0
H528 H 0.90407 0.36739 0.11437 0.0
C529 C 1.02416 0.38987 0.1485 0.0
H530 H 0.94605 0.40487 0.07535 0.0
C531 C 1.0 0.36859 0.17094 0.0
C532 C 0.9568 0.35949 0.15853 0.0
H533 H 1.05799 0.39445 0.15786 0.0
H534 H 1.01545 0.35841 0.19749 0.0
C535 C 0.93759 0.37342 0.12422 0.0
C536 C 0.78998 0.96276 0.11521 0.0
C537 C 0.81461 0.99518 0.13582 0.0
H538 H 0.76417 0.9038 0.11681 0.0
C539 C 0.82632 0.99606 0.17625 0.0
H540 H 0.78087 0.96122 0.08393 0.0
C541 C 0.81616 0.96345 0.19518 0.0
C542 C 0.79495 0.92943 0.17355 0.0
H543 H 0.84502 0.02099 0.19263 0.0
H544 H 0.82776 0.96345 0.22584 0.0
C545 C 0.78054 0.92989 0.13391 0.0
C546 C 0.23612 0.75507 0.1292 0.0
C547 C 0.22308 0.71388 0.12106 0.0
H548 H 0.2755 0.79955 0.16718 0.0
C549 C 0.24307 0.68504 0.14364 0.0
H550 H 0.22152 0.77782 0.11188 0.0
C551 C 0.27331 0.69753 0.17533 0.0
C552 C 0.28534 0.73884 0.18432 0.0
H553 H 0.23362 0.65323 0.13801 0.0
H554 H 0.28621 0.67509 0.19381 0.0
C555 C 0.26743 0.76738 0.16034 0.0
C556 C 0.29353 0.88601 0.89653 0.0
C557 C 0.33104 0.90423 0.91568 0.0
H558 H 0.26558 0.84883 0.84517 0.0
C559 C 0.37086 0.89491 0.89943 0.0
H560 H 0.2626 0.89272 0.9086 0.0
C561 C 0.37272 0.86982 0.86333 0.0
C562 C 0.33483 0.85361 0.8431 0.0
H563 H 0.4005 0.9077 0.91429 0.0
H564 H 0.40351 0.86415 0.85074 0.0
C565 C 0.29536 0.86098 0.86033 0.0
C566 C 0.22768 0.32713 0.90063 0.0
C567 C 0.2029 0.36189 0.89166 0.0
H568 H 0.27362 0.27967 0.88178 0.0
C569 C 0.20722 0.3762 0.85573 0.0
H570 H 0.22553 0.31569 0.92831 0.0
C571 C 0.23478 0.35548 0.82888 0.0
C572 C 0.25889 0.32015 0.8375 0.0
H573 H 0.18832 0.40265 0.8478 0.0
H574 H 0.23682 0.36702 0.80121 0.0
C575 C 0.2554 0.30657 0.87395 0.0
C576 C 0.70269 0.16279 0.92481 0.0
C577 C 0.71959 0.17663 0.96352 0.0
H578 H 0.69932 0.17211 0.86431 0.0
C579 C 0.7375 0.21579 0.97216 0.0
H580 H 0.68894 0.13264 0.91731 0.0
C581 C 0.74423 0.23799 0.94182 0.0
C582 C 0.73259 0.22141 0.90257 0.0
H583 H 0.75057 0.22701 0.00188 0.0
H584 H 0.76153 0.26643 0.94883 0.0
C585 C 0.70925 0.18508 0.89442 0.0
C586 C 0.94376 0.73474 0.90499 0.0
C587 C 0.97118 0.69963 0.89873 0.0
H588 H 0.89576 0.77433 0.88053 0.0
C589 C 0.96892 0.67612 0.86096 0.0
H590 H 0.94377 0.75315 0.93377 0.0
C591 C 0.94082 0.68824 0.83004 0.0
C592 C 0.91436 0.72412 0.83624 0.0
H593 H 0.98968 0.64905 0.85497 0.0
H594 H 0.94039 0.66988 0.80118 0.0
C595 C 0.91595 0.74685 0.87429 0.0
C596 C 0.11546 0.31043 0.11677 0.0
C597 C 0.12774 0.31061 0.07841 0.0
H598 H 0.13597 0.3152 0.17847 0.0
C599 C 0.17185 0.31319 0.07308 0.0
H600 H 0.08179 0.30869 0.12201 0.0
C601 C 0.20262 0.31758 0.10547 0.0
C602 C 0.19005 0.31915 0.14381 0.0
H603 H 0.18252 0.31352 0.04402 0.0
H604 H 0.23622 0.32043 0.1005 0.0
C605 C 0.14638 0.31458 0.14917 0.0
C606 C 0.14608 0.76306 0.91892 0.0
C607 C 0.16902 0.77464 0.95582 0.0
H608 H 0.14908 0.74741 0.85638 0.0
C609 C 0.21375 0.78054 0.95703 0.0
H610 H 0.11173 0.75778 0.91682 0.0
C611 C 0.23513 0.77418 0.92243 0.0
C612 C 0.21238 0.76156 0.88579 0.0
H613 H 0.23252 0.7893 0.98487 0.0
H614 H 0.26957 0.77901 0.92441 0.0
C615 C 0.16757 0.75653 0.88431 0.0
C616 C 0.40528 0.12792 0.93485 0.0
C617 C 0.37889 0.09353 0.92943 0.0
H618 H 0.42435 0.18067 0.91077 0.0
C619 C 0.35416 0.084 0.8931 0.0
H620 H 0.42428 0.13629 0.96264 0.0
C621 C 0.3548 0.10874 0.86327 0.0
C622 C 0.37932 0.14435 0.86933 0.0
H623 H 0.33345 0.05771 0.88804 0.0
H624 H 0.3346 0.10092 0.83606 0.0
C625 C 0.40506 0.1534 0.90525 0.0
C626 C 0.93665 0.29378 0.91557 0.0
C627 C 0.96093 0.32931 0.92705 0.0
H628 H 0.88369 0.26596 0.87809 0.0
C629 C 0.94706 0.36582 0.91225 0.0
H630 H 0.94633 0.26532 0.92675 0.0
C631 C 0.91112 0.36632 0.88499 0.0
C632 C 0.88846 0.33025 0.87158 0.0
H633 H 0.96456 0.39396 0.92105 0.0
H634 H 0.90224 0.39461 0.87314 0.0
C635 C 0.90073 0.29421 0.88788 0.0
C636 C 0.79651 0.92983 0.93277 0.0
C637 C 0.81633 0.96746 0.93193 0.0
H638 H 0.77939 0.87037 0.90233 0.0
C639 C 0.83427 0.97305 0.89692 0.0
H640 H 0.78226 0.92402 0.95894 0.0
C641 C 0.83224 0.9418 0.86384 0.0
C642 C 0.81244 0.90423 0.86513 0.0
H643 H 0.84964 1.00157 0.895 0.0
H644 H 0.84647 0.94688 0.83743 0.0
C645 C 0.79472 0.89884 0.90008 0.0
C646 C 0.97092 0.776 0.11231 0.0
C647 C 0.99217 0.73721 0.10743 0.0
H648 H 0.92213 0.81444 0.14073 0.0
C649 C 0.97933 0.70688 0.12875 0.0
H650 H 0.9798 0.80003 0.09638 0.0
C651 C 0.94626 0.71502 0.1542 0.0
C652 C 0.9247 0.75365 0.15889 0.0
H653 H 0.99491 0.67658 0.12585 0.0
H654 H 0.93757 0.69092 0.17015 0.0
C655 C 0.93755 0.78407 0.13761 0.0
C656 C 0.43645 0.94597 0.11592 0.0
C657 C 0.43475 0.92688 0.07644 0.0
H658 H 0.42946 0.93939 0.17613 0.0
C659 C 0.42694 0.88437 0.06834 0.0
H660 H 0.44206 0.97862 0.12334 0.0
C661 C 0.41915 0.86202 0.0986 0.0
C662 C 0.4193 0.88153 0.13773 0.0
H663 H 0.42517 0.86854 0.03835 0.0
H664 H 0.41211 0.82965 0.09123 0.0
C665 C 0.42893 0.92352 0.14618 0.0
C666 C 0.89359 0.20396 0.10302 0.0
C667 C 0.87229 0.17001 0.08048 0.0
H668 H 0.89863 0.24688 0.15637 0.0
C669 C 0.83725 0.15462 0.0965 0.0
H670 H 0.9208 0.21715 0.09235 0.0
C671 C 0.82496 0.17177 0.13411 0.0
C672 C 0.84632 0.20582 0.15602 0.0
H673 H 0.81895 0.12975 0.08018 0.0
H674 H 0.79819 0.15887 0.14576 0.0
C675 C 0.88068 0.22161 0.13989 0.0
C676 C 0.66223 0.67798 0.7587 0.0
C677 C 0.67616 0.63826 0.74283 0.0
H678 H 0.67831 0.74117 0.77616 0.0
C679 C 0.71912 0.63227 0.73262 0.0
H680 H 0.62932 0.68364 0.76655 0.0
C681 C 0.7476 0.6652 0.73881 0.0
C682 C 0.7334 0.70494 0.7545 0.0
H683 H 0.73092 0.60195 0.72065 0.0
H684 H 0.78061 0.65959 0.73127 0.0
C685 C 0.69032 0.71094 0.76407 0.0
C686 C 0.43504 0.63735 0.80458 0.0
C687 C 0.471 0.6381 0.78267 0.0
H688 H 0.37373 0.66598 0.81914 0.0
C689 C 0.47503 0.67151 0.76232 0.0
H690 H 0.43097 0.61162 0.82018 0.0
C691 C 0.4429 0.70238 0.76184 0.0
C692 C 0.40518 0.70053 0.78121 0.0
H693 H 0.50249 0.67293 0.74529 0.0
H694 H 0.44701 0.72688 0.7447 0.0
C695 C 0.40221 0.66834 0.80375 0.0
C696 C 0.4811 0.38419 0.78932 0.0
C697 C 0.469 0.40073 0.75413 0.0
H698 H 0.47114 0.33732 0.82498 0.0
C699 C 0.43713 0.38066 0.72734 0.0
H700 H 0.50607 0.39808 0.81044 0.0
C701 C 0.41767 0.34562 0.73562 0.0
C702 C 0.42899 0.32977 0.77104 0.0
H703 H 0.4267 0.39217 0.70003 0.0
H704 H 0.39397 0.33073 0.71392 0.0
C705 C 0.46136 0.34909 0.79762 0.0
C706 C 0.64435 0.41976 0.82985 0.0
C707 C 0.65345 0.4578 0.81881 0.0
H708 H 0.66783 0.35832 0.83592 0.0
C709 C 0.69579 0.46516 0.81134 0.0
H710 H 0.61152 0.41297 0.83441 0.0
C711 C 0.7275 0.43373 0.81095 0.0
C712 C 0.71751 0.39444 0.8184 0.0
H713 H 0.70323 0.49383 0.80166 0.0
H714 H 0.75908 0.43937 0.80218 0.0
C715 C 0.6764 0.38835 0.83015 0.0
C716 C 0.72601 0.43149 0.20062 0.0
C717 C 0.69363 0.4405 0.22688 0.0
H718 H 0.77966 0.39282 0.18269 0.0
C719 C 0.69221 0.41666 0.2574 0.0
H720 H 0.72802 0.44936 0.17678 0.0
C721 C 0.72184 0.38341 0.2605 0.0
C722 C 0.7535 0.37382 0.23334 0.0
H723 H 0.6673 0.42262 0.27775 0.0
H724 H 0.71976 0.36513 0.28398 0.0
C725 C 0.75557 0.39881 0.20386 0.0
C726 C 0.72494 0.64777 0.21694 0.0
C727 C 0.6978 0.63928 0.18169 0.0
H728 H 0.76909 0.6897 0.2524 0.0
C729 C 0.69689 0.66701 0.15413 0.0
H730 H 0.72676 0.62709 0.23883 0.0
C731 C 0.72136 0.70254 0.16191 0.0
C732 C 0.74795 0.71129 0.19722 0.0
H733 H 0.67617 0.66203 0.12697 0.0
H734 H 0.71903 0.72358 0.14027 0.0
C735 C 0.74979 0.68336 0.22458 0.0
C736 C 0.49463 0.63995 0.26636 0.0
C737 C 0.51082 0.62803 0.22952 0.0
H738 H 0.45323 0.68224 0.30047 0.0
C739 C 0.49901 0.65163 0.19901 0.0
H740 H 0.5031 0.62229 0.29031 0.0
C741 C 0.47075 0.68563 0.20461 0.0
C742 C 0.45316 0.69691 0.24085 0.0
H743 H 0.51128 0.64354 0.1703 0.0
H744 H 0.46212 0.70259 0.18017 0.0
C745 C 0.46581 0.67403 0.27192 0.0
C746 C 0.42825 0.45436 0.23053 0.0
C747 C 0.46118 0.43018 0.21212 0.0
H748 H 0.36812 0.45524 0.2571 0.0
C749 C 0.45972 0.38708 0.20917 0.0
H750 H 0.42854 0.48761 0.23321 0.0
C751 C 0.42591 0.3686 0.22391 0.0
C752 C 0.39217 0.39278 0.24107 0.0
H753 H 0.4849 0.36769 0.1956 0.0
H754 H 0.42539 0.33531 0.22058 0.0
C755 C 0.39381 0.43586 0.24432 0.0
C756 C 0.94441 0.58243 0.61808 0.0
C757 C 0.92117 0.57148 0.58117 0.0
H758 H 0.94647 0.61954 0.67492 0.0
C759 C 0.87931 0.5886 0.57524 0.0
H760 H 0.97684 0.57009 0.62396 0.0
C761 C 0.8613 0.61614 0.6051 0.0
C762 C 0.8855 0.62825 0.64113 0.0
H763 H 0.86112 0.58235 0.54714 0.0
H764 H 0.82944 0.62972 0.59914 0.0
C765 C 0.927 0.6107 0.64747 0.0
C766 C 0.44926 0.82198 0.59251 0.0
C767 C 0.46146 0.86321 0.59557 0.0
H768 H 0.41044 0.77866 0.61348 0.0
C769 C 0.44174 0.89303 0.62245 0.0
H770 H 0.46323 0.79838 0.57159 0.0
C771 C 0.41166 0.88164 0.64667 0.0
C772 C 0.40001 0.84032 0.64394 0.0
H773 H 0.45048 0.92496 0.62544 0.0
H774 H 0.39787 0.90512 0.66787 0.0
C775 C 0.41867 0.81073 0.61621 0.0
C776 C 0.31663 0.3843 0.58463 0.0
C777 C 0.32256 0.42604 0.59927 0.0
H778 H 0.30488 0.32439 0.59779 0.0
C779 C 0.31919 0.43977 0.63953 0.0
H780 H 0.31828 0.37316 0.55358 0.0
C781 C 0.31181 0.41174 0.66505 0.0
C782 C 0.30675 0.36985 0.65038 0.0
H783 H 0.32354 0.47189 0.65131 0.0
H784 H 0.31097 0.42264 0.69626 0.0
C785 C 0.30846 0.35655 0.60987 0.0
C786 C 0.69533 0.2735 0.63992 0.0
C787 C 0.69631 0.23331 0.61899 0.0
H788 H 0.7145 0.31279 0.694 0.0
C789 C 0.72003 0.20223 0.63641 0.0
H790 H 0.67745 0.29813 0.62729 0.0
C791 C 0.74025 0.21041 0.67443 0.0
C792 C 0.73811 0.25003 0.69587 0.0
H793 H 0.72172 0.17093 0.62131 0.0
H794 H 0.75701 0.18537 0.68738 0.0
C795 C 0.71651 0.2819 0.67799 0.0
C796 C 0.88307 0.36431 0.41045 0.0
C797 C 0.86834 0.40579 0.41554 0.0
H798 H 0.89334 0.30948 0.36914 0.0
C799 C 0.84874 0.42243 0.38269 0.0
H800 H 0.89795 0.35048 0.43525 0.0
C801 C 0.84643 0.39924 0.34537 0.0
C802 C 0.86303 0.35866 0.3399 0.0
H803 H 0.83657 0.45404 0.38539 0.0
H804 H 0.83282 0.4136 0.3204 0.0
C805 C 0.88015 0.34074 0.3728 0.0
C806 C 0.69822 0.88089 0.36485 0.0
C807 C 0.698 0.85922 0.39722 0.0
H808 H 0.72383 0.88488 0.30973 0.0
C809 C 0.72577 0.82434 0.39849 0.0
H810 H 0.67705 0.90762 0.3626 0.0
C811 C 0.75254 0.81118 0.36813 0.0
C812 C 0.75231 0.8324 0.33542 0.0
H813 H 0.72699 0.80715 0.42311 0.0
H814 H 0.77324 0.78408 0.37031 0.0
C815 C 0.7249 0.8676 0.33431 0.0
C816 C 0.3043 0.67893 0.4243 0.0
C817 C 0.34383 0.66478 0.44172 0.0
H818 H 0.27289 0.71857 0.38549 0.0
C819 C 0.38188 0.6846 0.43728 0.0
H820 H 0.27437 0.66437 0.42698 0.0
C821 C 0.38093 0.71555 0.41344 0.0
C822 C 0.3419 0.72736 0.39372 0.0
H823 H 0.41264 0.67521 0.45109 0.0
H824 H 0.41111 0.72874 0.40885 0.0
C825 C 0.30335 0.71005 0.40054 0.0
C826 C 0.452 0.25118 0.4537 0.0
C827 C 0.49587 0.26017 0.4554 0.0
H828 H 0.38909 0.25626 0.42396 0.0
C829 C 0.50955 0.28455 0.42875 0.0
H830 H 0.44071 0.2323 0.4738 0.0
C831 C 0.47996 0.29756 0.39929 0.0
C832 C 0.43633 0.28692 0.39671 0.0
H833 H 0.5434 0.29134 0.42916 0.0
H834 H 0.49143 0.31467 0.37786 0.0
C835 C 0.42251 0.26479 0.42502 0.0
C836 C 0.68974 0.78138 0.59644 0.0
C837 C 0.67632 0.82266 0.59579 0.0
H838 H 0.72942 0.73848 0.62608 0.0
C839 C 0.693 0.85269 0.62635 0.0
H840 H 0.67756 0.75751 0.57346 0.0
C841 C 0.72253 0.8419 0.65655 0.0
C842 C 0.73645 0.80077 0.65703 0.0
H843 H 0.68334 0.88484 0.627 0.0
H844 H 0.73476 0.86598 0.6793 0.0
C845 C 0.71955 0.77057 0.62666 0.0
C846 C 0.73206 0.21745 0.41768 0.0
C847 C 0.69629 0.19252 0.40571 0.0
H848 H 0.784 0.24932 0.40001 0.0
C849 C 0.68596 0.17996 0.36518 0.0
H850 H 0.74097 0.22728 0.44868 0.0
C851 C 0.7104 0.19291 0.33722 0.0
C852 C 0.74584 0.21819 0.34937 0.0
H853 H 0.6583 0.16114 0.35508 0.0
H854 H 0.70147 0.1833 0.30617 0.0
C855 C 0.75669 0.22998 0.38983 0.0
C856 C 0.8177 0.6185 0.36524 0.0
C857 C 0.84165 0.62371 0.40216 0.0
H858 H 0.80823 0.63644 0.30758 0.0
C859 C 0.87666 0.65017 0.40845 0.0
H860 H 0.79103 0.59771 0.35953 0.0
C861 C 0.88629 0.67257 0.37894 0.0
C862 C 0.86175 0.66801 0.34234 0.0
H863 H 0.8956 0.65448 0.43666 0.0
H864 H 0.91227 0.69416 0.38505 0.0
C865 C 0.82795 0.64015 0.33541 0.0
C866 C 0.44854 0.82 0.40797 0.0
C867 C 0.49174 0.80523 0.41161 0.0
H868 H 0.39579 0.83965 0.36984 0.0
C869 C 0.51427 0.79719 0.37749 0.0
H870 H 0.4302 0.82704 0.43355 0.0
C871 C 0.49416 0.80414 0.34077 0.0
C872 C 0.45126 0.81952 0.33751 0.0
H873 H 0.54766 0.78623 0.37924 0.0
H874 H 0.51221 0.79756 0.31497 0.0
C875 C 0.42881 0.82758 0.37149 0.0
C876 C 0.2372 0.48135 0.36722 0.0
C877 C 0.24611 0.47909 0.4077 0.0
H878 H 0.23996 0.45023 0.30795 0.0
C879 C 0.26119 0.44132 0.41931 0.0
H880 H 0.22575 0.51006 0.35738 0.0
C881 C 0.2704 0.40768 0.39113 0.0
C882 C 0.26361 0.41059 0.35073 0.0
H883 H 0.2688 0.43848 0.45017 0.0
H884 H 0.28423 0.37972 0.40099 0.0
C885 C 0.24534 0.44718 0.33895 0.0
C886 C 0.49157 0.16003 0.65529 0.0
C887 C 0.48752 0.17532 0.61891 0.0
H888 H 0.46569 0.16093 0.71143 0.0
C889 C 0.45097 0.19965 0.60961 0.0
H890 H 0.51954 0.14122 0.6632 0.0
C891 C 0.42057 0.2108 0.63683 0.0
C892 C 0.42582 0.19799 0.67426 0.0
H893 H 0.4465 0.21107 0.58151 0.0
H894 H 0.39346 0.23067 0.62884 0.0
C895 C 0.46086 0.17132 0.68286 0.0
C896 C 0.83995 0.45449 0.65965 0.0
C897 C 0.83162 0.43971 0.61954 0.0
H898 H 0.85338 0.43919 0.71789 0.0
C899 C 0.83179 0.39709 0.60683 0.0
H900 H 0.84056 0.4873 0.66974 0.0
C901 C 0.83835 0.36949 0.63425 0.0
C902 C 0.84627 0.38431 0.6745 0.0
H903 H 0.82567 0.38535 0.57581 0.0
H904 H 0.83656 0.33673 0.62413 0.0
C905 C 0.84784 0.42698 0.68691 0.0
C906 C 0.24167 0.64442 0.62291 0.0
C907 C 0.28255 0.63838 0.60814 0.0
H908 H 0.20376 0.67855 0.6668 0.0
C909 C 0.31574 0.66499 0.62455 0.0
H910 H 0.21546 0.62444 0.61076 0.0
C911 C 0.30903 0.69575 0.65596 0.0
C912 C 0.26896 0.70082 0.67204 0.0
H913 H 0.34753 0.66162 0.61366 0.0
H914 H 0.336 0.71443 0.66867 0.0
C915 C 0.23498 0.67536 0.65485 0.0
loop_
_geom_bond_atom_site_label_1
_geom_bond_atom_site_label_2
_geom_bond_distance
_geom_bond_site_symmetry_2
_ccdc_geom_bond_type
Cu0 N1 1.999 . S
Cu0 O6 1.974 1_545 S
Cu0 N11 1.985 1_445 S
Cu0 O20 1.959 1_455 S
N1 Cu0 1.999 . S
N1 C3 1.263 . S
N1 C5 1.389 . S
N2 C3 1.358 . S
N2 C4 1.400 . S
C3 N1 1.263 . S
C3 N2 1.358 . S
C3 H9 0.930 . S
C4 N2 1.400 . S
C4 C5 1.351 . S
C4 H21 0.930 . S
C5 N1 1.389 . S
C5 C4 1.351 . S
C5 H10 0.930 . S
O6 Cu0 1.974 1_565 S
O6 C16 1.282 . S
C7 O8 1.261 . S
C7 O20 1.251 . S
O8 C7 1.261 . S
H9 C3 0.930 . S
H10 C5 0.930 . S
N11 Cu0 1.985 1_665 S
N11 C13 1.335 . S
N11 C14 1.390 . S
N12 C13 1.345 . S
N12 C15 1.336 . S
C13 N11 1.335 . S
C13 N12 1.345 . S
C13 H18 0.930 1_565 S
C14 N11 1.390 . S
C14 C15 1.346 . S
C14 H19 0.930 1_655 S
C15 N12 1.336 . S
C15 C14 1.346 . S
C15 H22 0.929 . S
C16 O6 1.282 . S
C16 O17 1.216 . S
O17 C16 1.216 . S
H18 C13 0.930 1_545 S
H19 C14 0.930 1_455 S
O20 Cu0 1.959 1_655 S
O20 C7 1.251 . S
H21 C4 0.930 . S
H22 C15 0.929 . S
Cu23 N24 1.999 1_445 S
Cu23 O29 1.974 1_455 S
Cu23 N34 1.985 . S
Cu23 O43 1.959 1_545 S
N24 Cu23 1.999 1_665 S
N24 C26 1.263 . S
N24 C28 1.389 . S
N25 C26 1.358 . S
N25 C27 1.400 . S
C26 N24 1.263 . S
C26 N25 1.358 . S
C26 H32 0.930 . S
C27 N25 1.400 . S
C27 C28 1.351 . S
C27 H44 0.930 . S
C28 N24 1.389 . S
C28 C27 1.351 . S
C28 H33 0.930 1_655 S
O29 Cu23 1.974 1_655 S
O29 C39 1.282 . S
C30 O31 1.261 . S
C30 O43 1.251 . S
O31 C30 1.261 . S
H32 C26 0.930 . S
H33 C28 0.930 1_455 S
N34 Cu23 1.985 . S
N34 C36 1.335 . S
N34 C37 1.390 . S
N35 C36 1.345 . S
N35 C38 1.336 . S
C36 N34 1.335 . S
C36 N35 1.345 . S
C36 H41 0.930 . S
C37 N34 1.390 . S
C37 C38 1.346 . S
C37 H42 0.930 . S
C38 N35 1.336 . S
C38 C37 1.346 . S
C38 H45 0.929 . S
C39 O29 1.282 . S
C39 O40 1.216 . S
O40 C39 1.216 . S
H41 C36 0.930 . S
H42 C37 0.930 . S
O43 Cu23 1.959 1_565 S
O43 C30 1.251 . S
H44 C27 0.930 . S
H45 C38 0.929 . S
Cu46 N47 2.000 1_544 S
Cu46 O52 1.974 1_545 S
Cu46 N57 1.984 . S
Cu46 O66 1.958 1_554 S
N47 Cu46 2.000 1_566 S
N47 C49 1.263 . S
N47 C51 1.389 . S
N48 C49 1.358 . S
N48 C50 1.400 . S
C49 N47 1.263 . S
C49 N48 1.358 . S
C49 H55 0.930 . S
C50 N48 1.400 . S
C50 C51 1.351 . S
C50 H67 0.930 . S
C51 N47 1.389 . S
C51 C50 1.351 . S
C51 H56 0.930 . S
O52 Cu46 1.974 1_565 S
O52 C62 1.282 . S
C53 O54 1.261 . S
C53 O66 1.251 . S
O54 C53 1.261 . S
H55 C49 0.930 . S
H56 C51 0.930 . S
N57 Cu46 1.984 . S
N57 C59 1.335 . S
N57 C60 1.390 . S
N58 C59 1.345 . S
N58 C61 1.336 . S
C59 N57 1.335 . S
C59 N58 1.345 . S
C59 H64 0.930 . S
C60 N57 1.390 . S
C60 C61 1.346 . S
C60 H65 0.930 . S
C61 N58 1.336 . S
C61 C60 1.346 . S
C61 H68 0.929 . S
C62 O52 1.282 . S
C62 O63 1.216 . S
O63 C62 1.216 . S
H64 C59 0.930 . S
H65 C60 0.930 . S
O66 Cu46 1.958 1_556 S
O66 C53 1.251 . S
H67 C50 0.930 . S
H68 C61 0.929 . S
Cu69 N70 1.999 1_554 S
Cu69 O75 1.974 . S
Cu69 N80 1.985 1_455 S
Cu69 O89 1.959 1_454 S
N70 Cu69 1.999 1_556 S
N70 C72 1.263 . S
N70 C74 1.389 . S
N71 C72 1.358 . S
N71 C73 1.400 . S
C72 N70 1.263 . S
C72 N71 1.358 . S
C72 H78 0.930 . S
C73 N71 1.400 . S
C73 C74 1.351 . S
C73 H90 0.930 . S
C74 N70 1.389 . S
C74 C73 1.351 . S
C74 H79 0.930 . S
O75 Cu69 1.974 . S
O75 C85 1.282 . S
C76 O77 1.261 . S
C76 O89 1.251 . S
O77 C76 1.261 . S
H78 C72 0.930 . S
H79 C74 0.930 . S
N80 Cu69 1.985 1_655 S
N80 C82 1.335 . S
N80 C83 1.390 . S
N81 C82 1.345 . S
N81 C84 1.336 . S
C82 N80 1.335 . S
C82 N81 1.345 . S
C82 H87 0.930 . S
C83 N80 1.390 . S
C83 C84 1.346 . S
C83 H88 0.930 1_655 S
C84 N81 1.336 . S
C84 C83 1.346 . S
C84 H91 0.929 . S
C85 O75 1.282 . S
C85 O86 1.216 . S
O86 C85 1.216 . S
H87 C82 0.930 . S
H88 C83 0.930 1_455 S
O89 Cu69 1.959 1_656 S
O89 C76 1.251 . S
H90 C73 0.930 . S
H91 C84 0.929 . S
Cu92 N93 1.999 1_554 S
Cu92 O98 1.974 . S
Cu92 N103 1.985 . S
Cu92 O112 1.959 1_554 S
N93 Cu92 1.999 1_556 S
N93 C95 1.263 . S
N93 C97 1.389 . S
N94 C95 1.358 . S
N94 C96 1.400 . S
C95 N93 1.263 . S
C95 N94 1.358 . S
C95 H101 0.930 1_556 S
C96 N94 1.400 . S
C96 C97 1.351 . S
C96 H113 0.930 . S
C97 N93 1.389 . S
C97 C96 1.351 . S
C97 H102 0.930 . S
O98 Cu92 1.974 . S
O98 C108 1.282 . S
C99 O100 1.261 1_565 S
C99 O112 1.251 1_565 S
O100 C99 1.261 1_545 S
H101 C95 0.930 1_554 S
H102 C97 0.930 . S
N103 Cu92 1.985 . S
N103 C105 1.335 1_545 S
N103 C106 1.390 . S
N104 C105 1.345 . S
N104 C107 1.336 . S
C105 N103 1.335 1_565 S
C105 N104 1.345 . S
C105 H110 0.930 . S
C106 N103 1.390 . S
C106 C107 1.346 1_545 S
C106 H111 0.930 . S
C107 N104 1.336 . S
C107 C106 1.346 1_565 S
C107 H114 0.929 . S
C108 O98 1.282 . S
C108 O109 1.216 . S
O109 C108 1.216 . S
H110 C105 0.930 . S
H111 C106 0.930 . S
O112 Cu92 1.959 1_556 S
O112 C99 1.251 1_545 S
H113 C96 0.930 . S
H114 C107 0.929 . S
Cu115 N116 1.999 1_454 S
Cu115 O121 1.974 1_455 S
Cu115 N126 1.985 . S
Cu115 O135 1.959 1_554 S
N116 Cu115 1.999 1_656 S
N116 C118 1.263 . S
N116 C120 1.389 . S
N117 C118 1.358 . S
N117 C119 1.400 . S
C118 N116 1.263 . S
C118 N117 1.358 . S
C118 H124 0.930 . S
C119 N117 1.400 . S
C119 C120 1.351 . S
C119 H136 0.930 . S
C120 N116 1.389 . S
C120 C119 1.351 . S
C120 H125 0.930 1_655 S
O121 Cu115 1.974 1_655 S
O121 C131 1.282 . S
C122 O123 1.261 . S
C122 O135 1.251 . S
O123 C122 1.261 . S
H124 C118 0.930 . S
H125 C120 0.930 1_455 S
N126 Cu115 1.985 . S
N126 C128 1.335 . S
N126 C129 1.390 . S
N127 C128 1.345 . S
N127 C130 1.336 . S
C128 N126 1.335 . S
C128 N127 1.345 . S
C128 H133 0.930 . S
C129 N126 1.390 . S
C129 C130 1.346 . S
C129 H134 0.930 . S
C130 N127 1.336 . S
C130 C129 1.346 . S
C130 H137 0.929 . S
C131 O121 1.282 . S
C131 O132 1.216 . S
O132 C131 1.216 . S
H133 C128 0.930 . S
H134 C129 0.930 . S
O135 Cu115 1.959 1_556 S
O135 C122 1.251 . S
H136 C119 0.930 . S
H137 C130 0.929 . S
Cu138 N139 1.999 . S
Cu138 O144 1.974 . S
Cu138 N149 1.985 . S
Cu138 O158 1.959 . S
N139 Cu138 1.999 . S
N139 C141 1.263 . S
N139 C143 1.389 . S
N140 C141 1.358 . S
N140 C142 1.400 . S
C141 N139 1.263 . S
C141 N140 1.358 . S
C141 H147 0.930 . S
C142 N140 1.400 . S
C142 C143 1.351 . S
C142 H159 0.930 . S
C143 N139 1.389 . S
C143 C142 1.351 . S
C143 H148 0.930 . S
O144 Cu138 1.974 . S
O144 C154 1.282 . S
C145 O146 1.261 . S
C145 O158 1.251 . S
O146 C145 1.261 . S
H147 C141 0.930 . S
H148 C143 0.930 . S
N149 Cu138 1.985 . S
N149 C151 1.335 . S
N149 C152 1.390 . S
N150 C151 1.345 . S
N150 C153 1.336 . S
C151 N149 1.335 . S
C151 N150 1.345 . S
C151 H156 0.930 . S
C152 N149 1.390 . S
C152 C153 1.346 . S
C152 H157 0.930 . S
C153 N150 1.336 . S
C153 C152 1.346 . S
C153 H160 0.929 . S
C154 O144 1.282 . S
C154 O155 1.216 . S
O155 C154 1.216 . S
H156 C151 0.930 . S
H157 C152 0.930 . S
O158 Cu138 1.959 . S
O158 C145 1.251 . S
H159 C142 0.930 . S
H160 C153 0.929 . S
Cu161 N162 1.999 . S
Cu161 O167 1.974 . S
Cu161 N172 1.985 . S
Cu161 O181 1.959 . S
N162 Cu161 1.999 . S
N162 C164 1.263 . S
N162 C166 1.389 . S
N163 C164 1.358 . S
N163 C165 1.400 . S
C164 N162 1.263 . S
C164 N163 1.358 . S
C164 H170 0.930 . S
C165 N163 1.400 . S
C165 C166 1.351 . S
C165 H182 0.930 . S
C166 N162 1.389 . S
C166 C165 1.351 . S
C166 H171 0.930 . S
O167 Cu161 1.974 . S
O167 C177 1.282 . S
C168 O169 1.261 . S
C168 O181 1.251 . S
O169 C168 1.261 . S
H170 C164 0.930 . S
H171 C166 0.930 . S
N172 Cu161 1.985 . S
N172 C174 1.335 . S
N172 C175 1.390 . S
N173 C174 1.345 . S
N173 C176 1.336 . S
C174 N172 1.335 . S
C174 N173 1.345 . S
C174 H179 0.930 . S
C175 N172 1.390 . S
C175 C176 1.346 . S
C175 H180 0.930 . S
C176 N173 1.336 . S
C176 C175 1.346 . S
C176 H183 0.929 . S
C177 O167 1.282 . S
C177 O178 1.216 . S
O178 C177 1.216 . S
H179 C174 0.930 . S
H180 C175 0.930 . S
O181 Cu161 1.959 . S
O181 C168 1.251 . S
H182 C165 0.930 . S
H183 C176 0.929 . S
Cu184 N185 1.999 . S
Cu184 O190 1.974 . S
Cu184 N195 1.985 . S
Cu184 O204 1.959 . S
N185 Cu184 1.999 . S
N185 C187 1.263 . S
N185 C189 1.389 . S
N186 C187 1.358 . S
N186 C188 1.400 . S
C187 N185 1.263 . S
C187 N186 1.358 . S
C187 H193 0.930 . S
C188 N186 1.400 . S
C188 C189 1.351 . S
C188 H205 0.930 . S
C189 N185 1.389 . S
C189 C188 1.351 . S
C189 H194 0.930 . S
O190 Cu184 1.974 . S
O190 C200 1.282 . S
C191 O192 1.261 . S
C191 O204 1.251 . S
O192 C191 1.261 . S
H193 C187 0.930 . S
H194 C189 0.930 . S
N195 Cu184 1.985 . S
N195 C197 1.335 . S
N195 C198 1.390 . S
N196 C197 1.345 . S
N196 C199 1.336 . S
C197 N195 1.335 . S
C197 N196 1.345 . S
C197 H202 0.930 . S
C198 N195 1.390 . S
C198 C199 1.346 . S
C198 H203 0.930 . S
C199 N196 1.336 . S
C199 C198 1.346 . S
C199 H206 0.929 . S
C200 O190 1.282 . S
C200 O201 1.216 . S
O201 C200 1.216 . S
H202 C197 0.930 . S
H203 C198 0.930 . S
O204 Cu184 1.959 . S
O204 C191 1.251 . S
H205 C188 0.930 . S
H206 C199 0.929 . S
Cu207 N208 1.999 . S
Cu207 O213 1.974 . S
Cu207 N218 1.985 . S
Cu207 O227 1.959 . S
N208 Cu207 1.999 . S
N208 C210 1.263 . S
N208 C212 1.389 . S
N209 C210 1.358 . S
N209 C211 1.400 . S
C210 N208 1.263 . S
C210 N209 1.358 . S
C210 H216 0.930 . S
C211 N209 1.400 . S
C211 C212 1.351 . S
C211 H228 0.930 . S
C212 N208 1.389 . S
C212 C211 1.351 . S
C212 H217 0.930 . S
O213 Cu207 1.974 . S
O213 C223 1.282 . S
C214 O215 1.261 . S
C214 O227 1.251 . S
O215 C214 1.261 . S
H216 C210 0.930 . S
H217 C212 0.930 . S
N218 Cu207 1.985 . S
N218 C220 1.335 . S
N218 C221 1.390 . S
N219 C220 1.345 . S
N219 C222 1.336 . S
C220 N218 1.335 . S
C220 N219 1.345 . S
C220 H225 0.930 . S
C221 N218 1.390 . S
C221 C222 1.346 . S
C221 H226 0.930 . S
C222 N219 1.336 . S
C222 C221 1.346 . S
C222 H229 0.929 . S
C223 O213 1.282 . S
C223 O224 1.216 . S
O224 C223 1.216 . S
H225 C220 0.930 . S
H226 C221 0.930 . S
O227 Cu207 1.959 . S
O227 C214 1.251 . S
H228 C211 0.930 . S
H229 C222 0.929 . S
Cu230 N231 1.999 . S
Cu230 O236 1.974 . S
Cu230 N241 1.985 . S
Cu230 O250 1.959 . S
N231 Cu230 1.999 . S
N231 C233 1.263 . S
N231 C235 1.389 . S
N232 C233 1.358 . S
N232 C234 1.400 . S
C233 N231 1.263 . S
C233 N232 1.358 . S
C233 H239 0.930 . S
C234 N232 1.400 . S
C234 C235 1.351 . S
C234 H251 0.930 . S
C235 N231 1.389 . S
C235 C234 1.351 . S
C235 H240 0.930 . S
O236 Cu230 1.974 . S
O236 C246 1.282 . S
C237 O238 1.261 . S
C237 O250 1.251 . S
O238 C237 1.261 . S
H239 C233 0.930 . S
H240 C235 0.930 . S
N241 Cu230 1.985 . S
N241 C243 1.335 . S
N241 C244 1.390 . S
N242 C243 1.345 . S
N242 C245 1.336 . S
C243 N241 1.335 . S
C243 N242 1.345 . S
C243 H248 0.930 . S
C244 N241 1.390 . S
C244 C245 1.346 . S
C244 H249 0.930 . S
C245 N242 1.336 . S
C245 C244 1.346 . S
C245 H252 0.929 . S
C246 O236 1.282 . S
C246 O247 1.216 . S
O247 C246 1.216 . S
H248 C243 0.930 . S
H249 C244 0.930 . S
O250 Cu230 1.959 . S
O250 C237 1.251 . S
H251 C234 0.930 . S
H252 C245 0.929 . S
Cu253 N254 1.999 . S
Cu253 O259 1.974 . S
Cu253 N264 1.985 . S
Cu253 O273 1.959 . S
N254 Cu253 1.999 . S
N254 C256 1.263 . S
N254 C258 1.389 . S
N255 C256 1.358 . S
N255 C257 1.400 . S
C256 N254 1.263 . S
C256 N255 1.358 . S
C256 H262 0.930 . S
C257 N255 1.400 . S
C257 C258 1.351 . S
C257 H274 0.930 . S
C258 N254 1.389 . S
C258 C257 1.351 . S
C258 H263 0.930 . S
O259 Cu253 1.974 . S
O259 C269 1.282 . S
C260 O261 1.261 . S
C260 O273 1.251 . S
O261 C260 1.261 . S
H262 C256 0.930 . S
H263 C258 0.930 . S
N264 Cu253 1.985 . S
N264 C266 1.335 . S
N264 C267 1.390 . S
N265 C266 1.345 . S
N265 C268 1.336 . S
C266 N264 1.335 . S
C266 N265 1.345 . S
C266 H271 0.930 . S
C267 N264 1.390 . S
C267 C268 1.346 . S
C267 H272 0.930 . S
C268 N265 1.336 . S
C268 C267 1.346 . S
C268 H275 0.929 . S
C269 O259 1.282 . S
C269 O270 1.216 . S
O270 C269 1.216 . S
H271 C266 0.930 . S
H272 C267 0.930 . S
O273 Cu253 1.959 . S
O273 C260 1.251 . S
H274 C257 0.930 . S
H275 C268 0.929 . S
Tb276 O279 2.453 . S
Tb276 O280 2.596 . S
Tb276 O281 2.374 . S
Tb276 O289 2.343 . S
Tb276 O291 2.353 . S
Tb276 O293 2.427 . S
Tb276 O294 2.513 . S
C277 O281 1.251 . S
C277 O283 1.263 . S
Tb278 O280 2.343 . S
Tb278 O283 2.353 . S
Tb278 O286 2.427 . S
Tb278 O287 2.513 . S
Tb278 O288 2.453 . S
Tb278 O289 2.596 . S
Tb278 O290 2.374 . S
O279 Tb276 2.453 . S
O279 C295 1.245 . S
O280 Tb276 2.596 . S
O280 Tb278 2.343 . S
O280 C295 1.259 . S
O281 Tb276 2.374 . S
O281 C277 1.251 . S
C282 O286 1.275 . S
C282 O287 1.246 . S
O283 C277 1.263 . S
O283 Tb278 2.353 . S
C284 O288 1.245 . S
C284 O289 1.259 . S
C285 O290 1.250 . S
C285 O291 1.263 . S
O286 Tb278 2.427 . S
O286 C282 1.275 . S
O287 Tb278 2.513 . S
O287 C282 1.246 . S
O288 Tb278 2.453 . S
O288 C284 1.245 . S
O289 Tb276 2.343 . S
O289 Tb278 2.596 . S
O289 C284 1.259 . S
O290 Tb278 2.374 . S
O290 C285 1.250 . S
O291 Tb276 2.353 . S
O291 C285 1.263 . S
C292 O293 1.275 . S
C292 O294 1.246 . S
O293 Tb276 2.427 . S
O293 C292 1.275 . S
O294 Tb276 2.513 . S
O294 C292 1.246 . S
C295 O279 1.245 . S
C295 O280 1.259 . S
Tb296 O299 2.453 . S
Tb296 O300 2.596 . S
Tb296 O301 2.374 . S
Tb296 O309 2.343 . S
Tb296 O311 2.353 . S
Tb296 O313 2.427 . S
Tb296 O314 2.513 . S
C297 O301 1.251 . S
C297 O303 1.263 . S
Tb298 O300 2.343 . S
Tb298 O303 2.353 . S
Tb298 O306 2.427 . S
Tb298 O307 2.513 . S
Tb298 O308 2.453 . S
Tb298 O309 2.596 . S
Tb298 O310 2.374 . S
O299 Tb296 2.453 . S
O299 C315 1.245 . S
O300 Tb296 2.596 . S
O300 Tb298 2.343 . S
O300 C315 1.259 . S
O301 Tb296 2.374 . S
O301 C297 1.251 . S
C302 O306 1.275 . S
C302 O307 1.246 . S
O303 C297 1.263 . S
O303 Tb298 2.353 . S
C304 O308 1.245 . S
C304 O309 1.259 . S
C305 O310 1.250 . S
C305 O311 1.263 . S
O306 Tb298 2.427 . S
O306 C302 1.275 . S
O307 Tb298 2.513 . S
O307 C302 1.246 . S
O308 Tb298 2.453 . S
O308 C304 1.245 . S
O309 Tb296 2.343 . S
O309 Tb298 2.596 . S
O309 C304 1.259 . S
O310 Tb298 2.374 . S
O310 C305 1.250 . S
O311 Tb296 2.353 . S
O311 C305 1.263 . S
C312 O313 1.275 . S
C312 O314 1.246 . S
O313 Tb296 2.427 . S
O313 C312 1.275 . S
O314 Tb296 2.513 . S
O314 C312 1.246 . S
C315 O299 1.245 . S
C315 O300 1.259 . S
Tb316 O319 2.453 . S
Tb316 O320 2.596 . S
Tb316 O321 2.374 . S
Tb316 O329 2.343 . S
Tb316 O331 2.353 . S
Tb316 O333 2.427 . S
Tb316 O334 2.513 . S
C317 O321 1.251 . S
C317 O323 1.263 . S
Tb318 O320 2.343 . S
Tb318 O323 2.353 . S
Tb318 O326 2.427 . S
Tb318 O327 2.513 . S
Tb318 O328 2.453 . S
Tb318 O329 2.596 . S
Tb318 O330 2.374 . S
O319 Tb316 2.453 . S
O319 C335 1.245 . S
O320 Tb316 2.596 . S
O320 Tb318 2.343 . S
O320 C335 1.259 . S
O321 Tb316 2.374 . S
O321 C317 1.251 . S
C322 O326 1.275 . S
C322 O327 1.246 . S
O323 C317 1.263 . S
O323 Tb318 2.353 . S
C324 O328 1.245 . S
C324 O329 1.259 . S
C325 O330 1.250 . S
C325 O331 1.263 . S
O326 Tb318 2.427 . S
O326 C322 1.275 . S
O327 Tb318 2.513 . S
O327 C322 1.246 . S
O328 Tb318 2.453 . S
O328 C324 1.245 . S
O329 Tb316 2.343 . S
O329 Tb318 2.596 . S
O329 C324 1.259 . S
O330 Tb318 2.374 . S
O330 C325 1.250 . S
O331 Tb316 2.353 . S
O331 C325 1.263 . S
C332 O333 1.275 . S
C332 O334 1.246 . S
O333 Tb316 2.427 . S
O333 C332 1.275 . S
O334 Tb316 2.513 . S
O334 C332 1.246 . S
C335 O319 1.245 . S
C335 O320 1.259 . S
Tb336 O339 2.453 . S
Tb336 O340 2.596 . S
Tb336 O341 2.374 . S
Tb336 O349 2.343 . S
Tb336 O351 2.353 . S
Tb336 O353 2.427 . S
Tb336 O354 2.513 . S
C337 O341 1.251 . S
C337 O343 1.263 . S
Tb338 O340 2.343 . S
Tb338 O343 2.353 . S
Tb338 O346 2.427 . S
Tb338 O347 2.513 . S
Tb338 O348 2.453 . S
Tb338 O349 2.596 . S
Tb338 O350 2.374 . S
O339 Tb336 2.453 . S
O339 C355 1.245 . S
O340 Tb336 2.596 . S
O340 Tb338 2.343 . S
O340 C355 1.259 . S
O341 Tb336 2.374 . S
O341 C337 1.251 . S
C342 O346 1.275 . S
C342 O347 1.246 . S
O343 C337 1.263 . S
O343 Tb338 2.353 . S
C344 O348 1.245 . S
C344 O349 1.259 . S
C345 O350 1.250 . S
C345 O351 1.263 . S
O346 Tb338 2.427 . S
O346 C342 1.275 . S
O347 Tb338 2.513 . S
O347 C342 1.246 . S
O348 Tb338 2.453 . S
O348 C344 1.245 . S
O349 Tb336 2.343 . S
O349 Tb338 2.596 . S
O349 C344 1.259 . S
O350 Tb338 2.374 . S
O350 C345 1.250 . S
O351 Tb336 2.353 . S
O351 C345 1.263 . S
C352 O353 1.275 . S
C352 O354 1.246 . S
O353 Tb336 2.427 . S
O353 C352 1.275 . S
O354 Tb336 2.513 . S
O354 C352 1.246 . S
C355 O339 1.245 . S
C355 O340 1.259 . S
Tb356 O359 2.453 . S
Tb356 O360 2.596 . S
Tb356 O361 2.374 . S
Tb356 O369 2.343 . S
Tb356 O371 2.353 . S
Tb356 O373 2.427 . S
Tb356 O374 2.513 . S
C357 O361 1.251 . S
C357 O363 1.263 . S
Tb358 O360 2.343 . S
Tb358 O363 2.353 . S
Tb358 O366 2.427 . S
Tb358 O367 2.513 . S
Tb358 O368 2.453 . S
Tb358 O369 2.596 . S
Tb358 O370 2.374 . S
O359 Tb356 2.453 . S
O359 C375 1.245 . S
O360 Tb356 2.596 . S
O360 Tb358 2.343 . S
O360 C375 1.259 . S
O361 Tb356 2.374 . S
O361 C357 1.251 . S
C362 O366 1.275 . S
C362 O367 1.246 . S
O363 C357 1.263 . S
O363 Tb358 2.353 . S
C364 O368 1.245 . S
C364 O369 1.259 . S
C365 O370 1.250 . S
C365 O371 1.263 . S
O366 Tb358 2.427 . S
O366 C362 1.275 . S
O367 Tb358 2.513 . S
O367 C362 1.246 . S
O368 Tb358 2.453 . S
O368 C364 1.245 . S
O369 Tb356 2.343 . S
O369 Tb358 2.596 . S
O369 C364 1.259 . S
O370 Tb358 2.374 . S
O370 C365 1.250 . S
O371 Tb356 2.353 . S
O371 C365 1.263 . S
C372 O373 1.275 . S
C372 O374 1.246 . S
O373 Tb356 2.427 . S
O373 C372 1.275 . S
O374 Tb356 2.513 . S
O374 C372 1.246 . S
C375 O359 1.245 . S
C375 O360 1.259 . S
Tb376 O379 2.453 . S
Tb376 O380 2.596 . S
Tb376 O381 2.374 . S
Tb376 O389 2.343 . S
Tb376 O391 2.353 . S
Tb376 O393 2.427 . S
Tb376 O394 2.513 . S
C377 O381 1.251 . S
C377 O383 1.263 . S
Tb378 O380 2.343 . S
Tb378 O383 2.353 . S
Tb378 O386 2.427 . S
Tb378 O387 2.513 . S
Tb378 O388 2.453 . S
Tb378 O389 2.596 . S
Tb378 O390 2.374 . S
O379 Tb376 2.453 . S
O379 C395 1.245 . S
O380 Tb376 2.596 . S
O380 Tb378 2.343 . S
O380 C395 1.259 . S
O381 Tb376 2.374 . S
O381 C377 1.251 . S
C382 O386 1.275 . S
C382 O387 1.246 . S
O383 C377 1.263 . S
O383 Tb378 2.353 . S
C384 O388 1.245 . S
C384 O389 1.259 . S
C385 O390 1.250 . S
C385 O391 1.263 . S
O386 Tb378 2.427 . S
O386 C382 1.275 . S
O387 Tb378 2.513 . S
O387 C382 1.246 . S
O388 Tb378 2.453 . S
O388 C384 1.245 . S
O389 Tb376 2.343 . S
O389 Tb378 2.596 . S
O389 C384 1.259 . S
O390 Tb378 2.374 . S
O390 C385 1.250 . S
O391 Tb376 2.353 . S
O391 C385 1.263 . S
C392 O393 1.275 . S
C392 O394 1.246 . S
O393 Tb376 2.427 . S
O393 C392 1.275 . S
O394 Tb376 2.513 . S
O394 C392 1.246 . S
C395 O379 1.245 . S
C395 O380 1.259 . S
Tb396 O399 2.453 . S
Tb396 O400 2.596 . S
Tb396 O401 2.374 . S
Tb396 O409 2.343 . S
Tb396 O411 2.353 . S
Tb396 O413 2.427 . S
Tb396 O414 2.513 . S
C397 O401 1.251 . S
C397 O403 1.263 . S
Tb398 O400 2.343 . S
Tb398 O403 2.353 . S
Tb398 O406 2.427 . S
Tb398 O407 2.513 . S
Tb398 O408 2.453 . S
Tb398 O409 2.596 . S
Tb398 O410 2.374 . S
O399 Tb396 2.453 . S
O399 C415 1.245 . S
O400 Tb396 2.596 . S
O400 Tb398 2.343 . S
O400 C415 1.259 . S
O401 Tb396 2.374 . S
O401 C397 1.251 . S
C402 O406 1.275 . S
C402 O407 1.246 . S
O403 C397 1.263 . S
O403 Tb398 2.353 . S
C404 O408 1.245 . S
C404 O409 1.259 . S
C405 O410 1.250 . S
C405 O411 1.263 . S
O406 Tb398 2.427 . S
O406 C402 1.275 . S
O407 Tb398 2.513 . S
O407 C402 1.246 . S
O408 Tb398 2.453 . S
O408 C404 1.245 . S
O409 Tb396 2.343 . S
O409 Tb398 2.596 . S
O409 C404 1.259 . S
O410 Tb398 2.374 . S
O410 C405 1.250 . S
O411 Tb396 2.353 . S
O411 C405 1.263 . S
C412 O413 1.275 . S
C412 O414 1.246 . S
O413 Tb396 2.427 . S
O413 C412 1.275 . S
O414 Tb396 2.513 . S
O414 C412 1.246 . S
C415 O399 1.245 . S
C415 O400 1.259 . S
Tb416 O419 2.453 . S
Tb416 O420 2.596 . S
Tb416 O421 2.374 . S
Tb416 O429 2.343 . S
Tb416 O431 2.353 . S
Tb416 O433 2.427 . S
Tb416 O434 2.513 . S
C417 O421 1.251 . S
C417 O423 1.263 . S
Tb418 O420 2.343 . S
Tb418 O423 2.353 . S
Tb418 O426 2.427 . S
Tb418 O427 2.513 . S
Tb418 O428 2.453 . S
Tb418 O429 2.596 . S
Tb418 O430 2.374 . S
O419 Tb416 2.453 . S
O419 C435 1.245 . S
O420 Tb416 2.596 . S
O420 Tb418 2.343 . S
O420 C435 1.259 . S
O421 Tb416 2.374 . S
O421 C417 1.251 . S
C422 O426 1.275 . S
C422 O427 1.246 . S
O423 C417 1.263 . S
O423 Tb418 2.353 . S
C424 O428 1.245 . S
C424 O429 1.259 . S
C425 O430 1.250 . S
C425 O431 1.263 . S
O426 Tb418 2.427 . S
O426 C422 1.275 . S
O427 Tb418 2.513 . S
O427 C422 1.246 . S
O428 Tb418 2.453 . S
O428 C424 1.245 . S
O429 Tb416 2.343 . S
O429 Tb418 2.596 . S
O429 C424 1.259 . S
O430 Tb418 2.374 . S
O430 C425 1.250 . S
O431 Tb416 2.353 . S
O431 C425 1.263 . S
C432 O433 1.275 . S
C432 O434 1.246 . S
O433 Tb416 2.427 . S
O433 C432 1.275 . S
O434 Tb416 2.513 . S
O434 C432 1.246 . S
C435 O419 1.245 . S
C435 O420 1.259 . S
C436 C437 1.387 . S
C436 H440 0.950 . S
C436 C445 1.390 . S
C437 C436 1.387 . S
C437 C439 1.387 . S
H438 C445 0.950 . S
C439 C437 1.387 . S
C439 C441 1.390 . S
C439 H443 0.950 . S
H440 C436 0.950 . S
C441 C439 1.390 . S
C441 C442 1.387 . S
C441 H444 0.950 . S
C442 C441 1.387 . S
C442 C445 1.387 . S
H443 C439 0.950 . S
H444 C441 0.950 . S
C445 C436 1.390 . S
C445 H438 0.950 . S
C445 C442 1.387 . S
C446 C447 1.387 . S
C446 H450 0.950 . S
C446 C455 1.390 . S
C447 C446 1.387 . S
C447 C449 1.387 . S
H448 C455 0.950 . S
C449 C447 1.387 . S
C449 C451 1.390 . S
C449 H453 0.950 . S
H450 C446 0.950 . S
C451 C449 1.390 . S
C451 C452 1.387 . S
C451 H454 0.950 . S
C452 C451 1.387 . S
C452 C455 1.387 . S
H453 C449 0.950 . S
H454 C451 0.950 . S
C455 C446 1.390 . S
C455 H448 0.950 . S
C455 C452 1.387 . S
C456 C457 1.387 . S
C456 H460 0.950 . S
C456 C465 1.390 . S
C457 C456 1.387 . S
C457 C459 1.387 . S
H458 C465 0.950 . S
C459 C457 1.387 . S
C459 C461 1.390 . S
C459 H463 0.950 . S
H460 C456 0.950 . S
C461 C459 1.390 . S
C461 C462 1.387 . S
C461 H464 0.950 . S
C462 C461 1.387 . S
C462 C465 1.387 . S
H463 C459 0.950 . S
H464 C461 0.950 . S
C465 C456 1.390 . S
C465 H458 0.950 . S
C465 C462 1.387 . S
C466 C467 1.387 . S
C466 H470 0.950 . S
C466 C475 1.390 . S
C467 C466 1.387 . S
C467 C469 1.387 . S
H468 C475 0.950 . S
C469 C467 1.387 . S
C469 C471 1.390 . S
C469 H473 0.950 . S
H470 C466 0.950 . S
C471 C469 1.390 . S
C471 C472 1.387 . S
C471 H474 0.950 . S
C472 C471 1.387 . S
C472 C475 1.387 . S
H473 C469 0.950 . S
H474 C471 0.950 . S
C475 C466 1.390 . S
C475 H468 0.950 . S
C475 C472 1.387 . S
C476 C477 1.387 . S
C476 H480 0.950 . S
C476 C485 1.390 . S
C477 C476 1.387 . S
C477 C479 1.387 . S
H478 C485 0.950 . S
C479 C477 1.387 . S
C479 C481 1.390 . S
C479 H483 0.950 . S
H480 C476 0.950 . S
C481 C479 1.390 . S
C481 C482 1.387 . S
C481 H484 0.950 . S
C482 C481 1.387 . S
C482 C485 1.387 . S
H483 C479 0.950 . S
H484 C481 0.950 . S
C485 C476 1.390 . S
C485 H478 0.950 . S
C485 C482 1.387 . S
C486 C487 1.387 . S
C486 H490 0.950 . S
C486 C495 1.390 . S
C487 C486 1.387 . S
C487 C489 1.387 . S
H488 C495 0.950 . S
C489 C487 1.387 . S
C489 C491 1.390 . S
C489 H493 0.950 . S
H490 C486 0.950 . S
C491 C489 1.390 . S
C491 C492 1.387 . S
C491 H494 0.950 . S
C492 C491 1.387 . S
C492 C495 1.387 . S
H493 C489 0.950 . S
H494 C491 0.950 . S
C495 C486 1.390 . S
C495 H488 0.950 . S
C495 C492 1.387 . S
C496 C497 1.387 . S
C496 H500 0.950 . S
C496 C505 1.390 . S
C497 C496 1.387 . S
C497 C499 1.387 . S
H498 C505 0.950 . S
C499 C497 1.387 . S
C499 C501 1.390 . S
C499 H503 0.950 . S
H500 C496 0.950 . S
C501 C499 1.390 . S
C501 C502 1.387 . S
C501 H504 0.950 . S
C502 C501 1.387 . S
C502 C505 1.387 . S
H503 C499 0.950 . S
H504 C501 0.950 . S
C505 C496 1.390 . S
C505 H498 0.950 . S
C505 C502 1.387 . S
C506 C507 1.387 . S
C506 H510 0.950 . S
C506 C515 1.390 . S
C507 C506 1.387 . S
C507 C509 1.387 . S
H508 C515 0.950 . S
C509 C507 1.387 . S
C509 C511 1.390 . S
C509 H513 0.950 . S
H510 C506 0.950 . S
C511 C509 1.390 . S
C511 C512 1.387 . S
C511 H514 0.950 . S
C512 C511 1.387 . S
C512 C515 1.387 . S
H513 C509 0.950 . S
H514 C511 0.950 . S
C515 C506 1.390 . S
C515 H508 0.950 . S
C515 C512 1.387 . S
C516 C517 1.387 . S
C516 H520 0.950 . S
C516 C525 1.390 . S
C517 C516 1.387 . S
C517 C519 1.387 . S
H518 C525 0.950 . S
C519 C517 1.387 . S
C519 C521 1.390 . S
C519 H523 0.950 . S
H520 C516 0.950 . S
C521 C519 1.390 . S
C521 C522 1.387 . S
C521 H524 0.950 . S
C522 C521 1.387 . S
C522 C525 1.387 . S
H523 C519 0.950 . S
H524 C521 0.950 . S
C525 C516 1.390 . S
C525 H518 0.950 . S
C525 C522 1.387 . S
C526 C527 1.387 . S
C526 H530 0.950 . S
C526 C535 1.390 . S
C527 C526 1.387 . S
C527 C529 1.387 . S
H528 C535 0.950 . S
C529 C527 1.387 . S
C529 C531 1.390 . S
C529 H533 0.950 . S
H530 C526 0.950 . S
C531 C529 1.390 . S
C531 C532 1.387 . S
C531 H534 0.950 . S
C532 C531 1.387 . S
C532 C535 1.387 . S
H533 C529 0.950 . S
H534 C531 0.950 . S
C535 C526 1.390 . S
C535 H528 0.950 . S
C535 C532 1.387 . S
C536 C537 1.387 . S
C536 H540 0.950 . S
C536 C545 1.390 . S
C537 C536 1.387 . S
C537 C539 1.387 . S
H538 C545 0.950 . S
C539 C537 1.387 . S
C539 C541 1.390 . S
C539 H543 0.950 . S
H540 C536 0.950 . S
C541 C539 1.390 . S
C541 C542 1.387 . S
C541 H544 0.950 . S
C542 C541 1.387 . S
C542 C545 1.387 . S
H543 C539 0.950 . S
H544 C541 0.950 . S
C545 C536 1.390 . S
C545 H538 0.950 . S
C545 C542 1.387 . S
C546 C547 1.387 . S
C546 H550 0.950 . S
C546 C555 1.390 . S
C547 C546 1.387 . S
C547 C549 1.387 . S
H548 C555 0.950 . S
C549 C547 1.387 . S
C549 C551 1.390 . S
C549 H553 0.950 . S
H550 C546 0.950 . S
C551 C549 1.390 . S
C551 C552 1.387 . S
C551 H554 0.950 . S
C552 C551 1.387 . S
C552 C555 1.387 . S
H553 C549 0.950 . S
H554 C551 0.950 . S
C555 C546 1.390 . S
C555 H548 0.950 . S
C555 C552 1.387 . S
C556 C557 1.387 . S
C556 H560 0.950 . S
C556 C565 1.390 . S
C557 C556 1.387 . S
C557 C559 1.387 . S
H558 C565 0.950 . S
C559 C557 1.387 . S
C559 C561 1.390 . S
C559 H563 0.950 . S
H560 C556 0.950 . S
C561 C559 1.390 . S
C561 C562 1.387 . S
C561 H564 0.950 . S
C562 C561 1.387 . S
C562 C565 1.387 . S
H563 C559 0.950 . S
H564 C561 0.950 . S
C565 C556 1.390 . S
C565 H558 0.950 . S
C565 C562 1.387 . S
C566 C567 1.387 . S
C566 H570 0.950 . S
C566 C575 1.390 . S
C567 C566 1.387 . S
C567 C569 1.387 . S
H568 C575 0.950 . S
C569 C567 1.387 . S
C569 C571 1.390 . S
C569 H573 0.950 . S
H570 C566 0.950 . S
C571 C569 1.390 . S
C571 C572 1.387 . S
C571 H574 0.950 . S
C572 C571 1.387 . S
C572 C575 1.387 . S
H573 C569 0.950 . S
H574 C571 0.950 . S
C575 C566 1.390 . S
C575 H568 0.950 . S
C575 C572 1.387 . S
C576 C577 1.387 . S
C576 H580 0.950 . S
C576 C585 1.390 . S
C577 C576 1.387 . S
C577 C579 1.387 . S
H578 C585 0.950 . S
C579 C577 1.387 . S
C579 C581 1.390 . S
C579 H583 0.950 . S
H580 C576 0.950 . S
C581 C579 1.390 . S
C581 C582 1.387 . S
C581 H584 0.950 . S
C582 C581 1.387 . S
C582 C585 1.387 . S
H583 C579 0.950 . S
H584 C581 0.950 . S
C585 C576 1.390 . S
C585 H578 0.950 . S
C585 C582 1.387 . S
C586 C587 1.387 . S
C586 H590 0.950 . S
C586 C595 1.390 . S
C587 C586 1.387 . S
C587 C589 1.387 . S
H588 C595 0.950 . S
C589 C587 1.387 . S
C589 C591 1.390 . S
C589 H593 0.950 . S
H590 C586 0.950 . S
C591 C589 1.390 . S
C591 C592 1.387 . S
C591 H594 0.950 . S
C592 C591 1.387 . S
C592 C595 1.387 . S
H593 C589 0.950 . S
H594 C591 0.950 . S
C595 C586 1.390 . S
C595 H588 0.950 . S
C595 C592 1.387 . S
C596 C597 1.387 . S
C596 H600 0.950 . S
C596 C605 1.390 . S
C597 C596 1.387 . S
C597 C599 1.387 . S
H598 C605 0.950 . S
C599 C597 1.387 . S
C599 C601 1.390 . S
C599 H603 0.950 . S
H600 C596 0.950 . S
C601 C599 1.390 . S
C601 C602 1.387 . S
C601 H604 0.950 . S
C602 C601 1.387 . S
C602 C605 1.387 . S
H603 C599 0.950 . S
H604 C601 0.950 . S
C605 C596 1.390 . S
C605 H598 0.950 . S
C605 C602 1.387 . S
C606 C607 1.387 . S
C606 H610 0.950 . S
C606 C615 1.390 . S
C607 C606 1.387 . S
C607 C609 1.387 . S
H608 C615 0.950 . S
C609 C607 1.387 . S
C609 C611 1.390 . S
C609 H613 0.950 . S
H610 C606 0.950 . S
C611 C609 1.390 . S
C611 C612 1.387 . S
C611 H614 0.950 . S
C612 C611 1.387 . S
C612 C615 1.387 . S
H613 C609 0.950 . S
H614 C611 0.950 . S
C615 C606 1.390 . S
C615 H608 0.950 . S
C615 C612 1.387 . S
C616 C617 1.387 . S
C616 H620 0.950 . S
C616 C625 1.390 . S
C617 C616 1.387 . S
C617 C619 1.387 . S
H618 C625 0.950 . S
C619 C617 1.387 . S
C619 C621 1.390 . S
C619 H623 0.950 . S
H620 C616 0.950 . S
C621 C619 1.390 . S
C621 C622 1.387 . S
C621 H624 0.950 . S
C622 C621 1.387 . S
C622 C625 1.387 . S
H623 C619 0.950 . S
H624 C621 0.950 . S
C625 C616 1.390 . S
C625 H618 0.950 . S
C625 C622 1.387 . S
C626 C627 1.387 . S
C626 H630 0.950 . S
C626 C635 1.390 . S
C627 C626 1.387 . S
C627 C629 1.387 . S
H628 C635 0.950 . S
C629 C627 1.387 . S
C629 C631 1.390 . S
C629 H633 0.950 . S
H630 C626 0.950 . S
C631 C629 1.390 . S
C631 C632 1.387 . S
C631 H634 0.950 . S
C632 C631 1.387 . S
C632 C635 1.387 . S
H633 C629 0.950 . S
H634 C631 0.950 . S
C635 C626 1.390 . S
C635 H628 0.950 . S
C635 C632 1.387 . S
C636 C637 1.387 . S
C636 H640 0.950 . S
C636 C645 1.390 . S
C637 C636 1.387 . S
C637 C639 1.387 . S
H638 C645 0.950 . S
C639 C637 1.387 . S
C639 C641 1.390 . S
C639 H643 0.950 1_565 S
H640 C636 0.950 . S
C641 C639 1.390 . S
C641 C642 1.387 . S
C641 H644 0.950 . S
C642 C641 1.387 . S
C642 C645 1.387 . S
H643 C639 0.950 1_545 S
H644 C641 0.950 . S
C645 C636 1.390 . S
C645 H638 0.950 . S
C645 C642 1.387 . S
C646 C647 1.387 . S
C646 H650 0.950 . S
C646 C655 1.390 . S
C647 C646 1.387 . S
C647 C649 1.387 . S
H648 C655 0.950 . S
C649 C647 1.387 . S
C649 C651 1.390 . S
C649 H653 0.950 . S
H650 C646 0.950 . S
C651 C649 1.390 . S
C651 C652 1.387 . S
C651 H654 0.950 . S
C652 C651 1.387 . S
C652 C655 1.387 . S
H653 C649 0.950 . S
H654 C651 0.950 . S
C655 C646 1.390 . S
C655 H648 0.950 . S
C655 C652 1.387 . S
C656 C657 1.387 . S
C656 H660 0.950 . S
C656 C665 1.390 . S
C657 C656 1.387 . S
C657 C659 1.387 . S
H658 C665 0.950 . S
C659 C657 1.387 . S
C659 C661 1.390 . S
C659 H663 0.950 . S
H660 C656 0.950 . S
C661 C659 1.390 . S
C661 C662 1.387 . S
C661 H664 0.950 . S
C662 C661 1.387 . S
C662 C665 1.387 . S
H663 C659 0.950 . S
H664 C661 0.950 . S
C665 C656 1.390 . S
C665 H658 0.950 . S
C665 C662 1.387 . S
C666 C667 1.387 . S
C666 H670 0.950 . S
C666 C675 1.390 . S
C667 C666 1.387 . S
C667 C669 1.387 . S
H668 C675 0.950 . S
C669 C667 1.387 . S
C669 C671 1.390 . S
C669 H673 0.950 . S
H670 C666 0.950 . S
C671 C669 1.390 . S
C671 C672 1.387 . S
C671 H674 0.950 . S
C672 C671 1.387 . S
C672 C675 1.387 . S
H673 C669 0.950 . S
H674 C671 0.950 . S
C675 C666 1.390 . S
C675 H668 0.950 . S
C675 C672 1.387 . S
C676 C677 1.387 . S
C676 H680 0.950 . S
C676 C685 1.390 . S
C677 C676 1.387 . S
C677 C679 1.387 . S
H678 C685 0.950 . S
C679 C677 1.387 . S
C679 C681 1.390 . S
C679 H683 0.950 . S
H680 C676 0.950 . S
C681 C679 1.390 . S
C681 C682 1.387 . S
C681 H684 0.950 . S
C682 C681 1.387 . S
C682 C685 1.387 . S
H683 C679 0.950 . S
H684 C681 0.950 . S
C685 C676 1.390 . S
C685 H678 0.950 . S
C685 C682 1.387 . S
C686 C687 1.387 . S
C686 H690 0.950 . S
C686 C695 1.390 . S
C687 C686 1.387 . S
C687 C689 1.387 . S
H688 C695 0.950 . S
C689 C687 1.387 . S
C689 C691 1.390 . S
C689 H693 0.950 . S
H690 C686 0.950 . S
C691 C689 1.390 . S
C691 C692 1.387 . S
C691 H694 0.950 . S
C692 C691 1.387 . S
C692 C695 1.387 . S
H693 C689 0.950 . S
H694 C691 0.950 . S
C695 C686 1.390 . S
C695 H688 0.950 . S
C695 C692 1.387 . S
C696 C697 1.387 . S
C696 H700 0.950 . S
C696 C705 1.390 . S
C697 C696 1.387 . S
C697 C699 1.387 . S
H698 C705 0.950 . S
C699 C697 1.387 . S
C699 C701 1.390 . S
C699 H703 0.950 . S
H700 C696 0.950 . S
C701 C699 1.390 . S
C701 C702 1.387 . S
C701 H704 0.950 . S
C702 C701 1.387 . S
C702 C705 1.387 . S
H703 C699 0.950 . S
H704 C701 0.950 . S
C705 C696 1.390 . S
C705 H698 0.950 . S
C705 C702 1.387 . S
C706 C707 1.387 . S
C706 H710 0.950 . S
C706 C715 1.390 . S
C707 C706 1.387 . S
C707 C709 1.387 . S
H708 C715 0.950 . S
C709 C707 1.387 . S
C709 C711 1.390 . S
C709 H713 0.950 . S
H710 C706 0.950 . S
C711 C709 1.390 . S
C711 C712 1.387 . S
C711 H714 0.950 . S
C712 C711 1.387 . S
C712 C715 1.387 . S
H713 C709 0.950 . S
H714 C711 0.950 . S
C715 C706 1.390 . S
C715 H708 0.950 . S
C715 C712 1.387 . S
C716 C717 1.387 . S
C716 H720 0.950 . S
C716 C725 1.390 . S
C717 C716 1.387 . S
C717 C719 1.387 . S
H718 C725 0.950 . S
C719 C717 1.387 . S
C719 C721 1.390 . S
C719 H723 0.950 . S
H720 C716 0.950 . S
C721 C719 1.390 . S
C721 C722 1.387 . S
C721 H724 0.950 . S
C722 C721 1.387 . S
C722 C725 1.387 . S
H723 C719 0.950 . S
H724 C721 0.950 . S
C725 C716 1.390 . S
C725 H718 0.950 . S
C725 C722 1.387 . S
C726 C727 1.387 . S
C726 H730 0.950 . S
C726 C735 1.390 . S
C727 C726 1.387 . S
C727 C729 1.387 . S
H728 C735 0.950 . S
C729 C727 1.387 . S
C729 C731 1.390 . S
C729 H733 0.950 . S
H730 C726 0.950 . S
C731 C729 1.390 . S
C731 C732 1.387 . S
C731 H734 0.950 . S
C732 C731 1.387 . S
C732 C735 1.387 . S
H733 C729 0.950 . S
H734 C731 0.950 . S
C735 C726 1.390 . S
C735 H728 0.950 . S
C735 C732 1.387 . S
C736 C737 1.387 . S
C736 H740 0.950 . S
C736 C745 1.390 . S
C737 C736 1.387 . S
C737 C739 1.387 . S
H738 C745 0.950 . S
C739 C737 1.387 . S
C739 C741 1.390 . S
C739 H743 0.950 . S
H740 C736 0.950 . S
C741 C739 1.390 . S
C741 C742 1.387 . S
C741 H744 0.950 . S
C742 C741 1.387 . S
C742 C745 1.387 . S
H743 C739 0.950 . S
H744 C741 0.950 . S
C745 C736 1.390 . S
C745 H738 0.950 . S
C745 C742 1.387 . S
C746 C747 1.387 . S
C746 H750 0.950 . S
C746 C755 1.390 . S
C747 C746 1.387 . S
C747 C749 1.387 . S
H748 C755 0.950 . S
C749 C747 1.387 . S
C749 C751 1.390 . S
C749 H753 0.950 . S
H750 C746 0.950 . S
C751 C749 1.390 . S
C751 C752 1.387 . S
C751 H754 0.950 . S
C752 C751 1.387 . S
C752 C755 1.387 . S
H753 C749 0.950 . S
H754 C751 0.950 . S
C755 C746 1.390 . S
C755 H748 0.950 . S
C755 C752 1.387 . S
C756 C757 1.387 . S
C756 H760 0.950 . S
C756 C765 1.390 . S
C757 C756 1.387 . S
C757 C759 1.387 . S
H758 C765 0.950 . S
C759 C757 1.387 . S
C759 C761 1.390 . S
C759 H763 0.950 . S
H760 C756 0.950 . S
C761 C759 1.390 . S
C761 C762 1.387 . S
C761 H764 0.950 . S
C762 C761 1.387 . S
C762 C765 1.387 . S
H763 C759 0.950 . S
H764 C761 0.950 . S
C765 C756 1.390 . S
C765 H758 0.950 . S
C765 C762 1.387 . S
C766 C767 1.387 . S
C766 H770 0.950 . S
C766 C775 1.390 . S
C767 C766 1.387 . S
C767 C769 1.387 . S
H768 C775 0.950 . S
C769 C767 1.387 . S
C769 C771 1.390 . S
C769 H773 0.950 . S
H770 C766 0.950 . S
C771 C769 1.390 . S
C771 C772 1.387 . S
C771 H774 0.950 . S
C772 C771 1.387 . S
C772 C775 1.387 . S
H773 C769 0.950 . S
H774 C771 0.950 . S
C775 C766 1.390 . S
C775 H768 0.950 . S
C775 C772 1.387 . S
C776 C777 1.387 . S
C776 H780 0.950 . S
C776 C785 1.390 . S
C777 C776 1.387 . S
C777 C779 1.387 . S
H778 C785 0.950 . S
C779 C777 1.387 . S
C779 C781 1.390 . S
C779 H783 0.950 . S
H780 C776 0.950 . S
C781 C779 1.390 . S
C781 C782 1.387 . S
C781 H784 0.950 . S
C782 C781 1.387 . S
C782 C785 1.387 . S
H783 C779 0.950 . S
H784 C781 0.950 . S
C785 C776 1.390 . S
C785 H778 0.950 . S
C785 C782 1.387 . S
C786 C787 1.387 . S
C786 H790 0.950 . S
C786 C795 1.390 . S
C787 C786 1.387 . S
C787 C789 1.387 . S
H788 C795 0.950 . S
C789 C787 1.387 . S
C789 C791 1.390 . S
C789 H793 0.950 . S
H790 C786 0.950 . S
C791 C789 1.390 . S
C791 C792 1.387 . S
C791 H794 0.950 . S
C792 C791 1.387 . S
C792 C795 1.387 . S
H793 C789 0.950 . S
H794 C791 0.950 . S
C795 C786 1.390 . S
C795 H788 0.950 . S
C795 C792 1.387 . S
C796 C797 1.387 . S
C796 H800 0.950 . S
C796 C805 1.390 . S
C797 C796 1.387 . S
C797 C799 1.387 . S
H798 C805 0.950 . S
C799 C797 1.387 . S
C799 C801 1.390 . S
C799 H803 0.950 . S
H800 C796 0.950 . S
C801 C799 1.390 . S
C801 C802 1.387 . S
C801 H804 0.950 . S
C802 C801 1.387 . S
C802 C805 1.387 . S
H803 C799 0.950 . S
H804 C801 0.950 . S
C805 C796 1.390 . S
C805 H798 0.950 . S
C805 C802 1.387 . S
C806 C807 1.387 . S
C806 H810 0.950 . S
C806 C815 1.390 . S
C807 C806 1.387 . S
C807 C809 1.387 . S
H808 C815 0.950 . S
C809 C807 1.387 . S
C809 C811 1.390 . S
C809 H813 0.950 . S
H810 C806 0.950 . S
C811 C809 1.390 . S
C811 C812 1.387 . S
C811 H814 0.950 . S
C812 C811 1.387 . S
C812 C815 1.387 . S
H813 C809 0.950 . S
H814 C811 0.950 . S
C815 C806 1.390 . S
C815 H808 0.950 . S
C815 C812 1.387 . S
C816 C817 1.387 . S
C816 H820 0.950 . S
C816 C825 1.390 . S
C817 C816 1.387 . S
C817 C819 1.387 . S
H818 C825 0.950 . S
C819 C817 1.387 . S
C819 C821 1.390 . S
C819 H823 0.950 . S
H820 C816 0.950 . S
C821 C819 1.390 . S
C821 C822 1.387 . S
C821 H824 0.950 . S
C822 C821 1.387 . S
C822 C825 1.387 . S
H823 C819 0.950 . S
H824 C821 0.950 . S
C825 C816 1.390 . S
C825 H818 0.950 . S
C825 C822 1.387 . S
C826 C827 1.387 . S
C826 H830 0.950 . S
C826 C835 1.390 . S
C827 C826 1.387 . S
C827 C829 1.387 . S
H828 C835 0.950 . S
C829 C827 1.387 . S
C829 C831 1.390 . S
C829 H833 0.950 . S
H830 C826 0.950 . S
C831 C829 1.390 . S
C831 C832 1.387 . S
C831 H834 0.950 . S
C832 C831 1.387 . S
C832 C835 1.387 . S
H833 C829 0.950 . S
H834 C831 0.950 . S
C835 C826 1.390 . S
C835 H828 0.950 . S
C835 C832 1.387 . S
C836 C837 1.387 . S
C836 H840 0.950 . S
C836 C845 1.390 . S
C837 C836 1.387 . S
C837 C839 1.387 . S
H838 C845 0.950 . S
C839 C837 1.387 . S
C839 C841 1.390 . S
C839 H843 0.950 . S
H840 C836 0.950 . S
C841 C839 1.390 . S
C841 C842 1.387 . S
C841 H844 0.950 . S
C842 C841 1.387 . S
C842 C845 1.387 . S
H843 C839 0.950 . S
H844 C841 0.950 . S
C845 C836 1.390 . S
C845 H838 0.950 . S
C845 C842 1.387 . S
C846 C847 1.387 . S
C846 H850 0.950 . S
C846 C855 1.390 . S
C847 C846 1.387 . S
C847 C849 1.387 . S
H848 C855 0.950 . S
C849 C847 1.387 . S
C849 C851 1.390 . S
C849 H853 0.950 . S
H850 C846 0.950 . S
C851 C849 1.390 . S
C851 C852 1.387 . S
C851 H854 0.950 . S
C852 C851 1.387 . S
C852 C855 1.387 . S
H853 C849 0.950 . S
H854 C851 0.950 . S
C855 C846 1.390 . S
C855 H848 0.950 . S
C855 C852 1.387 . S
C856 C857 1.387 . S
C856 H860 0.950 . S
C856 C865 1.390 . S
C857 C856 1.387 . S
C857 C859 1.387 . S
H858 C865 0.950 . S
C859 C857 1.387 . S
C859 C861 1.390 . S
C859 H863 0.950 . S
H860 C856 0.950 . S
C861 C859 1.390 . S
C861 C862 1.387 . S
C861 H864 0.950 . S
C862 C861 1.387 . S
C862 C865 1.387 . S
H863 C859 0.950 . S
H864 C861 0.950 . S
C865 C856 1.390 . S
C865 H858 0.950 . S
C865 C862 1.387 . S
C866 C867 1.387 . S
C866 H870 0.950 . S
C866 C875 1.390 . S
C867 C866 1.387 . S
C867 C869 1.387 . S
H868 C875 0.950 . S
C869 C867 1.387 . S
C869 C871 1.390 . S
C869 H873 0.950 . S
H870 C866 0.950 . S
C871 C869 1.390 . S
C871 C872 1.387 . S
C871 H874 0.950 . S
C872 C871 1.387 . S
C872 C875 1.387 . S
H873 C869 0.950 . S
H874 C871 0.950 . S
C875 C866 1.390 . S
C875 H868 0.950 . S
C875 C872 1.387 . S
C876 C877 1.387 . S
C876 H880 0.950 . S
C876 C885 1.390 . S
C877 C876 1.387 . S
C877 C879 1.387 . S
H878 C885 0.950 . S
C879 C877 1.387 . S
C879 C881 1.390 . S
C879 H883 0.950 . S
H880 C876 0.950 . S
C881 C879 1.390 . S
C881 C882 1.387 . S
C881 H884 0.950 . S
C882 C881 1.387 . S
C882 C885 1.387 . S
H883 C879 0.950 . S
H884 C881 0.950 . S
C885 C876 1.390 . S
C885 H878 0.950 . S
C885 C882 1.387 . S
C886 C887 1.387 . S
C886 H890 0.950 . S
C886 C895 1.390 . S
C887 C886 1.387 . S
C887 C889 1.387 . S
H888 C895 0.950 . S
C889 C887 1.387 . S
C889 C891 1.390 . S
C889 H893 0.950 . S
H890 C886 0.950 . S
C891 C889 1.390 . S
C891 C892 1.387 . S
C891 H894 0.950 . S
C892 C891 1.387 . S
C892 C895 1.387 . S
H893 C889 0.950 . S
H894 C891 0.950 . S
C895 C886 1.390 . S
C895 H888 0.950 . S
C895 C892 1.387 . S
C896 C897 1.387 . S
C896 H900 0.950 . S
C896 C905 1.390 . S
C897 C896 1.387 . S
C897 C899 1.387 . S
H898 C905 0.950 . S
C899 C897 1.387 . S
C899 C901 1.390 . S
C899 H903 0.950 . S
H900 C896 0.950 . S
C901 C899 1.390 . S
C901 C902 1.387 . S
C901 H904 0.950 . S
C902 C901 1.387 . S
C902 C905 1.387 . S
H903 C899 0.950 . S
H904 C901 0.950 . S
C905 C896 1.390 . S
C905 H898 0.950 . S
C905 C902 1.387 . S
C906 C907 1.387 . S
C906 H910 0.950 . S
C906 C915 1.390 . S
C907 C906 1.387 . S
C907 C909 1.387 . S
H908 C915 0.950 . S
C909 C907 1.387 . S
C909 C911 1.390 . S
C909 H913 0.950 . S
H910 C906 0.950 . S
C911 C909 1.390 . S
C911 C912 1.387 . S
C911 H914 0.950 . S
C912 C911 1.387 . S
C912 C915 1.387 . S
H913 C909 0.950 . S
H914 C911 0.950 . S
C915 C906 1.390 . S
C915 H908 0.950 . S
C915 C912 1.387 . S
C442 C295 1.834 . S
C437 N2 1.997 . S
C452 C297 1.875 . S
C447 C7 1.866 . S
C462 C324 1.733 . S
C457 N12 1.714 . S
C467 C16 2.091 . S
C472 C345 2.120 . S
C482 C365 2.020 . S
C477 C30 2.007 . S
C492 C395 1.576 . S
C487 N35 1.622 . S
C497 C39 2.040 . S
C502 C397 2.034 . S
C512 C435 1.750 . S
C507 N25 1.755 . S
C522 C277 1.380 . S
C517 N58 1.313 . S
C527 N81 1.223 . S
C532 C302 1.259 . S
C542 C332 1.099 . S
C537 N104 1.087 . S
C547 N127 1.683 . S
C552 C344 1.578 . S
C562 C364 1.058 . S
C557 N48 1.178 . S
C572 C377 1.592 . S
C567 N71 1.592 . S
C577 N94 0.757 . S
C582 C402 0.751 . S
C592 C417 1.702 . S
C587 N117 1.684 . S
C597 C85 1.676 . S
C602 C282 1.625 . S
C607 C122 1.663 . S
C612 C372 1.597 . S
C617 C53 1.562 . S
C622 C382 1.523 . S
C632 C415 1.573 . S
C627 C76 1.670 . S
C642 C422 1.567 . S
C637 C99 1.611 . S
C652 C325 1.914 . S
C647 C131 1.886 . S
C662 C352 1.171 . S
C657 C62 1.208 . S
C667 C108 1.079 . S
C672 C315 1.064 . S
C682 C424 1.919 . S
C677 N140 2.082 . S
C687 C145 1.972 . S
C692 C357 1.980 . S
C702 C384 1.645 . S
C697 N150 1.623 . S
C707 C154 1.977 . S
C712 C405 2.002 . S
C722 C305 1.894 . S
C717 C168 1.878 . S
C727 N173 1.544 . S
C732 C335 1.573 . S
C742 C337 2.139 . S
C737 C177 2.145 . S
C752 C284 1.785 . S
C747 N163 1.841 . S
C762 C432 1.457 . S
C757 C200 1.526 . S
C772 C362 1.620 . S
C767 N219 1.627 . S
C777 N242 1.268 . S
C782 C392 1.295 . S
C792 C404 1.559 . S
C787 C269 1.725 . S
C802 C304 0.964 . S
C797 C191 1.017 . S
C807 N209 1.789 . S
C812 C317 1.806 . S
C817 N232 1.209 . S
C822 C342 1.141 . S
C827 C260 1.799 . S
C832 C292 1.711 . S
C837 C223 1.751 . S
C842 C425 1.783 . S
C847 N255 1.139 . S
C852 C312 1.203 . S
C857 N186 1.248 . S
C862 C322 1.251 . S
C872 C355 1.584 . S
C867 C214 1.704 . S
C882 C285 1.644 . S
C877 C237 1.640 . S
C892 C385 1.515 . S
C887 N265 1.471 . S
C902 C412 0.852 . S
C897 N196 0.826 . S
C912 C375 1.046 . S
C907 C246 1.085 . S
