# Generated by pormake.
# Topology gar, (4,6)-cn, num edge types: 1
# Building blocks:
#     Node 0, Type 0, BuildingBlock: TATPOV_clean_sbu_0, # of connection points: 4
#     Node 1, Type 0, BuildingBlock: TATPOV_clean_sbu_0, # of connection points: 4
#     Node 2, Type 0, BuildingBlock: TATPOV_clean_sbu_0, # of connection points: 4
#     Node 3, Type 0, BuildingBlock: TATPOV_clean_sbu_0, # of connection points: 4
#     Node 4, Type 0, BuildingBlock: TATPOV_clean_sbu_0, # of connection points: 4
#     Node 5, Type 0, BuildingBlock: TATPOV_clean_sbu_0, # of connection points: 4
#     Node 6, Type 0, BuildingBlock: TATPOV_clean_sbu_0, # of connection points: 4
#     Node 7, Type 0, BuildingBlock: TATPOV_clean_sbu_0, # of connection points: 4
#     Node 8, Type 0, BuildingBlock: TATPOV_clean_sbu_0, # of connection points: 4
#     Node 9, Type 0, BuildingBlock: TATPOV_clean_sbu_0, # of connection points: 4
#     Node 10, Type 0, BuildingBlock: TATPOV_clean_sbu_0, # of connection points: 4
#     Node 11, Type 0, BuildingBlock: TATPOV_clean_sbu_0, # of connection points: 4
#     Node 12, Type 0, BuildingBlock: TATPOV_clean_sbu_0, # of connection points: 4
#     Node 13, Type 0, BuildingBlock: TATPOV_clean_sbu_0, # of connection points: 4
#     Node 14, Type 0, BuildingBlock: TATPOV_clean_sbu_0, # of connection points: 4
#     Node 15, Type 0, BuildingBlock: TATPOV_clean_sbu_0, # of connection points: 4
#     Node 16, Type 0, BuildingBlock: TATPOV_clean_sbu_0, # of connection points: 4
#     Node 17, Type 0, BuildingBlock: TATPOV_clean_sbu_0, # of connection points: 4
#     Node 18, Type 0, BuildingBlock: TATPOV_clean_sbu_0, # of connection points: 4
#     Node 19, Type 0, BuildingBlock: TATPOV_clean_sbu_0, # of connection points: 4
#     Node 20, Type 0, BuildingBlock: TATPOV_clean_sbu_0, # of connection points: 4
#     Node 21, Type 0, BuildingBlock: TATPOV_clean_sbu_0, # of connection points: 4
#     Node 22, Type 0, BuildingBlock: TATPOV_clean_sbu_0, # of connection points: 4
#     Node 23, Type 0, BuildingBlock: TATPOV_clean_sbu_0, # of connection points: 4
#     Node 24, Type 1, BuildingBlock: PAMTOO_clean_sbu_0, # of connection points: 6
#     Node 25, Type 1, BuildingBlock: PAMTOO_clean_sbu_0, # of connection points: 6
#     Node 26, Type 1, BuildingBlock: PAMTOO_clean_sbu_0, # of connection points: 6
#     Node 27, Type 1, BuildingBlock: PAMTOO_clean_sbu_0, # of connection points: 6
#     Node 28, Type 1, BuildingBlock: PAMTOO_clean_sbu_0, # of connection points: 6
#     Node 29, Type 1, BuildingBlock: PAMTOO_clean_sbu_0, # of connection points: 6
#     Node 30, Type 1, BuildingBlock: PAMTOO_clean_sbu_0, # of connection points: 6
#     Node 31, Type 1, BuildingBlock: PAMTOO_clean_sbu_0, # of connection points: 6
#     Node 32, Type 1, BuildingBlock: PAMTOO_clean_sbu_0, # of connection points: 6
#     Node 33, Type 1, BuildingBlock: PAMTOO_clean_sbu_0, # of connection points: 6
#     Node 34, Type 1, BuildingBlock: PAMTOO_clean_sbu_0, # of connection points: 6
#     Node 35, Type 1, BuildingBlock: PAMTOO_clean_sbu_0, # of connection points: 6
#     Node 36, Type 1, BuildingBlock: PAMTOO_clean_sbu_0, # of connection points: 6
#     Node 37, Type 1, BuildingBlock: PAMTOO_clean_sbu_0, # of connection points: 6
#     Node 38, Type 1, BuildingBlock: PAMTOO_clean_sbu_0, # of connection points: 6
#     Node 39, Type 1, BuildingBlock: PAMTOO_clean_sbu_0, # of connection points: 6
#     Edge 40, Type (0, 1), BuildingBlock: MIFKUJ_clean_linker_0, # of connection points: 2
#     Edge 41, Type (0, 1), BuildingBlock: MIFKUJ_clean_linker_0, # of connection points: 2
#     Edge 42, Type (0, 1), BuildingBlock: MIFKUJ_clean_linker_0, # of connection points: 2
#     Edge 43, Type (0, 1), BuildingBlock: MIFKUJ_clean_linker_0, # of connection points: 2
#     Edge 44, Type (0, 1), BuildingBlock: MIFKUJ_clean_linker_0, # of connection points: 2
#     Edge 45, Type (0, 1), BuildingBlock: MIFKUJ_clean_linker_0, # of connection points: 2
#     Edge 46, Type (0, 1), BuildingBlock: MIFKUJ_clean_linker_0, # of connection points: 2
#     Edge 47, Type (0, 1), BuildingBlock: MIFKUJ_clean_linker_0, # of connection points: 2
#     Edge 48, Type (0, 1), BuildingBlock: MIFKUJ_clean_linker_0, # of connection points: 2
#     Edge 49, Type (0, 1), BuildingBlock: MIFKUJ_clean_linker_0, # of connection points: 2
#     Edge 50, Type (0, 1), BuildingBlock: MIFKUJ_clean_linker_0, # of connection points: 2
#     Edge 51, Type (0, 1), BuildingBlock: MIFKUJ_clean_linker_0, # of connection points: 2
#     Edge 52, Type (0, 1), BuildingBlock: MIFKUJ_clean_linker_0, # of connection points: 2
#     Edge 53, Type (0, 1), BuildingBlock: MIFKUJ_clean_linker_0, # of connection points: 2
#     Edge 54, Type (0, 1), BuildingBlock: MIFKUJ_clean_linker_0, # of connection points: 2
#     Edge 55, Type (0, 1), BuildingBlock: MIFKUJ_clean_linker_0, # of connection points: 2
#     Edge 56, Type (0, 1), BuildingBlock: MIFKUJ_clean_linker_0, # of connection points: 2
#     Edge 57, Type (0, 1), BuildingBlock: MIFKUJ_clean_linker_0, # of connection points: 2
#     Edge 58, Type (0, 1), BuildingBlock: MIFKUJ_clean_linker_0, # of connection points: 2
#     Edge 59, Type (0, 1), BuildingBlock: MIFKUJ_clean_linker_0, # of connection points: 2
#     Edge 60, Type (0, 1), BuildingBlock: MIFKUJ_clean_linker_0, # of connection points: 2
#     Edge 61, Type (0, 1), BuildingBlock: MIFKUJ_clean_linker_0, # of connection points: 2
#     Edge 62, Type (0, 1), BuildingBlock: MIFKUJ_clean_linker_0, # of connection points: 2
#     Edge 63, Type (0, 1), BuildingBlock: MIFKUJ_clean_linker_0, # of connection points: 2
#     Edge 64, Type (0, 1), BuildingBlock: MIFKUJ_clean_linker_0, # of connection points: 2
#     Edge 65, Type (0, 1), BuildingBlock: MIFKUJ_clean_linker_0, # of connection points: 2
#     Edge 66, Type (0, 1), BuildingBlock: MIFKUJ_clean_linker_0, # of connection points: 2
#     Edge 67, Type (0, 1), BuildingBlock: MIFKUJ_clean_linker_0, # of connection points: 2
#     Edge 68, Type (0, 1), BuildingBlock: MIFKUJ_clean_linker_0, # of connection points: 2
#     Edge 69, Type (0, 1), BuildingBlock: MIFKUJ_clean_linker_0, # of connection points: 2
#     Edge 70, Type (0, 1), BuildingBlock: MIFKUJ_clean_linker_0, # of connection points: 2
#     Edge 71, Type (0, 1), BuildingBlock: MIFKUJ_clean_linker_0, # of connection points: 2
#     Edge 72, Type (0, 1), BuildingBlock: MIFKUJ_clean_linker_0, # of connection points: 2
#     Edge 73, Type (0, 1), BuildingBlock: MIFKUJ_clean_linker_0, # of connection points: 2
#     Edge 74, Type (0, 1), BuildingBlock: MIFKUJ_clean_linker_0, # of connection points: 2
#     Edge 75, Type (0, 1), BuildingBlock: MIFKUJ_clean_linker_0, # of connection points: 2
#     Edge 76, Type (0, 1), BuildingBlock: MIFKUJ_clean_linker_0, # of connection points: 2
#     Edge 77, Type (0, 1), BuildingBlock: MIFKUJ_clean_linker_0, # of connection points: 2
#     Edge 78, Type (0, 1), BuildingBlock: MIFKUJ_clean_linker_0, # of connection points: 2
#     Edge 79, Type (0, 1), BuildingBlock: MIFKUJ_clean_linker_0, # of connection points: 2
#     Edge 80, Type (0, 1), BuildingBlock: MIFKUJ_clean_linker_0, # of connection points: 2
#     Edge 81, Type (0, 1), BuildingBlock: MIFKUJ_clean_linker_0, # of connection points: 2
#     Edge 82, Type (0, 1), BuildingBlock: MIFKUJ_clean_linker_0, # of connection points: 2
#     Edge 83, Type (0, 1), BuildingBlock: MIFKUJ_clean_linker_0, # of connection points: 2
#     Edge 84, Type (0, 1), BuildingBlock: MIFKUJ_clean_linker_0, # of connection points: 2
#     Edge 85, Type (0, 1), BuildingBlock: MIFKUJ_clean_linker_0, # of connection points: 2
#     Edge 86, Type (0, 1), BuildingBlock: MIFKUJ_clean_linker_0, # of connection points: 2
#     Edge 87, Type (0, 1), BuildingBlock: MIFKUJ_clean_linker_0, # of connection points: 2
#     Edge 88, Type (0, 1), BuildingBlock: MIFKUJ_clean_linker_0, # of connection points: 2
#     Edge 89, Type (0, 1), BuildingBlock: MIFKUJ_clean_linker_0, # of connection points: 2
#     Edge 90, Type (0, 1), BuildingBlock: MIFKUJ_clean_linker_0, # of connection points: 2
#     Edge 91, Type (0, 1), BuildingBlock: MIFKUJ_clean_linker_0, # of connection points: 2
#     Edge 92, Type (0, 1), BuildingBlock: MIFKUJ_clean_linker_0, # of connection points: 2
#     Edge 93, Type (0, 1), BuildingBlock: MIFKUJ_clean_linker_0, # of connection points: 2
#     Edge 94, Type (0, 1), BuildingBlock: MIFKUJ_clean_linker_0, # of connection points: 2
#     Edge 95, Type (0, 1), BuildingBlock: MIFKUJ_clean_linker_0, # of connection points: 2
#     Edge 96, Type (0, 1), BuildingBlock: MIFKUJ_clean_linker_0, # of connection points: 2
#     Edge 97, Type (0, 1), BuildingBlock: MIFKUJ_clean_linker_0, # of connection points: 2
#     Edge 98, Type (0, 1), BuildingBlock: MIFKUJ_clean_linker_0, # of connection points: 2
#     Edge 99, Type (0, 1), BuildingBlock: MIFKUJ_clean_linker_0, # of connection points: 2
#     Edge 100, Type (0, 1), BuildingBlock: MIFKUJ_clean_linker_0, # of connection points: 2
#     Edge 101, Type (0, 1), BuildingBlock: MIFKUJ_clean_linker_0, # of connection points: 2
#     Edge 102, Type (0, 1), BuildingBlock: MIFKUJ_clean_linker_0, # of connection points: 2
#     Edge 103, Type (0, 1), BuildingBlock: MIFKUJ_clean_linker_0, # of connection points: 2
#     Edge 104, Type (0, 1), BuildingBlock: MIFKUJ_clean_linker_0, # of connection points: 2
#     Edge 105, Type (0, 1), BuildingBlock: MIFKUJ_clean_linker_0, # of connection points: 2
#     Edge 106, Type (0, 1), BuildingBlock: MIFKUJ_clean_linker_0, # of connection points: 2
#     Edge 107, Type (0, 1), BuildingBlock: MIFKUJ_clean_linker_0, # of connection points: 2
#     Edge 108, Type (0, 1), BuildingBlock: MIFKUJ_clean_linker_0, # of connection points: 2
#     Edge 109, Type (0, 1), BuildingBlock: MIFKUJ_clean_linker_0, # of connection points: 2
#     Edge 110, Type (0, 1), BuildingBlock: MIFKUJ_clean_linker_0, # of connection points: 2
#     Edge 111, Type (0, 1), BuildingBlock: MIFKUJ_clean_linker_0, # of connection points: 2
#     Edge 112, Type (0, 1), BuildingBlock: MIFKUJ_clean_linker_0, # of connection points: 2
#     Edge 113, Type (0, 1), BuildingBlock: MIFKUJ_clean_linker_0, # of connection points: 2
#     Edge 114, Type (0, 1), BuildingBlock: MIFKUJ_clean_linker_0, # of connection points: 2
#     Edge 115, Type (0, 1), BuildingBlock: MIFKUJ_clean_linker_0, # of connection points: 2
#     Edge 116, Type (0, 1), BuildingBlock: MIFKUJ_clean_linker_0, # of connection points: 2
#     Edge 117, Type (0, 1), BuildingBlock: MIFKUJ_clean_linker_0, # of connection points: 2
#     Edge 118, Type (0, 1), BuildingBlock: MIFKUJ_clean_linker_0, # of connection points: 2
#     Edge 119, Type (0, 1), BuildingBlock: MIFKUJ_clean_linker_0, # of connection points: 2
#     Edge 120, Type (0, 1), BuildingBlock: MIFKUJ_clean_linker_0, # of connection points: 2
#     Edge 121, Type (0, 1), BuildingBlock: MIFKUJ_clean_linker_0, # of connection points: 2
#     Edge 122, Type (0, 1), BuildingBlock: MIFKUJ_clean_linker_0, # of connection points: 2
#     Edge 123, Type (0, 1), BuildingBlock: MIFKUJ_clean_linker_0, # of connection points: 2
#     Edge 124, Type (0, 1), BuildingBlock: MIFKUJ_clean_linker_0, # of connection points: 2
#     Edge 125, Type (0, 1), BuildingBlock: MIFKUJ_clean_linker_0, # of connection points: 2
#     Edge 126, Type (0, 1), BuildingBlock: MIFKUJ_clean_linker_0, # of connection points: 2
#     Edge 127, Type (0, 1), BuildingBlock: MIFKUJ_clean_linker_0, # of connection points: 2
#     Edge 128, Type (0, 1), BuildingBlock: MIFKUJ_clean_linker_0, # of connection points: 2
#     Edge 129, Type (0, 1), BuildingBlock: MIFKUJ_clean_linker_0, # of connection points: 2
#     Edge 130, Type (0, 1), BuildingBlock: MIFKUJ_clean_linker_0, # of connection points: 2
#     Edge 131, Type (0, 1), BuildingBlock: MIFKUJ_clean_linker_0, # of connection points: 2
#     Edge 132, Type (0, 1), BuildingBlock: MIFKUJ_clean_linker_0, # of connection points: 2
#     Edge 133, Type (0, 1), BuildingBlock: MIFKUJ_clean_linker_0, # of connection points: 2
#     Edge 134, Type (0, 1), BuildingBlock: MIFKUJ_clean_linker_0, # of connection points: 2
#     Edge 135, Type (0, 1), BuildingBlock: MIFKUJ_clean_linker_0, # of connection points: 2
# Relax obj value: 0.139
# Max RMSD: 0.263
# Mean RMSD: 0.171
data_MOF--net-gar--node1-TATPOV_clean_sbu_0--node2-PAMTOO_clean_sbu_0--edge1-MIFKUJ_clean_linker_0
_symmetry_space_group_name_H-M    P1
_symmetry_Int_Tables_number       1
_symmetry_cell_setting            triclinic
loop_
_symmetry_equiv_pos_as_xyz
'x, y, z'
_cell_length_a     75.349971
_cell_length_b     75.578864
_cell_length_c     73.542798
_cell_angle_alpha  96.440957
_cell_angle_beta   95.916658
_cell_angle_gamma 106.79182
loop_
_atom_site_label
_atom_site_type_symbol
_atom_site_fract_x
_atom_site_fract_y
_atom_site_fract_z
_atom_type_partial_charge
Zn0 Zn 0.01073 0.30173 0.38637 0.0
Zn1 Zn 0.03619 0.30431 0.36568 0.0
O2 O 0.04311 0.33142 0.38069 0.0
O3 O 0.01833 0.32923 0.39479 0.0
O4 O 0.0588 0.30594 0.3514 0.0
O5 O 0.01866 0.28478 0.40201 0.0
O6 O 0.03756 0.28285 0.38156 0.0
C7 C 0.0337 0.33901 0.39083 0.0
C8 C 0.9941 0.29287 0.34906 0.0
O9 O 0.01128 0.29866 0.3464 0.0
O10 O 0.99025 0.29114 0.36522 0.0
C11 C 0.06024 0.29276 0.33974 0.0
O12 O 0.04597 0.27745 0.33528 0.0
C13 C 0.03038 0.27752 0.39581 0.0
Zn14 Zn 0.99992 0.72745 0.70245 0.0
Zn15 Zn 0.00471 0.75329 0.68056 0.0
O16 O 0.98154 0.75475 0.69409 0.0
O17 O 0.97914 0.73466 0.71379 0.0
O18 O 0.00735 0.7746 0.66509 0.0
O19 O 0.02724 0.73758 0.7139 0.0
O20 O 0.03139 0.75938 0.69591 0.0
C21 C 0.97331 0.74686 0.70677 0.0
C22 C 0.99563 0.71199 0.66387 0.0
O23 O 0.99994 0.72917 0.66167 0.0
O24 O 0.99374 0.70755 0.67984 0.0
C25 C 0.01524 0.7757 0.65057 0.0
O26 O 0.02233 0.76244 0.64486 0.0
C27 C 0.03806 0.75136 0.70815 0.0
Zn28 Zn 0.51203 0.80023 0.88721 0.0
Zn29 Zn 0.53612 0.80309 0.86417 0.0
O30 O 0.54262 0.83088 0.87783 0.0
O31 O 0.52207 0.82726 0.89742 0.0
O32 O 0.55722 0.80264 0.84819 0.0
O33 O 0.51954 0.7821 0.90118 0.0
O34 O 0.53895 0.78247 0.88077 0.0
C35 C 0.53539 0.83775 0.89083 0.0
C36 C 0.49361 0.79141 0.84984 0.0
O37 O 0.51046 0.79595 0.84612 0.0
O38 O 0.49066 0.79136 0.86647 0.0
C39 C 0.57186 0.81623 0.84778 0.0
O40 O 0.57348 0.8327 0.85693 0.0
C41 C 0.53196 0.77611 0.89474 0.0
Zn42 Zn 0.49987 0.22689 0.20148 0.0
Zn43 Zn 0.50441 0.25244 0.17918 0.0
O44 O 0.48122 0.25451 0.19235 0.0
O45 O 0.47788 0.23341 0.21105 0.0
O46 O 0.50829 0.27355 0.1635 0.0
O47 O 0.52668 0.23806 0.21437 0.0
O48 O 0.53085 0.25843 0.19488 0.0
C49 C 0.47241 0.24601 0.2044 0.0
C50 C 0.4965 0.21121 0.16291 0.0
O51 O 0.49954 0.22823 0.16039 0.0
O52 O 0.4955 0.20703 0.17908 0.0
C53 C 0.49769 0.27259 0.14854 0.0
O54 O 0.48364 0.25731 0.14274 0.0
C55 C 0.53749 0.25138 0.208 0.0
Zn56 Zn 0.0817 0.80056 0.09689 0.0
Zn57 Zn 0.05315 0.79379 0.11592 0.0
O58 O 0.05177 0.81701 0.10275 0.0
O59 O 0.07534 0.82219 0.08671 0.0
O60 O 0.0308 0.78984 0.13023 0.0
O61 O 0.07222 0.7736 0.08376 0.0
O62 O 0.04845 0.76788 0.09955 0.0
C63 C 0.06148 0.82661 0.09192 0.0
C64 C 0.09373 0.80319 0.13576 0.0
O65 O 0.07611 0.79839 0.13633 0.0
O66 O 0.09983 0.80585 0.12056 0.0
C67 C 0.03119 0.80148 0.14433 0.0
O68 O 0.04629 0.81587 0.14957 0.0
C69 C 0.05776 0.76214 0.08785 0.0
Zn70 Zn 0.47932 0.76148 0.46148 0.0
Zn71 Zn 0.50166 0.76416 0.43624 0.0
O72 O 0.51057 0.79075 0.45213 0.0
O73 O 0.49357 0.78736 0.4748 0.0
O74 O 0.5214 0.76532 0.41891 0.0
O75 O 0.48367 0.73822 0.46934 0.0
O76 O 0.5032 0.74076 0.44889 0.0
C77 C 0.50596 0.79766 0.46694 0.0
C78 C 0.46019 0.75982 0.42466 0.0
O79 O 0.47624 0.76093 0.41976 0.0
O80 O 0.45806 0.75954 0.44151 0.0
C81 C 0.52456 0.77576 0.40642 0.0
O82 O 0.51418 0.78677 0.40366 0.0
C83 C 0.49523 0.73212 0.46128 0.0
Zn84 Zn 0.57959 0.30134 0.59372 0.0
Zn85 Zn 0.55289 0.29506 0.61502 0.0
O86 O 0.55083 0.31828 0.60228 0.0
O87 O 0.57286 0.32305 0.58437 0.0
O88 O 0.5322 0.2915 0.63151 0.0
O89 O 0.56902 0.2746 0.58065 0.0
O90 O 0.54671 0.26915 0.59827 0.0
C91 C 0.5596 0.32767 0.59076 0.0
C92 C 0.59448 0.30372 0.63175 0.0
O93 O 0.57716 0.29944 0.63371 0.0
O94 O 0.59928 0.30611 0.61598 0.0
C95 C 0.51697 0.29509 0.62693 0.0
O96 O 0.51432 0.30082 0.61094 0.0
C97 C 0.55497 0.26333 0.58559 0.0
Zn98 Zn 0.97546 0.25726 0.95444 0.0
Zn99 Zn 1.00122 0.26179 0.93252 0.0
O100 O 0.00805 0.28808 0.94882 0.0
O101 O 0.98748 0.28352 0.9683 0.0
O102 O 0.02254 0.26432 0.91699 0.0
O103 O 0.9801 0.23423 0.96304 0.0
O104 O 0.00213 0.23814 0.94517 0.0
C105 C 1.00099 0.29443 0.96224 0.0
C106 C 0.96037 0.25618 0.91634 0.0
O107 O 0.97732 0.25835 0.91367 0.0
O108 O 0.95601 0.2548 0.93243 0.0
C109 C 0.02445 0.2735 0.90345 0.0
O110 O 0.01207 0.28203 0.89893 0.0
C111 C 0.9929 0.22887 0.95651 0.0
Zn112 Zn 0.39337 0.99372 0.28182 0.0
Zn113 Zn 0.38699 0.02659 0.27995 0.0
O114 O 0.402 0.03061 0.3056 0.0
O115 O 0.40458 0.00277 0.30863 0.0
O116 O 0.38073 0.05048 0.27891 0.0
O117 O 0.40909 0.99853 0.26153 0.0
O118 O 0.40271 0.02494 0.25903 0.0
C119 C 0.40738 0.0197 0.31528 0.0
C120 C 0.35464 0.98988 0.27374 0.0
O121 O 0.36051 0.00765 0.2763 0.0
O122 O 0.36607 0.98051 0.27476 0.0
C123 C 0.37502 0.05721 0.29297 0.0
O124 O 0.37446 0.04886 0.30773 0.0
C125 C 0.41062 0.01287 0.25369 0.0
Zn126 Zn 0.25636 0.20049 0.50213 0.0
Zn127 Zn 0.28043 0.18127 0.50907 0.0
O128 O 0.2878 0.19323 0.48569 0.0
O129 O 0.26977 0.21126 0.4818 0.0
O130 O 0.29934 0.16713 0.51346 0.0
O131 O 0.26304 0.21379 0.52827 0.0
O132 O 0.28367 0.19887 0.53393 0.0
C133 C 0.28269 0.20502 0.47697 0.0
C134 C 0.23831 0.16091 0.49916 0.0
O135 O 0.2549 0.16076 0.5045 0.0
O136 O 0.23529 0.17611 0.4964 0.0
C137 C 0.29653 0.15084 0.50467 0.0
O138 O 0.28117 0.14324 0.4928 0.0
C139 C 0.27531 0.21055 0.53939 0.0
Zn140 Zn 0.09792 0.04028 0.78248 0.0
Zn141 Zn 0.121 0.0202 0.77899 0.0
O142 O 0.10864 0.01338 0.80258 0.0
O143 O 0.08747 0.02822 0.80336 0.0
O144 O 0.13665 0.00239 0.77616 0.0
O145 O 0.08483 0.03117 0.75666 0.0
O146 O 0.10428 0.01462 0.75322 0.0
C147 C 0.09543 0.01733 0.81009 0.0
C148 C 0.13686 0.06261 0.78641 0.0
O149 O 0.13968 0.04681 0.78291 0.0
O150 O 0.12042 0.0634 0.78748 0.0
C151 C 0.15383 0.00652 0.78296 0.0
O152 O 0.16232 0.02327 0.79223 0.0
C153 C 0.09079 0.02011 0.74655 0.0
Zn154 Zn 0.27724 0.87231 -0.0007 0.0
Zn155 Zn 0.25604 0.89494 0.99579 0.0
O156 O 0.24823 0.87864 0.9704 0.0
O157 O 0.26767 0.86185 0.97242 0.0
O158 O 0.24053 0.91236 0.99612 0.0
O159 O 0.26328 0.86079 0.01905 0.0
O160 O 0.24851 0.88194 0.01814 0.0
C161 C 0.25495 0.86635 0.96313 0.0
C162 C 0.29862 0.911 0.00413 0.0
O163 O 0.28266 0.91284 -0.00081 0.0
O164 O 0.30018 0.89513 0.00641 0.0
C165 C 0.2441 0.92713 0.98866 0.0
O166 O 0.25798 0.93089 0.97884 0.0
C167 C 0.25187 0.86848 0.02532 0.0
Zn168 Zn 0.29266 0.35332 0.0335 0.0
Zn169 Zn 0.26851 0.37207 0.03023 0.0
O170 O 0.26402 0.35541 0.00452 0.0
O171 O 0.28377 0.33915 0.00802 0.0
O172 O 0.24897 0.38584 0.02771 0.0
O173 O 0.28321 0.34309 0.05547 0.0
O174 O 0.26282 0.35883 0.05359 0.0
C175 C 0.27128 0.34318 0.99794 0.0
C176 C 0.31085 0.39249 0.03719 0.0
O177 O 0.29405 0.39309 0.03434 0.0
O178 O 0.31399 0.37697 0.0376 0.0
C179 C 0.25182 0.40073 0.02039 0.0
O180 O 0.26781 0.40738 0.0142 0.0
C181 C 0.27016 0.34807 0.06183 0.0
Zn182 Zn 0.77342 0.17608 0.0388 0.0
Zn183 Zn 0.78956 0.15016 0.04148 0.0
O184 O 0.79101 0.15396 0.01447 0.0
O185 O 0.77244 0.17152 0.01128 0.0
O186 O 0.80216 0.13055 0.04406 0.0
O187 O 0.79519 0.19528 0.05505 0.0
O188 O 0.80551 0.1719 0.0611 0.0
C189 C 0.78197 0.16191 0.00431 0.0
C190 C 0.74967 0.14429 0.05028 0.0
O191 O 0.76291 0.13775 0.04661 0.0
O192 O 0.7514 0.16137 0.04966 0.0
C193 C 0.79573 0.11481 0.03378 0.0
O194 O 0.78046 0.1115 0.0219 0.0
C195 C 0.80672 0.18915 0.06417 0.0
Zn196 Zn 0.17472 0.57506 0.23354 0.0
Zn197 Zn 0.18014 0.54426 0.24565 0.0
O198 O 0.16786 0.55498 0.26575 0.0
O199 O 0.16257 0.57983 0.25622 0.0
O200 O 0.18402 0.52106 0.2541 0.0
O201 O 0.15923 0.55925 0.21072 0.0
O202 O 0.16259 0.5339 0.22092 0.0
C203 C 0.16163 0.56889 0.26817 0.0
C204 C 0.21342 0.5765 0.23965 0.0
O205 O 0.20704 0.56076 0.24506 0.0
O206 O 0.20239 0.58514 0.23384 0.0
C207 C 0.18121 0.51602 0.26976 0.0
O208 O 0.17522 0.52631 0.28179 0.0
C209 C 0.15578 0.54169 0.20865 0.0
Zn210 Zn 0.78955 0.85487 0.53499 0.0
Zn211 Zn 0.76659 0.87521 0.53178 0.0
O212 O 0.76109 0.85778 0.50651 0.0
O213 O 0.77837 0.83911 0.51037 0.0
O214 O 0.74782 0.8898 0.52954 0.0
O215 O 0.78133 0.84727 0.55853 0.0
O216 O 0.76106 0.86312 0.55573 0.0
C217 C 0.76666 0.84416 0.50026 0.0
C218 C 0.80898 0.89392 0.53645 0.0
O219 O 0.79247 0.89544 0.53477 0.0
O220 O 0.81134 0.87802 0.53664 0.0
C221 C 0.74293 0.89505 0.51448 0.0
O222 O 0.75036 0.89107 0.49975 0.0
C223 C 0.76851 0.85288 0.56463 0.0
Zn224 Zn 0.954 0.01758 0.25625 0.0
Zn225 Zn 0.92939 0.03652 0.25912 0.0
O226 O 0.94471 0.04142 0.28563 0.0
O227 O 0.96611 0.02714 0.28236 0.0
O228 O 0.91193 0.05266 0.26074 0.0
O229 O 0.96458 0.03048 0.23572 0.0
O230 O 0.94299 0.04482 0.2367 0.0
C231 C 0.95878 0.03688 0.29248 0.0
C232 C 0.91517 0.99406 0.25043 0.0
O233 O 0.91166 0.00958 0.2533 0.0
O234 O 0.93197 0.99384 0.25081 0.0
C235 C 0.91612 0.06809 0.27159 0.0
O236 O 0.93222 0.07381 0.28256 0.0
C237 C 0.95656 0.0415 0.22936 0.0
Zn238 Zn 0.2791 0.68301 0.51727 0.0
Zn239 Zn 0.30376 0.65597 0.54384 0.0
O240 O 0.30435 0.64376 0.51763 0.0
O241 O 0.28411 0.65846 0.51786 0.0
O242 O 0.32402 0.65171 0.56061 0.0
O243 O 0.29927 0.70595 0.53313 0.0
O244 O 0.3067 0.6833 0.54469 0.0
C245 C 0.29295 0.6499 0.50845 0.0
C246 C 0.26417 0.65237 0.54622 0.0
O247 O 0.27801 0.64648 0.55105 0.0
O248 O 0.26508 0.66423 0.53484 0.0
C249 C 0.32141 0.64164 0.57336 0.0
O250 O 0.30446 0.63532 0.57767 0.0
C251 C 0.30875 0.70064 0.54557 0.0
Zn252 Zn 0.45424 0.51429 0.75705 0.0
Zn253 Zn 0.43289 0.53598 0.75975 0.0
O254 O 0.44848 0.54067 0.78602 0.0
O255 O 0.46799 0.52421 0.78245 0.0
O256 O 0.41789 0.55451 0.76186 0.0
O257 O 0.46453 0.52441 0.73531 0.0
O258 O 0.44743 0.5435 0.73755 0.0
C259 C 0.46198 0.53516 0.79263 0.0
C260 C 0.41536 0.49335 0.75252 0.0
O261 O 0.41321 0.50958 0.75432 0.0
O262 O 0.43167 0.49173 0.75333 0.0
C263 C 0.40081 0.55031 0.76445 0.0
O264 O 0.39189 0.53297 0.76606 0.0
C265 C 0.45918 0.53739 0.72946 0.0
Zn266 Zn 0.67099 0.07609 0.7417 0.0
Zn267 Zn 0.67843 0.04525 0.74992 0.0
O268 O 0.66768 0.05337 0.77255 0.0
O269 O 0.6637 0.08015 0.76719 0.0
O270 O 0.68511 0.02282 0.75635 0.0
O271 O 0.65158 0.06056 0.7209 0.0
O272 O 0.65969 0.03558 0.72595 0.0
C273 C 0.66315 0.06791 0.77773 0.0
C274 C 0.70967 0.07909 0.74334 0.0
O275 O 0.70415 0.06326 0.74872 0.0
O276 O 0.6979 0.08714 0.73802 0.0
C277 C 0.69661 0.02526 0.77098 0.0
O278 O 0.70278 0.04187 0.7811 0.0
C279 C 0.64973 0.04338 0.7166 0.0
Zn280 Zn 0.76134 0.70688 0.01268 0.0
Zn281 Zn 0.78331 0.68491 0.01328 0.0
O282 O 0.78832 0.69807 0.99003 0.0
O283 O 0.77071 0.71678 0.99025 0.0
O284 O 0.80174 0.66982 0.01384 0.0
O285 O 0.77302 0.72055 0.03792 0.0
O286 O 0.78944 0.7008 0.03957 0.0
C287 C 0.78233 0.71023 0.98282 0.0
C288 C 0.74101 0.66741 0.00907 0.0
O289 O 0.75729 0.66546 0.00969 0.0
O290 O 0.73907 0.68358 0.01016 0.0
C291 C 0.79764 0.65323 0.01767 0.0
O292 O 0.78085 0.64536 0.02171 0.0
C293 C 0.78446 0.71436 0.04707 0.0
Zn294 Zn 0.93074 0.53652 0.79411 0.0
Zn295 Zn 0.90643 0.5556 0.78842 0.0
O296 O 0.91756 0.56582 0.81555 0.0
O297 O 0.93504 0.54752 0.82094 0.0
O298 O 0.88817 0.56935 0.78252 0.0
O299 O 0.9462 0.54958 0.77598 0.0
O300 O 0.92384 0.56206 0.76906 0.0
C301 C 0.9283 0.56032 0.82655 0.0
C302 C 0.8931 0.51295 0.78184 0.0
O303 O 0.8896 0.52849 0.78357 0.0
O304 O 0.90983 0.51256 0.78483 0.0
C305 C 0.87396 0.56772 0.79081 0.0
O306 O 0.87169 0.55747 0.80419 0.0
C307 C 0.9392 0.55923 0.76608 0.0
Zn308 Zn 0.79989 0.38581 0.51454 0.0
Zn309 Zn 0.77762 0.40762 0.51118 0.0
O310 O 0.77568 0.39583 0.48438 0.0
O311 O 0.79558 0.37954 0.4868 0.0
O312 O 0.76096 0.42388 0.5101 0.0
O313 O 0.78214 0.37022 0.52938 0.0
O314 O 0.76507 0.38936 0.52792 0.0
C315 C 0.78417 0.38523 0.47694 0.0
C316 C 0.81916 0.42437 0.5275 0.0
O317 O 0.80332 0.42611 0.52176 0.0
O318 O 0.82125 0.40828 0.52674 0.0
C319 C 0.7658 0.44029 0.50593 0.0
O320 O 0.78254 0.44721 0.50133 0.0
C321 C 0.76811 0.37502 0.53348 0.0
Zn322 Zn 0.59441 0.54588 0.28682 0.0
Zn323 Zn 0.61712 0.52543 0.28184 0.0
O324 O 0.60438 0.51683 0.30468 0.0
O325 O 0.5831 0.5315 0.30613 0.0
O326 O 0.63408 0.50908 0.27824 0.0
O327 O 0.58251 0.5386 0.26042 0.0
O328 O 0.60038 0.52048 0.25622 0.0
C329 C 0.59082 0.52008 0.31208 0.0
C330 C 0.63312 0.56796 0.29211 0.0
O331 O 0.63551 0.5522 0.28708 0.0
O332 O 0.61687 0.56891 0.29391 0.0
C333 C 0.62818 0.49153 0.27838 0.0
O334 O 0.61071 0.48391 0.28076 0.0
C335 C 0.58765 0.52718 0.2499 0.0
Dy336 Dy 0.04954 0.03904 0.03026 0.0
Dy337 Dy 0.00641 0.0149 0.01195 0.0
C338 C 0.04093 0.01743 0.98923 0.0
O339 O 0.03846 0.05702 0.01262 0.0
O340 O 0.00726 0.04501 0.01409 0.0
O341 O 0.07448 0.06121 0.02844 0.0
O342 O 0.07329 0.04629 0.05193 0.0
O343 O 0.00463 0.02247 0.0417 0.0
O344 O 0.03188 0.04685 0.05049 0.0
O345 O 0.02006 0.99318 0.01833 0.0
O346 O 0.04527 0.01092 0.03951 0.0
O347 O 0.98183 0.99128 0.0108 0.0
O348 O 0.98258 0.0106 0.99105 0.0
C349 C 0.02147 0.05857 0.01087 0.0
O350 O 0.05248 0.02163 0.00479 0.0
O351 O 0.02351 0.01757 0.98881 0.0
C352 C 0.10198 0.05503 0.04023 0.0
C353 C 0.13531 0.04636 0.03579 0.0
C354 C 0.12167 0.04405 0.02045 0.0
C355 C 0.10512 0.04825 0.02265 0.0
C356 C 0.11581 0.0579 0.05549 0.0
C357 C 0.13234 0.05352 0.05331 0.0
C358 C 0.08392 0.058 0.04289 0.0
C359 C 0.01529 0.0369 0.05348 0.0
C360 C 0.03383 0.99458 0.03148 0.0
C361 C 0.95419 0.99905 0.00256 0.0
C362 C 0.92213 0.00836 0.01118 0.0
C363 C 0.93463 0.00535 0.02518 0.0
C364 C 0.95057 0.00086 0.02094 0.0
C365 C 0.94125 0.00106 0.98845 0.0
C366 C 0.92537 0.00573 0.99271 0.0
C367 C 0.97215 0.99692 0.9982 0.0
H368 H 0.12341 0.03819 0.00686 0.0
H369 H 0.09458 0.04569 0.01067 0.0
H370 H 0.11359 0.06306 0.06916 0.0
H371 H 0.14265 0.05538 0.06535 0.0
H372 H 0.93239 0.00698 0.03951 0.0
H373 H 0.96035 0.99944 0.03215 0.0
H374 H 0.94384 0.99981 0.97421 0.0
H375 H 0.91617 0.00818 0.98162 0.0
Dy376 Dy 0.28692 0.79178 0.26949 0.0
Dy377 Dy 0.26427 0.78597 0.30533 0.0
C378 C 0.27809 0.8257 0.2931 0.0
O379 O 0.30695 0.7858 0.29045 0.0
O380 O 0.29521 0.79533 0.31604 0.0
O381 O 0.30963 0.80773 0.25663 0.0
O382 O 0.28902 0.78291 0.24115 0.0
O383 O 0.27254 0.76034 0.29872 0.0
O384 O 0.27471 0.76089 0.26807 0.0
O385 O 0.24163 0.77997 0.28086 0.0
O386 O 0.25943 0.79595 0.26099 0.0
O387 O 0.24269 0.76902 0.31868 0.0
O388 O 0.26146 0.79535 0.33342 0.0
C389 C 0.30844 0.79034 0.3084 0.0
O390 O 0.29078 0.82004 0.28523 0.0
O391 O 0.26458 0.81418 0.29966 0.0
C392 C 0.29798 0.80864 0.22598 0.0
C393 C 0.28311 0.82311 0.1965 0.0
C394 C 0.27844 0.82654 0.21428 0.0
C395 C 0.28584 0.81937 0.22891 0.0
C396 C 0.3034 0.80592 0.20853 0.0
C397 C 0.29612 0.81322 0.19389 0.0
C398 C 0.30246 0.79806 0.24033 0.0
C399 C 0.27362 0.75208 0.28248 0.0
C400 C 0.24308 0.78804 0.26586 0.0
C401 C 0.2568 0.76905 0.34827 0.0
C402 C 0.26949 0.74632 0.3709 0.0
C403 C 0.27904 0.75262 0.35634 0.0
C404 C 0.27285 0.76395 0.3453 0.0
C405 C 0.24731 0.76322 0.36296 0.0
C406 C 0.25371 0.752 0.37433 0.0
C407 C 0.24978 0.77915 0.33481 0.0
H408 H 0.26836 0.83394 0.21674 0.0
H409 H 0.28138 0.82144 0.24231 0.0
H410 H 0.31265 0.79755 0.20605 0.0
H411 H 0.30028 0.81068 0.18042 0.0
H412 H 0.29095 0.74829 0.35294 0.0
H413 H 0.28033 0.76826 0.33401 0.0
H414 H 0.23486 0.76703 0.3654 0.0
H415 H 0.24619 0.74761 0.38563 0.0
Dy416 Dy 0.50366 0.02404 0.52713 0.0
Dy417 Dy 0.54603 0.03476 0.51459 0.0
C418 C 0.51114 0.03537 0.48761 0.0
O419 O 0.50979 0.99668 0.52265 0.0
O420 O 0.53119 0.0048 0.50254 0.0
O421 O 0.47395 0.0095 0.52076 0.0
O422 O 0.48509 0.02811 0.54656 0.0
O423 O 0.54685 0.01928 0.53847 0.0
O424 O 0.5234 0.02605 0.55261 0.0
O425 O 0.54447 0.06108 0.53105 0.0
O426 O 0.51257 0.05483 0.52673 0.0
O427 O 0.5759 0.04701 0.52209 0.0
O428 O 0.56437 0.03352 0.49403 0.0
C429 C 0.51979 0.99206 0.51029 0.0
O430 O 0.50098 0.0231 0.49662 0.0
O431 O 0.52866 0.04464 0.49401 0.0
C432 C 0.4561 0.02834 0.53162 0.0
C433 C 0.4299 0.0481 0.52595 0.0
C434 C 0.44814 0.05503 0.5216 0.0
C435 C 0.46107 0.0452 0.52432 0.0
C436 C 0.43788 0.02122 0.53575 0.0
C437 C 0.42485 0.03097 0.53288 0.0
C438 C 0.47004 0.01849 0.53524 0.0
C439 C 0.53822 0.02025 0.55293 0.0
C440 C 0.52948 0.06664 0.53149 0.0
C441 C 0.59239 0.0291 0.50698 0.0
C442 C 0.61675 0.00686 0.5081 0.0
C443 C 0.60125 0.00317 0.5178 0.0
C444 C 0.58916 0.01413 0.5172 0.0
C445 C 0.60784 0.03292 0.49735 0.0
C446 C 0.61991 0.0219 0.49788 0.0
C447 C 0.57947 0.04044 0.50615 0.0
H448 H 0.4524 0.06804 0.51602 0.0
H449 H 0.47504 0.05085 0.52088 0.0
H450 H 0.43379 0.00822 0.54139 0.0
H451 H 0.41096 0.02534 0.53651 0.0
H452 H 0.59824 0.99158 0.52561 0.0
H453 H 0.57722 0.01086 0.52463 0.0
H454 H 0.61054 0.0444 0.48939 0.0
H455 H 0.63183 0.02527 0.49043 0.0
Dy456 Dy 0.2941 0.27654 0.77264 0.0
Dy457 Dy 0.25236 0.28346 0.76395 0.0
C458 C 0.28997 0.3155 0.76198 0.0
O459 O 0.28409 0.27905 0.80019 0.0
O460 O 0.26432 0.2962 0.79308 0.0
O461 O 0.32315 0.28555 0.78521 0.0
O462 O 0.31143 0.25857 0.76809 0.0
O463 O 0.24804 0.25805 0.77769 0.0
O464 O 0.27232 0.24859 0.76847 0.0
O465 O 0.25738 0.26964 0.73711 0.0
O466 O 0.28953 0.27763 0.74252 0.0
O467 O 0.22276 0.27256 0.75375 0.0
O468 O 0.23483 0.3016 0.76607 0.0
C469 C 0.27388 0.28974 0.80524 0.0
O470 O 0.29936 0.30712 0.77227 0.0
O471 O 0.27247 0.30739 0.75448 0.0
C472 C 0.34287 0.27467 0.76639 0.0
C473 C 0.37274 0.27972 0.74503 0.0
C474 C 0.36298 0.29303 0.74697 0.0
C475 C 0.34815 0.29048 0.75745 0.0
C476 C 0.35261 0.26147 0.76463 0.0
C477 C 0.36733 0.26392 0.75406 0.0
C478 C 0.32663 0.27109 0.77666 0.0
C479 C 0.25598 0.24495 0.77436 0.0
C480 C 0.27365 0.27127 0.73128 0.0
C481 C 0.20424 0.28625 0.77173 0.0
C482 C 0.17544 0.28391 0.79418 0.0
C483 C 0.18413 0.26973 0.79228 0.0
C484 C 0.19842 0.27093 0.78125 0.0
C485 C 0.19566 0.30041 0.7736 0.0
C486 C 0.18149 0.2993 0.78473 0.0
C487 C 0.21945 0.28796 0.76016 0.0
H488 H 0.36682 0.30548 0.74044 0.0
H489 H 0.34072 0.3008 0.75843 0.0
H490 H 0.34862 0.24905 0.7712 0.0
H491 H 0.37418 0.25317 0.75265 0.0
H492 H 0.17977 0.25754 0.79911 0.0
H493 H 0.20488 0.25985 0.78019 0.0
H494 H 0.20003 0.31245 0.76654 0.0
H495 H 0.17546 0.31069 0.78609 0.0
Dy496 Dy 0.02694 0.00508 0.51452 0.0
Dy497 Dy 0.0237 0.04799 0.52407 0.0
C498 C 0.98993 0.01188 0.52603 0.0
O499 O 0.01292 0.01124 0.48844 0.0
O500 O 0.02524 0.04317 0.49399 0.0
O501 O 0.01383 0.97555 0.50497 0.0
O502 O 0.04356 0.98602 0.51491 0.0
O503 O 0.05396 0.05054 0.5242 0.0
O504 O 0.05169 0.02382 0.50468 0.0
O505 O 0.02528 0.03766 0.55139 0.0
O506 O 0.04098 0.01669 0.5434 0.0
O507 O 0.0348 0.07688 0.53702 0.0
O508 O 0.00774 0.06717 0.51991 0.0
C509 C 0.01668 0.02764 0.48266 0.0
O510 O 0.00215 0.00289 0.52924 0.0
O511 O 0.99474 0.02801 0.51994 0.0
C512 C 0.02744 0.95604 0.52139 0.0
C513 C 0.02538 0.92711 0.54339 0.0
C514 C 0.01179 0.93662 0.5429 0.0
C515 C 0.01285 0.95095 0.53209 0.0
C516 C 0.041 0.94663 0.52186 0.0
C517 C 0.04003 0.9324 0.53274 0.0
C518 C 0.02903 0.97124 0.50994 0.0
C519 C 0.06135 0.04064 0.51316 0.0
C520 C 0.03559 0.02701 0.55597 0.0
C521 C 0.02611 0.09791 0.51877 0.0
C522 C 0.03387 0.12816 0.49824 0.0
C523 C 0.04518 0.11621 0.49856 0.0
C524 C 0.04129 0.10119 0.50866 0.0
C525 C 0.01489 0.1098 0.51857 0.0
C526 C 0.01868 0.12472 0.50841 0.0
C527 C 0.02109 0.08162 0.5287 0.0
H528 H 1.00017 0.93285 0.55068 0.0
H529 H 0.00223 0.95803 0.5321 0.0
H530 H 0.05247 0.95039 0.51386 0.0
H531 H 0.05096 0.92572 0.53298 0.0
H532 H 0.05709 0.11848 0.49109 0.0
H533 H 0.05004 0.09206 0.50845 0.0
H534 H 0.00297 0.10737 0.52606 0.0
H535 H 0.00939 0.1333 0.50823 0.0
Dy536 Dy 0.27865 0.79813 0.75202 0.0
Dy537 Dy 0.26796 0.75461 0.76153 0.0
C538 C 0.26164 0.78715 0.78842 0.0
O539 O 0.30606 0.79209 0.75662 0.0
O540 O 0.29701 0.77026 0.77577 0.0
O541 O 0.29352 0.82747 0.76065 0.0
O542 O 0.27541 0.81832 0.7344 0.0
O543 O 0.28324 0.75514 0.73714 0.0
O544 O 0.27762 0.78022 0.72547 0.0
O545 O 0.24133 0.75623 0.74573 0.0
O546 O 0.24743 0.78823 0.74913 0.0
O547 O 0.25774 0.72476 0.75292 0.0
O548 O 0.26862 0.73598 0.78168 0.0
C549 C 0.31024 0.78198 0.76885 0.0
O550 O 0.27518 0.79864 0.78179 0.0
O551 O 0.25444 0.76961 0.78089 0.0
C552 C 0.27535 0.84644 0.7515 0.0
C553 C 0.25593 0.87259 0.75948 0.0
C554 C 0.24959 0.85445 0.76407 0.0
C555 C 0.25923 0.84152 0.76016 0.0
C556 C 0.28186 0.86451 0.74704 0.0
C557 C 0.27227 0.8775 0.75102 0.0
C558 C 0.28501 0.83256 0.74673 0.0
C559 C 0.28266 0.76495 0.72361 0.0
C560 C 0.23579 0.7712 0.74465 0.0
C561 C 0.27484 0.70854 0.7695 0.0
C562 C 0.2972 0.68422 0.77017 0.0
C563 C 0.30199 0.7 0.76104 0.0
C564 C 0.29095 0.71206 0.76075 0.0
C565 C 0.27009 0.69299 0.77878 0.0
C566 C 0.28116 0.68097 0.77915 0.0
C567 C 0.26307 0.72109 0.76917 0.0
H568 H 0.2372 0.85025 0.77075 0.0
H569 H 0.25402 0.82761 0.76376 0.0
H570 H 0.29424 0.86852 0.7403 0.0
H571 H 0.27741 0.89127 0.7471 0.0
H572 H 0.31408 0.70288 0.7538 0.0
H573 H 0.29492 0.72408 0.75359 0.0
H574 H 0.25781 0.69015 0.78577 0.0
H575 H 0.2772 0.66919 0.78661 0.0
Dy576 Dy 0.5176 0.04967 0.98655 0.0
Dy577 Dy 0.52188 0.0257 0.0201 0.0
C578 C 0.52058 0.00837 0.97871 0.0
O579 O 0.48831 0.03281 0.98896 0.0
O580 O 0.49315 0.02801 0.01911 0.0
O581 O 0.50714 0.0507 0.95834 0.0
O582 O 0.52496 0.07588 0.9758 0.0
O583 O 0.52528 0.05483 0.03392 0.0
O584 O 0.51072 0.06588 0.01061 0.0
O585 O 0.54899 0.03298 0.00914 0.0
O586 O 0.54714 0.06045 0.00076 0.0
O587 O 0.53913 0.02203 0.04371 0.0
O588 O 0.51183 0.00184 0.034 0.0
C589 C 0.48193 0.02821 0.00433 0.0
O590 O 0.52671 0.02547 0.97492 0.0
O591 O 0.51352 0.00528 0.99405 0.0
C592 C 0.53136 0.07074 0.94561 0.0
C593 C 0.56178 0.07756 0.92538 0.0
C594 C 0.55302 0.05943 0.9289 0.0
C595 C 0.53804 0.05607 0.93898 0.0
C596 C 0.5396 0.08874 0.94156 0.0
C597 C 0.55469 0.09214 0.93146 0.0
C598 C 0.5179 0.06782 0.95894 0.0
C599 C 0.5175 0.0671 0.02806 0.0
C600 C 0.55713 0.04984 0.00593 0.0
C601 C 0.52127 0.00968 0.06589 0.0
C602 C 0.5123 0.0141 0.10183 0.0
C603 C 0.50879 0.02581 0.08928 0.0
C604 C 0.5132 0.02357 0.07143 0.0
C605 C 0.52491 0.998 0.07831 0.0
C606 C 0.52038 1.00015 0.09621 0.0
C607 C 0.52606 0.00774 0.04721 0.0
H608 H 0.55786 0.04781 0.92402 0.0
H609 H 0.5321 0.04207 0.94207 0.0
H610 H 0.53483 0.10029 0.9468 0.0
H611 H 0.56118 0.10625 0.92895 0.0
H612 H 0.50224 0.03642 0.09313 0.0
H613 H 0.51023 0.03262 0.06188 0.0
H614 H 0.5312 0.98725 0.07416 0.0
H615 H 0.52323 0.99098 0.10566 0.0
Dy616 Dy 0.25684 0.2554 0.26179 0.0
Dy617 Dy 0.27923 0.29873 0.27932 0.0
C618 C 0.27874 0.26623 0.30288 0.0
O619 O 0.23411 0.26857 0.26567 0.0
O620 O 0.25089 0.2921 0.28874 0.0
O621 O 0.23532 0.22976 0.26314 0.0
O622 O 0.2531 0.23101 0.2417 0.0
O623 O 0.26212 0.30039 0.25324 0.0
O624 O 0.25728 0.27091 0.23774 0.0
O625 O 0.29909 0.28943 0.2626 0.0
O626 O 0.28754 0.258 0.2632 0.0
O627 O 0.29641 0.3265 0.27709 0.0
O628 O 0.28664 0.32041 0.30305 0.0
C629 C 0.23476 0.28152 0.27944 0.0
O630 O 0.26313 0.25645 0.29227 0.0
O631 O 0.28949 0.28161 0.29832 0.0
C632 C 0.24663 0.20443 0.25618 0.0
C633 C 0.26096 0.17572 0.26557 0.0
C634 C 0.26661 0.19317 0.27692 0.0
C635 C 0.25958 0.20741 0.2722 0.0
C636 C 0.24041 0.1869 0.24512 0.0
C637 C 0.24755 0.17259 0.24978 0.0
C638 C 0.24113 0.22023 0.25042 0.0
C639 C 0.25743 0.28834 0.23793 0.0
C640 C 0.30091 0.27257 0.26025 0.0
C641 C 0.28483 0.3483 0.29341 0.0
C642 C 0.26475 0.37442 0.29492 0.0
C643 C 0.26045 0.35992 0.27994 0.0
C644 C 0.27034 0.34698 0.27922 0.0
C645 C 0.28923 0.36274 0.30842 0.0
C646 C 0.27923 0.37575 0.30919 0.0
C647 C 0.29375 0.33341 0.2933 0.0
H648 H 0.27718 0.19613 0.28895 0.0
H649 H 0.26478 0.22099 0.28071 0.0
H650 H 0.23052 0.18446 0.23264 0.0
H651 H 0.24294 0.15924 0.24084 0.0
H652 H 0.24914 0.35835 0.26892 0.0
H653 H 0.26639 0.33571 0.2677 0.0
H654 H 0.30015 0.36376 0.31965 0.0
H655 H 0.28284 0.38685 0.32086 0.0
Dy656 Dy 0.52866 0.50542 0.01512 0.0
Dy657 Dy 0.52372 0.54775 0.02409 0.0
C658 C 0.49029 0.51084 0.02423 0.0
O659 O 0.51599 0.51159 0.98844 0.0
O660 O 0.52764 0.5435 0.99461 0.0
O661 O 0.51668 0.47604 0.00423 0.0
O662 O 0.54563 0.4868 0.01702 0.0
O663 O 0.55427 0.55118 0.02683 0.0
O664 O 0.55433 0.52509 0.00759 0.0
O665 O 0.52411 0.53752 0.05152 0.0
O666 O 0.54 0.51633 0.04479 0.0
O667 O 0.5337 0.57684 0.03656 0.0
O668 O 0.50706 0.56607 0.01883 0.0
C669 C 0.51979 0.5281 0.98293 0.0
O670 O 0.50266 0.50218 0.0281 0.0
O671 O 0.49512 0.52705 0.01831 0.0
C672 C 0.52879 0.45624 0.02184 0.0
C673 C 0.52418 0.42647 0.04304 0.0
C674 C 0.50855 0.43102 0.03513 0.0
C675 C 0.51082 0.44574 0.02468 0.0
C676 C 0.54439 0.4516 0.02963 0.0
C677 C 0.54213 0.43697 0.04016 0.0
C678 C 0.53153 0.47189 0.01076 0.0
C679 C 0.56295 0.54195 0.01661 0.0
C680 C 0.5339 0.52662 0.05678 0.0
C681 C 0.52504 0.59669 0.01692 0.0
C682 C 0.53282 0.62588 0.99511 0.0
C683 C 0.54194 0.61202 0.99366 0.0
C684 C 0.53805 0.59755 0.00442 0.0
C685 C 0.51596 0.61045 0.01848 0.0
C686 C 0.51978 0.62487 0.00769 0.0
C687 C 0.51995 0.58094 0.02751 0.0
H688 H 0.49455 0.42336 0.03721 0.0
H689 H 0.49847 0.44889 0.0189 0.0
H690 H 0.55839 0.4593 0.02756 0.0
H691 H 0.55445 0.43369 0.04583 0.0
H692 H 0.55219 0.6124 0.9843 0.0
H693 H 0.54508 0.58693 0.00288 0.0
H694 H 0.50568 0.60988 0.02785 0.0
H695 H 0.51218 0.63501 0.00897 0.0
Dy696 Dy 0.77674 0.30215 0.25687 0.0
Dy697 Dy 0.76906 0.25953 0.26817 0.0
C698 C 0.76502 0.29319 0.2952 0.0
O699 O 0.80395 0.30141 0.27253 0.0
O700 O 0.79966 0.26987 0.26677 0.0
O701 O 0.78782 0.33188 0.26586 0.0
O702 O 0.7738 0.32134 0.23781 0.0
O703 O 0.77169 0.25701 0.23813 0.0
O704 O 0.7882 0.28723 0.23546 0.0
O705 O 0.74059 0.26345 0.26314 0.0
O706 O 0.74747 0.28569 0.24391 0.0
O707 O 0.75648 0.22951 0.26254 0.0
O708 O 0.77414 0.24242 0.28855 0.0
C709 C 0.81068 0.28708 0.27169 0.0
O710 O 0.76087 0.30048 0.28069 0.0
O711 O 0.77286 0.27982 0.29388 0.0
C712 C 0.769 0.34858 0.25274 0.0
C713 C 0.74668 0.37277 0.25672 0.0
C714 C 0.74511 0.35823 0.26745 0.0
C715 C 0.75609 0.34623 0.26543 0.0
C716 C 0.77065 0.36302 0.24201 0.0
C717 C 0.75961 0.375 0.24396 0.0
C718 C 0.78061 0.33597 0.25057 0.0
C719 C 0.78251 0.2692 0.22941 0.0
C720 C 0.73519 0.27313 0.25104 0.0
C721 C 0.77596 0.21309 0.27585 0.0
C722 C 0.79788 0.18836 0.27395 0.0
C723 C 0.79379 0.19666 0.25849 0.0
C724 C 0.78304 0.209 0.25946 0.0
C725 C 0.77981 0.20462 0.29119 0.0
C726 C 0.79069 0.19244 0.29029 0.0
C727 C 0.76545 0.22682 0.27763 0.0
H728 H 0.73554 0.35622 0.27759 0.0
H729 H 0.75455 0.33514 0.27385 0.0
H730 H 0.78044 0.36499 0.23207 0.0
H731 H 0.76102 0.38584 0.23527 0.0
H732 H 0.79928 0.19395 0.24577 0.0
H733 H 0.78048 0.21552 0.24748 0.0
H734 H 0.77458 0.20763 0.304 0.0
H735 H 0.79343 0.18615 0.30238 0.0
Dy736 Dy 0.03276 0.55171 0.49772 0.0
Dy737 Dy 0.03488 0.52751 0.5315 0.0
C738 C 0.04185 0.51283 0.49204 0.0
O739 O 0.00417 0.54353 0.50585 0.0
O740 O 0.00675 0.51645 0.51455 0.0
O741 O 0.01944 0.5539 0.47103 0.0
O742 O 0.04327 0.57661 0.48541 0.0
O743 O 0.02303 0.54982 0.54259 0.0
O744 O 0.0344 0.57128 0.52356 0.0
O745 O 0.06176 0.55035 0.53564 0.0
O746 O 0.06291 0.55408 0.50531 0.0
O747 O 0.04515 0.52434 0.55905 0.0
O748 O 0.02534 0.50079 0.54102 0.0
C749 C 0.99644 0.52707 0.51032 0.0
O750 O 0.03156 0.52268 0.48538 0.0
O751 O 0.04849 0.51577 0.50968 0.0
C752 C 0.04109 0.57021 0.45328 0.0
C753 C 0.06078 0.57233 0.42272 0.0
C754 C 0.05705 0.5563 0.43148 0.0
C755 C 0.04739 0.5553 0.4467 0.0
C756 C 0.04449 0.58612 0.44448 0.0
C757 C 0.05427 0.58719 0.42929 0.0
C758 C 0.03198 0.56967 0.46995 0.0
C759 C 0.02722 0.56699 0.53866 0.0
C760 C 0.07113 0.55639 0.52239 0.0
C761 C 0.02075 0.50594 0.57189 0.0
C762 C 1.00073 0.51006 0.60141 0.0
C763 C 0.99584 0.51544 0.58438 0.0
C764 C 0.00574 0.51335 0.56975 0.0
C765 C 0.02497 0.49943 0.58836 0.0
C766 C 0.0149 0.50134 0.60302 0.0
C767 C 0.03336 0.50767 0.55793 0.0
H768 H 0.06161 0.54449 0.4266 0.0
H769 H 0.04501 0.54295 0.45344 0.0
H770 H 0.03988 0.59783 0.44956 0.0
H771 H 0.05712 0.59981 0.42299 0.0
H772 H 0.98522 0.52241 0.58266 0.0
H773 H 0.00238 0.51854 0.55709 0.0
H774 H 0.03655 0.49371 0.59019 0.0
H775 H 0.01876 0.49672 0.61585 0.0
Dy776 Dy 0.79709 0.77733 0.27685 0.0
Dy777 Dy 0.75546 0.78489 0.26964 0.0
C778 C 0.79275 0.81552 0.2639 0.0
O779 O 0.78809 0.78131 0.30475 0.0
O780 O 0.76975 0.79976 0.29759 0.0
O781 O 0.82624 0.78616 0.2891 0.0
O782 O 0.81416 0.75917 0.272 0.0
O783 O 0.75216 0.76075 0.28516 0.0
O784 O 0.77493 0.74978 0.27438 0.0
O785 O 0.75894 0.76962 0.24286 0.0
O786 O 0.79111 0.77666 0.24655 0.0
O787 O 0.72574 0.7737 0.26019 0.0
O788 O 0.73766 0.80271 0.27266 0.0
C789 C 0.77908 0.79318 0.30982 0.0
O790 O 0.80261 0.80752 0.27415 0.0
O791 O 0.77478 0.80773 0.25797 0.0
C792 C 0.84575 0.77504 0.26991 0.0
C793 C 0.87599 0.7804 0.24903 0.0
C794 C 0.87078 0.79575 0.25675 0.0
C795 C 0.85577 0.7931 0.267 0.0
C796 C 0.85111 0.75977 0.26239 0.0
C797 C 0.86597 0.76239 0.25201 0.0
C798 C 0.82952 0.77167 0.28033 0.0
C799 C 0.75937 0.74712 0.28167 0.0
C800 C 0.7747 0.77053 0.23624 0.0
C801 C 0.70702 0.78695 0.27842 0.0
C802 C 0.67708 0.78362 0.29961 0.0
C803 C 0.68418 0.76851 0.29561 0.0
C804 C 0.69898 0.77016 0.28516 0.0
C805 C 0.70009 0.80206 0.28255 0.0
C806 C 0.68538 0.80046 0.29305 0.0
C807 C 0.72232 0.78894 0.26687 0.0
H808 H 0.8781 0.80978 0.25457 0.0
H809 H 0.85194 0.80517 0.27251 0.0
H810 H 0.84368 0.74572 0.26446 0.0
H811 H 0.86976 0.7503 0.24647 0.0
H812 H 0.67809 0.75527 0.30025 0.0
H813 H 0.704 0.75822 0.28227 0.0
H814 H 0.70607 0.81518 0.27761 0.0
H815 H 0.68062 0.81253 0.29616 0.0
Dy816 Dy 0.78987 0.28584 0.75642 0.0
Dy817 Dy 0.77303 0.293 0.79478 0.0
C818 C 0.79255 0.32677 0.77484 0.0
O819 O 0.81151 0.28224 0.77735 0.0
O820 O 0.80399 0.29756 0.80294 0.0
O821 O 0.80921 0.29333 0.73674 0.0
O822 O 0.78569 0.26801 0.73035 0.0
O823 O 0.77752 0.2652 0.79427 0.0
O824 O 0.77351 0.2582 0.76296 0.0
O825 O 0.74859 0.28415 0.77186 0.0
O826 O 0.76502 0.29518 0.74907 0.0
O827 O 0.75137 0.28373 0.81165 0.0
O828 O 0.77399 0.30951 0.82102 0.0
C829 C 0.81543 0.28996 0.79479 0.0
O830 O 0.80173 0.31623 0.76726 0.0
O831 O 0.77825 0.31976 0.78334 0.0
C832 C 0.791 0.2866 0.70721 0.0
C833 C 0.76934 0.29558 0.67821 0.0
C834 C 0.77748 0.30871 0.69414 0.0
C835 C 0.7881 0.30423 0.70855 0.0
C836 C 0.78347 0.27371 0.69107 0.0
C837 C 0.7727 0.27814 0.67668 0.0
C838 C 0.79835 0.28035 0.72378 0.0
C839 C 0.77464 0.25305 0.77936 0.0
C840 C 0.74914 0.28983 0.75561 0.0
C841 C 0.76536 0.28855 0.84214 0.0
C842 C 0.77244 0.26633 0.86846 0.0
C843 C 0.78607 0.27378 0.85745 0.0
C844 C 0.78253 0.28473 0.84441 0.0
C845 C 0.75196 0.28182 0.85359 0.0
C846 C 0.7555 0.27078 0.86674 0.0
C847 C 0.76045 0.29637 0.8257 0.0
H848 H 0.77545 0.3224 0.69558 0.0
H849 H 0.79339 0.31431 0.72104 0.0
H850 H 0.78515 0.25989 0.68997 0.0
H851 H 0.76648 0.26768 0.66463 0.0
H852 H 0.79909 0.27031 0.85815 0.0
H853 H 0.79282 0.28934 0.83536 0.0
H854 H 0.7385 0.28435 0.85178 0.0
H855 H 0.74481 0.26531 0.87518 0.0
Dy856 Dy 0.7571 0.75838 0.7626 0.0
Dy857 Dy 0.78206 0.80015 0.78255 0.0
C858 C 0.7771 0.76487 0.80394 0.0
O859 O 0.7387 0.76937 0.77995 0.0
O860 O 0.75221 0.8006 0.78012 0.0
O861 O 0.735 0.73297 0.76302 0.0
O862 O 0.74956 0.73631 0.73915 0.0
O863 O 0.77734 0.80152 0.75235 0.0
O864 O 0.74992 0.77768 0.74425 0.0
O865 O 0.80311 0.78502 0.77786 0.0
O866 O 0.78561 0.76325 0.75359 0.0
O867 O 0.80502 0.82528 0.78331 0.0
O868 O 0.78779 0.82264 0.80528 0.0
C869 C 0.73794 0.7866 0.78248 0.0
O870 O 0.77318 0.75382 0.78802 0.0
O871 O 0.77752 0.78242 0.8049 0.0
C872 C 0.74161 0.70673 0.7486 0.0
C873 C 0.75166 0.67376 0.74951 0.0
C874 C 0.75573 0.68722 0.7654 0.0
C875 C 0.75083 0.70357 0.76493 0.0
C876 C 0.73704 0.69313 0.73283 0.0
C877 C 0.74208 0.67674 0.73326 0.0
C878 C 0.7381 0.72473 0.74765 0.0
C879 C 0.76202 0.79285 0.74078 0.0
C880 C 0.80195 0.77268 0.76334 0.0
C881 C 0.79712 0.85181 0.79541 0.0
C882 C 0.78488 0.88328 0.79224 0.0
C883 C 0.78451 0.87081 0.77641 0.0
C884 C 0.79043 0.85514 0.77799 0.0
C885 C 0.79842 0.86469 0.81112 0.0
C886 C 0.79233 0.88031 0.80957 0.0
C887 C 0.8004 0.8339 0.79759 0.0
H888 H 0.76345 0.6855 0.778 0.0
H889 H 0.75475 0.71399 0.77721 0.0
H890 H 0.73004 0.69541 0.72008 0.0
H891 H 0.73879 0.66658 0.72083 0.0
H892 H 0.77915 0.87289 0.76283 0.0
H893 H 0.78913 0.84529 0.76565 0.0
H894 H 0.80334 0.86221 0.82469 0.0
H895 H 0.79261 0.88953 0.82206 0.0
Dy896 Dy 0.54886 0.53979 0.53115 0.0
Dy897 Dy 0.50457 0.51794 0.5165 0.0
C898 C 0.5359 0.51712 0.49049 0.0
O899 O 0.53851 0.55853 0.51411 0.0
O900 O 0.50773 0.54858 0.51811 0.0
O901 O 0.57572 0.5569 0.52616 0.0
O902 O 0.57236 0.54836 0.55305 0.0
O903 O 0.50717 0.52564 0.54702 0.0
O904 O 0.53322 0.55116 0.55137 0.0
O905 O 0.51724 0.49503 0.52049 0.0
O906 O 0.54309 0.51194 0.54122 0.0
O907 O 0.47924 0.49617 0.51832 0.0
O908 O 0.47913 0.5151 0.49831 0.0
C909 C 0.522 0.56115 0.51353 0.0
O910 O 0.54844 0.52098 0.50532 0.0
O911 O 0.51893 0.51823 0.49142 0.0
C912 C 0.60022 0.54877 0.54145 0.0
C913 C 0.63089 0.53508 0.53835 0.0
C914 C 0.61249 0.52331 0.53245 0.0
C915 C 0.59731 0.53009 0.53401 0.0
C916 C 0.61846 0.56059 0.54748 0.0
C917 C 0.63374 0.55379 0.54595 0.0
C918 C 0.58415 0.55585 0.54221 0.0
C919 C 0.51791 0.54131 0.55693 0.0
C920 C 0.53116 0.49585 0.53323 0.0
C921 C 0.45321 0.50745 0.51428 0.0
C922 C 0.4263 0.52259 0.52781 0.0
C923 C 0.44022 0.51949 0.54012 0.0
C924 C 0.45361 0.51207 0.53341 0.0
C925 C 0.43877 0.50967 0.50201 0.0
C926 C 0.42541 0.51722 0.50872 0.0
C927 C 0.469 0.50266 0.50705 0.0
H928 H 0.60982 0.50894 0.52622 0.0
H929 H 0.58326 0.52082 0.52918 0.0
H930 H 0.62088 0.57507 0.55323 0.0
H931 H 0.64774 0.56314 0.55074 0.0
H932 H 0.44138 0.52375 0.55488 0.0
H933 H 0.46473 0.5107 0.54318 0.0
H934 H 0.43828 0.50631 0.48722 0.0
H935 H 0.41472 0.51938 0.49896 0.0
Dy936 Dy 0.00291 0.52249 0.02366 0.0
Dy937 Dy 0.04642 0.53248 0.01339 0.0
C938 C 0.01381 0.5395 0.98742 0.0
O939 O 0.00806 0.49479 0.01792 0.0
O940 O 0.0307 0.50339 -0.00077 0.0
O941 O 0.9733 0.5086 0.01537 0.0
O942 O 0.98321 0.52593 0.04208 0.0
O943 O 0.04568 0.51643 0.03698 0.0
O944 O 0.02044 0.5212 0.04949 0.0
O945 O 0.04562 0.55869 0.03075 0.0
O946 O 0.01375 0.55373 0.02755 0.0
O947 O 0.07629 0.54323 0.02171 0.0
O948 O 0.06515 0.53118 0.99317 0.0
C949 C 0.01847 0.49041 0.00592 0.0
O950 O 0.00233 0.52589 0.99393 0.0
O951 O 0.03145 0.54644 0.99472 0.0
C952 C 0.95472 0.52664 0.02647 0.0
C953 C 0.92892 0.547 0.02168 0.0
C954 C 0.94443 0.55005 0.01197 0.0
C955 C 0.95724 0.53999 0.01438 0.0
C956 C 0.93923 0.5234 0.03604 0.0
C957 C 0.92644 0.53348 0.03368 0.0
C958 C 0.96867 0.51678 0.02993 0.0
C959 C 0.03565 0.516 0.05056 0.0
C960 C 0.03103 0.5648 0.03231 0.0
C961 C 0.09268 0.52547 0.00597 0.0
C962 C 0.11734 0.50342 0.00685 0.0
C963 C 0.10301 0.50085 0.01809 0.0
C964 C 0.09077 0.51169 0.01758 0.0
C965 C 0.10676 0.52798 0.99461 0.0
C966 C 0.11894 0.51705 0.99499 0.0
C967 C 0.08003 0.53717 0.00565 0.0
H968 H 0.94668 0.56018 0.00247 0.0
H969 H 0.96922 0.54277 0.00695 0.0
H970 H 0.93718 0.51329 0.04557 0.0
H971 H 0.91487 0.53097 0.04163 0.0
H972 H 0.10143 0.49071 0.02756 0.0
H973 H 0.0799 0.50941 0.02639 0.0
H974 H 0.10836 0.53842 0.98543 0.0
H975 H 0.12953 0.51922 0.98588 0.0
H976 H 0.02361 0.21647 0.95251 0.0
H977 H 0.02894 0.18795 0.96157 0.0
H978 H 0.975 0.17289 0.98056 0.0
H979 H 0.97009 0.20165 0.97241 0.0
H980 H 0.9968 0.16476 0.00379 0.0
H981 H 0.98574 0.15165 0.93771 0.0
H982 H 0.99047 0.15677 0.90579 0.0
H983 H 0.04695 0.1549 0.91665 0.0
H984 H 0.04263 0.15001 0.94872 0.0
H985 H 0.98917 0.06889 0.00883 0.0
H986 H 0.98448 0.09743 -0.00078 0.0
H987 H 0.042 0.11607 0.98967 0.0
H988 H 0.04678 0.0876 -0.00084 0.0
H989 H 0.0187 0.1221 0.96171 0.0
H990 H 0.02793 0.13433 0.02851 0.0
H991 H 0.02105 0.12748 0.0595 0.0
H992 H 0.9648 0.12903 0.04566 0.0
H993 H 0.97125 0.1356 0.01448 0.0
C994 C 0.0129 0.20707 0.95862 0.0
C995 C 0.99642 0.21145 0.96171 0.0
C996 C 0.01589 0.19063 0.96371 0.0
C997 C 0.00226 0.17788 0.97156 0.0
C998 C 0.98583 0.18234 0.97462 0.0
C999 C 0.98301 0.19887 0.96988 0.0
C1000 C 0.00505 0.16008 0.97687 0.0
C1001 C 1.00135 0.15538 0.9944 0.0
C1002 C 0.01127 0.14771 0.96493 0.0
C1003 C 0.01392 0.15067 0.94567 0.0
C1004 C 0.99921 0.15248 0.93333 0.0
C1005 C 1.00181 0.15531 0.91521 0.0
C1006 C 0.01902 0.15622 0.90922 0.0
C1007 C 0.03364 0.15424 0.92132 0.0
C1008 C 0.03112 0.15142 0.93947 0.0
C1009 C 1.00084 0.07904 0.00469 0.0
C1010 C 0.0184 0.07589 0.0049 0.0
C1011 C 0.99815 0.09543 -0.00076 0.0
C1012 C 0.01293 0.10911 0.99385 0.0
C1013 C 0.03036 0.10583 0.99376 0.0
C1014 C 0.03309 0.08951 -0.00071 0.0
C1015 C 0.01035 0.12688 0.98848 0.0
C1016 C 0.01413 0.13155 0.971 0.0
C1017 C 0.00387 0.13904 0.00031 0.0
C1018 C 1.00004 0.1353 0.01912 0.0
C1019 C 0.01405 0.13309 0.03204 0.0
C1020 C 0.01023 0.12926 0.04964 0.0
C1021 C 0.99248 0.12777 0.05453 0.0
C1022 C 0.97853 0.13015 0.04184 0.0
C1023 C 0.98227 0.13394 0.02421 0.0
H1024 H 0.98954 0.1248 0.06816 0.0
H1025 H 0.021 0.15842 0.89518 0.0
H1026 H 0.13084 0.82274 0.1425 0.0
H1027 H 0.15432 0.82039 0.16676 0.0
H1028 H 0.11126 0.78227 0.19004 0.0
H1029 H 0.08748 0.78515 0.16604 0.0
H1030 H 0.13743 0.80437 0.21706 0.0
H1031 H 0.13861 0.7665 0.16029 0.0
H1032 H 0.14047 0.76027 0.127 0.0
H1033 H 0.19482 0.80106 0.13476 0.0
H1034 H 0.1932 0.80773 0.16807 0.0
H1035 H 0.20562 0.77046 0.26732 0.0
H1036 H 0.17842 0.77277 0.24725 0.0
H1037 H 0.21541 0.81143 0.21865 0.0
H1038 H 0.24232 0.80897 0.23814 0.0
H1039 H 0.1904 0.78612 0.19455 0.0
H1040 H 0.1892 0.82535 0.25021 0.0
H1041 H 0.18789 0.83301 0.28344 0.0
H1042 H 0.13452 0.79089 0.27787 0.0
H1043 H 0.13566 0.78284 0.24463 0.0
C1044 C 0.1263 0.81408 0.15295 0.0
C1045 C 0.1073 0.80399 0.15223 0.0
C1046 C 0.13978 0.81264 0.16677 0.0
C1047 C 0.13469 0.80069 0.17994 0.0
C1048 C 0.11558 0.79145 0.17994 0.0
C1049 C 0.10199 0.79313 0.16624 0.0
C1050 C 0.14944 0.79722 0.19301 0.0
C1051 C 0.14885 0.80009 0.21213 0.0
C1052 C 0.16457 0.7919 0.18666 0.0
C1053 C 0.1657 0.78771 0.16666 0.0
C1054 C 0.15092 0.77421 0.15488 0.0
C1055 C 0.15194 0.7706 0.13601 0.0
C1056 C 0.16774 0.7803 0.12877 0.0
C1057 C 0.18259 0.79358 0.14039 0.0
C1058 C 0.18163 0.79726 0.15927 0.0
C1059 C 0.20791 0.77945 0.25676 0.0
C1060 C 0.22621 0.78936 0.2543 0.0
C1061 C 0.19235 0.78084 0.24535 0.0
C1062 C 0.19482 0.79231 0.2314 0.0
C1063 C 0.21307 0.80237 0.22916 0.0
C1064 C 0.22851 0.80092 0.2404 0.0
C1065 C 0.17864 0.79365 0.21865 0.0
C1066 C 0.17891 0.79027 0.19953 0.0
C1067 C 0.16335 0.7986 0.22503 0.0
C1068 C 0.16264 0.80335 0.245 0.0
C1069 C 0.17727 0.81762 0.25612 0.0
C1070 C 0.17654 0.82205 0.27494 0.0
C1071 C 0.16115 0.8124 0.28278 0.0
C1072 C 0.14645 0.79833 0.27179 0.0
C1073 C 0.14713 0.79384 0.25296 0.0
H1074 H 0.1606 0.81585 0.29735 0.0
H1075 H 0.1685 0.77751 0.11415 0.0
H1076 H 0.52676 0.82586 0.45004 0.0
H1077 H 0.5322 0.85954 0.45834 0.0
H1078 H 0.50539 0.84954 0.50685 0.0
H1079 H 0.49992 0.81605 0.49872 0.0
H1080 H 0.48978 0.86975 0.48572 0.0
H1081 H 0.55251 0.87265 0.51136 0.0
H1082 H 0.58322 0.86729 0.51057 0.0
H1083 H 0.5929 0.89896 0.46565 0.0
H1084 H 0.56221 0.90447 0.46616 0.0
H1085 H 0.50315 0.96235 0.5274 0.0
H1086 H 0.5035 0.93007 0.52072 0.0
H1087 H 0.53534 0.94427 0.47609 0.0
H1088 H 0.5355 0.97672 0.48303 0.0
H1089 H 0.54896 0.92206 0.49418 0.0
H1090 H 0.48745 0.92002 0.46836 0.0
H1091 H 0.45663 0.92535 0.46786 0.0
H1092 H 0.44396 0.89139 0.51069 0.0
H1093 H 0.47482 0.88606 0.51162 0.0
C1094 C 0.52245 0.83086 0.46273 0.0
C1095 C 0.51277 0.81816 0.47362 0.0
C1096 C 0.52556 0.85016 0.46746 0.0
C1097 C 0.5191 0.85712 0.48319 0.0
C1098 C 0.5104 0.84454 0.49459 0.0
C1099 C 0.50733 0.82534 0.48992 0.0
C1100 C 0.51974 0.87713 0.48694 0.0
C1101 C 0.50277 0.88117 0.48785 0.0
C1102 C 0.53657 0.8921 0.48901 0.0
C1103 C 0.555 0.8888 0.48867 0.0
C1104 C 0.56113 0.87835 0.50123 0.0
C1105 C 0.57854 0.87531 0.50085 0.0
C1106 C 0.58995 0.88267 0.48799 0.0
C1107 C 0.58401 0.89317 0.47553 0.0
C1108 C 0.56664 0.89632 0.47591 0.0
C1109 C 0.51012 0.95861 0.51607 0.0
C1110 C 0.51913 0.97216 0.50565 0.0
C1111 C 0.5103 0.94009 0.51224 0.0
C1112 C 0.51923 0.93456 0.4977 0.0
C1113 C 0.52834 0.9481 0.48736 0.0
C1114 C 0.52831 0.96667 0.49129 0.0
C1115 C 0.51898 0.91468 0.49327 0.0
C1116 C 0.53597 0.91065 0.4921 0.0
C1117 C 0.50211 0.89966 0.49072 0.0
C1118 C 0.48352 0.9028 0.49018 0.0
C1119 C 0.47815 0.91381 0.47777 0.0
C1120 C 0.46066 0.91681 0.47739 0.0
C1121 C 0.44837 0.90875 0.48927 0.0
C1122 C 0.45351 0.89764 0.50152 0.0
C1123 C 0.47099 0.89461 0.50196 0.0
H1124 H 0.43484 0.91109 0.48896 0.0
H1125 H 0.60345 0.88035 0.48775 0.0
H1126 H 0.4851 0.30549 0.62272 0.0
H1127 H 0.46153 0.30319 0.6435 0.0
H1128 H 0.49233 0.27859 0.68055 0.0
H1129 H 0.51606 0.28081 0.65974 0.0
H1130 H 0.45461 0.26004 0.67516 0.0
H1131 H 0.49388 0.3233 0.69134 0.0
H1132 H 0.51107 0.35485 0.68574 0.0
H1133 H 0.45944 0.36301 0.6638 0.0
H1134 H 0.44195 0.33138 0.66901 0.0
H1135 H 0.40541 0.27057 0.75133 0.0
H1136 H 0.43001 0.27313 0.7317 0.0
H1137 H 0.40034 0.29718 0.69305 0.0
H1138 H 0.37536 0.29421 0.71232 0.0
H1139 H 0.43811 0.31614 0.69997 0.0
H1140 H 0.39896 0.25271 0.68315 0.0
H1141 H 0.38171 0.22115 0.68866 0.0
H1142 H 0.43313 0.21336 0.71182 0.0
H1143 H 0.45067 0.24501 0.70669 0.0
C1144 C 0.48691 0.29956 0.63527 0.0
C1145 C 0.50255 0.29337 0.63956 0.0
C1146 C 0.47342 0.29834 0.64719 0.0
C1147 C 0.47523 0.2909 0.66371 0.0
C1148 C 0.49065 0.28443 0.66791 0.0
C1149 C 0.50424 0.28575 0.65602 0.0
C1150 C 0.46093 0.28986 0.67647 0.0
C1151 C 0.45122 0.27236 0.68082 0.0
C1152 C 0.45617 0.30585 0.68354 0.0
C1153 C 0.46663 0.32489 0.6804 0.0
C1154 C 0.48621 0.33176 0.68517 0.0
C1155 C 0.496 0.34967 0.68209 0.0
C1156 C 0.48636 0.36091 0.67437 0.0
C1157 C 0.46689 0.35427 0.66975 0.0
C1158 C 0.45703 0.33636 0.67278 0.0
C1159 C 0.40395 0.27622 0.73857 0.0
C1160 C 0.38823 0.28206 0.73343 0.0
C1161 C 0.41811 0.27776 0.72738 0.0
C1162 C 0.41696 0.28519 0.71079 0.0
C1163 C 0.40156 0.29142 0.7058 0.0
C1164 C 0.38731 0.28979 0.71692 0.0
C1165 C 0.43176 0.28633 0.69861 0.0
C1166 C 0.44156 0.30384 0.69436 0.0
C1167 C 0.4366 0.27035 0.69163 0.0
C1168 C 0.4261 0.25131 0.69472 0.0
C1169 C 0.40657 0.24433 0.68957 0.0
C1170 C 0.39675 0.22642 0.6926 0.0
C1171 C 0.40631 0.21528 0.70064 0.0
C1172 C 0.42574 0.22202 0.70562 0.0
C1173 C 0.43563 0.23995 0.70265 0.0
H1174 H 0.39868 0.2014 0.70296 0.0
H1175 H 0.49397 0.37477 0.67201 0.0
H1176 H 0.0295 0.78122 0.61816 0.0
H1177 H 0.03129 0.80731 0.60089 0.0
H1178 H 0.00569 0.83275 0.64201 0.0
H1179 H 0.00349 0.80644 0.6592 0.0
H1180 H 0.99085 0.83541 0.60872 0.0
H1181 H 0.05331 0.84924 0.63945 0.0
H1182 H 0.08306 0.8432 0.64918 0.0
H1183 H 0.09174 0.83443 0.5925 0.0
H1184 H 0.0619 0.84016 0.5824 0.0
H1185 H 0.01396 0.92468 0.57771 0.0
H1186 H 0.01213 0.8995 0.59629 0.0
H1187 H 0.03297 0.86975 0.55422 0.0
H1188 H 0.0344 0.89458 0.53532 0.0
H1189 H 0.05052 0.87021 0.58898 0.0
H1190 H 0.98722 0.85595 0.55867 0.0
H1191 H 0.95767 0.86265 0.54959 0.0
H1192 H 0.95104 0.87326 0.6067 0.0
H1193 H 0.98071 0.86688 0.61613 0.0
C1194 C 0.02427 0.79236 0.62358 0.0
C1195 C 0.01641 0.79171 0.64014 0.0
C1196 C 0.02539 0.80736 0.61371 0.0
C1197 C 0.01888 0.82222 0.62023 0.0
C1198 C 0.01085 0.82152 0.63667 0.0
C1199 C 0.00965 0.80646 0.64653 0.0
C1200 C 0.02025 0.83832 0.60977 0.0
C1201 C 0.00397 0.84318 0.60467 0.0
C1202 C 0.03728 0.84836 0.60414 0.0
C1203 C 0.05527 0.84495 0.61016 0.0
C1204 C 0.06149 0.84588 0.62904 0.0
C1205 C 0.07838 0.84254 0.63463 0.0
C1206 C 0.08926 0.83839 0.62146 0.0
C1207 C 0.08329 0.83762 0.60268 0.0
C1208 C 0.06639 0.84093 0.59702 0.0
C1209 C 0.01794 0.9127 0.57225 0.0
C1210 C 0.0243 0.91176 0.5549 0.0
C1211 C 0.01696 0.89832 0.58297 0.0
C1212 C 0.02231 0.88264 0.57664 0.0
C1213 C 0.02883 0.88172 0.55945 0.0
C1214 C 0.02972 0.89603 0.54868 0.0
C1215 C 0.02112 0.86717 0.58788 0.0
C1216 C 0.03742 0.86245 0.59311 0.0
C1217 C 0.00416 0.85737 0.59375 0.0
C1218 C 0.98628 0.86113 0.58811 0.0
C1219 C 0.97954 0.85986 0.5693 0.0
C1220 C 0.96276 0.86357 0.56409 0.0
C1221 C 0.95251 0.86843 0.57756 0.0
C1222 C 0.95901 0.86953 0.59628 0.0
C1223 C 0.9758 0.86585 0.60156 0.0
H1224 H 0.93952 0.8713 0.5735 0.0
H1225 H 0.10234 0.8358 0.62581 0.0
H1226 H 0.45945 0.76664 0.84942 0.0
H1227 H 0.43025 0.76427 0.83024 0.0
H1228 H 0.46037 0.80538 0.7992 0.0
H1229 H 0.48993 0.80773 0.81853 0.0
H1230 H 0.43077 0.81441 0.81168 0.0
H1231 H 0.43972 0.76071 0.77914 0.0
H1232 H 0.44596 0.73042 0.77388 0.0
H1233 H 0.39661 0.70423 0.79695 0.0
H1234 H 0.39041 0.73443 0.80298 0.0
H1235 H 0.34195 0.80466 0.75814 0.0
H1236 H 0.37455 0.80584 0.76715 0.0
H1237 H 0.35639 0.76346 0.8017 0.0
H1238 H 0.32388 0.76201 0.79262 0.0
H1239 H 0.38188 0.75597 0.78218 0.0
H1240 H 0.37651 0.8105 0.81959 0.0
H1241 H 0.36989 0.84063 0.82498 0.0
H1242 H 0.41215 0.86472 0.79229 0.0
H1243 H 0.41884 0.83464 0.78652 0.0
C1244 C 0.45996 0.77483 0.83819 0.0
C1245 C 0.47703 0.78732 0.83544 0.0
C1246 C 0.44321 0.77344 0.82718 0.0
C1247 C 0.44301 0.78459 0.81318 0.0
C1248 C 0.46015 0.79658 0.80988 0.0
C1249 C 0.47706 0.79779 0.8208 0.0
C1250 C 0.42468 0.78478 0.80338 0.0
C1251 C 0.42024 0.80167 0.80485 0.0
C1252 C 0.4107 0.76813 0.79478 0.0
C1253 C 0.41469 0.74996 0.79167 0.0
C1254 C 0.43035 0.74857 0.78337 0.0
C1255 C 0.43388 0.73138 0.78025 0.0
C1256 C 0.42175 0.71542 0.78519 0.0
C1257 C 0.40608 0.71661 0.79327 0.0
C1258 C 0.40256 0.73378 0.79656 0.0
C1259 C 0.34488 0.79564 0.76773 0.0
C1260 C 0.3302 0.78332 0.77472 0.0
C1261 C 0.36358 0.79637 0.7729 0.0
C1262 C 0.36804 0.78484 0.78524 0.0
C1263 C 0.35339 0.77249 0.79215 0.0
C1264 C 0.33474 0.77176 0.78701 0.0
C1265 C 0.38786 0.78546 0.79102 0.0
C1266 C 0.39254 0.76872 0.78878 0.0
C1267 C 0.40203 0.8022 0.79898 0.0
C1268 C 0.39801 0.82027 0.80244 0.0
C1269 C 0.38427 0.82218 0.81343 0.0
C1270 C 0.38053 0.83925 0.81657 0.0
C1271 C 0.39055 0.85456 0.80893 0.0
C1272 C 0.40437 0.85284 0.79817 0.0
C1273 C 0.40815 0.83579 0.79496 0.0
H1274 H 0.38764 0.86776 0.81139 0.0
H1275 H 0.42445 0.70211 0.78268 0.0
H1276 H 0.49052 0.17401 0.1643 0.0
H1277 H 0.49331 0.15023 0.14047 0.0
H1278 H 0.50415 0.19056 0.10274 0.0
H1279 H 0.50138 0.21467 0.12666 0.0
H1280 H 0.47989 0.15468 0.08614 0.0
H1281 H 0.54007 0.18107 0.12437 0.0
H1282 H 0.56124 0.19065 0.15402 0.0
H1283 H 0.54471 0.13405 0.16515 0.0
H1284 H 0.52324 0.12417 0.13568 0.0
H1285 H 0.51422 0.10093 0.02141 0.0
H1286 H 0.51038 0.1258 0.04341 0.0
H1287 H 0.51176 0.09233 0.08709 0.0
H1288 H 0.51667 0.06786 0.06529 0.0
H1289 H 0.53001 0.12573 0.10042 0.0
H1290 H 0.4696 0.09856 0.0642 0.0
H1291 H 0.44686 0.08758 0.03563 0.0
H1292 H 0.46135 0.14326 0.02194 0.0
H1293 H 0.48437 0.15453 0.05031 0.0
C1294 C 0.4933 0.17788 0.1509 0.0
C1295 C 0.49587 0.19637 0.14749 0.0
C1296 C 0.49495 0.16422 0.13728 0.0
C1297 C 0.49924 0.16867 0.11992 0.0
C1298 C 0.50092 0.18684 0.11609 0.0
C1299 C 0.49933 0.20061 0.12978 0.0
C1300 C 0.50272 0.15447 0.10615 0.0
C1301 C 0.49101 0.14852 0.08911 0.0
C1302 C 0.51687 0.14602 0.11027 0.0
C1303 C 0.52994 0.15191 0.12789 0.0
C1304 C 0.54086 0.17069 0.1332 0.0
C1305 C 0.55292 0.17617 0.14996 0.0
C1306 C 0.55429 0.16298 0.16147 0.0
C1307 C 0.54363 0.14426 0.15622 0.0
C1308 C 0.53152 0.13871 0.13948 0.0
C1309 C 0.51376 0.09889 0.03572 0.0
C1310 C 0.51567 0.08237 0.04158 0.0
C1311 C 0.5114 0.11309 0.0483 0.0
C1312 C 0.51031 0.11088 0.06693 0.0
C1313 C 0.5125 0.09446 0.07283 0.0
C1314 C 0.51528 0.08042 0.06033 0.0
C1315 C 0.50708 0.1257 0.08029 0.0
C1316 C 0.51887 0.13182 0.09732 0.0
C1317 C 0.49277 0.13405 0.07628 0.0
C1318 C 0.47884 0.12735 0.05929 0.0
C1319 C 0.46802 0.10844 0.05503 0.0
C1320 C 0.45507 0.10217 0.03889 0.0
C1321 C 0.4527 0.11471 0.02696 0.0
C1322 C 0.46323 0.13356 0.03118 0.0
C1323 C 0.47621 0.1399 0.0473 0.0
H1324 H 0.44267 0.10982 0.01446 0.0
H1325 H 0.56363 0.16725 0.17445 0.0
H1326 H 0.0662 0.26974 0.3111 0.0
H1327 H 0.0958 0.26979 0.30038 0.0
H1328 H 0.12504 0.31777 0.34121 0.0
H1329 H 0.09522 0.31815 0.35164 0.0
H1330 H 0.14066 0.32124 0.31089 0.0
H1331 H 0.12433 0.27213 0.34736 0.0
H1332 H 0.10424 0.24395 0.35733 0.0
H1333 H 0.10109 0.21235 0.30416 0.0
H1334 H 0.12096 0.24042 0.29377 0.0
H1335 H 0.23061 0.30741 0.30676 0.0
H1336 H 0.20159 0.31094 0.31644 0.0
H1337 H 0.16949 0.26518 0.27441 0.0
H1338 H 0.19848 0.26136 0.26482 0.0
H1339 H 0.1561 0.26152 0.30635 0.0
H1340 H 0.1738 0.31203 0.27063 0.0
H1341 H 0.19537 0.34043 0.26247 0.0
H1342 H 0.1977 0.36988 0.31651 0.0
H1343 H 0.17632 0.34156 0.32511 0.0
C1344 C 0.07888 0.28041 0.31775 0.0
C1345 C 0.07825 0.29385 0.33236 0.0
C1346 C 0.0959 0.28037 0.31165 0.0
C1347 C 0.1129 0.29351 0.32022 0.0
C1348 C 0.11224 0.30739 0.33438 0.0
C1349 C 0.09513 0.30757 0.34036 0.0
C1350 C 0.13125 0.29232 0.31474 0.0
C1351 C 0.1441 0.30822 0.31012 0.0
C1352 C 0.1359 0.27535 0.31353 0.0
C1353 C 0.12399 0.25842 0.31973 0.0
C1354 C 0.11924 0.2592 0.33775 0.0
C1355 C 0.10791 0.24325 0.34348 0.0
C1356 C 0.10135 0.22639 0.33137 0.0
C1357 C 0.10616 0.22543 0.31352 0.0
C1358 C 0.11747 0.24135 0.3077 0.0
C1359 C 0.21739 0.2981 0.29949 0.0
C1360 C 0.21699 0.28406 0.28497 0.0
C1361 C 0.20074 0.30023 0.30501 0.0
C1362 C 0.1832 0.28847 0.29607 0.0
C1363 C 0.18277 0.27447 0.28155 0.0
C1364 C 0.19942 0.27233 0.27603 0.0
C1365 C 0.16534 0.29031 0.30218 0.0
C1366 C 0.15262 0.27453 0.30704 0.0
C1367 C 0.161 0.30744 0.30383 0.0
C1368 C 0.17357 0.3246 0.29857 0.0
C1369 C 0.17898 0.32452 0.28082 0.0
C1370 C 0.19117 0.34061 0.27611 0.0
C1371 C 0.19793 0.35693 0.28898 0.0
C1372 C 0.19246 0.35722 0.30657 0.0
C1373 C 0.18029 0.34116 0.31136 0.0
H1374 H 0.20736 0.36936 0.2853 0.0
H1375 H 0.09258 0.21405 0.33584 0.0
H1376 H 0.99135 0.05161 0.21932 0.0
H1377 H 0.99937 0.05706 0.18858 0.0
H1378 H 0.94171 0.05143 0.16937 0.0
H1379 H 0.93368 0.04654 0.20038 0.0
H1380 H 0.95916 0.02541 0.15016 0.0
H1381 H 0.96869 0.09063 0.16837 0.0
H1382 H 0.98144 0.12099 0.18865 0.0
H1383 H 0.03742 0.12068 0.18254 0.0
H1384 H 0.02501 0.09017 0.16244 0.0
H1385 H 0.97893 0.03035 0.0592 0.0
H1386 H 0.96719 0.03674 0.08818 0.0
H1387 H 0.02396 0.06035 0.11601 0.0
H1388 H 0.03575 0.05483 0.08677 0.0
H1389 H 0.00388 0.07934 0.13002 0.0
H1390 H 0.9964 0.01368 0.11691 0.0
H1391 H 0.98572 0.98237 0.09819 0.0
H1392 H 0.92853 0.98212 0.0968 0.0
H1393 H 0.9389 0.01355 0.11534 0.0
C1394 C 0.9805 0.05211 0.20869 0.0
C1395 C 0.96191 0.04867 0.21219 0.0
C1396 C 0.9851 0.05523 0.19116 0.0
C1397 C 0.97113 0.05462 0.17674 0.0
C1398 C 0.95269 0.05205 0.18039 0.0
C1399 C 0.94815 0.04936 0.19809 0.0
C1400 C 0.97552 0.05431 0.15755 0.0
C1401 C 0.96857 0.03732 0.14555 0.0
C1402 C 0.98837 0.06966 0.15191 0.0
C1403 C 0.9959 0.08802 0.16401 0.0
C1404 C 0.98372 0.09694 0.17149 0.0
C1405 C 0.99089 0.1142 0.18292 0.0
C1406 C 0.01023 0.12274 0.18692 0.0
C1407 C 0.02244 0.11405 0.17945 0.0
C1408 C 0.01534 0.09677 0.16801 0.0
C1409 C 0.98891 0.03703 0.07148 0.0
C1410 C 0.00827 0.04188 0.07079 0.0
C1411 C 0.98218 0.04063 0.08806 0.0
C1412 C 0.99466 0.04861 0.10445 0.0
C1413 C 0.01402 0.05412 0.10361 0.0
C1414 C 0.02076 0.05091 0.0869 0.0
C1415 C 0.98763 0.05033 0.12257 0.0
C1416 C 0.99419 0.0675 0.13444 0.0
C1417 C 0.97472 0.035 0.12833 0.0
C1418 C 0.96843 0.01604 0.11733 0.0
C1419 C 0.98155 0.00699 0.11251 0.0
C1420 C 0.97555 0.98922 0.10195 0.0
C1421 C 0.95646 0.98029 0.09626 0.0
C1422 C 0.94332 0.98908 0.10118 0.0
C1423 C 0.94924 0.00686 0.11173 0.0
H1424 H 0.95184 0.96653 0.08807 0.0
H1425 H 0.01575 0.13611 0.19577 0.0
H1426 H 0.32195 0.65086 0.48862 0.0
H1427 H 0.32378 0.65922 0.45738 0.0
H1428 H 0.26648 0.66006 0.45306 0.0
H1429 H 0.26473 0.65214 0.48418 0.0
H1430 H 0.27772 0.64792 0.41839 0.0
H1431 H 0.29853 0.69802 0.47357 0.0
H1432 H 0.31973 0.71264 0.50265 0.0
H1433 H 0.36741 0.71672 0.47416 0.0
H1434 H 0.34643 0.70187 0.44497 0.0
H1435 H 0.24743 0.71674 0.38467 0.0
H1436 H 0.25737 0.69445 0.40132 0.0
H1437 H 0.31501 0.72235 0.39648 0.0
H1438 H 0.30537 0.74578 0.38136 0.0
H1439 H 0.3134 0.71545 0.42903 0.0
H1440 H 0.29057 0.67735 0.37149 0.0
H1441 H 0.26898 0.66352 0.34252 0.0
H1442 H 0.22637 0.63623 0.37335 0.0
H1443 H 0.24756 0.6501 0.40252 0.0
C1444 C 0.30963 0.65233 0.48074 0.0
C1445 C 0.29333 0.65131 0.48879 0.0
C1446 C 0.31065 0.65695 0.46292 0.0
C1447 C 0.29528 0.66029 0.45304 0.0
C1448 C 0.27844 0.65742 0.46045 0.0
C1449 C 0.27752 0.65315 0.47829 0.0
C1450 C 0.29749 0.67056 0.43716 0.0
C1451 C 0.28574 0.66261 0.42042 0.0
C1452 C 0.30845 0.68952 0.43974 0.0
C1453 C 0.32098 0.69868 0.4572 0.0
C1454 C 0.31354 0.70196 0.47356 0.0
C1455 C 0.3255 0.71027 0.49005 0.0
C1456 C 0.3449 0.71555 0.49027 0.0
C1457 C 0.35238 0.71258 0.47398 0.0
C1458 C 0.34047 0.70421 0.45747 0.0
C1459 C 0.26225 0.71837 0.3874 0.0
C1460 C 0.27556 0.73309 0.38163 0.0
C1461 C 0.2679 0.7053 0.39652 0.0
C1462 C 0.28692 0.70636 0.39963 0.0
C1463 C 0.30026 0.72109 0.394 0.0
C1464 C 0.29467 0.73442 0.38525 0.0
C1465 C 0.29283 0.69312 0.41038 0.0
C1466 C 0.3061 0.70057 0.42625 0.0
C1467 C 0.28343 0.67366 0.40678 0.0
C1468 C 0.2707 0.66481 0.38924 0.0
C1469 C 0.27658 0.66844 0.37211 0.0
C1470 C 0.26441 0.66059 0.35564 0.0
C1471 C 0.24632 0.64903 0.35611 0.0
C1472 C 0.2404 0.64518 0.37302 0.0
C1473 C 0.25251 0.65299 0.38953 0.0
H1474 H 0.23686 0.6431 0.34337 0.0
H1475 H 0.35414 0.72199 0.50305 0.0
H1476 H 0.61886 0.05152 0.7028 0.0
H1477 H 0.5966 0.03558 0.67545 0.0
H1478 H 0.62634 0.99505 0.66701 0.0
H1479 H 0.64885 0.01102 0.69483 0.0
H1480 H 0.6204 0.01252 0.63601 0.0
H1481 H 0.58382 0.97885 0.6764 0.0
H1482 H 0.5691 0.97382 0.70457 0.0
H1483 H 0.53627 0.00982 0.69149 0.0
H1484 H 0.55098 0.01532 0.66338 0.0
H1485 H 0.55576 0.99366 0.55472 0.0
H1486 H 0.57044 0.9855 0.58245 0.0
H1487 H 0.55175 0.02508 0.61641 0.0
H1488 H 0.53626 0.03259 0.58871 0.0
H1489 H 0.55136 0.99581 0.63338 0.0
H1490 H 0.59561 0.03671 0.59989 0.0
H1491 H 0.61043 0.0433 0.57196 0.0
H1492 H 0.62927 0.99488 0.57288 0.0
H1493 H 0.61428 0.98787 0.60064 0.0
C1494 C 0.62059 0.03909 0.69528 0.0
C1495 C 0.63566 0.03257 0.70084 0.0
C1496 C 0.60775 0.02989 0.67976 0.0
C1497 C 0.60972 0.01402 0.66937 0.0
C1498 C 0.62453 0.00719 0.67501 0.0
C1499 C 0.63733 0.01629 0.69083 0.0
C1500 C 0.59729 0.0062 0.65166 0.0
C1501 C 0.60527 0.00822 0.63533 0.0
C1502 C 0.5776 0.00083 0.65089 0.0
C1503 C 0.56854 0.9975 0.66774 0.0
C1504 C 0.57353 0.98578 0.67957 0.0
C1505 C 0.56518 0.98284 0.69553 0.0
C1506 C 0.55176 0.99149 0.69982 0.0
C1507 C 0.54665 0.0031 0.68813 0.0
C1508 C 0.55496 0.0061 0.67215 0.0
C1509 C 0.55458 1.00041 0.56815 0.0
C1510 C 0.54524 0.01402 0.56967 0.0
C1511 C 0.56292 0.9957 0.58395 0.0
C1512 C 0.56256 0.00499 0.60145 0.0
C1513 C 0.55223 0.01776 0.60301 0.0
C1514 C 0.5435 0.02214 0.58722 0.0
C1515 C 0.57454 0.00318 0.61795 0.0
C1516 C 0.56644 0.99935 0.63398 0.0
C1517 C 0.59416 0.00708 0.6185 0.0
C1518 C 0.60367 0.01166 0.60219 0.0
C1519 C 0.60287 0.02746 0.59409 0.0
C1520 C 0.61127 0.03125 0.57828 0.0
C1521 C 0.62073 0.01948 0.57061 0.0
C1522 C 0.62189 0.00395 0.57879 0.0
C1523 C 0.61344 1.00006 0.59456 0.0
H1524 H 0.62719 0.02243 0.55835 0.0
H1525 H 0.54531 0.9892 0.71219 0.0
H1526 H 0.28421 0.3166 0.98069 0.0
H1527 H 0.28176 0.30686 0.94763 0.0
H1528 H 0.24639 0.34133 0.93672 0.0
H1529 H 0.24893 0.35149 0.9701 0.0
H1530 H 0.23592 0.30357 0.91343 0.0
H1531 H 0.2875 0.35982 0.9323 0.0
H1532 H 0.3161 0.38014 0.95223 0.0
H1533 H 0.3446 0.33964 0.93941 0.0
H1534 H 0.31606 0.31894 0.91962 0.0
H1535 H 0.25057 0.30744 0.81984 0.0
H1536 H 0.24777 0.31506 0.85226 0.0
H1537 H 0.29077 0.29027 0.8682 0.0
H1538 H 0.29379 0.28261 0.83559 0.0
H1539 H 0.29639 0.32403 0.88889 0.0
H1540 H 0.24571 0.2677 0.87059 0.0
H1541 H 0.21717 0.24604 0.8517 0.0
H1542 H 0.18708 0.2853 0.86361 0.0
H1543 H 0.21555 0.30735 0.88246 0.0
C1544 C 0.27565 0.32197 0.97137 0.0
C1545 C 0.26694 0.33503 0.97808 0.0
C1546 C 0.27429 0.31635 0.95244 0.0
C1547 C 0.26411 0.32356 0.93977 0.0
C1548 C 0.25435 0.33566 0.94634 0.0
C1549 C 0.25582 0.34144 0.96539 0.0
C1550 C 0.26508 0.31948 0.91979 0.0
C1551 C 0.24903 0.3083 0.90793 0.0
C1552 C 0.28234 0.32528 0.91283 0.0
C1553 C 0.29958 0.33775 0.92461 0.0
C1554 C 0.29981 0.35517 0.93386 0.0
C1555 C 0.31602 0.36677 0.9451 0.0
C1556 C 0.33214 0.36116 0.94712 0.0
C1557 C 0.3321 0.34395 0.93785 0.0
C1558 C 0.31591 0.33229 0.9266 0.0
C1559 C 0.25951 0.30359 0.83018 0.0
C1560 C 0.27248 0.29444 0.82507 0.0
C1561 C 0.25776 0.30786 0.84875 0.0
C1562 C 0.26891 0.30307 0.86265 0.0
C1563 C 0.28199 0.29405 0.85767 0.0
C1564 C 0.28369 0.28967 0.83903 0.0
C1565 C 0.26724 0.30797 0.8824 0.0
C1566 C 0.28321 0.31936 0.89427 0.0
C1567 C 0.24991 0.3023 0.88933 0.0
C1568 C 0.23282 0.28925 0.87781 0.0
C1569 C 0.23306 0.27181 0.86905 0.0
C1570 C 0.21689 0.25944 0.8584 0.0
C1571 C 0.20033 0.26429 0.85649 0.0
C1572 C 0.19992 0.28156 0.86516 0.0
C1573 C 0.21607 0.294 0.87584 0.0
H1574 H 0.1878 0.25462 0.84834 0.0
H1575 H 0.34469 0.37016 0.95582 0.0
H1576 H 0.93914 0.04181 0.32106 0.0
H1577 H 0.9491 0.04221 0.35396 0.0
H1578 H 0.0038 0.04151 0.34201 0.0
H1579 H 0.99372 0.04045 0.30922 0.0
H1580 H 0.99193 0.01611 0.36198 0.0
H1581 H 0.99523 0.08059 0.36545 0.0
H1582 H 0.98321 0.10697 0.36034 0.0
H1583 H 0.94056 0.08787 0.39431 0.0
H1584 H 0.95211 0.06116 0.39935 0.0
H1585 H 0.02684 0.0585 0.4655 0.0
H1586 H 0.01698 0.06162 0.43376 0.0
H1587 H 0.98325 0.00372 0.4237 0.0
H1588 H 0.99346 1.00034 0.45551 0.0
H1589 H 0.98485 0.05903 0.41497 0.0
H1590 H 0.98167 0.98572 0.37909 0.0
H1591 H 0.99685 0.96128 0.38328 0.0
H1592 H 0.04587 0.00261 0.41356 0.0
H1593 H 0.03108 0.02731 0.40934 0.0
C1594 C 0.95341 0.04218 0.32555 0.0
C1595 C 0.96563 0.04104 0.31257 0.0
C1596 C 0.9591 0.04237 0.34436 0.0
C1597 C 0.97722 0.04181 0.35053 0.0
C1598 C 0.9897 0.04173 0.33763 0.0
C1599 C 0.98396 0.04126 0.31888 0.0
C1600 C 0.98293 0.04009 0.37011 0.0
C1601 C 0.99035 0.02552 0.37354 0.0
C1602 C 0.98112 0.05245 0.38526 0.0
C1603 C 0.9744 0.06873 0.38259 0.0
C1604 C 0.98319 0.08192 0.37171 0.0
C1605 C 0.97644 0.09692 0.36879 0.0
C1606 C 0.96104 0.09902 0.37688 0.0
C1607 C 0.95243 0.08618 0.38799 0.0
C1608 C 0.95908 0.07111 0.39088 0.0
C1609 C 0.01738 0.04634 0.45656 0.0
C1610 C 0.01104 0.02909 0.46307 0.0
C1611 C 0.01166 0.04821 0.43839 0.0
C1612 C 0.99943 0.03292 0.42625 0.0
C1613 C 0.99292 0.01568 0.43271 0.0
C1614 C 0.99877 0.01375 0.45091 0.0
C1615 C 0.99381 0.03505 0.40678 0.0
C1616 C 0.98636 0.04962 0.40338 0.0
C1617 C 0.99609 0.02304 0.39159 0.0
C1618 C 0.00517 0.00831 0.39407 0.0
C1619 C 0.9957 0.98959 0.38659 0.0
C1620 C 0.00424 0.97569 0.38898 0.0
C1621 C 0.02229 0.98038 0.39874 0.0
C1622 C 0.03187 0.99899 0.40607 0.0
C1623 C 0.02341 0.01293 0.4037 0.0
H1624 H 0.02886 0.96961 0.40058 0.0
H1625 H 0.95587 0.11067 0.37465 0.0
H1626 H 0.32966 0.69329 0.57452 0.0
H1627 H 0.33178 0.7063 0.60683 0.0
H1628 H 0.30615 0.74718 0.59006 0.0
H1629 H 0.30409 0.73436 0.55768 0.0
H1630 H 0.33139 0.76105 0.62112 0.0
H1631 H 0.27827 0.7053 0.59912 0.0
H1632 H 0.26343 0.67238 0.58517 0.0
H1633 H 0.29581 0.65481 0.62704 0.0
H1634 H 0.31082 0.6877 0.64129 0.0
H1635 H 0.27928 0.77854 0.69095 0.0
H1636 H 0.28981 0.76915 0.66216 0.0
H1637 H 0.31074 0.72913 0.68783 0.0
H1638 H 0.29983 0.73811 0.7166 0.0
H1639 H 0.29235 0.71413 0.65444 0.0
H1640 H 0.34093 0.77057 0.67965 0.0
H1641 H 0.35445 0.80372 0.69341 0.0
H1642 H 0.3303 0.82026 0.64517 0.0
H1643 H 0.31642 0.78721 0.63123 0.0
C1644 C 0.32511 0.7055 0.57766 0.0
C1645 C 0.31635 0.71258 0.56357 0.0
C1646 C 0.32619 0.7128 0.59615 0.0
C1647 C 0.31857 0.72728 0.60078 0.0
C1648 C 0.31191 0.73584 0.58672 0.0
C1649 C 0.31085 0.72856 0.56819 0.0
C1650 C 0.31559 0.73218 0.62001 0.0
C1651 C 0.32284 0.75084 0.62843 0.0
C1652 C 0.30476 0.7187 0.62965 0.0
C1653 C 0.29581 0.69894 0.62112 0.0
C1654 C 0.2823 0.69441 0.60527 0.0
C1655 C 0.27384 0.67576 0.59734 0.0
C1656 C 0.27874 0.6615 0.60513 0.0
C1657 C 0.29205 0.66587 0.62098 0.0
C1658 C 0.30051 0.68451 0.62902 0.0
C1659 C 0.28614 0.76776 0.6905 0.0
C1660 C 0.28877 0.75912 0.70608 0.0
C1661 C 0.29227 0.76249 0.67407 0.0
C1662 C 0.30139 0.7487 0.67297 0.0
C1663 C 0.30383 0.73988 0.68842 0.0
C1664 C 0.29757 0.74503 0.70484 0.0
C1665 C 0.30786 0.74316 0.65548 0.0
C1666 C 0.30123 0.72434 0.64736 0.0
C1667 C 0.31921 0.75651 0.64611 0.0
C1668 C 0.32755 0.77641 0.65445 0.0
C1669 C 0.3384 0.78127 0.67203 0.0
C1670 C 0.34614 0.80005 0.67986 0.0
C1671 C 0.34321 0.81409 0.67018 0.0
C1672 C 0.33255 0.80938 0.65265 0.0
C1673 C 0.32477 0.79063 0.64477 0.0
H1674 H 0.34922 0.82861 0.67626 0.0
H1675 H 0.27219 0.64707 0.59893 0.0
H1676 H 0.64807 0.09453 0.79128 0.0
H1677 H 0.63763 0.09842 0.82131 0.0
H1678 H 0.6554 0.05191 0.8362 0.0
H1679 H 0.66542 0.04756 0.80588 0.0
H1680 H 0.62216 0.04819 0.84423 0.0
H1681 H 0.67883 0.09696 0.85683 0.0
H1682 H 0.70388 0.12441 0.85169 0.0
H1683 H 0.6661 0.1574 0.85311 0.0
H1684 H 0.64069 0.13005 0.85792 0.0
H1685 H 0.59145 0.06383 0.93015 0.0
H1686 H 0.61575 0.06533 0.91025 0.0
H1687 H 0.59375 0.10068 0.87823 0.0
H1688 H 0.56917 0.099 0.89785 0.0
H1689 H 0.63467 0.10957 0.8835 0.0
H1690 H 0.57719 0.05638 0.86529 0.0
H1691 H 0.55384 0.02828 0.87184 0.0
H1692 H 0.59715 0.00291 0.8832 0.0
H1693 H 0.62082 0.03106 0.87712 0.0
C1694 C 0.64985 0.08518 0.80097 0.0
C1695 C 0.65742 0.07064 0.79616 0.0
C1696 C 0.64405 0.08753 0.81821 0.0
C1697 C 0.64599 0.07563 0.83111 0.0
C1698 C 0.65382 0.06128 0.82647 0.0
C1699 C 0.65949 0.05879 0.80913 0.0
C1700 C 0.63843 0.07733 0.84881 0.0
C1701 C 0.62529 0.06154 0.85305 0.0
C1702 C 0.6425 0.09474 0.86034 0.0
C1703 C 0.65778 0.11137 0.85764 0.0
C1704 C 0.6758 0.11002 0.85592 0.0
C1705 C 0.69008 0.12558 0.85307 0.0
C1706 C 0.68658 0.14263 0.85205 0.0
C1707 C 0.66879 0.14417 0.85391 0.0
C1708 C 0.65444 0.12865 0.85673 0.0
C1709 C 0.59191 0.07209 0.91898 0.0
C1710 C 0.57817 0.08097 0.91528 0.0
C1711 C 0.6059 0.07307 0.90778 0.0
C1712 C 0.60637 0.08297 0.89273 0.0
C1713 C 0.59361 0.09305 0.88986 0.0
C1714 C 0.57956 0.09203 0.90104 0.0
C1715 C 0.61818 0.08058 0.87842 0.0
C1716 C 0.63201 0.09621 0.87484 0.0
C1717 C 0.61511 0.06294 0.86771 0.0
C1718 C 0.60079 0.0459 0.87098 0.0
C1719 C 0.58175 0.04487 0.86934 0.0
C1720 C 0.56846 0.02894 0.87297 0.0
C1721 C 0.57402 0.01385 0.87803 0.0
C1722 C 0.59287 0.01464 0.87938 0.0
C1723 C 0.60623 0.03058 0.87585 0.0
H1724 H 0.56372 0.00153 0.88085 0.0
H1725 H 0.69766 0.15465 0.84984 0.0
H1726 H 0.23696 0.34506 0.07612 0.0
H1727 H 0.22913 0.33432 0.10556 0.0
H1728 H 0.2844 0.32866 0.11728 0.0
H1729 H 0.29185 0.33842 0.08803 0.0
H1730 H 0.26138 0.29979 0.12447 0.0
H1731 H 0.26985 0.36605 0.13834 0.0
H1732 H 0.26308 0.39552 0.13425 0.0
H1733 H 0.20643 0.37139 0.14376 0.0
H1734 H 0.21282 0.3417 0.14769 0.0
H1735 H 0.26832 0.32392 0.22972 0.0
H1736 H 0.26467 0.33368 0.19931 0.0
H1737 H 0.23199 0.27722 0.176 0.0
H1738 H 0.2364 0.26723 0.20617 0.0
H1739 H 0.23902 0.33512 0.17336 0.0
H1740 H 0.24267 0.26581 0.13427 0.0
H1741 H 0.25468 0.23953 0.14008 0.0
H1742 H 0.29615 0.27534 0.18361 0.0
H1743 H 0.28454 0.30186 0.17788 0.0
C1744 C 0.24735 0.34148 0.08504 0.0
C1745 C 0.26492 0.34236 0.07964 0.0
C1746 C 0.24292 0.33542 0.10188 0.0
C1747 C 0.25617 0.33061 0.11369 0.0
C1748 C 0.2738 0.33198 0.10838 0.0
C1749 C 0.27806 0.33762 0.09158 0.0
C1750 C 0.25205 0.32378 0.1315 0.0
C1751 C 0.25632 0.30748 0.13507 0.0
C1752 C 0.2456 0.3338 0.14547 0.0
C1753 C 0.24174 0.3516 0.14307 0.0
C1754 C 0.25591 0.36699 0.1394 0.0
C1755 C 0.25215 0.38374 0.13714 0.0
C1756 C 0.23432 0.3853 0.13867 0.0
C1757 C 0.22022 0.37014 0.14253 0.0
C1758 C 0.2239 0.35336 0.14478 0.0
C1759 C 0.26018 0.31364 0.21814 0.0
C1760 C 0.25295 0.29474 0.22023 0.0
C1761 C 0.25801 0.31925 0.20077 0.0
C1762 C 0.24838 0.30612 0.18524 0.0
C1763 C 0.23988 0.28753 0.18766 0.0
C1764 C 0.2424 0.28183 0.20492 0.0
C1765 C 0.24887 0.31149 0.16639 0.0
C1766 C 0.24379 0.32734 0.16261 0.0
C1767 C 0.25535 0.30153 0.15239 0.0
C1768 C 0.26257 0.28572 0.15579 0.0
C1769 C 0.25438 0.26806 0.14504 0.0
C1770 C 0.26111 0.25314 0.14833 0.0
C1771 C 0.27612 0.25575 0.16226 0.0
C1772 C 0.28448 0.27332 0.17287 0.0
C1773 C 0.27782 0.28829 0.16962 0.0
H1774 H 0.28129 0.24417 0.16479 0.0
H1775 H 0.23144 0.39828 0.13693 0.0
H1776 H 0.24619 0.95927 0.97381 0.0
H1777 H 0.23013 0.98235 0.98197 0.0
H1778 H 0.20358 0.94916 0.02139 0.0
H1779 H 0.219 0.92589 0.01296 0.0
H1780 H 0.17922 0.96074 0.00302 0.0
H1781 H 0.24192 0.98923 0.03431 0.0
H1782 H 0.27634 0.00136 0.03713 0.0
H1783 H 0.27167 0.04104 0.00088 0.0
H1784 H 0.23719 0.02895 0.99762 0.0
H1785 H 0.1481 0.0241 0.05692 0.0
H1786 H 0.17035 0.0073 0.04963 0.0
H1787 H 0.18081 0.03538 0.00213 0.0
H1788 H 0.15853 0.05234 0.00938 0.0
H1789 H 0.21377 0.02792 0.02337 0.0
H1790 H 0.14989 0.99794 0.99285 0.0
H1791 H 0.11576 0.98634 0.99294 0.0
H1792 H 0.12357 0.94917 0.03098 0.0
H1793 H 0.1578 0.96082 0.03136 0.0
C1794 C 0.23683 0.95686 0.98413 0.0
C1795 C 0.23386 0.94075 0.99272 0.0
C1796 C 0.22778 0.97012 0.98887 0.0
C1797 C 0.21585 0.9676 0.00247 0.0
C1798 C 0.21271 0.9514 0.01085 0.0
C1799 C 0.22156 0.9381 0.006 0.0
C1800 C 0.20635 0.9816 0.00795 0.0
C1801 C 0.18686 0.97537 0.00761 0.0
C1802 C 0.21624 0.00079 0.01368 0.0
C1803 C 0.23697 0.00804 0.01556 0.0
C1804 C 0.24822 1.00043 0.02681 0.0
C1805 C 0.26774 0.00731 0.0285 0.0
C1806 C 0.27618 0.02193 0.01916 0.0
C1807 C 0.26511 0.02969 0.00809 0.0
C1808 C 0.24558 0.02284 0.00632 0.0
C1809 C 0.1556 0.02718 0.04529 0.0
C1810 C 0.1515 0.03938 0.0336 0.0
C1811 C 0.16825 0.01754 0.04112 0.0
C1812 C 0.17702 0.02004 0.02527 0.0
C1813 C 0.17415 0.03334 0.01443 0.0
C1814 C 0.16136 0.04288 0.0185 0.0
C1815 C 0.18687 0.00686 0.01863 0.0
C1816 C 0.20628 0.01326 0.01868 0.0
C1817 C 0.17701 0.98775 0.01287 0.0
C1818 C 0.1564 0.98037 0.01226 0.0
C1819 C 0.14433 0.98738 0.00132 0.0
C1820 C 0.12498 0.98079 0.00128 0.0
C1821 C 0.1175 0.96705 0.01199 0.0
C1822 C 0.12938 0.95983 0.02271 0.0
C1823 C 0.14876 0.96641 0.02283 0.0
H1824 H 0.10252 0.96197 0.01196 0.0
H1825 H 0.29129 0.02728 0.02055 0.0
H1826 H 0.70598 0.66752 0.01487 0.0
H1827 H 0.67879 0.64076 0.01543 0.0
H1828 H 0.71057 0.60325 0.00163 0.0
H1829 H 0.73825 0.63015 0.00134 0.0
H1830 H 0.67007 0.59557 0.98082 0.0
H1831 H 0.70589 0.60424 0.0409 0.0
H1832 H 0.72493 0.62302 0.0697 0.0
H1833 H 0.67898 0.64276 0.08247 0.0
H1834 H 0.65976 0.62434 0.05359 0.0
H1835 H 0.58788 0.52698 0.00051 0.0
H1836 H 0.62092 0.54298 0.99882 0.0
H1837 H 0.61573 0.59373 0.02783 0.0
H1838 H 0.58319 0.57797 0.02987 0.0
H1839 H 0.64717 0.58833 0.04128 0.0
H1840 H 0.61374 0.58543 0.98059 0.0
H1841 H 0.59383 0.56915 0.95137 0.0
H1842 H 0.63424 0.54116 0.93894 0.0
H1843 H 0.6542 0.55694 0.96842 0.0
C1844 C 0.70725 0.65362 0.01181 0.0
C1845 C 0.72432 0.65097 0.00812 0.0
C1846 C 0.69168 0.63835 0.01216 0.0
C1847 C 0.69278 0.62012 0.00866 0.0
C1848 C 0.70955 0.61728 0.00437 0.0
C1849 C 0.7253 0.63263 0.00427 0.0
C1850 C 0.67634 0.60433 0.01024 0.0
C1851 C 0.66524 0.59354 0.99405 0.0
C1852 C 0.67 0.60206 0.0275 0.0
C1853 C 0.68142 0.61298 0.04502 0.0
C1854 C 0.69989 0.61269 0.04978 0.0
C1855 C 0.71071 0.62326 0.06613 0.0
C1856 C 0.70317 0.6341 0.0779 0.0
C1857 C 0.68479 0.63436 0.07335 0.0
C1858 C 0.67392 0.62383 0.057 0.0
C1859 C 0.59383 0.54154 0.00655 0.0
C1860 C 0.58289 0.55118 0.01533 0.0
C1861 C 0.61269 0.55065 0.00557 0.0
C1862 C 0.62079 0.56956 0.01319 0.0
C1863 C 0.60986 0.5791 0.022 0.0
C1864 C 0.59117 0.57004 0.02308 0.0
C1865 C 0.64047 0.57992 0.01177 0.0
C1866 C 0.65219 0.5898 0.02805 0.0
C1867 C 0.64723 0.58153 0.99456 0.0
C1868 C 0.63532 0.57214 0.97681 0.0
C1869 C 0.6183 0.57567 0.97171 0.0
C1870 C 0.60702 0.56655 0.95508 0.0
C1871 C 0.61275 0.55411 0.94327 0.0
C1872 C 0.62979 0.55076 0.9481 0.0
C1873 C 0.64108 0.55976 0.96479 0.0
H1874 H 0.60402 0.54709 0.93038 0.0
H1875 H 0.71157 0.64228 0.09054 0.0
H1876 H 0.66482 0.50241 0.27215 0.0
H1877 H 0.68548 0.4829 0.26853 0.0
H1878 H 0.64086 0.43461 0.27566 0.0
H1879 H 0.6202 0.45402 0.27947 0.0
H1880 H 0.67326 0.43573 0.29554 0.0
H1881 H 0.65297 0.4415 0.23297 0.0
H1882 H 0.64793 0.45831 0.20701 0.0
H1883 H 0.70712 0.48548 0.21217 0.0
H1884 H 0.7125 0.469 0.23835 0.0
H1885 H 0.7098 0.36377 0.2621 0.0
H1886 H 0.69066 0.38467 0.26613 0.0
H1887 H 0.7373 0.43142 0.25976 0.0
H1888 H 0.75669 0.41065 0.25602 0.0
H1889 H 0.70493 0.43199 0.23997 0.0
H1890 H 0.7253 0.42558 0.30201 0.0
H1891 H 0.73035 0.40858 0.32782 0.0
H1892 H 0.67103 0.3826 0.32364 0.0
H1893 H 0.66564 0.39925 0.29761 0.0
C1894 C 0.65938 0.48763 0.27293 0.0
C1895 C 0.64081 0.47979 0.27605 0.0
C1896 C 0.6712 0.47648 0.27079 0.0
C1897 C 0.66469 0.45723 0.27165 0.0
C1898 C 0.64621 0.44941 0.27493 0.0
C1899 C 0.63439 0.46054 0.27705 0.0
C1900 C 0.6771 0.44522 0.26926 0.0
C1901 C 0.67999 0.43475 0.28328 0.0
C1902 C 0.68631 0.44426 0.25349 0.0
C1903 C 0.68311 0.45417 0.23775 0.0
C1904 C 0.6649 0.45118 0.22867 0.0
C1905 C 0.66198 0.46062 0.2139 0.0
C1906 C 0.67719 0.473 0.20798 0.0
C1907 C 0.69535 0.47591 0.21679 0.0
C1908 C 0.69834 0.46652 0.23159 0.0
C1909 C 0.7161 0.37852 0.26176 0.0
C1910 C 0.73487 0.3855 0.25883 0.0
C1911 C 0.70509 0.39046 0.26401 0.0
C1912 C 0.71258 0.40967 0.26345 0.0
C1913 C 0.7312 0.41666 0.26024 0.0
C1914 C 0.74225 0.40473 0.25802 0.0
C1915 C 0.70095 0.42241 0.26618 0.0
C1916 C 0.69823 0.43302 0.25225 0.0
C1917 C 0.6919 0.4235 0.28203 0.0
C1918 C 0.69508 0.41353 0.29774 0.0
C1919 C 0.71334 0.41613 0.30649 0.0
C1920 C 0.71626 0.40657 0.32118 0.0
C1921 C 0.70103 0.39448 0.32734 0.0
C1922 C 0.68283 0.39196 0.31885 0.0
C1923 C 0.67982 0.40146 0.30413 0.0
H1924 H 0.70332 0.3871 0.33871 0.0
H1925 H 0.6749 0.48029 0.19653 0.0
H1926 H 0.85469 0.42532 0.54021 0.0
H1927 H 0.88286 0.45166 0.54358 0.0
H1928 H 0.84967 0.48781 0.53086 0.0
H1929 H 0.82116 0.46114 0.5269 0.0
H1930 H 0.87562 0.49088 0.50945 0.0
H1931 H 0.87686 0.49488 0.57391 0.0
H1932 H 0.87335 0.48279 0.60353 0.0
H1933 H 0.91966 0.46121 0.59814 0.0
H1934 H 0.92324 0.47279 0.56831 0.0
H1935 H 0.97167 0.54748 0.50861 0.0
H1936 H 0.94 0.53881 0.51723 0.0
H1937 H 0.94545 0.4856 0.52825 0.0
H1938 H 0.97682 0.49404 0.5198 0.0
H1939 H 0.93172 0.50301 0.55622 0.0
H1940 H 0.92156 0.48954 0.48806 0.0
H1941 H 0.92393 0.49925 0.45724 0.0
H1942 H 0.8942 0.53859 0.47037 0.0
H1943 H 0.89185 0.52923 0.50136 0.0
C1944 C 0.85327 0.43892 0.53852 0.0
C1945 C 0.83568 0.44107 0.53308 0.0
C1946 C 0.86944 0.45407 0.54064 0.0
C1947 C 0.8684 0.4718 0.53768 0.0
C1948 C 0.85078 0.47427 0.53329 0.0
C1949 C 0.83451 0.45902 0.53106 0.0
C1950 C 0.88588 0.48676 0.53666 0.0
C1951 C 0.88775 0.49405 0.51997 0.0
C1952 C 0.90173 0.49094 0.55037 0.0
C1953 C 0.90026 0.48467 0.56876 0.0
C1954 C 0.88628 0.48752 0.579 0.0
C1955 C 0.88427 0.48073 0.59582 0.0
C1956 C 0.8962 0.47114 0.60263 0.0
C1957 C 0.91039 0.46859 0.5928 0.0
C1958 C 0.91245 0.47531 0.57594 0.0
C1959 C 0.966 0.53385 0.51266 0.0
C1960 C 0.97669 0.52139 0.51342 0.0
C1961 C 0.94799 0.529 0.5177 0.0
C1962 C 0.94052 0.51165 0.52352 0.0
C1963 C 0.95109 0.49916 0.52401 0.0
C1964 C 0.96896 0.50394 0.51898 0.0
C1965 C 0.92147 0.50583 0.52862 0.0
C1966 C 0.91937 0.50045 0.54611 0.0
C1967 C 0.90542 0.50338 0.5157 0.0
C1968 C 0.90674 0.50887 0.49707 0.0
C1969 C 0.91565 0.50035 0.48441 0.0
C1970 C 0.91697 0.50577 0.46691 0.0
C1971 C 0.90928 0.51957 0.46187 0.0
C1972 C 0.90019 0.52794 0.47431 0.0
C1973 C 0.89886 0.52258 0.49183 0.0
H1974 H 0.91031 0.52375 0.44832 0.0
H1975 H 0.89437 0.46559 0.61546 0.0
H1976 H 0.36314 0.07576 0.3209 0.0
H1977 H 0.34527 0.09787 0.31817 0.0
H1978 H 0.34972 0.0951 0.25997 0.0
H1979 H 0.36793 0.07327 0.26263 0.0
H1980 H 0.35221 0.13027 0.2755 0.0
H1981 H 0.31163 0.06752 0.27445 0.0
H1982 H 0.30046 0.03776 0.28663 0.0
H1983 H 0.28944 0.06689 0.33568 0.0
H1984 H 0.30082 0.09688 0.32389 0.0
H1985 H 0.27452 0.15537 0.24077 0.0
H1986 H 0.29441 0.13582 0.24742 0.0
H1987 H 0.28983 0.14557 0.30542 0.0
H1988 H 0.26956 0.16494 0.29883 0.0
H1989 H 0.28803 0.10831 0.29213 0.0
H1990 H 0.32811 0.17091 0.29306 0.0
H1991 H 0.33772 0.20049 0.28024 0.0
H1992 H 0.34842 0.17135 0.23103 0.0
H1993 H 0.33882 0.14161 0.24358 0.0
C1994 C 0.36058 0.08008 0.30757 0.0
C1995 C 0.36669 0.07256 0.29191 0.0
C1996 C 0.35034 0.09268 0.30604 0.0
C1997 C 0.34586 0.09778 0.28879 0.0
C1998 C 0.35297 0.09125 0.27339 0.0
C1999 C 0.36332 0.07874 0.27492 0.0
C2000 C 0.33257 0.10869 0.28648 0.0
C2001 C 0.33816 0.12541 0.27904 0.0
C2002 C 0.31432 0.10249 0.29138 0.0
C2003 C 0.30726 0.08445 0.29838 0.0
C2004 C 0.30694 0.06759 0.28789 0.0
C2005 C 0.30056 0.05068 0.29471 0.0
C2006 C 0.29429 0.05044 0.31194 0.0
C2007 C 0.29433 0.06711 0.32235 0.0
C2008 C 0.30074 0.08406 0.3156 0.0
C2009 C 0.27733 0.15297 0.25487 0.0
C2010 C 0.27055 0.16172 0.2693 0.0
C2011 C 0.28884 0.14196 0.25867 0.0
C2012 C 0.29378 0.13956 0.27693 0.0
C2013 C 0.28621 0.14738 0.29126 0.0
C2014 C 0.27473 0.15847 0.28748 0.0
C2015 C 0.30766 0.12972 0.28107 0.0
C2016 C 0.30216 0.11322 0.28881 0.0
C2017 C 0.32597 0.1361 0.27645 0.0
C2018 C 0.33266 0.15405 0.26921 0.0
C2019 C 0.33252 0.17084 0.27951 0.0
C2020 C 0.33799 0.18763 0.2723 0.0
C2021 C 0.34371 0.18781 0.25483 0.0
C2022 C 0.3441 0.17122 0.2446 0.0
C2023 C 0.33869 0.15439 0.25177 0.0
H2024 H 0.34782 0.2008 0.24922 0.0
H2025 H 0.28936 0.03734 0.3172 0.0
H2026 H 0.33245 0.16422 0.52308 0.0
H2027 H 0.35537 0.1471 0.52692 0.0
H2028 H 0.31489 0.09711 0.49662 0.0
H2029 H 0.29198 0.11409 0.49263 0.0
H2030 H 0.33361 0.09073 0.5287 0.0
H2031 H 0.34848 0.1211 0.47559 0.0
H2032 H 0.35661 0.148 0.45859 0.0
H2033 H 0.40679 0.17353 0.49725 0.0
H2034 H 0.39881 0.14688 0.51463 0.0
H2035 H 0.39278 0.03492 0.51127 0.0
H2036 H 0.37046 0.05269 0.50796 0.0
H2037 H 0.414 0.1034 0.53214 0.0
H2038 H 0.43641 0.08573 0.53525 0.0
H2039 H 0.39395 0.11 0.50385 0.0
H2040 H 0.37994 0.08031 0.55697 0.0
H2041 H 0.37215 0.05407 0.57485 0.0
H2042 H 0.32092 0.02819 0.53776 0.0
H2043 H 0.32853 0.05417 0.5195 0.0
C2044 C 0.32841 0.14957 0.51727 0.0
C2045 C 0.31039 0.14054 0.50749 0.0
C2046 C 0.34155 0.13983 0.51942 0.0
C2047 C 0.33687 0.12086 0.51194 0.0
C2048 C 0.3188 0.11174 0.50249 0.0
C2049 C 0.30574 0.1215 0.50017 0.0
C2050 C 0.3508 0.11047 0.51388 0.0
C2051 C 0.34671 0.0948 0.52309 0.0
C2052 C 0.3681 0.11608 0.50698 0.0
C2053 C 0.37294 0.13209 0.49652 0.0
C2054 C 0.36116 0.13253 0.48056 0.0
C2055 C 0.36576 0.14772 0.47084 0.0
C2056 C 0.38218 0.1625 0.47687 0.0
C2057 C 0.39406 0.16209 0.49261 0.0
C2058 C 0.38951 0.14694 0.50239 0.0
C2059 C 0.39756 0.04984 0.51598 0.0
C2060 C 0.41634 0.05889 0.52362 0.0
C2061 C 0.38479 0.05999 0.51409 0.0
C2062 C 0.39045 0.07937 0.52007 0.0
C2063 C 0.40927 0.08848 0.52743 0.0
C2064 C 0.42208 0.07836 0.52918 0.0
C2065 C 0.37677 0.09016 0.51865 0.0
C2066 C 0.38088 0.10592 0.50953 0.0
C2067 C 0.35955 0.08473 0.52579 0.0
C2068 C 0.3549 0.0691 0.53677 0.0
C2069 C 0.36708 0.06896 0.55255 0.0
C2070 C 0.36269 0.05414 0.56276 0.0
C2071 C 0.34607 0.03944 0.55742 0.0
C2072 C 0.33379 0.03957 0.54187 0.0
C2073 C 0.33813 0.05434 0.53159 0.0
H2074 H 0.3427 0.02798 0.56535 0.0
H2075 H 0.38572 0.17424 0.46932 0.0
H2076 H 0.66711 0.57365 0.27962 0.0
H2077 H 0.69115 0.60362 0.28036 0.0
H2078 H 0.65884 0.6317 0.31122 0.0
H2079 H 0.63462 0.60199 0.31006 0.0
H2080 H 0.66841 0.64871 0.28338 0.0
H2081 H 0.70096 0.62615 0.33072 0.0
H2082 H 0.71464 0.60384 0.34434 0.0
H2083 H 0.75124 0.60726 0.30294 0.0
H2084 H 0.73759 0.62941 0.28891 0.0
H2085 H 0.73203 0.73837 0.30359 0.0
H2086 H 0.71356 0.70733 0.3082 0.0
H2087 H 0.74517 0.68237 0.27325 0.0
H2088 H 0.76417 0.71354 0.26896 0.0
H2089 H 0.7368 0.66357 0.3027 0.0
H2090 H 0.70337 0.68603 0.25537 0.0
H2091 H 0.69064 0.70971 0.24328 0.0
H2092 H 0.65585 0.707 0.28624 0.0
H2093 H 0.66854 0.68345 0.29871 0.0
C2094 C 0.6653 0.58618 0.28682 0.0
C2095 C 0.64891 0.58547 0.29467 0.0
C2096 C 0.67907 0.60331 0.28727 0.0
C2097 C 0.67683 0.61995 0.29587 0.0
C2098 C 0.66084 0.61909 0.3044 0.0
C2099 C 0.64701 0.60207 0.30376 0.0
C2100 C 0.69035 0.63843 0.29489 0.0
C2101 C 0.68333 0.65199 0.28787 0.0
C2102 C 0.70989 0.64261 0.30025 0.0
C2103 C 0.71811 0.62929 0.30865 0.0
C2104 C 0.71181 0.62202 0.32442 0.0
C2105 C 0.71958 0.60943 0.33224 0.0
C2106 C 0.73376 0.6041 0.32448 0.0
C2107 C 0.74023 0.61138 0.30892 0.0
C2108 C 0.7325 0.62397 0.30104 0.0
C2109 C 0.7352 0.7263 0.29701 0.0
C2110 C 0.74939 0.72838 0.2857 0.0
C2111 C 0.72462 0.70856 0.29966 0.0
C2112 C 0.72775 0.69254 0.29076 0.0
C2113 C 0.74249 0.69456 0.28018 0.0
C2114 C 0.75328 0.71237 0.2777 0.0
C2115 C 0.71475 0.67377 0.29148 0.0
C2116 C 0.72187 0.66019 0.29828 0.0
C2117 C 0.69524 0.66953 0.286 0.0
C2118 C 0.68699 0.68306 0.27803 0.0
C2119 C 0.69302 0.6905 0.26224 0.0
C2120 C 0.68583 0.70391 0.25534 0.0
C2121 C 0.67248 0.70989 0.26401 0.0
C2122 C 0.6662 0.70236 0.27954 0.0
C2123 C 0.67336 0.68896 0.28651 0.0
H2124 H 0.66699 0.72033 0.2587 0.0
H2125 H 0.73976 0.59435 0.33056 0.0
H2126 H 0.85541 0.50731 0.78131 0.0
H2127 H 0.83042 0.4773 0.77476 0.0
H2128 H 0.87114 0.4489 0.7637 0.0
H2129 H 0.89605 0.47861 0.77019 0.0
H2130 H 0.83746 0.4344 0.73917 0.0
H2131 H 0.85948 0.45347 0.80615 0.0
H2132 H 0.86437 0.47507 0.83525 0.0
H2133 H 0.80567 0.46973 0.82912 0.0
H2134 H 0.80051 0.44825 0.79985 0.0
H2135 H 0.82455 0.3471 0.76371 0.0
H2136 H 0.83375 0.38006 0.76047 0.0
H2137 H 0.78228 0.38476 0.7783 0.0
H2138 H 0.77313 0.35168 0.78211 0.0
H2139 H 0.8111 0.41322 0.79493 0.0
H2140 H 0.78835 0.38571 0.73307 0.0
H2141 H 0.78403 0.36227 0.70551 0.0
H2142 H 0.8426 0.38281 0.70123 0.0
H2143 H 0.84741 0.40608 0.72902 0.0
C2144 C 0.85897 0.49468 0.77724 0.0
C2145 C 0.87772 0.49526 0.77651 0.0
C2146 C 0.84469 0.4776 0.77347 0.0
C2147 C 0.84899 0.46094 0.7688 0.0
C2148 C 0.86755 0.46164 0.76718 0.0
C2149 C 0.88179 0.47861 0.77108 0.0
C2150 C 0.83484 0.44251 0.76754 0.0
C2151 C 0.83149 0.42974 0.75125 0.0
C2152 C 0.82655 0.43669 0.78313 0.0
C2153 C 0.82966 0.44948 0.80074 0.0
C2154 C 0.84766 0.45702 0.81096 0.0
C2155 C 0.85047 0.46922 0.82748 0.0
C2156 C 0.83535 0.47382 0.834 0.0
C2157 C 0.81738 0.46619 0.82403 0.0
C2158 C 0.8145 0.45401 0.80748 0.0
C2159 C 0.81514 0.35509 0.76691 0.0
C2160 C 0.79811 0.3468 0.77314 0.0
C2161 C 0.82034 0.37391 0.7649 0.0
C2162 C 0.80847 0.38474 0.76871 0.0
C2163 C 0.79153 0.37658 0.77512 0.0
C2164 C 0.78638 0.35772 0.77733 0.0
C2165 C 0.81451 0.4048 0.76684 0.0
C2166 C 0.81631 0.41791 0.78253 0.0
C2167 C 0.8212 0.41091 0.75061 0.0
C2168 C 0.81824 0.39766 0.73322 0.0
C2169 C 0.80033 0.38523 0.72628 0.0
C2170 C 0.7978 0.37193 0.71064 0.0
C2171 C 0.81304 0.37102 0.70167 0.0
C2172 C 0.83081 0.38353 0.70821 0.0
C2173 C 0.83344 0.39681 0.7239 0.0
H2174 H 0.8111 0.36061 0.68966 0.0
H2175 H 0.83756 0.48327 0.8468 0.0
H2176 H 0.08545 0.85593 0.0797 0.0
H2177 H 0.07949 0.88393 0.07022 0.0
H2178 H 0.02241 0.86376 0.08055 0.0
H2179 H 0.02842 0.83576 0.09069 0.0
H2180 H 0.03166 0.87861 0.04261 0.0
H2181 H 0.04362 0.8946 0.10954 0.0
H2182 H 0.06214 0.89797 0.1401 0.0
H2183 H 0.10942 0.9358 0.1225 0.0
H2184 H 0.09126 0.93242 0.09172 0.0
H2185 H 0.00731 0.96056 0.02904 0.0
H2186 H 0.01091 0.9322 0.03974 0.0
H2187 H 0.06973 0.9603 0.05777 0.0
H2188 H 0.06585 0.98908 0.04804 0.0
H2189 H 0.05884 0.9405 0.0818 0.0
H2190 H 0.05031 0.92548 0.01619 0.0
H2191 H 0.03515 0.92195 0.98407 0.0
H2192 H 0.98586 0.88243 0.99645 0.0
H2193 H 1.00065 0.8859 0.02872 0.0
C2194 C 0.07158 0.85736 0.07997 0.0
C2195 C 0.0574 0.84349 0.08595 0.0
C2196 C 0.06823 0.87345 0.07456 0.0
C2197 C 0.05052 0.87598 0.07464 0.0
C2198 C 0.03619 0.8621 0.08035 0.0
C2199 C 0.03966 0.84613 0.08619 0.0
C2200 C 0.0472 0.89323 0.06881 0.0
C2201 C 0.03728 0.89212 0.05128 0.0
C2202 C 0.05525 0.91098 0.07976 0.0
C2203 C 0.06614 0.9131 0.09828 0.0
C2204 C 0.05802 0.90349 0.11213 0.0
C2205 C 0.06844 0.90544 0.1295 0.0
C2206 C 0.08696 0.91705 0.13322 0.0
C2207 C 0.09508 0.92679 0.11959 0.0
C2208 C 0.08473 0.92487 0.10219 0.0
C2209 C 0.02104 0.96069 0.03522 0.0
C2210 C 0.03631 0.97712 0.03756 0.0
C2211 C 0.02314 0.94435 0.04126 0.0
C2212 C 0.04071 0.94372 0.04928 0.0
C2213 C 0.05598 0.9602 0.05166 0.0
C2214 C 0.05378 0.9767 0.04602 0.0
C2215 C 0.0431 0.92608 0.05545 0.0
C2216 C 0.05301 0.92707 0.07304 0.0
C2217 C 0.03545 0.90826 0.04431 0.0
C2218 C 0.02651 0.90611 0.02492 0.0
C2219 C 0.03619 0.91614 0.01209 0.0
C2220 C 0.02767 0.91413 0.99386 0.0
C2221 C 0.00954 0.90201 0.98824 0.0
C2222 C 0.9999 0.89183 0.00083 0.0
C2223 C 0.00834 0.8938 0.01909 0.0
H2224 H 0.00297 0.90048 0.97411 0.0
H2225 H 0.095 0.91854 0.14668 0.0
H2226 H 0.96282 0.25757 0.87921 0.0
H2227 H 0.93949 0.26215 0.85581 0.0
H2228 H 0.90256 0.26302 0.8968 0.0
H2229 H 0.92515 0.25761 0.91973 0.0
H2230 H 0.8824 0.24555 0.86712 0.0
H2231 H 0.93235 0.30412 0.88185 0.0
H2232 H 0.96493 0.32455 0.88464 0.0
H2233 H 0.96488 0.31009 0.82646 0.0
H2234 H 0.93235 0.28941 0.82339 0.0
H2235 H 0.82515 0.29699 0.83254 0.0
H2236 H 0.85135 0.29104 0.85065 0.0
H2237 H 0.87123 0.27471 0.80048 0.0
H2238 H 0.84479 0.28015 0.78218 0.0
H2239 H 0.90045 0.29823 0.83127 0.0
H2240 H 0.84747 0.24276 0.81738 0.0
H2241 H 0.81395 0.22648 0.81616 0.0
H2242 H 0.8195 0.23673 0.87533 0.0
H2243 H 0.85286 0.25418 0.87691 0.0
C2244 C 0.94961 0.25848 0.88312 0.0
C2245 C 0.94594 0.25724 0.9014 0.0
C2246 C 0.93632 0.26128 0.86977 0.0
C2247 C 0.91929 0.2633 0.87453 0.0
C2248 C 0.91549 0.26151 0.89264 0.0
C2249 C 0.92854 0.25843 0.90583 0.0
C2250 C 0.90543 0.26767 0.86106 0.0
C2251 C 0.88643 0.25716 0.85941 0.0
C2252 C 0.91052 0.2826 0.85061 0.0
C2253 C 0.93002 0.29506 0.85243 0.0
C2254 C 0.93934 0.30521 0.86968 0.0
C2255 C 0.95778 0.31684 0.87131 0.0
C2256 C 0.96699 0.31857 0.85575 0.0
C2257 C 0.95775 0.30871 0.83851 0.0
C2258 C 0.93931 0.29704 0.83682 0.0
C2259 C 0.83514 0.29231 0.8253 0.0
C2260 C 0.83264 0.28881 0.80586 0.0
C2261 C 0.85017 0.28897 0.8357 0.0
C2262 C 0.86319 0.28235 0.8269 0.0
C2263 C 0.86138 0.27986 0.80754 0.0
C2264 C 0.84617 0.28289 0.79712 0.0
C2265 C 0.87762 0.27645 0.83789 0.0
C2266 C 0.89659 0.28656 0.83893 0.0
C2267 C 0.8725 0.26138 0.84805 0.0
C2268 C 0.85264 0.25006 0.84723 0.0
C2269 C 0.8415 0.24177 0.83014 0.0
C2270 C 0.82247 0.23238 0.82939 0.0
C2271 C 0.81448 0.23074 0.84566 0.0
C2272 C 0.82559 0.23828 0.86273 0.0
C2273 C 0.84457 0.24799 0.86357 0.0
H2274 H 0.7997 0.22364 0.84506 0.0
H2275 H 0.98127 0.32758 0.85703 0.0
H2276 H 0.57535 0.24581 0.56585 0.0
H2277 H 0.56916 0.21259 0.55609 0.0
H2278 H 0.51665 0.20121 0.5779 0.0
H2279 H 0.52333 0.23473 0.58869 0.0
H2280 H 0.53185 0.1769 0.58674 0.0
H2281 H 0.52065 0.19719 0.52904 0.0
H2282 H 0.52665 0.21653 0.50415 0.0
H2283 H 0.57585 0.20036 0.49664 0.0
H2284 H 0.5703 0.18111 0.52166 0.0
H2285 H 0.50231 0.08197 0.54087 0.0
H2286 H 0.50509 0.11497 0.54929 0.0
H2287 H 0.5635 0.13015 0.54263 0.0
H2288 H 0.56091 0.09703 0.53435 0.0
H2289 H 0.54284 0.15167 0.52511 0.0
H2290 H 0.55278 0.13167 0.5846 0.0
H2291 H 0.54423 0.11136 0.60833 0.0
H2292 H 0.49345 0.12606 0.61049 0.0
H2293 H 0.50159 0.14627 0.58657 0.0
C2294 C 0.56232 0.23634 0.5684 0.0
C2295 C 0.54977 0.24307 0.57797 0.0
C2296 C 0.55873 0.21721 0.56267 0.0
C2297 C 0.54222 0.20419 0.56583 0.0
C2298 C 0.52948 0.21087 0.57518 0.0
C2299 C 0.53325 0.23008 0.58126 0.0
C2300 C 0.53885 0.18366 0.56012 0.0
C2301 C 0.53393 0.17142 0.57312 0.0
C2302 C 0.54174 0.17627 0.54243 0.0
C2303 C 0.54513 0.18782 0.52734 0.0
C2304 C 0.53283 0.19785 0.52217 0.0
C2305 C 0.53613 0.20879 0.50803 0.0
C2306 C 0.55164 0.2097 0.49885 0.0
C2307 C 0.56385 0.19965 0.50377 0.0
C2308 C 0.56062 0.1887 0.51792 0.0
C2309 C 0.5158 0.09228 0.54122 0.0
C2310 C 0.53142 0.08678 0.53695 0.0
C2311 C 0.51735 0.11118 0.54609 0.0
C2312 C 0.53451 0.12507 0.54668 0.0
C2313 C 0.55011 0.11968 0.54228 0.0
C2314 C 0.54863 0.10073 0.53763 0.0
C2315 C 0.53614 0.1452 0.55178 0.0
C2316 C 0.54068 0.15728 0.53865 0.0
C2317 C 0.53251 0.15235 0.56917 0.0
C2318 C 0.52771 0.14034 0.58367 0.0
C2319 C 0.53972 0.13046 0.59003 0.0
C2320 C 0.53497 0.11898 0.60354 0.0
C2321 C 0.51829 0.11738 0.61088 0.0
C2322 C 0.50636 0.12729 0.60478 0.0
C2323 C 0.51104 0.13878 0.59126 0.0
H2324 H 0.51463 0.10848 0.62134 0.0
H2325 H 0.55418 0.21817 0.4879 0.0
H2326 H 0.5336 0.79443 0.37715 0.0
H2327 H 0.55929 0.79477 0.35927 0.0
H2328 H 0.57654 0.75771 0.39275 0.0
H2329 H 0.5509 0.75734 0.41078 0.0
H2330 H 0.60654 0.7863 0.38732 0.0
H2331 H 0.55354 0.74115 0.34957 0.0
H2332 H 0.52149 0.72937 0.33253 0.0
H2333 H 0.53507 0.77216 0.29796 0.0
H2334 H 0.56715 0.78436 0.31497 0.0
H2335 H 0.6699 0.76497 0.32945 0.0
H2336 H 0.64395 0.76257 0.34735 0.0
H2337 H 0.6224 0.79645 0.31296 0.0
H2338 H 0.64784 0.79826 0.29452 0.0
H2339 H 0.59452 0.7684 0.31915 0.0
H2340 H 0.64611 0.81507 0.35767 0.0
H2341 H 0.67825 0.82771 0.3744 0.0
H2342 H 0.66759 0.78288 0.40678 0.0
H2343 H 0.63527 0.77004 0.39033 0.0
C2344 C 0.54281 0.78631 0.38072 0.0
C2345 C 0.54008 0.7758 0.39539 0.0
C2346 C 0.55749 0.78648 0.37043 0.0
C2347 C 0.5698 0.77613 0.37453 0.0
C2348 C 0.56725 0.76579 0.38929 0.0
C2349 C 0.5525 0.76554 0.39954 0.0
C2350 C 0.58531 0.77615 0.36343 0.0
C2351 C 0.60387 0.78212 0.37245 0.0
C2352 C 0.58196 0.77111 0.34396 0.0
C2353 C 0.5627 0.76377 0.33367 0.0
C2354 C 0.54965 0.74814 0.33843 0.0
C2355 C 0.53148 0.74137 0.32876 0.0
C2356 C 0.52623 0.75004 0.3142 0.0
C2357 C 0.53916 0.76547 0.30926 0.0
C2358 C 0.55734 0.77231 0.3189 0.0
C2359 C 0.65954 0.77174 0.32552 0.0
C2360 C 0.66111 0.7819 0.31053 0.0
C2361 C 0.64479 0.77054 0.33595 0.0
C2362 C 0.6313 0.77956 0.33173 0.0
C2363 C 0.63264 0.78943 0.31659 0.0
C2364 C 0.64735 0.79061 0.30615 0.0
C2365 C 0.61575 0.7787 0.34301 0.0
C2366 C 0.59718 0.77254 0.33403 0.0
C2367 C 0.6191 0.78369 0.36249 0.0
C2368 C 0.63836 0.79152 0.37267 0.0
C2369 C 0.65065 0.80788 0.36832 0.0
C2370 C 0.66889 0.81508 0.37775 0.0
C2371 C 0.67503 0.80602 0.39154 0.0
C2372 C 0.66284 0.78985 0.39606 0.0
C2373 C 0.64453 0.78265 0.38675 0.0
H2374 H 0.6892 0.81157 0.39875 0.0
H2375 H 0.51216 0.74478 0.30673 0.0
H2376 H 0.02372 0.26965 0.43006 0.0
H2377 H 0.02925 0.24445 0.44533 0.0
H2378 H 0.0529 0.22605 0.39852 0.0
H2379 H 0.04737 0.25159 0.38291 0.0
H2380 H 0.02638 0.19661 0.41136 0.0
H2381 H 0.08177 0.24639 0.43655 0.0
H2382 H 0.10014 0.27842 0.4509 0.0
H2383 H 0.07197 0.27166 0.49869 0.0
H2384 H 0.05323 0.23968 0.48453 0.0
H2385 H 0.04615 0.12921 0.46421 0.0
H2386 H 0.05086 0.15463 0.44567 0.0
H2387 H 0.03383 0.18795 0.48798 0.0
H2388 H 0.03014 0.16309 0.50704 0.0
H2389 H 0.0619 0.20937 0.47456 0.0
H2390 H 0.00336 0.16265 0.44794 0.0
H2391 H 0.9847 0.13024 0.43508 0.0
H2392 H 0.01783 0.1313 0.39086 0.0
H2393 H 0.03686 0.16369 0.4036 0.0
C2394 C 0.03021 0.26037 0.42296 0.0
C2395 C 0.03511 0.26269 0.40522 0.0
C2396 C 0.03342 0.24596 0.43178 0.0
C2397 C 0.04161 0.23341 0.42316 0.0
C2398 C 0.04661 0.23561 0.40545 0.0
C2399 C 0.04354 0.25026 0.3966 0.0
C2400 C 0.04438 0.21788 0.4328 0.0
C2401 C 0.03451 0.19936 0.425 0.0
C2402 C 0.05466 0.22145 0.45076 0.0
C2403 C 0.06602 0.24065 0.45942 0.0
C2404 C 0.0794 0.25177 0.45007 0.0
C2405 C 0.0899 0.26991 0.45818 0.0
C2406 C 0.08721 0.27708 0.47568 0.0
C2407 C 0.07404 0.26609 0.48514 0.0
C2408 C 0.0635 0.24794 0.47708 0.0
C2409 C 0.04372 0.14206 0.46976 0.0
C2410 C 0.03758 0.14394 0.48713 0.0
C2411 C 0.04623 0.15654 0.45901 0.0
C2412 C 0.04238 0.17315 0.46523 0.0
C2413 C 0.03681 0.17527 0.48278 0.0
C2414 C 0.03447 0.1609 0.4936 0.0
C2415 C 0.04351 0.18812 0.45337 0.0
C2416 C 0.05407 0.20656 0.46078 0.0
C2417 C 0.03373 0.18448 0.43514 0.0
C2418 C 0.02165 0.16548 0.42683 0.0
C2419 C 0.00666 0.15597 0.43547 0.0
C2420 C 0.99604 0.13761 0.42823 0.0
C2421 C 1.00018 0.1287 0.41225 0.0
C2422 C 0.01472 0.13822 0.40329 0.0
C2423 C 0.02541 0.15659 0.4105 0.0
H2424 H 0.99215 0.11439 0.40689 0.0
H2425 H 0.09534 0.29113 0.48194 0.0
H2426 H 0.55582 0.23895 0.23557 0.0
H2427 H 0.58939 0.24445 0.24319 0.0
H2428 H 0.59983 0.2816 0.20241 0.0
H2429 H 0.56603 0.27585 0.19441 0.0
H2430 H 0.6198 0.25816 0.1988 0.0
H2431 H 0.61063 0.29784 0.24985 0.0
H2432 H 0.59601 0.30646 0.27659 0.0
H2433 H 0.61111 0.26483 0.30447 0.0
H2434 H 0.62561 0.25577 0.27779 0.0
H2435 H 0.71882 0.29043 0.22632 0.0
H2436 H 0.68576 0.28814 0.21952 0.0
H2437 H 0.67214 0.24869 0.25782 0.0
H2438 H 0.7053 0.25103 0.26486 0.0
H2439 H 0.6542 0.27471 0.2626 0.0
H2440 H 0.66252 0.23456 0.21084 0.0
H2441 H 0.67736 0.22636 0.18411 0.0
H2442 H 0.66405 0.26966 0.1576 0.0
H2443 H 0.64935 0.27829 0.1843 0.0
C2444 C 0.5652 0.24854 0.22838 0.0
C2445 C 0.55809 0.25698 0.21437 0.0
C2446 C 0.58451 0.25172 0.23281 0.0
C2447 C 0.59731 0.26357 0.22351 0.0
C2448 C 0.59031 0.27239 0.20982 0.0
C2449 C 0.57094 0.26919 0.20535 0.0
C2450 C 0.61785 0.26592 0.22745 0.0
C2451 C 0.62737 0.26212 0.21274 0.0
C2452 C 0.62778 0.27062 0.24566 0.0
C2453 C 0.61906 0.27601 0.26174 0.0
C2454 C 0.6107 0.29042 0.26162 0.0
C2455 C 0.60246 0.2954 0.27678 0.0
C2456 C 0.60259 0.28617 0.2922 0.0
C2457 C 0.611 0.27196 0.29251 0.0
C2458 C 0.61925 0.2669 0.27738 0.0
C2459 C 0.70883 0.28113 0.23323 0.0
C2460 C 0.71483 0.27084 0.2461 0.0
C2461 C 0.68985 0.27981 0.22928 0.0
C2462 C 0.67632 0.26811 0.23802 0.0
C2463 C 0.68225 0.25781 0.25087 0.0
C2464 C 0.70125 0.25909 0.25481 0.0
C2465 C 0.65607 0.26686 0.23398 0.0
C2466 C 0.64662 0.27085 0.24867 0.0
C2467 C 0.64623 0.26239 0.21575 0.0
C2468 C 0.655 0.25719 0.19966 0.0
C2469 C 0.66289 0.24243 0.19938 0.0
C2470 C 0.67125 0.23769 0.18422 0.0
C2471 C 0.67169 0.24751 0.16918 0.0
C2472 C 0.66372 0.26208 0.16926 0.0
C2473 C 0.65536 0.26689 0.1844 0.0
H2474 H 0.67817 0.24382 0.15746 0.0
H2475 H 0.5962 0.29005 0.30392 0.0
H2476 H 0.53595 0.85343 0.92577 0.0
H2477 H 0.53717 0.88551 0.93636 0.0
H2478 H 0.54805 0.90024 0.88276 0.0
H2479 H 0.54691 0.86775 0.87195 0.0
H2480 H 0.56744 0.92985 0.91761 0.0
H2481 H 0.50719 0.89183 0.88561 0.0
H2482 H 0.48058 0.86288 0.87797 0.0
H2483 H 0.47035 0.86721 0.93442 0.0
H2484 H 0.49712 0.89602 0.94246 0.0
H2485 H 0.53532 0.00881 0.94593 0.0
H2486 H 0.5405 0.98251 0.92679 0.0
H2487 H 0.51719 0.94587 0.96502 0.0
H2488 H 0.51158 0.97178 0.98382 0.0
H2489 H 0.50411 0.92928 0.93119 0.0
H2490 H 0.56593 0.96463 0.96396 0.0
H2491 H 0.593 0.99311 0.97271 0.0
H2492 H 0.60041 0.99404 0.91569 0.0
H2493 H 0.5732 0.96569 0.90656 0.0
C2494 C 0.53915 0.86358 0.91634 0.0
C2495 C 0.54117 0.85803 0.89797 0.0
C2496 C 0.53985 0.88194 0.92244 0.0
C2497 C 0.54245 0.8952 0.9103 0.0
C2498 C 0.54606 0.8902 0.89235 0.0
C2499 C 0.54545 0.87167 0.88621 0.0
C2500 C 0.53869 0.91316 0.91593 0.0
C2501 C 0.55354 0.92989 0.9202 0.0
C2502 C 0.52058 0.91315 0.91949 0.0
C2503 C 0.50424 0.89602 0.91465 0.0
C2504 C 0.49935 0.88654 0.89642 0.0
C2505 C 0.48422 0.87016 0.89201 0.0
C2506 C 0.4738 0.8632 0.90571 0.0
C2507 C 0.47844 0.87262 0.92383 0.0
C2508 C 0.49358 0.88899 0.92831 0.0
C2509 C 0.53118 0.99511 0.95018 0.0
C2510 C 0.52302 0.99245 0.96645 0.0
C2511 C 0.53427 0.9801 0.93928 0.0
C2512 C 0.52944 0.96218 0.94453 0.0
C2513 C 0.52104 0.95951 0.96061 0.0
C2514 C 0.51785 0.97441 0.97141 0.0
C2515 C 0.53296 0.94601 0.93353 0.0
C2516 C 0.51798 0.92949 0.92825 0.0
C2517 C 0.55093 0.94631 0.92909 0.0
C2518 C 0.56744 0.96315 0.93457 0.0
C2519 C 0.57328 0.97097 0.95328 0.0
C2520 C 0.58864 0.98708 0.9583 0.0
C2521 C 0.59838 0.9954 0.94475 0.0
C2522 C 0.59282 0.98759 0.92615 0.0
C2523 C 0.57744 0.9715 0.92105 0.0
H2524 H 0.61027 0.00786 0.94867 0.0
H2525 H 0.4621 0.85051 0.90227 0.0
H2526 H 0.95569 0.73575 0.73618 0.0
H2527 H 0.92697 0.74052 0.74515 0.0
H2528 H 0.92305 0.77151 0.6999 0.0
H2529 H 0.95223 0.76717 0.69109 0.0
H2530 H 0.91311 0.78785 0.72855 0.0
H2531 H 0.89557 0.72444 0.69866 0.0
H2532 H 0.89698 0.69212 0.69292 0.0
H2533 H 0.88549 0.68426 0.74793 0.0
H2534 H 0.88417 0.71658 0.75406 0.0
H2535 H 0.80547 0.7486 0.73393 0.0
H2536 H 0.83425 0.74478 0.72381 0.0
H2537 H 0.86703 0.78599 0.76951 0.0
H2538 H 0.83835 0.7901 0.77954 0.0
H2539 H 0.86147 0.7333 0.73824 0.0
H2540 H 0.90872 0.81008 0.75756 0.0
H2541 H 0.90565 0.84187 0.76046 0.0
H2542 H 0.85521 0.82218 0.72139 0.0
H2543 H 0.85811 0.79034 0.71807 0.0
C2544 C 0.94883 0.74367 0.72813 0.0
C2545 C 0.95634 0.75098 0.7128 0.0
C2546 C 0.93223 0.74629 0.73323 0.0
C2547 C 0.92244 0.75604 0.72302 0.0
C2548 C 0.93019 0.76384 0.70801 0.0
C2549 C 0.94692 0.76135 0.70296 0.0
C2550 C 0.90418 0.75801 0.72799 0.0
C2551 C 0.90186 0.77589 0.73067 0.0
C2552 C 0.88919 0.74245 0.73052 0.0
C2553 C 0.88998 0.723 0.72688 0.0
C2554 C 0.89349 0.71586 0.70958 0.0
C2555 C 0.89424 0.69753 0.70624 0.0
C2556 C 0.8914 0.68617 0.72007 0.0
C2557 C 0.88777 0.6931 0.73726 0.0
C2558 C 0.88697 0.71141 0.74065 0.0
C2559 C 0.81878 0.75687 0.74187 0.0
C2560 C 0.81948 0.76975 0.75754 0.0
C2561 C 0.83529 0.75463 0.73606 0.0
C2562 C 0.85296 0.76527 0.74569 0.0
C2563 C 0.85367 0.77785 0.76157 0.0
C2564 C 0.83718 0.78011 0.76737 0.0
C2565 C 0.87058 0.76316 0.73915 0.0
C2566 C 0.87276 0.74526 0.73617 0.0
C2567 C 0.88529 0.77864 0.73603 0.0
C2568 C 0.88355 0.79779 0.73772 0.0
C2569 C 0.89702 0.81255 0.74954 0.0
C2570 C 0.8953 0.83058 0.75126 0.0
C2571 C 0.88021 0.83403 0.74116 0.0
C2572 C 0.86685 0.81948 0.72926 0.0
C2573 C 0.86852 0.80143 0.72747 0.0
H2574 H 0.8789 0.84799 0.74253 0.0
H2575 H 0.89196 0.67197 0.71746 0.0
H2576 H 0.11755 0.00929 0.83813 0.0
H2577 H 0.11023 0.00552 0.86955 0.0
H2578 H 0.05426 0.00736 0.85286 0.0
H2579 H 0.06162 0.01156 0.82184 0.0
H2580 H 0.07062 0.03261 0.88192 0.0
H2581 H 0.06379 0.96723 0.86411 0.0
H2582 H 0.07413 0.94041 0.85272 0.0
H2583 H 0.11927 0.95628 0.89783 0.0
H2584 H 0.10935 0.98335 0.90935 0.0
H2585 H 0.02113 0.00914 0.95455 0.0
H2586 H 0.03286 0.00562 0.92516 0.0
H2587 H 0.088 0.01328 0.95387 0.0
H2588 H 0.07637 0.01685 0.98363 0.0
H2589 H 0.07639 0.9846 0.921 0.0
H2590 H 0.08209 0.04907 0.93948 0.0
H2591 H 0.07107 0.07531 0.95118 0.0
H2592 H 0.02782 0.06088 0.9044 0.0
H2593 H 0.03838 0.03434 0.89258 0.0
C2594 C 0.10355 0.00837 0.84109 0.0
C2595 C 0.0902 0.01088 0.82761 0.0
C2596 C 0.09938 0.00625 0.85905 0.0
C2597 C 0.08172 0.00632 0.86362 0.0
C2598 C 0.06804 0.00748 0.84974 0.0
C2599 C 0.07224 0.00981 0.83198 0.0
C2600 C 0.07784 0.00711 0.88308 0.0
C2601 C 0.07173 0.02197 0.89034 0.0
C2602 C 0.07997 0.99368 0.8944 0.0
C2603 C 0.08596 0.97744 0.88746 0.0
C2604 C 0.07603 0.9651 0.8715 0.0
C2605 C 0.08179 0.94983 0.86504 0.0
C2606 C 0.09738 0.94668 0.87451 0.0
C2607 C 0.10722 0.95876 0.89049 0.0
C2608 C 0.10152 0.97406 0.89699 0.0
C2609 C 0.03572 0.0099 0.95473 0.0
C2610 C 0.04785 0.01352 0.9715 0.0
C2611 C 0.04239 0.00784 0.93787 0.0
C2612 C 0.06132 0.00937 0.93736 0.0
C2613 C 0.07334 0.01206 0.95401 0.0
C2614 C 0.06667 0.01419 0.97097 0.0
C2615 C 0.06858 0.00968 0.91937 0.0
C2616 C 0.07544 0.99523 0.91251 0.0
C2617 C 0.06717 0.02348 0.90831 0.0
C2618 C 0.06095 0.03962 0.91522 0.0
C2619 C 0.07015 0.05141 0.93175 0.0
C2620 C 0.06399 0.06635 0.9384 0.0
C2621 C 0.04873 0.06974 0.92856 0.0
C2622 C 0.03963 0.05823 0.91202 0.0
C2623 C 0.04571 0.04324 0.90533 0.0
H2624 H 0.04398 0.08131 0.93373 0.0
H2625 H 0.10182 0.93485 0.86949 0.0
H2626 H 0.76668 0.34065 0.54202 0.0
H2627 H 0.74965 0.32455 0.5646 0.0
H2628 H 0.72418 0.36847 0.57425 0.0
H2629 H 0.74151 0.38491 0.55154 0.0
H2630 H 0.74177 0.36358 0.60519 0.0
H2631 H 0.69541 0.32313 0.56003 0.0
H2632 H 0.68128 0.30294 0.53031 0.0
H2633 H 0.71134 0.26463 0.54354 0.0
H2634 H 0.7259 0.28469 0.5732 0.0
H2635 H 0.74299 0.31391 0.68133 0.0
H2636 H 0.72612 0.32427 0.65643 0.0
H2637 H 0.75235 0.29802 0.61648 0.0
H2638 H 0.76914 0.2877 0.64112 0.0
H2639 H 0.71663 0.29489 0.60254 0.0
H2640 H 0.77302 0.34611 0.63618 0.0
H2641 H 0.7901 0.36739 0.66454 0.0
H2642 H 0.74156 0.38485 0.67185 0.0
H2643 H 0.72427 0.36376 0.64339 0.0
C2644 C 0.7572 0.34675 0.54865 0.0
C2645 C 0.75568 0.36419 0.54523 0.0
C2646 C 0.7472 0.33737 0.56139 0.0
C2647 C 0.73541 0.34517 0.57096 0.0
C2648 C 0.73306 0.36212 0.56687 0.0
C2649 C 0.74303 0.37152 0.55397 0.0
C2650 C 0.72877 0.33725 0.58743 0.0
C2651 C 0.7355 0.34863 0.60462 0.0
C2652 C 0.72052 0.31778 0.58674 0.0
C2653 C 0.7117 0.30544 0.56895 0.0
C2654 C 0.69907 0.31043 0.5566 0.0
C2655 C 0.69098 0.299 0.53974 0.0
C2656 C 0.69539 0.2825 0.53505 0.0
C2657 C 0.70789 0.27738 0.54722 0.0
C2658 C 0.71602 0.28876 0.5641 0.0
C2659 C 0.74506 0.31029 0.6672 0.0
C2660 C 0.75761 0.30023 0.66318 0.0
C2661 C 0.7353 0.31608 0.65301 0.0
C2662 C 0.73809 0.31203 0.63463 0.0
C2663 C 0.74982 0.30113 0.63055 0.0
C2664 C 0.75949 0.29529 0.64467 0.0
C2665 C 0.7312 0.32109 0.61979 0.0
C2666 C 0.72181 0.30993 0.60305 0.0
C2667 C 0.73707 0.34075 0.62079 0.0
C2668 C 0.74736 0.35331 0.63785 0.0
C2669 C 0.76601 0.35447 0.6439 0.0
C2670 C 0.77572 0.36648 0.65997 0.0
C2671 C 0.7669 0.37739 0.67006 0.0
C2672 C 0.74836 0.37637 0.66405 0.0
C2673 C 0.73862 0.36443 0.64793 0.0
H2674 H 0.77444 0.3867 0.6825 0.0
H2675 H 0.68913 0.27368 0.52199 0.0
H2676 H 0.4281 0.05557 0.3295 0.0
H2677 H 0.44658 0.06664 0.36036 0.0
H2678 H 0.42707 0.01105 0.3744 0.0
H2679 H 0.40903 0.99981 0.34358 0.0
H2680 H 0.4271 0.04285 0.40269 0.0
H2681 H 0.46585 0.02075 0.36052 0.0
H2682 H 0.48146 0.02227 0.33259 0.0
H2683 H 0.5113 0.0802 0.35136 0.0
H2684 H 0.49564 0.07905 0.3793 0.0
H2685 H 0.479 0.01311 0.46687 0.0
H2686 H 0.46262 0.01915 0.43923 0.0
H2687 H 0.50595 0.07144 0.44113 0.0
H2688 H 0.52286 0.06525 0.46895 0.0
H2689 H 0.49556 0.05288 0.4065 0.0
H2690 H 0.46388 0.07237 0.45289 0.0
H2691 H 0.44878 0.07141 0.4811 0.0
H2692 H 0.40589 0.02127 0.45545 0.0
H2693 H 0.42084 0.02176 0.42715 0.0
C2694 C 0.42763 0.04579 0.33927 0.0
C2695 C 0.41729 0.02681 0.33418 0.0
C2696 C 0.43815 0.05213 0.35682 0.0
C2697 C 0.43808 0.03963 0.36953 0.0
C2698 C 0.42717 0.02087 0.36473 0.0
C2699 C 0.417 0.01446 0.34712 0.0
C2700 C 0.45037 0.04544 0.38744 0.0
C2701 C 0.44209 0.04521 0.40364 0.0
C2702 C 0.46997 0.04927 0.38854 0.0
C2703 C 0.47941 0.04989 0.37183 0.0
C2704 C 0.47561 0.03385 0.35859 0.0
C2705 C 0.48448 0.03463 0.34279 0.0
C2706 C 0.49731 0.05134 0.34017 0.0
C2707 C 0.50132 0.06728 0.35338 0.0
C2708 C 0.49246 0.06657 0.3692 0.0
C2709 C 0.48512 0.02592 0.46147 0.0
C2710 C 0.50216 0.03878 0.47015 0.0
C2711 C 0.47565 0.02943 0.44573 0.0
C2712 C 0.4828 0.046 0.43846 0.0
C2713 C 0.50011 0.05868 0.44671 0.0
C2714 C 0.50975 0.05509 0.4625 0.0
C2715 C 0.47218 0.04935 0.42183 0.0
C2716 C 0.48071 0.0513 0.4058 0.0
C2717 C 0.45282 0.04739 0.42094 0.0
C2718 C 0.44353 0.04711 0.43786 0.0
C2719 C 0.45127 0.06108 0.45328 0.0
C2720 C 0.44274 0.06062 0.4693 0.0
C2721 C 0.4264 0.04628 0.47008 0.0
C2722 C 0.41854 0.03239 0.45482 0.0
C2723 C 0.42701 0.03278 0.43875 0.0
H2724 H 0.41982 0.04593 0.48249 0.0
H2725 H 0.50417 0.05192 0.32793 0.0
H2726 H 0.78639 0.74867 0.06456 0.0
H2727 H 0.7883 0.75815 0.09773 0.0
H2728 H 0.7953 0.70536 0.10811 0.0
H2729 H 0.79356 0.6958 0.07478 0.0
H2730 H 0.76563 0.71327 0.1234 0.0
H2731 H 0.8303 0.7437 0.12248 0.0
H2732 H 0.85763 0.76404 0.11138 0.0
H2733 H 0.83859 0.81155 0.12511 0.0
H2734 H 0.81089 0.79143 0.13593 0.0
H2735 H 0.77695 0.73706 0.22155 0.0
H2736 H 0.78081 0.72738 0.18959 0.0
H2737 H 0.77693 0.78013 0.17532 0.0
H2738 H 0.77307 0.78978 0.2074 0.0
H2739 H 0.80665 0.7713 0.16266 0.0
H2740 H 0.7411 0.74106 0.16093 0.0
H2741 H 0.71295 0.72104 0.17112 0.0
H2742 H 0.73321 0.67367 0.1618 0.0
H2743 H 0.76164 0.69349 0.15181 0.0
C2744 C 0.78884 0.73926 0.07393 0.0
C2745 C 0.7898 0.72148 0.06707 0.0
C2746 C 0.78995 0.74472 0.09289 0.0
C2747 C 0.7919 0.73245 0.10539 0.0
C2748 C 0.7938 0.71503 0.09868 0.0
C2749 C 0.79296 0.70965 0.07966 0.0
C2750 C 0.79001 0.73717 0.1251 0.0
C2751 C 0.77485 0.72575 0.13213 0.0
C2752 C 0.80167 0.75378 0.13625 0.0
C2753 C 0.81838 0.76599 0.12983 0.0
C2754 C 0.83181 0.75845 0.12296 0.0
C2755 C 0.84739 0.76995 0.11672 0.0
C2756 C 0.84979 0.78906 0.11744 0.0
C2757 C 0.83667 0.79672 0.12448 0.0
C2758 C 0.82102 0.78528 0.13068 0.0
C2759 C 0.77653 0.74636 0.21143 0.0
C2760 C 0.77434 0.76394 0.21664 0.0
C2761 C 0.7788 0.74088 0.19324 0.0
C2762 C 0.77904 0.75298 0.18003 0.0
C2763 C 0.77673 0.77056 0.18527 0.0
C2764 C 0.77434 0.77599 0.20347 0.0
C2765 C 0.7822 0.74744 0.16089 0.0
C2766 C 0.79756 0.75873 0.15398 0.0
C2767 C 0.77066 0.73076 0.14978 0.0
C2768 C 0.75361 0.71881 0.15583 0.0
C2769 C 0.73964 0.72641 0.16123 0.0
C2770 C 0.72362 0.7151 0.16693 0.0
C2771 C 0.72132 0.69611 0.16716 0.0
C2772 C 0.73503 0.68839 0.16165 0.0
C2773 C 0.7511 0.69966 0.15595 0.0
H2774 H 0.70889 0.68737 0.17157 0.0
H2775 H 0.8619 0.79794 0.11267 0.0
H2776 H 0.05816 0.02345 0.72997 0.0
H2777 H 0.04826 0.02151 0.69704 0.0
H2778 H 0.09648 0.00503 0.68474 0.0
H2779 H 0.10664 0.00713 0.71793 0.0
H2780 H 0.09336 0.03392 0.66739 0.0
H2781 H 0.0527 0.97422 0.67339 0.0
H2782 H 0.02925 0.95131 0.68685 0.0
H2783 H 0.98908 0.98037 0.6753 0.0
H2784 H 0.01238 0.00363 0.662 0.0
H2785 H 0.0639 0.01477 0.57026 0.0
H2786 H 0.07262 0.0118 0.60239 0.0
H2787 H 0.02885 0.03386 0.61847 0.0
H2788 H 0.02005 0.03705 0.58616 0.0
H2789 H 0.02994 1.00072 0.63323 0.0
H2790 H 0.0712 0.0612 0.62885 0.0
H2791 H 0.09457 0.08401 0.6152 0.0
H2792 H 0.13355 0.05297 0.62349 0.0
H2793 H 0.1103 0.02982 0.637 0.0
C2794 C 0.06651 0.01906 0.72028 0.0
C2795 C 0.08324 0.01551 0.72659 0.0
C2796 C 0.06077 0.01789 0.70141 0.0
C2797 C 0.07158 0.01309 0.68838 0.0
C2798 C 0.08791 0.00877 0.69457 0.0
C2799 C 0.09363 0.00983 0.71352 0.0
C2800 C 0.06654 0.01413 0.66854 0.0
C2801 C 0.07962 0.02635 0.65982 0.0
C2802 C 0.04842 0.0047 0.6588 0.0
C2803 C 0.03436 0.99077 0.66684 0.0
C2804 C 0.03892 0.97583 0.67387 0.0
C2805 C 0.02564 0.96276 0.68144 0.0
C2806 C 0.0077 0.96441 0.68197 0.0
C2807 C 0.00299 0.97912 0.67489 0.0
C2808 C 0.01622 0.99224 0.66732 0.0
C2809 C 0.05614 0.01908 0.58061 0.0
C2810 C 0.04128 0.02618 0.57566 0.0
C2811 C 0.06118 0.0174 0.59898 0.0
C2812 C 0.05141 0.02264 0.6128 0.0
C2813 C 0.03655 0.02973 0.60797 0.0
C2814 C 0.03163 0.03165 0.58956 0.0
C2815 C 0.05673 0.02053 0.63224 0.0
C2816 C 0.04371 0.00815 0.64083 0.0
C2817 C 0.0749 0.02978 0.64185 0.0
C2818 C 0.08894 0.04367 0.63377 0.0
C2819 C 0.0847 0.05914 0.62762 0.0
C2820 C 0.09793 0.07215 0.61994 0.0
C2821 C 0.11552 0.06992 0.61845 0.0
C2822 C 0.11991 0.05467 0.62465 0.0
C2823 C 0.10672 0.04161 0.63234 0.0
H2824 H 0.12575 0.08004 0.61255 0.0
H2825 H 0.99744 0.95427 0.68783 0.0
H2826 H 0.75479 0.38641 0.45228 0.0
H2827 H 0.74768 0.37333 0.41933 0.0
H2828 H 0.79805 0.35688 0.42352 0.0
H2829 H 0.80523 0.3698 0.45621 0.0
H2830 H 0.79265 0.37214 0.3919 0.0
H2831 H 0.75762 0.32599 0.42651 0.0
H2832 H 0.73477 0.31474 0.44756 0.0
H2833 H 0.69146 0.32443 0.41096 0.0
H2834 H 0.71415 0.33598 0.3898 0.0
H2835 H 0.78324 0.2925 0.32893 0.0
H2836 H 0.78186 0.31028 0.35842 0.0
H2837 H 0.73918 0.33025 0.3319 0.0
H2838 H 0.74075 0.31285 0.30221 0.0
H2839 H 0.73654 0.31675 0.3719 0.0
H2840 H 0.77189 0.36021 0.33557 0.0
H2841 H 0.79516 0.36936 0.31441 0.0
H2842 H 0.83811 0.36375 0.35448 0.0
H2843 H 0.81497 0.3542 0.37574 0.0
C2844 C 0.76444 0.3802 0.44609 0.0
C2845 C 0.78047 0.37896 0.45683 0.0
C2846 C 0.76034 0.37272 0.42733 0.0
C2847 C 0.7723 0.36407 0.41911 0.0
C2848 C 0.78867 0.36353 0.42965 0.0
C2849 C 0.79268 0.37082 0.44834 0.0
C2850 C 0.7675 0.35454 0.39984 0.0
C2851 C 0.78031 0.36013 0.38749 0.0
C2852 C 0.75124 0.33905 0.39404 0.0
C2853 C 0.73762 0.33208 0.40672 0.0
C2854 C 0.74326 0.32588 0.42304 0.0
C2855 C 0.73034 0.31942 0.43497 0.0
C2856 C 0.71169 0.31894 0.43064 0.0
C2857 C 0.70592 0.32486 0.41433 0.0
C2858 C 0.7188 0.33136 0.40236 0.0
C2859 C 0.77331 0.30037 0.32945 0.0
C2860 C 0.76223 0.30146 0.31332 0.0
C2861 C 0.77255 0.3105 0.34624 0.0
C2862 C 0.76048 0.32154 0.34715 0.0
C2863 C 0.74853 0.32173 0.33135 0.0
C2864 C 0.74954 0.31189 0.31446 0.0
C2865 C 0.76186 0.33422 0.36426 0.0
C2866 C 0.74852 0.32914 0.37617 0.0
C2867 C 0.77762 0.35019 0.3697 0.0
C2868 C 0.79167 0.35633 0.35716 0.0
C2869 C 0.78626 0.36077 0.3398 0.0
C2870 C 0.79943 0.36606 0.3278 0.0
C2871 C 0.8181 0.3671 0.33308 0.0
C2872 C 0.82364 0.36292 0.3504 0.0
C2873 C 0.81051 0.35759 0.36244 0.0
H2874 H 0.82828 0.37119 0.32377 0.0
H2875 H 0.7017 0.31392 0.43989 0.0
H2876 H 0.41675 0.9857 0.2303 0.0
H2877 H 0.43722 0.98944 0.20655 0.0
H2878 H 0.4511 0.04943 0.21942 0.0
H2879 H 0.42983 0.04569 0.24284 0.0
H2880 H 0.44704 0.03918 0.18337 0.0
H2881 H 0.48151 0.02587 0.23548 0.0
H2882 H 0.48673 0.00877 0.26117 0.0
H2883 H 0.4787 0.95916 0.22255 0.0
H2884 H 0.47317 0.97588 0.19664 0.0
H2885 H 0.51796 0.04614 0.12581 0.0
H2886 H 0.50468 0.04936 0.15457 0.0
H2887 H 0.48012 0.98948 0.14805 0.0
H2888 H 0.49341 0.98618 0.11939 0.0
H2889 H 0.49391 0.00456 0.18397 0.0
H2890 H 0.45499 0.01698 0.13278 0.0
H2891 H 0.44985 0.03397 0.10696 0.0
H2892 H 0.46695 0.08567 0.14436 0.0
H2893 H 0.47241 0.06899 0.17037 0.0
C2894 C 0.4241 0.99969 0.22801 0.0
C2895 C 0.42192 0.01543 0.2385 0.0
C2896 C 0.43587 0.00182 0.21453 0.0
C2897 C 0.44613 0.01972 0.21164 0.0
C2898 C 0.44345 0.0355 0.2216 0.0
C2899 C 0.43132 0.03336 0.23492 0.0
C2900 C 0.45959 0.02173 0.19816 0.0
C2901 C 0.45757 0.03195 0.18373 0.0
C2902 C 0.47323 0.01216 0.19857 0.0
C2903 C 0.47685 0.00212 0.21412 0.0
C2904 C 0.48078 0.01129 0.23247 0.0
C2905 C 0.48379 0.00166 0.24707 0.0
C2906 C 0.48303 0.98289 0.24349 0.0
C2907 C 0.4793 0.97371 0.2253 0.0
C2908 C 0.47626 0.98326 0.21065 0.0
C2909 C 0.50988 0.03367 0.13066 0.0
C2910 C 0.50653 0.01592 0.12034 0.0
C2911 C 0.50235 0.03553 0.14705 0.0
C2912 C 0.49121 0.01968 0.15321 0.0
C2913 C 0.48871 0.00187 0.14348 0.0
C2914 C 0.49631 1.0 0.12715 0.0
C2915 C 0.48097 0.02154 0.169 0.0
C2916 C 0.48363 0.01208 0.18387 0.0
C2917 C 0.46798 0.03185 0.16903 0.0
C2918 C 0.46429 0.04178 0.15347 0.0
C2919 C 0.45774 0.03199 0.13547 0.0
C2920 C 0.45476 0.04155 0.12081 0.0
C2921 C 0.45812 0.06089 0.12401 0.0
C2922 C 0.46438 0.07069 0.14189 0.0
C2923 C 0.4674 0.06119 0.1566 0.0
H2924 H 0.45583 0.06828 0.11263 0.0
H2925 H 0.48534 0.97546 0.25482 0.0
H2926 H 0.79324 0.6902 0.95491 0.0
H2927 H 0.79536 0.69714 0.92323 0.0
H2928 H 0.78474 0.74952 0.93874 0.0
H2929 H 0.78213 0.74246 0.97004 0.0
H2930 H 0.76126 0.73043 0.90962 0.0
H2931 H 0.82806 0.74649 0.92831 0.0
H2932 H 0.8573 0.74066 0.94038 0.0
H2933 H 0.84747 0.69537 0.89602 0.0
H2934 H 0.81803 0.70079 0.88382 0.0
H2935 H 0.78245 0.78321 0.83906 0.0
H2936 H 0.78609 0.77092 0.86792 0.0
H2937 H 0.78327 0.71766 0.83774 0.0
H2938 H 0.77949 0.72986 0.80844 0.0
H2939 H 0.81223 0.73203 0.87157 0.0
H2940 H 0.74633 0.71809 0.85182 0.0
H2941 H 0.71791 0.72534 0.83966 0.0
H2942 H 0.72672 0.76771 0.88661 0.0
H2943 H 0.75539 0.76092 0.89891 0.0
C2944 C 0.7918 0.70337 0.95162 0.0
C2945 C 0.78736 0.71572 0.96489 0.0
C2946 C 0.793 0.70733 0.93351 0.0
C2947 C 0.79007 0.72381 0.92855 0.0
C2948 C 0.78683 0.73662 0.94216 0.0
C2949 C 0.78541 0.7326 0.96008 0.0
C2950 C 0.78873 0.72723 0.909 0.0
C2951 C 0.77251 0.7309 0.90141 0.0
C2952 C 0.80306 0.72716 0.89796 0.0
C2953 C 0.82074 0.7239 0.90529 0.0
C2954 C 0.83205 0.73518 0.92123 0.0
C2955 C 0.84868 0.73197 0.92807 0.0
C2956 C 0.85421 0.71761 0.91901 0.0
C2957 C 0.84315 0.70646 0.90305 0.0
C2958 C 0.8265 0.70961 0.89616 0.0
C2959 C 0.78273 0.76891 0.83843 0.0
C2960 C 0.7805 0.75747 0.82137 0.0
C2961 C 0.78485 0.76193 0.855 0.0
C2962 C 0.78484 0.74338 0.85494 0.0
C2963 C 0.78334 0.73204 0.83803 0.0
C2964 C 0.78107 0.739 0.82133 0.0
C2965 C 0.78509 0.73581 0.87265 0.0
C2966 C 0.80096 0.73129 0.87981 0.0
C2967 C 0.77049 0.73514 0.88341 0.0
C2968 C 0.75309 0.73908 0.87622 0.0
C2969 C 0.74228 0.72904 0.85949 0.0
C2970 C 0.72612 0.73306 0.85258 0.0
C2971 C 0.72053 0.747 0.86234 0.0
C2972 C 0.73107 0.75692 0.87906 0.0
C2973 C 0.74727 0.75298 0.88602 0.0
H2974 H 0.70802 0.7501 0.85697 0.0
H2975 H 0.86708 0.71515 0.92433 0.0
H2976 H 0.78848 0.08171 0.01079 0.0
H2977 H 0.80803 0.06094 0.00932 0.0
H2978 H 0.84633 0.0962 0.05586 0.0
H2979 H 0.82706 0.11716 0.05727 0.0
H2980 H 0.86425 0.08953 0.02769 0.0
H2981 H 0.81819 0.05297 0.06007 0.0
H2982 H 0.78634 0.03614 0.06544 0.0
H2983 H 0.77826 0.99919 0.01443 0.0
H2984 H 0.80999 0.01598 0.00862 0.0
H2985 H 0.92347 0.03479 0.04024 0.0
H2986 H 0.89972 0.04985 0.04631 0.0
H2987 H 0.86289 0.01524 0.99857 0.0
H2988 H 0.88634 0.99941 0.99281 0.0
H2989 H 0.84379 0.02092 0.02749 0.0
H2990 H 0.88957 0.05807 0.99487 0.0
H2991 H 0.92146 0.0749 0.98957 0.0
H2992 H 0.92986 0.11107 0.04114 0.0
H2993 H 0.89814 0.09426 0.04689 0.0
C2994 C 0.80093 0.08491 0.02087 0.0
C2995 C 0.80631 0.10115 0.03406 0.0
C2996 C 0.81204 0.07298 0.02006 0.0
C2997 C 0.82859 0.07702 0.03252 0.0
C2998 C 0.83363 0.09288 0.04609 0.0
C2999 C 0.82258 0.10482 0.04688 0.0
C3000 C 0.84142 0.06557 0.03057 0.0
C3001 C 0.85985 0.07458 0.02796 0.0
C3002 C 0.83548 0.04599 0.03035 0.0
C3003 C 0.8164 0.03585 0.03383 0.0
C3004 C 0.80956 0.04136 0.04992 0.0
C3005 C 0.79154 0.0318 0.05306 0.0
C3006 C 0.78026 0.01664 0.04026 0.0
C3007 C 0.787 0.01096 0.02432 0.0
C3008 C 0.80501 0.02048 0.02111 0.0
C3009 C 0.91014 0.02997 0.03129 0.0
C3010 C 0.90684 0.01595 0.01596 0.0
C3011 C 0.89665 0.03874 0.03469 0.0
C3012 C 0.87973 0.03388 0.02269 0.0
C3013 C 0.87594 0.01926 0.00792 0.0
C3014 C 0.88941 0.01036 0.00456 0.0
C3015 C 0.86661 0.04496 0.02485 0.0
C3016 C 0.84815 0.03589 0.02735 0.0
C3017 C 0.87249 0.06453 0.02494 0.0
C3018 C 0.89153 0.07478 0.0214 0.0
C3019 C 0.89827 0.06952 0.00515 0.0
C3020 C 0.91632 0.07907 0.00205 0.0
C3021 C 0.92772 0.09401 0.01503 0.0
C3022 C 0.92105 0.09947 0.03111 0.0
C3023 C 0.90303 0.08994 0.03429 0.0
H3024 H 0.94169 0.10138 0.01262 0.0
H3025 H 0.76631 0.00926 0.04272 0.0
H3026 H 0.31251 0.42571 0.02448 0.0
H3027 H 0.34093 0.45181 0.02423 0.0
H3028 H 0.37392 0.42341 0.05408 0.0
H3029 H 0.34586 0.39757 0.05438 0.0
H3030 H 0.38584 0.46083 0.06613 0.0
H3031 H 0.36952 0.4185 0.00806 0.0
H3032 H 0.34866 0.40161 0.97945 0.0
H3033 H 0.34725 0.45375 0.96238 0.0
H3034 H 0.36791 0.47095 0.99106 0.0
H3035 H 0.47624 0.4807 0.0415 0.0
H3036 H 0.44368 0.46628 0.04538 0.0
H3037 H 0.42702 0.50672 0.01635 0.0
H3038 H 0.45968 0.52136 0.01244 0.0
H3039 H 0.40449 0.46954 0.00417 0.0
H3040 H 0.42704 0.51147 0.06087 0.0
H3041 H 0.44913 0.52667 0.08921 0.0
H3042 H 0.43987 0.47378 0.10882 0.0
H3043 H 0.41794 0.4582 0.08045 0.0
C3044 C 0.32579 0.42528 0.0313 0.0
C3045 C 0.32703 0.40954 0.03927 0.0
C3046 C 0.34199 0.44012 0.03109 0.0
C3047 C 0.35954 0.43943 0.03899 0.0
C3048 C 0.36054 0.42425 0.04792 0.0
C3049 C 0.34449 0.40942 0.04798 0.0
C3050 C 0.37721 0.45348 0.03674 0.0
C3051 C 0.3899 0.46282 0.0526 0.0
C3052 C 0.38236 0.45629 0.01906 0.0
C3053 C 0.37003 0.44599 0.0018 0.0
C3054 C 0.36463 0.42635 0.99828 0.0
C3055 C 0.35287 0.41672 0.98204 0.0
C3056 C 0.34658 0.4266 0.96913 0.0
C3057 C 0.35209 0.44612 0.97242 0.0
C3058 C 0.36382 0.45582 0.98866 0.0
C3059 C 0.46569 0.48659 0.03596 0.0
C3060 C 0.47057 0.50221 0.02669 0.0
C3061 C 0.4471 0.47838 0.03827 0.0
C3062 C 0.433 0.48557 0.03131 0.0
C3063 C 0.43774 0.50104 0.02189 0.0
C3064 C 0.4564 0.50939 0.01972 0.0
C3065 C 0.41329 0.47649 0.03358 0.0
C3066 C 0.40025 0.46803 0.01771 0.0
C3067 C 0.40789 0.47431 0.05126 0.0
C3068 C 0.42091 0.48365 0.06847 0.0
C3069 C 0.4298 0.50306 0.07117 0.0
C3070 C 0.44229 0.51175 0.08725 0.0
C3071 C 0.44592 0.5012 0.1008 0.0
C3072 C 0.43704 0.48194 0.09831 0.0
C3073 C 0.42456 0.47317 0.08224 0.0
H3074 H 0.45561 0.50795 0.11323 0.0
H3075 H 0.33748 0.41911 0.95657 0.0
H3076 H 0.36361 0.54523 0.76622 0.0
H3077 H 0.34721 0.56881 0.76722 0.0
H3078 H 0.39902 0.61164 0.76579 0.0
H3079 H 0.41561 0.58811 0.7648 0.0
H3080 H 0.37845 0.62237 0.79167 0.0
H3081 H 0.36798 0.59629 0.72752 0.0
H3082 H 0.35844 0.57099 0.70091 0.0
H3083 H 0.30265 0.55392 0.71484 0.0
H3084 H 0.31192 0.57899 0.74169 0.0
H3085 H 0.33555 0.69248 0.77287 0.0
H3086 H 0.35403 0.67069 0.7719 0.0
H3087 H 0.30349 0.6244 0.76704 0.0
H3088 H 0.28488 0.64598 0.7671 0.0
H3089 H 0.32475 0.61624 0.74377 0.0
H3090 H 0.33477 0.64178 0.80794 0.0
H3091 H 0.34408 0.66627 0.83524 0.0
H3092 H 0.40031 0.68348 0.82247 0.0
H3093 H 0.39122 0.65943 0.79478 0.0
C3094 C 0.37157 0.55966 0.76613 0.0
C3095 C 0.39094 0.56474 0.76535 0.0
C3096 C 0.36214 0.57313 0.76665 0.0
C3097 C 0.37185 0.59198 0.7664 0.0
C3098 C 0.39124 0.59718 0.76596 0.0
C3099 C 0.40068 0.58369 0.76533 0.0
C3100 C 0.36168 0.6062 0.76652 0.0
C3101 C 0.36688 0.62122 0.78105 0.0
C3102 C 0.34633 0.60445 0.7529 0.0
C3103 C 0.34069 0.58941 0.73671 0.0
C3104 C 0.35371 0.58705 0.72499 0.0
C3105 C 0.34835 0.57277 0.70985 0.0
C3106 C 0.32997 0.56083 0.70621 0.0
C3107 C 0.31689 0.56317 0.71769 0.0
C3108 C 0.32219 0.57743 0.73286 0.0
C3109 C 0.32833 0.67766 0.77143 0.0
C3110 C 0.30867 0.67105 0.7701 0.0
C3111 C 0.33896 0.6652 0.77109 0.0
C3112 C 0.33021 0.64586 0.76961 0.0
C3113 C 0.31061 0.63924 0.76825 0.0
C3114 C 0.29998 0.65165 0.76848 0.0
C3115 C 0.34133 0.63241 0.76907 0.0
C3116 C 0.33634 0.6175 0.7544 0.0
C3117 C 0.35681 0.63424 0.78265 0.0
C3118 C 0.36224 0.64893 0.79913 0.0
C3119 C 0.34906 0.65094 0.8108 0.0
C3120 C 0.35431 0.66474 0.82637 0.0
C3121 C 0.37275 0.67649 0.83054 0.0
C3122 C 0.386 0.67442 0.81918 0.0
C3123 C 0.3808 0.66073 0.80352 0.0
H3124 H 0.3768 0.68714 0.84261 0.0
H3125 H 0.32584 0.54977 0.69448 0.0
H3126 H 0.25011 0.61694 0.55369 0.0
H3127 H 0.21714 0.60088 0.55484 0.0
H3128 H 0.20447 0.65295 0.55357 0.0
H3129 H 0.23723 0.66885 0.55153 0.0
H3130 H 0.18862 0.60073 0.57282 0.0
H3131 H 0.16695 0.64621 0.52154 0.0
H3132 H 0.1809 0.66622 0.49917 0.0
H3133 H 0.21987 0.63516 0.49192 0.0
H3134 H 0.20592 0.61475 0.51395 0.0
H3135 H 0.08984 0.57518 0.5557 0.0
H3136 H 0.12325 0.59156 0.56353 0.0
H3137 H 0.13143 0.57488 0.50766 0.0
H3138 H 0.09777 0.55924 0.49953 0.0
H3139 H 0.14993 0.60883 0.51737 0.0
H3140 H 0.14454 0.55426 0.54595 0.0
H3141 H 0.13236 0.53063 0.56582 0.0
H3142 H 0.1495 0.57304 0.6136 0.0
H3143 H 0.16158 0.59698 0.59398 0.0
C3144 C 0.24035 0.62501 0.55415 0.0
C3145 C 0.24595 0.64393 0.55196 0.0
C3146 C 0.22156 0.61586 0.55487 0.0
C3147 C 0.20834 0.62566 0.55369 0.0
C3148 C 0.21442 0.64508 0.55398 0.0
C3149 C 0.23308 0.65412 0.5528 0.0
C3150 C 0.18822 0.61525 0.5493 0.0
C3151 C 0.18007 0.60254 0.56079 0.0
C3152 C 0.17733 0.6172 0.5332 0.0
C3153 C 0.18553 0.62911 0.51957 0.0
C3154 C 0.17844 0.6436 0.5151 0.0
C3155 C 0.18634 0.65501 0.50248 0.0
C3156 C 0.2013 0.652 0.49419 0.0
C3157 C 0.20831 0.6375 0.4984 0.0
C3158 C 0.20041 0.62601 0.51094 0.0
C3159 C 0.0988 0.57497 0.54511 0.0
C3160 C 0.09131 0.56596 0.52702 0.0
C3161 C 0.1179 0.58422 0.54964 0.0
C3162 C 0.1299 0.58417 0.53628 0.0
C3163 C 0.12241 0.57509 0.51819 0.0
C3164 C 0.10322 0.56617 0.51355 0.0
C3165 C 0.15013 0.59427 0.54095 0.0
C3166 C 0.15835 0.60701 0.52949 0.0
C3167 C 0.16121 0.59175 0.55665 0.0
C3168 C 0.15378 0.57743 0.56847 0.0
C3169 C 0.14556 0.55857 0.56068 0.0
C3170 C 0.13871 0.54512 0.5719 0.0
C3171 C 0.14011 0.55034 0.59095 0.0
C3172 C 0.1484 0.56902 0.59884 0.0
C3173 C 0.15526 0.58254 0.58767 0.0
H3174 H 0.13481 0.5399 0.59962 0.0
H3175 H 0.20744 0.66088 0.48447 0.0
H3176 H 0.72463 0.0274 0.79857 0.0
H3177 H 0.73913 0.00318 0.80449 0.0
H3178 H 0.70049 0.96491 0.75997 0.0
H3179 H 0.68583 0.98902 0.75395 0.0
H3180 H 0.70654 0.94842 0.79138 0.0
H3181 H 0.74239 0.98724 0.75172 0.0
H3182 H 0.76045 0.01719 0.7432 0.0
H3183 H 0.80033 0.0268 0.79216 0.0
H3184 H 0.78234 0.99701 0.8011 0.0
H3185 H 0.75257 0.88168 0.77066 0.0
H3186 H 0.73762 0.90615 0.76909 0.0
H3187 H 0.78187 0.94333 0.80981 0.0
H3188 H 0.79747 0.91913 0.81081 0.0
H3189 H 0.7733 0.9611 0.78272 0.0
H3190 H 0.73927 0.92103 0.82119 0.0
H3191 H 0.7213 0.89128 0.83011 0.0
H3192 H 0.67788 0.88429 0.78485 0.0
H3193 H 0.69585 0.91372 0.77528 0.0
C3194 C 0.71907 0.01377 0.79016 0.0
C3195 C 0.7042 0.01016 0.77567 0.0
C3196 C 0.7274 0.99999 0.79355 0.0
C3197 C 0.72098 0.98239 0.78252 0.0
C3198 C 0.70562 0.97845 0.7686 0.0
C3199 C 0.69733 0.99226 0.76514 0.0
C3200 C 0.73091 0.9684 0.78482 0.0
C3201 C 0.72108 0.95106 0.78934 0.0
C3202 C 0.75001 0.97216 0.78261 0.0
C3203 C 0.76091 0.99 0.77718 0.0
C3204 C 0.75493 0.99581 0.76074 0.0
C3205 C 0.76516 0.01274 0.75582 0.0
C3206 C 0.78149 0.02392 0.76716 0.0
C3207 C 0.78765 0.01815 0.78341 0.0
C3208 C 0.77745 0.00124 0.7884 0.0
C3209 C 0.75933 0.89516 0.77906 0.0
C3210 C 0.77625 0.89848 0.79085 0.0
C3211 C 0.75061 0.90904 0.77834 0.0
C3212 C 0.75846 0.92642 0.78959 0.0
C3213 C 0.77552 0.92994 0.80112 0.0
C3214 C 0.78434 0.91608 0.80176 0.0
C3215 C 0.7489 0.94095 0.78914 0.0
C3216 C 0.7588 0.95843 0.78494 0.0
C3217 C 0.72988 0.93731 0.79174 0.0
C3218 C 0.71903 0.91952 0.79741 0.0
C3219 C 0.726 0.91305 0.813 0.0
C3220 C 0.71581 0.89623 0.81816 0.0
C3221 C 0.69851 0.88584 0.80799 0.0
C3222 C 0.69134 0.89228 0.79264 0.0
C3223 C 0.70153 0.90903 0.78733 0.0
H3224 H 0.69063 0.87286 0.81205 0.0
H3225 H 0.7894 0.03702 0.76333 0.0
H3226 H 0.72843 0.90689 0.48412 0.0
H3227 H 0.70612 0.92474 0.48259 0.0
H3228 H 0.70386 0.92522 0.541 0.0
H3229 H 0.72597 0.90705 0.5426 0.0
H3230 H 0.66927 0.91857 0.52201 0.0
H3231 H 0.7301 0.96346 0.52441 0.0
H3232 H 0.76082 0.97626 0.51422 0.0
H3233 H 0.73362 0.97881 0.46075 0.0
H3234 H 0.70272 0.9658 0.47055 0.0
H3235 H 0.62991 0.99289 0.5377 0.0
H3236 H 0.65039 0.97303 0.53822 0.0
H3237 H 0.65275 0.97394 0.47996 0.0
H3238 H 0.63227 0.99382 0.47935 0.0
H3239 H 0.68671 0.97924 0.49818 0.0
H3240 H 0.6257 0.93664 0.49639 0.0
H3241 H 0.59497 0.92465 0.50675 0.0
H3242 H 0.62177 0.91688 0.55833 0.0
H3243 H 0.65275 0.92963 0.54866 0.0
C3244 C 0.72319 0.91075 0.49666 0.0
C3245 C 0.72912 0.90563 0.51352 0.0
C3246 C 0.71045 0.92101 0.49576 0.0
C3247 C 0.70348 0.92655 0.51173 0.0
C3248 C 0.70906 0.92113 0.5285 0.0
C3249 C 0.72177 0.91081 0.52941 0.0
C3250 C 0.69069 0.93832 0.511 0.0
C3251 C 0.67315 0.93195 0.51702 0.0
C3252 C 0.69555 0.95555 0.50403 0.0
C3253 C 0.71411 0.96349 0.49816 0.0
C3254 C 0.73068 0.96663 0.51044 0.0
C3255 C 0.74812 0.97394 0.50474 0.0
C3256 C 0.74917 0.9783 0.48683 0.0
C3257 C 0.73278 0.9754 0.47461 0.0
C3258 C 0.7153 0.96808 0.48023 0.0
C3259 C 0.63467 0.98876 0.52497 0.0
C3260 C 0.62941 0.99495 0.50848 0.0
C3261 C 0.64639 0.9774 0.52528 0.0
C3262 C 0.65296 0.9718 0.50908 0.0
C3263 C 0.64789 0.97809 0.49264 0.0
C3264 C 0.63622 0.98951 0.49233 0.0
C3265 C 0.6653 0.95957 0.50929 0.0
C3266 C 0.68276 0.96585 0.50315 0.0
C3267 C 0.6603 0.94223 0.5161 0.0
C3268 C 0.64162 0.93431 0.52185 0.0
C3269 C 0.62509 0.93258 0.51003 0.0
C3270 C 0.60761 0.92565 0.51578 0.0
C3271 C 0.60641 0.91994 0.53315 0.0
C3272 C 0.62271 0.92129 0.54487 0.0
C3273 C 0.64025 0.92845 0.53929 0.0
H3274 H 0.59285 0.91447 0.53751 0.0
H3275 H 0.76269 0.98395 0.48245 0.0
H3276 H 0.37757 0.48986 0.74805 0.0
H3277 H 0.35143 0.46089 0.74533 0.0
H3278 H 0.39078 0.42937 0.74979 0.0
H3279 H 0.41658 0.45776 0.75192 0.0
H3280 H 0.3632 0.41123 0.72443 0.0
H3281 H 0.36935 0.44292 0.7871 0.0
H3282 H 0.36945 0.46904 0.81051 0.0
H3283 H 0.31292 0.4641 0.78841 0.0
H3284 H 0.31258 0.43807 0.76473 0.0
H3285 H 0.32756 0.33285 0.76688 0.0
H3286 H 0.34386 0.36423 0.76124 0.0
H3287 H 0.29099 0.37302 0.74408 0.0
H3288 H 0.2744 0.34136 0.74954 0.0
H3289 H 0.3189 0.40358 0.77051 0.0
H3290 H 0.31261 0.36635 0.71146 0.0
H3291 H 0.31421 0.33888 0.69094 0.0
H3292 H 0.37332 0.3534 0.70901 0.0
H3293 H 0.37204 0.38081 0.72985 0.0
C3294 C 0.38058 0.47671 0.7483 0.0
C3295 C 0.39918 0.47616 0.75022 0.0
C3296 C 0.36565 0.46018 0.74682 0.0
C3297 C 0.36913 0.44293 0.74746 0.0
C3298 C 0.38768 0.44244 0.74912 0.0
C3299 C 0.40248 0.45878 0.75042 0.0
C3300 C 0.35384 0.42524 0.747 0.0
C3301 C 0.35348 0.40961 0.73448 0.0
C3302 C 0.34082 0.42313 0.7598 0.0
C3303 C 0.34102 0.43874 0.77401 0.0
C3304 C 0.357 0.44751 0.78716 0.0
C3305 C 0.35709 0.46228 0.80048 0.0
C3306 C 0.34123 0.46828 0.8009 0.0
C3307 C 0.32521 0.45947 0.78803 0.0
C3308 C 0.32506 0.44472 0.77466 0.0
C3309 C 0.31934 0.34142 0.76196 0.0
C3310 C 0.29968 0.33461 0.75863 0.0
C3311 C 0.32869 0.35933 0.7587 0.0
C3312 C 0.3186 0.37085 0.75217 0.0
C3313 C 0.29897 0.36428 0.7491 0.0
C3314 C 0.28956 0.3462 0.75214 0.0
C3315 C 0.32889 0.38964 0.74846 0.0
C3316 C 0.32826 0.40538 0.76014 0.0
C3317 C 0.34128 0.39183 0.73514 0.0
C3318 C 0.3422 0.37561 0.72227 0.0
C3319 C 0.32594 0.36364 0.71112 0.0
C3320 C 0.32679 0.34808 0.69943 0.0
C3321 C 0.34385 0.34439 0.69868 0.0
C3322 C 0.36011 0.35628 0.70959 0.0
C3323 C 0.35934 0.37186 0.72132 0.0
H3324 H 0.34448 0.33232 0.68964 0.0
H3325 H 0.34132 0.47971 0.81123 0.0
H3326 H 0.23819 0.57754 0.26976 0.0
H3327 H 0.26441 0.60534 0.28253 0.0
H3328 H 0.2594 0.62724 0.23121 0.0
H3329 H 0.2334 0.59958 0.21845 0.0
H3330 H 0.29467 0.6448 0.25319 0.0
H3331 H 0.22582 0.63032 0.25835 0.0
H3332 H 0.19732 0.60927 0.2671 0.0
H3333 H 0.22669 0.61196 0.32106 0.0
H3334 H 0.25536 0.63312 0.3126 0.0
H3335 H 0.27449 0.72901 0.25125 0.0
H3336 H 0.2771 0.69739 0.24928 0.0
H3337 H 0.27991 0.70066 0.30852 0.0
H3338 H 0.27693 0.73205 0.3106 0.0
H3339 H 0.255 0.66995 0.29229 0.0
H3340 H 0.3183 0.69886 0.28762 0.0
H3341 H 0.34538 0.72007 0.27694 0.0
H3342 H 0.32735 0.69047 0.22168 0.0
H3343 H 0.29997 0.66925 0.23193 0.0
C3344 C 0.24352 0.5877 0.26081 0.0
C3345 C 0.2335 0.58682 0.24336 0.0
C3346 C 0.25849 0.60362 0.26815 0.0
C3347 C 0.26333 0.61861 0.25803 0.0
C3348 C 0.25574 0.61595 0.23934 0.0
C3349 C 0.24078 0.60014 0.23205 0.0
C3350 C 0.27075 0.63807 0.26765 0.0
C3351 C 0.28631 0.65039 0.26204 0.0
C3352 C 0.25995 0.64526 0.27945 0.0
C3353 C 0.24266 0.63316 0.28484 0.0
C3354 C 0.22613 0.62646 0.2721 0.0
C3355 C 0.20998 0.61451 0.277 0.0
C3356 C 0.2102 0.60926 0.29462 0.0
C3357 C 0.22655 0.61605 0.30743 0.0
C3358 C 0.24274 0.62805 0.30261 0.0
C3359 C 0.27574 0.72303 0.26386 0.0
C3360 C 0.27529 0.73298 0.28103 0.0
C3361 C 0.27749 0.70504 0.26276 0.0
C3362 C 0.27903 0.69678 0.27881 0.0
C3363 C 0.27887 0.70681 0.29598 0.0
C3364 C 0.27703 0.72472 0.2971 0.0
C3365 C 0.27864 0.67695 0.27733 0.0
C3366 C 0.26417 0.66456 0.28434 0.0
C3367 C 0.29051 0.66984 0.26687 0.0
C3368 C 0.30702 0.68247 0.26056 0.0
C3369 C 0.32003 0.69692 0.27316 0.0
C3370 C 0.33545 0.70895 0.26718 0.0
C3371 C 0.33808 0.70662 0.24864 0.0
C3372 C 0.3253 0.69224 0.23604 0.0
C3373 C 0.30985 0.68018 0.24194 0.0
H3374 H 0.35003 0.71595 0.24404 0.0
H3375 H 0.19769 0.59995 0.29836 0.0
H3376 H 0.47422 0.70622 0.47976 0.0
H3377 H 0.47958 0.67768 0.48787 0.0
H3378 H 0.52999 0.6898 0.46241 0.0
H3379 H 0.52419 0.71823 0.45349 0.0
H3380 H 0.513 0.65426 0.45461 0.0
H3381 H 0.53004 0.69639 0.51132 0.0
H3382 H 0.52635 0.71903 0.53641 0.0
H3383 H 0.47846 0.67765 0.54884 0.0
H3384 H 0.48171 0.65482 0.52366 0.0
H3385 H 0.54681 0.58793 0.49863 0.0
H3386 H 0.54296 0.61681 0.4893 0.0
H3387 H 0.48803 0.60334 0.50605 0.0
H3388 H 0.49173 0.57435 0.51541 0.0
H3389 H 0.50901 0.64005 0.51857 0.0
H3390 H 0.49279 0.59807 0.46086 0.0
H3391 H 0.49814 0.57588 0.43638 0.0
H3392 H 0.54702 0.61795 0.42681 0.0
H3393 H 0.54211 0.64032 0.45143 0.0
C3394 C 0.48651 0.70291 0.47589 0.0
C3395 C 0.49887 0.71469 0.4661 0.0
C3396 C 0.48962 0.68654 0.48066 0.0
C3397 C 0.50546 0.68165 0.47622 0.0
C3398 C 0.51771 0.69323 0.46615 0.0
C3399 C 0.51442 0.70954 0.46108 0.0
C3400 C 0.509 0.6644 0.48198 0.0
C3401 C 0.51243 0.65136 0.46868 0.0
C3402 C 0.50801 0.66028 0.50029 0.0
C3403 C 0.50603 0.67395 0.51549 0.0
C3404 C 0.51864 0.69216 0.51932 0.0
C3405 C 0.51664 0.70501 0.53357 0.0
C3406 C 0.50215 0.69979 0.54418 0.0
C3407 C 0.48967 0.68168 0.54059 0.0
C3408 C 0.49159 0.66877 0.52635 0.0
C3409 C 0.53387 0.59105 0.50033 0.0
C3410 C 0.51957 0.57872 0.50778 0.0
C3411 C 0.53167 0.60758 0.4949 0.0
C3412 C 0.51514 0.61225 0.49682 0.0
C3413 C 0.5009 0.60006 0.5044 0.0
C3414 C 0.50303 0.58344 0.50969 0.0
C3415 C 0.5128 0.62993 0.49118 0.0
C3416 C 0.50963 0.64305 0.50453 0.0
C3417 C 0.5143 0.63422 0.47301 0.0
C3418 C 0.51718 0.62081 0.45812 0.0
C3419 C 0.50476 0.60255 0.45364 0.0
C3420 C 0.5077 0.58994 0.43972 0.0
C3421 C 0.52294 0.59548 0.43008 0.0
C3422 C 0.53523 0.61366 0.43431 0.0
C3423 C 0.53237 0.62632 0.44823 0.0
H3424 H 0.52519 0.5857 0.4193 0.0
H3425 H 0.50062 0.70977 0.5552 0.0
H3426 H 0.58996 0.29126 0.66534 0.0
H3427 H 0.61451 0.28841 0.68849 0.0
H3428 H 0.65659 0.31433 0.65604 0.0
H3429 H 0.63233 0.31701 0.63294 0.0
H3430 H 0.66155 0.2829 0.66519 0.0
H3431 H 0.6502 0.33714 0.69716 0.0
H3432 H 0.63085 0.35468 0.71128 0.0
H3433 H 0.61641 0.31473 0.74866 0.0
H3434 H 0.6355 0.29681 0.7346 0.0
H3435 H 0.74673 0.30408 0.7233 0.0
H3436 H 0.71891 0.30577 0.70456 0.0
H3437 H 0.68449 0.27945 0.74328 0.0
H3438 H 0.71257 0.27807 0.76254 0.0
H3439 H 0.67312 0.30758 0.73213 0.0
H3440 H 0.68797 0.25555 0.70241 0.0
H3441 H 0.70773 0.23847 0.68843 0.0
H3442 H 0.71493 0.27341 0.64593 0.0
H3443 H 0.69584 0.29125 0.66005 0.0
C3444 C 0.60446 0.29664 0.66331 0.0
C3445 C 0.60913 0.30428 0.64721 0.0
C3446 C 0.6185 0.29499 0.67656 0.0
C3447 C 0.63745 0.30109 0.674 0.0
C3448 C 0.6421 0.30936 0.65828 0.0
C3449 C 0.62816 0.31096 0.64509 0.0
C3450 C 0.6525 0.29813 0.68703 0.0
C3451 C 0.66421 0.28848 0.67979 0.0
C3452 C 0.65555 0.30476 0.70622 0.0
C3453 C 0.6441 0.31552 0.71469 0.0
C3454 C 0.64277 0.33201 0.70829 0.0
C3455 C 0.63187 0.34204 0.7163 0.0
C3456 C 0.62235 0.33579 0.73081 0.0
C3457 C 0.62376 0.31953 0.73739 0.0
C3458 C 0.63462 0.30944 0.72941 0.0
C3459 C 0.73329 0.29861 0.72793 0.0
C3460 C 0.73192 0.29079 0.74443 0.0
C3461 C 0.71733 0.29954 0.7171 0.0
C3462 C 0.69952 0.29244 0.72228 0.0
C3463 C 0.69807 0.28494 0.73893 0.0
C3464 C 0.71413 0.2841 0.7499 0.0
C3465 C 0.68255 0.29286 0.71016 0.0
C3466 C 0.67042 0.3019 0.71755 0.0
C3467 C 0.67909 0.28566 0.69104 0.0
C3468 C 0.69061 0.27492 0.68246 0.0
C3469 C 0.69396 0.25979 0.69023 0.0
C3470 C 0.70508 0.24998 0.68229 0.0
C3471 C 0.7127 0.25496 0.66638 0.0
C3472 C 0.70913 0.26968 0.65833 0.0
C3473 C 0.6982 0.27968 0.66633 0.0
H3474 H 0.7213 0.24735 0.66025 0.0
H3475 H 0.61393 0.34357 0.737 0.0
H3476 H 0.02897 0.32312 0.95262 0.0
H3477 H 0.03423 0.35688 0.9606 0.0
H3478 H 0.98996 0.34586 0.99441 0.0
H3479 H 0.98486 0.31239 0.98689 0.0
H3480 H 0.9857 0.36915 0.96828 0.0
H3481 H 0.03253 0.36324 0.0142 0.0
H3482 H 0.06063 0.35575 0.02679 0.0
H3483 H 0.09451 0.39541 0.99723 0.0
H3484 H 0.06651 0.40269 0.98388 0.0
H3485 H 0.99298 0.45924 0.0141 0.0
H3486 H 0.99191 0.42657 0.00658 0.0
H3487 H 0.0401 0.44337 0.97836 0.0
H3488 H 0.04136 0.47612 0.98591 0.0
H3489 H 0.04345 0.41753 0.00018 0.0
H3490 H 0.99694 0.4232 0.9539 0.0
H3491 H 0.96907 0.43134 0.94166 0.0
H3492 H 0.93505 0.39274 0.97214 0.0
H3493 H 0.96278 0.38456 0.98478 0.0
C3494 C 0.02062 0.32789 0.96206 0.0
C3495 C 0.00647 0.31492 0.96906 0.0
C3496 C 0.02362 0.34721 0.96658 0.0
C3497 C 0.0124 0.35393 0.97802 0.0
C3498 C 0.99873 0.34104 0.98549 0.0
C3499 C 0.99591 0.32184 0.98122 0.0
C3500 C 0.01396 0.37422 0.98141 0.0
C3501 C 0.99829 0.37969 0.97542 0.0
C3502 C 0.03054 0.38809 0.99027 0.0
C3503 C 0.04732 0.38326 0.99775 0.0
C3504 C 0.0459 0.3701 0.01006 0.0
C3505 C 0.06183 0.36592 0.01737 0.0
C3506 C 0.07932 0.37498 0.01268 0.0
C3507 C 0.08092 0.38826 0.00067 0.0
C3508 C 0.06502 0.39239 0.99321 0.0
C3509 C 0.00329 0.45602 0.00618 0.0
C3510 C 0.01716 0.47039 0.00051 0.0
C3511 C 0.00264 0.43728 0.00186 0.0
C3512 C 0.01583 0.43241 0.99175 0.0
C3513 C 0.02975 0.44672 0.98614 0.0
C3514 C 0.03036 0.46547 0.99038 0.0
C3515 C 0.01514 0.41241 0.98719 0.0
C3516 C 0.03093 0.40699 0.99292 0.0
C3517 C 0.99871 0.39854 0.97801 0.0
C3518 C 0.98198 0.4034 0.97043 0.0
C3519 C 0.98355 0.41656 0.95812 0.0
C3520 C 0.96777 0.42116 0.95108 0.0
C3521 C 0.95031 0.41259 0.95616 0.0
C3522 C 0.94859 0.39938 0.96824 0.0
C3523 C 0.96433 0.39474 0.97533 0.0
H3524 H 0.93811 0.41617 0.95069 0.0
H3525 H 0.09166 0.3718 0.01843 0.0
H3526 H 0.02914 0.82217 0.17656 0.0
H3527 H 0.00256 0.81848 0.19373 0.0
H3528 H 0.96967 0.77186 0.15299 0.0
H3529 H 0.99629 0.77549 0.13561 0.0
H3530 H 0.94963 0.79594 0.1629 0.0
H3531 H 0.98747 0.764 0.19379 0.0
H3532 H 0.0165 0.76041 0.20946 0.0
H3533 H 0.02021 0.80573 0.25194 0.0
H3534 H 0.99133 0.80977 0.23637 0.0
H3535 H 0.87715 0.75996 0.21623 0.0
H3536 H 0.90324 0.76385 0.19825 0.0
H3537 H 0.93659 0.81076 0.23845 0.0
H3538 H 0.91055 0.80683 0.25661 0.0
H3539 H 0.95622 0.78638 0.22863 0.0
H3540 H 0.91863 0.81847 0.19813 0.0
H3541 H 0.88935 0.82203 0.18301 0.0
H3542 H 0.88512 0.77683 0.14019 0.0
H3543 H 0.91423 0.7728 0.15522 0.0
C3544 C 0.01628 0.8111 0.1712 0.0
C3545 C 0.01492 0.79907 0.15471 0.0
C3546 C 1.00108 0.80898 0.18109 0.0
C3547 C 0.98413 0.79479 0.17476 0.0
C3548 C 0.9826 0.7829 0.15817 0.0
C3549 C 0.99787 0.78495 0.14829 0.0
C3550 C 0.96812 0.79234 0.18559 0.0
C3551 C 0.95099 0.79358 0.17719 0.0
C3552 C 0.96999 0.78972 0.20439 0.0
C3553 C 0.98734 0.78731 0.21381 0.0
C3554 C 0.99456 0.77331 0.20639 0.0
C3555 C 0.01097 0.77117 0.21527 0.0
C3556 C 0.02022 0.78287 0.23166 0.0
C3557 C 0.01305 0.7967 0.23923 0.0
C3558 C 0.99665 0.79891 0.23039 0.0
C3559 C 0.89006 0.77106 0.22128 0.0
C3560 C 0.89176 0.78308 0.23787 0.0
C3561 C 0.90492 0.77335 0.21092 0.0
C3562 C 0.92186 0.78767 0.21692 0.0
C3563 C 0.92365 0.79963 0.23352 0.0
C3564 C 0.90872 0.79745 0.24382 0.0
C3565 C 0.93775 0.78999 0.20597 0.0
C3566 C 0.95485 0.78874 0.21434 0.0
C3567 C 0.93586 0.79264 0.18718 0.0
C3568 C 0.91851 0.79521 0.17791 0.0
C3569 C 0.91138 0.8092 0.18556 0.0
C3570 C 0.89483 0.81131 0.177 0.0
C3571 C 0.88534 0.79962 0.16069 0.0
C3572 C 0.89246 0.78585 0.15285 0.0
C3573 C 0.909 0.78366 0.16137 0.0
H3574 H 0.87251 0.80126 0.15413 0.0
H3575 H 0.03292 0.78119 0.23852 0.0
H3576 H 0.52448 0.30692 0.15718 0.0
H3577 H 0.5295 0.33313 0.13955 0.0
H3578 H 0.48335 0.30074 0.09811 0.0
H3579 H 0.47836 0.27443 0.11553 0.0
H3580 H 0.51253 0.3187 0.08223 0.0
H3581 H 0.47869 0.33519 0.12991 0.0
H3582 H 0.4725 0.34126 0.16192 0.0
H3583 H 0.52473 0.38534 0.17505 0.0
H3584 H 0.53135 0.37936 0.14315 0.0
H3585 H 0.49791 0.39184 0.03568 0.0
H3586 H 0.49411 0.36612 0.05384 0.0
H3587 H 0.54132 0.39963 0.09357 0.0
H3588 H 0.54498 0.42556 0.07564 0.0
H3589 H 0.51248 0.38142 0.11057 0.0
H3590 H 0.54605 0.36533 0.06275 0.0
H3591 H 0.55221 0.35932 0.03072 0.0
H3592 H 0.5005 0.31452 0.01787 0.0
H3593 H 0.4939 0.32044 0.04978 0.0
C3594 C 0.51539 0.30535 0.14431 0.0
C3595 C 0.50096 0.28854 0.13783 0.0
C3596 C 0.51824 0.3204 0.13427 0.0
C3597 C 0.50668 0.31902 0.11756 0.0
C3598 C 0.49245 0.30218 0.11095 0.0
C3599 C 0.48957 0.28714 0.12098 0.0
C3600 C 0.50942 0.33508 0.10693 0.0
C3601 C 0.51228 0.33234 0.08838 0.0
C3602 C 0.50956 0.35305 0.11502 0.0
C3603 C 0.50561 0.35669 0.1342 0.0
C3604 C 0.48893 0.34607 0.13966 0.0
C3605 C 0.48533 0.34952 0.15778 0.0
C3606 C 0.49824 0.36364 0.17053 0.0
C3607 C 0.51475 0.37439 0.16517 0.0
C3608 C 0.51843 0.37098 0.14707 0.0
C3609 C 0.50741 0.39381 0.04835 0.0
C3610 C 0.52179 0.41078 0.05416 0.0
C3611 C 0.50532 0.37901 0.05865 0.0
C3612 C 0.51755 0.38083 0.075 0.0
C3613 C 0.53174 0.39785 0.08099 0.0
C3614 C 0.53391 0.41262 0.07064 0.0
C3615 C 0.51548 0.365 0.08586 0.0
C3616 C 0.51276 0.36778 0.10444 0.0
C3617 C 0.51546 0.34707 0.07781 0.0
C3618 C 0.51939 0.34346 0.05861 0.0
C3619 C 0.53591 0.3543 0.05305 0.0
C3620 C 0.5395 0.35089 0.03493 0.0
C3621 C 0.52673 0.33658 0.02225 0.0
C3622 C 0.51037 0.32562 0.02769 0.0
C3623 C 0.5067 0.32899 0.0458 0.0
H3624 H 0.52953 0.33396 0.00822 0.0
H3625 H 0.49542 0.36629 0.18455 0.0
H3626 H 0.96082 0.26584 0.34437 0.0
H3627 H 0.93142 0.266 0.32722 0.0
H3628 H 0.96078 0.31462 0.30459 0.0
H3629 H 0.99052 0.31433 0.32175 0.0
H3630 H 0.91623 0.29319 0.33406 0.0
H3631 H 0.93171 0.3161 0.26377 0.0
H3632 H 0.95274 0.31354 0.24069 0.0
H3633 H 0.95719 0.26239 0.25798 0.0
H3634 H 0.936 0.26452 0.28098 0.0
H3635 H 0.83754 0.31695 0.29331 0.0
H3636 H 0.87064 0.31976 0.30272 0.0
H3637 H 0.86312 0.26661 0.26964 0.0
H3638 H 0.8302 0.26363 0.26038 0.0
H3639 H 0.89757 0.2927 0.26729 0.0
H3640 H 0.86071 0.26758 0.31392 0.0
H3641 H 0.83873 0.26798 0.33648 0.0
H3642 H 0.87622 0.3197 0.36609 0.0
H3643 H 0.89832 0.31972 0.34352 0.0
C3644 C 0.96114 0.27621 0.33525 0.0
C3645 C 0.97803 0.29002 0.33436 0.0
C3646 C 0.94426 0.27641 0.32558 0.0
C3647 C 0.94373 0.29046 0.31477 0.0
C3648 C 0.96077 0.30356 0.31277 0.0
C3649 C 0.97781 0.3033 0.32245 0.0
C3650 C 0.92515 0.2921 0.30713 0.0
C3651 C 0.91228 0.29321 0.31945 0.0
C3652 C 0.91981 0.29214 0.28809 0.0
C3653 C 0.93247 0.29062 0.27425 0.0
C3654 C 0.93716 0.3043 0.26262 0.0
C3655 C 0.9491 0.30291 0.24955 0.0
C3656 C 0.95636 0.28785 0.24792 0.0
C3657 C 0.95163 0.2741 0.25931 0.0
C3658 C 0.93968 0.2754 0.27239 0.0
C3659 C 0.84301 0.30599 0.28787 0.0
C3660 C 0.83115 0.28998 0.27626 0.0
C3661 C 0.86193 0.30759 0.29327 0.0
C3662 C 0.8694 0.29334 0.28696 0.0
C3663 C 0.85776 0.2778 0.27467 0.0
C3664 C 0.83886 0.27606 0.26951 0.0
C3665 C 0.88879 0.29373 0.29425 0.0
C3666 C 0.90174 0.29299 0.28192 0.0
C3667 C 0.89422 0.29384 0.31327 0.0
C3668 C 0.88105 0.29377 0.32693 0.0
C3669 C 0.86419 0.27911 0.32516 0.0
C3670 C 0.85173 0.27925 0.33796 0.0
C3671 C 0.85605 0.29389 0.35268 0.0
C3672 C 0.87288 0.30839 0.35466 0.0
C3673 C 0.88538 0.30833 0.34187 0.0
H3674 H 0.84638 0.29398 0.36257 0.0
H3675 H 0.96561 0.28681 0.2378 0.0
H3676 H 0.97964 0.67436 0.66177 0.0
H3677 H 0.98273 0.64961 0.63916 0.0
H3678 H 0.01384 0.69097 0.60894 0.0
H3679 H 0.01034 0.71591 0.63133 0.0
H3680 H 0.99159 0.66126 0.58553 0.0
H3681 H 0.0358 0.67034 0.64065 0.0
H3682 H 0.04573 0.67234 0.67404 0.0
H3683 H 0.0114 0.61576 0.67267 0.0
H3684 H 1.00102 0.61354 0.63939 0.0
H3685 H 0.03712 0.60459 0.53719 0.0
H3686 H 0.02985 0.62876 0.55725 0.0
H3687 H 1.00024 0.58713 0.58809 0.0
H3688 H 0.00784 0.56288 0.56832 0.0
H3689 H 0.021 0.61669 0.61095 0.0
H3690 H 0.97711 0.60687 0.55622 0.0
H3691 H 0.96692 0.60415 0.5228 0.0
H3692 H 0.99984 0.66105 0.52322 0.0
H3693 H 0.01044 0.66403 0.55661 0.0
C3694 C 0.98689 0.67823 0.65015 0.0
C3695 C 0.99489 0.69715 0.64846 0.0
C3696 C 0.98875 0.66403 0.63727 0.0
C3697 C 0.99897 0.66838 0.62259 0.0
C3698 C 0.00602 0.68723 0.62022 0.0
C3699 C 0.00397 0.70149 0.63302 0.0
C3700 C 0.00303 0.65336 0.6103 0.0
C3701 C 0.99822 0.65165 0.59108 0.0
C3702 C 0.01128 0.64047 0.6175 0.0
C3703 C 0.01749 0.64184 0.63756 0.0
C3704 C 0.03025 0.65838 0.64752 0.0
C3705 C 0.03597 0.65955 0.66643 0.0
C3706 C 0.02917 0.64421 0.6755 0.0
C3707 C 0.01663 0.62766 0.66567 0.0
C3708 C 0.01083 0.62644 0.64678 0.0
C3709 C 0.02905 0.60053 0.54822 0.0
C3710 C 0.02303 0.58174 0.55107 0.0
C3711 C 0.02479 0.6144 0.55964 0.0
C3712 C 0.0142 0.60979 0.57403 0.0
C3713 C 0.00837 0.59106 0.57706 0.0
C3714 C 0.01273 0.57719 0.56571 0.0
C3715 C 0.00954 0.62454 0.58616 0.0
C3716 C 0.0143 0.62623 0.60537 0.0
C3717 C 1.00116 0.63731 0.57894 0.0
C3718 C 0.9947 0.63562 0.55889 0.0
C3719 C 0.98228 0.61876 0.54916 0.0
C3720 C 0.97642 0.61718 0.53023 0.0
C3721 C 0.98276 0.6324 0.52088 0.0
C3722 C 0.99495 0.64926 0.53047 0.0
C3723 C 1.00088 0.65091 0.5494 0.0
H3724 H 0.97821 0.63115 0.50622 0.0
H3725 H 0.03367 0.64515 0.69012 0.0
H3726 H 0.57737 0.78299 0.83437 0.0
H3727 H 0.60501 0.77839 0.82208 0.0
H3728 H 0.63035 0.83807 0.82835 0.0
H3729 H 0.60283 0.84278 0.8407 0.0
H3730 H 0.63628 0.82041 0.79546 0.0
H3731 H 0.6435 0.81417 0.85985 0.0
H3732 H 0.63407 0.80144 0.88803 0.0
H3733 H 0.6306 0.74637 0.86249 0.0
H3734 H 0.63975 0.75874 0.83404 0.0
H3735 H 0.73056 0.82024 0.78945 0.0
H3736 H 0.70224 0.82565 0.79933 0.0
H3737 H 0.67771 0.76639 0.79837 0.0
H3738 H 0.70598 0.76093 0.7888 0.0
H3739 H 0.67137 0.78439 0.82845 0.0
H3740 H 0.66429 0.79013 0.7642 0.0
H3741 H 0.6739 0.80246 0.7359 0.0
H3742 H 0.67692 0.85769 0.76047 0.0
H3743 H 0.66752 0.84574 0.78905 0.0
C3744 C 0.58872 0.79515 0.83296 0.0
C3745 C 0.58783 0.81326 0.83864 0.0
C3746 C 0.60459 0.7925 0.82599 0.0
C3747 C 0.61994 0.80788 0.82443 0.0
C3748 C 0.61877 0.82596 0.82941 0.0
C3749 C 0.60299 0.82862 0.83654 0.0
C3750 C 0.63748 0.80513 0.81834 0.0
C3751 C 0.64406 0.81271 0.8028 0.0
C3752 C 0.64756 0.79482 0.82765 0.0
C3753 C 0.6421 0.78735 0.84475 0.0
C3754 C 0.64057 0.79932 0.86019 0.0
C3755 C 0.6353 0.79218 0.87622 0.0
C3756 C 0.63168 0.7731 0.87703 0.0
C3757 C 0.63337 0.76114 0.86183 0.0
C3758 C 0.63861 0.76821 0.84575 0.0
C3759 C 0.71913 0.80834 0.79129 0.0
C3760 C 0.72064 0.79013 0.78825 0.0
C3761 C 0.70286 0.81145 0.79689 0.0
C3762 C 0.68762 0.79642 0.79946 0.0
C3763 C 0.68918 0.77826 0.79652 0.0
C3764 C 0.70541 0.77515 0.79096 0.0
C3765 C 0.67015 0.79951 0.80545 0.0
C3766 C 0.6636 0.79205 0.82104 0.0
C3767 C 0.66008 0.80985 0.79611 0.0
C3768 C 0.66543 0.81707 0.77886 0.0
C3769 C 0.66713 0.80494 0.76363 0.0
C3770 C 0.67251 0.81185 0.74753 0.0
C3771 C 0.67608 0.83086 0.74643 0.0
C3772 C 0.67419 0.84299 0.76139 0.0
C3773 C 0.66882 0.83615 0.77754 0.0
H3774 H 0.68026 0.83619 0.73396 0.0
H3775 H 0.62761 0.7676 0.88946 0.0
H3776 H 0.4805 0.52367 0.70764 0.0
H3777 H 0.49171 0.5341 0.67986 0.0
H3778 H 0.46572 0.57799 0.68522 0.0
H3779 H 0.45377 0.56712 0.71324 0.0
H3780 H 0.45987 0.5623 0.65036 0.0
H3781 H 0.5139 0.58898 0.69354 0.0
H3782 H 0.53792 0.59146 0.71993 0.0
H3783 H 0.55514 0.54837 0.69042 0.0
H3784 H 0.53105 0.54542 0.66395 0.0
H3785 H 0.53654 0.57264 0.5821 0.0
H3786 H 0.52768 0.58237 0.6119 0.0
H3787 H 0.47833 0.53424 0.60167 0.0
H3788 H 0.4869 0.52461 0.57207 0.0
H3789 H 0.52504 0.56588 0.64096 0.0
H3790 H 0.44283 0.54204 0.62056 0.0
H3791 H 0.42031 0.544 0.59463 0.0
H3792 H 0.46193 0.58996 0.57951 0.0
H3793 H 0.4846 0.58855 0.60552 0.0
C3794 C 0.47721 0.53565 0.70312 0.0
C3795 C 0.46631 0.54464 0.71282 0.0
C3796 C 0.48378 0.54169 0.6872 0.0
C3797 C 0.47999 0.55713 0.68064 0.0
C3798 C 0.46898 0.56615 0.69013 0.0
C3799 C 0.4622 0.55996 0.70614 0.0
C3800 C 0.48703 0.5629 0.66338 0.0
C3801 C 0.47416 0.56333 0.64833 0.0
C3802 C 0.50593 0.56521 0.66091 0.0
C3803 C 0.52061 0.56698 0.67673 0.0
C3804 C 0.52274 0.57997 0.6927 0.0
C3805 C 0.53638 0.58146 0.70768 0.0
C3806 C 0.54805 0.57008 0.70685 0.0
C3807 C 0.54611 0.5572 0.69103 0.0
C3808 C 0.53249 0.55564 0.67601 0.0
C3809 C 0.52371 0.56424 0.58614 0.0
C3810 C 0.51246 0.54781 0.57469 0.0
C3811 C 0.51866 0.56984 0.60316 0.0
C3812 C 0.5022 0.5592 0.60894 0.0
C3813 C 0.49086 0.54296 0.59738 0.0
C3814 C 0.49589 0.53736 0.58045 0.0
C3815 C 0.49753 0.56381 0.62769 0.0
C3816 C 0.51087 0.56538 0.64303 0.0
C3817 C 0.47928 0.56408 0.6305 0.0
C3818 C 0.46548 0.56511 0.61499 0.0
C3819 C 0.44716 0.55266 0.6118 0.0
C3820 C 0.43436 0.55366 0.59705 0.0
C3821 C 0.43971 0.56707 0.5854 0.0
C3822 C 0.45783 0.57954 0.58851 0.0
C3823 C 0.47065 0.57864 0.60324 0.0
H3824 H 0.42986 0.56786 0.57399 0.0
H3825 H 0.55859 0.57125 0.71847 0.0
H3826 H 0.81355 0.16796 0.98802 0.0
H3827 H 0.81647 0.1782 0.95768 0.0
H3828 H 0.75643 0.1652 0.94622 0.0
H3829 H 0.75353 0.15544 0.97658 0.0
H3830 H 0.77676 0.16463 0.91298 0.0
H3831 H 0.77339 0.20361 0.971 0.0
H3832 H 0.78435 0.21502 0.00422 0.0
H3833 H 0.84087 0.23558 0.99288 0.0
H3834 H 0.83021 0.22399 0.9596 0.0
H3835 H 0.74743 0.23347 0.87312 0.0
H3836 H 0.75318 0.21023 0.8915 0.0
H3837 H 0.81043 0.24484 0.90842 0.0
H3838 H 0.80447 0.26854 0.89083 0.0
H3839 H 0.79758 0.23271 0.93618 0.0
H3840 H 0.7977 0.20194 0.8756 0.0
H3841 H 0.78572 0.18971 0.84266 0.0
H3842 H 0.73579 0.15366 0.85767 0.0
H3843 H 0.74746 0.16556 0.89068 0.0
C3844 C 0.80097 0.16641 0.9786 0.0
C3845 C 0.78336 0.16134 0.98457 0.0
C3846 C 0.80263 0.17215 0.96128 0.0
C3847 C 0.78666 0.17262 0.94991 0.0
C3848 C 0.76888 0.16485 0.9548 0.0
C3849 C 0.76725 0.15947 0.97219 0.0
C3850 C 0.78843 0.18597 0.93659 0.0
C3851 C 0.78152 0.17954 0.91785 0.0
C3852 C 0.79471 0.20536 0.94309 0.0
C3853 C 0.80106 0.21282 0.96293 0.0
C3854 C 0.78816 0.21051 0.97564 0.0
C3855 C 0.7943 0.21699 0.99445 0.0
C3856 C 0.8133 0.22599 0.00066 0.0
C3857 C 0.82617 0.22858 0.98805 0.0
C3858 C 0.82009 0.22206 0.96922 0.0
C3859 C 0.76116 0.23623 0.88097 0.0
C3860 C 0.77551 0.25282 0.88056 0.0
C3861 C 0.76456 0.22275 0.89114 0.0
C3862 C 0.78243 0.2255 0.90085 0.0
C3863 C 0.79661 0.24228 0.90082 0.0
C3864 C 0.7932 0.2558 0.89075 0.0
C3865 C 0.78592 0.21157 0.91223 0.0
C3866 C 0.79356 0.21791 0.93085 0.0
C3867 C 0.78039 0.19217 0.90545 0.0
C3868 C 0.77341 0.18476 0.88562 0.0
C3869 C 0.78413 0.19148 0.87187 0.0
C3870 C 0.77741 0.1846 0.8532 0.0
C3871 C 0.75996 0.17107 0.8481 0.0
C3872 C 0.74928 0.16419 0.86166 0.0
C3873 C 0.75598 0.17092 0.88035 0.0
H3874 H 0.75472 0.16593 0.83365 0.0
H3875 H 0.81804 0.23098 0.01524 0.0
H3876 H 0.12934 0.50754 0.20637 0.0
H3877 H 0.10291 0.49355 0.18129 0.0
H3878 H 0.12641 0.53731 0.14979 0.0
H3879 H 0.15239 0.55132 0.17463 0.0
H3880 H 0.0904 0.53524 0.15736 0.0
H3881 H 0.12665 0.49454 0.1362 0.0
H3882 H 0.14183 0.46999 0.13955 0.0
H3883 H 0.0894 0.43167 0.14677 0.0
H3884 H 0.07396 0.45611 0.14369 0.0
H3885 H 0.06648 0.50458 0.05746 0.0
H3886 H 0.07964 0.49849 0.08675 0.0
H3887 H 0.03229 0.50593 0.11149 0.0
H3888 H 0.01912 0.5126 0.08212 0.0
H3889 H 0.07215 0.47635 0.11306 0.0
H3890 H 0.04968 0.53301 0.15279 0.0
H3891 H 0.03743 0.55932 0.14767 0.0
H3892 H 0.067 0.56835 0.10098 0.0
H3893 H 0.07956 0.54223 0.10598 0.0
C3894 C 0.12906 0.51377 0.19383 0.0
C3895 C 0.14267 0.5306 0.19243 0.0
C3896 C 0.11397 0.50585 0.17961 0.0
C3897 C 0.11263 0.51465 0.16392 0.0
C3898 C 0.1271 0.53051 0.16195 0.0
C3899 C 0.14194 0.53846 0.17609 0.0
C3900 C 0.09555 0.50889 0.1502 0.0
C3901 C 0.08612 0.52217 0.1479 0.0
C3902 C 0.0899 0.4918 0.13807 0.0
C3903 C 0.09923 0.47721 0.14 0.0
C3904 C 0.11841 0.48094 0.13871 0.0
C3905 C 0.12705 0.46703 0.1405 0.0
C3906 C 0.11661 0.4493 0.14345 0.0
C3907 C 0.09749 0.44543 0.14454 0.0
C3908 C 0.08879 0.45929 0.14277 0.0
C3909 C 0.05866 0.50468 0.06901 0.0
C3910 C 0.04201 0.50963 0.06761 0.0
C3911 C 0.0661 0.50092 0.08572 0.0
C3912 C 0.05706 0.50198 0.10134 0.0
C3913 C 0.03957 0.50523 0.0996 0.0
C3914 C 0.03215 0.50917 0.08286 0.0
C3915 C 0.06774 0.50316 0.11968 0.0
C3916 C 0.07585 0.48903 0.123 0.0
C3917 C 0.07257 0.51971 0.13262 0.0
C3918 C 0.06532 0.53556 0.12962 0.0
C3919 C 0.05357 0.54065 0.14146 0.0
C3920 C 0.04658 0.55552 0.13858 0.0
C3921 C 0.05137 0.56545 0.12397 0.0
C3922 C 0.06325 0.56061 0.11226 0.0
C3923 C 0.0703 0.54578 0.11511 0.0
H3924 H 0.04592 0.57692 0.12174 0.0
H3925 H 0.12332 0.43855 0.14482 0.0
H3926 H 0.76879 0.81055 0.48461 0.0
H3927 H 0.76753 0.7999 0.45179 0.0
H3928 H 0.75333 0.84868 0.43827 0.0
H3929 H 0.75408 0.8592 0.47117 0.0
H3930 H 0.73608 0.81892 0.41208 0.0
H3931 H 0.79867 0.84859 0.44316 0.0
H3932 H 0.82567 0.8537 0.46727 0.0
H3933 H 0.82742 0.798 0.45059 0.0
H3934 H 0.80024 0.79247 0.42654 0.0
H3935 H 0.76916 0.82267 0.3256 0.0
H3936 H 0.76461 0.82971 0.35764 0.0
H3937 H 0.78085 0.78183 0.37076 0.0
H3938 H 0.78604 0.77504 0.33873 0.0
H3939 H 0.79608 0.81035 0.39705 0.0
H3940 H 0.73307 0.78183 0.36436 0.0
H3941 H 0.70696 0.77884 0.33982 0.0
H3942 H 0.70734 0.83478 0.35884 0.0
H3943 H 0.73338 0.8381 0.38348 0.0
C3944 C 0.76496 0.8188 0.47464 0.0
C3945 C 0.76178 0.83584 0.4805 0.0
C3946 C 0.76434 0.81274 0.45588 0.0
C3947 C 0.76086 0.82376 0.4426 0.0
C3948 C 0.75619 0.84002 0.44828 0.0
C3949 C 0.75659 0.846 0.4671 0.0
C3950 C 0.76376 0.81917 0.42315 0.0
C3951 C 0.74923 0.81716 0.40877 0.0
C3952 C 0.78088 0.81674 0.41881 0.0
C3953 C 0.7973 0.82006 0.43318 0.0
C3954 C 0.80473 0.83739 0.44472 0.0
C3955 C 0.82007 0.84036 0.45836 0.0
C3956 C 0.82822 0.82616 0.46049 0.0
C3957 C 0.82107 0.80897 0.44894 0.0
C3958 C 0.8057 0.80591 0.4353 0.0
C3959 C 0.77188 0.81368 0.33532 0.0
C3960 C 0.77793 0.79825 0.3296 0.0
C3961 C 0.76909 0.81763 0.35362 0.0
C3962 C 0.77189 0.80602 0.36655 0.0
C3963 C 0.77845 0.79091 0.36101 0.0
C3964 C 0.78148 0.78708 0.34271 0.0
C3965 C 0.76835 0.80987 0.38591 0.0
C3966 C 0.78283 0.81186 0.40032 0.0
C3967 C 0.75126 0.81247 0.39022 0.0
C3968 C 0.73524 0.81024 0.3757 0.0
C3969 C 0.72758 0.79349 0.36329 0.0
C3970 C 0.71276 0.79172 0.3494 0.0
C3971 C 0.70547 0.8066 0.34782 0.0
C3972 C 0.71294 0.82324 0.36014 0.0
C3973 C 0.72767 0.82505 0.37411 0.0
H3974 H 0.69407 0.8053 0.33705 0.0
H3975 H 0.8401 0.82849 0.47106 0.0
H3976 H 0.49472 0.5319 0.80884 0.0
H3977 H 0.50478 0.53346 0.84165 0.0
H3978 H 0.45672 0.5499 0.85463 0.0
H3979 H 0.44632 0.54806 0.82151 0.0
H3980 H 0.5143 0.55892 0.87153 0.0
H3981 H 0.44087 0.52768 0.89114 0.0
H3982 H 0.40926 0.50838 0.87628 0.0
H3983 H 0.43317 0.48236 0.83437 0.0
H3984 H 0.4649 0.50132 0.84912 0.0
H3985 H 0.52223 0.56016 0.96826 0.0
H3986 H 0.51275 0.56339 0.93651 0.0
H3987 H 0.49638 0.50352 0.92113 0.0
H3988 H 0.50545 0.50007 0.95323 0.0
H3989 H 0.47073 0.51686 0.90561 0.0
H3990 H 0.53765 0.53264 0.90994 0.0
H3991 H 0.57056 0.54929 0.92277 0.0
H3992 H 0.56177 0.60167 0.91454 0.0
H3993 H 0.52873 0.58529 0.90174 0.0
C3994 C 0.48639 0.53613 0.81865 0.0
C3995 C 0.4696 0.53967 0.81255 0.0
C3996 C 0.49221 0.53707 0.83744 0.0
C3997 C 0.48136 0.54149 0.85059 0.0
C3998 C 0.46517 0.54618 0.84467 0.0
C3999 C 0.45932 0.54528 0.82577 0.0
C4000 C 0.48655 0.53994 0.87026 0.0
C4001 C 0.50471 0.54987 0.87904 0.0
C4002 C 0.47421 0.52777 0.87993 0.0
C4003 C 0.45522 0.51608 0.87111 0.0
C4004 C 0.43937 0.5178 0.87879 0.0
C4005 C 0.42143 0.50692 0.87038 0.0
C4006 C 0.4192 0.49421 0.85435 0.0
C4007 C 0.43491 0.49227 0.84674 0.0
C4008 C 0.45286 0.50309 0.85511 0.0
C4009 C 0.51672 0.54761 0.95817 0.0
C4010 C 0.51471 0.52981 0.96331 0.0
C4011 C 0.51134 0.54953 0.93995 0.0
C4012 C 0.50406 0.53374 0.92634 0.0
C4013 C 0.50198 0.51592 0.9314 0.0
C4014 C 0.50725 0.51397 0.94972 0.0
C4015 C 0.4985 0.53589 0.90691 0.0
C4016 C 0.48026 0.52609 0.89819 0.0
C4017 C 0.51092 0.54785 0.89713 0.0
C4018 C 0.53069 0.55776 0.90504 0.0
C4019 C 0.5427 0.54772 0.911 0.0
C4020 C 0.56139 0.55711 0.91823 0.0
C4021 C 0.56826 0.57654 0.9195 0.0
C4022 C 0.55643 0.58662 0.91355 0.0
C4023 C 0.53774 0.57729 0.90628 0.0
H4024 H 0.58275 0.58379 0.92503 0.0
H4025 H 0.40531 0.48582 0.84784 0.0
H4026 H 0.82415 0.1783 0.09338 0.0
H4027 H 0.83202 0.19551 0.12465 0.0
H4028 H 0.82409 0.24423 0.10398 0.0
H4029 H 0.81607 0.22713 0.07262 0.0
H4030 H 0.84965 0.24915 0.14268 0.0
H4031 H 0.7856 0.21936 0.1064 0.0
H4032 H 0.76369 0.19241 0.08532 0.0
H4033 H 0.77227 0.1556 0.12346 0.0
H4034 H 0.79447 0.18235 0.14461 0.0
H4035 H 0.79924 0.28881 0.20343 0.0
H4036 H 0.81237 0.27691 0.17736 0.0
H4037 H 0.79663 0.222 0.1937 0.0
H4038 H 0.78295 0.23361 0.21928 0.0
H4039 H 0.78662 0.21915 0.15895 0.0
H4040 H 0.84301 0.25043 0.19964 0.0
H4041 H 0.866 0.27651 0.22072 0.0
H4042 H 0.87394 0.30921 0.17641 0.0
H4043 H 0.85075 0.28343 0.15512 0.0
C4044 C 0.82503 0.19296 0.09531 0.0
C4045 C 0.81877 0.20118 0.0807 0.0
C4046 C 0.82969 0.20283 0.11321 0.0
C4047 C 0.82822 0.22095 0.11656 0.0
C4048 C 0.82524 0.23022 0.10161 0.0
C4049 C 0.82045 0.22033 0.08371 0.0
C4050 C 0.82342 0.22741 0.1345 0.0
C4051 C 0.83593 0.24269 0.14638 0.0
C4052 C 0.80561 0.2187 0.13928 0.0
C4053 C 0.79174 0.20277 0.12697 0.0
C4054 C 0.78282 0.2055 0.11024 0.0
C4055 C 0.77038 0.19028 0.09828 0.0
C4056 C 0.7666 0.1723 0.10303 0.0
C4057 C 0.77522 0.16953 0.11979 0.0
C4058 C 0.78772 0.18471 0.13176 0.0
C4059 C 0.79855 0.2742 0.20141 0.0
C4060 C 0.7899 0.2621 0.21328 0.0
C4061 C 0.80624 0.26746 0.18665 0.0
C4062 C 0.80574 0.24862 0.18375 0.0
C4063 C 0.7972 0.23659 0.19568 0.0
C4064 C 0.78929 0.24323 0.21024 0.0
C4065 C 0.81284 0.24108 0.16753 0.0
C4066 C 0.80056 0.22556 0.15571 0.0
C4067 C 0.83095 0.24951 0.16308 0.0
C4068 C 0.84501 0.26503 0.1758 0.0
C4069 C 0.84954 0.26323 0.19441 0.0
C4070 C 0.86263 0.27795 0.2064 0.0
C4071 C 0.8714 0.29451 0.19992 0.0
C4072 C 0.86713 0.29637 0.18142 0.0
C4073 C 0.85402 0.2817 0.16937 0.0
H4074 H 0.88154 0.30589 0.20922 0.0
H4075 H 0.75699 0.16053 0.09376 0.0
H4076 H 0.16653 0.55599 0.30081 0.0
H4077 H 0.14993 0.55859 0.32728 0.0
H4078 H 0.11962 0.59051 0.29919 0.0
H4079 H 0.13666 0.58843 0.27282 0.0
H4080 H 0.12869 0.60435 0.33468 0.0
H4081 H 0.09976 0.54343 0.29995 0.0
H4082 H 0.09866 0.51263 0.28383 0.0
H4083 H 0.12079 0.4987 0.33459 0.0
H4084 H 0.12227 0.52953 0.35097 0.0
H4085 H 0.05475 0.58675 0.39088 0.0
H4086 H 0.07261 0.58823 0.36482 0.0
H4087 H 0.10904 0.56198 0.3928 0.0
H4088 H 0.0916 0.56084 0.41905 0.0
H4089 H 0.09556 0.54547 0.35654 0.0
H4090 H 0.12449 0.6073 0.3909 0.0
H4091 H 0.12468 0.63804 0.4064 0.0
H4092 H 0.10081 0.64987 0.35531 0.0
H4093 H 0.10024 0.61906 0.33956 0.0
C4094 C 0.15638 0.56361 0.3003 0.0
C4095 C 0.15267 0.57177 0.28467 0.0
C4096 C 0.14688 0.56507 0.31541 0.0
C4097 C 0.13321 0.57435 0.315 0.0
C4098 C 0.13003 0.58318 0.29973 0.0
C4099 C 0.13975 0.58196 0.28468 0.0
C4100 C 0.12188 0.57432 0.3303 0.0
C4101 C 0.12123 0.59146 0.3393 0.0
C4102 C 0.11231 0.5575 0.33642 0.0
C4103 C 0.11127 0.53886 0.32665 0.0
C4104 C 0.1045 0.53385 0.30765 0.0
C4105 C 0.1038 0.51637 0.29847 0.0
C4106 C 0.10969 0.50373 0.30817 0.0
C4107 C 0.11625 0.50851 0.32709 0.0
C4108 C 0.117 0.52598 0.33633 0.0
C4109 C 0.06671 0.58153 0.39159 0.0
C4110 C 0.0717 0.5736 0.407 0.0
C4111 C 0.07686 0.58234 0.37668 0.0
C4112 C 0.09214 0.57526 0.37697 0.0
C4113 C 0.09722 0.56743 0.39233 0.0
C4114 C 0.08717 0.5667 0.40725 0.0
C4115 C 0.1026 0.57548 0.36104 0.0
C4116 C 0.103 0.55834 0.35187 0.0
C4117 C 0.11174 0.59226 0.35466 0.0
C4118 C 0.11214 0.6108 0.3641 0.0
C4119 C 0.11913 0.61639 0.38301 0.0
C4120 C 0.11934 0.63384 0.39183 0.0
C4121 C 0.11271 0.64588 0.38186 0.0
C4122 C 0.10591 0.64051 0.36303 0.0
C4123 C 0.10565 0.62307 0.35414 0.0
H4124 H 0.11289 0.65938 0.38871 0.0
H4125 H 0.10914 0.49021 0.30104 0.0
H4126 H 0.79314 0.85595 0.59472 0.0
H4127 H 0.78689 0.84598 0.62437 0.0
H4128 H 0.72744 0.82971 0.60577 0.0
H4129 H 0.73378 0.84066 0.57598 0.0
H4130 H 0.73554 0.84382 0.6428 0.0
H4131 H 0.74965 0.79673 0.60383 0.0
H4132 H 0.76697 0.78364 0.58199 0.0
H4133 H 0.81606 0.80093 0.6228 0.0
H4134 H 0.79914 0.81438 0.64479 0.0
H4135 H 0.7297 0.78351 0.71599 0.0
H4136 H 0.72574 0.79388 0.68574 0.0
H4137 H 0.78359 0.8278 0.69515 0.0
H4138 H 0.78762 0.8179 0.72536 0.0
H4139 H 0.77014 0.80014 0.66062 0.0
H4140 H 0.75525 0.84997 0.69817 0.0
H4141 H 0.73665 0.86145 0.71973 0.0
H4142 H 0.68666 0.83586 0.68084 0.0
H4143 H 0.70495 0.82399 0.65914 0.0
C4144 C 0.77871 0.85048 0.59702 0.0
C4145 C 0.76393 0.8488 0.58303 0.0
C4146 C 0.77515 0.84473 0.61395 0.0
C4147 C 0.75671 0.83655 0.61711 0.0
C4148 C 0.74179 0.83581 0.60355 0.0
C4149 C 0.74539 0.84202 0.58659 0.0
C4150 C 0.75356 0.82788 0.63414 0.0
C4151 C 0.74279 0.83399 0.64654 0.0
C4152 C 0.76292 0.81494 0.63904 0.0
C4153 C 0.77313 0.80664 0.62594 0.0
C4154 C 0.76417 0.79783 0.60812 0.0
C4155 C 0.77392 0.79034 0.59571 0.0
C4156 C 0.79261 0.79147 0.601 0.0
C4157 C 0.80158 0.80006 0.61872 0.0
C4158 C 0.79191 0.80759 0.63118 0.0
C4159 C 0.74151 0.79331 0.71167 0.0
C4160 C 0.759 0.79981 0.72304 0.0
C4161 C 0.7392 0.79926 0.69445 0.0
C4162 C 0.75438 0.81158 0.68829 0.0
C4163 C 0.77171 0.81829 0.69972 0.0
C4164 C 0.77397 0.81262 0.71699 0.0
C4165 C 0.75281 0.81666 0.66947 0.0
C4166 C 0.76263 0.80974 0.65671 0.0
C4167 C 0.74234 0.82852 0.66422 0.0
C4168 C 0.73143 0.8359 0.67714 0.0
C4169 C 0.74027 0.84665 0.69429 0.0
C4170 C 0.72979 0.85326 0.70651 0.0
C4171 C 0.71048 0.84933 0.70168 0.0
C4172 C 0.70162 0.83886 0.68457 0.0
C4173 C 0.71203 0.8322 0.6723 0.0
H4174 H 0.70239 0.85446 0.71117 0.0
H4175 H 0.80014 0.78568 0.59137 0.0
H4176 H 0.73085 0.42999 0.51581 0.0
H4177 H 0.70993 0.44893 0.51942 0.0
H4178 H 0.75031 0.49536 0.50283 0.0
H4179 H 0.77166 0.47647 0.49945 0.0
H4180 H 0.73596 0.5062 0.5331 0.0
H4181 H 0.71144 0.47146 0.47324 0.0
H4182 H 0.70019 0.44349 0.44944 0.0
H4183 H 0.65538 0.41966 0.47945 0.0
H4184 H 0.66651 0.44736 0.50358 0.0
H4185 H 0.664 0.55247 0.52654 0.0
H4186 H 0.68911 0.5391 0.52012 0.0
H4187 H 0.65883 0.48783 0.538 0.0
H4188 H 0.63394 0.50116 0.54481 0.0
H4189 H 0.6697 0.48257 0.50338 0.0
H4190 H 0.69652 0.51618 0.56463 0.0
H4191 H 0.70794 0.5442 0.58837 0.0
H4192 H 0.74844 0.57054 0.55497 0.0
H4193 H 0.73707 0.54274 0.5309 0.0
C4194 C 0.73531 0.44418 0.51281 0.0
C4195 C 0.75291 0.4517 0.50727 0.0
C4196 C 0.72328 0.45498 0.51481 0.0
C4197 C 0.72847 0.47345 0.51114 0.0
C4198 C 0.74604 0.48108 0.50565 0.0
C4199 C 0.75816 0.47026 0.50366 0.0
C4200 C 0.71554 0.48473 0.51355 0.0
C4201 C 0.72157 0.50127 0.52631 0.0
C4202 C 0.69673 0.47814 0.50483 0.0
C4203 C 0.68989 0.46146 0.49028 0.0
C4204 C 0.69926 0.4602 0.47483 0.0
C4205 C 0.69289 0.4444 0.46127 0.0
C4206 C 0.6771 0.4298 0.46295 0.0
C4207 C 0.66761 0.43098 0.47817 0.0
C4208 C 0.67393 0.44675 0.49178 0.0
C4209 C 0.66288 0.53849 0.52945 0.0
C4210 C 0.64692 0.5278 0.53604 0.0
C4211 C 0.67719 0.53086 0.5257 0.0
C4212 C 0.67573 0.51248 0.52852 0.0
C4213 C 0.6601 0.502 0.53559 0.0
C4214 C 0.64588 0.50961 0.53942 0.0
C4215 C 0.68997 0.50367 0.52333 0.0
C4216 C 0.68417 0.48764 0.50995 0.0
C4217 C 0.70896 0.51079 0.53141 0.0
C4218 C 0.71579 0.52748 0.54587 0.0
C4219 C 0.70774 0.52802 0.56227 0.0
C4220 C 0.71423 0.54384 0.5758 0.0
C4221 C 0.72886 0.55917 0.57315 0.0
C4222 C 0.73708 0.55867 0.55698 0.0
C4223 C 0.73062 0.54289 0.5434 0.0
H4224 H 0.73387 0.57141 0.58364 0.0
H4225 H 0.67219 0.41757 0.45243 0.0
H4226 H 0.23788 0.1273 0.51022 0.0
H4227 H 0.21041 0.10012 0.50975 0.0
H4228 H 0.17513 0.12864 0.48356 0.0
H4229 H 0.20232 0.15562 0.48385 0.0
H4230 H 0.18096 0.09925 0.52746 0.0
H4231 H 0.13843 0.09851 0.45605 0.0
H4232 H 0.14459 0.10307 0.42435 0.0
H4233 H 0.19547 0.08863 0.43415 0.0
H4234 H 0.1895 0.0837 0.46581 0.0
H4235 H 0.08511 0.07485 0.52859 0.0
H4236 H 0.11748 0.08869 0.52425 0.0
H4237 H 0.11504 0.03922 0.48734 0.0
H4238 H 0.08229 0.02516 0.49147 0.0
H4239 H 0.13155 0.07057 0.47358 0.0
H4240 H 0.13965 0.04717 0.52973 0.0
H4241 H 0.13415 0.04086 0.56117 0.0
H4242 H 0.15376 0.0997 0.58129 0.0
H4243 H 0.15914 0.10641 0.5499 0.0
C4244 C 0.22431 0.12763 0.50409 0.0
C4245 C 0.22227 0.14366 0.49717 0.0
C4246 C 0.20864 0.11212 0.50387 0.0
C4247 C 0.19075 0.1123 0.49649 0.0
C4248 C 0.18882 0.12805 0.48904 0.0
C4249 C 0.2044 0.14354 0.48934 0.0
C4250 C 0.17376 0.09691 0.49799 0.0
C4251 C 0.17025 0.09279 0.51565 0.0
C4252 C 0.15998 0.0881 0.4825 0.0
C4253 C 0.16355 0.09082 0.46337 0.0
C4254 C 0.15087 0.09618 0.45141 0.0
C4255 C 0.15435 0.09886 0.43345 0.0
C4256 C 0.17043 0.09618 0.42725 0.0
C4257 C 0.18305 0.09076 0.43898 0.0
C4258 C 0.17964 0.08805 0.45695 0.0
C4259 C 0.09139 0.06679 0.51959 0.0
C4260 C 0.08108 0.04883 0.51043 0.0
C4261 C 0.10998 0.07472 0.51721 0.0
C4262 C 0.11877 0.06486 0.50572 0.0
C4263 C 0.10853 0.047 0.49637 0.0
C4264 C 0.08985 0.039 0.49876 0.0
C4265 C 0.13846 0.07375 0.50315 0.0
C4266 C 0.14244 0.07668 0.48531 0.0
C4267 C 0.1528 0.0812 0.51843 0.0
C4268 C 0.14975 0.07729 0.53741 0.0
C4269 C 0.14269 0.05878 0.54083 0.0
C4270 C 0.13961 0.05513 0.55865 0.0
C4271 C 0.1436 0.06987 0.57321 0.0
C4272 C 0.1507 0.0883 0.56999 0.0
C4273 C 0.15381 0.09203 0.55219 0.0
H4274 H 0.14124 0.06699 0.58699 0.0
H4275 H 0.17309 0.09827 0.41335 0.0
H4276 H 0.19133 0.01201 0.79229 0.0
H4277 H 0.2083 0.98902 0.78869 0.0
H4278 H 0.15681 0.94639 0.76501 0.0
H4279 H 0.13967 0.96932 0.76856 0.0
H4280 H 0.17804 0.9343 0.79114 0.0
H4281 H 0.18721 0.96473 0.7374 0.0
H4282 H 0.19619 0.99161 0.72048 0.0
H4283 H 0.25237 0.00748 0.74903 0.0
H4284 H 0.24366 0.98083 0.76632 0.0
H4285 H 0.21791 0.86596 0.75429 0.0
H4286 H 0.20059 0.88842 0.75932 0.0
H4287 H 0.25252 0.93246 0.77789 0.0
H4288 H 0.26996 0.91003 0.77281 0.0
H4289 H 0.23083 0.94379 0.75444 0.0
H4290 H 0.22196 0.91529 0.80951 0.0
H4291 H 0.21342 0.88932 0.82768 0.0
H4292 H 0.15794 0.87013 0.79725 0.0
H4293 H 0.16604 0.89622 0.77913 0.0
C4294 C 0.18358 0.99776 0.7863 0.0
C4295 C 0.16413 0.99254 0.78067 0.0
C4296 C 0.19333 0.98463 0.7842 0.0
C4297 C 0.18385 0.966 0.77645 0.0
C4298 C 0.16441 0.96069 0.77101 0.0
C4299 C 0.15465 0.97384 0.77299 0.0
C4300 C 0.19428 0.95212 0.77403 0.0
C4301 C 0.18943 0.93624 0.78292 0.0
C4302 C 0.20944 0.95487 0.76369 0.0
C4303 C 0.21473 0.97089 0.75329 0.0
C4304 C 0.20144 0.97404 0.74018 0.0
C4305 C 0.20649 0.98922 0.7305 0.0
C4306 C 0.22483 0.00127 0.73371 0.0
C4307 C 0.23817 0.99815 0.74658 0.0
C4308 C 0.23318 0.983 0.75631 0.0
C4309 C 0.22565 0.88038 0.75967 0.0
C4310 C 0.24535 0.88619 0.76312 0.0
C4311 C 0.21571 0.89323 0.76257 0.0
C4312 C 0.22521 0.91215 0.76917 0.0
C4313 C 0.24487 0.91796 0.77275 0.0
C4314 C 0.25483 0.90513 0.76978 0.0
C4315 C 0.2147 0.92599 0.77164 0.0
C4316 C 0.21949 0.94184 0.76272 0.0
C4317 C 0.19958 0.92329 0.78205 0.0
C4318 C 0.19465 0.90759 0.79288 0.0
C4319 C 0.20797 0.90548 0.80665 0.0
C4320 C 0.2032 0.89077 0.81696 0.0
C4321 C 0.18522 0.87798 0.8135 0.0
C4322 C 0.17189 0.88001 0.79987 0.0
C4323 C 0.17651 0.89482 0.78966 0.0
H4324 H 0.1816 0.86654 0.82143 0.0
H4325 H 0.22871 0.01301 0.7262 0.0
H4326 H 0.32843 0.92025 0.03118 0.0
H4327 H 0.35761 0.94577 0.03369 0.0
H4328 H 0.33654 0.96242 0.98356 0.0
H4329 H 0.30681 0.93787 0.98204 0.0
H4330 H 0.38205 0.94904 0.01374 0.0
H4331 H 0.36023 0.00619 0.97806 0.0
H4332 H 0.33403 0.01962 0.97574 0.0
H4333 H 0.31978 0.00275 0.02753 0.0
H4334 H 0.34606 0.98945 0.03031 0.0
H4335 H 0.45301 0.02051 0.97573 0.0
H4336 H 0.41962 0.00599 0.97706 0.0
H4337 H 0.43164 0.00807 0.03598 0.0
H4338 H 0.46478 0.02254 0.0349 0.0
H4339 H 0.39096 0.01422 0.00198 0.0
H4340 H 0.41355 0.96268 0.04173 0.0
H4341 H 0.44088 0.95125 0.04742 0.0
H4342 H 0.45347 0.95898 0.99269 0.0
H4343 H 0.42606 0.97018 0.9866 0.0
C4344 C 0.32997 0.92967 0.02097 0.0
C4345 C 0.31551 0.9272 0.00643 0.0
C4346 C 0.34663 0.94421 0.02235 0.0
C4347 C 0.34938 0.95618 0.00887 0.0
C4348 C 0.33471 0.95381 0.99445 0.0
C4349 C 0.31777 0.93967 0.99347 0.0
C4350 C 0.36814 0.96978 0.00895 0.0
C4351 C 0.38384 0.96336 0.01149 0.0
C4352 C 0.37072 0.98846 0.00566 0.0
C4353 C 0.35502 0.99665 0.00428 0.0
C4354 C 0.35156 0.00542 0.989 0.0
C4355 C 0.33669 0.013 0.98759 0.0
C4356 C 0.32521 0.01198 0.00144 0.0
C4357 C 0.32864 0.00346 0.01678 0.0
C4358 C 0.34351 0.99588 0.01826 0.0
C4359 C 0.44848 0.01827 0.98902 0.0
C4360 C 0.46158 0.0223 0.00514 0.0
C4361 C 0.4294 0.01012 0.98976 0.0
C4362 C 0.4233 0.0059 0.00659 0.0
C4363 C 0.43615 0.01121 0.02287 0.0
C4364 C 0.45512 0.01933 0.02216 0.0
C4365 C 0.40433 0.9933 0.00689 0.0
C4366 C 0.38882 0.99989 0.00435 0.0
C4367 C 0.40184 0.97489 0.01063 0.0
C4368 C 0.41786 0.9674 0.01379 0.0
C4369 C 0.42208 0.9618 0.03088 0.0
C4370 C 0.4376 0.9554 0.03418 0.0
C4371 C 0.44894 0.95444 0.02044 0.0
C4372 C 0.44471 0.95978 0.00333 0.0
C4373 C 0.4292 0.96617 -4e-05 0.0
H4374 H 0.46098 0.94953 0.02304 0.0
H4375 H 0.31369 0.01782 0.00029 0.0
H4376 H 0.84431 0.57118 0.80791 0.0
H4377 H 0.82088 0.58591 0.79763 0.0
H4378 H 0.84772 0.59836 0.74949 0.0
H4379 H 0.87146 0.5842 0.75994 0.0
H4380 H 0.83995 0.62752 0.76422 0.0
H4381 H 0.80574 0.5629 0.74685 0.0
H4382 H 0.79293 0.52998 0.75119 0.0
H4383 H 0.76145 0.54593 0.79209 0.0
H4384 H 0.77428 0.579 0.78818 0.0
H4385 H 0.76983 0.66043 0.72356 0.0
H4386 H 0.78742 0.6381 0.72683 0.0
H4387 H 0.76863 0.62918 0.77947 0.0
H4388 H 0.75062 0.65113 0.77608 0.0
H4389 H 0.77152 0.5968 0.75956 0.0
H4390 H 0.80913 0.66186 0.7787 0.0
H4391 H 0.82189 0.6946 0.77367 0.0
H4392 H 0.84659 0.67684 0.72766 0.0
H4393 H 0.83397 0.64399 0.73244 0.0
C4394 C 0.84519 0.57704 0.79513 0.0
C4395 C 0.85974 0.57657 0.78476 0.0
C4396 C 0.83172 0.58533 0.7892 0.0
C4397 C 0.8324 0.59299 0.77264 0.0
C4398 C 0.84691 0.59251 0.76229 0.0
C4399 C 0.86048 0.58442 0.7683 0.0
C4400 C 0.81844 0.6022 0.76648 0.0
C4401 C 0.82499 0.62064 0.76287 0.0
C4402 C 0.79891 0.59334 0.76498 0.0
C4403 C 0.7911 0.57346 0.76733 0.0
C4404 C 0.79619 0.55941 0.75687 0.0
C4405 C 0.78891 0.54072 0.75924 0.0
C4406 C 0.77642 0.53587 0.77194 0.0
C4407 C 0.77114 0.54971 0.78227 0.0
C4408 C 0.7784 0.56842 0.77997 0.0
C4409 C 0.76895 0.65325 0.73554 0.0
C4410 C 0.75906 0.65766 0.74969 0.0
C4411 C 0.7791 0.64062 0.73744 0.0
C4412 C 0.77957 0.63232 0.75355 0.0
C4413 C 0.76851 0.63554 0.76699 0.0
C4414 C 0.75835 0.64816 0.76509 0.0
C4415 C 0.79312 0.62201 0.75742 0.0
C4416 C 0.78649 0.60347 0.76067 0.0
C4417 C 0.8126 0.6307 0.75847 0.0
C4418 C 0.82048 0.65047 0.75582 0.0
C4419 C 0.81724 0.66494 0.76748 0.0
C4420 C 0.82449 0.68352 0.76471 0.0
C4421 C 0.83508 0.68781 0.75037 0.0
C4422 C 0.83847 0.67352 0.73881 0.0
C4423 C 0.8313 0.65492 0.74156 0.0
H4424 H 0.84066 0.70219 0.74823 0.0
H4425 H 0.77079 0.52139 0.77376 0.0
H4426 H 0.83479 0.66619 0.01364 0.0
H4427 H 0.85754 0.64873 0.01351 0.0
H4428 H 0.81456 0.599 0.02048 0.0
H4429 H 0.79192 0.61646 0.02111 0.0
H4430 H 0.84509 0.60237 0.04259 0.0
H4431 H 0.83102 0.6061 0.97816 0.0
H4432 H 0.8279 0.6218 0.9509 0.0
H4433 H 0.88654 0.65221 0.96187 0.0
H4434 H 0.88996 0.63688 0.98936 0.0
H4435 H 0.8907 0.53494 0.01999 0.0
H4436 H 0.8691 0.55359 0.01859 0.0
H4437 H 0.91511 0.60283 0.01716 0.0
H4438 H 0.9369 0.58435 0.01887 0.0
H4439 H 0.88409 0.60053 0.99244 0.0
H4440 H 0.89794 0.59623 0.0567 0.0
H4441 H 0.90089 0.57994 0.08355 0.0
H4442 H 0.84214 0.55 0.07235 0.0
H4443 H 0.83889 0.56593 0.04525 0.0
C4444 C 0.83018 0.65153 0.01512 0.0
C4445 C 0.81152 0.64273 0.01738 0.0
C4446 C 0.84318 0.64153 0.01494 0.0
C4447 C 0.83774 0.62246 0.01676 0.0
C4448 C 0.81912 0.61369 0.01906 0.0
C4449 C 0.80617 0.6237 0.01939 0.0
C4450 C 0.85145 0.61166 0.0167 0.0
C4451 C 0.85341 0.6018 0.03148 0.0
C4452 C 0.86272 0.61125 0.00246 0.0
C4453 C 0.8607 0.62049 0.98594 0.0
C4454 C 0.84322 0.61625 0.97485 0.0
C4455 C 0.8414 0.62506 0.95934 0.0
C4456 C 0.857 0.63804 0.95469 0.0
C4457 C 0.87446 0.64219 0.96551 0.0
C4458 C 0.87635 0.63343 0.98105 0.0
C4459 C 0.89627 0.54976 0.01949 0.0
C4460 C 0.91559 0.55814 0.01971 0.0
C4461 C 0.88388 0.56039 0.01862 0.0
C4462 C 0.89052 0.57965 0.01799 0.0
C4463 C 0.90968 0.58799 0.01763 0.0
C4464 C 0.92211 0.57737 0.01855 0.0
C4465 C 0.87749 0.59113 0.01821 0.0
C4466 C 0.87573 0.60115 0.00352 0.0
C4467 C 0.86633 0.59165 0.03248 0.0
C4468 C 0.86821 0.58215 0.04885 0.0
C4469 C 0.88568 0.58607 0.05988 0.0
C4470 C 0.8874 0.57692 0.07516 0.0
C4471 C 0.87172 0.56391 0.07963 0.0
C4472 C 0.85427 0.56006 0.06886 0.0
C4473 C 0.85248 0.56916 0.05355 0.0
H4474 H 0.87308 0.55683 0.09146 0.0
H4475 H 0.85557 0.64484 0.94267 0.0
H4476 H 0.13625 0.09758 0.79919 0.0
H4477 H 0.15965 0.12717 0.79798 0.0
H4478 H 0.1958 0.09777 0.77588 0.0
H4479 H 0.17232 0.06778 0.77719 0.0
H4480 H 0.21521 0.1305 0.80171 0.0
H4481 H 0.1709 0.11283 0.74645 0.0
H4482 H 0.13943 0.10173 0.72815 0.0
H4483 H 0.12642 0.14956 0.7536 0.0
H4484 H 0.15774 0.16081 0.77227 0.0
H4485 H 0.26707 0.21353 0.76784 0.0
H4486 H 0.24965 0.18143 0.77084 0.0
H4487 H 0.20518 0.20058 0.78993 0.0
H4488 H 0.2223 0.23255 0.78681 0.0
H4489 H 0.1919 0.17108 0.763 0.0
H4490 H 0.2356 0.18776 0.81954 0.0
H4491 H 0.26696 0.19869 0.83808 0.0
H4492 H 0.2813 0.15286 0.81003 0.0
H4493 H 0.25009 0.14179 0.79113 0.0
C4494 C 0.14925 0.09731 0.79426 0.0
C4495 C 0.1523 0.0803 0.78802 0.0
C4496 C 0.16261 0.11427 0.79359 0.0
C4497 C 0.17927 0.11464 0.78651 0.0
C4498 C 0.18296 0.09775 0.7813 0.0
C4499 C 0.16954 0.08065 0.78204 0.0
C4500 C 0.19199 0.13273 0.78343 0.0
C4501 C 0.21027 0.13927 0.79301 0.0
C4502 C 0.18543 0.14421 0.7722 0.0
C4503 C 0.16663 0.13759 0.76086 0.0
C4504 C 0.16129 0.12091 0.74824 0.0
C4505 C 0.14348 0.1146 0.73779 0.0
C4506 C 0.13092 0.12491 0.73974 0.0
C4507 C 0.13616 0.14158 0.75212 0.0
C4508 C 0.15395 0.14794 0.76262 0.0
C4509 C 0.25363 0.21093 0.7728 0.0
C4510 C 0.24605 0.22562 0.77702 0.0
C4511 C 0.24374 0.19258 0.77457 0.0
C4512 C 0.22616 0.18863 0.78068 0.0
C4513 C 0.21871 0.20331 0.78515 0.0
C4514 C 0.22855 0.2216 0.78338 0.0
C4515 C 0.215 0.16916 0.7817 0.0
C4516 C 0.19696 0.16229 0.7716 0.0
C4517 C 0.22185 0.15745 0.7924 0.0
C4518 C 0.24059 0.16407 0.80377 0.0
C4519 C 0.2455 0.1801 0.81721 0.0
C4520 C 0.26323 0.18631 0.82781 0.0
C4521 C 0.27613 0.17651 0.82519 0.0
C4522 C 0.2713 0.16046 0.81201 0.0
C4523 C 0.25359 0.15421 0.80136 0.0
H4524 H 0.28986 0.18133 0.83342 0.0
H4525 H 0.11714 0.12 0.73164 0.0
H4526 H 0.32737 0.99797 0.29186 0.0
H4527 H 0.29771 0.97492 0.29505 0.0
H4528 H 0.30781 0.93567 0.25308 0.0
H4529 H 0.33708 0.95847 0.24993 0.0
H4530 H 0.27077 0.92697 0.25537 0.0
H4531 H 0.33129 0.94214 0.29792 0.0
H4532 H 0.35656 0.96476 0.3203 0.0
H4533 H 0.31591 0.97543 0.35332 0.0
H4534 H 0.2904 0.95299 0.33097 0.0
H4535 H 0.2952 0.84979 0.27099 0.0
H4536 H 0.29332 0.88115 0.26894 0.0
H4537 H 0.25884 0.87711 0.31253 0.0
H4538 H 0.26037 0.8453 0.31452 0.0
H4539 H 0.29222 0.91091 0.31571 0.0
H4540 H 0.23629 0.87821 0.27558 0.0
H4541 H 0.21667 0.85269 0.25161 0.0
H4542 H 0.25272 0.87284 0.21199 0.0
H4543 H 0.2728 0.89832 0.2358 0.0
C4544 C 0.32269 0.98475 0.28269 0.0
C4545 C 0.33457 0.97968 0.27099 0.0
C4546 C 0.30577 0.97161 0.28451 0.0
C4547 C 0.30081 0.95342 0.27465 0.0
C4548 C 0.31136 0.94954 0.26093 0.0
C4549 C 0.3282 0.96253 0.25923 0.0
C4550 C 0.28855 0.93724 0.28156 0.0
C4551 C 0.27495 0.92357 0.26877 0.0
C4552 C 0.29379 0.93288 0.29919 0.0
C4553 C 0.30901 0.94609 0.31277 0.0
C4554 C 0.32779 0.94935 0.30997 0.0
C4555 C 0.34213 0.96214 0.32261 0.0
C4556 C 0.33784 0.97155 0.33821 0.0
C4557 C 0.3192 0.96815 0.34121 0.0
C4558 C 0.3048 0.95543 0.32856 0.0
C4559 C 0.2873 0.85555 0.28024 0.0
C4560 C 0.27802 0.84515 0.29298 0.0
C4561 C 0.28606 0.87337 0.2789 0.0
C4562 C 0.27567 0.8812 0.29037 0.0
C4563 C 0.26671 0.87111 0.30343 0.0
C4564 C 0.26769 0.85306 0.30459 0.0
C4565 C 0.27546 0.90045 0.28906 0.0
C4566 C 0.28679 0.9146 0.30289 0.0
C4567 C 0.26849 0.90505 0.27222 0.0
C4568 C 0.25602 0.89028 0.25752 0.0
C4569 C 0.24005 0.87722 0.26176 0.0
C4570 C 0.22886 0.86272 0.2482 0.0
C4571 C 0.23343 0.86114 0.23028 0.0
C4572 C 0.24917 0.87411 0.22587 0.0
C4573 C 0.26044 0.88863 0.23939 0.0
H4574 H 0.22477 0.84986 0.21982 0.0
H4575 H 0.34896 0.98145 0.34798 0.0
H4576 H 0.58173 0.35597 0.57566 0.0
H4577 H 0.57491 0.38375 0.56667 0.0
H4578 H 0.52031 0.36528 0.58358 0.0
H4579 H 0.52723 0.33749 0.59321 0.0
H4580 H 0.52969 0.3797 0.5419 0.0
H4581 H 0.53693 0.39481 0.60965 0.0
H4582 H 0.55409 0.39746 0.64077 0.0
H4583 H 0.6032 0.43445 0.62516 0.0
H4584 H 0.58638 0.43174 0.59384 0.0
H4585 H 0.50447 0.46166 0.52919 0.0
H4586 H 0.50767 0.43292 0.53939 0.0
H4587 H 0.56603 0.46096 0.55982 0.0
H4588 H 0.56262 0.48999 0.55043 0.0
H4589 H 0.55341 0.44059 0.58327 0.0
H4590 H 0.54896 0.42783 0.51763 0.0
H4591 H 0.53546 0.42515 0.48506 0.0
H4592 H 0.48557 0.38407 0.49408 0.0
H4593 H 0.49869 0.38668 0.52678 0.0
C4594 C 0.56823 0.35773 0.5775 0.0
C4595 C 0.55502 0.34442 0.58518 0.0
C4596 C 0.56439 0.37367 0.57235 0.0
C4597 C 0.54713 0.37661 0.57446 0.0
C4598 C 0.53374 0.36329 0.58187 0.0
C4599 C 0.53773 0.34744 0.58739 0.0
C4600 C 0.54339 0.39372 0.56895 0.0
C4601 C 0.53449 0.39297 0.55103 0.0
C4602 C 0.55043 0.41116 0.58055 0.0
C4603 C 0.56048 0.41288 0.59937 0.0
C4604 C 0.55145 0.40333 0.6128 0.0
C4605 C 0.5611 0.40489 0.63049 0.0
C4606 C 0.57975 0.41607 0.63492 0.0
C4607 C 0.58877 0.42576 0.6217 0.0
C4608 C 0.57918 0.42423 0.60399 0.0
C4609 C 0.51802 0.46169 0.53579 0.0
C4610 C 0.5333 0.47816 0.53892 0.0
C4611 C 0.51988 0.44516 0.54156 0.0
C4612 C 0.5372 0.44447 0.55015 0.0
C4613 C 0.55248 0.46096 0.55327 0.0
C4614 C 0.55054 0.4776 0.54783 0.0
C4615 C 0.53937 0.42674 0.55612 0.0
C4616 C 0.54825 0.42736 0.57409 0.0
C4617 C 0.53265 0.40923 0.54436 0.0
C4618 C 0.52473 0.4076 0.5247 0.0
C4619 C 0.53505 0.41832 0.5127 0.0
C4620 C 0.52748 0.4168 0.49421 0.0
C4621 C 0.50965 0.40448 0.48752 0.0
C4622 C 0.49937 0.39362 0.49929 0.0
C4623 C 0.50687 0.39511 0.5178 0.0
H4624 H 0.50381 0.40332 0.4732 0.0
H4625 H 0.58719 0.41726 0.64862 0.0
H4626 H 0.42672 0.76321 0.43262 0.0
H4627 H 0.40137 0.76718 0.41202 0.0
H4628 H 0.43121 0.7617 0.36574 0.0
H4629 H 0.45734 0.75849 0.38667 0.0
H4630 H 0.41771 0.7892 0.36341 0.0
H4631 H 0.38986 0.72622 0.37312 0.0
H4632 H 0.38005 0.70017 0.39096 0.0
H4633 H 0.34593 0.728 0.41866 0.0
H4634 H 0.3555 0.75423 0.40096 0.0
H4635 H 0.3392 0.7824 0.2973 0.0
H4636 H 0.3647 0.77635 0.31625 0.0
H4637 H 0.34031 0.78711 0.36525 0.0
H4638 H 0.3145 0.79302 0.3463 0.0
H4639 H 0.35085 0.75575 0.36497 0.0
H4640 H 0.37951 0.81896 0.35517 0.0
H4641 H 0.38905 0.84442 0.33658 0.0
H4642 H 0.42171 0.81515 0.30832 0.0
H4643 H 0.41216 0.78939 0.32657 0.0
C4644 C 0.42792 0.76261 0.41803 0.0
C4645 C 0.44415 0.76043 0.41134 0.0
C4646 C 0.41324 0.76477 0.40618 0.0
C4647 C 0.41406 0.76438 0.38717 0.0
C4648 C 0.43014 0.76196 0.38033 0.0
C4649 C 0.44505 0.76005 0.39229 0.0
C4650 C 0.3986 0.76758 0.37481 0.0
C4651 C 0.40312 0.78159 0.36351 0.0
C4652 C 0.37943 0.75807 0.37521 0.0
C4653 C 0.37353 0.74226 0.38581 0.0
C4654 C 0.38033 0.72683 0.38307 0.0
C4655 C 0.37476 0.712 0.39311 0.0
C4656 C 0.36235 0.71242 0.40591 0.0
C4657 C 0.35547 0.72767 0.40869 0.0
C4658 C 0.36092 0.74249 0.39861 0.0
C4659 C 0.33929 0.7837 0.31213 0.0
C4660 C 0.32479 0.78834 0.32026 0.0
C4661 C 0.35396 0.78025 0.32297 0.0
C4662 C 0.35458 0.78144 0.34223 0.0
C4663 C 0.34018 0.78615 0.35042 0.0
C4664 C 0.32549 0.78965 0.33957 0.0
C4665 C 0.37003 0.77736 0.35369 0.0
C4666 C 0.36547 0.76322 0.36482 0.0
C4667 C 0.38915 0.78665 0.35304 0.0
C4668 C 0.39498 0.80217 0.34212 0.0
C4669 C 0.38862 0.81789 0.34489 0.0
C4670 C 0.39405 0.83239 0.33443 0.0
C4671 C 0.40594 0.83138 0.32124 0.0
C4672 C 0.41248 0.8159 0.31852 0.0
C4673 C 0.40708 0.80136 0.32893 0.0
H4674 H 0.41013 0.84262 0.31316 0.0
H4675 H 0.35806 0.70093 0.41366 0.0
H4676 H 0.07819 0.74514 0.06736 0.0
H4677 H 0.07279 0.71194 0.05791 0.0
H4678 H 0.02148 0.69937 0.08184 0.0
H4679 H 0.02724 0.73284 0.09206 0.0
H4680 H 0.03888 0.676 0.09053 0.0
H4681 H 0.02308 0.69523 0.03305 0.0
H4682 H 0.02719 0.7143 0.00781 0.0
H4683 H 0.07614 0.69881 0.9974 0.0
H4684 H 0.07247 0.67984 0.02275 0.0
H4685 H 0.00569 0.58096 0.04518 0.0
H4686 H 0.00974 0.61416 0.0544 0.0
H4687 H 0.06659 0.62793 0.04266 0.0
H4688 H 0.06276 0.5946 0.03363 0.0
H4689 H 0.04531 0.65009 0.02737 0.0
H4690 H 0.06031 0.63077 0.08563 0.0
H4691 H 0.0545 0.6107 0.10995 0.0
H4692 H 0.00466 0.62559 0.11775 0.0
H4693 H 0.01003 0.64554 0.09325 0.0
C4694 C 0.06559 0.73541 0.07046 0.0
C4695 C 0.05309 0.74183 0.08042 0.0
C4696 C 0.06247 0.71629 0.06494 0.0
C4697 C 0.04654 0.70293 0.06882 0.0
C4698 C 0.03388 0.70929 0.07858 0.0
C4699 C 0.03711 0.72849 0.08433 0.0
C4700 C 0.04358 0.68242 0.06325 0.0
C4701 C 0.03999 0.67036 0.07661 0.0
C4702 C 0.04534 0.67486 0.04519 0.0
C4703 C 0.04759 0.68624 0.02992 0.0
C4704 C 0.0348 0.696 0.02547 0.0
C4705 C 0.03704 0.70677 0.01113 0.0
C4706 C 0.05194 0.7078 0.00104 0.0
C4707 C 0.06461 0.69802 0.00524 0.0
C4708 C 0.06245 0.68723 0.01958 0.0
C4709 C 0.01912 0.591 0.04464 0.0
C4710 C 0.03393 0.58503 0.0387 0.0
C4711 C 0.02141 0.61002 0.04996 0.0
C4712 C 0.03848 0.6236 0.04928 0.0
C4713 C 0.05329 0.61773 0.0433 0.0
C4714 C 0.0511 0.59864 0.03825 0.0
C4715 C 0.04075 0.64389 0.05465 0.0
C4716 C 0.04417 0.65583 0.04125 0.0
C4717 C 0.03861 0.65128 0.07257 0.0
C4718 C 0.03548 0.6395 0.08747 0.0
C4719 C 0.04803 0.62965 0.09242 0.0
C4720 C 0.04483 0.61832 0.10626 0.0
C4721 C 0.02919 0.61683 0.11536 0.0
C4722 C 0.01676 0.62674 0.11068 0.0
C4723 C 0.01988 0.63807 0.09682 0.0
H4724 H 0.02673 0.60804 0.12606 0.0
H4725 H 0.05365 0.71615 0.98994 0.0
H4726 H 0.03148 0.29031 0.87273 0.0
H4727 H 0.05739 0.29163 0.85497 0.0
H4728 H 0.07943 0.26027 0.89202 0.0
H4729 H 0.05358 0.25899 0.90999 0.0
H4730 H 0.10717 0.2894 0.88403 0.0
H4731 H 0.05617 0.23907 0.84982 0.0
H4732 H 0.02403 0.22394 0.83371 0.0
H4733 H 0.03281 0.26331 0.79523 0.0
H4734 H 0.06494 0.27884 0.81127 0.0
H4735 H 0.17197 0.2697 0.82694 0.0
H4736 H 0.14679 0.26724 0.84578 0.0
H4737 H 0.11939 0.29364 0.8075 0.0
H4738 H 0.14396 0.29513 0.78805 0.0
H4739 H 0.09442 0.266 0.81675 0.0
H4740 H 0.14511 0.31693 0.85124 0.0
H4741 H 0.17714 0.33243 0.86748 0.0
H4742 H 0.16909 0.29248 0.90538 0.0
H4743 H 0.13707 0.27658 0.88921 0.0
C4744 C 0.04182 0.28369 0.87714 0.0
C4745 C 0.04036 0.27446 0.89277 0.0
C4746 C 0.05663 0.28441 0.86691 0.0
C4747 C 0.07029 0.27588 0.87201 0.0
C4748 C 0.06906 0.26693 0.88778 0.0
C4749 C 0.05422 0.26615 0.89801 0.0
C4750 C 0.08576 0.27622 0.8608 0.0
C4751 C 0.1044 0.28406 0.86936 0.0
C4752 C 0.08219 0.26958 0.84158 0.0
C4753 C 0.06291 0.26022 0.83185 0.0
C4754 C 0.0512 0.24459 0.83801 0.0
C4755 C 0.033 0.23593 0.82888 0.0
C4756 C 0.02637 0.24269 0.81349 0.0
C4757 C 0.03796 0.2581 0.80717 0.0
C4758 C 0.05617 0.26683 0.81626 0.0
C4759 C 0.16051 0.2748 0.82239 0.0
C4760 C 0.16015 0.28267 0.80593 0.0
C4761 C 0.14618 0.27361 0.83335 0.0
C4762 C 0.13124 0.28053 0.82828 0.0
C4763 C 0.13077 0.28828 0.81181 0.0
C4764 C 0.145 0.28931 0.80077 0.0
C4765 C 0.11592 0.27943 0.83989 0.0
C4766 C 0.09726 0.27137 0.83141 0.0
C4767 C 0.1195 0.28593 0.85917 0.0
C4768 C 0.13874 0.29548 0.86892 0.0
C4769 C 0.15021 0.31137 0.86296 0.0
C4770 C 0.16835 0.32025 0.87217 0.0
C4771 C 0.17513 0.31346 0.88747 0.0
C4772 C 0.1638 0.29775 0.89356 0.0
C4773 C 0.14565 0.2888 0.88438 0.0
H4774 H 0.18918 0.32035 0.89459 0.0
H4775 H 0.01227 0.23597 0.80644 0.0
H4776 H 0.54551 0.74851 0.87924 0.0
H4777 H 0.55099 0.7224 0.89389 0.0
H4778 H 0.53676 0.74504 0.9449 0.0
H4779 H 0.53114 0.77074 0.93045 0.0
H4780 H 0.56757 0.73206 0.95051 0.0
H4781 H 0.50443 0.71143 0.91596 0.0
H4782 H 0.48181 0.70476 0.88745 0.0
H4783 H 0.50815 0.6665 0.86291 0.0
H4784 H 0.53109 0.67314 0.89122 0.0
H4785 H 0.53503 0.66266 0.00495 0.0
H4786 H 0.53964 0.68732 0.98568 0.0
H4787 H 0.54482 0.64912 0.9398 0.0
H4788 H 0.53919 0.62399 0.95879 0.0
H4789 H 0.52375 0.66857 0.92793 0.0
H4790 H 0.58355 0.68483 0.96399 0.0
H4791 H 0.60656 0.69121 0.99214 0.0
H4792 H 0.58828 0.73733 0.01312 0.0
H4793 H 0.56497 0.73108 0.98521 0.0
C4794 C 0.54387 0.74802 0.89364 0.0
C4795 C 0.53777 0.7616 0.90365 0.0
C4796 C 0.54691 0.73308 0.90197 0.0
C4797 C 0.54415 0.7317 0.92048 0.0
C4798 C 0.53898 0.74578 0.93064 0.0
C4799 C 0.53569 0.76045 0.92231 0.0
C4800 C 0.54547 0.71522 0.92926 0.0
C4801 C 0.55801 0.71815 0.94559 0.0
C4802 C 0.53341 0.69697 0.92254 0.0
C4803 C 0.51961 0.69296 0.90559 0.0
C4804 C 0.50549 0.70172 0.90442 0.0
C4805 C 0.4926 0.69792 0.88831 0.0
C4806 C 0.49359 0.68527 0.87335 0.0
C4807 C 0.50743 0.67633 0.87449 0.0
C4808 C 0.52038 0.6801 0.89056 0.0
C4809 C 0.53701 0.65939 0.99073 0.0
C4810 C 0.53667 0.64123 0.98349 0.0
C4811 C 0.53993 0.67364 0.97976 0.0
C4812 C 0.54293 0.67025 0.96131 0.0
C4813 C 0.54268 0.65217 0.95401 0.0
C4814 C 0.53962 0.63783 0.96497 0.0
C4815 C 0.54551 0.68547 0.94958 0.0
C4816 C 0.53366 0.68232 0.9327 0.0
C4817 C 0.55836 0.70351 0.95572 0.0
C4818 C 0.57242 0.70741 0.97253 0.0
C4819 C 0.58435 0.69626 0.97465 0.0
C4820 C 0.59746 0.69987 0.99057 0.0
C4821 C 0.59886 0.71465 0.00442 0.0
C4822 C 0.58717 0.72589 0.00237 0.0
C4823 C 0.57403 0.72233 0.98649 0.0
H4824 H 0.60901 0.71741 0.01674 0.0
H4825 H 0.48359 0.68234 0.8609 0.0
H4826 H 0.06643 0.78097 0.70059 0.0
H4827 H 0.10028 0.7865 0.70761 0.0
H4828 H 0.09022 0.73769 0.73501 0.0
H4829 H 0.05666 0.73265 0.72885 0.0
H4830 H 0.11925 0.76207 0.75324 0.0
H4831 H 0.10058 0.73871 0.68801 0.0
H4832 H 0.08651 0.73892 0.65625 0.0
H4833 H 0.12546 0.793 0.65574 0.0
H4834 H 0.13961 0.79319 0.68759 0.0
H4835 H 0.20517 0.74117 0.74627 0.0
H4836 H 0.17198 0.73943 0.74042 0.0
H4837 H 0.18748 0.79492 0.72572 0.0
H4838 H 0.22058 0.7969 0.73178 0.0
H4839 H 0.1567 0.76896 0.70135 0.0
H4840 H 0.17631 0.79129 0.76609 0.0
H4841 H 0.19103 0.79028 0.79734 0.0
H4842 H 0.15054 0.73719 0.79827 0.0
H4843 H 0.13576 0.73775 0.76688 0.0
C4844 C 0.07144 0.7716 0.70837 0.0
C4845 C 0.0587 0.75632 0.71407 0.0
C4846 C 0.09086 0.77465 0.71223 0.0
C4847 C 0.09799 0.76226 0.72149 0.0
C4848 C 0.08526 0.74748 0.72781 0.0
C4849 C 0.06595 0.74459 0.72423 0.0
C4850 C 0.11852 0.76415 0.72416 0.0
C4851 C 0.12731 0.76338 0.74179 0.0
C4852 C 0.12939 0.76623 0.70943 0.0
C4853 C 0.12102 0.76604 0.69023 0.0
C4854 C 0.10607 0.75069 0.68115 0.0
C4855 C 0.09809 0.75073 0.66314 0.0
C4856 C 0.10505 0.76599 0.654 0.0
C4857 C 0.12006 0.7812 0.66284 0.0
C4858 C 0.12807 0.78124 0.68087 0.0
C4859 C 0.20151 0.75291 0.74159 0.0
C4860 C 0.21557 0.76917 0.73952 0.0
C4861 C 0.18253 0.75194 0.73834 0.0
C4862 C 0.17722 0.76709 0.73272 0.0
C4863 C 0.1912 0.78306 0.73002 0.0
C4864 C 0.21015 0.78417 0.73355 0.0
C4865 C 0.15715 0.76658 0.73025 0.0
C4866 C 0.14854 0.76766 0.71273 0.0
C4867 C 0.14643 0.76468 0.74503 0.0
C4868 C 0.15503 0.76448 0.76406 0.0
C4869 C 0.17062 0.77933 0.77291 0.0
C4870 C 0.17897 0.77885 0.79065 0.0
C4871 C 0.17176 0.76365 0.79977 0.0
C4872 C 0.15613 0.74894 0.79118 0.0
C4873 C 0.14775 0.74934 0.77342 0.0
H4874 H 0.17825 0.76329 0.8135 0.0
H4875 H 0.09885 0.766 0.64006 0.0
H4876 H 0.01263 0.36221 0.38853 0.0
H4877 H 0.02027 0.39459 0.40345 0.0
H4878 H 0.07551 0.39368 0.42454 0.0
H4879 H 0.06804 0.36118 0.40896 0.0
H4880 H 0.05199 0.40419 0.4517 0.0
H4881 H 0.07561 0.42101 0.39614 0.0
H4882 H 0.07487 0.42006 0.36245 0.0
H4883 H 0.02652 0.43939 0.3595 0.0
H4884 H 0.02679 0.44019 0.39314 0.0
H4885 H 0.06896 0.49588 0.49819 0.0
H4886 H 0.0732 0.46917 0.47915 0.0
H4887 H 0.02611 0.46772 0.43964 0.0
H4888 H 0.02236 0.495 0.45825 0.0
H4889 H 0.05094 0.45955 0.42167 0.0
H4890 H 0.02329 0.43809 0.47437 0.0
H4891 H 0.02099 0.43745 0.50752 0.0
H4892 H 0.0731 0.42494 0.51531 0.0
H4893 H 0.07583 0.42575 0.48223 0.0
C4894 C 0.02657 0.36907 0.39598 0.0
C4895 C 0.03979 0.35929 0.39756 0.0
C4896 C 0.03091 0.38755 0.40448 0.0
C4897 C 0.04845 0.39654 0.41507 0.0
C4898 C 0.06192 0.38699 0.41633 0.0
C4899 C 0.05771 0.36853 0.40738 0.0
C4900 C 0.05174 0.41523 0.426 0.0
C4901 C 0.05227 0.41647 0.44522 0.0
C4902 C 0.05137 0.43099 0.41743 0.0
C4903 C 0.05115 0.43053 0.39717 0.0
C4904 C 0.06471 0.4249 0.38829 0.0
C4905 C 0.0644 0.42442 0.3692 0.0
C4906 C 0.05064 0.42963 0.35883 0.0
C4907 C 0.03717 0.43535 0.36754 0.0
C4908 C 0.03741 0.43584 0.38663 0.0
C4909 C 0.05959 0.48996 0.48537 0.0
C4910 C 0.04518 0.49744 0.47983 0.0
C4911 C 0.06197 0.4746 0.47452 0.0
C4912 C 0.04971 0.46606 0.45812 0.0
C4913 C 0.03574 0.47396 0.45224 0.0
C4914 C 0.03356 0.48955 0.46293 0.0
C4915 C 0.05092 0.44852 0.44745 0.0
C4916 C 0.05107 0.44744 0.42826 0.0
C4917 C 0.0515 0.43273 0.45601 0.0
C4918 C 0.04988 0.43221 0.47589 0.0
C4919 C 0.03433 0.43534 0.48319 0.0
C4920 C 0.03294 0.43493 0.50195 0.0
C4921 C 0.04692 0.43122 0.51352 0.0
C4922 C 0.0623 0.42786 0.50633 0.0
C4923 C 0.06377 0.42828 0.48758 0.0
H4924 H 0.04582 0.4309 0.52805 0.0
H4925 H 0.05042 0.42926 0.34406 0.0
H4926 H 0.44905 0.22764 0.22697 0.0
H4927 H 0.42051 0.23293 0.23584 0.0
H4928 H 0.42793 0.2786 0.20427 0.0
H4929 H 0.45674 0.27335 0.19518 0.0
H4930 H 0.41729 0.28669 0.2394 0.0
H4931 H 0.39474 0.23819 0.18643 0.0
H4932 H 0.39337 0.20819 0.1683 0.0
H4933 H 0.37456 0.17934 0.21312 0.0
H4934 H 0.37581 0.20921 0.23154 0.0
H4935 H 0.32693 0.29636 0.24366 0.0
H4936 H 0.35561 0.2923 0.23371 0.0
H4937 H 0.34414 0.23933 0.25405 0.0
H4938 H 0.31487 0.24295 0.26319 0.0
H4939 H 0.35731 0.23526 0.2241 0.0
H4940 H 0.37886 0.28257 0.27715 0.0
H4941 H 0.38174 0.31219 0.29684 0.0
H4942 H 0.40431 0.34304 0.25453 0.0
H4943 H 0.40134 0.31358 0.23448 0.0
C4944 C 0.44475 0.23889 0.22189 0.0
C4945 C 0.45532 0.25003 0.21026 0.0
C4946 C 0.42829 0.24184 0.22696 0.0
C4947 C 0.42184 0.25604 0.2206 0.0
C4948 C 0.43254 0.26751 0.20934 0.0
C4949 C 0.44902 0.26447 0.20411 0.0
C4950 C 0.40386 0.25861 0.22565 0.0
C4951 C 0.40411 0.27558 0.23579 0.0
C4952 C 0.38671 0.24393 0.22153 0.0
C4953 C 0.38539 0.22591 0.21035 0.0
C4954 C 0.3903 0.22544 0.1924 0.0
C4955 C 0.38952 0.20847 0.18208 0.0
C4956 C 0.38382 0.19187 0.18955 0.0
C4957 C 0.37883 0.1922 0.20734 0.0
C4958 C 0.37951 0.20913 0.2177 0.0
C4959 C 0.3305 0.28385 0.24607 0.0
C4960 C 0.31857 0.27006 0.25437 0.0
C4961 C 0.34707 0.28158 0.24046 0.0
C4962 C 0.35252 0.26569 0.24345 0.0
C4963 C 0.34047 0.25178 0.25157 0.0
C4964 C 0.32369 0.25389 0.25687 0.0
C4965 C 0.37057 0.26349 0.23792 0.0
C4966 C 0.3704 0.24651 0.22771 0.0
C4967 C 0.38786 0.27812 0.24222 0.0
C4968 C 0.3897 0.29586 0.25425 0.0
C4969 C 0.38432 0.29567 0.27199 0.0
C4970 C 0.38598 0.31242 0.28322 0.0
C4971 C 0.39316 0.32948 0.27692 0.0
C4972 C 0.39873 0.32982 0.25938 0.0
C4973 C 0.39708 0.31309 0.24809 0.0
H4974 H 0.39443 0.34244 0.28563 0.0
H4975 H 0.3833 0.17875 0.18157 0.0
H4976 H 0.55562 0.50961 0.3208 0.0
H4977 H 0.54649 0.50356 0.35093 0.0
H4978 H 0.60353 0.50797 0.37165 0.0
H4979 H 0.61261 0.51335 0.34109 0.0
H4980 H 0.57864 0.48291 0.38826 0.0
H4981 H 0.58894 0.54595 0.37696 0.0
H4982 H 0.58525 0.57113 0.35972 0.0
H4983 H 0.52639 0.55473 0.36349 0.0
H4984 H 0.52967 0.52925 0.38049 0.0
H4985 H 0.57007 0.51486 0.48251 0.0
H4986 H 0.57952 0.51028 0.45191 0.0
H4987 H 0.52353 0.50431 0.42641 0.0
H4988 H 0.51398 0.50899 0.45682 0.0
H4989 H 0.54971 0.53012 0.41295 0.0
H4990 H 0.54037 0.46705 0.42547 0.0
H4991 H 0.54538 0.44305 0.44376 0.0
H4992 H 0.60407 0.46106 0.43931 0.0
H4993 H 0.59946 0.48537 0.42122 0.0
C4994 C 0.56611 0.50875 0.33162 0.0
C4995 C 0.58485 0.51214 0.32871 0.0
C4996 C 0.5609 0.50537 0.34886 0.0
C4997 C 0.57443 0.50586 0.36369 0.0
C4998 C 0.59288 0.50767 0.36043 0.0
C4999 C 0.59806 0.51071 0.34298 0.0
C5000 C 0.5696 0.5066 0.38281 0.0
C5001 C 0.57249 0.49333 0.39376 0.0
C5002 C 0.56154 0.52019 0.38999 0.0
C5003 C 0.55953 0.53558 0.37984 0.0
C5004 C 0.57518 0.54763 0.37399 0.0
C5005 C 0.57317 0.56196 0.36427 0.0
C5006 C 0.55559 0.5645 0.36047 0.0
C5007 C 0.53999 0.55273 0.36642 0.0
C5008 C 0.54192 0.53834 0.3761 0.0
C5009 C 0.55969 0.51232 0.4704 0.0
C5010 C 0.54128 0.51243 0.47215 0.0
C5011 C 0.56511 0.50962 0.45291 0.0
C5012 C 0.55222 0.50691 0.43687 0.0
C5013 C 0.53371 0.50641 0.43861 0.0
C5014 C 0.52828 0.50908 0.45603 0.0
C5015 C 0.55824 0.50613 0.41828 0.0
C5016 C 0.55576 0.5196 0.40746 0.0
C5017 C 0.56685 0.49288 0.41142 0.0
C5018 C 0.5696 0.47815 0.42214 0.0
C5019 C 0.55437 0.46599 0.42851 0.0
C5020 C 0.55713 0.45231 0.43882 0.0
C5021 C 0.57504 0.45056 0.44273 0.0
C5022 C 0.59021 0.46245 0.43629 0.0
C5023 C 0.58753 0.47617 0.42599 0.0
H5024 H 0.57715 0.43997 0.45072 0.0
H5025 H 0.55405 0.57561 0.35295 0.0
H5026 H 0.2475 0.83542 0.0384 0.0
H5027 H 0.24131 0.82903 0.0693 0.0
H5028 H 0.23334 0.88313 0.08168 0.0
H5029 H 0.23926 0.88954 0.05057 0.0
H5030 H 0.26274 0.87801 0.10405 0.0
H5031 H 0.19852 0.8466 0.0852 0.0
H5032 H 0.16992 0.82485 0.06651 0.0
H5033 H 0.18812 0.77818 0.07899 0.0
H5034 H 0.21701 0.79961 0.09744 0.0
H5035 H 0.27409 0.85567 0.19491 0.0
H5036 H 0.25867 0.86482 0.16818 0.0
H5037 H 0.25561 0.8127 0.13533 0.0
H5038 H 0.27008 0.8031 0.16209 0.0
H5039 H 0.22457 0.8219 0.12678 0.0
H5040 H 0.29176 0.85291 0.13544 0.0
H5041 H 0.32167 0.87343 0.15302 0.0
H5042 H 0.2987 0.91927 0.15808 0.0
H5043 H 0.26857 0.89892 0.14068 0.0
C5044 C 0.24387 0.84572 0.0475 0.0
C5045 C 0.24413 0.86307 0.04221 0.0
C5046 C 0.24016 0.84199 0.0651 0.0
C5047 C 0.23685 0.85561 0.07775 0.0
C5048 C 0.23575 0.87241 0.07204 0.0
C5049 C 0.23916 0.87605 0.0543 0.0
C5050 C 0.23842 0.85365 0.09756 0.0
C5051 C 0.25399 0.86606 0.10922 0.0
C5052 C 0.22726 0.83783 0.1041 0.0
C5053 C 0.21005 0.8248 0.09266 0.0
C5054 C 0.19655 0.83172 0.0838 0.0
C5055 C 0.18025 0.81942 0.07327 0.0
C5056 C 0.17722 0.80014 0.07154 0.0
C5057 C 0.19049 0.79312 0.08033 0.0
C5058 C 0.20683 0.80534 0.09085 0.0
C5059 C 0.26987 0.84605 0.18206 0.0
C5060 C 0.27361 0.82879 0.18052 0.0
C5061 C 0.26112 0.85133 0.1668 0.0
C5062 C 0.25619 0.83952 0.14973 0.0
C5063 C 0.2593 0.82203 0.14837 0.0
C5064 C 0.26788 0.8167 0.1636 0.0
C5065 C 0.24928 0.84577 0.13278 0.0
C5066 C 0.23281 0.83418 0.12175 0.0
C5067 C 0.25979 0.86213 0.12659 0.0
C5068 C 0.27787 0.87436 0.137 0.0
C5069 C 0.29306 0.86734 0.14043 0.0
C5070 C 0.31005 0.87893 0.15033 0.0
C5071 C 0.31206 0.89763 0.15673 0.0
C5072 C 0.2971 0.90477 0.15317 0.0
C5073 C 0.28007 0.89322 0.14328 0.0
H5074 H 0.32523 0.90659 0.16439 0.0
H5075 H 0.16457 0.79065 0.06342 0.0
H5076 H 0.91731 0.54229 0.85472 0.0
H5077 H 0.93124 0.55148 0.88706 0.0
H5078 H 0.96454 0.60447 0.87469 0.0
H5079 H 0.95026 0.59518 0.84207 0.0
H5080 H 0.98566 0.58464 0.88857 0.0
H5081 H 0.9363 0.60468 0.90793 0.0
H5082 H 0.90385 0.60467 0.90992 0.0
H5083 H 0.89268 0.55333 0.93269 0.0
H5084 H 0.92494 0.55282 0.93058 0.0
H5085 H 0.02996 0.57312 0.9762 0.0
H5086 H 0.01579 0.58811 0.95333 0.0
H5087 H 0.96619 0.5402 0.94273 0.0
H5088 H 0.97998 0.52542 0.96572 0.0
H5089 H 0.95691 0.57179 0.94527 0.0
H5090 H 1.00163 0.54719 0.91442 0.0
H5091 H 0.03337 0.54556 0.91097 0.0
H5092 H 0.05215 0.60451 0.90877 0.0
H5093 H 0.02052 0.60649 0.9124 0.0
C5094 C 0.92699 0.55621 0.85911 0.0
C5095 C 0.93271 0.56812 0.84615 0.0
C5096 C 0.93489 0.56152 0.87759 0.0
C5097 C 0.94885 0.57874 0.88334 0.0
C5098 C 0.95365 0.59122 0.87056 0.0
C5099 C 0.9455 0.58597 0.85202 0.0
C5100 C 0.96067 0.58153 0.90141 0.0
C5101 C 0.97954 0.58252 0.90119 0.0
C5102 C 0.95266 0.5786 0.91779 0.0
C5103 C 0.93313 0.57874 0.9191 0.0
C5104 C 0.92691 0.59331 0.91327 0.0
C5105 C 0.90853 0.59341 0.91443 0.0
C5106 C 0.89621 0.57901 0.92144 0.0
C5107 C 0.90225 0.56449 0.9273 0.0
C5108 C 0.92061 0.56432 0.92616 0.0
C5109 C 0.01609 0.56574 0.96886 0.0
C5110 C 0.00614 0.54802 0.97263 0.0
C5111 C 0.00799 0.57437 0.95589 0.0
C5112 C 0.98993 0.56527 0.94635 0.0
C5113 C 0.98007 0.54756 0.95007 0.0
C5114 C 0.98805 0.53904 0.9631 0.0
C5115 C 0.98129 0.57351 0.93183 0.0
C5116 C 0.96316 0.5747 0.93286 0.0
C5117 C 0.98988 0.57825 0.91609 0.0
C5118 C 0.00883 0.57703 0.91394 0.0
C5119 C 0.01257 0.55981 0.91334 0.0
C5120 C 0.03053 0.55883 0.91133 0.0
C5121 C 0.04479 0.57494 0.90972 0.0
C5122 C 0.0411 0.59206 0.91007 0.0
C5123 C 0.02318 0.59312 0.9121 0.0
H5124 H 0.05868 0.57414 0.90816 0.0
H5125 H 0.88199 0.57912 0.92234 0.0
H5126 H 0.25657 0.23255 0.55548 0.0
H5127 H 0.25881 0.2441 0.58802 0.0
H5128 H 0.30331 0.22021 0.60086 0.0
H5129 H 0.30063 0.20785 0.56804 0.0
H5130 H 0.27988 0.21233 0.6242 0.0
H5131 H 0.31102 0.26888 0.60364 0.0
H5132 H 0.31641 0.29382 0.58406 0.0
H5133 H 0.26712 0.30655 0.59822 0.0
H5134 H 0.26128 0.2815 0.61768 0.0
H5135 H 0.30211 0.26218 0.71656 0.0
H5136 H 0.30392 0.25288 0.68409 0.0
H5137 H 0.24937 0.25872 0.66859 0.0
H5138 H 0.24723 0.26775 0.70128 0.0
H5139 H 0.28031 0.2767 0.64749 0.0
H5140 H 0.24967 0.21782 0.66744 0.0
H5141 H 0.24699 0.19395 0.68813 0.0
H5142 H 0.29948 0.18734 0.67611 0.0
H5143 H 0.30261 0.21139 0.65555 0.0
C5144 C 0.26703 0.22989 0.56512 0.0
C5145 C 0.27845 0.21925 0.55907 0.0
C5146 C 0.26837 0.23665 0.58381 0.0
C5147 C 0.28142 0.23331 0.59697 0.0
C5148 C 0.29315 0.22302 0.59098 0.0
C5149 C 0.29167 0.21604 0.5722 0.0
C5150 C 0.28189 0.23967 0.617 0.0
C5151 C 0.28033 0.22652 0.62929 0.0
C5152 C 0.28222 0.25812 0.62374 0.0
C5153 C 0.28563 0.27319 0.61201 0.0
C5154 C 0.30124 0.27689 0.60246 0.0
C5155 C 0.30439 0.29107 0.59141 0.0
C5156 C 0.29209 0.30173 0.58987 0.0
C5157 C 0.27663 0.29826 0.59941 0.0
C5158 C 0.2734 0.28409 0.61048 0.0
C5159 C 0.29046 0.26152 0.70628 0.0
C5160 C 0.27449 0.26571 0.7115 0.0
C5161 C 0.29153 0.25616 0.68774 0.0
C5162 C 0.27678 0.2551 0.674 0.0
C5163 C 0.2609 0.25949 0.67905 0.0
C5164 C 0.25966 0.26455 0.6977 0.0
C5165 C 0.27801 0.24929 0.65436 0.0
C5166 C 0.27996 0.26257 0.64226 0.0
C5167 C 0.27842 0.23111 0.64787 0.0
C5168 C 0.27647 0.21654 0.66011 0.0
C5169 C 0.26073 0.2114 0.66934 0.0
C5170 C 0.2591 0.19781 0.68102 0.0
C5171 C 0.27308 0.18917 0.68348 0.0
C5172 C 0.28868 0.19406 0.67422 0.0
C5173 C 0.29038 0.20766 0.66253 0.0
H5174 H 0.2718 0.17865 0.69253 0.0
H5175 H 0.29456 0.31271 0.58131 0.0
H5176 H 0.56022 0.5391 0.23304 0.0
H5177 H 0.54983 0.53607 0.20017 0.0
H5178 H 0.58652 0.50306 0.18839 0.0
H5179 H 0.59749 0.50648 0.22156 0.0
H5180 H 0.59052 0.52944 0.16719 0.0
H5181 H 0.53789 0.48364 0.18204 0.0
H5182 H 0.51192 0.47067 0.19927 0.0
H5183 H 0.48633 0.51205 0.1848 0.0
H5184 H 0.51229 0.52544 0.16769 0.0
H5185 H 0.55484 0.50657 0.07201 0.0
H5186 H 0.56248 0.5046 0.10451 0.0
H5187 H 0.53104 0.54214 0.11946 0.0
H5188 H 0.52309 0.54413 0.08669 0.0
H5189 H 0.52407 0.51169 0.13852 0.0
H5190 H 0.57783 0.55813 0.12487 0.0
H5191 H 0.60369 0.57051 0.1073 0.0
H5192 H 0.62698 0.52685 0.11935 0.0
H5193 H 0.60109 0.51404 0.13677 0.0
C5194 C 0.56596 0.53096 0.22355 0.0
C5195 C 0.57977 0.52307 0.23 0.0
C5196 C 0.55988 0.52914 0.20468 0.0
C5197 C 0.56721 0.51917 0.19175 0.0
C5198 C 0.58062 0.51079 0.19812 0.0
C5199 C 0.58682 0.51268 0.21708 0.0
C5200 C 0.56178 0.51872 0.17163 0.0
C5201 C 0.57599 0.52519 0.16086 0.0
C5202 C 0.5428 0.51367 0.16343 0.0
C5203 C 0.52713 0.50564 0.1737 0.0
C5204 C 0.52681 0.49007 0.18265 0.0
C5205 C 0.51207 0.48262 0.19237 0.0
C5206 C 0.49751 0.49056 0.19316 0.0
C5207 C 0.49763 0.50593 0.18419 0.0
C5208 C 0.51234 0.51343 0.17445 0.0
C5209 C 0.54951 0.51447 0.08213 0.0
C5210 C 0.53842 0.52564 0.07669 0.0
C5211 C 0.55396 0.51333 0.10076 0.0
C5212 C 0.54752 0.52338 0.11442 0.0
C5213 C 0.53619 0.53431 0.10911 0.0
C5214 C 0.53173 0.5355 0.09039 0.0
C5215 C 0.5528 0.52249 0.13423 0.0
C5216 C 0.53858 0.5158 0.14489 0.0
C5217 C 0.57176 0.52725 0.14233 0.0
C5218 C 0.58742 0.53502 0.13198 0.0
C5219 C 0.58839 0.55108 0.12365 0.0
C5220 C 0.60307 0.55819 0.11374 0.0
C5221 C 0.61695 0.54944 0.11217 0.0
C5222 C 0.61621 0.5336 0.12056 0.0
C5223 C 0.60154 0.52641 0.13047 0.0
H5224 H 0.6283 0.55497 0.10449 0.0
H5225 H 0.48611 0.48477 0.2007 0.0
H5226 H 0.22649 0.87042 0.93884 0.0
H5227 H 0.21638 0.8554 0.9065 0.0
H5228 H 0.2591 0.82787 0.91133 0.0
H5229 H 0.2689 0.84227 0.94331 0.0
H5230 H 0.2345 0.85732 0.87674 0.0
H5231 H 0.24583 0.78594 0.88971 0.0
H5232 H 0.24043 0.76513 0.91342 0.0
H5233 H 0.19781 0.78794 0.93063 0.0
H5234 H 0.20273 0.8087 0.90683 0.0
H5235 H 0.27728 0.81995 0.81161 0.0
H5236 H 0.26475 0.8323 0.83761 0.0
H5237 H 0.2155 0.784 0.82642 0.0
H5238 H 0.22832 0.7712 0.80052 0.0
H5239 H 0.22769 0.78988 0.86084 0.0
H5240 H 0.21188 0.82833 0.82085 0.0
H5241 H 0.21527 0.84851 0.79651 0.0
H5242 H 0.261 0.88993 0.83146 0.0
H5243 H 0.25802 0.86999 0.856 0.0
C5244 C 0.23359 0.86103 0.933 0.0
C5245 C 0.24839 0.85741 0.9437 0.0
C5246 C 0.22782 0.85251 0.91455 0.0
C5247 C 0.23672 0.84021 0.90665 0.0
C5248 C 0.25166 0.83689 0.91727 0.0
C5249 C 0.25733 0.84524 0.93559 0.0
C5250 C 0.2313 0.83119 0.88713 0.0
C5251 C 0.23267 0.84252 0.87314 0.0
C5252 C 0.228 0.81173 0.88238 0.0
C5253 C 0.22465 0.79889 0.89644 0.0
C5254 C 0.23516 0.78639 0.8984 0.0
C5255 C 0.23222 0.77464 0.91191 0.0
C5256 C 0.21879 0.77521 0.92353 0.0
C5257 C 0.20823 0.78752 0.92164 0.0
C5258 C 0.2111 0.7993 0.90815 0.0
C5259 C 0.26375 0.81196 0.8146 0.0
C5260 C 0.2539 0.7945 0.80417 0.0
C5261 C 0.25645 0.81917 0.82933 0.0
C5262 C 0.23897 0.80928 0.83374 0.0
C5263 C 0.22895 0.79193 0.82318 0.0
C5264 C 0.23636 0.78458 0.80851 0.0
C5265 C 0.23249 0.81628 0.85068 0.0
C5266 C 0.2288 0.80454 0.8642 0.0
C5267 C 0.23306 0.83521 0.85481 0.0
C5268 C 0.23472 0.8476 0.8403 0.0
C5269 C 0.22271 0.84171 0.82335 0.0
C5270 C 0.22458 0.8531 0.80949 0.0
C5271 C 0.23843 0.87043 0.81239 0.0
C5272 C 0.25032 0.87648 0.82922 0.0
C5273 C 0.24848 0.86517 0.84315 0.0
H5274 H 0.23983 0.87924 0.80168 0.0
H5275 H 0.21656 0.76612 0.93399 0.0
H5276 H 0.9745 0.56195 0.75862 0.0
H5277 H 0.98433 0.56101 0.72802 0.0
H5278 H 0.93131 0.56565 0.70449 0.0
H5279 H 0.92144 0.56689 0.73512 0.0
H5280 H 0.93882 0.53204 0.69215 0.0
H5281 H 0.96817 0.59783 0.69801 0.0
H5282 H 0.98846 0.62862 0.71383 0.0
H5283 H 0.03632 0.60857 0.71499 0.0
H5284 H 0.0163 0.57758 0.69936 0.0
H5285 H 0.96461 0.51045 0.60348 0.0
H5286 H 0.95312 0.52443 0.62957 0.0
H5287 H 0.00698 0.53592 0.66278 0.0
H5288 H 0.01892 0.5232 0.63652 0.0
H5289 H 0.99581 0.56534 0.66714 0.0
H5290 H 0.96775 0.49954 0.66682 0.0
H5291 H 0.94846 0.46722 0.65453 0.0
H5292 H 0.89958 0.48538 0.64675 0.0
H5293 H 0.91867 0.51789 0.65846 0.0
C5294 C 0.96521 0.56348 0.74705 0.0
C5295 C 0.9471 0.56418 0.74918 0.0
C5296 C 0.97087 0.56303 0.72959 0.0
C5297 C 0.95846 0.56315 0.71406 0.0
C5298 C 0.94105 0.56558 0.71638 0.0
C5299 C 0.93547 0.56631 0.73389 0.0
C5300 C 0.96229 0.55706 0.69552 0.0
C5301 C 0.95098 0.53953 0.68633 0.0
C5302 C 0.97852 0.56661 0.68847 0.0
C5303 C 0.99069 0.58532 0.69761 0.0
C5304 C 0.983 0.59994 0.70175 0.0
C5305 C 0.99446 0.61744 0.71068 0.0
C5306 C 0.01364 0.62052 0.71552 0.0
C5307 C 0.02144 0.60614 0.7113 0.0
C5308 C 0.01005 0.58862 0.70235 0.0
C5309 C 0.97401 0.51597 0.61634 0.0
C5310 C 0.99271 0.51571 0.61788 0.0
C5311 C 0.96738 0.52385 0.63127 0.0
C5312 C 0.97921 0.53124 0.64812 0.0
C5313 C 0.99765 0.53042 0.64986 0.0
C5314 C 0.00436 0.52281 0.6349 0.0
C5315 C 0.97259 0.54002 0.66398 0.0
C5316 C 0.98339 0.55802 0.67266 0.0
C5317 C 0.95609 0.53069 0.67085 0.0
C5318 C 0.94471 0.51121 0.66325 0.0
C5319 C 0.95295 0.49669 0.66221 0.0
C5320 C 0.94204 0.47833 0.65536 0.0
C5321 C 0.92283 0.47426 0.64976 0.0
C5322 C 0.91448 0.48855 0.65098 0.0
C5323 C 0.92535 0.50696 0.65767 0.0
H5324 H 0.91439 0.46001 0.64455 0.0
H5325 H 0.02248 0.63407 0.72244 0.0
H5326 H 0.3075 0.23769 0.47214 0.0
H5327 H 0.31398 0.24828 0.44248 0.0
H5328 H 0.27867 0.1947 0.41368 0.0
H5329 H 0.27322 0.18386 0.44335 0.0
H5330 H 0.30425 0.20707 0.39395 0.0
H5331 H 0.26229 0.23379 0.42386 0.0
H5332 H 0.25215 0.25136 0.44897 0.0
H5333 H 0.29715 0.30057 0.44591 0.0
H5334 H 0.3077 0.2832 0.42093 0.0
H5335 H 0.26267 0.23274 0.31406 0.0
H5336 H 0.26985 0.22273 0.34357 0.0
H5337 H 0.31324 0.27521 0.36134 0.0
H5338 H 0.30619 0.28541 0.33167 0.0
H5339 H 0.28817 0.26534 0.38672 0.0
H5340 H 0.32539 0.2366 0.35115 0.0
H5341 H 0.3302 0.21738 0.3238 0.0
H5342 H 0.28817 0.16965 0.33543 0.0
H5343 H 0.2829 0.18863 0.3627 0.0
C5344 C 0.30173 0.22804 0.45943 0.0
C5345 C 0.29002 0.20997 0.45988 0.0
C5346 C 0.30523 0.23412 0.4425 0.0
C5347 C 0.29639 0.22249 0.42576 0.0
C5348 C 0.28563 0.204 0.42632 0.0
C5349 C 0.28253 0.19778 0.44326 0.0
C5350 C 0.29675 0.22999 0.40784 0.0
C5351 C 0.30071 0.2198 0.3924 0.0
C5352 C 0.29221 0.24667 0.40569 0.0
C5353 C 0.28592 0.25714 0.42071 0.0
C5354 C 0.2701 0.24832 0.42865 0.0
C5355 C 0.26427 0.25825 0.44284 0.0
C5356 C 0.27404 0.27705 0.44908 0.0
C5357 C 0.28963 0.28599 0.4411 0.0
C5358 C 0.29554 0.27612 0.42692 0.0
C5359 C 0.27387 0.24214 0.32413 0.0
C5360 C 0.28384 0.25991 0.32049 0.0
C5361 C 0.27801 0.23633 0.34099 0.0
C5362 C 0.29219 0.24815 0.35458 0.0
C5363 C 0.3023 0.26585 0.35098 0.0
C5364 C 0.29827 0.27163 0.33401 0.0
C5365 C 0.29555 0.24239 0.37293 0.0
C5366 C 0.29215 0.25286 0.38841 0.0
C5367 C 0.30003 0.2257 0.37494 0.0
C5368 C 0.30369 0.21408 0.35894 0.0
C5369 C 0.31713 0.22202 0.34785 0.0
C5370 C 0.31993 0.21117 0.33235 0.0
C5371 C 0.30946 0.19232 0.32787 0.0
C5372 C 0.29626 0.18425 0.33893 0.0
C5373 C 0.29339 0.19504 0.35443 0.0
H5374 H 0.31159 0.18398 0.31583 0.0
H5375 H 0.2695 0.28472 0.46006 0.0
H5376 H 0.31803 0.61181 0.59224 0.0
H5377 H 0.33784 0.5912 0.59103 0.0
H5378 H 0.37652 0.62999 0.5641 0.0
H5379 H 0.35723 0.65085 0.56561 0.0
H5380 H 0.34974 0.58834 0.54463 0.0
H5381 H 0.39801 0.62719 0.59421 0.0
H5382 H 0.40887 0.64306 0.62629 0.0
H5383 H 0.39012 0.59049 0.64629 0.0
H5384 H 0.37885 0.57434 0.61428 0.0
H5385 H 0.41877 0.5521 0.51457 0.0
H5386 H 0.40067 0.57127 0.52734 0.0
H5387 H 0.38824 0.53635 0.56981 0.0
H5388 H 0.40678 0.51723 0.55721 0.0
H5389 H 0.3991 0.57306 0.58414 0.0
H5390 H 0.35432 0.53355 0.53483 0.0
H5391 H 0.3423 0.51714 0.50307 0.0
H5392 H 0.35257 0.56974 0.48274 0.0
H5393 H 0.36489 0.58648 0.51435 0.0
C5394 C 0.33117 0.61635 0.58681 0.0
C5395 C 0.33583 0.6327 0.57858 0.0
C5396 C 0.34244 0.60456 0.58614 0.0
C5397 C 0.35847 0.60911 0.57736 0.0
C5398 C 0.3642 0.62635 0.57098 0.0
C5399 C 0.3531 0.6382 0.57182 0.0
C5400 C 0.36683 0.59454 0.57123 0.0
C5401 C 0.36063 0.58503 0.55318 0.0
C5402 C 0.38049 0.58995 0.5827 0.0
C5403 C 0.38732 0.59961 0.60189 0.0
C5404 C 0.39597 0.61905 0.60545 0.0
C5405 C 0.40227 0.62809 0.62362 0.0
C5406 C 0.40011 0.6178 0.63833 0.0
C5407 C 0.39173 0.59844 0.63489 0.0
C5408 C 0.3854 0.58934 0.61674 0.0
C5409 C 0.4119 0.5483 0.52642 0.0
C5410 C 0.41397 0.53307 0.53479 0.0
C5411 C 0.40161 0.55928 0.53374 0.0
C5412 C 0.39293 0.55508 0.54938 0.0
C5413 C 0.39479 0.53976 0.55769 0.0
C5414 C 0.40532 0.52886 0.55048 0.0
C5415 C 0.38244 0.56717 0.55721 0.0
C5416 C 0.38809 0.57617 0.57559 0.0
C5417 C 0.36813 0.57127 0.54603 0.0
C5418 C 0.36065 0.56127 0.52697 0.0
C5419 C 0.35414 0.54162 0.52358 0.0
C5420 C 0.34725 0.53226 0.5056 0.0
C5421 C 0.3467 0.54239 0.4909 0.0
C5422 C 0.353 0.56191 0.49415 0.0
C5423 C 0.35992 0.57135 0.5121 0.0
H5424 H 0.34136 0.53511 0.47699 0.0
H5425 H 0.405 0.62482 0.65239 0.0
H5426 H 0.84453 0.89672 0.55047 0.0
H5427 H 0.87284 0.92247 0.55099 0.0
H5428 H 0.84014 0.95428 0.52638 0.0
H5429 H 0.81138 0.92827 0.52585 0.0
H5430 H 0.87081 0.9528 0.50846 0.0
H5431 H 0.86008 0.96911 0.56955 0.0
H5432 H 0.8523 0.96408 0.60069 0.0
H5433 H 0.90089 0.94618 0.61225 0.0
H5434 H 0.90882 0.95082 0.58107 0.0
H5435 H 0.95956 0.02364 0.51638 0.0
H5436 H 0.92694 0.00878 0.52015 0.0
H5437 H 0.94329 0.96636 0.54607 0.0
H5438 H 0.97587 0.98106 0.5424 0.0
H5439 H 0.91821 0.97944 0.56429 0.0
H5440 H 0.92506 0.95744 0.50167 0.0
H5441 H 0.93279 0.96145 0.47031 0.0
H5442 H 0.89126 0.98956 0.46174 0.0
H5443 H 0.88346 0.98595 0.49318 0.0
C5444 C 0.84326 0.90924 0.54532 0.0
C5445 C 0.82571 0.91044 0.53805 0.0
C5446 C 0.85947 0.92401 0.54574 0.0
C5447 C 0.85858 0.94035 0.53888 0.0
C5448 C 0.84108 0.9418 0.53183 0.0
C5449 C 0.8247 0.927 0.5316 0.0
C5450 C 0.87626 0.95514 0.53811 0.0
C5451 C 0.88099 0.95907 0.52072 0.0
C5452 C 0.88965 0.96302 0.55408 0.0
C5453 C 0.885 0.96024 0.57291 0.0
C5454 C 0.86904 0.96397 0.57868 0.0
C5455 C 0.86461 0.96121 0.59635 0.0
C5456 C 0.87608 0.9548 0.60843 0.0
C5457 C 0.89202 0.95115 0.60287 0.0
C5458 C 0.89651 0.95388 0.58521 0.0
C5459 C 0.95624 0.01121 0.523 0.0
C5460 C 0.97031 0.00348 0.52901 0.0
C5461 C 0.93759 0.00273 0.5251 0.0
C5462 C 0.9327 0.98642 0.5333 0.0
C5463 C 0.94678 0.97897 0.53974 0.0
C5464 C 0.96539 0.98735 0.53754 0.0
C5465 C 0.91289 0.97659 0.53462 0.0
C5466 C 0.90782 0.97359 0.5521 0.0
C5467 C 0.89921 0.96952 0.51874 0.0
C5468 C 0.90386 0.97165 0.49985 0.0
C5469 C 0.9177 0.96463 0.49315 0.0
C5470 C 0.92207 0.9668 0.47536 0.0
C5471 C 0.91257 0.97581 0.46406 0.0
C5472 C 0.89864 0.98262 0.47052 0.0
C5473 C 0.89423 0.98052 0.48832 0.0
H5474 H 0.91597 0.97747 0.45028 0.0
H5475 H 0.87263 0.95267 0.62211 0.0
H5476 H 0.91876 0.09915 0.29597 0.0
H5477 H 0.89797 0.1187 0.29582 0.0
H5478 H 0.8637 0.0833 0.24716 0.0
H5479 H 0.88444 0.06357 0.24722 0.0
H5480 H 0.87175 0.12137 0.24464 0.0
H5481 H 0.84834 0.07983 0.2876 0.0
H5482 H 0.85081 0.06393 0.31483 0.0
H5483 H 0.87101 0.11697 0.35008 0.0
H5484 H 0.8689 0.13321 0.32302 0.0
H5485 H 0.79605 0.15988 0.24653 0.0
H5486 H 0.81547 0.13892 0.24565 0.0
H5487 H 0.84634 0.16757 0.29866 0.0
H5488 H 0.82669 0.18827 0.29975 0.0
H5489 H 0.83942 0.13194 0.29842 0.0
H5490 H 0.8642 0.17389 0.25662 0.0
H5491 H 0.86311 0.19082 0.22995 0.0
H5492 H 0.84221 0.13871 0.19323 0.0
H5493 H 0.84295 0.12145 0.21972 0.0
C5494 C 0.90678 0.09546 0.28524 0.0
C5495 C 0.90325 0.07974 0.27163 0.0
C5496 C 0.89488 0.10664 0.28521 0.0
C5497 C 0.8792 0.1024 0.27155 0.0
C5498 C 0.87571 0.08682 0.25784 0.0
C5499 C 0.88753 0.07552 0.25795 0.0
C5500 C 0.86656 0.11432 0.27156 0.0
C5501 C 0.86444 0.12348 0.25627 0.0
C5502 C 0.85745 0.11748 0.28695 0.0
C5503 C 0.85862 0.10774 0.30326 0.0
C5504 C 0.85344 0.08811 0.30114 0.0
C5505 C 0.85476 0.07904 0.31655 0.0
C5506 C 0.86111 0.08944 0.33417 0.0
C5507 C 0.86611 0.10894 0.33642 0.0
C5508 C 0.86484 0.11808 0.32106 0.0
C5509 C 0.80706 0.16177 0.25794 0.0
C5510 C 0.80983 0.17574 0.27321 0.0
C5511 C 0.8182 0.1498 0.25741 0.0
C5512 C 0.83259 0.15175 0.27199 0.0
C5513 C 0.83533 0.1657 0.28726 0.0
C5514 C 0.82407 0.17753 0.28788 0.0
C5515 C 0.84463 0.13916 0.27151 0.0
C5516 C 0.84666 0.12985 0.28673 0.0
C5517 C 0.85384 0.13605 0.25614 0.0
C5518 C 0.85345 0.14638 0.24017 0.0
C5519 C 0.85924 0.16604 0.24287 0.0
C5520 C 0.85871 0.17569 0.22778 0.0
C5521 C 0.85255 0.16585 0.20991 0.0
C5522 C 0.84696 0.14632 0.20708 0.0
C5523 C 0.84744 0.13659 0.22213 0.0
H5524 H 0.85214 0.17335 0.19825 0.0
H5525 H 0.86212 0.08239 0.34608 0.0
H5526 H 0.71919 0.15397 0.05916 0.0
H5527 H 0.68719 0.13356 0.05564 0.0
H5528 H 0.70614 0.08548 0.04288 0.0
H5529 H 0.73837 0.10601 0.04586 0.0
H5530 H 0.67967 0.08559 0.01692 0.0
H5531 H 0.68539 0.09161 0.08218 0.0
H5532 H 0.69378 0.1074 0.11446 0.0
H5533 H 0.65542 0.13879 0.10456 0.0
H5534 H 0.64699 0.12342 0.07214 0.0
H5535 H 0.58237 0.03039 0.00894 0.0
H5536 H 0.61612 0.04314 0.01939 0.0
H5537 H 0.61175 0.09907 0.02387 0.0
H5538 H 0.57806 0.0865 0.01319 0.0
H5539 H 0.631 0.08971 0.05638 0.0
H5540 H 0.62995 0.08696 0.98992 0.0
H5541 H 0.62121 0.07064 0.95782 0.0
H5542 H 0.65064 0.03181 0.97108 0.0
H5543 H 0.6594 0.04781 0.00334 0.0
C5544 C 0.71666 0.13902 0.05603 0.0
C5545 C 0.73128 0.13163 0.05251 0.0
C5546 C 0.69832 0.12732 0.05414 0.0
C5547 C 0.69425 0.10797 0.04901 0.0
C5548 C 0.70899 0.10039 0.0468 0.0
C5549 C 0.7274 0.11213 0.0486 0.0
C5550 C 0.67451 0.09622 0.04373 0.0
C5551 C 0.66911 0.08611 0.02577 0.0
C5552 C 0.66066 0.09712 0.05512 0.0
C5553 C 0.66562 0.1064 0.07467 0.0
C5554 C 0.67883 0.10197 0.08684 0.0
C5555 C 0.68358 0.11084 0.10518 0.0
C5556 C 0.67515 0.1241 0.11155 0.0
C5557 C 0.66193 0.12851 0.09961 0.0
C5558 C 0.65713 0.11969 0.08125 0.0
C5559 C 0.58865 0.04541 0.01198 0.0
C5560 C 0.57764 0.05748 0.01029 0.0
C5561 C 0.60786 0.05263 0.01795 0.0
C5562 C 0.61626 0.07198 0.0225 0.0
C5563 C 0.60539 0.08407 0.0205 0.0
C5564 C 0.58623 0.07689 0.01427 0.0
C5565 C 0.63638 0.07969 0.02958 0.0
C5566 C 0.64173 0.08896 0.0478 0.0
C5567 C 0.65017 0.07791 0.01852 0.0
C5568 C 0.64516 0.06845 -0.00092 0.0
C5569 C 0.63444 0.07486 0.98602 0.0
C5570 C 0.62951 0.06569 0.96779 0.0
C5571 C 0.63533 0.05017 0.96243 0.0
C5572 C 0.64614 0.04383 0.97527 0.0
C5573 C 0.65111 0.05296 0.99352 0.0
H5574 H 0.63149 0.04309 0.94831 0.0
H5575 H 0.67886 0.13095 0.12575 0.0
H5576 H 0.19291 0.49141 0.24772 0.0
H5577 H 0.20178 0.46457 0.25609 0.0
H5578 H 0.18802 0.47518 0.31095 0.0
H5579 H 0.17926 0.50238 0.30273 0.0
H5580 H 0.22196 0.4699 0.31188 0.0
H5581 H 0.16067 0.4371 0.28163 0.0
H5582 H 0.1334 0.42849 0.25719 0.0
H5583 H 0.1656 0.41042 0.21822 0.0
H5584 H 0.19315 0.41918 0.24234 0.0
H5585 H 0.2496 0.38737 0.32401 0.0
H5586 H 0.2306 0.40887 0.32388 0.0
H5587 H 0.23664 0.41319 0.26669 0.0
H5588 H 0.25552 0.3919 0.26675 0.0
H5589 H 0.20064 0.40768 0.27279 0.0
H5590 H 0.26306 0.44711 0.30145 0.0
H5591 H 0.29071 0.45631 0.32552 0.0
H5592 H 0.25603 0.46188 0.36729 0.0
H5593 H 0.22813 0.45249 0.34345 0.0
C5594 C 0.19159 0.48799 0.26152 0.0
C5595 C 0.18544 0.49907 0.27458 0.0
C5596 C 0.19654 0.47253 0.26625 0.0
C5597 C 0.19532 0.46774 0.28407 0.0
C5598 C 0.18896 0.47861 0.2971 0.0
C5599 C 0.18396 0.49411 0.29236 0.0
C5600 C 0.20203 0.45217 0.28923 0.0
C5601 C 0.21698 0.45613 0.30364 0.0
C5602 C 0.19559 0.43426 0.2784 0.0
C5603 C 0.17902 0.42888 0.26381 0.0
C5604 C 0.16198 0.43141 0.26782 0.0
C5605 C 0.14646 0.42648 0.25402 0.0
C5606 C 0.14778 0.41893 0.23616 0.0
C5607 C 0.1646 0.41626 0.23207 0.0
C5608 C 0.18017 0.42118 0.24581 0.0
C5609 C 0.247 0.3931 0.3115 0.0
C5610 C 0.25402 0.388 0.29539 0.0
C5611 C 0.23609 0.40526 0.31142 0.0
C5612 C 0.23222 0.41257 0.29526 0.0
C5613 C 0.23932 0.40755 0.27924 0.0
C5614 C 0.25012 0.39542 0.2793 0.0
C5615 C 0.2211 0.42578 0.29478 0.0
C5616 C 0.20526 0.4213 0.28132 0.0
C5617 C 0.22674 0.44321 0.30644 0.0
C5618 C 0.2435 0.44887 0.32072 0.0
C5619 C 0.26132 0.45015 0.31578 0.0
C5620 C 0.27703 0.45543 0.32938 0.0
C5621 C 0.27512 0.45961 0.34793 0.0
C5622 C 0.25749 0.45859 0.35292 0.0
C5623 C 0.24172 0.4533 0.33938 0.0
H5624 H 0.2873 0.4637 0.35844 0.0
H5625 H 0.13575 0.41513 0.2255 0.0
H5626 H 0.25559 0.43515 0.01017 0.0
H5627 H 0.23214 0.45169 0.00807 0.0
H5628 H 0.19201 0.40546 0.02514 0.0
H5629 H 0.21547 0.38877 0.02736 0.0
H5630 H 0.1773 0.41906 0.99478 0.0
H5631 H 0.21206 0.44334 0.05554 0.0
H5632 H 0.24066 0.45773 0.07808 0.0
H5633 H 0.25378 0.50638 0.05093 0.0
H5634 H 0.22538 0.49216 0.02806 0.0
H5635 H 0.11011 0.46641 0.01134 0.0
H5636 H 0.13226 0.44848 0.01386 0.0
H5637 H 0.17682 0.49649 0.006 0.0
H5638 H 0.15501 0.51482 0.00452 0.0
H5639 H 0.18894 0.48115 0.03224 0.0
H5640 H 0.15513 0.45808 0.97163 0.0
H5641 H 0.12767 0.44406 0.94766 0.0
H5642 H 0.11406 0.39367 0.97203 0.0
H5643 H 0.14108 0.4076 0.99656 0.0
C5644 C 0.24178 0.42846 0.01348 0.0
C5645 C 0.23744 0.41064 0.019 0.0
C5646 C 0.2284 0.43797 0.01232 0.0
C5647 C 0.21036 0.42988 0.01658 0.0
C5648 C 0.20586 0.41198 0.02181 0.0
C5649 C 0.2193 0.40249 0.02314 0.0
C5650 C 0.19628 0.44019 0.01562 0.0
C5651 C 0.17966 0.4325 0.00317 0.0
C5652 C 0.19966 0.45798 0.02618 0.0
C5653 C 0.21668 0.4666 0.03999 0.0
C5654 C 0.22112 0.45704 0.05429 0.0
C5655 C 0.23728 0.46518 0.06714 0.0
C5656 C 0.24906 0.48294 0.06591 0.0
C5657 C 0.24466 0.49262 0.05185 0.0
C5658 C 0.22852 0.48453 0.03895 0.0
C5659 C 0.12465 0.47326 0.01033 0.0
C5660 C 0.13069 0.49214 0.00771 0.0
C5661 C 0.13729 0.46287 0.01154 0.0
C5662 C 0.15623 0.47101 0.00988 0.0
C5663 C 0.16229 0.48983 0.00727 0.0
C5664 C 0.14971 0.50027 0.00621 0.0
C5665 C 0.16985 0.46011 0.01127 0.0
C5666 C 0.18644 0.46768 0.02385 0.0
C5667 C 0.16651 0.44231 0.00064 0.0
C5668 C 0.15002 0.434 0.9861 0.0
C5669 C 0.14613 0.44411 0.97206 0.0
C5670 C 0.13064 0.43618 0.95837 0.0
C5671 C 0.11905 0.41804 0.95841 0.0
C5672 C 0.12296 0.40778 0.97212 0.0
C5673 C 0.13835 0.4157 0.98594 0.0
H5674 H 0.1071 0.41189 0.94776 0.0
H5675 H 0.26157 0.48922 0.07587 0.0
H5676 H 0.87712 0.98834 0.246 0.0
H5677 H 0.8523 0.95849 0.24319 0.0
H5678 H 0.89396 0.92955 0.24627 0.0
H5679 H 0.91862 0.95902 0.24846 0.0
H5680 H 0.86568 0.90987 0.22199 0.0
H5681 H 0.87318 0.94168 0.28454 0.0
H5682 H 0.87362 0.96763 0.30831 0.0
H5683 H 0.81627 0.96164 0.28836 0.0
H5684 H 0.81558 0.93578 0.26431 0.0
H5685 H 0.83025 0.83091 0.26456 0.0
H5686 H 0.84671 0.86151 0.2572 0.0
H5687 H 0.79411 0.87261 0.24478 0.0
H5688 H 0.77736 0.84173 0.25201 0.0
H5689 H 0.82249 0.90183 0.2691 0.0
H5690 H 0.81479 0.86484 0.21006 0.0
H5691 H 0.81579 0.83775 0.18857 0.0
H5692 H 0.87531 0.8525 0.20412 0.0
H5693 H 0.87465 0.87952 0.22592 0.0
C5694 C 0.88095 0.97558 0.2459 0.0
C5695 C 0.89987 0.9761 0.24758 0.0
C5696 C 0.86676 0.95854 0.24436 0.0
C5697 C 0.87126 0.94177 0.24476 0.0
C5698 C 0.8901 0.94226 0.24588 0.0
C5699 C 0.90422 0.95919 0.24722 0.0
C5700 C 0.85665 0.92371 0.24489 0.0
C5701 C 0.85625 0.90813 0.2323 0.0
C5702 C 0.84401 0.92146 0.25806 0.0
C5703 C 0.8444 0.93698 0.27249 0.0
C5704 C 0.86071 0.946 0.28514 0.0
C5705 C 0.861 0.96067 0.29867 0.0
C5706 C 0.845 0.96632 0.2998 0.0
C5707 C 0.82867 0.95728 0.28743 0.0
C5708 C 0.82832 0.94261 0.27385 0.0
C5709 C 0.82212 0.8398 0.26022 0.0
C5710 C 0.80249 0.83392 0.25891 0.0
C5711 C 0.83156 0.85725 0.25592 0.0
C5712 C 0.8216 0.86923 0.25032 0.0
C5713 C 0.802 0.86349 0.249 0.0
C5714 C 0.79248 0.84586 0.25309 0.0
C5715 C 0.83198 0.88801 0.24659 0.0
C5716 C 0.8316 0.90369 0.2585 0.0
C5717 C 0.84413 0.89028 0.23302 0.0
C5718 C 0.84465 0.87418 0.21971 0.0
C5719 C 0.82808 0.86225 0.20899 0.0
C5720 C 0.82859 0.84691 0.19674 0.0
C5721 C 0.8456 0.8434 0.195 0.0
C5722 C 0.86215 0.85524 0.20548 0.0
C5723 C 0.86172 0.87059 0.21776 0.0
H5724 H 0.84596 0.83151 0.18551 0.0
H5725 H 0.84525 0.97768 0.31029 0.0
H5726 H 0.73477 0.07817 0.77226 0.0
H5727 H 0.76107 0.10516 0.78681 0.0
H5728 H 0.75523 0.13252 0.73914 0.0
H5729 H 0.72875 0.10586 0.72476 0.0
H5730 H 0.79297 0.14543 0.76147 0.0
H5731 H 0.72312 0.13477 0.76778 0.0
H5732 H 0.69448 0.11472 0.77732 0.0
H5733 H 0.72585 0.11302 0.82894 0.0
H5734 H 0.75469 0.13285 0.81953 0.0
H5735 H 0.77403 0.22579 0.7516 0.0
H5736 H 0.77584 0.19461 0.7542 0.0
H5737 H 0.77718 0.20516 0.8133 0.0
H5738 H 0.77536 0.2367 0.81083 0.0
H5739 H 0.75366 0.17222 0.79963 0.0
H5740 H 0.81705 0.1993 0.79687 0.0
H5741 H 0.84506 0.22029 0.78735 0.0
H5742 H 0.82913 0.19084 0.73191 0.0
H5743 H 0.80083 0.16993 0.741 0.0
C5744 C 0.7398 0.08948 0.76443 0.0
C5745 C 0.7295 0.09024 0.7476 0.0
C5746 C 0.75484 0.10489 0.77279 0.0
C5747 C 0.75977 0.12092 0.7642 0.0
C5748 C 0.75158 0.12027 0.74601 0.0
C5749 C 0.73637 0.10506 0.73781 0.0
C5750 C 0.76855 0.13954 0.77525 0.0
C5751 C 0.78478 0.15135 0.77027 0.0
C5752 C 0.75821 0.14707 0.78732 0.0
C5753 C 0.74095 0.13525 0.793 0.0
C5754 C 0.72385 0.1301 0.78116 0.0
C5755 C 0.70761 0.11875 0.78652 0.0
C5756 C 0.70833 0.11261 0.80374 0.0
C5757 C 0.7253 0.11778 0.81561 0.0
C5758 C 0.74159 0.12905 0.81027 0.0
C5759 C 0.77472 0.22156 0.76519 0.0
C5760 C 0.77454 0.23374 0.781 0.0
C5761 C 0.77605 0.2038 0.7667 0.0
C5762 C 0.77731 0.19778 0.78404 0.0
C5763 C 0.7766 0.20967 0.79984 0.0
C5764 C 0.77543 0.22762 0.79837 0.0
C5765 C 0.77754 0.17838 0.78495 0.0
C5766 C 0.76283 0.16645 0.79205 0.0
C5767 C 0.78963 0.17079 0.7753 0.0
C5768 C 0.80677 0.18307 0.76964 0.0
C5769 C 0.81945 0.1974 0.78262 0.0
C5770 C 0.83539 0.20928 0.7773 0.0
C5771 C 0.83887 0.20691 0.75903 0.0
C5772 C 0.82643 0.19264 0.74606 0.0
C5773 C 0.81045 0.18073 0.75131 0.0
H5774 H 0.85121 0.21612 0.75493 0.0
H5775 H 0.69575 0.10387 0.8079 0.0
loop_
_geom_bond_atom_site_label_1
_geom_bond_atom_site_label_2
_geom_bond_distance
_geom_bond_site_symmetry_2
_ccdc_geom_bond_type
Zn0 O3 2.031 . S
Zn0 O5 2.049 . S
Zn0 O10 2.067 1_455 S
Zn1 O2 1.962 . S
Zn1 O4 1.986 . S
Zn1 O6 1.996 . S
Zn1 O9 1.943 . S
O2 Zn1 1.962 . S
O2 C7 1.254 . S
O3 Zn0 2.031 . S
O3 C7 1.269 . S
O4 Zn1 1.986 . S
O4 C11 1.262 . S
O5 Zn0 2.049 . S
O5 C13 1.260 . S
O6 Zn1 1.996 . S
O6 C13 1.257 . S
C7 O2 1.254 . S
C7 O3 1.269 . S
C8 O9 1.287 . S
C8 O10 1.255 1_455 S
O9 Zn1 1.943 . S
O9 C8 1.287 . S
O10 Zn0 2.067 1_655 S
O10 C8 1.255 1_655 S
C11 O4 1.262 . S
C11 O12 1.232 . S
O12 C11 1.232 . S
C13 O5 1.260 . S
C13 O6 1.257 . S
Zn14 O17 2.031 1_455 S
Zn14 O19 2.049 . S
Zn14 O24 2.067 . S
Zn15 O16 1.960 1_455 S
Zn15 O18 1.986 . S
Zn15 O20 1.996 . S
Zn15 O23 1.943 . S
O16 Zn15 1.960 1_655 S
O16 C21 1.255 . S
O17 Zn14 2.031 1_655 S
O17 C21 1.269 . S
O18 Zn15 1.986 . S
O18 C25 1.262 . S
O19 Zn14 2.049 . S
O19 C27 1.260 . S
O20 Zn15 1.996 . S
O20 C27 1.257 . S
C21 O16 1.255 . S
C21 O17 1.269 . S
C22 O23 1.249 . S
C22 O24 1.270 . S
O23 Zn15 1.943 . S
O23 C22 1.249 . S
O24 Zn14 2.067 . S
O24 C22 1.270 . S
C25 O18 1.262 . S
C25 O26 1.232 . S
O26 C25 1.232 . S
C27 O19 1.260 . S
C27 O20 1.257 . S
Zn28 O31 2.031 . S
Zn28 O33 2.049 . S
Zn28 O38 2.067 . S
Zn29 O30 1.962 . S
Zn29 O32 1.986 . S
Zn29 O34 1.996 . S
Zn29 O37 1.943 . S
O30 Zn29 1.962 . S
O30 C35 1.254 . S
O31 Zn28 2.031 . S
O31 C35 1.269 . S
O32 Zn29 1.986 . S
O32 C39 1.262 . S
O33 Zn28 2.049 . S
O33 C41 1.260 . S
O34 Zn29 1.996 . S
O34 C41 1.257 . S
C35 O30 1.254 . S
C35 O31 1.269 . S
C36 O37 1.249 . S
C36 O38 1.270 . S
O37 Zn29 1.943 . S
O37 C36 1.249 . S
O38 Zn28 2.067 . S
O38 C36 1.270 . S
C39 O32 1.262 . S
C39 O40 1.232 . S
O40 C39 1.232 . S
C41 O33 1.260 . S
C41 O34 1.257 . S
Zn42 O45 2.031 . S
Zn42 O47 2.049 . S
Zn42 O52 2.067 . S
Zn43 O44 1.962 . S
Zn43 O46 1.986 . S
Zn43 O48 1.996 . S
Zn43 O51 1.943 . S
O44 Zn43 1.962 . S
O44 C49 1.254 . S
O45 Zn42 2.031 . S
O45 C49 1.269 . S
O46 Zn43 1.986 . S
O46 C53 1.262 . S
O47 Zn42 2.049 . S
O47 C55 1.260 . S
O48 Zn43 1.996 . S
O48 C55 1.257 . S
C49 O44 1.254 . S
C49 O45 1.269 . S
C50 O51 1.249 . S
C50 O52 1.270 . S
O51 Zn43 1.943 . S
O51 C50 1.249 . S
O52 Zn42 2.067 . S
O52 C50 1.270 . S
C53 O46 1.262 . S
C53 O54 1.232 . S
O54 C53 1.232 . S
C55 O47 1.260 . S
C55 O48 1.257 . S
Zn56 O59 2.031 . S
Zn56 O61 2.049 . S
Zn56 O66 2.067 . S
Zn57 O58 1.962 . S
Zn57 O60 1.986 . S
Zn57 O62 1.996 . S
Zn57 O65 1.943 . S
O58 Zn57 1.962 . S
O58 C63 1.254 . S
O59 Zn56 2.031 . S
O59 C63 1.269 . S
O60 Zn57 1.986 . S
O60 C67 1.262 . S
O61 Zn56 2.049 . S
O61 C69 1.260 . S
O62 Zn57 1.996 . S
O62 C69 1.257 . S
C63 O58 1.254 . S
C63 O59 1.269 . S
C64 O65 1.249 . S
C64 O66 1.270 . S
O65 Zn57 1.943 . S
O65 C64 1.249 . S
O66 Zn56 2.067 . S
O66 C64 1.270 . S
C67 O60 1.262 . S
C67 O68 1.232 . S
O68 C67 1.232 . S
C69 O61 1.260 . S
C69 O62 1.257 . S
Zn70 O73 2.031 . S
Zn70 O75 2.049 . S
Zn70 O80 2.067 . S
Zn71 O72 1.962 . S
Zn71 O74 1.986 . S
Zn71 O76 1.996 . S
Zn71 O79 1.943 . S
O72 Zn71 1.962 . S
O72 C77 1.254 . S
O73 Zn70 2.031 . S
O73 C77 1.269 . S
O74 Zn71 1.986 . S
O74 C81 1.262 . S
O75 Zn70 2.049 . S
O75 C83 1.260 . S
O76 Zn71 1.996 . S
O76 C83 1.257 . S
C77 O72 1.254 . S
C77 O73 1.269 . S
C78 O79 1.249 . S
C78 O80 1.270 . S
O79 Zn71 1.943 . S
O79 C78 1.249 . S
O80 Zn70 2.067 . S
O80 C78 1.270 . S
C81 O74 1.262 . S
C81 O82 1.232 . S
O82 C81 1.232 . S
C83 O75 1.260 . S
C83 O76 1.257 . S
Zn84 O87 2.031 . S
Zn84 O89 2.049 . S
Zn84 O94 2.067 . S
Zn85 O86 1.962 . S
Zn85 O88 1.986 . S
Zn85 O90 1.996 . S
Zn85 O93 1.943 . S
O86 Zn85 1.962 . S
O86 C91 1.254 . S
O87 Zn84 2.031 . S
O87 C91 1.269 . S
O88 Zn85 1.986 . S
O88 C95 1.262 . S
O89 Zn84 2.049 . S
O89 C97 1.260 . S
O90 Zn85 1.996 . S
O90 C97 1.257 . S
C91 O86 1.254 . S
C91 O87 1.269 . S
C92 O93 1.249 . S
C92 O94 1.270 . S
O93 Zn85 1.943 . S
O93 C92 1.249 . S
O94 Zn84 2.067 . S
O94 C92 1.270 . S
C95 O88 1.262 . S
C95 O96 1.232 . S
O96 C95 1.232 . S
C97 O89 1.260 . S
C97 O90 1.257 . S
Zn98 O101 2.031 . S
Zn98 O103 2.049 . S
Zn98 O108 2.067 . S
Zn99 O100 1.962 . S
Zn99 O102 1.986 . S
Zn99 O104 2.005 . S
Zn99 O107 1.943 1_455 S
O100 Zn99 1.962 . S
O100 C105 1.254 . S
O101 Zn98 2.031 . S
O101 C105 1.269 1_655 S
O102 Zn99 1.986 . S
O102 C109 1.262 . S
O103 Zn98 2.049 . S
O103 C111 1.260 . S
O104 Zn99 2.005 . S
O104 C111 1.239 1_455 S
C105 O100 1.254 . S
C105 O101 1.269 1_455 S
C106 O107 1.249 . S
C106 O108 1.270 . S
O107 Zn99 1.943 1_655 S
O107 C106 1.249 . S
O108 Zn98 2.067 . S
O108 C106 1.270 . S
C109 O102 1.262 . S
C109 O110 1.232 . S
O110 C109 1.232 . S
C111 O103 1.260 . S
C111 O104 1.239 1_655 S
Zn112 O115 2.031 . S
Zn112 O117 2.049 . S
Zn112 O122 2.067 . S
Zn113 O114 1.962 . S
Zn113 O116 1.986 . S
Zn113 O118 1.996 . S
Zn113 O121 1.943 1_545 S
O114 Zn113 1.962 . S
O114 C119 1.254 . S
O115 Zn112 2.031 . S
O115 C119 1.269 1_565 S
O116 Zn113 1.986 . S
O116 C123 1.262 . S
O117 Zn112 2.049 . S
O117 C125 1.260 . S
O118 Zn113 1.996 . S
O118 C125 1.257 1_545 S
C119 O114 1.254 . S
C119 O115 1.269 1_545 S
C120 O121 1.249 . S
C120 O122 1.270 . S
O121 Zn113 1.943 1_565 S
O121 C120 1.249 . S
O122 Zn112 2.067 . S
O122 C120 1.270 . S
C123 O116 1.262 . S
C123 O124 1.232 . S
O124 C123 1.232 . S
C125 O117 1.260 . S
C125 O118 1.257 1_565 S
Zn126 O129 2.031 . S
Zn126 O131 2.049 . S
Zn126 O136 2.067 . S
Zn127 O128 1.962 . S
Zn127 O130 1.986 . S
Zn127 O132 1.996 . S
Zn127 O135 1.943 . S
O128 Zn127 1.962 . S
O128 C133 1.254 . S
O129 Zn126 2.031 . S
O129 C133 1.269 . S
O130 Zn127 1.986 . S
O130 C137 1.262 . S
O131 Zn126 2.049 . S
O131 C139 1.260 . S
O132 Zn127 1.996 . S
O132 C139 1.257 . S
C133 O128 1.254 . S
C133 O129 1.269 . S
C134 O135 1.249 . S
C134 O136 1.270 . S
O135 Zn127 1.943 . S
O135 C134 1.249 . S
O136 Zn126 2.067 . S
O136 C134 1.270 . S
C137 O130 1.262 . S
C137 O138 1.232 . S
O138 C137 1.232 . S
C139 O131 1.260 . S
C139 O132 1.257 . S
Zn140 O143 2.031 . S
Zn140 O145 2.049 . S
Zn140 O150 2.067 . S
Zn141 O142 1.962 . S
Zn141 O144 1.986 . S
Zn141 O146 1.996 . S
Zn141 O149 1.943 . S
O142 Zn141 1.962 . S
O142 C147 1.254 . S
O143 Zn140 2.031 . S
O143 C147 1.269 . S
O144 Zn141 1.986 . S
O144 C151 1.262 1_545 S
O145 Zn140 2.049 . S
O145 C153 1.260 . S
O146 Zn141 1.996 . S
O146 C153 1.257 . S
C147 O142 1.254 . S
C147 O143 1.269 . S
C148 O149 1.249 . S
C148 O150 1.270 . S
O149 Zn141 1.943 . S
O149 C148 1.249 . S
O150 Zn140 2.067 . S
O150 C148 1.270 . S
C151 O144 1.262 1_565 S
C151 O152 1.232 1_565 S
O152 C151 1.232 1_545 S
C153 O145 1.260 . S
C153 O146 1.257 . S
Zn154 O157 2.031 1_554 S
Zn154 O159 2.049 . S
Zn154 O164 2.067 . S
Zn155 O156 1.962 . S
Zn155 O158 1.986 1_556 S
Zn155 O160 1.996 1_556 S
Zn155 O163 1.943 1_556 S
O156 Zn155 1.962 . S
O156 C161 1.254 . S
O157 Zn154 2.031 1_556 S
O157 C161 1.269 . S
O158 Zn155 1.986 1_554 S
O158 C165 1.262 1_554 S
O159 Zn154 2.049 . S
O159 C167 1.260 . S
O160 Zn155 1.996 1_554 S
O160 C167 1.257 . S
C161 O156 1.254 . S
C161 O157 1.269 . S
C162 O163 1.249 . S
C162 O164 1.270 . S
O163 Zn155 1.943 1_554 S
O163 C162 1.249 . S
O164 Zn154 2.067 . S
O164 C162 1.270 . S
C165 O158 1.262 1_556 S
C165 O166 1.232 . S
O166 C165 1.232 . S
C167 O159 1.260 . S
C167 O160 1.257 . S
Zn168 O171 2.031 . S
Zn168 O173 2.049 . S
Zn168 O178 2.067 . S
Zn169 O170 1.960 1_554 S
Zn169 O172 1.986 . S
Zn169 O174 1.996 . S
Zn169 O177 1.943 . S
O170 Zn169 1.960 1_556 S
O170 C175 1.255 . S
O171 Zn168 2.031 . S
O171 C175 1.269 1_554 S
O172 Zn169 1.986 . S
O172 C179 1.262 . S
O173 Zn168 2.049 . S
O173 C181 1.260 . S
O174 Zn169 1.996 . S
O174 C181 1.257 . S
C175 O170 1.255 . S
C175 O171 1.269 1_556 S
C176 O177 1.249 . S
C176 O178 1.270 . S
O177 Zn169 1.943 . S
O177 C176 1.249 . S
O178 Zn168 2.067 . S
O178 C176 1.270 . S
C179 O172 1.262 . S
C179 O180 1.232 . S
O180 C179 1.232 . S
C181 O173 1.260 . S
C181 O174 1.257 . S
Zn182 O185 2.031 . S
Zn182 O187 2.049 . S
Zn182 O192 2.067 . S
Zn183 O184 1.962 . S
Zn183 O186 1.986 . S
Zn183 O188 1.996 . S
Zn183 O191 1.943 . S
O184 Zn183 1.962 . S
O184 C189 1.254 . S
O185 Zn182 2.031 . S
O185 C189 1.269 . S
O186 Zn183 1.986 . S
O186 C193 1.262 . S
O187 Zn182 2.049 . S
O187 C195 1.260 . S
O188 Zn183 1.996 . S
O188 C195 1.257 . S
C189 O184 1.254 . S
C189 O185 1.269 . S
C190 O191 1.249 . S
C190 O192 1.270 . S
O191 Zn183 1.943 . S
O191 C190 1.249 . S
O192 Zn182 2.067 . S
O192 C190 1.270 . S
C193 O186 1.262 . S
C193 O194 1.232 . S
O194 C193 1.232 . S
C195 O187 1.260 . S
C195 O188 1.257 . S
Zn196 O199 2.031 . S
Zn196 O201 2.049 . S
Zn196 O206 2.067 . S
Zn197 O198 1.962 . S
Zn197 O200 1.986 . S
Zn197 O202 1.996 . S
Zn197 O205 1.943 . S
O198 Zn197 1.962 . S
O198 C203 1.254 . S
O199 Zn196 2.031 . S
O199 C203 1.269 . S
O200 Zn197 1.986 . S
O200 C207 1.262 . S
O201 Zn196 2.049 . S
O201 C209 1.260 . S
O202 Zn197 1.996 . S
O202 C209 1.257 . S
C203 O198 1.254 . S
C203 O199 1.269 . S
C204 O205 1.249 . S
C204 O206 1.270 . S
O205 Zn197 1.943 . S
O205 C204 1.249 . S
O206 Zn196 2.067 . S
O206 C204 1.270 . S
C207 O200 1.262 . S
C207 O208 1.232 . S
O208 C207 1.232 . S
C209 O201 1.260 . S
C209 O202 1.257 . S
Zn210 O213 2.031 . S
Zn210 O215 2.049 . S
Zn210 O220 2.067 . S
Zn211 O212 1.962 . S
Zn211 O214 1.986 . S
Zn211 O216 1.996 . S
Zn211 O219 1.943 . S
O212 Zn211 1.962 . S
O212 C217 1.254 . S
O213 Zn210 2.031 . S
O213 C217 1.269 . S
O214 Zn211 1.986 . S
O214 C221 1.262 . S
O215 Zn210 2.049 . S
O215 C223 1.260 . S
O216 Zn211 1.996 . S
O216 C223 1.257 . S
C217 O212 1.254 . S
C217 O213 1.269 . S
C218 O219 1.249 . S
C218 O220 1.270 . S
O219 Zn211 1.943 . S
O219 C218 1.249 . S
O220 Zn210 2.067 . S
O220 C218 1.270 . S
C221 O214 1.262 . S
C221 O222 1.232 . S
O222 C221 1.232 . S
C223 O215 1.260 . S
C223 O216 1.257 . S
Zn224 O227 2.031 . S
Zn224 O229 2.049 . S
Zn224 O234 2.067 1_545 S
Zn225 O226 1.962 . S
Zn225 O228 1.986 . S
Zn225 O230 1.996 . S
Zn225 O233 1.943 . S
O226 Zn225 1.962 . S
O226 C231 1.254 . S
O227 Zn224 2.031 . S
O227 C231 1.269 . S
O228 Zn225 1.986 . S
O228 C235 1.262 . S
O229 Zn224 2.049 . S
O229 C237 1.260 . S
O230 Zn225 1.996 . S
O230 C237 1.257 . S
C231 O226 1.254 . S
C231 O227 1.269 . S
C232 O233 1.249 1_565 S
C232 O234 1.270 . S
O233 Zn225 1.943 . S
O233 C232 1.249 1_545 S
O234 Zn224 2.067 1_565 S
O234 C232 1.270 . S
C235 O228 1.262 . S
C235 O236 1.232 . S
O236 C235 1.232 . S
C237 O229 1.260 . S
C237 O230 1.257 . S
Zn238 O241 2.031 . S
Zn238 O243 2.049 . S
Zn238 O248 2.067 . S
Zn239 O240 1.962 . S
Zn239 O242 1.986 . S
Zn239 O244 1.996 . S
Zn239 O247 1.943 . S
O240 Zn239 1.962 . S
O240 C245 1.254 . S
O241 Zn238 2.031 . S
O241 C245 1.269 . S
O242 Zn239 1.986 . S
O242 C249 1.262 . S
O243 Zn238 2.049 . S
O243 C251 1.260 . S
O244 Zn239 1.996 . S
O244 C251 1.257 . S
C245 O240 1.254 . S
C245 O241 1.269 . S
C246 O247 1.249 . S
C246 O248 1.270 . S
O247 Zn239 1.943 . S
O247 C246 1.249 . S
O248 Zn238 2.067 . S
O248 C246 1.270 . S
C249 O242 1.262 . S
C249 O250 1.232 . S
O250 C249 1.232 . S
C251 O243 1.260 . S
C251 O244 1.257 . S
Zn252 O255 2.031 . S
Zn252 O257 2.049 . S
Zn252 O262 2.067 . S
Zn253 O254 1.962 . S
Zn253 O256 1.986 . S
Zn253 O258 1.996 . S
Zn253 O261 1.943 . S
O254 Zn253 1.962 . S
O254 C259 1.254 . S
O255 Zn252 2.031 . S
O255 C259 1.269 . S
O256 Zn253 1.986 . S
O256 C263 1.262 . S
O257 Zn252 2.049 . S
O257 C265 1.260 . S
O258 Zn253 1.996 . S
O258 C265 1.257 . S
C259 O254 1.254 . S
C259 O255 1.269 . S
C260 O261 1.249 . S
C260 O262 1.270 . S
O261 Zn253 1.943 . S
O261 C260 1.249 . S
O262 Zn252 2.067 . S
O262 C260 1.270 . S
C263 O256 1.262 . S
C263 O264 1.232 . S
O264 C263 1.232 . S
C265 O257 1.260 . S
C265 O258 1.257 . S
Zn266 O269 2.031 . S
Zn266 O271 2.049 . S
Zn266 O276 2.067 . S
Zn267 O268 1.962 . S
Zn267 O270 1.986 . S
Zn267 O272 1.996 . S
Zn267 O275 1.943 . S
O268 Zn267 1.962 . S
O268 C273 1.254 . S
O269 Zn266 2.031 . S
O269 C273 1.269 . S
O270 Zn267 1.986 . S
O270 C277 1.262 . S
O271 Zn266 2.049 . S
O271 C279 1.260 . S
O272 Zn267 1.996 . S
O272 C279 1.257 . S
C273 O268 1.254 . S
C273 O269 1.269 . S
C274 O275 1.249 . S
C274 O276 1.270 . S
O275 Zn267 1.943 . S
O275 C274 1.249 . S
O276 Zn266 2.067 . S
O276 C274 1.270 . S
C277 O270 1.262 . S
C277 O278 1.232 . S
O278 C277 1.232 . S
C279 O271 1.260 . S
C279 O272 1.257 . S
Zn280 O283 2.031 1_554 S
Zn280 O285 2.049 . S
Zn280 O290 2.067 . S
Zn281 O282 1.962 1_554 S
Zn281 O284 1.986 . S
Zn281 O286 1.996 . S
Zn281 O289 1.943 . S
O282 Zn281 1.962 1_556 S
O282 C287 1.254 . S
O283 Zn280 2.031 1_556 S
O283 C287 1.269 . S
O284 Zn281 1.986 . S
O284 C291 1.262 . S
O285 Zn280 2.049 . S
O285 C293 1.260 . S
O286 Zn281 1.996 . S
O286 C293 1.257 . S
C287 O282 1.254 . S
C287 O283 1.269 . S
C288 O289 1.249 . S
C288 O290 1.270 . S
O289 Zn281 1.943 . S
O289 C288 1.249 . S
O290 Zn280 2.067 . S
O290 C288 1.270 . S
C291 O284 1.262 . S
C291 O292 1.232 . S
O292 C291 1.232 . S
C293 O285 1.260 . S
C293 O286 1.257 . S
Zn294 O297 2.031 . S
Zn294 O299 2.049 . S
Zn294 O304 2.067 . S
Zn295 O296 1.962 . S
Zn295 O298 1.986 . S
Zn295 O300 1.996 . S
Zn295 O303 1.943 . S
O296 Zn295 1.962 . S
O296 C301 1.254 . S
O297 Zn294 2.031 . S
O297 C301 1.269 . S
O298 Zn295 1.986 . S
O298 C305 1.262 . S
O299 Zn294 2.049 . S
O299 C307 1.260 . S
O300 Zn295 1.996 . S
O300 C307 1.257 . S
C301 O296 1.254 . S
C301 O297 1.269 . S
C302 O303 1.249 . S
C302 O304 1.270 . S
O303 Zn295 1.943 . S
O303 C302 1.249 . S
O304 Zn294 2.067 . S
O304 C302 1.270 . S
C305 O298 1.262 . S
C305 O306 1.232 . S
O306 C305 1.232 . S
C307 O299 1.260 . S
C307 O300 1.257 . S
Zn308 O311 2.031 . S
Zn308 O313 2.049 . S
Zn308 O318 2.067 . S
Zn309 O310 1.962 . S
Zn309 O312 1.986 . S
Zn309 O314 1.996 . S
Zn309 O317 1.943 . S
O310 Zn309 1.962 . S
O310 C315 1.254 . S
O311 Zn308 2.031 . S
O311 C315 1.269 . S
O312 Zn309 1.986 . S
O312 C319 1.262 . S
O313 Zn308 2.049 . S
O313 C321 1.260 . S
O314 Zn309 1.996 . S
O314 C321 1.257 . S
C315 O310 1.254 . S
C315 O311 1.269 . S
C316 O317 1.249 . S
C316 O318 1.270 . S
O317 Zn309 1.943 . S
O317 C316 1.249 . S
O318 Zn308 2.067 . S
O318 C316 1.270 . S
C319 O312 1.262 . S
C319 O320 1.232 . S
O320 C319 1.232 . S
C321 O313 1.260 . S
C321 O314 1.257 . S
Zn322 O325 2.031 . S
Zn322 O327 2.049 . S
Zn322 O332 2.067 . S
Zn323 O324 1.962 . S
Zn323 O326 1.986 . S
Zn323 O328 1.996 . S
Zn323 O331 1.943 . S
O324 Zn323 1.962 . S
O324 C329 1.254 . S
O325 Zn322 2.031 . S
O325 C329 1.269 . S
O326 Zn323 1.986 . S
O326 C333 1.262 . S
O327 Zn322 2.049 . S
O327 C335 1.260 . S
O328 Zn323 1.996 . S
O328 C335 1.257 . S
C329 O324 1.254 . S
C329 O325 1.269 . S
C330 O331 1.249 . S
C330 O332 1.270 . S
O331 Zn323 1.943 . S
O331 C330 1.249 . S
O332 Zn322 2.067 . S
O332 C330 1.270 . S
C333 O326 1.262 . S
C333 O334 1.232 . S
O334 C333 1.232 . S
C335 O327 1.260 . S
C335 O328 1.257 . S
Dy336 O339 2.307 . S
Dy336 O341 2.395 . S
Dy336 O342 2.379 . S
Dy336 O344 2.339 . S
Dy336 O346 2.298 . S
Dy336 O350 2.275 . S
Dy336 C358 2.738 . S
Dy337 O340 2.299 . S
Dy337 O343 2.278 . S
Dy337 O345 2.315 1_545 S
Dy337 O347 2.389 1_455 S
Dy337 O348 2.374 1_454 S
Dy337 O351 2.342 1_554 S
Dy337 C367 2.732 1_455 S
C338 O350 1.254 1_556 S
C338 O351 1.257 . S
O339 Dy336 2.307 . S
O339 C349 1.266 . S
O340 Dy337 2.299 . S
O340 C349 1.236 . S
O341 Dy336 2.395 . S
O341 C358 1.255 . S
O342 Dy336 2.379 . S
O342 C358 1.249 . S
O343 Dy337 2.278 . S
O343 C359 1.254 . S
O344 Dy336 2.339 . S
O344 C359 1.257 . S
O345 Dy337 2.315 1_565 S
O345 C360 1.264 . S
O346 Dy336 2.298 . S
O346 C360 1.236 1_545 S
O347 Dy337 2.389 1_655 S
O347 C367 1.255 . S
O348 Dy337 2.374 1_656 S
O348 C367 1.249 1_556 S
C349 O339 1.266 . S
C349 O340 1.236 . S
O350 Dy336 2.275 . S
O350 C338 1.254 1_554 S
O351 Dy337 2.342 1_556 S
O351 C338 1.257 . S
C352 C355 1.344 . S
C352 C356 1.328 . S
C352 C358 1.516 . S
C353 C354 1.304 . S
C353 C357 1.323 . S
C354 C353 1.304 . S
C354 C355 1.371 . S
C354 H368 0.930 1_545 S
C355 C352 1.344 . S
C355 C354 1.371 . S
C355 H369 0.931 . S
C356 C352 1.328 . S
C356 C357 1.433 . S
C356 H370 0.931 . S
C357 C353 1.323 . S
C357 C356 1.433 . S
C357 H371 0.933 . S
C358 Dy336 2.738 . S
C358 O341 1.255 . S
C358 O342 1.249 . S
C358 C352 1.516 . S
C359 O343 1.254 . S
C359 O344 1.257 . S
C360 O345 1.264 . S
C360 O346 1.236 1_565 S
C361 C364 1.344 . S
C361 C365 1.328 1_554 S
C361 C367 1.516 . S
C362 C363 1.304 . S
C362 C366 1.323 1_554 S
C363 C362 1.304 . S
C363 C364 1.371 . S
C363 H372 0.930 . S
C364 C361 1.344 . S
C364 C363 1.371 . S
C364 H373 0.931 . S
C365 C361 1.328 1_556 S
C365 C366 1.433 . S
C365 H374 0.931 . S
C366 C362 1.323 1_556 S
C366 C365 1.433 . S
C366 H375 0.933 . S
C367 Dy337 2.732 1_655 S
C367 O347 1.255 . S
C367 O348 1.249 1_554 S
C367 C361 1.516 . S
H368 C354 0.930 1_565 S
H369 C355 0.931 . S
H370 C356 0.931 . S
H371 C357 0.933 . S
H372 C363 0.930 . S
H373 C364 0.931 . S
H374 C365 0.931 . S
H375 C366 0.933 . S
Dy376 O379 2.307 . S
Dy376 O381 2.395 . S
Dy376 O382 2.379 . S
Dy376 O384 2.339 . S
Dy376 O386 2.298 . S
Dy376 O390 2.275 . S
Dy376 C398 2.738 . S
Dy377 O380 2.298 . S
Dy377 O383 2.275 . S
Dy377 O385 2.307 . S
Dy377 O387 2.395 . S
Dy377 O388 2.379 . S
Dy377 O391 2.339 . S
Dy377 C407 2.738 . S
C378 O390 1.254 . S
C378 O391 1.257 . S
O379 Dy376 2.307 . S
O379 C389 1.266 . S
O380 Dy377 2.298 . S
O380 C389 1.236 . S
O381 Dy376 2.395 . S
O381 C398 1.255 . S
O382 Dy376 2.379 . S
O382 C398 1.249 . S
O383 Dy377 2.275 . S
O383 C399 1.254 . S
O384 Dy376 2.339 . S
O384 C399 1.257 . S
O385 Dy377 2.307 . S
O385 C400 1.266 . S
O386 Dy376 2.298 . S
O386 C400 1.236 . S
O387 Dy377 2.395 . S
O387 C407 1.255 . S
O388 Dy377 2.379 . S
O388 C407 1.249 . S
C389 O379 1.266 . S
C389 O380 1.236 . S
O390 Dy376 2.275 . S
O390 C378 1.254 . S
O391 Dy377 2.339 . S
O391 C378 1.257 . S
C392 C395 1.344 . S
C392 C396 1.328 . S
C392 C398 1.516 . S
C393 C394 1.304 . S
C393 C397 1.323 . S
C394 C393 1.304 . S
C394 C395 1.371 . S
C394 H408 0.930 . S
C395 C392 1.344 . S
C395 C394 1.371 . S
C395 H409 0.931 . S
C396 C392 1.328 . S
C396 C397 1.433 . S
C396 H410 0.931 . S
C397 C393 1.323 . S
C397 C396 1.433 . S
C397 H411 0.933 . S
C398 Dy376 2.738 . S
C398 O381 1.255 . S
C398 O382 1.249 . S
C398 C392 1.516 . S
C399 O383 1.254 . S
C399 O384 1.257 . S
C400 O385 1.266 . S
C400 O386 1.236 . S
C401 C404 1.344 . S
C401 C405 1.328 . S
C401 C407 1.516 . S
C402 C403 1.304 . S
C402 C406 1.323 . S
C403 C402 1.304 . S
C403 C404 1.371 . S
C403 H412 0.930 . S
C404 C401 1.344 . S
C404 C403 1.371 . S
C404 H413 0.931 . S
C405 C401 1.328 . S
C405 C406 1.433 . S
C405 H414 0.931 . S
C406 C402 1.323 . S
C406 C405 1.433 . S
C406 H415 0.933 . S
C407 Dy377 2.738 . S
C407 O387 1.255 . S
C407 O388 1.249 . S
C407 C401 1.516 . S
H408 C394 0.930 . S
H409 C395 0.931 . S
H410 C396 0.931 . S
H411 C397 0.933 . S
H412 C403 0.930 . S
H413 C404 0.931 . S
H414 C405 0.931 . S
H415 C406 0.933 . S
Dy416 O419 2.307 1_545 S
Dy416 O421 2.395 . S
Dy416 O422 2.379 . S
Dy416 O424 2.339 . S
Dy416 O426 2.298 . S
Dy416 O430 2.275 . S
Dy416 C438 2.738 . S
Dy417 O420 2.298 1_545 S
Dy417 O423 2.275 . S
Dy417 O425 2.307 . S
Dy417 O427 2.395 . S
Dy417 O428 2.379 . S
Dy417 O431 2.339 . S
Dy417 C447 2.738 . S
C418 O430 1.254 . S
C418 O431 1.257 . S
O419 Dy416 2.307 1_565 S
O419 C429 1.266 . S
O420 Dy417 2.298 1_565 S
O420 C429 1.236 . S
O421 Dy416 2.395 . S
O421 C438 1.255 . S
O422 Dy416 2.379 . S
O422 C438 1.249 . S
O423 Dy417 2.275 . S
O423 C439 1.254 . S
O424 Dy416 2.339 . S
O424 C439 1.257 . S
O425 Dy417 2.307 . S
O425 C440 1.266 . S
O426 Dy416 2.298 . S
O426 C440 1.236 . S
O427 Dy417 2.395 . S
O427 C447 1.255 . S
O428 Dy417 2.379 . S
O428 C447 1.249 . S
C429 O419 1.266 . S
C429 O420 1.236 . S
O430 Dy416 2.275 . S
O430 C418 1.254 . S
O431 Dy417 2.339 . S
O431 C418 1.257 . S
C432 C435 1.344 . S
C432 C436 1.328 . S
C432 C438 1.516 . S
C433 C434 1.304 . S
C433 C437 1.323 . S
C434 C433 1.304 . S
C434 C435 1.371 . S
C434 H448 0.930 . S
C435 C432 1.344 . S
C435 C434 1.371 . S
C435 H449 0.931 . S
C436 C432 1.328 . S
C436 C437 1.433 . S
C436 H450 0.931 . S
C437 C433 1.323 . S
C437 C436 1.433 . S
C437 H451 0.933 . S
C438 Dy416 2.738 . S
C438 O421 1.255 . S
C438 O422 1.249 . S
C438 C432 1.516 . S
C439 O423 1.254 . S
C439 O424 1.257 . S
C440 O425 1.266 . S
C440 O426 1.236 . S
C441 C444 1.333 1_545 S
C441 C445 1.325 1_545 S
C441 C447 1.527 . S
C442 C443 1.304 . S
C442 C446 1.323 . S
C443 C442 1.304 . S
C443 C444 1.371 . S
C443 H452 0.930 . S
C444 C441 1.333 1_565 S
C444 C443 1.371 . S
C444 H453 0.931 . S
C445 C441 1.325 1_565 S
C445 C446 1.465 . S
C445 H454 0.904 1_565 S
C446 C442 1.323 . S
C446 C445 1.465 . S
C446 H455 0.933 . S
C447 Dy417 2.738 . S
C447 O427 1.255 . S
C447 O428 1.249 . S
C447 C441 1.527 . S
H448 C434 0.930 . S
H449 C435 0.931 . S
H450 C436 0.931 . S
H451 C437 0.933 . S
H452 C443 0.930 . S
H453 C444 0.931 . S
H454 C445 0.904 1_545 S
H455 C446 0.933 . S
Dy456 O459 2.307 . S
Dy456 O461 2.395 . S
Dy456 O462 2.379 . S
Dy456 O464 2.339 . S
Dy456 O466 2.298 . S
Dy456 O470 2.275 . S
Dy456 C478 2.738 . S
Dy457 O460 2.298 . S
Dy457 O463 2.275 . S
Dy457 O465 2.307 . S
Dy457 O467 2.395 . S
Dy457 O468 2.379 . S
Dy457 O471 2.339 . S
Dy457 C487 2.738 . S
C458 O470 1.254 . S
C458 O471 1.257 . S
O459 Dy456 2.307 . S
O459 C469 1.266 . S
O460 Dy457 2.298 . S
O460 C469 1.236 . S
O461 Dy456 2.395 . S
O461 C478 1.255 . S
O462 Dy456 2.379 . S
O462 C478 1.249 . S
O463 Dy457 2.275 . S
O463 C479 1.254 . S
O464 Dy456 2.339 . S
O464 C479 1.257 . S
O465 Dy457 2.307 . S
O465 C480 1.266 . S
O466 Dy456 2.298 . S
O466 C480 1.236 . S
O467 Dy457 2.395 . S
O467 C487 1.255 . S
O468 Dy457 2.379 . S
O468 C487 1.249 . S
C469 O459 1.266 . S
C469 O460 1.236 . S
O470 Dy456 2.275 . S
O470 C458 1.254 . S
O471 Dy457 2.339 . S
O471 C458 1.257 . S
C472 C475 1.344 . S
C472 C476 1.328 . S
C472 C478 1.516 . S
C473 C474 1.304 . S
C473 C477 1.323 . S
C474 C473 1.304 . S
C474 C475 1.371 . S
C474 H488 0.930 . S
C475 C472 1.344 . S
C475 C474 1.371 . S
C475 H489 0.931 . S
C476 C472 1.328 . S
C476 C477 1.433 . S
C476 H490 0.931 . S
C477 C473 1.323 . S
C477 C476 1.433 . S
C477 H491 0.933 . S
C478 Dy456 2.738 . S
C478 O461 1.255 . S
C478 O462 1.249 . S
C478 C472 1.516 . S
C479 O463 1.254 . S
C479 O464 1.257 . S
C480 O465 1.266 . S
C480 O466 1.236 . S
C481 C484 1.344 . S
C481 C485 1.328 . S
C481 C487 1.516 . S
C482 C483 1.304 . S
C482 C486 1.323 . S
C483 C482 1.304 . S
C483 C484 1.371 . S
C483 H492 0.930 . S
C484 C481 1.344 . S
C484 C483 1.371 . S
C484 H493 0.931 . S
C485 C481 1.328 . S
C485 C486 1.433 . S
C485 H494 0.931 . S
C486 C482 1.323 . S
C486 C485 1.433 . S
C486 H495 0.933 . S
C487 Dy457 2.738 . S
C487 O467 1.255 . S
C487 O468 1.249 . S
C487 C481 1.516 . S
H488 C474 0.930 . S
H489 C475 0.931 . S
H490 C476 0.931 . S
H491 C477 0.933 . S
H492 C483 0.930 . S
H493 C484 0.931 . S
H494 C485 0.931 . S
H495 C486 0.933 . S
Dy496 O499 2.307 . S
Dy496 O501 2.395 1_545 S
Dy496 O502 2.379 1_545 S
Dy496 O504 2.339 . S
Dy496 O506 2.298 . S
Dy496 O510 2.275 . S
Dy496 C518 2.738 1_545 S
Dy497 O500 2.298 . S
Dy497 O503 2.275 . S
Dy497 O505 2.307 . S
Dy497 O507 2.395 . S
Dy497 O508 2.388 . S
Dy497 O511 2.339 1_455 S
Dy497 C527 2.738 . S
C498 O510 1.254 1_655 S
C498 O511 1.257 . S
O499 Dy496 2.307 . S
O499 C509 1.266 . S
O500 Dy497 2.298 . S
O500 C509 1.236 . S
O501 Dy496 2.395 1_565 S
O501 C518 1.255 . S
O502 Dy496 2.379 1_565 S
O502 C518 1.249 . S
O503 Dy497 2.275 . S
O503 C519 1.254 . S
O504 Dy496 2.339 . S
O504 C519 1.257 . S
O505 Dy497 2.307 . S
O505 C520 1.266 . S
O506 Dy496 2.298 . S
O506 C520 1.236 . S
O507 Dy497 2.395 . S
O507 C527 1.255 . S
O508 Dy497 2.388 . S
O508 C527 1.259 . S
C509 O499 1.266 . S
C509 O500 1.236 . S
O510 Dy496 2.275 . S
O510 C498 1.254 1_455 S
O511 Dy497 2.339 1_655 S
O511 C498 1.257 . S
C512 C515 1.344 . S
C512 C516 1.328 . S
C512 C518 1.516 . S
C513 C514 1.304 . S
C513 C517 1.323 . S
C514 C513 1.304 . S
C514 C515 1.371 . S
C514 H528 0.930 . S
C515 C512 1.344 . S
C515 C514 1.371 . S
C515 H529 0.931 . S
C516 C512 1.328 . S
C516 C517 1.433 . S
C516 H530 0.931 . S
C517 C513 1.323 . S
C517 C516 1.433 . S
C517 H531 0.933 . S
C518 Dy496 2.738 1_565 S
C518 O501 1.255 . S
C518 O502 1.249 . S
C518 C512 1.516 . S
C519 O503 1.254 . S
C519 O504 1.257 . S
C520 O505 1.266 . S
C520 O506 1.236 . S
C521 C524 1.344 . S
C521 C525 1.328 1_455 S
C521 C527 1.516 . S
C522 C523 1.304 . S
C522 C526 1.323 1_455 S
C523 C522 1.304 . S
C523 C524 1.371 . S
C523 H532 0.930 . S
C524 C521 1.344 . S
C524 C523 1.371 . S
C524 H533 0.931 . S
C525 C521 1.328 1_655 S
C525 C526 1.433 . S
C525 H534 0.931 . S
C526 C522 1.323 1_655 S
C526 C525 1.433 . S
C526 H535 0.933 . S
C527 Dy497 2.738 . S
C527 O507 1.255 . S
C527 O508 1.259 . S
C527 C521 1.516 . S
H528 C514 0.930 . S
H529 C515 0.931 . S
H530 C516 0.931 . S
H531 C517 0.933 . S
H532 C523 0.930 . S
H533 C524 0.931 . S
H534 C525 0.931 . S
H535 C526 0.933 . S
Dy536 O539 2.307 . S
Dy536 O541 2.395 . S
Dy536 O542 2.379 . S
Dy536 O544 2.339 . S
Dy536 O546 2.298 . S
Dy536 O550 2.275 . S
Dy536 C558 2.738 . S
Dy537 O540 2.298 . S
Dy537 O543 2.275 . S
Dy537 O545 2.307 . S
Dy537 O547 2.395 . S
Dy537 O548 2.379 . S
Dy537 O551 2.339 . S
Dy537 C567 2.738 . S
C538 O550 1.254 . S
C538 O551 1.257 . S
O539 Dy536 2.307 . S
O539 C549 1.266 . S
O540 Dy537 2.298 . S
O540 C549 1.236 . S
O541 Dy536 2.395 . S
O541 C558 1.255 . S
O542 Dy536 2.379 . S
O542 C558 1.249 . S
O543 Dy537 2.275 . S
O543 C559 1.254 . S
O544 Dy536 2.339 . S
O544 C559 1.257 . S
O545 Dy537 2.307 . S
O545 C560 1.266 . S
O546 Dy536 2.298 . S
O546 C560 1.236 . S
O547 Dy537 2.395 . S
O547 C567 1.255 . S
O548 Dy537 2.379 . S
O548 C567 1.249 . S
C549 O539 1.266 . S
C549 O540 1.236 . S
O550 Dy536 2.275 . S
O550 C538 1.254 . S
O551 Dy537 2.339 . S
O551 C538 1.257 . S
C552 C555 1.344 . S
C552 C556 1.328 . S
C552 C558 1.516 . S
C553 C554 1.304 . S
C553 C557 1.323 . S
C554 C553 1.304 . S
C554 C555 1.371 . S
C554 H568 0.930 . S
C555 C552 1.344 . S
C555 C554 1.371 . S
C555 H569 0.931 . S
C556 C552 1.328 . S
C556 C557 1.433 . S
C556 H570 0.931 . S
C557 C553 1.323 . S
C557 C556 1.433 . S
C557 H571 0.933 . S
C558 Dy536 2.738 . S
C558 O541 1.255 . S
C558 O542 1.249 . S
C558 C552 1.516 . S
C559 O543 1.254 . S
C559 O544 1.257 . S
C560 O545 1.266 . S
C560 O546 1.236 . S
C561 C564 1.344 . S
C561 C565 1.328 . S
C561 C567 1.516 . S
C562 C563 1.304 . S
C562 C566 1.323 . S
C563 C562 1.304 . S
C563 C564 1.371 . S
C563 H572 0.930 . S
C564 C561 1.344 . S
C564 C563 1.371 . S
C564 H573 0.931 . S
C565 C561 1.328 . S
C565 C566 1.433 . S
C565 H574 0.931 . S
C566 C562 1.323 . S
C566 C565 1.433 . S
C566 H575 0.933 . S
C567 Dy537 2.738 . S
C567 O547 1.255 . S
C567 O548 1.249 . S
C567 C561 1.516 . S
H568 C554 0.930 . S
H569 C555 0.931 . S
H570 C556 0.931 . S
H571 C557 0.933 . S
H572 C563 0.930 . S
H573 C564 0.931 . S
H574 C565 0.931 . S
H575 C566 0.933 . S
Dy576 O579 2.307 1_556 S
Dy576 O581 2.395 . S
Dy576 O582 2.379 . S
Dy576 O584 2.339 1_556 S
Dy576 O586 2.298 1_556 S
Dy576 O590 2.275 1_556 S
Dy576 C598 2.738 . S
Dy577 O580 2.298 . S
Dy577 O583 2.275 . S
Dy577 O585 2.307 . S
Dy577 O587 2.395 . S
Dy577 O588 2.379 . S
Dy577 O591 2.338 . S
Dy577 C607 2.738 . S
C578 O590 1.254 . S
C578 O591 1.257 . S
O579 Dy576 2.307 1_554 S
O579 C589 1.266 . S
O580 Dy577 2.298 . S
O580 C589 1.236 . S
O581 Dy576 2.395 . S
O581 C598 1.255 . S
O582 Dy576 2.379 . S
O582 C598 1.249 . S
O583 Dy577 2.275 . S
O583 C599 1.254 . S
O584 Dy576 2.339 1_554 S
O584 C599 1.257 . S
O585 Dy577 2.307 . S
O585 C600 1.266 . S
O586 Dy576 2.298 1_554 S
O586 C600 1.236 . S
O587 Dy577 2.395 . S
O587 C607 1.255 . S
O588 Dy577 2.379 . S
O588 C607 1.249 . S
C589 O579 1.266 . S
C589 O580 1.236 . S
O590 Dy576 2.275 1_554 S
O590 C578 1.254 . S
O591 Dy577 2.338 . S
O591 C578 1.257 . S
C592 C595 1.344 . S
C592 C596 1.328 . S
C592 C598 1.516 . S
C593 C594 1.304 . S
C593 C597 1.323 . S
C594 C593 1.304 . S
C594 C595 1.371 . S
C594 H608 0.930 . S
C595 C592 1.344 . S
C595 C594 1.371 . S
C595 H609 0.931 . S
C596 C592 1.328 . S
C596 C597 1.433 . S
C596 H610 0.931 . S
C597 C593 1.323 . S
C597 C596 1.433 . S
C597 H611 0.933 . S
C598 Dy576 2.738 . S
C598 O581 1.255 . S
C598 O582 1.249 . S
C598 C592 1.516 . S
C599 O583 1.254 . S
C599 O584 1.257 . S
C600 O585 1.266 . S
C600 O586 1.236 . S
C601 C604 1.344 . S
C601 C605 1.328 1_545 S
C601 C607 1.516 . S
C602 C603 1.297 . S
C602 C606 1.329 1_545 S
C603 C602 1.297 . S
C603 C604 1.371 . S
C603 H612 0.930 . S
C604 C601 1.344 . S
C604 C603 1.371 . S
C604 H613 0.931 . S
C605 C601 1.328 1_565 S
C605 C606 1.433 . S
C605 H614 0.931 . S
C606 C602 1.329 1_565 S
C606 C605 1.433 . S
C606 H615 0.933 . S
C607 Dy577 2.738 . S
C607 O587 1.255 . S
C607 O588 1.249 . S
C607 C601 1.516 . S
H608 C594 0.930 . S
H609 C595 0.931 . S
H610 C596 0.931 . S
H611 C597 0.933 . S
H612 C603 0.930 . S
H613 C604 0.931 . S
H614 C605 0.931 . S
H615 C606 0.933 . S
Dy616 O619 2.307 . S
Dy616 O621 2.395 . S
Dy616 O622 2.379 . S
Dy616 O624 2.339 . S
Dy616 O626 2.298 . S
Dy616 O630 2.275 . S
Dy616 C638 2.738 . S
Dy617 O620 2.298 . S
Dy617 O623 2.275 . S
Dy617 O625 2.307 . S
Dy617 O627 2.395 . S
Dy617 O628 2.379 . S
Dy617 O631 2.339 . S
Dy617 C647 2.738 . S
C618 O630 1.254 . S
C618 O631 1.257 . S
O619 Dy616 2.307 . S
O619 C629 1.266 . S
O620 Dy617 2.298 . S
O620 C629 1.236 . S
O621 Dy616 2.395 . S
O621 C638 1.255 . S
O622 Dy616 2.379 . S
O622 C638 1.249 . S
O623 Dy617 2.275 . S
O623 C639 1.254 . S
O624 Dy616 2.339 . S
O624 C639 1.257 . S
O625 Dy617 2.307 . S
O625 C640 1.266 . S
O626 Dy616 2.298 . S
O626 C640 1.236 . S
O627 Dy617 2.395 . S
O627 C647 1.255 . S
O628 Dy617 2.379 . S
O628 C647 1.249 . S
C629 O619 1.266 . S
C629 O620 1.236 . S
O630 Dy616 2.275 . S
O630 C618 1.254 . S
O631 Dy617 2.339 . S
O631 C618 1.257 . S
C632 C635 1.344 . S
C632 C636 1.328 . S
C632 C638 1.516 . S
C633 C634 1.304 . S
C633 C637 1.323 . S
C634 C633 1.304 . S
C634 C635 1.371 . S
C634 H648 0.930 . S
C635 C632 1.344 . S
C635 C634 1.371 . S
C635 H649 0.931 . S
C636 C632 1.328 . S
C636 C637 1.433 . S
C636 H650 0.931 . S
C637 C633 1.323 . S
C637 C636 1.433 . S
C637 H651 0.933 . S
C638 Dy616 2.738 . S
C638 O621 1.255 . S
C638 O622 1.249 . S
C638 C632 1.516 . S
C639 O623 1.254 . S
C639 O624 1.257 . S
C640 O625 1.266 . S
C640 O626 1.236 . S
C641 C644 1.344 . S
C641 C645 1.328 . S
C641 C647 1.516 . S
C642 C643 1.304 . S
C642 C646 1.323 . S
C643 C642 1.304 . S
C643 C644 1.371 . S
C643 H652 0.930 . S
C644 C641 1.344 . S
C644 C643 1.371 . S
C644 H653 0.931 . S
C645 C641 1.328 . S
C645 C646 1.433 . S
C645 H654 0.931 . S
C646 C642 1.323 . S
C646 C645 1.433 . S
C646 H655 0.933 . S
C647 Dy617 2.738 . S
C647 O627 1.255 . S
C647 O628 1.249 . S
C647 C641 1.516 . S
H648 C634 0.930 . S
H649 C635 0.931 . S
H650 C636 0.931 . S
H651 C637 0.933 . S
H652 C643 0.930 . S
H653 C644 0.931 . S
H654 C645 0.931 . S
H655 C646 0.933 . S
Dy656 O659 2.307 1_554 S
Dy656 O661 2.395 . S
Dy656 O662 2.379 . S
Dy656 O664 2.339 . S
Dy656 O666 2.298 . S
Dy656 O670 2.275 . S
Dy656 C678 2.738 . S
Dy657 O660 2.298 1_554 S
Dy657 O663 2.275 . S
Dy657 O665 2.307 . S
Dy657 O667 2.395 . S
Dy657 O668 2.379 . S
Dy657 O671 2.339 . S
Dy657 C687 2.738 . S
C658 O670 1.254 . S
C658 O671 1.257 . S
O659 Dy656 2.307 1_556 S
O659 C669 1.266 . S
O660 Dy657 2.298 1_556 S
O660 C669 1.236 . S
O661 Dy656 2.395 . S
O661 C678 1.255 . S
O662 Dy656 2.379 . S
O662 C678 1.249 . S
O663 Dy657 2.275 . S
O663 C679 1.254 . S
O664 Dy656 2.339 . S
O664 C679 1.257 . S
O665 Dy657 2.307 . S
O665 C680 1.266 . S
O666 Dy656 2.298 . S
O666 C680 1.236 . S
O667 Dy657 2.395 . S
O667 C687 1.255 . S
O668 Dy657 2.379 . S
O668 C687 1.249 . S
C669 O659 1.266 . S
C669 O660 1.236 . S
O670 Dy656 2.275 . S
O670 C658 1.254 . S
O671 Dy657 2.339 . S
O671 C658 1.257 . S
C672 C675 1.344 . S
C672 C676 1.328 . S
C672 C678 1.516 . S
C673 C674 1.304 . S
C673 C677 1.323 . S
C674 C673 1.304 . S
C674 C675 1.371 . S
C674 H688 0.930 . S
C675 C672 1.344 . S
C675 C674 1.371 . S
C675 H689 0.931 . S
C676 C672 1.328 . S
C676 C677 1.433 . S
C676 H690 0.931 . S
C677 C673 1.323 . S
C677 C676 1.433 . S
C677 H691 0.933 . S
C678 Dy656 2.738 . S
C678 O661 1.255 . S
C678 O662 1.249 . S
C678 C672 1.516 . S
C679 O663 1.254 . S
C679 O664 1.257 . S
C680 O665 1.266 . S
C680 O666 1.236 . S
C681 C684 1.344 . S
C681 C685 1.328 . S
C681 C687 1.516 1_556 S
C682 C683 1.304 . S
C682 C686 1.323 . S
C683 C682 1.304 . S
C683 C684 1.371 . S
C683 H692 0.930 . S
C684 C681 1.344 . S
C684 C683 1.371 . S
C684 H693 0.931 . S
C685 C681 1.328 . S
C685 C686 1.433 . S
C685 H694 0.931 . S
C686 C682 1.323 . S
C686 C685 1.433 . S
C686 H695 0.933 . S
C687 Dy657 2.738 . S
C687 O667 1.255 . S
C687 O668 1.249 . S
C687 C681 1.516 1_554 S
H688 C674 0.930 . S
H689 C675 0.931 . S
H690 C676 0.931 . S
H691 C677 0.933 . S
H692 C683 0.930 . S
H693 C684 0.931 . S
H694 C685 0.931 . S
H695 C686 0.933 . S
Dy696 O699 2.307 . S
Dy696 O701 2.395 . S
Dy696 O702 2.379 . S
Dy696 O704 2.339 . S
Dy696 O706 2.298 . S
Dy696 O710 2.275 . S
Dy696 C718 2.738 . S
Dy697 O700 2.298 . S
Dy697 O703 2.275 . S
Dy697 O705 2.307 . S
Dy697 O707 2.395 . S
Dy697 O708 2.379 . S
Dy697 O711 2.339 . S
Dy697 C727 2.738 . S
C698 O710 1.254 . S
C698 O711 1.257 . S
O699 Dy696 2.307 . S
O699 C709 1.266 . S
O700 Dy697 2.298 . S
O700 C709 1.236 . S
O701 Dy696 2.395 . S
O701 C718 1.255 . S
O702 Dy696 2.379 . S
O702 C718 1.249 . S
O703 Dy697 2.275 . S
O703 C719 1.254 . S
O704 Dy696 2.339 . S
O704 C719 1.257 . S
O705 Dy697 2.307 . S
O705 C720 1.266 . S
O706 Dy696 2.298 . S
O706 C720 1.236 . S
O707 Dy697 2.395 . S
O707 C727 1.255 . S
O708 Dy697 2.379 . S
O708 C727 1.249 . S
C709 O699 1.266 . S
C709 O700 1.236 . S
O710 Dy696 2.275 . S
O710 C698 1.254 . S
O711 Dy697 2.339 . S
O711 C698 1.257 . S
C712 C715 1.344 . S
C712 C716 1.328 . S
C712 C718 1.516 . S
C713 C714 1.304 . S
C713 C717 1.323 . S
C714 C713 1.304 . S
C714 C715 1.371 . S
C714 H728 0.930 . S
C715 C712 1.344 . S
C715 C714 1.371 . S
C715 H729 0.931 . S
C716 C712 1.328 . S
C716 C717 1.433 . S
C716 H730 0.931 . S
C717 C713 1.323 . S
C717 C716 1.433 . S
C717 H731 0.933 . S
C718 Dy696 2.738 . S
C718 O701 1.255 . S
C718 O702 1.249 . S
C718 C712 1.516 . S
C719 O703 1.254 . S
C719 O704 1.257 . S
C720 O705 1.266 . S
C720 O706 1.236 . S
C721 C724 1.344 . S
C721 C725 1.328 . S
C721 C727 1.516 . S
C722 C723 1.304 . S
C722 C726 1.323 . S
C723 C722 1.304 . S
C723 C724 1.371 . S
C723 H732 0.930 . S
C724 C721 1.344 . S
C724 C723 1.371 . S
C724 H733 0.931 . S
C725 C721 1.328 . S
C725 C726 1.433 . S
C725 H734 0.931 . S
C726 C722 1.323 . S
C726 C725 1.433 . S
C726 H735 0.933 . S
C727 Dy697 2.738 . S
C727 O707 1.255 . S
C727 O708 1.249 . S
C727 C721 1.516 . S
H728 C714 0.930 . S
H729 C715 0.931 . S
H730 C716 0.931 . S
H731 C717 0.933 . S
H732 C723 0.930 . S
H733 C724 0.931 . S
H734 C725 0.931 . S
H735 C726 0.933 . S
Dy736 O739 2.307 1_455 S
Dy736 O741 2.395 . S
Dy736 O742 2.379 . S
Dy736 O744 2.339 . S
Dy736 O746 2.298 . S
Dy736 O750 2.275 . S
Dy736 C758 2.738 . S
Dy737 O740 2.298 1_455 S
Dy737 O743 2.275 . S
Dy737 O745 2.307 . S
Dy737 O747 2.395 . S
Dy737 O748 2.379 . S
Dy737 O751 2.339 . S
Dy737 C767 2.738 . S
C738 O750 1.254 . S
C738 O751 1.257 . S
O739 Dy736 2.307 1_655 S
O739 C749 1.266 . S
O740 Dy737 2.298 1_655 S
O740 C749 1.236 . S
O741 Dy736 2.395 . S
O741 C758 1.255 . S
O742 Dy736 2.379 . S
O742 C758 1.249 . S
O743 Dy737 2.275 . S
O743 C759 1.254 . S
O744 Dy736 2.339 . S
O744 C759 1.257 . S
O745 Dy737 2.307 . S
O745 C760 1.266 . S
O746 Dy736 2.298 . S
O746 C760 1.236 . S
O747 Dy737 2.395 . S
O747 C767 1.255 . S
O748 Dy737 2.379 . S
O748 C767 1.249 . S
C749 O739 1.266 . S
C749 O740 1.236 . S
O750 Dy736 2.275 . S
O750 C738 1.254 . S
O751 Dy737 2.339 . S
O751 C738 1.257 . S
C752 C755 1.344 . S
C752 C756 1.328 . S
C752 C758 1.516 . S
C753 C754 1.304 . S
C753 C757 1.323 . S
C754 C753 1.304 . S
C754 C755 1.371 . S
C754 H768 0.930 . S
C755 C752 1.344 . S
C755 C754 1.371 . S
C755 H769 0.931 . S
C756 C752 1.328 . S
C756 C757 1.433 . S
C756 H770 0.931 . S
C757 C753 1.323 . S
C757 C756 1.433 . S
C757 H771 0.933 . S
C758 Dy736 2.738 . S
C758 O741 1.255 . S
C758 O742 1.249 . S
C758 C752 1.516 . S
C759 O743 1.254 . S
C759 O744 1.257 . S
C760 O745 1.266 . S
C760 O746 1.236 . S
C761 C764 1.344 . S
C761 C765 1.328 . S
C761 C767 1.516 1_655 S
C762 C763 1.304 . S
C762 C766 1.323 . S
C763 C762 1.304 . S
C763 C764 1.371 . S
C763 H772 0.930 . S
C764 C761 1.344 . S
C764 C763 1.371 . S
C764 H773 0.931 . S
C765 C761 1.328 . S
C765 C766 1.433 . S
C765 H774 0.931 . S
C766 C762 1.323 . S
C766 C765 1.433 . S
C766 H775 0.933 . S
C767 Dy737 2.738 . S
C767 O747 1.255 . S
C767 O748 1.249 . S
C767 C761 1.516 1_455 S
H768 C754 0.930 . S
H769 C755 0.931 . S
H770 C756 0.931 . S
H771 C757 0.933 . S
H772 C763 0.930 . S
H773 C764 0.931 . S
H774 C765 0.931 . S
H775 C766 0.933 . S
Dy776 O779 2.307 . S
Dy776 O781 2.395 . S
Dy776 O782 2.379 . S
Dy776 O784 2.339 . S
Dy776 O786 2.298 . S
Dy776 O790 2.275 . S
Dy776 C798 2.738 . S
Dy777 O780 2.298 . S
Dy777 O783 2.275 . S
Dy777 O785 2.307 . S
Dy777 O787 2.395 . S
Dy777 O788 2.379 . S
Dy777 O791 2.339 . S
Dy777 C807 2.738 . S
C778 O790 1.254 . S
C778 O791 1.257 . S
O779 Dy776 2.307 . S
O779 C789 1.266 . S
O780 Dy777 2.298 . S
O780 C789 1.236 . S
O781 Dy776 2.395 . S
O781 C798 1.255 . S
O782 Dy776 2.379 . S
O782 C798 1.249 . S
O783 Dy777 2.275 . S
O783 C799 1.254 . S
O784 Dy776 2.339 . S
O784 C799 1.257 . S
O785 Dy777 2.307 . S
O785 C800 1.266 . S
O786 Dy776 2.298 . S
O786 C800 1.236 . S
O787 Dy777 2.395 . S
O787 C807 1.255 . S
O788 Dy777 2.379 . S
O788 C807 1.249 . S
C789 O779 1.266 . S
C789 O780 1.236 . S
O790 Dy776 2.275 . S
O790 C778 1.254 . S
O791 Dy777 2.339 . S
O791 C778 1.257 . S
C792 C795 1.344 . S
C792 C796 1.328 . S
C792 C798 1.516 . S
C793 C794 1.304 . S
C793 C797 1.323 . S
C794 C793 1.304 . S
C794 C795 1.371 . S
C794 H808 0.930 . S
C795 C792 1.344 . S
C795 C794 1.371 . S
C795 H809 0.931 . S
C796 C792 1.328 . S
C796 C797 1.433 . S
C796 H810 0.931 . S
C797 C793 1.323 . S
C797 C796 1.433 . S
C797 H811 0.933 . S
C798 Dy776 2.738 . S
C798 O781 1.255 . S
C798 O782 1.249 . S
C798 C792 1.516 . S
C799 O783 1.254 . S
C799 O784 1.257 . S
C800 O785 1.266 . S
C800 O786 1.236 . S
C801 C804 1.344 . S
C801 C805 1.328 . S
C801 C807 1.516 . S
C802 C803 1.304 . S
C802 C806 1.323 . S
C803 C802 1.304 . S
C803 C804 1.371 . S
C803 H812 0.930 . S
C804 C801 1.344 . S
C804 C803 1.371 . S
C804 H813 0.931 . S
C805 C801 1.328 . S
C805 C806 1.433 . S
C805 H814 0.931 . S
C806 C802 1.323 . S
C806 C805 1.433 . S
C806 H815 0.933 . S
C807 Dy777 2.738 . S
C807 O787 1.255 . S
C807 O788 1.249 . S
C807 C801 1.516 . S
H808 C794 0.930 . S
H809 C795 0.931 . S
H810 C796 0.931 . S
H811 C797 0.933 . S
H812 C803 0.930 . S
H813 C804 0.931 . S
H814 C805 0.931 . S
H815 C806 0.933 . S
Dy816 O819 2.307 . S
Dy816 O821 2.395 . S
Dy816 O822 2.379 . S
Dy816 O824 2.339 . S
Dy816 O826 2.298 . S
Dy816 O830 2.275 . S
Dy816 C838 2.738 . S
Dy817 O820 2.298 . S
Dy817 O823 2.275 . S
Dy817 O825 2.307 . S
Dy817 O827 2.395 . S
Dy817 O828 2.379 . S
Dy817 O831 2.339 . S
Dy817 C847 2.738 . S
C818 O830 1.254 . S
C818 O831 1.257 . S
O819 Dy816 2.307 . S
O819 C829 1.266 . S
O820 Dy817 2.298 . S
O820 C829 1.236 . S
O821 Dy816 2.395 . S
O821 C838 1.255 . S
O822 Dy816 2.379 . S
O822 C838 1.249 . S
O823 Dy817 2.275 . S
O823 C839 1.254 . S
O824 Dy816 2.339 . S
O824 C839 1.257 . S
O825 Dy817 2.307 . S
O825 C840 1.266 . S
O826 Dy816 2.298 . S
O826 C840 1.236 . S
O827 Dy817 2.395 . S
O827 C847 1.255 . S
O828 Dy817 2.379 . S
O828 C847 1.249 . S
C829 O819 1.266 . S
C829 O820 1.236 . S
O830 Dy816 2.275 . S
O830 C818 1.254 . S
O831 Dy817 2.339 . S
O831 C818 1.257 . S
C832 C835 1.344 . S
C832 C836 1.328 . S
C832 C838 1.516 . S
C833 C834 1.304 . S
C833 C837 1.323 . S
C834 C833 1.304 . S
C834 C835 1.371 . S
C834 H848 0.930 . S
C835 C832 1.344 . S
C835 C834 1.371 . S
C835 H849 0.931 . S
C836 C832 1.328 . S
C836 C837 1.433 . S
C836 H850 0.931 . S
C837 C833 1.323 . S
C837 C836 1.433 . S
C837 H851 0.933 . S
C838 Dy816 2.738 . S
C838 O821 1.255 . S
C838 O822 1.249 . S
C838 C832 1.516 . S
C839 O823 1.254 . S
C839 O824 1.257 . S
C840 O825 1.266 . S
C840 O826 1.236 . S
C841 C844 1.344 . S
C841 C845 1.328 . S
C841 C847 1.516 . S
C842 C843 1.304 . S
C842 C846 1.323 . S
C843 C842 1.304 . S
C843 C844 1.371 . S
C843 H852 0.930 . S
C844 C841 1.344 . S
C844 C843 1.371 . S
C844 H853 0.931 . S
C845 C841 1.328 . S
C845 C846 1.433 . S
C845 H854 0.931 . S
C846 C842 1.323 . S
C846 C845 1.433 . S
C846 H855 0.933 . S
C847 Dy817 2.738 . S
C847 O827 1.255 . S
C847 O828 1.249 . S
C847 C841 1.516 . S
H848 C834 0.930 . S
H849 C835 0.931 . S
H850 C836 0.931 . S
H851 C837 0.933 . S
H852 C843 0.930 . S
H853 C844 0.931 . S
H854 C845 0.931 . S
H855 C846 0.933 . S
Dy856 O859 2.307 . S
Dy856 O861 2.395 . S
Dy856 O862 2.379 . S
Dy856 O864 2.339 . S
Dy856 O866 2.298 . S
Dy856 O870 2.275 . S
Dy856 C878 2.738 . S
Dy857 O860 2.298 . S
Dy857 O863 2.275 . S
Dy857 O865 2.307 . S
Dy857 O867 2.395 . S
Dy857 O868 2.379 . S
Dy857 O871 2.339 . S
Dy857 C887 2.738 . S
C858 O870 1.254 . S
C858 O871 1.257 . S
O859 Dy856 2.307 . S
O859 C869 1.266 . S
O860 Dy857 2.298 . S
O860 C869 1.236 . S
O861 Dy856 2.395 . S
O861 C878 1.255 . S
O862 Dy856 2.379 . S
O862 C878 1.249 . S
O863 Dy857 2.275 . S
O863 C879 1.254 . S
O864 Dy856 2.339 . S
O864 C879 1.257 . S
O865 Dy857 2.307 . S
O865 C880 1.266 . S
O866 Dy856 2.298 . S
O866 C880 1.236 . S
O867 Dy857 2.395 . S
O867 C887 1.255 . S
O868 Dy857 2.379 . S
O868 C887 1.249 . S
C869 O859 1.266 . S
C869 O860 1.236 . S
O870 Dy856 2.275 . S
O870 C858 1.254 . S
O871 Dy857 2.339 . S
O871 C858 1.257 . S
C872 C875 1.344 . S
C872 C876 1.328 . S
C872 C878 1.516 . S
C873 C874 1.304 . S
C873 C877 1.323 . S
C874 C873 1.304 . S
C874 C875 1.371 . S
C874 H888 0.930 . S
C875 C872 1.344 . S
C875 C874 1.371 . S
C875 H889 0.931 . S
C876 C872 1.328 . S
C876 C877 1.433 . S
C876 H890 0.931 . S
C877 C873 1.323 . S
C877 C876 1.433 . S
C877 H891 0.933 . S
C878 Dy856 2.738 . S
C878 O861 1.255 . S
C878 O862 1.249 . S
C878 C872 1.516 . S
C879 O863 1.254 . S
C879 O864 1.257 . S
C880 O865 1.266 . S
C880 O866 1.236 . S
C881 C884 1.344 . S
C881 C885 1.328 . S
C881 C887 1.516 . S
C882 C883 1.304 . S
C882 C886 1.323 . S
C883 C882 1.304 . S
C883 C884 1.371 . S
C883 H892 0.930 . S
C884 C881 1.344 . S
C884 C883 1.371 . S
C884 H893 0.931 . S
C885 C881 1.328 . S
C885 C886 1.433 . S
C885 H894 0.931 . S
C886 C882 1.323 . S
C886 C885 1.433 . S
C886 H895 0.933 . S
C887 Dy857 2.738 . S
C887 O867 1.255 . S
C887 O868 1.249 . S
C887 C881 1.516 . S
H888 C874 0.930 . S
H889 C875 0.931 . S
H890 C876 0.931 . S
H891 C877 0.933 . S
H892 C883 0.930 . S
H893 C884 0.931 . S
H894 C885 0.931 . S
H895 C886 0.933 . S
Dy896 O899 2.307 . S
Dy896 O901 2.395 . S
Dy896 O902 2.379 . S
Dy896 O904 2.339 . S
Dy896 O906 2.298 . S
Dy896 O910 2.275 . S
Dy896 C918 2.738 . S
Dy897 O900 2.298 . S
Dy897 O903 2.275 . S
Dy897 O905 2.307 . S
Dy897 O907 2.395 . S
Dy897 O908 2.379 . S
Dy897 O911 2.339 . S
Dy897 C927 2.738 . S
C898 O910 1.254 . S
C898 O911 1.257 . S
O899 Dy896 2.307 . S
O899 C909 1.266 . S
O900 Dy897 2.298 . S
O900 C909 1.236 . S
O901 Dy896 2.395 . S
O901 C918 1.255 . S
O902 Dy896 2.379 . S
O902 C918 1.249 . S
O903 Dy897 2.275 . S
O903 C919 1.254 . S
O904 Dy896 2.339 . S
O904 C919 1.257 . S
O905 Dy897 2.307 . S
O905 C920 1.266 . S
O906 Dy896 2.298 . S
O906 C920 1.236 . S
O907 Dy897 2.395 . S
O907 C927 1.255 . S
O908 Dy897 2.379 . S
O908 C927 1.249 . S
C909 O899 1.266 . S
C909 O900 1.236 . S
O910 Dy896 2.275 . S
O910 C898 1.254 . S
O911 Dy897 2.339 . S
O911 C898 1.257 . S
C912 C915 1.344 . S
C912 C916 1.328 . S
C912 C918 1.516 . S
C913 C914 1.304 . S
C913 C917 1.323 . S
C914 C913 1.304 . S
C914 C915 1.371 . S
C914 H928 0.930 . S
C915 C912 1.344 . S
C915 C914 1.371 . S
C915 H929 0.931 . S
C916 C912 1.328 . S
C916 C917 1.433 . S
C916 H930 0.931 . S
C917 C913 1.323 . S
C917 C916 1.433 . S
C917 H931 0.933 . S
C918 Dy896 2.738 . S
C918 O901 1.255 . S
C918 O902 1.249 . S
C918 C912 1.516 . S
C919 O903 1.254 . S
C919 O904 1.257 . S
C920 O905 1.266 . S
C920 O906 1.236 . S
C921 C924 1.344 . S
C921 C925 1.328 . S
C921 C927 1.516 . S
C922 C923 1.304 . S
C922 C926 1.323 . S
C923 C922 1.304 . S
C923 C924 1.371 . S
C923 H932 0.930 . S
C924 C921 1.344 . S
C924 C923 1.371 . S
C924 H933 0.931 . S
C925 C921 1.328 . S
C925 C926 1.433 . S
C925 H934 0.931 . S
C926 C922 1.323 . S
C926 C925 1.433 . S
C926 H935 0.933 . S
C927 Dy897 2.738 . S
C927 O907 1.255 . S
C927 O908 1.249 . S
C927 C921 1.516 . S
H928 C914 0.930 . S
H929 C915 0.931 . S
H930 C916 0.931 . S
H931 C917 0.933 . S
H932 C923 0.930 . S
H933 C924 0.931 . S
H934 C925 0.931 . S
H935 C926 0.933 . S
Dy936 O939 2.307 1_655 S
Dy936 O941 2.395 . S
Dy936 O942 2.379 . S
Dy936 O944 2.339 1_655 S
Dy936 O946 2.298 1_655 S
Dy936 O950 2.275 1_655 S
Dy936 C958 2.738 . S
Dy937 O940 2.298 . S
Dy937 O943 2.275 . S
Dy937 O945 2.307 . S
Dy937 O947 2.395 . S
Dy937 O948 2.379 1_554 S
Dy937 O951 2.339 1_554 S
Dy937 C967 2.738 . S
C938 O950 1.254 1_556 S
C938 O951 1.257 . S
O939 Dy936 2.307 1_455 S
O939 C949 1.266 . S
O940 Dy937 2.298 . S
O940 C949 1.236 . S
O941 Dy936 2.395 . S
O941 C958 1.255 . S
O942 Dy936 2.379 . S
O942 C958 1.249 . S
O943 Dy937 2.275 . S
O943 C959 1.254 . S
O944 Dy936 2.339 1_455 S
O944 C959 1.257 . S
O945 Dy937 2.307 . S
O945 C960 1.266 . S
O946 Dy936 2.298 1_455 S
O946 C960 1.236 . S
O947 Dy937 2.395 . S
O947 C967 1.255 . S
O948 Dy937 2.379 1_556 S
O948 C967 1.249 1_556 S
C949 O939 1.266 . S
C949 O940 1.236 . S
O950 Dy936 2.275 1_455 S
O950 C938 1.254 1_554 S
O951 Dy937 2.339 1_556 S
O951 C938 1.257 . S
C952 C955 1.344 . S
C952 C956 1.328 . S
C952 C958 1.516 . S
C953 C954 1.304 . S
C953 C957 1.323 . S
C954 C953 1.304 . S
C954 C955 1.371 . S
C954 H968 0.930 . S
C955 C952 1.344 . S
C955 C954 1.371 . S
C955 H969 0.931 . S
C956 C952 1.328 . S
C956 C957 1.433 . S
C956 H970 0.931 . S
C957 C953 1.323 . S
C957 C956 1.433 . S
C957 H971 0.933 . S
C958 Dy936 2.738 . S
C958 O941 1.255 . S
C958 O942 1.249 . S
C958 C952 1.516 . S
C959 O943 1.254 . S
C959 O944 1.257 . S
C960 O945 1.266 . S
C960 O946 1.236 . S
C961 C964 1.344 . S
C961 C965 1.328 1_554 S
C961 C967 1.516 . S
C962 C963 1.304 . S
C962 C966 1.323 1_554 S
C963 C962 1.304 . S
C963 C964 1.371 . S
C963 H972 0.930 . S
C964 C961 1.344 . S
C964 C963 1.371 . S
C964 H973 0.931 . S
C965 C961 1.328 1_556 S
C965 C966 1.433 . S
C965 H974 0.931 . S
C966 C962 1.323 1_556 S
C966 C965 1.433 . S
C966 H975 0.933 . S
C967 Dy937 2.738 . S
C967 O947 1.255 . S
C967 O948 1.249 1_554 S
C967 C961 1.516 . S
H968 C954 0.930 . S
H969 C955 0.931 . S
H970 C956 0.931 . S
H971 C957 0.933 . S
H972 C963 0.930 . S
H973 C964 0.931 . S
H974 C965 0.931 . S
H975 C966 0.933 . S
H976 C994 0.951 . S
H977 C996 0.951 . S
H978 C998 0.950 . S
H979 C999 0.950 . S
H980 C1001 0.950 . S
H981 C1004 0.950 . S
H982 C1005 0.950 . S
H983 C1007 0.950 . S
H984 C1008 0.950 . S
H985 C1009 0.951 . S
H986 C1011 0.951 1_655 S
H987 C1013 0.950 1_556 S
H988 C1014 0.950 . S
H989 C1016 0.950 . S
H990 C1019 0.950 . S
H991 C1020 0.950 . S
H992 C1022 0.950 . S
H993 C1023 0.950 . S
C994 H976 0.951 . S
C994 C995 1.366 1_455 S
C994 C996 1.388 . S
C995 C994 1.366 1_655 S
C995 C999 1.385 . S
C996 H977 0.951 . S
C996 C994 1.388 . S
C996 C997 1.366 . S
C997 C996 1.366 . S
C997 C998 1.414 1_455 S
C997 C1000 1.499 . S
C998 H978 0.950 . S
C998 C997 1.414 1_655 S
C998 C999 1.374 . S
C999 H979 0.950 . S
C999 C995 1.385 . S
C999 C998 1.374 . S
C1000 C997 1.499 . S
C1000 C1001 1.373 1_556 S
C1000 C1002 1.389 . S
C1001 H980 0.950 . S
C1001 C1000 1.373 1_554 S
C1001 C1017 1.377 . S
C1002 C1000 1.389 . S
C1002 C1003 1.524 . S
C1002 C1016 1.377 . S
C1003 C1002 1.524 . S
C1003 C1004 1.397 1_455 S
C1003 C1008 1.363 . S
C1004 H981 0.950 . S
C1004 C1003 1.397 1_655 S
C1004 C1005 1.334 . S
C1005 H982 0.950 . S
C1005 C1004 1.334 . S
C1005 C1006 1.287 1_655 S
C1006 C1005 1.287 1_455 S
C1006 C1007 1.524 . S
C1006 H1025 0.913 . S
C1007 H983 0.950 . S
C1007 C1006 1.524 . S
C1007 C1008 1.415 . S
C1008 H984 0.950 . S
C1008 C1003 1.363 . S
C1008 C1007 1.415 . S
C1009 H985 0.951 . S
C1009 C1010 1.366 . S
C1009 C1011 1.388 . S
C1010 C1009 1.366 . S
C1010 C1014 1.385 . S
C1011 H986 0.951 1_455 S
C1011 C1009 1.388 . S
C1011 C1012 1.366 . S
C1012 C1011 1.366 . S
C1012 C1013 1.414 . S
C1012 C1015 1.499 . S
C1013 H987 0.950 1_554 S
C1013 C1012 1.414 . S
C1013 C1014 1.374 . S
C1014 H988 0.950 . S
C1014 C1010 1.385 . S
C1014 C1013 1.374 . S
C1015 C1012 1.499 . S
C1015 C1016 1.373 1_554 S
C1015 C1017 1.389 . S
C1016 H989 0.950 . S
C1016 C1002 1.377 . S
C1016 C1015 1.373 1_556 S
C1017 C1001 1.377 . S
C1017 C1015 1.389 . S
C1017 C1018 1.524 . S
C1018 C1017 1.524 . S
C1018 C1019 1.397 . S
C1018 C1023 1.363 1_455 S
C1019 H990 0.950 . S
C1019 C1018 1.397 . S
C1019 C1020 1.334 . S
C1020 H991 0.950 . S
C1020 C1019 1.334 . S
C1020 C1021 1.287 . S
C1021 C1020 1.287 . S
C1021 C1022 1.524 1_455 S
C1021 H1024 0.999 . S
C1022 H992 0.950 . S
C1022 C1021 1.524 1_655 S
C1022 C1023 1.415 . S
C1023 H993 0.950 . S
C1023 C1018 1.363 1_655 S
C1023 C1022 1.415 . S
H1024 C1021 0.999 . S
H1025 C1006 0.913 . S
H1026 C1044 0.951 . S
H1027 C1046 0.951 . S
H1028 C1048 0.950 . S
H1029 C1049 0.950 . S
H1030 C1051 0.950 . S
H1031 C1054 0.950 . S
H1032 C1055 0.950 . S
H1033 C1057 0.950 . S
H1034 C1058 0.950 . S
H1035 C1059 0.951 . S
H1036 C1061 0.951 . S
H1037 C1063 0.950 . S
H1038 C1064 0.950 . S
H1039 C1066 0.950 . S
H1040 C1069 0.950 . S
H1041 C1070 0.950 . S
H1042 C1072 0.950 . S
H1043 C1073 0.950 . S
C1044 H1026 0.951 . S
C1044 C1045 1.366 . S
C1044 C1046 1.388 . S
C1045 C1044 1.366 . S
C1045 C1049 1.385 . S
C1046 H1027 0.951 . S
C1046 C1044 1.388 . S
C1046 C1047 1.366 . S
C1047 C1046 1.366 . S
C1047 C1048 1.414 . S
C1047 C1050 1.499 . S
C1048 H1028 0.950 . S
C1048 C1047 1.414 . S
C1048 C1049 1.374 . S
C1049 H1029 0.950 . S
C1049 C1045 1.385 . S
C1049 C1048 1.374 . S
C1050 C1047 1.499 . S
C1050 C1051 1.373 . S
C1050 C1052 1.389 . S
C1051 H1030 0.950 . S
C1051 C1050 1.373 . S
C1051 C1067 1.377 . S
C1052 C1050 1.389 . S
C1052 C1053 1.524 . S
C1052 C1066 1.377 . S
C1053 C1052 1.524 . S
C1053 C1054 1.397 . S
C1053 C1058 1.363 . S
C1054 H1031 0.950 . S
C1054 C1053 1.397 . S
C1054 C1055 1.334 . S
C1055 H1032 0.950 . S
C1055 C1054 1.334 . S
C1055 C1056 1.287 . S
C1056 C1055 1.287 . S
C1056 C1057 1.524 . S
C1056 H1075 0.913 . S
C1057 H1033 0.950 . S
C1057 C1056 1.524 . S
C1057 C1058 1.415 . S
C1058 H1034 0.950 . S
C1058 C1053 1.363 . S
C1058 C1057 1.415 . S
C1059 H1035 0.951 . S
C1059 C1060 1.366 . S
C1059 C1061 1.388 . S
C1060 C1059 1.366 . S
C1060 C1064 1.385 . S
C1061 H1036 0.951 . S
C1061 C1059 1.388 . S
C1061 C1062 1.366 . S
C1062 C1061 1.366 . S
C1062 C1063 1.414 . S
C1062 C1065 1.499 . S
C1063 H1037 0.950 . S
C1063 C1062 1.414 . S
C1063 C1064 1.374 . S
C1064 H1038 0.950 . S
C1064 C1060 1.385 . S
C1064 C1063 1.374 . S
C1065 C1062 1.499 . S
C1065 C1066 1.373 . S
C1065 C1067 1.389 . S
C1066 H1039 0.950 . S
C1066 C1052 1.377 . S
C1066 C1065 1.373 . S
C1067 C1051 1.377 . S
C1067 C1065 1.389 . S
C1067 C1068 1.524 . S
C1068 C1067 1.524 . S
C1068 C1069 1.397 . S
C1068 C1073 1.363 . S
C1069 H1040 0.950 . S
C1069 C1068 1.397 . S
C1069 C1070 1.334 . S
C1070 H1041 0.950 . S
C1070 C1069 1.334 . S
C1070 C1071 1.287 . S
C1071 C1070 1.287 . S
C1071 C1072 1.524 . S
C1071 H1074 0.999 . S
C1072 H1042 0.950 . S
C1072 C1071 1.524 . S
C1072 C1073 1.415 . S
C1073 H1043 0.950 . S
C1073 C1068 1.363 . S
C1073 C1072 1.415 . S
H1074 C1071 0.999 . S
H1075 C1056 0.913 . S
H1076 C1094 0.951 . S
H1077 C1096 0.951 . S
H1078 C1098 0.950 . S
H1079 C1099 0.950 . S
H1080 C1101 0.950 . S
H1081 C1104 0.950 . S
H1082 C1105 0.950 . S
H1083 C1107 0.950 . S
H1084 C1108 0.950 . S
H1085 C1109 0.951 . S
H1086 C1111 0.951 . S
H1087 C1113 0.950 . S
H1088 C1114 0.950 . S
H1089 C1116 0.950 . S
H1090 C1119 0.950 . S
H1091 C1120 0.950 . S
H1092 C1122 0.950 . S
H1093 C1123 0.950 . S
C1094 H1076 0.951 . S
C1094 C1095 1.366 . S
C1094 C1096 1.388 . S
C1095 C1094 1.366 . S
C1095 C1099 1.385 . S
C1096 H1077 0.951 . S
C1096 C1094 1.388 . S
C1096 C1097 1.366 . S
C1097 C1096 1.366 . S
C1097 C1098 1.414 . S
C1097 C1100 1.499 . S
C1098 H1078 0.950 . S
C1098 C1097 1.414 . S
C1098 C1099 1.374 . S
C1099 H1079 0.950 . S
C1099 C1095 1.385 . S
C1099 C1098 1.374 . S
C1100 C1097 1.499 . S
C1100 C1101 1.373 . S
C1100 C1102 1.389 . S
C1101 H1080 0.950 . S
C1101 C1100 1.373 . S
C1101 C1117 1.377 . S
C1102 C1100 1.389 . S
C1102 C1103 1.524 . S
C1102 C1116 1.377 . S
C1103 C1102 1.524 . S
C1103 C1104 1.397 . S
C1103 C1108 1.363 . S
C1104 H1081 0.950 . S
C1104 C1103 1.397 . S
C1104 C1105 1.334 . S
C1105 H1082 0.950 . S
C1105 C1104 1.334 . S
C1105 C1106 1.287 . S
C1106 C1105 1.287 . S
C1106 C1107 1.524 . S
C1106 H1125 0.913 . S
C1107 H1083 0.950 . S
C1107 C1106 1.524 . S
C1107 C1108 1.415 . S
C1108 H1084 0.950 . S
C1108 C1103 1.363 . S
C1108 C1107 1.415 . S
C1109 H1085 0.951 . S
C1109 C1110 1.366 . S
C1109 C1111 1.388 . S
C1110 C1109 1.366 . S
C1110 C1114 1.385 . S
C1111 H1086 0.951 . S
C1111 C1109 1.388 . S
C1111 C1112 1.366 . S
C1112 C1111 1.366 . S
C1112 C1113 1.414 . S
C1112 C1115 1.499 . S
C1113 H1087 0.950 . S
C1113 C1112 1.414 . S
C1113 C1114 1.374 . S
C1114 H1088 0.950 . S
C1114 C1110 1.385 . S
C1114 C1113 1.374 . S
C1115 C1112 1.499 . S
C1115 C1116 1.373 . S
C1115 C1117 1.389 . S
C1116 H1089 0.950 . S
C1116 C1102 1.377 . S
C1116 C1115 1.373 . S
C1117 C1101 1.377 . S
C1117 C1115 1.389 . S
C1117 C1118 1.524 . S
C1118 C1117 1.524 . S
C1118 C1119 1.397 . S
C1118 C1123 1.363 . S
C1119 H1090 0.950 . S
C1119 C1118 1.397 . S
C1119 C1120 1.334 . S
C1120 H1091 0.950 . S
C1120 C1119 1.334 . S
C1120 C1121 1.287 . S
C1121 C1120 1.287 . S
C1121 C1122 1.524 . S
C1121 H1124 0.999 . S
C1122 H1092 0.950 . S
C1122 C1121 1.524 . S
C1122 C1123 1.415 . S
C1123 H1093 0.950 . S
C1123 C1118 1.363 . S
C1123 C1122 1.415 . S
H1124 C1121 0.999 . S
H1125 C1106 0.913 . S
H1126 C1144 0.951 . S
H1127 C1146 0.951 . S
H1128 C1148 0.950 . S
H1129 C1149 0.950 . S
H1130 C1151 0.950 . S
H1131 C1154 0.950 . S
H1132 C1155 0.950 . S
H1133 C1157 0.950 . S
H1134 C1158 0.950 . S
H1135 C1159 0.951 . S
H1136 C1161 0.951 . S
H1137 C1163 0.950 . S
H1138 C1164 0.950 . S
H1139 C1166 0.950 . S
H1140 C1169 0.950 . S
H1141 C1170 0.950 . S
H1142 C1172 0.950 . S
H1143 C1173 0.950 . S
C1144 H1126 0.951 . S
C1144 C1145 1.366 . S
C1144 C1146 1.388 . S
C1145 C1144 1.366 . S
C1145 C1149 1.385 . S
C1146 H1127 0.951 . S
C1146 C1144 1.388 . S
C1146 C1147 1.366 . S
C1147 C1146 1.366 . S
C1147 C1148 1.414 . S
C1147 C1150 1.499 . S
C1148 H1128 0.950 . S
C1148 C1147 1.414 . S
C1148 C1149 1.374 . S
C1149 H1129 0.950 . S
C1149 C1145 1.385 . S
C1149 C1148 1.374 . S
C1150 C1147 1.499 . S
C1150 C1151 1.373 . S
C1150 C1152 1.389 . S
C1151 H1130 0.950 . S
C1151 C1150 1.373 . S
C1151 C1167 1.377 . S
C1152 C1150 1.389 . S
C1152 C1153 1.524 . S
C1152 C1166 1.377 . S
C1153 C1152 1.524 . S
C1153 C1154 1.397 . S
C1153 C1158 1.363 . S
C1154 H1131 0.950 . S
C1154 C1153 1.397 . S
C1154 C1155 1.334 . S
C1155 H1132 0.950 . S
C1155 C1154 1.334 . S
C1155 C1156 1.287 . S
C1156 C1155 1.287 . S
C1156 C1157 1.524 . S
C1156 H1175 0.913 . S
C1157 H1133 0.950 . S
C1157 C1156 1.524 . S
C1157 C1158 1.415 . S
C1158 H1134 0.950 . S
C1158 C1153 1.363 . S
C1158 C1157 1.415 . S
C1159 H1135 0.951 . S
C1159 C1160 1.366 . S
C1159 C1161 1.388 . S
C1160 C1159 1.366 . S
C1160 C1164 1.385 . S
C1161 H1136 0.951 . S
C1161 C1159 1.388 . S
C1161 C1162 1.366 . S
C1162 C1161 1.366 . S
C1162 C1163 1.414 . S
C1162 C1165 1.499 . S
C1163 H1137 0.950 . S
C1163 C1162 1.414 . S
C1163 C1164 1.374 . S
C1164 H1138 0.950 . S
C1164 C1160 1.385 . S
C1164 C1163 1.374 . S
C1165 C1162 1.499 . S
C1165 C1166 1.373 . S
C1165 C1167 1.389 . S
C1166 H1139 0.950 . S
C1166 C1152 1.377 . S
C1166 C1165 1.373 . S
C1167 C1151 1.377 . S
C1167 C1165 1.389 . S
C1167 C1168 1.524 . S
C1168 C1167 1.524 . S
C1168 C1169 1.397 . S
C1168 C1173 1.363 . S
C1169 H1140 0.950 . S
C1169 C1168 1.397 . S
C1169 C1170 1.334 . S
C1170 H1141 0.950 . S
C1170 C1169 1.334 . S
C1170 C1171 1.287 . S
C1171 C1170 1.287 . S
C1171 C1172 1.524 . S
C1171 H1174 0.999 . S
C1172 H1142 0.950 . S
C1172 C1171 1.524 . S
C1172 C1173 1.415 . S
C1173 H1143 0.950 . S
C1173 C1168 1.363 . S
C1173 C1172 1.415 . S
H1174 C1171 0.999 . S
H1175 C1156 0.913 . S
H1176 C1194 0.951 . S
H1177 C1196 0.951 . S
H1178 C1198 0.950 . S
H1179 C1199 0.950 . S
H1180 C1201 0.950 . S
H1181 C1204 0.950 . S
H1182 C1205 0.950 . S
H1183 C1207 0.950 . S
H1184 C1208 0.950 . S
H1185 C1209 0.951 . S
H1186 C1211 0.951 . S
H1187 C1213 0.950 . S
H1188 C1214 0.950 . S
H1189 C1216 0.950 . S
H1190 C1219 0.950 1_455 S
H1191 C1220 0.950 . S
H1192 C1222 0.950 . S
H1193 C1223 0.950 . S
C1194 H1176 0.951 . S
C1194 C1195 1.366 . S
C1194 C1196 1.388 . S
C1195 C1194 1.366 . S
C1195 C1199 1.385 . S
C1196 H1177 0.951 . S
C1196 C1194 1.388 . S
C1196 C1197 1.366 . S
C1197 C1196 1.366 . S
C1197 C1198 1.414 . S
C1197 C1200 1.499 . S
C1198 H1178 0.950 . S
C1198 C1197 1.414 . S
C1198 C1199 1.374 . S
C1199 H1179 0.950 . S
C1199 C1195 1.385 . S
C1199 C1198 1.374 . S
C1200 C1197 1.499 . S
C1200 C1201 1.373 . S
C1200 C1202 1.389 . S
C1201 H1180 0.950 . S
C1201 C1200 1.373 . S
C1201 C1217 1.377 . S
C1202 C1200 1.389 . S
C1202 C1203 1.524 . S
C1202 C1216 1.377 . S
C1203 C1202 1.524 . S
C1203 C1204 1.397 . S
C1203 C1208 1.363 . S
C1204 H1181 0.950 . S
C1204 C1203 1.397 . S
C1204 C1205 1.334 . S
C1205 H1182 0.950 . S
C1205 C1204 1.334 . S
C1205 C1206 1.287 . S
C1206 C1205 1.287 . S
C1206 C1207 1.524 . S
C1206 H1225 0.913 . S
C1207 H1183 0.950 . S
C1207 C1206 1.524 . S
C1207 C1208 1.415 . S
C1208 H1184 0.950 . S
C1208 C1203 1.363 . S
C1208 C1207 1.415 . S
C1209 H1185 0.951 . S
C1209 C1210 1.366 . S
C1209 C1211 1.388 . S
C1210 C1209 1.366 . S
C1210 C1214 1.385 . S
C1211 H1186 0.951 . S
C1211 C1209 1.388 . S
C1211 C1212 1.366 . S
C1212 C1211 1.366 . S
C1212 C1213 1.414 . S
C1212 C1215 1.499 . S
C1213 H1187 0.950 . S
C1213 C1212 1.414 . S
C1213 C1214 1.374 . S
C1214 H1188 0.950 . S
C1214 C1210 1.385 . S
C1214 C1213 1.374 . S
C1215 C1212 1.499 . S
C1215 C1216 1.373 . S
C1215 C1217 1.389 . S
C1216 H1189 0.950 . S
C1216 C1202 1.377 . S
C1216 C1215 1.373 . S
C1217 C1201 1.377 . S
C1217 C1215 1.389 . S
C1217 C1218 1.519 1_455 S
C1218 C1217 1.519 1_655 S
C1218 C1219 1.397 . S
C1218 C1223 1.368 . S
C1219 H1190 0.950 1_655 S
C1219 C1218 1.397 . S
C1219 C1220 1.334 . S
C1220 H1191 0.950 . S
C1220 C1219 1.334 . S
C1220 C1221 1.287 . S
C1221 C1220 1.287 . S
C1221 C1222 1.524 . S
C1221 H1224 0.999 . S
C1222 H1192 0.950 . S
C1222 C1221 1.524 . S
C1222 C1223 1.415 . S
C1223 H1193 0.950 . S
C1223 C1218 1.368 . S
C1223 C1222 1.415 . S
H1224 C1221 0.999 . S
H1225 C1206 0.913 . S
H1226 C1244 0.951 . S
H1227 C1246 0.951 . S
H1228 C1248 0.950 . S
H1229 C1249 0.950 . S
H1230 C1251 0.950 . S
H1231 C1254 0.950 . S
H1232 C1255 0.950 . S
H1233 C1257 0.950 . S
H1234 C1258 0.950 . S
H1235 C1259 0.951 . S
H1236 C1261 0.951 . S
H1237 C1263 0.950 . S
H1238 C1264 0.950 . S
H1239 C1266 0.950 . S
H1240 C1269 0.950 . S
H1241 C1270 0.950 . S
H1242 C1272 0.950 . S
H1243 C1273 0.950 . S
C1244 H1226 0.951 . S
C1244 C1245 1.366 . S
C1244 C1246 1.388 . S
C1245 C1244 1.366 . S
C1245 C1249 1.385 . S
C1246 H1227 0.951 . S
C1246 C1244 1.388 . S
C1246 C1247 1.366 . S
C1247 C1246 1.366 . S
C1247 C1248 1.414 . S
C1247 C1250 1.499 . S
C1248 H1228 0.950 . S
C1248 C1247 1.414 . S
C1248 C1249 1.374 . S
C1249 H1229 0.950 . S
C1249 C1245 1.385 . S
C1249 C1248 1.374 . S
C1250 C1247 1.499 . S
C1250 C1251 1.373 . S
C1250 C1252 1.389 . S
C1251 H1230 0.950 . S
C1251 C1250 1.373 . S
C1251 C1267 1.377 . S
C1252 C1250 1.389 . S
C1252 C1253 1.524 . S
C1252 C1266 1.377 . S
C1253 C1252 1.524 . S
C1253 C1254 1.397 . S
C1253 C1258 1.363 . S
C1254 H1231 0.950 . S
C1254 C1253 1.397 . S
C1254 C1255 1.334 . S
C1255 H1232 0.950 . S
C1255 C1254 1.334 . S
C1255 C1256 1.287 . S
C1256 C1255 1.287 . S
C1256 C1257 1.524 . S
C1256 H1275 0.913 . S
C1257 H1233 0.950 . S
C1257 C1256 1.524 . S
C1257 C1258 1.415 . S
C1258 H1234 0.950 . S
C1258 C1253 1.363 . S
C1258 C1257 1.415 . S
C1259 H1235 0.951 . S
C1259 C1260 1.366 . S
C1259 C1261 1.388 . S
C1260 C1259 1.366 . S
C1260 C1264 1.385 . S
C1261 H1236 0.951 . S
C1261 C1259 1.388 . S
C1261 C1262 1.366 . S
C1262 C1261 1.366 . S
C1262 C1263 1.414 . S
C1262 C1265 1.499 . S
C1263 H1237 0.950 . S
C1263 C1262 1.414 . S
C1263 C1264 1.374 . S
C1264 H1238 0.950 . S
C1264 C1260 1.385 . S
C1264 C1263 1.374 . S
C1265 C1262 1.499 . S
C1265 C1266 1.373 . S
C1265 C1267 1.389 . S
C1266 H1239 0.950 . S
C1266 C1252 1.377 . S
C1266 C1265 1.373 . S
C1267 C1251 1.377 . S
C1267 C1265 1.389 . S
C1267 C1268 1.524 . S
C1268 C1267 1.524 . S
C1268 C1269 1.397 . S
C1268 C1273 1.363 . S
C1269 H1240 0.950 . S
C1269 C1268 1.397 . S
C1269 C1270 1.334 . S
C1270 H1241 0.950 . S
C1270 C1269 1.334 . S
C1270 C1271 1.287 . S
C1271 C1270 1.287 . S
C1271 C1272 1.524 . S
C1271 H1274 0.999 . S
C1272 H1242 0.950 . S
C1272 C1271 1.524 . S
C1272 C1273 1.415 . S
C1273 H1243 0.950 . S
C1273 C1268 1.363 . S
C1273 C1272 1.415 . S
H1274 C1271 0.999 . S
H1275 C1256 0.913 . S
H1276 C1294 0.951 . S
H1277 C1296 0.951 . S
H1278 C1298 0.950 . S
H1279 C1299 0.950 . S
H1280 C1301 0.950 . S
H1281 C1304 0.950 . S
H1282 C1305 0.950 . S
H1283 C1307 0.950 . S
H1284 C1308 0.950 . S
H1285 C1309 0.951 . S
H1286 C1311 0.951 . S
H1287 C1313 0.950 . S
H1288 C1314 0.950 . S
H1289 C1316 0.950 . S
H1290 C1319 0.950 . S
H1291 C1320 0.950 . S
H1292 C1322 0.950 . S
H1293 C1323 0.950 . S
C1294 H1276 0.951 . S
C1294 C1295 1.366 . S
C1294 C1296 1.388 . S
C1295 C1294 1.366 . S
C1295 C1299 1.385 . S
C1296 H1277 0.951 . S
C1296 C1294 1.388 . S
C1296 C1297 1.366 . S
C1297 C1296 1.366 . S
C1297 C1298 1.414 . S
C1297 C1300 1.499 . S
C1298 H1278 0.950 . S
C1298 C1297 1.414 . S
C1298 C1299 1.374 . S
C1299 H1279 0.950 . S
C1299 C1295 1.385 . S
C1299 C1298 1.374 . S
C1300 C1297 1.499 . S
C1300 C1301 1.373 . S
C1300 C1302 1.389 . S
C1301 H1280 0.950 . S
C1301 C1300 1.373 . S
C1301 C1317 1.377 . S
C1302 C1300 1.389 . S
C1302 C1303 1.524 . S
C1302 C1316 1.377 . S
C1303 C1302 1.524 . S
C1303 C1304 1.397 . S
C1303 C1308 1.363 . S
C1304 H1281 0.950 . S
C1304 C1303 1.397 . S
C1304 C1305 1.334 . S
C1305 H1282 0.950 . S
C1305 C1304 1.334 . S
C1305 C1306 1.287 . S
C1306 C1305 1.287 . S
C1306 C1307 1.524 . S
C1306 H1325 0.913 . S
C1307 H1283 0.950 . S
C1307 C1306 1.524 . S
C1307 C1308 1.415 . S
C1308 H1284 0.950 . S
C1308 C1303 1.363 . S
C1308 C1307 1.415 . S
C1309 H1285 0.951 . S
C1309 C1310 1.366 . S
C1309 C1311 1.388 . S
C1310 C1309 1.366 . S
C1310 C1314 1.385 . S
C1311 H1286 0.951 . S
C1311 C1309 1.388 . S
C1311 C1312 1.366 . S
C1312 C1311 1.366 . S
C1312 C1313 1.414 . S
C1312 C1315 1.499 . S
C1313 H1287 0.950 . S
C1313 C1312 1.414 . S
C1313 C1314 1.374 . S
C1314 H1288 0.950 . S
C1314 C1310 1.385 . S
C1314 C1313 1.374 . S
C1315 C1312 1.499 . S
C1315 C1316 1.373 . S
C1315 C1317 1.389 . S
C1316 H1289 0.950 . S
C1316 C1302 1.377 . S
C1316 C1315 1.373 . S
C1317 C1301 1.377 . S
C1317 C1315 1.389 . S
C1317 C1318 1.524 . S
C1318 C1317 1.524 . S
C1318 C1319 1.397 . S
C1318 C1323 1.363 . S
C1319 H1290 0.950 . S
C1319 C1318 1.397 . S
C1319 C1320 1.334 . S
C1320 H1291 0.950 . S
C1320 C1319 1.334 . S
C1320 C1321 1.287 . S
C1321 C1320 1.287 . S
C1321 C1322 1.524 . S
C1321 H1324 0.999 . S
C1322 H1292 0.950 . S
C1322 C1321 1.524 . S
C1322 C1323 1.415 . S
C1323 H1293 0.950 . S
C1323 C1318 1.363 . S
C1323 C1322 1.415 . S
H1324 C1321 0.999 . S
H1325 C1306 0.913 . S
H1326 C1344 0.951 . S
H1327 C1346 0.951 . S
H1328 C1348 0.950 . S
H1329 C1349 0.950 . S
H1330 C1351 0.950 . S
H1331 C1354 0.950 . S
H1332 C1355 0.950 . S
H1333 C1357 0.950 . S
H1334 C1358 0.950 . S
H1335 C1359 0.951 . S
H1336 C1361 0.951 . S
H1337 C1363 0.950 . S
H1338 C1364 0.950 . S
H1339 C1366 0.950 . S
H1340 C1369 0.950 . S
H1341 C1370 0.950 . S
H1342 C1372 0.950 . S
H1343 C1373 0.950 . S
C1344 H1326 0.951 . S
C1344 C1345 1.366 . S
C1344 C1346 1.388 . S
C1345 C1344 1.366 . S
C1345 C1349 1.385 . S
C1346 H1327 0.951 . S
C1346 C1344 1.388 . S
C1346 C1347 1.366 . S
C1347 C1346 1.366 . S
C1347 C1348 1.414 . S
C1347 C1350 1.499 . S
C1348 H1328 0.950 . S
C1348 C1347 1.414 . S
C1348 C1349 1.374 . S
C1349 H1329 0.950 . S
C1349 C1345 1.385 . S
C1349 C1348 1.374 . S
C1350 C1347 1.499 . S
C1350 C1351 1.373 . S
C1350 C1352 1.389 . S
C1351 H1330 0.950 . S
C1351 C1350 1.373 . S
C1351 C1367 1.377 . S
C1352 C1350 1.389 . S
C1352 C1353 1.524 . S
C1352 C1366 1.377 . S
C1353 C1352 1.524 . S
C1353 C1354 1.397 . S
C1353 C1358 1.363 . S
C1354 H1331 0.950 . S
C1354 C1353 1.397 . S
C1354 C1355 1.334 . S
C1355 H1332 0.950 . S
C1355 C1354 1.334 . S
C1355 C1356 1.287 . S
C1356 C1355 1.287 . S
C1356 C1357 1.524 . S
C1356 H1375 0.913 . S
C1357 H1333 0.950 . S
C1357 C1356 1.524 . S
C1357 C1358 1.415 . S
C1358 H1334 0.950 . S
C1358 C1353 1.363 . S
C1358 C1357 1.415 . S
C1359 H1335 0.951 . S
C1359 C1360 1.366 . S
C1359 C1361 1.388 . S
C1360 C1359 1.366 . S
C1360 C1364 1.385 . S
C1361 H1336 0.951 . S
C1361 C1359 1.388 . S
C1361 C1362 1.366 . S
C1362 C1361 1.366 . S
C1362 C1363 1.414 . S
C1362 C1365 1.499 . S
C1363 H1337 0.950 . S
C1363 C1362 1.414 . S
C1363 C1364 1.374 . S
C1364 H1338 0.950 . S
C1364 C1360 1.385 . S
C1364 C1363 1.374 . S
C1365 C1362 1.499 . S
C1365 C1366 1.373 . S
C1365 C1367 1.389 . S
C1366 H1339 0.950 . S
C1366 C1352 1.377 . S
C1366 C1365 1.373 . S
C1367 C1351 1.377 . S
C1367 C1365 1.389 . S
C1367 C1368 1.524 . S
C1368 C1367 1.524 . S
C1368 C1369 1.397 . S
C1368 C1373 1.363 . S
C1369 H1340 0.950 . S
C1369 C1368 1.397 . S
C1369 C1370 1.334 . S
C1370 H1341 0.950 . S
C1370 C1369 1.334 . S
C1370 C1371 1.287 . S
C1371 C1370 1.287 . S
C1371 C1372 1.524 . S
C1371 H1374 0.999 . S
C1372 H1342 0.950 . S
C1372 C1371 1.524 . S
C1372 C1373 1.415 . S
C1373 H1343 0.950 . S
C1373 C1368 1.363 . S
C1373 C1372 1.415 . S
H1374 C1371 0.999 . S
H1375 C1356 0.913 . S
H1376 C1394 0.951 . S
H1377 C1396 0.951 . S
H1378 C1398 0.950 . S
H1379 C1399 0.950 . S
H1380 C1401 0.950 . S
H1381 C1404 0.950 . S
H1382 C1405 0.950 . S
H1383 C1407 0.950 . S
H1384 C1408 0.950 . S
H1385 C1409 0.959 . S
H1386 C1411 0.951 . S
H1387 C1413 0.950 . S
H1388 C1414 0.950 . S
H1389 C1416 0.950 1_455 S
H1390 C1419 0.985 . S
H1391 C1420 0.950 . S
H1392 C1422 0.950 . S
H1393 C1423 0.950 . S
C1394 H1376 0.951 . S
C1394 C1395 1.366 . S
C1394 C1396 1.388 . S
C1395 C1394 1.366 . S
C1395 C1399 1.385 . S
C1396 H1377 0.951 . S
C1396 C1394 1.388 . S
C1396 C1397 1.366 . S
C1397 C1396 1.366 . S
C1397 C1398 1.414 . S
C1397 C1400 1.499 . S
C1398 H1378 0.950 . S
C1398 C1397 1.414 . S
C1398 C1399 1.374 . S
C1399 H1379 0.950 . S
C1399 C1395 1.385 . S
C1399 C1398 1.374 . S
C1400 C1397 1.499 . S
C1400 C1401 1.373 . S
C1400 C1402 1.389 . S
C1401 H1380 0.950 . S
C1401 C1400 1.373 . S
C1401 C1417 1.377 . S
C1402 C1400 1.389 . S
C1402 C1403 1.524 . S
C1402 C1416 1.377 . S
C1403 C1402 1.524 . S
C1403 C1404 1.397 . S
C1403 C1408 1.363 1_655 S
C1404 H1381 0.950 . S
C1404 C1403 1.397 . S
C1404 C1405 1.334 . S
C1405 H1382 0.950 . S
C1405 C1404 1.334 . S
C1405 C1406 1.287 . S
C1406 C1405 1.287 . S
C1406 C1407 1.524 1_655 S
C1406 H1425 0.913 . S
C1407 H1383 0.950 . S
C1407 C1406 1.524 1_455 S
C1407 C1408 1.415 . S
C1408 H1384 0.950 . S
C1408 C1403 1.363 1_455 S
C1408 C1407 1.415 . S
C1409 H1385 0.959 . S
C1409 C1410 1.349 1_655 S
C1409 C1411 1.397 . S
C1410 C1409 1.349 1_455 S
C1410 C1414 1.385 . S
C1411 H1386 0.951 . S
C1411 C1409 1.397 . S
C1411 C1412 1.366 1_655 S
C1412 C1411 1.366 1_455 S
C1412 C1413 1.414 . S
C1412 C1415 1.499 1_455 S
C1413 H1387 0.950 . S
C1413 C1412 1.414 . S
C1413 C1414 1.374 . S
C1414 H1388 0.950 . S
C1414 C1410 1.385 . S
C1414 C1413 1.374 . S
C1415 C1412 1.499 1_655 S
C1415 C1416 1.373 . S
C1415 C1417 1.389 . S
C1416 H1389 0.950 1_655 S
C1416 C1402 1.377 . S
C1416 C1415 1.373 . S
C1417 C1401 1.377 . S
C1417 C1415 1.389 . S
C1417 C1418 1.524 . S
C1418 C1417 1.524 . S
C1418 C1419 1.416 1_655 S
C1418 C1423 1.363 1_545 S
C1419 H1390 0.985 . S
C1419 C1418 1.416 1_455 S
C1419 C1420 1.282 1_545 S
C1420 H1391 0.950 . S
C1420 C1419 1.282 1_565 S
C1420 C1421 1.287 1_455 S
C1421 C1420 1.287 1_655 S
C1421 C1422 1.524 . S
C1421 H1424 0.999 . S
C1422 H1392 0.950 . S
C1422 C1421 1.524 . S
C1422 C1423 1.415 . S
C1423 H1393 0.950 . S
C1423 C1418 1.363 1_565 S
C1423 C1422 1.415 . S
H1424 C1421 0.999 . S
H1425 C1406 0.913 . S
H1426 C1444 0.951 . S
H1427 C1446 0.951 . S
H1428 C1448 0.950 . S
H1429 C1449 0.950 . S
H1430 C1451 0.950 . S
H1431 C1454 0.950 . S
H1432 C1455 0.950 . S
H1433 C1457 0.950 . S
H1434 C1458 0.950 . S
H1435 C1459 0.951 . S
H1436 C1461 0.951 . S
H1437 C1463 0.950 . S
H1438 C1464 0.950 . S
H1439 C1466 0.950 . S
H1440 C1469 0.950 . S
H1441 C1470 0.950 . S
H1442 C1472 0.950 . S
H1443 C1473 0.950 . S
C1444 H1426 0.951 . S
C1444 C1445 1.366 . S
C1444 C1446 1.388 . S
C1445 C1444 1.366 . S
C1445 C1449 1.385 . S
C1446 H1427 0.951 . S
C1446 C1444 1.388 . S
C1446 C1447 1.366 . S
C1447 C1446 1.366 . S
C1447 C1448 1.414 . S
C1447 C1450 1.499 . S
C1448 H1428 0.950 . S
C1448 C1447 1.414 . S
C1448 C1449 1.374 . S
C1449 H1429 0.950 . S
C1449 C1445 1.385 . S
C1449 C1448 1.374 . S
C1450 C1447 1.499 . S
C1450 C1451 1.373 . S
C1450 C1452 1.389 . S
C1451 H1430 0.950 . S
C1451 C1450 1.373 . S
C1451 C1467 1.377 . S
C1452 C1450 1.389 . S
C1452 C1453 1.524 . S
C1452 C1466 1.377 . S
C1453 C1452 1.524 . S
C1453 C1454 1.397 . S
C1453 C1458 1.363 . S
C1454 H1431 0.950 . S
C1454 C1453 1.397 . S
C1454 C1455 1.334 . S
C1455 H1432 0.950 . S
C1455 C1454 1.334 . S
C1455 C1456 1.287 . S
C1456 C1455 1.287 . S
C1456 C1457 1.524 . S
C1456 H1475 0.913 . S
C1457 H1433 0.950 . S
C1457 C1456 1.524 . S
C1457 C1458 1.415 . S
C1458 H1434 0.950 . S
C1458 C1453 1.363 . S
C1458 C1457 1.415 . S
C1459 H1435 0.951 . S
C1459 C1460 1.366 . S
C1459 C1461 1.388 . S
C1460 C1459 1.366 . S
C1460 C1464 1.385 . S
C1461 H1436 0.951 . S
C1461 C1459 1.388 . S
C1461 C1462 1.366 . S
C1462 C1461 1.366 . S
C1462 C1463 1.414 . S
C1462 C1465 1.499 . S
C1463 H1437 0.950 . S
C1463 C1462 1.414 . S
C1463 C1464 1.374 . S
C1464 H1438 0.950 . S
C1464 C1460 1.385 . S
C1464 C1463 1.374 . S
C1465 C1462 1.499 . S
C1465 C1466 1.373 . S
C1465 C1467 1.389 . S
C1466 H1439 0.950 . S
C1466 C1452 1.377 . S
C1466 C1465 1.373 . S
C1467 C1451 1.377 . S
C1467 C1465 1.389 . S
C1467 C1468 1.524 . S
C1468 C1467 1.524 . S
C1468 C1469 1.397 . S
C1468 C1473 1.363 . S
C1469 H1440 0.950 . S
C1469 C1468 1.397 . S
C1469 C1470 1.334 . S
C1470 H1441 0.950 . S
C1470 C1469 1.334 . S
C1470 C1471 1.287 . S
C1471 C1470 1.287 . S
C1471 C1472 1.524 . S
C1471 H1474 0.999 . S
C1472 H1442 0.950 . S
C1472 C1471 1.524 . S
C1472 C1473 1.415 . S
C1473 H1443 0.950 . S
C1473 C1468 1.363 . S
C1473 C1472 1.415 . S
H1474 C1471 0.999 . S
H1475 C1456 0.913 . S
H1476 C1494 0.951 . S
H1477 C1496 0.951 . S
H1478 C1498 0.950 . S
H1479 C1499 0.950 . S
H1480 C1501 0.950 . S
H1481 C1504 0.950 . S
H1482 C1505 0.950 . S
H1483 C1507 0.950 . S
H1484 C1508 0.950 . S
H1485 C1509 0.951 . S
H1486 C1511 0.951 . S
H1487 C1513 0.950 . S
H1488 C1514 0.950 . S
H1489 C1516 0.950 . S
H1490 C1519 0.950 . S
H1491 C1520 0.950 . S
H1492 C1522 0.950 . S
H1493 C1523 0.950 . S
C1494 H1476 0.951 . S
C1494 C1495 1.366 . S
C1494 C1496 1.388 . S
C1495 C1494 1.366 . S
C1495 C1499 1.385 . S
C1496 H1477 0.951 . S
C1496 C1494 1.388 . S
C1496 C1497 1.366 . S
C1497 C1496 1.366 . S
C1497 C1498 1.414 . S
C1497 C1500 1.499 . S
C1498 H1478 0.950 . S
C1498 C1497 1.414 . S
C1498 C1499 1.374 . S
C1499 H1479 0.950 . S
C1499 C1495 1.385 . S
C1499 C1498 1.374 . S
C1500 C1497 1.499 . S
C1500 C1501 1.373 . S
C1500 C1502 1.389 . S
C1501 H1480 0.950 . S
C1501 C1500 1.373 . S
C1501 C1517 1.377 . S
C1502 C1500 1.389 . S
C1502 C1503 1.524 . S
C1502 C1516 1.377 . S
C1503 C1502 1.524 . S
C1503 C1504 1.397 . S
C1503 C1508 1.363 . S
C1504 H1481 0.950 . S
C1504 C1503 1.397 . S
C1504 C1505 1.334 . S
C1505 H1482 0.950 . S
C1505 C1504 1.334 . S
C1505 C1506 1.287 . S
C1506 C1505 1.287 . S
C1506 C1507 1.524 . S
C1506 H1525 0.913 . S
C1507 H1483 0.950 . S
C1507 C1506 1.524 . S
C1507 C1508 1.415 . S
C1508 H1484 0.950 . S
C1508 C1503 1.363 . S
C1508 C1507 1.415 . S
C1509 H1485 0.951 . S
C1509 C1510 1.366 . S
C1509 C1511 1.388 . S
C1510 C1509 1.366 . S
C1510 C1514 1.385 . S
C1511 H1486 0.951 . S
C1511 C1509 1.388 . S
C1511 C1512 1.366 . S
C1512 C1511 1.366 . S
C1512 C1513 1.414 . S
C1512 C1515 1.499 . S
C1513 H1487 0.950 . S
C1513 C1512 1.414 . S
C1513 C1514 1.374 . S
C1514 H1488 0.950 . S
C1514 C1510 1.385 . S
C1514 C1513 1.374 . S
C1515 C1512 1.499 . S
C1515 C1516 1.373 . S
C1515 C1517 1.389 . S
C1516 H1489 0.950 . S
C1516 C1502 1.377 . S
C1516 C1515 1.373 . S
C1517 C1501 1.377 . S
C1517 C1515 1.389 . S
C1517 C1518 1.524 . S
C1518 C1517 1.524 . S
C1518 C1519 1.397 . S
C1518 C1523 1.363 . S
C1519 H1490 0.950 . S
C1519 C1518 1.397 . S
C1519 C1520 1.334 . S
C1520 H1491 0.950 . S
C1520 C1519 1.334 . S
C1520 C1521 1.287 . S
C1521 C1520 1.287 . S
C1521 C1522 1.524 . S
C1521 H1524 0.999 . S
C1522 H1492 0.950 . S
C1522 C1521 1.524 . S
C1522 C1523 1.415 . S
C1523 H1493 0.950 . S
C1523 C1518 1.363 . S
C1523 C1522 1.415 . S
H1524 C1521 0.999 . S
H1525 C1506 0.913 . S
H1526 C1544 0.951 . S
H1527 C1546 0.951 . S
H1528 C1548 0.950 . S
H1529 C1549 0.950 . S
H1530 C1551 0.950 . S
H1531 C1554 0.950 . S
H1532 C1555 0.950 . S
H1533 C1557 0.950 . S
H1534 C1558 0.950 . S
H1535 C1559 0.951 . S
H1536 C1561 0.951 . S
H1537 C1563 0.950 . S
H1538 C1564 0.950 . S
H1539 C1566 0.950 . S
H1540 C1569 0.950 . S
H1541 C1570 0.950 . S
H1542 C1572 0.950 . S
H1543 C1573 0.950 . S
C1544 H1526 0.951 . S
C1544 C1545 1.366 . S
C1544 C1546 1.388 . S
C1545 C1544 1.366 . S
C1545 C1549 1.385 . S
C1546 H1527 0.951 . S
C1546 C1544 1.388 . S
C1546 C1547 1.366 . S
C1547 C1546 1.366 . S
C1547 C1548 1.414 . S
C1547 C1550 1.499 . S
C1548 H1528 0.950 . S
C1548 C1547 1.414 . S
C1548 C1549 1.374 . S
C1549 H1529 0.950 . S
C1549 C1545 1.385 . S
C1549 C1548 1.374 . S
C1550 C1547 1.499 . S
C1550 C1551 1.373 . S
C1550 C1552 1.389 . S
C1551 H1530 0.950 . S
C1551 C1550 1.373 . S
C1551 C1567 1.377 . S
C1552 C1550 1.389 . S
C1552 C1553 1.524 . S
C1552 C1566 1.377 . S
C1553 C1552 1.524 . S
C1553 C1554 1.397 . S
C1553 C1558 1.363 . S
C1554 H1531 0.950 . S
C1554 C1553 1.397 . S
C1554 C1555 1.334 . S
C1555 H1532 0.950 . S
C1555 C1554 1.334 . S
C1555 C1556 1.287 . S
C1556 C1555 1.287 . S
C1556 C1557 1.524 . S
C1556 H1575 0.913 . S
C1557 H1533 0.950 . S
C1557 C1556 1.524 . S
C1557 C1558 1.415 . S
C1558 H1534 0.950 . S
C1558 C1553 1.363 . S
C1558 C1557 1.415 . S
C1559 H1535 0.951 . S
C1559 C1560 1.366 . S
C1559 C1561 1.388 . S
C1560 C1559 1.366 . S
C1560 C1564 1.385 . S
C1561 H1536 0.951 . S
C1561 C1559 1.388 . S
C1561 C1562 1.366 . S
C1562 C1561 1.366 . S
C1562 C1563 1.414 . S
C1562 C1565 1.499 . S
C1563 H1537 0.950 . S
C1563 C1562 1.414 . S
C1563 C1564 1.374 . S
C1564 H1538 0.950 . S
C1564 C1560 1.385 . S
C1564 C1563 1.374 . S
C1565 C1562 1.499 . S
C1565 C1566 1.373 . S
C1565 C1567 1.389 . S
C1566 H1539 0.950 . S
C1566 C1552 1.377 . S
C1566 C1565 1.373 . S
C1567 C1551 1.377 . S
C1567 C1565 1.389 . S
C1567 C1568 1.524 . S
C1568 C1567 1.524 . S
C1568 C1569 1.397 . S
C1568 C1573 1.363 . S
C1569 H1540 0.950 . S
C1569 C1568 1.397 . S
C1569 C1570 1.334 . S
C1570 H1541 0.950 . S
C1570 C1569 1.334 . S
C1570 C1571 1.287 . S
C1571 C1570 1.287 . S
C1571 C1572 1.524 . S
C1571 H1574 0.999 . S
C1572 H1542 0.950 . S
C1572 C1571 1.524 . S
C1572 C1573 1.415 . S
C1573 H1543 0.950 . S
C1573 C1568 1.363 . S
C1573 C1572 1.415 . S
H1574 C1571 0.999 . S
H1575 C1556 0.913 . S
H1576 C1594 0.951 . S
H1577 C1596 0.951 . S
H1578 C1598 0.950 . S
H1579 C1599 0.950 . S
H1580 C1601 0.945 1_455 S
H1581 C1604 0.950 . S
H1582 C1605 0.950 . S
H1583 C1607 0.950 . S
H1584 C1608 0.950 . S
H1585 C1609 0.951 . S
H1586 C1611 0.951 . S
H1587 C1613 0.950 . S
H1588 C1614 0.950 . S
H1589 C1616 0.950 . S
H1590 C1619 0.950 . S
H1591 C1620 0.950 1_565 S
H1592 C1622 0.950 . S
H1593 C1623 0.950 . S
C1594 H1576 0.951 . S
C1594 C1595 1.366 . S
C1594 C1596 1.388 . S
C1595 C1594 1.366 . S
C1595 C1599 1.385 . S
C1596 H1577 0.951 . S
C1596 C1594 1.388 . S
C1596 C1597 1.366 . S
C1597 C1596 1.366 . S
C1597 C1598 1.414 . S
C1597 C1600 1.499 . S
C1598 H1578 0.950 . S
C1598 C1597 1.414 . S
C1598 C1599 1.374 . S
C1599 H1579 0.950 . S
C1599 C1595 1.385 . S
C1599 C1598 1.374 . S
C1600 C1597 1.499 . S
C1600 C1601 1.381 . S
C1600 C1602 1.389 . S
C1601 H1580 0.945 1_655 S
C1601 C1600 1.381 . S
C1601 C1617 1.374 1_655 S
C1602 C1600 1.389 . S
C1602 C1603 1.524 . S
C1602 C1616 1.377 . S
C1603 C1602 1.524 . S
C1603 C1604 1.397 . S
C1603 C1608 1.363 . S
C1604 H1581 0.950 . S
C1604 C1603 1.397 . S
C1604 C1605 1.334 . S
C1605 H1582 0.950 . S
C1605 C1604 1.334 . S
C1605 C1606 1.287 . S
C1606 C1605 1.287 . S
C1606 C1607 1.524 . S
C1606 H1625 0.913 . S
C1607 H1583 0.950 . S
C1607 C1606 1.524 . S
C1607 C1608 1.415 . S
C1608 H1584 0.950 . S
C1608 C1603 1.363 . S
C1608 C1607 1.415 . S
C1609 H1585 0.951 . S
C1609 C1610 1.366 . S
C1609 C1611 1.388 . S
C1610 C1609 1.366 . S
C1610 C1614 1.385 1_455 S
C1611 H1586 0.951 . S
C1611 C1609 1.388 . S
C1611 C1612 1.366 . S
C1612 C1611 1.366 . S
C1612 C1613 1.414 1_455 S
C1612 C1615 1.499 1_455 S
C1613 H1587 0.950 . S
C1613 C1612 1.414 1_655 S
C1613 C1614 1.374 . S
C1614 H1588 0.950 . S
C1614 C1610 1.385 1_655 S
C1614 C1613 1.374 . S
C1615 C1612 1.499 1_655 S
C1615 C1616 1.373 . S
C1615 C1617 1.389 1_655 S
C1616 H1589 0.950 . S
C1616 C1602 1.377 . S
C1616 C1615 1.373 . S
C1617 C1601 1.374 1_455 S
C1617 C1615 1.389 1_455 S
C1617 C1618 1.524 . S
C1618 C1617 1.524 . S
C1618 C1619 1.397 . S
C1618 C1623 1.363 . S
C1619 H1590 0.950 . S
C1619 C1618 1.397 . S
C1619 C1620 1.334 . S
C1620 H1591 0.950 1_545 S
C1620 C1619 1.334 . S
C1620 C1621 1.287 . S
C1621 C1620 1.287 . S
C1621 C1622 1.524 . S
C1621 H1624 0.999 . S
C1622 H1592 0.950 . S
C1622 C1621 1.524 . S
C1622 C1623 1.415 . S
C1623 H1593 0.950 . S
C1623 C1618 1.363 . S
C1623 C1622 1.415 . S
H1624 C1621 0.999 . S
H1625 C1606 0.913 . S
H1626 C1644 0.951 . S
H1627 C1646 0.951 . S
H1628 C1648 0.950 . S
H1629 C1649 0.950 . S
H1630 C1651 0.950 . S
H1631 C1654 0.950 . S
H1632 C1655 0.950 . S
H1633 C1657 0.950 . S
H1634 C1658 0.950 . S
H1635 C1659 0.951 . S
H1636 C1661 0.951 . S
H1637 C1663 0.950 . S
H1638 C1664 0.950 . S
H1639 C1666 0.950 . S
H1640 C1669 0.950 . S
H1641 C1670 0.950 . S
H1642 C1672 0.950 . S
H1643 C1673 0.950 . S
C1644 H1626 0.951 . S
C1644 C1645 1.366 . S
C1644 C1646 1.388 . S
C1645 C1644 1.366 . S
C1645 C1649 1.385 . S
C1646 H1627 0.951 . S
C1646 C1644 1.388 . S
C1646 C1647 1.366 . S
C1647 C1646 1.366 . S
C1647 C1648 1.414 . S
C1647 C1650 1.499 . S
C1648 H1628 0.950 . S
C1648 C1647 1.414 . S
C1648 C1649 1.374 . S
C1649 H1629 0.950 . S
C1649 C1645 1.385 . S
C1649 C1648 1.374 . S
C1650 C1647 1.499 . S
C1650 C1651 1.373 . S
C1650 C1652 1.389 . S
C1651 H1630 0.950 . S
C1651 C1650 1.373 . S
C1651 C1667 1.377 . S
C1652 C1650 1.389 . S
C1652 C1653 1.524 . S
C1652 C1666 1.377 . S
C1653 C1652 1.524 . S
C1653 C1654 1.397 . S
C1653 C1658 1.363 . S
C1654 H1631 0.950 . S
C1654 C1653 1.397 . S
C1654 C1655 1.334 . S
C1655 H1632 0.950 . S
C1655 C1654 1.334 . S
C1655 C1656 1.287 . S
C1656 C1655 1.287 . S
C1656 C1657 1.524 . S
C1656 H1675 0.913 . S
C1657 H1633 0.950 . S
C1657 C1656 1.524 . S
C1657 C1658 1.415 . S
C1658 H1634 0.950 . S
C1658 C1653 1.363 . S
C1658 C1657 1.415 . S
C1659 H1635 0.951 . S
C1659 C1660 1.366 . S
C1659 C1661 1.388 . S
C1660 C1659 1.366 . S
C1660 C1664 1.385 . S
C1661 H1636 0.951 . S
C1661 C1659 1.388 . S
C1661 C1662 1.366 . S
C1662 C1661 1.366 . S
C1662 C1663 1.414 . S
C1662 C1665 1.499 . S
C1663 H1637 0.950 . S
C1663 C1662 1.414 . S
C1663 C1664 1.374 . S
C1664 H1638 0.950 . S
C1664 C1660 1.385 . S
C1664 C1663 1.374 . S
C1665 C1662 1.499 . S
C1665 C1666 1.373 . S
C1665 C1667 1.389 . S
C1666 H1639 0.950 . S
C1666 C1652 1.377 . S
C1666 C1665 1.373 . S
C1667 C1651 1.377 . S
C1667 C1665 1.389 . S
C1667 C1668 1.524 . S
C1668 C1667 1.524 . S
C1668 C1669 1.397 . S
C1668 C1673 1.363 . S
C1669 H1640 0.950 . S
C1669 C1668 1.397 . S
C1669 C1670 1.334 . S
C1670 H1641 0.950 . S
C1670 C1669 1.334 . S
C1670 C1671 1.287 . S
C1671 C1670 1.287 . S
C1671 C1672 1.524 . S
C1671 H1674 0.999 . S
C1672 H1642 0.950 . S
C1672 C1671 1.524 . S
C1672 C1673 1.415 . S
C1673 H1643 0.950 . S
C1673 C1668 1.363 . S
C1673 C1672 1.415 . S
H1674 C1671 0.999 . S
H1675 C1656 0.913 . S
H1676 C1694 0.951 . S
H1677 C1696 0.951 . S
H1678 C1698 0.950 . S
H1679 C1699 0.950 . S
H1680 C1701 0.950 . S
H1681 C1704 0.950 . S
H1682 C1705 0.950 . S
H1683 C1707 0.950 . S
H1684 C1708 0.950 . S
H1685 C1709 0.951 . S
H1686 C1711 0.951 . S
H1687 C1713 0.950 . S
H1688 C1714 0.950 . S
H1689 C1716 0.950 . S
H1690 C1719 0.950 . S
H1691 C1720 0.950 . S
H1692 C1722 0.950 1_565 S
H1693 C1723 0.950 . S
C1694 H1676 0.951 . S
C1694 C1695 1.366 . S
C1694 C1696 1.388 . S
C1695 C1694 1.366 . S
C1695 C1699 1.385 . S
C1696 H1677 0.951 . S
C1696 C1694 1.388 . S
C1696 C1697 1.366 . S
C1697 C1696 1.366 . S
C1697 C1698 1.414 . S
C1697 C1700 1.499 . S
C1698 H1678 0.950 . S
C1698 C1697 1.414 . S
C1698 C1699 1.374 . S
C1699 H1679 0.950 . S
C1699 C1695 1.385 . S
C1699 C1698 1.374 . S
C1700 C1697 1.499 . S
C1700 C1701 1.373 . S
C1700 C1702 1.389 . S
C1701 H1680 0.950 . S
C1701 C1700 1.373 . S
C1701 C1717 1.377 . S
C1702 C1700 1.389 . S
C1702 C1703 1.524 . S
C1702 C1716 1.377 . S
C1703 C1702 1.524 . S
C1703 C1704 1.397 . S
C1703 C1708 1.363 . S
C1704 H1681 0.950 . S
C1704 C1703 1.397 . S
C1704 C1705 1.334 . S
C1705 H1682 0.950 . S
C1705 C1704 1.334 . S
C1705 C1706 1.287 . S
C1706 C1705 1.287 . S
C1706 C1707 1.524 . S
C1706 H1725 0.913 . S
C1707 H1683 0.950 . S
C1707 C1706 1.524 . S
C1707 C1708 1.415 . S
C1708 H1684 0.950 . S
C1708 C1703 1.363 . S
C1708 C1707 1.415 . S
C1709 H1685 0.951 . S
C1709 C1710 1.366 . S
C1709 C1711 1.388 . S
C1710 C1709 1.366 . S
C1710 C1714 1.385 . S
C1711 H1686 0.951 . S
C1711 C1709 1.388 . S
C1711 C1712 1.366 . S
C1712 C1711 1.366 . S
C1712 C1713 1.414 . S
C1712 C1715 1.499 . S
C1713 H1687 0.950 . S
C1713 C1712 1.414 . S
C1713 C1714 1.374 . S
C1714 H1688 0.950 . S
C1714 C1710 1.385 . S
C1714 C1713 1.374 . S
C1715 C1712 1.499 . S
C1715 C1716 1.373 . S
C1715 C1717 1.389 . S
C1716 H1689 0.950 . S
C1716 C1702 1.377 . S
C1716 C1715 1.373 . S
C1717 C1701 1.377 . S
C1717 C1715 1.389 . S
C1717 C1718 1.524 . S
C1718 C1717 1.524 . S
C1718 C1719 1.397 . S
C1718 C1723 1.363 . S
C1719 H1690 0.950 . S
C1719 C1718 1.397 . S
C1719 C1720 1.334 . S
C1720 H1691 0.950 . S
C1720 C1719 1.334 . S
C1720 C1721 1.287 . S
C1721 C1720 1.287 . S
C1721 C1722 1.524 . S
C1721 H1724 0.999 1_545 S
C1722 H1692 0.950 1_545 S
C1722 C1721 1.524 . S
C1722 C1723 1.415 . S
C1723 H1693 0.950 . S
C1723 C1718 1.363 . S
C1723 C1722 1.415 . S
H1724 C1721 0.999 1_565 S
H1725 C1706 0.913 . S
H1726 C1744 0.951 . S
H1727 C1746 0.951 . S
H1728 C1748 0.950 . S
H1729 C1749 0.950 . S
H1730 C1751 0.950 . S
H1731 C1754 0.950 . S
H1732 C1755 0.950 . S
H1733 C1757 0.950 . S
H1734 C1758 0.950 . S
H1735 C1759 0.951 . S
H1736 C1761 0.951 . S
H1737 C1763 0.950 . S
H1738 C1764 0.950 . S
H1739 C1766 0.950 . S
H1740 C1769 0.950 . S
H1741 C1770 0.950 . S
H1742 C1772 0.950 . S
H1743 C1773 0.950 . S
C1744 H1726 0.951 . S
C1744 C1745 1.366 . S
C1744 C1746 1.388 . S
C1745 C1744 1.366 . S
C1745 C1749 1.385 . S
C1746 H1727 0.951 . S
C1746 C1744 1.388 . S
C1746 C1747 1.366 . S
C1747 C1746 1.366 . S
C1747 C1748 1.414 . S
C1747 C1750 1.499 . S
C1748 H1728 0.950 . S
C1748 C1747 1.414 . S
C1748 C1749 1.374 . S
C1749 H1729 0.950 . S
C1749 C1745 1.385 . S
C1749 C1748 1.374 . S
C1750 C1747 1.499 . S
C1750 C1751 1.373 . S
C1750 C1752 1.389 . S
C1751 H1730 0.950 . S
C1751 C1750 1.373 . S
C1751 C1767 1.377 . S
C1752 C1750 1.389 . S
C1752 C1753 1.524 . S
C1752 C1766 1.377 . S
C1753 C1752 1.524 . S
C1753 C1754 1.397 . S
C1753 C1758 1.363 . S
C1754 H1731 0.950 . S
C1754 C1753 1.397 . S
C1754 C1755 1.334 . S
C1755 H1732 0.950 . S
C1755 C1754 1.334 . S
C1755 C1756 1.287 . S
C1756 C1755 1.287 . S
C1756 C1757 1.524 . S
C1756 H1775 0.913 . S
C1757 H1733 0.950 . S
C1757 C1756 1.524 . S
C1757 C1758 1.415 . S
C1758 H1734 0.950 . S
C1758 C1753 1.363 . S
C1758 C1757 1.415 . S
C1759 H1735 0.951 . S
C1759 C1760 1.366 . S
C1759 C1761 1.388 . S
C1760 C1759 1.366 . S
C1760 C1764 1.385 . S
C1761 H1736 0.951 . S
C1761 C1759 1.388 . S
C1761 C1762 1.366 . S
C1762 C1761 1.366 . S
C1762 C1763 1.414 . S
C1762 C1765 1.499 . S
C1763 H1737 0.950 . S
C1763 C1762 1.414 . S
C1763 C1764 1.374 . S
C1764 H1738 0.950 . S
C1764 C1760 1.385 . S
C1764 C1763 1.374 . S
C1765 C1762 1.499 . S
C1765 C1766 1.373 . S
C1765 C1767 1.389 . S
C1766 H1739 0.950 . S
C1766 C1752 1.377 . S
C1766 C1765 1.373 . S
C1767 C1751 1.377 . S
C1767 C1765 1.389 . S
C1767 C1768 1.524 . S
C1768 C1767 1.524 . S
C1768 C1769 1.397 . S
C1768 C1773 1.363 . S
C1769 H1740 0.950 . S
C1769 C1768 1.397 . S
C1769 C1770 1.334 . S
C1770 H1741 0.950 . S
C1770 C1769 1.334 . S
C1770 C1771 1.287 . S
C1771 C1770 1.287 . S
C1771 C1772 1.524 . S
C1771 H1774 0.999 . S
C1772 H1742 0.950 . S
C1772 C1771 1.524 . S
C1772 C1773 1.415 . S
C1773 H1743 0.950 . S
C1773 C1768 1.363 . S
C1773 C1772 1.415 . S
H1774 C1771 0.999 . S
H1775 C1756 0.913 . S
H1776 C1794 0.951 . S
H1777 C1796 0.946 1_556 S
H1778 C1798 0.950 . S
H1779 C1799 0.950 . S
H1780 C1801 0.950 . S
H1781 C1804 0.950 . S
H1782 C1805 0.950 . S
H1783 C1807 0.950 . S
H1784 C1808 0.950 . S
H1785 C1809 0.951 . S
H1786 C1811 0.951 . S
H1787 C1813 0.950 . S
H1788 C1814 0.950 . S
H1789 C1816 0.950 . S
H1790 C1819 0.963 . S
H1791 C1820 0.950 . S
H1792 C1822 0.950 . S
H1793 C1823 0.950 . S
C1794 H1776 0.951 . S
C1794 C1795 1.350 1_556 S
C1794 C1796 1.388 1_556 S
C1795 C1794 1.350 1_554 S
C1795 C1799 1.418 . S
C1796 H1777 0.946 1_554 S
C1796 C1794 1.388 1_554 S
C1796 C1797 1.366 . S
C1797 C1796 1.366 . S
C1797 C1798 1.414 . S
C1797 C1800 1.499 . S
C1798 H1778 0.950 . S
C1798 C1797 1.414 . S
C1798 C1799 1.374 . S
C1799 H1779 0.950 . S
C1799 C1795 1.418 . S
C1799 C1798 1.374 . S
C1800 C1797 1.499 . S
C1800 C1801 1.373 . S
C1800 C1802 1.389 . S
C1801 H1780 0.950 . S
C1801 C1800 1.373 . S
C1801 C1817 1.377 . S
C1802 C1800 1.389 . S
C1802 C1803 1.524 . S
C1802 C1816 1.377 . S
C1803 C1802 1.524 . S
C1803 C1804 1.397 . S
C1803 C1808 1.363 1_565 S
C1804 H1781 0.950 . S
C1804 C1803 1.397 . S
C1804 C1805 1.334 . S
C1805 H1782 0.950 . S
C1805 C1804 1.334 . S
C1805 C1806 1.292 1_565 S
C1806 C1805 1.292 1_545 S
C1806 C1807 1.520 . S
C1806 H1825 0.913 . S
C1807 H1783 0.950 . S
C1807 C1806 1.520 . S
C1807 C1808 1.415 . S
C1808 H1784 0.950 . S
C1808 C1803 1.363 1_545 S
C1808 C1807 1.415 . S
C1809 H1785 0.951 . S
C1809 C1810 1.366 1_565 S
C1809 C1811 1.388 . S
C1810 C1809 1.366 1_545 S
C1810 C1814 1.385 . S
C1811 H1786 0.951 . S
C1811 C1809 1.388 . S
C1811 C1812 1.366 . S
C1812 C1811 1.366 . S
C1812 C1813 1.414 1_565 S
C1812 C1815 1.499 . S
C1813 H1787 0.950 . S
C1813 C1812 1.414 1_545 S
C1813 C1814 1.374 . S
C1814 H1788 0.950 . S
C1814 C1810 1.385 . S
C1814 C1813 1.374 . S
C1815 C1812 1.499 . S
C1815 C1816 1.373 . S
C1815 C1817 1.389 . S
C1816 H1789 0.950 . S
C1816 C1802 1.377 . S
C1816 C1815 1.373 . S
C1817 C1801 1.377 . S
C1817 C1815 1.389 . S
C1817 C1818 1.524 . S
C1818 C1817 1.524 . S
C1818 C1819 1.376 1_554 S
C1818 C1823 1.363 . S
C1819 H1790 0.963 . S
C1819 C1818 1.376 1_556 S
C1819 C1820 1.343 . S
C1820 H1791 0.950 . S
C1820 C1819 1.343 . S
C1820 C1821 1.287 . S
C1821 C1820 1.287 . S
C1821 C1822 1.524 1_556 S
C1821 H1824 0.999 . S
C1822 H1792 0.950 . S
C1822 C1821 1.524 1_554 S
C1822 C1823 1.415 . S
C1823 H1793 0.950 . S
C1823 C1818 1.363 . S
C1823 C1822 1.415 . S
H1824 C1821 0.999 . S
H1825 C1806 0.913 . S
H1826 C1844 0.951 . S
H1827 C1846 0.951 . S
H1828 C1848 0.950 . S
H1829 C1849 0.950 . S
H1830 C1851 0.984 . S
H1831 C1854 0.950 . S
H1832 C1855 0.950 . S
H1833 C1857 0.950 . S
H1834 C1858 0.950 . S
H1835 C1859 0.951 . S
H1836 C1861 0.951 . S
H1837 C1863 0.950 . S
H1838 C1864 0.950 . S
H1839 C1866 0.950 . S
H1840 C1869 0.950 . S
H1841 C1870 0.950 . S
H1842 C1872 0.950 . S
H1843 C1873 0.950 . S
C1844 H1826 0.951 . S
C1844 C1845 1.366 . S
C1844 C1846 1.388 . S
C1845 C1844 1.366 . S
C1845 C1849 1.385 . S
C1846 H1827 0.951 . S
C1846 C1844 1.388 . S
C1846 C1847 1.366 . S
C1847 C1846 1.366 . S
C1847 C1848 1.414 . S
C1847 C1850 1.499 . S
C1848 H1828 0.950 . S
C1848 C1847 1.414 . S
C1848 C1849 1.374 . S
C1849 H1829 0.950 . S
C1849 C1845 1.385 . S
C1849 C1848 1.374 . S
C1850 C1847 1.499 . S
C1850 C1851 1.346 1_554 S
C1850 C1852 1.389 . S
C1851 H1830 0.984 . S
C1851 C1850 1.346 1_556 S
C1851 C1867 1.372 . S
C1852 C1850 1.389 . S
C1852 C1853 1.524 . S
C1852 C1866 1.377 . S
C1853 C1852 1.524 . S
C1853 C1854 1.397 . S
C1853 C1858 1.363 . S
C1854 H1831 0.950 . S
C1854 C1853 1.397 . S
C1854 C1855 1.334 . S
C1855 H1832 0.950 . S
C1855 C1854 1.334 . S
C1855 C1856 1.287 . S
C1856 C1855 1.287 . S
C1856 C1857 1.524 . S
C1856 H1875 0.913 . S
C1857 H1833 0.950 . S
C1857 C1856 1.524 . S
C1857 C1858 1.415 . S
C1858 H1834 0.950 . S
C1858 C1853 1.363 . S
C1858 C1857 1.415 . S
C1859 H1835 0.951 . S
C1859 C1860 1.366 . S
C1859 C1861 1.388 . S
C1860 C1859 1.366 . S
C1860 C1864 1.385 . S
C1861 H1836 0.951 . S
C1861 C1859 1.388 . S
C1861 C1862 1.366 . S
C1862 C1861 1.366 . S
C1862 C1863 1.414 . S
C1862 C1865 1.499 . S
C1863 H1837 0.950 . S
C1863 C1862 1.414 . S
C1863 C1864 1.374 . S
C1864 H1838 0.950 . S
C1864 C1860 1.385 . S
C1864 C1863 1.374 . S
C1865 C1862 1.499 . S
C1865 C1866 1.373 . S
C1865 C1867 1.389 1_554 S
C1866 H1839 0.950 . S
C1866 C1852 1.377 . S
C1866 C1865 1.373 . S
C1867 C1851 1.372 . S
C1867 C1865 1.389 1_556 S
C1867 C1868 1.524 . S
C1868 C1867 1.524 . S
C1868 C1869 1.397 . S
C1868 C1873 1.363 . S
C1869 H1840 0.950 . S
C1869 C1868 1.397 . S
C1869 C1870 1.334 . S
C1870 H1841 0.950 . S
C1870 C1869 1.334 . S
C1870 C1871 1.287 . S
C1871 C1870 1.287 . S
C1871 C1872 1.524 . S
C1871 H1874 0.999 . S
C1872 H1842 0.950 . S
C1872 C1871 1.524 . S
C1872 C1873 1.415 . S
C1873 H1843 0.950 . S
C1873 C1868 1.363 . S
C1873 C1872 1.415 . S
H1874 C1871 0.999 . S
H1875 C1856 0.913 . S
H1876 C1894 0.951 . S
H1877 C1896 0.951 . S
H1878 C1898 0.950 . S
H1879 C1899 0.950 . S
H1880 C1901 0.950 . S
H1881 C1904 0.950 . S
H1882 C1905 0.950 . S
H1883 C1907 0.950 . S
H1884 C1908 0.950 . S
H1885 C1909 0.951 . S
H1886 C1911 0.951 . S
H1887 C1913 0.950 . S
H1888 C1914 0.950 . S
H1889 C1916 0.950 . S
H1890 C1919 0.950 . S
H1891 C1920 0.950 . S
H1892 C1922 0.950 . S
H1893 C1923 0.950 . S
C1894 H1876 0.951 . S
C1894 C1895 1.366 . S
C1894 C1896 1.388 . S
C1895 C1894 1.366 . S
C1895 C1899 1.385 . S
C1896 H1877 0.951 . S
C1896 C1894 1.388 . S
C1896 C1897 1.366 . S
C1897 C1896 1.366 . S
C1897 C1898 1.414 . S
C1897 C1900 1.499 . S
C1898 H1878 0.950 . S
C1898 C1897 1.414 . S
C1898 C1899 1.374 . S
C1899 H1879 0.950 . S
C1899 C1895 1.385 . S
C1899 C1898 1.374 . S
C1900 C1897 1.499 . S
C1900 C1901 1.373 . S
C1900 C1902 1.389 . S
C1901 H1880 0.950 . S
C1901 C1900 1.373 . S
C1901 C1917 1.377 . S
C1902 C1900 1.389 . S
C1902 C1903 1.524 . S
C1902 C1916 1.377 . S
C1903 C1902 1.524 . S
C1903 C1904 1.397 . S
C1903 C1908 1.363 . S
C1904 H1881 0.950 . S
C1904 C1903 1.397 . S
C1904 C1905 1.334 . S
C1905 H1882 0.950 . S
C1905 C1904 1.334 . S
C1905 C1906 1.287 . S
C1906 C1905 1.287 . S
C1906 C1907 1.524 . S
C1906 H1925 0.913 . S
C1907 H1883 0.950 . S
C1907 C1906 1.524 . S
C1907 C1908 1.415 . S
C1908 H1884 0.950 . S
C1908 C1903 1.363 . S
C1908 C1907 1.415 . S
C1909 H1885 0.951 . S
C1909 C1910 1.366 . S
C1909 C1911 1.388 . S
C1910 C1909 1.366 . S
C1910 C1914 1.385 . S
C1911 H1886 0.951 . S
C1911 C1909 1.388 . S
C1911 C1912 1.366 . S
C1912 C1911 1.366 . S
C1912 C1913 1.414 . S
C1912 C1915 1.499 . S
C1913 H1887 0.950 . S
C1913 C1912 1.414 . S
C1913 C1914 1.374 . S
C1914 H1888 0.950 . S
C1914 C1910 1.385 . S
C1914 C1913 1.374 . S
C1915 C1912 1.499 . S
C1915 C1916 1.373 . S
C1915 C1917 1.389 . S
C1916 H1889 0.950 . S
C1916 C1902 1.377 . S
C1916 C1915 1.373 . S
C1917 C1901 1.377 . S
C1917 C1915 1.389 . S
C1917 C1918 1.524 . S
C1918 C1917 1.524 . S
C1918 C1919 1.397 . S
C1918 C1923 1.363 . S
C1919 H1890 0.950 . S
C1919 C1918 1.397 . S
C1919 C1920 1.334 . S
C1920 H1891 0.950 . S
C1920 C1919 1.334 . S
C1920 C1921 1.287 . S
C1921 C1920 1.287 . S
C1921 C1922 1.524 . S
C1921 H1924 0.999 . S
C1922 H1892 0.950 . S
C1922 C1921 1.524 . S
C1922 C1923 1.415 . S
C1923 H1893 0.950 . S
C1923 C1918 1.363 . S
C1923 C1922 1.415 . S
H1924 C1921 0.999 . S
H1925 C1906 0.913 . S
H1926 C1944 0.951 . S
H1927 C1946 0.951 . S
H1928 C1948 0.950 . S
H1929 C1949 0.950 . S
H1930 C1951 0.950 . S
H1931 C1954 0.950 . S
H1932 C1955 0.950 . S
H1933 C1957 0.950 . S
H1934 C1958 0.950 . S
H1935 C1959 0.951 . S
H1936 C1961 0.951 . S
H1937 C1963 0.950 . S
H1938 C1964 0.950 . S
H1939 C1966 0.950 . S
H1940 C1969 0.950 . S
H1941 C1970 0.950 . S
H1942 C1972 0.950 . S
H1943 C1973 0.950 . S
C1944 H1926 0.951 . S
C1944 C1945 1.366 . S
C1944 C1946 1.388 . S
C1945 C1944 1.366 . S
C1945 C1949 1.385 . S
C1946 H1927 0.951 . S
C1946 C1944 1.388 . S
C1946 C1947 1.366 . S
C1947 C1946 1.366 . S
C1947 C1948 1.414 . S
C1947 C1950 1.499 . S
C1948 H1928 0.950 . S
C1948 C1947 1.414 . S
C1948 C1949 1.374 . S
C1949 H1929 0.950 . S
C1949 C1945 1.385 . S
C1949 C1948 1.374 . S
C1950 C1947 1.499 . S
C1950 C1951 1.373 . S
C1950 C1952 1.389 . S
C1951 H1930 0.950 . S
C1951 C1950 1.373 . S
C1951 C1967 1.377 . S
C1952 C1950 1.389 . S
C1952 C1953 1.524 . S
C1952 C1966 1.377 . S
C1953 C1952 1.524 . S
C1953 C1954 1.397 . S
C1953 C1958 1.363 . S
C1954 H1931 0.950 . S
C1954 C1953 1.397 . S
C1954 C1955 1.334 . S
C1955 H1932 0.950 . S
C1955 C1954 1.334 . S
C1955 C1956 1.287 . S
C1956 C1955 1.287 . S
C1956 C1957 1.524 . S
C1956 H1975 0.913 . S
C1957 H1933 0.950 . S
C1957 C1956 1.524 . S
C1957 C1958 1.415 . S
C1958 H1934 0.950 . S
C1958 C1953 1.363 . S
C1958 C1957 1.415 . S
C1959 H1935 0.951 . S
C1959 C1960 1.366 . S
C1959 C1961 1.388 . S
C1960 C1959 1.366 . S
C1960 C1964 1.385 . S
C1961 H1936 0.951 . S
C1961 C1959 1.388 . S
C1961 C1962 1.366 . S
C1962 C1961 1.366 . S
C1962 C1963 1.414 . S
C1962 C1965 1.499 . S
C1963 H1937 0.950 . S
C1963 C1962 1.414 . S
C1963 C1964 1.374 . S
C1964 H1938 0.950 . S
C1964 C1960 1.385 . S
C1964 C1963 1.374 . S
C1965 C1962 1.499 . S
C1965 C1966 1.373 . S
C1965 C1967 1.389 . S
C1966 H1939 0.950 . S
C1966 C1952 1.377 . S
C1966 C1965 1.373 . S
C1967 C1951 1.377 . S
C1967 C1965 1.389 . S
C1967 C1968 1.524 . S
C1968 C1967 1.524 . S
C1968 C1969 1.397 . S
C1968 C1973 1.363 . S
C1969 H1940 0.950 . S
C1969 C1968 1.397 . S
C1969 C1970 1.334 . S
C1970 H1941 0.950 . S
C1970 C1969 1.334 . S
C1970 C1971 1.287 . S
C1971 C1970 1.287 . S
C1971 C1972 1.524 . S
C1971 H1974 0.999 . S
C1972 H1942 0.950 . S
C1972 C1971 1.524 . S
C1972 C1973 1.415 . S
C1973 H1943 0.950 . S
C1973 C1968 1.363 . S
C1973 C1972 1.415 . S
H1974 C1971 0.999 . S
H1975 C1956 0.913 . S
H1976 C1994 0.951 . S
H1977 C1996 0.951 . S
H1978 C1998 0.950 . S
H1979 C1999 0.950 . S
H1980 C2001 0.950 . S
H1981 C2004 0.950 . S
H1982 C2005 0.950 . S
H1983 C2007 0.950 . S
H1984 C2008 0.950 . S
H1985 C2009 0.951 . S
H1986 C2011 0.951 . S
H1987 C2013 0.950 . S
H1988 C2014 0.950 . S
H1989 C2016 0.950 . S
H1990 C2019 0.950 . S
H1991 C2020 0.950 . S
H1992 C2022 0.950 . S
H1993 C2023 0.950 . S
C1994 H1976 0.951 . S
C1994 C1995 1.366 . S
C1994 C1996 1.388 . S
C1995 C1994 1.366 . S
C1995 C1999 1.385 . S
C1996 H1977 0.951 . S
C1996 C1994 1.388 . S
C1996 C1997 1.366 . S
C1997 C1996 1.366 . S
C1997 C1998 1.414 . S
C1997 C2000 1.499 . S
C1998 H1978 0.950 . S
C1998 C1997 1.414 . S
C1998 C1999 1.374 . S
C1999 H1979 0.950 . S
C1999 C1995 1.385 . S
C1999 C1998 1.374 . S
C2000 C1997 1.499 . S
C2000 C2001 1.373 . S
C2000 C2002 1.389 . S
C2001 H1980 0.950 . S
C2001 C2000 1.373 . S
C2001 C2017 1.377 . S
C2002 C2000 1.389 . S
C2002 C2003 1.524 . S
C2002 C2016 1.377 . S
C2003 C2002 1.524 . S
C2003 C2004 1.397 . S
C2003 C2008 1.363 . S
C2004 H1981 0.950 . S
C2004 C2003 1.397 . S
C2004 C2005 1.334 . S
C2005 H1982 0.950 . S
C2005 C2004 1.334 . S
C2005 C2006 1.287 . S
C2006 C2005 1.287 . S
C2006 C2007 1.524 . S
C2006 H2025 0.913 . S
C2007 H1983 0.950 . S
C2007 C2006 1.524 . S
C2007 C2008 1.415 . S
C2008 H1984 0.950 . S
C2008 C2003 1.363 . S
C2008 C2007 1.415 . S
C2009 H1985 0.951 . S
C2009 C2010 1.366 . S
C2009 C2011 1.388 . S
C2010 C2009 1.366 . S
C2010 C2014 1.385 . S
C2011 H1986 0.951 . S
C2011 C2009 1.388 . S
C2011 C2012 1.366 . S
C2012 C2011 1.366 . S
C2012 C2013 1.414 . S
C2012 C2015 1.499 . S
C2013 H1987 0.950 . S
C2013 C2012 1.414 . S
C2013 C2014 1.374 . S
C2014 H1988 0.950 . S
C2014 C2010 1.385 . S
C2014 C2013 1.374 . S
C2015 C2012 1.499 . S
C2015 C2016 1.373 . S
C2015 C2017 1.389 . S
C2016 H1989 0.950 . S
C2016 C2002 1.377 . S
C2016 C2015 1.373 . S
C2017 C2001 1.377 . S
C2017 C2015 1.389 . S
C2017 C2018 1.524 . S
C2018 C2017 1.524 . S
C2018 C2019 1.397 . S
C2018 C2023 1.363 . S
C2019 H1990 0.950 . S
C2019 C2018 1.397 . S
C2019 C2020 1.334 . S
C2020 H1991 0.950 . S
C2020 C2019 1.334 . S
C2020 C2021 1.287 . S
C2021 C2020 1.287 . S
C2021 C2022 1.524 . S
C2021 H2024 0.999 . S
C2022 H1992 0.950 . S
C2022 C2021 1.524 . S
C2022 C2023 1.415 . S
C2023 H1993 0.950 . S
C2023 C2018 1.363 . S
C2023 C2022 1.415 . S
H2024 C2021 0.999 . S
H2025 C2006 0.913 . S
H2026 C2044 0.951 . S
H2027 C2046 0.951 . S
H2028 C2048 0.950 . S
H2029 C2049 0.950 . S
H2030 C2051 0.950 . S
H2031 C2054 0.950 . S
H2032 C2055 0.950 . S
H2033 C2057 0.950 . S
H2034 C2058 0.950 . S
H2035 C2059 0.951 . S
H2036 C2061 0.951 . S
H2037 C2063 0.950 . S
H2038 C2064 0.950 . S
H2039 C2066 0.950 . S
H2040 C2069 0.950 . S
H2041 C2070 0.950 . S
H2042 C2072 0.950 . S
H2043 C2073 0.950 . S
C2044 H2026 0.951 . S
C2044 C2045 1.366 . S
C2044 C2046 1.388 . S
C2045 C2044 1.366 . S
C2045 C2049 1.385 . S
C2046 H2027 0.951 . S
C2046 C2044 1.388 . S
C2046 C2047 1.366 . S
C2047 C2046 1.366 . S
C2047 C2048 1.414 . S
C2047 C2050 1.499 . S
C2048 H2028 0.950 . S
C2048 C2047 1.414 . S
C2048 C2049 1.374 . S
C2049 H2029 0.950 . S
C2049 C2045 1.385 . S
C2049 C2048 1.374 . S
C2050 C2047 1.499 . S
C2050 C2051 1.373 . S
C2050 C2052 1.389 . S
C2051 H2030 0.950 . S
C2051 C2050 1.373 . S
C2051 C2067 1.377 . S
C2052 C2050 1.389 . S
C2052 C2053 1.524 . S
C2052 C2066 1.377 . S
C2053 C2052 1.524 . S
C2053 C2054 1.397 . S
C2053 C2058 1.363 . S
C2054 H2031 0.950 . S
C2054 C2053 1.397 . S
C2054 C2055 1.334 . S
C2055 H2032 0.950 . S
C2055 C2054 1.334 . S
C2055 C2056 1.287 . S
C2056 C2055 1.287 . S
C2056 C2057 1.524 . S
C2056 H2075 0.913 . S
C2057 H2033 0.950 . S
C2057 C2056 1.524 . S
C2057 C2058 1.415 . S
C2058 H2034 0.950 . S
C2058 C2053 1.363 . S
C2058 C2057 1.415 . S
C2059 H2035 0.951 . S
C2059 C2060 1.366 . S
C2059 C2061 1.388 . S
C2060 C2059 1.366 . S
C2060 C2064 1.385 . S
C2061 H2036 0.951 . S
C2061 C2059 1.388 . S
C2061 C2062 1.366 . S
C2062 C2061 1.366 . S
C2062 C2063 1.414 . S
C2062 C2065 1.499 . S
C2063 H2037 0.950 . S
C2063 C2062 1.414 . S
C2063 C2064 1.374 . S
C2064 H2038 0.950 . S
C2064 C2060 1.385 . S
C2064 C2063 1.374 . S
C2065 C2062 1.499 . S
C2065 C2066 1.373 . S
C2065 C2067 1.389 . S
C2066 H2039 0.950 . S
C2066 C2052 1.377 . S
C2066 C2065 1.373 . S
C2067 C2051 1.377 . S
C2067 C2065 1.389 . S
C2067 C2068 1.524 . S
C2068 C2067 1.524 . S
C2068 C2069 1.397 . S
C2068 C2073 1.363 . S
C2069 H2040 0.950 . S
C2069 C2068 1.397 . S
C2069 C2070 1.334 . S
C2070 H2041 0.950 . S
C2070 C2069 1.334 . S
C2070 C2071 1.287 . S
C2071 C2070 1.287 . S
C2071 C2072 1.524 . S
C2071 H2074 0.999 . S
C2072 H2042 0.950 . S
C2072 C2071 1.524 . S
C2072 C2073 1.415 . S
C2073 H2043 0.950 . S
C2073 C2068 1.363 . S
C2073 C2072 1.415 . S
H2074 C2071 0.999 . S
H2075 C2056 0.913 . S
H2076 C2094 0.951 . S
H2077 C2096 0.951 . S
H2078 C2098 0.950 . S
H2079 C2099 0.950 . S
H2080 C2101 0.950 . S
H2081 C2104 0.950 . S
H2082 C2105 0.950 . S
H2083 C2107 0.950 . S
H2084 C2108 0.950 . S
H2085 C2109 0.951 . S
H2086 C2111 0.951 . S
H2087 C2113 0.950 . S
H2088 C2114 0.950 . S
H2089 C2116 0.950 . S
H2090 C2119 0.950 . S
H2091 C2120 0.950 . S
H2092 C2122 0.950 . S
H2093 C2123 0.950 . S
C2094 H2076 0.951 . S
C2094 C2095 1.366 . S
C2094 C2096 1.388 . S
C2095 C2094 1.366 . S
C2095 C2099 1.385 . S
C2096 H2077 0.951 . S
C2096 C2094 1.388 . S
C2096 C2097 1.366 . S
C2097 C2096 1.366 . S
C2097 C2098 1.414 . S
C2097 C2100 1.499 . S
C2098 H2078 0.950 . S
C2098 C2097 1.414 . S
C2098 C2099 1.374 . S
C2099 H2079 0.950 . S
C2099 C2095 1.385 . S
C2099 C2098 1.374 . S
C2100 C2097 1.499 . S
C2100 C2101 1.373 . S
C2100 C2102 1.389 . S
C2101 H2080 0.950 . S
C2101 C2100 1.373 . S
C2101 C2117 1.377 . S
C2102 C2100 1.389 . S
C2102 C2103 1.524 . S
C2102 C2116 1.377 . S
C2103 C2102 1.524 . S
C2103 C2104 1.397 . S
C2103 C2108 1.363 . S
C2104 H2081 0.950 . S
C2104 C2103 1.397 . S
C2104 C2105 1.334 . S
C2105 H2082 0.950 . S
C2105 C2104 1.334 . S
C2105 C2106 1.287 . S
C2106 C2105 1.287 . S
C2106 C2107 1.524 . S
C2106 H2125 0.913 . S
C2107 H2083 0.950 . S
C2107 C2106 1.524 . S
C2107 C2108 1.415 . S
C2108 H2084 0.950 . S
C2108 C2103 1.363 . S
C2108 C2107 1.415 . S
C2109 H2085 0.951 . S
C2109 C2110 1.366 . S
C2109 C2111 1.388 . S
C2110 C2109 1.366 . S
C2110 C2114 1.385 . S
C2111 H2086 0.951 . S
C2111 C2109 1.388 . S
C2111 C2112 1.366 . S
C2112 C2111 1.366 . S
C2112 C2113 1.414 . S
C2112 C2115 1.499 . S
C2113 H2087 0.950 . S
C2113 C2112 1.414 . S
C2113 C2114 1.374 . S
C2114 H2088 0.950 . S
C2114 C2110 1.385 . S
C2114 C2113 1.374 . S
C2115 C2112 1.499 . S
C2115 C2116 1.373 . S
C2115 C2117 1.389 . S
C2116 H2089 0.950 . S
C2116 C2102 1.377 . S
C2116 C2115 1.373 . S
C2117 C2101 1.377 . S
C2117 C2115 1.389 . S
C2117 C2118 1.524 . S
C2118 C2117 1.524 . S
C2118 C2119 1.397 . S
C2118 C2123 1.363 . S
C2119 H2090 0.950 . S
C2119 C2118 1.397 . S
C2119 C2120 1.334 . S
C2120 H2091 0.950 . S
C2120 C2119 1.334 . S
C2120 C2121 1.287 . S
C2121 C2120 1.287 . S
C2121 C2122 1.524 . S
C2121 H2124 0.999 . S
C2122 H2092 0.950 . S
C2122 C2121 1.524 . S
C2122 C2123 1.415 . S
C2123 H2093 0.950 . S
C2123 C2118 1.363 . S
C2123 C2122 1.415 . S
H2124 C2121 0.999 . S
H2125 C2106 0.913 . S
H2126 C2144 0.951 . S
H2127 C2146 0.951 . S
H2128 C2148 0.950 . S
H2129 C2149 0.950 . S
H2130 C2151 0.950 . S
H2131 C2154 0.950 . S
H2132 C2155 0.950 . S
H2133 C2157 0.950 . S
H2134 C2158 0.950 . S
H2135 C2159 0.951 . S
H2136 C2161 0.951 . S
H2137 C2163 0.950 . S
H2138 C2164 0.950 . S
H2139 C2166 0.950 . S
H2140 C2169 0.950 . S
H2141 C2170 0.950 . S
H2142 C2172 0.950 . S
H2143 C2173 0.950 . S
C2144 H2126 0.951 . S
C2144 C2145 1.366 . S
C2144 C2146 1.388 . S
C2145 C2144 1.366 . S
C2145 C2149 1.385 . S
C2146 H2127 0.951 . S
C2146 C2144 1.388 . S
C2146 C2147 1.366 . S
C2147 C2146 1.366 . S
C2147 C2148 1.414 . S
C2147 C2150 1.499 . S
C2148 H2128 0.950 . S
C2148 C2147 1.414 . S
C2148 C2149 1.374 . S
C2149 H2129 0.950 . S
C2149 C2145 1.385 . S
C2149 C2148 1.374 . S
C2150 C2147 1.499 . S
C2150 C2151 1.373 . S
C2150 C2152 1.389 . S
C2151 H2130 0.950 . S
C2151 C2150 1.373 . S
C2151 C2167 1.377 . S
C2152 C2150 1.389 . S
C2152 C2153 1.524 . S
C2152 C2166 1.377 . S
C2153 C2152 1.524 . S
C2153 C2154 1.397 . S
C2153 C2158 1.363 . S
C2154 H2131 0.950 . S
C2154 C2153 1.397 . S
C2154 C2155 1.334 . S
C2155 H2132 0.950 . S
C2155 C2154 1.334 . S
C2155 C2156 1.287 . S
C2156 C2155 1.287 . S
C2156 C2157 1.524 . S
C2156 H2175 0.913 . S
C2157 H2133 0.950 . S
C2157 C2156 1.524 . S
C2157 C2158 1.415 . S
C2158 H2134 0.950 . S
C2158 C2153 1.363 . S
C2158 C2157 1.415 . S
C2159 H2135 0.951 . S
C2159 C2160 1.366 . S
C2159 C2161 1.388 . S
C2160 C2159 1.366 . S
C2160 C2164 1.385 . S
C2161 H2136 0.951 . S
C2161 C2159 1.388 . S
C2161 C2162 1.366 . S
C2162 C2161 1.366 . S
C2162 C2163 1.414 . S
C2162 C2165 1.499 . S
C2163 H2137 0.950 . S
C2163 C2162 1.414 . S
C2163 C2164 1.374 . S
C2164 H2138 0.950 . S
C2164 C2160 1.385 . S
C2164 C2163 1.374 . S
C2165 C2162 1.499 . S
C2165 C2166 1.373 . S
C2165 C2167 1.389 . S
C2166 H2139 0.950 . S
C2166 C2152 1.377 . S
C2166 C2165 1.373 . S
C2167 C2151 1.377 . S
C2167 C2165 1.389 . S
C2167 C2168 1.524 . S
C2168 C2167 1.524 . S
C2168 C2169 1.397 . S
C2168 C2173 1.363 . S
C2169 H2140 0.950 . S
C2169 C2168 1.397 . S
C2169 C2170 1.334 . S
C2170 H2141 0.950 . S
C2170 C2169 1.334 . S
C2170 C2171 1.287 . S
C2171 C2170 1.287 . S
C2171 C2172 1.524 . S
C2171 H2174 0.999 . S
C2172 H2142 0.950 . S
C2172 C2171 1.524 . S
C2172 C2173 1.415 . S
C2173 H2143 0.950 . S
C2173 C2168 1.363 . S
C2173 C2172 1.415 . S
H2174 C2171 0.999 . S
H2175 C2156 0.913 . S
H2176 C2194 0.951 . S
H2177 C2196 0.951 . S
H2178 C2198 0.950 . S
H2179 C2199 0.950 . S
H2180 C2201 0.950 . S
H2181 C2204 0.950 . S
H2182 C2205 0.950 . S
H2183 C2207 0.950 . S
H2184 C2208 0.950 . S
H2185 C2209 0.951 . S
H2186 C2211 0.951 . S
H2187 C2213 0.950 . S
H2188 C2214 0.950 . S
H2189 C2216 0.950 . S
H2190 C2219 0.950 . S
H2191 C2220 0.950 . S
H2192 C2222 0.950 . S
H2193 C2223 0.950 . S
C2194 H2176 0.951 . S
C2194 C2195 1.366 . S
C2194 C2196 1.388 . S
C2195 C2194 1.366 . S
C2195 C2199 1.385 . S
C2196 H2177 0.951 . S
C2196 C2194 1.388 . S
C2196 C2197 1.366 . S
C2197 C2196 1.366 . S
C2197 C2198 1.414 . S
C2197 C2200 1.499 . S
C2198 H2178 0.950 . S
C2198 C2197 1.414 . S
C2198 C2199 1.374 . S
C2199 H2179 0.950 . S
C2199 C2195 1.385 . S
C2199 C2198 1.374 . S
C2200 C2197 1.499 . S
C2200 C2201 1.373 . S
C2200 C2202 1.389 . S
C2201 H2180 0.950 . S
C2201 C2200 1.373 . S
C2201 C2217 1.377 . S
C2202 C2200 1.389 . S
C2202 C2203 1.524 . S
C2202 C2216 1.377 . S
C2203 C2202 1.524 . S
C2203 C2204 1.397 . S
C2203 C2208 1.363 . S
C2204 H2181 0.950 . S
C2204 C2203 1.397 . S
C2204 C2205 1.334 . S
C2205 H2182 0.950 . S
C2205 C2204 1.334 . S
C2205 C2206 1.287 . S
C2206 C2205 1.287 . S
C2206 C2207 1.524 . S
C2206 H2225 0.913 . S
C2207 H2183 0.950 . S
C2207 C2206 1.524 . S
C2207 C2208 1.415 . S
C2208 H2184 0.950 . S
C2208 C2203 1.363 . S
C2208 C2207 1.415 . S
C2209 H2185 0.951 . S
C2209 C2210 1.366 . S
C2209 C2211 1.388 . S
C2210 C2209 1.366 . S
C2210 C2214 1.385 . S
C2211 H2186 0.951 . S
C2211 C2209 1.388 . S
C2211 C2212 1.366 . S
C2212 C2211 1.366 . S
C2212 C2213 1.414 . S
C2212 C2215 1.499 . S
C2213 H2187 0.950 . S
C2213 C2212 1.414 . S
C2213 C2214 1.374 . S
C2214 H2188 0.950 . S
C2214 C2210 1.385 . S
C2214 C2213 1.374 . S
C2215 C2212 1.499 . S
C2215 C2216 1.373 . S
C2215 C2217 1.389 . S
C2216 H2189 0.950 . S
C2216 C2202 1.377 . S
C2216 C2215 1.373 . S
C2217 C2201 1.377 . S
C2217 C2215 1.389 . S
C2217 C2218 1.524 . S
C2218 C2217 1.524 . S
C2218 C2219 1.397 . S
C2218 C2223 1.363 1_455 S
C2219 H2190 0.950 . S
C2219 C2218 1.397 . S
C2219 C2220 1.334 1_554 S
C2220 H2191 0.950 . S
C2220 C2219 1.334 1_556 S
C2220 C2221 1.287 1_455 S
C2221 C2220 1.287 1_655 S
C2221 C2222 1.524 . S
C2221 H2224 0.999 . S
C2222 H2192 0.950 . S
C2222 C2221 1.524 . S
C2222 C2223 1.415 1_556 S
C2223 H2193 0.950 . S
C2223 C2218 1.363 1_655 S
C2223 C2222 1.415 1_554 S
H2224 C2221 0.999 . S
H2225 C2206 0.913 . S
H2226 C2244 0.951 . S
H2227 C2246 0.951 . S
H2228 C2248 0.950 . S
H2229 C2249 0.950 . S
H2230 C2251 0.950 . S
H2231 C2254 0.950 . S
H2232 C2255 0.950 . S
H2233 C2257 0.950 . S
H2234 C2258 0.950 . S
H2235 C2259 0.951 . S
H2236 C2261 0.951 . S
H2237 C2263 0.950 . S
H2238 C2264 0.950 . S
H2239 C2266 0.950 . S
H2240 C2269 0.950 . S
H2241 C2270 0.950 . S
H2242 C2272 0.950 . S
H2243 C2273 0.950 . S
C2244 H2226 0.951 . S
C2244 C2245 1.366 . S
C2244 C2246 1.388 . S
C2245 C2244 1.366 . S
C2245 C2249 1.385 . S
C2246 H2227 0.951 . S
C2246 C2244 1.388 . S
C2246 C2247 1.366 . S
C2247 C2246 1.366 . S
C2247 C2248 1.414 . S
C2247 C2250 1.499 . S
C2248 H2228 0.950 . S
C2248 C2247 1.414 . S
C2248 C2249 1.374 . S
C2249 H2229 0.950 . S
C2249 C2245 1.385 . S
C2249 C2248 1.374 . S
C2250 C2247 1.499 . S
C2250 C2251 1.373 . S
C2250 C2252 1.389 . S
C2251 H2230 0.950 . S
C2251 C2250 1.373 . S
C2251 C2267 1.377 . S
C2252 C2250 1.389 . S
C2252 C2253 1.524 . S
C2252 C2266 1.377 . S
C2253 C2252 1.524 . S
C2253 C2254 1.397 . S
C2253 C2258 1.363 . S
C2254 H2231 0.950 . S
C2254 C2253 1.397 . S
C2254 C2255 1.334 . S
C2255 H2232 0.950 . S
C2255 C2254 1.334 . S
C2255 C2256 1.287 . S
C2256 C2255 1.287 . S
C2256 C2257 1.524 . S
C2256 H2275 0.913 . S
C2257 H2233 0.950 . S
C2257 C2256 1.524 . S
C2257 C2258 1.415 . S
C2258 H2234 0.950 . S
C2258 C2253 1.363 . S
C2258 C2257 1.415 . S
C2259 H2235 0.951 . S
C2259 C2260 1.366 . S
C2259 C2261 1.388 . S
C2260 C2259 1.366 . S
C2260 C2264 1.385 . S
C2261 H2236 0.951 . S
C2261 C2259 1.388 . S
C2261 C2262 1.366 . S
C2262 C2261 1.366 . S
C2262 C2263 1.414 . S
C2262 C2265 1.499 . S
C2263 H2237 0.950 . S
C2263 C2262 1.414 . S
C2263 C2264 1.374 . S
C2264 H2238 0.950 . S
C2264 C2260 1.385 . S
C2264 C2263 1.374 . S
C2265 C2262 1.499 . S
C2265 C2266 1.373 . S
C2265 C2267 1.389 . S
C2266 H2239 0.950 . S
C2266 C2252 1.377 . S
C2266 C2265 1.373 . S
C2267 C2251 1.377 . S
C2267 C2265 1.389 . S
C2267 C2268 1.524 . S
C2268 C2267 1.524 . S
C2268 C2269 1.397 . S
C2268 C2273 1.363 . S
C2269 H2240 0.950 . S
C2269 C2268 1.397 . S
C2269 C2270 1.334 . S
C2270 H2241 0.950 . S
C2270 C2269 1.334 . S
C2270 C2271 1.287 . S
C2271 C2270 1.287 . S
C2271 C2272 1.524 . S
C2271 H2274 0.999 . S
C2272 H2242 0.950 . S
C2272 C2271 1.524 . S
C2272 C2273 1.415 . S
C2273 H2243 0.950 . S
C2273 C2268 1.363 . S
C2273 C2272 1.415 . S
H2274 C2271 0.999 . S
H2275 C2256 0.913 . S
H2276 C2294 0.951 . S
H2277 C2296 0.951 . S
H2278 C2298 0.950 . S
H2279 C2299 0.950 . S
H2280 C2301 0.950 . S
H2281 C2304 0.950 . S
H2282 C2305 0.950 . S
H2283 C2307 0.950 . S
H2284 C2308 0.950 . S
H2285 C2309 0.951 . S
H2286 C2311 0.951 . S
H2287 C2313 0.950 . S
H2288 C2314 0.950 . S
H2289 C2316 0.950 . S
H2290 C2319 0.950 . S
H2291 C2320 0.950 . S
H2292 C2322 0.950 . S
H2293 C2323 0.950 . S
C2294 H2276 0.951 . S
C2294 C2295 1.366 . S
C2294 C2296 1.388 . S
C2295 C2294 1.366 . S
C2295 C2299 1.385 . S
C2296 H2277 0.951 . S
C2296 C2294 1.388 . S
C2296 C2297 1.366 . S
C2297 C2296 1.366 . S
C2297 C2298 1.414 . S
C2297 C2300 1.499 . S
C2298 H2278 0.950 . S
C2298 C2297 1.414 . S
C2298 C2299 1.374 . S
C2299 H2279 0.950 . S
C2299 C2295 1.385 . S
C2299 C2298 1.374 . S
C2300 C2297 1.499 . S
C2300 C2301 1.373 . S
C2300 C2302 1.389 . S
C2301 H2280 0.950 . S
C2301 C2300 1.373 . S
C2301 C2317 1.377 . S
C2302 C2300 1.389 . S
C2302 C2303 1.524 . S
C2302 C2316 1.377 . S
C2303 C2302 1.524 . S
C2303 C2304 1.397 . S
C2303 C2308 1.363 . S
C2304 H2281 0.950 . S
C2304 C2303 1.397 . S
C2304 C2305 1.334 . S
C2305 H2282 0.950 . S
C2305 C2304 1.334 . S
C2305 C2306 1.287 . S
C2306 C2305 1.287 . S
C2306 C2307 1.524 . S
C2306 H2325 0.913 . S
C2307 H2283 0.950 . S
C2307 C2306 1.524 . S
C2307 C2308 1.415 . S
C2308 H2284 0.950 . S
C2308 C2303 1.363 . S
C2308 C2307 1.415 . S
C2309 H2285 0.951 . S
C2309 C2310 1.366 . S
C2309 C2311 1.388 . S
C2310 C2309 1.366 . S
C2310 C2314 1.385 . S
C2311 H2286 0.951 . S
C2311 C2309 1.388 . S
C2311 C2312 1.366 . S
C2312 C2311 1.366 . S
C2312 C2313 1.414 . S
C2312 C2315 1.499 . S
C2313 H2287 0.950 . S
C2313 C2312 1.414 . S
C2313 C2314 1.374 . S
C2314 H2288 0.950 . S
C2314 C2310 1.385 . S
C2314 C2313 1.374 . S
C2315 C2312 1.499 . S
C2315 C2316 1.373 . S
C2315 C2317 1.389 . S
C2316 H2289 0.950 . S
C2316 C2302 1.377 . S
C2316 C2315 1.373 . S
C2317 C2301 1.377 . S
C2317 C2315 1.389 . S
C2317 C2318 1.524 . S
C2318 C2317 1.524 . S
C2318 C2319 1.397 . S
C2318 C2323 1.363 . S
C2319 H2290 0.950 . S
C2319 C2318 1.397 . S
C2319 C2320 1.334 . S
C2320 H2291 0.950 . S
C2320 C2319 1.334 . S
C2320 C2321 1.287 . S
C2321 C2320 1.287 . S
C2321 C2322 1.524 . S
C2321 H2324 0.999 . S
C2322 H2292 0.950 . S
C2322 C2321 1.524 . S
C2322 C2323 1.415 . S
C2323 H2293 0.950 . S
C2323 C2318 1.363 . S
C2323 C2322 1.415 . S
H2324 C2321 0.999 . S
H2325 C2306 0.913 . S
H2326 C2344 0.951 . S
H2327 C2346 0.951 . S
H2328 C2348 0.950 . S
H2329 C2349 0.950 . S
H2330 C2351 0.950 . S
H2331 C2354 0.950 . S
H2332 C2355 0.950 . S
H2333 C2357 0.950 . S
H2334 C2358 0.950 . S
H2335 C2359 0.951 . S
H2336 C2361 0.951 . S
H2337 C2363 0.950 . S
H2338 C2364 0.950 . S
H2339 C2366 0.950 . S
H2340 C2369 0.950 . S
H2341 C2370 0.950 . S
H2342 C2372 0.950 . S
H2343 C2373 0.950 . S
C2344 H2326 0.951 . S
C2344 C2345 1.366 . S
C2344 C2346 1.388 . S
C2345 C2344 1.366 . S
C2345 C2349 1.385 . S
C2346 H2327 0.951 . S
C2346 C2344 1.388 . S
C2346 C2347 1.366 . S
C2347 C2346 1.366 . S
C2347 C2348 1.414 . S
C2347 C2350 1.499 . S
C2348 H2328 0.950 . S
C2348 C2347 1.414 . S
C2348 C2349 1.374 . S
C2349 H2329 0.950 . S
C2349 C2345 1.385 . S
C2349 C2348 1.374 . S
C2350 C2347 1.499 . S
C2350 C2351 1.373 . S
C2350 C2352 1.389 . S
C2351 H2330 0.950 . S
C2351 C2350 1.373 . S
C2351 C2367 1.377 . S
C2352 C2350 1.389 . S
C2352 C2353 1.524 . S
C2352 C2366 1.377 . S
C2353 C2352 1.524 . S
C2353 C2354 1.397 . S
C2353 C2358 1.363 . S
C2354 H2331 0.950 . S
C2354 C2353 1.397 . S
C2354 C2355 1.334 . S
C2355 H2332 0.950 . S
C2355 C2354 1.334 . S
C2355 C2356 1.287 . S
C2356 C2355 1.287 . S
C2356 C2357 1.524 . S
C2356 H2375 0.913 . S
C2357 H2333 0.950 . S
C2357 C2356 1.524 . S
C2357 C2358 1.415 . S
C2358 H2334 0.950 . S
C2358 C2353 1.363 . S
C2358 C2357 1.415 . S
C2359 H2335 0.951 . S
C2359 C2360 1.366 . S
C2359 C2361 1.388 . S
C2360 C2359 1.366 . S
C2360 C2364 1.385 . S
C2361 H2336 0.951 . S
C2361 C2359 1.388 . S
C2361 C2362 1.366 . S
C2362 C2361 1.366 . S
C2362 C2363 1.414 . S
C2362 C2365 1.499 . S
C2363 H2337 0.950 . S
C2363 C2362 1.414 . S
C2363 C2364 1.374 . S
C2364 H2338 0.950 . S
C2364 C2360 1.385 . S
C2364 C2363 1.374 . S
C2365 C2362 1.499 . S
C2365 C2366 1.373 . S
C2365 C2367 1.389 . S
C2366 H2339 0.950 . S
C2366 C2352 1.377 . S
C2366 C2365 1.373 . S
C2367 C2351 1.377 . S
C2367 C2365 1.389 . S
C2367 C2368 1.524 . S
C2368 C2367 1.524 . S
C2368 C2369 1.397 . S
C2368 C2373 1.363 . S
C2369 H2340 0.950 . S
C2369 C2368 1.397 . S
C2369 C2370 1.334 . S
C2370 H2341 0.950 . S
C2370 C2369 1.334 . S
C2370 C2371 1.287 . S
C2371 C2370 1.287 . S
C2371 C2372 1.524 . S
C2371 H2374 0.999 . S
C2372 H2342 0.950 . S
C2372 C2371 1.524 . S
C2372 C2373 1.415 . S
C2373 H2343 0.950 . S
C2373 C2368 1.363 . S
C2373 C2372 1.415 . S
H2374 C2371 0.999 . S
H2375 C2356 0.913 . S
H2376 C2394 0.951 . S
H2377 C2396 0.951 . S
H2378 C2398 0.950 . S
H2379 C2399 0.950 . S
H2380 C2401 0.950 . S
H2381 C2404 0.950 . S
H2382 C2405 0.950 . S
H2383 C2407 0.950 . S
H2384 C2408 0.950 . S
H2385 C2409 0.951 . S
H2386 C2411 0.951 . S
H2387 C2413 0.955 . S
H2388 C2414 0.950 . S
H2389 C2416 0.950 . S
H2390 C2419 0.950 . S
H2391 C2420 0.950 . S
H2392 C2422 0.950 . S
H2393 C2423 0.950 . S
C2394 H2376 0.951 . S
C2394 C2395 1.366 . S
C2394 C2396 1.388 . S
C2395 C2394 1.366 . S
C2395 C2399 1.385 . S
C2396 H2377 0.951 . S
C2396 C2394 1.388 . S
C2396 C2397 1.366 . S
C2397 C2396 1.366 . S
C2397 C2398 1.414 . S
C2397 C2400 1.499 . S
C2398 H2378 0.950 . S
C2398 C2397 1.414 . S
C2398 C2399 1.374 . S
C2399 H2379 0.950 . S
C2399 C2395 1.385 . S
C2399 C2398 1.374 . S
C2400 C2397 1.499 . S
C2400 C2401 1.373 . S
C2400 C2402 1.389 . S
C2401 H2380 0.950 . S
C2401 C2400 1.373 . S
C2401 C2417 1.377 . S
C2402 C2400 1.389 . S
C2402 C2403 1.524 . S
C2402 C2416 1.377 . S
C2403 C2402 1.524 . S
C2403 C2404 1.397 . S
C2403 C2408 1.363 . S
C2404 H2381 0.950 . S
C2404 C2403 1.397 . S
C2404 C2405 1.334 . S
C2405 H2382 0.950 . S
C2405 C2404 1.334 . S
C2405 C2406 1.287 . S
C2406 C2405 1.287 . S
C2406 C2407 1.524 . S
C2406 H2425 0.913 . S
C2407 H2383 0.950 . S
C2407 C2406 1.524 . S
C2407 C2408 1.415 . S
C2408 H2384 0.950 . S
C2408 C2403 1.363 . S
C2408 C2407 1.415 . S
C2409 H2385 0.951 . S
C2409 C2410 1.366 . S
C2409 C2411 1.388 . S
C2410 C2409 1.366 . S
C2410 C2414 1.385 1_455 S
C2411 H2386 0.951 . S
C2411 C2409 1.388 . S
C2411 C2412 1.366 . S
C2412 C2411 1.366 . S
C2412 C2413 1.410 1_455 S
C2412 C2415 1.499 . S
C2413 H2387 0.955 . S
C2413 C2412 1.410 1_655 S
C2413 C2414 1.373 . S
C2414 H2388 0.950 . S
C2414 C2410 1.385 1_655 S
C2414 C2413 1.373 . S
C2415 C2412 1.499 . S
C2415 C2416 1.373 . S
C2415 C2417 1.389 . S
C2416 H2389 0.950 . S
C2416 C2402 1.377 . S
C2416 C2415 1.373 . S
C2417 C2401 1.377 . S
C2417 C2415 1.389 . S
C2417 C2418 1.524 . S
C2418 C2417 1.524 . S
C2418 C2419 1.397 1_455 S
C2418 C2423 1.363 . S
C2419 H2390 0.950 . S
C2419 C2418 1.397 1_655 S
C2419 C2420 1.334 . S
C2420 H2391 0.950 . S
C2420 C2419 1.334 . S
C2420 C2421 1.287 . S
C2421 C2420 1.287 . S
C2421 C2422 1.524 1_655 S
C2421 H2424 0.999 . S
C2422 H2392 0.950 . S
C2422 C2421 1.524 1_455 S
C2422 C2423 1.415 . S
C2423 H2393 0.950 . S
C2423 C2418 1.363 . S
C2423 C2422 1.415 . S
H2424 C2421 0.999 . S
H2425 C2406 0.913 . S
H2426 C2444 0.951 . S
H2427 C2446 0.951 . S
H2428 C2448 0.950 . S
H2429 C2449 0.950 . S
H2430 C2451 0.950 . S
H2431 C2454 0.950 . S
H2432 C2455 0.950 . S
H2433 C2457 0.950 . S
H2434 C2458 0.950 . S
H2435 C2459 0.951 . S
H2436 C2461 0.951 . S
H2437 C2463 0.950 . S
H2438 C2464 0.950 . S
H2439 C2466 0.950 . S
H2440 C2469 0.950 . S
H2441 C2470 0.950 . S
H2442 C2472 0.950 . S
H2443 C2473 0.950 . S
C2444 H2426 0.951 . S
C2444 C2445 1.366 . S
C2444 C2446 1.388 . S
C2445 C2444 1.366 . S
C2445 C2449 1.385 . S
C2446 H2427 0.951 . S
C2446 C2444 1.388 . S
C2446 C2447 1.366 . S
C2447 C2446 1.366 . S
C2447 C2448 1.414 . S
C2447 C2450 1.499 . S
C2448 H2428 0.950 . S
C2448 C2447 1.414 . S
C2448 C2449 1.374 . S
C2449 H2429 0.950 . S
C2449 C2445 1.385 . S
C2449 C2448 1.374 . S
C2450 C2447 1.499 . S
C2450 C2451 1.373 . S
C2450 C2452 1.389 . S
C2451 H2430 0.950 . S
C2451 C2450 1.373 . S
C2451 C2467 1.377 . S
C2452 C2450 1.389 . S
C2452 C2453 1.524 . S
C2452 C2466 1.377 . S
C2453 C2452 1.524 . S
C2453 C2454 1.397 . S
C2453 C2458 1.363 . S
C2454 H2431 0.950 . S
C2454 C2453 1.397 . S
C2454 C2455 1.334 . S
C2455 H2432 0.950 . S
C2455 C2454 1.334 . S
C2455 C2456 1.287 . S
C2456 C2455 1.287 . S
C2456 C2457 1.524 . S
C2456 H2475 0.913 . S
C2457 H2433 0.950 . S
C2457 C2456 1.524 . S
C2457 C2458 1.415 . S
C2458 H2434 0.950 . S
C2458 C2453 1.363 . S
C2458 C2457 1.415 . S
C2459 H2435 0.951 . S
C2459 C2460 1.366 . S
C2459 C2461 1.388 . S
C2460 C2459 1.366 . S
C2460 C2464 1.385 . S
C2461 H2436 0.951 . S
C2461 C2459 1.388 . S
C2461 C2462 1.366 . S
C2462 C2461 1.366 . S
C2462 C2463 1.414 . S
C2462 C2465 1.499 . S
C2463 H2437 0.950 . S
C2463 C2462 1.414 . S
C2463 C2464 1.374 . S
C2464 H2438 0.950 . S
C2464 C2460 1.385 . S
C2464 C2463 1.374 . S
C2465 C2462 1.499 . S
C2465 C2466 1.373 . S
C2465 C2467 1.389 . S
C2466 H2439 0.950 . S
C2466 C2452 1.377 . S
C2466 C2465 1.373 . S
C2467 C2451 1.377 . S
C2467 C2465 1.389 . S
C2467 C2468 1.524 . S
C2468 C2467 1.524 . S
C2468 C2469 1.397 . S
C2468 C2473 1.363 . S
C2469 H2440 0.950 . S
C2469 C2468 1.397 . S
C2469 C2470 1.334 . S
C2470 H2441 0.950 . S
C2470 C2469 1.334 . S
C2470 C2471 1.287 . S
C2471 C2470 1.287 . S
C2471 C2472 1.524 . S
C2471 H2474 0.999 . S
C2472 H2442 0.950 . S
C2472 C2471 1.524 . S
C2472 C2473 1.415 . S
C2473 H2443 0.950 . S
C2473 C2468 1.363 . S
C2473 C2472 1.415 . S
H2474 C2471 0.999 . S
H2475 C2456 0.913 . S
H2476 C2494 0.951 . S
H2477 C2496 0.951 . S
H2478 C2498 0.950 . S
H2479 C2499 0.950 . S
H2480 C2501 0.950 . S
H2481 C2504 0.950 . S
H2482 C2505 0.950 . S
H2483 C2507 0.950 . S
H2484 C2508 0.950 . S
H2485 C2509 0.951 . S
H2486 C2511 0.951 . S
H2487 C2513 0.950 . S
H2488 C2514 0.950 1_554 S
H2489 C2516 0.950 . S
H2490 C2519 0.950 . S
H2491 C2520 0.950 . S
H2492 C2522 0.950 . S
H2493 C2523 0.950 . S
C2494 H2476 0.951 . S
C2494 C2495 1.366 . S
C2494 C2496 1.388 . S
C2495 C2494 1.366 . S
C2495 C2499 1.385 . S
C2496 H2477 0.951 . S
C2496 C2494 1.388 . S
C2496 C2497 1.366 . S
C2497 C2496 1.366 . S
C2497 C2498 1.414 . S
C2497 C2500 1.499 . S
C2498 H2478 0.950 . S
C2498 C2497 1.414 . S
C2498 C2499 1.374 . S
C2499 H2479 0.950 . S
C2499 C2495 1.385 . S
C2499 C2498 1.374 . S
C2500 C2497 1.499 . S
C2500 C2501 1.373 . S
C2500 C2502 1.389 . S
C2501 H2480 0.950 . S
C2501 C2500 1.373 . S
C2501 C2517 1.377 . S
C2502 C2500 1.389 . S
C2502 C2503 1.524 . S
C2502 C2516 1.377 . S
C2503 C2502 1.524 . S
C2503 C2504 1.397 . S
C2503 C2508 1.363 . S
C2504 H2481 0.950 . S
C2504 C2503 1.397 . S
C2504 C2505 1.334 . S
C2505 H2482 0.950 . S
C2505 C2504 1.334 . S
C2505 C2506 1.287 . S
C2506 C2505 1.287 . S
C2506 C2507 1.524 . S
C2506 H2525 0.913 . S
C2507 H2483 0.950 . S
C2507 C2506 1.524 . S
C2507 C2508 1.415 . S
C2508 H2484 0.950 . S
C2508 C2503 1.363 . S
C2508 C2507 1.415 . S
C2509 H2485 0.951 . S
C2509 C2510 1.366 . S
C2509 C2511 1.388 . S
C2510 C2509 1.366 . S
C2510 C2514 1.385 . S
C2511 H2486 0.951 . S
C2511 C2509 1.388 . S
C2511 C2512 1.366 . S
C2512 C2511 1.366 . S
C2512 C2513 1.414 . S
C2512 C2515 1.499 . S
C2513 H2487 0.950 . S
C2513 C2512 1.414 . S
C2513 C2514 1.374 . S
C2514 H2488 0.950 1_556 S
C2514 C2510 1.385 . S
C2514 C2513 1.374 . S
C2515 C2512 1.499 . S
C2515 C2516 1.373 . S
C2515 C2517 1.389 . S
C2516 H2489 0.950 . S
C2516 C2502 1.377 . S
C2516 C2515 1.373 . S
C2517 C2501 1.377 . S
C2517 C2515 1.389 . S
C2517 C2518 1.524 . S
C2518 C2517 1.524 . S
C2518 C2519 1.397 . S
C2518 C2523 1.363 . S
C2519 H2490 0.950 . S
C2519 C2518 1.397 . S
C2519 C2520 1.334 . S
C2520 H2491 0.950 . S
C2520 C2519 1.334 . S
C2520 C2521 1.287 . S
C2521 C2520 1.287 . S
C2521 C2522 1.524 . S
C2521 H2524 0.999 . S
C2522 H2492 0.950 . S
C2522 C2521 1.524 . S
C2522 C2523 1.415 . S
C2523 H2493 0.950 . S
C2523 C2518 1.363 . S
C2523 C2522 1.415 . S
H2524 C2521 0.999 . S
H2525 C2506 0.913 . S
H2526 C2544 0.951 . S
H2527 C2546 0.951 . S
H2528 C2548 0.950 . S
H2529 C2549 0.950 . S
H2530 C2551 0.950 . S
H2531 C2554 0.950 . S
H2532 C2555 0.950 . S
H2533 C2557 0.950 . S
H2534 C2558 0.950 . S
H2535 C2559 0.951 . S
H2536 C2561 0.951 . S
H2537 C2563 0.950 . S
H2538 C2564 0.950 . S
H2539 C2566 0.950 . S
H2540 C2569 0.950 . S
H2541 C2570 0.950 . S
H2542 C2572 0.950 . S
H2543 C2573 0.950 . S
C2544 H2526 0.951 . S
C2544 C2545 1.366 . S
C2544 C2546 1.388 . S
C2545 C2544 1.366 . S
C2545 C2549 1.385 . S
C2546 H2527 0.951 . S
C2546 C2544 1.388 . S
C2546 C2547 1.366 . S
C2547 C2546 1.366 . S
C2547 C2548 1.414 . S
C2547 C2550 1.499 . S
C2548 H2528 0.950 . S
C2548 C2547 1.414 . S
C2548 C2549 1.374 . S
C2549 H2529 0.950 . S
C2549 C2545 1.385 . S
C2549 C2548 1.374 . S
C2550 C2547 1.499 . S
C2550 C2551 1.373 . S
C2550 C2552 1.389 . S
C2551 H2530 0.950 . S
C2551 C2550 1.373 . S
C2551 C2567 1.377 . S
C2552 C2550 1.389 . S
C2552 C2553 1.524 . S
C2552 C2566 1.377 . S
C2553 C2552 1.524 . S
C2553 C2554 1.397 . S
C2553 C2558 1.363 . S
C2554 H2531 0.950 . S
C2554 C2553 1.397 . S
C2554 C2555 1.334 . S
C2555 H2532 0.950 . S
C2555 C2554 1.334 . S
C2555 C2556 1.287 . S
C2556 C2555 1.287 . S
C2556 C2557 1.524 . S
C2556 H2575 0.913 . S
C2557 H2533 0.950 . S
C2557 C2556 1.524 . S
C2557 C2558 1.415 . S
C2558 H2534 0.950 . S
C2558 C2553 1.363 . S
C2558 C2557 1.415 . S
C2559 H2535 0.951 . S
C2559 C2560 1.366 . S
C2559 C2561 1.388 . S
C2560 C2559 1.366 . S
C2560 C2564 1.385 . S
C2561 H2536 0.951 . S
C2561 C2559 1.388 . S
C2561 C2562 1.366 . S
C2562 C2561 1.366 . S
C2562 C2563 1.414 . S
C2562 C2565 1.499 . S
C2563 H2537 0.950 . S
C2563 C2562 1.414 . S
C2563 C2564 1.374 . S
C2564 H2538 0.950 . S
C2564 C2560 1.385 . S
C2564 C2563 1.374 . S
C2565 C2562 1.499 . S
C2565 C2566 1.373 . S
C2565 C2567 1.389 . S
C2566 H2539 0.950 . S
C2566 C2552 1.377 . S
C2566 C2565 1.373 . S
C2567 C2551 1.377 . S
C2567 C2565 1.389 . S
C2567 C2568 1.524 . S
C2568 C2567 1.524 . S
C2568 C2569 1.397 . S
C2568 C2573 1.363 . S
C2569 H2540 0.950 . S
C2569 C2568 1.397 . S
C2569 C2570 1.334 . S
C2570 H2541 0.950 . S
C2570 C2569 1.334 . S
C2570 C2571 1.287 . S
C2571 C2570 1.287 . S
C2571 C2572 1.524 . S
C2571 H2574 0.999 . S
C2572 H2542 0.950 . S
C2572 C2571 1.524 . S
C2572 C2573 1.415 . S
C2573 H2543 0.950 . S
C2573 C2568 1.363 . S
C2573 C2572 1.415 . S
H2574 C2571 0.999 . S
H2575 C2556 0.913 . S
H2576 C2594 0.951 . S
H2577 C2596 0.951 . S
H2578 C2598 0.950 . S
H2579 C2599 0.950 . S
H2580 C2601 0.950 . S
H2581 C2604 0.950 . S
H2582 C2605 0.950 . S
H2583 C2607 0.950 . S
H2584 C2608 0.950 . S
H2585 C2609 0.951 . S
H2586 C2611 0.951 . S
H2587 C2613 0.950 . S
H2588 C2614 0.950 . S
H2589 C2616 0.950 . S
H2590 C2619 0.950 . S
H2591 C2620 0.950 . S
H2592 C2622 0.950 . S
H2593 C2623 0.950 . S
C2594 H2576 0.951 . S
C2594 C2595 1.366 . S
C2594 C2596 1.388 . S
C2595 C2594 1.366 . S
C2595 C2599 1.385 . S
C2596 H2577 0.951 . S
C2596 C2594 1.388 . S
C2596 C2597 1.366 . S
C2597 C2596 1.366 . S
C2597 C2598 1.414 . S
C2597 C2600 1.499 . S
C2598 H2578 0.950 . S
C2598 C2597 1.414 . S
C2598 C2599 1.374 . S
C2599 H2579 0.950 . S
C2599 C2595 1.385 . S
C2599 C2598 1.374 . S
C2600 C2597 1.499 . S
C2600 C2601 1.373 . S
C2600 C2602 1.389 . S
C2601 H2580 0.950 . S
C2601 C2600 1.373 . S
C2601 C2617 1.377 . S
C2602 C2600 1.389 . S
C2602 C2603 1.524 1_545 S
C2602 C2616 1.377 . S
C2603 C2602 1.524 1_565 S
C2603 C2604 1.397 . S
C2603 C2608 1.363 . S
C2604 H2581 0.950 . S
C2604 C2603 1.397 . S
C2604 C2605 1.334 . S
C2605 H2582 0.950 . S
C2605 C2604 1.334 . S
C2605 C2606 1.287 . S
C2606 C2605 1.287 . S
C2606 C2607 1.524 . S
C2606 H2625 0.913 . S
C2607 H2583 0.950 . S
C2607 C2606 1.524 . S
C2607 C2608 1.415 . S
C2608 H2584 0.950 . S
C2608 C2603 1.363 . S
C2608 C2607 1.415 . S
C2609 H2585 0.951 . S
C2609 C2610 1.366 . S
C2609 C2611 1.388 . S
C2610 C2609 1.366 . S
C2610 C2614 1.385 . S
C2611 H2586 0.951 . S
C2611 C2609 1.388 . S
C2611 C2612 1.366 . S
C2612 C2611 1.366 . S
C2612 C2613 1.414 . S
C2612 C2615 1.499 . S
C2613 H2587 0.950 . S
C2613 C2612 1.414 . S
C2613 C2614 1.374 . S
C2614 H2588 0.950 . S
C2614 C2610 1.385 . S
C2614 C2613 1.374 . S
C2615 C2612 1.499 . S
C2615 C2616 1.373 . S
C2615 C2617 1.389 . S
C2616 H2589 0.950 . S
C2616 C2602 1.377 . S
C2616 C2615 1.373 . S
C2617 C2601 1.377 . S
C2617 C2615 1.389 . S
C2617 C2618 1.524 . S
C2618 C2617 1.524 . S
C2618 C2619 1.397 . S
C2618 C2623 1.363 . S
C2619 H2590 0.950 . S
C2619 C2618 1.397 . S
C2619 C2620 1.334 . S
C2620 H2591 0.950 . S
C2620 C2619 1.334 . S
C2620 C2621 1.287 . S
C2621 C2620 1.287 . S
C2621 C2622 1.524 . S
C2621 H2624 0.999 . S
C2622 H2592 0.950 . S
C2622 C2621 1.524 . S
C2622 C2623 1.415 . S
C2623 H2593 0.950 . S
C2623 C2618 1.363 . S
C2623 C2622 1.415 . S
H2624 C2621 0.999 . S
H2625 C2606 0.913 . S
H2626 C2644 0.951 . S
H2627 C2646 0.951 . S
H2628 C2648 0.950 . S
H2629 C2649 0.950 . S
H2630 C2651 0.950 . S
H2631 C2654 0.950 . S
H2632 C2655 0.950 . S
H2633 C2657 0.950 . S
H2634 C2658 0.950 . S
H2635 C2659 0.951 . S
H2636 C2661 0.951 . S
H2637 C2663 0.950 . S
H2638 C2664 0.950 . S
H2639 C2666 0.950 . S
H2640 C2669 0.950 . S
H2641 C2670 0.950 . S
H2642 C2672 0.950 . S
H2643 C2673 0.950 . S
C2644 H2626 0.951 . S
C2644 C2645 1.366 . S
C2644 C2646 1.388 . S
C2645 C2644 1.366 . S
C2645 C2649 1.385 . S
C2646 H2627 0.951 . S
C2646 C2644 1.388 . S
C2646 C2647 1.366 . S
C2647 C2646 1.366 . S
C2647 C2648 1.414 . S
C2647 C2650 1.499 . S
C2648 H2628 0.950 . S
C2648 C2647 1.414 . S
C2648 C2649 1.374 . S
C2649 H2629 0.950 . S
C2649 C2645 1.385 . S
C2649 C2648 1.374 . S
C2650 C2647 1.499 . S
C2650 C2651 1.373 . S
C2650 C2652 1.389 . S
C2651 H2630 0.950 . S
C2651 C2650 1.373 . S
C2651 C2667 1.377 . S
C2652 C2650 1.389 . S
C2652 C2653 1.524 . S
C2652 C2666 1.377 . S
C2653 C2652 1.524 . S
C2653 C2654 1.397 . S
C2653 C2658 1.363 . S
C2654 H2631 0.950 . S
C2654 C2653 1.397 . S
C2654 C2655 1.334 . S
C2655 H2632 0.950 . S
C2655 C2654 1.334 . S
C2655 C2656 1.287 . S
C2656 C2655 1.287 . S
C2656 C2657 1.524 . S
C2656 H2675 0.913 . S
C2657 H2633 0.950 . S
C2657 C2656 1.524 . S
C2657 C2658 1.415 . S
C2658 H2634 0.950 . S
C2658 C2653 1.363 . S
C2658 C2657 1.415 . S
C2659 H2635 0.951 . S
C2659 C2660 1.366 . S
C2659 C2661 1.388 . S
C2660 C2659 1.366 . S
C2660 C2664 1.385 . S
C2661 H2636 0.951 . S
C2661 C2659 1.388 . S
C2661 C2662 1.366 . S
C2662 C2661 1.366 . S
C2662 C2663 1.414 . S
C2662 C2665 1.499 . S
C2663 H2637 0.950 . S
C2663 C2662 1.414 . S
C2663 C2664 1.374 . S
C2664 H2638 0.950 . S
C2664 C2660 1.385 . S
C2664 C2663 1.374 . S
C2665 C2662 1.499 . S
C2665 C2666 1.373 . S
C2665 C2667 1.389 . S
C2666 H2639 0.950 . S
C2666 C2652 1.377 . S
C2666 C2665 1.373 . S
C2667 C2651 1.377 . S
C2667 C2665 1.389 . S
C2667 C2668 1.524 . S
C2668 C2667 1.524 . S
C2668 C2669 1.397 . S
C2668 C2673 1.363 . S
C2669 H2640 0.950 . S
C2669 C2668 1.397 . S
C2669 C2670 1.334 . S
C2670 H2641 0.950 . S
C2670 C2669 1.334 . S
C2670 C2671 1.287 . S
C2671 C2670 1.287 . S
C2671 C2672 1.524 . S
C2671 H2674 0.999 . S
C2672 H2642 0.950 . S
C2672 C2671 1.524 . S
C2672 C2673 1.415 . S
C2673 H2643 0.950 . S
C2673 C2668 1.363 . S
C2673 C2672 1.415 . S
H2674 C2671 0.999 . S
H2675 C2656 0.913 . S
H2676 C2694 0.951 . S
H2677 C2696 0.951 . S
H2678 C2698 0.950 . S
H2679 C2699 0.950 . S
H2680 C2701 0.950 1_565 S
H2681 C2704 0.950 . S
H2682 C2705 0.950 . S
H2683 C2707 0.950 . S
H2684 C2708 0.950 . S
H2685 C2709 0.946 1_565 S
H2686 C2711 0.951 1_565 S
H2687 C2713 0.950 . S
H2688 C2714 0.950 . S
H2689 C2716 0.950 . S
H2690 C2719 0.950 1_545 S
H2691 C2720 0.950 . S
H2692 C2722 0.950 . S
H2693 C2723 0.950 . S
C2694 H2676 0.951 . S
C2694 C2695 1.366 . S
C2694 C2696 1.388 . S
C2695 C2694 1.366 . S
C2695 C2699 1.385 1_545 S
C2696 H2677 0.951 . S
C2696 C2694 1.388 . S
C2696 C2697 1.366 . S
C2697 C2696 1.366 . S
C2697 C2698 1.414 1_545 S
C2697 C2700 1.499 . S
C2698 H2678 0.950 . S
C2698 C2697 1.414 1_565 S
C2698 C2699 1.374 . S
C2699 H2679 0.950 . S
C2699 C2695 1.385 1_565 S
C2699 C2698 1.374 . S
C2700 C2697 1.499 . S
C2700 C2701 1.373 . S
C2700 C2702 1.389 . S
C2701 H2680 0.950 1_545 S
C2701 C2700 1.373 . S
C2701 C2717 1.377 . S
C2702 C2700 1.389 . S
C2702 C2703 1.524 . S
C2702 C2716 1.377 . S
C2703 C2702 1.524 . S
C2703 C2704 1.397 . S
C2703 C2708 1.363 . S
C2704 H2681 0.950 . S
C2704 C2703 1.397 . S
C2704 C2705 1.334 . S
C2705 H2682 0.950 . S
C2705 C2704 1.334 . S
C2705 C2706 1.287 . S
C2706 C2705 1.287 . S
C2706 C2707 1.524 . S
C2706 H2725 0.913 . S
C2707 H2683 0.950 . S
C2707 C2706 1.524 . S
C2707 C2708 1.415 . S
C2708 H2684 0.950 . S
C2708 C2703 1.363 . S
C2708 C2707 1.415 . S
C2709 H2685 0.946 1_545 S
C2709 C2710 1.366 . S
C2709 C2711 1.388 . S
C2710 C2709 1.366 . S
C2710 C2714 1.385 . S
C2711 H2686 0.951 1_545 S
C2711 C2709 1.388 . S
C2711 C2712 1.366 . S
C2712 C2711 1.366 . S
C2712 C2713 1.414 . S
C2712 C2715 1.499 . S
C2713 H2687 0.950 . S
C2713 C2712 1.414 . S
C2713 C2714 1.374 . S
C2714 H2688 0.950 . S
C2714 C2710 1.385 . S
C2714 C2713 1.374 . S
C2715 C2712 1.499 . S
C2715 C2716 1.373 . S
C2715 C2717 1.389 . S
C2716 H2689 0.950 . S
C2716 C2702 1.377 . S
C2716 C2715 1.373 . S
C2717 C2701 1.377 . S
C2717 C2715 1.389 . S
C2717 C2718 1.524 1_545 S
C2718 C2717 1.524 1_565 S
C2718 C2719 1.397 . S
C2718 C2723 1.363 . S
C2719 H2690 0.950 1_565 S
C2719 C2718 1.397 . S
C2719 C2720 1.334 . S
C2720 H2691 0.950 . S
C2720 C2719 1.334 . S
C2720 C2721 1.287 . S
C2721 C2720 1.287 . S
C2721 C2722 1.524 . S
C2721 H2724 0.999 . S
C2722 H2692 0.950 . S
C2722 C2721 1.524 . S
C2722 C2723 1.415 . S
C2723 H2693 0.950 . S
C2723 C2718 1.363 . S
C2723 C2722 1.415 . S
H2724 C2721 0.999 . S
H2725 C2706 0.913 . S
H2726 C2744 0.951 . S
H2727 C2746 0.951 . S
H2728 C2748 0.950 . S
H2729 C2749 0.950 . S
H2730 C2751 0.950 . S
H2731 C2754 0.950 . S
H2732 C2755 0.950 . S
H2733 C2757 0.950 . S
H2734 C2758 0.950 . S
H2735 C2759 0.951 . S
H2736 C2761 0.951 . S
H2737 C2763 0.950 . S
H2738 C2764 0.950 . S
H2739 C2766 0.950 . S
H2740 C2769 0.950 . S
H2741 C2770 0.950 . S
H2742 C2772 0.950 . S
H2743 C2773 0.950 . S
C2744 H2726 0.951 . S
C2744 C2745 1.366 . S
C2744 C2746 1.388 . S
C2745 C2744 1.366 . S
C2745 C2749 1.385 . S
C2746 H2727 0.951 . S
C2746 C2744 1.388 . S
C2746 C2747 1.366 . S
C2747 C2746 1.366 . S
C2747 C2748 1.414 . S
C2747 C2750 1.499 . S
C2748 H2728 0.950 . S
C2748 C2747 1.414 . S
C2748 C2749 1.374 . S
C2749 H2729 0.950 . S
C2749 C2745 1.385 . S
C2749 C2748 1.374 . S
C2750 C2747 1.499 . S
C2750 C2751 1.373 . S
C2750 C2752 1.389 . S
C2751 H2730 0.950 . S
C2751 C2750 1.373 . S
C2751 C2767 1.377 . S
C2752 C2750 1.389 . S
C2752 C2753 1.524 . S
C2752 C2766 1.377 . S
C2753 C2752 1.524 . S
C2753 C2754 1.397 . S
C2753 C2758 1.363 . S
C2754 H2731 0.950 . S
C2754 C2753 1.397 . S
C2754 C2755 1.334 . S
C2755 H2732 0.950 . S
C2755 C2754 1.334 . S
C2755 C2756 1.287 . S
C2756 C2755 1.287 . S
C2756 C2757 1.524 . S
C2756 H2775 0.913 . S
C2757 H2733 0.950 . S
C2757 C2756 1.524 . S
C2757 C2758 1.415 . S
C2758 H2734 0.950 . S
C2758 C2753 1.363 . S
C2758 C2757 1.415 . S
C2759 H2735 0.951 . S
C2759 C2760 1.366 . S
C2759 C2761 1.388 . S
C2760 C2759 1.366 . S
C2760 C2764 1.385 . S
C2761 H2736 0.951 . S
C2761 C2759 1.388 . S
C2761 C2762 1.366 . S
C2762 C2761 1.366 . S
C2762 C2763 1.414 . S
C2762 C2765 1.499 . S
C2763 H2737 0.950 . S
C2763 C2762 1.414 . S
C2763 C2764 1.374 . S
C2764 H2738 0.950 . S
C2764 C2760 1.385 . S
C2764 C2763 1.374 . S
C2765 C2762 1.499 . S
C2765 C2766 1.373 . S
C2765 C2767 1.389 . S
C2766 H2739 0.950 . S
C2766 C2752 1.377 . S
C2766 C2765 1.373 . S
C2767 C2751 1.377 . S
C2767 C2765 1.389 . S
C2767 C2768 1.524 . S
C2768 C2767 1.524 . S
C2768 C2769 1.397 . S
C2768 C2773 1.363 . S
C2769 H2740 0.950 . S
C2769 C2768 1.397 . S
C2769 C2770 1.334 . S
C2770 H2741 0.950 . S
C2770 C2769 1.334 . S
C2770 C2771 1.287 . S
C2771 C2770 1.287 . S
C2771 C2772 1.524 . S
C2771 H2774 0.999 . S
C2772 H2742 0.950 . S
C2772 C2771 1.524 . S
C2772 C2773 1.415 . S
C2773 H2743 0.950 . S
C2773 C2768 1.363 . S
C2773 C2772 1.415 . S
H2774 C2771 0.999 . S
H2775 C2756 0.913 . S
H2776 C2794 0.951 . S
H2777 C2796 0.951 . S
H2778 C2798 0.950 . S
H2779 C2799 0.950 . S
H2780 C2801 0.950 . S
H2781 C2804 0.950 . S
H2782 C2805 0.950 . S
H2783 C2807 0.950 1_655 S
H2784 C2808 0.950 1_545 S
H2785 C2809 0.951 . S
H2786 C2811 0.951 . S
H2787 C2813 0.950 . S
H2788 C2814 0.950 . S
H2789 C2816 0.950 . S
H2790 C2819 0.950 . S
H2791 C2820 0.950 . S
H2792 C2822 0.950 . S
H2793 C2823 0.950 . S
C2794 H2776 0.951 . S
C2794 C2795 1.366 . S
C2794 C2796 1.388 . S
C2795 C2794 1.366 . S
C2795 C2799 1.385 . S
C2796 H2777 0.951 . S
C2796 C2794 1.388 . S
C2796 C2797 1.366 . S
C2797 C2796 1.366 . S
C2797 C2798 1.414 . S
C2797 C2800 1.499 . S
C2798 H2778 0.950 . S
C2798 C2797 1.414 . S
C2798 C2799 1.374 . S
C2799 H2779 0.950 . S
C2799 C2795 1.385 . S
C2799 C2798 1.374 . S
C2800 C2797 1.499 . S
C2800 C2801 1.373 . S
C2800 C2802 1.389 . S
C2801 H2780 0.950 . S
C2801 C2800 1.373 . S
C2801 C2817 1.377 . S
C2802 C2800 1.389 . S
C2802 C2803 1.524 1_545 S
C2802 C2816 1.377 . S
C2803 C2802 1.524 1_565 S
C2803 C2804 1.397 . S
C2803 C2808 1.363 . S
C2804 H2781 0.950 . S
C2804 C2803 1.397 . S
C2804 C2805 1.334 . S
C2805 H2782 0.950 . S
C2805 C2804 1.334 . S
C2805 C2806 1.287 . S
C2806 C2805 1.287 . S
C2806 C2807 1.524 . S
C2806 H2825 0.913 . S
C2807 H2783 0.950 1_455 S
C2807 C2806 1.524 . S
C2807 C2808 1.415 . S
C2808 H2784 0.950 1_565 S
C2808 C2803 1.363 . S
C2808 C2807 1.415 . S
C2809 H2785 0.951 . S
C2809 C2810 1.366 . S
C2809 C2811 1.388 . S
C2810 C2809 1.366 . S
C2810 C2814 1.385 . S
C2811 H2786 0.951 . S
C2811 C2809 1.388 . S
C2811 C2812 1.366 . S
C2812 C2811 1.366 . S
C2812 C2813 1.414 . S
C2812 C2815 1.499 . S
C2813 H2787 0.950 . S
C2813 C2812 1.414 . S
C2813 C2814 1.374 . S
C2814 H2788 0.950 . S
C2814 C2810 1.385 . S
C2814 C2813 1.374 . S
C2815 C2812 1.499 . S
C2815 C2816 1.373 . S
C2815 C2817 1.389 . S
C2816 H2789 0.950 . S
C2816 C2802 1.377 . S
C2816 C2815 1.373 . S
C2817 C2801 1.377 . S
C2817 C2815 1.389 . S
C2817 C2818 1.524 . S
C2818 C2817 1.524 . S
C2818 C2819 1.397 . S
C2818 C2823 1.363 . S
C2819 H2790 0.950 . S
C2819 C2818 1.397 . S
C2819 C2820 1.334 . S
C2820 H2791 0.950 . S
C2820 C2819 1.334 . S
C2820 C2821 1.287 . S
C2821 C2820 1.287 . S
C2821 C2822 1.524 . S
C2821 H2824 0.999 . S
C2822 H2792 0.950 . S
C2822 C2821 1.524 . S
C2822 C2823 1.415 . S
C2823 H2793 0.950 . S
C2823 C2818 1.363 . S
C2823 C2822 1.415 . S
H2824 C2821 0.999 . S
H2825 C2806 0.913 . S
H2826 C2844 0.951 . S
H2827 C2846 0.951 . S
H2828 C2848 0.950 . S
H2829 C2849 0.950 . S
H2830 C2851 0.950 . S
H2831 C2854 0.950 . S
H2832 C2855 0.950 . S
H2833 C2857 0.950 . S
H2834 C2858 0.950 . S
H2835 C2859 0.951 . S
H2836 C2861 0.951 . S
H2837 C2863 0.950 . S
H2838 C2864 0.950 . S
H2839 C2866 0.950 . S
H2840 C2869 0.950 . S
H2841 C2870 0.950 . S
H2842 C2872 0.950 . S
H2843 C2873 0.950 . S
C2844 H2826 0.951 . S
C2844 C2845 1.366 . S
C2844 C2846 1.388 . S
C2845 C2844 1.366 . S
C2845 C2849 1.385 . S
C2846 H2827 0.951 . S
C2846 C2844 1.388 . S
C2846 C2847 1.366 . S
C2847 C2846 1.366 . S
C2847 C2848 1.414 . S
C2847 C2850 1.499 . S
C2848 H2828 0.950 . S
C2848 C2847 1.414 . S
C2848 C2849 1.374 . S
C2849 H2829 0.950 . S
C2849 C2845 1.385 . S
C2849 C2848 1.374 . S
C2850 C2847 1.499 . S
C2850 C2851 1.373 . S
C2850 C2852 1.389 . S
C2851 H2830 0.950 . S
C2851 C2850 1.373 . S
C2851 C2867 1.377 . S
C2852 C2850 1.389 . S
C2852 C2853 1.524 . S
C2852 C2866 1.377 . S
C2853 C2852 1.524 . S
C2853 C2854 1.397 . S
C2853 C2858 1.363 . S
C2854 H2831 0.950 . S
C2854 C2853 1.397 . S
C2854 C2855 1.334 . S
C2855 H2832 0.950 . S
C2855 C2854 1.334 . S
C2855 C2856 1.287 . S
C2856 C2855 1.287 . S
C2856 C2857 1.524 . S
C2856 H2875 0.913 . S
C2857 H2833 0.950 . S
C2857 C2856 1.524 . S
C2857 C2858 1.415 . S
C2858 H2834 0.950 . S
C2858 C2853 1.363 . S
C2858 C2857 1.415 . S
C2859 H2835 0.951 . S
C2859 C2860 1.366 . S
C2859 C2861 1.388 . S
C2860 C2859 1.366 . S
C2860 C2864 1.385 . S
C2861 H2836 0.951 . S
C2861 C2859 1.388 . S
C2861 C2862 1.366 . S
C2862 C2861 1.366 . S
C2862 C2863 1.414 . S
C2862 C2865 1.499 . S
C2863 H2837 0.950 . S
C2863 C2862 1.414 . S
C2863 C2864 1.374 . S
C2864 H2838 0.950 . S
C2864 C2860 1.385 . S
C2864 C2863 1.374 . S
C2865 C2862 1.499 . S
C2865 C2866 1.373 . S
C2865 C2867 1.389 . S
C2866 H2839 0.950 . S
C2866 C2852 1.377 . S
C2866 C2865 1.373 . S
C2867 C2851 1.377 . S
C2867 C2865 1.389 . S
C2867 C2868 1.524 . S
C2868 C2867 1.524 . S
C2868 C2869 1.397 . S
C2868 C2873 1.363 . S
C2869 H2840 0.950 . S
C2869 C2868 1.397 . S
C2869 C2870 1.334 . S
C2870 H2841 0.950 . S
C2870 C2869 1.334 . S
C2870 C2871 1.287 . S
C2871 C2870 1.287 . S
C2871 C2872 1.524 . S
C2871 H2874 0.999 . S
C2872 H2842 0.950 . S
C2872 C2871 1.524 . S
C2872 C2873 1.415 . S
C2873 H2843 0.950 . S
C2873 C2868 1.363 . S
C2873 C2872 1.415 . S
H2874 C2871 0.999 . S
H2875 C2856 0.913 . S
H2876 C2894 0.951 . S
H2877 C2896 0.951 . S
H2878 C2898 0.950 . S
H2879 C2899 0.950 . S
H2880 C2901 0.950 . S
H2881 C2904 0.950 . S
H2882 C2905 0.950 . S
H2883 C2907 0.950 . S
H2884 C2908 0.950 . S
H2885 C2909 0.951 . S
H2886 C2911 0.951 . S
H2887 C2913 0.950 . S
H2888 C2914 0.950 . S
H2889 C2916 0.950 . S
H2890 C2919 0.950 . S
H2891 C2920 0.950 . S
H2892 C2922 0.950 . S
H2893 C2923 0.950 . S
C2894 H2876 0.951 . S
C2894 C2895 1.366 1_565 S
C2894 C2896 1.388 . S
C2895 C2894 1.366 1_545 S
C2895 C2899 1.385 . S
C2896 H2877 0.951 . S
C2896 C2894 1.388 . S
C2896 C2897 1.332 1_565 S
C2897 C2896 1.332 1_545 S
C2897 C2898 1.457 . S
C2897 C2900 1.497 . S
C2898 H2878 0.950 . S
C2898 C2897 1.457 . S
C2898 C2899 1.374 . S
C2899 H2879 0.950 . S
C2899 C2895 1.385 . S
C2899 C2898 1.374 . S
C2900 C2897 1.497 . S
C2900 C2901 1.399 . S
C2900 C2902 1.363 1_545 S
C2901 H2880 0.950 . S
C2901 C2900 1.399 . S
C2901 C2917 1.377 . S
C2902 C2900 1.363 1_565 S
C2902 C2903 1.524 . S
C2902 C2916 1.377 . S
C2903 C2902 1.524 . S
C2903 C2904 1.397 . S
C2903 C2908 1.363 . S
C2904 H2881 0.950 . S
C2904 C2903 1.397 . S
C2904 C2905 1.334 . S
C2905 H2882 0.950 . S
C2905 C2904 1.334 . S
C2905 C2906 1.287 . S
C2906 C2905 1.287 . S
C2906 C2907 1.524 . S
C2906 H2925 0.913 . S
C2907 H2883 0.950 . S
C2907 C2906 1.524 . S
C2907 C2908 1.415 . S
C2908 H2884 0.950 . S
C2908 C2903 1.363 . S
C2908 C2907 1.415 . S
C2909 H2885 0.951 . S
C2909 C2910 1.366 1_545 S
C2909 C2911 1.388 . S
C2910 C2909 1.366 1_565 S
C2910 C2914 1.385 . S
C2911 H2886 0.951 . S
C2911 C2909 1.388 . S
C2911 C2912 1.366 1_545 S
C2912 C2911 1.366 1_565 S
C2912 C2913 1.414 . S
C2912 C2915 1.499 . S
C2913 H2887 0.950 . S
C2913 C2912 1.414 . S
C2913 C2914 1.374 . S
C2914 H2888 0.950 . S
C2914 C2910 1.385 . S
C2914 C2913 1.374 . S
C2915 C2912 1.499 . S
C2915 C2916 1.373 . S
C2915 C2917 1.389 1_565 S
C2916 H2889 0.950 . S
C2916 C2902 1.377 . S
C2916 C2915 1.373 . S
C2917 C2901 1.377 . S
C2917 C2915 1.389 1_545 S
C2917 C2918 1.524 . S
C2918 C2917 1.524 . S
C2918 C2919 1.397 . S
C2918 C2923 1.363 . S
C2919 H2890 0.950 . S
C2919 C2918 1.397 . S
C2919 C2920 1.334 . S
C2920 H2891 0.950 . S
C2920 C2919 1.334 . S
C2920 C2921 1.287 . S
C2921 C2920 1.287 . S
C2921 C2922 1.524 . S
C2921 H2924 0.999 . S
C2922 H2892 0.950 . S
C2922 C2921 1.524 . S
C2922 C2923 1.415 . S
C2923 H2893 0.950 . S
C2923 C2918 1.363 . S
C2923 C2922 1.415 . S
H2924 C2921 0.999 . S
H2925 C2906 0.913 . S
H2926 C2944 0.951 . S
H2927 C2946 0.951 . S
H2928 C2948 0.950 . S
H2929 C2949 0.950 . S
H2930 C2951 0.950 . S
H2931 C2954 0.950 . S
H2932 C2955 0.950 . S
H2933 C2957 0.950 . S
H2934 C2958 0.950 . S
H2935 C2959 0.951 . S
H2936 C2961 0.951 . S
H2937 C2963 0.950 . S
H2938 C2964 0.950 . S
H2939 C2966 0.950 . S
H2940 C2969 0.950 . S
H2941 C2970 0.950 . S
H2942 C2972 0.950 . S
H2943 C2973 0.950 . S
C2944 H2926 0.951 . S
C2944 C2945 1.366 . S
C2944 C2946 1.388 . S
C2945 C2944 1.366 . S
C2945 C2949 1.385 . S
C2946 H2927 0.951 . S
C2946 C2944 1.388 . S
C2946 C2947 1.366 . S
C2947 C2946 1.366 . S
C2947 C2948 1.414 . S
C2947 C2950 1.499 . S
C2948 H2928 0.950 . S
C2948 C2947 1.414 . S
C2948 C2949 1.374 . S
C2949 H2929 0.950 . S
C2949 C2945 1.385 . S
C2949 C2948 1.374 . S
C2950 C2947 1.499 . S
C2950 C2951 1.373 . S
C2950 C2952 1.389 . S
C2951 H2930 0.950 . S
C2951 C2950 1.373 . S
C2951 C2967 1.377 . S
C2952 C2950 1.389 . S
C2952 C2953 1.524 . S
C2952 C2966 1.377 . S
C2953 C2952 1.524 . S
C2953 C2954 1.397 . S
C2953 C2958 1.363 . S
C2954 H2931 0.950 . S
C2954 C2953 1.397 . S
C2954 C2955 1.334 . S
C2955 H2932 0.950 . S
C2955 C2954 1.334 . S
C2955 C2956 1.287 . S
C2956 C2955 1.287 . S
C2956 C2957 1.524 . S
C2956 H2975 0.913 . S
C2957 H2933 0.950 . S
C2957 C2956 1.524 . S
C2957 C2958 1.415 . S
C2958 H2934 0.950 . S
C2958 C2953 1.363 . S
C2958 C2957 1.415 . S
C2959 H2935 0.951 . S
C2959 C2960 1.366 . S
C2959 C2961 1.388 . S
C2960 C2959 1.366 . S
C2960 C2964 1.385 . S
C2961 H2936 0.951 . S
C2961 C2959 1.388 . S
C2961 C2962 1.366 . S
C2962 C2961 1.366 . S
C2962 C2963 1.414 . S
C2962 C2965 1.499 . S
C2963 H2937 0.950 . S
C2963 C2962 1.414 . S
C2963 C2964 1.374 . S
C2964 H2938 0.950 . S
C2964 C2960 1.385 . S
C2964 C2963 1.374 . S
C2965 C2962 1.499 . S
C2965 C2966 1.373 . S
C2965 C2967 1.389 . S
C2966 H2939 0.950 . S
C2966 C2952 1.377 . S
C2966 C2965 1.373 . S
C2967 C2951 1.377 . S
C2967 C2965 1.389 . S
C2967 C2968 1.524 . S
C2968 C2967 1.524 . S
C2968 C2969 1.397 . S
C2968 C2973 1.363 . S
C2969 H2940 0.950 . S
C2969 C2968 1.397 . S
C2969 C2970 1.334 . S
C2970 H2941 0.950 . S
C2970 C2969 1.334 . S
C2970 C2971 1.287 . S
C2971 C2970 1.287 . S
C2971 C2972 1.524 . S
C2971 H2974 0.999 . S
C2972 H2942 0.950 . S
C2972 C2971 1.524 . S
C2972 C2973 1.415 . S
C2973 H2943 0.950 . S
C2973 C2968 1.363 . S
C2973 C2972 1.415 . S
H2974 C2971 0.999 . S
H2975 C2956 0.913 . S
H2976 C2994 0.951 . S
H2977 C2996 0.951 . S
H2978 C2998 0.950 . S
H2979 C2999 0.950 . S
H2980 C3001 0.950 . S
H2981 C3004 0.950 . S
H2982 C3005 0.950 . S
H2983 C3007 0.950 . S
H2984 C3008 0.950 . S
H2985 C3009 0.951 . S
H2986 C3011 0.951 . S
H2987 C3013 0.949 1_556 S
H2988 C3014 0.950 . S
H2989 C3016 0.950 . S
H2990 C3019 0.950 . S
H2991 C3020 0.950 . S
H2992 C3022 0.950 . S
H2993 C3023 0.950 . S
C2994 H2976 0.951 . S
C2994 C2995 1.366 . S
C2994 C2996 1.388 . S
C2995 C2994 1.366 . S
C2995 C2999 1.385 . S
C2996 H2977 0.951 . S
C2996 C2994 1.388 . S
C2996 C2997 1.366 . S
C2997 C2996 1.366 . S
C2997 C2998 1.414 . S
C2997 C3000 1.499 . S
C2998 H2978 0.950 . S
C2998 C2997 1.414 . S
C2998 C2999 1.374 . S
C2999 H2979 0.950 . S
C2999 C2995 1.385 . S
C2999 C2998 1.374 . S
C3000 C2997 1.499 . S
C3000 C3001 1.373 . S
C3000 C3002 1.389 . S
C3001 H2980 0.950 . S
C3001 C3000 1.373 . S
C3001 C3017 1.377 . S
C3002 C3000 1.389 . S
C3002 C3003 1.524 . S
C3002 C3016 1.377 . S
C3003 C3002 1.524 . S
C3003 C3004 1.397 . S
C3003 C3008 1.363 . S
C3004 H2981 0.950 . S
C3004 C3003 1.397 . S
C3004 C3005 1.334 . S
C3005 H2982 0.950 . S
C3005 C3004 1.334 . S
C3005 C3006 1.287 . S
C3006 C3005 1.287 . S
C3006 C3007 1.524 . S
C3006 H3025 0.913 . S
C3007 H2983 0.950 . S
C3007 C3006 1.524 . S
C3007 C3008 1.415 . S
C3008 H2984 0.950 . S
C3008 C3003 1.363 . S
C3008 C3007 1.415 . S
C3009 H2985 0.951 . S
C3009 C3010 1.366 . S
C3009 C3011 1.388 . S
C3010 C3009 1.366 . S
C3010 C3014 1.385 1_554 S
C3011 H2986 0.951 . S
C3011 C3009 1.388 . S
C3011 C3012 1.366 . S
C3012 C3011 1.366 . S
C3012 C3013 1.417 . S
C3012 C3015 1.499 . S
C3013 H2987 0.949 1_554 S
C3013 C3012 1.417 . S
C3013 C3014 1.372 1_554 S
C3014 H2988 0.950 . S
C3014 C3010 1.385 1_556 S
C3014 C3013 1.372 1_556 S
C3015 C3012 1.499 . S
C3015 C3016 1.373 . S
C3015 C3017 1.389 . S
C3016 H2989 0.950 . S
C3016 C3002 1.377 . S
C3016 C3015 1.373 . S
C3017 C3001 1.377 . S
C3017 C3015 1.389 . S
C3017 C3018 1.524 . S
C3018 C3017 1.524 . S
C3018 C3019 1.397 1_554 S
C3018 C3023 1.363 . S
C3019 H2990 0.950 . S
C3019 C3018 1.397 1_556 S
C3019 C3020 1.334 . S
C3020 H2991 0.950 . S
C3020 C3019 1.334 . S
C3020 C3021 1.287 1_556 S
C3021 C3020 1.287 1_554 S
C3021 C3022 1.524 . S
C3021 H3024 0.999 1_554 S
C3022 H2992 0.950 . S
C3022 C3021 1.524 . S
C3022 C3023 1.415 . S
C3023 H2993 0.950 . S
C3023 C3018 1.363 . S
C3023 C3022 1.415 . S
H3024 C3021 0.999 1_556 S
H3025 C3006 0.913 . S
H3026 C3044 0.951 . S
H3027 C3046 0.951 . S
H3028 C3048 0.950 . S
H3029 C3049 0.950 . S
H3030 C3051 0.950 . S
H3031 C3054 0.950 . S
H3032 C3055 0.950 . S
H3033 C3057 0.950 . S
H3034 C3058 0.950 . S
H3035 C3059 0.951 . S
H3036 C3061 0.951 . S
H3037 C3063 0.950 . S
H3038 C3064 0.950 . S
H3039 C3066 0.950 1_556 S
H3040 C3069 0.950 . S
H3041 C3070 0.950 . S
H3042 C3072 0.950 . S
H3043 C3073 0.950 . S
C3044 H3026 0.951 . S
C3044 C3045 1.366 . S
C3044 C3046 1.388 . S
C3045 C3044 1.366 . S
C3045 C3049 1.385 . S
C3046 H3027 0.951 . S
C3046 C3044 1.388 . S
C3046 C3047 1.366 . S
C3047 C3046 1.366 . S
C3047 C3048 1.414 . S
C3047 C3050 1.499 . S
C3048 H3028 0.950 . S
C3048 C3047 1.414 . S
C3048 C3049 1.374 . S
C3049 H3029 0.950 . S
C3049 C3045 1.385 . S
C3049 C3048 1.374 . S
C3050 C3047 1.499 . S
C3050 C3051 1.373 . S
C3050 C3052 1.389 . S
C3051 H3030 0.950 . S
C3051 C3050 1.373 . S
C3051 C3067 1.377 . S
C3052 C3050 1.389 . S
C3052 C3053 1.524 1_554 S
C3052 C3066 1.377 . S
C3053 C3052 1.524 1_556 S
C3053 C3054 1.397 . S
C3053 C3058 1.363 . S
C3054 H3031 0.950 . S
C3054 C3053 1.397 . S
C3054 C3055 1.334 . S
C3055 H3032 0.950 . S
C3055 C3054 1.334 . S
C3055 C3056 1.287 . S
C3056 C3055 1.287 . S
C3056 C3057 1.524 . S
C3056 H3075 0.913 . S
C3057 H3033 0.950 . S
C3057 C3056 1.524 . S
C3057 C3058 1.415 . S
C3058 H3034 0.950 . S
C3058 C3053 1.363 . S
C3058 C3057 1.415 . S
C3059 H3035 0.951 . S
C3059 C3060 1.366 . S
C3059 C3061 1.388 . S
C3060 C3059 1.366 . S
C3060 C3064 1.385 . S
C3061 H3036 0.951 . S
C3061 C3059 1.388 . S
C3061 C3062 1.366 . S
C3062 C3061 1.366 . S
C3062 C3063 1.414 . S
C3062 C3065 1.499 . S
C3063 H3037 0.950 . S
C3063 C3062 1.414 . S
C3063 C3064 1.374 . S
C3064 H3038 0.950 . S
C3064 C3060 1.385 . S
C3064 C3063 1.374 . S
C3065 C3062 1.499 . S
C3065 C3066 1.373 . S
C3065 C3067 1.389 . S
C3066 H3039 0.950 1_554 S
C3066 C3052 1.377 . S
C3066 C3065 1.373 . S
C3067 C3051 1.377 . S
C3067 C3065 1.389 . S
C3067 C3068 1.524 . S
C3068 C3067 1.524 . S
C3068 C3069 1.397 . S
C3068 C3073 1.363 . S
C3069 H3040 0.950 . S
C3069 C3068 1.397 . S
C3069 C3070 1.334 . S
C3070 H3041 0.950 . S
C3070 C3069 1.334 . S
C3070 C3071 1.287 . S
C3071 C3070 1.287 . S
C3071 C3072 1.524 . S
C3071 H3074 0.999 . S
C3072 H3042 0.950 . S
C3072 C3071 1.524 . S
C3072 C3073 1.415 . S
C3073 H3043 0.950 . S
C3073 C3068 1.363 . S
C3073 C3072 1.415 . S
H3074 C3071 0.999 . S
H3075 C3056 0.913 . S
H3076 C3094 0.951 . S
H3077 C3096 0.951 . S
H3078 C3098 0.950 . S
H3079 C3099 0.950 . S
H3080 C3101 0.950 . S
H3081 C3104 0.950 . S
H3082 C3105 0.950 . S
H3083 C3107 0.950 . S
H3084 C3108 0.950 . S
H3085 C3109 0.951 . S
H3086 C3111 0.951 . S
H3087 C3113 0.950 . S
H3088 C3114 0.950 . S
H3089 C3116 0.950 . S
H3090 C3119 0.950 . S
H3091 C3120 0.950 . S
H3092 C3122 0.950 . S
H3093 C3123 0.950 . S
C3094 H3076 0.951 . S
C3094 C3095 1.366 . S
C3094 C3096 1.388 . S
C3095 C3094 1.366 . S
C3095 C3099 1.385 . S
C3096 H3077 0.951 . S
C3096 C3094 1.388 . S
C3096 C3097 1.366 . S
C3097 C3096 1.366 . S
C3097 C3098 1.414 . S
C3097 C3100 1.499 . S
C3098 H3078 0.950 . S
C3098 C3097 1.414 . S
C3098 C3099 1.374 . S
C3099 H3079 0.950 . S
C3099 C3095 1.385 . S
C3099 C3098 1.374 . S
C3100 C3097 1.499 . S
C3100 C3101 1.373 . S
C3100 C3102 1.389 . S
C3101 H3080 0.950 . S
C3101 C3100 1.373 . S
C3101 C3117 1.377 . S
C3102 C3100 1.389 . S
C3102 C3103 1.524 . S
C3102 C3116 1.377 . S
C3103 C3102 1.524 . S
C3103 C3104 1.397 . S
C3103 C3108 1.363 . S
C3104 H3081 0.950 . S
C3104 C3103 1.397 . S
C3104 C3105 1.334 . S
C3105 H3082 0.950 . S
C3105 C3104 1.334 . S
C3105 C3106 1.287 . S
C3106 C3105 1.287 . S
C3106 C3107 1.524 . S
C3106 H3125 0.913 . S
C3107 H3083 0.950 . S
C3107 C3106 1.524 . S
C3107 C3108 1.415 . S
C3108 H3084 0.950 . S
C3108 C3103 1.363 . S
C3108 C3107 1.415 . S
C3109 H3085 0.951 . S
C3109 C3110 1.366 . S
C3109 C3111 1.388 . S
C3110 C3109 1.366 . S
C3110 C3114 1.385 . S
C3111 H3086 0.951 . S
C3111 C3109 1.388 . S
C3111 C3112 1.366 . S
C3112 C3111 1.366 . S
C3112 C3113 1.414 . S
C3112 C3115 1.499 . S
C3113 H3087 0.950 . S
C3113 C3112 1.414 . S
C3113 C3114 1.374 . S
C3114 H3088 0.950 . S
C3114 C3110 1.385 . S
C3114 C3113 1.374 . S
C3115 C3112 1.499 . S
C3115 C3116 1.373 . S
C3115 C3117 1.389 . S
C3116 H3089 0.950 . S
C3116 C3102 1.377 . S
C3116 C3115 1.373 . S
C3117 C3101 1.377 . S
C3117 C3115 1.389 . S
C3117 C3118 1.524 . S
C3118 C3117 1.524 . S
C3118 C3119 1.397 . S
C3118 C3123 1.363 . S
C3119 H3090 0.950 . S
C3119 C3118 1.397 . S
C3119 C3120 1.334 . S
C3120 H3091 0.950 . S
C3120 C3119 1.334 . S
C3120 C3121 1.287 . S
C3121 C3120 1.287 . S
C3121 C3122 1.524 . S
C3121 H3124 0.999 . S
C3122 H3092 0.950 . S
C3122 C3121 1.524 . S
C3122 C3123 1.415 . S
C3123 H3093 0.950 . S
C3123 C3118 1.363 . S
C3123 C3122 1.415 . S
H3124 C3121 0.999 . S
H3125 C3106 0.913 . S
H3126 C3144 0.951 . S
H3127 C3146 0.951 . S
H3128 C3148 0.950 . S
H3129 C3149 0.950 . S
H3130 C3151 0.950 . S
H3131 C3154 0.950 . S
H3132 C3155 0.950 . S
H3133 C3157 0.950 . S
H3134 C3158 0.950 . S
H3135 C3159 0.951 . S
H3136 C3161 0.951 . S
H3137 C3163 0.950 . S
H3138 C3164 0.950 . S
H3139 C3166 0.950 . S
H3140 C3169 0.950 . S
H3141 C3170 0.950 . S
H3142 C3172 0.950 . S
H3143 C3173 0.950 . S
C3144 H3126 0.951 . S
C3144 C3145 1.366 . S
C3144 C3146 1.388 . S
C3145 C3144 1.366 . S
C3145 C3149 1.385 . S
C3146 H3127 0.951 . S
C3146 C3144 1.388 . S
C3146 C3147 1.366 . S
C3147 C3146 1.366 . S
C3147 C3148 1.414 . S
C3147 C3150 1.499 . S
C3148 H3128 0.950 . S
C3148 C3147 1.414 . S
C3148 C3149 1.374 . S
C3149 H3129 0.950 . S
C3149 C3145 1.385 . S
C3149 C3148 1.374 . S
C3150 C3147 1.499 . S
C3150 C3151 1.373 . S
C3150 C3152 1.389 . S
C3151 H3130 0.950 . S
C3151 C3150 1.373 . S
C3151 C3167 1.377 . S
C3152 C3150 1.389 . S
C3152 C3153 1.524 . S
C3152 C3166 1.377 . S
C3153 C3152 1.524 . S
C3153 C3154 1.397 . S
C3153 C3158 1.363 . S
C3154 H3131 0.950 . S
C3154 C3153 1.397 . S
C3154 C3155 1.334 . S
C3155 H3132 0.950 . S
C3155 C3154 1.334 . S
C3155 C3156 1.287 . S
C3156 C3155 1.287 . S
C3156 C3157 1.524 . S
C3156 H3175 0.913 . S
C3157 H3133 0.950 . S
C3157 C3156 1.524 . S
C3157 C3158 1.415 . S
C3158 H3134 0.950 . S
C3158 C3153 1.363 . S
C3158 C3157 1.415 . S
C3159 H3135 0.951 . S
C3159 C3160 1.366 . S
C3159 C3161 1.388 . S
C3160 C3159 1.366 . S
C3160 C3164 1.385 . S
C3161 H3136 0.951 . S
C3161 C3159 1.388 . S
C3161 C3162 1.366 . S
C3162 C3161 1.366 . S
C3162 C3163 1.414 . S
C3162 C3165 1.499 . S
C3163 H3137 0.950 . S
C3163 C3162 1.414 . S
C3163 C3164 1.374 . S
C3164 H3138 0.950 . S
C3164 C3160 1.385 . S
C3164 C3163 1.374 . S
C3165 C3162 1.499 . S
C3165 C3166 1.373 . S
C3165 C3167 1.389 . S
C3166 H3139 0.950 . S
C3166 C3152 1.377 . S
C3166 C3165 1.373 . S
C3167 C3151 1.377 . S
C3167 C3165 1.389 . S
C3167 C3168 1.524 . S
C3168 C3167 1.524 . S
C3168 C3169 1.397 . S
C3168 C3173 1.363 . S
C3169 H3140 0.950 . S
C3169 C3168 1.397 . S
C3169 C3170 1.334 . S
C3170 H3141 0.950 . S
C3170 C3169 1.334 . S
C3170 C3171 1.287 . S
C3171 C3170 1.287 . S
C3171 C3172 1.524 . S
C3171 H3174 0.999 . S
C3172 H3142 0.950 . S
C3172 C3171 1.524 . S
C3172 C3173 1.415 . S
C3173 H3143 0.950 . S
C3173 C3168 1.363 . S
C3173 C3172 1.415 . S
H3174 C3171 0.999 . S
H3175 C3156 0.913 . S
H3176 C3194 0.951 . S
H3177 C3196 0.951 . S
H3178 C3198 0.950 . S
H3179 C3199 0.950 . S
H3180 C3201 0.950 . S
H3181 C3204 0.950 . S
H3182 C3205 0.950 . S
H3183 C3207 0.950 . S
H3184 C3208 0.950 . S
H3185 C3209 0.951 . S
H3186 C3211 0.951 . S
H3187 C3213 0.950 . S
H3188 C3214 0.950 . S
H3189 C3216 0.950 . S
H3190 C3219 0.950 . S
H3191 C3220 0.950 . S
H3192 C3222 0.950 . S
H3193 C3223 0.950 . S
C3194 H3176 0.951 . S
C3194 C3195 1.366 . S
C3194 C3196 1.388 . S
C3195 C3194 1.366 . S
C3195 C3199 1.385 1_545 S
C3196 H3177 0.951 . S
C3196 C3194 1.388 . S
C3196 C3197 1.366 1_545 S
C3197 C3196 1.366 1_565 S
C3197 C3198 1.414 . S
C3197 C3200 1.499 . S
C3198 H3178 0.950 . S
C3198 C3197 1.414 . S
C3198 C3199 1.374 . S
C3199 H3179 0.950 . S
C3199 C3195 1.385 1_565 S
C3199 C3198 1.374 . S
C3200 C3197 1.499 . S
C3200 C3201 1.373 . S
C3200 C3202 1.389 . S
C3201 H3180 0.950 . S
C3201 C3200 1.373 . S
C3201 C3217 1.377 . S
C3202 C3200 1.389 . S
C3202 C3203 1.524 . S
C3202 C3216 1.377 . S
C3203 C3202 1.524 . S
C3203 C3204 1.397 . S
C3203 C3208 1.363 . S
C3204 H3181 0.950 . S
C3204 C3203 1.397 . S
C3204 C3205 1.334 . S
C3205 H3182 0.950 . S
C3205 C3204 1.334 . S
C3205 C3206 1.287 1_565 S
C3206 C3205 1.287 1_545 S
C3206 C3207 1.524 . S
C3206 H3225 0.913 . S
C3207 H3183 0.950 . S
C3207 C3206 1.524 . S
C3207 C3208 1.415 1_545 S
C3208 H3184 0.950 . S
C3208 C3203 1.363 . S
C3208 C3207 1.415 1_565 S
C3209 H3185 0.951 . S
C3209 C3210 1.366 . S
C3209 C3211 1.388 . S
C3210 C3209 1.366 . S
C3210 C3214 1.385 . S
C3211 H3186 0.951 . S
C3211 C3209 1.388 . S
C3211 C3212 1.366 . S
C3212 C3211 1.366 . S
C3212 C3213 1.414 . S
C3212 C3215 1.499 . S
C3213 H3187 0.950 . S
C3213 C3212 1.414 . S
C3213 C3214 1.374 . S
C3214 H3188 0.950 . S
C3214 C3210 1.385 . S
C3214 C3213 1.374 . S
C3215 C3212 1.499 . S
C3215 C3216 1.373 . S
C3215 C3217 1.389 . S
C3216 H3189 0.950 . S
C3216 C3202 1.377 . S
C3216 C3215 1.373 . S
C3217 C3201 1.377 . S
C3217 C3215 1.389 . S
C3217 C3218 1.524 . S
C3218 C3217 1.524 . S
C3218 C3219 1.397 . S
C3218 C3223 1.363 . S
C3219 H3190 0.950 . S
C3219 C3218 1.397 . S
C3219 C3220 1.334 . S
C3220 H3191 0.950 . S
C3220 C3219 1.334 . S
C3220 C3221 1.287 . S
C3221 C3220 1.287 . S
C3221 C3222 1.524 . S
C3221 H3224 0.999 . S
C3222 H3192 0.950 . S
C3222 C3221 1.524 . S
C3222 C3223 1.415 . S
C3223 H3193 0.950 . S
C3223 C3218 1.363 . S
C3223 C3222 1.415 . S
H3224 C3221 0.999 . S
H3225 C3206 0.913 . S
H3226 C3244 0.951 . S
H3227 C3246 0.951 . S
H3228 C3248 0.950 . S
H3229 C3249 0.950 . S
H3230 C3251 0.950 . S
H3231 C3254 0.950 . S
H3232 C3255 0.950 . S
H3233 C3257 0.950 . S
H3234 C3258 0.950 . S
H3235 C3259 0.951 . S
H3236 C3261 0.951 . S
H3237 C3263 0.950 . S
H3238 C3264 0.950 . S
H3239 C3266 0.950 . S
H3240 C3269 0.950 . S
H3241 C3270 0.950 . S
H3242 C3272 0.950 . S
H3243 C3273 0.950 . S
C3244 H3226 0.951 . S
C3244 C3245 1.366 . S
C3244 C3246 1.388 . S
C3245 C3244 1.366 . S
C3245 C3249 1.385 . S
C3246 H3227 0.951 . S
C3246 C3244 1.388 . S
C3246 C3247 1.366 . S
C3247 C3246 1.366 . S
C3247 C3248 1.414 . S
C3247 C3250 1.499 . S
C3248 H3228 0.950 . S
C3248 C3247 1.414 . S
C3248 C3249 1.374 . S
C3249 H3229 0.950 . S
C3249 C3245 1.385 . S
C3249 C3248 1.374 . S
C3250 C3247 1.499 . S
C3250 C3251 1.373 . S
C3250 C3252 1.389 . S
C3251 H3230 0.950 . S
C3251 C3250 1.373 . S
C3251 C3267 1.377 . S
C3252 C3250 1.389 . S
C3252 C3253 1.524 . S
C3252 C3266 1.377 . S
C3253 C3252 1.524 . S
C3253 C3254 1.397 . S
C3253 C3258 1.363 . S
C3254 H3231 0.950 . S
C3254 C3253 1.397 . S
C3254 C3255 1.334 . S
C3255 H3232 0.950 . S
C3255 C3254 1.334 . S
C3255 C3256 1.287 . S
C3256 C3255 1.287 . S
C3256 C3257 1.524 . S
C3256 H3275 0.913 . S
C3257 H3233 0.950 . S
C3257 C3256 1.524 . S
C3257 C3258 1.415 . S
C3258 H3234 0.950 . S
C3258 C3253 1.363 . S
C3258 C3257 1.415 . S
C3259 H3235 0.951 . S
C3259 C3260 1.366 . S
C3259 C3261 1.388 . S
C3260 C3259 1.366 . S
C3260 C3264 1.385 . S
C3261 H3236 0.951 . S
C3261 C3259 1.388 . S
C3261 C3262 1.366 . S
C3262 C3261 1.366 . S
C3262 C3263 1.414 . S
C3262 C3265 1.499 . S
C3263 H3237 0.950 . S
C3263 C3262 1.414 . S
C3263 C3264 1.374 . S
C3264 H3238 0.950 . S
C3264 C3260 1.385 . S
C3264 C3263 1.374 . S
C3265 C3262 1.499 . S
C3265 C3266 1.373 . S
C3265 C3267 1.389 . S
C3266 H3239 0.950 . S
C3266 C3252 1.377 . S
C3266 C3265 1.373 . S
C3267 C3251 1.377 . S
C3267 C3265 1.389 . S
C3267 C3268 1.524 . S
C3268 C3267 1.524 . S
C3268 C3269 1.397 . S
C3268 C3273 1.363 . S
C3269 H3240 0.950 . S
C3269 C3268 1.397 . S
C3269 C3270 1.334 . S
C3270 H3241 0.950 . S
C3270 C3269 1.334 . S
C3270 C3271 1.287 . S
C3271 C3270 1.287 . S
C3271 C3272 1.524 . S
C3271 H3274 0.999 . S
C3272 H3242 0.950 . S
C3272 C3271 1.524 . S
C3272 C3273 1.415 . S
C3273 H3243 0.950 . S
C3273 C3268 1.363 . S
C3273 C3272 1.415 . S
H3274 C3271 0.999 . S
H3275 C3256 0.913 . S
H3276 C3294 0.951 . S
H3277 C3296 0.951 . S
H3278 C3298 0.950 . S
H3279 C3299 0.950 . S
H3280 C3301 0.950 . S
H3281 C3304 0.950 . S
H3282 C3305 0.950 . S
H3283 C3307 0.950 . S
H3284 C3308 0.950 . S
H3285 C3309 0.951 . S
H3286 C3311 0.951 . S
H3287 C3313 0.950 . S
H3288 C3314 0.950 . S
H3289 C3316 0.950 . S
H3290 C3319 0.950 . S
H3291 C3320 0.950 . S
H3292 C3322 0.950 . S
H3293 C3323 0.950 . S
C3294 H3276 0.951 . S
C3294 C3295 1.366 . S
C3294 C3296 1.388 . S
C3295 C3294 1.366 . S
C3295 C3299 1.385 . S
C3296 H3277 0.951 . S
C3296 C3294 1.388 . S
C3296 C3297 1.366 . S
C3297 C3296 1.366 . S
C3297 C3298 1.414 . S
C3297 C3300 1.499 . S
C3298 H3278 0.950 . S
C3298 C3297 1.414 . S
C3298 C3299 1.374 . S
C3299 H3279 0.950 . S
C3299 C3295 1.385 . S
C3299 C3298 1.374 . S
C3300 C3297 1.499 . S
C3300 C3301 1.373 . S
C3300 C3302 1.389 . S
C3301 H3280 0.950 . S
C3301 C3300 1.373 . S
C3301 C3317 1.377 . S
C3302 C3300 1.389 . S
C3302 C3303 1.524 . S
C3302 C3316 1.377 . S
C3303 C3302 1.524 . S
C3303 C3304 1.397 . S
C3303 C3308 1.363 . S
C3304 H3281 0.950 . S
C3304 C3303 1.397 . S
C3304 C3305 1.334 . S
C3305 H3282 0.950 . S
C3305 C3304 1.334 . S
C3305 C3306 1.287 . S
C3306 C3305 1.287 . S
C3306 C3307 1.524 . S
C3306 H3325 0.913 . S
C3307 H3283 0.950 . S
C3307 C3306 1.524 . S
C3307 C3308 1.415 . S
C3308 H3284 0.950 . S
C3308 C3303 1.363 . S
C3308 C3307 1.415 . S
C3309 H3285 0.951 . S
C3309 C3310 1.366 . S
C3309 C3311 1.388 . S
C3310 C3309 1.366 . S
C3310 C3314 1.385 . S
C3311 H3286 0.951 . S
C3311 C3309 1.388 . S
C3311 C3312 1.366 . S
C3312 C3311 1.366 . S
C3312 C3313 1.414 . S
C3312 C3315 1.499 . S
C3313 H3287 0.950 . S
C3313 C3312 1.414 . S
C3313 C3314 1.374 . S
C3314 H3288 0.950 . S
C3314 C3310 1.385 . S
C3314 C3313 1.374 . S
C3315 C3312 1.499 . S
C3315 C3316 1.373 . S
C3315 C3317 1.389 . S
C3316 H3289 0.950 . S
C3316 C3302 1.377 . S
C3316 C3315 1.373 . S
C3317 C3301 1.377 . S
C3317 C3315 1.389 . S
C3317 C3318 1.524 . S
C3318 C3317 1.524 . S
C3318 C3319 1.397 . S
C3318 C3323 1.363 . S
C3319 H3290 0.950 . S
C3319 C3318 1.397 . S
C3319 C3320 1.334 . S
C3320 H3291 0.950 . S
C3320 C3319 1.334 . S
C3320 C3321 1.287 . S
C3321 C3320 1.287 . S
C3321 C3322 1.524 . S
C3321 H3324 0.999 . S
C3322 H3292 0.950 . S
C3322 C3321 1.524 . S
C3322 C3323 1.415 . S
C3323 H3293 0.950 . S
C3323 C3318 1.363 . S
C3323 C3322 1.415 . S
H3324 C3321 0.999 . S
H3325 C3306 0.913 . S
H3326 C3344 0.951 . S
H3327 C3346 0.951 . S
H3328 C3348 0.950 . S
H3329 C3349 0.950 . S
H3330 C3351 0.950 . S
H3331 C3354 0.950 . S
H3332 C3355 0.950 . S
H3333 C3357 0.950 . S
H3334 C3358 0.950 . S
H3335 C3359 0.951 . S
H3336 C3361 0.951 . S
H3337 C3363 0.950 . S
H3338 C3364 0.950 . S
H3339 C3366 0.950 . S
H3340 C3369 0.950 . S
H3341 C3370 0.950 . S
H3342 C3372 0.950 . S
H3343 C3373 0.950 . S
C3344 H3326 0.951 . S
C3344 C3345 1.366 . S
C3344 C3346 1.388 . S
C3345 C3344 1.366 . S
C3345 C3349 1.385 . S
C3346 H3327 0.951 . S
C3346 C3344 1.388 . S
C3346 C3347 1.366 . S
C3347 C3346 1.366 . S
C3347 C3348 1.414 . S
C3347 C3350 1.499 . S
C3348 H3328 0.950 . S
C3348 C3347 1.414 . S
C3348 C3349 1.374 . S
C3349 H3329 0.950 . S
C3349 C3345 1.385 . S
C3349 C3348 1.374 . S
C3350 C3347 1.499 . S
C3350 C3351 1.373 . S
C3350 C3352 1.389 . S
C3351 H3330 0.950 . S
C3351 C3350 1.373 . S
C3351 C3367 1.377 . S
C3352 C3350 1.389 . S
C3352 C3353 1.524 . S
C3352 C3366 1.377 . S
C3353 C3352 1.524 . S
C3353 C3354 1.397 . S
C3353 C3358 1.363 . S
C3354 H3331 0.950 . S
C3354 C3353 1.397 . S
C3354 C3355 1.334 . S
C3355 H3332 0.950 . S
C3355 C3354 1.334 . S
C3355 C3356 1.287 . S
C3356 C3355 1.287 . S
C3356 C3357 1.524 . S
C3356 H3375 0.913 . S
C3357 H3333 0.950 . S
C3357 C3356 1.524 . S
C3357 C3358 1.415 . S
C3358 H3334 0.950 . S
C3358 C3353 1.363 . S
C3358 C3357 1.415 . S
C3359 H3335 0.951 . S
C3359 C3360 1.366 . S
C3359 C3361 1.388 . S
C3360 C3359 1.366 . S
C3360 C3364 1.385 . S
C3361 H3336 0.951 . S
C3361 C3359 1.388 . S
C3361 C3362 1.366 . S
C3362 C3361 1.366 . S
C3362 C3363 1.414 . S
C3362 C3365 1.499 . S
C3363 H3337 0.950 . S
C3363 C3362 1.414 . S
C3363 C3364 1.374 . S
C3364 H3338 0.950 . S
C3364 C3360 1.385 . S
C3364 C3363 1.374 . S
C3365 C3362 1.499 . S
C3365 C3366 1.373 . S
C3365 C3367 1.389 . S
C3366 H3339 0.950 . S
C3366 C3352 1.377 . S
C3366 C3365 1.373 . S
C3367 C3351 1.377 . S
C3367 C3365 1.389 . S
C3367 C3368 1.524 . S
C3368 C3367 1.524 . S
C3368 C3369 1.397 . S
C3368 C3373 1.363 . S
C3369 H3340 0.950 . S
C3369 C3368 1.397 . S
C3369 C3370 1.334 . S
C3370 H3341 0.950 . S
C3370 C3369 1.334 . S
C3370 C3371 1.287 . S
C3371 C3370 1.287 . S
C3371 C3372 1.524 . S
C3371 H3374 0.999 . S
C3372 H3342 0.950 . S
C3372 C3371 1.524 . S
C3372 C3373 1.415 . S
C3373 H3343 0.950 . S
C3373 C3368 1.363 . S
C3373 C3372 1.415 . S
H3374 C3371 0.999 . S
H3375 C3356 0.913 . S
H3376 C3394 0.951 . S
H3377 C3396 0.951 . S
H3378 C3398 0.950 . S
H3379 C3399 0.950 . S
H3380 C3401 0.950 . S
H3381 C3404 0.950 . S
H3382 C3405 0.950 . S
H3383 C3407 0.950 . S
H3384 C3408 0.950 . S
H3385 C3409 0.951 . S
H3386 C3411 0.951 . S
H3387 C3413 0.950 . S
H3388 C3414 0.950 . S
H3389 C3416 0.950 . S
H3390 C3419 0.950 . S
H3391 C3420 0.950 . S
H3392 C3422 0.950 . S
H3393 C3423 0.950 . S
C3394 H3376 0.951 . S
C3394 C3395 1.366 . S
C3394 C3396 1.388 . S
C3395 C3394 1.366 . S
C3395 C3399 1.385 . S
C3396 H3377 0.951 . S
C3396 C3394 1.388 . S
C3396 C3397 1.366 . S
C3397 C3396 1.366 . S
C3397 C3398 1.414 . S
C3397 C3400 1.499 . S
C3398 H3378 0.950 . S
C3398 C3397 1.414 . S
C3398 C3399 1.374 . S
C3399 H3379 0.950 . S
C3399 C3395 1.385 . S
C3399 C3398 1.374 . S
C3400 C3397 1.499 . S
C3400 C3401 1.373 . S
C3400 C3402 1.389 . S
C3401 H3380 0.950 . S
C3401 C3400 1.373 . S
C3401 C3417 1.377 . S
C3402 C3400 1.389 . S
C3402 C3403 1.524 . S
C3402 C3416 1.377 . S
C3403 C3402 1.524 . S
C3403 C3404 1.397 . S
C3403 C3408 1.363 . S
C3404 H3381 0.950 . S
C3404 C3403 1.397 . S
C3404 C3405 1.334 . S
C3405 H3382 0.950 . S
C3405 C3404 1.334 . S
C3405 C3406 1.287 . S
C3406 C3405 1.287 . S
C3406 C3407 1.524 . S
C3406 H3425 0.913 . S
C3407 H3383 0.950 . S
C3407 C3406 1.524 . S
C3407 C3408 1.415 . S
C3408 H3384 0.950 . S
C3408 C3403 1.363 . S
C3408 C3407 1.415 . S
C3409 H3385 0.951 . S
C3409 C3410 1.366 . S
C3409 C3411 1.388 . S
C3410 C3409 1.366 . S
C3410 C3414 1.385 . S
C3411 H3386 0.951 . S
C3411 C3409 1.388 . S
C3411 C3412 1.366 . S
C3412 C3411 1.366 . S
C3412 C3413 1.414 . S
C3412 C3415 1.499 . S
C3413 H3387 0.950 . S
C3413 C3412 1.414 . S
C3413 C3414 1.374 . S
C3414 H3388 0.950 . S
C3414 C3410 1.385 . S
C3414 C3413 1.374 . S
C3415 C3412 1.499 . S
C3415 C3416 1.373 . S
C3415 C3417 1.389 . S
C3416 H3389 0.950 . S
C3416 C3402 1.377 . S
C3416 C3415 1.373 . S
C3417 C3401 1.377 . S
C3417 C3415 1.389 . S
C3417 C3418 1.524 . S
C3418 C3417 1.524 . S
C3418 C3419 1.397 . S
C3418 C3423 1.363 . S
C3419 H3390 0.950 . S
C3419 C3418 1.397 . S
C3419 C3420 1.334 . S
C3420 H3391 0.950 . S
C3420 C3419 1.334 . S
C3420 C3421 1.287 . S
C3421 C3420 1.287 . S
C3421 C3422 1.524 . S
C3421 H3424 0.999 . S
C3422 H3392 0.950 . S
C3422 C3421 1.524 . S
C3422 C3423 1.415 . S
C3423 H3393 0.950 . S
C3423 C3418 1.363 . S
C3423 C3422 1.415 . S
H3424 C3421 0.999 . S
H3425 C3406 0.913 . S
H3426 C3444 0.951 . S
H3427 C3446 0.951 . S
H3428 C3448 0.950 . S
H3429 C3449 0.950 . S
H3430 C3451 0.950 . S
H3431 C3454 0.950 . S
H3432 C3455 0.950 . S
H3433 C3457 0.950 . S
H3434 C3458 0.950 . S
H3435 C3459 0.951 . S
H3436 C3461 0.951 . S
H3437 C3463 0.950 . S
H3438 C3464 0.950 . S
H3439 C3466 0.950 . S
H3440 C3469 0.950 . S
H3441 C3470 0.950 . S
H3442 C3472 0.950 . S
H3443 C3473 0.950 . S
C3444 H3426 0.951 . S
C3444 C3445 1.366 . S
C3444 C3446 1.388 . S
C3445 C3444 1.366 . S
C3445 C3449 1.385 . S
C3446 H3427 0.951 . S
C3446 C3444 1.388 . S
C3446 C3447 1.366 . S
C3447 C3446 1.366 . S
C3447 C3448 1.414 . S
C3447 C3450 1.499 . S
C3448 H3428 0.950 . S
C3448 C3447 1.414 . S
C3448 C3449 1.374 . S
C3449 H3429 0.950 . S
C3449 C3445 1.385 . S
C3449 C3448 1.374 . S
C3450 C3447 1.499 . S
C3450 C3451 1.373 . S
C3450 C3452 1.389 . S
C3451 H3430 0.950 . S
C3451 C3450 1.373 . S
C3451 C3467 1.377 . S
C3452 C3450 1.389 . S
C3452 C3453 1.524 . S
C3452 C3466 1.377 . S
C3453 C3452 1.524 . S
C3453 C3454 1.397 . S
C3453 C3458 1.363 . S
C3454 H3431 0.950 . S
C3454 C3453 1.397 . S
C3454 C3455 1.334 . S
C3455 H3432 0.950 . S
C3455 C3454 1.334 . S
C3455 C3456 1.287 . S
C3456 C3455 1.287 . S
C3456 C3457 1.524 . S
C3456 H3475 0.913 . S
C3457 H3433 0.950 . S
C3457 C3456 1.524 . S
C3457 C3458 1.415 . S
C3458 H3434 0.950 . S
C3458 C3453 1.363 . S
C3458 C3457 1.415 . S
C3459 H3435 0.951 . S
C3459 C3460 1.366 . S
C3459 C3461 1.388 . S
C3460 C3459 1.366 . S
C3460 C3464 1.385 . S
C3461 H3436 0.951 . S
C3461 C3459 1.388 . S
C3461 C3462 1.366 . S
C3462 C3461 1.366 . S
C3462 C3463 1.414 . S
C3462 C3465 1.499 . S
C3463 H3437 0.950 . S
C3463 C3462 1.414 . S
C3463 C3464 1.374 . S
C3464 H3438 0.950 . S
C3464 C3460 1.385 . S
C3464 C3463 1.374 . S
C3465 C3462 1.499 . S
C3465 C3466 1.373 . S
C3465 C3467 1.389 . S
C3466 H3439 0.950 . S
C3466 C3452 1.377 . S
C3466 C3465 1.373 . S
C3467 C3451 1.377 . S
C3467 C3465 1.389 . S
C3467 C3468 1.524 . S
C3468 C3467 1.524 . S
C3468 C3469 1.397 . S
C3468 C3473 1.363 . S
C3469 H3440 0.950 . S
C3469 C3468 1.397 . S
C3469 C3470 1.334 . S
C3470 H3441 0.950 . S
C3470 C3469 1.334 . S
C3470 C3471 1.287 . S
C3471 C3470 1.287 . S
C3471 C3472 1.524 . S
C3471 H3474 0.999 . S
C3472 H3442 0.950 . S
C3472 C3471 1.524 . S
C3472 C3473 1.415 . S
C3473 H3443 0.950 . S
C3473 C3468 1.363 . S
C3473 C3472 1.415 . S
H3474 C3471 0.999 . S
H3475 C3456 0.913 . S
H3476 C3494 0.951 . S
H3477 C3496 0.951 . S
H3478 C3498 0.950 . S
H3479 C3499 0.950 . S
H3480 C3501 0.950 . S
H3481 C3504 0.950 . S
H3482 C3505 0.950 . S
H3483 C3507 0.950 . S
H3484 C3508 0.950 . S
H3485 C3509 0.951 . S
H3486 C3511 0.951 . S
H3487 C3513 0.950 . S
H3488 C3514 0.950 . S
H3489 C3516 0.950 . S
H3490 C3519 0.950 1_455 S
H3491 C3520 0.950 . S
H3492 C3522 0.950 . S
H3493 C3523 0.950 . S
C3494 H3476 0.951 . S
C3494 C3495 1.366 . S
C3494 C3496 1.388 . S
C3495 C3494 1.366 . S
C3495 C3499 1.385 1_455 S
C3496 H3477 0.951 . S
C3496 C3494 1.388 . S
C3496 C3497 1.366 . S
C3497 C3496 1.366 . S
C3497 C3498 1.414 1_455 S
C3497 C3500 1.499 . S
C3498 H3478 0.950 . S
C3498 C3497 1.414 1_655 S
C3498 C3499 1.374 . S
C3499 H3479 0.950 . S
C3499 C3495 1.385 1_655 S
C3499 C3498 1.374 . S
C3500 C3497 1.499 . S
C3500 C3501 1.373 1_455 S
C3500 C3502 1.389 1_556 S
C3501 H3480 0.950 . S
C3501 C3500 1.373 1_655 S
C3501 C3517 1.377 . S
C3502 C3500 1.389 1_554 S
C3502 C3503 1.524 . S
C3502 C3516 1.377 . S
C3503 C3502 1.524 . S
C3503 C3504 1.397 . S
C3503 C3508 1.363 . S
C3504 H3481 0.950 . S
C3504 C3503 1.397 . S
C3504 C3505 1.334 . S
C3505 H3482 0.950 . S
C3505 C3504 1.334 . S
C3505 C3506 1.287 . S
C3506 C3505 1.287 . S
C3506 C3507 1.524 . S
C3506 H3525 0.913 . S
C3507 H3483 0.950 . S
C3507 C3506 1.524 . S
C3507 C3508 1.415 . S
C3508 H3484 0.950 . S
C3508 C3503 1.363 . S
C3508 C3507 1.415 . S
C3509 H3485 0.951 . S
C3509 C3510 1.366 1_655 S
C3509 C3511 1.388 . S
C3510 C3509 1.366 1_455 S
C3510 C3514 1.385 . S
C3511 H3486 0.951 . S
C3511 C3509 1.388 . S
C3511 C3512 1.366 1_655 S
C3512 C3511 1.366 1_455 S
C3512 C3513 1.414 . S
C3512 C3515 1.494 1_554 S
C3513 H3487 0.950 . S
C3513 C3512 1.414 . S
C3513 C3514 1.374 . S
C3514 H3488 0.950 . S
C3514 C3510 1.385 . S
C3514 C3513 1.374 . S
C3515 C3512 1.494 1_556 S
C3515 C3516 1.357 1_556 S
C3515 C3517 1.410 1_455 S
C3516 H3489 0.950 . S
C3516 C3502 1.377 . S
C3516 C3515 1.357 1_554 S
C3517 C3501 1.377 . S
C3517 C3515 1.410 1_655 S
C3517 C3518 1.524 . S
C3518 C3517 1.524 . S
C3518 C3519 1.397 . S
C3518 C3523 1.363 . S
C3519 H3490 0.950 1_655 S
C3519 C3518 1.397 . S
C3519 C3520 1.334 . S
C3520 H3491 0.950 . S
C3520 C3519 1.334 . S
C3520 C3521 1.287 . S
C3521 C3520 1.287 . S
C3521 C3522 1.524 . S
C3521 H3524 0.999 . S
C3522 H3492 0.950 . S
C3522 C3521 1.524 . S
C3522 C3523 1.415 . S
C3523 H3493 0.950 . S
C3523 C3518 1.363 . S
C3523 C3522 1.415 . S
H3524 C3521 0.999 . S
H3525 C3506 0.913 . S
H3526 C3544 0.951 . S
H3527 C3546 0.951 . S
H3528 C3548 0.950 . S
H3529 C3549 0.950 . S
H3530 C3551 0.950 . S
H3531 C3554 0.950 . S
H3532 C3555 0.950 . S
H3533 C3557 0.936 1_455 S
H3534 C3558 0.950 . S
H3535 C3559 0.951 . S
H3536 C3561 0.951 . S
H3537 C3563 0.950 . S
H3538 C3564 0.950 . S
H3539 C3566 0.950 . S
H3540 C3569 0.950 . S
H3541 C3570 0.950 . S
H3542 C3572 0.950 . S
H3543 C3573 0.950 . S
C3544 H3526 0.951 . S
C3544 C3545 1.366 . S
C3544 C3546 1.388 1_455 S
C3545 C3544 1.366 . S
C3545 C3549 1.385 1_455 S
C3546 H3527 0.951 . S
C3546 C3544 1.388 1_655 S
C3546 C3547 1.366 . S
C3547 C3546 1.366 . S
C3547 C3548 1.414 . S
C3547 C3550 1.499 . S
C3548 H3528 0.950 . S
C3548 C3547 1.414 . S
C3548 C3549 1.374 . S
C3549 H3529 0.950 . S
C3549 C3545 1.385 1_655 S
C3549 C3548 1.374 . S
C3550 C3547 1.499 . S
C3550 C3551 1.373 . S
C3550 C3552 1.389 . S
C3551 H3530 0.950 . S
C3551 C3550 1.373 . S
C3551 C3567 1.377 . S
C3552 C3550 1.389 . S
C3552 C3553 1.524 . S
C3552 C3566 1.377 . S
C3553 C3552 1.524 . S
C3553 C3554 1.397 . S
C3553 C3558 1.363 . S
C3554 H3531 0.950 . S
C3554 C3553 1.397 . S
C3554 C3555 1.334 . S
C3555 H3532 0.950 . S
C3555 C3554 1.334 . S
C3555 C3556 1.287 1_655 S
C3556 C3555 1.287 1_455 S
C3556 C3557 1.511 1_455 S
C3556 H3575 0.913 . S
C3557 H3533 0.936 1_655 S
C3557 C3556 1.511 1_655 S
C3557 C3558 1.445 . S
C3558 H3534 0.950 . S
C3558 C3553 1.363 . S
C3558 C3557 1.445 . S
C3559 H3535 0.951 . S
C3559 C3560 1.366 . S
C3559 C3561 1.388 . S
C3560 C3559 1.366 . S
C3560 C3564 1.385 . S
C3561 H3536 0.951 . S
C3561 C3559 1.388 . S
C3561 C3562 1.366 . S
C3562 C3561 1.366 . S
C3562 C3563 1.414 . S
C3562 C3565 1.499 . S
C3563 H3537 0.950 . S
C3563 C3562 1.414 . S
C3563 C3564 1.374 . S
C3564 H3538 0.950 . S
C3564 C3560 1.385 . S
C3564 C3563 1.374 . S
C3565 C3562 1.499 . S
C3565 C3566 1.373 . S
C3565 C3567 1.389 . S
C3566 H3539 0.950 . S
C3566 C3552 1.377 . S
C3566 C3565 1.373 . S
C3567 C3551 1.377 . S
C3567 C3565 1.389 . S
C3567 C3568 1.524 . S
C3568 C3567 1.524 . S
C3568 C3569 1.397 . S
C3568 C3573 1.363 . S
C3569 H3540 0.950 . S
C3569 C3568 1.397 . S
C3569 C3570 1.334 . S
C3570 H3541 0.950 . S
C3570 C3569 1.334 . S
C3570 C3571 1.287 . S
C3571 C3570 1.287 . S
C3571 C3572 1.524 . S
C3571 H3574 0.999 . S
C3572 H3542 0.950 . S
C3572 C3571 1.524 . S
C3572 C3573 1.415 . S
C3573 H3543 0.950 . S
C3573 C3568 1.363 . S
C3573 C3572 1.415 . S
H3574 C3571 0.999 . S
H3575 C3556 0.913 . S
H3576 C3594 0.951 . S
H3577 C3596 0.951 . S
H3578 C3598 0.950 . S
H3579 C3599 0.950 . S
H3580 C3601 0.950 . S
H3581 C3604 0.950 . S
H3582 C3605 0.950 . S
H3583 C3607 0.950 . S
H3584 C3608 0.950 . S
H3585 C3609 0.951 . S
H3586 C3611 0.951 . S
H3587 C3613 0.950 . S
H3588 C3614 0.950 . S
H3589 C3616 0.950 . S
H3590 C3619 0.950 . S
H3591 C3620 0.950 . S
H3592 C3622 0.950 . S
H3593 C3623 0.950 . S
C3594 H3576 0.951 . S
C3594 C3595 1.366 . S
C3594 C3596 1.388 . S
C3595 C3594 1.366 . S
C3595 C3599 1.385 . S
C3596 H3577 0.951 . S
C3596 C3594 1.388 . S
C3596 C3597 1.366 . S
C3597 C3596 1.366 . S
C3597 C3598 1.414 . S
C3597 C3600 1.499 . S
C3598 H3578 0.950 . S
C3598 C3597 1.414 . S
C3598 C3599 1.374 . S
C3599 H3579 0.950 . S
C3599 C3595 1.385 . S
C3599 C3598 1.374 . S
C3600 C3597 1.499 . S
C3600 C3601 1.373 . S
C3600 C3602 1.389 . S
C3601 H3580 0.950 . S
C3601 C3600 1.373 . S
C3601 C3617 1.377 . S
C3602 C3600 1.389 . S
C3602 C3603 1.524 . S
C3602 C3616 1.377 . S
C3603 C3602 1.524 . S
C3603 C3604 1.397 . S
C3603 C3608 1.363 . S
C3604 H3581 0.950 . S
C3604 C3603 1.397 . S
C3604 C3605 1.334 . S
C3605 H3582 0.950 . S
C3605 C3604 1.334 . S
C3605 C3606 1.287 . S
C3606 C3605 1.287 . S
C3606 C3607 1.524 . S
C3606 H3625 0.913 . S
C3607 H3583 0.950 . S
C3607 C3606 1.524 . S
C3607 C3608 1.415 . S
C3608 H3584 0.950 . S
C3608 C3603 1.363 . S
C3608 C3607 1.415 . S
C3609 H3585 0.951 . S
C3609 C3610 1.366 . S
C3609 C3611 1.388 . S
C3610 C3609 1.366 . S
C3610 C3614 1.385 . S
C3611 H3586 0.951 . S
C3611 C3609 1.388 . S
C3611 C3612 1.366 . S
C3612 C3611 1.366 . S
C3612 C3613 1.414 . S
C3612 C3615 1.499 . S
C3613 H3587 0.950 . S
C3613 C3612 1.414 . S
C3613 C3614 1.374 . S
C3614 H3588 0.950 . S
C3614 C3610 1.385 . S
C3614 C3613 1.374 . S
C3615 C3612 1.499 . S
C3615 C3616 1.373 . S
C3615 C3617 1.389 . S
C3616 H3589 0.950 . S
C3616 C3602 1.377 . S
C3616 C3615 1.373 . S
C3617 C3601 1.377 . S
C3617 C3615 1.389 . S
C3617 C3618 1.524 . S
C3618 C3617 1.524 . S
C3618 C3619 1.397 . S
C3618 C3623 1.363 . S
C3619 H3590 0.950 . S
C3619 C3618 1.397 . S
C3619 C3620 1.334 . S
C3620 H3591 0.950 . S
C3620 C3619 1.334 . S
C3620 C3621 1.287 . S
C3621 C3620 1.287 . S
C3621 C3622 1.524 . S
C3621 H3624 0.999 . S
C3622 H3592 0.950 . S
C3622 C3621 1.524 . S
C3622 C3623 1.415 . S
C3623 H3593 0.950 . S
C3623 C3618 1.363 . S
C3623 C3622 1.415 . S
H3624 C3621 0.999 . S
H3625 C3606 0.913 . S
H3626 C3644 0.951 . S
H3627 C3646 0.951 . S
H3628 C3648 0.950 . S
H3629 C3649 0.950 . S
H3630 C3651 0.950 . S
H3631 C3654 0.950 . S
H3632 C3655 0.950 . S
H3633 C3657 0.950 . S
H3634 C3658 0.950 . S
H3635 C3659 0.951 . S
H3636 C3661 0.951 . S
H3637 C3663 0.950 . S
H3638 C3664 0.950 . S
H3639 C3666 0.950 . S
H3640 C3669 0.950 . S
H3641 C3670 0.950 . S
H3642 C3672 0.950 . S
H3643 C3673 0.950 . S
C3644 H3626 0.951 . S
C3644 C3645 1.366 . S
C3644 C3646 1.388 . S
C3645 C3644 1.366 . S
C3645 C3649 1.385 . S
C3646 H3627 0.951 . S
C3646 C3644 1.388 . S
C3646 C3647 1.366 . S
C3647 C3646 1.366 . S
C3647 C3648 1.414 . S
C3647 C3650 1.499 . S
C3648 H3628 0.950 . S
C3648 C3647 1.414 . S
C3648 C3649 1.374 . S
C3649 H3629 0.950 . S
C3649 C3645 1.385 . S
C3649 C3648 1.374 . S
C3650 C3647 1.499 . S
C3650 C3651 1.373 . S
C3650 C3652 1.389 . S
C3651 H3630 0.950 . S
C3651 C3650 1.373 . S
C3651 C3667 1.377 . S
C3652 C3650 1.389 . S
C3652 C3653 1.524 . S
C3652 C3666 1.377 . S
C3653 C3652 1.524 . S
C3653 C3654 1.397 . S
C3653 C3658 1.363 . S
C3654 H3631 0.950 . S
C3654 C3653 1.397 . S
C3654 C3655 1.334 . S
C3655 H3632 0.950 . S
C3655 C3654 1.334 . S
C3655 C3656 1.287 . S
C3656 C3655 1.287 . S
C3656 C3657 1.524 . S
C3656 H3675 0.913 . S
C3657 H3633 0.950 . S
C3657 C3656 1.524 . S
C3657 C3658 1.415 . S
C3658 H3634 0.950 . S
C3658 C3653 1.363 . S
C3658 C3657 1.415 . S
C3659 H3635 0.951 . S
C3659 C3660 1.366 . S
C3659 C3661 1.388 . S
C3660 C3659 1.366 . S
C3660 C3664 1.385 . S
C3661 H3636 0.951 . S
C3661 C3659 1.388 . S
C3661 C3662 1.366 . S
C3662 C3661 1.366 . S
C3662 C3663 1.414 . S
C3662 C3665 1.499 . S
C3663 H3637 0.950 . S
C3663 C3662 1.414 . S
C3663 C3664 1.374 . S
C3664 H3638 0.950 . S
C3664 C3660 1.385 . S
C3664 C3663 1.374 . S
C3665 C3662 1.499 . S
C3665 C3666 1.373 . S
C3665 C3667 1.389 . S
C3666 H3639 0.950 . S
C3666 C3652 1.377 . S
C3666 C3665 1.373 . S
C3667 C3651 1.377 . S
C3667 C3665 1.389 . S
C3667 C3668 1.524 . S
C3668 C3667 1.524 . S
C3668 C3669 1.397 . S
C3668 C3673 1.363 . S
C3669 H3640 0.950 . S
C3669 C3668 1.397 . S
C3669 C3670 1.334 . S
C3670 H3641 0.950 . S
C3670 C3669 1.334 . S
C3670 C3671 1.287 . S
C3671 C3670 1.287 . S
C3671 C3672 1.524 . S
C3671 H3674 0.999 . S
C3672 H3642 0.950 . S
C3672 C3671 1.524 . S
C3672 C3673 1.415 . S
C3673 H3643 0.950 . S
C3673 C3668 1.363 . S
C3673 C3672 1.415 . S
H3674 C3671 0.999 . S
H3675 C3656 0.913 . S
H3676 C3694 0.951 . S
H3677 C3696 0.951 . S
H3678 C3698 0.950 . S
H3679 C3699 0.950 . S
H3680 C3701 0.950 . S
H3681 C3704 0.950 1_455 S
H3682 C3705 0.950 . S
H3683 C3707 0.950 . S
H3684 C3708 0.950 . S
H3685 C3709 0.951 . S
H3686 C3711 0.951 . S
H3687 C3713 0.950 . S
H3688 C3714 0.950 . S
H3689 C3716 0.930 1_655 S
H3690 C3719 0.950 . S
H3691 C3720 0.950 . S
H3692 C3722 0.950 . S
H3693 C3723 0.950 . S
C3694 H3676 0.951 . S
C3694 C3695 1.366 1_655 S
C3694 C3696 1.388 . S
C3695 C3694 1.366 1_455 S
C3695 C3699 1.385 . S
C3696 H3677 0.951 . S
C3696 C3694 1.388 . S
C3696 C3697 1.366 1_655 S
C3697 C3696 1.366 1_455 S
C3697 C3698 1.414 . S
C3697 C3700 1.499 . S
C3698 H3678 0.950 . S
C3698 C3697 1.414 . S
C3698 C3699 1.374 . S
C3699 H3679 0.950 . S
C3699 C3695 1.385 . S
C3699 C3698 1.374 . S
C3700 C3697 1.499 . S
C3700 C3701 1.373 . S
C3700 C3702 1.389 . S
C3701 H3680 0.950 . S
C3701 C3700 1.373 . S
C3701 C3717 1.377 . S
C3702 C3700 1.389 . S
C3702 C3703 1.524 1_455 S
C3702 C3716 1.359 . S
C3703 C3702 1.524 1_655 S
C3703 C3704 1.397 . S
C3703 C3708 1.363 . S
C3704 H3681 0.950 1_655 S
C3704 C3703 1.397 . S
C3704 C3705 1.334 . S
C3705 H3682 0.950 . S
C3705 C3704 1.334 . S
C3705 C3706 1.287 . S
C3706 C3705 1.287 . S
C3706 C3707 1.524 . S
C3706 H3725 0.913 . S
C3707 H3683 0.950 . S
C3707 C3706 1.524 . S
C3707 C3708 1.415 . S
C3708 H3684 0.950 . S
C3708 C3703 1.363 . S
C3708 C3707 1.415 . S
C3709 H3685 0.951 . S
C3709 C3710 1.366 . S
C3709 C3711 1.388 . S
C3710 C3709 1.366 . S
C3710 C3714 1.385 1_455 S
C3711 H3686 0.951 . S
C3711 C3709 1.388 . S
C3711 C3712 1.366 . S
C3712 C3711 1.366 . S
C3712 C3713 1.414 1_455 S
C3712 C3715 1.499 . S
C3713 H3687 0.950 . S
C3713 C3712 1.414 1_655 S
C3713 C3714 1.374 . S
C3714 H3688 0.950 . S
C3714 C3710 1.385 1_655 S
C3714 C3713 1.374 . S
C3715 C3712 1.499 . S
C3715 C3716 1.416 . S
C3715 C3717 1.389 . S
C3716 H3689 0.930 1_455 S
C3716 C3702 1.359 . S
C3716 C3715 1.416 . S
C3717 C3701 1.377 . S
C3717 C3715 1.389 . S
C3717 C3718 1.524 . S
C3718 C3717 1.524 . S
C3718 C3719 1.397 . S
C3718 C3723 1.363 . S
C3719 H3690 0.950 . S
C3719 C3718 1.397 . S
C3719 C3720 1.334 . S
C3720 H3691 0.950 . S
C3720 C3719 1.334 . S
C3720 C3721 1.287 . S
C3721 C3720 1.287 . S
C3721 C3722 1.524 . S
C3721 H3724 0.999 . S
C3722 H3692 0.950 . S
C3722 C3721 1.524 . S
C3722 C3723 1.415 . S
C3723 H3693 0.950 . S
C3723 C3718 1.363 . S
C3723 C3722 1.415 . S
H3724 C3721 0.999 . S
H3725 C3706 0.913 . S
H3726 C3744 0.951 . S
H3727 C3746 0.951 . S
H3728 C3748 0.950 . S
H3729 C3749 0.950 . S
H3730 C3751 0.950 . S
H3731 C3754 0.950 . S
H3732 C3755 0.950 . S
H3733 C3757 0.950 . S
H3734 C3758 0.950 . S
H3735 C3759 0.951 . S
H3736 C3761 0.951 . S
H3737 C3763 0.950 . S
H3738 C3764 0.950 . S
H3739 C3766 0.950 . S
H3740 C3769 0.950 . S
H3741 C3770 0.950 . S
H3742 C3772 0.950 . S
H3743 C3773 0.950 . S
C3744 H3726 0.951 . S
C3744 C3745 1.366 . S
C3744 C3746 1.388 . S
C3745 C3744 1.366 . S
C3745 C3749 1.385 . S
C3746 H3727 0.951 . S
C3746 C3744 1.388 . S
C3746 C3747 1.366 . S
C3747 C3746 1.366 . S
C3747 C3748 1.414 . S
C3747 C3750 1.499 . S
C3748 H3728 0.950 . S
C3748 C3747 1.414 . S
C3748 C3749 1.374 . S
C3749 H3729 0.950 . S
C3749 C3745 1.385 . S
C3749 C3748 1.374 . S
C3750 C3747 1.499 . S
C3750 C3751 1.373 . S
C3750 C3752 1.389 . S
C3751 H3730 0.950 . S
C3751 C3750 1.373 . S
C3751 C3767 1.377 . S
C3752 C3750 1.389 . S
C3752 C3753 1.524 . S
C3752 C3766 1.377 . S
C3753 C3752 1.524 . S
C3753 C3754 1.397 . S
C3753 C3758 1.363 . S
C3754 H3731 0.950 . S
C3754 C3753 1.397 . S
C3754 C3755 1.334 . S
C3755 H3732 0.950 . S
C3755 C3754 1.334 . S
C3755 C3756 1.287 . S
C3756 C3755 1.287 . S
C3756 C3757 1.524 . S
C3756 H3775 0.913 . S
C3757 H3733 0.950 . S
C3757 C3756 1.524 . S
C3757 C3758 1.415 . S
C3758 H3734 0.950 . S
C3758 C3753 1.363 . S
C3758 C3757 1.415 . S
C3759 H3735 0.951 . S
C3759 C3760 1.366 . S
C3759 C3761 1.388 . S
C3760 C3759 1.366 . S
C3760 C3764 1.385 . S
C3761 H3736 0.951 . S
C3761 C3759 1.388 . S
C3761 C3762 1.366 . S
C3762 C3761 1.366 . S
C3762 C3763 1.414 . S
C3762 C3765 1.499 . S
C3763 H3737 0.950 . S
C3763 C3762 1.414 . S
C3763 C3764 1.374 . S
C3764 H3738 0.950 . S
C3764 C3760 1.385 . S
C3764 C3763 1.374 . S
C3765 C3762 1.499 . S
C3765 C3766 1.373 . S
C3765 C3767 1.389 . S
C3766 H3739 0.950 . S
C3766 C3752 1.377 . S
C3766 C3765 1.373 . S
C3767 C3751 1.377 . S
C3767 C3765 1.389 . S
C3767 C3768 1.524 . S
C3768 C3767 1.524 . S
C3768 C3769 1.397 . S
C3768 C3773 1.363 . S
C3769 H3740 0.950 . S
C3769 C3768 1.397 . S
C3769 C3770 1.334 . S
C3770 H3741 0.950 . S
C3770 C3769 1.334 . S
C3770 C3771 1.287 . S
C3771 C3770 1.287 . S
C3771 C3772 1.524 . S
C3771 H3774 0.999 . S
C3772 H3742 0.950 . S
C3772 C3771 1.524 . S
C3772 C3773 1.415 . S
C3773 H3743 0.950 . S
C3773 C3768 1.363 . S
C3773 C3772 1.415 . S
H3774 C3771 0.999 . S
H3775 C3756 0.913 . S
H3776 C3794 0.951 . S
H3777 C3796 0.951 . S
H3778 C3798 0.950 . S
H3779 C3799 0.950 . S
H3780 C3801 0.950 . S
H3781 C3804 0.950 . S
H3782 C3805 0.950 . S
H3783 C3807 0.950 . S
H3784 C3808 0.950 . S
H3785 C3809 0.951 . S
H3786 C3811 0.951 . S
H3787 C3813 0.950 . S
H3788 C3814 0.950 . S
H3789 C3816 0.950 . S
H3790 C3819 0.950 . S
H3791 C3820 0.950 . S
H3792 C3822 0.950 . S
H3793 C3823 0.950 . S
C3794 H3776 0.951 . S
C3794 C3795 1.366 . S
C3794 C3796 1.388 . S
C3795 C3794 1.366 . S
C3795 C3799 1.385 . S
C3796 H3777 0.951 . S
C3796 C3794 1.388 . S
C3796 C3797 1.366 . S
C3797 C3796 1.366 . S
C3797 C3798 1.414 . S
C3797 C3800 1.499 . S
C3798 H3778 0.950 . S
C3798 C3797 1.414 . S
C3798 C3799 1.374 . S
C3799 H3779 0.950 . S
C3799 C3795 1.385 . S
C3799 C3798 1.374 . S
C3800 C3797 1.499 . S
C3800 C3801 1.373 . S
C3800 C3802 1.389 . S
C3801 H3780 0.950 . S
C3801 C3800 1.373 . S
C3801 C3817 1.377 . S
C3802 C3800 1.389 . S
C3802 C3803 1.524 . S
C3802 C3816 1.377 . S
C3803 C3802 1.524 . S
C3803 C3804 1.397 . S
C3803 C3808 1.363 . S
C3804 H3781 0.950 . S
C3804 C3803 1.397 . S
C3804 C3805 1.334 . S
C3805 H3782 0.950 . S
C3805 C3804 1.334 . S
C3805 C3806 1.287 . S
C3806 C3805 1.287 . S
C3806 C3807 1.524 . S
C3806 H3825 0.913 . S
C3807 H3783 0.950 . S
C3807 C3806 1.524 . S
C3807 C3808 1.415 . S
C3808 H3784 0.950 . S
C3808 C3803 1.363 . S
C3808 C3807 1.415 . S
C3809 H3785 0.951 . S
C3809 C3810 1.366 . S
C3809 C3811 1.388 . S
C3810 C3809 1.366 . S
C3810 C3814 1.385 . S
C3811 H3786 0.951 . S
C3811 C3809 1.388 . S
C3811 C3812 1.366 . S
C3812 C3811 1.366 . S
C3812 C3813 1.414 . S
C3812 C3815 1.499 . S
C3813 H3787 0.950 . S
C3813 C3812 1.414 . S
C3813 C3814 1.374 . S
C3814 H3788 0.950 . S
C3814 C3810 1.385 . S
C3814 C3813 1.374 . S
C3815 C3812 1.499 . S
C3815 C3816 1.373 . S
C3815 C3817 1.389 . S
C3816 H3789 0.950 . S
C3816 C3802 1.377 . S
C3816 C3815 1.373 . S
C3817 C3801 1.377 . S
C3817 C3815 1.389 . S
C3817 C3818 1.524 . S
C3818 C3817 1.524 . S
C3818 C3819 1.397 . S
C3818 C3823 1.363 . S
C3819 H3790 0.950 . S
C3819 C3818 1.397 . S
C3819 C3820 1.334 . S
C3820 H3791 0.950 . S
C3820 C3819 1.334 . S
C3820 C3821 1.287 . S
C3821 C3820 1.287 . S
C3821 C3822 1.524 . S
C3821 H3824 0.999 . S
C3822 H3792 0.950 . S
C3822 C3821 1.524 . S
C3822 C3823 1.415 . S
C3823 H3793 0.950 . S
C3823 C3818 1.363 . S
C3823 C3822 1.415 . S
H3824 C3821 0.999 . S
H3825 C3806 0.913 . S
H3826 C3844 0.951 . S
H3827 C3846 0.951 . S
H3828 C3848 0.950 . S
H3829 C3849 0.950 . S
H3830 C3851 0.950 . S
H3831 C3854 0.950 . S
H3832 C3855 0.950 . S
H3833 C3857 0.950 . S
H3834 C3858 0.950 . S
H3835 C3859 0.951 . S
H3836 C3861 0.951 . S
H3837 C3863 0.950 . S
H3838 C3864 0.950 . S
H3839 C3866 0.950 . S
H3840 C3869 0.950 . S
H3841 C3870 0.950 . S
H3842 C3872 0.950 . S
H3843 C3873 0.950 . S
C3844 H3826 0.951 . S
C3844 C3845 1.366 . S
C3844 C3846 1.388 . S
C3845 C3844 1.366 . S
C3845 C3849 1.385 1_554 S
C3846 H3827 0.951 . S
C3846 C3844 1.388 . S
C3846 C3847 1.366 1_554 S
C3847 C3846 1.366 1_556 S
C3847 C3848 1.414 . S
C3847 C3850 1.499 . S
C3848 H3828 0.950 . S
C3848 C3847 1.414 . S
C3848 C3849 1.374 . S
C3849 H3829 0.950 . S
C3849 C3845 1.385 1_556 S
C3849 C3848 1.374 . S
C3850 C3847 1.499 . S
C3850 C3851 1.373 . S
C3850 C3852 1.389 . S
C3851 H3830 0.950 . S
C3851 C3850 1.373 . S
C3851 C3867 1.377 . S
C3852 C3850 1.389 . S
C3852 C3853 1.524 . S
C3852 C3866 1.377 . S
C3853 C3852 1.524 . S
C3853 C3854 1.397 . S
C3853 C3858 1.363 . S
C3854 H3831 0.950 . S
C3854 C3853 1.397 . S
C3854 C3855 1.334 1_556 S
C3855 H3832 0.950 . S
C3855 C3854 1.334 1_554 S
C3855 C3856 1.287 . S
C3856 C3855 1.287 . S
C3856 C3857 1.524 . S
C3856 H3875 0.913 . S
C3857 H3833 0.950 . S
C3857 C3856 1.524 . S
C3857 C3858 1.415 1_554 S
C3858 H3834 0.950 . S
C3858 C3853 1.363 . S
C3858 C3857 1.415 1_556 S
C3859 H3835 0.951 . S
C3859 C3860 1.366 . S
C3859 C3861 1.388 . S
C3860 C3859 1.366 . S
C3860 C3864 1.385 . S
C3861 H3836 0.951 . S
C3861 C3859 1.388 . S
C3861 C3862 1.366 . S
C3862 C3861 1.366 . S
C3862 C3863 1.414 . S
C3862 C3865 1.499 . S
C3863 H3837 0.950 . S
C3863 C3862 1.414 . S
C3863 C3864 1.374 . S
C3864 H3838 0.950 . S
C3864 C3860 1.385 . S
C3864 C3863 1.374 . S
C3865 C3862 1.499 . S
C3865 C3866 1.373 . S
C3865 C3867 1.389 . S
C3866 H3839 0.950 . S
C3866 C3852 1.377 . S
C3866 C3865 1.373 . S
C3867 C3851 1.377 . S
C3867 C3865 1.389 . S
C3867 C3868 1.524 . S
C3868 C3867 1.524 . S
C3868 C3869 1.397 . S
C3868 C3873 1.363 . S
C3869 H3840 0.950 . S
C3869 C3868 1.397 . S
C3869 C3870 1.334 . S
C3870 H3841 0.950 . S
C3870 C3869 1.334 . S
C3870 C3871 1.287 . S
C3871 C3870 1.287 . S
C3871 C3872 1.524 . S
C3871 H3874 0.999 . S
C3872 H3842 0.950 . S
C3872 C3871 1.524 . S
C3872 C3873 1.415 . S
C3873 H3843 0.950 . S
C3873 C3868 1.363 . S
C3873 C3872 1.415 . S
H3874 C3871 0.999 . S
H3875 C3856 0.913 . S
H3876 C3894 0.951 . S
H3877 C3896 0.951 . S
H3878 C3898 0.950 . S
H3879 C3899 0.950 . S
H3880 C3901 0.950 . S
H3881 C3904 0.950 . S
H3882 C3905 0.950 . S
H3883 C3907 0.950 . S
H3884 C3908 0.950 . S
H3885 C3909 0.951 . S
H3886 C3911 0.951 . S
H3887 C3913 0.950 . S
H3888 C3914 0.950 . S
H3889 C3916 0.950 . S
H3890 C3919 0.950 . S
H3891 C3920 0.950 . S
H3892 C3922 0.950 . S
H3893 C3923 0.950 . S
C3894 H3876 0.951 . S
C3894 C3895 1.366 . S
C3894 C3896 1.388 . S
C3895 C3894 1.366 . S
C3895 C3899 1.385 . S
C3896 H3877 0.951 . S
C3896 C3894 1.388 . S
C3896 C3897 1.366 . S
C3897 C3896 1.366 . S
C3897 C3898 1.414 . S
C3897 C3900 1.499 . S
C3898 H3878 0.950 . S
C3898 C3897 1.414 . S
C3898 C3899 1.374 . S
C3899 H3879 0.950 . S
C3899 C3895 1.385 . S
C3899 C3898 1.374 . S
C3900 C3897 1.499 . S
C3900 C3901 1.373 . S
C3900 C3902 1.389 . S
C3901 H3880 0.950 . S
C3901 C3900 1.373 . S
C3901 C3917 1.377 . S
C3902 C3900 1.389 . S
C3902 C3903 1.524 . S
C3902 C3916 1.377 . S
C3903 C3902 1.524 . S
C3903 C3904 1.397 . S
C3903 C3908 1.363 . S
C3904 H3881 0.950 . S
C3904 C3903 1.397 . S
C3904 C3905 1.334 . S
C3905 H3882 0.950 . S
C3905 C3904 1.334 . S
C3905 C3906 1.287 . S
C3906 C3905 1.287 . S
C3906 C3907 1.524 . S
C3906 H3925 0.913 . S
C3907 H3883 0.950 . S
C3907 C3906 1.524 . S
C3907 C3908 1.415 . S
C3908 H3884 0.950 . S
C3908 C3903 1.363 . S
C3908 C3907 1.415 . S
C3909 H3885 0.951 . S
C3909 C3910 1.366 . S
C3909 C3911 1.388 . S
C3910 C3909 1.366 . S
C3910 C3914 1.385 . S
C3911 H3886 0.951 . S
C3911 C3909 1.388 . S
C3911 C3912 1.366 . S
C3912 C3911 1.366 . S
C3912 C3913 1.414 . S
C3912 C3915 1.499 . S
C3913 H3887 0.950 . S
C3913 C3912 1.414 . S
C3913 C3914 1.374 . S
C3914 H3888 0.950 . S
C3914 C3910 1.385 . S
C3914 C3913 1.374 . S
C3915 C3912 1.499 . S
C3915 C3916 1.373 . S
C3915 C3917 1.389 . S
C3916 H3889 0.950 . S
C3916 C3902 1.377 . S
C3916 C3915 1.373 . S
C3917 C3901 1.377 . S
C3917 C3915 1.389 . S
C3917 C3918 1.524 . S
C3918 C3917 1.524 . S
C3918 C3919 1.397 . S
C3918 C3923 1.363 . S
C3919 H3890 0.950 . S
C3919 C3918 1.397 . S
C3919 C3920 1.334 . S
C3920 H3891 0.950 . S
C3920 C3919 1.334 . S
C3920 C3921 1.287 . S
C3921 C3920 1.287 . S
C3921 C3922 1.524 . S
C3921 H3924 0.999 . S
C3922 H3892 0.950 . S
C3922 C3921 1.524 . S
C3922 C3923 1.415 . S
C3923 H3893 0.950 . S
C3923 C3918 1.363 . S
C3923 C3922 1.415 . S
H3924 C3921 0.999 . S
H3925 C3906 0.913 . S
H3926 C3944 0.951 . S
H3927 C3946 0.951 . S
H3928 C3948 0.950 . S
H3929 C3949 0.950 . S
H3930 C3951 0.950 . S
H3931 C3954 0.950 . S
H3932 C3955 0.950 . S
H3933 C3957 0.950 . S
H3934 C3958 0.950 . S
H3935 C3959 0.951 . S
H3936 C3961 0.951 . S
H3937 C3963 0.950 . S
H3938 C3964 0.950 . S
H3939 C3966 0.950 . S
H3940 C3969 0.950 . S
H3941 C3970 0.950 . S
H3942 C3972 0.950 . S
H3943 C3973 0.950 . S
C3944 H3926 0.951 . S
C3944 C3945 1.366 . S
C3944 C3946 1.388 . S
C3945 C3944 1.366 . S
C3945 C3949 1.385 . S
C3946 H3927 0.951 . S
C3946 C3944 1.388 . S
C3946 C3947 1.366 . S
C3947 C3946 1.366 . S
C3947 C3948 1.414 . S
C3947 C3950 1.499 . S
C3948 H3928 0.950 . S
C3948 C3947 1.414 . S
C3948 C3949 1.374 . S
C3949 H3929 0.950 . S
C3949 C3945 1.385 . S
C3949 C3948 1.374 . S
C3950 C3947 1.499 . S
C3950 C3951 1.373 . S
C3950 C3952 1.389 . S
C3951 H3930 0.950 . S
C3951 C3950 1.373 . S
C3951 C3967 1.377 . S
C3952 C3950 1.389 . S
C3952 C3953 1.524 . S
C3952 C3966 1.377 . S
C3953 C3952 1.524 . S
C3953 C3954 1.397 . S
C3953 C3958 1.363 . S
C3954 H3931 0.950 . S
C3954 C3953 1.397 . S
C3954 C3955 1.334 . S
C3955 H3932 0.950 . S
C3955 C3954 1.334 . S
C3955 C3956 1.287 . S
C3956 C3955 1.287 . S
C3956 C3957 1.524 . S
C3956 H3975 0.913 . S
C3957 H3933 0.950 . S
C3957 C3956 1.524 . S
C3957 C3958 1.415 . S
C3958 H3934 0.950 . S
C3958 C3953 1.363 . S
C3958 C3957 1.415 . S
C3959 H3935 0.951 . S
C3959 C3960 1.366 . S
C3959 C3961 1.388 . S
C3960 C3959 1.366 . S
C3960 C3964 1.385 . S
C3961 H3936 0.951 . S
C3961 C3959 1.388 . S
C3961 C3962 1.366 . S
C3962 C3961 1.366 . S
C3962 C3963 1.414 . S
C3962 C3965 1.499 . S
C3963 H3937 0.950 . S
C3963 C3962 1.414 . S
C3963 C3964 1.374 . S
C3964 H3938 0.950 . S
C3964 C3960 1.385 . S
C3964 C3963 1.374 . S
C3965 C3962 1.499 . S
C3965 C3966 1.373 . S
C3965 C3967 1.389 . S
C3966 H3939 0.950 . S
C3966 C3952 1.377 . S
C3966 C3965 1.373 . S
C3967 C3951 1.377 . S
C3967 C3965 1.389 . S
C3967 C3968 1.524 . S
C3968 C3967 1.524 . S
C3968 C3969 1.397 . S
C3968 C3973 1.363 . S
C3969 H3940 0.950 . S
C3969 C3968 1.397 . S
C3969 C3970 1.334 . S
C3970 H3941 0.950 . S
C3970 C3969 1.334 . S
C3970 C3971 1.287 . S
C3971 C3970 1.287 . S
C3971 C3972 1.524 . S
C3971 H3974 0.999 . S
C3972 H3942 0.950 . S
C3972 C3971 1.524 . S
C3972 C3973 1.415 . S
C3973 H3943 0.950 . S
C3973 C3968 1.363 . S
C3973 C3972 1.415 . S
H3974 C3971 0.999 . S
H3975 C3956 0.913 . S
H3976 C3994 0.951 . S
H3977 C3996 0.951 . S
H3978 C3998 0.950 . S
H3979 C3999 0.950 . S
H3980 C4001 0.950 . S
H3981 C4004 0.950 . S
H3982 C4005 0.950 . S
H3983 C4007 0.950 . S
H3984 C4008 0.950 . S
H3985 C4009 0.951 . S
H3986 C4011 0.951 . S
H3987 C4013 0.950 . S
H3988 C4014 0.950 . S
H3989 C4016 0.950 . S
H3990 C4019 0.950 . S
H3991 C4020 0.950 . S
H3992 C4022 0.950 . S
H3993 C4023 0.950 . S
C3994 H3976 0.951 . S
C3994 C3995 1.366 . S
C3994 C3996 1.388 . S
C3995 C3994 1.366 . S
C3995 C3999 1.385 . S
C3996 H3977 0.951 . S
C3996 C3994 1.388 . S
C3996 C3997 1.366 . S
C3997 C3996 1.366 . S
C3997 C3998 1.414 . S
C3997 C4000 1.499 . S
C3998 H3978 0.950 . S
C3998 C3997 1.414 . S
C3998 C3999 1.374 . S
C3999 H3979 0.950 . S
C3999 C3995 1.385 . S
C3999 C3998 1.374 . S
C4000 C3997 1.499 . S
C4000 C4001 1.373 . S
C4000 C4002 1.389 . S
C4001 H3980 0.950 . S
C4001 C4000 1.373 . S
C4001 C4017 1.377 . S
C4002 C4000 1.389 . S
C4002 C4003 1.524 . S
C4002 C4016 1.377 . S
C4003 C4002 1.524 . S
C4003 C4004 1.397 . S
C4003 C4008 1.363 . S
C4004 H3981 0.950 . S
C4004 C4003 1.397 . S
C4004 C4005 1.334 . S
C4005 H3982 0.950 . S
C4005 C4004 1.334 . S
C4005 C4006 1.287 . S
C4006 C4005 1.287 . S
C4006 C4007 1.524 . S
C4006 H4025 0.913 . S
C4007 H3983 0.950 . S
C4007 C4006 1.524 . S
C4007 C4008 1.415 . S
C4008 H3984 0.950 . S
C4008 C4003 1.363 . S
C4008 C4007 1.415 . S
C4009 H3985 0.951 . S
C4009 C4010 1.366 . S
C4009 C4011 1.388 . S
C4010 C4009 1.366 . S
C4010 C4014 1.385 . S
C4011 H3986 0.951 . S
C4011 C4009 1.388 . S
C4011 C4012 1.366 . S
C4012 C4011 1.366 . S
C4012 C4013 1.414 . S
C4012 C4015 1.499 . S
C4013 H3987 0.950 . S
C4013 C4012 1.414 . S
C4013 C4014 1.374 . S
C4014 H3988 0.950 . S
C4014 C4010 1.385 . S
C4014 C4013 1.374 . S
C4015 C4012 1.499 . S
C4015 C4016 1.373 . S
C4015 C4017 1.389 . S
C4016 H3989 0.950 . S
C4016 C4002 1.377 . S
C4016 C4015 1.373 . S
C4017 C4001 1.377 . S
C4017 C4015 1.389 . S
C4017 C4018 1.524 . S
C4018 C4017 1.524 . S
C4018 C4019 1.397 . S
C4018 C4023 1.363 . S
C4019 H3990 0.950 . S
C4019 C4018 1.397 . S
C4019 C4020 1.334 . S
C4020 H3991 0.950 . S
C4020 C4019 1.334 . S
C4020 C4021 1.287 . S
C4021 C4020 1.287 . S
C4021 C4022 1.524 . S
C4021 H4024 0.999 . S
C4022 H3992 0.950 . S
C4022 C4021 1.524 . S
C4022 C4023 1.415 . S
C4023 H3993 0.950 . S
C4023 C4018 1.363 . S
C4023 C4022 1.415 . S
H4024 C4021 0.999 . S
H4025 C4006 0.913 . S
H4026 C4044 0.951 . S
H4027 C4046 0.951 . S
H4028 C4048 0.950 . S
H4029 C4049 0.950 . S
H4030 C4051 0.950 . S
H4031 C4054 0.950 . S
H4032 C4055 0.950 . S
H4033 C4057 0.950 . S
H4034 C4058 0.950 . S
H4035 C4059 0.951 . S
H4036 C4061 0.951 . S
H4037 C4063 0.950 . S
H4038 C4064 0.950 . S
H4039 C4066 0.950 . S
H4040 C4069 0.950 . S
H4041 C4070 0.950 . S
H4042 C4072 0.950 . S
H4043 C4073 0.950 . S
C4044 H4026 0.951 . S
C4044 C4045 1.366 . S
C4044 C4046 1.388 . S
C4045 C4044 1.366 . S
C4045 C4049 1.385 . S
C4046 H4027 0.951 . S
C4046 C4044 1.388 . S
C4046 C4047 1.366 . S
C4047 C4046 1.366 . S
C4047 C4048 1.414 . S
C4047 C4050 1.499 . S
C4048 H4028 0.950 . S
C4048 C4047 1.414 . S
C4048 C4049 1.374 . S
C4049 H4029 0.950 . S
C4049 C4045 1.385 . S
C4049 C4048 1.374 . S
C4050 C4047 1.499 . S
C4050 C4051 1.373 . S
C4050 C4052 1.389 . S
C4051 H4030 0.950 . S
C4051 C4050 1.373 . S
C4051 C4067 1.377 . S
C4052 C4050 1.389 . S
C4052 C4053 1.524 . S
C4052 C4066 1.377 . S
C4053 C4052 1.524 . S
C4053 C4054 1.397 . S
C4053 C4058 1.363 . S
C4054 H4031 0.950 . S
C4054 C4053 1.397 . S
C4054 C4055 1.334 . S
C4055 H4032 0.950 . S
C4055 C4054 1.334 . S
C4055 C4056 1.287 . S
C4056 C4055 1.287 . S
C4056 C4057 1.524 . S
C4056 H4075 0.913 . S
C4057 H4033 0.950 . S
C4057 C4056 1.524 . S
C4057 C4058 1.415 . S
C4058 H4034 0.950 . S
C4058 C4053 1.363 . S
C4058 C4057 1.415 . S
C4059 H4035 0.951 . S
C4059 C4060 1.366 . S
C4059 C4061 1.388 . S
C4060 C4059 1.366 . S
C4060 C4064 1.385 . S
C4061 H4036 0.951 . S
C4061 C4059 1.388 . S
C4061 C4062 1.366 . S
C4062 C4061 1.366 . S
C4062 C4063 1.414 . S
C4062 C4065 1.499 . S
C4063 H4037 0.950 . S
C4063 C4062 1.414 . S
C4063 C4064 1.374 . S
C4064 H4038 0.950 . S
C4064 C4060 1.385 . S
C4064 C4063 1.374 . S
C4065 C4062 1.499 . S
C4065 C4066 1.373 . S
C4065 C4067 1.389 . S
C4066 H4039 0.950 . S
C4066 C4052 1.377 . S
C4066 C4065 1.373 . S
C4067 C4051 1.377 . S
C4067 C4065 1.389 . S
C4067 C4068 1.524 . S
C4068 C4067 1.524 . S
C4068 C4069 1.397 . S
C4068 C4073 1.363 . S
C4069 H4040 0.950 . S
C4069 C4068 1.397 . S
C4069 C4070 1.334 . S
C4070 H4041 0.950 . S
C4070 C4069 1.334 . S
C4070 C4071 1.287 . S
C4071 C4070 1.287 . S
C4071 C4072 1.524 . S
C4071 H4074 0.999 . S
C4072 H4042 0.950 . S
C4072 C4071 1.524 . S
C4072 C4073 1.415 . S
C4073 H4043 0.950 . S
C4073 C4068 1.363 . S
C4073 C4072 1.415 . S
H4074 C4071 0.999 . S
H4075 C4056 0.913 . S
H4076 C4094 0.951 . S
H4077 C4096 0.951 . S
H4078 C4098 0.950 . S
H4079 C4099 0.950 . S
H4080 C4101 0.950 . S
H4081 C4104 0.950 . S
H4082 C4105 0.950 . S
H4083 C4107 0.950 . S
H4084 C4108 0.950 . S
H4085 C4109 0.951 . S
H4086 C4111 0.951 . S
H4087 C4113 0.950 . S
H4088 C4114 0.950 . S
H4089 C4116 0.950 . S
H4090 C4119 0.950 . S
H4091 C4120 0.950 . S
H4092 C4122 0.950 . S
H4093 C4123 0.950 . S
C4094 H4076 0.951 . S
C4094 C4095 1.366 . S
C4094 C4096 1.388 . S
C4095 C4094 1.366 . S
C4095 C4099 1.385 . S
C4096 H4077 0.951 . S
C4096 C4094 1.388 . S
C4096 C4097 1.366 . S
C4097 C4096 1.366 . S
C4097 C4098 1.414 . S
C4097 C4100 1.499 . S
C4098 H4078 0.950 . S
C4098 C4097 1.414 . S
C4098 C4099 1.374 . S
C4099 H4079 0.950 . S
C4099 C4095 1.385 . S
C4099 C4098 1.374 . S
C4100 C4097 1.499 . S
C4100 C4101 1.373 . S
C4100 C4102 1.389 . S
C4101 H4080 0.950 . S
C4101 C4100 1.373 . S
C4101 C4117 1.377 . S
C4102 C4100 1.389 . S
C4102 C4103 1.524 . S
C4102 C4116 1.377 . S
C4103 C4102 1.524 . S
C4103 C4104 1.397 . S
C4103 C4108 1.363 . S
C4104 H4081 0.950 . S
C4104 C4103 1.397 . S
C4104 C4105 1.334 . S
C4105 H4082 0.950 . S
C4105 C4104 1.334 . S
C4105 C4106 1.287 . S
C4106 C4105 1.287 . S
C4106 C4107 1.524 . S
C4106 H4125 0.913 . S
C4107 H4083 0.950 . S
C4107 C4106 1.524 . S
C4107 C4108 1.415 . S
C4108 H4084 0.950 . S
C4108 C4103 1.363 . S
C4108 C4107 1.415 . S
C4109 H4085 0.951 . S
C4109 C4110 1.366 . S
C4109 C4111 1.388 . S
C4110 C4109 1.366 . S
C4110 C4114 1.385 . S
C4111 H4086 0.951 . S
C4111 C4109 1.388 . S
C4111 C4112 1.366 . S
C4112 C4111 1.366 . S
C4112 C4113 1.414 . S
C4112 C4115 1.499 . S
C4113 H4087 0.950 . S
C4113 C4112 1.414 . S
C4113 C4114 1.374 . S
C4114 H4088 0.950 . S
C4114 C4110 1.385 . S
C4114 C4113 1.374 . S
C4115 C4112 1.499 . S
C4115 C4116 1.373 . S
C4115 C4117 1.389 . S
C4116 H4089 0.950 . S
C4116 C4102 1.377 . S
C4116 C4115 1.373 . S
C4117 C4101 1.377 . S
C4117 C4115 1.389 . S
C4117 C4118 1.524 . S
C4118 C4117 1.524 . S
C4118 C4119 1.397 . S
C4118 C4123 1.363 . S
C4119 H4090 0.950 . S
C4119 C4118 1.397 . S
C4119 C4120 1.334 . S
C4120 H4091 0.950 . S
C4120 C4119 1.334 . S
C4120 C4121 1.287 . S
C4121 C4120 1.287 . S
C4121 C4122 1.524 . S
C4121 H4124 0.999 . S
C4122 H4092 0.950 . S
C4122 C4121 1.524 . S
C4122 C4123 1.415 . S
C4123 H4093 0.950 . S
C4123 C4118 1.363 . S
C4123 C4122 1.415 . S
H4124 C4121 0.999 . S
H4125 C4106 0.913 . S
H4126 C4144 0.951 . S
H4127 C4146 0.951 . S
H4128 C4148 0.950 . S
H4129 C4149 0.950 . S
H4130 C4151 0.950 . S
H4131 C4154 0.950 . S
H4132 C4155 0.950 . S
H4133 C4157 0.950 . S
H4134 C4158 0.950 . S
H4135 C4159 0.951 . S
H4136 C4161 0.951 . S
H4137 C4163 0.950 . S
H4138 C4164 0.950 . S
H4139 C4166 0.950 . S
H4140 C4169 0.950 . S
H4141 C4170 0.950 . S
H4142 C4172 0.950 . S
H4143 C4173 0.950 . S
C4144 H4126 0.951 . S
C4144 C4145 1.366 . S
C4144 C4146 1.388 . S
C4145 C4144 1.366 . S
C4145 C4149 1.385 . S
C4146 H4127 0.951 . S
C4146 C4144 1.388 . S
C4146 C4147 1.366 . S
C4147 C4146 1.366 . S
C4147 C4148 1.414 . S
C4147 C4150 1.499 . S
C4148 H4128 0.950 . S
C4148 C4147 1.414 . S
C4148 C4149 1.374 . S
C4149 H4129 0.950 . S
C4149 C4145 1.385 . S
C4149 C4148 1.374 . S
C4150 C4147 1.499 . S
C4150 C4151 1.373 . S
C4150 C4152 1.389 . S
C4151 H4130 0.950 . S
C4151 C4150 1.373 . S
C4151 C4167 1.377 . S
C4152 C4150 1.389 . S
C4152 C4153 1.524 . S
C4152 C4166 1.377 . S
C4153 C4152 1.524 . S
C4153 C4154 1.397 . S
C4153 C4158 1.363 . S
C4154 H4131 0.950 . S
C4154 C4153 1.397 . S
C4154 C4155 1.334 . S
C4155 H4132 0.950 . S
C4155 C4154 1.334 . S
C4155 C4156 1.287 . S
C4156 C4155 1.287 . S
C4156 C4157 1.524 . S
C4156 H4175 0.913 . S
C4157 H4133 0.950 . S
C4157 C4156 1.524 . S
C4157 C4158 1.415 . S
C4158 H4134 0.950 . S
C4158 C4153 1.363 . S
C4158 C4157 1.415 . S
C4159 H4135 0.951 . S
C4159 C4160 1.366 . S
C4159 C4161 1.388 . S
C4160 C4159 1.366 . S
C4160 C4164 1.385 . S
C4161 H4136 0.951 . S
C4161 C4159 1.388 . S
C4161 C4162 1.366 . S
C4162 C4161 1.366 . S
C4162 C4163 1.414 . S
C4162 C4165 1.499 . S
C4163 H4137 0.950 . S
C4163 C4162 1.414 . S
C4163 C4164 1.374 . S
C4164 H4138 0.950 . S
C4164 C4160 1.385 . S
C4164 C4163 1.374 . S
C4165 C4162 1.499 . S
C4165 C4166 1.373 . S
C4165 C4167 1.389 . S
C4166 H4139 0.950 . S
C4166 C4152 1.377 . S
C4166 C4165 1.373 . S
C4167 C4151 1.377 . S
C4167 C4165 1.389 . S
C4167 C4168 1.524 . S
C4168 C4167 1.524 . S
C4168 C4169 1.397 . S
C4168 C4173 1.363 . S
C4169 H4140 0.950 . S
C4169 C4168 1.397 . S
C4169 C4170 1.334 . S
C4170 H4141 0.950 . S
C4170 C4169 1.334 . S
C4170 C4171 1.287 . S
C4171 C4170 1.287 . S
C4171 C4172 1.524 . S
C4171 H4174 0.999 . S
C4172 H4142 0.950 . S
C4172 C4171 1.524 . S
C4172 C4173 1.415 . S
C4173 H4143 0.950 . S
C4173 C4168 1.363 . S
C4173 C4172 1.415 . S
H4174 C4171 0.999 . S
H4175 C4156 0.913 . S
H4176 C4194 0.951 . S
H4177 C4196 0.951 . S
H4178 C4198 0.950 . S
H4179 C4199 0.950 . S
H4180 C4201 0.950 . S
H4181 C4204 0.950 . S
H4182 C4205 0.950 . S
H4183 C4207 0.950 . S
H4184 C4208 0.950 . S
H4185 C4209 0.951 . S
H4186 C4211 0.951 . S
H4187 C4213 0.950 . S
H4188 C4214 0.950 . S
H4189 C4216 0.950 . S
H4190 C4219 0.950 . S
H4191 C4220 0.950 . S
H4192 C4222 0.950 . S
H4193 C4223 0.950 . S
C4194 H4176 0.951 . S
C4194 C4195 1.366 . S
C4194 C4196 1.388 . S
C4195 C4194 1.366 . S
C4195 C4199 1.385 . S
C4196 H4177 0.951 . S
C4196 C4194 1.388 . S
C4196 C4197 1.366 . S
C4197 C4196 1.366 . S
C4197 C4198 1.414 . S
C4197 C4200 1.499 . S
C4198 H4178 0.950 . S
C4198 C4197 1.414 . S
C4198 C4199 1.374 . S
C4199 H4179 0.950 . S
C4199 C4195 1.385 . S
C4199 C4198 1.374 . S
C4200 C4197 1.499 . S
C4200 C4201 1.373 . S
C4200 C4202 1.389 . S
C4201 H4180 0.950 . S
C4201 C4200 1.373 . S
C4201 C4217 1.377 . S
C4202 C4200 1.389 . S
C4202 C4203 1.524 . S
C4202 C4216 1.377 . S
C4203 C4202 1.524 . S
C4203 C4204 1.397 . S
C4203 C4208 1.363 . S
C4204 H4181 0.950 . S
C4204 C4203 1.397 . S
C4204 C4205 1.334 . S
C4205 H4182 0.950 . S
C4205 C4204 1.334 . S
C4205 C4206 1.287 . S
C4206 C4205 1.287 . S
C4206 C4207 1.524 . S
C4206 H4225 0.913 . S
C4207 H4183 0.950 . S
C4207 C4206 1.524 . S
C4207 C4208 1.415 . S
C4208 H4184 0.950 . S
C4208 C4203 1.363 . S
C4208 C4207 1.415 . S
C4209 H4185 0.951 . S
C4209 C4210 1.366 . S
C4209 C4211 1.388 . S
C4210 C4209 1.366 . S
C4210 C4214 1.385 . S
C4211 H4186 0.951 . S
C4211 C4209 1.388 . S
C4211 C4212 1.366 . S
C4212 C4211 1.366 . S
C4212 C4213 1.414 . S
C4212 C4215 1.499 . S
C4213 H4187 0.950 . S
C4213 C4212 1.414 . S
C4213 C4214 1.374 . S
C4214 H4188 0.950 . S
C4214 C4210 1.385 . S
C4214 C4213 1.374 . S
C4215 C4212 1.499 . S
C4215 C4216 1.373 . S
C4215 C4217 1.389 . S
C4216 H4189 0.950 . S
C4216 C4202 1.377 . S
C4216 C4215 1.373 . S
C4217 C4201 1.377 . S
C4217 C4215 1.389 . S
C4217 C4218 1.524 . S
C4218 C4217 1.524 . S
C4218 C4219 1.397 . S
C4218 C4223 1.363 . S
C4219 H4190 0.950 . S
C4219 C4218 1.397 . S
C4219 C4220 1.334 . S
C4220 H4191 0.950 . S
C4220 C4219 1.334 . S
C4220 C4221 1.287 . S
C4221 C4220 1.287 . S
C4221 C4222 1.524 . S
C4221 H4224 0.999 . S
C4222 H4192 0.950 . S
C4222 C4221 1.524 . S
C4222 C4223 1.415 . S
C4223 H4193 0.950 . S
C4223 C4218 1.363 . S
C4223 C4222 1.415 . S
H4224 C4221 0.999 . S
H4225 C4206 0.913 . S
H4226 C4244 0.951 . S
H4227 C4246 0.951 . S
H4228 C4248 0.950 . S
H4229 C4249 0.950 . S
H4230 C4251 0.950 . S
H4231 C4254 0.950 . S
H4232 C4255 0.950 . S
H4233 C4257 0.950 . S
H4234 C4258 0.950 . S
H4235 C4259 0.951 . S
H4236 C4261 0.951 . S
H4237 C4263 0.950 . S
H4238 C4264 0.950 . S
H4239 C4266 0.950 . S
H4240 C4269 0.950 . S
H4241 C4270 0.950 . S
H4242 C4272 0.950 . S
H4243 C4273 0.950 . S
C4244 H4226 0.951 . S
C4244 C4245 1.366 . S
C4244 C4246 1.388 . S
C4245 C4244 1.366 . S
C4245 C4249 1.385 . S
C4246 H4227 0.951 . S
C4246 C4244 1.388 . S
C4246 C4247 1.366 . S
C4247 C4246 1.366 . S
C4247 C4248 1.414 . S
C4247 C4250 1.499 . S
C4248 H4228 0.950 . S
C4248 C4247 1.414 . S
C4248 C4249 1.374 . S
C4249 H4229 0.950 . S
C4249 C4245 1.385 . S
C4249 C4248 1.374 . S
C4250 C4247 1.499 . S
C4250 C4251 1.373 . S
C4250 C4252 1.389 . S
C4251 H4230 0.950 . S
C4251 C4250 1.373 . S
C4251 C4267 1.377 . S
C4252 C4250 1.389 . S
C4252 C4253 1.524 . S
C4252 C4266 1.377 . S
C4253 C4252 1.524 . S
C4253 C4254 1.397 . S
C4253 C4258 1.363 . S
C4254 H4231 0.950 . S
C4254 C4253 1.397 . S
C4254 C4255 1.334 . S
C4255 H4232 0.950 . S
C4255 C4254 1.334 . S
C4255 C4256 1.287 . S
C4256 C4255 1.287 . S
C4256 C4257 1.524 . S
C4256 H4275 0.913 . S
C4257 H4233 0.950 . S
C4257 C4256 1.524 . S
C4257 C4258 1.415 . S
C4258 H4234 0.950 . S
C4258 C4253 1.363 . S
C4258 C4257 1.415 . S
C4259 H4235 0.951 . S
C4259 C4260 1.366 . S
C4259 C4261 1.388 . S
C4260 C4259 1.366 . S
C4260 C4264 1.385 . S
C4261 H4236 0.951 . S
C4261 C4259 1.388 . S
C4261 C4262 1.366 . S
C4262 C4261 1.366 . S
C4262 C4263 1.414 . S
C4262 C4265 1.499 . S
C4263 H4237 0.950 . S
C4263 C4262 1.414 . S
C4263 C4264 1.374 . S
C4264 H4238 0.950 . S
C4264 C4260 1.385 . S
C4264 C4263 1.374 . S
C4265 C4262 1.499 . S
C4265 C4266 1.373 . S
C4265 C4267 1.389 . S
C4266 H4239 0.950 . S
C4266 C4252 1.377 . S
C4266 C4265 1.373 . S
C4267 C4251 1.377 . S
C4267 C4265 1.389 . S
C4267 C4268 1.524 . S
C4268 C4267 1.524 . S
C4268 C4269 1.397 . S
C4268 C4273 1.363 . S
C4269 H4240 0.950 . S
C4269 C4268 1.397 . S
C4269 C4270 1.334 . S
C4270 H4241 0.950 . S
C4270 C4269 1.334 . S
C4270 C4271 1.287 . S
C4271 C4270 1.287 . S
C4271 C4272 1.524 . S
C4271 H4274 0.999 . S
C4272 H4242 0.950 . S
C4272 C4271 1.524 . S
C4272 C4273 1.415 . S
C4273 H4243 0.950 . S
C4273 C4268 1.363 . S
C4273 C4272 1.415 . S
H4274 C4271 0.999 . S
H4275 C4256 0.913 . S
H4276 C4294 0.951 1_545 S
H4277 C4296 0.951 . S
H4278 C4298 0.950 . S
H4279 C4299 0.950 . S
H4280 C4301 0.950 . S
H4281 C4304 0.950 . S
H4282 C4305 0.950 . S
H4283 C4307 0.950 1_545 S
H4284 C4308 0.950 . S
H4285 C4309 0.951 . S
H4286 C4311 0.951 . S
H4287 C4313 0.950 . S
H4288 C4314 0.950 . S
H4289 C4316 0.950 . S
H4290 C4319 0.950 . S
H4291 C4320 0.950 . S
H4292 C4322 0.950 . S
H4293 C4323 0.950 . S
C4294 H4276 0.951 1_565 S
C4294 C4295 1.366 . S
C4294 C4296 1.388 . S
C4295 C4294 1.366 . S
C4295 C4299 1.385 . S
C4296 H4277 0.951 . S
C4296 C4294 1.388 . S
C4296 C4297 1.366 . S
C4297 C4296 1.366 . S
C4297 C4298 1.414 . S
C4297 C4300 1.499 . S
C4298 H4278 0.950 . S
C4298 C4297 1.414 . S
C4298 C4299 1.374 . S
C4299 H4279 0.950 . S
C4299 C4295 1.385 . S
C4299 C4298 1.374 . S
C4300 C4297 1.499 . S
C4300 C4301 1.373 . S
C4300 C4302 1.389 . S
C4301 H4280 0.950 . S
C4301 C4300 1.373 . S
C4301 C4317 1.377 . S
C4302 C4300 1.389 . S
C4302 C4303 1.524 . S
C4302 C4316 1.377 . S
C4303 C4302 1.524 . S
C4303 C4304 1.397 . S
C4303 C4308 1.363 . S
C4304 H4281 0.950 . S
C4304 C4303 1.397 . S
C4304 C4305 1.334 . S
C4305 H4282 0.950 . S
C4305 C4304 1.334 . S
C4305 C4306 1.287 . S
C4306 C4305 1.287 . S
C4306 C4307 1.524 . S
C4306 H4325 0.913 1_565 S
C4307 H4283 0.950 1_565 S
C4307 C4306 1.524 . S
C4307 C4308 1.415 . S
C4308 H4284 0.950 . S
C4308 C4303 1.363 . S
C4308 C4307 1.415 . S
C4309 H4285 0.951 . S
C4309 C4310 1.366 . S
C4309 C4311 1.388 . S
C4310 C4309 1.366 . S
C4310 C4314 1.385 . S
C4311 H4286 0.951 . S
C4311 C4309 1.388 . S
C4311 C4312 1.366 . S
C4312 C4311 1.366 . S
C4312 C4313 1.414 . S
C4312 C4315 1.499 . S
C4313 H4287 0.950 . S
C4313 C4312 1.414 . S
C4313 C4314 1.374 . S
C4314 H4288 0.950 . S
C4314 C4310 1.385 . S
C4314 C4313 1.374 . S
C4315 C4312 1.499 . S
C4315 C4316 1.373 . S
C4315 C4317 1.389 . S
C4316 H4289 0.950 . S
C4316 C4302 1.377 . S
C4316 C4315 1.373 . S
C4317 C4301 1.377 . S
C4317 C4315 1.389 . S
C4317 C4318 1.524 . S
C4318 C4317 1.524 . S
C4318 C4319 1.397 . S
C4318 C4323 1.363 . S
C4319 H4290 0.950 . S
C4319 C4318 1.397 . S
C4319 C4320 1.334 . S
C4320 H4291 0.950 . S
C4320 C4319 1.334 . S
C4320 C4321 1.287 . S
C4321 C4320 1.287 . S
C4321 C4322 1.524 . S
C4321 H4324 0.999 . S
C4322 H4292 0.950 . S
C4322 C4321 1.524 . S
C4322 C4323 1.415 . S
C4323 H4293 0.950 . S
C4323 C4318 1.363 . S
C4323 C4322 1.415 . S
H4324 C4321 0.999 . S
H4325 C4306 0.913 1_545 S
H4326 C4344 0.951 . S
H4327 C4346 0.951 . S
H4328 C4348 0.950 . S
H4329 C4349 0.950 . S
H4330 C4351 0.950 . S
H4331 C4354 0.950 . S
H4332 C4355 0.950 . S
H4333 C4357 0.950 . S
H4334 C4358 0.921 1_554 S
H4335 C4359 0.946 1_565 S
H4336 C4361 0.951 1_556 S
H4337 C4363 0.950 . S
H4338 C4364 0.950 . S
H4339 C4366 0.950 1_545 S
H4340 C4369 0.950 . S
H4341 C4370 0.950 . S
H4342 C4372 0.950 . S
H4343 C4373 0.950 . S
C4344 H4326 0.951 . S
C4344 C4345 1.366 . S
C4344 C4346 1.388 . S
C4345 C4344 1.366 . S
C4345 C4349 1.385 1_554 S
C4346 H4327 0.951 . S
C4346 C4344 1.388 . S
C4346 C4347 1.366 . S
C4347 C4346 1.366 . S
C4347 C4348 1.414 1_554 S
C4347 C4350 1.499 . S
C4348 H4328 0.950 . S
C4348 C4347 1.414 1_556 S
C4348 C4349 1.374 . S
C4349 H4329 0.950 . S
C4349 C4345 1.385 1_556 S
C4349 C4348 1.374 . S
C4350 C4347 1.499 . S
C4350 C4351 1.373 . S
C4350 C4352 1.389 . S
C4351 H4330 0.950 . S
C4351 C4350 1.373 . S
C4351 C4367 1.377 . S
C4352 C4350 1.389 . S
C4352 C4353 1.524 1_554 S
C4352 C4366 1.377 . S
C4353 C4352 1.524 1_556 S
C4353 C4354 1.397 . S
C4353 C4358 1.374 1_565 S
C4354 H4331 0.950 . S
C4354 C4353 1.397 . S
C4354 C4355 1.334 . S
C4355 H4332 0.950 . S
C4355 C4354 1.334 . S
C4355 C4356 1.257 1_565 S
C4356 C4355 1.257 1_545 S
C4356 C4357 1.537 . S
C4356 H4375 0.933 . S
C4357 H4333 0.950 . S
C4357 C4356 1.537 . S
C4357 C4358 1.434 . S
C4358 H4334 0.921 1_556 S
C4358 C4353 1.374 1_545 S
C4358 C4357 1.434 . S
C4359 H4335 0.946 1_545 S
C4359 C4360 1.407 . S
C4359 C4361 1.373 1_545 S
C4360 C4359 1.407 . S
C4360 C4364 1.385 . S
C4361 H4336 0.951 1_554 S
C4361 C4359 1.373 1_565 S
C4361 C4362 1.366 . S
C4362 C4361 1.366 . S
C4362 C4363 1.414 1_565 S
C4362 C4365 1.499 . S
C4363 H4337 0.950 . S
C4363 C4362 1.414 1_545 S
C4363 C4364 1.374 . S
C4364 H4338 0.950 . S
C4364 C4360 1.385 . S
C4364 C4363 1.374 . S
C4365 C4362 1.499 . S
C4365 C4366 1.373 . S
C4365 C4367 1.389 . S
C4366 H4339 0.950 1_565 S
C4366 C4352 1.377 . S
C4366 C4365 1.373 . S
C4367 C4351 1.377 . S
C4367 C4365 1.389 . S
C4367 C4368 1.524 . S
C4368 C4367 1.524 . S
C4368 C4369 1.397 . S
C4368 C4373 1.363 . S
C4369 H4340 0.950 . S
C4369 C4368 1.397 . S
C4369 C4370 1.334 . S
C4370 H4341 0.950 . S
C4370 C4369 1.334 . S
C4370 C4371 1.287 . S
C4371 C4370 1.287 . S
C4371 C4372 1.524 . S
C4371 H4374 0.999 . S
C4372 H4342 0.950 . S
C4372 C4371 1.524 . S
C4372 C4373 1.415 . S
C4373 H4343 0.950 . S
C4373 C4368 1.363 . S
C4373 C4372 1.415 . S
H4374 C4371 0.999 . S
H4375 C4356 0.933 . S
H4376 C4394 0.951 . S
H4377 C4396 0.951 . S
H4378 C4398 0.950 . S
H4379 C4399 0.950 . S
H4380 C4401 0.950 . S
H4381 C4404 0.950 . S
H4382 C4405 0.950 . S
H4383 C4407 0.950 . S
H4384 C4408 0.950 . S
H4385 C4409 0.951 . S
H4386 C4411 0.951 . S
H4387 C4413 0.950 . S
H4388 C4414 0.950 . S
H4389 C4416 0.950 . S
H4390 C4419 0.950 . S
H4391 C4420 0.950 . S
H4392 C4422 0.950 . S
H4393 C4423 0.950 . S
C4394 H4376 0.951 . S
C4394 C4395 1.366 . S
C4394 C4396 1.388 . S
C4395 C4394 1.366 . S
C4395 C4399 1.385 . S
C4396 H4377 0.951 . S
C4396 C4394 1.388 . S
C4396 C4397 1.366 . S
C4397 C4396 1.366 . S
C4397 C4398 1.414 . S
C4397 C4400 1.499 . S
C4398 H4378 0.950 . S
C4398 C4397 1.414 . S
C4398 C4399 1.374 . S
C4399 H4379 0.950 . S
C4399 C4395 1.385 . S
C4399 C4398 1.374 . S
C4400 C4397 1.499 . S
C4400 C4401 1.373 . S
C4400 C4402 1.389 . S
C4401 H4380 0.950 . S
C4401 C4400 1.373 . S
C4401 C4417 1.377 . S
C4402 C4400 1.389 . S
C4402 C4403 1.524 . S
C4402 C4416 1.377 . S
C4403 C4402 1.524 . S
C4403 C4404 1.397 . S
C4403 C4408 1.363 . S
C4404 H4381 0.950 . S
C4404 C4403 1.397 . S
C4404 C4405 1.334 . S
C4405 H4382 0.950 . S
C4405 C4404 1.334 . S
C4405 C4406 1.287 . S
C4406 C4405 1.287 . S
C4406 C4407 1.524 . S
C4406 H4425 0.913 . S
C4407 H4383 0.950 . S
C4407 C4406 1.524 . S
C4407 C4408 1.415 . S
C4408 H4384 0.950 . S
C4408 C4403 1.363 . S
C4408 C4407 1.415 . S
C4409 H4385 0.951 . S
C4409 C4410 1.366 . S
C4409 C4411 1.388 . S
C4410 C4409 1.366 . S
C4410 C4414 1.385 . S
C4411 H4386 0.951 . S
C4411 C4409 1.388 . S
C4411 C4412 1.366 . S
C4412 C4411 1.366 . S
C4412 C4413 1.414 . S
C4412 C4415 1.499 . S
C4413 H4387 0.950 . S
C4413 C4412 1.414 . S
C4413 C4414 1.374 . S
C4414 H4388 0.950 . S
C4414 C4410 1.385 . S
C4414 C4413 1.374 . S
C4415 C4412 1.499 . S
C4415 C4416 1.373 . S
C4415 C4417 1.389 . S
C4416 H4389 0.950 . S
C4416 C4402 1.377 . S
C4416 C4415 1.373 . S
C4417 C4401 1.377 . S
C4417 C4415 1.389 . S
C4417 C4418 1.524 . S
C4418 C4417 1.524 . S
C4418 C4419 1.397 . S
C4418 C4423 1.363 . S
C4419 H4390 0.950 . S
C4419 C4418 1.397 . S
C4419 C4420 1.334 . S
C4420 H4391 0.950 . S
C4420 C4419 1.334 . S
C4420 C4421 1.287 . S
C4421 C4420 1.287 . S
C4421 C4422 1.524 . S
C4421 H4424 0.999 . S
C4422 H4392 0.950 . S
C4422 C4421 1.524 . S
C4422 C4423 1.415 . S
C4423 H4393 0.950 . S
C4423 C4418 1.363 . S
C4423 C4422 1.415 . S
H4424 C4421 0.999 . S
H4425 C4406 0.913 . S
H4426 C4444 0.951 . S
H4427 C4446 0.951 . S
H4428 C4448 0.950 . S
H4429 C4449 0.950 . S
H4430 C4451 0.950 . S
H4431 C4454 0.950 . S
H4432 C4455 0.950 . S
H4433 C4457 0.950 . S
H4434 C4458 0.950 . S
H4435 C4459 0.951 . S
H4436 C4461 0.951 . S
H4437 C4463 0.950 . S
H4438 C4464 0.950 . S
H4439 C4466 0.950 . S
H4440 C4469 0.950 . S
H4441 C4470 0.950 . S
H4442 C4472 0.950 . S
H4443 C4473 0.950 . S
C4444 H4426 0.951 . S
C4444 C4445 1.366 . S
C4444 C4446 1.388 . S
C4445 C4444 1.366 . S
C4445 C4449 1.385 . S
C4446 H4427 0.951 . S
C4446 C4444 1.388 . S
C4446 C4447 1.366 . S
C4447 C4446 1.366 . S
C4447 C4448 1.414 . S
C4447 C4450 1.499 . S
C4448 H4428 0.950 . S
C4448 C4447 1.414 . S
C4448 C4449 1.374 . S
C4449 H4429 0.950 . S
C4449 C4445 1.385 . S
C4449 C4448 1.374 . S
C4450 C4447 1.499 . S
C4450 C4451 1.373 . S
C4450 C4452 1.389 . S
C4451 H4430 0.950 . S
C4451 C4450 1.373 . S
C4451 C4467 1.377 . S
C4452 C4450 1.389 . S
C4452 C4453 1.524 . S
C4452 C4466 1.377 . S
C4453 C4452 1.524 . S
C4453 C4454 1.397 1_554 S
C4453 C4458 1.363 . S
C4454 H4431 0.950 . S
C4454 C4453 1.397 1_556 S
C4454 C4455 1.334 . S
C4455 H4432 0.950 . S
C4455 C4454 1.334 . S
C4455 C4456 1.287 . S
C4456 C4455 1.287 . S
C4456 C4457 1.524 . S
C4456 H4475 0.913 . S
C4457 H4433 0.950 . S
C4457 C4456 1.524 . S
C4457 C4458 1.415 1_556 S
C4458 H4434 0.950 . S
C4458 C4453 1.363 . S
C4458 C4457 1.415 1_554 S
C4459 H4435 0.951 . S
C4459 C4460 1.366 . S
C4459 C4461 1.388 . S
C4460 C4459 1.366 . S
C4460 C4464 1.385 . S
C4461 H4436 0.951 . S
C4461 C4459 1.388 . S
C4461 C4462 1.366 . S
C4462 C4461 1.366 . S
C4462 C4463 1.414 . S
C4462 C4465 1.499 . S
C4463 H4437 0.950 . S
C4463 C4462 1.414 . S
C4463 C4464 1.374 . S
C4464 H4438 0.950 . S
C4464 C4460 1.385 . S
C4464 C4463 1.374 . S
C4465 C4462 1.499 . S
C4465 C4466 1.373 . S
C4465 C4467 1.389 . S
C4466 H4439 0.950 . S
C4466 C4452 1.377 . S
C4466 C4465 1.373 . S
C4467 C4451 1.377 . S
C4467 C4465 1.389 . S
C4467 C4468 1.524 . S
C4468 C4467 1.524 . S
C4468 C4469 1.397 . S
C4468 C4473 1.363 . S
C4469 H4440 0.950 . S
C4469 C4468 1.397 . S
C4469 C4470 1.334 . S
C4470 H4441 0.950 . S
C4470 C4469 1.334 . S
C4470 C4471 1.287 . S
C4471 C4470 1.287 . S
C4471 C4472 1.524 . S
C4471 H4474 0.999 . S
C4472 H4442 0.950 . S
C4472 C4471 1.524 . S
C4472 C4473 1.415 . S
C4473 H4443 0.950 . S
C4473 C4468 1.363 . S
C4473 C4472 1.415 . S
H4474 C4471 0.999 . S
H4475 C4456 0.913 . S
H4476 C4494 0.951 . S
H4477 C4496 0.951 . S
H4478 C4498 0.950 . S
H4479 C4499 0.950 . S
H4480 C4501 0.950 . S
H4481 C4504 0.950 . S
H4482 C4505 0.950 . S
H4483 C4507 0.950 . S
H4484 C4508 0.950 . S
H4485 C4509 0.951 . S
H4486 C4511 0.951 . S
H4487 C4513 0.950 . S
H4488 C4514 0.950 . S
H4489 C4516 0.950 . S
H4490 C4519 0.950 . S
H4491 C4520 0.950 . S
H4492 C4522 0.950 . S
H4493 C4523 0.950 . S
C4494 H4476 0.951 . S
C4494 C4495 1.366 . S
C4494 C4496 1.388 . S
C4495 C4494 1.366 . S
C4495 C4499 1.385 . S
C4496 H4477 0.951 . S
C4496 C4494 1.388 . S
C4496 C4497 1.366 . S
C4497 C4496 1.366 . S
C4497 C4498 1.414 . S
C4497 C4500 1.499 . S
C4498 H4478 0.950 . S
C4498 C4497 1.414 . S
C4498 C4499 1.374 . S
C4499 H4479 0.950 . S
C4499 C4495 1.385 . S
C4499 C4498 1.374 . S
C4500 C4497 1.499 . S
C4500 C4501 1.373 . S
C4500 C4502 1.389 . S
C4501 H4480 0.950 . S
C4501 C4500 1.373 . S
C4501 C4517 1.377 . S
C4502 C4500 1.389 . S
C4502 C4503 1.524 . S
C4502 C4516 1.377 . S
C4503 C4502 1.524 . S
C4503 C4504 1.397 . S
C4503 C4508 1.363 . S
C4504 H4481 0.950 . S
C4504 C4503 1.397 . S
C4504 C4505 1.334 . S
C4505 H4482 0.950 . S
C4505 C4504 1.334 . S
C4505 C4506 1.287 . S
C4506 C4505 1.287 . S
C4506 C4507 1.524 . S
C4506 H4525 0.913 . S
C4507 H4483 0.950 . S
C4507 C4506 1.524 . S
C4507 C4508 1.415 . S
C4508 H4484 0.950 . S
C4508 C4503 1.363 . S
C4508 C4507 1.415 . S
C4509 H4485 0.951 . S
C4509 C4510 1.366 . S
C4509 C4511 1.388 . S
C4510 C4509 1.366 . S
C4510 C4514 1.385 . S
C4511 H4486 0.951 . S
C4511 C4509 1.388 . S
C4511 C4512 1.366 . S
C4512 C4511 1.366 . S
C4512 C4513 1.414 . S
C4512 C4515 1.499 . S
C4513 H4487 0.950 . S
C4513 C4512 1.414 . S
C4513 C4514 1.374 . S
C4514 H4488 0.950 . S
C4514 C4510 1.385 . S
C4514 C4513 1.374 . S
C4515 C4512 1.499 . S
C4515 C4516 1.373 . S
C4515 C4517 1.389 . S
C4516 H4489 0.950 . S
C4516 C4502 1.377 . S
C4516 C4515 1.373 . S
C4517 C4501 1.377 . S
C4517 C4515 1.389 . S
C4517 C4518 1.524 . S
C4518 C4517 1.524 . S
C4518 C4519 1.397 . S
C4518 C4523 1.363 . S
C4519 H4490 0.950 . S
C4519 C4518 1.397 . S
C4519 C4520 1.334 . S
C4520 H4491 0.950 . S
C4520 C4519 1.334 . S
C4520 C4521 1.287 . S
C4521 C4520 1.287 . S
C4521 C4522 1.524 . S
C4521 H4524 0.999 . S
C4522 H4492 0.950 . S
C4522 C4521 1.524 . S
C4522 C4523 1.415 . S
C4523 H4493 0.950 . S
C4523 C4518 1.363 . S
C4523 C4522 1.415 . S
H4524 C4521 0.999 . S
H4525 C4506 0.913 . S
H4526 C4544 0.951 . S
H4527 C4546 0.951 . S
H4528 C4548 0.950 . S
H4529 C4549 0.950 . S
H4530 C4551 0.950 . S
H4531 C4554 0.950 . S
H4532 C4555 0.950 . S
H4533 C4557 0.950 . S
H4534 C4558 0.950 . S
H4535 C4559 0.951 . S
H4536 C4561 0.951 . S
H4537 C4563 0.950 . S
H4538 C4564 0.950 . S
H4539 C4566 0.950 . S
H4540 C4569 0.950 . S
H4541 C4570 0.950 . S
H4542 C4572 0.950 . S
H4543 C4573 0.950 . S
C4544 H4526 0.951 . S
C4544 C4545 1.366 . S
C4544 C4546 1.388 . S
C4545 C4544 1.366 . S
C4545 C4549 1.385 . S
C4546 H4527 0.951 . S
C4546 C4544 1.388 . S
C4546 C4547 1.366 . S
C4547 C4546 1.366 . S
C4547 C4548 1.414 . S
C4547 C4550 1.499 . S
C4548 H4528 0.950 . S
C4548 C4547 1.414 . S
C4548 C4549 1.374 . S
C4549 H4529 0.950 . S
C4549 C4545 1.385 . S
C4549 C4548 1.374 . S
C4550 C4547 1.499 . S
C4550 C4551 1.373 . S
C4550 C4552 1.389 . S
C4551 H4530 0.950 . S
C4551 C4550 1.373 . S
C4551 C4567 1.377 . S
C4552 C4550 1.389 . S
C4552 C4553 1.524 . S
C4552 C4566 1.377 . S
C4553 C4552 1.524 . S
C4553 C4554 1.397 . S
C4553 C4558 1.363 . S
C4554 H4531 0.950 . S
C4554 C4553 1.397 . S
C4554 C4555 1.334 . S
C4555 H4532 0.950 . S
C4555 C4554 1.334 . S
C4555 C4556 1.287 . S
C4556 C4555 1.287 . S
C4556 C4557 1.524 . S
C4556 H4575 0.913 . S
C4557 H4533 0.950 . S
C4557 C4556 1.524 . S
C4557 C4558 1.415 . S
C4558 H4534 0.950 . S
C4558 C4553 1.363 . S
C4558 C4557 1.415 . S
C4559 H4535 0.951 . S
C4559 C4560 1.366 . S
C4559 C4561 1.388 . S
C4560 C4559 1.366 . S
C4560 C4564 1.385 . S
C4561 H4536 0.951 . S
C4561 C4559 1.388 . S
C4561 C4562 1.366 . S
C4562 C4561 1.366 . S
C4562 C4563 1.414 . S
C4562 C4565 1.499 . S
C4563 H4537 0.950 . S
C4563 C4562 1.414 . S
C4563 C4564 1.374 . S
C4564 H4538 0.950 . S
C4564 C4560 1.385 . S
C4564 C4563 1.374 . S
C4565 C4562 1.499 . S
C4565 C4566 1.373 . S
C4565 C4567 1.389 . S
C4566 H4539 0.950 . S
C4566 C4552 1.377 . S
C4566 C4565 1.373 . S
C4567 C4551 1.377 . S
C4567 C4565 1.389 . S
C4567 C4568 1.524 . S
C4568 C4567 1.524 . S
C4568 C4569 1.397 . S
C4568 C4573 1.363 . S
C4569 H4540 0.950 . S
C4569 C4568 1.397 . S
C4569 C4570 1.334 . S
C4570 H4541 0.950 . S
C4570 C4569 1.334 . S
C4570 C4571 1.287 . S
C4571 C4570 1.287 . S
C4571 C4572 1.524 . S
C4571 H4574 0.999 . S
C4572 H4542 0.950 . S
C4572 C4571 1.524 . S
C4572 C4573 1.415 . S
C4573 H4543 0.950 . S
C4573 C4568 1.363 . S
C4573 C4572 1.415 . S
H4574 C4571 0.999 . S
H4575 C4556 0.913 . S
H4576 C4594 0.951 . S
H4577 C4596 0.951 . S
H4578 C4598 0.950 . S
H4579 C4599 0.950 . S
H4580 C4601 0.950 . S
H4581 C4604 0.950 . S
H4582 C4605 0.950 . S
H4583 C4607 0.950 . S
H4584 C4608 0.950 . S
H4585 C4609 0.951 . S
H4586 C4611 0.951 . S
H4587 C4613 0.950 . S
H4588 C4614 0.950 . S
H4589 C4616 0.950 . S
H4590 C4619 0.950 . S
H4591 C4620 0.950 . S
H4592 C4622 0.950 . S
H4593 C4623 0.950 . S
C4594 H4576 0.951 . S
C4594 C4595 1.366 . S
C4594 C4596 1.388 . S
C4595 C4594 1.366 . S
C4595 C4599 1.385 . S
C4596 H4577 0.951 . S
C4596 C4594 1.388 . S
C4596 C4597 1.366 . S
C4597 C4596 1.366 . S
C4597 C4598 1.414 . S
C4597 C4600 1.499 . S
C4598 H4578 0.950 . S
C4598 C4597 1.414 . S
C4598 C4599 1.374 . S
C4599 H4579 0.950 . S
C4599 C4595 1.385 . S
C4599 C4598 1.374 . S
C4600 C4597 1.499 . S
C4600 C4601 1.373 . S
C4600 C4602 1.389 . S
C4601 H4580 0.950 . S
C4601 C4600 1.373 . S
C4601 C4617 1.377 . S
C4602 C4600 1.389 . S
C4602 C4603 1.524 . S
C4602 C4616 1.377 . S
C4603 C4602 1.524 . S
C4603 C4604 1.397 . S
C4603 C4608 1.363 . S
C4604 H4581 0.950 . S
C4604 C4603 1.397 . S
C4604 C4605 1.334 . S
C4605 H4582 0.950 . S
C4605 C4604 1.334 . S
C4605 C4606 1.287 . S
C4606 C4605 1.287 . S
C4606 C4607 1.524 . S
C4606 H4625 0.913 . S
C4607 H4583 0.950 . S
C4607 C4606 1.524 . S
C4607 C4608 1.415 . S
C4608 H4584 0.950 . S
C4608 C4603 1.363 . S
C4608 C4607 1.415 . S
C4609 H4585 0.951 . S
C4609 C4610 1.366 . S
C4609 C4611 1.388 . S
C4610 C4609 1.366 . S
C4610 C4614 1.385 . S
C4611 H4586 0.951 . S
C4611 C4609 1.388 . S
C4611 C4612 1.366 . S
C4612 C4611 1.366 . S
C4612 C4613 1.414 . S
C4612 C4615 1.499 . S
C4613 H4587 0.950 . S
C4613 C4612 1.414 . S
C4613 C4614 1.374 . S
C4614 H4588 0.950 . S
C4614 C4610 1.385 . S
C4614 C4613 1.374 . S
C4615 C4612 1.499 . S
C4615 C4616 1.373 . S
C4615 C4617 1.389 . S
C4616 H4589 0.950 . S
C4616 C4602 1.377 . S
C4616 C4615 1.373 . S
C4617 C4601 1.377 . S
C4617 C4615 1.389 . S
C4617 C4618 1.524 . S
C4618 C4617 1.524 . S
C4618 C4619 1.397 . S
C4618 C4623 1.363 . S
C4619 H4590 0.950 . S
C4619 C4618 1.397 . S
C4619 C4620 1.334 . S
C4620 H4591 0.950 . S
C4620 C4619 1.334 . S
C4620 C4621 1.287 . S
C4621 C4620 1.287 . S
C4621 C4622 1.524 . S
C4621 H4624 0.999 . S
C4622 H4592 0.950 . S
C4622 C4621 1.524 . S
C4622 C4623 1.415 . S
C4623 H4593 0.950 . S
C4623 C4618 1.363 . S
C4623 C4622 1.415 . S
H4624 C4621 0.999 . S
H4625 C4606 0.913 . S
H4626 C4644 0.951 . S
H4627 C4646 0.951 . S
H4628 C4648 0.950 . S
H4629 C4649 0.950 . S
H4630 C4651 0.950 . S
H4631 C4654 0.950 . S
H4632 C4655 0.950 . S
H4633 C4657 0.950 . S
H4634 C4658 0.950 . S
H4635 C4659 0.951 . S
H4636 C4661 0.951 . S
H4637 C4663 0.950 . S
H4638 C4664 0.950 . S
H4639 C4666 0.950 . S
H4640 C4669 0.950 . S
H4641 C4670 0.950 . S
H4642 C4672 0.950 . S
H4643 C4673 0.950 . S
C4644 H4626 0.951 . S
C4644 C4645 1.366 . S
C4644 C4646 1.388 . S
C4645 C4644 1.366 . S
C4645 C4649 1.385 . S
C4646 H4627 0.951 . S
C4646 C4644 1.388 . S
C4646 C4647 1.366 . S
C4647 C4646 1.366 . S
C4647 C4648 1.414 . S
C4647 C4650 1.499 . S
C4648 H4628 0.950 . S
C4648 C4647 1.414 . S
C4648 C4649 1.374 . S
C4649 H4629 0.950 . S
C4649 C4645 1.385 . S
C4649 C4648 1.374 . S
C4650 C4647 1.499 . S
C4650 C4651 1.373 . S
C4650 C4652 1.389 . S
C4651 H4630 0.950 . S
C4651 C4650 1.373 . S
C4651 C4667 1.377 . S
C4652 C4650 1.389 . S
C4652 C4653 1.524 . S
C4652 C4666 1.377 . S
C4653 C4652 1.524 . S
C4653 C4654 1.397 . S
C4653 C4658 1.363 . S
C4654 H4631 0.950 . S
C4654 C4653 1.397 . S
C4654 C4655 1.334 . S
C4655 H4632 0.950 . S
C4655 C4654 1.334 . S
C4655 C4656 1.287 . S
C4656 C4655 1.287 . S
C4656 C4657 1.524 . S
C4656 H4675 0.913 . S
C4657 H4633 0.950 . S
C4657 C4656 1.524 . S
C4657 C4658 1.415 . S
C4658 H4634 0.950 . S
C4658 C4653 1.363 . S
C4658 C4657 1.415 . S
C4659 H4635 0.951 . S
C4659 C4660 1.366 . S
C4659 C4661 1.388 . S
C4660 C4659 1.366 . S
C4660 C4664 1.385 . S
C4661 H4636 0.951 . S
C4661 C4659 1.388 . S
C4661 C4662 1.366 . S
C4662 C4661 1.366 . S
C4662 C4663 1.414 . S
C4662 C4665 1.499 . S
C4663 H4637 0.950 . S
C4663 C4662 1.414 . S
C4663 C4664 1.374 . S
C4664 H4638 0.950 . S
C4664 C4660 1.385 . S
C4664 C4663 1.374 . S
C4665 C4662 1.499 . S
C4665 C4666 1.373 . S
C4665 C4667 1.389 . S
C4666 H4639 0.950 . S
C4666 C4652 1.377 . S
C4666 C4665 1.373 . S
C4667 C4651 1.377 . S
C4667 C4665 1.389 . S
C4667 C4668 1.524 . S
C4668 C4667 1.524 . S
C4668 C4669 1.397 . S
C4668 C4673 1.363 . S
C4669 H4640 0.950 . S
C4669 C4668 1.397 . S
C4669 C4670 1.334 . S
C4670 H4641 0.950 . S
C4670 C4669 1.334 . S
C4670 C4671 1.287 . S
C4671 C4670 1.287 . S
C4671 C4672 1.524 . S
C4671 H4674 0.999 . S
C4672 H4642 0.950 . S
C4672 C4671 1.524 . S
C4672 C4673 1.415 . S
C4673 H4643 0.950 . S
C4673 C4668 1.363 . S
C4673 C4672 1.415 . S
H4674 C4671 0.999 . S
H4675 C4656 0.913 . S
H4676 C4694 0.951 . S
H4677 C4696 0.951 . S
H4678 C4698 0.950 . S
H4679 C4699 0.950 . S
H4680 C4701 0.950 . S
H4681 C4704 0.950 . S
H4682 C4705 0.950 . S
H4683 C4707 0.950 . S
H4684 C4708 0.950 . S
H4685 C4709 0.951 . S
H4686 C4711 0.951 . S
H4687 C4713 0.950 . S
H4688 C4714 0.950 . S
H4689 C4716 0.950 . S
H4690 C4719 0.950 . S
H4691 C4720 0.950 . S
H4692 C4722 0.950 . S
H4693 C4723 0.950 . S
C4694 H4676 0.951 . S
C4694 C4695 1.366 . S
C4694 C4696 1.388 . S
C4695 C4694 1.366 . S
C4695 C4699 1.385 . S
C4696 H4677 0.951 . S
C4696 C4694 1.388 . S
C4696 C4697 1.366 . S
C4697 C4696 1.366 . S
C4697 C4698 1.414 . S
C4697 C4700 1.499 . S
C4698 H4678 0.950 . S
C4698 C4697 1.414 . S
C4698 C4699 1.374 . S
C4699 H4679 0.950 . S
C4699 C4695 1.385 . S
C4699 C4698 1.374 . S
C4700 C4697 1.499 . S
C4700 C4701 1.373 . S
C4700 C4702 1.389 . S
C4701 H4680 0.950 . S
C4701 C4700 1.373 . S
C4701 C4717 1.377 . S
C4702 C4700 1.389 . S
C4702 C4703 1.524 . S
C4702 C4716 1.377 . S
C4703 C4702 1.524 . S
C4703 C4704 1.397 . S
C4703 C4708 1.363 . S
C4704 H4681 0.950 . S
C4704 C4703 1.397 . S
C4704 C4705 1.334 . S
C4705 H4682 0.950 . S
C4705 C4704 1.334 . S
C4705 C4706 1.287 . S
C4706 C4705 1.287 . S
C4706 C4707 1.524 . S
C4706 H4725 0.913 . S
C4707 H4683 0.950 . S
C4707 C4706 1.524 . S
C4707 C4708 1.415 . S
C4708 H4684 0.950 . S
C4708 C4703 1.363 . S
C4708 C4707 1.415 . S
C4709 H4685 0.951 . S
C4709 C4710 1.366 . S
C4709 C4711 1.388 . S
C4710 C4709 1.366 . S
C4710 C4714 1.385 . S
C4711 H4686 0.951 . S
C4711 C4709 1.388 . S
C4711 C4712 1.366 . S
C4712 C4711 1.366 . S
C4712 C4713 1.414 . S
C4712 C4715 1.499 . S
C4713 H4687 0.950 . S
C4713 C4712 1.414 . S
C4713 C4714 1.374 . S
C4714 H4688 0.950 . S
C4714 C4710 1.385 . S
C4714 C4713 1.374 . S
C4715 C4712 1.499 . S
C4715 C4716 1.373 . S
C4715 C4717 1.389 . S
C4716 H4689 0.950 . S
C4716 C4702 1.377 . S
C4716 C4715 1.373 . S
C4717 C4701 1.377 . S
C4717 C4715 1.389 . S
C4717 C4718 1.524 . S
C4718 C4717 1.524 . S
C4718 C4719 1.397 . S
C4718 C4723 1.363 1_455 S
C4719 H4690 0.950 . S
C4719 C4718 1.397 . S
C4719 C4720 1.334 . S
C4720 H4691 0.950 . S
C4720 C4719 1.334 . S
C4720 C4721 1.287 1_455 S
C4721 C4720 1.287 1_655 S
C4721 C4722 1.524 . S
C4721 H4724 0.999 . S
C4722 H4692 0.950 . S
C4722 C4721 1.524 . S
C4722 C4723 1.415 . S
C4723 H4693 0.950 . S
C4723 C4718 1.363 1_655 S
C4723 C4722 1.415 . S
H4724 C4721 0.999 . S
H4725 C4706 0.913 . S
H4726 C4744 0.951 . S
H4727 C4746 0.951 . S
H4728 C4748 0.950 . S
H4729 C4749 0.950 . S
H4730 C4751 0.950 . S
H4731 C4754 0.950 . S
H4732 C4755 0.950 . S
H4733 C4757 0.950 . S
H4734 C4758 0.950 . S
H4735 C4759 0.951 . S
H4736 C4761 0.951 . S
H4737 C4763 0.950 . S
H4738 C4764 0.950 . S
H4739 C4766 0.950 . S
H4740 C4769 0.950 . S
H4741 C4770 0.950 . S
H4742 C4772 0.950 . S
H4743 C4773 0.950 . S
C4744 H4726 0.951 . S
C4744 C4745 1.366 . S
C4744 C4746 1.388 . S
C4745 C4744 1.366 . S
C4745 C4749 1.385 . S
C4746 H4727 0.951 . S
C4746 C4744 1.388 . S
C4746 C4747 1.366 . S
C4747 C4746 1.366 . S
C4747 C4748 1.414 . S
C4747 C4750 1.499 . S
C4748 H4728 0.950 . S
C4748 C4747 1.414 . S
C4748 C4749 1.374 . S
C4749 H4729 0.950 . S
C4749 C4745 1.385 . S
C4749 C4748 1.374 . S
C4750 C4747 1.499 . S
C4750 C4751 1.373 . S
C4750 C4752 1.389 . S
C4751 H4730 0.950 . S
C4751 C4750 1.373 . S
C4751 C4767 1.377 . S
C4752 C4750 1.389 . S
C4752 C4753 1.524 . S
C4752 C4766 1.377 . S
C4753 C4752 1.524 . S
C4753 C4754 1.397 . S
C4753 C4758 1.363 . S
C4754 H4731 0.950 . S
C4754 C4753 1.397 . S
C4754 C4755 1.334 . S
C4755 H4732 0.950 . S
C4755 C4754 1.334 . S
C4755 C4756 1.287 . S
C4756 C4755 1.287 . S
C4756 C4757 1.524 . S
C4756 H4775 0.913 . S
C4757 H4733 0.950 . S
C4757 C4756 1.524 . S
C4757 C4758 1.415 . S
C4758 H4734 0.950 . S
C4758 C4753 1.363 . S
C4758 C4757 1.415 . S
C4759 H4735 0.951 . S
C4759 C4760 1.366 . S
C4759 C4761 1.388 . S
C4760 C4759 1.366 . S
C4760 C4764 1.385 . S
C4761 H4736 0.951 . S
C4761 C4759 1.388 . S
C4761 C4762 1.366 . S
C4762 C4761 1.366 . S
C4762 C4763 1.414 . S
C4762 C4765 1.499 . S
C4763 H4737 0.950 . S
C4763 C4762 1.414 . S
C4763 C4764 1.374 . S
C4764 H4738 0.950 . S
C4764 C4760 1.385 . S
C4764 C4763 1.374 . S
C4765 C4762 1.499 . S
C4765 C4766 1.373 . S
C4765 C4767 1.389 . S
C4766 H4739 0.950 . S
C4766 C4752 1.377 . S
C4766 C4765 1.373 . S
C4767 C4751 1.377 . S
C4767 C4765 1.389 . S
C4767 C4768 1.524 . S
C4768 C4767 1.524 . S
C4768 C4769 1.397 . S
C4768 C4773 1.363 . S
C4769 H4740 0.950 . S
C4769 C4768 1.397 . S
C4769 C4770 1.334 . S
C4770 H4741 0.950 . S
C4770 C4769 1.334 . S
C4770 C4771 1.287 . S
C4771 C4770 1.287 . S
C4771 C4772 1.524 . S
C4771 H4774 0.999 . S
C4772 H4742 0.950 . S
C4772 C4771 1.524 . S
C4772 C4773 1.415 . S
C4773 H4743 0.950 . S
C4773 C4768 1.363 . S
C4773 C4772 1.415 . S
H4774 C4771 0.999 . S
H4775 C4756 0.913 . S
H4776 C4794 0.951 . S
H4777 C4796 0.951 . S
H4778 C4798 0.950 . S
H4779 C4799 0.950 . S
H4780 C4801 0.950 . S
H4781 C4804 0.950 . S
H4782 C4805 0.950 . S
H4783 C4807 0.950 . S
H4784 C4808 0.950 . S
H4785 C4809 0.951 . S
H4786 C4811 0.951 . S
H4787 C4813 0.950 . S
H4788 C4814 0.950 . S
H4789 C4816 0.950 . S
H4790 C4819 0.950 . S
H4791 C4820 0.950 . S
H4792 C4822 0.950 1_554 S
H4793 C4823 0.950 . S
C4794 H4776 0.951 . S
C4794 C4795 1.366 . S
C4794 C4796 1.388 . S
C4795 C4794 1.366 . S
C4795 C4799 1.385 . S
C4796 H4777 0.951 . S
C4796 C4794 1.388 . S
C4796 C4797 1.366 . S
C4797 C4796 1.366 . S
C4797 C4798 1.414 . S
C4797 C4800 1.499 . S
C4798 H4778 0.950 . S
C4798 C4797 1.414 . S
C4798 C4799 1.374 . S
C4799 H4779 0.950 . S
C4799 C4795 1.385 . S
C4799 C4798 1.374 . S
C4800 C4797 1.499 . S
C4800 C4801 1.373 . S
C4800 C4802 1.389 . S
C4801 H4780 0.950 . S
C4801 C4800 1.373 . S
C4801 C4817 1.377 . S
C4802 C4800 1.389 . S
C4802 C4803 1.524 . S
C4802 C4816 1.377 . S
C4803 C4802 1.524 . S
C4803 C4804 1.397 . S
C4803 C4808 1.363 . S
C4804 H4781 0.950 . S
C4804 C4803 1.397 . S
C4804 C4805 1.334 . S
C4805 H4782 0.950 . S
C4805 C4804 1.334 . S
C4805 C4806 1.287 . S
C4806 C4805 1.287 . S
C4806 C4807 1.524 . S
C4806 H4825 0.913 . S
C4807 H4783 0.950 . S
C4807 C4806 1.524 . S
C4807 C4808 1.415 . S
C4808 H4784 0.950 . S
C4808 C4803 1.363 . S
C4808 C4807 1.415 . S
C4809 H4785 0.951 . S
C4809 C4810 1.366 . S
C4809 C4811 1.388 . S
C4810 C4809 1.366 . S
C4810 C4814 1.385 . S
C4811 H4786 0.951 . S
C4811 C4809 1.388 . S
C4811 C4812 1.366 . S
C4812 C4811 1.366 . S
C4812 C4813 1.414 . S
C4812 C4815 1.499 . S
C4813 H4787 0.950 . S
C4813 C4812 1.414 . S
C4813 C4814 1.374 . S
C4814 H4788 0.950 . S
C4814 C4810 1.385 . S
C4814 C4813 1.374 . S
C4815 C4812 1.499 . S
C4815 C4816 1.373 . S
C4815 C4817 1.389 . S
C4816 H4789 0.950 . S
C4816 C4802 1.377 . S
C4816 C4815 1.373 . S
C4817 C4801 1.377 . S
C4817 C4815 1.389 . S
C4817 C4818 1.524 . S
C4818 C4817 1.524 . S
C4818 C4819 1.397 . S
C4818 C4823 1.363 . S
C4819 H4790 0.950 . S
C4819 C4818 1.397 . S
C4819 C4820 1.334 . S
C4820 H4791 0.950 . S
C4820 C4819 1.334 . S
C4820 C4821 1.287 . S
C4821 C4820 1.287 . S
C4821 C4822 1.524 . S
C4821 H4824 0.999 1_556 S
C4822 H4792 0.950 1_556 S
C4822 C4821 1.524 . S
C4822 C4823 1.415 . S
C4823 H4793 0.950 . S
C4823 C4818 1.363 . S
C4823 C4822 1.415 . S
H4824 C4821 0.999 1_554 S
H4825 C4806 0.913 . S
H4826 C4844 0.951 . S
H4827 C4846 0.951 . S
H4828 C4848 0.950 . S
H4829 C4849 0.950 . S
H4830 C4851 0.950 . S
H4831 C4854 0.950 . S
H4832 C4855 0.950 . S
H4833 C4857 0.950 . S
H4834 C4858 0.950 . S
H4835 C4859 0.951 . S
H4836 C4861 0.951 . S
H4837 C4863 0.950 . S
H4838 C4864 0.950 . S
H4839 C4866 0.950 . S
H4840 C4869 0.950 . S
H4841 C4870 0.950 . S
H4842 C4872 0.950 . S
H4843 C4873 0.950 . S
C4844 H4826 0.951 . S
C4844 C4845 1.366 . S
C4844 C4846 1.388 . S
C4845 C4844 1.366 . S
C4845 C4849 1.385 . S
C4846 H4827 0.951 . S
C4846 C4844 1.388 . S
C4846 C4847 1.366 . S
C4847 C4846 1.366 . S
C4847 C4848 1.414 . S
C4847 C4850 1.499 . S
C4848 H4828 0.950 . S
C4848 C4847 1.414 . S
C4848 C4849 1.374 . S
C4849 H4829 0.950 . S
C4849 C4845 1.385 . S
C4849 C4848 1.374 . S
C4850 C4847 1.499 . S
C4850 C4851 1.373 . S
C4850 C4852 1.389 . S
C4851 H4830 0.950 . S
C4851 C4850 1.373 . S
C4851 C4867 1.377 . S
C4852 C4850 1.389 . S
C4852 C4853 1.524 . S
C4852 C4866 1.377 . S
C4853 C4852 1.524 . S
C4853 C4854 1.397 . S
C4853 C4858 1.363 . S
C4854 H4831 0.950 . S
C4854 C4853 1.397 . S
C4854 C4855 1.334 . S
C4855 H4832 0.950 . S
C4855 C4854 1.334 . S
C4855 C4856 1.287 . S
C4856 C4855 1.287 . S
C4856 C4857 1.524 . S
C4856 H4875 0.913 . S
C4857 H4833 0.950 . S
C4857 C4856 1.524 . S
C4857 C4858 1.415 . S
C4858 H4834 0.950 . S
C4858 C4853 1.363 . S
C4858 C4857 1.415 . S
C4859 H4835 0.951 . S
C4859 C4860 1.366 . S
C4859 C4861 1.388 . S
C4860 C4859 1.366 . S
C4860 C4864 1.385 . S
C4861 H4836 0.951 . S
C4861 C4859 1.388 . S
C4861 C4862 1.366 . S
C4862 C4861 1.366 . S
C4862 C4863 1.414 . S
C4862 C4865 1.499 . S
C4863 H4837 0.950 . S
C4863 C4862 1.414 . S
C4863 C4864 1.374 . S
C4864 H4838 0.950 . S
C4864 C4860 1.385 . S
C4864 C4863 1.374 . S
C4865 C4862 1.499 . S
C4865 C4866 1.373 . S
C4865 C4867 1.389 . S
C4866 H4839 0.950 . S
C4866 C4852 1.377 . S
C4866 C4865 1.373 . S
C4867 C4851 1.377 . S
C4867 C4865 1.389 . S
C4867 C4868 1.524 . S
C4868 C4867 1.524 . S
C4868 C4869 1.397 . S
C4868 C4873 1.363 . S
C4869 H4840 0.950 . S
C4869 C4868 1.397 . S
C4869 C4870 1.334 . S
C4870 H4841 0.950 . S
C4870 C4869 1.334 . S
C4870 C4871 1.287 . S
C4871 C4870 1.287 . S
C4871 C4872 1.524 . S
C4871 H4874 0.999 . S
C4872 H4842 0.950 . S
C4872 C4871 1.524 . S
C4872 C4873 1.415 . S
C4873 H4843 0.950 . S
C4873 C4868 1.363 . S
C4873 C4872 1.415 . S
H4874 C4871 0.999 . S
H4875 C4856 0.913 . S
H4876 C4894 0.951 . S
H4877 C4896 0.951 . S
H4878 C4898 0.950 . S
H4879 C4899 0.950 . S
H4880 C4901 0.950 . S
H4881 C4904 0.950 . S
H4882 C4905 0.950 . S
H4883 C4907 0.913 1_655 S
H4884 C4908 0.950 . S
H4885 C4909 0.951 . S
H4886 C4911 0.951 . S
H4887 C4913 0.950 . S
H4888 C4914 0.950 . S
H4889 C4916 0.950 . S
H4890 C4919 0.950 . S
H4891 C4920 0.950 . S
H4892 C4922 0.950 . S
H4893 C4923 0.950 . S
C4894 H4876 0.951 . S
C4894 C4895 1.366 . S
C4894 C4896 1.388 . S
C4895 C4894 1.366 . S
C4895 C4899 1.385 . S
C4896 H4877 0.951 . S
C4896 C4894 1.388 . S
C4896 C4897 1.366 . S
C4897 C4896 1.366 . S
C4897 C4898 1.414 . S
C4897 C4900 1.499 . S
C4898 H4878 0.950 . S
C4898 C4897 1.414 . S
C4898 C4899 1.374 . S
C4899 H4879 0.950 . S
C4899 C4895 1.385 . S
C4899 C4898 1.374 . S
C4900 C4897 1.499 . S
C4900 C4901 1.373 . S
C4900 C4902 1.389 . S
C4901 H4880 0.950 . S
C4901 C4900 1.373 . S
C4901 C4917 1.377 . S
C4902 C4900 1.389 . S
C4902 C4903 1.524 . S
C4902 C4916 1.377 . S
C4903 C4902 1.524 . S
C4903 C4904 1.397 . S
C4903 C4908 1.363 . S
C4904 H4881 0.950 . S
C4904 C4903 1.397 . S
C4904 C4905 1.334 . S
C4905 H4882 0.950 . S
C4905 C4904 1.334 . S
C4905 C4906 1.287 . S
C4906 C4905 1.287 . S
C4906 C4907 1.524 . S
C4906 H4925 0.913 . S
C4907 H4883 0.913 1_455 S
C4907 C4906 1.524 . S
C4907 C4908 1.415 . S
C4908 H4884 0.950 . S
C4908 C4903 1.363 . S
C4908 C4907 1.415 . S
C4909 H4885 0.951 . S
C4909 C4910 1.366 . S
C4909 C4911 1.388 . S
C4910 C4909 1.366 . S
C4910 C4914 1.385 . S
C4911 H4886 0.951 . S
C4911 C4909 1.388 . S
C4911 C4912 1.366 . S
C4912 C4911 1.366 . S
C4912 C4913 1.414 . S
C4912 C4915 1.499 . S
C4913 H4887 0.950 . S
C4913 C4912 1.414 . S
C4913 C4914 1.374 . S
C4914 H4888 0.950 . S
C4914 C4910 1.385 . S
C4914 C4913 1.374 . S
C4915 C4912 1.499 . S
C4915 C4916 1.373 . S
C4915 C4917 1.389 . S
C4916 H4889 0.950 . S
C4916 C4902 1.377 . S
C4916 C4915 1.373 . S
C4917 C4901 1.377 . S
C4917 C4915 1.389 . S
C4917 C4918 1.524 . S
C4918 C4917 1.524 . S
C4918 C4919 1.397 . S
C4918 C4923 1.363 . S
C4919 H4890 0.950 . S
C4919 C4918 1.397 . S
C4919 C4920 1.334 . S
C4920 H4891 0.950 . S
C4920 C4919 1.334 . S
C4920 C4921 1.287 . S
C4921 C4920 1.287 . S
C4921 C4922 1.524 . S
C4921 H4924 0.999 . S
C4922 H4892 0.950 . S
C4922 C4921 1.524 . S
C4922 C4923 1.415 . S
C4923 H4893 0.950 . S
C4923 C4918 1.363 . S
C4923 C4922 1.415 . S
H4924 C4921 0.999 . S
H4925 C4906 0.913 . S
H4926 C4944 0.951 . S
H4927 C4946 0.951 . S
H4928 C4948 0.950 . S
H4929 C4949 0.950 . S
H4930 C4951 0.950 . S
H4931 C4954 0.950 . S
H4932 C4955 0.950 . S
H4933 C4957 0.950 . S
H4934 C4958 0.950 . S
H4935 C4959 0.951 . S
H4936 C4961 0.951 . S
H4937 C4963 0.950 . S
H4938 C4964 0.950 . S
H4939 C4966 0.950 . S
H4940 C4969 0.950 . S
H4941 C4970 0.950 . S
H4942 C4972 0.950 . S
H4943 C4973 0.950 . S
C4944 H4926 0.951 . S
C4944 C4945 1.366 . S
C4944 C4946 1.388 . S
C4945 C4944 1.366 . S
C4945 C4949 1.385 . S
C4946 H4927 0.951 . S
C4946 C4944 1.388 . S
C4946 C4947 1.366 . S
C4947 C4946 1.366 . S
C4947 C4948 1.414 . S
C4947 C4950 1.499 . S
C4948 H4928 0.950 . S
C4948 C4947 1.414 . S
C4948 C4949 1.374 . S
C4949 H4929 0.950 . S
C4949 C4945 1.385 . S
C4949 C4948 1.374 . S
C4950 C4947 1.499 . S
C4950 C4951 1.373 . S
C4950 C4952 1.389 . S
C4951 H4930 0.950 . S
C4951 C4950 1.373 . S
C4951 C4967 1.377 . S
C4952 C4950 1.389 . S
C4952 C4953 1.524 . S
C4952 C4966 1.377 . S
C4953 C4952 1.524 . S
C4953 C4954 1.397 . S
C4953 C4958 1.363 . S
C4954 H4931 0.950 . S
C4954 C4953 1.397 . S
C4954 C4955 1.334 . S
C4955 H4932 0.950 . S
C4955 C4954 1.334 . S
C4955 C4956 1.287 . S
C4956 C4955 1.287 . S
C4956 C4957 1.524 . S
C4956 H4975 0.913 . S
C4957 H4933 0.950 . S
C4957 C4956 1.524 . S
C4957 C4958 1.415 . S
C4958 H4934 0.950 . S
C4958 C4953 1.363 . S
C4958 C4957 1.415 . S
C4959 H4935 0.951 . S
C4959 C4960 1.366 . S
C4959 C4961 1.388 . S
C4960 C4959 1.366 . S
C4960 C4964 1.385 . S
C4961 H4936 0.951 . S
C4961 C4959 1.388 . S
C4961 C4962 1.366 . S
C4962 C4961 1.366 . S
C4962 C4963 1.414 . S
C4962 C4965 1.499 . S
C4963 H4937 0.950 . S
C4963 C4962 1.414 . S
C4963 C4964 1.374 . S
C4964 H4938 0.950 . S
C4964 C4960 1.385 . S
C4964 C4963 1.374 . S
C4965 C4962 1.499 . S
C4965 C4966 1.373 . S
C4965 C4967 1.389 . S
C4966 H4939 0.950 . S
C4966 C4952 1.377 . S
C4966 C4965 1.373 . S
C4967 C4951 1.377 . S
C4967 C4965 1.389 . S
C4967 C4968 1.524 . S
C4968 C4967 1.524 . S
C4968 C4969 1.397 . S
C4968 C4973 1.363 . S
C4969 H4940 0.950 . S
C4969 C4968 1.397 . S
C4969 C4970 1.334 . S
C4970 H4941 0.950 . S
C4970 C4969 1.334 . S
C4970 C4971 1.287 . S
C4971 C4970 1.287 . S
C4971 C4972 1.524 . S
C4971 H4974 0.999 . S
C4972 H4942 0.950 . S
C4972 C4971 1.524 . S
C4972 C4973 1.415 . S
C4973 H4943 0.950 . S
C4973 C4968 1.363 . S
C4973 C4972 1.415 . S
H4974 C4971 0.999 . S
H4975 C4956 0.913 . S
H4976 C4994 0.951 . S
H4977 C4996 0.951 . S
H4978 C4998 0.950 . S
H4979 C4999 0.950 . S
H4980 C5001 0.950 . S
H4981 C5004 0.950 . S
H4982 C5005 0.950 . S
H4983 C5007 0.950 . S
H4984 C5008 0.950 . S
H4985 C5009 0.951 . S
H4986 C5011 0.951 . S
H4987 C5013 0.950 . S
H4988 C5014 0.950 . S
H4989 C5016 0.950 . S
H4990 C5019 0.950 . S
H4991 C5020 0.950 . S
H4992 C5022 0.950 . S
H4993 C5023 0.950 . S
C4994 H4976 0.951 . S
C4994 C4995 1.366 . S
C4994 C4996 1.388 . S
C4995 C4994 1.366 . S
C4995 C4999 1.385 . S
C4996 H4977 0.951 . S
C4996 C4994 1.388 . S
C4996 C4997 1.366 . S
C4997 C4996 1.366 . S
C4997 C4998 1.414 . S
C4997 C5000 1.499 . S
C4998 H4978 0.950 . S
C4998 C4997 1.414 . S
C4998 C4999 1.374 . S
C4999 H4979 0.950 . S
C4999 C4995 1.385 . S
C4999 C4998 1.374 . S
C5000 C4997 1.499 . S
C5000 C5001 1.373 . S
C5000 C5002 1.389 . S
C5001 H4980 0.950 . S
C5001 C5000 1.373 . S
C5001 C5017 1.377 . S
C5002 C5000 1.389 . S
C5002 C5003 1.524 . S
C5002 C5016 1.377 . S
C5003 C5002 1.524 . S
C5003 C5004 1.397 . S
C5003 C5008 1.363 . S
C5004 H4981 0.950 . S
C5004 C5003 1.397 . S
C5004 C5005 1.334 . S
C5005 H4982 0.950 . S
C5005 C5004 1.334 . S
C5005 C5006 1.287 . S
C5006 C5005 1.287 . S
C5006 C5007 1.524 . S
C5006 H5025 0.913 . S
C5007 H4983 0.950 . S
C5007 C5006 1.524 . S
C5007 C5008 1.415 . S
C5008 H4984 0.950 . S
C5008 C5003 1.363 . S
C5008 C5007 1.415 . S
C5009 H4985 0.951 . S
C5009 C5010 1.366 . S
C5009 C5011 1.388 . S
C5010 C5009 1.366 . S
C5010 C5014 1.385 . S
C5011 H4986 0.951 . S
C5011 C5009 1.388 . S
C5011 C5012 1.366 . S
C5012 C5011 1.366 . S
C5012 C5013 1.414 . S
C5012 C5015 1.499 . S
C5013 H4987 0.950 . S
C5013 C5012 1.414 . S
C5013 C5014 1.374 . S
C5014 H4988 0.950 . S
C5014 C5010 1.385 . S
C5014 C5013 1.374 . S
C5015 C5012 1.499 . S
C5015 C5016 1.373 . S
C5015 C5017 1.389 . S
C5016 H4989 0.950 . S
C5016 C5002 1.377 . S
C5016 C5015 1.373 . S
C5017 C5001 1.377 . S
C5017 C5015 1.389 . S
C5017 C5018 1.524 . S
C5018 C5017 1.524 . S
C5018 C5019 1.397 . S
C5018 C5023 1.363 . S
C5019 H4990 0.950 . S
C5019 C5018 1.397 . S
C5019 C5020 1.334 . S
C5020 H4991 0.950 . S
C5020 C5019 1.334 . S
C5020 C5021 1.287 . S
C5021 C5020 1.287 . S
C5021 C5022 1.524 . S
C5021 H5024 0.999 . S
C5022 H4992 0.950 . S
C5022 C5021 1.524 . S
C5022 C5023 1.415 . S
C5023 H4993 0.950 . S
C5023 C5018 1.363 . S
C5023 C5022 1.415 . S
H5024 C5021 0.999 . S
H5025 C5006 0.913 . S
H5026 C5044 0.951 . S
H5027 C5046 0.951 . S
H5028 C5048 0.950 . S
H5029 C5049 0.950 . S
H5030 C5051 0.950 . S
H5031 C5054 0.950 . S
H5032 C5055 0.950 . S
H5033 C5057 0.950 . S
H5034 C5058 0.950 . S
H5035 C5059 0.951 . S
H5036 C5061 0.951 . S
H5037 C5063 0.950 . S
H5038 C5064 0.950 . S
H5039 C5066 0.950 . S
H5040 C5069 0.950 . S
H5041 C5070 0.950 . S
H5042 C5072 0.950 . S
H5043 C5073 0.950 . S
C5044 H5026 0.951 . S
C5044 C5045 1.366 . S
C5044 C5046 1.388 . S
C5045 C5044 1.366 . S
C5045 C5049 1.385 . S
C5046 H5027 0.951 . S
C5046 C5044 1.388 . S
C5046 C5047 1.366 . S
C5047 C5046 1.366 . S
C5047 C5048 1.414 . S
C5047 C5050 1.499 . S
C5048 H5028 0.950 . S
C5048 C5047 1.414 . S
C5048 C5049 1.374 . S
C5049 H5029 0.950 . S
C5049 C5045 1.385 . S
C5049 C5048 1.374 . S
C5050 C5047 1.499 . S
C5050 C5051 1.373 . S
C5050 C5052 1.389 . S
C5051 H5030 0.950 . S
C5051 C5050 1.373 . S
C5051 C5067 1.377 . S
C5052 C5050 1.389 . S
C5052 C5053 1.524 . S
C5052 C5066 1.377 . S
C5053 C5052 1.524 . S
C5053 C5054 1.397 . S
C5053 C5058 1.363 . S
C5054 H5031 0.950 . S
C5054 C5053 1.397 . S
C5054 C5055 1.334 . S
C5055 H5032 0.950 . S
C5055 C5054 1.334 . S
C5055 C5056 1.287 . S
C5056 C5055 1.287 . S
C5056 C5057 1.524 . S
C5056 H5075 0.913 . S
C5057 H5033 0.950 . S
C5057 C5056 1.524 . S
C5057 C5058 1.415 . S
C5058 H5034 0.950 . S
C5058 C5053 1.363 . S
C5058 C5057 1.415 . S
C5059 H5035 0.951 . S
C5059 C5060 1.366 . S
C5059 C5061 1.388 . S
C5060 C5059 1.366 . S
C5060 C5064 1.385 . S
C5061 H5036 0.951 . S
C5061 C5059 1.388 . S
C5061 C5062 1.366 . S
C5062 C5061 1.366 . S
C5062 C5063 1.414 . S
C5062 C5065 1.499 . S
C5063 H5037 0.950 . S
C5063 C5062 1.414 . S
C5063 C5064 1.374 . S
C5064 H5038 0.950 . S
C5064 C5060 1.385 . S
C5064 C5063 1.374 . S
C5065 C5062 1.499 . S
C5065 C5066 1.373 . S
C5065 C5067 1.389 . S
C5066 H5039 0.950 . S
C5066 C5052 1.377 . S
C5066 C5065 1.373 . S
C5067 C5051 1.377 . S
C5067 C5065 1.389 . S
C5067 C5068 1.524 . S
C5068 C5067 1.524 . S
C5068 C5069 1.397 . S
C5068 C5073 1.363 . S
C5069 H5040 0.950 . S
C5069 C5068 1.397 . S
C5069 C5070 1.334 . S
C5070 H5041 0.950 . S
C5070 C5069 1.334 . S
C5070 C5071 1.287 . S
C5071 C5070 1.287 . S
C5071 C5072 1.524 . S
C5071 H5074 0.999 . S
C5072 H5042 0.950 . S
C5072 C5071 1.524 . S
C5072 C5073 1.415 . S
C5073 H5043 0.950 . S
C5073 C5068 1.363 . S
C5073 C5072 1.415 . S
H5074 C5071 0.999 . S
H5075 C5056 0.913 . S
H5076 C5094 0.951 . S
H5077 C5096 0.951 . S
H5078 C5098 0.950 . S
H5079 C5099 0.950 . S
H5080 C5101 0.950 . S
H5081 C5104 0.950 . S
H5082 C5105 0.950 . S
H5083 C5107 0.950 . S
H5084 C5108 0.950 . S
H5085 C5109 0.951 . S
H5086 C5111 0.951 . S
H5087 C5113 0.950 . S
H5088 C5114 0.950 . S
H5089 C5116 0.950 . S
H5090 C5119 0.949 . S
H5091 C5120 0.950 . S
H5092 C5122 0.950 . S
H5093 C5123 0.950 1_655 S
C5094 H5076 0.951 . S
C5094 C5095 1.366 . S
C5094 C5096 1.388 . S
C5095 C5094 1.366 . S
C5095 C5099 1.385 . S
C5096 H5077 0.951 . S
C5096 C5094 1.388 . S
C5096 C5097 1.366 . S
C5097 C5096 1.366 . S
C5097 C5098 1.414 . S
C5097 C5100 1.499 . S
C5098 H5078 0.950 . S
C5098 C5097 1.414 . S
C5098 C5099 1.374 . S
C5099 H5079 0.950 . S
C5099 C5095 1.385 . S
C5099 C5098 1.374 . S
C5100 C5097 1.499 . S
C5100 C5101 1.373 . S
C5100 C5102 1.389 . S
C5101 H5080 0.950 . S
C5101 C5100 1.373 . S
C5101 C5117 1.377 . S
C5102 C5100 1.389 . S
C5102 C5103 1.524 . S
C5102 C5116 1.377 . S
C5103 C5102 1.524 . S
C5103 C5104 1.397 . S
C5103 C5108 1.363 . S
C5104 H5081 0.950 . S
C5104 C5103 1.397 . S
C5104 C5105 1.334 . S
C5105 H5082 0.950 . S
C5105 C5104 1.334 . S
C5105 C5106 1.287 . S
C5106 C5105 1.287 . S
C5106 C5107 1.524 . S
C5106 H5125 0.913 . S
C5107 H5083 0.950 . S
C5107 C5106 1.524 . S
C5107 C5108 1.415 . S
C5108 H5084 0.950 . S
C5108 C5103 1.363 . S
C5108 C5107 1.415 . S
C5109 H5085 0.951 . S
C5109 C5110 1.364 . S
C5109 C5111 1.388 1_455 S
C5110 C5109 1.364 . S
C5110 C5114 1.370 1_455 S
C5111 H5086 0.951 . S
C5111 C5109 1.388 1_655 S
C5111 C5112 1.366 . S
C5112 C5111 1.366 . S
C5112 C5113 1.414 . S
C5112 C5115 1.499 . S
C5113 H5087 0.950 . S
C5113 C5112 1.414 . S
C5113 C5114 1.374 . S
C5114 H5088 0.950 . S
C5114 C5110 1.370 1_655 S
C5114 C5113 1.374 . S
C5115 C5112 1.499 . S
C5115 C5116 1.373 . S
C5115 C5117 1.389 . S
C5116 H5089 0.950 . S
C5116 C5102 1.377 . S
C5116 C5115 1.373 . S
C5117 C5101 1.377 . S
C5117 C5115 1.389 . S
C5117 C5118 1.524 . S
C5118 C5117 1.524 . S
C5118 C5119 1.397 1_655 S
C5118 C5123 1.363 1_655 S
C5119 H5090 0.949 . S
C5119 C5118 1.397 1_455 S
C5119 C5120 1.334 . S
C5120 H5091 0.950 . S
C5120 C5119 1.334 . S
C5120 C5121 1.287 . S
C5121 C5120 1.287 . S
C5121 C5122 1.524 . S
C5121 H5124 0.999 . S
C5122 H5092 0.950 . S
C5122 C5121 1.524 . S
C5122 C5123 1.415 . S
C5123 H5093 0.950 1_455 S
C5123 C5118 1.363 1_455 S
C5123 C5122 1.415 . S
H5124 C5121 0.999 . S
H5125 C5106 0.913 . S
H5126 C5144 0.951 . S
H5127 C5146 0.951 . S
H5128 C5148 0.950 . S
H5129 C5149 0.950 . S
H5130 C5151 0.950 . S
H5131 C5154 0.950 . S
H5132 C5155 0.950 . S
H5133 C5157 0.950 . S
H5134 C5158 0.950 . S
H5135 C5159 0.951 . S
H5136 C5161 0.951 . S
H5137 C5163 0.950 . S
H5138 C5164 0.950 . S
H5139 C5166 0.950 . S
H5140 C5169 0.950 . S
H5141 C5170 0.950 . S
H5142 C5172 0.950 . S
H5143 C5173 0.950 . S
C5144 H5126 0.951 . S
C5144 C5145 1.366 . S
C5144 C5146 1.388 . S
C5145 C5144 1.366 . S
C5145 C5149 1.385 . S
C5146 H5127 0.951 . S
C5146 C5144 1.388 . S
C5146 C5147 1.366 . S
C5147 C5146 1.366 . S
C5147 C5148 1.414 . S
C5147 C5150 1.499 . S
C5148 H5128 0.950 . S
C5148 C5147 1.414 . S
C5148 C5149 1.374 . S
C5149 H5129 0.950 . S
C5149 C5145 1.385 . S
C5149 C5148 1.374 . S
C5150 C5147 1.499 . S
C5150 C5151 1.373 . S
C5150 C5152 1.389 . S
C5151 H5130 0.950 . S
C5151 C5150 1.373 . S
C5151 C5167 1.377 . S
C5152 C5150 1.389 . S
C5152 C5153 1.524 . S
C5152 C5166 1.377 . S
C5153 C5152 1.524 . S
C5153 C5154 1.397 . S
C5153 C5158 1.363 . S
C5154 H5131 0.950 . S
C5154 C5153 1.397 . S
C5154 C5155 1.334 . S
C5155 H5132 0.950 . S
C5155 C5154 1.334 . S
C5155 C5156 1.287 . S
C5156 C5155 1.287 . S
C5156 C5157 1.524 . S
C5156 H5175 0.913 . S
C5157 H5133 0.950 . S
C5157 C5156 1.524 . S
C5157 C5158 1.415 . S
C5158 H5134 0.950 . S
C5158 C5153 1.363 . S
C5158 C5157 1.415 . S
C5159 H5135 0.951 . S
C5159 C5160 1.366 . S
C5159 C5161 1.388 . S
C5160 C5159 1.366 . S
C5160 C5164 1.385 . S
C5161 H5136 0.951 . S
C5161 C5159 1.388 . S
C5161 C5162 1.366 . S
C5162 C5161 1.366 . S
C5162 C5163 1.414 . S
C5162 C5165 1.499 . S
C5163 H5137 0.950 . S
C5163 C5162 1.414 . S
C5163 C5164 1.374 . S
C5164 H5138 0.950 . S
C5164 C5160 1.385 . S
C5164 C5163 1.374 . S
C5165 C5162 1.499 . S
C5165 C5166 1.373 . S
C5165 C5167 1.389 . S
C5166 H5139 0.950 . S
C5166 C5152 1.377 . S
C5166 C5165 1.373 . S
C5167 C5151 1.377 . S
C5167 C5165 1.389 . S
C5167 C5168 1.524 . S
C5168 C5167 1.524 . S
C5168 C5169 1.397 . S
C5168 C5173 1.363 . S
C5169 H5140 0.950 . S
C5169 C5168 1.397 . S
C5169 C5170 1.334 . S
C5170 H5141 0.950 . S
C5170 C5169 1.334 . S
C5170 C5171 1.287 . S
C5171 C5170 1.287 . S
C5171 C5172 1.524 . S
C5171 H5174 0.999 . S
C5172 H5142 0.950 . S
C5172 C5171 1.524 . S
C5172 C5173 1.415 . S
C5173 H5143 0.950 . S
C5173 C5168 1.363 . S
C5173 C5172 1.415 . S
H5174 C5171 0.999 . S
H5175 C5156 0.913 . S
H5176 C5194 0.951 . S
H5177 C5196 0.951 . S
H5178 C5198 0.950 . S
H5179 C5199 0.950 . S
H5180 C5201 0.950 . S
H5181 C5204 0.950 . S
H5182 C5205 0.950 . S
H5183 C5207 0.950 . S
H5184 C5208 0.950 . S
H5185 C5209 0.951 . S
H5186 C5211 0.951 . S
H5187 C5213 0.950 . S
H5188 C5214 0.950 . S
H5189 C5216 0.950 . S
H5190 C5219 0.950 . S
H5191 C5220 0.950 . S
H5192 C5222 0.950 . S
H5193 C5223 0.950 . S
C5194 H5176 0.951 . S
C5194 C5195 1.366 . S
C5194 C5196 1.388 . S
C5195 C5194 1.366 . S
C5195 C5199 1.385 . S
C5196 H5177 0.951 . S
C5196 C5194 1.388 . S
C5196 C5197 1.366 . S
C5197 C5196 1.366 . S
C5197 C5198 1.414 . S
C5197 C5200 1.499 . S
C5198 H5178 0.950 . S
C5198 C5197 1.414 . S
C5198 C5199 1.374 . S
C5199 H5179 0.950 . S
C5199 C5195 1.385 . S
C5199 C5198 1.374 . S
C5200 C5197 1.499 . S
C5200 C5201 1.373 . S
C5200 C5202 1.389 . S
C5201 H5180 0.950 . S
C5201 C5200 1.373 . S
C5201 C5217 1.377 . S
C5202 C5200 1.389 . S
C5202 C5203 1.524 . S
C5202 C5216 1.377 . S
C5203 C5202 1.524 . S
C5203 C5204 1.397 . S
C5203 C5208 1.363 . S
C5204 H5181 0.950 . S
C5204 C5203 1.397 . S
C5204 C5205 1.334 . S
C5205 H5182 0.950 . S
C5205 C5204 1.334 . S
C5205 C5206 1.287 . S
C5206 C5205 1.287 . S
C5206 C5207 1.524 . S
C5206 H5225 0.913 . S
C5207 H5183 0.950 . S
C5207 C5206 1.524 . S
C5207 C5208 1.415 . S
C5208 H5184 0.950 . S
C5208 C5203 1.363 . S
C5208 C5207 1.415 . S
C5209 H5185 0.951 . S
C5209 C5210 1.366 . S
C5209 C5211 1.388 . S
C5210 C5209 1.366 . S
C5210 C5214 1.385 . S
C5211 H5186 0.951 . S
C5211 C5209 1.388 . S
C5211 C5212 1.366 . S
C5212 C5211 1.366 . S
C5212 C5213 1.414 . S
C5212 C5215 1.499 . S
C5213 H5187 0.950 . S
C5213 C5212 1.414 . S
C5213 C5214 1.374 . S
C5214 H5188 0.950 . S
C5214 C5210 1.385 . S
C5214 C5213 1.374 . S
C5215 C5212 1.499 . S
C5215 C5216 1.373 . S
C5215 C5217 1.389 . S
C5216 H5189 0.950 . S
C5216 C5202 1.377 . S
C5216 C5215 1.373 . S
C5217 C5201 1.377 . S
C5217 C5215 1.389 . S
C5217 C5218 1.524 . S
C5218 C5217 1.524 . S
C5218 C5219 1.397 . S
C5218 C5223 1.363 . S
C5219 H5190 0.950 . S
C5219 C5218 1.397 . S
C5219 C5220 1.334 . S
C5220 H5191 0.950 . S
C5220 C5219 1.334 . S
C5220 C5221 1.287 . S
C5221 C5220 1.287 . S
C5221 C5222 1.524 . S
C5221 H5224 0.999 . S
C5222 H5192 0.950 . S
C5222 C5221 1.524 . S
C5222 C5223 1.415 . S
C5223 H5193 0.950 . S
C5223 C5218 1.363 . S
C5223 C5222 1.415 . S
H5224 C5221 0.999 . S
H5225 C5206 0.913 . S
H5226 C5244 0.951 . S
H5227 C5246 0.951 . S
H5228 C5248 0.950 . S
H5229 C5249 0.950 . S
H5230 C5251 0.950 . S
H5231 C5254 0.950 . S
H5232 C5255 0.950 . S
H5233 C5257 0.950 . S
H5234 C5258 0.950 . S
H5235 C5259 0.951 . S
H5236 C5261 0.951 . S
H5237 C5263 0.950 . S
H5238 C5264 0.950 . S
H5239 C5266 0.950 . S
H5240 C5269 0.950 . S
H5241 C5270 0.950 . S
H5242 C5272 0.950 . S
H5243 C5273 0.950 . S
C5244 H5226 0.951 . S
C5244 C5245 1.366 . S
C5244 C5246 1.388 . S
C5245 C5244 1.366 . S
C5245 C5249 1.385 . S
C5246 H5227 0.951 . S
C5246 C5244 1.388 . S
C5246 C5247 1.366 . S
C5247 C5246 1.366 . S
C5247 C5248 1.414 . S
C5247 C5250 1.499 . S
C5248 H5228 0.950 . S
C5248 C5247 1.414 . S
C5248 C5249 1.374 . S
C5249 H5229 0.950 . S
C5249 C5245 1.385 . S
C5249 C5248 1.374 . S
C5250 C5247 1.499 . S
C5250 C5251 1.373 . S
C5250 C5252 1.389 . S
C5251 H5230 0.950 . S
C5251 C5250 1.373 . S
C5251 C5267 1.377 . S
C5252 C5250 1.389 . S
C5252 C5253 1.524 . S
C5252 C5266 1.377 . S
C5253 C5252 1.524 . S
C5253 C5254 1.397 . S
C5253 C5258 1.363 . S
C5254 H5231 0.950 . S
C5254 C5253 1.397 . S
C5254 C5255 1.334 . S
C5255 H5232 0.950 . S
C5255 C5254 1.334 . S
C5255 C5256 1.287 . S
C5256 C5255 1.287 . S
C5256 C5257 1.524 . S
C5256 H5275 0.913 . S
C5257 H5233 0.950 . S
C5257 C5256 1.524 . S
C5257 C5258 1.415 . S
C5258 H5234 0.950 . S
C5258 C5253 1.363 . S
C5258 C5257 1.415 . S
C5259 H5235 0.951 . S
C5259 C5260 1.366 . S
C5259 C5261 1.388 . S
C5260 C5259 1.366 . S
C5260 C5264 1.385 . S
C5261 H5236 0.951 . S
C5261 C5259 1.388 . S
C5261 C5262 1.366 . S
C5262 C5261 1.366 . S
C5262 C5263 1.414 . S
C5262 C5265 1.499 . S
C5263 H5237 0.950 . S
C5263 C5262 1.414 . S
C5263 C5264 1.374 . S
C5264 H5238 0.950 . S
C5264 C5260 1.385 . S
C5264 C5263 1.374 . S
C5265 C5262 1.499 . S
C5265 C5266 1.373 . S
C5265 C5267 1.389 . S
C5266 H5239 0.950 . S
C5266 C5252 1.377 . S
C5266 C5265 1.373 . S
C5267 C5251 1.377 . S
C5267 C5265 1.389 . S
C5267 C5268 1.524 . S
C5268 C5267 1.524 . S
C5268 C5269 1.397 . S
C5268 C5273 1.363 . S
C5269 H5240 0.950 . S
C5269 C5268 1.397 . S
C5269 C5270 1.334 . S
C5270 H5241 0.950 . S
C5270 C5269 1.334 . S
C5270 C5271 1.287 . S
C5271 C5270 1.287 . S
C5271 C5272 1.524 . S
C5271 H5274 0.999 . S
C5272 H5242 0.950 . S
C5272 C5271 1.524 . S
C5272 C5273 1.415 . S
C5273 H5243 0.950 . S
C5273 C5268 1.363 . S
C5273 C5272 1.415 . S
H5274 C5271 0.999 . S
H5275 C5256 0.913 . S
H5276 C5294 0.951 . S
H5277 C5296 0.951 . S
H5278 C5298 0.950 . S
H5279 C5299 0.950 . S
H5280 C5301 0.950 . S
H5281 C5304 0.950 . S
H5282 C5305 0.950 . S
H5283 C5307 0.950 . S
H5284 C5308 0.950 . S
H5285 C5309 0.951 . S
H5286 C5311 0.951 . S
H5287 C5313 0.950 . S
H5288 C5314 0.950 . S
H5289 C5316 0.950 . S
H5290 C5319 0.950 . S
H5291 C5320 0.950 . S
H5292 C5322 0.950 . S
H5293 C5323 0.950 . S
C5294 H5276 0.951 . S
C5294 C5295 1.366 . S
C5294 C5296 1.388 . S
C5295 C5294 1.366 . S
C5295 C5299 1.385 . S
C5296 H5277 0.951 . S
C5296 C5294 1.388 . S
C5296 C5297 1.366 . S
C5297 C5296 1.366 . S
C5297 C5298 1.414 . S
C5297 C5300 1.499 . S
C5298 H5278 0.950 . S
C5298 C5297 1.414 . S
C5298 C5299 1.374 . S
C5299 H5279 0.950 . S
C5299 C5295 1.385 . S
C5299 C5298 1.374 . S
C5300 C5297 1.499 . S
C5300 C5301 1.373 . S
C5300 C5302 1.389 . S
C5301 H5280 0.950 . S
C5301 C5300 1.373 . S
C5301 C5317 1.377 . S
C5302 C5300 1.389 . S
C5302 C5303 1.524 . S
C5302 C5316 1.377 . S
C5303 C5302 1.524 . S
C5303 C5304 1.397 . S
C5303 C5308 1.363 . S
C5304 H5281 0.950 . S
C5304 C5303 1.397 . S
C5304 C5305 1.334 . S
C5305 H5282 0.950 . S
C5305 C5304 1.334 . S
C5305 C5306 1.287 . S
C5306 C5305 1.287 . S
C5306 C5307 1.524 . S
C5306 H5325 0.913 . S
C5307 H5283 0.950 . S
C5307 C5306 1.524 . S
C5307 C5308 1.415 . S
C5308 H5284 0.950 . S
C5308 C5303 1.363 . S
C5308 C5307 1.415 . S
C5309 H5285 0.951 . S
C5309 C5310 1.366 . S
C5309 C5311 1.388 . S
C5310 C5309 1.366 . S
C5310 C5314 1.385 . S
C5311 H5286 0.951 . S
C5311 C5309 1.388 . S
C5311 C5312 1.366 . S
C5312 C5311 1.366 . S
C5312 C5313 1.414 . S
C5312 C5315 1.499 . S
C5313 H5287 0.950 . S
C5313 C5312 1.414 . S
C5313 C5314 1.374 . S
C5314 H5288 0.950 . S
C5314 C5310 1.385 . S
C5314 C5313 1.374 . S
C5315 C5312 1.499 . S
C5315 C5316 1.373 . S
C5315 C5317 1.389 . S
C5316 H5289 0.950 . S
C5316 C5302 1.377 . S
C5316 C5315 1.373 . S
C5317 C5301 1.377 . S
C5317 C5315 1.389 . S
C5317 C5318 1.524 . S
C5318 C5317 1.524 . S
C5318 C5319 1.397 . S
C5318 C5323 1.363 . S
C5319 H5290 0.950 . S
C5319 C5318 1.397 . S
C5319 C5320 1.334 . S
C5320 H5291 0.950 . S
C5320 C5319 1.334 . S
C5320 C5321 1.287 . S
C5321 C5320 1.287 . S
C5321 C5322 1.524 . S
C5321 H5324 0.999 . S
C5322 H5292 0.950 . S
C5322 C5321 1.524 . S
C5322 C5323 1.415 . S
C5323 H5293 0.950 . S
C5323 C5318 1.363 . S
C5323 C5322 1.415 . S
H5324 C5321 0.999 . S
H5325 C5306 0.913 . S
H5326 C5344 0.951 . S
H5327 C5346 0.951 . S
H5328 C5348 0.950 . S
H5329 C5349 0.950 . S
H5330 C5351 0.950 . S
H5331 C5354 0.950 . S
H5332 C5355 0.950 . S
H5333 C5357 0.950 . S
H5334 C5358 0.950 . S
H5335 C5359 0.951 . S
H5336 C5361 0.951 . S
H5337 C5363 0.950 . S
H5338 C5364 0.950 . S
H5339 C5366 0.950 . S
H5340 C5369 0.950 . S
H5341 C5370 0.950 . S
H5342 C5372 0.950 . S
H5343 C5373 0.950 . S
C5344 H5326 0.951 . S
C5344 C5345 1.366 . S
C5344 C5346 1.388 . S
C5345 C5344 1.366 . S
C5345 C5349 1.385 . S
C5346 H5327 0.951 . S
C5346 C5344 1.388 . S
C5346 C5347 1.366 . S
C5347 C5346 1.366 . S
C5347 C5348 1.414 . S
C5347 C5350 1.499 . S
C5348 H5328 0.950 . S
C5348 C5347 1.414 . S
C5348 C5349 1.374 . S
C5349 H5329 0.950 . S
C5349 C5345 1.385 . S
C5349 C5348 1.374 . S
C5350 C5347 1.499 . S
C5350 C5351 1.373 . S
C5350 C5352 1.389 . S
C5351 H5330 0.950 . S
C5351 C5350 1.373 . S
C5351 C5367 1.377 . S
C5352 C5350 1.389 . S
C5352 C5353 1.524 . S
C5352 C5366 1.377 . S
C5353 C5352 1.524 . S
C5353 C5354 1.397 . S
C5353 C5358 1.363 . S
C5354 H5331 0.950 . S
C5354 C5353 1.397 . S
C5354 C5355 1.334 . S
C5355 H5332 0.950 . S
C5355 C5354 1.334 . S
C5355 C5356 1.287 . S
C5356 C5355 1.287 . S
C5356 C5357 1.524 . S
C5356 H5375 0.913 . S
C5357 H5333 0.950 . S
C5357 C5356 1.524 . S
C5357 C5358 1.415 . S
C5358 H5334 0.950 . S
C5358 C5353 1.363 . S
C5358 C5357 1.415 . S
C5359 H5335 0.951 . S
C5359 C5360 1.366 . S
C5359 C5361 1.388 . S
C5360 C5359 1.366 . S
C5360 C5364 1.385 . S
C5361 H5336 0.951 . S
C5361 C5359 1.388 . S
C5361 C5362 1.366 . S
C5362 C5361 1.366 . S
C5362 C5363 1.414 . S
C5362 C5365 1.499 . S
C5363 H5337 0.950 . S
C5363 C5362 1.414 . S
C5363 C5364 1.374 . S
C5364 H5338 0.950 . S
C5364 C5360 1.385 . S
C5364 C5363 1.374 . S
C5365 C5362 1.499 . S
C5365 C5366 1.373 . S
C5365 C5367 1.389 . S
C5366 H5339 0.950 . S
C5366 C5352 1.377 . S
C5366 C5365 1.373 . S
C5367 C5351 1.377 . S
C5367 C5365 1.389 . S
C5367 C5368 1.524 . S
C5368 C5367 1.524 . S
C5368 C5369 1.397 . S
C5368 C5373 1.363 . S
C5369 H5340 0.950 . S
C5369 C5368 1.397 . S
C5369 C5370 1.334 . S
C5370 H5341 0.950 . S
C5370 C5369 1.334 . S
C5370 C5371 1.287 . S
C5371 C5370 1.287 . S
C5371 C5372 1.524 . S
C5371 H5374 0.999 . S
C5372 H5342 0.950 . S
C5372 C5371 1.524 . S
C5372 C5373 1.415 . S
C5373 H5343 0.950 . S
C5373 C5368 1.363 . S
C5373 C5372 1.415 . S
H5374 C5371 0.999 . S
H5375 C5356 0.913 . S
H5376 C5394 0.951 . S
H5377 C5396 0.951 . S
H5378 C5398 0.950 . S
H5379 C5399 0.950 . S
H5380 C5401 0.950 . S
H5381 C5404 0.950 . S
H5382 C5405 0.950 . S
H5383 C5407 0.950 . S
H5384 C5408 0.950 . S
H5385 C5409 0.951 . S
H5386 C5411 0.951 . S
H5387 C5413 0.950 . S
H5388 C5414 0.950 . S
H5389 C5416 0.950 . S
H5390 C5419 0.950 . S
H5391 C5420 0.950 . S
H5392 C5422 0.950 . S
H5393 C5423 0.950 . S
C5394 H5376 0.951 . S
C5394 C5395 1.366 . S
C5394 C5396 1.388 . S
C5395 C5394 1.366 . S
C5395 C5399 1.385 . S
C5396 H5377 0.951 . S
C5396 C5394 1.388 . S
C5396 C5397 1.366 . S
C5397 C5396 1.366 . S
C5397 C5398 1.414 . S
C5397 C5400 1.499 . S
C5398 H5378 0.950 . S
C5398 C5397 1.414 . S
C5398 C5399 1.374 . S
C5399 H5379 0.950 . S
C5399 C5395 1.385 . S
C5399 C5398 1.374 . S
C5400 C5397 1.499 . S
C5400 C5401 1.373 . S
C5400 C5402 1.389 . S
C5401 H5380 0.950 . S
C5401 C5400 1.373 . S
C5401 C5417 1.377 . S
C5402 C5400 1.389 . S
C5402 C5403 1.524 . S
C5402 C5416 1.377 . S
C5403 C5402 1.524 . S
C5403 C5404 1.397 . S
C5403 C5408 1.363 . S
C5404 H5381 0.950 . S
C5404 C5403 1.397 . S
C5404 C5405 1.334 . S
C5405 H5382 0.950 . S
C5405 C5404 1.334 . S
C5405 C5406 1.287 . S
C5406 C5405 1.287 . S
C5406 C5407 1.524 . S
C5406 H5425 0.913 . S
C5407 H5383 0.950 . S
C5407 C5406 1.524 . S
C5407 C5408 1.415 . S
C5408 H5384 0.950 . S
C5408 C5403 1.363 . S
C5408 C5407 1.415 . S
C5409 H5385 0.951 . S
C5409 C5410 1.366 . S
C5409 C5411 1.388 . S
C5410 C5409 1.366 . S
C5410 C5414 1.385 . S
C5411 H5386 0.951 . S
C5411 C5409 1.388 . S
C5411 C5412 1.366 . S
C5412 C5411 1.366 . S
C5412 C5413 1.414 . S
C5412 C5415 1.499 . S
C5413 H5387 0.950 . S
C5413 C5412 1.414 . S
C5413 C5414 1.374 . S
C5414 H5388 0.950 . S
C5414 C5410 1.385 . S
C5414 C5413 1.374 . S
C5415 C5412 1.499 . S
C5415 C5416 1.373 . S
C5415 C5417 1.389 . S
C5416 H5389 0.950 . S
C5416 C5402 1.377 . S
C5416 C5415 1.373 . S
C5417 C5401 1.377 . S
C5417 C5415 1.389 . S
C5417 C5418 1.524 . S
C5418 C5417 1.524 . S
C5418 C5419 1.397 . S
C5418 C5423 1.363 . S
C5419 H5390 0.950 . S
C5419 C5418 1.397 . S
C5419 C5420 1.334 . S
C5420 H5391 0.950 . S
C5420 C5419 1.334 . S
C5420 C5421 1.287 . S
C5421 C5420 1.287 . S
C5421 C5422 1.524 . S
C5421 H5424 0.999 . S
C5422 H5392 0.950 . S
C5422 C5421 1.524 . S
C5422 C5423 1.415 . S
C5423 H5393 0.950 . S
C5423 C5418 1.363 . S
C5423 C5422 1.415 . S
H5424 C5421 0.999 . S
H5425 C5406 0.913 . S
H5426 C5444 0.951 . S
H5427 C5446 0.951 . S
H5428 C5448 0.950 . S
H5429 C5449 0.950 . S
H5430 C5451 0.950 . S
H5431 C5454 0.950 . S
H5432 C5455 0.950 . S
H5433 C5457 0.950 . S
H5434 C5458 0.950 . S
H5435 C5459 0.951 . S
H5436 C5461 0.951 . S
H5437 C5463 0.950 . S
H5438 C5464 0.950 1_545 S
H5439 C5466 0.950 . S
H5440 C5469 0.950 . S
H5441 C5470 0.950 . S
H5442 C5472 0.950 . S
H5443 C5473 0.950 . S
C5444 H5426 0.951 . S
C5444 C5445 1.366 . S
C5444 C5446 1.388 . S
C5445 C5444 1.366 . S
C5445 C5449 1.385 . S
C5446 H5427 0.951 . S
C5446 C5444 1.388 . S
C5446 C5447 1.366 . S
C5447 C5446 1.366 . S
C5447 C5448 1.414 . S
C5447 C5450 1.499 . S
C5448 H5428 0.950 . S
C5448 C5447 1.414 . S
C5448 C5449 1.374 . S
C5449 H5429 0.950 . S
C5449 C5445 1.385 . S
C5449 C5448 1.374 . S
C5450 C5447 1.499 . S
C5450 C5451 1.373 . S
C5450 C5452 1.389 . S
C5451 H5430 0.950 . S
C5451 C5450 1.373 . S
C5451 C5467 1.377 . S
C5452 C5450 1.389 . S
C5452 C5453 1.524 . S
C5452 C5466 1.377 . S
C5453 C5452 1.524 . S
C5453 C5454 1.397 . S
C5453 C5458 1.363 . S
C5454 H5431 0.950 . S
C5454 C5453 1.397 . S
C5454 C5455 1.334 . S
C5455 H5432 0.950 . S
C5455 C5454 1.334 . S
C5455 C5456 1.287 . S
C5456 C5455 1.287 . S
C5456 C5457 1.524 . S
C5456 H5475 0.913 . S
C5457 H5433 0.950 . S
C5457 C5456 1.524 . S
C5457 C5458 1.415 . S
C5458 H5434 0.950 . S
C5458 C5453 1.363 . S
C5458 C5457 1.415 . S
C5459 H5435 0.951 . S
C5459 C5460 1.366 . S
C5459 C5461 1.388 . S
C5460 C5459 1.366 . S
C5460 C5464 1.385 . S
C5461 H5436 0.951 . S
C5461 C5459 1.388 . S
C5461 C5462 1.366 . S
C5462 C5461 1.366 . S
C5462 C5463 1.414 . S
C5462 C5465 1.499 . S
C5463 H5437 0.950 . S
C5463 C5462 1.414 . S
C5463 C5464 1.374 . S
C5464 H5438 0.950 1_565 S
C5464 C5460 1.385 . S
C5464 C5463 1.374 . S
C5465 C5462 1.499 . S
C5465 C5466 1.373 . S
C5465 C5467 1.389 . S
C5466 H5439 0.950 . S
C5466 C5452 1.377 . S
C5466 C5465 1.373 . S
C5467 C5451 1.377 . S
C5467 C5465 1.389 . S
C5467 C5468 1.524 . S
C5468 C5467 1.524 . S
C5468 C5469 1.397 . S
C5468 C5473 1.363 . S
C5469 H5440 0.950 . S
C5469 C5468 1.397 . S
C5469 C5470 1.334 . S
C5470 H5441 0.950 . S
C5470 C5469 1.334 . S
C5470 C5471 1.287 . S
C5471 C5470 1.287 . S
C5471 C5472 1.524 . S
C5471 H5474 0.999 . S
C5472 H5442 0.950 . S
C5472 C5471 1.524 . S
C5472 C5473 1.415 . S
C5473 H5443 0.950 . S
C5473 C5468 1.363 . S
C5473 C5472 1.415 . S
H5474 C5471 0.999 . S
H5475 C5456 0.913 . S
H5476 C5494 0.951 . S
H5477 C5496 0.951 . S
H5478 C5498 0.950 . S
H5479 C5499 0.950 . S
H5480 C5501 0.950 . S
H5481 C5504 0.950 . S
H5482 C5505 0.950 . S
H5483 C5507 0.950 . S
H5484 C5508 0.950 . S
H5485 C5509 0.951 . S
H5486 C5511 0.951 . S
H5487 C5513 0.950 . S
H5488 C5514 0.950 . S
H5489 C5516 0.950 . S
H5490 C5519 0.950 . S
H5491 C5520 0.950 . S
H5492 C5522 0.950 . S
H5493 C5523 0.950 . S
C5494 H5476 0.951 . S
C5494 C5495 1.366 . S
C5494 C5496 1.388 . S
C5495 C5494 1.366 . S
C5495 C5499 1.385 . S
C5496 H5477 0.951 . S
C5496 C5494 1.388 . S
C5496 C5497 1.366 . S
C5497 C5496 1.366 . S
C5497 C5498 1.414 . S
C5497 C5500 1.499 . S
C5498 H5478 0.950 . S
C5498 C5497 1.414 . S
C5498 C5499 1.374 . S
C5499 H5479 0.950 . S
C5499 C5495 1.385 . S
C5499 C5498 1.374 . S
C5500 C5497 1.499 . S
C5500 C5501 1.373 . S
C5500 C5502 1.389 . S
C5501 H5480 0.950 . S
C5501 C5500 1.373 . S
C5501 C5517 1.377 . S
C5502 C5500 1.389 . S
C5502 C5503 1.524 . S
C5502 C5516 1.377 . S
C5503 C5502 1.524 . S
C5503 C5504 1.397 . S
C5503 C5508 1.363 . S
C5504 H5481 0.950 . S
C5504 C5503 1.397 . S
C5504 C5505 1.334 . S
C5505 H5482 0.950 . S
C5505 C5504 1.334 . S
C5505 C5506 1.287 . S
C5506 C5505 1.287 . S
C5506 C5507 1.524 . S
C5506 H5525 0.913 . S
C5507 H5483 0.950 . S
C5507 C5506 1.524 . S
C5507 C5508 1.415 . S
C5508 H5484 0.950 . S
C5508 C5503 1.363 . S
C5508 C5507 1.415 . S
C5509 H5485 0.951 . S
C5509 C5510 1.366 . S
C5509 C5511 1.388 . S
C5510 C5509 1.366 . S
C5510 C5514 1.385 . S
C5511 H5486 0.951 . S
C5511 C5509 1.388 . S
C5511 C5512 1.366 . S
C5512 C5511 1.366 . S
C5512 C5513 1.414 . S
C5512 C5515 1.499 . S
C5513 H5487 0.950 . S
C5513 C5512 1.414 . S
C5513 C5514 1.374 . S
C5514 H5488 0.950 . S
C5514 C5510 1.385 . S
C5514 C5513 1.374 . S
C5515 C5512 1.499 . S
C5515 C5516 1.373 . S
C5515 C5517 1.389 . S
C5516 H5489 0.950 . S
C5516 C5502 1.377 . S
C5516 C5515 1.373 . S
C5517 C5501 1.377 . S
C5517 C5515 1.389 . S
C5517 C5518 1.524 . S
C5518 C5517 1.524 . S
C5518 C5519 1.397 . S
C5518 C5523 1.363 . S
C5519 H5490 0.950 . S
C5519 C5518 1.397 . S
C5519 C5520 1.334 . S
C5520 H5491 0.950 . S
C5520 C5519 1.334 . S
C5520 C5521 1.287 . S
C5521 C5520 1.287 . S
C5521 C5522 1.524 . S
C5521 H5524 0.999 . S
C5522 H5492 0.950 . S
C5522 C5521 1.524 . S
C5522 C5523 1.415 . S
C5523 H5493 0.950 . S
C5523 C5518 1.363 . S
C5523 C5522 1.415 . S
H5524 C5521 0.999 . S
H5525 C5506 0.913 . S
H5526 C5544 0.951 . S
H5527 C5546 0.951 . S
H5528 C5548 0.950 . S
H5529 C5549 0.950 . S
H5530 C5551 0.950 . S
H5531 C5554 0.950 . S
H5532 C5555 0.950 . S
H5533 C5557 0.950 . S
H5534 C5558 0.950 . S
H5535 C5559 0.951 . S
H5536 C5561 0.951 . S
H5537 C5563 0.950 . S
H5538 C5564 0.950 . S
H5539 C5566 0.950 . S
H5540 C5569 0.950 . S
H5541 C5570 0.950 . S
H5542 C5572 0.948 1_554 S
H5543 C5573 0.950 . S
C5544 H5526 0.951 . S
C5544 C5545 1.366 . S
C5544 C5546 1.388 . S
C5545 C5544 1.366 . S
C5545 C5549 1.385 . S
C5546 H5527 0.951 . S
C5546 C5544 1.388 . S
C5546 C5547 1.366 . S
C5547 C5546 1.366 . S
C5547 C5548 1.414 . S
C5547 C5550 1.499 . S
C5548 H5528 0.950 . S
C5548 C5547 1.414 . S
C5548 C5549 1.374 . S
C5549 H5529 0.950 . S
C5549 C5545 1.385 . S
C5549 C5548 1.374 . S
C5550 C5547 1.499 . S
C5550 C5551 1.373 . S
C5550 C5552 1.389 . S
C5551 H5530 0.950 . S
C5551 C5550 1.373 . S
C5551 C5567 1.377 . S
C5552 C5550 1.389 . S
C5552 C5553 1.524 . S
C5552 C5566 1.377 . S
C5553 C5552 1.524 . S
C5553 C5554 1.397 . S
C5553 C5558 1.363 . S
C5554 H5531 0.950 . S
C5554 C5553 1.397 . S
C5554 C5555 1.334 . S
C5555 H5532 0.950 . S
C5555 C5554 1.334 . S
C5555 C5556 1.287 . S
C5556 C5555 1.287 . S
C5556 C5557 1.524 . S
C5556 H5575 0.913 . S
C5557 H5533 0.950 . S
C5557 C5556 1.524 . S
C5557 C5558 1.415 . S
C5558 H5534 0.950 . S
C5558 C5553 1.363 . S
C5558 C5557 1.415 . S
C5559 H5535 0.951 . S
C5559 C5560 1.366 . S
C5559 C5561 1.388 . S
C5560 C5559 1.366 . S
C5560 C5564 1.385 . S
C5561 H5536 0.951 . S
C5561 C5559 1.388 . S
C5561 C5562 1.366 . S
C5562 C5561 1.366 . S
C5562 C5563 1.414 . S
C5562 C5565 1.499 . S
C5563 H5537 0.950 . S
C5563 C5562 1.414 . S
C5563 C5564 1.374 . S
C5564 H5538 0.950 . S
C5564 C5560 1.385 . S
C5564 C5563 1.374 . S
C5565 C5562 1.499 . S
C5565 C5566 1.373 . S
C5565 C5567 1.389 . S
C5566 H5539 0.950 . S
C5566 C5552 1.377 . S
C5566 C5565 1.373 . S
C5567 C5551 1.377 . S
C5567 C5565 1.389 . S
C5567 C5568 1.524 . S
C5568 C5567 1.524 . S
C5568 C5569 1.397 1_554 S
C5568 C5573 1.363 . S
C5569 H5540 0.950 . S
C5569 C5568 1.397 1_556 S
C5569 C5570 1.334 . S
C5570 H5541 0.950 . S
C5570 C5569 1.334 . S
C5570 C5571 1.287 . S
C5571 C5570 1.287 . S
C5571 C5572 1.524 . S
C5571 H5574 0.999 . S
C5572 H5542 0.948 1_556 S
C5572 C5571 1.524 . S
C5572 C5573 1.415 1_556 S
C5573 H5543 0.950 . S
C5573 C5568 1.363 . S
C5573 C5572 1.415 1_554 S
H5574 C5571 0.999 . S
H5575 C5556 0.913 . S
H5576 C5594 0.951 . S
H5577 C5596 0.951 . S
H5578 C5598 0.950 . S
H5579 C5599 0.950 . S
H5580 C5601 0.950 . S
H5581 C5604 0.950 . S
H5582 C5605 0.950 . S
H5583 C5607 0.950 . S
H5584 C5608 0.950 . S
H5585 C5609 0.951 . S
H5586 C5611 0.951 . S
H5587 C5613 0.950 . S
H5588 C5614 0.950 . S
H5589 C5616 0.950 . S
H5590 C5619 0.950 . S
H5591 C5620 0.950 . S
H5592 C5622 0.950 . S
H5593 C5623 0.950 . S
C5594 H5576 0.951 . S
C5594 C5595 1.366 . S
C5594 C5596 1.388 . S
C5595 C5594 1.366 . S
C5595 C5599 1.385 . S
C5596 H5577 0.951 . S
C5596 C5594 1.388 . S
C5596 C5597 1.366 . S
C5597 C5596 1.366 . S
C5597 C5598 1.414 . S
C5597 C5600 1.499 . S
C5598 H5578 0.950 . S
C5598 C5597 1.414 . S
C5598 C5599 1.374 . S
C5599 H5579 0.950 . S
C5599 C5595 1.385 . S
C5599 C5598 1.374 . S
C5600 C5597 1.499 . S
C5600 C5601 1.373 . S
C5600 C5602 1.389 . S
C5601 H5580 0.950 . S
C5601 C5600 1.373 . S
C5601 C5617 1.377 . S
C5602 C5600 1.389 . S
C5602 C5603 1.524 . S
C5602 C5616 1.377 . S
C5603 C5602 1.524 . S
C5603 C5604 1.397 . S
C5603 C5608 1.363 . S
C5604 H5581 0.950 . S
C5604 C5603 1.397 . S
C5604 C5605 1.334 . S
C5605 H5582 0.950 . S
C5605 C5604 1.334 . S
C5605 C5606 1.287 . S
C5606 C5605 1.287 . S
C5606 C5607 1.524 . S
C5606 H5625 0.913 . S
C5607 H5583 0.950 . S
C5607 C5606 1.524 . S
C5607 C5608 1.415 . S
C5608 H5584 0.950 . S
C5608 C5603 1.363 . S
C5608 C5607 1.415 . S
C5609 H5585 0.951 . S
C5609 C5610 1.366 . S
C5609 C5611 1.388 . S
C5610 C5609 1.366 . S
C5610 C5614 1.385 . S
C5611 H5586 0.951 . S
C5611 C5609 1.388 . S
C5611 C5612 1.366 . S
C5612 C5611 1.366 . S
C5612 C5613 1.414 . S
C5612 C5615 1.499 . S
C5613 H5587 0.950 . S
C5613 C5612 1.414 . S
C5613 C5614 1.374 . S
C5614 H5588 0.950 . S
C5614 C5610 1.385 . S
C5614 C5613 1.374 . S
C5615 C5612 1.499 . S
C5615 C5616 1.373 . S
C5615 C5617 1.389 . S
C5616 H5589 0.950 . S
C5616 C5602 1.377 . S
C5616 C5615 1.373 . S
C5617 C5601 1.377 . S
C5617 C5615 1.389 . S
C5617 C5618 1.524 . S
C5618 C5617 1.524 . S
C5618 C5619 1.397 . S
C5618 C5623 1.363 . S
C5619 H5590 0.950 . S
C5619 C5618 1.397 . S
C5619 C5620 1.334 . S
C5620 H5591 0.950 . S
C5620 C5619 1.334 . S
C5620 C5621 1.287 . S
C5621 C5620 1.287 . S
C5621 C5622 1.524 . S
C5621 H5624 0.999 . S
C5622 H5592 0.950 . S
C5622 C5621 1.524 . S
C5622 C5623 1.415 . S
C5623 H5593 0.950 . S
C5623 C5618 1.363 . S
C5623 C5622 1.415 . S
H5624 C5621 0.999 . S
H5625 C5606 0.913 . S
H5626 C5644 0.951 . S
H5627 C5646 0.951 . S
H5628 C5648 0.950 . S
H5629 C5649 0.950 . S
H5630 C5651 0.950 . S
H5631 C5654 0.950 . S
H5632 C5655 0.950 . S
H5633 C5657 0.950 . S
H5634 C5658 0.950 . S
H5635 C5659 0.951 . S
H5636 C5661 0.951 . S
H5637 C5663 0.950 . S
H5638 C5664 0.950 . S
H5639 C5666 0.950 . S
H5640 C5669 0.950 . S
H5641 C5670 0.950 . S
H5642 C5672 0.950 . S
H5643 C5673 0.950 1_554 S
C5644 H5626 0.951 . S
C5644 C5645 1.366 . S
C5644 C5646 1.388 . S
C5645 C5644 1.366 . S
C5645 C5649 1.385 . S
C5646 H5627 0.951 . S
C5646 C5644 1.388 . S
C5646 C5647 1.366 . S
C5647 C5646 1.366 . S
C5647 C5648 1.414 . S
C5647 C5650 1.499 . S
C5648 H5628 0.950 . S
C5648 C5647 1.414 . S
C5648 C5649 1.374 . S
C5649 H5629 0.950 . S
C5649 C5645 1.385 . S
C5649 C5648 1.374 . S
C5650 C5647 1.499 . S
C5650 C5651 1.373 . S
C5650 C5652 1.389 . S
C5651 H5630 0.950 . S
C5651 C5650 1.373 . S
C5651 C5667 1.377 . S
C5652 C5650 1.389 . S
C5652 C5653 1.524 . S
C5652 C5666 1.377 . S
C5653 C5652 1.524 . S
C5653 C5654 1.397 . S
C5653 C5658 1.363 . S
C5654 H5631 0.950 . S
C5654 C5653 1.397 . S
C5654 C5655 1.334 . S
C5655 H5632 0.950 . S
C5655 C5654 1.334 . S
C5655 C5656 1.287 . S
C5656 C5655 1.287 . S
C5656 C5657 1.524 . S
C5656 H5675 0.913 . S
C5657 H5633 0.950 . S
C5657 C5656 1.524 . S
C5657 C5658 1.415 . S
C5658 H5634 0.950 . S
C5658 C5653 1.363 . S
C5658 C5657 1.415 . S
C5659 H5635 0.951 . S
C5659 C5660 1.354 1_554 S
C5659 C5661 1.388 . S
C5660 C5659 1.354 1_556 S
C5660 C5664 1.393 . S
C5661 H5636 0.951 . S
C5661 C5659 1.388 . S
C5661 C5662 1.366 . S
C5662 C5661 1.366 . S
C5662 C5663 1.414 1_554 S
C5662 C5665 1.499 . S
C5663 H5637 0.950 . S
C5663 C5662 1.414 1_556 S
C5663 C5664 1.374 . S
C5664 H5638 0.950 . S
C5664 C5660 1.393 . S
C5664 C5663 1.374 . S
C5665 C5662 1.499 . S
C5665 C5666 1.373 . S
C5665 C5667 1.389 . S
C5666 H5639 0.950 . S
C5666 C5652 1.377 . S
C5666 C5665 1.373 . S
C5667 C5651 1.377 . S
C5667 C5665 1.389 . S
C5667 C5668 1.524 1_554 S
C5668 C5667 1.524 1_556 S
C5668 C5669 1.397 . S
C5668 C5673 1.363 . S
C5669 H5640 0.950 . S
C5669 C5668 1.397 . S
C5669 C5670 1.334 . S
C5670 H5641 0.950 . S
C5670 C5669 1.334 . S
C5670 C5671 1.287 . S
C5671 C5670 1.287 . S
C5671 C5672 1.524 . S
C5671 H5674 0.999 . S
C5672 H5642 0.950 . S
C5672 C5671 1.524 . S
C5672 C5673 1.415 . S
C5673 H5643 0.950 1_556 S
C5673 C5668 1.363 . S
C5673 C5672 1.415 . S
H5674 C5671 0.999 . S
H5675 C5656 0.913 . S
H5676 C5694 0.951 . S
H5677 C5696 0.951 . S
H5678 C5698 0.950 . S
H5679 C5699 0.950 . S
H5680 C5701 0.950 . S
H5681 C5704 0.950 . S
H5682 C5705 0.950 . S
H5683 C5707 0.950 . S
H5684 C5708 0.950 . S
H5685 C5709 0.951 . S
H5686 C5711 0.951 . S
H5687 C5713 0.950 . S
H5688 C5714 0.950 . S
H5689 C5716 0.950 . S
H5690 C5719 0.950 . S
H5691 C5720 0.950 . S
H5692 C5722 0.950 . S
H5693 C5723 0.950 . S
C5694 H5676 0.951 . S
C5694 C5695 1.366 . S
C5694 C5696 1.388 . S
C5695 C5694 1.366 . S
C5695 C5699 1.385 . S
C5696 H5677 0.951 . S
C5696 C5694 1.388 . S
C5696 C5697 1.366 . S
C5697 C5696 1.366 . S
C5697 C5698 1.414 . S
C5697 C5700 1.499 . S
C5698 H5678 0.950 . S
C5698 C5697 1.414 . S
C5698 C5699 1.374 . S
C5699 H5679 0.950 . S
C5699 C5695 1.385 . S
C5699 C5698 1.374 . S
C5700 C5697 1.499 . S
C5700 C5701 1.373 . S
C5700 C5702 1.389 . S
C5701 H5680 0.950 . S
C5701 C5700 1.373 . S
C5701 C5717 1.377 . S
C5702 C5700 1.389 . S
C5702 C5703 1.524 . S
C5702 C5716 1.377 . S
C5703 C5702 1.524 . S
C5703 C5704 1.397 . S
C5703 C5708 1.363 . S
C5704 H5681 0.950 . S
C5704 C5703 1.397 . S
C5704 C5705 1.334 . S
C5705 H5682 0.950 . S
C5705 C5704 1.334 . S
C5705 C5706 1.287 . S
C5706 C5705 1.287 . S
C5706 C5707 1.524 . S
C5706 H5725 0.913 . S
C5707 H5683 0.950 . S
C5707 C5706 1.524 . S
C5707 C5708 1.415 . S
C5708 H5684 0.950 . S
C5708 C5703 1.363 . S
C5708 C5707 1.415 . S
C5709 H5685 0.951 . S
C5709 C5710 1.366 . S
C5709 C5711 1.388 . S
C5710 C5709 1.366 . S
C5710 C5714 1.385 . S
C5711 H5686 0.951 . S
C5711 C5709 1.388 . S
C5711 C5712 1.366 . S
C5712 C5711 1.366 . S
C5712 C5713 1.414 . S
C5712 C5715 1.499 . S
C5713 H5687 0.950 . S
C5713 C5712 1.414 . S
C5713 C5714 1.374 . S
C5714 H5688 0.950 . S
C5714 C5710 1.385 . S
C5714 C5713 1.374 . S
C5715 C5712 1.499 . S
C5715 C5716 1.373 . S
C5715 C5717 1.389 . S
C5716 H5689 0.950 . S
C5716 C5702 1.377 . S
C5716 C5715 1.373 . S
C5717 C5701 1.377 . S
C5717 C5715 1.389 . S
C5717 C5718 1.524 . S
C5718 C5717 1.524 . S
C5718 C5719 1.397 . S
C5718 C5723 1.363 . S
C5719 H5690 0.950 . S
C5719 C5718 1.397 . S
C5719 C5720 1.334 . S
C5720 H5691 0.950 . S
C5720 C5719 1.334 . S
C5720 C5721 1.287 . S
C5721 C5720 1.287 . S
C5721 C5722 1.524 . S
C5721 H5724 0.999 . S
C5722 H5692 0.950 . S
C5722 C5721 1.524 . S
C5722 C5723 1.415 . S
C5723 H5693 0.950 . S
C5723 C5718 1.363 . S
C5723 C5722 1.415 . S
H5724 C5721 0.999 . S
H5725 C5706 0.913 . S
H5726 C5744 0.951 . S
H5727 C5746 0.951 . S
H5728 C5748 0.950 . S
H5729 C5749 0.950 . S
H5730 C5751 0.950 . S
H5731 C5754 0.950 . S
H5732 C5755 0.950 . S
H5733 C5757 0.950 . S
H5734 C5758 0.950 . S
H5735 C5759 0.951 . S
H5736 C5761 0.951 . S
H5737 C5763 0.950 . S
H5738 C5764 0.950 . S
H5739 C5766 0.950 . S
H5740 C5769 0.950 . S
H5741 C5770 0.950 . S
H5742 C5772 0.950 . S
H5743 C5773 0.950 . S
C5744 H5726 0.951 . S
C5744 C5745 1.366 . S
C5744 C5746 1.388 . S
C5745 C5744 1.366 . S
C5745 C5749 1.385 . S
C5746 H5727 0.951 . S
C5746 C5744 1.388 . S
C5746 C5747 1.366 . S
C5747 C5746 1.366 . S
C5747 C5748 1.414 . S
C5747 C5750 1.499 . S
C5748 H5728 0.950 . S
C5748 C5747 1.414 . S
C5748 C5749 1.374 . S
C5749 H5729 0.950 . S
C5749 C5745 1.385 . S
C5749 C5748 1.374 . S
C5750 C5747 1.499 . S
C5750 C5751 1.373 . S
C5750 C5752 1.389 . S
C5751 H5730 0.950 . S
C5751 C5750 1.373 . S
C5751 C5767 1.377 . S
C5752 C5750 1.389 . S
C5752 C5753 1.524 . S
C5752 C5766 1.377 . S
C5753 C5752 1.524 . S
C5753 C5754 1.397 . S
C5753 C5758 1.363 . S
C5754 H5731 0.950 . S
C5754 C5753 1.397 . S
C5754 C5755 1.334 . S
C5755 H5732 0.950 . S
C5755 C5754 1.334 . S
C5755 C5756 1.287 . S
C5756 C5755 1.287 . S
C5756 C5757 1.524 . S
C5756 H5775 0.913 . S
C5757 H5733 0.950 . S
C5757 C5756 1.524 . S
C5757 C5758 1.415 . S
C5758 H5734 0.950 . S
C5758 C5753 1.363 . S
C5758 C5757 1.415 . S
C5759 H5735 0.951 . S
C5759 C5760 1.366 . S
C5759 C5761 1.388 . S
C5760 C5759 1.366 . S
C5760 C5764 1.385 . S
C5761 H5736 0.951 . S
C5761 C5759 1.388 . S
C5761 C5762 1.366 . S
C5762 C5761 1.366 . S
C5762 C5763 1.414 . S
C5762 C5765 1.499 . S
C5763 H5737 0.950 . S
C5763 C5762 1.414 . S
C5763 C5764 1.374 . S
C5764 H5738 0.950 . S
C5764 C5760 1.385 . S
C5764 C5763 1.374 . S
C5765 C5762 1.499 . S
C5765 C5766 1.373 . S
C5765 C5767 1.389 . S
C5766 H5739 0.950 . S
C5766 C5752 1.377 . S
C5766 C5765 1.373 . S
C5767 C5751 1.377 . S
C5767 C5765 1.389 . S
C5767 C5768 1.524 . S
C5768 C5767 1.524 . S
C5768 C5769 1.397 . S
C5768 C5773 1.363 . S
C5769 H5740 0.950 . S
C5769 C5768 1.397 . S
C5769 C5770 1.334 . S
C5770 H5741 0.950 . S
C5770 C5769 1.334 . S
C5770 C5771 1.287 . S
C5771 C5770 1.287 . S
C5771 C5772 1.524 . S
C5771 H5774 0.999 . S
C5772 H5742 0.950 . S
C5772 C5771 1.524 . S
C5772 C5773 1.415 . S
C5773 H5743 0.950 . S
C5773 C5768 1.363 . S
C5773 C5772 1.415 . S
H5774 C5771 0.999 . S
H5775 C5756 0.913 . S
C995 C111 1.931 . S
C1010 C349 1.916 . S
C1045 C64 1.994 . S
C1060 C400 2.038 . S
C1095 C77 1.298 . S
C1110 C429 1.289 . S
C1160 C473 1.256 . S
C1145 C95 1.289 . S
C1195 C25 1.167 . S
C1210 C513 1.144 . S
C1260 C549 1.426 . S
C1245 C36 1.375 . S
C1310 C599 1.738 . S
C1295 C50 1.685 . S
C1345 C11 2.035 . S
C1360 C629 2.012 . S
C1410 C359 1.708 . S
C1395 C237 1.670 . S
C1445 C245 0.336 . S
C1460 C402 0.418 . S
C1510 C439 1.044 . S
C1495 C279 0.993 . S
C1560 C469 1.193 . S
C1545 C175 1.199 . S
C1595 C231 1.209 . S
C1610 C509 1.203 . S
C1660 C559 0.731 . S
C1645 C251 0.734 . S
C1710 C593 0.684 . S
C1695 C273 0.674 . S
C1760 C639 1.710 . S
C1745 C181 1.670 . S
C1810 C353 0.857 . S
C1795 C165 0.865 1_554 S
C1845 C288 1.629 . S
C1860 C679 1.665 . S
C1910 C713 1.302 . S
C1895 C333 1.343 . S
C1960 C749 0.848 . S
C1945 C316 0.845 . S
C1995 C123 1.148 . S
C2010 C633 1.112 . S
C2045 C137 1.372 . S
C2060 C433 1.320 . S
C2095 C330 1.546 . S
C2110 C799 1.583 . S
C2160 C818 0.184 . S
C2145 C302 0.375 . S
C2210 C360 2.074 . S
C2195 C63 2.097 . S
C2260 C829 2.113 . S
C2245 C106 2.122 . S
C2295 C97 1.370 . S
C2310 C440 1.420 . S
C2345 C81 1.345 . S
C2360 C802 1.322 . S
C2410 C522 1.272 . S
C2395 C13 1.216 . S
C2445 C55 1.388 . S
C2460 C720 1.446 . S
C2510 C578 1.719 1_566 S
C2495 C35 1.702 . S
C2560 C880 2.238 . S
C2545 C21 2.263 . S
C2610 C338 1.857 . S
C2595 C147 1.890 . S
C2660 C833 0.392 . S
C2645 C321 0.510 . S
C2695 C119 1.124 . S
C2710 C418 1.116 . S
C2745 C293 1.286 . S
C2760 C800 1.353 . S
C2795 C153 1.337 . S
C2810 C520 1.410 . S
C2860 C698 0.809 . S
C2845 C315 0.811 . S
C2895 C125 0.669 1_545 S
C2910 C602 0.653 1_565 S
C2945 C287 1.880 . S
C2960 C858 1.845 . S
C2995 C193 0.905 . S
C3010 C362 0.897 . S
C3045 C176 1.698 . S
C3060 C658 1.708 . S
C3095 C263 1.299 . S
C3110 C562 1.277 . S
C3145 C246 0.990 . S
C3160 C760 1.009 . S
C3210 C882 1.197 . S
C3195 C277 1.203 . S
C3245 C221 1.364 . S
C3260 C442 1.339 . S
C3310 C458 1.648 . S
C3295 C260 1.637 . S
C3360 C399 0.280 . S
C3345 C204 0.443 . S
C3395 C83 1.931 . S
C3410 C909 1.919 . S
C3460 C840 2.038 . S
C3445 C92 1.993 . S
C3495 C105 1.298 . S
C3510 C949 1.291 . S
C3545 C67 1.289 . S
C3560 C793 1.257 . S
C3595 C53 1.167 . S
C3610 C673 1.142 . S
C3660 C709 1.426 . S
C3645 C8 1.344 1_655 S
C3710 C759 1.739 . S
C3695 C22 1.685 . S
C3760 C869 2.012 . S
C3745 C39 2.035 . S
C3810 C919 1.707 . S
C3795 C265 1.671 . S
C3845 C189 0.336 . S
C3860 C842 0.418 . S
C3910 C959 1.044 . S
C3895 C209 0.992 . S
C3960 C789 1.193 . S
C3945 C217 1.199 . S
C4010 C669 1.203 . S
C3995 C259 1.209 . S
C4045 C195 0.735 . S
C4060 C719 0.731 . S
C4110 C753 0.682 . S
C4095 C203 0.673 . S
C4145 C223 1.672 . S
C4160 C879 1.709 . S
C4210 C913 0.855 . S
C4195 C319 0.875 . S
C4245 C134 1.628 . S
C4260 C519 1.665 . S
C4310 C553 1.303 . S
C4295 C151 1.344 . S
C4360 C589 0.849 . S
C4345 C162 0.846 . S
C4410 C873 1.113 . S
C4395 C305 1.148 . S
C4445 C291 1.373 . S
C4460 C953 1.321 . S
C4510 C479 1.583 . S
C4495 C148 1.547 . S
C4560 C378 0.185 . S
C4545 C120 0.379 . S
C4595 C91 2.097 . S
C4610 C920 2.074 . S
C4660 C389 2.113 . S
C4645 C78 2.117 . S
C4695 C69 1.370 . S
C4710 C960 1.420 . S
C4745 C109 1.345 . S
C4760 C482 1.314 . S
C4795 C41 1.216 . S
C4810 C682 1.272 . S
C4860 C560 1.445 . S
C4845 C27 1.388 . S
C4895 C7 1.701 . S
C4910 C738 1.720 . S
C4945 C49 2.263 . S
C4960 C640 2.238 . S
C5010 C898 1.857 . S
C4995 C329 1.890 . S
C5045 C167 0.509 . S
C5060 C393 0.385 . S
C5110 C938 1.142 . S
C5095 C301 1.124 . S
C5145 C139 1.286 . S
C5160 C480 1.354 . S
C5195 C335 1.338 . S
C5210 C680 1.410 . S
C5260 C538 0.809 . S
C5245 C161 0.818 . S
C5295 C307 0.666 . S
C5310 C762 0.648 . S
C5360 C618 1.845 . S
C5345 C133 1.880 . S
C5410 C922 0.896 . S
C5395 C249 0.905 . S
C5460 C498 1.708 1_565 S
C5445 C218 1.698 . S
C5495 C235 1.300 . S
C5510 C722 1.279 . S
C5560 C600 1.008 . S
C5545 C190 0.991 . S
C5595 C207 1.203 . S
C5610 C642 1.196 . S
C5645 C179 1.363 . S
C5660 C962 1.336 1_556 S
C5710 C778 1.648 . S
C5695 C232 1.638 . S
C5760 C839 0.282 . S
C5745 C274 0.441 . S
