# Generated by pormake.
# Topology gar, (4,6)-cn, num edge types: 1
# Building blocks:
#     Node 0, Type 0, BuildingBlock: UXUYUI_clean_sbu_0, # of connection points: 4
#     Node 1, Type 0, BuildingBlock: UXUYUI_clean_sbu_0, # of connection points: 4
#     Node 2, Type 0, BuildingBlock: UXUYUI_clean_sbu_0, # of connection points: 4
#     Node 3, Type 0, BuildingBlock: UXUYUI_clean_sbu_0, # of connection points: 4
#     Node 4, Type 0, BuildingBlock: UXUYUI_clean_sbu_0, # of connection points: 4
#     Node 5, Type 0, BuildingBlock: UXUYUI_clean_sbu_0, # of connection points: 4
#     Node 6, Type 0, BuildingBlock: UXUYUI_clean_sbu_0, # of connection points: 4
#     Node 7, Type 0, BuildingBlock: UXUYUI_clean_sbu_0, # of connection points: 4
#     Node 8, Type 0, BuildingBlock: UXUYUI_clean_sbu_0, # of connection points: 4
#     Node 9, Type 0, BuildingBlock: UXUYUI_clean_sbu_0, # of connection points: 4
#     Node 10, Type 0, BuildingBlock: UXUYUI_clean_sbu_0, # of connection points: 4
#     Node 11, Type 0, BuildingBlock: UXUYUI_clean_sbu_0, # of connection points: 4
#     Node 12, Type 0, BuildingBlock: UXUYUI_clean_sbu_0, # of connection points: 4
#     Node 13, Type 0, BuildingBlock: UXUYUI_clean_sbu_0, # of connection points: 4
#     Node 14, Type 0, BuildingBlock: UXUYUI_clean_sbu_0, # of connection points: 4
#     Node 15, Type 0, BuildingBlock: UXUYUI_clean_sbu_0, # of connection points: 4
#     Node 16, Type 0, BuildingBlock: UXUYUI_clean_sbu_0, # of connection points: 4
#     Node 17, Type 0, BuildingBlock: UXUYUI_clean_sbu_0, # of connection points: 4
#     Node 18, Type 0, BuildingBlock: UXUYUI_clean_sbu_0, # of connection points: 4
#     Node 19, Type 0, BuildingBlock: UXUYUI_clean_sbu_0, # of connection points: 4
#     Node 20, Type 0, BuildingBlock: UXUYUI_clean_sbu_0, # of connection points: 4
#     Node 21, Type 0, BuildingBlock: UXUYUI_clean_sbu_0, # of connection points: 4
#     Node 22, Type 0, BuildingBlock: UXUYUI_clean_sbu_0, # of connection points: 4
#     Node 23, Type 0, BuildingBlock: UXUYUI_clean_sbu_0, # of connection points: 4
#     Node 24, Type 1, BuildingBlock: BETDEL_clean_sbu_0, # of connection points: 6
#     Node 25, Type 1, BuildingBlock: BETDEL_clean_sbu_0, # of connection points: 6
#     Node 26, Type 1, BuildingBlock: BETDEL_clean_sbu_0, # of connection points: 6
#     Node 27, Type 1, BuildingBlock: BETDEL_clean_sbu_0, # of connection points: 6
#     Node 28, Type 1, BuildingBlock: BETDEL_clean_sbu_0, # of connection points: 6
#     Node 29, Type 1, BuildingBlock: BETDEL_clean_sbu_0, # of connection points: 6
#     Node 30, Type 1, BuildingBlock: BETDEL_clean_sbu_0, # of connection points: 6
#     Node 31, Type 1, BuildingBlock: BETDEL_clean_sbu_0, # of connection points: 6
#     Node 32, Type 1, BuildingBlock: BETDEL_clean_sbu_0, # of connection points: 6
#     Node 33, Type 1, BuildingBlock: BETDEL_clean_sbu_0, # of connection points: 6
#     Node 34, Type 1, BuildingBlock: BETDEL_clean_sbu_0, # of connection points: 6
#     Node 35, Type 1, BuildingBlock: BETDEL_clean_sbu_0, # of connection points: 6
#     Node 36, Type 1, BuildingBlock: BETDEL_clean_sbu_0, # of connection points: 6
#     Node 37, Type 1, BuildingBlock: BETDEL_clean_sbu_0, # of connection points: 6
#     Node 38, Type 1, BuildingBlock: BETDEL_clean_sbu_0, # of connection points: 6
#     Node 39, Type 1, BuildingBlock: BETDEL_clean_sbu_0, # of connection points: 6
#     Edge 40, Type (0, 1), BuildingBlock: ZUJKAS_clean_linker_0, # of connection points: 2
#     Edge 41, Type (0, 1), BuildingBlock: ZUJKAS_clean_linker_0, # of connection points: 2
#     Edge 42, Type (0, 1), BuildingBlock: ZUJKAS_clean_linker_0, # of connection points: 2
#     Edge 43, Type (0, 1), BuildingBlock: ZUJKAS_clean_linker_0, # of connection points: 2
#     Edge 44, Type (0, 1), BuildingBlock: ZUJKAS_clean_linker_0, # of connection points: 2
#     Edge 45, Type (0, 1), BuildingBlock: ZUJKAS_clean_linker_0, # of connection points: 2
#     Edge 46, Type (0, 1), BuildingBlock: ZUJKAS_clean_linker_0, # of connection points: 2
#     Edge 47, Type (0, 1), BuildingBlock: ZUJKAS_clean_linker_0, # of connection points: 2
#     Edge 48, Type (0, 1), BuildingBlock: ZUJKAS_clean_linker_0, # of connection points: 2
#     Edge 49, Type (0, 1), BuildingBlock: ZUJKAS_clean_linker_0, # of connection points: 2
#     Edge 50, Type (0, 1), BuildingBlock: ZUJKAS_clean_linker_0, # of connection points: 2
#     Edge 51, Type (0, 1), BuildingBlock: ZUJKAS_clean_linker_0, # of connection points: 2
#     Edge 52, Type (0, 1), BuildingBlock: ZUJKAS_clean_linker_0, # of connection points: 2
#     Edge 53, Type (0, 1), BuildingBlock: ZUJKAS_clean_linker_0, # of connection points: 2
#     Edge 54, Type (0, 1), BuildingBlock: ZUJKAS_clean_linker_0, # of connection points: 2
#     Edge 55, Type (0, 1), BuildingBlock: ZUJKAS_clean_linker_0, # of connection points: 2
#     Edge 56, Type (0, 1), BuildingBlock: ZUJKAS_clean_linker_0, # of connection points: 2
#     Edge 57, Type (0, 1), BuildingBlock: ZUJKAS_clean_linker_0, # of connection points: 2
#     Edge 58, Type (0, 1), BuildingBlock: ZUJKAS_clean_linker_0, # of connection points: 2
#     Edge 59, Type (0, 1), BuildingBlock: ZUJKAS_clean_linker_0, # of connection points: 2
#     Edge 60, Type (0, 1), BuildingBlock: ZUJKAS_clean_linker_0, # of connection points: 2
#     Edge 61, Type (0, 1), BuildingBlock: ZUJKAS_clean_linker_0, # of connection points: 2
#     Edge 62, Type (0, 1), BuildingBlock: ZUJKAS_clean_linker_0, # of connection points: 2
#     Edge 63, Type (0, 1), BuildingBlock: ZUJKAS_clean_linker_0, # of connection points: 2
#     Edge 64, Type (0, 1), BuildingBlock: ZUJKAS_clean_linker_0, # of connection points: 2
#     Edge 65, Type (0, 1), BuildingBlock: ZUJKAS_clean_linker_0, # of connection points: 2
#     Edge 66, Type (0, 1), BuildingBlock: ZUJKAS_clean_linker_0, # of connection points: 2
#     Edge 67, Type (0, 1), BuildingBlock: ZUJKAS_clean_linker_0, # of connection points: 2
#     Edge 68, Type (0, 1), BuildingBlock: ZUJKAS_clean_linker_0, # of connection points: 2
#     Edge 69, Type (0, 1), BuildingBlock: ZUJKAS_clean_linker_0, # of connection points: 2
#     Edge 70, Type (0, 1), BuildingBlock: ZUJKAS_clean_linker_0, # of connection points: 2
#     Edge 71, Type (0, 1), BuildingBlock: ZUJKAS_clean_linker_0, # of connection points: 2
#     Edge 72, Type (0, 1), BuildingBlock: ZUJKAS_clean_linker_0, # of connection points: 2
#     Edge 73, Type (0, 1), BuildingBlock: ZUJKAS_clean_linker_0, # of connection points: 2
#     Edge 74, Type (0, 1), BuildingBlock: ZUJKAS_clean_linker_0, # of connection points: 2
#     Edge 75, Type (0, 1), BuildingBlock: ZUJKAS_clean_linker_0, # of connection points: 2
#     Edge 76, Type (0, 1), BuildingBlock: ZUJKAS_clean_linker_0, # of connection points: 2
#     Edge 77, Type (0, 1), BuildingBlock: ZUJKAS_clean_linker_0, # of connection points: 2
#     Edge 78, Type (0, 1), BuildingBlock: ZUJKAS_clean_linker_0, # of connection points: 2
#     Edge 79, Type (0, 1), BuildingBlock: ZUJKAS_clean_linker_0, # of connection points: 2
#     Edge 80, Type (0, 1), BuildingBlock: ZUJKAS_clean_linker_0, # of connection points: 2
#     Edge 81, Type (0, 1), BuildingBlock: ZUJKAS_clean_linker_0, # of connection points: 2
#     Edge 82, Type (0, 1), BuildingBlock: ZUJKAS_clean_linker_0, # of connection points: 2
#     Edge 83, Type (0, 1), BuildingBlock: ZUJKAS_clean_linker_0, # of connection points: 2
#     Edge 84, Type (0, 1), BuildingBlock: ZUJKAS_clean_linker_0, # of connection points: 2
#     Edge 85, Type (0, 1), BuildingBlock: ZUJKAS_clean_linker_0, # of connection points: 2
#     Edge 86, Type (0, 1), BuildingBlock: ZUJKAS_clean_linker_0, # of connection points: 2
#     Edge 87, Type (0, 1), BuildingBlock: ZUJKAS_clean_linker_0, # of connection points: 2
#     Edge 88, Type (0, 1), BuildingBlock: ZUJKAS_clean_linker_0, # of connection points: 2
#     Edge 89, Type (0, 1), BuildingBlock: ZUJKAS_clean_linker_0, # of connection points: 2
#     Edge 90, Type (0, 1), BuildingBlock: ZUJKAS_clean_linker_0, # of connection points: 2
#     Edge 91, Type (0, 1), BuildingBlock: ZUJKAS_clean_linker_0, # of connection points: 2
#     Edge 92, Type (0, 1), BuildingBlock: ZUJKAS_clean_linker_0, # of connection points: 2
#     Edge 93, Type (0, 1), BuildingBlock: ZUJKAS_clean_linker_0, # of connection points: 2
#     Edge 94, Type (0, 1), BuildingBlock: ZUJKAS_clean_linker_0, # of connection points: 2
#     Edge 95, Type (0, 1), BuildingBlock: ZUJKAS_clean_linker_0, # of connection points: 2
#     Edge 96, Type (0, 1), BuildingBlock: ZUJKAS_clean_linker_0, # of connection points: 2
#     Edge 97, Type (0, 1), BuildingBlock: ZUJKAS_clean_linker_0, # of connection points: 2
#     Edge 98, Type (0, 1), BuildingBlock: ZUJKAS_clean_linker_0, # of connection points: 2
#     Edge 99, Type (0, 1), BuildingBlock: ZUJKAS_clean_linker_0, # of connection points: 2
#     Edge 100, Type (0, 1), BuildingBlock: ZUJKAS_clean_linker_0, # of connection points: 2
#     Edge 101, Type (0, 1), BuildingBlock: ZUJKAS_clean_linker_0, # of connection points: 2
#     Edge 102, Type (0, 1), BuildingBlock: ZUJKAS_clean_linker_0, # of connection points: 2
#     Edge 103, Type (0, 1), BuildingBlock: ZUJKAS_clean_linker_0, # of connection points: 2
#     Edge 104, Type (0, 1), BuildingBlock: ZUJKAS_clean_linker_0, # of connection points: 2
#     Edge 105, Type (0, 1), BuildingBlock: ZUJKAS_clean_linker_0, # of connection points: 2
#     Edge 106, Type (0, 1), BuildingBlock: ZUJKAS_clean_linker_0, # of connection points: 2
#     Edge 107, Type (0, 1), BuildingBlock: ZUJKAS_clean_linker_0, # of connection points: 2
#     Edge 108, Type (0, 1), BuildingBlock: ZUJKAS_clean_linker_0, # of connection points: 2
#     Edge 109, Type (0, 1), BuildingBlock: ZUJKAS_clean_linker_0, # of connection points: 2
#     Edge 110, Type (0, 1), BuildingBlock: ZUJKAS_clean_linker_0, # of connection points: 2
#     Edge 111, Type (0, 1), BuildingBlock: ZUJKAS_clean_linker_0, # of connection points: 2
#     Edge 112, Type (0, 1), BuildingBlock: ZUJKAS_clean_linker_0, # of connection points: 2
#     Edge 113, Type (0, 1), BuildingBlock: ZUJKAS_clean_linker_0, # of connection points: 2
#     Edge 114, Type (0, 1), BuildingBlock: ZUJKAS_clean_linker_0, # of connection points: 2
#     Edge 115, Type (0, 1), BuildingBlock: ZUJKAS_clean_linker_0, # of connection points: 2
#     Edge 116, Type (0, 1), BuildingBlock: ZUJKAS_clean_linker_0, # of connection points: 2
#     Edge 117, Type (0, 1), BuildingBlock: ZUJKAS_clean_linker_0, # of connection points: 2
#     Edge 118, Type (0, 1), BuildingBlock: ZUJKAS_clean_linker_0, # of connection points: 2
#     Edge 119, Type (0, 1), BuildingBlock: ZUJKAS_clean_linker_0, # of connection points: 2
#     Edge 120, Type (0, 1), BuildingBlock: ZUJKAS_clean_linker_0, # of connection points: 2
#     Edge 121, Type (0, 1), BuildingBlock: ZUJKAS_clean_linker_0, # of connection points: 2
#     Edge 122, Type (0, 1), BuildingBlock: ZUJKAS_clean_linker_0, # of connection points: 2
#     Edge 123, Type (0, 1), BuildingBlock: ZUJKAS_clean_linker_0, # of connection points: 2
#     Edge 124, Type (0, 1), BuildingBlock: ZUJKAS_clean_linker_0, # of connection points: 2
#     Edge 125, Type (0, 1), BuildingBlock: ZUJKAS_clean_linker_0, # of connection points: 2
#     Edge 126, Type (0, 1), BuildingBlock: ZUJKAS_clean_linker_0, # of connection points: 2
#     Edge 127, Type (0, 1), BuildingBlock: ZUJKAS_clean_linker_0, # of connection points: 2
#     Edge 128, Type (0, 1), BuildingBlock: ZUJKAS_clean_linker_0, # of connection points: 2
#     Edge 129, Type (0, 1), BuildingBlock: ZUJKAS_clean_linker_0, # of connection points: 2
#     Edge 130, Type (0, 1), BuildingBlock: ZUJKAS_clean_linker_0, # of connection points: 2
#     Edge 131, Type (0, 1), BuildingBlock: ZUJKAS_clean_linker_0, # of connection points: 2
#     Edge 132, Type (0, 1), BuildingBlock: ZUJKAS_clean_linker_0, # of connection points: 2
#     Edge 133, Type (0, 1), BuildingBlock: ZUJKAS_clean_linker_0, # of connection points: 2
#     Edge 134, Type (0, 1), BuildingBlock: ZUJKAS_clean_linker_0, # of connection points: 2
#     Edge 135, Type (0, 1), BuildingBlock: ZUJKAS_clean_linker_0, # of connection points: 2
# Relax obj value: 0.170
# Max RMSD: 0.261
# Mean RMSD: 0.193
data_MOF--net-gar--node1-UXUYUI_clean_sbu_0--node2-BETDEL_clean_sbu_0--edge1-ZUJKAS_clean_linker_0
_symmetry_space_group_name_H-M    P1
_symmetry_Int_Tables_number       1
_symmetry_cell_setting            triclinic
loop_
_symmetry_equiv_pos_as_xyz
'x, y, z'
_cell_length_a     83.887522
_cell_length_b     81.226211
_cell_length_c     82.53225
_cell_angle_alpha  95.07782
_cell_angle_beta   92.543258
_cell_angle_gamma 99.957743
loop_
_atom_site_label
_atom_site_type_symbol
_atom_site_fract_x
_atom_site_fract_y
_atom_site_fract_z
_atom_type_partial_charge
Li0 Li 0.00236 0.26032 0.37622 0.0
Li1 Li 0.01554 0.28153 0.39646 0.0
Li2 Li 0.03133 0.26514 0.37819 0.0
Li3 Li 0.01477 0.2516 0.39958 0.0
C4 C 0.00991 0.293 0.36612 0.0
N5 N 0.99478 0.31666 0.35268 0.0
C6 C 0.99475 0.29558 0.37111 0.0
C7 C 0.01738 0.30244 0.3543 0.0
C8 C 0.9873 0.3076 0.36416 0.0
C9 C 0.00954 0.31435 0.34766 0.0
C10 C 0.99058 0.26631 0.41406 0.0
C11 C 0.99521 0.27169 0.44325 0.0
N12 N 0.97909 0.27152 0.44462 0.0
C13 C 0.97405 0.26615 0.41576 0.0
C14 C 0.00125 0.26909 0.42791 0.0
C15 C 0.96848 0.26882 0.43131 0.0
C16 C 0.96951 0.24975 0.36722 0.0
N17 N 0.98401 0.25563 0.36129 0.0
C18 C 0.97104 0.26147 0.33668 0.0
C19 C 0.98509 0.26072 0.34607 0.0
C20 C 0.95583 0.25684 0.34307 0.0
C21 C 0.95516 0.25014 0.35821 0.0
H22 H 0.96909 0.24571 0.37936 0.0
H23 H 0.99684 0.26535 0.34171 0.0
C24 C 0.0303 0.3141 0.40928 0.0
N25 N 0.01591 0.3033 0.40709 0.0
C26 C 0.031 0.33038 0.41669 0.0
C27 C 0.00204 0.32405 0.41933 0.0
C28 C 0.00189 0.30799 0.41177 0.0
C29 C 0.01673 0.33545 0.4219 0.0
H30 H 0.04122 0.31006 0.40523 0.0
H31 H 0.99052 0.29938 0.40947 0.0
C32 C 0.00821 0.23186 0.36469 0.0
N33 N 0.99028 0.20994 0.34041 0.0
C34 C 0.99567 0.21946 0.36866 0.0
C35 C 0.01169 0.2331 0.34839 0.0
C36 C 0.98673 0.2085 0.3562 0.0
C37 C 0.00247 0.22189 0.33629 0.0
C38 C 0.04707 0.2712 0.41252 0.0
C39 C 0.05926 0.26224 0.40806 0.0
C40 C 0.04879 0.28115 0.42742 0.0
C41 C 0.07286 0.26316 0.41872 0.0
C42 C 0.06257 0.28174 0.43775 0.0
N43 N 0.07421 0.2728 0.43323 0.0
C44 C 0.05866 0.28206 0.36486 0.0
C45 C 0.05535 0.25236 0.36072 0.0
C46 C 0.07254 0.28376 0.35602 0.0
N47 N 0.05042 0.26655 0.36695 0.0
C48 C 0.06915 0.25346 0.35178 0.0
C49 C 0.0779 0.26933 0.34927 0.0
H50 H 0.05433 0.2931 0.36993 0.0
H51 H 0.04851 0.2402 0.36266 0.0
C52 C 0.9982 0.22696 0.41747 0.0
N53 N 0.01329 0.23487 0.41451 0.0
C54 C 0.99625 0.21412 0.42777 0.0
C55 C 0.02541 0.21777 0.4318 0.0
C56 C 0.02679 0.23055 0.42143 0.0
C57 C 0.00998 0.20927 0.43498 0.0
H58 H 0.98766 0.23047 0.41164 0.0
H59 H 0.03863 0.23671 0.41864 0.0
O60 O 0.01732 0.28103 0.37243 0.0
O61 O 0.99616 0.26392 0.39885 0.0
O62 O 0.01685 0.24294 0.37668 0.0
O63 O 0.03376 0.27064 0.40216 0.0
H64 H 0.9887 0.28821 0.38007 0.0
H65 H 0.02908 0.30051 0.35025 0.0
H66 H 0.97554 0.30967 0.36785 0.0
H67 H 0.01516 0.32173 0.33848 0.0
H68 H 0.00335 0.27385 0.45406 0.0
H69 H 0.96563 0.2641 0.40515 0.0
H70 H 0.01403 0.26916 0.42685 0.0
H71 H 0.95572 0.26878 0.43279 0.0
H72 H 0.97214 0.26678 0.32512 0.0
H73 H 0.94368 0.24608 0.36342 0.0
H74 H 0.04256 0.33883 0.41851 0.0
H75 H 0.99074 0.3276 0.42292 0.0
H76 H 0.99279 0.2184 0.38122 0.0
H77 H 0.02127 0.24274 0.34512 0.0
H78 H 0.97694 0.19887 0.35908 0.0
H79 H 0.00497 0.22274 0.32361 0.0
H80 H 0.05814 0.25448 0.39658 0.0
H81 H 0.03961 0.28838 0.43098 0.0
H82 H 0.08233 0.2562 0.41548 0.0
H83 H 0.06403 0.28933 0.44934 0.0
H84 H 0.07883 0.29622 0.35423 0.0
H85 H 0.07301 0.24203 0.347 0.0
H86 H 0.98413 0.20798 0.42996 0.0
H87 H 0.03633 0.21422 0.43682 0.0
Li88 Li 0.00281 0.79395 0.62714 0.0
Li89 Li 0.01479 0.78078 0.64904 0.0
Li90 Li 0.99729 0.76384 0.62629 0.0
Li91 Li 0.98534 0.7797 0.64765 0.0
C92 C 0.03051 0.78593 0.61647 0.0
N93 N 0.05443 0.80149 0.59817 0.0
C94 C 0.04535 0.79414 0.62404 0.0
C95 C 0.0279 0.7855 0.59958 0.0
C96 C 0.05728 0.80195 0.61457 0.0
C97 C 0.04012 0.79349 0.59055 0.0
C98 C 0.00891 0.81124 0.66425 0.0
C99 C 0.01022 0.82014 0.69304 0.0
N100 N 0.02092 0.83417 0.69058 0.0
C101 C 0.01979 0.82585 0.662 0.0
C102 C 0.00396 0.80845 0.67988 0.0
C103 C 0.02577 0.83725 0.67547 0.0
C104 C 0.99301 0.81378 0.60362 0.0
N105 N 0.00563 0.81225 0.61395 0.0
C106 C 0.02195 0.83634 0.60472 0.0
C107 C 0.01989 0.82326 0.61475 0.0
C108 C 0.00915 0.83818 0.59385 0.0
C109 C 0.99451 0.82669 0.5934 0.0
H110 H 0.98173 0.80499 0.60334 0.0
H111 H 0.02975 0.82184 0.62305 0.0
C112 C 0.03664 0.76364 0.66127 0.0
N113 N 0.03318 0.77941 0.66265 0.0
C114 C 0.04992 0.76 0.67003 0.0
C115 C 0.05607 0.789 0.68147 0.0
C116 C 0.04253 0.79207 0.6725 0.0
C117 C 0.05988 0.77276 0.68025 0.0
H118 H 0.0291 0.7539 0.65316 0.0
H119 H 0.03969 0.80455 0.67328 0.0
C120 C 0.97094 0.76942 0.61164 0.0
N121 N 0.95054 0.74959 0.58762 0.0
C122 C 0.95581 0.76096 0.61543 0.0
C123 C 0.97563 0.76795 0.59561 0.0
C124 C 0.94568 0.75096 0.60311 0.0
C125 C 0.96517 0.75781 0.58365 0.0
C126 C 0.99427 0.75276 0.66329 0.0
C127 C 0.98615 0.7361 0.66171 0.0
C128 C -0.00045 0.76072 0.67878 0.0
C129 C 0.98313 0.72781 0.67569 0.0
C130 C 0.99633 0.75201 0.69246 0.0
N131 N 0.98823 0.73588 0.69065 0.0
C132 C 0.00728 0.74026 0.60398 0.0
C133 C 0.98179 0.73082 0.61443 0.0
C134 C 0.00702 0.72454 0.59562 0.0
N135 N 0.99485 0.74305 0.61324 0.0
C136 C 0.98104 0.71485 0.6063 0.0
C137 C 0.99389 0.7115 0.59692 0.0
H138 H 0.01768 0.75008 0.60353 0.0
H139 H 0.97217 0.73333 0.62206 0.0
C140 C 0.96367 0.79487 0.66654 0.0
N141 N 0.96701 0.77993 0.66018 0.0
C142 C 0.95056 0.79529 0.6763 0.0
C143 C 0.94427 0.76496 0.67229 0.0
C144 C 0.95754 0.76513 0.66267 0.0
C145 C 0.94072 0.78018 0.67933 0.0
H146 H 0.97124 0.80646 0.66408 0.0
H147 H 0.96025 0.75346 0.65713 0.0
O148 O 0.01866 0.77826 0.62554 0.0
O149 O 0.0028 0.80004 0.65114 0.0
O150 O 0.98112 0.77908 0.62356 0.0
O151 O 0.99728 0.76105 0.6497 0.0
H152 H 0.0476 0.79459 0.63708 0.0
H153 H 0.01651 0.77915 0.59352 0.0
H154 H 0.06879 0.80842 0.62027 0.0
H155 H 0.03822 0.79334 0.57748 0.0
H156 H 0.00652 0.81808 0.7052 0.0
H157 H 0.02362 0.82836 0.65002 0.0
H158 H 0.99526 0.79746 0.68186 0.0
H159 H 0.03426 0.84856 0.6739 0.0
H160 H 0.0335 0.84479 0.60537 0.0
H161 H 0.98423 0.82781 0.58543 0.0
H162 H 0.05261 0.7474 0.66846 0.0
H163 H 0.06347 0.79918 0.68923 0.0
H164 H 0.95195 0.76205 0.62774 0.0
H165 H 0.98727 0.77448 0.59248 0.0
H166 H 0.93397 0.74427 0.60588 0.0
H167 H 0.96869 0.75647 0.57122 0.0
H168 H 0.98212 0.72965 0.64983 0.0
H169 H 0.00623 0.77341 0.68023 0.0
H170 H 0.97676 0.71496 0.67464 0.0
H171 H 0.00033 0.75806 0.70451 0.0
H172 H 0.01731 0.72243 0.58874 0.0
H173 H 0.97064 0.70518 0.60752 0.0
H174 H 0.94804 0.80731 0.68126 0.0
H175 H 0.937 0.75303 0.67434 0.0
Li176 Li 0.50486 0.76459 0.87605 0.0
Li177 Li 0.52048 0.783 0.89828 0.0
Li178 Li 0.53348 0.76525 0.87939 0.0
Li179 Li 0.51616 0.75326 0.89966 0.0
C180 C 0.53252 0.79264 0.86502 0.0
N181 N 0.55473 0.80964 0.84587 0.0
C182 C 0.5433 0.80696 0.87171 0.0
C183 C 0.53298 0.78702 0.84856 0.0
C184 C 0.55443 0.81538 0.86182 0.0
C185 C 0.54433 0.79576 0.8391 0.0
C186 C 0.49084 0.77757 0.9078 0.0
C187 C 0.48551 0.79218 0.93318 0.0
N188 N 0.47436 0.79929 0.92512 0.0
C189 C 0.47929 0.78499 0.89978 0.0
C190 C 0.49393 0.78113 0.92465 0.0
C191 C 0.4711 0.79594 0.90875 0.0
C192 C 0.47276 0.75287 0.86209 0.0
N193 N 0.48679 0.76394 0.86127 0.0
C194 C 0.47382 0.77959 0.84322 0.0
C195 C 0.48763 0.77689 0.8518 0.0
C196 C 0.45903 0.76886 0.84443 0.0
C197 C 0.45864 0.755 0.85352 0.0
H198 H 0.47231 0.74303 0.87015 0.0
H199 H 0.49878 0.78578 0.85171 0.0
C200 C 0.53021 0.80962 0.92392 0.0
N201 N 0.52183 0.8047 0.90933 0.0
C202 C 0.53022 0.82564 0.93165 0.0
C203 C 0.5132 0.83117 0.90906 0.0
C204 C 0.51353 0.81511 0.9018 0.0
C205 C 0.52158 0.83663 0.92421 0.0
H206 H 0.5368 0.8011 0.92957 0.0
H207 H 0.50698 0.81079 0.89018 0.0
C208 C 0.50607 0.73347 0.86608 0.0
N209 N 0.48451 0.71039 0.84562 0.0
C210 C 0.49579 0.72051 0.87247 0.0
C211 C 0.5054 0.73467 0.84928 0.0
C212 C 0.48499 0.70896 0.86192 0.0
C213 C 0.4944 0.72289 0.83914 0.0
C214 C 0.54491 0.76255 0.91502 0.0
C215 C 0.5568 0.75313 0.9107 0.0
C216 C 0.54074 0.7642 0.93122 0.0
C217 C 0.56423 0.7454 0.92268 0.0
C218 C 0.54842 0.75623 0.94283 0.0
N219 N 0.55991 0.74707 0.93835 0.0
C220 C 0.56578 0.77616 0.87236 0.0
C221 C 0.55201 0.75272 0.85497 0.0
C222 C 0.57931 0.77714 0.86304 0.0
N223 N 0.55241 0.76431 0.86797 0.0
C224 C 0.56532 0.75316 0.84537 0.0
C225 C 0.57907 0.76568 0.84921 0.0
H226 H 0.56574 0.78513 0.88285 0.0
H227 H 0.54122 0.74341 0.85183 0.0
C228 C 0.50288 0.73557 0.92579 0.0
N229 N 0.51332 0.73576 0.91365 0.0
C230 C 0.5015 0.7228 0.93621 0.0
C231 C 0.52143 0.71061 0.92121 0.0
C232 C 0.52239 0.72355 0.9111 0.0
C233 C 0.51094 0.71016 0.93404 0.0
H234 H 0.49569 0.74534 0.92743 0.0
H235 H 0.53043 0.72394 0.90119 0.0
O236 O 0.52179 0.78396 0.87458 0.0
O237 O 0.49925 0.76709 0.89919 0.0
O238 O 0.51671 0.74495 0.87621 0.0
O239 O 0.53728 0.76996 0.90342 0.0
H240 H 0.54322 0.81141 0.88444 0.0
H241 H 0.5248 0.77588 0.84322 0.0
H242 H 0.5629 0.82644 0.86685 0.0
H243 H 0.54491 0.79147 0.82639 0.0
H244 H 0.48788 0.79515 0.94619 0.0
H245 H 0.47677 0.78249 0.88676 0.0
H246 H 0.50295 0.77566 0.93103 0.0
H247 H 0.46219 0.80183 0.90269 0.0
H248 H 0.47451 0.79042 0.83633 0.0
H249 H 0.44734 0.74662 0.85488 0.0
H250 H 0.53701 0.82943 0.94324 0.0
H251 H 0.5062 0.83911 0.903 0.0
H252 H 0.49607 0.71942 0.88544 0.0
H253 H 0.51314 0.74472 0.84414 0.0
H254 H 0.47694 0.69889 0.8667 0.0
H255 H 0.49369 0.72372 0.82613 0.0
H256 H 0.56013 0.75167 0.89821 0.0
H257 H 0.53148 0.77134 0.93475 0.0
H258 H 0.5734 0.73801 0.91951 0.0
H259 H 0.54521 0.75728 0.95538 0.0
H260 H 0.5898 0.78681 0.86654 0.0
H261 H 0.56465 0.74414 0.83477 0.0
H262 H 0.4933 0.72296 0.94597 0.0
H263 H 0.52868 0.70094 0.91887 0.0
Li264 Li 0.50192 0.29509 0.12627 0.0
Li265 Li 0.51451 0.2831 0.14771 0.0
Li266 Li 0.49743 0.26489 0.12689 0.0
Li267 Li 0.48554 0.28213 0.1485 0.0
C268 C 0.52779 0.28603 0.11284 0.0
N269 N 0.54775 0.29862 0.0894 0.0
C270 C 0.54265 0.29649 0.11745 0.0
C271 C 0.52317 0.28183 0.09631 0.0
C272 C 0.55256 0.30275 0.10542 0.0
C273 C 0.5334 0.28837 0.08465 0.0
C274 C 0.51172 0.31295 0.16242 0.0
C275 C 0.5148 0.32575 0.19014 0.0
N276 N 0.52972 0.33414 0.18721 0.0
C277 C 0.52704 0.32176 0.15965 0.0
C278 C 0.50551 0.31497 0.17777 0.0
C279 C 0.53597 0.33238 0.17236 0.0
C280 C 0.48997 0.31311 0.10224 0.0
N281 N 0.50327 0.31253 0.11207 0.0
C282 C 0.518 0.33664 0.10135 0.0
C283 C 0.51707 0.32409 0.11195 0.0
C284 C 0.50446 0.33753 0.09108 0.0
C285 C 0.49028 0.32561 0.09163 0.0
H286 H 0.47906 0.30395 0.10273 0.0
H287 H 0.52735 0.32366 0.12012 0.0
C288 C 0.54444 0.27447 0.15266 0.0
N289 N 0.53386 0.28268 0.16066 0.0
C290 C 0.5584 0.27156 0.16078 0.0
C291 C 0.55028 0.28519 0.18551 0.0
C292 C 0.53643 0.28793 0.17684 0.0
C293 C 0.56146 0.27692 0.17742 0.0
H294 H 0.54177 0.26969 0.14002 0.0
H295 H 0.52753 0.29369 0.18318 0.0
C296 C 0.46899 0.26993 0.11362 0.0
N297 N 0.44555 0.25042 0.09217 0.0
C298 C 0.4541 0.26282 0.11918 0.0
C299 C 0.4719 0.26728 0.09714 0.0
C300 C 0.44241 0.25296 0.10814 0.0
C301 C 0.45992 0.25732 0.08649 0.0
C302 C 0.50338 0.25681 0.16351 0.0
C303 C 0.51225 0.24387 0.16087 0.0
C304 C 0.50119 0.26308 0.17942 0.0
C305 C 0.51891 0.23746 0.17426 0.0
C306 C 0.50801 0.25631 0.19249 0.0
N307 N 0.51667 0.24376 0.18966 0.0
C308 C 0.50929 0.23947 0.10935 0.0
C309 C 0.48138 0.23205 0.11385 0.0
C310 C 0.50947 0.22346 0.10185 0.0
N311 N 0.49539 0.24347 0.11509 0.0
C312 C 0.48094 0.21592 0.10621 0.0
C313 C 0.49516 0.21139 0.10017 0.0
H314 H 0.52041 0.24858 0.11103 0.0
H315 H 0.47063 0.23533 0.11907 0.0
C316 C 0.46165 0.29675 0.16471 0.0
N317 N 0.46768 0.28241 0.16145 0.0
C318 C 0.44851 0.29679 0.17452 0.0
C319 C 0.44806 0.26729 0.17724 0.0
C320 C 0.46114 0.26781 0.16735 0.0
C321 C 0.44161 0.28192 0.18097 0.0
H322 H 0.46713 0.30814 0.15977 0.0
H323 H 0.46609 0.25656 0.16433 0.0
O324 O 0.51791 0.2798 0.12444 0.0
O325 O 0.50271 0.30263 0.1501 0.0
O326 O 0.48059 0.27959 0.12425 0.0
O327 O 0.49706 0.26349 0.15056 0.0
H328 H 0.54642 0.29992 0.13019 0.0
H329 H 0.51181 0.2736 0.09254 0.0
H330 H 0.56404 0.31094 0.10882 0.0
H331 H 0.52994 0.28528 0.07181 0.0
H332 H 0.51017 0.3274 0.20209 0.0
H333 H 0.53207 0.32026 0.1479 0.0
H334 H 0.4937 0.30821 0.18014 0.0
H335 H 0.54789 0.3392 0.17042 0.0
H336 H 0.52906 0.34581 0.10147 0.0
H337 H 0.47958 0.32593 0.08391 0.0
H338 H 0.56649 0.26473 0.15419 0.0
H339 H 0.55217 0.2894 0.19838 0.0
H340 H 0.4516 0.26483 0.13187 0.0
H341 H 0.4833 0.27283 0.09262 0.0
H342 H 0.43085 0.24732 0.11227 0.0
H343 H 0.46204 0.25509 0.07371 0.0
H344 H 0.51409 0.23894 0.1486 0.0
H345 H 0.49452 0.27325 0.18166 0.0
H346 H 0.52588 0.22749 0.17242 0.0
H347 H 0.5065 0.2611 0.20487 0.0
H348 H 0.52084 0.22047 0.09782 0.0
H349 H 0.46959 0.2071 0.10513 0.0
H350 H 0.44393 0.30834 0.17719 0.0
H351 H 0.4429 0.25551 0.1817 0.0
Li352 Li 0.01889 0.7968 0.12943 0.0
Li353 Li 0.03316 0.78449 0.15058 0.0
Li354 Li 0.01662 0.76608 0.12831 0.0
Li355 Li 0.00411 0.78044 0.15056 0.0
C356 C 0.04385 0.78471 0.11267 0.0
N357 N 0.05907 0.78726 0.08375 0.0
C358 C 0.06058 0.79033 0.11286 0.0
C359 C 0.0349 0.78024 0.09778 0.0
C360 C 0.06804 0.79159 0.09811 0.0
C361 C 0.0428 0.78164 0.08329 0.0
C362 C 0.02945 0.81323 0.16464 0.0
C363 C 0.04064 0.82123 0.19219 0.0
N364 N 0.05008 0.83494 0.1871 0.0
C365 C 0.03919 0.82742 0.15968 0.0
C366 C 0.03008 0.81012 0.18102 0.0
C367 C 0.04956 0.83824 0.17123 0.0
C368 C 0.00398 0.81964 0.11399 0.0
N369 N 0.01856 0.81491 0.11657 0.0
C370 C 0.03102 0.83498 0.09942 0.0
C371 C 0.03205 0.82248 0.10979 0.0
C372 C 0.016 0.83986 0.09618 0.0
C373 C 0.0024 0.83214 0.1038 0.0
H374 H 0.9935 0.8135 0.11971 0.0
H375 H 0.04358 0.81874 0.11229 0.0
C376 C 0.05421 0.77508 0.17401 0.0
N377 N 0.05295 0.7867 0.16338 0.0
C378 C 0.06896 0.77502 0.18246 0.0
C379 C 0.08086 0.79907 0.16904 0.0
C380 C 0.06583 0.79866 0.16084 0.0
C381 C 0.0826 0.78699 0.17987 0.0
H382 H 0.0439 0.7655 0.17554 0.0
H383 H 0.06453 0.80763 0.15215 0.0
C384 C 0.987 0.773 0.11478 0.0
N385 N 0.96272 0.7604 0.0909 0.0
C386 C 0.97331 0.76183 0.11844 0.0
C387 C 0.98822 0.77796 0.09902 0.0
C388 C 0.96119 0.75555 0.10619 0.0
C389 C 0.97586 0.77139 0.08711 0.0
C390 C 0.00982 0.75165 0.16104 0.0
C391 C 0.00164 0.73616 0.15364 0.0
C392 C 0.00948 0.75538 0.17787 0.0
C393 C 0.99315 0.72469 0.16322 0.0
C394 C 0.00083 0.74358 0.18702 0.0
N395 N 0.99291 0.72861 0.17957 0.0
C396 C 0.03222 0.74275 0.11294 0.0
C397 C 0.00413 0.73699 0.10522 0.0
C398 C 0.03484 0.7292 0.10249 0.0
N399 N 0.01711 0.74651 0.11399 0.0
C400 C 0.00615 0.72312 0.09475 0.0
C401 C 0.02171 0.71909 0.09324 0.0
H402 H 0.04232 0.75044 0.12016 0.0
H403 H 0.99219 0.73999 0.10641 0.0
C404 C 0.98461 0.7951 0.17206 0.0
N405 N 0.98599 0.78015 0.16396 0.0
C406 C 0.97159 0.79637 0.18177 0.0
C407 C 0.9616 0.76676 0.17477 0.0
C408 C 0.97478 0.76609 0.1651 0.0
C409 C 0.95982 0.78209 0.18317 0.0
H410 H 0.99357 0.80614 0.17088 0.0
H411 H 0.97596 0.75436 0.15844 0.0
O412 O 0.03637 0.78351 0.12703 0.0
O413 O 0.01944 0.80233 0.15349 0.0
O414 O -0.00111 0.77942 0.12669 0.0
O415 O 0.01825 0.76301 0.15188 0.0
H416 H 0.06772 0.79374 0.12428 0.0
H417 H 0.02203 0.77558 0.09741 0.0
H418 H 0.08097 0.79598 0.09808 0.0
H419 H 0.036 0.77823 0.07168 0.0
H420 H 0.04134 0.81894 0.20489 0.0
H421 H 0.03883 0.82997 0.14703 0.0
H422 H 0.0226 0.79917 0.18503 0.0
H423 H 0.05723 0.84924 0.16757 0.0
H424 H 0.04181 0.84052 0.09378 0.0
H425 H 0.99067 0.83576 0.102 0.0
H426 H 0.0698 0.76529 0.19046 0.0
H427 H 0.09102 0.80859 0.16678 0.0
H428 H 0.97211 0.75789 0.13054 0.0
H429 H 0.99852 0.78687 0.09599 0.0
H430 H 0.95059 0.7468 0.10884 0.0
H431 H 0.97669 0.77508 0.07485 0.0
H432 H 0.00181 0.73305 0.14064 0.0
H433 H 0.01571 0.76733 0.18378 0.0
H434 H 0.98673 0.71267 0.15766 0.0
H435 H 0.00039 0.74634 0.20004 0.0
H436 H 0.04708 0.72678 0.1016 0.0
H437 H 0.99561 0.7155 0.08813 0.0
H438 H 0.97076 0.8084 0.18815 0.0
H439 H 0.9527 0.75548 0.17534 0.0
Li440 Li 0.50423 0.77956 0.40195 0.0
Li441 Li 0.48736 0.76363 0.37968 0.0
Li442 Li 0.50243 0.74919 0.39833 0.0
Li443 Li 0.51559 0.76586 0.37853 0.0
C444 C 0.48108 0.76094 0.41908 0.0
N445 N 0.47311 0.75844 0.451 0.0
C446 C 0.46485 0.75858 0.42294 0.0
C447 C 0.49327 0.76206 0.43145 0.0
C448 C 0.46106 0.75735 0.43915 0.0
C449 C 0.48899 0.76075 0.44751 0.0
C450 C 0.49498 0.79298 0.36876 0.0
C451 C 0.48333 0.79576 0.3421 0.0
N452 N 0.47708 0.80914 0.34842 0.0
C453 C 0.48861 0.8069 0.37494 0.0
C454 C 0.49249 0.78749 0.35216 0.0
C455 C 0.47954 0.81485 0.36448 0.0
C456 C 0.51733 0.80507 0.42846 0.0
N457 N 0.50445 0.79791 0.41809 0.0
C458 C 0.48787 0.81592 0.43061 0.0
C459 C 0.48985 0.8029 0.41916 0.0
C460 C 0.50104 0.82386 0.44121 0.0
C461 C 0.5159 0.8182 0.44012 0.0
H462 H 0.52868 0.80061 0.42786 0.0
H463 H 0.47972 0.79676 0.41098 0.0
C464 C 0.46297 0.75412 0.35364 0.0
N465 N 0.46695 0.76272 0.36856 0.0
C466 C 0.44788 0.75414 0.34578 0.0
C467 C 0.44126 0.77154 0.36897 0.0
C468 C 0.4565 0.7713 0.3763 0.0
C469 C 0.43681 0.76292 0.35349 0.0
H470 H 0.47152 0.74735 0.34783 0.0
H471 H 0.46009 0.77807 0.38814 0.0
C472 C 0.53683 0.77678 0.40623 0.0
N473 N 0.5662 0.79784 0.41442 0.0
C474 C 0.54133 0.79107 0.39802 0.0
C475 C 0.54727 0.77326 0.41862 0.0
C476 C 0.55624 0.80153 0.40233 0.0
C477 C 0.56206 0.78406 0.42258 0.0
C478 C 0.50626 0.73552 0.36337 0.0
C479 C 0.51403 0.7228 0.36847 0.0
C480 C 0.50627 0.73875 0.347 0.0
C481 C 0.52191 0.71372 0.35718 0.0
C482 C 0.51432 0.72943 0.33609 0.0
N483 N 0.52192 0.71722 0.34136 0.0
C484 C 0.48805 0.7204 0.41274 0.0
C485 C 0.51668 0.72776 0.41655 0.0
C486 C 0.48798 0.70725 0.42256 0.0
N487 N 0.50227 0.73035 0.41008 0.0
C488 C 0.51718 0.71481 0.42645 0.0
C489 C 0.50269 0.70441 0.42966 0.0
H490 H 0.47677 0.72285 0.40744 0.0
H491 H 0.52776 0.73589 0.41415 0.0
C492 C 0.5355 0.77701 0.35281 0.0
N493 N 0.53355 0.76683 0.36506 0.0
C494 C 0.54861 0.7769 0.34295 0.0
C495 C 0.55746 0.756 0.35862 0.0
C496 C 0.5443 0.75663 0.36825 0.0
C497 C 0.55971 0.76618 0.34573 0.0
H498 H 0.5269 0.78518 0.35069 0.0
H499 H 0.54255 0.74887 0.37824 0.0
O500 O 0.48491 0.76218 0.40323 0.0
O501 O 0.50365 0.78483 0.37888 0.0
O502 O 0.52236 0.7662 0.4022 0.0
O503 O 0.49876 0.74477 0.37433 0.0
H504 H 0.45528 0.75771 0.4135 0.0
H505 H 0.50591 0.76392 0.42872 0.0
H506 H 0.44855 0.75551 0.44232 0.0
H507 H 0.4983 0.76158 0.4572 0.0
H508 H 0.48116 0.7915 0.32927 0.0
H509 H 0.49071 0.81159 0.38765 0.0
H510 H 0.49736 0.7768 0.34715 0.0
H511 H 0.47448 0.82558 0.36913 0.0
H512 H 0.47624 0.81998 0.43089 0.0
H513 H 0.52629 0.82383 0.44823 0.0
H514 H 0.44483 0.74723 0.3339 0.0
H515 H 0.43315 0.77861 0.37522 0.0
H516 H 0.53345 0.79412 0.38847 0.0
H517 H 0.54396 0.76234 0.42519 0.0
H518 H 0.55987 0.8126 0.39607 0.0
H519 H 0.57023 0.78148 0.43216 0.0
H520 H 0.51411 0.72006 0.38105 0.0
H521 H 0.50031 0.74849 0.3428 0.0
H522 H 0.52806 0.70393 0.36099 0.0
H523 H 0.51456 0.73192 0.32344 0.0
H524 H 0.47656 0.69939 0.42454 0.0
H525 H 0.52877 0.71321 0.4318 0.0
H526 H 0.54993 0.78495 0.33313 0.0
H527 H 0.5659 0.7478 0.36138 0.0
Li528 Li 0.51623 0.29578 0.62853 0.0
Li529 Li 0.53184 0.28421 0.64901 0.0
Li530 Li 0.51524 0.26579 0.62601 0.0
Li531 Li 0.50207 0.27854 0.64891 0.0
C532 C 0.54282 0.29219 0.61376 0.0
N533 N 0.55917 0.3099 0.59061 0.0
C534 C 0.55749 0.30307 0.61812 0.0
C535 C 0.53659 0.29013 0.59758 0.0
C536 C 0.56555 0.31195 0.60625 0.0
C537 C 0.54499 0.29925 0.58607 0.0
C538 C 0.52253 0.31028 0.66682 0.0
C539 C 0.52522 0.31383 0.69619 0.0
N540 N 0.53364 0.32964 0.69564 0.0
C541 C 0.53106 0.32662 0.66654 0.0
C542 C 0.51945 0.30387 0.68175 0.0
C543 C 0.53664 0.33619 0.68124 0.0
C544 C 0.50204 0.31379 0.60625 0.0
N545 N 0.51535 0.31443 0.61643 0.0
C546 C 0.52713 0.34113 0.60831 0.0
C547 C 0.52774 0.32778 0.61775 0.0
C548 C 0.51358 0.34073 0.59756 0.0
C549 C 0.50091 0.32684 0.59662 0.0
H550 H 0.49228 0.30313 0.60558 0.0
H551 H 0.53812 0.32803 0.62606 0.0
C552 C 0.55565 0.27239 0.66693 0.0
N553 N 0.55168 0.28668 0.6618 0.0
C554 C 0.57054 0.27273 0.67525 0.0
C555 C 0.57725 0.3025 0.6726 0.0
C556 C 0.56208 0.30161 0.6645 0.0
C557 C 0.58162 0.28789 0.67802 0.0
H558 H 0.54742 0.26058 0.66417 0.0
H559 H 0.55882 0.31273 0.65996 0.0
C560 C 0.48529 0.26767 0.61453 0.0
N561 N 0.46254 0.24688 0.59324 0.0
C562 C 0.47205 0.25758 0.6205 0.0
C563 C 0.48687 0.26729 0.59771 0.0
C564 C 0.46069 0.24713 0.60955 0.0
C565 C 0.47527 0.25666 0.58716 0.0
C566 C 0.51209 0.25053 0.66004 0.0
C567 C 0.5035 0.23468 0.65408 0.0
C568 C 0.51569 0.25429 0.6768 0.0
C569 C 0.49842 0.22294 0.66502 0.0
C570 C 0.51038 0.24222 0.68735 0.0
N571 N 0.50192 0.22693 0.68129 0.0
C572 C 0.53055 0.24677 0.60421 0.0
C573 C 0.50345 0.23377 0.6072 0.0
C574 C 0.53285 0.23348 0.59324 0.0
N575 N 0.51603 0.24676 0.6109 0.0
C576 C 0.50525 0.22011 0.59631 0.0
C577 C 0.52016 0.21983 0.58925 0.0
H578 H 0.54049 0.25703 0.60755 0.0
H579 H 0.49212 0.2338 0.61289 0.0
C580 C 0.47952 0.2926 0.66628 0.0
N581 N 0.48394 0.27749 0.66236 0.0
C582 C 0.46628 0.29378 0.67567 0.0
C583 C 0.46214 0.26373 0.67676 0.0
C584 C 0.47555 0.26315 0.66738 0.0
C585 C 0.45729 0.27921 0.68097 0.0
H586 H 0.48627 0.3038 0.662 0.0
H587 H 0.47893 0.2512 0.6638 0.0
O588 O 0.53459 0.2836 0.62526 0.0
O589 O 0.51706 0.30069 0.65253 0.0
O590 O 0.4965 0.27802 0.62507 0.0
O591 O 0.51726 0.26213 0.64949 0.0
H592 H 0.56256 0.30472 0.63054 0.0
H593 H 0.52535 0.28164 0.59397 0.0
H594 H 0.57686 0.32049 0.60948 0.0
H595 H 0.54024 0.29787 0.57352 0.0
H596 H 0.52296 0.30901 0.70783 0.0
H597 H 0.53344 0.33182 0.65509 0.0
H598 H 0.5126 0.29139 0.6822 0.0
H599 H 0.54335 0.34881 0.6812 0.0
H600 H 0.53705 0.35172 0.60959 0.0
H601 H 0.4903 0.32597 0.5884 0.0
H602 H 0.57359 0.26114 0.67898 0.0
H603 H 0.58551 0.31441 0.6745 0.0
H604 H 0.47057 0.25773 0.63344 0.0
H605 H 0.49695 0.27509 0.59284 0.0
H606 H 0.45043 0.23921 0.61402 0.0
H607 H 0.4764 0.25619 0.57412 0.0
H608 H 0.5007 0.23151 0.64116 0.0
H609 H 0.52264 0.26633 0.68162 0.0
H610 H 0.49169 0.21067 0.66057 0.0
H611 H 0.51305 0.24499 0.70035 0.0
H612 H 0.54451 0.23388 0.588 0.0
H613 H 0.49522 0.20971 0.59381 0.0
H614 H 0.46315 0.30601 0.67877 0.0
H615 H 0.45541 0.25213 0.68032 0.0
Li616 Li 0.00338 0.2807 0.90334 0.0
Li617 Li 0.98633 0.26397 0.88145 0.0
Li618 Li 0.00137 0.25028 0.90192 0.0
Li619 Li 0.01496 0.2656 0.88136 0.0
C620 C 0.97815 0.26678 0.91998 0.0
N621 N 0.9669 0.27439 0.95019 0.0
C622 C 0.9631 0.2718 0.92116 0.0
C623 C 0.98749 0.26563 0.93415 0.0
C624 C 0.95762 0.27559 0.93655 0.0
C625 C 0.98158 0.26953 0.94932 0.0
C626 C 0.99664 0.29287 0.86841 0.0
C627 C 0.98558 0.29376 0.84107 0.0
N628 N 0.98315 0.30969 0.84514 0.0
C629 C 0.99423 0.30933 0.87225 0.0
C630 C 0.99248 0.2851 0.85263 0.0
C631 C 0.98733 0.31759 0.86034 0.0
C632 C 0.01404 0.30437 0.93157 0.0
N633 N 0.00341 0.29981 0.91835 0.0
C634 C 0.98799 0.32068 0.9271 0.0
C635 C 0.99054 0.30761 0.916 0.0
C636 C 0.99871 0.32571 0.94088 0.0
C637 C 0.01197 0.31747 0.94301 0.0
H638 H 0.02383 0.29757 0.93351 0.0
H639 H 0.982 0.30333 0.90567 0.0
C640 C 0.95968 0.24973 0.85887 0.0
N641 N 0.96611 0.26291 0.86988 0.0
C642 C 0.94471 0.24947 0.85062 0.0
C643 C 0.94339 0.27633 0.86521 0.0
C644 C 0.95825 0.27597 0.87329 0.0
C645 C 0.93645 0.26297 0.8537 0.0
H646 H 0.96619 0.23946 0.8565 0.0
H647 H 0.9636 0.28617 0.88226 0.0
C648 C 0.03579 0.27801 0.90902 0.0
N649 N 0.06516 0.29928 0.91653 0.0
C650 C 0.03972 0.29258 0.90111 0.0
C651 C 0.04681 0.27429 0.92076 0.0
C652 C 0.05462 0.30316 0.90507 0.0
C653 C 0.06159 0.28519 0.92438 0.0
C654 C 0.00525 0.23501 0.8672 0.0
C655 C 0.01499 0.22424 0.87305 0.0
C656 C 0.0032 0.23591 0.85042 0.0
C657 C 0.02278 0.21476 0.86202 0.0
C658 C 0.01121 0.22624 0.83978 0.0
N659 N 0.02077 0.21597 0.84575 0.0
C660 C 0.98592 0.22295 0.91761 0.0
C661 C 0.01464 0.22866 0.92096 0.0
C662 C 0.98523 0.2097 0.92738 0.0
N663 N 0.00049 0.23205 0.91462 0.0
C664 C 0.01452 0.21555 0.9308 0.0
C665 C -0.00032 0.20588 0.93412 0.0
H666 H 0.97487 0.22608 0.91246 0.0
H667 H 0.02602 0.23609 0.91827 0.0
C668 C 0.03427 0.27366 0.85439 0.0
N669 N 0.03311 0.26562 0.86816 0.0
C670 C 0.04751 0.27309 0.84478 0.0
C671 C 0.05812 0.2561 0.86378 0.0
C672 C 0.04474 0.25706 0.87304 0.0
C673 C 0.05964 0.26416 0.84942 0.0
H674 H 0.02493 0.28045 0.85081 0.0
H675 H 0.04355 0.25087 0.88412 0.0
O676 O 0.98395 0.26355 0.90502 0.0
O677 O 0.00315 0.28448 0.88001 0.0
O678 O 0.0213 0.26734 0.90536 0.0
O679 O 0.99785 0.24469 0.87786 0.0
H680 H 0.95578 0.27285 0.91029 0.0
H681 H -0.0007 0.26204 0.93345 0.0
H682 H 0.946 0.27953 0.93766 0.0
H683 H 0.98871 0.26877 0.96039 0.0
H684 H 0.98214 0.2878 0.82888 0.0
H685 H 0.99778 0.31573 0.88424 0.0
H686 H 0.99436 0.27243 0.84942 0.0
H687 H 0.98533 0.33031 0.86318 0.0
H688 H 0.97772 0.3268 0.92486 0.0
H689 H 0.0204 0.32084 0.95358 0.0
H690 H 0.93976 0.23899 0.84176 0.0
H691 H 0.9373 0.28686 0.86807 0.0
H692 H 0.03142 0.29575 0.89199 0.0
H693 H 0.04396 0.2631 0.92704 0.0
H694 H 0.05782 0.31446 0.89903 0.0
H695 H 0.07022 0.28246 0.93345 0.0
H696 H 0.0167 0.22338 0.88599 0.0
H697 H 0.99555 0.24399 0.84564 0.0
H698 H 0.03046 0.20649 0.86639 0.0
H699 H 0.00983 0.2269 0.82677 0.0
H700 H 0.97353 0.20263 0.92976 0.0
H701 H 0.02595 0.21285 0.93552 0.0
H702 H 0.04815 0.2794 0.83374 0.0
H703 H 0.0673 0.24931 0.86796 0.0
Li704 Li 0.39628 0.03846 0.28305 0.0
Li705 Li 0.37504 0.02252 0.26415 0.0
Li706 Li 0.40033 0.03833 0.25514 0.0
Li707 Li 0.3797 0.05355 0.26623 0.0
C708 C 0.40552 0.00938 0.27726 0.0
N709 N 0.4216 0.99155 0.29762 0.0
C710 C 0.39745 0.99443 0.28249 0.0
C711 C 0.42187 0.01509 0.28216 0.0
C712 C 0.40577 0.98563 0.29282 0.0
C713 C 0.42975 0.00596 0.29253 0.0
C714 C 0.35689 0.03716 0.28688 0.0
C715 C 0.32874 0.03581 0.27855 0.0
N716 N 0.32484 0.03479 0.2943 0.0
C717 C 0.35262 0.03605 0.30297 0.0
C718 C 0.34488 0.03698 0.27454 0.0
C719 C 0.33634 0.03487 0.30647 0.0
C720 C 0.41972 0.05053 0.30867 0.0
N721 N 0.40613 0.03904 0.30413 0.0
C722 C 0.40742 0.02707 0.32942 0.0
C723 C 0.39972 0.0276 0.3142 0.0
C724 C 0.42174 0.03851 0.3343 0.0
C725 C 0.42778 0.05049 0.32379 0.0
H726 H 0.4244 0.0596 0.30047 0.0
H727 H 0.38885 0.01866 0.3102 0.0
C728 C 0.35071 0.99674 0.24677 0.0
N729 N 0.3582 0.00327 0.26145 0.0
C730 C 0.33838 0.98271 0.2457 0.0
C731 C 0.3415 0.98246 0.27492 0.0
C732 C 0.35374 0.99651 0.27541 0.0
C733 C 0.33374 0.97529 0.25989 0.0
H734 H 0.35426 0.00223 0.23581 0.0
H735 H 0.3599 0.00192 0.28694 0.0
C736 C 0.41575 0.0687 0.26494 0.0
N737 N 0.44031 0.08867 0.25078 0.0
C738 C 0.41239 0.08199 0.25649 0.0
C739 C 0.43164 0.06569 0.26635 0.0
C740 C 0.42497 0.09193 0.24939 0.0
C741 C 0.44388 0.07588 0.25904 0.0
C742 C 0.37127 0.0321 0.23124 0.0
C743 C 0.37874 0.02115 0.22137 0.0
C744 C 0.35705 0.03691 0.22537 0.0
C745 C 0.3719 0.01531 0.20573 0.0
C746 C 0.35057 0.03076 0.20968 0.0
N747 N 0.35808 0.0202 0.20026 0.0
C748 C 0.42558 0.02645 0.23926 0.0
C749 C 0.41628 0.04878 0.22723 0.0
C750 C 0.43675 0.0254 0.22739 0.0
N751 N 0.41569 0.03803 0.23898 0.0
C752 C 0.42734 0.04822 0.21513 0.0
C753 C 0.43767 0.03632 0.21508 0.0
H754 H 0.42465 0.01786 0.24855 0.0
H755 H 0.40803 0.05764 0.22715 0.0
C756 C 0.36182 0.07705 0.27917 0.0
N757 N 0.36835 0.07157 0.26537 0.0
C758 C 0.35048 0.08765 0.27838 0.0
C759 C 0.35405 0.08808 0.24946 0.0
C760 C 0.36509 0.07717 0.25076 0.0
C761 C 0.34624 0.09292 0.26331 0.0
H762 H 0.36478 0.07249 0.29065 0.0
H763 H 0.37055 0.0726 0.24002 0.0
O764 O 0.3975 0.01831 0.26732 0.0
O765 O 0.37276 0.03811 0.28327 0.0
O766 O 0.40353 0.05867 0.27175 0.0
O767 O 0.37781 0.03811 0.24654 0.0
H768 H 0.38492 0.98963 0.27859 0.0
H769 H 0.42833 0.0266 0.27822 0.0
H770 H 0.39963 0.97409 0.29702 0.0
H771 H 0.44233 0.01035 0.29656 0.0
H772 H 0.31932 0.03569 0.26914 0.0
H773 H 0.36179 0.03607 0.31263 0.0
H774 H 0.34798 0.03771 0.26202 0.0
H775 H 0.33285 0.034 0.31887 0.0
H776 H 0.40245 0.01753 0.33708 0.0
H777 H 0.43863 0.05971 0.3272 0.0
H778 H 0.33261 0.97766 0.23388 0.0
H779 H 0.33851 0.97698 0.28614 0.0
H780 H 0.40019 0.08456 0.25535 0.0
H781 H 0.43448 0.05546 0.27282 0.0
H782 H 0.42252 0.10221 0.24274 0.0
H783 H 0.4562 0.07359 0.25991 0.0
H784 H 0.38954 0.01698 0.2258 0.0
H785 H 0.35099 0.04521 0.23288 0.0
H786 H 0.37753 0.00683 0.19797 0.0
H787 H 0.33956 0.03438 0.205 0.0
H788 H 0.44454 0.0161 0.22782 0.0
H789 H 0.42748 0.05667 0.20568 0.0
H790 H 0.34479 0.09137 0.28931 0.0
H791 H 0.35103 0.09199 0.23767 0.0
Li792 Li 0.26824 0.16934 0.51634 0.0
Li793 Li 0.27993 0.14703 0.50263 0.0
Li794 Li 0.26855 0.16581 0.48682 0.0
Li795 Li 0.25071 0.14459 0.50113 0.0
C796 C 0.30124 0.17692 0.51291 0.0
N797 N 0.32879 0.18738 0.5334 0.0
C798 C 0.30331 0.16914 0.52712 0.0
C799 C 0.3132 0.19002 0.50914 0.0
C800 C 0.31731 0.17461 0.53731 0.0
C801 C 0.32704 0.19513 0.51964 0.0
C802 C 0.26296 0.13436 0.53181 0.0
C803 C 0.25362 0.10629 0.53892 0.0
N804 N 0.25801 0.11159 0.55485 0.0
C805 C 0.26735 0.13954 0.54824 0.0
C806 C 0.256 0.11761 0.5271 0.0
C807 C 0.26477 0.12783 0.5597 0.0
C808 C 0.25446 0.17919 0.54404 0.0
N809 N 0.26765 0.18391 0.53547 0.0
C810 C 0.2777 0.20674 0.55566 0.0
C811 C 0.27906 0.19759 0.54075 0.0
C812 C 0.26444 0.20175 0.56507 0.0
C813 C 0.25259 0.18796 0.5589 0.0
H814 H 0.24551 0.16837 0.53939 0.0
H815 H 0.28932 0.20125 0.53359 0.0
C816 C 0.30984 0.13934 0.49371 0.0
N817 N 0.29748 0.13471 0.5034 0.0
C818 C 0.32284 0.13069 0.49301 0.0
C819 C 0.31039 0.11291 0.5126 0.0
C820 C 0.29758 0.12184 0.51285 0.0
C821 C 0.32322 0.11722 0.50251 0.0
H822 H 0.30947 0.14965 0.48634 0.0
H823 H 0.28775 0.11842 0.52054 0.0
C824 C 0.24643 0.18473 0.49962 0.0
N825 N 0.23943 0.21661 0.49834 0.0
C826 C 0.23033 0.18709 0.49857 0.0
C827 C 0.25898 0.19858 0.50005 0.0
C828 C 0.22703 0.20332 0.49792 0.0
C829 C 0.25519 0.21459 0.49938 0.0
C830 C 0.27227 0.12992 0.47412 0.0
C831 C 0.28208 0.1353 0.46168 0.0
C832 C 0.27072 0.1133 0.47791 0.0
C833 C 0.29034 0.12398 0.45332 0.0
C834 C 0.27921 0.10238 0.4693 0.0
N835 N 0.28877 0.1079 0.45729 0.0
C836 C 0.28398 0.18657 0.46432 0.0
C837 C 0.25611 0.17575 0.45784 0.0
C838 C 0.28495 0.19499 0.45027 0.0
N839 N 0.26972 0.17722 0.46779 0.0
C840 C 0.25652 0.18394 0.44365 0.0
C841 C 0.27109 0.19374 0.43969 0.0
H842 H 0.2946 0.18746 0.47248 0.0
H843 H 0.24495 0.16816 0.46093 0.0
C844 C 0.21986 0.13692 0.51208 0.0
N845 N 0.23003 0.13104 0.50156 0.0
C846 C 0.20436 0.12781 0.51342 0.0
C847 C 0.21013 0.10666 0.4931 0.0
C848 C 0.22551 0.11626 0.49208 0.0
C849 C 0.19929 0.11242 0.50388 0.0
H850 H 0.22381 0.14877 0.5194 0.0
H851 H 0.23388 0.1119 0.48382 0.0
O852 O 0.28762 0.17188 0.50269 0.0
O853 O 0.2652 0.14574 0.52049 0.0
O854 O 0.24981 0.16892 0.50028 0.0
O855 O 0.2644 0.14093 0.48269 0.0
H856 H 0.29426 0.159 0.5303 0.0
H857 H 0.31179 0.19622 0.49822 0.0
H858 H 0.31906 0.16869 0.54834 0.0
H859 H 0.33638 0.20526 0.51687 0.0
H860 H 0.24829 0.09328 0.53544 0.0
H861 H 0.27274 0.15246 0.55211 0.0
H862 H 0.25262 0.11336 0.51444 0.0
H863 H 0.26814 0.13166 0.57246 0.0
H864 H 0.28714 0.21727 0.55998 0.0
H865 H 0.24201 0.18387 0.56556 0.0
H866 H 0.33234 0.13437 0.4849 0.0
H867 H 0.31029 0.10282 0.52036 0.0
H868 H 0.22048 0.17649 0.49825 0.0
H869 H 0.27152 0.197 0.50091 0.0
H870 H 0.21462 0.20534 0.4971 0.0
H871 H 0.26478 0.22541 0.49969 0.0
H872 H 0.28342 0.14813 0.45861 0.0
H873 H 0.26324 0.10895 0.48755 0.0
H874 H 0.29804 0.12799 0.44372 0.0
H875 H 0.27825 0.08953 0.4722 0.0
H876 H 0.29638 0.20255 0.44782 0.0
H877 H 0.2456 0.18242 0.43576 0.0
H878 H 0.19637 0.13293 0.52166 0.0
H879 H 0.20683 0.09479 0.48564 0.0
Li880 Li 0.14686 0.02313 0.78326 0.0
Li881 Li 0.12577 0.00524 0.79662 0.0
Li882 Li 0.1455 0.99314 0.77917 0.0
Li883 Li 0.12363 0.00504 0.7667 0.0
C884 C 0.16208 0.01715 0.81016 0.0
N885 N 0.18688 0.03673 0.83002 0.0
C886 C 0.15903 0.02369 0.82573 0.0
C887 C 0.17777 0.02039 0.80477 0.0
C888 C 0.17173 0.0336 0.83557 0.0
C889 C 0.19013 0.03037 0.81496 0.0
C890 C 0.11106 0.03223 0.78702 0.0
C891 C 0.08253 0.03353 0.78564 0.0
N892 N 0.08585 0.04906 0.79398 0.0
C893 C 0.11421 0.0483 0.79537 0.0
C894 C 0.09511 0.02487 0.78194 0.0
C895 C 0.10129 0.05656 0.79886 0.0
C896 C 0.16668 0.04932 0.77031 0.0
N897 N 0.15995 0.04477 0.78428 0.0
C898 C 0.16951 0.07225 0.79767 0.0
C899 C 0.16121 0.05581 0.79786 0.0
C900 C 0.17626 0.07739 0.78327 0.0
C901 C 0.17493 0.06564 0.76953 0.0
H902 H 0.16523 0.0404 0.7596 0.0
H903 H 0.15536 0.05201 0.80867 0.0
C904 C 0.10746 0.9883 0.82018 0.0
N905 N 0.11405 0.00361 0.81573 0.0
C906 C 0.09867 0.98708 0.83415 0.0
C907 C 0.10399 0.01738 0.83887 0.0
C908 C 0.11267 0.018 0.82486 0.0
C909 C 0.09679 0.00177 0.84367 0.0
H910 H 0.10904 0.97704 0.81287 0.0
H911 H 0.11843 0.02998 0.82133 0.0
C912 C 0.1559 0.00284 0.75076 0.0
N913 N 0.17399 0.98949 0.72747 0.0
C914 C 0.14822 0.99366 0.73658 0.0
C915 C 0.17279 0.0054 0.75301 0.0
C916 C 0.15758 0.98698 0.72496 0.0
C917 C 0.18172 0.99849 0.74112 0.0
C918 C 0.10765 0.97421 0.77508 0.0
C919 C 0.10829 0.95937 0.76537 0.0
C920 C 0.09271 0.97741 0.78016 0.0
C921 C 0.09393 0.94813 0.76063 0.0
C922 C 0.07862 0.96587 0.77515 0.0
N923 N 0.07951 0.9516 0.76555 0.0
C924 C 0.16932 0.97489 0.789 0.0
C925 C 0.15574 0.96451 0.7634 0.0
C926 C 0.17871 0.96227 0.7879 0.0
N927 N 0.15813 0.97579 0.77684 0.0
C928 C 0.16488 0.9517 0.76176 0.0
C929 C 0.1765 0.95041 0.77416 0.0
H930 H 0.1709 0.9839 0.79964 0.0
H931 H 0.14667 0.96539 0.75396 0.0
C932 C 0.11073 0.02183 0.74385 0.0
N933 N 0.10994 0.0059 0.74797 0.0
C934 C 0.10249 0.0249 0.72975 0.0
C935 C 0.09261 0.99506 0.72428 0.0
C936 C 0.10104 0.99256 0.73861 0.0
C937 C 0.09349 0.01141 0.71959 0.0
H938 H 0.11805 0.03217 0.75144 0.0
H939 H 0.10086 0.97998 0.74191 0.0
O940 O 0.14978 0.00754 0.80029 0.0
O941 O 0.1236 0.024 0.78349 0.0
O942 O 0.14694 0.00938 0.76232 0.0
O943 O 0.12162 0.98532 0.77987 0.0
H944 H 0.147 0.02118 0.83015 0.0
H945 H 0.18035 0.01532 0.79281 0.0
H946 H 0.16953 0.03881 0.84761 0.0
H947 H 0.20231 0.03307 0.8109 0.0
H948 H 0.07013 0.02795 0.78181 0.0
H949 H 0.12648 0.05429 0.79925 0.0
H950 H 0.09247 0.01269 0.77503 0.0
H951 H 0.10355 0.06894 0.80544 0.0
H952 H 0.17012 0.081 0.80846 0.0
H953 H 0.18008 0.0691 0.75824 0.0
H954 H 0.09357 0.97477 0.83754 0.0
H955 H 0.10277 0.02904 0.84574 0.0
H956 H 0.13517 0.99156 0.73462 0.0
H957 H 0.17893 0.01262 0.76383 0.0
H958 H 0.15179 0.97976 0.71397 0.0
H959 H 0.19479 0.0003 0.74274 0.0
H960 H 0.11974 0.95656 0.76148 0.0
H961 H 0.09199 0.9886 0.788 0.0
H962 H 0.09425 0.93665 0.75303 0.0
H963 H 0.06698 0.96823 0.77895 0.0
H964 H 0.18762 0.96183 0.79768 0.0
H965 H 0.16259 0.94268 0.75108 0.0
H966 H 0.10331 0.03772 0.72675 0.0
H967 H 0.08597 0.98428 0.71668 0.0
Li968 Li 0.23379 0.91006 0.01498 0.0
Li969 Li 0.24706 0.8888 0.02677 0.0
Li970 Li 0.26237 0.91404 0.01894 0.0
Li971 Li 0.24931 0.89313 0.99853 0.0
C972 C 0.25204 0.9263 0.04605 0.0
N973 N 0.26428 0.9554 0.06582 0.0
C974 C 0.26022 0.92549 0.061 0.0
C975 C 0.25003 0.9419 0.04118 0.0
C976 C 0.26633 0.94035 0.07082 0.0
C977 C 0.25632 0.95647 0.05134 0.0
C978 C 0.21444 0.87873 0.01481 0.0
C979 C 0.18825 0.86075 0.01055 0.0
N980 N 0.18478 0.86564 0.02599 0.0
C981 C 0.21062 0.88358 0.03065 0.0
C982 C 0.20318 0.86723 0.00467 0.0
C983 C 0.19556 0.87682 0.03606 0.0
C984 C 0.20994 0.9246 0.00018 0.0
N985 N 0.21579 0.92099 0.0148 0.0
C986 C 0.19722 0.93538 0.02884 0.0
C987 C 0.20963 0.92598 0.02899 0.0
C988 C 0.19114 0.93966 0.01393 0.0
C989 C 0.19753 0.93396 -0.00055 0.0
H990 H 0.21514 0.92042 0.98912 0.0
H991 H 0.21464 0.92301 0.04045 0.0
C992 C 0.25918 0.87576 0.05356 0.0
N993 N 0.24687 0.87246 0.04184 0.0
C994 C 0.26077 0.86422 0.06479 0.0
C995 C 0.23717 0.84587 0.05145 0.0
C996 C 0.2361 0.85774 0.0404 0.0
C997 C 0.24962 0.84909 0.06386 0.0
H998 H 0.2679 0.88729 0.05401 0.0
H999 H 0.22686 0.85502 0.03054 0.0
C1000 C 0.25936 0.92398 0.98739 0.0
N1001 N 0.27872 0.93683 0.96361 0.0
C1002 C 0.27477 0.91988 0.98581 0.0
C1003 C 0.2538 0.93461 0.97688 0.0
C1004 C 0.28437 0.92651 0.97372 0.0
C1005 C 0.26377 0.94098 0.96493 0.0
C1006 C 0.27146 0.87579 0.01208 0.0
C1007 C 0.28774 0.87437 0.01442 0.0
C1008 C 0.25988 0.86145 0.00715 0.0
C1009 C 0.29219 0.85859 0.01177 0.0
C1010 C 0.26481 0.84591 0.00463 0.0
N1011 N 0.28073 0.84481 0.00697 0.0
C1012 C 0.29318 0.9255 0.03392 0.0
C1013 C 0.28307 0.94571 0.01925 0.0
C1014 C 0.30808 0.93617 0.03713 0.0
N1015 N 0.28125 0.93026 0.02476 0.0
C1016 C 0.29786 0.95669 0.02194 0.0
C1017 C 0.31078 0.95176 0.03058 0.0
H1018 H 0.29122 0.9132 0.03833 0.0
H1019 H 0.27324 0.94926 0.01222 0.0
C1020 C 0.23604 0.87748 0.96833 0.0
N1021 N 0.25023 0.88224 0.97744 0.0
C1022 C 0.23573 0.86869 0.95299 0.0
C1023 C 0.26472 0.87014 0.95661 0.0
C1024 C 0.26447 0.87894 0.97186 0.0
C1025 C 0.25019 0.86477 0.94702 0.0
H1026 H 0.22494 0.88042 0.97308 0.0
H1027 H 0.27561 0.88289 0.97934 0.0
O1028 O 0.24626 0.91193 0.03609 0.0
O1029 O 0.22907 0.88518 0.00912 0.0
O1030 O 0.24967 0.91771 -0.00086 0.0
O1031 O 0.26702 0.89121 0.01469 0.0
H1032 H 0.26184 0.91354 0.065 0.0
H1033 H 0.24393 0.94278 0.02954 0.0
H1034 H 0.27271 0.93992 0.08241 0.0
H1035 H 0.25494 0.96863 0.04767 0.0
H1036 H 0.17942 0.85182 0.00283 0.0
H1037 H 0.21919 0.89235 0.03874 0.0
H1038 H 0.20596 0.86334 0.99239 0.0
H1039 H 0.19245 0.88044 0.04829 0.0
H1040 H 0.19276 0.93967 0.0403 0.0
H1041 H 0.19301 0.93675 0.98769 0.0
H1042 H 0.27051 0.86721 0.07422 0.0
H1043 H 0.22851 0.83421 0.05017 0.0
H1044 H 0.27934 0.91175 0.99387 0.0
H1045 H 0.24191 0.93792 0.97795 0.0
H1046 H 0.29632 0.92345 0.97238 0.0
H1047 H 0.25962 0.94923 0.95672 0.0
H1048 H 0.29685 0.88535 0.01825 0.0
H1049 H 0.24722 0.86227 0.00525 0.0
H1050 H 0.30476 0.85731 0.01353 0.0
H1051 H 0.25598 0.83472 0.00081 0.0
H1052 H 0.31755 0.93202 0.0442 0.0
H1053 H 0.29937 0.9685 0.01656 0.0
H1054 H 0.2243 0.86504 0.94588 0.0
H1055 H 0.27612 0.86725 0.95255 0.0
Li1056 Li 0.23699 0.39873 0.02501 0.0
Li1057 Li 0.24919 0.37792 0.04047 0.0
Li1058 Li 0.26673 0.39976 0.02496 0.0
Li1059 Li 0.24794 0.37688 0.01149 0.0
C1060 C 0.25213 0.41311 0.05783 0.0
N1061 N 0.24974 0.43308 0.08623 0.0
C1062 C 0.24202 0.40695 0.06977 0.0
C1063 C 0.2612 0.42937 0.06046 0.0
C1064 C 0.24093 0.41726 0.084 0.0
C1065 C 0.25977 0.43928 0.07486 0.0
C1066 C 0.2187 0.36248 0.01632 0.0
C1067 C 0.20607 0.33359 0.00925 0.0
N1068 N 0.19771 0.33829 0.99645 0.0
C1069 C 0.20994 0.36704 0.00315 0.0
C1070 C 0.21673 0.34564 0.01945 0.0
C1071 C 0.19941 0.35461 0.99323 0.0
C1072 C 0.21469 0.41692 0.01106 0.0
N1073 N 0.21984 0.41155 0.02521 0.0
C1074 C 0.19986 0.4236 0.03963 0.0
C1075 C 0.21255 0.41452 0.03929 0.0
C1076 C 0.19447 0.42957 0.02527 0.0
C1077 C 0.20209 0.4261 0.01084 0.0
H1078 H 0.22029 0.41399 -0.00012 0.0
H1079 H 0.21636 0.40957 0.05023 0.0
C1080 C 0.26247 0.36726 0.06876 0.0
N1081 N 0.2485 0.36663 0.05957 0.0
C1082 C 0.26224 0.35951 0.08321 0.0
C1083 C 0.23326 0.3506 0.07839 0.0
C1084 C 0.23405 0.35854 0.06405 0.0
C1085 C 0.24748 0.35106 0.08823 0.0
H1086 H 0.27376 0.37393 0.06491 0.0
H1087 H 0.22311 0.35843 0.05657 0.0
C1088 C 0.2536 0.41685 0.00211 0.0
N1089 N 0.25884 0.44963 0.99408 0.0
C1090 C 0.25566 0.42023 0.98593 0.0
C1091 C 0.25427 0.43019 0.01418 0.0
C1092 C 0.25829 0.43687 0.98213 0.0
C1093 C 0.2569 0.44666 0.00989 0.0
C1094 C 0.27479 0.36413 0.01838 0.0
C1095 C 0.28312 0.36803 0.00454 0.0
C1096 C 0.27439 0.3484 0.02411 0.0
C1097 C 0.29071 0.35595 0.99645 0.0
C1098 C 0.28218 0.33668 0.01571 0.0
N1099 N 0.29009 0.34066 0.00215 0.0
C1100 C 0.29651 0.41833 0.03923 0.0
C1101 C 0.2935 0.41699 0.01043 0.0
C1102 C 0.31213 0.4277 0.0392 0.0
N1103 N 0.28757 0.41326 0.02498 0.0
C1104 C 0.309 0.42638 0.00982 0.0
C1105 C 0.31859 0.43182 0.02433 0.0
H1106 H 0.29158 0.41488 0.0506 0.0
H1107 H 0.28627 0.4125 -0.00075 0.0
C1108 C 0.24559 0.36854 0.97788 0.0
N1109 N 0.24567 0.36146 0.99217 0.0
C1110 C 0.24622 0.35891 0.96319 0.0
C1111 C 0.24605 0.33453 0.97802 0.0
C1112 C 0.24547 0.3447 0.99249 0.0
C1113 C 0.24687 0.34176 0.96317 0.0
H1114 H 0.24545 0.38178 0.97793 0.0
H1115 H 0.24544 0.33931 0.004 0.0
O1116 O 0.25362 0.40308 0.04394 0.0
O1117 O 0.22925 0.37444 0.026 0.0
O1118 O 0.25128 0.40057 0.00602 0.0
O1119 O 0.26711 0.37569 0.02636 0.0
H1120 H 0.23491 0.39443 0.06797 0.0
H1121 H 0.26929 0.4343 0.05151 0.0
H1122 H 0.23306 0.41267 0.09327 0.0
H1123 H 0.26667 0.4519 0.07701 0.0
H1124 H 0.20449 0.32049 0.01146 0.0
H1125 H 0.2114 0.38002 0.00054 0.0
H1126 H 0.22354 0.34189 0.02951 0.0
H1127 H 0.19261 0.35794 0.98294 0.0
H1128 H 0.19409 0.42559 0.05094 0.0
H1129 H 0.1984 0.43049 -0.00052 0.0
H1130 H 0.27346 0.36039 0.09052 0.0
H1131 H 0.22165 0.34408 0.08167 0.0
H1132 H 0.25538 0.41015 0.97639 0.0
H1133 H 0.25257 0.42791 0.02668 0.0
H1134 H 0.25992 0.43964 0.96966 0.0
H1135 H 0.25737 0.45706 0.01914 0.0
H1136 H 0.28349 0.38015 -6e-05 0.0
H1137 H 0.26802 0.34524 0.03485 0.0
H1138 H 0.29707 0.35872 0.98562 0.0
H1139 H 0.28191 0.32441 0.01994 0.0
H1140 H 0.31918 0.43136 0.05066 0.0
H1141 H 0.31338 0.42937 0.9981 0.0
H1142 H 0.24645 0.36489 0.95196 0.0
H1143 H 0.24651 0.32134 0.9785 0.0
Li1144 Li 0.76938 0.15908 0.02953 0.0
Li1145 Li 0.78657 0.1419 0.01508 0.0
Li1146 Li 0.77277 0.16119 0.0017 0.0
Li1147 Li 0.75713 0.13548 0.01047 0.0
C1148 C 0.80063 0.17903 0.01363 0.0
N1149 N 0.82154 0.20391 0.00061 0.0
C1150 C 0.81471 0.17543 0.00673 0.0
C1151 C 0.79731 0.19535 0.0141 0.0
C1152 C 0.82511 0.18817 0.00018 0.0
C1153 C 0.80798 0.20773 0.00738 0.0
C1154 C 0.77006 0.1187 0.03404 0.0
C1155 C 0.77163 0.09005 0.02476 0.0
N1156 N 0.77028 0.08589 0.04031 0.0
C1157 C 0.76864 0.11413 0.0499 0.0
C1158 C 0.77152 0.10657 0.02133 0.0
C1159 C 0.76879 0.09748 0.05283 0.0
C1160 C 0.75385 0.16476 0.05851 0.0
N1161 N 0.76659 0.17075 0.04979 0.0
C1162 C 0.77448 0.19455 0.06934 0.0
C1163 C 0.77693 0.18524 0.05494 0.0
C1164 C 0.76126 0.18887 0.07852 0.0
C1165 C 0.75089 0.17372 0.07296 0.0
H1166 H 0.74582 0.15319 0.05404 0.0
H1167 H 0.78702 0.18962 0.0478 0.0
C1168 C 0.81097 0.1265 0.00196 0.0
N1169 N 0.8048 0.13124 0.01622 0.0
C1170 C 0.82254 0.1161 0.00175 0.0
C1171 C 0.82166 0.1162 0.03102 0.0
C1172 C 0.81016 0.12671 0.03066 0.0
C1173 C 0.82771 0.11043 0.01636 0.0
H1174 H 0.80652 0.13044 0.9907 0.0
H1175 H 0.80494 0.13062 0.0418 0.0
C1176 C 0.7416 0.16734 0.01987 0.0
N1177 N 0.72099 0.18534 0.03607 0.0
C1178 C 0.72609 0.15941 0.02316 0.0
C1179 C 0.74647 0.18452 0.02451 0.0
C1180 C 0.71589 0.1687 0.03144 0.0
C1181 C 0.73593 0.19337 0.03279 0.0
C1182 C 0.76739 0.13289 0.97839 0.0
C1183 C 0.75417 0.13961 0.97272 0.0
C1184 C 0.77383 0.12144 0.96809 0.0
C1185 C 0.74767 0.13481 0.95678 0.0
C1186 C 0.76696 0.11693 0.95225 0.0
N1187 N 0.75414 0.12366 0.94697 0.0
C1188 C 0.78631 0.17652 0.97453 0.0
C1189 C 0.76245 0.18547 0.9835 0.0
C1190 C 0.78719 0.18732 0.96222 0.0
N1191 N 0.77415 0.17594 0.98494 0.0
C1192 C 0.76277 0.1963 0.97131 0.0
C1193 C 0.77524 0.19731 0.96047 0.0
H1194 H 0.79526 0.16852 0.97576 0.0
H1195 H 0.75273 0.18452 0.99167 0.0
C1196 C 0.73044 0.11544 0.02079 0.0
N1197 N 0.73907 0.11749 0.00735 0.0
C1198 C 0.7166 0.10312 0.02031 0.0
C1199 C 0.72113 0.09461 0.99233 0.0
C1200 C 0.73496 0.1071 0.99338 0.0
C1201 C 0.71164 0.09267 0.00585 0.0
H1202 H 0.73418 0.12367 0.03184 0.0
H1203 H 0.74226 0.10844 0.98301 0.0
O1204 O 0.7902 0.16666 0.01992 0.0
O1205 O 0.76994 0.13499 0.03105 0.0
O1206 O 0.75187 0.15837 0.01199 0.0
O1207 O 0.77412 0.13747 0.99389 0.0
H1208 H 0.81754 0.16293 0.00635 0.0
H1209 H 0.78652 0.1984 0.01943 0.0
H1210 H 0.83599 0.18554 0.99472 0.0
H1211 H 0.80548 0.22036 0.00753 0.0
H1212 H 0.7728 0.08055 0.01506 0.0
H1213 H 0.76745 0.12338 0.05985 0.0
H1214 H 0.77259 0.10983 0.00896 0.0
H1215 H 0.76772 0.09377 0.06506 0.0
H1216 H 0.78297 0.20597 0.07333 0.0
H1217 H 0.74048 0.16894 0.07955 0.0
H1218 H 0.82716 0.11226 0.99023 0.0
H1219 H 0.82522 0.11205 0.04254 0.0
H1220 H 0.7219 0.14627 0.01929 0.0
H1221 H 0.75837 0.1909 0.02197 0.0
H1222 H 0.70389 0.16269 0.03413 0.0
H1223 H 0.73965 0.20662 0.03663 0.0
H1224 H 0.74886 0.14831 0.98054 0.0
H1225 H 0.78397 0.11601 0.97231 0.0
H1226 H 0.73745 0.13991 0.95223 0.0
H1227 H 0.77181 0.10805 0.94417 0.0
H1228 H 0.79687 0.18758 0.95393 0.0
H1229 H 0.75337 0.20385 0.9704 0.0
H1230 H 0.70957 0.10221 0.03099 0.0
H1231 H 0.71785 0.08663 0.98104 0.0
Li1232 Li 0.13258 0.51908 0.26238 0.0
Li1233 Li 0.1106 0.49941 0.2702 0.0
Li1234 Li 0.13363 0.48899 0.26015 0.0
Li1235 Li 0.11405 0.50007 0.24179 0.0
C1236 C 0.14665 0.50844 0.29032 0.0
N1237 N 0.17443 0.51773 0.31064 0.0
C1238 C 0.14553 0.51258 0.30698 0.0
C1239 C 0.1619 0.50905 0.284 0.0
C1240 C 0.15972 0.51725 0.31706 0.0
C1241 C 0.1758 0.51376 0.29447 0.0
C1242 C 0.10436 0.53156 0.266 0.0
C1243 C 0.08927 0.5543 0.26808 0.0
N1244 N 0.09478 0.55813 0.28395 0.0
C1245 C 0.1099 0.53574 0.28233 0.0
C1246 C 0.09398 0.54092 0.25881 0.0
C1247 C 0.1049 0.5492 0.2912 0.0
C1248 C 0.14729 0.54808 0.25068 0.0
N1249 N 0.1453 0.5408 0.26482 0.0
C1250 C 0.16268 0.56415 0.27964 0.0
C1251 C 0.15245 0.54861 0.27923 0.0
C1252 C 0.16532 0.57174 0.26512 0.0
C1253 C 0.15732 0.56362 0.25054 0.0
H1254 H 0.14132 0.54159 0.23944 0.0
H1255 H 0.15035 0.54278 0.29038 0.0
C1256 C 0.09847 0.49166 0.30025 0.0
N1257 N 0.09449 0.49652 0.28551 0.0
C1258 C 0.08747 0.49112 0.31243 0.0
C1259 C 0.06827 0.49996 0.29378 0.0
C1260 C 0.07966 0.50032 0.28195 0.0
C1261 C 0.07229 0.49568 0.30938 0.0
H1262 H 0.11034 0.48857 0.30262 0.0
H1263 H 0.07686 0.50411 0.27007 0.0
C1264 C 0.14992 0.50589 0.23297 0.0
N1265 N 0.17416 0.5073 0.21125 0.0
C1266 C 0.14672 0.49763 0.21726 0.0
C1267 C 0.1654 0.51504 0.23755 0.0
C1268 C 0.15915 0.49844 0.20649 0.0
C1269 C 0.1775 0.51556 0.22641 0.0
C1270 C 0.0985 0.46879 0.25951 0.0
C1271 C 0.10216 0.45875 0.27157 0.0
C1272 C 0.08239 0.46801 0.25393 0.0
C1273 C 0.08956 0.44815 0.27796 0.0
C1274 C 0.07014 0.45725 0.26063 0.0
N1275 N 0.07395 0.44764 0.27242 0.0
C1276 C 0.15277 0.46866 0.27544 0.0
C1277 C 0.15357 0.46764 0.2467 0.0
C1278 C 0.16472 0.4587 0.2762 0.0
N1279 N 0.14783 0.47329 0.26088 0.0
C1280 C 0.1655 0.45765 0.24687 0.0
C1281 C 0.17143 0.45332 0.2618 0.0
H1282 H 0.14773 0.47305 0.28651 0.0
H1283 H 0.14911 0.47112 0.23527 0.0
C1284 C 0.10552 0.51346 0.21375 0.0
N1285 N 0.10466 0.49879 0.22063 0.0
C1286 C 0.09866 0.51357 0.19809 0.0
C1287 C 0.09028 0.48341 0.19691 0.0
C1288 C 0.09735 0.48389 0.21261 0.0
C1289 C 0.09084 0.49841 0.18949 0.0
H1290 H 0.11146 0.52508 0.22052 0.0
H1291 H 0.097 0.47243 0.21844 0.0
O1292 O 0.13283 0.50414 0.28031 0.0
O1293 O 0.109 0.51841 0.25701 0.0
O1294 O 0.13782 0.50532 0.24362 0.0
O1295 O 0.11061 0.47956 0.25344 0.0
H1296 H 0.13382 0.51232 0.31206 0.0
H1297 H 0.16297 0.50581 0.27118 0.0
H1298 H 0.15903 0.52052 0.32997 0.0
H1299 H 0.18767 0.51424 0.28973 0.0
H1300 H 0.08123 0.56165 0.26267 0.0
H1301 H 0.1179 0.52866 0.28816 0.0
H1302 H 0.0896 0.53785 0.24617 0.0
H1303 H 0.10908 0.55255 0.30385 0.0
H1304 H 0.16841 0.5702 0.29117 0.0
H1305 H 0.15911 0.56902 0.23908 0.0
H1306 H 0.09092 0.48747 0.32422 0.0
H1307 H 0.05675 0.50368 0.29098 0.0
H1308 H 0.13481 0.49053 0.21348 0.0
H1309 H 0.16807 0.52182 0.2495 0.0
H1310 H 0.15687 0.49203 0.19433 0.0
H1311 H 0.18954 0.52257 0.22981 0.0
H1312 H 0.11458 0.45929 0.27605 0.0
H1313 H 0.07938 0.4758 0.24467 0.0
H1314 H 0.09219 0.44037 0.28737 0.0
H1315 H 0.0576 0.45658 0.25651 0.0
H1316 H 0.1687 0.45531 0.28792 0.0
H1317 H 0.17032 0.45375 0.23548 0.0
H1318 H 0.09915 0.52544 0.19292 0.0
H1319 H 0.0845 0.47146 0.19062 0.0
Li1320 Li 0.7367 0.89986 0.52426 0.0
Li1321 Li 0.74915 0.879 0.53937 0.0
Li1322 Li 0.76558 0.90011 0.52258 0.0
Li1323 Li 0.74654 0.8768 0.50976 0.0
C1324 C 0.74932 0.91621 0.55326 0.0
N1325 N 0.73963 0.94024 0.5746 0.0
C1326 C 0.74223 0.9117 0.56761 0.0
C1327 C 0.75167 0.93299 0.54989 0.0
C1328 C 0.73736 0.92402 0.57821 0.0
C1329 C 0.74663 0.94494 0.56079 0.0
C1330 C 0.71811 0.86245 0.51777 0.0
C1331 C 0.70754 0.8328 0.51295 0.0
N1332 N 0.69686 0.83593 0.50123 0.0
C1333 C 0.70699 0.86541 0.50573 0.0
C1334 C 0.71839 0.84605 0.52147 0.0
C1335 C 0.69636 0.85181 0.49748 0.0
C1336 C 0.71649 0.92097 0.51187 0.0
N1337 N 0.71972 0.91277 0.52495 0.0
C1338 C 0.69786 0.92198 0.5387 0.0
C1339 C 0.71058 0.91292 0.53814 0.0
C1340 C 0.69432 0.93071 0.52542 0.0
C1341 C 0.70386 0.93012 0.51187 0.0
H1342 H 0.72358 0.92023 0.5013 0.0
H1343 H 0.713 0.90579 0.54814 0.0
C1344 C 0.76292 0.86516 0.5657 0.0
N1345 N 0.7488 0.86788 0.55861 0.0
C1346 C 0.76284 0.85707 0.57995 0.0
C1347 C 0.73374 0.85533 0.57964 0.0
C1348 C 0.73435 0.86314 0.56522 0.0
C1349 C 0.74811 0.85215 0.58711 0.0
H1350 H 0.77425 0.86928 0.56026 0.0
H1351 H 0.72333 0.8656 0.55934 0.0
C1352 C 0.75702 0.91217 0.49553 0.0
N1353 N 0.77344 0.93617 0.4776 0.0
C1354 C 0.76445 0.90732 0.48148 0.0
C1355 C 0.75788 0.92925 0.50038 0.0
C1356 C 0.7727 0.91963 0.4726 0.0
C1357 C 0.76626 0.94118 0.49118 0.0
C1358 C 0.773 0.86305 0.51693 0.0
C1359 C 0.77989 0.86445 0.50189 0.0
C1360 C 0.77308 0.84845 0.52472 0.0
C1361 C 0.78679 0.85125 0.4949 0.0
C1362 C 0.78013 0.83554 0.51735 0.0
N1363 N 0.78679 0.8372 0.50272 0.0
C1364 C 0.7919 0.92596 0.53457 0.0
C1365 C 0.79557 0.91186 0.50902 0.0
C1366 C 0.80709 0.93623 0.53438 0.0
N1367 N 0.78641 0.91411 0.52194 0.0
C1368 C 0.81074 0.92187 0.50828 0.0
C1369 C 0.81671 0.93426 0.52107 0.0
H1370 H 0.78455 0.92738 0.54484 0.0
H1371 H 0.79117 0.90229 0.49923 0.0
C1372 C 0.73789 0.86748 0.47669 0.0
N1373 N 0.74211 0.86106 0.49058 0.0
C1374 C 0.73728 0.85805 0.46166 0.0
C1375 C 0.74377 0.83489 0.47556 0.0
C1376 C 0.74409 0.84476 0.49038 0.0
C1377 C 0.74098 0.84179 0.46089 0.0
H1378 H 0.7356 0.8802 0.47723 0.0
H1379 H 0.74672 0.83964 0.50163 0.0
O1380 O 0.75404 0.90428 0.54267 0.0
O1381 O 0.72887 0.87554 0.52568 0.0
O1382 O 0.74897 0.9003 0.50449 0.0
O1383 O 0.76624 0.87587 0.52404 0.0
H1384 H 0.74041 0.89882 0.5705 0.0
H1385 H 0.75737 0.93676 0.539 0.0
H1386 H 0.73178 0.92068 0.58931 0.0
H1387 H 0.74832 0.95795 0.55828 0.0
H1388 H 0.70766 0.82001 0.51562 0.0
H1389 H 0.70671 0.87807 0.5027 0.0
H1390 H 0.72702 0.84358 0.5307 0.0
H1391 H 0.68773 0.85389 0.48807 0.0
H1392 H 0.6906 0.92178 0.54924 0.0
H1393 H 0.70159 0.93668 0.50137 0.0
H1394 H 0.77417 0.85495 0.58548 0.0
H1395 H 0.72217 0.85166 0.58483 0.0
H1396 H 0.76417 0.89419 0.47763 0.0
H1397 H 0.75213 0.93326 0.51111 0.0
H1398 H 0.7786 0.91603 0.46178 0.0
H1399 H 0.76704 0.95443 0.49484 0.0
H1400 H 0.77944 0.87533 0.49541 0.0
H1401 H 0.76762 0.847 0.53624 0.0
H1402 H 0.79203 0.85212 0.4832 0.0
H1403 H 0.78026 0.82418 0.52323 0.0
H1404 H 0.81121 0.94567 0.54449 0.0
H1405 H 0.81785 0.91968 0.49793 0.0
H1406 H 0.73443 0.86366 0.4507 0.0
H1407 H 0.74652 0.82235 0.4756 0.0
Li1408 Li 0.89605 0.04173 0.26289 0.0
Li1409 Li 0.87348 0.02168 0.24851 0.0
Li1410 Li 0.89203 0.04122 0.23333 0.0
Li1411 Li 0.87351 0.05169 0.25189 0.0
C1412 C 0.9044 0.0099 0.24828 0.0
N1413 N 0.91958 0.9831 0.25356 0.0
C1414 C 0.90043 0.00049 0.26137 0.0
C1415 C 0.91617 0.00577 0.23795 0.0
C1416 C 0.9082 0.98694 0.2638 0.0
C1417 C 0.9237 0.99217 0.24081 0.0
C1418 C 0.85969 0.03822 0.27655 0.0
C1419 C 0.83054 0.0351 0.27593 0.0
N1420 N 0.83172 0.04368 0.29098 0.0
C1421 C 0.86061 0.04696 0.29202 0.0
C1422 C 0.84454 0.03219 0.26844 0.0
C1423 C 0.84633 0.04961 0.29911 0.0
C1424 C 0.90855 0.05459 0.2942 0.0
N1425 N 0.91137 0.04442 0.28108 0.0
C1426 C 0.93208 0.03469 0.2964 0.0
C1427 C 0.92347 0.03527 0.28167 0.0
C1428 C 0.92845 0.04393 0.31056 0.0
C1429 C 0.91705 0.05463 0.30912 0.0
H1430 H 0.89923 0.06217 0.2932 0.0
H1431 H 0.92597 0.02779 0.27095 0.0
C1432 C 0.85897 0.98969 0.23334 0.0
N1433 N 0.86193 -0.00061 0.2478 0.0
C1434 C 0.85154 0.97285 0.23289 0.0
C1435 C 0.85037 0.97643 0.2622 0.0
C1436 C 0.85772 0.99318 0.26206 0.0
C1437 C 0.8473 0.96599 0.24749 0.0
H1438 H 0.86264 0.99496 0.22222 0.0
H1439 H 0.86037 0.00117 0.27339 0.0
C1440 C 0.91195 0.06943 0.25439 0.0
N1441 N 0.94299 0.08533 0.26483 0.0
C1442 C 0.91437 0.08446 0.26454 0.0
C1443 C 0.92532 0.06249 0.24952 0.0
C1444 C 0.93016 0.09231 0.26969 0.0
C1445 C 0.94091 0.07071 0.25494 0.0
C1446 C 0.86197 0.04269 0.21851 0.0
C1447 C 0.86812 0.0593 0.2159 0.0
C1448 C 0.8501 0.03304 0.20753 0.0
C1449 C 0.8622 0.06602 0.20233 0.0
C1450 C 0.84449 0.04022 0.19411 0.0
N1451 N 0.85061 0.05642 0.19181 0.0
C1452 C 0.90164 0.02832 0.20368 0.0
C1453 C 0.90907 0.0579 0.20883 0.0
C1454 C 0.90925 0.02856 0.189 0.0
N1455 N 0.90189 0.04281 0.2133 0.0
C1456 C 0.91676 0.05876 0.19419 0.0
C1457 C 0.91706 0.04392 0.18412 0.0
H1458 H 0.89572 0.01653 0.20757 0.0
H1459 H 0.9089 0.06925 0.21669 0.0
C1460 C 0.86584 0.08065 0.26812 0.0
N1461 N 0.86025 0.0683 0.25601 0.0
C1462 C 0.85725 0.09365 0.27164 0.0
C1463 C 0.837 0.08072 0.25046 0.0
C1464 C 0.84592 0.06787 0.24746 0.0
C1465 C 0.84276 0.09399 0.26255 0.0
H1466 H 0.877 0.08036 0.27507 0.0
H1467 H 0.84146 0.05766 0.23821 0.0
O1468 O 0.89708 0.02331 0.24571 0.0
O1469 O 0.87352 0.03594 0.26914 0.0
O1470 O 0.89659 0.06128 0.24954 0.0
O1471 O 0.86767 0.03572 0.23158 0.0
H1472 H 0.89163 0.00377 0.2697 0.0
H1473 H 0.91955 0.01309 0.22791 0.0
H1474 H 0.90526 0.97954 0.27388 0.0
H1475 H 0.93285 0.98885 0.23293 0.0
H1476 H 0.81874 0.03059 0.26975 0.0
H1477 H 0.8722 0.0517 0.2985 0.0
H1478 H 0.84361 0.02556 0.25637 0.0
H1479 H 0.84686 0.05639 0.31106 0.0
H1480 H 0.94077 0.02629 0.29679 0.0
H1481 H 0.91424 0.06245 0.31954 0.0
H1482 H 0.84951 0.96519 0.22132 0.0
H1483 H 0.8471 0.97172 0.27369 0.0
H1484 H 0.90418 0.09003 0.26841 0.0
H1485 H 0.92366 0.05075 0.24182 0.0
H1486 H 0.93222 0.10394 0.27756 0.0
H1487 H 0.95136 0.06545 0.25133 0.0
H1488 H 0.87732 0.06694 0.22427 0.0
H1489 H 0.84528 0.02014 0.20937 0.0
H1490 H 0.86683 0.07886 0.20016 0.0
H1491 H 0.83529 0.03291 0.18551 0.0
H1492 H 0.90934 0.01679 0.18177 0.0
H1493 H 0.92239 0.07089 0.1908 0.0
H1494 H 0.86196 0.10334 0.28137 0.0
H1495 H 0.82594 0.08044 0.24309 0.0
Li1496 Li 0.27005 0.65704 0.52944 0.0
Li1497 Li 0.28433 0.63861 0.51265 0.0
Li1498 Li 0.27135 0.65971 0.50152 0.0
Li1499 Li 0.25484 0.6348 0.51063 0.0
C1500 C 0.30057 0.67507 0.51114 0.0
N1501 N 0.3212 0.69879 0.49639 0.0
C1502 C 0.31303 0.67034 0.50212 0.0
C1503 C 0.29872 0.6919 0.51282 0.0
C1504 C 0.32332 0.68251 0.49472 0.0
C1505 C 0.30923 0.70369 0.50521 0.0
C1506 C 0.26784 0.61596 0.53217 0.0
C1507 C 0.2666 0.58706 0.52167 0.0
N1508 N 0.26588 0.58249 0.53712 0.0
C1509 C 0.26703 0.61097 0.54793 0.0
C1510 C 0.26757 0.60391 0.51891 0.0
C1511 C 0.26606 0.59399 0.55018 0.0
C1512 C 0.25754 0.66264 0.55997 0.0
N1513 N 0.26971 0.66825 0.55042 0.0
C1514 C 0.28004 0.6913 0.57016 0.0
C1515 C 0.28099 0.68213 0.55524 0.0
C1516 C 0.26736 0.68607 0.58015 0.0
C1517 C 0.25608 0.67146 0.57496 0.0
H1518 H 0.24877 0.65152 0.55575 0.0
H1519 H 0.29054 0.68626 0.54737 0.0
C1520 C 0.30687 0.62116 0.4976 0.0
N1521 N 0.30152 0.62638 0.51215 0.0
C1522 C 0.3182 0.61043 0.49699 0.0
C1523 C 0.31825 0.61074 0.52635 0.0
C1524 C 0.3072 0.62173 0.52642 0.0
C1525 C 0.32371 0.60485 0.51148 0.0
H1526 H 0.30208 0.62506 0.48647 0.0
H1527 H 0.30271 0.62612 0.5378 0.0
C1528 C 0.2428 0.66809 0.52285 0.0
N1529 N 0.22522 0.68745 0.54172 0.0
C1530 C 0.22719 0.66131 0.52693 0.0
C1531 C 0.2493 0.68485 0.52807 0.0
C1532 C 0.21853 0.67127 0.53654 0.0
C1533 C 0.24028 0.69439 0.5377 0.0
C1534 C 0.26188 0.63264 0.47759 0.0
C1535 C 0.24861 0.6404 0.47427 0.0
C1536 C 0.26681 0.62179 0.46548 0.0
C1537 C 0.24049 0.63713 0.45886 0.0
C1538 C 0.25835 0.61883 0.45024 0.0
N1539 N 0.24548 0.62651 0.44727 0.0
C1540 C 0.28277 0.67319 0.47296 0.0
C1541 C 0.26326 0.68696 0.48575 0.0
C1542 C 0.28373 0.68396 0.46065 0.0
N1543 N 0.27267 0.67492 0.48519 0.0
C1544 C 0.26385 0.69802 0.47371 0.0
C1545 C 0.27414 0.69654 0.46091 0.0
H1546 H 0.28999 0.66337 0.47276 0.0
H1547 H 0.25509 0.68784 0.49538 0.0
C1548 C 0.22803 0.61666 0.52276 0.0
N1549 N 0.23573 0.61813 0.50869 0.0
C1550 C 0.21376 0.60509 0.52319 0.0
C1551 C 0.21599 0.59607 0.4948 0.0
C1552 C 0.23027 0.60783 0.49494 0.0
C1553 C 0.20741 0.59481 0.509 0.0
H1554 H 0.23294 0.62465 0.53365 0.0
H1555 H 0.23687 0.60868 0.48404 0.0
O1556 O 0.29018 0.66326 0.5182 0.0
O1557 O 0.26883 0.63258 0.52984 0.0
O1558 O 0.25157 0.65842 0.51364 0.0
O1559 O 0.27025 0.63578 0.49248 0.0
H1560 H 0.31469 0.6574 0.50072 0.0
H1561 H 0.28916 0.69582 0.51975 0.0
H1562 H 0.33296 0.679 0.48763 0.0
H1563 H 0.30784 0.71673 0.50629 0.0
H1564 H 0.26643 0.57762 0.51153 0.0
H1565 H 0.26718 0.62015 0.5583 0.0
H1566 H 0.26815 0.60751 0.50661 0.0
H1567 H 0.26545 0.58995 0.56231 0.0
H1568 H 0.2889 0.70257 0.57365 0.0
H1569 H 0.24627 0.66688 0.5824 0.0
H1570 H 0.3222 0.60609 0.48533 0.0
H1571 H 0.3224 0.60679 0.53775 0.0
H1572 H 0.22174 0.64856 0.52262 0.0
H1573 H 0.2613 0.69036 0.52497 0.0
H1574 H 0.20648 0.66614 0.53985 0.0
H1575 H 0.24528 0.7073 0.542 0.0
H1576 H 0.24456 0.64881 0.48343 0.0
H1577 H 0.27704 0.61568 0.46785 0.0
H1578 H 0.23021 0.64304 0.45613 0.0
H1579 H 0.26202 0.61044 0.44077 0.0
H1580 H 0.29189 0.68246 0.45103 0.0
H1581 H 0.25603 0.70733 0.47419 0.0
H1582 H 0.20771 0.60427 0.53449 0.0
H1583 H 0.2115 0.58837 0.4836 0.0
Li1584 Li 0.37574 0.52308 0.74829 0.0
Li1585 Li 0.3982 0.54273 0.7629 0.0
Li1586 Li 0.37504 0.55259 0.75047 0.0
Li1587 Li 0.39493 0.54189 0.73379 0.0
C1588 C 0.36639 0.52779 0.77804 0.0
N1589 N 0.34873 0.50535 0.79664 0.0
C1590 C 0.37415 0.52121 0.79067 0.0
C1591 C 0.34963 0.523 0.77493 0.0
C1592 C 0.36501 0.50988 0.79993 0.0
C1593 C 0.34093 0.51161 0.78444 0.0
C1594 C 0.40876 0.51546 0.73737 0.0
C1595 C 0.43441 0.51419 0.72565 0.0
N1596 N 0.42773 0.49939 0.71698 0.0
C1597 C 0.40216 0.50021 0.72839 0.0
C1598 C 0.42503 0.52248 0.73606 0.0
C1599 C 0.41196 0.49228 0.71815 0.0
C1600 C 0.35011 0.49558 0.73835 0.0
N1601 N 0.36384 0.50096 0.74809 0.0
C1602 C 0.36133 0.4745 0.75913 0.0
C1603 C 0.36966 0.49076 0.75821 0.0
C1604 C 0.34701 0.4686 0.74936 0.0
C1605 C 0.34145 0.47931 0.73877 0.0
H1606 H 0.34585 0.50392 0.73032 0.0
H1607 H 0.38076 0.49535 0.76563 0.0
C1608 C 0.41084 0.55524 0.79482 0.0
N1609 N 0.41282 0.5449 0.78147 0.0
C1610 C 0.4193 0.5544 0.80958 0.0
C1611 C 0.43209 0.53275 0.79639 0.0
C1612 C 0.42343 0.53405 0.78189 0.0
C1613 C 0.4297 0.54263 0.81062 0.0
H1614 H 0.40201 0.56345 0.79423 0.0
H1615 H 0.42445 0.52567 0.77123 0.0
C1616 C 0.35978 0.54304 0.722 0.0
N1617 N 0.33737 0.55792 0.7058 0.0
C1618 C 0.36455 0.55316 0.70961 0.0
C1619 C 0.3436 0.54039 0.72609 0.0
C1620 C 0.35303 0.56058 0.70157 0.0
C1621 C 0.33247 0.54807 0.71778 0.0
C1622 C 0.40919 0.57403 0.75879 0.0
C1623 C 0.40362 0.58626 0.76892 0.0
C1624 C 0.42582 0.57391 0.75855 0.0
C1625 C 0.41482 0.59818 0.77871 0.0
C1626 C 0.43663 0.58603 0.76854 0.0
N1627 N 0.43095 0.59781 0.77833 0.0
C1628 C 0.3495 0.56827 0.76258 0.0
C1629 C 0.36486 0.5822 0.74279 0.0
C1630 C 0.33974 0.58058 0.76362 0.0
N1631 N 0.3617 0.56927 0.75222 0.0
C1632 C 0.35543 0.59477 0.74343 0.0
C1633 C 0.34265 0.59406 0.75395 0.0
H1634 H 0.34735 0.55795 0.77006 0.0
H1635 H 0.37478 0.58275 0.7348 0.0
C1636 C 0.40221 0.53116 0.70206 0.0
N1637 N 0.40585 0.54385 0.71423 0.0
C1638 C 0.41049 0.53183 0.68778 0.0
C1639 C 0.42553 0.55903 0.6985 0.0
C1640 C 0.41709 0.55772 0.71266 0.0
C1641 C 0.42241 0.54587 0.68586 0.0
H1642 H 0.39302 0.5204 0.70357 0.0
H1643 H 0.41951 0.56777 0.72242 0.0
O1644 O 0.37516 0.53869 0.76863 0.0
O1645 O 0.39932 0.52353 0.74731 0.0
O1646 O 0.37094 0.53598 0.73028 0.0
O1647 O 0.39842 0.56216 0.74922 0.0
H1648 H 0.38711 0.52463 0.79321 0.0
H1649 H 0.34345 0.52779 0.76507 0.0
H1650 H 0.37087 0.50465 0.8097 0.0
H1651 H 0.32798 0.5077 0.78208 0.0
H1652 H 0.44698 0.51954 0.72443 0.0
H1653 H 0.38959 0.49462 0.72919 0.0
H1654 H 0.43031 0.5343 0.74288 0.0
H1655 H 0.407 0.48051 0.71108 0.0
H1656 H 0.36614 0.46656 0.76727 0.0
H1657 H 0.33041 0.47525 0.7311 0.0
H1658 H 0.41722 0.56237 0.82022 0.0
H1659 H 0.43975 0.52331 0.79665 0.0
H1660 H 0.37703 0.5554 0.70634 0.0
H1661 H 0.33973 0.5327 0.73573 0.0
H1662 H 0.35656 0.5685 0.692 0.0
H1663 H 0.31993 0.54625 0.7209 0.0
H1664 H 0.39079 0.58649 0.76933 0.0
H1665 H 0.43033 0.56449 0.75083 0.0
H1666 H 0.41069 0.60769 0.78665 0.0
H1667 H 0.44953 0.58604 0.76853 0.0
H1668 H 0.32996 0.57946 0.7718 0.0
H1669 H 0.35832 0.60508 0.73598 0.0
H1670 H 0.40778 0.52128 0.67852 0.0
H1671 H 0.43433 0.57026 0.69745 0.0
Li1672 Li 0.6121 0.00813 0.77139 0.0
Li1673 Li 0.63602 0.02379 0.76201 0.0
Li1674 Li 0.61511 0.00626 0.74259 0.0
Li1675 Li 0.63287 0.99349 0.76127 0.0
C1676 C 0.61058 0.04127 0.76525 0.0
N1677 N 0.60544 0.07092 0.78159 0.0
C1678 C 0.61547 0.04516 0.78176 0.0
C1679 C 0.603 0.05244 0.75708 0.0
C1680 C 0.61279 0.06021 0.78979 0.0
C1681 C 0.60052 0.06737 0.76554 0.0
C1682 C 0.6473 0.01525 0.79158 0.0
C1683 C 0.6761 0.02009 0.79835 0.0
N1684 N 0.67353 0.02656 0.81359 0.0
C1685 C 0.64493 0.02184 0.80734 0.0
C1686 C 0.66299 0.01429 0.78707 0.0
C1687 C 0.65836 0.02753 0.81828 0.0
C1688 C 0.59915 0.00127 0.80115 0.0
N1689 N 0.59631 0.00786 0.78698 0.0
C1690 C 0.571 0.01402 0.79555 0.0
C1691 C 0.58254 0.01404 0.78389 0.0
C1692 C 0.57367 0.0074 0.81037 0.0
C1693 C 0.5879 0.00086 0.81308 0.0
H1694 H 0.61019 0.99636 0.80316 0.0
H1695 H 0.58057 0.01902 0.77238 0.0
C1696 C 0.65786 0.04808 0.74939 0.0
N1697 N 0.65163 0.0438 0.76366 0.0
C1698 C 0.66959 0.06244 0.74913 0.0
C1699 C 0.66818 0.06788 0.77827 0.0
C1700 C 0.65643 0.05341 0.77796 0.0
C1701 C 0.67487 0.07255 0.7637 0.0
H1702 H 0.65367 0.04032 0.73818 0.0
H1703 H 0.65108 0.04998 0.7891 0.0
C1704 C 0.59598 0.97815 0.76161 0.0
N1705 N 0.56902 0.96084 0.77459 0.0
C1706 C 0.59782 0.96749 0.77367 0.0
C1707 C 0.58046 0.97993 0.75602 0.0
C1708 C 0.58403 0.95886 0.78011 0.0
C1709 C 0.56697 0.97108 0.76277 0.0
C1710 C 0.65009 0.00282 0.73358 0.0
C1711 C 0.645 0.99309 0.71884 0.0
C1712 C 0.66666 0.00739 0.73797 0.0
C1713 C 0.65656 0.98775 0.70892 0.0
C1714 C 0.67785 0.0018 0.72773 0.0
N1715 N 0.67261 0.99216 0.71355 0.0
C1716 C 0.60358 0.01976 0.71592 0.0
C1717 C 0.59813 0.98994 0.7135 0.0
C1718 C 0.59541 0.01996 0.70092 0.0
N1719 N 0.60464 0.00492 0.7219 0.0
C1720 C 0.59006 0.98954 0.69826 0.0
C1721 C 0.58852 0.00472 0.69195 0.0
H1722 H 0.60903 0.03143 0.7229 0.0
H1723 H 0.59918 0.97836 0.71867 0.0
C1724 C 0.65003 0.9734 0.77869 0.0
N1725 N 0.64431 0.97563 0.76352 0.0
C1726 C 0.66064 0.9622 0.78069 0.0
C1727 C 0.65806 0.95465 0.75156 0.0
C1728 C 0.64755 0.96606 0.75013 0.0
C1729 C 0.6651 0.95302 0.76695 0.0
H1730 H 0.64672 0.98065 0.78921 0.0
H1731 H 0.64232 0.96759 0.7383 0.0
O1732 O 0.61303 0.02657 0.75709 0.0
O1733 O 0.63429 0.00978 0.78067 0.0
O1734 O 0.60932 0.98708 0.75551 0.0
O1735 O 0.63892 0.0082 0.74341 0.0
H1736 H 0.62121 0.03664 0.78833 0.0
H1737 H 0.59903 0.0496 0.74433 0.0
H1738 H 0.61653 0.06336 0.80257 0.0
H1739 H 0.59468 0.07614 0.75935 0.0
H1740 H 0.68831 0.01944 0.795 0.0
H1741 H 0.63286 0.02265 0.81107 0.0
H1742 H 0.66501 0.00903 0.77502 0.0
H1743 H 0.65671 0.03273 0.83049 0.0
H1744 H 0.56012 0.01906 0.793 0.0
H1745 H 0.59048 0.99584 0.82444 0.0
H1746 H 0.6745 0.06557 0.73764 0.0
H1747 H 0.6717 0.07554 0.7897 0.0
H1748 H 0.60979 0.96605 0.77815 0.0
H1749 H 0.57887 0.9882 0.74672 0.0
H1750 H 0.58525 0.95065 0.78954 0.0
H1751 H 0.55487 0.97241 0.75866 0.0
H1752 H 0.63225 0.98953 0.71517 0.0
H1753 H 0.67088 0.0153 0.74909 0.0
H1754 H 0.65277 0.98009 0.69755 0.0
H1755 H 0.6907 0.00519 0.73102 0.0
H1756 H 0.59458 0.03188 0.6963 0.0
H1757 H 0.58482 0.97758 0.69163 0.0
H1758 H 0.66548 0.96092 0.79281 0.0
H1759 H 0.66111 0.94768 0.74068 0.0
Li1760 Li 0.76974 0.66971 0.01708 0.0
Li1761 Li 0.78049 0.64589 0.00377 0.0
Li1762 Li 0.76814 0.66568 0.98712 0.0
Li1763 Li 0.75122 0.64494 0.00193 0.0
C1764 C 0.80022 0.68345 0.00724 0.0
N1765 N 0.82508 0.7099 0.0173 0.0
C1766 C 0.81425 0.68055 0.01545 0.0
C1767 C 0.79894 0.69977 0.00393 0.0
C1768 C 0.82666 0.6941 0.02049 0.0
C1769 C 0.81161 0.71298 0.00918 0.0
C1770 C 0.77034 0.63641 0.03342 0.0
C1771 C 0.77177 0.60945 0.04296 0.0
N1772 N 0.7801 0.61731 0.05682 0.0
C1773 C 0.77879 0.64422 0.04783 0.0
C1774 C 0.76667 0.61889 0.03101 0.0
C1775 C 0.78366 0.63434 0.05948 0.0
C1776 C 0.75613 0.68831 0.04069 0.0
N1777 N 0.77075 0.68545 0.0358 0.0
C1778 C 0.78433 0.70272 0.05901 0.0
C1779 C 0.78475 0.69247 0.04458 0.0
C1780 C 0.76935 0.70563 0.06453 0.0
C1781 C 0.75514 0.69845 0.05502 0.0
H1782 H 0.74515 0.68228 0.03368 0.0
H1783 H 0.79619 0.68969 0.04075 0.0
C1784 C 0.79977 0.62374 0.99032 0.0
N1785 N 0.79721 0.63266 0.0044 0.0
C1786 C 0.81202 0.61407 0.98986 0.0
C1787 C 0.81882 0.62296 0.01842 0.0
C1788 C 0.80651 0.63253 0.01828 0.0
C1789 C 0.82177 0.61359 0.00405 0.0
H1790 H 0.79243 0.62431 0.97935 0.0
H1791 H 0.80455 0.64003 0.02922 0.0
C1792 C 0.74316 0.68188 0.99736 0.0
N1793 N 0.72796 0.70755 0.98837 0.0
C1794 C 0.7276 0.67822 0.98966 0.0
C1795 C 0.75088 0.69859 0.00071 0.0
C1796 C 0.72015 0.69138 0.98514 0.0
C1797 C 0.74302 0.71139 0.99602 0.0
C1798 C 0.75736 0.62676 0.97467 0.0
C1799 C 0.74983 0.62816 0.95954 0.0
C1800 C 0.75663 0.61095 0.98033 0.0
C1801 C 0.74141 0.61371 0.95043 0.0
C1802 C 0.7481 0.5968 0.97087 0.0
N1803 N 0.74071 0.59846 0.95624 0.0
C1804 C 0.78407 0.6841 0.96321 0.0
C1805 C 0.75553 0.67698 0.9586 0.0
C1806 C 0.78526 0.69241 0.94909 0.0
N1807 N 0.76934 0.67676 0.96775 0.0
C1808 C 0.75614 0.68519 0.94443 0.0
C1809 C 0.77116 0.6931 0.9395 0.0
H1810 H 0.79491 0.68341 0.97051 0.0
H1811 H 0.74402 0.67069 0.96225 0.0
C1812 C 0.72575 0.62522 0.01632 0.0
N1813 N 0.73037 0.63136 0.00213 0.0
C1814 C 0.71011 0.61626 0.01736 0.0
C1815 C 0.7043 0.61999 0.98911 0.0
C1816 C 0.72001 0.62898 0.98866 0.0
C1817 C 0.69908 0.61364 0.00366 0.0
H1818 H 0.73408 0.62767 0.02698 0.0
H1819 H 0.72383 0.63437 0.97766 0.0
O1820 O 0.78797 0.67032 0.00218 0.0
O1821 O 0.76545 0.64588 0.02189 0.0
O1822 O 0.75065 0.66914 0.00181 0.0
O1823 O 0.76555 0.64078 0.98382 0.0
H1824 H 0.81552 0.668 0.01798 0.0
H1825 H 0.78834 0.7022 0.99727 0.0
H1826 H 0.83755 0.69205 0.02694 0.0
H1827 H 0.81075 0.72568 0.00675 0.0
H1828 H 0.76907 0.59587 0.04122 0.0
H1829 H 0.78164 0.65776 0.04994 0.0
H1830 H 0.75991 0.61264 0.02008 0.0
H1831 H 0.79028 0.64023 0.07064 0.0
H1832 H 0.79559 0.70805 0.06593 0.0
H1833 H 0.74331 0.70005 0.05894 0.0
H1834 H 0.81402 0.60735 0.97843 0.0
H1835 H 0.82591 0.62289 0.02969 0.0
H1836 H 0.7214 0.66536 0.9871 0.0
H1837 H 0.76274 0.70165 0.007 0.0
H1838 H 0.70816 0.68873 0.97907 0.0
H1839 H 0.74888 0.72438 0.9985 0.0
H1840 H 0.75038 0.64029 0.95492 0.0
H1841 H 0.76262 0.60964 0.99189 0.0
H1842 H 0.73544 0.61461 0.93873 0.0
H1843 H 0.74738 0.58449 0.97513 0.0
H1844 H 0.79712 0.69804 0.94561 0.0
H1845 H 0.74493 0.68549 0.93751 0.0
H1846 H 0.70656 0.6119 0.02892 0.0
H1847 H 0.69631 0.61815 0.97819 0.0
Li1848 Li 0.87721 0.52147 0.76547 0.0
Li1849 Li 0.89766 0.53663 0.7846 0.0
Li1850 Li 0.88105 0.55091 0.76539 0.0
Li1851 Li 0.90166 0.53386 0.75535 0.0
C1852 C 0.86207 0.53032 0.79213 0.0
N1853 N 0.83688 0.5144 0.80868 0.0
C1854 C 0.86402 0.51646 0.80042 0.0
C1855 C 0.84735 0.53616 0.79233 0.0
C1856 C 0.85112 0.50855 0.80868 0.0
C1857 C 0.83475 0.52793 0.80076 0.0
C1858 C 0.91356 0.51139 0.77397 0.0
C1859 C 0.94256 0.51891 0.77914 0.0
N1860 N 0.94328 0.50267 0.78138 0.0
C1861 C 0.9146 0.49476 0.77634 0.0
C1862 C 0.92766 0.52356 0.77541 0.0
C1863 C 0.92973 0.49061 0.78007 0.0
C1864 C 0.86427 0.48705 0.76315 0.0
N1865 N 0.86019 0.50248 0.76291 0.0
C1866 C 0.83198 0.49058 0.76055 0.0
C1867 C 0.84444 0.50449 0.76147 0.0
C1868 C 0.83585 0.47453 0.76122 0.0
C1869 C 0.85222 0.47281 0.76235 0.0
H1870 H 0.87688 0.48583 0.76416 0.0
H1871 H 0.84154 0.51693 0.76131 0.0
C1872 C 0.91361 0.55465 0.81304 0.0
N1873 N 0.90773 0.53899 0.80574 0.0
C1874 C 0.9214 0.55671 0.82857 0.0
C1875 C 0.91653 0.5265 0.82884 0.0
C1876 C 0.90893 0.52503 0.8133 0.0
C1877 C 0.92294 0.5425 0.83663 0.0
H1878 H 0.91228 0.56552 0.80677 0.0
H1879 H 0.9041 0.51273 0.8072 0.0
C1880 C 0.8689 0.52425 0.7351 0.0
N1881 N 0.8469 0.50301 0.71346 0.0
C1882 C 0.87311 0.50972 0.7274 0.0
C1883 C 0.85354 0.52805 0.7317 0.0
C1884 C 0.8618 0.49912 0.71653 0.0
C1885 C 0.84258 0.51713 0.72074 0.0
C1886 C 0.91578 0.56885 0.76789 0.0
C1887 C 0.91148 0.57956 0.75673 0.0
C1888 C 0.93096 0.57277 0.77637 0.0
C1889 C 0.92255 0.59386 0.75405 0.0
C1890 C 0.94169 0.58719 0.77334 0.0
N1891 N 0.9373 0.59734 0.76233 0.0
C1892 C 0.86718 0.57758 0.77778 0.0
C1893 C 0.86537 0.57315 0.7489 0.0
C1894 C 0.85739 0.58977 0.77738 0.0
N1895 N 0.87066 0.56938 0.76368 0.0
C1896 C 0.85553 0.58526 0.74791 0.0
C1897 C 0.85114 0.59346 0.76231 0.0
H1898 H 0.87155 0.5742 0.78934 0.0
H1899 H 0.86837 0.56636 0.73791 0.0
C1900 C 0.91995 0.51595 0.73471 0.0
N1901 N 0.91721 0.53164 0.73945 0.0
C1902 C 0.93086 0.51355 0.72282 0.0
C1903 C 0.93594 0.54349 0.72085 0.0
C1904 C 0.9249 0.54529 0.73273 0.0
C1905 C 0.93896 0.52745 0.71568 0.0
H1906 H 0.9135 0.50523 0.74001 0.0
H1907 H 0.92224 0.55754 0.73626 0.0
O1908 O 0.87449 0.5381 0.78381 0.0
O1909 O 0.89874 0.51561 0.77049 0.0
O1910 O 0.87973 0.53463 0.746 0.0
O1911 O 0.90497 0.55495 0.77091 0.0
H1912 H 0.87527 0.51168 0.80023 0.0
H1913 H 0.84563 0.54684 0.78592 0.0
H1914 H 0.85241 0.49772 0.81504 0.0
H1915 H 0.82327 0.53227 0.80098 0.0
H1916 H 0.95355 0.52823 0.78025 0.0
H1917 H 0.90382 0.48517 0.77539 0.0
H1918 H 0.92714 0.53642 0.77356 0.0
H1919 H 0.93069 0.47779 0.78195 0.0
H1920 H 0.81949 0.4924 0.75977 0.0
H1921 H 0.85567 0.46058 0.76264 0.0
H1922 H 0.92607 0.56926 0.83425 0.0
H1923 H 0.91765 0.51522 0.83456 0.0
H1924 H 0.8849 0.50655 0.72996 0.0
H1925 H 0.84998 0.53912 0.73769 0.0
H1926 H 0.86486 0.48777 0.71056 0.0
H1927 H 0.83061 0.51985 0.7181 0.0
H1928 H 0.89985 0.5767 0.74998 0.0
H1929 H 0.93445 0.56481 0.78525 0.0
H1930 H 0.91942 0.60217 0.74535 0.0
H1931 H 0.9535 0.59034 0.77979 0.0
H1932 H 0.85452 0.59602 0.78873 0.0
H1933 H 0.8509 0.58768 0.73606 0.0
H1934 H 0.93285 0.50096 0.71917 0.0
H1935 H 0.94163 0.55449 0.71538 0.0
Li1936 Li 0.74866 0.38988 0.52834 0.0
Li1937 Li 0.73596 0.41138 0.51596 0.0
Li1938 Li 0.75187 0.3941 0.50017 0.0
Li1939 Li 0.76445 0.41495 0.52076 0.0
C1940 C 0.71622 0.38017 0.51514 0.0
N1941 N 0.68586 0.36742 0.52496 0.0
C1942 C 0.71154 0.3855 0.53051 0.0
C1943 C 0.70545 0.36839 0.50477 0.0
C1944 C 0.69614 0.3789 0.53524 0.0
C1945 C 0.69016 0.36208 0.50996 0.0
C1946 C 0.7542 0.42705 0.54777 0.0
C1947 C 0.75903 0.45709 0.55433 0.0
N1948 N 0.7677 0.4553 0.56818 0.0
C1949 C 0.76309 0.42549 0.5621 0.0
C1950 C 0.75209 0.44297 0.54386 0.0
C1951 C 0.76984 0.43993 0.57225 0.0
C1952 C 0.76025 0.37584 0.5549 0.0
N1953 N 0.74766 0.37342 0.5435 0.0
C1954 C 0.73621 0.34763 0.55371 0.0
C1955 C 0.73594 0.35945 0.54247 0.0
C1956 C 0.74886 0.35004 0.56586 0.0
C1957 C 0.76108 0.36428 0.56628 0.0
H1958 H 0.76974 0.38671 0.555 0.0
H1959 H 0.7265 0.35726 0.53283 0.0
C1960 C 0.71266 0.42564 0.49995 0.0
N1961 N 0.71809 0.42252 0.51492 0.0
C1962 C 0.70025 0.43491 0.49843 0.0
C1963 C 0.69909 0.43729 0.52777 0.0
C1964 C 0.71153 0.42796 0.52871 0.0
C1965 C 0.69341 0.44101 0.51247 0.0
H1966 H 0.71822 0.42117 0.48923 0.0
H1967 H 0.71615 0.42529 0.54046 0.0
C1968 C 0.77315 0.37643 0.51443 0.0
N1969 N 0.78172 0.34509 0.50967 0.0
C1970 C 0.7893 0.37462 0.51701 0.0
C1971 C 0.76134 0.36229 0.50943 0.0
C1972 C 0.7934 0.35867 0.51453 0.0
C1973 C 0.76593 0.34656 0.50709 0.0
C1974 C 0.76233 0.42488 0.48903 0.0
C1975 C 0.77784 0.42092 0.48789 0.0
C1976 C 0.75692 0.43533 0.47824 0.0
C1977 C 0.78768 0.4275 0.47596 0.0
C1978 C 0.76713 0.44166 0.46646 0.0
N1979 N 0.78217 0.43764 0.46557 0.0
C1980 C 0.7396 0.37837 0.46961 0.0
C1981 C 0.76801 0.38027 0.47412 0.0
C1982 C 0.73995 0.36988 0.45422 0.0
N1983 N 0.75348 0.38324 0.47921 0.0
C1984 C 0.76893 0.37186 0.45881 0.0
C1985 C 0.75475 0.36645 0.4487 0.0
H1986 H 0.72826 0.38104 0.47397 0.0
H1987 H 0.77888 0.38428 0.482 0.0
C1988 C 0.79596 0.42655 0.53451 0.0
N1989 N 0.78329 0.43128 0.52647 0.0
C1990 C 0.81076 0.43752 0.5371 0.0
C1991 C 0.79894 0.45823 0.52366 0.0
C1992 C 0.78432 0.44691 0.52148 0.0
C1993 C 0.81254 0.45341 0.53117 0.0
H1994 H 0.79467 0.41406 0.53844 0.0
H1995 H 0.77397 0.45035 0.5152 0.0
O1996 O 0.73118 0.38651 0.5101 0.0
O1997 O 0.74776 0.4131 0.53748 0.0
O1998 O 0.76906 0.39203 0.51688 0.0
O1999 O 0.75242 0.41867 0.50063 0.0
H2000 H 0.71972 0.39449 0.53877 0.0
H2001 H 0.70889 0.36413 0.49284 0.0
H2002 H 0.69237 0.38288 0.54711 0.0
H2003 H 0.68171 0.35293 0.50207 0.0
H2004 H 0.7576 0.4695 0.5514 0.0
H2005 H 0.76478 0.41329 0.56537 0.0
H2006 H 0.74543 0.44443 0.53271 0.0
H2007 H 0.7768 0.43891 0.58336 0.0
H2008 H 0.72674 0.33662 0.5528 0.0
H2009 H 0.77104 0.3666 0.57547 0.0
H2010 H 0.69634 0.43763 0.48642 0.0
H2011 H 0.69399 0.44155 0.53887 0.0
H2012 H 0.79858 0.38544 0.52088 0.0
H2013 H 0.74878 0.3634 0.50735 0.0
H2014 H 0.80586 0.35709 0.51647 0.0
H2015 H 0.75692 0.33552 0.50323 0.0
H2016 H 0.78229 0.41292 0.49618 0.0
H2017 H 0.74496 0.43855 0.47897 0.0
H2018 H 0.79971 0.42455 0.47496 0.0
H2019 H 0.76309 0.44977 0.45803 0.0
H2020 H 0.72878 0.36612 0.4467 0.0
H2021 H 0.78055 0.36932 0.45508 0.0
H2022 H 0.82083 0.43342 0.54327 0.0
H2023 H 0.79975 0.47027 0.51878 0.0
Li2024 Li 0.62211 0.50334 0.29462 0.0
Li2025 Li 0.64183 0.52123 0.27984 0.0
Li2026 Li 0.61902 0.50192 0.26547 0.0
Li2027 Li 0.64167 0.49152 0.27839 0.0
C2028 C 0.60914 0.52998 0.29054 0.0
N2029 N 0.59068 0.5466 0.31104 0.0
C2030 C 0.61622 0.54482 0.29994 0.0
C2031 C 0.59265 0.52364 0.29149 0.0
C2032 C 0.60667 0.55304 0.31023 0.0
C2033 C 0.58354 0.5322 0.30196 0.0
C2034 C 0.65719 0.50175 0.30687 0.0
C2035 C 0.68428 0.49613 0.31119 0.0
N2036 N 0.67943 0.48747 0.32401 0.0
C2037 C 0.65248 0.49286 0.32012 0.0
C2038 C 0.67323 0.50349 0.3024 0.0
C2039 C 0.6639 0.48572 0.32862 0.0
C2040 C 0.59851 0.48938 0.3154 0.0
N2041 N 0.61097 0.50223 0.31413 0.0
C2042 C 0.60717 0.51466 0.34067 0.0
C2043 C 0.61559 0.51461 0.32647 0.0
C2044 C 0.59405 0.5017 0.34224 0.0
C2045 C 0.58984 0.48884 0.32946 0.0
H2046 H 0.59521 0.47963 0.30545 0.0
H2047 H 0.62572 0.52453 0.32518 0.0
C2048 C 0.64783 0.5534 0.26983 0.0
N2049 N 0.65417 0.54309 0.27943 0.0
C2050 C 0.65614 0.5696 0.26854 0.0
C2051 C 0.6773 0.56439 0.28726 0.0
C2052 C 0.66856 0.54823 0.28815 0.0
C2053 C 0.67109 0.57531 0.27734 0.0
H2054 H 0.63631 0.54895 0.26308 0.0
H2055 H 0.67324 0.53981 0.29581 0.0
C2056 C 0.6073 0.47089 0.27002 0.0
N2057 N 0.58552 0.44715 0.25046 0.0
C2058 C 0.61275 0.458 0.26068 0.0
C2059 C 0.59077 0.47167 0.26947 0.0
C2060 C 0.60155 0.44612 0.25086 0.0
C2061 C 0.57996 0.45956 0.25947 0.0
C2062 C 0.65127 0.51546 0.2504 0.0
C2063 C 0.64385 0.52279 0.23808 0.0
C2064 C 0.66813 0.51908 0.25316 0.0
C2065 C 0.65344 0.5337 0.22877 0.0
C2066 C 0.67729 0.53009 0.24361 0.0
N2067 N 0.66981 0.53712 0.23172 0.0
C2068 C 0.59477 0.51128 0.24564 0.0
C2069 C 0.60642 0.48887 0.2337 0.0
C2070 C 0.58647 0.51247 0.23089 0.0
N2071 N 0.60473 0.49984 0.24667 0.0
C2072 C 0.59825 0.48954 0.21873 0.0
C2073 C 0.58852 0.50183 0.21705 0.0
H2074 H 0.59402 0.52016 0.25599 0.0
H2075 H 0.61476 0.4802 0.23476 0.0
C2076 C 0.65177 0.4624 0.28774 0.0
N2077 N 0.65431 0.47418 0.27699 0.0
C2078 C 0.66039 0.44915 0.28705 0.0
C2079 C 0.67388 0.46024 0.26403 0.0
C2080 C 0.66506 0.47335 0.26524 0.0
C2081 C 0.67156 0.44786 0.275 0.0
H2082 H 0.64295 0.46325 0.29681 0.0
H2083 H 0.6666 0.48271 0.25664 0.0
O2084 O 0.61834 0.52156 0.28064 0.0
O2085 O 0.64613 0.50861 0.29823 0.0
O2086 O 0.61809 0.48275 0.2796 0.0
O2087 O 0.64208 0.50503 0.2599 0.0
H2088 H 0.62898 0.54985 0.29945 0.0
H2089 H 0.587 0.51212 0.28436 0.0
H2090 H 0.61201 0.56449 0.31763 0.0
H2091 H 0.57079 0.52738 0.30291 0.0
H2092 H 0.6967 0.49726 0.3078 0.0
H2093 H 0.6401 0.49134 0.32371 0.0
H2094 H 0.67705 0.51024 0.29212 0.0
H2095 H 0.66042 0.47874 0.33886 0.0
H2096 H 0.61092 0.52467 0.35035 0.0
H2097 H 0.57975 0.47868 0.33017 0.0
H2098 H 0.65099 0.57747 0.26058 0.0
H2099 H 0.68867 0.56835 0.29442 0.0
H2100 H 0.6255 0.45723 0.2609 0.0
H2101 H 0.58636 0.48162 0.27655 0.0
H2102 H 0.6056 0.4361 0.24353 0.0
H2103 H 0.56714 0.46006 0.25886 0.0
H2104 H 0.63083 0.52025 0.23583 0.0
H2105 H 0.67406 0.51363 0.26272 0.0
H2106 H 0.64785 0.53952 0.21925 0.0
H2107 H 0.69033 0.5331 0.24569 0.0
H2108 H 0.57936 0.52233 0.23015 0.0
H2109 H 0.60005 0.48097 0.20844 0.0
H2110 H 0.65832 0.44004 0.29589 0.0
H2111 H 0.68213 0.45961 0.25436 0.0
Dy2112 Dy 0.98681 0.01698 0.01054 0.0
C2113 C 0.05635 0.02396 0.01263 0.0
C2114 C 0.95489 0.01798 0.01424 0.0
Dy2115 Dy 0.02428 0.02468 0.01566 0.0
O2116 O 0.96061 0.01157 0.00123 0.0
O2117 O 0.96658 0.02367 0.02519 0.0
O2118 O 0.98868 0.00286 0.9862 0.0
O2119 O 0.00683 0.02327 0.9952 0.0
C2120 C 0.00289 0.01146 0.98405 0.0
C2121 C 0.00806 0.0303 0.04204 0.0
O2122 O 0.02068 0.04936 0.00782 0.0
O2123 O 0.99272 0.04514 0.01016 0.0
O2124 O 0.05005 0.02851 0.02604 0.0
O2125 O 0.04515 0.02 0.0009 0.0
O2126 O 0.02217 0.03908 0.03978 0.0
O2127 O 0.00426 0.01838 0.03098 0.0
O2128 O 0.99053 0.99237 0.01855 0.0
O2129 O 0.01838 0.9965 0.01559 0.0
C2130 C 0.00674 0.05498 0.00804 0.0
C2131 C 0.00444 0.98672 0.01802 0.0
Dy2132 Dy 0.26339 0.76961 0.24264 0.0
C2133 C 0.26628 0.77114 0.31372 0.0
C2134 C 0.26324 0.77302 0.21018 0.0
Dy2135 Dy 0.25903 0.77169 0.28142 0.0
O2136 O 0.27488 0.77991 0.22084 0.0
O2137 O 0.2516 0.76415 0.21725 0.0
O2138 O 0.28665 0.76015 0.24733 0.0
O2139 O 0.27864 0.77649 0.26509 0.0
C2140 C 0.28916 0.7675 0.26209 0.0
C2141 C 0.23051 0.76837 0.26396 0.0
O2142 O 0.26569 0.79876 0.2776 0.0
O2143 O 0.26051 0.79632 0.2493 0.0
O2144 O 0.25625 0.77992 0.30772 0.0
O2145 O 0.27231 0.76276 0.30208 0.0
O2146 O 0.23148 0.76927 0.27982 0.0
O2147 O 0.24453 0.76886 0.25926 0.0
O2148 O 0.25359 0.74282 0.24575 0.0
O2149 O 0.25838 0.74435 0.27407 0.0
C2150 C 0.2635 0.80539 0.26369 0.0
C2151 C 0.2545 0.7357 0.25958 0.0
Dy2152 Dy 0.52552 0.02008 0.51123 0.0
C2153 C 0.45924 0.03164 0.50675 0.0
C2154 C 0.5554 0.01131 0.51494 0.0
Dy2155 Dy 0.48906 0.02345 0.51261 0.0
O2156 O 0.54647 0.00926 0.50142 0.0
O2157 O 0.54811 0.01839 0.52647 0.0
O2158 O 0.52549 0.02929 0.48636 0.0
O2159 O 0.50431 0.0151 0.49423 0.0
C2160 C 0.51017 0.02336 0.48303 0.0
C2161 C 0.50415 0.0206 0.54108 0.0
O2162 O 0.48641 0.99585 0.50602 0.0
O2163 O 0.51259 0.99425 0.51536 0.0
O2164 O 0.46373 0.0251 0.51962 0.0
O2165 O 0.47097 0.03348 0.49695 0.0
O2166 O 0.48868 0.01543 0.53799 0.0
O2167 O 0.51015 0.02835 0.52963 0.0
O2168 O 0.52904 0.04791 0.51652 0.0
O2169 O 0.50188 0.05012 0.5118 0.0
C2170 C 0.49749 0.98704 0.51052 0.0
C2171 C 0.51746 0.05696 0.51457 0.0
Dy2172 Dy 0.2403 0.27293 0.76429 0.0
C2173 C 0.30963 0.28218 0.76117 0.0
C2174 C 0.20786 0.26715 0.76917 0.0
Dy2175 Dy 0.27729 0.27482 0.76614 0.0
O2176 O 0.21634 0.28144 0.76642 0.0
O2177 O 0.21706 0.2558 0.76896 0.0
O2178 O 0.24377 0.29716 0.75273 0.0
O2179 O 0.26134 0.2929 0.7701 0.0
C2180 C 0.2579 0.30281 0.76012 0.0
C2181 C 0.25995 0.24484 0.7703 0.0
O2182 O 0.27434 0.28414 0.79191 0.0
O2183 O 0.24682 0.27315 0.79109 0.0
O2184 O 0.30269 0.26946 0.76831 0.0
O2185 O 0.29893 0.2911 0.75704 0.0
O2186 O 0.27432 0.25033 0.77722 0.0
O2187 O 0.25634 0.2548 0.76045 0.0
O2188 O 0.24275 0.26414 0.73828 0.0
O2189 O 0.27076 0.27255 0.73913 0.0
C2190 C 0.26078 0.27958 0.79932 0.0
C2191 C 0.25655 0.26712 0.73092 0.0
Dy2192 Dy 0.002 0.01533 0.49475 0.0
C2193 C 0.02803 0.03617 0.56231 0.0
C2194 C 0.98343 0.00622 0.46652 0.0
Dy2195 Dy 0.01287 0.02937 0.53195 0.0
O2196 O 0.99717 0.00146 0.46979 0.0
O2197 O 0.97965 0.01554 0.4789 0.0
O2198 O 0.02677 0.02223 0.48452 0.0
O2199 O 0.02328 0.02788 0.50878 0.0
C2200 C 0.03378 0.02917 0.49842 0.0
C2201 C 0.98095 0.02038 0.52413 0.0
O2202 O 0.01469 0.05331 0.52026 0.0
O2203 O 0.99776 0.04202 0.49728 0.0
O2204 O 0.01311 0.03748 0.55872 0.0
O2205 O 0.03479 0.03149 0.54923 0.0
O2206 O 0.98698 0.03207 0.53564 0.0
O2207 O 0.99206 0.01335 0.51855 0.0
O2208 O 0.00438 0.99123 0.50508 0.0
O2209 O 0.01602 0.00236 0.53095 0.0
C2210 C 0.00571 0.05503 0.50706 0.0
C2211 C 0.01131 0.98958 0.51953 0.0
Dy2212 Dy 0.27579 0.77982 0.77141 0.0
C2213 C 0.21306 0.74755 0.74086 0.0
C2214 C 0.30443 0.79481 0.7874 0.0
Dy2215 Dy 0.24102 0.76283 0.75794 0.0
O2216 O 0.30014 0.79666 0.77245 0.0
O2217 O 0.29292 0.78506 0.7937 0.0
O2218 O 0.28569 0.76937 0.74868 0.0
O2219 O 0.2625 0.77572 0.74769 0.0
C2220 C 0.27258 0.76914 0.73968 0.0
C2221 C 0.24356 0.77377 0.78951 0.0
O2222 O 0.25405 0.74086 0.75742 0.0
O2223 O 0.2763 0.75298 0.77492 0.0
O2224 O 0.21673 0.74583 0.756 0.0
O2225 O 0.2249 0.75726 0.73496 0.0
O2226 O 0.23021 0.77225 0.78052 0.0
O2227 O 0.25409 0.76752 0.7818 0.0
O2228 O 0.26287 0.8019 0.77203 0.0
O2229 O 0.24038 0.78973 0.75478 0.0
C2230 C 0.26729 0.73977 0.76638 0.0
C2231 C 0.24952 0.80296 0.7632 0.0
Dy2232 Dy 0.51298 0.02192 0.03274 0.0
C2233 C 0.50661 0.02207 0.963 0.0
C2234 C 0.51303 0.02461 0.06585 0.0
Dy2235 Dy 0.50739 0.02519 0.99612 0.0
O2236 O 0.51105 0.01059 0.05654 0.0
O2237 O 0.51512 0.03724 0.05707 0.0
O2238 O 0.52382 -0.00105 0.0267 0.0
O2239 O 0.50522 0.00442 0.01116 0.0
C2240 C 0.5153 0.99478 0.01295 0.0
C2241 C 0.50439 0.05201 0.01588 0.0
O2242 O 0.4818 0.0162 0.00154 0.0
O2243 O 0.48601 0.02042 0.02981 0.0
O2244 O 0.50964 0.03622 0.97215 0.0
O2245 O 0.50403 0.00961 0.97194 0.0
O2246 O 0.49605 0.04775 0.00204 0.0
O2247 O 0.51481 0.04273 0.01772 0.0
O2248 O 0.53844 0.03143 0.0275 0.0
O2249 O 0.53446 0.0268 -0.00076 0.0
C2250 C 0.47631 0.0171 0.01634 0.0
C2251 C 0.54407 0.03046 0.01277 0.0
Dy2252 Dy 0.26314 0.29311 0.26718 0.0
C2253 C 0.25752 0.22161 0.26558 0.0
C2254 C 0.26245 0.32591 0.26339 0.0
Dy2255 Dy 0.2565 0.25439 0.26209 0.0
O2256 O 0.2689 0.32058 0.27609 0.0
O2257 O 0.25641 0.31333 0.25284 0.0
O2258 O 0.27641 0.29232 0.29135 0.0
O2259 O 0.25713 0.27298 0.2827 0.0
C2260 C 0.26832 0.27763 0.29366 0.0
C2261 C 0.25138 0.26991 0.23563 0.0
O2262 O 0.23285 0.25832 0.27155 0.0
O2263 O 0.23594 0.28684 0.26836 0.0
O2264 O 0.24963 0.22683 0.25372 0.0
O2265 O 0.26475 0.23427 0.27547 0.0
O2266 O 0.24328 0.25522 0.23791 0.0
O2267 O 0.26256 0.27448 0.24659 0.0
O2268 O 0.28711 0.28934 0.25848 0.0
O2269 O 0.28369 0.26065 0.26094 0.0
C2270 C 0.22688 0.27238 0.2712 0.0
C2271 C 0.29292 0.27518 0.25862 0.0
Dy2272 Dy 0.50131 0.51897 0.99611 0.0
C2273 C 0.53392 0.54095 0.0611 0.0
C2274 C 0.48498 0.50739 0.96703 0.0
Dy2275 Dy 0.51462 0.5323 0.03316 0.0
O2276 O 0.49955 0.50512 0.97115 0.0
O2277 O 0.47918 0.5155 0.97906 0.0
O2278 O 0.52346 0.53432 0.98718 0.0
O2279 O 0.52469 0.52517 0.01009 0.0
C2280 C 0.5323 0.53449 0.00053 0.0
C2281 C 0.48215 0.52169 0.03025 0.0
O2282 O 0.51433 0.55609 0.02137 0.0
O2283 O 0.49558 0.54489 -0.00029 0.0
O2284 O 0.52017 0.5458 0.05829 0.0
O2285 O 0.53733 0.53186 0.0484 0.0
O2286 O 0.48992 0.52744 0.04414 0.0
O2287 O 0.49232 0.52263 0.01961 0.0
O2288 O 0.50189 0.49461 0.0069 0.0
O2289 O 0.51446 0.50475 0.03274 0.0
C2290 C 0.50414 0.55785 0.00909 0.0
C2291 C 0.50819 0.49232 0.02145 0.0
Dy2292 Dy 0.77601 0.2813 0.26777 0.0
C2293 C 0.711 0.248 0.24435 0.0
C2294 C 0.80767 0.2923 0.27796 0.0
Dy2295 Dy 0.73947 0.26077 0.26146 0.0
O2296 O 0.80234 0.28741 0.26301 0.0
O2297 O 0.79561 0.29153 0.28739 0.0
O2298 O 0.77459 0.28708 0.24162 0.0
O2299 O 0.76159 0.26457 0.24853 0.0
C2300 C 0.76418 0.27349 0.23689 0.0
C2301 C 0.74626 0.27256 0.29291 0.0
O2302 O 0.75277 0.23932 0.26283 0.0
O2303 O 0.77812 0.25485 0.27256 0.0
O2304 O 0.71513 0.24375 0.25859 0.0
O2305 O 0.72254 0.25893 0.23945 0.0
O2306 O 0.73227 0.26364 0.28764 0.0
O2307 O 0.75511 0.27387 0.28109 0.0
O2308 O 0.76243 0.30248 0.27071 0.0
O2309 O 0.73771 0.2878 0.25847 0.0
C2310 C 0.76797 0.24035 0.26874 0.0
C2311 C 0.74744 0.30197 0.26453 0.0
Dy2312 Dy 0.01016 0.52216 0.52988 0.0
C2313 C 0.00767 0.52188 0.45991 0.0
C2314 C 0.00835 0.52297 0.5628 0.0
Dy2315 Dy 0.00697 0.52492 0.49299 0.0
O2316 O 0.00318 0.51 0.55244 0.0
O2317 O 0.01458 0.53569 0.5552 0.0
O2318 O 0.01906 0.49783 0.52523 0.0
O2319 O 0.00233 0.50443 0.50832 0.0
C2320 C 0.01126 0.49388 0.51111 0.0
C2321 C 0.00595 0.55331 0.51153 0.0
O2322 O 0.98078 0.51844 0.49777 0.0
O2323 O 0.9844 0.52547 0.52576 0.0
O2324 O 0.99851 0.51162 0.46823 0.0
O2325 O 0.01645 0.53376 0.46964 0.0
O2326 O 0.99861 0.54956 0.49716 0.0
O2327 O 0.01474 0.54267 0.51447 0.0
O2328 O 0.03624 0.52944 0.52545 0.0
O2329 O 0.03287 0.5217 0.49754 0.0
C2330 C 0.97499 0.52168 0.51215 0.0
C2331 C 0.04223 0.52607 0.51118 0.0
Dy2332 Dy 0.74151 0.77101 0.26374 0.0
C2333 C 0.8122 0.78207 0.26277 0.0
C2334 C 0.70942 0.76897 0.26893 0.0
Dy2335 Dy 0.78004 0.7714 0.26615 0.0
O2336 O 0.72054 0.78218 0.27262 0.0
O2337 O 0.71578 0.75673 0.26216 0.0
O2338 O 0.74656 0.79454 0.25111 0.0
O2339 O 0.76378 0.78957 0.26845 0.0
C2340 C 0.76102 0.79936 0.25807 0.0
C2341 C 0.76286 0.74007 0.26601 0.0
O2342 O 0.7758 0.77862 0.29221 0.0
O2343 O 0.74766 0.76971 0.29028 0.0
O2344 O 0.80635 0.77125 0.27269 0.0
O2345 O 0.80048 0.78726 0.25502 0.0
O2346 O 0.77864 0.74324 0.26699 0.0
O2347 O 0.75799 0.75372 0.26515 0.0
O2348 O 0.74471 0.76074 0.23839 0.0
O2349 O 0.77301 0.76848 0.23928 0.0
C2350 C 0.76165 0.77497 0.29894 0.0
C2351 C 0.75871 0.76286 0.23124 0.0
Dy2352 Dy 0.7612 0.27327 0.74591 0.0
C2353 C 0.75983 0.27551 0.81609 0.0
C2354 C 0.76021 0.2753 0.71314 0.0
Dy2355 Dy 0.75728 0.27651 0.78318 0.0
O2356 O 0.77232 0.28202 0.72328 0.0
O2357 O 0.74857 0.26736 0.72088 0.0
O2358 O 0.78471 0.26413 0.74931 0.0
O2359 O 0.77758 0.28053 0.76768 0.0
C2360 C 0.78771 0.27115 0.76413 0.0
C2361 C 0.73062 0.27804 0.76484 0.0
O2362 O 0.76398 0.30358 0.77942 0.0
O2363 O 0.75813 0.30004 0.75139 0.0
O2364 O 0.77051 0.28408 0.80775 0.0
O2365 O 0.74769 0.26768 0.80648 0.0
O2366 O 0.73367 0.28553 0.7795 0.0
O2367 O 0.74099 0.26891 0.76153 0.0
O2368 O 0.75366 0.24626 0.74939 0.0
O2369 O 0.75932 0.24941 0.77747 0.0
C2370 C 0.76142 0.30969 0.76536 0.0
C2371 C 0.75568 0.23989 0.76343 0.0
Dy2372 Dy 0.76369 0.79601 0.7693 0.0
C2373 C 0.76006 0.72477 0.76422 0.0
C2374 C 0.76232 0.82917 0.76862 0.0
Dy2375 Dy 0.75827 0.7577 0.76247 0.0
O2376 O 0.76746 0.82251 0.78113 0.0
O2377 O 0.75799 0.81772 0.75651 0.0
O2378 O 0.77693 0.79424 0.79321 0.0
O2379 O 0.75781 0.77503 0.78387 0.0
C2380 C 0.76884 0.77942 0.79503 0.0
C2381 C 0.75282 0.77406 0.73668 0.0
O2382 O 0.73377 0.76009 0.77067 0.0
O2383 O 0.73648 0.78884 0.76894 0.0
O2384 O 0.75527 0.731 0.75128 0.0
O2385 O 0.76375 0.73651 0.77616 0.0
O2386 O 0.745 0.75913 0.73858 0.0
O2387 O 0.76393 0.77866 0.74777 0.0
O2388 O 0.78801 0.79373 0.76071 0.0
O2389 O 0.7855 0.76502 0.76251 0.0
C2390 C 0.72753 0.77402 0.77078 0.0
C2391 C 0.79434 0.77986 0.76055 0.0
Dy2392 Dy 0.48887 0.52026 0.51205 0.0
C2393 C 0.55782 0.52418 0.51005 0.0
C2394 C 0.45734 0.52246 0.51663 0.0
Dy2395 Dy 0.52648 0.52658 0.51538 0.0
O2396 O 0.46213 0.51259 0.50531 0.0
O2397 O 0.46974 0.53096 0.52544 0.0
O2398 O 0.48923 0.50656 0.4871 0.0
O2399 O 0.50825 0.52604 0.49583 0.0
C2400 C 0.50355 0.51458 0.48454 0.0
C2401 C 0.51181 0.53281 0.54272 0.0
O2402 O 0.52307 0.55132 0.50734 0.0
O2403 O 0.49557 0.54835 0.51195 0.0
O2404 O 0.55308 0.53153 0.52315 0.0
O2405 O 0.54548 0.51834 0.49989 0.0
O2406 O 0.52614 0.54079 0.54003 0.0
O2407 O 0.50709 0.52109 0.53165 0.0
O2408 O 0.49244 0.49602 0.52111 0.0
O2409 O 0.51973 0.49851 0.51594 0.0
C2410 C 0.50957 0.55762 0.50883 0.0
C2411 C 0.5058 0.48949 0.5196 0.0
Dy2412 Dy 0.02715 0.52085 0.01112 0.0
C2413 C 0.96124 0.53402 0.00994 0.0
C2414 C 0.05689 0.51188 0.01476 0.0
Dy2415 Dy 0.99094 0.52484 0.01304 0.0
O2416 O 0.04776 0.50945 0.00136 0.0
O2417 O 0.04989 0.51946 0.02621 0.0
O2418 O 0.02782 0.53158 0.98695 0.0
O2419 O 0.00614 0.51759 0.99403 0.0
C2420 C 0.01239 0.52645 0.9834 0.0
C2421 C 0.00579 0.5194 0.04079 0.0
O2422 O 0.98725 0.4971 0.00714 0.0
O2423 O 0.01398 0.49478 0.01391 0.0
O2424 O 0.96733 0.52499 0.99883 0.0
O2425 O 0.97129 0.53781 0.02267 0.0
O2426 O 0.99036 0.5143 0.03733 0.0
O2427 O 0.01195 0.52817 0.03007 0.0
O2428 O 0.03071 0.54846 0.0176 0.0
O2429 O 0.00422 0.55086 0.00995 0.0
C2430 C 0.99854 0.48799 0.01016 0.0
C2431 C 0.01956 0.55763 0.01433 0.0
H2432 H 0.01777 0.20484 0.9623 0.0
H2433 H 0.01893 0.18046 0.97751 0.0
H2434 H 0.98193 0.15047 0.94414 0.0
H2435 H 0.98094 0.17463 0.92864 0.0
H2436 H 0.99356 0.1585 0.99243 0.0
H2437 H 0.02177 0.12609 0.94205 0.0
H2438 H 0.02099 0.14824 0.94326 0.0
H2439 H 0.00329 0.13302 0.93626 0.0
C2440 C 0.00989 0.19304 0.9582 0.0
C2441 C -0.00061 0.19159 0.94418 0.0
C2442 C 0.01048 0.1792 0.96697 0.0
C2443 C 0.00066 0.16369 0.9618 0.0
C2444 C 0.98972 0.16234 0.94819 0.0
H2445 H 0.98054 0.07083 0.00607 0.0
H2446 H 0.9798 0.09842 0.9968 0.0
C2447 C 0.9891 0.17617 0.93943 0.0
C2448 C 0.0024 0.14869 0.97013 0.0
H2449 H 0.0139 0.11046 0.96415 0.0
C2450 C 0.99805 0.14799 0.98631 0.0
C2451 C 0.00851 0.13518 0.96215 0.0
C2452 C 0.01406 0.13565 0.94502 0.0
C2453 C -0.00072 0.13385 0.99461 0.0
C2454 C 0.00487 0.12011 0.98642 0.0
C2455 C 0.00956 0.12101 0.97037 0.0
C2456 C 0.00562 0.10441 0.99398 0.0
C2457 C 0.99471 0.13377 0.01208 0.0
C2458 C 0.02039 0.09866 0.99549 0.0
C2459 C 0.02087 0.08284 0.00067 0.0
C2460 C 0.00653 0.07243 0.00432 0.0
C2461 C 0.99182 0.0785 0.00335 0.0
C2462 C 0.99137 0.09433 0.99817 0.0
H2463 H 0.99486 0.14669 0.01785 0.0
H2464 H 0.98226 0.12654 0.01244 0.0
H2465 H 0.00307 0.1277 0.01938 0.0
H2466 H 0.03151 0.10625 0.99224 0.0
H2467 H 0.03241 0.0786 0.00133 0.0
H2468 H 0.08935 0.78072 0.21125 0.0
H2469 H 0.11543 0.77725 0.22366 0.0
H2470 H 0.13821 0.7879 0.17902 0.0
H2471 H 0.11213 0.79121 0.16642 0.0
H2472 H 0.13471 0.75354 0.21189 0.0
H2473 H 0.1677 0.81942 0.21454 0.0
H2474 H 0.14589 0.81404 0.21176 0.0
H2475 H 0.15823 0.81045 0.19503 0.0
C2476 C 0.09991 0.78235 0.20407 0.0
C2477 C 0.09866 0.78624 0.18784 0.0
C2478 C 0.11479 0.78042 0.2112 0.0
C2479 C 0.12874 0.78244 0.20229 0.0
C2480 C 0.12763 0.78657 0.18618 0.0
H2481 H 0.22838 0.77471 0.23212 0.0
H2482 H 0.20383 0.77667 0.21565 0.0
C2483 C 0.11272 0.7885 0.17903 0.0
C2484 C 0.14427 0.77957 0.20975 0.0
H2485 H 0.18252 0.7992 0.22305 0.0
C2486 C 0.14518 0.76351 0.21432 0.0
C2487 C 0.15793 0.79257 0.21273 0.0
C2488 C 0.15745 0.81014 0.20839 0.0
C2489 C 0.15937 0.76012 0.22195 0.0
C2490 C 0.17288 0.77323 0.22536 0.0
C2491 C 0.17212 0.78919 0.22042 0.0
C2492 C 0.18759 0.7709 0.23483 0.0
C2493 C 0.15982 0.74252 0.22625 0.0
C2494 C 0.18657 0.76703 0.25104 0.0
C2495 C 0.20054 0.76585 0.26038 0.0
C2496 C 0.21575 0.76851 0.25368 0.0
C2497 C 0.21676 0.77225 0.23743 0.0
C2498 C 0.20278 0.7735 0.22808 0.0
H2499 H 0.15053 0.73312 0.21882 0.0
H2500 H 0.17194 0.73916 0.22446 0.0
H2501 H 0.15725 0.74175 0.23926 0.0
H2502 H 0.17501 0.76532 0.25658 0.0
H2503 H 0.19948 0.76309 0.27294 0.0
H2504 H 0.52267 0.85311 0.44789 0.0
H2505 H 0.51869 0.87859 0.46405 0.0
H2506 H 0.47158 0.85371 0.4759 0.0
H2507 H 0.47561 0.82794 0.46003 0.0
H2508 H 0.49144 0.89434 0.45568 0.0
H2509 H 0.49348 0.87907 0.52014 0.0
H2510 H 0.50275 0.86785 0.50431 0.0
H2511 H 0.48113 0.86407 0.5053 0.0
C2512 C 0.51165 0.85289 0.45428 0.0
C2513 C 0.49942 0.83854 0.45262 0.0
C2514 C 0.50936 0.86747 0.46344 0.0
C2515 C 0.49488 0.86795 0.47118 0.0
C2516 C 0.4829 0.85349 0.47013 0.0
H2517 H 0.46966 0.96686 0.4968 0.0
H2518 H 0.46565 0.93651 0.48928 0.0
C2519 C 0.48516 0.83887 0.46094 0.0
C2520 C 0.49178 0.88412 0.47884 0.0
H2521 H 0.48873 0.90612 0.51543 0.0
C2522 C 0.49068 0.89691 0.46873 0.0
C2523 C 0.49079 0.88729 0.49583 0.0
C2524 C 0.49217 0.87393 0.50713 0.0
C2525 C 0.48915 0.91304 0.4752 0.0
C2526 C 0.48842 0.91635 0.49224 0.0
C2527 C 0.48909 0.90343 0.50235 0.0
C2528 C 0.48901 0.93366 0.49975 0.0
C2529 C 0.48917 0.9266 0.4638 0.0
C2530 C 0.50305 0.94183 0.50891 0.0
C2531 C 0.50536 0.95909 0.51327 0.0
C2532 C 0.49365 0.96849 0.50851 0.0
C2533 C 0.47899 0.96002 0.50048 0.0
C2534 C 0.47668 0.9427 0.49615 0.0
H2535 H 0.49268 0.92263 0.45143 0.0
H2536 H 0.47682 0.9297 0.46259 0.0
H2537 H 0.49765 0.93821 0.4687 0.0
H2538 H 0.51267 0.93504 0.51186 0.0
H2539 H 0.51669 0.96516 0.51968 0.0
H2540 H 0.43424 0.29871 0.67645 0.0
H2541 H 0.41054 0.30065 0.69214 0.0
H2542 H 0.42307 0.2633 0.72205 0.0
H2543 H 0.44724 0.26177 0.70682 0.0
H2544 H 0.3848 0.27591 0.69565 0.0
H2545 H 0.41566 0.30019 0.75608 0.0
H2546 H 0.42629 0.30017 0.73753 0.0
H2547 H 0.42141 0.28119 0.74735 0.0
C2548 C 0.43215 0.29111 0.68655 0.0
C2549 C 0.44275 0.28019 0.69046 0.0
C2550 C 0.41852 0.29216 0.69544 0.0
C2551 C 0.41518 0.28234 0.70844 0.0
C2552 C 0.4256 0.27127 0.71229 0.0
H2553 H 0.33258 0.26335 0.76775 0.0
H2554 H 0.3589 0.2644 0.75573 0.0
C2555 C 0.4393 0.27024 0.70343 0.0
C2556 C 0.40039 0.28324 0.71746 0.0
H2557 H 0.38699 0.29193 0.75525 0.0
C2558 C 0.38529 0.27951 0.70866 0.0
C2559 C 0.40107 0.28791 0.73445 0.0
C2560 C 0.41698 0.29275 0.74441 0.0
C2561 C 0.37083 0.2801 0.71641 0.0
C2562 C 0.3715 0.28475 0.73338 0.0
C2563 C 0.38656 0.28842 0.74222 0.0
C2564 C 0.35656 0.28549 0.7421 0.0
C2565 C 0.3549 0.27543 0.70645 0.0
C2566 C 0.34685 0.29739 0.73883 0.0
C2567 C 0.33186 0.29686 0.74572 0.0
C2568 C 0.32639 0.28441 0.75596 0.0
C2569 C 0.33651 0.27306 0.75987 0.0
C2570 C 0.35152 0.27363 0.75302 0.0
H2571 H 0.35627 0.26891 0.69431 0.0
H2572 H 0.34589 0.26717 0.71295 0.0
H2573 H 0.34999 0.28699 0.70453 0.0
H2574 H 0.35065 0.30677 0.73057 0.0
H2575 H 0.3243 0.30579 0.74254 0.0
H2576 H 0.99816 0.83743 0.56194 0.0
H2577 H 0.00016 0.86097 0.54508 0.0
H2578 H 0.0261 0.89408 0.585 0.0
H2579 H 0.02398 0.87076 0.60198 0.0
H2580 H 0.98788 0.89063 0.55208 0.0
H2581 H 0.0543 0.90443 0.54649 0.0
H2582 H 0.044 0.88478 0.55272 0.0
H2583 H 0.04878 0.90312 0.56716 0.0
C2584 C 0.00429 0.84973 0.56713 0.0
C2585 C 0.01094 0.85221 0.58331 0.0
C2586 C 0.00552 0.86311 0.55745 0.0
C2587 C 0.01352 0.87917 0.56371 0.0
C2588 C 0.02024 0.88168 0.5798 0.0
H2589 H 0.02566 0.98128 0.54727 0.0
H2590 H 0.02645 0.9533 0.55533 0.0
C2591 C 0.019 0.86834 0.58949 0.0
C2592 C 0.01392 0.89363 0.55393 0.0
H2593 H 0.0396 0.92628 0.54058 0.0
C2594 C -0.00084 0.89828 0.54927 0.0
C2595 C 0.02866 0.90352 0.55029 0.0
C2596 C 0.04484 0.89863 0.55428 0.0
C2597 C 0.99878 0.91315 0.54192 0.0
C2598 C 0.01356 0.92343 0.53892 0.0
C2599 C 0.0283 0.91838 0.54293 0.0
C2600 C 0.014 0.94022 0.53314 0.0
C2601 C 0.98261 0.91821 0.53825 0.0
C2602 C 0.00703 0.94213 0.5178 0.0
C2603 C 0.00648 0.95819 0.51312 0.0
C2604 C 0.01294 0.97256 0.52373 0.0
C2605 C 0.02044 0.97052 0.53883 0.0
C2606 C 0.02097 0.95452 0.54346 0.0
H2607 H 0.97259 0.91042 0.54398 0.0
H2608 H 0.98295 0.93161 0.5426 0.0
H2609 H 0.97982 0.91666 0.52488 0.0
H2610 H 0.00182 0.93122 0.50955 0.0
H2611 H 0.00071 0.95929 0.50137 0.0
H2612 H 0.44902 0.79863 0.85013 0.0
H2613 H 0.42326 0.80599 0.84111 0.0
H2614 H 0.40932 0.75687 0.81475 0.0
H2615 H 0.43491 0.74923 0.82443 0.0
H2616 H 0.40968 0.80876 0.81259 0.0
H2617 H 0.37105 0.75851 0.84144 0.0
H2618 H 0.39277 0.76315 0.84519 0.0
H2619 H 0.38378 0.75023 0.8271 0.0
C2620 C 0.44046 0.78945 0.84234 0.0
C2621 C 0.44385 0.77336 0.83797 0.0
C2622 C 0.42576 0.79365 0.83721 0.0
C2623 C 0.41423 0.78189 0.8275 0.0
C2624 C 0.41784 0.76598 0.82263 0.0
H2625 H 0.33197 0.80166 0.77137 0.0
H2626 H 0.35941 0.80118 0.78213 0.0
C2627 C 0.43246 0.76165 0.82804 0.0
C2628 C 0.3984 0.78634 0.82267 0.0
H2629 H 0.3576 0.77327 0.82306 0.0
C2630 C 0.39827 0.80108 0.81499 0.0
C2631 C 0.38354 0.77653 0.82615 0.0
C2632 C 0.38276 0.76134 0.83558 0.0
C2633 C 0.38368 0.8061 0.81038 0.0
C2634 C 0.36881 0.79578 0.81303 0.0
C2635 C 0.36897 0.7812 0.82097 0.0
C2636 C 0.35288 0.79923 0.80709 0.0
C2637 C 0.38441 0.82254 0.803 0.0
C2638 C 0.34002 0.79846 0.81752 0.0
C2639 C 0.32424 0.79823 0.81128 0.0
C2640 C 0.32113 0.79907 0.79457 0.0
C2641 C 0.33411 0.8012 0.78435 0.0
C2642 C 0.34984 0.80102 0.79052 0.0
H2643 H 0.39567 0.83148 0.80735 0.0
H2644 H 0.38456 0.82023 0.78956 0.0
H2645 H 0.37382 0.82852 0.80594 0.0
H2646 H 0.34207 0.79711 0.83035 0.0
H2647 H 0.31438 0.79656 0.81936 0.0
H2648 H 0.5123 0.2021 0.07442 0.0
H2649 H 0.51317 0.17383 0.0624 0.0
H2650 H 0.47858 0.15324 0.09567 0.0
H2651 H 0.47846 0.18148 0.10859 0.0
H2652 H 0.50237 0.13507 0.0925 0.0
H2653 H 0.47889 0.1459 0.03137 0.0
H2654 H 0.4969 0.16067 0.03811 0.0
H2655 H 0.47877 0.16061 0.04903 0.0
C2656 C 0.505 0.19159 0.07936 0.0
C2657 C 0.49525 0.19414 0.09247 0.0
C2658 C 0.50535 0.17542 0.0723 0.0
C2659 C 0.49568 0.16145 0.0779 0.0
C2660 C 0.48604 0.16387 0.09107 0.0
H2661 H 0.47778 0.06642 0.0179 0.0
H2662 H 0.47466 0.09162 0.03503 0.0
C2663 C 0.48584 0.18005 0.09831 0.0
C2664 C 0.49566 0.14436 0.06998 0.0
H2665 H 0.49072 0.12137 0.03294 0.0
C2666 C 0.49968 0.13199 0.0795 0.0
C2667 C 0.49185 0.14027 0.05307 0.0
C2668 C 0.48619 0.15252 0.04234 0.0
C2669 C 0.50039 0.11574 0.07248 0.0
C2670 C 0.49746 0.11198 0.05542 0.0
C2671 C 0.49311 0.12427 0.046 0.0
C2672 C 0.49875 0.09545 0.04688 0.0
C2673 C 0.50403 0.10277 0.08344 0.0
C2674 C 0.51321 0.08897 0.0481 0.0
C2675 C 0.51489 0.07434 0.03851 0.0
C2676 C 0.50229 0.0663 0.02728 0.0
C2677 C 0.48772 0.07253 0.02637 0.0
C2678 C 0.48593 0.0869 0.03616 0.0
H2679 H 0.5007 0.10581 0.0961 0.0
H2680 H 0.49744 0.09003 0.0789 0.0
H2681 H 0.51723 0.10257 0.08388 0.0
H2682 H 0.52342 0.09554 0.05597 0.0
H2683 H 0.52625 0.06976 0.03935 0.0
H2684 H 0.10668 0.29096 0.35608 0.0
H2685 H 0.13099 0.29299 0.34054 0.0
H2686 H 0.10672 0.2528 0.30568 0.0
H2687 H 0.0822 0.25098 0.32089 0.0
H2688 H 0.14849 0.26716 0.33417 0.0
H2689 H 0.12641 0.28902 0.27682 0.0
H2690 H 0.11604 0.29044 0.29548 0.0
H2691 H 0.11378 0.27076 0.28307 0.0
C2692 C 0.10642 0.28275 0.34495 0.0
C2693 C 0.09252 0.27082 0.33969 0.0
C2694 C 0.12033 0.28388 0.33614 0.0
C2695 C 0.12054 0.2732 0.32187 0.0
C2696 C 0.10668 0.26135 0.31651 0.0
H2697 H 0.20477 0.24552 0.27828 0.0
H2698 H 0.17837 0.24597 0.28943 0.0
C2699 C 0.09277 0.26019 0.32533 0.0
C2700 C 0.13563 0.27371 0.31321 0.0
H2701 H 0.152 0.28004 0.27663 0.0
C2702 C 0.14929 0.27005 0.32162 0.0
C2703 C 0.13662 0.27763 0.29688 0.0
C2704 C 0.12249 0.28234 0.28754 0.0
C2705 C 0.16387 0.26989 0.31404 0.0
C2706 C 0.16471 0.27325 0.29756 0.0
C2707 C 0.15119 0.27727 0.28921 0.0
C2708 C 0.17969 0.27274 0.28895 0.0
C2709 C 0.17831 0.26624 0.32376 0.0
C2710 C 0.18881 0.28757 0.28438 0.0
C2711 C 0.20392 0.28738 0.27796 0.0
C2712 C 0.2101 0.27233 0.27601 0.0
C2713 C 0.20048 0.25736 0.27979 0.0
C2714 C 0.18539 0.25757 0.28618 0.0
H2715 H 0.17676 0.26766 0.33708 0.0
H2716 H 0.17986 0.25312 0.32029 0.0
H2717 H 0.18958 0.27472 0.32115 0.0
H2718 H 0.18451 0.29938 0.28637 0.0
H2719 H 0.21097 0.29912 0.27508 0.0
H2720 H 0.94614 0.06339 0.17896 0.0
H2721 H 0.96135 0.06278 0.15437 0.0
H2722 H 0.9236 0.0244 0.1305 0.0
H2723 H 0.90803 0.02522 0.15483 0.0
H2724 H 0.95821 0.01812 0.1317 0.0
H2725 H 0.94966 0.07821 0.10776 0.0
H2726 H 0.95471 0.07857 0.12925 0.0
H2727 H 0.93546 0.0673 0.12074 0.0
C2728 C 0.94088 0.05507 0.16838 0.0
C2729 C 0.92586 0.04433 0.16889 0.0
C2730 C 0.94962 0.05471 0.15437 0.0
C2731 C 0.94352 0.04361 0.14067 0.0
C2732 C 0.92846 0.03306 0.141 0.0
H2733 H 0.98074 0.01012 0.04996 0.0
H2734 H 0.96515 0.01385 0.07391 0.0
C2735 C 0.91966 0.03347 0.15495 0.0
C2736 C 0.95327 0.04225 0.12633 0.0
H2737 H 0.96701 0.06259 0.09386 0.0
C2738 C 0.96014 0.02781 0.12339 0.0
C2739 C 0.95584 0.05502 0.1157 0.0
C2740 C 0.9485 0.07066 0.11837 0.0
C2741 C 0.96963 0.02579 0.11005 0.0
C2742 C 0.97192 0.03839 0.09914 0.0
C2743 C 0.96518 0.05294 0.10221 0.0
C2744 C 0.98106 0.03653 0.08436 0.0
C2745 C 0.97737 0.01034 0.10794 0.0
C2746 C 0.99486 0.04838 0.08201 0.0
C2747 C 0.00364 0.04643 0.06817 0.0
C2748 C 0.9987 0.03263 0.05648 0.0
C2749 C 0.98478 0.02091 0.05876 0.0
C2750 C 0.97596 0.02293 0.07251 0.0
H2751 H 0.97845 0.00464 0.11961 0.0
H2752 H 0.96971 0.00082 0.09909 0.0
H2753 H 0.98962 0.01332 0.10322 0.0
H2754 H -0.00106 0.05901 0.09098 0.0
H2755 H 0.01432 0.05565 0.06666 0.0
H2756 H 0.27411 0.68752 0.42831 0.0
H2757 H 0.2734 0.70543 0.40611 0.0
H2758 H 0.27316 0.74824 0.44088 0.0
H2759 H 0.27421 0.73043 0.46328 0.0
H2760 H 0.24817 0.72548 0.40063 0.0
H2761 H 0.31062 0.76314 0.41001 0.0
H2762 H 0.30517 0.7431 0.41809 0.0
H2763 H 0.29833 0.76124 0.42733 0.0
C2764 C 0.27418 0.70079 0.43126 0.0
C2765 C 0.2743 0.70759 0.44754 0.0
C2766 C 0.27365 0.71097 0.41858 0.0
C2767 C 0.27332 0.72813 0.42192 0.0
C2768 C 0.27355 0.73504 0.43812 0.0
H2769 H 0.25052 0.78319 0.33919 0.0
H2770 H 0.25243 0.77621 0.36748 0.0
C2771 C 0.27403 0.72484 0.45085 0.0
C2772 C 0.27225 0.73851 0.40824 0.0
H2773 H 0.29467 0.76768 0.3872 0.0
C2774 C 0.25821 0.73491 0.39779 0.0
C2775 C 0.28543 0.75073 0.40467 0.0
C2776 C 0.30082 0.75482 0.41552 0.0
C2777 C 0.25721 0.74276 0.38342 0.0
C2778 C 0.27059 0.75461 0.37956 0.0
C2779 C 0.28442 0.75867 0.39032 0.0
C2780 C 0.27111 0.76122 0.36346 0.0
C2781 C 0.24223 0.73765 0.37204 0.0
C2782 C 0.28144 0.75564 0.35212 0.0
C2783 C 0.28036 0.75957 0.33604 0.0
C2784 C 0.26899 0.76921 0.33112 0.0
C2785 C 0.25934 0.77568 0.34271 0.0
C2786 C 0.26038 0.77168 0.35881 0.0
H2787 H 0.23395 0.72662 0.37579 0.0
H2788 H 0.23551 0.74827 0.37191 0.0
H2789 H 0.24562 0.73458 0.35942 0.0
H2790 H 0.28979 0.74757 0.35551 0.0
H2791 H 0.28802 0.75454 0.32734 0.0
H2792 H 0.59317 0.98823 0.6628 0.0
H2793 H 0.57973 0.99027 0.6362 0.0
H2794 H 0.55015 0.02296 0.65927 0.0
H2795 H 0.56396 0.02143 0.68568 0.0
H2796 H 0.54913 0.98216 0.62425 0.0
H2797 H 0.56903 0.05077 0.62473 0.0
H2798 H 0.5771 0.03872 0.63941 0.0
H2799 H 0.55803 0.0456 0.64225 0.0
C2800 C 0.58376 0.99579 0.66212 0.0
C2801 C 0.57968 0.00484 0.67615 0.0
C2802 C 0.57613 0.99697 0.64697 0.0
C2803 C 0.56424 0.00711 0.64572 0.0
C2804 C 0.55967 0.01552 0.65988 0.0
H2805 H 0.49292 0.00298 0.56599 0.0
H2806 H 0.50808 -0.00073 0.59102 0.0
C2807 C 0.56746 0.01456 0.67494 0.0
C2808 C 0.55656 0.0089 0.62964 0.0
H2809 H 0.54765 0.03808 0.60506 0.0
C2810 C 0.54892 0.99437 0.61996 0.0
C2811 C 0.55663 0.02482 0.62391 0.0
C2812 C 0.5658 0.04083 0.63304 0.0
C2813 C 0.54089 0.99535 0.6049 0.0
C2814 C 0.54005 0.01134 0.59969 0.0
C2815 C 0.5481 0.02583 0.60917 0.0
C2816 C 0.53085 0.01341 0.58451 0.0
C2817 C 0.53364 0.97926 0.59466 0.0
C2818 C 0.5384 0.02321 0.57288 0.0
C2819 C 0.52963 0.02575 0.55885 0.0
C2820 C 0.51325 0.01831 0.55608 0.0
C2821 C 0.50562 0.00867 0.56777 0.0
C2822 C 0.51432 0.00638 0.58196 0.0
H2823 H 0.53984 0.96876 0.59761 0.0
H2824 H 0.52069 0.97571 0.59722 0.0
H2825 H 0.53441 0.98069 0.58145 0.0
H2826 H 0.55109 0.02895 0.5747 0.0
H2827 H 0.53565 0.03364 0.55023 0.0
H2828 H 0.26802 0.35081 0.94017 0.0
H2829 H 0.27069 0.33549 0.91388 0.0
H2830 H 0.23381 0.29483 0.92509 0.0
H2831 H 0.23092 0.31026 0.9515 0.0
H2832 H 0.2772 0.30081 0.90634 0.0
H2833 H 0.21741 0.31166 0.88145 0.0
H2834 H 0.22787 0.32397 0.89929 0.0
H2835 H 0.21805 0.30273 0.90062 0.0
C2836 C 0.26046 0.33862 0.93704 0.0
C2837 C 0.24909 0.33182 0.94776 0.0
C2838 C 0.2621 0.32983 0.92209 0.0
C2839 C 0.25237 0.31413 0.91755 0.0
C2840 C 0.24135 0.30701 0.9284 0.0
H2841 H 0.23868 0.26424 0.81883 0.0
H2842 H 0.23739 0.26994 0.84823 0.0
C2843 C 0.23976 0.31578 0.94345 0.0
C2844 C 0.25325 0.30584 0.90103 0.0
H2845 H 0.23329 0.2986 0.86351 0.0
C2846 C 0.26755 0.30011 0.89697 0.0
C2847 C 0.24061 0.30496 0.88892 0.0
C2848 C 0.22511 0.31121 0.89265 0.0
C2849 C 0.26965 0.29374 0.88098 0.0
C2850 C 0.25729 0.29355 0.86869 0.0
C2851 C 0.24278 0.29878 0.87292 0.0
C2852 C 0.25927 0.28873 0.85123 0.0
C2853 C 0.28506 0.28724 0.87746 0.0
C2854 C 0.27212 0.29727 0.84314 0.0
C2855 C 0.27299 0.2939 0.82631 0.0
C2856 C 0.26083 0.2822 0.81726 0.0
C2857 C 0.24816 0.27345 0.82544 0.0
C2858 C 0.24742 0.27665 0.84226 0.0
H2859 H 0.29045 0.28296 0.88853 0.0
H2860 H 0.28289 0.27666 0.86769 0.0
H2861 H 0.29406 0.29753 0.87344 0.0
H2862 H 0.28116 0.30697 0.84971 0.0
H2863 H 0.28282 0.30092 0.82032 0.0
H2864 H 0.9131 0.04317 0.33913 0.0
H2865 H 0.92293 0.03577 0.36519 0.0
H2866 H 0.96811 0.029 0.34485 0.0
H2867 H 0.95882 0.03754 0.31895 0.0
H2868 H 0.93044 0.00628 0.3713 0.0
H2869 H 0.98427 0.05629 0.38709 0.0
H2870 H 0.96943 0.0575 0.37095 0.0
H2871 H 0.98488 0.04495 0.36753 0.0
C2872 C 0.92535 0.04068 0.34026 0.0
C2873 C 0.93518 0.04107 0.32686 0.0
C2874 C 0.93086 0.03621 0.35516 0.0
C2875 C 0.94628 0.03193 0.35702 0.0
C2876 C 0.95627 0.03255 0.34381 0.0
H2877 H 0.99455 0.99456 0.43802 0.0
H2878 H 0.98461 0.99837 0.41047 0.0
C2879 C 0.95084 0.03723 0.32892 0.0
C2880 C 0.95144 0.02596 0.37255 0.0
H2881 H 0.98083 0.03356 0.40358 0.0
C2882 C 0.94144 0.01228 0.37837 0.0
C2883 C 0.96582 0.03378 0.38174 0.0
C2884 C 0.97664 0.04904 0.37661 0.0
C2885 C 0.94542 0.00625 0.39317 0.0
C2886 C 0.95976 0.01406 0.40228 0.0
C2887 C 0.96989 0.02754 0.3964 0.0
C2888 C 0.9641 0.00912 0.41846 0.0
C2889 C 0.93431 0.99159 0.399 0.0
C2890 C 0.95555 0.0135 0.43193 0.0
C2891 C 0.96124 0.01144 0.44765 0.0
C2892 C 0.97553 0.00493 0.45007 0.0
C2893 C 0.98347 -0.00046 0.43648 0.0
C2894 C 0.97786 0.00176 0.42076 0.0
H2895 H 0.92526 0.98509 0.38925 0.0
H2896 H 0.94144 0.9824 0.40344 0.0
H2897 H 0.92771 0.99618 0.40934 0.0
H2898 H 0.94498 0.01934 0.43035 0.0
H2899 H 0.95494 0.01574 0.45794 0.0
H2900 H 0.23984 0.69419 0.59288 0.0
H2901 H 0.23763 0.71046 0.6189 0.0
H2902 H 0.28931 0.71623 0.6288 0.0
H2903 H 0.29162 0.69996 0.60294 0.0
H2904 H 0.24645 0.70337 0.65016 0.0
H2905 H 0.28108 0.76442 0.63624 0.0
H2906 H 0.27334 0.74758 0.62061 0.0
H2907 H 0.29195 0.74744 0.63229 0.0
C2908 C 0.25071 0.69889 0.60065 0.0
C2909 C 0.26592 0.69587 0.59586 0.0
C2910 C 0.24944 0.70825 0.61543 0.0
C2911 C 0.26334 0.7148 0.62558 0.0
C2912 C 0.27849 0.71165 0.62091 0.0
H2913 H 0.29085 0.74958 0.72337 0.0
H2914 H 0.28641 0.7371 0.69507 0.0
C2915 C 0.27979 0.70234 0.60616 0.0
C2916 C 0.26207 0.72427 0.64146 0.0
H2917 H 0.2778 0.76087 0.66463 0.0
C2918 C 0.25305 0.71606 0.65324 0.0
C2919 C 0.27058 0.74087 0.64537 0.0
C2920 C 0.27965 0.75067 0.6329 0.0
C2921 C 0.25311 0.72369 0.66917 0.0
C2922 C 0.26241 0.73984 0.67329 0.0
C2923 C 0.27077 0.7484 0.66135 0.0
C2924 C 0.26476 0.7474 0.69028 0.0
C2925 C 0.24384 0.71427 0.68175 0.0
C2926 C 0.25403 0.75732 0.69676 0.0
C2927 C 0.25656 0.7645 0.7129 0.0
C2928 C 0.26982 0.76177 0.72267 0.0
C2929 C 0.28055 0.75188 0.71607 0.0
C2930 C 0.27803 0.74473 0.69997 0.0
H2931 H 0.23649 0.70215 0.6764 0.0
H2932 H 0.25247 0.71174 0.69142 0.0
H2933 H 0.23568 0.72209 0.68764 0.0
H2934 H 0.24378 0.75953 0.68933 0.0
H2935 H 0.24828 0.77231 0.71767 0.0
H2936 H 0.55927 0.03366 0.82116 0.0
H2937 H 0.54316 0.03563 0.84509 0.0
H2938 H 0.54598 0.98433 0.85269 0.0
H2939 H 0.56209 0.98227 0.82883 0.0
H2940 H 0.51354 0.01582 0.8555 0.0
H2941 H 0.56897 0.01324 0.89398 0.0
H2942 H 0.56956 0.01709 0.87279 0.0
H2943 H 0.56355 0.9961 0.87832 0.0
C2944 C 0.55614 0.0227 0.82773 0.0
C2945 C 0.56209 0.00788 0.82332 0.0
C2946 C 0.54697 0.02385 0.84138 0.0
C2947 C 0.54364 0.01021 0.85072 0.0
C2948 C 0.54867 0.99507 0.84572 0.0
H2949 H 0.50389 0.99311 0.94308 0.0
H2950 H 0.51021 0.99037 0.91436 0.0
C2951 C 0.55789 0.99393 0.83216 0.0
C2952 C 0.5363 0.01223 0.86652 0.0
H2953 H 0.5445 0.01222 0.90735 0.0
C2954 C 0.52027 0.01508 0.86686 0.0
C2955 C 0.54527 0.01149 0.88127 0.0
C2956 C 0.56284 0.00947 0.88167 0.0
C2957 C 0.51284 0.01676 0.88169 0.0
C2958 C 0.5217 0.01553 0.89632 0.0
C2959 C 0.53775 0.01294 0.89598 0.0
C2960 C 0.5148 0.01711 0.91233 0.0
C2961 C 0.49557 0.01965 0.88175 0.0
C2962 C 0.51507 0.03306 0.92045 0.0
C2963 C 0.51161 0.03467 0.93685 0.0
C2964 C 0.50788 0.02033 0.94526 0.0
C2965 C 0.50675 0.00435 0.93684 0.0
C2966 C 0.51029 0.00276 0.92047 0.0
H2967 H 0.49002 0.0194 0.86924 0.0
H2968 H 0.48817 0.00988 0.88822 0.0
H2969 H 0.49523 0.03202 0.8885 0.0
H2970 H 0.51875 0.04426 0.91434 0.0
H2971 H 0.51254 0.04713 0.94311 0.0
H2972 H 0.26921 0.33311 0.1006 0.0
H2973 H 0.26825 0.31971 0.12598 0.0
H2974 H 0.2233 0.33646 0.13593 0.0
H2975 H 0.22448 0.35048 0.11086 0.0
H2976 H 0.24474 0.34153 0.16284 0.0
H2977 H 0.2386 0.27632 0.13395 0.0
H2978 H 0.25591 0.2901 0.12782 0.0
H2979 H 0.23584 0.29368 0.12254 0.0
C2980 C 0.25918 0.33407 0.10824 0.0
C2981 C 0.24688 0.34281 0.10364 0.0
C2982 C 0.25855 0.32623 0.12265 0.0
C2983 C 0.24555 0.32682 0.13268 0.0
C2984 C 0.23337 0.33572 0.12827 0.0
H2985 H 0.22715 0.26246 0.21163 0.0
H2986 H 0.22439 0.27692 0.18707 0.0
C2987 C 0.234 0.34361 0.11388 0.0
C2988 C 0.24482 0.3184 0.14792 0.0
H2989 H 0.24485 0.28046 0.16266 0.0
C2990 C 0.24465 0.32816 0.16281 0.0
C2991 C 0.2444 0.30091 0.14783 0.0
C2992 C 0.24353 0.2896 0.13217 0.0
C2993 C 0.24459 0.32096 0.17767 0.0
C2994 C 0.24502 0.30361 0.17762 0.0
C2995 C 0.24468 0.29378 0.16269 0.0
C2996 C 0.24622 0.29544 0.19288 0.0
C2997 C 0.24393 0.33198 0.19326 0.0
C2998 C 0.25944 0.30099 0.20423 0.0
C2999 C 0.26099 0.29281 0.21824 0.0
C3000 C 0.24943 0.27882 0.22108 0.0
C3001 C 0.23621 0.27323 0.20973 0.0
C3002 C 0.23463 0.28148 0.19573 0.0
H3003 H 0.23867 0.34327 0.19097 0.0
H3004 H 0.23665 0.32502 0.20221 0.0
H3005 H 0.25642 0.33635 0.19877 0.0
H3006 H 0.26875 0.31145 0.20209 0.0
H3007 H 0.27139 0.29726 0.22672 0.0
H3008 H 0.18928 0.96544 0.99514 0.0
H3009 H 0.16809 0.98263 0.99421 0.0
H3010 H 0.14349 0.95547 0.03117 0.0
H3011 H 0.16432 0.93784 0.03178 0.0
H3012 H 0.12342 0.95847 0.00441 0.0
H3013 H 0.16024 0.02024 0.02795 0.0
H3014 H 0.16821 0.00963 0.01094 0.0
H3015 H 0.16709 0.00061 0.03005 0.0
C3016 C 0.17931 0.96306 0.003 0.0
C3017 C 0.17845 0.95026 0.01353 0.0
C3018 C 0.16735 0.97305 0.00261 0.0
C3019 C 0.1544 0.97048 0.01281 0.0
C3020 C 0.15349 0.95773 0.02331 0.0
H3021 H 0.07938 0.02626 0.03741 0.0
H3022 H 0.10464 0.01502 0.03639 0.0
C3023 C 0.16543 0.94772 0.0237 0.0
C3024 C 0.14132 0.98048 0.01198 0.0
H3025 H 0.1332 0.02026 0.01812 0.0
C3026 C 0.12555 0.97198 0.00738 0.0
C3027 C 0.14418 0.99808 0.016 0.0
C3028 C 0.16081 0.00771 0.02165 0.0
C3029 C 0.11249 0.98059 0.0067 0.0
C3030 C 0.11537 0.99823 0.01041 0.0
C3031 C 0.13113 0.00677 0.01507 0.0
C3032 C 0.10188 0.00774 0.01042 0.0
C3033 C 0.09564 0.97067 0.00246 0.0
C3034 C 0.09244 0.00804 0.99602 0.0
C3035 C 0.078 0.01434 0.99659 0.0
C3036 C 0.07292 0.02054 0.01155 0.0
C3037 C 0.08303 0.02148 0.02574 0.0
C3038 C 0.09744 0.01509 0.02517 0.0
H3039 H 0.0951 0.95703 0.00346 0.0
H3040 H 0.08676 0.97522 0.01054 0.0
H3041 H 0.09191 0.97227 0.98971 0.0
H3042 H 0.09585 0.00265 0.98448 0.0
H3043 H 0.07045 0.01361 0.98546 0.0
H3044 H 0.67136 0.62115 0.9896 0.0
H3045 H 0.64351 0.60662 0.99105 0.0
H3046 H 0.66018 0.57218 0.02192 0.0
H3047 H 0.68824 0.5863 0.02016 0.0
H3048 H 0.63256 0.56888 0.98232 0.0
H3049 H 0.62243 0.5928 0.04576 0.0
H3050 H 0.63741 0.60407 0.03378 0.0
H3051 H 0.64102 0.58524 0.04194 0.0
C3052 C 0.66919 0.61037 0.99655 0.0
C3053 C 0.6821 0.60486 0.00469 0.0
C3054 C 0.65324 0.60219 0.99748 0.0
C3055 C 0.64984 0.58846 0.00669 0.0
C3056 C 0.66259 0.58291 0.01491 0.0
H3057 H 0.5554 0.52868 0.02276 0.0
H3058 H 0.58431 0.54133 0.0251 0.0
C3059 C 0.6786 0.59103 0.01392 0.0
C3060 C 0.63295 0.57963 0.00714 0.0
H3061 H 0.60059 0.57467 0.03104 0.0
C3062 C 0.62557 0.57006 0.99298 0.0
C3063 C 0.624 0.58111 0.02113 0.0
C3064 C 0.6315 0.5914 0.03656 0.0
C3065 C 0.60932 0.56204 0.99235 0.0
C3066 C 0.60012 0.56405 0.00613 0.0
C3067 C 0.60765 0.57325 0.02047 0.0
C3068 C 0.58253 0.55719 0.00559 0.0
C3069 C 0.6022 0.5514 0.97695 0.0
C3070 C 0.57192 0.5623 0.99422 0.0
C3071 C 0.55551 0.55511 0.99287 0.0
C3072 C 0.54937 0.54286 0.00303 0.0
C3073 C 0.55983 0.53822 0.01489 0.0
C3074 C 0.57632 0.54536 0.01617 0.0
H3075 H 0.61179 0.54706 0.96967 0.0
H3076 H 0.59347 0.54023 0.97973 0.0
H3077 H 0.59567 0.55898 0.96932 0.0
H3078 H 0.57639 0.57171 0.98621 0.0
H3079 H 0.54765 0.55903 0.98375 0.0
H3080 H 0.70323 0.44809 0.26774 0.0
H3081 H 0.71754 0.42421 0.26532 0.0
H3082 H 0.67445 0.39135 0.27714 0.0
H3083 H 0.65992 0.41497 0.27919 0.0
H3084 H 0.70475 0.38892 0.29532 0.0
H3085 H 0.70879 0.3843 0.22796 0.0
H3086 H 0.71525 0.40474 0.23886 0.0
H3087 H 0.69431 0.39499 0.23815 0.0
C3088 C 0.69673 0.43575 0.26964 0.0
C3089 C 0.68041 0.43347 0.27366 0.0
C3090 C 0.70495 0.42215 0.2683 0.0
C3091 C 0.697 0.40604 0.27096 0.0
C3092 C 0.68079 0.40371 0.27508 0.0
H3093 H 0.71872 0.30697 0.25042 0.0
H3094 H 0.70749 0.33284 0.252 0.0
C3095 C 0.67254 0.41726 0.27634 0.0
C3096 C 0.70556 0.39156 0.26964 0.0
H3097 H 0.72128 0.36558 0.24232 0.0
C3098 C 0.70846 0.38385 0.28377 0.0
C3099 C 0.71022 0.38495 0.25451 0.0
C3100 C 0.70693 0.39254 0.23894 0.0
C3101 C 0.71589 0.36961 0.28316 0.0
C3102 C 0.72062 0.36304 0.26803 0.0
C3103 C 0.71773 0.37076 0.2539 0.0
C3104 C 0.72791 0.34767 0.26656 0.0
C3105 C 0.71825 0.36144 0.2986 0.0
C3106 C 0.74324 0.34755 0.274 0.0
C3107 C 0.74974 0.33279 0.27311 0.0
C3108 C 0.741 0.31787 0.26476 0.0
C3109 C 0.72577 0.31818 0.25702 0.0
C3110 C 0.71933 0.33296 0.25787 0.0
H3111 H 0.71119 0.3661 0.30855 0.0
H3112 H 0.71461 0.34759 0.29638 0.0
H3113 H 0.73128 0.36426 0.30279 0.0
H3114 H 0.75013 0.35886 0.2806 0.0
H3115 H 0.7615 0.33303 0.2792 0.0
H3116 H 0.84143 0.44347 0.52586 0.0
H3117 H 0.86789 0.46108 0.52477 0.0
H3118 H 0.84696 0.50547 0.53503 0.0
H3119 H 0.82029 0.48786 0.53667 0.0
H3120 H 0.86778 0.50432 0.50644 0.0
H3121 H 0.89635 0.48988 0.56417 0.0
H3122 H 0.88551 0.47174 0.55177 0.0
H3123 H 0.87463 0.48731 0.56036 0.0
C3124 C 0.84244 0.45694 0.5283 0.0
C3125 C 0.82874 0.46424 0.53152 0.0
C3126 C 0.85757 0.46698 0.52755 0.0
C3127 C 0.85932 0.4845 0.52995 0.0
C3128 C 0.84577 0.49193 0.53318 0.0
H3129 H 0.95968 0.53574 0.53675 0.0
H3130 H 0.93067 0.531 0.54078 0.0
C3131 C 0.83058 0.48186 0.53406 0.0
C3132 C 0.87537 0.49483 0.52852 0.0
H3133 H 0.91429 0.50064 0.54438 0.0
C3134 C 0.87795 0.50385 0.51487 0.0
C3135 C 0.88847 0.49432 0.53967 0.0
C3136 C 0.88613 0.48542 0.55492 0.0
C3137 C 0.89361 0.51156 0.51154 0.0
C3138 C 0.90691 0.50992 0.52205 0.0
C3139 C 0.90411 0.50179 0.53625 0.0
C3140 C 0.92393 0.51531 0.51811 0.0
C3141 C 0.89578 0.52108 0.49669 0.0
C3142 C 0.92973 0.50836 0.50382 0.0
C3143 C 0.94633 0.51112 0.50143 0.0
C3144 C 0.95737 0.52061 0.51343 0.0
C3145 C 0.95146 0.52818 0.52737 0.0
C3146 C 0.93489 0.52556 0.52967 0.0
H3147 H 0.88466 0.52605 0.49335 0.0
H3148 H 0.90617 0.5317 0.49866 0.0
H3149 H 0.89812 0.51245 0.48622 0.0
H3150 H 0.92154 0.50007 0.49492 0.0
H3151 H 0.95055 0.50509 0.4906 0.0
H3152 H 0.3154 0.08439 0.2722 0.0
H3153 H 0.29348 0.10068 0.27039 0.0
H3154 H 0.32595 0.13994 0.25036 0.0
H3155 H 0.34758 0.12327 0.25143 0.0
H3156 H 0.29105 0.1289 0.28546 0.0
H3157 H 0.28744 0.1371 0.22004 0.0
H3158 H 0.29871 0.12233 0.22813 0.0
H3159 H 0.30794 0.1441 0.22793 0.0
C3160 C 0.31772 0.09644 0.26726 0.0
C3161 C 0.33307 0.10267 0.26194 0.0
C3162 C 0.30523 0.10569 0.26618 0.0
C3163 C 0.30794 0.12138 0.25993 0.0
C3164 C 0.32336 0.12761 0.25468 0.0
H3165 H 0.27747 0.21064 0.2872 0.0
H3166 H 0.28534 0.18314 0.28605 0.0
C3167 C 0.33576 0.11821 0.25545 0.0
C3168 C 0.2952 0.13195 0.26018 0.0
H3169 H 0.279 0.15915 0.23805 0.0
C3170 C 0.28813 0.13522 0.27497 0.0
C3171 C 0.29087 0.13979 0.24641 0.0
C3172 C 0.29652 0.13546 0.22971 0.0
C3173 C 0.27799 0.1472 0.2767 0.0
C3174 C 0.27538 0.15657 0.26349 0.0
C3175 C 0.28126 0.15224 0.24832 0.0
C3176 C 0.26857 0.17223 0.26562 0.0
C3177 C 0.27053 0.14993 0.2928 0.0
C3178 C 0.2566 0.17538 0.25444 0.0
C3179 C 0.25235 0.19131 0.25486 0.0
C3180 C 0.26 0.20425 0.26649 0.0
C3181 C 0.27134 0.20084 0.27816 0.0
C3182 C 0.27571 0.18504 0.27762 0.0
H3183 H 0.26775 0.13796 0.29851 0.0
H3184 H 0.27934 0.15878 0.30127 0.0
H3185 H 0.25921 0.15515 0.29141 0.0
H3186 H 0.25101 0.16571 0.24502 0.0
H3187 H 0.24356 0.19367 0.24573 0.0
H3188 H 0.32192 0.08331 0.50309 0.0
H3189 H 0.34453 0.06793 0.50303 0.0
H3190 H 0.37799 0.11403 0.4997 0.0
H3191 H 0.35556 0.12963 0.50046 0.0
H3192 H 0.36724 0.06462 0.48011 0.0
H3193 H 0.39701 0.09556 0.53907 0.0
H3194 H 0.37663 0.09735 0.53249 0.0
H3195 H 0.39371 0.10992 0.52446 0.0
C3196 C 0.3341 0.09023 0.50256 0.0
C3197 C 0.33691 0.10775 0.50194 0.0
C3198 C 0.347 0.08139 0.50237 0.0
C3199 C 0.36296 0.08987 0.5016 0.0
C3200 C 0.36579 0.10728 0.5006 0.0
H3201 H 0.44916 0.0473 0.48126 0.0
H3202 H 0.42504 0.06045 0.47923 0.0
C3203 C 0.35292 0.11615 0.50085 0.0
C3204 C 0.37663 0.08049 0.50193 0.0
H3205 H 0.41157 0.07783 0.52358 0.0
C3206 C 0.37693 0.06747 0.48962 0.0
C3207 C 0.38914 0.0841 0.51447 0.0
C3208 C 0.38909 0.09738 0.52847 0.0
C3209 C 0.38954 0.05811 0.4894 0.0
C3210 C 0.40225 0.06203 0.5017 0.0
C3211 C 0.40185 0.07492 0.5141 0.0
C3212 C 0.41607 0.05287 0.50213 0.0
C3213 C 0.38903 0.04393 0.47618 0.0
C3214 C 0.41903 0.04427 0.51566 0.0
C3215 C 0.43279 0.03681 0.51685 0.0
C3216 C 0.44389 0.03794 0.50459 0.0
C3217 C 0.44074 0.04619 0.49085 0.0
C3218 C 0.42694 0.05364 0.48965 0.0
H3219 H 0.3767 0.03993 0.47012 0.0
H3220 H 0.39746 0.04816 0.46678 0.0
H3221 H 0.39293 0.03291 0.48118 0.0
H3222 H 0.41081 0.04359 0.52544 0.0
H3223 H 0.43495 0.03057 0.52759 0.0
H3224 H 0.7038 0.58533 0.27544 0.0
H3225 H 0.71853 0.61375 0.27334 0.0
H3226 H 0.67351 0.63255 0.27362 0.0
H3227 H 0.65874 0.60432 0.27632 0.0
H3228 H 0.71488 0.63479 0.24887 0.0
H3229 H 0.70182 0.66382 0.30923 0.0
H3230 H 0.69857 0.64136 0.30416 0.0
H3231 H 0.6842 0.65344 0.29684 0.0
C3232 C 0.69706 0.59555 0.27531 0.0
C3233 C 0.6801 0.59256 0.27613 0.0
C3234 C 0.70548 0.61175 0.27398 0.0
C3235 C 0.69713 0.62527 0.27354 0.0
C3236 C 0.68021 0.62233 0.27423 0.0
H3237 H 0.7299 0.73221 0.26638 0.0
H3238 H 0.71335 0.70429 0.2672 0.0
C3239 C 0.67178 0.60615 0.27558 0.0
C3240 C 0.70612 0.64239 0.272 0.0
H3241 H 0.7151 0.68212 0.29128 0.0
C3242 C 0.71496 0.64514 0.25815 0.0
C3243 C 0.70612 0.65587 0.28409 0.0
C3244 C 0.69729 0.65351 0.29949 0.0
C3245 C 0.72376 0.66106 0.25603 0.0
C3246 C 0.72392 0.67448 0.26821 0.0
C3247 C 0.71492 0.67179 0.28196 0.0
C3248 C 0.73381 0.69129 0.2672 0.0
C3249 C 0.73265 0.66342 0.24067 0.0
C3250 C 0.75075 0.69323 0.2671 0.0
C3251 C 0.76014 0.70913 0.2666 0.0
C3252 C 0.75276 0.72336 0.26628 0.0
C3253 C 0.73583 0.72143 0.26647 0.0
C3254 C 0.72641 0.70551 0.26699 0.0
H3255 H 0.72775 0.65342 0.23076 0.0
H3256 H 0.73189 0.67582 0.2363 0.0
H3257 H 0.74563 0.66286 0.24323 0.0
H3258 H 0.75672 0.68247 0.26762 0.0
H3259 H 0.7732 0.71028 0.26657 0.0
H3260 H 0.83446 0.44957 0.78122 0.0
H3261 H 0.81416 0.42395 0.78022 0.0
H3262 H 0.78766 0.44023 0.74046 0.0
H3263 H 0.80811 0.46598 0.74128 0.0
H3264 H 0.77701 0.42005 0.78086 0.0
H3265 H 0.80139 0.39332 0.72444 0.0
H3266 H 0.81354 0.41012 0.73774 0.0
H3267 H 0.79677 0.41423 0.72545 0.0
C3268 C 0.82431 0.44771 0.77228 0.0
C3269 C 0.82294 0.45962 0.76119 0.0
C3270 C 0.81266 0.43319 0.77183 0.0
C3271 C 0.79951 0.43029 0.76026 0.0
C3272 C 0.79778 0.44235 0.74947 0.0
H3273 H 0.75054 0.32617 0.74087 0.0
H3274 H 0.75487 0.35645 0.73908 0.0
C3275 C 0.80941 0.45699 0.74997 0.0
C3276 C 0.78852 0.41394 0.75886 0.0
H3277 H 0.78383 0.37491 0.73854 0.0
C3278 C 0.77817 0.41022 0.77142 0.0
C3279 C 0.79 0.40128 0.74644 0.0
C3280 C 0.80102 0.40479 0.73272 0.0
C3281 C 0.76989 0.39381 0.77238 0.0
C3282 C 0.77248 0.38084 0.76072 0.0
C3283 C 0.78192 0.38486 0.74752 0.0
C3284 C 0.76729 0.36287 0.76294 0.0
C3285 C 0.75882 0.39049 0.78608 0.0
C3286 C 0.77264 0.35643 0.77705 0.0
C3287 C 0.77014 0.33914 0.77814 0.0
C3288 C 0.76251 0.32797 0.76501 0.0
C3289 C 0.75664 0.33445 0.75113 0.0
C3290 C 0.75901 0.35175 0.75011 0.0
H3291 H 0.75332 0.40166 0.78971 0.0
H3292 H 0.74896 0.37957 0.78262 0.0
H3293 H 0.76598 0.38784 0.79687 0.0
H3294 H 0.77948 0.36472 0.78691 0.0
H3295 H 0.77484 0.33453 0.78897 0.0
H3296 H 0.99091 0.84085 0.07402 0.0
H3297 H 0.98779 0.86337 0.05695 0.0
H3298 H 0.0346 0.89077 0.07555 0.0
H3299 H 0.03764 0.86869 0.09314 0.0
H3300 H 0.99166 0.90032 0.0722 0.0
H3301 H 0.03232 0.88822 0.0227 0.0
H3302 H 0.0225 0.87177 0.03417 0.0
H3303 H 0.0395 0.88667 0.04332 0.0
C3304 C 0.00053 0.8517 0.07457 0.0
C3305 C 0.0145 0.853 0.08505 0.0
C3306 C 0.99877 0.86444 0.06468 0.0
C3307 C 0.01103 0.87856 0.06493 0.0
C3308 C 0.02512 0.87979 0.07507 0.0
H3309 H 0.03086 0.97343 0.02693 0.0
H3310 H 0.03112 0.94593 0.0365 0.0
C3311 C 0.02685 0.86714 0.08506 0.0
C3312 C 0.00864 0.89269 0.0556 0.0
H3313 H 0.02232 0.91381 0.02361 0.0
C3314 C 0.99817 0.90322 0.06145 0.0
C3315 C 0.01729 0.89635 0.04171 0.0
C3316 C 0.02849 0.88515 0.03496 0.0
C3317 C 0.99661 0.91784 0.05414 0.0
C3318 C 0.00539 0.92167 0.04027 0.0
C3319 C 0.01554 0.91081 0.03417 0.0
C3320 C 0.00518 0.93754 0.03276 0.0
C3321 C 0.98622 0.92944 0.06187 0.0
C3322 C 0.99056 0.94175 0.02696 0.0
C3323 C 0.99033 0.95761 0.02171 0.0
C3324 C 0.00477 0.96936 0.02186 0.0
C3325 C 0.01951 0.9647 0.0267 0.0
C3326 C 0.01969 0.94896 0.03217 0.0
H3327 H 0.9837 0.9268 0.07458 0.0
H3328 H 0.99215 0.94278 0.06202 0.0
H3329 H 0.97443 0.92767 0.05474 0.0
H3330 H 0.97928 0.93293 0.02687 0.0
H3331 H 0.97882 0.96075 0.01781 0.0
H3332 H 0.91011 0.23769 0.84863 0.0
H3333 H 0.88398 0.23849 0.83448 0.0
H3334 H 0.90134 0.28963 0.82475 0.0
H3335 H 0.9273 0.289 0.83918 0.0
H3336 H 0.87105 0.28582 0.83516 0.0
H3337 H 0.87468 0.23573 0.78588 0.0
H3338 H 0.87624 0.22912 0.80598 0.0
H3339 H 0.89179 0.24502 0.79967 0.0
C3340 C 0.90836 0.24904 0.84335 0.0
C3341 C 0.92073 0.26326 0.84492 0.0
C3342 C 0.89346 0.24948 0.83525 0.0
C3343 C 0.8908 0.26403 0.82833 0.0
C3344 C 0.90312 0.27826 0.82999 0.0
H3345 H 0.81791 0.27175 0.75372 0.0
H3346 H 0.84265 0.27033 0.77006 0.0
C3347 C 0.91794 0.2779 0.83823 0.0
C3348 C 0.87518 0.26457 0.81942 0.0
H3349 H 0.84996 0.24599 0.78686 0.0
C3350 C 0.86642 0.27712 0.82458 0.0
C3351 C 0.86927 0.25332 0.80553 0.0
C3352 C 0.87854 0.24014 0.79882 0.0
C3353 C 0.85195 0.27881 0.8162 0.0
C3354 C 0.84588 0.26734 0.8025 0.0
C3355 C 0.85459 0.25472 0.79742 0.0
C3356 C 0.83087 0.26857 0.79283 0.0
C3357 C 0.84363 0.29319 0.8218 0.0
C3358 C 0.81599 0.26788 0.80015 0.0
C3359 C 0.80193 0.26896 0.79084 0.0
C3360 C 0.8025 0.27051 0.77409 0.0
C3361 C 0.81725 0.27074 0.76669 0.0
C3362 C 0.83134 0.2699 0.776 0.0
H3363 H 0.85204 0.30331 0.82938 0.0
H3364 H 0.83859 0.29866 0.81127 0.0
H3365 H 0.83349 0.28851 0.82933 0.0
H3366 H 0.81518 0.26624 0.81298 0.0
H3367 H 0.79056 0.26792 0.79659 0.0
H3368 H 0.5471 0.20512 0.58862 0.0
H3369 H 0.55107 0.18014 0.57172 0.0
H3370 H 0.50296 0.17554 0.54909 0.0
H3371 H 0.4991 0.20097 0.56553 0.0
H3372 H 0.5328 0.1493 0.57292 0.0
H3373 H 0.52958 0.16756 0.50994 0.0
H3374 H 0.53282 0.18277 0.52764 0.0
H3375 H 0.51272 0.17173 0.5213 0.0
C3376 C 0.5375 0.19907 0.57976 0.0
C3377 C 0.52278 0.20508 0.5784 0.0
C3378 C 0.53978 0.18475 0.57016 0.0
C3379 C 0.52742 0.17615 0.55898 0.0
C3380 C 0.5128 0.18221 0.55738 0.0
H3381 H 0.49748 0.07956 0.51 0.0
H3382 H 0.50279 0.10949 0.51894 0.0
C3383 C 0.51052 0.19659 0.56697 0.0
C3384 C 0.52915 0.15987 0.55032 0.0
H3385 H 0.52602 0.13795 0.51273 0.0
C3386 C 0.53162 0.14688 0.55975 0.0
C3387 C 0.52758 0.15679 0.53314 0.0
C3388 C 0.52569 0.1705 0.5224 0.0
C3389 C 0.53174 0.13065 0.55252 0.0
C3390 C 0.52964 0.12741 0.53536 0.0
C3391 C 0.5277 0.14052 0.52587 0.0
C3392 C 0.52769 0.11011 0.52736 0.0
C3393 C 0.53324 0.1169 0.56337 0.0
C3394 C 0.54018 0.10072 0.52851 0.0
C3395 C 0.53716 0.0835 0.52352 0.0
C3396 C 0.52161 0.07549 0.51727 0.0
C3397 C 0.50953 0.08526 0.51499 0.0
C3398 C 0.51256 0.10241 0.52 0.0
H3399 H 0.53177 0.12087 0.57637 0.0
H3400 H 0.52403 0.10551 0.55949 0.0
H3401 H 0.54541 0.11342 0.56246 0.0
H3402 H 0.55204 0.10655 0.53392 0.0
H3403 H 0.54679 0.07639 0.52528 0.0
H3404 H 0.57108 0.73863 0.33274 0.0
H3405 H 0.59543 0.73811 0.31747 0.0
H3406 H 0.60436 0.79221 0.32034 0.0
H3407 H 0.58014 0.79286 0.33575 0.0
H3408 H 0.60466 0.75442 0.28677 0.0
H3409 H 0.64596 0.77746 0.34175 0.0
H3410 H 0.62499 0.76795 0.34301 0.0
H3411 H 0.63008 0.78918 0.33794 0.0
C3412 C 0.57823 0.75041 0.3301 0.0
C3413 C 0.57378 0.76579 0.33553 0.0
C3414 C 0.59205 0.75008 0.3213 0.0
C3415 C 0.60169 0.76512 0.31792 0.0
C3416 C 0.59707 0.78047 0.32293 0.0
H3417 H 0.69509 0.79456 0.28067 0.0
H3418 H 0.66809 0.79282 0.29101 0.0
C3419 C 0.5832 0.78082 0.33164 0.0
C3420 C 0.61699 0.76484 0.30978 0.0
H3421 H 0.65804 0.77511 0.31657 0.0
C3422 C 0.61637 0.75887 0.29324 0.0
C3423 C 0.63217 0.77058 0.31835 0.0
C3424 C 0.63346 0.77655 0.33628 0.0
C3425 C 0.63062 0.75899 0.28487 0.0
C3426 C 0.64581 0.76495 0.29341 0.0
C3427 C 0.64638 0.77063 0.31003 0.0
C3428 C 0.66137 0.76591 0.2854 0.0
C3429 C 0.62929 0.75324 0.2669 0.0
C3430 C 0.66647 0.75136 0.27857 0.0
C3431 C 0.68192 0.75235 0.27253 0.0
C3432 C 0.69249 0.76787 0.27342 0.0
C3433 C 0.68718 0.78243 0.27985 0.0
C3434 C 0.67177 0.78146 0.28577 0.0
H3435 H 0.6169 0.75292 0.26141 0.0
H3436 H 0.6381 0.7616 0.26028 0.0
H3437 H 0.63209 0.74037 0.26513 0.0
H3438 H 0.65875 0.73919 0.27844 0.0
H3439 H 0.6858 0.74093 0.26774 0.0
H3440 H 0.98903 0.17939 0.42913 0.0
H3441 H 0.98755 0.15477 0.44434 0.0
H3442 H 0.02605 0.18135 0.47813 0.0
H3443 H 0.02732 0.20628 0.46322 0.0
H3444 H 0.01409 0.13812 0.44871 0.0
H3445 H 0.99175 0.15954 0.50803 0.0
H3446 H 0.98951 0.16999 0.48985 0.0
H3447 H 0.00879 0.17315 0.50107 0.0
C3448 C 0.99692 0.18017 0.44002 0.0
C3449 C 0.00829 0.19481 0.44497 0.0
C3450 C 0.99612 0.16605 0.44864 0.0
C3451 C 0.00658 0.16631 0.46243 0.0
C3452 C 0.0177 0.181 0.46766 0.0
H3453 H 0.02442 0.08499 0.51959 0.0
H3454 H 0.02473 0.11264 0.5097 0.0
C3455 C 0.01853 0.19515 0.45902 0.0
C3456 C 0.00672 0.15074 0.47041 0.0
H3457 H -0.00059 0.13271 0.50583 0.0
C3458 C 0.01086 0.13693 0.46119 0.0
C3459 C 0.00266 0.14932 0.48674 0.0
C3460 C 0.9978 0.16372 0.49702 0.0
C3461 C 0.011 0.12166 0.46782 0.0
C3462 C 0.00657 0.12009 0.48402 0.0
C3463 C 0.00274 0.13399 0.49339 0.0
C3464 C 0.0054 0.10387 0.49111 0.0
C3465 C 0.016 0.10737 0.45745 0.0
C3466 C 0.9941 0.08997 0.48424 0.0
C3467 C 0.99391 0.07422 0.48978 0.0
C3468 C 0.00497 0.07208 0.50241 0.0
C3469 C 0.01577 0.08621 0.50982 0.0
C3470 C 0.01598 0.102 0.5042 0.0
H3471 H 0.02301 0.11188 0.44711 0.0
H3472 H 0.02345 0.10037 0.46481 0.0
H3473 H 0.00498 0.09852 0.45233 0.0
H3474 H 0.98564 0.09124 0.47431 0.0
H3475 H 0.98528 0.06367 0.48392 0.0
H3476 H 0.56378 0.26479 0.20721 0.0
H3477 H 0.588 0.25756 0.22072 0.0
H3478 H 0.61603 0.27334 0.18049 0.0
H3479 H 0.59213 0.2809 0.16716 0.0
H3480 H 0.60778 0.23414 0.20756 0.0
H3481 H 0.64236 0.29889 0.22131 0.0
H3482 H 0.62072 0.2945 0.21658 0.0
H3483 H 0.6345 0.29428 0.20051 0.0
C3484 C 0.57519 0.26696 0.20141 0.0
C3485 C 0.57611 0.27344 0.18616 0.0
C3486 C 0.58893 0.2627 0.20905 0.0
C3487 C 0.60376 0.26505 0.20162 0.0
C3488 C 0.60471 0.27163 0.18649 0.0
H3489 H 0.70182 0.25378 0.21384 0.0
H3490 H 0.67431 0.25489 0.20354 0.0
C3491 C 0.59104 0.27583 0.17885 0.0
C3492 C 0.61834 0.26042 0.20937 0.0
H3493 H 0.65749 0.27664 0.22227 0.0
C3494 C 0.61862 0.2434 0.21101 0.0
C3495 C 0.63236 0.27259 0.2139 0.0
C3496 C 0.63248 0.29111 0.21315 0.0
C3497 C 0.63292 0.23816 0.2163 0.0
C3498 C 0.64712 0.25029 0.22011 0.0
C3499 C 0.6466 0.26734 0.21909 0.0
C3500 C 0.66289 0.24582 0.22483 0.0
C3501 C 0.63296 0.2197 0.21719 0.0
C3502 C 0.66544 0.23962 0.2399 0.0
C3503 C 0.68117 0.23884 0.24575 0.0
C3504 C 0.69447 0.24446 0.23667 0.0
C3505 C 0.69175 0.24943 0.22108 0.0
C3506 C 0.67607 0.2501 0.21521 0.0
H3507 H 0.62185 0.21174 0.21106 0.0
H3508 H 0.64375 0.21603 0.21153 0.0
H3509 H 0.63359 0.21711 0.23016 0.0
H3510 H 0.65544 0.23647 0.24758 0.0
H3511 H 0.68301 0.23505 0.25786 0.0
H3512 H 0.5184 0.8456 0.9565 0.0
H3513 H 0.51701 0.8735 0.96953 0.0
H3514 H 0.52172 0.89385 0.9231 0.0
H3515 H 0.52368 0.8661 0.91005 0.0
H3516 H 0.54138 0.9134 0.94788 0.0
H3517 H 0.47821 0.89761 0.96623 0.0
H3518 H 0.49106 0.88382 0.97318 0.0
H3519 H 0.48678 0.88421 0.95168 0.0
C3520 C 0.5193 0.85603 0.94909 0.0
C3521 C 0.52109 0.85362 0.93223 0.0
C3522 C 0.51829 0.87193 0.95651 0.0
C3523 C 0.51895 0.88566 0.94722 0.0
C3524 C 0.52103 0.88337 0.93045 0.0
H3525 H 0.49471 0.98117 0.98678 0.0
H3526 H 0.49585 0.95562 0.96899 0.0
C3527 C 0.52205 0.86749 0.92301 0.0
C3528 C 0.51781 0.90248 0.95507 0.0
H3529 H 0.49377 0.92356 0.97835 0.0
C3530 C 0.53092 0.91567 0.95443 0.0
C3531 C 0.50402 0.90549 0.96333 0.0
C3532 C 0.48914 0.89208 0.96353 0.0
C3533 C 0.53088 0.93166 0.9624 0.0
C3534 C 0.51749 0.93438 0.97145 0.0
C3535 C 0.50411 0.92137 0.97155 0.0
C3536 C 0.51738 0.95039 0.98148 0.0
C3537 C 0.54515 0.94548 0.96104 0.0
C3538 C 0.52908 0.95585 0.99441 0.0
C3539 C 0.52849 0.97044 0.00449 0.0
C3540 C 0.51615 0.97975 0.00188 0.0
C3541 C 0.50447 0.97432 0.98892 0.0
C3542 C 0.50506 0.95972 0.97881 0.0
H3543 H 0.55184 0.94293 0.95004 0.0
H3544 H 0.54122 0.95781 0.96055 0.0
H3545 H 0.55368 0.94635 0.97188 0.0
H3546 H 0.53847 0.94863 0.9969 0.0
H3547 H 0.53761 0.97432 0.01445 0.0
H3548 H 0.9103 0.76157 0.67358 0.0
H3549 H 0.88695 0.76221 0.69021 0.0
H3550 H 0.91589 0.79981 0.72466 0.0
H3551 H 0.93945 0.79903 0.70823 0.0
H3552 H 0.89541 0.77193 0.73854 0.0
H3553 H 0.86253 0.80306 0.69364 0.0
H3554 H 0.86972 0.78462 0.68545 0.0
H3555 H 0.88403 0.80296 0.69337 0.0
C3556 C 0.91174 0.76984 0.68478 0.0
C3557 C 0.92667 0.78031 0.68958 0.0
C3558 C 0.89838 0.77027 0.69419 0.0
C3559 C 0.89972 0.78117 0.70853 0.0
C3560 C 0.91466 0.79137 0.71357 0.0
H3561 H 0.81636 0.80778 0.75597 0.0
H3562 H 0.84329 0.80877 0.74564 0.0
C3563 C 0.92803 0.791 0.70413 0.0
C3564 C 0.88536 0.78218 0.71802 0.0
H3565 H 0.84785 0.79284 0.71563 0.0
C3566 C 0.88502 0.77659 0.73363 0.0
C3567 C 0.87199 0.78847 0.71159 0.0
C3568 C 0.87206 0.79526 0.69515 0.0
C3569 C 0.87135 0.77669 0.74284 0.0
C3570 C 0.85774 0.78241 0.73614 0.0
C3571 C 0.8583 0.78841 0.7207 0.0
C3572 C 0.84254 0.78194 0.74461 0.0
C3573 C 0.8716 0.77076 0.75964 0.0
C3574 C 0.83333 0.76653 0.74771 0.0
C3575 C 0.81791 0.76591 0.75362 0.0
C3576 C 0.8114 0.78068 0.75638 0.0
C3577 C 0.82096 0.79616 0.75389 0.0
C3578 C 0.83636 0.79676 0.74801 0.0
H3579 H 0.88418 0.77113 0.76465 0.0
H3580 H 0.86541 0.77854 0.76818 0.0
H3581 H 0.8651 0.75758 0.75897 0.0
H3582 H 0.83776 0.75492 0.74488 0.0
H3583 H 0.81087 0.75377 0.75539 0.0
H3584 H 0.06829 0.98073 0.84789 0.0
H3585 H 0.05201 0.98056 0.87183 0.0
H3586 H 0.0873 0.02086 0.89657 0.0
H3587 H 0.10385 0.02089 0.87294 0.0
H3588 H 0.06274 0.97802 0.90725 0.0
H3589 H 0.04178 0.03732 0.89493 0.0
H3590 H 0.04948 0.02427 0.87934 0.0
H3591 H 0.06322 0.03747 0.89434 0.0
C3592 C 0.07272 0.98938 0.85851 0.0
C3593 C 0.08731 0.00093 0.85844 0.0
C3594 C 0.06337 0.9893 0.87213 0.0
C3595 C 0.06841 0.00082 0.88582 0.0
C3596 C 0.08314 0.01203 0.88599 0.0
H3597 H 0.02985 0.03196 0.97584 0.0
H3598 H 0.04566 0.02811 0.95207 0.0
C3599 C 0.09252 0.01207 0.87245 0.0
C3600 C 0.05808 0.00155 0.89979 0.0
H3601 H 0.03505 0.02648 0.91987 0.0
C3602 C 0.05657 0.98853 0.91001 0.0
C3603 C 0.05013 0.0153 0.90326 0.0
C3604 C 0.05107 0.02937 0.89236 0.0
C3605 C 0.04764 0.98917 0.92398 0.0
C3606 C 0.03977 0.00302 0.92752 0.0
C3607 C 0.04111 0.01589 0.91712 0.0
C3608 C 0.03046 0.00475 0.94221 0.0
C3609 C 0.04714 0.97533 0.9351 0.0
C3610 C 0.01662 0.99292 0.9445 0.0
C3611 C 0.00765 0.99503 0.95819 0.0
C3612 C 0.01234 0.00904 0.96969 0.0
C3613 C 0.0261 0.02091 0.96728 0.0
C3614 C 0.03509 0.01877 0.95368 0.0
H3615 H 0.05691 0.96791 0.93282 0.0
H3616 H 0.04835 0.98053 0.94809 0.0
H3617 H 0.03533 0.96667 0.93294 0.0
H3618 H 0.01264 0.98221 0.93561 0.0
H3619 H 0.99702 0.98575 0.95973 0.0
H3620 H 0.77461 0.33683 0.57711 0.0
H3621 H 0.77543 0.31936 0.59977 0.0
H3622 H 0.72454 0.31897 0.60555 0.0
H3623 H 0.72364 0.33652 0.58301 0.0
H3624 H 0.74693 0.33114 0.63404 0.0
H3625 H 0.75488 0.26885 0.60492 0.0
H3626 H 0.76748 0.28701 0.59834 0.0
H3627 H 0.74596 0.28369 0.594 0.0
C3628 C 0.76357 0.33286 0.58311 0.0
C3629 C 0.74907 0.33808 0.57837 0.0
C3630 C 0.76402 0.32276 0.59591 0.0
C3631 C 0.75 0.31778 0.60416 0.0
C3632 C 0.73542 0.32257 0.59917 0.0
H3633 H 0.73431 0.26537 0.69114 0.0
H3634 H 0.73175 0.27374 0.66337 0.0
C3635 C 0.73493 0.33255 0.5863 0.0
C3636 C 0.75097 0.30928 0.61915 0.0
H3637 H 0.75798 0.27302 0.63387 0.0
C3638 C 0.74921 0.31839 0.634 0.0
C3639 C 0.75399 0.29268 0.61898 0.0
C3640 C 0.75559 0.28237 0.60322 0.0
C3641 C 0.75069 0.31142 0.64879 0.0
C3642 C 0.75398 0.29494 0.64866 0.0
C3643 C 0.75548 0.28567 0.63382 0.0
C3644 C 0.75628 0.28755 0.66406 0.0
C3645 C 0.74896 0.32175 0.66452 0.0
C3646 C 0.77103 0.29227 0.67331 0.0
C3647 C 0.77251 0.28759 0.68908 0.0
C3648 C 0.75923 0.27813 0.6958 0.0
C3649 C 0.74471 0.27267 0.6862 0.0
C3650 C 0.74325 0.27738 0.67038 0.0
H3651 H 0.74472 0.33365 0.66242 0.0
H3652 H 0.74028 0.31442 0.67211 0.0
H3653 H 0.76086 0.32487 0.67154 0.0
H3654 H 0.78117 0.30019 0.66857 0.0
H3655 H 0.78384 0.29191 0.69623 0.0
H3656 H 0.45446 0.04182 0.34047 0.0
H3657 H 0.46903 0.04009 0.36644 0.0
H3658 H 0.42372 0.03122 0.38963 0.0
H3659 H 0.40898 0.03329 0.36378 0.0
H3660 H 0.45967 0.06044 0.40248 0.0
H3661 H 0.45618 0.991 0.39315 0.0
H3662 H 0.45793 0.00355 0.37609 0.0
H3663 H 0.43946 0.00054 0.38639 0.0
C3664 C 0.44759 0.03974 0.35113 0.0
C3665 C 0.43057 0.03772 0.35009 0.0
C3666 C 0.45593 0.03868 0.3659 0.0
C3667 C 0.44738 0.03554 0.37981 0.0
C3668 C 0.43044 0.03363 0.37892 0.0
H3669 H 0.47893 0.00936 0.47379 0.0
H3670 H 0.46337 0.0132 0.44906 0.0
C3671 C 0.42207 0.03471 0.36416 0.0
C3672 C 0.45619 0.03391 0.39521 0.0
H3673 H 0.47008 0.00513 0.41716 0.0
C3674 C 0.46197 0.04839 0.40577 0.0
C3675 C 0.45899 0.01813 0.39934 0.0
C3676 C 0.45286 0.00233 0.38822 0.0
C3677 C 0.47059 0.04747 0.42052 0.0
C3678 C 0.47368 0.0317 0.42454 0.0
C3679 C 0.46773 0.0172 0.41399 0.0
C3680 C 0.48303 0.02989 0.43967 0.0
C3681 C 0.47604 0.06331 0.4318 0.0
C3682 C 0.49926 0.0379 0.44246 0.0
C3683 C 0.50813 0.03582 0.45663 0.0
C3684 C 0.50091 0.0256 0.46811 0.0
C3685 C 0.48473 0.01744 0.46519 0.0
C3686 C 0.47585 0.01958 0.45108 0.0
H3687 H 0.46914 0.07333 0.42902 0.0
H3688 H 0.47462 0.06085 0.44472 0.0
H3689 H 0.48906 0.06808 0.43031 0.0
H3690 H 0.50512 0.0456 0.43361 0.0
H3691 H 0.52063 0.04215 0.45858 0.0
H3692 H 0.78667 0.70382 0.09295 0.0
H3693 H 0.78329 0.71711 0.12002 0.0
H3694 H 0.74605 0.74126 0.10002 0.0
H3695 H 0.74954 0.72829 0.07271 0.0
H3696 H 0.77874 0.7594 0.12769 0.0
H3697 H 0.73183 0.70512 0.13996 0.0
H3698 H 0.74855 0.70148 0.1279 0.0
H3699 H 0.73352 0.71229 0.1199 0.0
C3700 C 0.77802 0.71226 0.09419 0.0
C3701 C 0.76836 0.71498 0.08065 0.0
C3702 C 0.77605 0.71975 0.10968 0.0
C3703 C 0.76441 0.73006 0.11192 0.0
C3704 C 0.75508 0.73328 0.09845 0.0
H3705 H 0.73267 0.75751 0.20887 0.0
H3706 H 0.73294 0.75158 0.17926 0.0
C3707 C 0.75703 0.7258 0.08291 0.0
C3708 C 0.76149 0.73663 0.12854 0.0
H3709 H 0.74159 0.72524 0.16205 0.0
C3710 C 0.7705 0.75208 0.1352 0.0
C3711 C 0.75057 0.7271 0.13811 0.0
C3712 C 0.74046 0.71056 0.1312 0.0
C3713 C 0.76925 0.75801 0.15151 0.0
C3714 C 0.75903 0.74798 0.16143 0.0
C3715 C 0.74949 0.73287 0.15448 0.0
C3716 C 0.75886 0.75232 0.17924 0.0
C3717 C 0.77895 0.77492 0.15795 0.0
C3718 C 0.77328 0.75443 0.18907 0.0
C3719 C 0.77318 0.75789 0.20592 0.0
C3720 C 0.7586 0.75904 0.21336 0.0
C3721 C 0.7441 0.75667 0.20353 0.0
C3722 C 0.74424 0.75334 0.18661 0.0
H3723 H 0.78144 0.78322 0.14801 0.0
H3724 H 0.77256 0.78133 0.16743 0.0
H3725 H 0.7908 0.77318 0.16341 0.0
H3726 H 0.78462 0.75315 0.18374 0.0
H3727 H 0.78456 0.75945 0.21311 0.0
H3728 H 0.10614 0.03282 0.69789 0.0
H3729 H 0.09352 0.03827 0.67219 0.0
H3730 H 0.051 0.00215 0.67959 0.0
H3731 H 0.06351 0.99672 0.70557 0.0
H3732 H 0.0629 0.99845 0.64833 0.0
H3733 H 0.05616 0.06432 0.66564 0.0
H3734 H 0.07628 0.06037 0.66979 0.0
H3735 H 0.05977 0.05011 0.68049 0.0
C3736 C 0.09399 0.02621 0.69421 0.0
C3737 C 0.08574 0.01447 0.70388 0.0
C3738 C 0.08681 0.02935 0.67951 0.0
C3739 C 0.07122 0.02086 0.67418 0.0
C3740 C 0.063 0.00893 0.68361 0.0
H3741 H 0.01398 0.04282 0.59069 0.0
H3742 H 0.02429 0.03965 0.61829 0.0
C3743 C 0.07019 0.00578 0.69838 0.0
C3744 C 0.06388 0.02401 0.65838 0.0
H3745 H 0.05303 0.05502 0.6372 0.0
C3746 C 0.06061 0.01077 0.64592 0.0
C3747 C 0.06076 0.04006 0.65536 0.0
C3748 C 0.06327 0.0545 0.66857 0.0
C3749 C 0.05476 0.0133 0.63031 0.0
C3750 C 0.05239 0.02955 0.62708 0.0
C3751 C 0.05513 0.04266 0.63968 0.0
C3752 C 0.04691 0.03306 0.61067 0.0
C3753 C 0.05111 0.99854 0.61744 0.0
C3754 C 0.05651 0.03103 0.59738 0.0
C3755 C 0.05068 0.03285 0.58165 0.0
C3756 C 0.03519 0.03681 0.57901 0.0
C3757 C 0.02596 0.03973 0.59242 0.0
C3758 C 0.03181 0.0379 0.60815 0.0
H3759 H 0.04969 0.98638 0.62289 0.0
H3760 H 0.03987 -0.00108 0.60995 0.0
H3761 H 0.06127 -0.00096 0.60924 0.0
H3762 H 0.06835 0.02761 0.59915 0.0
H3763 H 0.05805 0.0306 0.57151 0.0
H3764 H 0.77716 0.37284 0.42587 0.0
H3765 H 0.77783 0.35724 0.39916 0.0
H3766 H 0.73452 0.32321 0.40857 0.0
H3767 H 0.7338 0.33863 0.43525 0.0
H3768 H 0.77901 0.3226 0.39123 0.0
H3769 H 0.72315 0.34034 0.3648 0.0
H3770 H 0.7339 0.3512 0.38318 0.0
H3771 H 0.72052 0.33146 0.38387 0.0
C3772 C 0.76784 0.36197 0.42227 0.0
C3773 C 0.75534 0.35703 0.43258 0.0
C3774 C 0.76822 0.35313 0.40702 0.0
C3775 C 0.75609 0.33927 0.40185 0.0
C3776 C 0.7438 0.33411 0.41223 0.0
H3777 H 0.72908 0.26688 0.31941 0.0
H3778 H 0.73323 0.28307 0.34616 0.0
C3779 C 0.74338 0.34294 0.42744 0.0
C3780 C 0.75617 0.33012 0.38558 0.0
H3781 H 0.73324 0.31825 0.34997 0.0
C3782 C 0.76911 0.32175 0.38212 0.0
C3783 C 0.74326 0.32917 0.37374 0.0
C3784 C 0.72949 0.33865 0.37648 0.0
C3785 C 0.76912 0.31183 0.36729 0.0
C3786 C 0.75595 0.31048 0.35569 0.0
C3787 C 0.74325 0.31922 0.359 0.0
C3788 C 0.75473 0.29971 0.34015 0.0
C3789 C 0.78292 0.30245 0.36434 0.0
C3790 C 0.76558 0.30364 0.32802 0.0
C3791 C 0.76323 0.29437 0.31273 0.0
C3792 C 0.75 0.28115 0.30941 0.0
C3793 C 0.73942 0.277 0.32171 0.0
C3794 C 0.74176 0.28621 0.33695 0.0
H3795 H 0.79051 0.30228 0.37567 0.0
H3796 H 0.77823 0.28931 0.35921 0.0
H3797 H 0.79076 0.30864 0.35534 0.0
H3798 H 0.77547 0.31423 0.33016 0.0
H3799 H 0.77133 0.29802 0.30334 0.0
H3800 H 0.44326 0.00755 0.19843 0.0
H3801 H 0.46046 0.00498 0.17554 0.0
H3802 H 0.474 0.05891 0.17852 0.0
H3803 H 0.45707 0.06159 0.20171 0.0
H3804 H 0.45542 0.01907 0.14636 0.0
H3805 H 0.51769 0.04235 0.17403 0.0
H3806 H 0.5007 0.03534 0.18594 0.0
H3807 H 0.50332 0.05584 0.17879 0.0
C3808 C 0.45018 0.01885 0.19445 0.0
C3809 C 0.44884 0.03479 0.20186 0.0
C3810 C 0.45995 0.01736 0.18135 0.0
C3811 C 0.46864 0.03174 0.17552 0.0
C3812 C 0.46761 0.04765 0.18307 0.0
H3813 H 0.51308 0.05294 0.08621 0.0
H3814 H 0.50432 0.05427 0.1142 0.0
C3815 C 0.45779 0.04917 0.19616 0.0
C3816 C 0.47743 0.03015 0.16052 0.0
H3817 H 0.51466 0.03909 0.14495 0.0
C3818 C 0.46839 0.02328 0.14607 0.0
C3819 C 0.49434 0.03574 0.16025 0.0
C3820 C 0.50465 0.0426 0.1756 0.0
C3821 C 0.47574 0.02221 0.13122 0.0
C3822 C 0.4926 0.02796 0.13089 0.0
C3823 C 0.50172 0.0347 0.14534 0.0
C3824 C 0.50068 0.0274 0.11541 0.0
C3825 C 0.46536 0.01532 0.11589 0.0
C3826 C 0.50205 0.0119 0.1072 0.0
C3827 C 0.50699 0.0111 0.09128 0.0
C3828 C 0.51063 0.02581 0.08341 0.0
C3829 C 0.51029 0.04143 0.09203 0.0
C3830 C 0.50534 0.04221 0.10798 0.0
H3831 H 0.45221 0.01416 0.11782 0.0
H3832 H 0.46833 0.02351 0.10595 0.0
H3833 H 0.46783 0.00267 0.11179 0.0
H3834 H 0.49856 0.00036 0.11284 0.0
H3835 H 0.50724 -0.00109 0.0849 0.0
H3836 H 0.75369 0.68352 0.91033 0.0
H3837 H 0.75459 0.6986 0.88593 0.0
H3838 H 0.79167 0.73759 0.90999 0.0
H3839 H 0.79064 0.72281 0.93461 0.0
H3840 H 0.74921 0.73305 0.88473 0.0
H3841 H 0.80999 0.72369 0.86539 0.0
H3842 H 0.7987 0.71056 0.87905 0.0
H3843 H 0.80886 0.73135 0.88636 0.0
C3844 C 0.76198 0.69535 0.9105 0.0
C3845 C 0.77207 0.70197 0.92446 0.0
C3846 C 0.76254 0.70388 0.89651 0.0
C3847 C 0.77331 0.71909 0.89614 0.0
C3848 C 0.78348 0.72571 0.90997 0.0
H3849 H 0.79098 0.78796 0.82097 0.0
H3850 H 0.79228 0.77361 0.84582 0.0
C3851 C 0.78288 0.71722 0.92401 0.0
C3852 C 0.77338 0.72832 0.88147 0.0
H3853 H 0.79637 0.74098 0.85021 0.0
C3854 C 0.7595 0.73478 0.87715 0.0
C3855 C 0.78689 0.73064 0.87174 0.0
C3856 C 0.80195 0.72362 0.87573 0.0
C3857 C 0.75877 0.74359 0.86335 0.0
C3858 C 0.77215 0.74563 0.8534 0.0
C3859 C 0.78613 0.73935 0.85784 0.0
C3860 C 0.77172 0.754 0.83819 0.0
C3861 C 0.74377 0.75089 0.85973 0.0
C3862 C 0.75995 0.74753 0.82556 0.0
C3863 C 0.75913 0.75574 0.81147 0.0
C3864 C 0.77021 0.77044 0.80965 0.0
C3865 C 0.78227 0.77667 0.82209 0.0
C3866 C 0.78303 0.76849 0.83626 0.0
H3867 H 0.73686 0.75246 0.87077 0.0
H3868 H 0.74692 0.76327 0.85484 0.0
H3869 H 0.73571 0.74225 0.85045 0.0
H3870 H 0.75132 0.73617 0.82665 0.0
H3871 H 0.74968 0.75067 0.80209 0.0
H3872 H 0.85308 0.10938 0.03814 0.0
H3873 H 0.87126 0.08879 0.03754 0.0
H3874 H 0.84555 0.0629 0.99365 0.0
H3875 H 0.82712 0.08317 0.99429 0.0
H3876 H 0.86252 0.05104 0.03571 0.0
H3877 H 0.89454 0.07608 0.98291 0.0
H3878 H 0.88276 0.08823 0.9954 0.0
H3879 H 0.87274 0.07146 0.98091 0.0
C3880 C 0.85119 0.09921 0.02845 0.0
C3881 C 0.83876 0.09801 0.01617 0.0
C3882 C 0.86158 0.08749 0.02813 0.0
C3883 C 0.85975 0.07446 0.01549 0.0
C3884 C 0.84721 0.07301 0.00339 0.0
H3885 H 0.92992 0.01013 0.99101 0.0
H3886 H 0.90401 0.02019 0.99141 0.0
C3887 C 0.8368 0.08468 0.00372 0.0
C3888 C 0.87137 0.06275 0.01466 0.0
H3889 H 0.90333 0.05331 0.99389 0.0
C3890 C 0.87139 0.05141 0.02652 0.0
C3891 C 0.88277 0.06323 0.00255 0.0
C3892 C 0.88337 0.07545 0.98974 0.0
C3893 C 0.88278 0.04063 0.02673 0.0
C3894 C 0.8946 0.04156 0.01498 0.0
C3895 C 0.8942 0.05256 0.00283 0.0
C3896 C 0.9085 0.03261 0.0159 0.0
C3897 C 0.88207 0.02841 0.03952 0.0
C3898 C 0.91938 0.0359 0.02969 0.0
C3899 C 0.9341 0.03013 0.0295 0.0
C3900 C 0.93824 0.02115 0.01545 0.0
C3901 C 0.92699 0.01704 0.00199 0.0
C3902 C 0.91222 0.02277 0.0022 0.0
H3903 H 0.86957 0.02508 0.04358 0.0
H3904 H 0.88627 0.01672 0.03495 0.0
H3905 H 0.89003 0.03433 0.05033 0.0
H3906 H 0.91695 0.04378 0.04025 0.0
H3907 H 0.9426 0.03349 0.04003 0.0
H3908 H 0.33392 0.45833 0.0455 0.0
H3909 H 0.36166 0.47371 0.04501 0.0
H3910 H 0.36879 0.4428 0.00167 0.0
H3911 H 0.34124 0.42704 0.00225 0.0
H3912 H 0.3911 0.45805 0.0449 0.0
H3913 H 0.38264 0.49293 0.99094 0.0
H3914 H 0.3659 0.48433 0.0025 0.0
H3915 H 0.37491 0.4707 0.98881 0.0
C3916 C 0.3414 0.45471 0.03591 0.0
C3917 C 0.33532 0.44145 0.0239 0.0
C3918 C 0.3572 0.46359 0.0356 0.0
C3919 C 0.36714 0.45949 0.0232 0.0
C3920 C 0.36117 0.44632 0.01117 0.0
H3921 H 0.46695 0.50089 0.00424 0.0
H3922 H 0.43889 0.48559 0.00197 0.0
C3923 C 0.3454 0.43737 0.01151 0.0
C3924 C 0.38401 0.46858 0.02326 0.0
H3925 H 0.40921 0.49624 0.00298 0.0
C3926 C 0.39509 0.46643 0.03577 0.0
C3927 C 0.38913 0.47929 0.01118 0.0
C3928 C 0.37755 0.48211 0.99761 0.0
C3929 C 0.41125 0.47474 0.03654 0.0
C3930 C 0.41631 0.48586 0.02474 0.0
C3931 C 0.40527 0.48779 0.01206 0.0
C3932 C 0.43293 0.49581 0.0256 0.0
C3933 C 0.42281 0.47129 0.04985 0.0
C3934 C 0.4387 0.50696 0.03941 0.0
C3935 C 0.45465 0.51563 0.04071 0.0
C3936 C 0.46502 0.51353 0.02811 0.0
C3937 C 0.4591 0.50287 0.01402 0.0
C3938 C 0.44314 0.49408 0.01276 0.0
H3939 H 0.41846 0.45907 0.05468 0.0
H3940 H 0.43509 0.47117 0.04539 0.0
H3941 H 0.42381 0.48129 0.0601 0.0
H3942 H 0.43091 0.50879 0.04929 0.0
H3943 H 0.45893 0.52385 0.05167 0.0
H3944 H 0.33148 0.6088 0.78132 0.0
H3945 H 0.31621 0.63189 0.78314 0.0
H3946 H 0.31632 0.6332 0.73104 0.0
H3947 H 0.33136 0.60992 0.72903 0.0
H3948 H 0.32728 0.66462 0.74949 0.0
H3949 H 0.26825 0.63255 0.76893 0.0
H3950 H 0.2858 0.62928 0.78069 0.0
H3951 H 0.28277 0.62126 0.75958 0.0
C3952 C 0.32799 0.61376 0.7702 0.0
C3953 C 0.33267 0.60752 0.75502 0.0
C3954 C 0.31926 0.62696 0.77128 0.0
C3955 C 0.315 0.63411 0.75721 0.0
C3956 C 0.31947 0.6278 0.74203 0.0
H3957 H 0.2547 0.71037 0.74769 0.0
H3958 H 0.2657 0.68427 0.74561 0.0
C3959 C 0.32815 0.61458 0.74093 0.0
C3960 C 0.30685 0.6489 0.75844 0.0
H3961 H 0.27236 0.66239 0.77016 0.0
C3962 C 0.31524 0.66413 0.75393 0.0
C3963 C 0.29111 0.64814 0.76411 0.0
C3964 C 0.28135 0.63191 0.76849 0.0
C3965 C 0.30843 0.67874 0.75526 0.0
C3966 C 0.2929 0.67813 0.76143 0.0
C3967 C 0.28433 0.66282 0.76558 0.0
C3968 C 0.28547 0.69335 0.76365 0.0
C3969 C 0.31787 0.69471 0.74994 0.0
C3970 C 0.29271 0.70688 0.77481 0.0
C3971 C 0.2865 0.72178 0.77604 0.0
C3972 C 0.27285 0.72341 0.76617 0.0
C3973 C 0.26523 0.70956 0.75546 0.0
C3974 C 0.27148 0.69464 0.75424 0.0
H3975 H 0.32768 0.69219 0.74198 0.0
H3976 H 0.30976 0.70164 0.7433 0.0
H3977 H 0.32353 0.70296 0.76087 0.0
H3978 H 0.30337 0.70601 0.78237 0.0
H3979 H 0.29261 0.73212 0.78452 0.0
H3980 H 0.19857 0.56246 0.4947 0.0
H3981 H 0.17149 0.54482 0.49317 0.0
H3982 H 0.15343 0.58415 0.52133 0.0
H3983 H 0.18018 0.60189 0.52274 0.0
H3984 H 0.1488 0.53758 0.52385 0.0
H3985 H 0.12677 0.57063 0.47341 0.0
H3986 H 0.14788 0.56914 0.47691 0.0
H3987 H 0.13898 0.58355 0.48985 0.0
C3988 C 0.18881 0.56731 0.50058 0.0
C3989 C 0.19148 0.58356 0.50883 0.0
C3990 C 0.17344 0.55719 0.49979 0.0
C3991 C 0.1606 0.56328 0.50713 0.0
C3992 C 0.16329 0.5793 0.51564 0.0
H3993 H 0.06566 0.5373 0.53565 0.0
H3994 H 0.09495 0.54235 0.53346 0.0
C3995 C 0.17859 0.58936 0.51649 0.0
C3996 C 0.14404 0.55347 0.50535 0.0
H3997 H 0.10682 0.55406 0.48745 0.0
C3998 C 0.13962 0.54089 0.5157 0.0
C3999 C 0.13224 0.55777 0.49456 0.0
C4000 C 0.13664 0.57093 0.48293 0.0
C4001 C 0.12337 0.5331 0.51616 0.0
C4002 C 0.11137 0.53829 0.50619 0.0
C4003 C 0.11602 0.55015 0.49514 0.0
C4004 C 0.09383 0.5329 0.508 0.0
C4005 C 0.11916 0.51966 0.52753 0.0
C4006 C 0.08346 0.52601 0.49437 0.0
C4007 C 0.06668 0.52331 0.49552 0.0
C4008 C 0.05997 0.52754 0.51032 0.0
C4009 C 0.07041 0.53389 0.52408 0.0
C4010 C 0.08719 0.53662 0.5229 0.0
H4011 H 0.12958 0.51324 0.5299 0.0
H4012 H 0.11611 0.52553 0.53938 0.0
H4013 H 0.10857 0.51013 0.52252 0.0
H4014 H 0.08836 0.52317 0.48273 0.0
H4015 H 0.05898 0.5183 0.4847 0.0
H4016 H 0.69392 0.96065 0.78495 0.0
H4017 H 0.71477 0.94309 0.78723 0.0
H4018 H 0.68531 0.90393 0.75476 0.0
H4019 H 0.66432 0.92129 0.75255 0.0
H4020 H 0.69867 0.89477 0.78628 0.0
H4021 H 0.74427 0.93006 0.74907 0.0
H4022 H 0.73513 0.94171 0.76459 0.0
H4023 H 0.72298 0.93128 0.74703 0.0
C4024 C 0.69185 0.94824 0.77841 0.0
C4025 C 0.67751 0.94228 0.76859 0.0
C4026 C 0.70381 0.93834 0.7796 0.0
C4027 C 0.70156 0.92237 0.77103 0.0
C4028 C 0.68723 0.91631 0.76136 0.0
H4029 H 0.75071 0.84398 0.74351 0.0
H4030 H 0.73916 0.8697 0.74555 0.0
C4031 C 0.67531 0.92623 0.76008 0.0
C4032 C 0.71391 0.91164 0.77241 0.0
H4033 H 0.75059 0.90553 0.75913 0.0
C4034 C 0.71013 0.89719 0.78056 0.0
C4035 C 0.72876 0.91496 0.76486 0.0
C4036 C 0.73312 0.93029 0.7558 0.0
C4037 C 0.72065 0.8856 0.78094 0.0
C4038 C 0.73537 0.8887 0.77308 0.0
C4039 C 0.73936 0.90338 0.76528 0.0
C4040 C 0.74566 0.87576 0.77131 0.0
C4041 C 0.71562 0.86973 0.78907 0.0
C4042 C 0.75377 0.87122 0.78499 0.0
C4043 C 0.76035 0.85654 0.78386 0.0
C4044 C 0.75883 0.84629 0.76905 0.0
C4045 C 0.75193 0.85164 0.75509 0.0
C4046 C 0.74539 0.86633 0.75621 0.0
H4047 H 0.70286 0.86824 0.79262 0.0
H4048 H 0.71696 0.85854 0.78083 0.0
H4049 H 0.72359 0.87003 0.80023 0.0
H4050 H 0.75414 0.87848 0.79671 0.0
H4051 H 0.76571 0.85269 0.79477 0.0
H4052 H 0.68509 0.95071 0.55057 0.0
H4053 H 0.66177 0.96524 0.55061 0.0
H4054 H 0.64923 0.94639 0.50035 0.0
H4055 H 0.67217 0.93152 0.50031 0.0
H4056 H 0.65427 0.9898 0.53042 0.0
H4057 H 0.60708 0.9323 0.52308 0.0
H4058 H 0.62797 0.93201 0.52914 0.0
H4059 H 0.62194 0.93264 0.50805 0.0
C4060 C 0.67727 0.94954 0.53957 0.0
C4061 C 0.68045 0.9399 0.52545 0.0
C4062 C 0.66403 0.95793 0.53959 0.0
C4063 C 0.65366 0.95669 0.52556 0.0
C4064 C 0.65694 0.94729 0.51139 0.0
H4065 H 0.57027 0.99448 0.49194 0.0
H4066 H 0.59469 0.98223 0.49566 0.0
C4067 C 0.67016 0.93895 0.51134 0.0
C4068 C 0.63944 0.96527 0.52558 0.0
H4069 H 0.59827 0.95803 0.51882 0.0
C4070 C 0.642 0.98288 0.52807 0.0
C4071 C 0.62345 0.95618 0.52259 0.0
C4072 C 0.61988 0.93723 0.52072 0.0
C4073 C 0.62901 0.99167 0.52697 0.0
C4074 C 0.6131 0.98257 0.52347 0.0
C4075 C 0.61051 0.96497 0.5214 0.0
C4076 C 0.59897 0.99102 0.52126 0.0
C4077 C 0.63241 0.01061 0.52899 0.0
C4078 C 0.59334 8e-05 0.53443 0.0
C4079 C 0.57933 0.00707 0.53235 0.0
C4080 C 0.57079 0.00507 0.51706 0.0
C4081 C 0.57664 0.99625 0.50385 0.0
C4082 C 0.59056 0.98923 0.50595 0.0
H4083 H 0.64556 0.01577 0.5289 0.0
H4084 H 0.62584 0.01568 0.51913 0.0
H4085 H 0.62802 0.01512 0.54078 0.0
H4086 H 0.59955 0.0014 0.54639 0.0
H4087 H 0.57502 0.01374 0.54274 0.0
H4088 H 0.334 0.44545 0.72409 0.0
H4089 H 0.3191 0.41692 0.72569 0.0
H4090 H 0.32486 0.4243 0.77814 0.0
H4091 H 0.33964 0.45287 0.77667 0.0
H4092 H 0.33087 0.38995 0.74294 0.0
H4093 H 0.27463 0.4089 0.76584 0.0
H4094 H 0.28917 0.42271 0.75548 0.0
H4095 H 0.29349 0.41925 0.77627 0.0
C4096 C 0.33198 0.44102 0.73595 0.0
C4097 C 0.33794 0.45138 0.75025 0.0
C4098 C 0.32357 0.42473 0.73684 0.0
C4099 C 0.32084 0.41862 0.75202 0.0
C4100 C 0.32679 0.42888 0.76632 0.0
H4101 H 0.28681 0.31701 0.77617 0.0
H4102 H 0.30267 0.34492 0.77373 0.0
C4103 C 0.33529 0.44512 0.76545 0.0
C4104 C 0.31174 0.40148 0.75293 0.0
H4105 H 0.27601 0.38 0.76431 0.0
C4106 C 0.31888 0.38772 0.74759 0.0
C4107 C 0.29607 0.39872 0.75891 0.0
C4108 C 0.28777 0.41313 0.76437 0.0
C4109 C 0.31077 0.37118 0.74826 0.0
C4110 C 0.29519 0.36843 0.75447 0.0
C4111 C 0.288 0.3822 0.75963 0.0
C4112 C 0.28602 0.35133 0.75553 0.0
C4113 C 0.31879 0.35677 0.74213 0.0
C4114 C 0.27137 0.34582 0.74621 0.0
C4115 C 0.26233 0.32991 0.74756 0.0
C4116 C 0.26774 0.31935 0.75836 0.0
C4117 C 0.28243 0.32488 0.76768 0.0
C4118 C 0.29151 0.34077 0.76626 0.0
H4119 H 0.32918 0.36095 0.73469 0.0
H4120 H 0.32338 0.351 0.75268 0.0
H4121 H 0.30995 0.34693 0.73468 0.0
H4122 H 0.26692 0.35385 0.73791 0.0
H4123 H 0.25104 0.32596 0.74025 0.0
H4124 H 0.19548 0.5811 0.28045 0.0
H4125 H 0.21414 0.60787 0.27985 0.0
H4126 H 0.17915 0.62543 0.24896 0.0
H4127 H 0.16038 0.59883 0.24956 0.0
H4128 H 0.22312 0.62504 0.24576 0.0
H4129 H 0.19428 0.65943 0.29454 0.0
H4130 H 0.19392 0.63706 0.29372 0.0
H4131 H 0.18131 0.64523 0.27948 0.0
C4132 C 0.19174 0.59073 0.27363 0.0
C4133 C 0.17649 0.58794 0.26507 0.0
C4134 C 0.20244 0.60589 0.27319 0.0
C4135 C 0.19795 0.61845 0.26431 0.0
C4136 C 0.18276 0.61575 0.25579 0.0
H4137 H 0.23995 0.71334 0.23418 0.0
H4138 H 0.22889 0.68358 0.23524 0.0
C4139 C 0.17211 0.60059 0.25614 0.0
C4140 C 0.20888 0.63466 0.26423 0.0
H4141 H 0.2143 0.67541 0.2804 0.0
C4142 C 0.22135 0.63607 0.2534 0.0
C4143 C 0.20649 0.64885 0.27432 0.0
C4144 C 0.19334 0.6477 0.28627 0.0
C4145 C 0.23132 0.65161 0.25211 0.0
C4146 C 0.22855 0.66595 0.26181 0.0
C4147 C 0.21636 0.66436 0.27297 0.0
C4148 C 0.23758 0.68295 0.26022 0.0
C4149 C 0.24467 0.6526 0.2404 0.0
C4150 C 0.24627 0.69233 0.27386 0.0
C4151 C 0.25249 0.70932 0.27335 0.0
C4152 C 0.25002 0.71726 0.2592 0.0
C4153 C 0.24206 0.7076 0.24526 0.0
C4154 C 0.23582 0.69057 0.2458 0.0
H4155 H 0.24791 0.64008 0.2371 0.0
H4156 H 0.24054 0.65739 0.22905 0.0
H4157 H 0.2557 0.66137 0.24567 0.0
H4158 H 0.24771 0.68665 0.2851 0.0
H4159 H 0.25872 0.71634 0.28426 0.0
H4160 H 0.48146 0.69476 0.45279 0.0
H4161 H 0.48212 0.67215 0.47046 0.0
H4162 H 0.52532 0.66096 0.44878 0.0
H4163 H 0.52458 0.68317 0.43083 0.0
H4164 H 0.48193 0.63723 0.45916 0.0
H4165 H 0.53656 0.66567 0.49899 0.0
H4166 H 0.52512 0.67794 0.48728 0.0
H4167 H 0.53911 0.66642 0.47754 0.0
C4168 C 0.49105 0.68741 0.45171 0.0
C4169 C 0.503 0.69078 0.44043 0.0
C4170 C 0.49147 0.67463 0.46191 0.0
C4171 C 0.50394 0.66516 0.46109 0.0
C4172 C 0.51583 0.66843 0.44983 0.0
H4173 H 0.53232 0.57783 0.4934 0.0
H4174 H 0.53031 0.60519 0.48416 0.0
C4175 C 0.51538 0.68112 0.43959 0.0
C4176 C 0.50406 0.65112 0.47124 0.0
H4177 H 0.52738 0.63619 0.49945 0.0
C4178 C 0.4917 0.63704 0.46818 0.0
C4179 C 0.51687 0.65103 0.48291 0.0
C4180 C 0.53012 0.66612 0.48702 0.0
C4181 C 0.49225 0.62243 0.47588 0.0
C4182 C 0.50533 0.62214 0.48724 0.0
C4183 C 0.51738 0.63647 0.49074 0.0
C4184 C 0.50732 0.60663 0.49462 0.0
C4185 C 0.47928 0.60719 0.47113 0.0
C4186 C 0.49535 0.59869 0.50407 0.0
C4187 C 0.49637 0.58297 0.50921 0.0
C4188 C 0.50952 0.57507 0.50519 0.0
C4189 C 0.52202 0.58356 0.49665 0.0
C4190 C 0.52089 0.5992 0.49137 0.0
H4191 H 0.47229 0.60835 0.45966 0.0
H4192 H 0.48466 0.59563 0.46951 0.0
H4193 H 0.47065 0.6057 0.48092 0.0
H4194 H 0.48499 0.60444 0.50706 0.0
H4195 H 0.48667 0.57686 0.51601 0.0
H4196 H 0.61105 0.30206 0.66801 0.0
H4197 H 0.63795 0.3005 0.68003 0.0
H4198 H 0.61563 0.27305 0.718 0.0
H4199 H 0.58879 0.27419 0.70581 0.0
H4200 H 0.65317 0.3118 0.70875 0.0
H4201 H 0.64562 0.24259 0.70189 0.0
H4202 H 0.63156 0.25371 0.69222 0.0
H4203 H 0.62978 0.2494 0.71318 0.0
C4204 C 0.61193 0.29578 0.67898 0.0
C4205 C 0.59787 0.28813 0.68593 0.0
C4206 C 0.62728 0.29483 0.68578 0.0
C4207 C 0.62881 0.28628 0.69967 0.0
C4208 C 0.61476 0.27921 0.70697 0.0
H4209 H 0.70811 0.29771 0.77086 0.0
H4210 H 0.68449 0.30002 0.75342 0.0
C4211 C 0.59944 0.27997 0.70007 0.0
C4212 C 0.64505 0.285 0.7068 0.0
H4213 H 0.66708 0.25708 0.72094 0.0
C4214 C 0.65629 0.29982 0.71124 0.0
C4215 C 0.64934 0.26935 0.70964 0.0
C4216 C 0.6385 0.25286 0.7038 0.0
C4217 C 0.67136 0.29946 0.71919 0.0
C4218 C 0.67505 0.28392 0.72328 0.0
C4219 C 0.66415 0.26904 0.71809 0.0
C4220 C 0.68972 0.28283 0.73359 0.0
C4221 C 0.68315 0.31576 0.72305 0.0
C4222 C 0.70022 0.27189 0.72855 0.0
C4223 C 0.71352 0.27024 0.73872 0.0
C4224 C 0.71662 0.27959 0.75401 0.0
C4225 C 0.70609 0.29047 0.75905 0.0
C4226 C 0.69269 0.29195 0.74901 0.0
H4227 H 0.68124 0.32495 0.71425 0.0
H4228 H 0.68116 0.32141 0.73537 0.0
H4229 H 0.69591 0.31379 0.72281 0.0
H4230 H 0.69806 0.26456 0.7168 0.0
H4231 H 0.72125 0.2615 0.7347 0.0
H4232 H 0.97002 0.33161 0.95265 0.0
H4233 H 0.96531 0.35668 0.9692 0.0
H4234 H 0.0166 0.37629 0.97259 0.0
H4235 H 0.02144 0.35147 0.95575 0.0
H4236 H 0.99261 0.37802 0.00405 0.0
H4237 H 0.97848 0.40471 0.94616 0.0
H4238 H 0.97115 0.38289 0.94857 0.0
H4239 H 0.99237 0.39006 0.94676 0.0
C4240 C 0.98032 0.34121 0.95701 0.0
C4241 C 0.99609 0.33969 0.9527 0.0
C4242 C 0.9776 0.35541 0.96657 0.0
C4243 C 0.99062 0.36822 0.97204 0.0
C4244 C 0.00645 0.36639 0.96852 0.0
H4245 H 0.01778 0.4656 0.01774 0.0
H4246 H 0.01235 0.43535 0.01108 0.0
C4247 C 0.00918 0.35222 0.95893 0.0
C4248 C 0.98764 0.38436 0.97979 0.0
H4249 H 0.98064 0.42255 0.97033 0.0
C4250 C 0.98977 0.38773 0.99677 0.0
C4251 C 0.98372 0.39681 0.9702 0.0
C4252 C 0.98127 0.39358 0.95189 0.0
C4253 C 0.98868 0.40362 0.00439 0.0
C4254 C 0.98578 0.41645 0.99469 0.0
C4255 C 0.98283 0.41272 0.97777 0.0
C4256 C 0.98776 0.43427 0.00134 0.0
C4257 C 0.99087 0.40657 0.02272 0.0
C4258 C 0.97573 0.44381 0.9981 0.0
C4259 C 0.97889 0.46127 0.0017 0.0
C4260 C 0.99419 0.46945 0.00845 0.0
C4261 C 0.00589 0.45974 0.01244 0.0
C4262 C 0.00273 0.44236 0.00883 0.0
H4263 H 0.98686 0.39478 0.02842 0.0
H4264 H 0.00393 0.41092 0.02632 0.0
H4265 H 0.98401 0.41624 0.02762 0.0
H4266 H 0.96412 0.43781 0.9922 0.0
H4267 H 0.9696 0.46837 0.99851 0.0
H4268 H 0.94614 0.76031 0.20431 0.0
H4269 H 0.92214 0.76214 0.21986 0.0
H4270 H 0.91746 0.80845 0.19985 0.0
H4271 H 0.94126 0.80663 0.18413 0.0
H4272 H 0.9164 0.79106 0.24315 0.0
H4273 H 0.8728 0.77543 0.18891 0.0
H4274 H 0.89294 0.77038 0.18898 0.0
H4275 H 0.89011 0.79157 0.18726 0.0
C4276 C 0.93995 0.77084 0.20318 0.0
C4277 C 0.94557 0.78331 0.19297 0.0
C4278 C 0.92634 0.77192 0.21215 0.0
C4279 C 0.91803 0.78537 0.2109 0.0
C4280 C 0.92369 0.79793 0.20089 0.0
H4281 H 0.82597 0.80547 0.24359 0.0
H4282 H 0.85287 0.80799 0.23274 0.0
C4283 C 0.93734 0.79692 0.19201 0.0
C4284 C 0.90319 0.78614 0.21978 0.0
H4285 H 0.86225 0.78305 0.21391 0.0
C4286 C 0.90454 0.7893 0.23682 0.0
C4287 C 0.8878 0.78388 0.21142 0.0
C4288 C 0.88569 0.78 0.19314 0.0
C4289 C 0.89082 0.79052 0.24574 0.0
C4290 C 0.87537 0.78816 0.23738 0.0
C4291 C 0.8741 0.78498 0.22031 0.0
C4292 C 0.86021 0.78839 0.24595 0.0
C4293 C 0.89306 0.79467 0.26397 0.0
C4294 C 0.85554 0.77684 0.2573 0.0
C4295 C 0.84023 0.77551 0.26365 0.0
C4296 C 0.82927 0.78554 0.25853 0.0
C4297 C 0.83419 0.79758 0.24772 0.0
C4298 C 0.84954 0.799 0.24149 0.0
H4299 H 0.90564 0.80109 0.26776 0.0
H4300 H 0.88451 0.80282 0.26842 0.0
H4301 H 0.89072 0.78287 0.26996 0.0
H4302 H 0.8634 0.76827 0.26066 0.0
H4303 H 0.83666 0.76603 0.27186 0.0
H4304 H 0.52769 0.34811 0.07026 0.0
H4305 H 0.5291 0.37202 0.05388 0.0
H4306 H 0.48394 0.38214 0.07197 0.0
H4307 H 0.48224 0.35798 0.0879 0.0
H4308 H 0.48522 0.38628 0.0401 0.0
H4309 H 0.54231 0.41974 0.07344 0.0
H4310 H 0.54375 0.39966 0.06324 0.0
H4311 H 0.53077 0.40089 0.07993 0.0
C4312 C 0.51806 0.35543 0.07065 0.0
C4313 C 0.50492 0.35131 0.08041 0.0
C4314 C 0.51889 0.36909 0.06134 0.0
C4315 C 0.50679 0.37908 0.06196 0.0
C4316 C 0.49342 0.37463 0.07132 0.0
H4317 H 0.51077 0.48221 0.05182 0.0
H4318 H 0.51069 0.45394 0.05934 0.0
C4319 C 0.49246 0.36084 0.08041 0.0
C4320 C 0.50825 0.3946 0.0535 0.0
H4321 H 0.53153 0.43334 0.0527 0.0
C4322 C 0.49539 0.39656 0.04275 0.0
C4323 C 0.52149 0.40801 0.05707 0.0
C4324 C 0.5353 0.40709 0.06915 0.0
C4325 C 0.49513 0.41176 0.03593 0.0
C4326 C 0.50832 0.4252 0.03963 0.0
C4327 C 0.52146 0.42299 0.04985 0.0
C4328 C 0.50807 0.44222 0.03453 0.0
C4329 C 0.48038 0.41354 0.02554 0.0
C4330 C 0.5066 0.4451 0.01804 0.0
C4331 C 0.50641 0.46135 0.01367 0.0
C4332 C 0.50802 0.47499 0.02573 0.0
C4333 C 0.50963 0.47203 0.0422 0.0
C4334 C 0.50959 0.45584 0.04653 0.0
H4335 H 0.46991 0.40343 0.02689 0.0
H4336 H 0.47671 0.42587 0.02872 0.0
H4337 H 0.48328 0.4128 0.01254 0.0
H4338 H 0.50576 0.43483 0.00855 0.0
H4339 H 0.50528 0.46327 0.00088 0.0
H4340 H 0.94679 0.25355 0.31034 0.0
H4341 H 0.92349 0.26288 0.29733 0.0
H4342 H 0.90818 0.27843 0.3446 0.0
H4343 H 0.93159 0.2698 0.35762 0.0
H4344 H 0.89063 0.25257 0.30093 0.0
H4345 H 0.90908 0.32042 0.3208 0.0
H4346 H 0.92288 0.30572 0.32186 0.0
H4347 H 0.90874 0.30755 0.33741 0.0
C4348 C 0.93849 0.25903 0.31794 0.0
C4349 C 0.94104 0.26091 0.33501 0.0
C4350 C 0.9252 0.26432 0.3105 0.0
C4351 C 0.91436 0.27168 0.32002 0.0
C4352 C 0.91663 0.27314 0.33704 0.0
H4353 H 0.82041 0.29707 0.30934 0.0
H4354 H 0.84792 0.29427 0.31856 0.0
C4355 C 0.92988 0.26791 0.34446 0.0
C4356 C 0.90031 0.27738 0.31229 0.0
H4357 H 0.88132 0.31124 0.31096 0.0
C4358 C 0.88869 0.26544 0.3029 0.0
C4359 C 0.89788 0.2942 0.3149 0.0
C4360 C 0.91039 0.30775 0.32416 0.0
C4361 C 0.87432 0.26971 0.29662 0.0
C4362 C 0.87166 0.2864 0.29969 0.0
C4363 C 0.88345 0.29846 0.30871 0.0
C4364 C 0.85627 0.29119 0.29423 0.0
C4365 C 0.86179 0.25622 0.28729 0.0
C4366 C 0.85223 0.29116 0.27757 0.0
C4367 C 0.83659 0.29278 0.2723 0.0
C4368 C 0.82483 0.29445 0.28364 0.0
C4369 C 0.82927 0.29577 0.30037 0.0
C4370 C 0.84493 0.29416 0.30563 0.0
H4371 H 0.86455 0.24344 0.28833 0.0
H4372 H 0.84956 0.25666 0.29174 0.0
H4373 H 0.86142 0.25839 0.2742 0.0
H4374 H 0.86093 0.28906 0.26864 0.0
H4375 H 0.83348 0.2918 0.25933 0.0
H4376 H 0.00311 0.70268 0.56647 0.0
H4377 H 0.005 0.67455 0.55435 0.0
H4378 H 0.98737 0.65353 0.59773 0.0
H4379 H 0.98547 0.68165 0.60997 0.0
H4380 H 0.02354 0.65223 0.5663 0.0
H4381 H 0.95777 0.625 0.56098 0.0
H4382 H 0.96519 0.6473 0.56466 0.0
H4383 H 0.96564 0.63412 0.58098 0.0
C4384 C -0.00039 0.69206 0.57342 0.0
C4385 C 0.99408 0.69437 0.58915 0.0
C4386 C 0.00068 0.67602 0.56648 0.0
C4387 C 0.9962 0.66197 0.5751 0.0
C4388 C 0.99061 0.66418 0.59077 0.0
H4389 H 0.02177 0.56433 0.54132 0.0
H4390 H 0.01948 0.58986 0.55871 0.0
C4391 C 0.98949 0.68024 0.59772 0.0
C4392 C 0.99774 0.64509 0.5677 0.0
H4393 H 0.97581 0.60682 0.55331 0.0
C4394 C 0.01313 0.64225 0.56351 0.0
C4395 C 0.98411 0.63217 0.56407 0.0
C4396 C 0.96721 0.63476 0.56776 0.0
C4397 C 0.01524 0.62691 0.55542 0.0
C4398 C 0.00159 0.61398 0.55173 0.0
C4399 C 0.98626 0.61672 0.55626 0.0
C4400 C 0.00267 0.59812 0.54185 0.0
C4401 C 0.03192 0.62494 0.55031 0.0
C4402 C 0.99364 0.59406 0.52688 0.0
C4403 C 0.99471 0.57942 0.51715 0.0
C4404 C 0.00487 0.56856 0.52217 0.0
C4405 C 0.01382 0.57249 0.53722 0.0
C4406 C 0.01263 0.58712 0.54707 0.0
H4407 H 0.04027 0.63722 0.55088 0.0
H4408 H 0.03719 0.61701 0.55863 0.0
H4409 H 0.03131 0.61871 0.53772 0.0
H4410 H 0.98588 0.60236 0.52262 0.0
H4411 H 0.98764 0.57668 0.50562 0.0
H4412 H 0.59598 0.79405 0.83852 0.0
H4413 H 0.61937 0.79634 0.82162 0.0
H4414 H 0.61698 0.74269 0.81939 0.0
H4415 H 0.59354 0.74031 0.8362 0.0
H4416 H 0.64852 0.78759 0.82922 0.0
H4417 H 0.62093 0.75125 0.77182 0.0
H4418 H 0.60894 0.75857 0.78767 0.0
H4419 H 0.61742 0.73986 0.78937 0.0
C4420 C 0.60045 0.78275 0.8344 0.0
C4421 C 0.59298 0.767 0.83869 0.0
C4422 C 0.61372 0.78406 0.82467 0.0
C4423 C 0.61972 0.76966 0.81903 0.0
C4424 C 0.61226 0.75391 0.82325 0.0
H4425 H 0.70591 0.74678 0.77803 0.0
H4426 H 0.67892 0.74662 0.78803 0.0
C4427 C 0.59894 0.75257 0.83291 0.0
C4428 C 0.63452 0.77123 0.80977 0.0
H4429 H 0.64997 0.7569 0.77473 0.0
C4430 C 0.6488 0.78107 0.81721 0.0
C4431 C 0.63481 0.76269 0.79412 0.0
C4432 C 0.61966 0.75263 0.7852 0.0
C4433 C 0.66354 0.78211 0.80968 0.0
C4434 C 0.66391 0.77324 0.79421 0.0
C4435 C 0.64959 0.76367 0.7866 0.0
C4436 C 0.67931 0.77308 0.78624 0.0
C4437 C 0.6787 0.79216 0.81862 0.0
C4438 C 0.68818 0.78792 0.78143 0.0
C4439 C 0.70364 0.7881 0.77576 0.0
C4440 C 0.71044 0.77339 0.77476 0.0
C4441 C 0.7011 0.75834 0.77874 0.0
C4442 C 0.68565 0.7582 0.78442 0.0
H4443 H 0.67688 0.79545 0.83168 0.0
H4444 H 0.68889 0.78509 0.81783 0.0
H4445 H 0.68226 0.80402 0.81292 0.0
H4446 H 0.68333 0.79947 0.78252 0.0
H4447 H 0.71042 0.79987 0.77264 0.0
H4448 H 0.45454 0.55893 0.68343 0.0
H4449 H 0.46985 0.55969 0.65897 0.0
H4450 H 0.42709 0.53421 0.63018 0.0
H4451 H 0.41142 0.53437 0.65435 0.0
H4452 H 0.47638 0.53404 0.63986 0.0
H4453 H 0.44227 0.57136 0.60269 0.0
H4454 H 0.43938 0.56987 0.62408 0.0
H4455 H 0.4294 0.55342 0.6091 0.0
C4456 C 0.44826 0.55386 0.67185 0.0
C4457 C 0.43169 0.54666 0.6709 0.0
C4458 C 0.45708 0.55418 0.65789 0.0
C4459 C 0.44956 0.54727 0.64269 0.0
C4460 C 0.43306 0.54001 0.64169 0.0
H4461 H 0.4828 0.51548 0.55026 0.0
H4462 H 0.4681 0.52026 0.57472 0.0
C4463 C 0.42418 0.53986 0.65561 0.0
C4464 C 0.45921 0.54673 0.62808 0.0
H4465 H 0.46033 0.55604 0.58853 0.0
C4466 C 0.47298 0.53906 0.62872 0.0
C4467 C 0.45479 0.55331 0.61354 0.0
C4468 C 0.44075 0.5626 0.61234 0.0
C4469 C 0.48214 0.53735 0.61507 0.0
C4470 C 0.4774 0.54344 0.60045 0.0
C4471 C 0.46384 0.55135 0.59981 0.0
C4472 C 0.4861 0.54112 0.58552 0.0
C4473 C 0.49662 0.52868 0.61615 0.0
C4474 C 0.501 0.5514 0.58355 0.0
C4475 C 0.50937 0.5488 0.56953 0.0
C4476 C 0.50294 0.53584 0.55738 0.0
C4477 C 0.48798 0.52563 0.5594 0.0
C4478 C 0.47958 0.52832 0.57333 0.0
H4479 H 0.498 0.52353 0.62806 0.0
H4480 H 0.49548 0.51827 0.60625 0.0
H4481 H 0.5078 0.53774 0.61445 0.0
H4482 H 0.50616 0.56135 0.59288 0.0
H4483 H 0.52088 0.55684 0.56825 0.0
H4484 H 0.74979 0.20067 0.94018 0.0
H4485 H 0.74988 0.21879 0.91809 0.0
H4486 H 0.801 0.23726 0.92868 0.0
H4487 H 0.80103 0.21892 0.95077 0.0
H4488 H 0.75798 0.2534 0.9187 0.0
H4489 H 0.79862 0.2214 0.88028 0.0
H4490 H 0.78945 0.21241 0.89759 0.0
H4491 H 0.80665 0.22918 0.90058 0.0
C4492 C 0.76104 0.20865 0.93786 0.0
C4493 C 0.77542 0.20837 0.94714 0.0
C4494 C 0.76107 0.21898 0.92524 0.0
C4495 C 0.77547 0.22923 0.92166 0.0
C4496 C 0.78982 0.2292 0.93106 0.0
H4497 H 0.7872 0.28577 0.83598 0.0
H4498 H 0.79213 0.27798 0.86358 0.0
C4499 C 0.78983 0.21874 0.94364 0.0
C4500 C 0.77529 0.23969 0.90788 0.0
H4501 H 0.78878 0.24392 0.86982 0.0
C4502 C 0.76484 0.25146 0.90807 0.0
C4503 C 0.7843 0.23716 0.89407 0.0
C4504 C 0.7953 0.22427 0.89297 0.0
C4505 C 0.76279 0.26043 0.89459 0.0
C4506 C 0.77131 0.25741 0.88057 0.0
C4507 C 0.78232 0.24622 0.88066 0.0
C4508 C 0.7678 0.26427 0.86508 0.0
C4509 C 0.75131 0.27283 0.89534 0.0
C4510 C 0.75245 0.25928 0.85693 0.0
C4511 C 0.74965 0.26362 0.84121 0.0
C4512 C 0.76216 0.27301 0.8334 0.0
C4513 C 0.77733 0.2786 0.8418 0.0
C4514 C 0.78017 0.27415 0.85752 0.0
H4515 H 0.74958 0.27738 0.90813 0.0
H4516 H 0.7558 0.28379 0.88861 0.0
H4517 H 0.73931 0.2666 0.88963 0.0
H4518 H 0.74285 0.25136 0.86243 0.0
H4519 H 0.73787 0.2591 0.83494 0.0
H4520 H 0.06121 0.48101 0.17763 0.0
H4521 H 0.04731 0.48251 0.15125 0.0
H4522 H 0.08819 0.51785 0.13832 0.0
H4523 H 0.10237 0.51607 0.16448 0.0
H4524 H 0.03938 0.51214 0.14062 0.0
H4525 H 0.07855 0.48374 0.09776 0.0
H4526 H 0.07917 0.48101 0.11925 0.0
H4527 H 0.08921 0.50022 0.11222 0.0
C4528 C 0.06738 0.48882 0.16903 0.0
C4529 C 0.08288 0.49842 0.17311 0.0
C4530 C 0.05939 0.48973 0.15402 0.0
C4531 C 0.06681 0.50014 0.14281 0.0
C4532 C 0.08239 0.50952 0.14671 0.0
H4533 H 0.0365 0.53372 0.05192 0.0
H4534 H 0.05121 0.52845 0.07669 0.0
C4535 C 0.09038 0.50863 0.16172 0.0
C4536 C 0.05779 0.50213 0.12755 0.0
H4537 H 0.05872 0.49763 0.08612 0.0
C4538 C 0.04351 0.50883 0.12869 0.0
C4539 C 0.06333 0.49791 0.11206 0.0
C4540 C 0.07833 0.49018 0.11017 0.0
C4541 C 0.03473 0.51175 0.11471 0.0
C4542 C 0.04027 0.50755 0.09921 0.0
C4543 C 0.05453 0.5008 0.09805 0.0
C4544 C 0.03151 0.51029 0.08406 0.0
C4545 C 0.01986 0.51972 0.11663 0.0
C4546 C 0.01567 0.50163 0.07996 0.0
C4547 C 0.00728 0.50459 0.06583 0.0
C4548 C 0.01468 0.51614 0.05556 0.0
C4549 C 0.0306 0.52463 0.05957 0.0
C4550 C 0.03899 0.52167 0.0737 0.0
H4551 H 0.01949 0.52579 0.12918 0.0
H4552 H 0.0194 0.52927 0.10788 0.0
H4553 H 0.00886 0.50989 0.11412 0.0
H4554 H 0.00982 0.4926 0.0877 0.0
H4555 H 0.99504 0.49782 0.06292 0.0
H4556 H 0.73202 0.80799 0.45095 0.0
H4557 H 0.73621 0.79343 0.42453 0.0
H4558 H 0.75883 0.84044 0.40838 0.0
H4559 H 0.75509 0.85499 0.43467 0.0
H4560 H 0.73285 0.82032 0.38683 0.0
H4561 H 0.78069 0.78506 0.40598 0.0
H4562 H 0.76293 0.78381 0.41762 0.0
H4563 H 0.77664 0.80342 0.41798 0.0
C4564 C 0.73802 0.8152 0.44182 0.0
C4565 C 0.74308 0.8327 0.44489 0.0
C4566 C 0.74041 0.80686 0.42677 0.0
C4567 C 0.74792 0.81588 0.4146 0.0
C4568 C 0.753 0.83328 0.41764 0.0
H4569 H 0.7851 0.79273 0.32119 0.0
H4570 H 0.78193 0.80079 0.35007 0.0
C4571 C 0.75069 0.84159 0.43263 0.0
C4572 C 0.74997 0.8075 0.39838 0.0
H4573 H 0.7718 0.78128 0.37811 0.0
C4574 C 0.74127 0.81169 0.38491 0.0
C4575 C 0.7611 0.7964 0.39599 0.0
C4576 C 0.771 0.79191 0.4101 0.0
C4577 C 0.74347 0.80516 0.36904 0.0
C4578 C 0.75456 0.79402 0.36661 0.0
C4579 C 0.76326 0.78976 0.38007 0.0
C4580 C 0.75741 0.78707 0.35003 0.0
C4581 C 0.7342 0.81056 0.35494 0.0
C4582 C 0.74489 0.77622 0.3407 0.0
C4583 C 0.74661 0.77168 0.32426 0.0
C4584 C 0.76094 0.77783 0.31684 0.0
C4585 C 0.77389 0.78782 0.32651 0.0
C4586 C 0.77212 0.79243 0.343 0.0
H4587 H 0.72872 0.82174 0.35861 0.0
H4588 H 0.74223 0.81352 0.34486 0.0
H4589 H 0.72426 0.80015 0.35021 0.0
H4590 H 0.73353 0.77179 0.34599 0.0
H4591 H 0.73647 0.76375 0.31725 0.0
H4592 H 0.45994 0.53568 0.81809 0.0
H4593 H 0.46965 0.52661 0.8437 0.0
H4594 H 0.42488 0.53319 0.865 0.0
H4595 H 0.41483 0.54159 0.83938 0.0
H4596 H 0.47407 0.54257 0.87515 0.0
H4597 H 0.42766 0.48467 0.87216 0.0
H4598 H 0.4315 0.49669 0.85492 0.0
H4599 H 0.41912 0.5033 0.87063 0.0
C4600 C 0.45215 0.53517 0.82823 0.0
C4601 C 0.43656 0.53926 0.82664 0.0
C4602 C 0.45774 0.53003 0.84284 0.0
C4603 C 0.44781 0.52884 0.85608 0.0
C4604 C 0.43257 0.53363 0.85479 0.0
H4605 H 0.45551 0.51332 0.95655 0.0
H4606 H 0.44653 0.51604 0.92843 0.0
C4607 C 0.42696 0.53871 0.8402 0.0
C4608 C 0.45335 0.52264 0.87131 0.0
H4609 H 0.44281 0.49302 0.89769 0.0
C4610 C 0.46737 0.53162 0.87999 0.0
C4611 C 0.4446 0.50828 0.87752 0.0
C4612 C 0.42997 0.49757 0.86825 0.0
C4613 C 0.47251 0.52704 0.89509 0.0
C4614 C 0.46347 0.513 0.90153 0.0
C4615 C 0.44968 0.50377 0.89268 0.0
C4616 C 0.46765 0.50851 0.91794 0.0
C4617 C 0.48722 0.53761 0.90437 0.0
C4618 C 0.4821 0.50259 0.92117 0.0
C4619 C 0.4872 0.50092 0.9372 0.0
C4620 C 0.47792 0.50522 0.95017 0.0
C4621 C 0.46289 0.50996 0.94677 0.0
C4622 C 0.45777 0.51154 0.93074 0.0
H4623 H 0.49129 0.54954 0.89891 0.0
H4624 H 0.48461 0.54064 0.91726 0.0
H4625 H 0.49734 0.53044 0.90431 0.0
H4626 H 0.48976 0.5 0.91138 0.0
H4627 H 0.49884 0.49724 0.9395 0.0
H4628 H 0.76472 0.22303 0.08501 0.0
H4629 H 0.7626 0.23889 0.11122 0.0
H4630 H 0.74891 0.19253 0.13294 0.0
H4631 H 0.75166 0.17657 0.10703 0.0
H4632 H 0.73709 0.23942 0.13238 0.0
H4633 H 0.78922 0.21644 0.16084 0.0
H4634 H 0.78454 0.21391 0.13912 0.0
H4635 H 0.77338 0.19992 0.15201 0.0
C4636 C 0.76135 0.2162 0.09539 0.0
C4637 C 0.75859 0.19853 0.09399 0.0
C4638 C 0.75999 0.22529 0.1103 0.0
C4639 C 0.75586 0.21686 0.12404 0.0
C4640 C 0.75238 0.19925 0.12251 0.0
H4641 H 0.74691 0.24293 0.22554 0.0
H4642 H 0.74295 0.23055 0.19726 0.0
C4643 C 0.7538 0.19016 0.10765 0.0
C4644 C 0.75596 0.22642 0.14015 0.0
H4645 H 0.77404 0.23146 0.17854 0.0
C4646 C 0.74521 0.23778 0.14247 0.0
C4647 C 0.76672 0.22435 0.1532 0.0
C4648 C 0.77923 0.21313 0.15118 0.0
C4649 C 0.74462 0.24677 0.15772 0.0
C4650 C 0.75506 0.24428 0.17081 0.0
C4651 C 0.76597 0.23316 0.16842 0.0
C4652 C 0.75487 0.25287 0.18728 0.0
C4653 C 0.73271 0.25859 0.15994 0.0
C4654 C 0.76259 0.26962 0.19089 0.0
C4655 C 0.76494 0.27674 0.20707 0.0
C4656 C 0.75961 0.26713 0.21976 0.0
C4657 C 0.75113 0.25064 0.21598 0.0
C4658 C 0.74884 0.24355 0.19986 0.0
H4659 H 0.72447 0.25805 0.14891 0.0
H4660 H 0.72532 0.2555 0.17046 0.0
H4661 H 0.73942 0.27164 0.1627 0.0
H4662 H 0.76748 0.2769 0.18128 0.0
H4663 H 0.77151 0.28948 0.20968 0.0
H4664 H 0.08037 0.50934 0.34054 0.0
H4665 H 0.06234 0.51234 0.36261 0.0
H4666 H 0.02115 0.48898 0.33055 0.0
H4667 H 0.03922 0.48566 0.30826 0.0
H4668 H 0.02781 0.52797 0.357 0.0
H4669 H 0.02693 0.46432 0.37762 0.0
H4670 H 0.04493 0.47467 0.36898 0.0
H4671 H 0.02668 0.4678 0.35629 0.0
C4672 C 0.06751 0.50464 0.3382 0.0
C4673 C 0.06122 0.49712 0.32271 0.0
C4674 C 0.05724 0.50651 0.35076 0.0
C4675 C 0.04051 0.50089 0.3481 0.0
C4676 C 0.03407 0.49341 0.33271 0.0
H4677 H 0.98906 0.49847 0.43802 0.0
H4678 H 0.99254 0.49363 0.40873 0.0
C4679 C 0.04438 0.49155 0.32006 0.0
C4680 C 0.03007 0.50282 0.36174 0.0
H4681 H 0.01848 0.48463 0.39594 0.0
C4682 C 0.02537 0.5184 0.36537 0.0
C4683 C 0.02682 0.49021 0.37243 0.0
C4684 C 0.03151 0.47324 0.36872 0.0
C4685 C 0.01833 0.52206 0.38006 0.0
C4686 C 0.01642 0.50996 0.39148 0.0
C4687 C 0.02004 0.49394 0.38723 0.0
C4688 C 0.01271 0.51422 0.40855 0.0
C4689 C 0.01348 0.53902 0.38336 0.0
C4690 C 0.02283 0.52743 0.41813 0.0
C4691 C 0.02079 0.53027 0.43475 0.0
C4692 C 0.00877 0.51976 0.44215 0.0
C4693 C 0.99842 0.50674 0.43256 0.0
C4694 C 0.00038 0.50399 0.41586 0.0
H4695 H 0.00975 0.54381 0.37184 0.0
H4696 H 0.00335 0.53853 0.39163 0.0
H4697 H 0.02404 0.54813 0.38912 0.0
H4698 H 0.03276 0.53515 0.41289 0.0
H4699 H 0.029 0.54031 0.44192 0.0
H4700 H 0.76096 0.82462 0.59329 0.0
H4701 H 0.76049 0.81089 0.61857 0.0
H4702 H 0.73491 0.84795 0.6408 0.0
H4703 H 0.73472 0.86118 0.61528 0.0
H4704 H 0.77355 0.82146 0.64743 0.0
H4705 H 0.70722 0.80652 0.65266 0.0
H4706 H 0.71602 0.81386 0.6345 0.0
H4707 H 0.71404 0.82854 0.65167 0.0
C4708 C 0.75514 0.82971 0.60357 0.0
C4709 C 0.74778 0.84385 0.60236 0.0
C4710 C 0.75487 0.82189 0.61799 0.0
C4711 C 0.74739 0.82817 0.63154 0.0
C4712 C 0.74028 0.84251 0.6304 0.0
H4713 H 0.76972 0.80428 0.73 0.0
H4714 H 0.7679 0.81787 0.70487 0.0
C4715 C 0.74027 0.85014 0.61586 0.0
C4716 C 0.74766 0.82012 0.64702 0.0
H4717 H 0.72374 0.80406 0.67633 0.0
C4718 C 0.76263 0.81756 0.65368 0.0
C4719 C 0.73339 0.81477 0.65509 0.0
C4720 C 0.71675 0.81589 0.64802 0.0
C4721 C 0.76378 0.80997 0.66821 0.0
C4722 C 0.74963 0.80541 0.67671 0.0
C4723 C 0.73463 0.80778 0.66996 0.0
C4724 C 0.75006 0.79774 0.69238 0.0
C4725 C 0.7801 0.80653 0.67402 0.0
C4726 C 0.74004 0.78231 0.69408 0.0
C4727 C 0.74069 0.77479 0.70863 0.0
C4728 C 0.75146 0.78251 0.72171 0.0
C4729 C 0.76126 0.79808 0.72013 0.0
C4730 C 0.7604 0.80574 0.70568 0.0
H4731 H 0.78825 0.8058 0.66382 0.0
H4732 H 0.78601 0.81693 0.68309 0.0
H4733 H 0.77888 0.79459 0.67982 0.0
H4734 H 0.7319 0.77593 0.68403 0.0
H4735 H 0.73298 0.76279 0.70952 0.0
H4736 H 0.66751 0.43619 0.49021 0.0
H4737 H 0.64643 0.45338 0.48808 0.0
H4738 H 0.66889 0.48608 0.52992 0.0
H4739 H 0.69033 0.46928 0.53183 0.0
H4740 H 0.62516 0.45922 0.51172 0.0
H4741 H 0.66163 0.5192 0.49684 0.0
H4742 H 0.66906 0.49958 0.49499 0.0
H4743 H 0.66918 0.51109 0.51464 0.0
C4744 C 0.66811 0.44719 0.4988 0.0
C4745 C 0.6806 0.45139 0.51117 0.0
C4746 C 0.65603 0.45695 0.4976 0.0
C4747 C 0.65627 0.47113 0.50868 0.0
C4748 C 0.66869 0.47537 0.52105 0.0
H4749 H 0.58391 0.53177 0.532 0.0
H4750 H 0.60918 0.52048 0.53063 0.0
C4751 C 0.68079 0.46562 0.52226 0.0
C4752 C 0.64293 0.48082 0.50789 0.0
H4753 H 0.63432 0.51983 0.50334 0.0
C4754 C 0.62715 0.47243 0.50977 0.0
C4755 C 0.64561 0.49808 0.50541 0.0
C4756 C 0.66226 0.50752 0.5027 0.0
C4757 C 0.61397 0.4809 0.50946 0.0
C4758 C 0.61665 0.49813 0.50704 0.0
C4759 C 0.63239 0.50659 0.50517 0.0
C4760 C 0.60304 0.50741 0.50659 0.0
C4761 C 0.59725 0.47144 0.51195 0.0
C4762 C 0.59164 0.50424 0.49325 0.0
C4763 C 0.57726 0.51064 0.494 0.0
C4764 C 0.57413 0.52025 0.50811 0.0
C4765 C 0.58606 0.52436 0.52101 0.0
C4766 C 0.60046 0.51796 0.52024 0.0
H4767 H 0.59761 0.45887 0.51615 0.0
H4768 H 0.59114 0.47872 0.52103 0.0
H4769 H 0.58979 0.46967 0.50028 0.0
H4770 H 0.59351 0.49615 0.48261 0.0
H4771 H 0.56827 0.50736 0.48387 0.0
H4772 H 0.18212 0.10805 0.53121 0.0
H4773 H 0.15436 0.09311 0.53275 0.0
H4774 H 0.15124 0.07947 0.48089 0.0
H4775 H 0.17877 0.09476 0.47909 0.0
H4776 H 0.12562 0.09967 0.51417 0.0
H4777 H 0.13692 0.03443 0.50203 0.0
H4778 H 0.15281 0.0519 0.50918 0.0
H4779 H 0.14551 0.04892 0.48816 0.0
C4780 C 0.17552 0.10197 0.52009 0.0
C4781 C 0.18271 0.10264 0.50501 0.0
C4782 C 0.1597 0.09335 0.52104 0.0
C4783 C 0.15086 0.08507 0.50697 0.0
C4784 C 0.15799 0.08556 0.49193 0.0
H4785 H 0.05677 0.02993 0.47644 0.0
H4786 H 0.08516 0.04365 0.48013 0.0
C4787 C 0.17376 0.09426 0.49094 0.0
C4788 C 0.13393 0.07645 0.50782 0.0
H4789 H 0.10941 0.03807 0.50105 0.0
C4790 C 0.12204 0.08618 0.51149 0.0
C4791 C 0.1294 0.05889 0.50431 0.0
C4792 C 0.14181 0.04785 0.50082 0.0
C4793 C 0.10556 0.07886 0.51104 0.0
C4794 C 0.10097 0.06129 0.50719 0.0
C4795 C 0.11296 0.05153 0.50398 0.0
C4796 C 0.08373 0.0529 0.50534 0.0
C4797 C 0.09319 0.09009 0.51396 0.0
C4798 C 0.0735 0.05343 0.51834 0.0
C4799 C 0.05719 0.04569 0.51619 0.0
C4800 C 0.05097 0.03712 0.50111 0.0
C4801 C 0.06127 0.03643 0.48821 0.0
C4802 C 0.0775 0.04422 0.49032 0.0
H4803 H 0.09834 0.10349 0.51294 0.0
H4804 H 0.08251 0.08628 0.50515 0.0
H4805 H 0.08894 0.08905 0.52643 0.0
H4806 H 0.07812 0.05983 0.53012 0.0
H4807 H 0.04944 0.04656 0.52624 0.0
H4808 H 0.19012 0.9376 0.74735 0.0
H4809 H 0.2041 0.91346 0.7452 0.0
H4810 H 0.19842 0.90786 0.7962 0.0
H4811 H 0.18405 0.93162 0.79837 0.0
H4812 H 0.23251 0.90749 0.76275 0.0
H4813 H 0.17732 0.86169 0.77269 0.0
H4814 H 0.17651 0.88274 0.76773 0.0
H4815 H 0.18229 0.87908 0.78815 0.0
C4816 C 0.19178 0.93117 0.75809 0.0
C4817 C 0.18586 0.93645 0.773 0.0
C4818 C 0.19988 0.91749 0.75687 0.0
C4819 C 0.2021 0.90879 0.77049 0.0
C4820 C 0.19663 0.9143 0.78549 0.0
H4821 H 0.26144 0.83217 0.78247 0.0
H4822 H 0.25088 0.85849 0.78367 0.0
C4823 C 0.18855 0.92798 0.78674 0.0
C4824 C 0.20969 0.89363 0.76892 0.0
H4825 H 0.20202 0.8514 0.77188 0.0
C4826 C 0.22588 0.89521 0.76472 0.0
C4827 C 0.2009 0.87762 0.7713 0.0
C4828 C 0.18325 0.87507 0.77508 0.0
C4829 C 0.2336 0.88117 0.76305 0.0
C4830 C 0.22491 0.86523 0.76583 0.0
C4831 C 0.20868 0.86366 0.76986 0.0
C4832 C 0.23222 0.84986 0.76435 0.0
C4833 C 0.25086 0.88344 0.75803 0.0
C4834 C 0.22518 0.83626 0.75317 0.0
C4835 C 0.23108 0.82119 0.75253 0.0
C4836 C 0.24416 0.81939 0.7631 0.0
C4837 C 0.25144 0.83317 0.77407 0.0
C4838 C 0.24546 0.84826 0.77473 0.0
H4839 H 0.25439 0.89543 0.75252 0.0
H4840 H 0.25913 0.88363 0.76894 0.0
H4841 H 0.25261 0.87289 0.74916 0.0
H4842 H 0.21493 0.83723 0.74508 0.0
H4843 H 0.22521 0.81088 0.74389 0.0
H4844 H 0.3198 0.98623 0.03406 0.0
H4845 H 0.34686 0.00244 0.03117 0.0
H4846 H 0.36623 0.95653 0.0262 0.0
H4847 H 0.33936 0.94027 0.02814 0.0
H4848 H 0.37669 0.00507 0.04816 0.0
H4849 H 0.3789 0.97781 0.98476 0.0
H4850 H 0.36039 0.97572 0.99535 0.0
H4851 H 0.37449 0.96167 0.99821 0.0
C4852 C 0.32982 0.97959 0.0323 0.0
C4853 C 0.32734 0.96192 0.03118 0.0
C4854 C 0.34527 0.98888 0.03075 0.0
C4855 C 0.3584 0.98062 0.02807 0.0
C4856 C 0.35614 0.9631 0.02788 0.0
H4857 H 0.46004 0.00617 0.04224 0.0
H4858 H 0.43079 0.00073 0.04468 0.0
C4859 C 0.34077 0.95383 0.02927 0.0
C4860 C 0.37452 0.99002 0.02506 0.0
H4861 H 0.40469 0.9896 0.99885 0.0
C4862 C 0.38277 0.00195 0.03727 0.0
C4863 C 0.38221 0.98634 0.01062 0.0
C4864 C 0.37345 0.97483 0.99642 0.0
C4865 C 0.39899 0.00938 0.0359 0.0
C4866 C 0.4072 0.0043 0.0222 0.0
C4867 C 0.39853 0.9933 0.0095 0.0
C4868 C 0.42497 0.00907 0.02126 0.0
C4869 C 0.40714 0.02243 0.04921 0.0
C4870 C 0.43147 0.01505 0.00705 0.0
C4871 C 0.44819 0.01763 0.00541 0.0
C4872 C 0.45869 0.01447 0.01803 0.0
C4873 C 0.45222 0.00883 0.03236 0.0
C4874 C 0.4355 0.00593 0.03387 0.0
H4875 H 0.39823 0.0295 0.05483 0.0
H4876 H 0.41247 0.0161 0.05896 0.0
H4877 H 0.41693 0.0315 0.04456 0.0
H4878 H 0.42358 0.01746 0.99712 0.0
H4879 H 0.45289 0.02215 0.99429 0.0
H4880 H 0.82597 0.59591 0.7817 0.0
H4881 H 0.8073 0.61587 0.78111 0.0
H4882 H 0.83111 0.63726 0.7406 0.0
H4883 H 0.85019 0.61767 0.74143 0.0
H4884 H 0.82739 0.66074 0.76592 0.0
H4885 H 0.76928 0.61728 0.74852 0.0
H4886 H 0.78052 0.61177 0.76565 0.0
H4887 H 0.78879 0.61119 0.74593 0.0
C4888 C 0.82728 0.60491 0.77271 0.0
C4889 C 0.8396 0.6053 0.76166 0.0
C4890 C 0.81645 0.61612 0.77223 0.0
C4891 C 0.81768 0.62781 0.76064 0.0
C4892 C 0.82989 0.62818 0.74953 0.0
H4893 H 0.75823 0.70073 0.73869 0.0
H4894 H 0.77034 0.6753 0.73819 0.0
C4895 C 0.84074 0.61698 0.74999 0.0
C4896 C 0.80704 0.6405 0.76091 0.0
H4897 H 0.76748 0.64558 0.75769 0.0
C4898 C 0.8143 0.65743 0.76405 0.0
C4899 C 0.78998 0.6361 0.75836 0.0
C4900 C 0.78165 0.61811 0.75428 0.0
C4901 C 0.80496 0.67013 0.76495 0.0
C4902 C 0.78788 0.66571 0.76292 0.0
C4903 C 0.78057 0.64882 0.75948 0.0
C4904 C 0.77765 0.67875 0.76391 0.0
C4905 C 0.81342 0.68821 0.76792 0.0
C4906 C 0.77714 0.68852 0.77869 0.0
C4907 C 0.77033 0.70302 0.77899 0.0
C4908 C 0.7639 0.70784 0.76451 0.0
C4909 C 0.76319 0.69728 0.74999 0.0
C4910 C 0.77005 0.68278 0.74969 0.0
H4911 H 0.82657 0.68962 0.76586 0.0
H4912 H 0.80787 0.69619 0.75985 0.0
H4913 H 0.81214 0.69297 0.78074 0.0
H4914 H 0.78283 0.68544 0.7898 0.0
H4915 H 0.7709 0.71092 0.79037 0.0
H4916 H 0.82202 0.5827 0.98761 0.0
H4917 H 0.84432 0.56678 0.98694 0.0
H4918 H 0.87387 0.6058 0.01941 0.0
H4919 H 0.85195 0.62209 0.01977 0.0
H4920 H 0.88189 0.58398 0.9802 0.0
H4921 H 0.86926 0.55523 0.03817 0.0
H4922 H 0.85339 0.56077 0.0253 0.0
H4923 H 0.86743 0.57692 0.03721 0.0
C4924 C 0.83331 0.588 0.99448 0.0
C4925 C 0.83515 0.60369 0.00378 0.0
C4926 C 0.84598 0.57884 0.99414 0.0
C4927 C 0.86063 0.58514 0.00317 0.0
C4928 C 0.86256 0.60073 0.01245 0.0
H4929 H 0.94973 0.55591 0.03109 0.0
H4930 H 0.92461 0.56698 0.02813 0.0
C4931 C 0.84997 0.60995 0.01272 0.0
C4932 C 0.87405 0.57553 0.00299 0.0
H4933 H 0.89346 0.55137 0.02605 0.0
C4934 C 0.88439 0.57667 0.9901 0.0
C4935 C 0.87719 0.56613 0.01597 0.0
C4936 C 0.86625 0.56454 0.02997 0.0
C4937 C 0.89825 0.56912 0.99016 0.0
C4938 C 0.90158 0.55989 0.00332 0.0
C4939 C 0.8909 0.5584 0.01597 0.0
C4940 C 0.91665 0.55277 0.00488 0.0
C4941 C 0.90958 0.57177 0.97655 0.0
C4942 C 0.92048 0.54093 0.99287 0.0
C4943 C 0.93498 0.5347 0.99447 0.0
C4944 C 0.9457 0.54003 0.00823 0.0
C4945 C 0.94167 0.55157 0.02037 0.0
C4946 C 0.92731 0.55789 0.0187 0.0
H4947 H 0.90734 0.58235 0.96962 0.0
H4948 H 0.92243 0.57432 0.98135 0.0
H4949 H 0.90769 0.56023 0.96791 0.0
H4950 H 0.91227 0.5365 0.98229 0.0
H4951 H 0.9378 0.52574 0.98498 0.0
H4952 H 0.19837 0.09722 0.80526 0.0
H4953 H 0.21156 0.12636 0.80336 0.0
H4954 H 0.18507 0.12643 0.7574 0.0
H4955 H 0.17181 0.09737 0.75921 0.0
H4956 H 0.23 0.13754 0.77386 0.0
H4957 H 0.17804 0.16967 0.78804 0.0
H4958 H 0.17959 0.14938 0.79472 0.0
H4959 H 0.17419 0.15113 0.77377 0.0
C4960 C 0.19527 0.10351 0.79483 0.0
C4961 C 0.18412 0.09504 0.78235 0.0
C4962 C 0.20283 0.12009 0.79374 0.0
C4963 C 0.19915 0.12849 0.78031 0.0
C4964 C 0.18793 0.12014 0.76792 0.0
H4965 H 0.23238 0.22906 0.75261 0.0
H4966 H 0.21737 0.2007 0.75491 0.0
C4967 C 0.18049 0.10354 0.76891 0.0
C4968 C 0.20755 0.14579 0.77889 0.0
H4969 H 0.20195 0.18651 0.78062 0.0
C4970 C 0.22393 0.14828 0.77539 0.0
C4971 C 0.19945 0.15964 0.78069 0.0
C4972 C 0.18186 0.15747 0.7846 0.0
C4973 C 0.23247 0.16436 0.77352 0.0
C4974 C 0.22449 0.17833 0.77568 0.0
C4975 C 0.20804 0.17579 0.77904 0.0
C4976 C 0.23313 0.19569 0.77468 0.0
C4977 C 0.24986 0.16618 0.7689 0.0
C4978 C 0.24668 0.20238 0.78529 0.0
C4979 C 0.25527 0.21846 0.78394 0.0
C4980 C 0.25034 0.22821 0.77208 0.0
C4981 C 0.23645 0.22176 0.76182 0.0
C4982 C 0.22789 0.2056 0.76312 0.0
H4983 H 0.25257 0.15417 0.76314 0.0
H4984 H 0.25264 0.17596 0.76036 0.0
H4985 H 0.25803 0.16992 0.78004 0.0
H4986 H 0.25067 0.19511 0.79458 0.0
H4987 H 0.26584 0.22324 0.79212 0.0
H4988 H 0.33121 0.9482 0.23737 0.0
H4989 H 0.31402 0.92078 0.2377 0.0
H4990 H 0.29266 0.93866 0.2809 0.0
H4991 H 0.30957 0.96642 0.28045 0.0
H4992 H 0.31708 0.90307 0.26616 0.0
H4993 H 0.25355 0.91056 0.2509 0.0
H4994 H 0.27089 0.92464 0.24479 0.0
H4995 H 0.26548 0.92608 0.26558 0.0
C4996 C 0.32251 0.94651 0.24666 0.0
C4997 C 0.3218 0.95945 0.25894 0.0
C4998 C 0.31275 0.93081 0.24685 0.0
C4999 C 0.30206 0.92779 0.25926 0.0
C5000 C 0.30072 0.94086 0.27112 0.0
H5001 H 0.27101 0.82864 0.29022 0.0
H5002 H 0.27795 0.85911 0.29018 0.0
C5003 C 0.3105 0.95661 0.27094 0.0
C5004 C 0.29409 0.91044 0.26096 0.0
H5005 H 0.25752 0.88399 0.25841 0.0
C5006 C 0.30406 0.89889 0.26451 0.0
C5007 C 0.27712 0.90516 0.2588 0.0
C5008 C 0.26606 0.91718 0.2547 0.0
C5009 C 0.29753 0.88206 0.2658 0.0
C5010 C 0.28056 0.87672 0.26367 0.0
C5011 C 0.27052 0.88826 0.26018 0.0
C5012 C 0.27338 0.85892 0.26417 0.0
C5013 C 0.30885 0.86999 0.26905 0.0
C5014 C 0.26796 0.84891 0.24962 0.0
C5015 C 0.26404 0.83149 0.24955 0.0
C5016 C 0.2655 0.82386 0.26407 0.0
C5017 C 0.26993 0.83408 0.2788 0.0
C5018 C 0.27384 0.85149 0.27883 0.0
H5019 H 0.32173 0.87556 0.26769 0.0
H5020 H 0.3077 0.86646 0.28169 0.0
H5021 H 0.30562 0.85832 0.26062 0.0
H5022 H 0.26757 0.8545 0.23819 0.0
H5023 H 0.26051 0.82402 0.23802 0.0
H5024 H 0.48715 0.35522 0.59156 0.0
H5025 H 0.48537 0.3787 0.5754 0.0
H5026 H 0.53577 0.38205 0.56531 0.0
H5027 H 0.53755 0.3582 0.58109 0.0
H5028 H 0.50386 0.4109 0.58195 0.0
H5029 H 0.51327 0.38272 0.52004 0.0
H5030 H 0.50783 0.3702 0.53665 0.0
H5031 H 0.52835 0.38077 0.53557 0.0
C5032 C 0.49779 0.36075 0.58567 0.0
C5033 C 0.51248 0.35483 0.58756 0.0
C5034 C 0.49676 0.3742 0.57651 0.0
C5035 C 0.51037 0.38192 0.569 0.0
C5036 C 0.52506 0.37604 0.57078 0.0
H5037 H 0.53131 0.47255 0.52054 0.0
H5038 H 0.53188 0.44558 0.53135 0.0
C5039 C 0.5261 0.36257 0.57996 0.0
C5040 C 0.5094 0.39683 0.56022 0.0
H5041 H 0.51309 0.41207 0.52305 0.0
C5042 C 0.50577 0.41113 0.56906 0.0
C5043 C 0.51201 0.39707 0.54342 0.0
C5044 C 0.51545 0.38184 0.53329 0.0
C5045 C 0.50488 0.4258 0.5616 0.0
C5046 C 0.50739 0.42603 0.54479 0.0
C5047 C 0.51109 0.41176 0.53593 0.0
C5048 C 0.5065 0.44118 0.53639 0.0
C5049 C 0.5016 0.44105 0.57184 0.0
C5050 C 0.49189 0.44728 0.53514 0.0
C5051 C 0.4915 0.46269 0.52904 0.0
C5052 C 0.50573 0.47224 0.52403 0.0
C5053 C 0.52015 0.46559 0.52442 0.0
C5054 C 0.52052 0.45017 0.53055 0.0
H5055 H 0.50361 0.44002 0.58508 0.0
H5056 H 0.50946 0.45264 0.56867 0.0
H5057 H 0.48878 0.44239 0.56948 0.0
H5058 H 0.48089 0.44033 0.53936 0.0
H5059 H 0.48016 0.46734 0.52875 0.0
H5060 H 0.43003 0.76807 0.32188 0.0
H5061 H 0.4035 0.76892 0.30867 0.0
H5062 H 0.38087 0.75948 0.35364 0.0
H5063 H 0.40736 0.75843 0.36692 0.0
H5064 H 0.36535 0.73901 0.32472 0.0
H5065 H 0.37668 0.8073 0.31759 0.0
H5066 H 0.39228 0.79633 0.31044 0.0
H5067 H 0.3886 0.79794 0.33176 0.0
C5068 C 0.41939 0.76608 0.32892 0.0
C5069 C 0.42075 0.76322 0.34543 0.0
C5070 C 0.40429 0.76671 0.32141 0.0
C5071 C 0.39031 0.76446 0.33026 0.0
C5072 C 0.39157 0.76136 0.34667 0.0
H5073 H 0.29794 0.78533 0.29164 0.0
H5074 H 0.32134 0.78386 0.30997 0.0
C5075 C 0.40669 0.76084 0.35423 0.0
C5076 C 0.37436 0.76508 0.32224 0.0
H5077 H 0.35349 0.79083 0.30277 0.0
C5078 C 0.36266 0.75035 0.32003 0.0
C5079 C 0.37084 0.77999 0.31642 0.0
C5080 C 0.38268 0.79635 0.31927 0.0
C5081 C 0.34772 0.74997 0.31152 0.0
C5082 C 0.34457 0.76464 0.3049 0.0
C5083 C 0.35601 0.77955 0.30772 0.0
C5084 C 0.3298 0.76468 0.29442 0.0
C5085 C 0.33547 0.73387 0.30966 0.0
C5086 C 0.32685 0.75441 0.27962 0.0
C5087 C 0.31347 0.75517 0.26921 0.0
C5088 C 0.3029 0.76629 0.27338 0.0
C5089 C 0.30583 0.77653 0.28821 0.0
C5090 C 0.31919 0.77574 0.29865 0.0
H5091 H 0.33761 0.72559 0.31925 0.0
H5092 H 0.32291 0.73643 0.31021 0.0
H5093 H 0.33652 0.72695 0.29765 0.0
H5094 H 0.3351 0.74608 0.27595 0.0
H5095 H 0.31152 0.74721 0.25779 0.0
H5096 H 0.04248 0.69741 0.0989 0.0
H5097 H 0.04621 0.6726 0.08173 0.0
H5098 H 0.00965 0.68129 0.04666 0.0
H5099 H 0.00654 0.70682 0.0633 0.0
H5100 H 0.02362 0.64556 0.07454 0.0
H5101 H 0.04402 0.67014 0.01696 0.0
H5102 H 0.04394 0.68361 0.03557 0.0
H5103 H 0.02551 0.67639 0.02306 0.0
C5104 C 0.03553 0.69437 0.08733 0.0
C5105 C 0.02423 0.7042 0.08249 0.0
C5106 C 0.03762 0.68009 0.07756 0.0
C5107 C 0.02839 0.67522 0.0628 0.0
C5108 C 0.01719 0.68503 0.05781 0.0
H5109 H 0.00115 0.58066 0.00615 0.0
H5110 H 0.00566 0.61046 0.01593 0.0
C5111 C 0.01521 0.69946 0.06751 0.0
C5112 C 0.02936 0.65897 0.05357 0.0
H5113 H 0.03522 0.64032 0.01605 0.0
C5114 C 0.02637 0.64447 0.06181 0.0
C5115 C 0.03288 0.65757 0.03693 0.0
C5116 C 0.03693 0.67278 0.02764 0.0
C5117 C 0.02646 0.62857 0.05383 0.0
C5118 C 0.02971 0.62713 0.03717 0.0
C5119 C 0.03281 0.64157 0.02886 0.0
C5120 C 0.02895 0.61046 0.02822 0.0
C5121 C 0.02266 0.61331 0.06314 0.0
C5122 C 0.04092 0.60087 0.03137 0.0
C5123 C 0.03838 0.58381 0.02585 0.0
C5124 C 0.02379 0.57613 0.0172 0.0
C5125 C 0.01243 0.58614 0.01297 0.0
C5126 C 0.01501 0.6032 0.01844 0.0
H5127 H 0.01833 0.61642 0.07537 0.0
H5128 H 0.01327 0.60362 0.05621 0.0
H5129 H 0.03376 0.60777 0.06478 0.0
H5130 H 0.05176 0.60636 0.03892 0.0
H5131 H 0.04742 0.57649 0.02924 0.0
H5132 H 0.0741 0.23702 0.84149 0.0
H5133 H 0.09848 0.23628 0.82635 0.0
H5134 H 0.10155 0.28872 0.81947 0.0
H5135 H 0.07745 0.28968 0.83491 0.0
H5136 H 0.10507 0.24439 0.79398 0.0
H5137 H 0.14624 0.28591 0.84101 0.0
H5138 H 0.12605 0.27592 0.84504 0.0
H5139 H 0.12896 0.29444 0.83433 0.0
C5140 C 0.08003 0.24842 0.83683 0.0
C5141 C 0.07392 0.26345 0.83952 0.0
C5142 C 0.09387 0.24794 0.82809 0.0
C5143 C 0.10192 0.26249 0.82199 0.0
C5144 C 0.09564 0.2774 0.82428 0.0
H5145 H 0.18872 0.29084 0.77181 0.0
H5146 H 0.16221 0.28854 0.78342 0.0
C5147 C 0.08178 0.27789 0.83298 0.0
C5148 C 0.11707 0.2622 0.81348 0.0
H5149 H 0.1573 0.27944 0.81578 0.0
C5150 C 0.11653 0.25197 0.79875 0.0
C5151 C 0.13198 0.27203 0.81982 0.0
C5152 C 0.13346 0.28259 0.83599 0.0
C5153 C 0.13047 0.25169 0.78996 0.0
C5154 C 0.1453 0.26176 0.79618 0.0
C5155 C 0.14586 0.27181 0.811 0.0
C5156 C 0.16043 0.26236 0.78748 0.0
C5157 C 0.12919 0.241 0.7739 0.0
C5158 C 0.16811 0.24831 0.78572 0.0
C5159 C 0.18332 0.24959 0.77909 0.0
C5160 C 0.19103 0.26497 0.77419 0.0
C5161 C 0.18304 0.27883 0.77546 0.0
C5162 C 0.16792 0.27755 0.78211 0.0
H5163 H 0.11638 0.2366 0.76927 0.0
H5164 H 0.1358 0.24809 0.7646 0.0
H5165 H 0.13483 0.22981 0.77549 0.0
H5166 H 0.16264 0.23654 0.79001 0.0
H5167 H 0.18927 0.23875 0.77832 0.0
H5168 H 0.48356 0.69281 0.9458 0.0
H5169 H 0.4816 0.66867 0.96192 0.0
H5170 H 0.53344 0.67189 0.9624 0.0
H5171 H 0.53562 0.69625 0.94667 0.0
H5172 H 0.51038 0.63887 0.94915 0.0
H5173 H 0.50055 0.66582 0.01163 0.0
H5174 H 0.49013 0.67237 0.99439 0.0
H5175 H 0.51172 0.67824 0.99734 0.0
C5176 C 0.49458 0.68862 0.94964 0.0
C5177 C 0.50974 0.69637 0.94485 0.0
C5178 C 0.49342 0.67483 0.95881 0.0
C5179 C 0.50738 0.66863 0.96335 0.0
C5180 C 0.52255 0.67657 0.959 0.0
H5181 H 0.52445 0.5875 0.01947 0.0
H5182 H 0.52436 0.61492 0.00929 0.0
C5183 C 0.52374 0.69038 0.94991 0.0
C5184 C 0.50608 0.65295 0.97135 0.0
H5185 H 0.49997 0.63653 0.00772 0.0
C5186 C 0.50808 0.63831 0.96194 0.0
C5187 C 0.50319 0.65241 0.98804 0.0
C5188 C 0.50132 0.66802 0.99857 0.0
C5189 C 0.5072 0.62302 0.96879 0.0
C5190 C 0.50408 0.62238 0.98545 0.0
C5191 C 0.50224 0.63708 0.99492 0.0
C5192 C 0.50293 0.60648 0.99313 0.0
C5193 C 0.50988 0.60774 0.95818 0.0
C5194 C 0.49059 0.59287 0.98781 0.0
C5195 C 0.49064 0.57721 0.99351 0.0
C5196 C 0.50297 0.57491 0.00477 0.0
C5197 C 0.51479 0.58884 0.0108 0.0
C5198 C 0.51476 0.60451 0.00501 0.0
H5199 H 0.51577 0.61117 0.94686 0.0
H5200 H 0.51751 0.60036 0.96488 0.0
H5201 H 0.498 0.59955 0.95462 0.0
H5202 H 0.4812 0.59423 0.97884 0.0
H5203 H 0.48124 0.56681 0.98876 0.0
H5204 H 0.09026 0.79183 0.68325 0.0
H5205 H 0.11511 0.78417 0.6946 0.0
H5206 H 0.08767 0.73776 0.70761 0.0
H5207 H 0.06272 0.74538 0.69643 0.0
H5208 H 0.12323 0.77519 0.72655 0.0
H5209 H 0.12243 0.72332 0.67753 0.0
H5210 H 0.11034 0.73953 0.67587 0.0
H5211 H 0.10426 0.72282 0.68838 0.0
C5212 C 0.08947 0.78014 0.6888 0.0
C5213 C 0.07458 0.76913 0.68882 0.0
C5214 C 0.10367 0.77574 0.69518 0.0
C5215 C 0.1032 0.76026 0.70162 0.0
C5216 C 0.08828 0.74959 0.70236 0.0
H5217 H 0.18567 0.73352 0.75453 0.0
H5218 H 0.15776 0.73373 0.7446 0.0
C5219 C 0.07408 0.75398 0.69599 0.0
C5220 C 0.11843 0.75515 0.70716 0.0
H5221 H 0.14371 0.72733 0.698 0.0
C5222 C 0.12767 0.76466 0.72042 0.0
C5223 C 0.12418 0.74149 0.69897 0.0
C5224 C 0.11489 0.73123 0.68431 0.0
C5225 C 0.14264 0.76092 0.72567 0.0
C5226 C 0.14837 0.74724 0.71751 0.0
C5227 C 0.13911 0.73767 0.7043 0.0
C5228 C 0.16454 0.74363 0.72192 0.0
C5229 C 0.15247 0.7719 0.73961 0.0
C5230 C 0.17739 0.74828 0.71201 0.0
C5231 C 0.19331 0.74819 0.71764 0.0
C5232 C 0.19651 0.74339 0.73322 0.0
C5233 C 0.18351 0.7373 0.74248 0.0
C5234 C 0.1676 0.73747 0.73687 0.0
H5235 H 0.14737 0.78338 0.74307 0.0
H5236 H 0.15269 0.7647 0.75041 0.0
H5237 H 0.16519 0.77574 0.73636 0.0
H5238 H 0.17519 0.75302 0.7004 0.0
H5239 H 0.20314 0.7529 0.71026 0.0
H5240 H 0.03178 0.36545 0.41255 0.0
H5241 H 0.03134 0.39364 0.42567 0.0
H5242 H 0.0021 0.37193 0.46276 0.0
H5243 H 0.00222 0.34383 0.44952 0.0
H5244 H 0.99028 0.39751 0.4514 0.0
H5245 H 0.05639 0.41668 0.46667 0.0
H5246 H 0.0512 0.41071 0.44537 0.0
H5247 H 0.0472 0.39533 0.45975 0.0
C5248 C 0.02541 0.36673 0.4236 0.0
C5249 C 0.01705 0.35249 0.43005 0.0
C5250 C 0.02519 0.38282 0.43109 0.0
C5251 C 0.01686 0.38487 0.44532 0.0
C5252 C 0.00859 0.37063 0.45179 0.0
H5253 H 0.02759 0.46898 0.51768 0.0
H5254 H 0.02857 0.44312 0.50056 0.0
C5255 C 0.00865 0.35461 0.44422 0.0
C5256 C 0.01638 0.4018 0.45339 0.0
H5257 H 0.04013 0.43731 0.47218 0.0
C5258 C 0.00118 0.40624 0.45595 0.0
C5259 C 0.03061 0.41309 0.45939 0.0
C5260 C 0.04727 0.40869 0.45781 0.0
C5261 C -0.00024 0.42149 0.46467 0.0
C5262 C 0.014 0.4329 0.47051 0.0
C5263 C 0.02922 0.42861 0.46762 0.0
C5264 C 0.01344 0.44883 0.4806 0.0
C5265 C 0.98301 0.42482 0.4681 0.0
C5266 C 0.0047 0.46073 0.47506 0.0
C5267 C 0.00376 0.47531 0.48506 0.0
C5268 C 0.01201 0.47851 0.50049 0.0
C5269 C 0.0211 0.46683 0.50583 0.0
C5270 C 0.02173 0.45209 0.49602 0.0
H5271 H 0.97388 0.41304 0.46682 0.0
H5272 H 0.98279 0.43109 0.48057 0.0
H5273 H 0.97929 0.43313 0.45922 0.0
H5274 H 0.99854 0.45872 0.46306 0.0
H5275 H 0.99656 0.48403 0.48074 0.0
H5276 H 0.43675 0.26683 0.20909 0.0
H5277 H 0.41267 0.26463 0.22509 0.0
H5278 H 0.39084 0.29395 0.19223 0.0
H5279 H 0.41471 0.29598 0.17602 0.0
H5280 H 0.39724 0.29169 0.24021 0.0
H5281 H 0.35804 0.24865 0.19267 0.0
H5282 H 0.37991 0.25206 0.19301 0.0
H5283 H 0.36908 0.26739 0.18562 0.0
C5284 C 0.42679 0.27277 0.20527 0.0
C5285 C 0.42754 0.28148 0.19124 0.0
C5286 C 0.41313 0.27159 0.21446 0.0
C5287 C 0.39999 0.27897 0.20969 0.0
C5288 C 0.40085 0.28804 0.19597 0.0
H5289 H 0.31584 0.30235 0.25391 0.0
H5290 H 0.34291 0.30225 0.24431 0.0
C5291 C 0.41452 0.28929 0.18681 0.0
C5292 C 0.38516 0.2769 0.2188 0.0
H5293 H 0.34487 0.26012 0.21473 0.0
C5294 C 0.3858 0.28469 0.23474 0.0
C5295 C 0.37037 0.26751 0.21167 0.0
C5296 C 0.36925 0.25828 0.19485 0.0
C5297 C 0.37178 0.28389 0.24352 0.0
C5298 C 0.35683 0.27519 0.23606 0.0
C5299 C 0.35636 0.26685 0.22037 0.0
C5300 C 0.34132 0.27534 0.24382 0.0
C5301 C 0.37304 0.2924 0.26064 0.0
C5302 C 0.33147 0.26022 0.24671 0.0
C5303 C 0.31593 0.2602 0.25213 0.0
C5304 C 0.30993 0.27531 0.25456 0.0
C5305 C 0.32006 0.29049 0.25213 0.0
C5306 C 0.3356 0.29049 0.24677 0.0
H5307 H 0.38563 0.29431 0.26614 0.0
H5308 H 0.36947 0.30491 0.26036 0.0
H5309 H 0.3648 0.28497 0.26855 0.0
H5310 H 0.33567 0.2484 0.24439 0.0
H5311 H 0.30847 0.24829 0.2539 0.0
H5312 H 0.58383 0.47536 0.35997 0.0
H5313 H 0.56783 0.47551 0.38414 0.0
H5314 H 0.56712 0.52822 0.38201 0.0
H5315 H 0.58299 0.52817 0.35781 0.0
H5316 H 0.5763 0.49811 0.41506 0.0
H5317 H 0.51827 0.50404 0.38275 0.0
H5318 H 0.53449 0.49638 0.37243 0.0
H5319 H 0.5359 0.51846 0.37811 0.0
C5320 C 0.58018 0.48695 0.36462 0.0
C5321 C 0.58463 0.50175 0.35701 0.0
C5322 C 0.57113 0.48702 0.37843 0.0
C5323 C 0.56622 0.50184 0.38471 0.0
C5324 C 0.57071 0.51664 0.37722 0.0
H5325 H 0.53118 0.5338 0.4761 0.0
H5326 H 0.54643 0.52914 0.45207 0.0
C5327 C 0.57986 0.51662 0.3635 0.0
C5328 C 0.55648 0.50192 0.39918 0.0
H5329 H 0.51937 0.50748 0.41166 0.0
C5330 C 0.56382 0.50003 0.41434 0.0
C5331 C 0.54018 0.50425 0.3981 0.0
C5332 C 0.53163 0.50577 0.38197 0.0
C5333 C 0.55538 0.50096 0.42861 0.0
C5334 C 0.53926 0.50394 0.42761 0.0
C5335 C 0.53176 0.50527 0.41237 0.0
C5336 C 0.53018 0.50641 0.44232 0.0
C5337 C 0.56379 0.49883 0.44464 0.0
C5338 C 0.51582 0.49535 0.4446 0.0
C5339 C 0.50709 0.49797 0.45837 0.0
C5340 C 0.51257 0.51175 0.46994 0.0
C5341 C 0.52682 0.52293 0.46749 0.0
C5342 C 0.53556 0.52026 0.4538 0.0
H5343 H 0.57429 0.49234 0.44286 0.0
H5344 H 0.56836 0.51138 0.45124 0.0
H5345 H 0.55527 0.49159 0.45245 0.0
H5346 H 0.51142 0.48467 0.43577 0.0
H5347 H 0.4961 0.48921 0.45997 0.0
H5348 H 0.27682 0.83861 0.07552 0.0
H5349 H 0.27899 0.82116 0.09801 0.0
H5350 H 0.22733 0.81497 0.10233 0.0
H5351 H 0.22503 0.83249 0.07995 0.0
H5352 H 0.25439 0.83152 0.13159 0.0
H5353 H 0.25587 0.76725 0.10242 0.0
H5354 H 0.26613 0.78543 0.09357 0.0
H5355 H 0.24444 0.78121 0.09305 0.0
C5356 C 0.26591 0.83338 0.08115 0.0
C5357 C 0.25077 0.837 0.07609 0.0
C5358 C 0.26715 0.82332 0.09386 0.0
C5359 C 0.25329 0.81676 0.10164 0.0
C5360 C 0.2381 0.81982 0.09627 0.0
H5361 H 0.23823 0.76281 0.18721 0.0
H5362 H 0.23626 0.77192 0.1597 0.0
C5363 C 0.23682 0.82979 0.0835 0.0
C5364 C 0.25492 0.80855 0.11667 0.0
H5365 H 0.25878 0.77131 0.13124 0.0
C5366 C 0.25533 0.81836 0.13156 0.0
C5367 C 0.25611 0.79142 0.11642 0.0
C5368 C 0.2556 0.78058 0.10055 0.0
C5369 C 0.25699 0.81146 0.14636 0.0
C5370 C 0.25838 0.79435 0.14617 0.0
C5371 C 0.25778 0.78445 0.13126 0.0
C5372 C 0.26043 0.78674 0.16152 0.0
C5373 C 0.25715 0.82248 0.1621 0.0
C5374 C 0.27483 0.7917 0.17132 0.0
C5375 C 0.27596 0.7866 0.18696 0.0
C5376 C 0.2627 0.77643 0.19298 0.0
C5377 C 0.2486 0.77069 0.18282 0.0
C5378 C 0.24747 0.77583 0.16714 0.0
H5379 H 0.25289 0.83441 0.16016 0.0
H5380 H 0.24938 0.8158 0.17088 0.0
H5381 H 0.26971 0.82563 0.16769 0.0
H5382 H 0.28497 0.80007 0.16709 0.0
H5383 H 0.287 0.79112 0.19453 0.0
H5384 H 0.91374 0.52584 0.86293 0.0
H5385 H 0.9292 0.52678 0.88893 0.0
H5386 H 0.96696 0.56392 0.8731 0.0
H5387 H 0.95168 0.56283 0.84691 0.0
H5388 H 0.97752 0.5355 0.8845 0.0
H5389 H 0.93855 0.56301 0.92813 0.0
H5390 H 0.92795 0.54581 0.9144 0.0
H5391 H 0.93691 0.56497 0.90651 0.0
C5392 C 0.92528 0.53429 0.86504 0.0
C5393 C 0.93155 0.54422 0.8529 0.0
C5394 C 0.934 0.53495 0.87995 0.0
C5395 C 0.94909 0.54558 0.88297 0.0
C5396 C 0.95524 0.55577 0.87101 0.0
H5397 H 0.02316 0.54868 0.9618 0.0
H5398 H 0.00822 0.55484 0.9375 0.0
C5399 C 0.94649 0.55518 0.85612 0.0
C5400 C 0.95905 0.54487 0.898 0.0
H5401 H 0.95912 0.54971 0.93948 0.0
C5402 C 0.97365 0.53882 0.89654 0.0
C5403 C 0.95384 0.54913 0.91362 0.0
C5404 C 0.93853 0.55624 0.91582 0.0
C5405 C 0.98292 0.53629 0.91034 0.0
C5406 C 0.97758 0.54027 0.92598 0.0
C5407 C 0.96315 0.54667 0.92745 0.0
C5408 C 0.98645 0.53718 0.94094 0.0
C5409 C 0.998 0.52874 0.90806 0.0
C5410 C 0.97898 0.52553 0.95106 0.0
C5411 C 0.98744 0.52205 0.96491 0.0
C5412 C 0.00346 0.53026 0.96889 0.0
C5413 C 0.01085 0.54211 0.9589 0.0
C5414 C 0.00237 0.5456 0.94504 0.0
H5415 H 0.99838 0.52294 0.89541 0.0
H5416 H 0.00885 0.53875 0.91064 0.0
H5417 H 0.99876 0.51905 0.9166 0.0
H5418 H 0.96669 0.51891 0.94807 0.0
H5419 H 0.98153 0.51278 0.97238 0.0
H5420 H 0.25516 0.18715 0.59245 0.0
H5421 H 0.25308 0.20084 0.61958 0.0
H5422 H 0.26961 0.24919 0.60254 0.0
H5423 H 0.27124 0.23558 0.57505 0.0
H5424 H 0.27824 0.22054 0.6391 0.0
H5425 H 0.2287 0.25597 0.62647 0.0
H5426 H 0.23284 0.23901 0.61254 0.0
H5427 H 0.24556 0.25932 0.6137 0.0
C5428 C 0.25809 0.20073 0.59436 0.0
C5429 C 0.26323 0.21029 0.58154 0.0
C5430 C 0.25699 0.20851 0.60991 0.0
C5431 C 0.26098 0.22603 0.61301 0.0
C5432 C 0.2662 0.23567 0.60031 0.0
H5433 H 0.28152 0.27547 0.71138 0.0
H5434 H 0.28243 0.26706 0.68237 0.0
C5435 C 0.2673 0.22787 0.58468 0.0
C5436 C 0.26036 0.23392 0.62979 0.0
H5437 H 0.24101 0.26018 0.65325 0.0
C5438 C 0.27015 0.22925 0.64219 0.0
C5439 C 0.24966 0.24515 0.63377 0.0
C5440 C 0.23847 0.2501 0.62098 0.0
C5441 C 0.26949 0.23543 0.6585 0.0
C5442 C 0.25895 0.24682 0.66248 0.0
C5443 C 0.24916 0.25154 0.6501 0.0
C5444 C 0.25773 0.25355 0.67956 0.0
C5445 C 0.27978 0.22934 0.67139 0.0
C5446 C 0.2433 0.24931 0.68742 0.0
C5447 C 0.24269 0.25417 0.70405 0.0
C5448 C 0.25652 0.26333 0.71304 0.0
C5449 C 0.27071 0.2682 0.7049 0.0
C5450 C 0.27128 0.26341 0.6883 0.0
H5451 H 0.28421 0.21777 0.66683 0.0
H5452 H 0.29049 0.23922 0.67517 0.0
H5453 H 0.27286 0.22673 0.68232 0.0
H5454 H 0.2327 0.24175 0.68083 0.0
H5455 H 0.23156 0.25028 0.70993 0.0
H5456 H 0.60325 0.5003 0.18819 0.0
H5457 H 0.59375 0.50789 0.16196 0.0
H5458 H 0.54994 0.51851 0.1827 0.0
H5459 H 0.5591 0.51045 0.209 0.0
H5460 H 0.56188 0.4945 0.14296 0.0
H5461 H 0.57282 0.56298 0.16327 0.0
H5462 H 0.58259 0.54833 0.17357 0.0
H5463 H 0.56159 0.54896 0.17614 0.0
C5464 C 0.59142 0.50385 0.18715 0.0
C5465 C 0.58195 0.50478 0.20075 0.0
C5466 C 0.58609 0.50834 0.17217 0.0
C5467 C 0.5713 0.51397 0.17053 0.0
C5468 C 0.56153 0.51442 0.18386 0.0
H5469 H 0.52332 0.55171 0.09022 0.0
H5470 H 0.53324 0.54625 0.11723 0.0
C5471 C 0.5668 0.50983 0.19885 0.0
C5472 C 0.56627 0.51963 0.1549 0.0
H5473 H 0.56201 0.55468 0.13633 0.0
C5474 C 0.5619 0.50764 0.14146 0.0
C5475 C 0.56627 0.53677 0.15312 0.0
C5476 C 0.57115 0.5501 0.16722 0.0
C5477 C 0.55736 0.51234 0.12622 0.0
C5478 C 0.55771 0.52956 0.1243 0.0
C5479 C 0.56193 0.54153 0.13781 0.0
C5480 C 0.55331 0.53522 0.1084 0.0
C5481 C 0.55189 0.49876 0.11242 0.0
C5482 C 0.56185 0.53167 0.09465 0.0
C5483 C 0.55617 0.5347 0.07923 0.0
C5484 C 0.542 0.54152 0.07739 0.0
C5485 C 0.53428 0.54642 0.09131 0.0
C5486 C 0.53989 0.54326 0.10673 0.0
H5487 H 0.54817 0.48627 0.11696 0.0
H5488 H 0.54155 0.50163 0.10496 0.0
H5489 H 0.56206 0.49791 0.10442 0.0
H5490 H 0.5725 0.52589 0.09576 0.0
H5491 H 0.5624 0.53092 0.06868 0.0
H5492 H 0.27228 0.86944 0.92362 0.0
H5493 H 0.27194 0.85292 0.89726 0.0
H5494 H 0.22752 0.82139 0.90782 0.0
H5495 H 0.22789 0.83757 0.9343 0.0
H5496 H 0.27024 0.8161 0.89111 0.0
H5497 H 0.21811 0.83967 0.86301 0.0
H5498 H 0.22997 0.85054 0.8808 0.0
H5499 H 0.21521 0.83208 0.88268 0.0
C5500 C 0.26251 0.8589 0.9204 0.0
C5501 C 0.25005 0.85488 0.93101 0.0
C5502 C 0.26232 0.84954 0.90533 0.0
C5503 C 0.24962 0.8361 0.90061 0.0
C5504 C 0.23728 0.8319 0.91121 0.0
H5505 H 0.22135 0.77007 0.81224 0.0
H5506 H 0.22356 0.7842 0.83996 0.0
C5507 C 0.23749 0.84121 0.92628 0.0
C5508 C 0.24919 0.82647 0.88454 0.0
H5509 H 0.22772 0.81778 0.84783 0.0
C5510 C 0.261 0.81646 0.88159 0.0
C5511 C 0.23707 0.82702 0.87226 0.0
C5512 C 0.22441 0.83799 0.87472 0.0
C5513 C 0.26082 0.80665 0.86668 0.0
C5514 C 0.24869 0.80722 0.85436 0.0
C5515 C 0.23694 0.81732 0.85734 0.0
C5516 C 0.24799 0.79761 0.83818 0.0
C5517 C 0.27335 0.79551 0.8644 0.0
C5518 C 0.26096 0.80049 0.82802 0.0
C5519 C 0.25973 0.7923 0.81229 0.0
C5520 C 0.24552 0.78123 0.80649 0.0
C5521 C 0.23252 0.7784 0.8166 0.0
C5522 C 0.23378 0.78646 0.83237 0.0
H5523 H 0.27867 0.7929 0.87627 0.0
H5524 H 0.26805 0.78337 0.85734 0.0
H5525 H 0.28334 0.8019 0.85758 0.0
H5526 H 0.2718 0.80951 0.83203 0.0
H5527 H 0.26948 0.79536 0.8044 0.0
H5528 H 0.93353 0.50354 0.68973 0.0
H5529 H 0.94949 0.50184 0.66577 0.0
H5530 H 0.98405 0.54491 0.68666 0.0
H5531 H 0.96831 0.54651 0.71087 0.0
H5532 H 0.95512 0.52962 0.64644 0.0
H5533 H 0.01247 0.51087 0.66831 0.0
H5534 H 0.994 0.50692 0.6789 0.0
H5535 H 0.0059 0.52766 0.68048 0.0
C5536 C 0.94476 0.51237 0.68944 0.0
C5537 C 0.94965 0.5252 0.70214 0.0
C5538 C 0.95381 0.51142 0.67572 0.0
C5539 C 0.96797 0.52318 0.67454 0.0
C5540 C 0.97326 0.53559 0.68747 0.0
H5541 H 0.01362 0.55025 0.58551 0.0
H5542 H 0.00587 0.5509 0.61393 0.0
C5543 C 0.96418 0.53659 0.70119 0.0
C5544 C 0.97608 0.52359 0.65904 0.0
H5545 H 0.01113 0.51854 0.64124 0.0
C5546 C 0.96737 0.52722 0.6453 0.0
C5547 C 0.99205 0.52047 0.65768 0.0
C5548 C 0.00168 0.51613 0.67207 0.0
C5549 C 0.97423 0.5278 0.63017 0.0
C5550 C 0.99017 0.52469 0.62879 0.0
C5551 C -0.00105 0.52108 0.64249 0.0
C5552 C 0.99729 0.52411 0.61282 0.0
C5553 C 0.96434 0.53145 0.61561 0.0
C5554 C 0.99527 0.5088 0.60309 0.0
C5555 C -0.00048 0.50841 0.58695 0.0
C5556 C 0.00592 0.52334 0.58035 0.0
C5557 C 0.00872 0.53858 0.59036 0.0
C5558 C 0.00436 0.53897 0.60653 0.0
H5559 H 0.952 0.53339 0.61871 0.0
H5560 H 0.97064 0.54289 0.61059 0.0
H5561 H 0.96318 0.52088 0.60589 0.0
H5562 H 0.98971 0.49726 0.60778 0.0
H5563 H 0.99729 0.4965 0.57948 0.0
H5564 H 0.24839 0.2102 0.4268 0.0
H5565 H 0.24931 0.22414 0.40171 0.0
H5566 H 0.29654 0.21188 0.39376 0.0
H5567 H 0.29546 0.19734 0.4185 0.0
H5568 H 0.27121 0.25104 0.39354 0.0
H5569 H 0.27142 0.19461 0.35039 0.0
H5570 H 0.26649 0.19326 0.37135 0.0
H5571 H 0.28729 0.19823 0.3663 0.0
C5572 C 0.25888 0.21026 0.41961 0.0
C5573 C 0.2718 0.20254 0.42462 0.0
C5574 C 0.25944 0.21835 0.40534 0.0
C5575 C 0.27289 0.21884 0.39576 0.0
C5576 C 0.28591 0.21139 0.40082 0.0
H5577 H 0.29169 0.28586 0.31853 0.0
H5578 H 0.29388 0.27166 0.34336 0.0
C5579 C 0.28536 0.20325 0.41508 0.0
C5580 C 0.27329 0.22738 0.3806 0.0
H5581 H 0.27517 0.22085 0.33933 0.0
C5582 C 0.2721 0.24446 0.38168 0.0
C5583 C 0.27428 0.2187 0.36514 0.0
C5584 C 0.2748 0.20016 0.36313 0.0
C5585 C 0.27184 0.25312 0.36771 0.0
C5586 C 0.27314 0.24453 0.35228 0.0
C5587 C 0.27435 0.22744 0.3512 0.0
C5588 C 0.2724 0.25279 0.33703 0.0
C5589 C 0.26968 0.27125 0.36957 0.0
C5590 C 0.25993 0.24657 0.32502 0.0
C5591 C 0.25875 0.25455 0.31083 0.0
C5592 C 0.27006 0.26889 0.30837 0.0
C5593 C 0.28275 0.27491 0.32021 0.0
C5594 C 0.28396 0.26687 0.33441 0.0
H5595 H 0.26493 0.27469 0.38152 0.0
H5596 H 0.28159 0.27947 0.36878 0.0
H5597 H 0.26127 0.27383 0.35972 0.0
H5598 H 0.25092 0.23569 0.32677 0.0
H5599 H 0.24884 0.24963 0.30189 0.0
H5600 H 0.35286 0.60748 0.49787 0.0
H5601 H 0.37188 0.58782 0.49843 0.0
H5602 H 0.33827 0.5548 0.52433 0.0
H5603 H 0.31958 0.5749 0.52444 0.0
H5604 H 0.36679 0.55783 0.53811 0.0
H5605 H 0.37263 0.54469 0.47223 0.0
H5606 H 0.37737 0.56688 0.47773 0.0
H5607 H 0.35721 0.55564 0.48009 0.0
C5608 C 0.34952 0.59593 0.50353 0.0
C5609 C 0.33484 0.59263 0.51111 0.0
C5610 C 0.3603 0.58463 0.50372 0.0
C5611 C 0.35635 0.5696 0.51108 0.0
C5612 C 0.34154 0.56624 0.5185 0.0
H5613 H 0.42995 0.50547 0.49948 0.0
H5614 H 0.40287 0.51304 0.49936 0.0
C5615 C 0.33091 0.5777 0.51859 0.0
C5616 C 0.36823 0.55811 0.51209 0.0
H5617 H 0.39521 0.5403 0.48985 0.0
C5618 C 0.37278 0.55371 0.52749 0.0
C5619 C 0.37574 0.55226 0.49823 0.0
C5620 C 0.37032 0.55496 0.48114 0.0
C5621 C 0.3854 0.54467 0.52954 0.0
C5622 C 0.39409 0.54046 0.51593 0.0
C5623 C 0.38878 0.54379 0.50037 0.0
C5624 C 0.40961 0.53421 0.51768 0.0
C5625 C 0.38939 0.53994 0.54633 0.0
C5626 C 0.42231 0.54342 0.52817 0.0
C5627 C 0.43763 0.53897 0.52842 0.0
C5628 C 0.44064 0.52547 0.51791 0.0
C5629 C 0.42789 0.51593 0.50771 0.0
C5630 C 0.41246 0.52026 0.50762 0.0
H5631 H 0.37833 0.53775 0.55333 0.0
H5632 H 0.39494 0.52845 0.54577 0.0
H5633 H 0.39801 0.55044 0.55313 0.0
H5634 H 0.4206 0.55454 0.53567 0.0
H5635 H 0.44729 0.54661 0.53631 0.0
H5636 H 0.83036 0.94864 0.49504 0.0
H5637 H 0.85797 0.96414 0.49384 0.0
H5638 H 0.86744 0.95937 0.54484 0.0
H5639 H 0.84002 0.94345 0.54605 0.0
H5640 H 0.8741 0.994 0.51142 0.0
H5641 H 0.904 0.93992 0.52274 0.0
H5642 H 0.88259 0.93756 0.51732 0.0
H5643 H 0.89029 0.94455 0.53791 0.0
C5644 C 0.83835 0.95081 0.50599 0.0
C5645 C 0.83305 0.94468 0.52061 0.0
C5646 C 0.85407 0.95976 0.5053 0.0
C5647 C 0.8648 0.96266 0.51918 0.0
C5648 C 0.85941 0.95701 0.53392 0.0
H5649 H 0.95576 0.0312 0.53895 0.0
H5650 H 0.92719 0.01779 0.53615 0.0
C5651 C 0.84369 0.94807 0.53463 0.0
C5652 C 0.8817 0.97143 0.51821 0.0
H5653 H 0.92112 0.96658 0.5236 0.0
C5654 C 0.8844 0.98801 0.514 0.0
C5655 C 0.89508 0.96345 0.52128 0.0
C5656 C 0.8929 0.94534 0.52491 0.0
C5657 C 0.90019 0.99701 0.51323 0.0
C5658 C 0.91358 0.98927 0.51703 0.0
C5659 C 0.91084 0.97254 0.52081 0.0
C5660 C 0.93056 0.99834 0.51758 0.0
C5661 C 0.90238 0.01464 0.50822 0.0
C5662 C 0.94197 0.99181 0.50815 0.0
C5663 C 0.95832 -0.00066 0.50987 0.0
C5664 C 0.96353 0.01351 0.52107 0.0
C5665 C 0.95205 0.02033 0.53016 0.0
C5666 C 0.93571 0.01275 0.52849 0.0
H5667 H 0.89149 0.01678 0.50111 0.0
H5668 H 0.90428 0.02371 0.5193 0.0
H5669 H 0.91308 0.0173 0.5008 0.0
H5670 H 0.93826 0.98066 0.49971 0.0
H5671 H 0.96693 0.99379 0.50275 0.0
H5672 H 0.856 0.12726 0.26939 0.0
H5673 H 0.84193 0.15109 0.27267 0.0
H5674 H 0.7959 0.11761 0.26396 0.0
H5675 H 0.80985 0.09354 0.26149 0.0
H5676 H 0.82278 0.16104 0.2497 0.0
H5677 H 0.78766 0.14706 0.3038 0.0
H5678 H 0.80403 0.13637 0.29807 0.0
H5679 H 0.78431 0.1303 0.28765 0.0
C5680 C 0.84287 0.12487 0.26857 0.0
C5681 C 0.83408 0.10842 0.26524 0.0
C5682 C 0.83484 0.13855 0.27032 0.0
C5683 C 0.81786 0.13614 0.26876 0.0
C5684 C 0.809 0.11976 0.26555 0.0
H5685 H 0.7521 0.20779 0.26145 0.0
H5686 H 0.76367 0.18212 0.26199 0.0
C5687 C 0.81702 0.10602 0.2639 0.0
C5688 C 0.80959 0.15089 0.26944 0.0
H5689 H 0.7816 0.16961 0.28946 0.0
C5690 C 0.81383 0.16292 0.25844 0.0
C5691 C 0.79784 0.1533 0.28081 0.0
C5692 C 0.79328 0.14116 0.29335 0.0
C5693 C 0.80664 0.17727 0.25847 0.0
C5694 C 0.79499 0.17971 0.26986 0.0
C5695 C 0.79055 0.16763 0.28074 0.0
C5696 C 0.78763 0.19502 0.27081 0.0
C5697 C 0.81148 0.18968 0.24621 0.0
C5698 C 0.7972 0.21067 0.27598 0.0
C5699 C 0.79068 0.22533 0.27572 0.0
C5700 C 0.7744 0.22462 0.27028 0.0
C5701 C 0.76468 0.20882 0.26565 0.0
C5702 C 0.77124 0.19413 0.26596 0.0
H5703 H 0.81793 0.18426 0.23614 0.0
H5704 H 0.80067 0.19396 0.24094 0.0
H5705 H 0.81971 0.20085 0.25241 0.0
H5706 H 0.80984 0.21156 0.27994 0.0
H5707 H 0.79853 0.23723 0.27948 0.0
H5708 H 0.69936 0.07214 0.02857 0.0
H5709 H 0.67167 0.05653 0.02865 0.0
H5710 H 0.66094 0.07074 0.98079 0.0
H5711 H 0.68848 0.08657 0.9807 0.0
H5712 H 0.64559 0.07479 0.02573 0.0
H5713 H 0.6391 0.02044 0.97858 0.0
H5714 H 0.65853 0.03082 0.98802 0.0
H5715 H 0.64872 0.04025 0.9724 0.0
C5716 C 0.69118 0.07172 0.01796 0.0
C5717 C 0.69603 0.08073 0.0047 0.0
C5718 C 0.67543 0.06271 0.01798 0.0
C5719 C 0.66435 0.06242 0.00469 0.0
C5720 C 0.66942 0.07055 0.99103 0.0
H5721 H 0.56069 0.03847 0.98597 0.0
H5722 H 0.59013 0.04505 0.98427 0.0
C5723 C 0.68517 0.07961 0.99101 0.0
C5724 C 0.64698 0.05588 0.00611 0.0
H5725 H 0.61473 0.02727 0.98889 0.0
C5726 C 0.63885 0.06426 0.01782 0.0
C5727 C 0.63828 0.04234 0.99559 0.0
C5728 C 0.64658 0.03282 0.983 0.0
C5729 C 0.62211 0.05976 0.01906 0.0
C5730 C 0.61335 0.04615 0.00859 0.0
C5731 C 0.62151 0.03764 0.99694 0.0
C5732 C 0.59563 0.04094 0.00931 0.0
C5733 C 0.61391 0.07006 0.03115 0.0
C5734 C 0.58901 0.03609 0.02384 0.0
C5735 C 0.57224 0.03262 0.02493 0.0
C5736 C 0.56179 0.0336 0.01139 0.0
C5737 C 0.56844 0.0377 0.99663 0.0
C5738 C 0.58524 0.0414 0.99562 0.0
H5739 H 0.62144 0.0826 0.03486 0.0
H5740 H 0.60195 0.07189 0.02604 0.0
H5741 H 0.61196 0.06342 0.04228 0.0
H5742 H 0.59682 0.03522 0.03441 0.0
H5743 H 0.56747 0.02917 0.03638 0.0
H5744 H 0.17497 0.42611 0.24123 0.0
H5745 H 0.19672 0.40965 0.24224 0.0
H5746 H 0.21952 0.44157 0.28441 0.0
H5747 H 0.19787 0.45827 0.28342 0.0
H5748 H 0.23201 0.42056 0.24207 0.0
H5749 H 0.21141 0.39303 0.29875 0.0
H5750 H 0.19856 0.40324 0.28636 0.0
H5751 H 0.21502 0.41554 0.2991 0.0
C5752 C 0.1847 0.42975 0.25062 0.0
C5753 C 0.18466 0.44341 0.26232 0.0
C5754 C 0.1971 0.42034 0.25117 0.0
C5755 C 0.20962 0.42439 0.26344 0.0
C5756 C 0.20983 0.43819 0.27496 0.0
H5757 H 0.27216 0.35306 0.28564 0.0
H5758 H 0.26383 0.38052 0.28555 0.0
C5759 C 0.19742 0.44762 0.27443 0.0
C5760 C 0.22192 0.41351 0.26453 0.0
H5761 H 0.23258 0.38281 0.28608 0.0
C5762 C 0.23235 0.41245 0.2518 0.0
C5763 C 0.22238 0.40312 0.27733 0.0
C5764 C 0.21121 0.40363 0.29115 0.0
C5765 C 0.24284 0.40073 0.25121 0.0
C5766 C 0.24258 0.38963 0.2635 0.0
C5767 C 0.23279 0.39136 0.27668 0.0
C5768 C 0.25062 0.37478 0.26202 0.0
C5769 C 0.25386 0.40017 0.2373 0.0
C5770 C 0.24632 0.36265 0.24863 0.0
C5771 C 0.2511 0.34704 0.24864 0.0
C5772 C 0.26007 0.34326 0.26214 0.0
C5773 C 0.2652 0.3557 0.27511 0.0
C5774 C 0.26047 0.37136 0.27506 0.0
H5775 H 0.25715 0.41275 0.23283 0.0
H5776 H 0.26515 0.39568 0.24092 0.0
H5777 H 0.24742 0.39149 0.22701 0.0
H5778 H 0.2384 0.36482 0.23862 0.0
H5779 H 0.247 0.33764 0.23848 0.0
H5780 H 0.1881 0.45342 0.04858 0.0
H5781 H 0.16501 0.46819 0.04878 0.0
H5782 H 0.14714 0.44232 0.00189 0.0
H5783 H 0.16974 0.42702 0.00188 0.0
H5784 H 0.15553 0.48939 0.02725 0.0
H5785 H 0.10773 0.43329 0.0288 0.0
H5786 H 0.12895 0.43285 0.03291 0.0
H5787 H 0.12063 0.4313 0.01224 0.0
C5788 C 0.17915 0.45071 0.0384 0.0
C5789 C 0.18074 0.43895 0.02525 0.0
C5790 C 0.16603 0.45926 0.03849 0.0
C5791 C 0.15423 0.45614 0.02548 0.0
C5792 C 0.15594 0.44466 0.01221 0.0
H5793 H 0.07103 0.49389 0.99209 0.0
H5794 H 0.0953 0.48142 0.99592 0.0
C5795 C 0.16899 0.43609 0.01213 0.0
C5796 C 0.14021 0.46503 0.0256 0.0
H5797 H 0.09884 0.45841 0.02204 0.0
C5798 C 0.14313 0.48265 0.02631 0.0
C5799 C 0.12405 0.4562 0.0245 0.0
C5800 C 0.12012 0.43738 0.02474 0.0
C5801 C 0.13028 0.49161 0.02525 0.0
C5802 C 0.11418 0.4827 0.02352 0.0
C5803 C 0.11125 0.46516 0.02325 0.0
C5804 C 0.10017 0.49124 0.0212 0.0
C5805 C 0.13393 0.51047 0.02543 0.0
C5806 C 0.09497 0.50095 0.03418 0.0
C5807 C 0.08104 0.50805 0.03204 0.0
C5808 C 0.0722 0.50553 0.01689 0.0
C5809 C 0.07764 0.49607 0.00387 0.0
C5810 C 0.09147 0.48892 0.00604 0.0
H5811 H 0.14711 0.51533 0.02495 0.0
H5812 H 0.12734 0.5145 0.01494 0.0
H5813 H 0.12965 0.51626 0.03675 0.0
H5814 H 0.10147 0.50271 0.04602 0.0
H5815 H 0.07704 0.51522 0.04229 0.0
H5816 H 0.82323 0.94774 0.22646 0.0
H5817 H 0.81013 0.91845 0.22721 0.0
H5818 H 0.84109 0.91449 0.26928 0.0
H5819 H 0.85445 0.94368 0.26846 0.0
H5820 H 0.83685 0.88621 0.24381 0.0
H5821 H 0.77894 0.90368 0.26345 0.0
H5822 H 0.78671 0.91289 0.24573 0.0
H5823 H 0.7978 0.91848 0.26512 0.0
C5824 C 0.82737 0.94058 0.23576 0.0
C5825 C 0.83978 0.94805 0.24748 0.0
C5826 C 0.81981 0.9239 0.23623 0.0
C5827 C 0.82454 0.91442 0.24841 0.0
C5828 C 0.83723 0.92166 0.25984 0.0
H5829 H 0.78949 0.81362 0.27504 0.0
H5830 H 0.80603 0.84108 0.2721 0.0
C5831 C 0.84475 0.93835 0.25942 0.0
C5832 C 0.81589 0.89711 0.24953 0.0
H5833 H 0.7791 0.87479 0.25704 0.0
C5834 C 0.82424 0.88366 0.24674 0.0
C5835 C 0.79949 0.89391 0.25344 0.0
C5836 C 0.79019 0.90798 0.25725 0.0
C5837 C 0.81642 0.86698 0.24735 0.0
C5838 C 0.79996 0.86379 0.25112 0.0
C5839 C 0.7917 0.87728 0.25405 0.0
C5840 C 0.79091 0.84659 0.25206 0.0
C5841 C 0.82571 0.8529 0.24362 0.0
C5842 C 0.77691 0.84065 0.24183 0.0
C5843 C 0.76743 0.82506 0.24354 0.0
C5844 C 0.77176 0.81519 0.25557 0.0
C5845 C 0.78596 0.82097 0.2656 0.0
C5846 C 0.79544 0.83659 0.26388 0.0
H5847 H 0.8368 0.85711 0.23714 0.0
H5848 H 0.82949 0.8483 0.2552 0.0
H5849 H 0.81802 0.8422 0.23607 0.0
H5850 H 0.77317 0.84821 0.23267 0.0
H5851 H 0.75656 0.82089 0.23564 0.0
H5852 H 0.67534 0.09595 0.74198 0.0
H5853 H 0.69375 0.12285 0.74257 0.0
H5854 H 0.71922 0.11201 0.78578 0.0
H5855 H 0.70092 0.08484 0.78518 0.0
H5856 H 0.69738 0.14719 0.77363 0.0
H5857 H 0.75453 0.12968 0.75121 0.0
H5858 H 0.73493 0.11691 0.74526 0.0
H5859 H 0.74349 0.11736 0.7656 0.0
C5860 C 0.68505 0.09911 0.75142 0.0
C5861 C 0.6867 0.08832 0.76355 0.0
C5862 C 0.69551 0.11448 0.75176 0.0
C5863 C 0.70784 0.11924 0.76413 0.0
C5864 C 0.70983 0.10839 0.77605 0.0
H5865 H 0.75666 0.22217 0.79002 0.0
H5866 H 0.74757 0.19205 0.79095 0.0
C5867 C 0.6993 0.093 0.77577 0.0
C5868 C 0.71753 0.13628 0.76532 0.0
H5869 H 0.75423 0.15861 0.75742 0.0
C5870 C 0.70986 0.14972 0.77024 0.0
C5871 C 0.73375 0.13936 0.76084 0.0
C5872 C 0.74227 0.12513 0.75537 0.0
C5873 C 0.71792 0.16633 0.77053 0.0
C5874 C 0.73406 0.16947 0.76581 0.0
C5875 C 0.74187 0.15603 0.7611 0.0
C5876 C 0.74248 0.18681 0.76493 0.0
C5877 C 0.70903 0.18046 0.77544 0.0
C5878 C 0.74304 0.19359 0.7499 0.0
C5879 C 0.7481 0.21081 0.74929 0.0
C5880 C 0.75267 0.22146 0.76373 0.0
C5881 C 0.75309 0.21437 0.77867 0.0
C5882 C 0.74798 0.19716 0.77926 0.0
H5883 H 0.696 0.17587 0.77713 0.0
H5884 H 0.7147 0.18733 0.78707 0.0
H5885 H 0.70995 0.18953 0.76607 0.0
H5886 H 0.73875 0.1857 0.73875 0.0
H5887 H 0.74776 0.21583 0.73758 0.0
loop_
_geom_bond_atom_site_label_1
_geom_bond_atom_site_label_2
_geom_bond_distance
_geom_bond_site_symmetry_2
_ccdc_geom_bond_type
Li0 N17 1.990 . S
Li0 O60 1.956 1_655 S
Li0 O61 1.970 . S
Li0 O62 1.961 1_655 S
Li1 N25 1.990 . S
Li1 O60 1.970 . S
Li1 O61 1.956 1_455 S
Li1 O63 1.961 . S
Li2 N47 1.990 . S
Li2 O60 1.961 . S
Li2 O62 1.956 . S
Li2 O63 1.970 . S
Li3 N53 1.990 . S
Li3 O61 1.961 1_455 S
Li3 O62 1.970 . S
Li3 O63 1.956 . S
C4 C6 1.348 . S
C4 C7 1.356 . S
C4 O60 1.325 . S
N5 C8 1.314 . S
N5 C9 1.279 . S
C6 C4 1.348 . S
C6 C8 1.353 . S
C6 H64 0.929 . S
C7 C4 1.356 . S
C7 C9 1.358 . S
C7 H65 0.930 . S
C8 N5 1.314 . S
C8 C6 1.353 . S
C8 H66 0.930 . S
C9 N5 1.279 . S
C9 C7 1.358 . S
C9 H67 0.930 . S
C10 C13 1.348 . S
C10 C14 1.356 . S
C10 O61 1.325 . S
C11 N12 1.279 . S
C11 C14 1.358 . S
C11 H68 0.930 . S
N12 C11 1.279 . S
N12 C15 1.314 . S
C13 C10 1.348 . S
C13 C15 1.353 . S
C13 H69 0.929 . S
C14 C10 1.356 . S
C14 C11 1.358 . S
C14 H70 0.930 . S
C15 N12 1.314 . S
C15 C13 1.353 . S
C15 H71 0.930 . S
C16 N17 1.314 . S
C16 C21 1.353 . S
C16 H22 0.930 . S
N17 Li0 1.990 . S
N17 C16 1.314 . S
N17 C19 1.279 . S
C18 C19 1.358 . S
C18 C20 1.356 . S
C18 H72 0.930 . S
C19 N17 1.279 . S
C19 C18 1.358 . S
C19 H23 0.930 . S
C20 C18 1.356 . S
C20 C21 1.348 . S
C21 C16 1.353 . S
C21 C20 1.348 . S
C21 H73 0.929 . S
H22 C16 0.930 . S
H23 C19 0.930 . S
C24 N25 1.314 . S
C24 C26 1.353 . S
C24 H30 0.930 . S
N25 Li1 1.990 . S
N25 C24 1.314 . S
N25 C28 1.279 . S
C26 C24 1.353 . S
C26 C29 1.348 . S
C26 H74 0.929 . S
C27 C28 1.358 . S
C27 C29 1.356 . S
C27 H75 0.930 1_455 S
C28 N25 1.279 . S
C28 C27 1.358 . S
C28 H31 0.930 1_455 S
C29 C26 1.348 . S
C29 C27 1.356 . S
H30 C24 0.930 . S
H31 C28 0.930 1_655 S
C32 C34 1.348 . S
C32 C35 1.356 . S
C32 O62 1.325 . S
N33 C36 1.314 . S
N33 C37 1.279 . S
C34 C32 1.348 . S
C34 C36 1.353 . S
C34 H76 0.929 . S
C35 C32 1.356 . S
C35 C37 1.358 . S
C35 H77 0.930 . S
C36 N33 1.314 . S
C36 C34 1.353 . S
C36 H78 0.930 . S
C37 N33 1.279 . S
C37 C35 1.358 . S
C37 H79 0.943 . S
C38 C39 1.348 . S
C38 C40 1.356 . S
C38 O63 1.325 . S
C39 C38 1.348 . S
C39 C41 1.353 . S
C39 H80 0.929 . S
C40 C38 1.356 . S
C40 C42 1.358 . S
C40 H81 0.930 . S
C41 C39 1.353 . S
C41 N43 1.314 . S
C41 H82 0.930 . S
C42 C40 1.358 . S
C42 N43 1.279 . S
C42 H83 0.930 . S
N43 C41 1.314 . S
N43 C42 1.279 . S
C44 C46 1.353 . S
C44 N47 1.314 . S
C44 H50 0.930 . S
C45 N47 1.279 . S
C45 C48 1.358 . S
C45 H51 0.930 . S
C46 C44 1.353 . S
C46 C49 1.348 . S
C46 H84 0.929 . S
N47 Li2 1.990 . S
N47 C44 1.314 . S
N47 C45 1.279 . S
C48 C45 1.358 . S
C48 C49 1.356 . S
C48 H85 0.930 . S
C49 C46 1.348 . S
C49 C48 1.356 . S
H50 C44 0.930 . S
H51 C45 0.930 . S
C52 N53 1.314 1_655 S
C52 C54 1.353 . S
C52 H58 0.930 . S
N53 Li3 1.990 . S
N53 C52 1.314 1_455 S
N53 C56 1.279 . S
C54 C52 1.353 . S
C54 C57 1.348 1_655 S
C54 H86 0.929 . S
C55 C56 1.358 . S
C55 C57 1.356 . S
C55 H87 0.930 . S
C56 N53 1.279 . S
C56 C55 1.358 . S
C56 H59 0.930 . S
C57 C54 1.348 1_455 S
C57 C55 1.356 . S
H58 C52 0.930 . S
H59 C56 0.930 . S
O60 Li0 1.956 1_455 S
O60 Li1 1.970 . S
O60 Li2 1.961 . S
O60 C4 1.325 . S
O61 Li0 1.970 . S
O61 Li1 1.956 1_655 S
O61 Li3 1.961 1_655 S
O61 C10 1.325 . S
O62 Li0 1.961 1_455 S
O62 Li2 1.956 . S
O62 Li3 1.970 . S
O62 C32 1.325 . S
O63 Li1 1.961 . S
O63 Li2 1.970 . S
O63 Li3 1.956 . S
O63 C38 1.325 . S
H64 C6 0.929 . S
H65 C7 0.930 . S
H66 C8 0.930 . S
H67 C9 0.930 . S
H68 C11 0.930 . S
H69 C13 0.929 . S
H70 C14 0.930 . S
H71 C15 0.930 . S
H72 C18 0.930 . S
H73 C21 0.929 . S
H74 C26 0.929 . S
H75 C27 0.930 1_655 S
H76 C34 0.929 . S
H77 C35 0.930 . S
H78 C36 0.930 . S
H79 C37 0.943 . S
H80 C39 0.929 . S
H81 C40 0.930 . S
H82 C41 0.930 . S
H83 C42 0.930 . S
H84 C46 0.929 . S
H85 C48 0.930 . S
H86 C54 0.929 . S
H87 C55 0.930 . S
Li88 N105 1.990 . S
Li88 O148 1.956 . S
Li88 O149 1.970 . S
Li88 O150 1.961 1_455 S
Li89 N113 1.990 . S
Li89 O148 1.970 . S
Li89 O149 1.956 . S
Li89 O151 1.961 . S
Li90 N135 1.990 . S
Li90 O148 1.961 . S
Li90 O150 1.956 1_455 S
Li90 O151 1.970 . S
Li91 N141 1.990 . S
Li91 O149 1.961 1_655 S
Li91 O150 1.970 . S
Li91 O151 1.956 1_655 S
C92 C94 1.348 . S
C92 C95 1.356 . S
C92 O148 1.325 . S
N93 C96 1.314 . S
N93 C97 1.279 . S
C94 C92 1.348 . S
C94 C96 1.353 . S
C94 H152 0.929 . S
C95 C92 1.356 . S
C95 C97 1.358 . S
C95 H153 0.930 . S
C96 N93 1.314 . S
C96 C94 1.353 . S
C96 H154 0.930 . S
C97 N93 1.279 . S
C97 C95 1.358 . S
C97 H155 0.930 . S
C98 C101 1.348 . S
C98 C102 1.356 . S
C98 O149 1.325 . S
C99 N100 1.279 . S
C99 C102 1.358 . S
C99 H156 0.930 . S
N100 C99 1.279 . S
N100 C103 1.314 . S
C101 C98 1.348 . S
C101 C103 1.353 . S
C101 H157 0.929 . S
C102 C98 1.356 . S
C102 C99 1.358 . S
C102 H158 0.930 . S
C103 N100 1.314 . S
C103 C101 1.353 . S
C103 H159 0.930 . S
C104 N105 1.314 1_655 S
C104 C109 1.353 . S
C104 H110 0.930 . S
N105 Li88 1.990 . S
N105 C104 1.314 1_455 S
N105 C107 1.279 . S
C106 C107 1.358 . S
C106 C108 1.356 . S
C106 H160 0.930 . S
C107 N105 1.279 . S
C107 C106 1.358 . S
C107 H111 0.930 . S
C108 C106 1.356 . S
C108 C109 1.348 1_455 S
C109 C104 1.353 . S
C109 C108 1.348 1_655 S
C109 H161 0.929 . S
H110 C104 0.930 . S
H111 C107 0.930 . S
C112 N113 1.314 . S
C112 C114 1.353 . S
C112 H118 0.930 . S
N113 Li89 1.990 . S
N113 C112 1.314 . S
N113 C116 1.279 . S
C114 C112 1.353 . S
C114 C117 1.348 . S
C114 H162 0.929 . S
C115 C116 1.358 . S
C115 C117 1.356 . S
C115 H163 0.930 . S
C116 N113 1.279 . S
C116 C115 1.358 . S
C116 H119 0.930 . S
C117 C114 1.348 . S
C117 C115 1.356 . S
H118 C112 0.930 . S
H119 C116 0.930 . S
C120 C122 1.348 . S
C120 C123 1.356 . S
C120 O150 1.325 . S
N121 C124 1.314 . S
N121 C125 1.279 . S
C122 C120 1.348 . S
C122 C124 1.353 . S
C122 H164 0.929 . S
C123 C120 1.356 . S
C123 C125 1.358 . S
C123 H165 0.930 . S
C124 N121 1.314 . S
C124 C122 1.353 . S
C124 H166 0.930 . S
C125 N121 1.279 . S
C125 C123 1.358 . S
C125 H167 0.930 . S
C126 C127 1.344 1_455 S
C126 C128 1.356 . S
C126 O151 1.325 . S
C127 C126 1.344 1_655 S
C127 C129 1.352 . S
C127 H168 0.935 . S
C128 C126 1.356 . S
C128 C130 1.358 . S
C128 H169 0.930 . S
C129 C127 1.352 . S
C129 N131 1.314 1_655 S
C129 H170 0.930 . S
C130 C128 1.358 . S
C130 N131 1.279 . S
C130 H171 0.930 . S
N131 C129 1.314 1_455 S
N131 C130 1.279 . S
C132 C134 1.353 . S
C132 N135 1.314 . S
C132 H138 0.930 . S
C133 N135 1.279 1_655 S
C133 C136 1.358 . S
C133 H139 0.930 . S
C134 C132 1.353 . S
C134 C137 1.371 . S
C134 H172 0.929 . S
N135 Li90 1.990 . S
N135 C132 1.314 . S
N135 C133 1.279 1_455 S
C136 C133 1.358 . S
C136 C137 1.330 1_655 S
C136 H173 0.930 . S
C137 C134 1.371 . S
C137 C136 1.330 1_455 S
H138 C132 0.930 . S
H139 C133 0.930 . S
C140 N141 1.314 . S
C140 C142 1.353 . S
C140 H146 0.930 . S
N141 Li91 1.990 . S
N141 C140 1.314 . S
N141 C144 1.279 . S
C142 C140 1.353 . S
C142 C145 1.348 . S
C142 H174 0.929 . S
C143 C144 1.358 . S
C143 C145 1.356 . S
C143 H175 0.930 . S
C144 N141 1.279 . S
C144 C143 1.358 . S
C144 H147 0.930 . S
C145 C142 1.348 . S
C145 C143 1.356 . S
H146 C140 0.930 . S
H147 C144 0.930 . S
O148 Li88 1.956 . S
O148 Li89 1.970 . S
O148 Li90 1.961 . S
O148 C92 1.325 . S
O149 Li88 1.970 . S
O149 Li89 1.956 . S
O149 Li91 1.961 1_455 S
O149 C98 1.325 . S
O150 Li88 1.961 1_655 S
O150 Li90 1.956 1_655 S
O150 Li91 1.970 . S
O150 C120 1.325 . S
O151 Li89 1.961 . S
O151 Li90 1.970 . S
O151 Li91 1.956 1_455 S
O151 C126 1.325 . S
H152 C94 0.929 . S
H153 C95 0.930 . S
H154 C96 0.930 . S
H155 C97 0.930 . S
H156 C99 0.930 . S
H157 C101 0.929 . S
H158 C102 0.930 . S
H159 C103 0.930 . S
H160 C106 0.930 . S
H161 C109 0.929 . S
H162 C114 0.929 . S
H163 C115 0.930 . S
H164 C122 0.929 . S
H165 C123 0.930 . S
H166 C124 0.930 . S
H167 C125 0.930 . S
H168 C127 0.935 . S
H169 C128 0.930 . S
H170 C129 0.930 . S
H171 C130 0.930 . S
H172 C134 0.929 . S
H173 C136 0.930 . S
H174 C142 0.929 . S
H175 C143 0.930 . S
Li176 N193 1.990 . S
Li176 O236 1.956 . S
Li176 O237 1.970 . S
Li176 O238 1.961 . S
Li177 N201 1.990 . S
Li177 O236 1.970 . S
Li177 O237 1.956 . S
Li177 O239 1.961 . S
Li178 N223 1.990 . S
Li178 O236 1.961 . S
Li178 O238 1.956 . S
Li178 O239 1.970 . S
Li179 N229 1.990 . S
Li179 O237 1.961 . S
Li179 O238 1.970 . S
Li179 O239 1.956 . S
C180 C182 1.348 . S
C180 C183 1.356 . S
C180 O236 1.325 . S
N181 C184 1.314 . S
N181 C185 1.279 . S
C182 C180 1.348 . S
C182 C184 1.353 . S
C182 H240 0.929 . S
C183 C180 1.356 . S
C183 C185 1.358 . S
C183 H241 0.930 . S
C184 N181 1.314 . S
C184 C182 1.353 . S
C184 H242 0.930 . S
C185 N181 1.279 . S
C185 C183 1.358 . S
C185 H243 0.930 . S
C186 C189 1.348 . S
C186 C190 1.356 . S
C186 O237 1.325 . S
C187 N188 1.279 . S
C187 C190 1.358 . S
C187 H244 0.930 . S
N188 C187 1.279 . S
N188 C191 1.314 . S
C189 C186 1.348 . S
C189 C191 1.353 . S
C189 H245 0.929 . S
C190 C186 1.356 . S
C190 C187 1.358 . S
C190 H246 0.930 . S
C191 N188 1.314 . S
C191 C189 1.353 . S
C191 H247 0.930 . S
C192 N193 1.314 . S
C192 C197 1.353 . S
C192 H198 0.930 . S
N193 Li176 1.990 . S
N193 C192 1.314 . S
N193 C195 1.279 . S
C194 C195 1.358 . S
C194 C196 1.356 . S
C194 H248 0.930 . S
C195 N193 1.279 . S
C195 C194 1.358 . S
C195 H199 0.930 . S
C196 C194 1.356 . S
C196 C197 1.348 . S
C197 C192 1.353 . S
C197 C196 1.348 . S
C197 H249 0.929 . S
H198 C192 0.930 . S
H199 C195 0.930 . S
C200 N201 1.314 . S
C200 C202 1.353 . S
C200 H206 0.930 . S
N201 Li177 1.990 . S
N201 C200 1.314 . S
N201 C204 1.279 . S
C202 C200 1.353 . S
C202 C205 1.348 . S
C202 H250 0.929 . S
C203 C204 1.358 . S
C203 C205 1.356 . S
C203 H251 0.930 . S
C204 N201 1.279 . S
C204 C203 1.358 . S
C204 H207 0.930 . S
C205 C202 1.348 . S
C205 C203 1.356 . S
H206 C200 0.930 . S
H207 C204 0.930 . S
C208 C210 1.348 . S
C208 C211 1.356 . S
C208 O238 1.325 . S
N209 C212 1.314 . S
N209 C213 1.279 . S
C210 C208 1.348 . S
C210 C212 1.353 . S
C210 H252 0.929 . S
C211 C208 1.356 . S
C211 C213 1.358 . S
C211 H253 0.930 . S
C212 N209 1.314 . S
C212 C210 1.353 . S
C212 H254 0.930 . S
C213 N209 1.279 . S
C213 C211 1.358 . S
C213 H255 0.930 . S
C214 C215 1.348 . S
C214 C216 1.356 . S
C214 O239 1.325 . S
C215 C214 1.348 . S
C215 C217 1.353 . S
C215 H256 0.929 . S
C216 C214 1.356 . S
C216 C218 1.358 . S
C216 H257 0.930 . S
C217 C215 1.353 . S
C217 N219 1.314 . S
C217 H258 0.930 . S
C218 C216 1.358 . S
C218 N219 1.279 . S
C218 H259 0.930 . S
N219 C217 1.314 . S
N219 C218 1.279 . S
C220 C222 1.353 . S
C220 N223 1.314 . S
C220 H226 0.930 . S
C221 N223 1.279 . S
C221 C224 1.358 . S
C221 H227 0.930 . S
C222 C220 1.353 . S
C222 C225 1.348 . S
C222 H260 0.929 . S
N223 Li178 1.990 . S
N223 C220 1.314 . S
N223 C221 1.279 . S
C224 C221 1.358 . S
C224 C225 1.356 . S
C224 H261 0.930 . S
C225 C222 1.348 . S
C225 C224 1.356 . S
H226 C220 0.930 . S
H227 C221 0.930 . S
C228 N229 1.314 . S
C228 C230 1.353 . S
C228 H234 0.930 . S
N229 Li179 1.990 . S
N229 C228 1.314 . S
N229 C232 1.279 . S
C230 C228 1.353 . S
C230 C233 1.348 . S
C230 H262 0.929 . S
C231 C232 1.358 . S
C231 C233 1.356 . S
C231 H263 0.930 . S
C232 N229 1.279 . S
C232 C231 1.358 . S
C232 H235 0.930 . S
C233 C230 1.348 . S
C233 C231 1.356 . S
H234 C228 0.930 . S
H235 C232 0.930 . S
O236 Li176 1.956 . S
O236 Li177 1.970 . S
O236 Li178 1.961 . S
O236 C180 1.325 . S
O237 Li176 1.970 . S
O237 Li177 1.956 . S
O237 Li179 1.961 . S
O237 C186 1.325 . S
O238 Li176 1.961 . S
O238 Li178 1.956 . S
O238 Li179 1.970 . S
O238 C208 1.325 . S
O239 Li177 1.961 . S
O239 Li178 1.970 . S
O239 Li179 1.956 . S
O239 C214 1.325 . S
H240 C182 0.929 . S
H241 C183 0.930 . S
H242 C184 0.930 . S
H243 C185 0.930 . S
H244 C187 0.930 . S
H245 C189 0.929 . S
H246 C190 0.930 . S
H247 C191 0.930 . S
H248 C194 0.930 . S
H249 C197 0.929 . S
H250 C202 0.929 . S
H251 C203 0.930 . S
H252 C210 0.929 . S
H253 C211 0.930 . S
H254 C212 0.930 . S
H255 C213 0.930 . S
H256 C215 0.929 . S
H257 C216 0.930 . S
H258 C217 0.930 . S
H259 C218 0.930 . S
H260 C222 0.929 . S
H261 C224 0.930 . S
H262 C230 0.929 . S
H263 C231 0.930 . S
Li264 N281 1.990 . S
Li264 O324 1.956 . S
Li264 O325 1.970 . S
Li264 O326 1.961 . S
Li265 N289 1.990 . S
Li265 O324 1.970 . S
Li265 O325 1.956 . S
Li265 O327 1.961 . S
Li266 N311 1.990 . S
Li266 O324 1.961 . S
Li266 O326 1.956 . S
Li266 O327 1.970 . S
Li267 N317 1.990 . S
Li267 O325 1.961 . S
Li267 O326 1.970 . S
Li267 O327 1.956 . S
C268 C270 1.348 . S
C268 C271 1.356 . S
C268 O324 1.325 . S
N269 C272 1.314 . S
N269 C273 1.279 . S
C270 C268 1.348 . S
C270 C272 1.353 . S
C270 H328 0.929 . S
C271 C268 1.356 . S
C271 C273 1.358 . S
C271 H329 0.930 . S
C272 N269 1.314 . S
C272 C270 1.353 . S
C272 H330 0.930 . S
C273 N269 1.279 . S
C273 C271 1.358 . S
C273 H331 0.930 . S
C274 C277 1.348 . S
C274 C278 1.356 . S
C274 O325 1.325 . S
C275 N276 1.279 . S
C275 C278 1.358 . S
C275 H332 0.930 . S
N276 C275 1.279 . S
N276 C279 1.314 . S
C277 C274 1.348 . S
C277 C279 1.353 . S
C277 H333 0.929 . S
C278 C274 1.356 . S
C278 C275 1.358 . S
C278 H334 0.930 . S
C279 N276 1.314 . S
C279 C277 1.353 . S
C279 H335 0.930 . S
C280 N281 1.314 . S
C280 C285 1.353 . S
C280 H286 0.930 . S
N281 Li264 1.990 . S
N281 C280 1.314 . S
N281 C283 1.279 . S
C282 C283 1.358 . S
C282 C284 1.356 . S
C282 H336 0.930 . S
C283 N281 1.279 . S
C283 C282 1.358 . S
C283 H287 0.930 . S
C284 C282 1.356 . S
C284 C285 1.348 . S
C285 C280 1.353 . S
C285 C284 1.348 . S
C285 H337 0.929 . S
H286 C280 0.930 . S
H287 C283 0.930 . S
C288 N289 1.314 . S
C288 C290 1.353 . S
C288 H294 0.930 . S
N289 Li265 1.990 . S
N289 C288 1.314 . S
N289 C292 1.279 . S
C290 C288 1.353 . S
C290 C293 1.348 . S
C290 H338 0.929 . S
C291 C292 1.358 . S
C291 C293 1.356 . S
C291 H339 0.930 . S
C292 N289 1.279 . S
C292 C291 1.358 . S
C292 H295 0.930 . S
C293 C290 1.348 . S
C293 C291 1.356 . S
H294 C288 0.930 . S
H295 C292 0.930 . S
C296 C298 1.348 . S
C296 C299 1.356 . S
C296 O326 1.325 . S
N297 C300 1.314 . S
N297 C301 1.279 . S
C298 C296 1.348 . S
C298 C300 1.353 . S
C298 H340 0.929 . S
C299 C296 1.356 . S
C299 C301 1.358 . S
C299 H341 0.930 . S
C300 N297 1.314 . S
C300 C298 1.353 . S
C300 H342 0.930 . S
C301 N297 1.279 . S
C301 C299 1.358 . S
C301 H343 0.930 . S
C302 C303 1.348 . S
C302 C304 1.356 . S
C302 O327 1.325 . S
C303 C302 1.348 . S
C303 C305 1.353 . S
C303 H344 0.929 . S
C304 C302 1.356 . S
C304 C306 1.358 . S
C304 H345 0.930 . S
C305 C303 1.353 . S
C305 N307 1.314 . S
C305 H346 0.930 . S
C306 C304 1.358 . S
C306 N307 1.279 . S
C306 H347 0.930 . S
N307 C305 1.314 . S
N307 C306 1.279 . S
C308 C310 1.353 . S
C308 N311 1.314 . S
C308 H314 0.930 . S
C309 N311 1.279 . S
C309 C312 1.358 . S
C309 H315 0.930 . S
C310 C308 1.353 . S
C310 C313 1.348 . S
C310 H348 0.929 . S
N311 Li266 1.990 . S
N311 C308 1.314 . S
N311 C309 1.279 . S
C312 C309 1.358 . S
C312 C313 1.356 . S
C312 H349 0.930 . S
C313 C310 1.348 . S
C313 C312 1.356 . S
H314 C308 0.930 . S
H315 C309 0.930 . S
C316 N317 1.314 . S
C316 C318 1.353 . S
C316 H322 0.930 . S
N317 Li267 1.990 . S
N317 C316 1.314 . S
N317 C320 1.279 . S
C318 C316 1.353 . S
C318 C321 1.348 . S
C318 H350 0.929 . S
C319 C320 1.358 . S
C319 C321 1.356 . S
C319 H351 0.930 . S
C320 N317 1.279 . S
C320 C319 1.358 . S
C320 H323 0.930 . S
C321 C318 1.348 . S
C321 C319 1.356 . S
H322 C316 0.930 . S
H323 C320 0.930 . S
O324 Li264 1.956 . S
O324 Li265 1.970 . S
O324 Li266 1.961 . S
O324 C268 1.325 . S
O325 Li264 1.970 . S
O325 Li265 1.956 . S
O325 Li267 1.961 . S
O325 C274 1.325 . S
O326 Li264 1.961 . S
O326 Li266 1.956 . S
O326 Li267 1.970 . S
O326 C296 1.325 . S
O327 Li265 1.961 . S
O327 Li266 1.970 . S
O327 Li267 1.956 . S
O327 C302 1.325 . S
H328 C270 0.929 . S
H329 C271 0.930 . S
H330 C272 0.930 . S
H331 C273 0.930 . S
H332 C275 0.930 . S
H333 C277 0.929 . S
H334 C278 0.930 . S
H335 C279 0.930 . S
H336 C282 0.930 . S
H337 C285 0.929 . S
H338 C290 0.929 . S
H339 C291 0.930 . S
H340 C298 0.929 . S
H341 C299 0.930 . S
H342 C300 0.930 . S
H343 C301 0.930 . S
H344 C303 0.929 . S
H345 C304 0.930 . S
H346 C305 0.930 . S
H347 C306 0.930 . S
H348 C310 0.929 . S
H349 C312 0.930 . S
H350 C318 0.929 . S
H351 C319 0.930 . S
Li352 N369 1.990 . S
Li352 O412 1.956 . S
Li352 O413 1.970 . S
Li352 O414 1.961 1_455 S
Li353 N377 1.990 . S
Li353 O412 1.970 . S
Li353 O413 1.956 . S
Li353 O415 1.961 . S
Li354 N399 1.990 . S
Li354 O412 1.961 . S
Li354 O414 1.956 1_455 S
Li354 O415 1.970 . S
Li355 N405 1.940 1_455 S
Li355 O413 1.998 . S
Li355 O414 1.968 1_455 S
Li355 O415 2.004 . S
C356 C358 1.348 . S
C356 C359 1.356 . S
C356 O412 1.325 . S
N357 C360 1.314 . S
N357 C361 1.279 . S
C358 C356 1.348 . S
C358 C360 1.353 . S
C358 H416 0.929 . S
C359 C356 1.356 . S
C359 C361 1.358 . S
C359 H417 0.930 . S
C360 N357 1.314 . S
C360 C358 1.353 . S
C360 H418 0.930 . S
C361 N357 1.279 . S
C361 C359 1.358 . S
C361 H419 0.930 . S
C362 C365 1.348 . S
C362 C366 1.356 . S
C362 O413 1.325 . S
C363 N364 1.279 . S
C363 C366 1.358 . S
C363 H420 0.930 . S
N364 C363 1.279 . S
N364 C367 1.314 . S
C365 C362 1.348 . S
C365 C367 1.353 . S
C365 H421 0.929 . S
C366 C362 1.356 . S
C366 C363 1.358 . S
C366 H422 0.930 . S
C367 N364 1.314 . S
C367 C365 1.353 . S
C367 H423 0.930 . S
C368 N369 1.314 . S
C368 C373 1.353 . S
C368 H374 0.930 1_455 S
N369 Li352 1.990 . S
N369 C368 1.314 . S
N369 C371 1.279 . S
C370 C371 1.358 . S
C370 C372 1.356 . S
C370 H424 0.930 . S
C371 N369 1.279 . S
C371 C370 1.358 . S
C371 H375 0.930 . S
C372 C370 1.356 . S
C372 C373 1.348 . S
C373 C368 1.353 . S
C373 C372 1.348 . S
C373 H425 0.929 1_455 S
H374 C368 0.930 1_655 S
H375 C371 0.930 . S
C376 N377 1.314 . S
C376 C378 1.353 . S
C376 H382 0.930 . S
N377 Li353 1.990 . S
N377 C376 1.314 . S
N377 C380 1.279 . S
C378 C376 1.353 . S
C378 C381 1.348 . S
C378 H426 0.929 . S
C379 C380 1.358 . S
C379 C381 1.356 . S
C379 H427 0.930 . S
C380 N377 1.279 . S
C380 C379 1.358 . S
C380 H383 0.930 . S
C381 C378 1.348 . S
C381 C379 1.356 . S
H382 C376 0.930 . S
H383 C380 0.930 . S
C384 C386 1.348 . S
C384 C387 1.356 . S
C384 O414 1.325 . S
N385 C388 1.314 . S
N385 C389 1.279 . S
C386 C384 1.348 . S
C386 C388 1.353 . S
C386 H428 0.929 . S
C387 C384 1.356 . S
C387 C389 1.358 . S
C387 H429 0.930 . S
C388 N385 1.314 . S
C388 C386 1.353 . S
C388 H430 0.930 . S
C389 N385 1.279 . S
C389 C387 1.358 . S
C389 H431 0.930 . S
C390 C391 1.348 . S
C390 C392 1.356 . S
C390 O415 1.325 . S
C391 C390 1.348 . S
C391 C393 1.353 . S
C391 H432 0.929 . S
C392 C390 1.356 . S
C392 C394 1.358 . S
C392 H433 0.930 . S
C393 C391 1.353 . S
C393 N395 1.314 . S
C393 H434 0.930 . S
C394 C392 1.358 . S
C394 N395 1.279 . S
C394 H435 0.930 . S
N395 C393 1.314 . S
N395 C394 1.279 . S
C396 C398 1.353 . S
C396 N399 1.314 . S
C396 H402 0.930 . S
C397 N399 1.279 1_655 S
C397 C400 1.358 . S
C397 H403 0.930 . S
C398 C396 1.353 . S
C398 C401 1.348 . S
C398 H436 0.929 . S
N399 Li354 1.990 . S
N399 C396 1.314 . S
N399 C397 1.279 1_455 S
C400 C397 1.358 . S
C400 C401 1.356 1_655 S
C400 H437 0.930 . S
C401 C398 1.348 . S
C401 C400 1.356 1_455 S
H402 C396 0.930 . S
H403 C397 0.930 . S
C404 N405 1.314 . S
C404 C406 1.353 . S
C404 H410 0.930 . S
N405 Li355 1.940 1_655 S
N405 C404 1.314 . S
N405 C408 1.279 . S
C406 C404 1.353 . S
C406 C409 1.348 . S
C406 H438 0.929 . S
C407 C408 1.358 . S
C407 C409 1.356 . S
C407 H439 0.930 . S
C408 N405 1.279 . S
C408 C407 1.358 . S
C408 H411 0.930 . S
C409 C406 1.348 . S
C409 C407 1.356 . S
H410 C404 0.930 . S
H411 C408 0.930 . S
O412 Li352 1.956 . S
O412 Li353 1.970 . S
O412 Li354 1.961 . S
O412 C356 1.325 . S
O413 Li352 1.970 . S
O413 Li353 1.956 . S
O413 Li355 1.998 . S
O413 C362 1.325 . S
O414 Li352 1.961 1_655 S
O414 Li354 1.956 1_655 S
O414 Li355 1.968 1_655 S
O414 C384 1.325 . S
O415 Li353 1.961 . S
O415 Li354 1.970 . S
O415 Li355 2.004 . S
O415 C390 1.325 . S
H416 C358 0.929 . S
H417 C359 0.930 . S
H418 C360 0.930 . S
H419 C361 0.930 . S
H420 C363 0.930 . S
H421 C365 0.929 . S
H422 C366 0.930 . S
H423 C367 0.930 . S
H424 C370 0.930 . S
H425 C373 0.929 1_655 S
H426 C378 0.929 . S
H427 C379 0.930 . S
H428 C386 0.929 . S
H429 C387 0.930 . S
H430 C388 0.930 . S
H431 C389 0.930 . S
H432 C391 0.929 . S
H433 C392 0.930 . S
H434 C393 0.930 . S
H435 C394 0.930 . S
H436 C398 0.929 . S
H437 C400 0.930 . S
H438 C406 0.929 . S
H439 C407 0.930 . S
Li440 N457 1.990 . S
Li440 O500 1.956 . S
Li440 O501 1.970 . S
Li440 O502 1.961 . S
Li441 N465 1.990 . S
Li441 O500 1.970 . S
Li441 O501 1.956 . S
Li441 O503 1.961 . S
Li442 N487 1.990 . S
Li442 O500 1.961 . S
Li442 O502 1.956 . S
Li442 O503 1.970 . S
Li443 N493 1.990 . S
Li443 O501 1.961 . S
Li443 O502 1.970 . S
Li443 O503 1.956 . S
C444 C446 1.348 . S
C444 C447 1.356 . S
C444 O500 1.325 . S
N445 C448 1.314 . S
N445 C449 1.279 . S
C446 C444 1.348 . S
C446 C448 1.353 . S
C446 H504 0.929 . S
C447 C444 1.356 . S
C447 C449 1.358 . S
C447 H505 0.930 . S
C448 N445 1.314 . S
C448 C446 1.353 . S
C448 H506 0.930 . S
C449 N445 1.279 . S
C449 C447 1.358 . S
C449 H507 0.930 . S
C450 C453 1.348 . S
C450 C454 1.356 . S
C450 O501 1.325 . S
C451 N452 1.279 . S
C451 C454 1.358 . S
C451 H508 0.930 . S
N452 C451 1.279 . S
N452 C455 1.314 . S
C453 C450 1.348 . S
C453 C455 1.353 . S
C453 H509 0.929 . S
C454 C450 1.356 . S
C454 C451 1.358 . S
C454 H510 0.930 . S
C455 N452 1.314 . S
C455 C453 1.353 . S
C455 H511 0.930 . S
C456 N457 1.314 . S
C456 C461 1.353 . S
C456 H462 0.930 . S
N457 Li440 1.990 . S
N457 C456 1.314 . S
N457 C459 1.279 . S
C458 C459 1.358 . S
C458 C460 1.356 . S
C458 H512 0.930 . S
C459 N457 1.279 . S
C459 C458 1.358 . S
C459 H463 0.930 . S
C460 C458 1.356 . S
C460 C461 1.348 . S
C461 C456 1.353 . S
C461 C460 1.348 . S
C461 H513 0.929 . S
H462 C456 0.930 . S
H463 C459 0.930 . S
C464 N465 1.314 . S
C464 C466 1.353 . S
C464 H470 0.930 . S
N465 Li441 1.990 . S
N465 C464 1.314 . S
N465 C468 1.279 . S
C466 C464 1.353 . S
C466 C469 1.348 . S
C466 H514 0.929 . S
C467 C468 1.358 . S
C467 C469 1.356 . S
C467 H515 0.930 . S
C468 N465 1.279 . S
C468 C467 1.358 . S
C468 H471 0.930 . S
C469 C466 1.348 . S
C469 C467 1.356 . S
H470 C464 0.930 . S
H471 C468 0.930 . S
C472 C474 1.348 . S
C472 C475 1.356 . S
C472 O502 1.325 . S
N473 C476 1.314 . S
N473 C477 1.279 . S
C474 C472 1.348 . S
C474 C476 1.353 . S
C474 H516 0.929 . S
C475 C472 1.356 . S
C475 C477 1.358 . S
C475 H517 0.930 . S
C476 N473 1.314 . S
C476 C474 1.353 . S
C476 H518 0.930 . S
C477 N473 1.279 . S
C477 C475 1.358 . S
C477 H519 0.930 . S
C478 C479 1.348 . S
C478 C480 1.356 . S
C478 O503 1.325 . S
C479 C478 1.348 . S
C479 C481 1.353 . S
C479 H520 0.929 . S
C480 C478 1.356 . S
C480 C482 1.358 . S
C480 H521 0.930 . S
C481 C479 1.353 . S
C481 N483 1.314 . S
C481 H522 0.930 . S
C482 C480 1.358 . S
C482 N483 1.279 . S
C482 H523 0.930 . S
N483 C481 1.314 . S
N483 C482 1.279 . S
C484 C486 1.353 . S
C484 N487 1.314 . S
C484 H490 0.930 . S
C485 N487 1.279 . S
C485 C488 1.358 . S
C485 H491 0.930 . S
C486 C484 1.353 . S
C486 C489 1.348 . S
C486 H524 0.929 . S
N487 Li442 1.990 . S
N487 C484 1.314 . S
N487 C485 1.279 . S
C488 C485 1.358 . S
C488 C489 1.356 . S
C488 H525 0.930 . S
C489 C486 1.348 . S
C489 C488 1.356 . S
H490 C484 0.930 . S
H491 C485 0.930 . S
C492 N493 1.314 . S
C492 C494 1.353 . S
C492 H498 0.930 . S
N493 Li443 1.990 . S
N493 C492 1.314 . S
N493 C496 1.279 . S
C494 C492 1.353 . S
C494 C497 1.348 . S
C494 H526 0.929 . S
C495 C496 1.358 . S
C495 C497 1.356 . S
C495 H527 0.930 . S
C496 N493 1.279 . S
C496 C495 1.358 . S
C496 H499 0.930 . S
C497 C494 1.348 . S
C497 C495 1.356 . S
H498 C492 0.930 . S
H499 C496 0.930 . S
O500 Li440 1.956 . S
O500 Li441 1.970 . S
O500 Li442 1.961 . S
O500 C444 1.325 . S
O501 Li440 1.970 . S
O501 Li441 1.956 . S
O501 Li443 1.961 . S
O501 C450 1.325 . S
O502 Li440 1.961 . S
O502 Li442 1.956 . S
O502 Li443 1.970 . S
O502 C472 1.325 . S
O503 Li441 1.961 . S
O503 Li442 1.970 . S
O503 Li443 1.956 . S
O503 C478 1.325 . S
H504 C446 0.929 . S
H505 C447 0.930 . S
H506 C448 0.930 . S
H507 C449 0.930 . S
H508 C451 0.930 . S
H509 C453 0.929 . S
H510 C454 0.930 . S
H511 C455 0.930 . S
H512 C458 0.930 . S
H513 C461 0.929 . S
H514 C466 0.929 . S
H515 C467 0.930 . S
H516 C474 0.929 . S
H517 C475 0.930 . S
H518 C476 0.930 . S
H519 C477 0.930 . S
H520 C479 0.929 . S
H521 C480 0.930 . S
H522 C481 0.930 . S
H523 C482 0.930 . S
H524 C486 0.929 . S
H525 C488 0.930 . S
H526 C494 0.929 . S
H527 C495 0.930 . S
Li528 N545 1.990 . S
Li528 O588 1.956 . S
Li528 O589 1.970 . S
Li528 O590 1.961 . S
Li529 N553 1.990 . S
Li529 O588 1.970 . S
Li529 O589 1.956 . S
Li529 O591 1.961 . S
Li530 N575 1.990 . S
Li530 O588 1.961 . S
Li530 O590 1.956 . S
Li530 O591 1.970 . S
Li531 N581 1.990 . S
Li531 O589 1.961 . S
Li531 O590 1.970 . S
Li531 O591 1.956 . S
C532 C534 1.348 . S
C532 C535 1.356 . S
C532 O588 1.325 . S
N533 C536 1.314 . S
N533 C537 1.279 . S
C534 C532 1.348 . S
C534 C536 1.353 . S
C534 H592 0.929 . S
C535 C532 1.356 . S
C535 C537 1.358 . S
C535 H593 0.930 . S
C536 N533 1.314 . S
C536 C534 1.353 . S
C536 H594 0.930 . S
C537 N533 1.279 . S
C537 C535 1.358 . S
C537 H595 0.930 . S
C538 C541 1.348 . S
C538 C542 1.356 . S
C538 O589 1.325 . S
C539 N540 1.279 . S
C539 C542 1.358 . S
C539 H596 0.930 . S
N540 C539 1.279 . S
N540 C543 1.314 . S
C541 C538 1.348 . S
C541 C543 1.353 . S
C541 H597 0.929 . S
C542 C538 1.356 . S
C542 C539 1.358 . S
C542 H598 0.930 . S
C543 N540 1.314 . S
C543 C541 1.353 . S
C543 H599 0.930 . S
C544 N545 1.314 . S
C544 C549 1.353 . S
C544 H550 0.930 . S
N545 Li528 1.990 . S
N545 C544 1.314 . S
N545 C547 1.279 . S
C546 C547 1.358 . S
C546 C548 1.356 . S
C546 H600 0.930 . S
C547 N545 1.279 . S
C547 C546 1.358 . S
C547 H551 0.930 . S
C548 C546 1.356 . S
C548 C549 1.348 . S
C549 C544 1.353 . S
C549 C548 1.348 . S
C549 H601 0.929 . S
H550 C544 0.930 . S
H551 C547 0.930 . S
C552 N553 1.314 . S
C552 C554 1.353 . S
C552 H558 0.930 . S
N553 Li529 1.990 . S
N553 C552 1.314 . S
N553 C556 1.279 . S
C554 C552 1.353 . S
C554 C557 1.348 . S
C554 H602 0.929 . S
C555 C556 1.358 . S
C555 C557 1.356 . S
C555 H603 0.930 . S
C556 N553 1.279 . S
C556 C555 1.358 . S
C556 H559 0.930 . S
C557 C554 1.348 . S
C557 C555 1.356 . S
H558 C552 0.930 . S
H559 C556 0.930 . S
C560 C562 1.348 . S
C560 C563 1.356 . S
C560 O590 1.325 . S
N561 C564 1.314 . S
N561 C565 1.279 . S
C562 C560 1.348 . S
C562 C564 1.353 . S
C562 H604 0.929 . S
C563 C560 1.356 . S
C563 C565 1.358 . S
C563 H605 0.930 . S
C564 N561 1.314 . S
C564 C562 1.353 . S
C564 H606 0.930 . S
C565 N561 1.279 . S
C565 C563 1.358 . S
C565 H607 0.930 . S
C566 C567 1.348 . S
C566 C568 1.356 . S
C566 O591 1.325 . S
C567 C566 1.348 . S
C567 C569 1.353 . S
C567 H608 0.929 . S
C568 C566 1.356 . S
C568 C570 1.358 . S
C568 H609 0.930 . S
C569 C567 1.353 . S
C569 N571 1.314 . S
C569 H610 0.930 . S
C570 C568 1.358 . S
C570 N571 1.279 . S
C570 H611 0.930 . S
N571 C569 1.314 . S
N571 C570 1.279 . S
C572 C574 1.353 . S
C572 N575 1.314 . S
C572 H578 0.930 . S
C573 N575 1.279 . S
C573 C576 1.358 . S
C573 H579 0.930 . S
C574 C572 1.353 . S
C574 C577 1.348 . S
C574 H612 0.929 . S
N575 Li530 1.990 . S
N575 C572 1.314 . S
N575 C573 1.279 . S
C576 C573 1.358 . S
C576 C577 1.356 . S
C576 H613 0.930 . S
C577 C574 1.348 . S
C577 C576 1.356 . S
H578 C572 0.930 . S
H579 C573 0.930 . S
C580 N581 1.314 . S
C580 C582 1.353 . S
C580 H586 0.930 . S
N581 Li531 1.990 . S
N581 C580 1.314 . S
N581 C584 1.279 . S
C582 C580 1.353 . S
C582 C585 1.348 . S
C582 H614 0.929 . S
C583 C584 1.358 . S
C583 C585 1.356 . S
C583 H615 0.930 . S
C584 N581 1.279 . S
C584 C583 1.358 . S
C584 H587 0.930 . S
C585 C582 1.348 . S
C585 C583 1.356 . S
H586 C580 0.930 . S
H587 C584 0.930 . S
O588 Li528 1.956 . S
O588 Li529 1.970 . S
O588 Li530 1.961 . S
O588 C532 1.325 . S
O589 Li528 1.970 . S
O589 Li529 1.956 . S
O589 Li531 1.961 . S
O589 C538 1.325 . S
O590 Li528 1.961 . S
O590 Li530 1.956 . S
O590 Li531 1.970 . S
O590 C560 1.325 . S
O591 Li529 1.961 . S
O591 Li530 1.970 . S
O591 Li531 1.956 . S
O591 C566 1.325 . S
H592 C534 0.929 . S
H593 C535 0.930 . S
H594 C536 0.930 . S
H595 C537 0.930 . S
H596 C539 0.930 . S
H597 C541 0.929 . S
H598 C542 0.930 . S
H599 C543 0.930 . S
H600 C546 0.930 . S
H601 C549 0.929 . S
H602 C554 0.929 . S
H603 C555 0.930 . S
H604 C562 0.929 . S
H605 C563 0.930 . S
H606 C564 0.930 . S
H607 C565 0.930 . S
H608 C567 0.929 . S
H609 C568 0.930 . S
H610 C569 0.930 . S
H611 C570 0.930 . S
H612 C574 0.929 . S
H613 C576 0.930 . S
H614 C582 0.929 . S
H615 C583 0.930 . S
Li616 N633 1.990 . S
Li616 O676 1.956 1_455 S
Li616 O677 1.970 . S
Li616 O678 1.961 . S
Li617 N641 1.990 . S
Li617 O676 1.970 . S
Li617 O677 1.956 1_655 S
Li617 O679 1.930 1_655 S
Li618 N663 1.990 . S
Li618 O676 1.961 1_455 S
Li618 O678 1.956 . S
Li618 O679 1.971 . S
Li619 N669 1.990 . S
Li619 O677 1.961 . S
Li619 O678 1.970 . S
Li619 O679 1.984 . S
C620 C622 1.348 . S
C620 C623 1.356 . S
C620 O676 1.325 . S
N621 C624 1.314 . S
N621 C625 1.279 . S
C622 C620 1.348 . S
C622 C624 1.353 . S
C622 H680 0.929 . S
C623 C620 1.356 . S
C623 C625 1.358 . S
C623 H681 0.930 . S
C624 N621 1.314 . S
C624 C622 1.353 . S
C624 H682 0.930 . S
C625 N621 1.279 . S
C625 C623 1.358 . S
C625 H683 0.930 . S
C626 C629 1.348 . S
C626 C630 1.356 . S
C626 O677 1.325 . S
C627 N628 1.279 . S
C627 C630 1.358 . S
C627 H684 0.930 . S
N628 C627 1.279 . S
N628 C631 1.314 . S
C629 C626 1.348 . S
C629 C631 1.353 . S
C629 H685 0.912 1_455 S
C630 C626 1.356 . S
C630 C627 1.358 . S
C630 H686 0.930 . S
C631 N628 1.314 . S
C631 C629 1.353 . S
C631 H687 0.953 . S
C632 N633 1.314 . S
C632 C637 1.353 . S
C632 H638 0.930 . S
N633 Li616 1.990 . S
N633 C632 1.314 . S
N633 C635 1.279 1_455 S
C634 C635 1.358 . S
C634 C636 1.356 1_655 S
C634 H688 0.930 . S
C635 N633 1.279 1_655 S
C635 C634 1.358 . S
C635 H639 0.930 . S
C636 C634 1.356 1_455 S
C636 C637 1.348 . S
C637 C632 1.353 . S
C637 C636 1.348 . S
C637 H689 0.929 . S
H638 C632 0.930 . S
H639 C635 0.930 . S
C640 N641 1.314 . S
C640 C642 1.353 . S
C640 H646 0.930 . S
N641 Li617 1.990 . S
N641 C640 1.314 . S
N641 C644 1.279 . S
C642 C640 1.353 . S
C642 C645 1.348 . S
C642 H690 0.929 . S
C643 C644 1.358 . S
C643 C645 1.356 . S
C643 H691 0.930 . S
C644 N641 1.279 . S
C644 C643 1.358 . S
C644 H647 0.930 . S
C645 C642 1.348 . S
C645 C643 1.356 . S
H646 C640 0.930 . S
H647 C644 0.930 . S
C648 C650 1.348 . S
C648 C651 1.356 . S
C648 O678 1.325 . S
N649 C652 1.314 . S
N649 C653 1.279 . S
C650 C648 1.348 . S
C650 C652 1.353 . S
C650 H692 0.929 . S
C651 C648 1.356 . S
C651 C653 1.358 . S
C651 H693 0.930 . S
C652 N649 1.314 . S
C652 C650 1.353 . S
C652 H694 0.930 . S
C653 N649 1.279 . S
C653 C651 1.358 . S
C653 H695 0.930 . S
C654 C655 1.338 1_655 S
C654 C656 1.361 . S
C654 O679 1.334 1_655 S
C655 C654 1.338 1_455 S
C655 C657 1.353 . S
C655 H696 0.929 . S
C656 C654 1.361 . S
C656 C658 1.358 . S
C656 H697 0.930 . S
C657 C655 1.353 . S
C657 N659 1.314 1_455 S
C657 H698 0.930 . S
C658 C656 1.358 . S
C658 N659 1.279 . S
C658 H699 0.930 . S
N659 C657 1.314 1_655 S
N659 C658 1.279 . S
C660 C662 1.353 . S
C660 N663 1.314 1_655 S
C660 H666 0.930 . S
C661 N663 1.279 . S
C661 C664 1.358 . S
C661 H667 0.930 . S
C662 C660 1.353 . S
C662 C665 1.406 . S
C662 H700 0.929 . S
N663 Li618 1.990 . S
N663 C660 1.314 1_455 S
N663 C661 1.279 . S
C664 C661 1.358 . S
C664 C665 1.304 1_455 S
C664 H701 0.930 . S
C665 C662 1.406 . S
C665 C664 1.304 1_655 S
H666 C660 0.930 . S
H667 C661 0.930 . S
C668 N669 1.314 . S
C668 C670 1.353 . S
C668 H674 0.930 . S
N669 Li619 1.990 . S
N669 C668 1.314 . S
N669 C672 1.279 . S
C670 C668 1.353 . S
C670 C673 1.348 . S
C670 H702 0.929 . S
C671 C672 1.358 . S
C671 C673 1.356 . S
C671 H703 0.930 . S
C672 N669 1.279 . S
C672 C671 1.358 . S
C672 H675 0.930 . S
C673 C670 1.348 . S
C673 C671 1.356 . S
H674 C668 0.930 . S
H675 C672 0.930 . S
O676 Li616 1.956 1_655 S
O676 Li617 1.970 . S
O676 Li618 1.961 1_655 S
O676 C620 1.325 . S
O677 Li616 1.970 . S
O677 Li617 1.956 1_455 S
O677 Li619 1.961 . S
O677 C626 1.325 . S
O678 Li616 1.961 . S
O678 Li618 1.956 . S
O678 Li619 1.970 . S
O678 C648 1.325 . S
O679 Li617 1.930 1_455 S
O679 Li618 1.971 . S
O679 Li619 1.984 . S
O679 C654 1.334 1_455 S
H680 C622 0.929 . S
H681 C623 0.930 . S
H682 C624 0.930 . S
H683 C625 0.930 . S
H684 C627 0.930 . S
H685 C629 0.912 1_655 S
H686 C630 0.930 . S
H687 C631 0.953 . S
H688 C634 0.930 . S
H689 C637 0.929 . S
H690 C642 0.929 . S
H691 C643 0.930 . S
H692 C650 0.929 . S
H693 C651 0.930 . S
H694 C652 0.930 . S
H695 C653 0.930 . S
H696 C655 0.929 . S
H697 C656 0.930 . S
H698 C657 0.930 . S
H699 C658 0.930 . S
H700 C662 0.929 . S
H701 C664 0.930 . S
H702 C670 0.929 . S
H703 C671 0.930 . S
Li704 N721 1.990 . S
Li704 O764 1.956 . S
Li704 O765 1.970 . S
Li704 O766 1.961 . S
Li705 N729 1.990 1_545 S
Li705 O764 1.970 . S
Li705 O765 1.956 . S
Li705 O767 1.961 . S
Li706 N751 1.990 . S
Li706 O764 1.961 . S
Li706 O766 1.956 . S
Li706 O767 1.970 . S
Li707 N757 1.990 . S
Li707 O765 1.961 . S
Li707 O766 1.970 . S
Li707 O767 1.956 . S
C708 C710 1.348 . S
C708 C711 1.356 . S
C708 O764 1.325 1_565 S
N709 C712 1.314 . S
N709 C713 1.279 . S
C710 C708 1.348 . S
C710 C712 1.353 . S
C710 H768 0.929 . S
C711 C708 1.356 . S
C711 C713 1.358 . S
C711 H769 0.930 1_565 S
C712 N709 1.314 . S
C712 C710 1.353 . S
C712 H770 0.930 . S
C713 N709 1.279 . S
C713 C711 1.358 . S
C713 H771 0.930 . S
C714 C717 1.348 . S
C714 C718 1.356 . S
C714 O765 1.325 . S
C715 N716 1.279 . S
C715 C718 1.358 . S
C715 H772 0.930 . S
N716 C715 1.279 . S
N716 C719 1.314 . S
C717 C714 1.348 . S
C717 C719 1.353 . S
C717 H773 0.929 . S
C718 C714 1.356 . S
C718 C715 1.358 . S
C718 H774 0.930 . S
C719 N716 1.314 . S
C719 C717 1.353 . S
C719 H775 0.930 . S
C720 N721 1.314 . S
C720 C725 1.353 . S
C720 H726 0.930 . S
N721 Li704 1.990 . S
N721 C720 1.314 . S
N721 C723 1.279 . S
C722 C723 1.358 . S
C722 C724 1.356 . S
C722 H776 0.930 . S
C723 N721 1.279 . S
C723 C722 1.358 . S
C723 H727 0.930 . S
C724 C722 1.356 . S
C724 C725 1.348 . S
C725 C720 1.353 . S
C725 C724 1.348 . S
C725 H777 0.929 . S
H726 C720 0.930 . S
H727 C723 0.930 . S
C728 N729 1.314 . S
C728 C730 1.353 . S
C728 H734 0.930 . S
N729 Li705 1.990 1_565 S
N729 C728 1.314 . S
N729 C732 1.279 . S
C730 C728 1.353 . S
C730 C733 1.348 . S
C730 H778 0.929 . S
C731 C732 1.358 . S
C731 C733 1.356 . S
C731 H779 0.930 . S
C732 N729 1.279 . S
C732 C731 1.358 . S
C732 H735 0.930 . S
C733 C730 1.348 . S
C733 C731 1.356 . S
H734 C728 0.930 . S
H735 C732 0.930 . S
C736 C738 1.348 . S
C736 C739 1.356 . S
C736 O766 1.325 . S
N737 C740 1.314 . S
N737 C741 1.279 . S
C738 C736 1.348 . S
C738 C740 1.353 . S
C738 H780 0.929 . S
C739 C736 1.356 . S
C739 C741 1.358 . S
C739 H781 0.930 . S
C740 N737 1.314 . S
C740 C738 1.353 . S
C740 H782 0.930 . S
C741 N737 1.279 . S
C741 C739 1.358 . S
C741 H783 0.930 . S
C742 C743 1.348 . S
C742 C744 1.356 . S
C742 O767 1.325 . S
C743 C742 1.348 . S
C743 C745 1.353 . S
C743 H784 0.929 . S
C744 C742 1.356 . S
C744 C746 1.358 . S
C744 H785 0.930 . S
C745 C743 1.353 . S
C745 N747 1.314 . S
C745 H786 0.930 . S
C746 C744 1.358 . S
C746 N747 1.279 . S
C746 H787 0.930 . S
N747 C745 1.314 . S
N747 C746 1.279 . S
C748 C750 1.353 . S
C748 N751 1.314 . S
C748 H754 0.930 . S
C749 N751 1.279 . S
C749 C752 1.358 . S
C749 H755 0.930 . S
C750 C748 1.353 . S
C750 C753 1.348 . S
C750 H788 0.929 . S
N751 Li706 1.990 . S
N751 C748 1.314 . S
N751 C749 1.279 . S
C752 C749 1.358 . S
C752 C753 1.356 . S
C752 H789 0.930 . S
C753 C750 1.348 . S
C753 C752 1.356 . S
H754 C748 0.930 . S
H755 C749 0.930 . S
C756 N757 1.314 . S
C756 C758 1.353 . S
C756 H762 0.930 . S
N757 Li707 1.990 . S
N757 C756 1.314 . S
N757 C760 1.279 . S
C758 C756 1.353 . S
C758 C761 1.348 . S
C758 H790 0.929 . S
C759 C760 1.358 . S
C759 C761 1.356 . S
C759 H791 0.930 . S
C760 N757 1.279 . S
C760 C759 1.358 . S
C760 H763 0.930 . S
C761 C758 1.348 . S
C761 C759 1.356 . S
H762 C756 0.930 . S
H763 C760 0.930 . S
O764 Li704 1.956 . S
O764 Li705 1.970 . S
O764 Li706 1.961 . S
O764 C708 1.325 1_545 S
O765 Li704 1.970 . S
O765 Li705 1.956 . S
O765 Li707 1.961 . S
O765 C714 1.325 . S
O766 Li704 1.961 . S
O766 Li706 1.956 . S
O766 Li707 1.970 . S
O766 C736 1.325 . S
O767 Li705 1.961 . S
O767 Li706 1.970 . S
O767 Li707 1.956 . S
O767 C742 1.325 . S
H768 C710 0.929 . S
H769 C711 0.930 1_545 S
H770 C712 0.930 . S
H771 C713 0.930 . S
H772 C715 0.930 . S
H773 C717 0.929 . S
H774 C718 0.930 . S
H775 C719 0.930 . S
H776 C722 0.930 . S
H777 C725 0.929 . S
H778 C730 0.929 . S
H779 C731 0.930 . S
H780 C738 0.929 . S
H781 C739 0.930 . S
H782 C740 0.930 . S
H783 C741 0.930 . S
H784 C743 0.929 . S
H785 C744 0.930 . S
H786 C745 0.930 . S
H787 C746 0.930 . S
H788 C750 0.929 . S
H789 C752 0.930 . S
H790 C758 0.929 . S
H791 C759 0.930 . S
Li792 N809 1.990 . S
Li792 O852 1.956 . S
Li792 O853 1.970 . S
Li792 O854 1.961 . S
Li793 N817 1.990 . S
Li793 O852 1.970 . S
Li793 O853 1.956 . S
Li793 O855 1.961 . S
Li794 N839 1.990 . S
Li794 O852 1.961 . S
Li794 O854 1.956 . S
Li794 O855 1.970 . S
Li795 N845 1.990 . S
Li795 O853 1.961 . S
Li795 O854 1.970 . S
Li795 O855 1.956 . S
C796 C798 1.348 . S
C796 C799 1.356 . S
C796 O852 1.325 . S
N797 C800 1.314 . S
N797 C801 1.279 . S
C798 C796 1.348 . S
C798 C800 1.353 . S
C798 H856 0.929 . S
C799 C796 1.356 . S
C799 C801 1.358 . S
C799 H857 0.930 . S
C800 N797 1.314 . S
C800 C798 1.353 . S
C800 H858 0.930 . S
C801 N797 1.279 . S
C801 C799 1.358 . S
C801 H859 0.930 . S
C802 C805 1.348 . S
C802 C806 1.356 . S
C802 O853 1.325 . S
C803 N804 1.279 . S
C803 C806 1.358 . S
C803 H860 0.930 . S
N804 C803 1.279 . S
N804 C807 1.314 . S
C805 C802 1.348 . S
C805 C807 1.353 . S
C805 H861 0.929 . S
C806 C802 1.356 . S
C806 C803 1.358 . S
C806 H862 0.930 . S
C807 N804 1.314 . S
C807 C805 1.353 . S
C807 H863 0.930 . S
C808 N809 1.314 . S
C808 C813 1.353 . S
C808 H814 0.930 . S
N809 Li792 1.990 . S
N809 C808 1.314 . S
N809 C811 1.279 . S
C810 C811 1.358 . S
C810 C812 1.356 . S
C810 H864 0.930 . S
C811 N809 1.279 . S
C811 C810 1.358 . S
C811 H815 0.930 . S
C812 C810 1.356 . S
C812 C813 1.348 . S
C813 C808 1.353 . S
C813 C812 1.348 . S
C813 H865 0.929 . S
H814 C808 0.930 . S
H815 C811 0.930 . S
C816 N817 1.314 . S
C816 C818 1.353 . S
C816 H822 0.930 . S
N817 Li793 1.990 . S
N817 C816 1.314 . S
N817 C820 1.279 . S
C818 C816 1.353 . S
C818 C821 1.348 . S
C818 H866 0.929 . S
C819 C820 1.358 . S
C819 C821 1.356 . S
C819 H867 0.930 . S
C820 N817 1.279 . S
C820 C819 1.358 . S
C820 H823 0.930 . S
C821 C818 1.348 . S
C821 C819 1.356 . S
H822 C816 0.930 . S
H823 C820 0.930 . S
C824 C826 1.348 . S
C824 C827 1.356 . S
C824 O854 1.325 . S
N825 C828 1.314 . S
N825 C829 1.279 . S
C826 C824 1.348 . S
C826 C828 1.353 . S
C826 H868 0.929 . S
C827 C824 1.356 . S
C827 C829 1.358 . S
C827 H869 0.930 . S
C828 N825 1.314 . S
C828 C826 1.353 . S
C828 H870 0.930 . S
C829 N825 1.279 . S
C829 C827 1.358 . S
C829 H871 0.930 . S
C830 C831 1.348 . S
C830 C832 1.356 . S
C830 O855 1.325 . S
C831 C830 1.348 . S
C831 C833 1.353 . S
C831 H872 0.929 . S
C832 C830 1.356 . S
C832 C834 1.358 . S
C832 H873 0.930 . S
C833 C831 1.353 . S
C833 N835 1.314 . S
C833 H874 0.930 . S
C834 C832 1.358 . S
C834 N835 1.279 . S
C834 H875 0.930 . S
N835 C833 1.314 . S
N835 C834 1.279 . S
C836 C838 1.353 . S
C836 N839 1.314 . S
C836 H842 0.930 . S
C837 N839 1.279 . S
C837 C840 1.358 . S
C837 H843 0.930 . S
C838 C836 1.353 . S
C838 C841 1.348 . S
C838 H876 0.929 . S
N839 Li794 1.990 . S
N839 C836 1.314 . S
N839 C837 1.279 . S
C840 C837 1.358 . S
C840 C841 1.356 . S
C840 H877 0.930 . S
C841 C838 1.348 . S
C841 C840 1.356 . S
H842 C836 0.930 . S
H843 C837 0.930 . S
C844 N845 1.314 . S
C844 C846 1.353 . S
C844 H850 0.930 . S
N845 Li795 1.990 . S
N845 C844 1.314 . S
N845 C848 1.279 . S
C846 C844 1.353 . S
C846 C849 1.348 . S
C846 H878 0.929 . S
C847 C848 1.358 . S
C847 C849 1.356 . S
C847 H879 0.930 . S
C848 N845 1.279 . S
C848 C847 1.358 . S
C848 H851 0.930 . S
C849 C846 1.348 . S
C849 C847 1.356 . S
H850 C844 0.930 . S
H851 C848 0.930 . S
O852 Li792 1.956 . S
O852 Li793 1.970 . S
O852 Li794 1.961 . S
O852 C796 1.325 . S
O853 Li792 1.970 . S
O853 Li793 1.956 . S
O853 Li795 1.961 . S
O853 C802 1.325 . S
O854 Li792 1.961 . S
O854 Li794 1.956 . S
O854 Li795 1.970 . S
O854 C824 1.325 . S
O855 Li793 1.961 . S
O855 Li794 1.970 . S
O855 Li795 1.956 . S
O855 C830 1.325 . S
H856 C798 0.929 . S
H857 C799 0.930 . S
H858 C800 0.930 . S
H859 C801 0.930 . S
H860 C803 0.930 . S
H861 C805 0.929 . S
H862 C806 0.930 . S
H863 C807 0.930 . S
H864 C810 0.930 . S
H865 C813 0.929 . S
H866 C818 0.929 . S
H867 C819 0.930 . S
H868 C826 0.929 . S
H869 C827 0.930 . S
H870 C828 0.930 . S
H871 C829 0.930 . S
H872 C831 0.929 . S
H873 C832 0.930 . S
H874 C833 0.930 . S
H875 C834 0.930 . S
H876 C838 0.929 . S
H877 C840 0.930 . S
H878 C846 0.929 . S
H879 C847 0.930 . S
Li880 N897 1.990 . S
Li880 O940 1.956 . S
Li880 O941 1.970 . S
Li880 O942 1.961 . S
Li881 N905 1.991 . S
Li881 O940 1.970 1_565 S
Li881 O941 1.961 1_565 S
Li881 O943 1.956 . S
Li882 N927 1.990 . S
Li882 O940 1.961 1_565 S
Li882 O942 1.956 1_565 S
Li882 O943 1.970 . S
Li883 N933 1.990 . S
Li883 O941 1.961 1_565 S
Li883 O942 1.970 1_565 S
Li883 O943 1.956 . S
C884 C886 1.348 . S
C884 C887 1.356 . S
C884 O940 1.325 . S
N885 C888 1.314 . S
N885 C889 1.279 . S
C886 C884 1.348 . S
C886 C888 1.353 . S
C886 H944 0.929 . S
C887 C884 1.356 . S
C887 C889 1.358 . S
C887 H945 0.937 . S
C888 N885 1.314 . S
C888 C886 1.353 . S
C888 H946 0.930 . S
C889 N885 1.279 . S
C889 C887 1.358 . S
C889 H947 0.930 . S
C890 C893 1.348 . S
C890 C894 1.356 . S
C890 O941 1.325 . S
C891 N892 1.279 . S
C891 C894 1.358 . S
C891 H948 0.930 . S
N892 C891 1.279 . S
N892 C895 1.314 . S
C893 C890 1.348 . S
C893 C895 1.353 . S
C893 H949 0.929 . S
C894 C890 1.356 . S
C894 C891 1.358 . S
C894 H950 0.930 . S
C895 N892 1.314 . S
C895 C893 1.353 . S
C895 H951 0.930 . S
C896 N897 1.314 . S
C896 C901 1.353 . S
C896 H902 0.930 . S
N897 Li880 1.990 . S
N897 C896 1.314 . S
N897 C899 1.279 . S
C898 C899 1.358 . S
C898 C900 1.356 . S
C898 H952 0.930 . S
C899 N897 1.279 . S
C899 C898 1.358 . S
C899 H903 0.930 . S
C900 C898 1.356 . S
C900 C901 1.348 . S
C901 C896 1.353 . S
C901 C900 1.348 . S
C901 H953 0.929 . S
H902 C896 0.930 . S
H903 C899 0.930 . S
C904 N905 1.343 . S
C904 C906 1.353 . S
C904 H910 0.930 . S
N905 Li881 1.991 . S
N905 C904 1.343 . S
N905 C908 1.251 1_565 S
C906 C904 1.353 . S
C906 C909 1.348 . S
C906 H954 0.929 . S
C907 C908 1.358 . S
C907 C909 1.356 1_545 S
C907 H955 0.930 . S
C908 N905 1.251 1_545 S
C908 C907 1.358 . S
C908 H911 0.930 . S
C909 C906 1.348 . S
C909 C907 1.356 1_565 S
H910 C904 0.930 . S
H911 C908 0.930 . S
C912 C914 1.348 1_545 S
C912 C915 1.356 . S
C912 O942 1.325 . S
N913 C916 1.306 1_545 S
N913 C917 1.293 . S
C914 C912 1.348 1_565 S
C914 C916 1.353 . S
C914 H956 0.929 . S
C915 C912 1.356 . S
C915 C917 1.358 . S
C915 H957 0.930 . S
C916 N913 1.306 1_565 S
C916 C914 1.353 . S
C916 H958 0.930 . S
C917 N913 1.293 . S
C917 C915 1.358 . S
C917 H959 0.930 . S
C918 C919 1.348 . S
C918 C920 1.356 . S
C918 O943 1.325 . S
C919 C918 1.348 . S
C919 C921 1.353 . S
C919 H960 0.929 . S
C920 C918 1.356 . S
C920 C922 1.358 . S
C920 H961 0.930 . S
C921 C919 1.353 . S
C921 N923 1.314 . S
C921 H962 0.930 . S
C922 C920 1.358 . S
C922 N923 1.279 . S
C922 H963 0.930 . S
N923 C921 1.314 . S
N923 C922 1.279 . S
C924 C926 1.353 . S
C924 N927 1.314 . S
C924 H930 0.930 . S
C925 N927 1.279 . S
C925 C928 1.358 . S
C925 H931 0.930 . S
C926 C924 1.353 . S
C926 C929 1.348 . S
C926 H964 0.929 . S
N927 Li882 1.990 . S
N927 C924 1.314 . S
N927 C925 1.279 . S
C928 C925 1.358 . S
C928 C929 1.356 . S
C928 H965 0.930 . S
C929 C926 1.348 . S
C929 C928 1.356 . S
H930 C924 0.930 . S
H931 C925 0.930 . S
C932 N933 1.314 1_545 S
C932 C934 1.353 . S
C932 H938 0.930 . S
N933 Li883 1.990 . S
N933 C932 1.314 1_565 S
N933 C936 1.279 . S
C934 C932 1.353 . S
C934 C937 1.348 1_545 S
C934 H966 0.929 . S
C935 C936 1.358 . S
C935 C937 1.356 . S
C935 H967 0.930 . S
C936 N933 1.279 . S
C936 C935 1.358 . S
C936 H939 0.930 . S
C937 C934 1.348 1_565 S
C937 C935 1.356 . S
H938 C932 0.930 . S
H939 C936 0.930 . S
O940 Li880 1.956 . S
O940 Li881 1.970 1_545 S
O940 Li882 1.961 1_545 S
O940 C884 1.325 . S
O941 Li880 1.970 . S
O941 Li881 1.961 1_545 S
O941 Li883 1.961 1_545 S
O941 C890 1.325 . S
O942 Li880 1.961 . S
O942 Li882 1.956 1_545 S
O942 Li883 1.970 1_545 S
O942 C912 1.325 . S
O943 Li881 1.956 . S
O943 Li882 1.970 . S
O943 Li883 1.956 . S
O943 C918 1.325 . S
H944 C886 0.929 . S
H945 C887 0.937 . S
H946 C888 0.930 . S
H947 C889 0.930 . S
H948 C891 0.930 . S
H949 C893 0.929 . S
H950 C894 0.930 . S
H951 C895 0.930 . S
H952 C898 0.930 . S
H953 C901 0.929 . S
H954 C906 0.929 . S
H955 C907 0.930 . S
H956 C914 0.929 . S
H957 C915 0.930 . S
H958 C916 0.930 . S
H959 C917 0.930 . S
H960 C919 0.929 . S
H961 C920 0.930 . S
H962 C921 0.930 . S
H963 C922 0.930 . S
H964 C926 0.929 . S
H965 C928 0.930 . S
H966 C934 0.929 . S
H967 C935 0.930 . S
Li968 N985 1.990 . S
Li968 O1028 1.956 . S
Li968 O1029 1.970 . S
Li968 O1030 1.961 . S
Li969 N993 1.990 . S
Li969 O1028 1.970 . S
Li969 O1029 1.956 . S
Li969 O1031 1.961 . S
Li970 N1015 1.990 . S
Li970 O1028 1.961 . S
Li970 O1030 1.956 . S
Li970 O1031 1.970 . S
Li971 N1021 1.990 1_554 S
Li971 O1029 1.961 . S
Li971 O1030 1.970 . S
Li971 O1031 1.956 . S
C972 C974 1.348 . S
C972 C975 1.356 . S
C972 O1028 1.325 . S
N973 C976 1.314 . S
N973 C977 1.279 . S
C974 C972 1.348 . S
C974 C976 1.353 . S
C974 H1032 0.929 . S
C975 C972 1.356 . S
C975 C977 1.358 . S
C975 H1033 0.930 . S
C976 N973 1.314 . S
C976 C974 1.353 . S
C976 H1034 0.930 . S
C977 N973 1.279 . S
C977 C975 1.358 . S
C977 H1035 0.930 . S
C978 C981 1.348 . S
C978 C982 1.356 . S
C978 O1029 1.325 . S
C979 N980 1.279 . S
C979 C982 1.358 . S
C979 H1036 0.930 . S
N980 C979 1.279 . S
N980 C983 1.314 . S
C981 C978 1.348 . S
C981 C983 1.353 . S
C981 H1037 0.929 . S
C982 C978 1.356 . S
C982 C979 1.358 . S
C982 H1038 0.930 . S
C983 N980 1.314 . S
C983 C981 1.353 . S
C983 H1039 0.930 . S
C984 N985 1.314 . S
C984 C989 1.353 . S
C984 H990 0.930 . S
N985 Li968 1.990 . S
N985 C984 1.314 . S
N985 C987 1.279 . S
C986 C987 1.358 . S
C986 C988 1.356 . S
C986 H1040 0.930 . S
C987 N985 1.279 . S
C987 C986 1.358 . S
C987 H991 0.930 . S
C988 C986 1.356 . S
C988 C989 1.348 . S
C989 C984 1.353 . S
C989 C988 1.348 . S
C989 H1041 0.929 . S
H990 C984 0.930 . S
H991 C987 0.930 . S
C992 N993 1.314 . S
C992 C994 1.353 . S
C992 H998 0.930 . S
N993 Li969 1.990 . S
N993 C992 1.314 . S
N993 C996 1.279 . S
C994 C992 1.353 . S
C994 C997 1.348 . S
C994 H1042 0.929 . S
C995 C996 1.358 . S
C995 C997 1.356 . S
C995 H1043 0.930 . S
C996 N993 1.279 . S
C996 C995 1.358 . S
C996 H999 0.930 . S
C997 C994 1.348 . S
C997 C995 1.356 . S
H998 C992 0.930 . S
H999 C996 0.930 . S
C1000 C1002 1.321 1_554 S
C1000 C1003 1.357 . S
C1000 O1030 1.349 . S
N1001 C1004 1.314 . S
N1001 C1005 1.279 . S
C1002 C1000 1.321 1_556 S
C1002 C1004 1.353 . S
C1002 H1044 0.929 . S
C1003 C1000 1.357 . S
C1003 C1005 1.358 1_554 S
C1003 H1045 0.930 . S
C1004 N1001 1.314 . S
C1004 C1002 1.353 . S
C1004 H1046 0.930 . S
C1005 N1001 1.279 . S
C1005 C1003 1.358 1_556 S
C1005 H1047 0.930 . S
C1006 C1007 1.348 . S
C1006 C1008 1.356 . S
C1006 O1031 1.325 . S
C1007 C1006 1.348 . S
C1007 C1009 1.353 . S
C1007 H1048 0.929 . S
C1008 C1006 1.356 . S
C1008 C1010 1.358 . S
C1008 H1049 0.930 . S
C1009 C1007 1.353 . S
C1009 N1011 1.314 . S
C1009 H1050 0.930 . S
C1010 C1008 1.358 . S
C1010 N1011 1.279 . S
C1010 H1051 0.930 . S
N1011 C1009 1.314 . S
N1011 C1010 1.279 . S
C1012 C1014 1.353 . S
C1012 N1015 1.314 . S
C1012 H1018 0.930 . S
C1013 N1015 1.279 . S
C1013 C1016 1.358 . S
C1013 H1019 0.930 . S
C1014 C1012 1.353 . S
C1014 C1017 1.348 . S
C1014 H1052 0.929 . S
N1015 Li970 1.990 . S
N1015 C1012 1.314 . S
N1015 C1013 1.279 . S
C1016 C1013 1.358 . S
C1016 C1017 1.356 . S
C1016 H1053 0.930 . S
C1017 C1014 1.348 . S
C1017 C1016 1.356 . S
H1018 C1012 0.930 . S
H1019 C1013 0.930 . S
C1020 N1021 1.314 . S
C1020 C1022 1.353 . S
C1020 H1026 0.930 . S
N1021 Li971 1.990 1_556 S
N1021 C1020 1.314 . S
N1021 C1024 1.279 . S
C1022 C1020 1.353 . S
C1022 C1025 1.348 . S
C1022 H1054 0.929 . S
C1023 C1024 1.358 . S
C1023 C1025 1.356 . S
C1023 H1055 0.930 . S
C1024 N1021 1.279 . S
C1024 C1023 1.358 . S
C1024 H1027 0.930 . S
C1025 C1022 1.348 . S
C1025 C1023 1.356 . S
H1026 C1020 0.930 . S
H1027 C1024 0.930 . S
O1028 Li968 1.956 . S
O1028 Li969 1.970 . S
O1028 Li970 1.961 . S
O1028 C972 1.325 . S
O1029 Li968 1.970 . S
O1029 Li969 1.956 . S
O1029 Li971 1.961 . S
O1029 C978 1.325 . S
O1030 Li968 1.961 . S
O1030 Li970 1.956 . S
O1030 Li971 1.970 . S
O1030 C1000 1.349 . S
O1031 Li969 1.961 . S
O1031 Li970 1.970 . S
O1031 Li971 1.956 . S
O1031 C1006 1.325 . S
H1032 C974 0.929 . S
H1033 C975 0.930 . S
H1034 C976 0.930 . S
H1035 C977 0.930 . S
H1036 C979 0.930 . S
H1037 C981 0.929 . S
H1038 C982 0.930 . S
H1039 C983 0.930 . S
H1040 C986 0.930 . S
H1041 C989 0.929 . S
H1042 C994 0.929 . S
H1043 C995 0.930 . S
H1044 C1002 0.929 . S
H1045 C1003 0.930 . S
H1046 C1004 0.930 . S
H1047 C1005 0.930 . S
H1048 C1007 0.929 . S
H1049 C1008 0.930 . S
H1050 C1009 0.930 . S
H1051 C1010 0.930 . S
H1052 C1014 0.929 . S
H1053 C1016 0.930 . S
H1054 C1022 0.929 . S
H1055 C1023 0.930 . S
Li1056 N1073 1.990 . S
Li1056 O1116 1.956 . S
Li1056 O1117 1.970 . S
Li1056 O1118 1.961 1_554 S
Li1057 N1081 1.990 . S
Li1057 O1116 1.970 . S
Li1057 O1117 1.956 . S
Li1057 O1119 1.961 . S
Li1058 N1103 1.990 . S
Li1058 O1116 1.961 . S
Li1058 O1118 1.956 1_554 S
Li1058 O1119 1.970 . S
Li1059 N1109 1.990 . S
Li1059 O1117 1.961 1_556 S
Li1059 O1118 1.970 . S
Li1059 O1119 1.956 1_556 S
C1060 C1062 1.348 . S
C1060 C1063 1.356 . S
C1060 O1116 1.325 . S
N1061 C1064 1.314 . S
N1061 C1065 1.279 . S
C1062 C1060 1.348 . S
C1062 C1064 1.353 . S
C1062 H1120 0.929 . S
C1063 C1060 1.356 . S
C1063 C1065 1.358 . S
C1063 H1121 0.930 . S
C1064 N1061 1.314 . S
C1064 C1062 1.353 . S
C1064 H1122 0.930 . S
C1065 N1061 1.279 . S
C1065 C1063 1.358 . S
C1065 H1123 0.930 . S
C1066 C1069 1.348 . S
C1066 C1070 1.356 . S
C1066 O1117 1.325 . S
C1067 N1068 1.279 . S
C1067 C1070 1.358 . S
C1067 H1124 0.930 . S
N1068 C1067 1.279 . S
N1068 C1071 1.314 . S
C1069 C1066 1.348 . S
C1069 C1071 1.353 . S
C1069 H1125 0.929 . S
C1070 C1066 1.356 . S
C1070 C1067 1.358 . S
C1070 H1126 0.930 . S
C1071 N1068 1.314 . S
C1071 C1069 1.353 . S
C1071 H1127 0.930 . S
C1072 N1073 1.314 . S
C1072 C1077 1.353 . S
C1072 H1078 0.930 1_554 S
N1073 Li1056 1.990 . S
N1073 C1072 1.314 . S
N1073 C1075 1.279 . S
C1074 C1075 1.358 . S
C1074 C1076 1.356 . S
C1074 H1128 0.930 . S
C1075 N1073 1.279 . S
C1075 C1074 1.358 . S
C1075 H1079 0.930 . S
C1076 C1074 1.356 . S
C1076 C1077 1.348 . S
C1077 C1072 1.353 . S
C1077 C1076 1.348 . S
C1077 H1129 0.929 1_554 S
H1078 C1072 0.930 1_556 S
H1079 C1075 0.930 . S
C1080 N1081 1.314 . S
C1080 C1082 1.353 . S
C1080 H1086 0.930 . S
N1081 Li1057 1.990 . S
N1081 C1080 1.314 . S
N1081 C1084 1.279 . S
C1082 C1080 1.353 . S
C1082 C1085 1.348 . S
C1082 H1130 0.929 . S
C1083 C1084 1.358 . S
C1083 C1085 1.356 . S
C1083 H1131 0.930 . S
C1084 N1081 1.279 . S
C1084 C1083 1.358 . S
C1084 H1087 0.930 . S
C1085 C1082 1.348 . S
C1085 C1083 1.356 . S
H1086 C1080 0.930 . S
H1087 C1084 0.930 . S
C1088 C1090 1.348 . S
C1088 C1091 1.356 . S
C1088 O1118 1.325 . S
N1089 C1092 1.314 . S
N1089 C1093 1.279 . S
C1090 C1088 1.348 . S
C1090 C1092 1.353 . S
C1090 H1132 0.929 . S
C1091 C1088 1.356 . S
C1091 C1093 1.358 . S
C1091 H1133 0.930 . S
C1092 N1089 1.314 . S
C1092 C1090 1.353 . S
C1092 H1134 0.930 . S
C1093 N1089 1.279 . S
C1093 C1091 1.358 . S
C1093 H1135 0.930 . S
C1094 C1095 1.348 . S
C1094 C1096 1.356 . S
C1094 O1119 1.325 . S
C1095 C1094 1.348 . S
C1095 C1097 1.353 . S
C1095 H1136 0.929 . S
C1096 C1094 1.356 . S
C1096 C1098 1.358 . S
C1096 H1137 0.930 . S
C1097 C1095 1.353 . S
C1097 N1099 1.314 . S
C1097 H1138 0.930 . S
C1098 C1096 1.358 . S
C1098 N1099 1.279 . S
C1098 H1139 0.930 . S
N1099 C1097 1.314 . S
N1099 C1098 1.279 . S
C1100 C1102 1.353 . S
C1100 N1103 1.314 . S
C1100 H1106 0.930 . S
C1101 N1103 1.279 . S
C1101 C1104 1.358 . S
C1101 H1107 0.930 1_554 S
C1102 C1100 1.353 . S
C1102 C1105 1.348 . S
C1102 H1140 0.929 . S
N1103 Li1058 1.990 . S
N1103 C1100 1.314 . S
N1103 C1101 1.279 . S
C1104 C1101 1.358 . S
C1104 C1105 1.356 . S
C1104 H1141 0.930 1_554 S
C1105 C1102 1.348 . S
C1105 C1104 1.356 . S
H1106 C1100 0.930 . S
H1107 C1101 0.930 1_556 S
C1108 N1109 1.314 . S
C1108 C1110 1.353 . S
C1108 H1114 0.930 . S
N1109 Li1059 1.990 . S
N1109 C1108 1.314 . S
N1109 C1112 1.279 . S
C1110 C1108 1.353 . S
C1110 C1113 1.348 . S
C1110 H1142 0.929 . S
C1111 C1112 1.358 . S
C1111 C1113 1.356 . S
C1111 H1143 0.930 . S
C1112 N1109 1.279 . S
C1112 C1111 1.358 . S
C1112 H1115 0.930 . S
C1113 C1110 1.348 . S
C1113 C1111 1.356 . S
H1114 C1108 0.930 . S
H1115 C1112 0.930 . S
O1116 Li1056 1.956 . S
O1116 Li1057 1.970 . S
O1116 Li1058 1.961 . S
O1116 C1060 1.325 . S
O1117 Li1056 1.970 . S
O1117 Li1057 1.956 . S
O1117 Li1059 1.961 1_554 S
O1117 C1066 1.325 . S
O1118 Li1056 1.961 1_556 S
O1118 Li1058 1.956 1_556 S
O1118 Li1059 1.970 . S
O1118 C1088 1.325 . S
O1119 Li1057 1.961 . S
O1119 Li1058 1.970 . S
O1119 Li1059 1.956 1_554 S
O1119 C1094 1.325 . S
H1120 C1062 0.929 . S
H1121 C1063 0.930 . S
H1122 C1064 0.930 . S
H1123 C1065 0.930 . S
H1124 C1067 0.930 . S
H1125 C1069 0.929 . S
H1126 C1070 0.930 . S
H1127 C1071 0.930 . S
H1128 C1074 0.930 . S
H1129 C1077 0.929 1_556 S
H1130 C1082 0.929 . S
H1131 C1083 0.930 . S
H1132 C1090 0.929 . S
H1133 C1091 0.930 . S
H1134 C1092 0.930 . S
H1135 C1093 0.930 . S
H1136 C1095 0.929 . S
H1137 C1096 0.930 . S
H1138 C1097 0.930 . S
H1139 C1098 0.930 . S
H1140 C1102 0.929 . S
H1141 C1104 0.930 1_556 S
H1142 C1110 0.929 . S
H1143 C1111 0.930 . S
Li1144 N1161 1.990 . S
Li1144 O1204 2.001 . S
Li1144 O1205 1.970 . S
Li1144 O1206 1.998 . S
Li1145 N1169 1.990 . S
Li1145 O1204 1.975 . S
Li1145 O1205 1.966 . S
Li1145 O1207 1.951 1_554 S
Li1146 N1191 1.990 . S
Li1146 O1204 1.922 1_556 S
Li1146 O1206 1.915 1_556 S
Li1146 O1207 1.970 . S
Li1147 N1197 1.990 . S
Li1147 O1205 1.961 1_556 S
Li1147 O1206 1.971 1_556 S
Li1147 O1207 1.956 . S
C1148 C1150 1.348 . S
C1148 C1151 1.360 . S
C1148 O1204 1.325 . S
N1149 C1152 1.314 . S
N1149 C1153 1.279 . S
C1150 C1148 1.348 . S
C1150 C1152 1.353 . S
C1150 H1208 0.929 . S
C1151 C1148 1.360 . S
C1151 C1153 1.358 . S
C1151 H1209 0.926 1_554 S
C1152 N1149 1.314 . S
C1152 C1150 1.353 . S
C1152 H1210 0.930 . S
C1153 N1149 1.279 . S
C1153 C1151 1.358 . S
C1153 H1211 0.926 1_554 S
C1154 C1157 1.348 . S
C1154 C1158 1.356 . S
C1154 O1205 1.325 . S
C1155 N1156 1.279 . S
C1155 C1158 1.358 . S
C1155 H1212 0.930 . S
N1156 C1155 1.279 . S
N1156 C1159 1.314 . S
C1157 C1154 1.348 . S
C1157 C1159 1.353 . S
C1157 H1213 0.929 . S
C1158 C1154 1.356 . S
C1158 C1155 1.358 . S
C1158 H1214 0.930 . S
C1159 N1156 1.314 . S
C1159 C1157 1.353 . S
C1159 H1215 0.930 . S
C1160 N1161 1.314 . S
C1160 C1165 1.353 . S
C1160 H1166 0.930 . S
N1161 Li1144 1.990 . S
N1161 C1160 1.314 . S
N1161 C1163 1.279 . S
C1162 C1163 1.358 . S
C1162 C1164 1.356 . S
C1162 H1216 0.930 . S
C1163 N1161 1.279 . S
C1163 C1162 1.358 . S
C1163 H1167 0.930 . S
C1164 C1162 1.356 . S
C1164 C1165 1.348 . S
C1165 C1160 1.353 . S
C1165 C1164 1.348 . S
C1165 H1217 0.929 . S
H1166 C1160 0.930 . S
H1167 C1163 0.930 . S
C1168 N1169 1.312 1_556 S
C1168 C1170 1.353 . S
C1168 H1174 0.930 . S
N1169 Li1145 1.990 . S
N1169 C1168 1.312 1_554 S
N1169 C1172 1.281 . S
C1170 C1168 1.353 . S
C1170 C1173 1.401 . S
C1170 H1218 0.929 . S
C1171 C1172 1.358 . S
C1171 C1173 1.304 1_554 S
C1171 H1219 0.930 . S
C1172 N1169 1.281 . S
C1172 C1171 1.358 . S
C1172 H1175 0.930 . S
C1173 C1170 1.401 . S
C1173 C1171 1.304 1_556 S
H1174 C1168 0.930 . S
H1175 C1172 0.930 . S
C1176 C1178 1.337 1_554 S
C1176 C1179 1.363 . S
C1176 O1206 1.324 . S
N1177 C1180 1.314 . S
N1177 C1181 1.280 1_556 S
C1178 C1176 1.337 1_556 S
C1178 C1180 1.353 . S
C1178 H1220 0.929 . S
C1179 C1176 1.363 . S
C1179 C1181 1.358 . S
C1179 H1221 0.930 . S
C1180 N1177 1.314 . S
C1180 C1178 1.353 . S
C1180 H1222 0.930 . S
C1181 N1177 1.280 1_554 S
C1181 C1179 1.358 . S
C1181 H1223 0.930 . S
C1182 C1183 1.348 . S
C1182 C1184 1.356 . S
C1182 O1207 1.325 . S
C1183 C1182 1.348 . S
C1183 C1185 1.353 . S
C1183 H1224 0.929 . S
C1184 C1182 1.356 . S
C1184 C1186 1.358 . S
C1184 H1225 0.930 . S
C1185 C1183 1.353 . S
C1185 N1187 1.314 . S
C1185 H1226 0.930 . S
C1186 C1184 1.358 . S
C1186 N1187 1.279 . S
C1186 H1227 0.930 . S
N1187 C1185 1.314 . S
N1187 C1186 1.279 . S
C1188 C1190 1.353 . S
C1188 N1191 1.314 . S
C1188 H1194 0.930 . S
C1189 N1191 1.279 . S
C1189 C1192 1.358 . S
C1189 H1195 0.930 . S
C1190 C1188 1.353 . S
C1190 C1193 1.348 . S
C1190 H1228 0.929 . S
N1191 Li1146 1.990 . S
N1191 C1188 1.314 . S
N1191 C1189 1.279 . S
C1192 C1189 1.358 . S
C1192 C1193 1.356 . S
C1192 H1229 0.930 . S
C1193 C1190 1.348 . S
C1193 C1192 1.356 . S
H1194 C1188 0.930 . S
H1195 C1189 0.930 . S
C1196 N1197 1.314 1_554 S
C1196 C1198 1.353 . S
C1196 H1202 0.930 . S
N1197 Li1147 1.990 . S
N1197 C1196 1.314 1_556 S
N1197 C1200 1.279 . S
C1198 C1196 1.353 . S
C1198 C1201 1.348 1_554 S
C1198 H1230 0.929 . S
C1199 C1200 1.358 . S
C1199 C1201 1.356 . S
C1199 H1231 0.930 . S
C1200 N1197 1.279 . S
C1200 C1199 1.358 . S
C1200 H1203 0.930 . S
C1201 C1198 1.348 1_556 S
C1201 C1199 1.356 . S
H1202 C1196 0.930 . S
H1203 C1200 0.930 . S
O1204 Li1144 2.001 . S
O1204 Li1145 1.975 . S
O1204 Li1146 1.922 1_554 S
O1204 C1148 1.325 . S
O1205 Li1144 1.970 . S
O1205 Li1145 1.966 . S
O1205 Li1147 1.961 1_554 S
O1205 C1154 1.325 . S
O1206 Li1144 1.998 . S
O1206 Li1146 1.915 1_554 S
O1206 Li1147 1.971 1_554 S
O1206 C1176 1.324 . S
O1207 Li1145 1.951 1_556 S
O1207 Li1146 1.970 . S
O1207 Li1147 1.956 . S
O1207 C1182 1.325 . S
H1208 C1150 0.929 . S
H1209 C1151 0.926 1_556 S
H1210 C1152 0.930 . S
H1211 C1153 0.926 1_556 S
H1212 C1155 0.930 . S
H1213 C1157 0.929 . S
H1214 C1158 0.930 . S
H1215 C1159 0.930 . S
H1216 C1162 0.930 . S
H1217 C1165 0.929 . S
H1218 C1170 0.929 . S
H1219 C1171 0.930 . S
H1220 C1178 0.929 . S
H1221 C1179 0.930 . S
H1222 C1180 0.930 . S
H1223 C1181 0.930 . S
H1224 C1183 0.929 . S
H1225 C1184 0.930 . S
H1226 C1185 0.930 . S
H1227 C1186 0.930 . S
H1228 C1190 0.929 . S
H1229 C1192 0.930 . S
H1230 C1198 0.929 . S
H1231 C1199 0.930 . S
Li1232 N1249 1.990 . S
Li1232 O1292 1.956 . S
Li1232 O1293 1.970 . S
Li1232 O1294 1.961 . S
Li1233 N1257 1.990 . S
Li1233 O1292 1.970 . S
Li1233 O1293 1.956 . S
Li1233 O1295 1.961 . S
Li1234 N1279 1.990 . S
Li1234 O1292 1.961 . S
Li1234 O1294 1.956 . S
Li1234 O1295 1.970 . S
Li1235 N1285 1.990 . S
Li1235 O1293 1.961 . S
Li1235 O1294 1.970 . S
Li1235 O1295 1.956 . S
C1236 C1238 1.348 . S
C1236 C1239 1.356 . S
C1236 O1292 1.325 . S
N1237 C1240 1.314 . S
N1237 C1241 1.279 . S
C1238 C1236 1.348 . S
C1238 C1240 1.353 . S
C1238 H1296 0.929 . S
C1239 C1236 1.356 . S
C1239 C1241 1.358 . S
C1239 H1297 0.930 . S
C1240 N1237 1.314 . S
C1240 C1238 1.353 . S
C1240 H1298 0.930 . S
C1241 N1237 1.279 . S
C1241 C1239 1.358 . S
C1241 H1299 0.930 . S
C1242 C1245 1.348 . S
C1242 C1246 1.356 . S
C1242 O1293 1.325 . S
C1243 N1244 1.279 . S
C1243 C1246 1.358 . S
C1243 H1300 0.930 . S
N1244 C1243 1.279 . S
N1244 C1247 1.314 . S
C1245 C1242 1.348 . S
C1245 C1247 1.353 . S
C1245 H1301 0.929 . S
C1246 C1242 1.356 . S
C1246 C1243 1.358 . S
C1246 H1302 0.930 . S
C1247 N1244 1.314 . S
C1247 C1245 1.353 . S
C1247 H1303 0.930 . S
C1248 N1249 1.314 . S
C1248 C1253 1.353 . S
C1248 H1254 0.930 . S
N1249 Li1232 1.990 . S
N1249 C1248 1.314 . S
N1249 C1251 1.279 . S
C1250 C1251 1.358 . S
C1250 C1252 1.356 . S
C1250 H1304 0.930 . S
C1251 N1249 1.279 . S
C1251 C1250 1.358 . S
C1251 H1255 0.930 . S
C1252 C1250 1.356 . S
C1252 C1253 1.348 . S
C1253 C1248 1.353 . S
C1253 C1252 1.348 . S
C1253 H1305 0.929 . S
H1254 C1248 0.930 . S
H1255 C1251 0.930 . S
C1256 N1257 1.314 . S
C1256 C1258 1.353 . S
C1256 H1262 0.930 . S
N1257 Li1233 1.990 . S
N1257 C1256 1.314 . S
N1257 C1260 1.279 . S
C1258 C1256 1.353 . S
C1258 C1261 1.348 . S
C1258 H1306 0.929 . S
C1259 C1260 1.358 . S
C1259 C1261 1.356 . S
C1259 H1307 0.930 . S
C1260 N1257 1.279 . S
C1260 C1259 1.358 . S
C1260 H1263 0.930 . S
C1261 C1258 1.348 . S
C1261 C1259 1.356 . S
H1262 C1256 0.930 . S
H1263 C1260 0.930 . S
C1264 C1266 1.348 . S
C1264 C1267 1.356 . S
C1264 O1294 1.325 . S
N1265 C1268 1.314 . S
N1265 C1269 1.279 . S
C1266 C1264 1.348 . S
C1266 C1268 1.353 . S
C1266 H1308 0.929 . S
C1267 C1264 1.356 . S
C1267 C1269 1.358 . S
C1267 H1309 0.930 . S
C1268 N1265 1.314 . S
C1268 C1266 1.353 . S
C1268 H1310 0.930 . S
C1269 N1265 1.279 . S
C1269 C1267 1.358 . S
C1269 H1311 0.930 . S
C1270 C1271 1.348 . S
C1270 C1272 1.356 . S
C1270 O1295 1.325 . S
C1271 C1270 1.348 . S
C1271 C1273 1.353 . S
C1271 H1312 0.929 . S
C1272 C1270 1.356 . S
C1272 C1274 1.358 . S
C1272 H1313 0.930 . S
C1273 C1271 1.353 . S
C1273 N1275 1.314 . S
C1273 H1314 0.930 . S
C1274 C1272 1.358 . S
C1274 N1275 1.279 . S
C1274 H1315 0.930 . S
N1275 C1273 1.314 . S
N1275 C1274 1.279 . S
C1276 C1278 1.353 . S
C1276 N1279 1.314 . S
C1276 H1282 0.930 . S
C1277 N1279 1.279 . S
C1277 C1280 1.358 . S
C1277 H1283 0.930 . S
C1278 C1276 1.353 . S
C1278 C1281 1.348 . S
C1278 H1316 0.929 . S
N1279 Li1234 1.990 . S
N1279 C1276 1.314 . S
N1279 C1277 1.279 . S
C1280 C1277 1.358 . S
C1280 C1281 1.356 . S
C1280 H1317 0.930 . S
C1281 C1278 1.348 . S
C1281 C1280 1.356 . S
H1282 C1276 0.930 . S
H1283 C1277 0.930 . S
C1284 N1285 1.314 . S
C1284 C1286 1.353 . S
C1284 H1290 0.930 . S
N1285 Li1235 1.990 . S
N1285 C1284 1.314 . S
N1285 C1288 1.279 . S
C1286 C1284 1.353 . S
C1286 C1289 1.348 . S
C1286 H1318 0.929 . S
C1287 C1288 1.358 . S
C1287 C1289 1.356 . S
C1287 H1319 0.930 . S
C1288 N1285 1.279 . S
C1288 C1287 1.358 . S
C1288 H1291 0.930 . S
C1289 C1286 1.348 . S
C1289 C1287 1.356 . S
H1290 C1284 0.930 . S
H1291 C1288 0.930 . S
O1292 Li1232 1.956 . S
O1292 Li1233 1.970 . S
O1292 Li1234 1.961 . S
O1292 C1236 1.325 . S
O1293 Li1232 1.970 . S
O1293 Li1233 1.956 . S
O1293 Li1235 1.961 . S
O1293 C1242 1.325 . S
O1294 Li1232 1.961 . S
O1294 Li1234 1.956 . S
O1294 Li1235 1.970 . S
O1294 C1264 1.325 . S
O1295 Li1233 1.961 . S
O1295 Li1234 1.970 . S
O1295 Li1235 1.956 . S
O1295 C1270 1.325 . S
H1296 C1238 0.929 . S
H1297 C1239 0.930 . S
H1298 C1240 0.930 . S
H1299 C1241 0.930 . S
H1300 C1243 0.930 . S
H1301 C1245 0.929 . S
H1302 C1246 0.930 . S
H1303 C1247 0.930 . S
H1304 C1250 0.930 . S
H1305 C1253 0.929 . S
H1306 C1258 0.929 . S
H1307 C1259 0.930 . S
H1308 C1266 0.929 . S
H1309 C1267 0.930 . S
H1310 C1268 0.930 . S
H1311 C1269 0.930 . S
H1312 C1271 0.929 . S
H1313 C1272 0.930 . S
H1314 C1273 0.930 . S
H1315 C1274 0.930 . S
H1316 C1278 0.929 . S
H1317 C1280 0.930 . S
H1318 C1286 0.929 . S
H1319 C1287 0.930 . S
Li1320 N1337 1.990 . S
Li1320 O1380 1.956 . S
Li1320 O1381 1.970 . S
Li1320 O1382 1.961 . S
Li1321 N1345 1.990 . S
Li1321 O1380 1.970 . S
Li1321 O1381 1.956 . S
Li1321 O1383 1.961 . S
Li1322 N1367 1.990 . S
Li1322 O1380 1.961 . S
Li1322 O1382 1.956 . S
Li1322 O1383 1.970 . S
Li1323 N1373 1.990 . S
Li1323 O1381 1.961 . S
Li1323 O1382 1.970 . S
Li1323 O1383 1.956 . S
C1324 C1326 1.348 . S
C1324 C1327 1.356 . S
C1324 O1380 1.325 . S
N1325 C1328 1.314 . S
N1325 C1329 1.279 . S
C1326 C1324 1.348 . S
C1326 C1328 1.353 . S
C1326 H1384 0.929 . S
C1327 C1324 1.356 . S
C1327 C1329 1.358 . S
C1327 H1385 0.930 . S
C1328 N1325 1.314 . S
C1328 C1326 1.353 . S
C1328 H1386 0.930 . S
C1329 N1325 1.279 . S
C1329 C1327 1.358 . S
C1329 H1387 0.930 . S
C1330 C1333 1.348 . S
C1330 C1334 1.356 . S
C1330 O1381 1.325 . S
C1331 N1332 1.279 . S
C1331 C1334 1.358 . S
C1331 H1388 0.930 . S
N1332 C1331 1.279 . S
N1332 C1335 1.314 . S
C1333 C1330 1.348 . S
C1333 C1335 1.353 . S
C1333 H1389 0.929 . S
C1334 C1330 1.356 . S
C1334 C1331 1.358 . S
C1334 H1390 0.930 . S
C1335 N1332 1.314 . S
C1335 C1333 1.353 . S
C1335 H1391 0.930 . S
C1336 N1337 1.314 . S
C1336 C1341 1.353 . S
C1336 H1342 0.930 . S
N1337 Li1320 1.990 . S
N1337 C1336 1.314 . S
N1337 C1339 1.279 . S
C1338 C1339 1.358 . S
C1338 C1340 1.356 . S
C1338 H1392 0.930 . S
C1339 N1337 1.279 . S
C1339 C1338 1.358 . S
C1339 H1343 0.930 . S
C1340 C1338 1.356 . S
C1340 C1341 1.348 . S
C1341 C1336 1.353 . S
C1341 C1340 1.348 . S
C1341 H1393 0.929 . S
H1342 C1336 0.930 . S
H1343 C1339 0.930 . S
C1344 N1345 1.314 . S
C1344 C1346 1.353 . S
C1344 H1350 0.930 . S
N1345 Li1321 1.990 . S
N1345 C1344 1.314 . S
N1345 C1348 1.279 . S
C1346 C1344 1.353 . S
C1346 C1349 1.348 . S
C1346 H1394 0.929 . S
C1347 C1348 1.358 . S
C1347 C1349 1.356 . S
C1347 H1395 0.930 . S
C1348 N1345 1.279 . S
C1348 C1347 1.358 . S
C1348 H1351 0.930 . S
C1349 C1346 1.348 . S
C1349 C1347 1.356 . S
H1350 C1344 0.930 . S
H1351 C1348 0.930 . S
C1352 C1354 1.348 . S
C1352 C1355 1.356 . S
C1352 O1382 1.325 . S
N1353 C1356 1.314 . S
N1353 C1357 1.279 . S
C1354 C1352 1.348 . S
C1354 C1356 1.353 . S
C1354 H1396 0.929 . S
C1355 C1352 1.356 . S
C1355 C1357 1.358 . S
C1355 H1397 0.930 . S
C1356 N1353 1.314 . S
C1356 C1354 1.353 . S
C1356 H1398 0.930 . S
C1357 N1353 1.279 . S
C1357 C1355 1.358 . S
C1357 H1399 0.930 . S
C1358 C1359 1.348 . S
C1358 C1360 1.356 . S
C1358 O1383 1.325 . S
C1359 C1358 1.348 . S
C1359 C1361 1.353 . S
C1359 H1400 0.929 . S
C1360 C1358 1.356 . S
C1360 C1362 1.358 . S
C1360 H1401 0.930 . S
C1361 C1359 1.353 . S
C1361 N1363 1.314 . S
C1361 H1402 0.930 . S
C1362 C1360 1.358 . S
C1362 N1363 1.279 . S
C1362 H1403 0.930 . S
N1363 C1361 1.314 . S
N1363 C1362 1.279 . S
C1364 C1366 1.353 . S
C1364 N1367 1.314 . S
C1364 H1370 0.930 . S
C1365 N1367 1.279 . S
C1365 C1368 1.358 . S
C1365 H1371 0.930 . S
C1366 C1364 1.353 . S
C1366 C1369 1.348 . S
C1366 H1404 0.929 . S
N1367 Li1322 1.990 . S
N1367 C1364 1.314 . S
N1367 C1365 1.279 . S
C1368 C1365 1.358 . S
C1368 C1369 1.356 . S
C1368 H1405 0.930 . S
C1369 C1366 1.348 . S
C1369 C1368 1.356 . S
H1370 C1364 0.930 . S
H1371 C1365 0.930 . S
C1372 N1373 1.314 . S
C1372 C1374 1.353 . S
C1372 H1378 0.930 . S
N1373 Li1323 1.990 . S
N1373 C1372 1.314 . S
N1373 C1376 1.279 . S
C1374 C1372 1.353 . S
C1374 C1377 1.348 . S
C1374 H1406 0.929 . S
C1375 C1376 1.358 . S
C1375 C1377 1.356 . S
C1375 H1407 0.930 . S
C1376 N1373 1.279 . S
C1376 C1375 1.358 . S
C1376 H1379 0.930 . S
C1377 C1374 1.348 . S
C1377 C1375 1.356 . S
H1378 C1372 0.930 . S
H1379 C1376 0.930 . S
O1380 Li1320 1.956 . S
O1380 Li1321 1.970 . S
O1380 Li1322 1.961 . S
O1380 C1324 1.325 . S
O1381 Li1320 1.970 . S
O1381 Li1321 1.956 . S
O1381 Li1323 1.961 . S
O1381 C1330 1.325 . S
O1382 Li1320 1.961 . S
O1382 Li1322 1.956 . S
O1382 Li1323 1.970 . S
O1382 C1352 1.325 . S
O1383 Li1321 1.961 . S
O1383 Li1322 1.970 . S
O1383 Li1323 1.956 . S
O1383 C1358 1.325 . S
H1384 C1326 0.929 . S
H1385 C1327 0.930 . S
H1386 C1328 0.930 . S
H1387 C1329 0.930 . S
H1388 C1331 0.930 . S
H1389 C1333 0.929 . S
H1390 C1334 0.930 . S
H1391 C1335 0.930 . S
H1392 C1338 0.930 . S
H1393 C1341 0.929 . S
H1394 C1346 0.929 . S
H1395 C1347 0.930 . S
H1396 C1354 0.929 . S
H1397 C1355 0.930 . S
H1398 C1356 0.930 . S
H1399 C1357 0.930 . S
H1400 C1359 0.929 . S
H1401 C1360 0.930 . S
H1402 C1361 0.930 . S
H1403 C1362 0.930 . S
H1404 C1366 0.929 . S
H1405 C1368 0.930 . S
H1406 C1374 0.929 . S
H1407 C1375 0.930 . S
Li1408 N1425 1.990 . S
Li1408 O1468 1.956 . S
Li1408 O1469 1.970 . S
Li1408 O1470 1.961 . S
Li1409 N1433 1.990 . S
Li1409 O1468 1.970 . S
Li1409 O1469 1.956 . S
Li1409 O1471 1.961 . S
Li1410 N1455 1.990 . S
Li1410 O1468 1.961 . S
Li1410 O1470 1.956 . S
Li1410 O1471 1.970 . S
Li1411 N1461 1.990 . S
Li1411 O1469 1.961 . S
Li1411 O1470 1.970 . S
Li1411 O1471 1.956 . S
C1412 C1414 1.348 . S
C1412 C1415 1.356 . S
C1412 O1468 1.325 . S
N1413 C1416 1.314 . S
N1413 C1417 1.279 1_565 S
C1414 C1412 1.348 . S
C1414 C1416 1.353 1_545 S
C1414 H1472 0.929 . S
C1415 C1412 1.356 . S
C1415 C1417 1.358 . S
C1415 H1473 0.930 . S
C1416 N1413 1.314 . S
C1416 C1414 1.353 1_565 S
C1416 H1474 0.930 . S
C1417 N1413 1.279 1_545 S
C1417 C1415 1.358 . S
C1417 H1475 0.930 . S
C1418 C1421 1.348 . S
C1418 C1422 1.356 . S
C1418 O1469 1.325 . S
C1419 N1420 1.279 . S
C1419 C1422 1.358 . S
C1419 H1476 0.930 . S
N1420 C1419 1.279 . S
N1420 C1423 1.314 . S
C1421 C1418 1.348 . S
C1421 C1423 1.353 . S
C1421 H1477 0.929 . S
C1422 C1418 1.356 . S
C1422 C1419 1.358 . S
C1422 H1478 0.930 . S
C1423 N1420 1.314 . S
C1423 C1421 1.353 . S
C1423 H1479 0.930 . S
C1424 N1425 1.314 . S
C1424 C1429 1.353 . S
C1424 H1430 0.930 . S
N1425 Li1408 1.990 . S
N1425 C1424 1.314 . S
N1425 C1427 1.279 . S
C1426 C1427 1.358 . S
C1426 C1428 1.356 . S
C1426 H1480 0.930 . S
C1427 N1425 1.279 . S
C1427 C1426 1.358 . S
C1427 H1431 0.930 . S
C1428 C1426 1.356 . S
C1428 C1429 1.348 . S
C1429 C1424 1.353 . S
C1429 C1428 1.348 . S
C1429 H1481 0.929 . S
H1430 C1424 0.930 . S
H1431 C1427 0.930 . S
C1432 N1433 1.290 1_565 S
C1432 C1434 1.391 . S
C1432 H1438 0.916 1_565 S
N1433 Li1409 1.990 . S
N1433 C1432 1.290 1_545 S
N1433 C1436 1.279 . S
C1434 C1432 1.391 . S
C1434 C1437 1.348 . S
C1434 H1482 0.929 . S
C1435 C1436 1.358 1_565 S
C1435 C1437 1.356 . S
C1435 H1483 0.930 . S
C1436 N1433 1.279 . S
C1436 C1435 1.358 1_545 S
C1436 H1439 0.930 . S
C1437 C1434 1.348 . S
C1437 C1435 1.356 . S
H1438 C1432 0.916 1_545 S
H1439 C1436 0.930 . S
C1440 C1442 1.348 . S
C1440 C1443 1.356 . S
C1440 O1470 1.325 . S
N1441 C1444 1.314 . S
N1441 C1445 1.279 . S
C1442 C1440 1.348 . S
C1442 C1444 1.353 . S
C1442 H1484 0.929 . S
C1443 C1440 1.356 . S
C1443 C1445 1.358 . S
C1443 H1485 0.930 . S
C1444 N1441 1.314 . S
C1444 C1442 1.353 . S
C1444 H1486 0.930 . S
C1445 N1441 1.279 . S
C1445 C1443 1.358 . S
C1445 H1487 0.930 . S
C1446 C1447 1.348 . S
C1446 C1448 1.356 . S
C1446 O1471 1.325 . S
C1447 C1446 1.348 . S
C1447 C1449 1.353 . S
C1447 H1488 0.929 . S
C1448 C1446 1.356 . S
C1448 C1450 1.358 . S
C1448 H1489 0.930 . S
C1449 C1447 1.353 . S
C1449 N1451 1.314 . S
C1449 H1490 0.930 . S
C1450 C1448 1.358 . S
C1450 N1451 1.279 . S
C1450 H1491 0.930 . S
N1451 C1449 1.314 . S
N1451 C1450 1.279 . S
C1452 C1454 1.353 . S
C1452 N1455 1.314 . S
C1452 H1458 0.930 . S
C1453 N1455 1.279 . S
C1453 C1456 1.358 . S
C1453 H1459 0.930 . S
C1454 C1452 1.353 . S
C1454 C1457 1.348 . S
C1454 H1492 0.929 . S
N1455 Li1410 1.990 . S
N1455 C1452 1.314 . S
N1455 C1453 1.279 . S
C1456 C1453 1.358 . S
C1456 C1457 1.356 . S
C1456 H1493 0.930 . S
C1457 C1454 1.348 . S
C1457 C1456 1.356 . S
H1458 C1452 0.930 . S
H1459 C1453 0.930 . S
C1460 N1461 1.314 . S
C1460 C1462 1.353 . S
C1460 H1466 0.930 . S
N1461 Li1411 1.990 . S
N1461 C1460 1.314 . S
N1461 C1464 1.279 . S
C1462 C1460 1.353 . S
C1462 C1465 1.348 . S
C1462 H1494 0.929 . S
C1463 C1464 1.358 . S
C1463 C1465 1.356 . S
C1463 H1495 0.930 . S
C1464 N1461 1.279 . S
C1464 C1463 1.358 . S
C1464 H1467 0.930 . S
C1465 C1462 1.348 . S
C1465 C1463 1.356 . S
H1466 C1460 0.930 . S
H1467 C1464 0.930 . S
O1468 Li1408 1.956 . S
O1468 Li1409 1.970 . S
O1468 Li1410 1.961 . S
O1468 C1412 1.325 . S
O1469 Li1408 1.970 . S
O1469 Li1409 1.956 . S
O1469 Li1411 1.961 . S
O1469 C1418 1.325 . S
O1470 Li1408 1.961 . S
O1470 Li1410 1.956 . S
O1470 Li1411 1.970 . S
O1470 C1440 1.325 . S
O1471 Li1409 1.961 . S
O1471 Li1410 1.970 . S
O1471 Li1411 1.956 . S
O1471 C1446 1.325 . S
H1472 C1414 0.929 . S
H1473 C1415 0.930 . S
H1474 C1416 0.930 . S
H1475 C1417 0.930 . S
H1476 C1419 0.930 . S
H1477 C1421 0.929 . S
H1478 C1422 0.930 . S
H1479 C1423 0.930 . S
H1480 C1426 0.930 . S
H1481 C1429 0.929 . S
H1482 C1434 0.929 . S
H1483 C1435 0.930 . S
H1484 C1442 0.929 . S
H1485 C1443 0.930 . S
H1486 C1444 0.930 . S
H1487 C1445 0.930 . S
H1488 C1447 0.929 . S
H1489 C1448 0.930 . S
H1490 C1449 0.930 . S
H1491 C1450 0.930 . S
H1492 C1454 0.929 . S
H1493 C1456 0.930 . S
H1494 C1462 0.929 . S
H1495 C1463 0.930 . S
Li1496 N1513 1.990 . S
Li1496 O1556 1.956 . S
Li1496 O1557 1.970 . S
Li1496 O1558 1.961 . S
Li1497 N1521 1.990 . S
Li1497 O1556 1.970 . S
Li1497 O1557 1.956 . S
Li1497 O1559 1.961 . S
Li1498 N1543 1.990 . S
Li1498 O1556 1.961 . S
Li1498 O1558 1.956 . S
Li1498 O1559 1.970 . S
Li1499 N1549 1.990 . S
Li1499 O1557 1.961 . S
Li1499 O1558 1.970 . S
Li1499 O1559 1.956 . S
C1500 C1502 1.348 . S
C1500 C1503 1.356 . S
C1500 O1556 1.325 . S
N1501 C1504 1.314 . S
N1501 C1505 1.279 . S
C1502 C1500 1.348 . S
C1502 C1504 1.353 . S
C1502 H1560 0.929 . S
C1503 C1500 1.356 . S
C1503 C1505 1.358 . S
C1503 H1561 0.930 . S
C1504 N1501 1.314 . S
C1504 C1502 1.353 . S
C1504 H1562 0.930 . S
C1505 N1501 1.279 . S
C1505 C1503 1.358 . S
C1505 H1563 0.930 . S
C1506 C1509 1.348 . S
C1506 C1510 1.356 . S
C1506 O1557 1.325 . S
C1507 N1508 1.279 . S
C1507 C1510 1.358 . S
C1507 H1564 0.930 . S
N1508 C1507 1.279 . S
N1508 C1511 1.314 . S
C1509 C1506 1.348 . S
C1509 C1511 1.353 . S
C1509 H1565 0.929 . S
C1510 C1506 1.356 . S
C1510 C1507 1.358 . S
C1510 H1566 0.930 . S
C1511 N1508 1.314 . S
C1511 C1509 1.353 . S
C1511 H1567 0.930 . S
C1512 N1513 1.314 . S
C1512 C1517 1.353 . S
C1512 H1518 0.930 . S
N1513 Li1496 1.990 . S
N1513 C1512 1.314 . S
N1513 C1515 1.279 . S
C1514 C1515 1.358 . S
C1514 C1516 1.356 . S
C1514 H1568 0.930 . S
C1515 N1513 1.279 . S
C1515 C1514 1.358 . S
C1515 H1519 0.930 . S
C1516 C1514 1.356 . S
C1516 C1517 1.348 . S
C1517 C1512 1.353 . S
C1517 C1516 1.348 . S
C1517 H1569 0.929 . S
H1518 C1512 0.930 . S
H1519 C1515 0.930 . S
C1520 N1521 1.314 . S
C1520 C1522 1.353 . S
C1520 H1526 0.930 . S
N1521 Li1497 1.990 . S
N1521 C1520 1.314 . S
N1521 C1524 1.279 . S
C1522 C1520 1.353 . S
C1522 C1525 1.348 . S
C1522 H1570 0.929 . S
C1523 C1524 1.358 . S
C1523 C1525 1.356 . S
C1523 H1571 0.930 . S
C1524 N1521 1.279 . S
C1524 C1523 1.358 . S
C1524 H1527 0.930 . S
C1525 C1522 1.348 . S
C1525 C1523 1.356 . S
H1526 C1520 0.930 . S
H1527 C1524 0.930 . S
C1528 C1530 1.348 . S
C1528 C1531 1.356 . S
C1528 O1558 1.325 . S
N1529 C1532 1.314 . S
N1529 C1533 1.279 . S
C1530 C1528 1.348 . S
C1530 C1532 1.353 . S
C1530 H1572 0.929 . S
C1531 C1528 1.356 . S
C1531 C1533 1.358 . S
C1531 H1573 0.930 . S
C1532 N1529 1.314 . S
C1532 C1530 1.353 . S
C1532 H1574 0.930 . S
C1533 N1529 1.279 . S
C1533 C1531 1.358 . S
C1533 H1575 0.930 . S
C1534 C1535 1.348 . S
C1534 C1536 1.356 . S
C1534 O1559 1.325 . S
C1535 C1534 1.348 . S
C1535 C1537 1.353 . S
C1535 H1576 0.929 . S
C1536 C1534 1.356 . S
C1536 C1538 1.358 . S
C1536 H1577 0.930 . S
C1537 C1535 1.353 . S
C1537 N1539 1.314 . S
C1537 H1578 0.930 . S
C1538 C1536 1.358 . S
C1538 N1539 1.279 . S
C1538 H1579 0.930 . S
N1539 C1537 1.314 . S
N1539 C1538 1.279 . S
C1540 C1542 1.353 . S
C1540 N1543 1.314 . S
C1540 H1546 0.930 . S
C1541 N1543 1.279 . S
C1541 C1544 1.358 . S
C1541 H1547 0.930 . S
C1542 C1540 1.353 . S
C1542 C1545 1.348 . S
C1542 H1580 0.929 . S
N1543 Li1498 1.990 . S
N1543 C1540 1.314 . S
N1543 C1541 1.279 . S
C1544 C1541 1.358 . S
C1544 C1545 1.356 . S
C1544 H1581 0.930 . S
C1545 C1542 1.348 . S
C1545 C1544 1.356 . S
H1546 C1540 0.930 . S
H1547 C1541 0.930 . S
C1548 N1549 1.314 . S
C1548 C1550 1.353 . S
C1548 H1554 0.930 . S
N1549 Li1499 1.990 . S
N1549 C1548 1.314 . S
N1549 C1552 1.279 . S
C1550 C1548 1.353 . S
C1550 C1553 1.348 . S
C1550 H1582 0.929 . S
C1551 C1552 1.358 . S
C1551 C1553 1.356 . S
C1551 H1583 0.930 . S
C1552 N1549 1.279 . S
C1552 C1551 1.358 . S
C1552 H1555 0.930 . S
C1553 C1550 1.348 . S
C1553 C1551 1.356 . S
H1554 C1548 0.930 . S
H1555 C1552 0.930 . S
O1556 Li1496 1.956 . S
O1556 Li1497 1.970 . S
O1556 Li1498 1.961 . S
O1556 C1500 1.325 . S
O1557 Li1496 1.970 . S
O1557 Li1497 1.956 . S
O1557 Li1499 1.961 . S
O1557 C1506 1.325 . S
O1558 Li1496 1.961 . S
O1558 Li1498 1.956 . S
O1558 Li1499 1.970 . S
O1558 C1528 1.325 . S
O1559 Li1497 1.961 . S
O1559 Li1498 1.970 . S
O1559 Li1499 1.956 . S
O1559 C1534 1.325 . S
H1560 C1502 0.929 . S
H1561 C1503 0.930 . S
H1562 C1504 0.930 . S
H1563 C1505 0.930 . S
H1564 C1507 0.930 . S
H1565 C1509 0.929 . S
H1566 C1510 0.930 . S
H1567 C1511 0.930 . S
H1568 C1514 0.930 . S
H1569 C1517 0.929 . S
H1570 C1522 0.929 . S
H1571 C1523 0.930 . S
H1572 C1530 0.929 . S
H1573 C1531 0.930 . S
H1574 C1532 0.930 . S
H1575 C1533 0.930 . S
H1576 C1535 0.929 . S
H1577 C1536 0.930 . S
H1578 C1537 0.930 . S
H1579 C1538 0.930 . S
H1580 C1542 0.929 . S
H1581 C1544 0.930 . S
H1582 C1550 0.929 . S
H1583 C1551 0.930 . S
Li1584 N1601 1.990 . S
Li1584 O1644 1.956 . S
Li1584 O1645 1.970 . S
Li1584 O1646 1.961 . S
Li1585 N1609 1.990 . S
Li1585 O1644 1.970 . S
Li1585 O1645 1.956 . S
Li1585 O1647 1.961 . S
Li1586 N1631 1.990 . S
Li1586 O1644 1.961 . S
Li1586 O1646 1.956 . S
Li1586 O1647 1.970 . S
Li1587 N1637 1.990 . S
Li1587 O1645 1.961 . S
Li1587 O1646 1.970 . S
Li1587 O1647 1.956 . S
C1588 C1590 1.348 . S
C1588 C1591 1.356 . S
C1588 O1644 1.325 . S
N1589 C1592 1.314 . S
N1589 C1593 1.279 . S
C1590 C1588 1.348 . S
C1590 C1592 1.353 . S
C1590 H1648 0.929 . S
C1591 C1588 1.356 . S
C1591 C1593 1.358 . S
C1591 H1649 0.930 . S
C1592 N1589 1.314 . S
C1592 C1590 1.353 . S
C1592 H1650 0.930 . S
C1593 N1589 1.279 . S
C1593 C1591 1.358 . S
C1593 H1651 0.930 . S
C1594 C1597 1.348 . S
C1594 C1598 1.356 . S
C1594 O1645 1.325 . S
C1595 N1596 1.279 . S
C1595 C1598 1.358 . S
C1595 H1652 0.930 . S
N1596 C1595 1.279 . S
N1596 C1599 1.314 . S
C1597 C1594 1.348 . S
C1597 C1599 1.353 . S
C1597 H1653 0.929 . S
C1598 C1594 1.356 . S
C1598 C1595 1.358 . S
C1598 H1654 0.930 . S
C1599 N1596 1.314 . S
C1599 C1597 1.353 . S
C1599 H1655 0.930 . S
C1600 N1601 1.314 . S
C1600 C1605 1.353 . S
C1600 H1606 0.930 . S
N1601 Li1584 1.990 . S
N1601 C1600 1.314 . S
N1601 C1603 1.279 . S
C1602 C1603 1.358 . S
C1602 C1604 1.356 . S
C1602 H1656 0.930 . S
C1603 N1601 1.279 . S
C1603 C1602 1.358 . S
C1603 H1607 0.930 . S
C1604 C1602 1.356 . S
C1604 C1605 1.348 . S
C1605 C1600 1.353 . S
C1605 C1604 1.348 . S
C1605 H1657 0.929 . S
H1606 C1600 0.930 . S
H1607 C1603 0.930 . S
C1608 N1609 1.314 . S
C1608 C1610 1.353 . S
C1608 H1614 0.930 . S
N1609 Li1585 1.990 . S
N1609 C1608 1.314 . S
N1609 C1612 1.279 . S
C1610 C1608 1.353 . S
C1610 C1613 1.348 . S
C1610 H1658 0.929 . S
C1611 C1612 1.358 . S
C1611 C1613 1.356 . S
C1611 H1659 0.930 . S
C1612 N1609 1.279 . S
C1612 C1611 1.358 . S
C1612 H1615 0.930 . S
C1613 C1610 1.348 . S
C1613 C1611 1.356 . S
H1614 C1608 0.930 . S
H1615 C1612 0.930 . S
C1616 C1618 1.348 . S
C1616 C1619 1.356 . S
C1616 O1646 1.325 . S
N1617 C1620 1.314 . S
N1617 C1621 1.279 . S
C1618 C1616 1.348 . S
C1618 C1620 1.353 . S
C1618 H1660 0.929 . S
C1619 C1616 1.356 . S
C1619 C1621 1.358 . S
C1619 H1661 0.930 . S
C1620 N1617 1.314 . S
C1620 C1618 1.353 . S
C1620 H1662 0.930 . S
C1621 N1617 1.279 . S
C1621 C1619 1.358 . S
C1621 H1663 0.930 . S
C1622 C1623 1.348 . S
C1622 C1624 1.356 . S
C1622 O1647 1.325 . S
C1623 C1622 1.348 . S
C1623 C1625 1.353 . S
C1623 H1664 0.929 . S
C1624 C1622 1.356 . S
C1624 C1626 1.358 . S
C1624 H1665 0.930 . S
C1625 C1623 1.353 . S
C1625 N1627 1.314 . S
C1625 H1666 0.930 . S
C1626 C1624 1.358 . S
C1626 N1627 1.279 . S
C1626 H1667 0.930 . S
N1627 C1625 1.314 . S
N1627 C1626 1.279 . S
C1628 C1630 1.353 . S
C1628 N1631 1.314 . S
C1628 H1634 0.930 . S
C1629 N1631 1.279 . S
C1629 C1632 1.358 . S
C1629 H1635 0.930 . S
C1630 C1628 1.353 . S
C1630 C1633 1.348 . S
C1630 H1668 0.929 . S
N1631 Li1586 1.990 . S
N1631 C1628 1.314 . S
N1631 C1629 1.279 . S
C1632 C1629 1.358 . S
C1632 C1633 1.356 . S
C1632 H1669 0.930 . S
C1633 C1630 1.348 . S
C1633 C1632 1.356 . S
H1634 C1628 0.930 . S
H1635 C1629 0.930 . S
C1636 N1637 1.314 . S
C1636 C1638 1.353 . S
C1636 H1642 0.930 . S
N1637 Li1587 1.990 . S
N1637 C1636 1.314 . S
N1637 C1640 1.279 . S
C1638 C1636 1.353 . S
C1638 C1641 1.348 . S
C1638 H1670 0.929 . S
C1639 C1640 1.358 . S
C1639 C1641 1.356 . S
C1639 H1671 0.930 . S
C1640 N1637 1.279 . S
C1640 C1639 1.358 . S
C1640 H1643 0.930 . S
C1641 C1638 1.348 . S
C1641 C1639 1.356 . S
H1642 C1636 0.930 . S
H1643 C1640 0.930 . S
O1644 Li1584 1.956 . S
O1644 Li1585 1.970 . S
O1644 Li1586 1.961 . S
O1644 C1588 1.325 . S
O1645 Li1584 1.970 . S
O1645 Li1585 1.956 . S
O1645 Li1587 1.961 . S
O1645 C1594 1.325 . S
O1646 Li1584 1.961 . S
O1646 Li1586 1.956 . S
O1646 Li1587 1.970 . S
O1646 C1616 1.325 . S
O1647 Li1585 1.961 . S
O1647 Li1586 1.970 . S
O1647 Li1587 1.956 . S
O1647 C1622 1.325 . S
H1648 C1590 0.929 . S
H1649 C1591 0.930 . S
H1650 C1592 0.930 . S
H1651 C1593 0.930 . S
H1652 C1595 0.930 . S
H1653 C1597 0.929 . S
H1654 C1598 0.930 . S
H1655 C1599 0.930 . S
H1656 C1602 0.930 . S
H1657 C1605 0.929 . S
H1658 C1610 0.929 . S
H1659 C1611 0.930 . S
H1660 C1618 0.929 . S
H1661 C1619 0.930 . S
H1662 C1620 0.930 . S
H1663 C1621 0.930 . S
H1664 C1623 0.929 . S
H1665 C1624 0.930 . S
H1666 C1625 0.930 . S
H1667 C1626 0.930 . S
H1668 C1630 0.929 . S
H1669 C1632 0.930 . S
H1670 C1638 0.929 . S
H1671 C1639 0.930 . S
Li1672 N1689 1.990 . S
Li1672 O1732 1.956 . S
Li1672 O1733 1.970 . S
Li1672 O1734 1.961 . S
Li1673 N1697 1.990 . S
Li1673 O1732 1.970 . S
Li1673 O1733 1.956 . S
Li1673 O1735 1.961 . S
Li1674 N1719 1.990 . S
Li1674 O1732 1.961 . S
Li1674 O1734 1.956 . S
Li1674 O1735 1.970 . S
Li1675 N1725 1.990 1_545 S
Li1675 O1733 1.961 . S
Li1675 O1734 1.970 . S
Li1675 O1735 1.956 . S
C1676 C1678 1.348 . S
C1676 C1679 1.356 . S
C1676 O1732 1.325 . S
N1677 C1680 1.314 . S
N1677 C1681 1.279 . S
C1678 C1676 1.348 . S
C1678 C1680 1.353 . S
C1678 H1736 0.929 . S
C1679 C1676 1.356 . S
C1679 C1681 1.358 . S
C1679 H1737 0.930 . S
C1680 N1677 1.314 . S
C1680 C1678 1.353 . S
C1680 H1738 0.930 . S
C1681 N1677 1.279 . S
C1681 C1679 1.358 . S
C1681 H1739 0.930 . S
C1682 C1685 1.348 . S
C1682 C1686 1.356 . S
C1682 O1733 1.325 . S
C1683 N1684 1.279 . S
C1683 C1686 1.358 . S
C1683 H1740 0.930 . S
N1684 C1683 1.279 . S
N1684 C1687 1.314 . S
C1685 C1682 1.348 . S
C1685 C1687 1.353 . S
C1685 H1741 0.929 . S
C1686 C1682 1.356 . S
C1686 C1683 1.358 . S
C1686 H1742 0.930 . S
C1687 N1684 1.314 . S
C1687 C1685 1.353 . S
C1687 H1743 0.930 . S
C1688 N1689 1.314 . S
C1688 C1693 1.353 . S
C1688 H1694 0.952 . S
N1689 Li1672 1.990 . S
N1689 C1688 1.314 . S
N1689 C1691 1.279 . S
C1690 C1691 1.358 . S
C1690 C1692 1.356 . S
C1690 H1744 0.930 . S
C1691 N1689 1.279 . S
C1691 C1690 1.358 . S
C1691 H1695 0.930 . S
C1692 C1690 1.356 . S
C1692 C1693 1.348 . S
C1693 C1688 1.353 . S
C1693 C1692 1.348 . S
C1693 H1745 0.929 1_545 S
H1694 C1688 0.952 . S
H1695 C1691 0.930 . S
C1696 N1697 1.314 . S
C1696 C1698 1.353 . S
C1696 H1702 0.930 . S
N1697 Li1673 1.990 . S
N1697 C1696 1.314 . S
N1697 C1700 1.279 . S
C1698 C1696 1.353 . S
C1698 C1701 1.348 . S
C1698 H1746 0.929 . S
C1699 C1700 1.358 . S
C1699 C1701 1.356 . S
C1699 H1747 0.930 . S
C1700 N1697 1.279 . S
C1700 C1699 1.358 . S
C1700 H1703 0.930 . S
C1701 C1698 1.348 . S
C1701 C1699 1.356 . S
H1702 C1696 0.930 . S
H1703 C1700 0.930 . S
C1704 C1706 1.348 . S
C1704 C1707 1.356 . S
C1704 O1734 1.325 1_565 S
N1705 C1708 1.314 . S
N1705 C1709 1.279 . S
C1706 C1704 1.348 . S
C1706 C1708 1.353 . S
C1706 H1748 0.929 . S
C1707 C1704 1.356 . S
C1707 C1709 1.358 . S
C1707 H1749 0.930 . S
C1708 N1705 1.314 . S
C1708 C1706 1.353 . S
C1708 H1750 0.930 . S
C1709 N1705 1.279 . S
C1709 C1707 1.358 . S
C1709 H1751 0.930 . S
C1710 C1711 1.348 . S
C1710 C1712 1.356 . S
C1710 O1735 1.325 . S
C1711 C1710 1.348 . S
C1711 C1713 1.353 . S
C1711 H1752 0.929 . S
C1712 C1710 1.356 . S
C1712 C1714 1.358 . S
C1712 H1753 0.930 . S
C1713 C1711 1.353 . S
C1713 N1715 1.314 . S
C1713 H1754 0.930 . S
C1714 C1712 1.358 . S
C1714 N1715 1.279 . S
C1714 H1755 0.930 . S
N1715 C1713 1.314 . S
N1715 C1714 1.279 . S
C1716 C1718 1.353 . S
C1716 N1719 1.314 . S
C1716 H1722 0.930 . S
C1717 N1719 1.279 . S
C1717 C1720 1.358 . S
C1717 H1723 0.930 1_545 S
C1718 C1716 1.353 . S
C1718 C1721 1.348 . S
C1718 H1756 0.929 . S
N1719 Li1674 1.990 . S
N1719 C1716 1.314 . S
N1719 C1717 1.279 . S
C1720 C1717 1.358 . S
C1720 C1721 1.356 . S
C1720 H1757 0.930 1_545 S
C1721 C1718 1.348 . S
C1721 C1720 1.356 . S
H1722 C1716 0.930 . S
H1723 C1717 0.930 1_565 S
C1724 N1725 1.314 . S
C1724 C1726 1.353 . S
C1724 H1730 0.930 . S
N1725 Li1675 1.990 1_565 S
N1725 C1724 1.314 . S
N1725 C1728 1.279 . S
C1726 C1724 1.353 . S
C1726 C1729 1.348 . S
C1726 H1758 0.929 . S
C1727 C1728 1.358 . S
C1727 C1729 1.356 . S
C1727 H1759 0.930 . S
C1728 N1725 1.279 . S
C1728 C1727 1.358 . S
C1728 H1731 0.930 . S
C1729 C1726 1.348 . S
C1729 C1727 1.356 . S
H1730 C1724 0.930 . S
H1731 C1728 0.930 . S
O1732 Li1672 1.956 . S
O1732 Li1673 1.970 . S
O1732 Li1674 1.961 . S
O1732 C1676 1.325 . S
O1733 Li1672 1.970 . S
O1733 Li1673 1.956 . S
O1733 Li1675 1.961 . S
O1733 C1682 1.325 . S
O1734 Li1672 1.961 . S
O1734 Li1674 1.956 . S
O1734 Li1675 1.970 . S
O1734 C1704 1.325 1_545 S
O1735 Li1673 1.961 . S
O1735 Li1674 1.970 . S
O1735 Li1675 1.956 . S
O1735 C1710 1.325 . S
H1736 C1678 0.929 . S
H1737 C1679 0.930 . S
H1738 C1680 0.930 . S
H1739 C1681 0.930 . S
H1740 C1683 0.930 . S
H1741 C1685 0.929 . S
H1742 C1686 0.930 . S
H1743 C1687 0.930 . S
H1744 C1690 0.930 . S
H1745 C1693 0.929 1_565 S
H1746 C1698 0.929 . S
H1747 C1699 0.930 . S
H1748 C1706 0.929 . S
H1749 C1707 0.930 . S
H1750 C1708 0.930 . S
H1751 C1709 0.930 . S
H1752 C1711 0.929 . S
H1753 C1712 0.930 . S
H1754 C1713 0.930 . S
H1755 C1714 0.930 . S
H1756 C1718 0.929 . S
H1757 C1720 0.930 1_565 S
H1758 C1726 0.929 . S
H1759 C1727 0.930 . S
Li1760 N1777 1.990 . S
Li1760 O1820 1.956 . S
Li1760 O1821 1.970 . S
Li1760 O1822 1.961 . S
Li1761 N1785 1.990 . S
Li1761 O1820 1.970 . S
Li1761 O1821 1.956 . S
Li1761 O1823 1.961 1_554 S
Li1762 N1807 1.985 . S
Li1762 O1820 1.965 1_556 S
Li1762 O1822 1.960 1_556 S
Li1762 O1823 1.970 . S
Li1763 N1813 1.990 . S
Li1763 O1821 1.961 . S
Li1763 O1822 1.970 . S
Li1763 O1823 1.956 1_554 S
C1764 C1766 1.348 . S
C1764 C1767 1.356 . S
C1764 O1820 1.325 . S
N1765 C1768 1.314 . S
N1765 C1769 1.279 . S
C1766 C1764 1.348 . S
C1766 C1768 1.353 . S
C1766 H1824 0.929 . S
C1767 C1764 1.356 . S
C1767 C1769 1.358 . S
C1767 H1825 0.930 . S
C1768 N1765 1.314 . S
C1768 C1766 1.353 . S
C1768 H1826 0.930 . S
C1769 N1765 1.279 . S
C1769 C1767 1.358 . S
C1769 H1827 0.930 . S
C1770 C1773 1.348 . S
C1770 C1774 1.356 . S
C1770 O1821 1.325 . S
C1771 N1772 1.279 . S
C1771 C1774 1.358 . S
C1771 H1828 0.930 . S
N1772 C1771 1.279 . S
N1772 C1775 1.314 . S
C1773 C1770 1.348 . S
C1773 C1775 1.353 . S
C1773 H1829 0.929 . S
C1774 C1770 1.356 . S
C1774 C1771 1.358 . S
C1774 H1830 0.930 . S
C1775 N1772 1.314 . S
C1775 C1773 1.353 . S
C1775 H1831 0.930 . S
C1776 N1777 1.314 . S
C1776 C1781 1.353 . S
C1776 H1782 0.930 . S
N1777 Li1760 1.990 . S
N1777 C1776 1.314 . S
N1777 C1779 1.279 . S
C1778 C1779 1.358 . S
C1778 C1780 1.356 . S
C1778 H1832 0.930 . S
C1779 N1777 1.279 . S
C1779 C1778 1.358 . S
C1779 H1783 0.930 . S
C1780 C1778 1.356 . S
C1780 C1781 1.348 . S
C1781 C1776 1.353 . S
C1781 C1780 1.348 . S
C1781 H1833 0.929 . S
H1782 C1776 0.930 . S
H1783 C1779 0.930 . S
C1784 N1785 1.314 . S
C1784 C1786 1.353 . S
C1784 H1790 0.930 1_554 S
N1785 Li1761 1.990 . S
N1785 C1784 1.314 . S
N1785 C1788 1.279 . S
C1786 C1784 1.353 . S
C1786 C1789 1.348 . S
C1786 H1834 0.929 1_554 S
C1787 C1788 1.358 . S
C1787 C1789 1.356 . S
C1787 H1835 0.930 . S
C1788 N1785 1.279 . S
C1788 C1787 1.358 . S
C1788 H1791 0.930 . S
C1789 C1786 1.348 . S
C1789 C1787 1.356 . S
H1790 C1784 0.930 1_556 S
H1791 C1788 0.930 . S
C1792 C1794 1.348 . S
C1792 C1795 1.356 . S
C1792 O1822 1.325 . S
N1793 C1796 1.314 . S
N1793 C1797 1.279 . S
C1794 C1792 1.348 . S
C1794 C1796 1.353 . S
C1794 H1836 0.929 . S
C1795 C1792 1.356 . S
C1795 C1797 1.358 . S
C1795 H1837 0.930 . S
C1796 N1793 1.314 . S
C1796 C1794 1.353 . S
C1796 H1838 0.930 . S
C1797 N1793 1.279 . S
C1797 C1795 1.358 . S
C1797 H1839 0.930 . S
C1798 C1799 1.348 . S
C1798 C1800 1.356 . S
C1798 O1823 1.325 . S
C1799 C1798 1.348 . S
C1799 C1801 1.353 . S
C1799 H1840 0.929 . S
C1800 C1798 1.356 . S
C1800 C1802 1.358 . S
C1800 H1841 0.930 . S
C1801 C1799 1.353 . S
C1801 N1803 1.314 . S
C1801 H1842 0.930 . S
C1802 C1800 1.358 . S
C1802 N1803 1.279 . S
C1802 H1843 0.930 . S
N1803 C1801 1.314 . S
N1803 C1802 1.279 . S
C1804 C1806 1.353 . S
C1804 N1807 1.314 . S
C1804 H1810 0.930 . S
C1805 N1807 1.279 . S
C1805 C1808 1.358 . S
C1805 H1811 0.930 . S
C1806 C1804 1.353 . S
C1806 C1809 1.348 . S
C1806 H1844 0.929 . S
N1807 Li1762 1.985 . S
N1807 C1804 1.314 . S
N1807 C1805 1.279 . S
C1808 C1805 1.358 . S
C1808 C1809 1.356 . S
C1808 H1845 0.930 . S
C1809 C1806 1.348 . S
C1809 C1808 1.356 . S
H1810 C1804 0.930 . S
H1811 C1805 0.930 . S
C1812 N1813 1.314 . S
C1812 C1814 1.353 . S
C1812 H1818 0.930 . S
N1813 Li1763 1.990 . S
N1813 C1812 1.314 . S
N1813 C1816 1.279 1_554 S
C1814 C1812 1.353 . S
C1814 C1817 1.348 . S
C1814 H1846 0.929 . S
C1815 C1816 1.358 . S
C1815 C1817 1.356 1_556 S
C1815 H1847 0.930 . S
C1816 N1813 1.279 1_556 S
C1816 C1815 1.358 . S
C1816 H1819 0.930 . S
C1817 C1814 1.348 . S
C1817 C1815 1.356 1_554 S
H1818 C1812 0.930 . S
H1819 C1816 0.930 . S
O1820 Li1760 1.956 . S
O1820 Li1761 1.970 . S
O1820 Li1762 1.965 1_554 S
O1820 C1764 1.325 . S
O1821 Li1760 1.970 . S
O1821 Li1761 1.956 . S
O1821 Li1763 1.961 . S
O1821 C1770 1.325 . S
O1822 Li1760 1.961 . S
O1822 Li1762 1.960 1_554 S
O1822 Li1763 1.970 . S
O1822 C1792 1.325 . S
O1823 Li1761 1.961 1_556 S
O1823 Li1762 1.970 . S
O1823 Li1763 1.956 1_556 S
O1823 C1798 1.325 . S
H1824 C1766 0.929 . S
H1825 C1767 0.930 . S
H1826 C1768 0.930 . S
H1827 C1769 0.930 . S
H1828 C1771 0.930 . S
H1829 C1773 0.929 . S
H1830 C1774 0.930 . S
H1831 C1775 0.930 . S
H1832 C1778 0.930 . S
H1833 C1781 0.929 . S
H1834 C1786 0.929 1_556 S
H1835 C1787 0.930 . S
H1836 C1794 0.929 . S
H1837 C1795 0.930 . S
H1838 C1796 0.930 . S
H1839 C1797 0.930 . S
H1840 C1799 0.929 . S
H1841 C1800 0.930 . S
H1842 C1801 0.930 . S
H1843 C1802 0.930 . S
H1844 C1806 0.929 . S
H1845 C1808 0.930 . S
H1846 C1814 0.929 . S
H1847 C1815 0.930 . S
Li1848 N1865 1.990 . S
Li1848 O1908 1.956 . S
Li1848 O1909 1.970 . S
Li1848 O1910 1.961 . S
Li1849 N1873 1.990 . S
Li1849 O1908 1.970 . S
Li1849 O1909 1.956 . S
Li1849 O1911 1.961 . S
Li1850 N1895 1.990 . S
Li1850 O1908 1.961 . S
Li1850 O1910 1.956 . S
Li1850 O1911 1.970 . S
Li1851 N1901 1.990 . S
Li1851 O1909 1.961 . S
Li1851 O1910 1.970 . S
Li1851 O1911 1.956 . S
C1852 C1854 1.348 . S
C1852 C1855 1.356 . S
C1852 O1908 1.325 . S
N1853 C1856 1.314 . S
N1853 C1857 1.279 . S
C1854 C1852 1.348 . S
C1854 C1856 1.353 . S
C1854 H1912 0.929 . S
C1855 C1852 1.356 . S
C1855 C1857 1.358 . S
C1855 H1913 0.930 . S
C1856 N1853 1.314 . S
C1856 C1854 1.353 . S
C1856 H1914 0.930 . S
C1857 N1853 1.279 . S
C1857 C1855 1.358 . S
C1857 H1915 0.930 . S
C1858 C1861 1.348 . S
C1858 C1862 1.356 . S
C1858 O1909 1.325 . S
C1859 N1860 1.279 . S
C1859 C1862 1.358 . S
C1859 H1916 0.930 . S
N1860 C1859 1.279 . S
N1860 C1863 1.314 . S
C1861 C1858 1.348 . S
C1861 C1863 1.353 . S
C1861 H1917 0.929 . S
C1862 C1858 1.356 . S
C1862 C1859 1.358 . S
C1862 H1918 0.930 . S
C1863 N1860 1.314 . S
C1863 C1861 1.353 . S
C1863 H1919 0.930 . S
C1864 N1865 1.314 . S
C1864 C1869 1.353 . S
C1864 H1870 0.930 . S
N1865 Li1848 1.990 . S
N1865 C1864 1.314 . S
N1865 C1867 1.279 . S
C1866 C1867 1.358 . S
C1866 C1868 1.356 . S
C1866 H1920 0.930 . S
C1867 N1865 1.279 . S
C1867 C1866 1.358 . S
C1867 H1871 0.930 . S
C1868 C1866 1.356 . S
C1868 C1869 1.348 . S
C1869 C1864 1.353 . S
C1869 C1868 1.348 . S
C1869 H1921 0.929 . S
H1870 C1864 0.930 . S
H1871 C1867 0.930 . S
C1872 N1873 1.314 . S
C1872 C1874 1.353 . S
C1872 H1878 0.930 . S
N1873 Li1849 1.990 . S
N1873 C1872 1.314 . S
N1873 C1876 1.279 . S
C1874 C1872 1.353 . S
C1874 C1877 1.348 . S
C1874 H1922 0.929 . S
C1875 C1876 1.358 . S
C1875 C1877 1.356 . S
C1875 H1923 0.930 . S
C1876 N1873 1.279 . S
C1876 C1875 1.358 . S
C1876 H1879 0.930 . S
C1877 C1874 1.348 . S
C1877 C1875 1.356 . S
H1878 C1872 0.930 . S
H1879 C1876 0.930 . S
C1880 C1882 1.348 . S
C1880 C1883 1.356 . S
C1880 O1910 1.325 . S
N1881 C1884 1.314 . S
N1881 C1885 1.279 . S
C1882 C1880 1.348 . S
C1882 C1884 1.353 . S
C1882 H1924 0.929 . S
C1883 C1880 1.356 . S
C1883 C1885 1.358 . S
C1883 H1925 0.930 . S
C1884 N1881 1.314 . S
C1884 C1882 1.353 . S
C1884 H1926 0.930 . S
C1885 N1881 1.279 . S
C1885 C1883 1.358 . S
C1885 H1927 0.930 . S
C1886 C1887 1.348 . S
C1886 C1888 1.356 . S
C1886 O1911 1.325 . S
C1887 C1886 1.348 . S
C1887 C1889 1.353 . S
C1887 H1928 0.929 . S
C1888 C1886 1.356 . S
C1888 C1890 1.358 . S
C1888 H1929 0.930 . S
C1889 C1887 1.353 . S
C1889 N1891 1.314 . S
C1889 H1930 0.930 . S
C1890 C1888 1.358 . S
C1890 N1891 1.279 . S
C1890 H1931 0.930 . S
N1891 C1889 1.314 . S
N1891 C1890 1.279 . S
C1892 C1894 1.353 . S
C1892 N1895 1.314 . S
C1892 H1898 0.930 . S
C1893 N1895 1.279 . S
C1893 C1896 1.358 . S
C1893 H1899 0.930 . S
C1894 C1892 1.353 . S
C1894 C1897 1.348 . S
C1894 H1932 0.929 . S
N1895 Li1850 1.990 . S
N1895 C1892 1.314 . S
N1895 C1893 1.279 . S
C1896 C1893 1.358 . S
C1896 C1897 1.356 . S
C1896 H1933 0.930 . S
C1897 C1894 1.348 . S
C1897 C1896 1.356 . S
H1898 C1892 0.930 . S
H1899 C1893 0.930 . S
C1900 N1901 1.314 . S
C1900 C1902 1.353 . S
C1900 H1906 0.930 . S
N1901 Li1851 1.990 . S
N1901 C1900 1.314 . S
N1901 C1904 1.279 . S
C1902 C1900 1.353 . S
C1902 C1905 1.348 . S
C1902 H1934 0.929 . S
C1903 C1904 1.358 . S
C1903 C1905 1.356 . S
C1903 H1935 0.930 . S
C1904 N1901 1.279 . S
C1904 C1903 1.358 . S
C1904 H1907 0.930 . S
C1905 C1902 1.348 . S
C1905 C1903 1.356 . S
H1906 C1900 0.930 . S
H1907 C1904 0.930 . S
O1908 Li1848 1.956 . S
O1908 Li1849 1.970 . S
O1908 Li1850 1.961 . S
O1908 C1852 1.325 . S
O1909 Li1848 1.970 . S
O1909 Li1849 1.956 . S
O1909 Li1851 1.961 . S
O1909 C1858 1.325 . S
O1910 Li1848 1.961 . S
O1910 Li1850 1.956 . S
O1910 Li1851 1.970 . S
O1910 C1880 1.325 . S
O1911 Li1849 1.961 . S
O1911 Li1850 1.970 . S
O1911 Li1851 1.956 . S
O1911 C1886 1.325 . S
H1912 C1854 0.929 . S
H1913 C1855 0.930 . S
H1914 C1856 0.930 . S
H1915 C1857 0.930 . S
H1916 C1859 0.930 . S
H1917 C1861 0.929 . S
H1918 C1862 0.930 . S
H1919 C1863 0.930 . S
H1920 C1866 0.930 . S
H1921 C1869 0.929 . S
H1922 C1874 0.929 . S
H1923 C1875 0.930 . S
H1924 C1882 0.929 . S
H1925 C1883 0.930 . S
H1926 C1884 0.930 . S
H1927 C1885 0.930 . S
H1928 C1887 0.929 . S
H1929 C1888 0.930 . S
H1930 C1889 0.930 . S
H1931 C1890 0.930 . S
H1932 C1894 0.929 . S
H1933 C1896 0.930 . S
H1934 C1902 0.929 . S
H1935 C1903 0.930 . S
Li1936 N1953 1.990 . S
Li1936 O1996 1.956 . S
Li1936 O1997 1.970 . S
Li1936 O1998 1.961 . S
Li1937 N1961 1.990 . S
Li1937 O1996 1.970 . S
Li1937 O1997 1.956 . S
Li1937 O1999 1.961 . S
Li1938 N1983 1.990 . S
Li1938 O1996 1.961 . S
Li1938 O1998 1.956 . S
Li1938 O1999 1.970 . S
Li1939 N1989 1.990 . S
Li1939 O1997 1.961 . S
Li1939 O1998 1.970 . S
Li1939 O1999 1.956 . S
C1940 C1942 1.348 . S
C1940 C1943 1.356 . S
C1940 O1996 1.325 . S
N1941 C1944 1.314 . S
N1941 C1945 1.279 . S
C1942 C1940 1.348 . S
C1942 C1944 1.353 . S
C1942 H2000 0.929 . S
C1943 C1940 1.356 . S
C1943 C1945 1.358 . S
C1943 H2001 0.930 . S
C1944 N1941 1.314 . S
C1944 C1942 1.353 . S
C1944 H2002 0.930 . S
C1945 N1941 1.279 . S
C1945 C1943 1.358 . S
C1945 H2003 0.930 . S
C1946 C1949 1.348 . S
C1946 C1950 1.356 . S
C1946 O1997 1.325 . S
C1947 N1948 1.279 . S
C1947 C1950 1.358 . S
C1947 H2004 0.930 . S
N1948 C1947 1.279 . S
N1948 C1951 1.314 . S
C1949 C1946 1.348 . S
C1949 C1951 1.353 . S
C1949 H2005 0.929 . S
C1950 C1946 1.356 . S
C1950 C1947 1.358 . S
C1950 H2006 0.930 . S
C1951 N1948 1.314 . S
C1951 C1949 1.353 . S
C1951 H2007 0.930 . S
C1952 N1953 1.314 . S
C1952 C1957 1.353 . S
C1952 H1958 0.930 . S
N1953 Li1936 1.990 . S
N1953 C1952 1.314 . S
N1953 C1955 1.279 . S
C1954 C1955 1.358 . S
C1954 C1956 1.356 . S
C1954 H2008 0.930 . S
C1955 N1953 1.279 . S
C1955 C1954 1.358 . S
C1955 H1959 0.930 . S
C1956 C1954 1.356 . S
C1956 C1957 1.348 . S
C1957 C1952 1.353 . S
C1957 C1956 1.348 . S
C1957 H2009 0.929 . S
H1958 C1952 0.930 . S
H1959 C1955 0.930 . S
C1960 N1961 1.314 . S
C1960 C1962 1.353 . S
C1960 H1966 0.930 . S
N1961 Li1937 1.990 . S
N1961 C1960 1.314 . S
N1961 C1964 1.279 . S
C1962 C1960 1.353 . S
C1962 C1965 1.348 . S
C1962 H2010 0.929 . S
C1963 C1964 1.358 . S
C1963 C1965 1.356 . S
C1963 H2011 0.930 . S
C1964 N1961 1.279 . S
C1964 C1963 1.358 . S
C1964 H1967 0.930 . S
C1965 C1962 1.348 . S
C1965 C1963 1.356 . S
H1966 C1960 0.930 . S
H1967 C1964 0.930 . S
C1968 C1970 1.348 . S
C1968 C1971 1.356 . S
C1968 O1998 1.325 . S
N1969 C1972 1.314 . S
N1969 C1973 1.279 . S
C1970 C1968 1.348 . S
C1970 C1972 1.353 . S
C1970 H2012 0.929 . S
C1971 C1968 1.356 . S
C1971 C1973 1.358 . S
C1971 H2013 0.930 . S
C1972 N1969 1.314 . S
C1972 C1970 1.353 . S
C1972 H2014 0.930 . S
C1973 N1969 1.279 . S
C1973 C1971 1.358 . S
C1973 H2015 0.930 . S
C1974 C1975 1.348 . S
C1974 C1976 1.356 . S
C1974 O1999 1.325 . S
C1975 C1974 1.348 . S
C1975 C1977 1.353 . S
C1975 H2016 0.929 . S
C1976 C1974 1.356 . S
C1976 C1978 1.358 . S
C1976 H2017 0.930 . S
C1977 C1975 1.353 . S
C1977 N1979 1.314 . S
C1977 H2018 0.930 . S
C1978 C1976 1.358 . S
C1978 N1979 1.279 . S
C1978 H2019 0.930 . S
N1979 C1977 1.314 . S
N1979 C1978 1.279 . S
C1980 C1982 1.353 . S
C1980 N1983 1.314 . S
C1980 H1986 0.930 . S
C1981 N1983 1.279 . S
C1981 C1984 1.358 . S
C1981 H1987 0.930 . S
C1982 C1980 1.353 . S
C1982 C1985 1.348 . S
C1982 H2020 0.929 . S
N1983 Li1938 1.990 . S
N1983 C1980 1.314 . S
N1983 C1981 1.279 . S
C1984 C1981 1.358 . S
C1984 C1985 1.356 . S
C1984 H2021 0.930 . S
C1985 C1982 1.348 . S
C1985 C1984 1.356 . S
H1986 C1980 0.930 . S
H1987 C1981 0.930 . S
C1988 N1989 1.314 . S
C1988 C1990 1.353 . S
C1988 H1994 0.930 . S
N1989 Li1939 1.990 . S
N1989 C1988 1.314 . S
N1989 C1992 1.279 . S
C1990 C1988 1.353 . S
C1990 C1993 1.348 . S
C1990 H2022 0.929 . S
C1991 C1992 1.358 . S
C1991 C1993 1.356 . S
C1991 H2023 0.930 . S
C1992 N1989 1.279 . S
C1992 C1991 1.358 . S
C1992 H1995 0.930 . S
C1993 C1990 1.348 . S
C1993 C1991 1.356 . S
H1994 C1988 0.930 . S
H1995 C1992 0.930 . S
O1996 Li1936 1.956 . S
O1996 Li1937 1.970 . S
O1996 Li1938 1.961 . S
O1996 C1940 1.325 . S
O1997 Li1936 1.970 . S
O1997 Li1937 1.956 . S
O1997 Li1939 1.961 . S
O1997 C1946 1.325 . S
O1998 Li1936 1.961 . S
O1998 Li1938 1.956 . S
O1998 Li1939 1.970 . S
O1998 C1968 1.325 . S
O1999 Li1937 1.961 . S
O1999 Li1938 1.970 . S
O1999 Li1939 1.956 . S
O1999 C1974 1.325 . S
H2000 C1942 0.929 . S
H2001 C1943 0.930 . S
H2002 C1944 0.930 . S
H2003 C1945 0.930 . S
H2004 C1947 0.930 . S
H2005 C1949 0.929 . S
H2006 C1950 0.930 . S
H2007 C1951 0.930 . S
H2008 C1954 0.930 . S
H2009 C1957 0.929 . S
H2010 C1962 0.929 . S
H2011 C1963 0.930 . S
H2012 C1970 0.929 . S
H2013 C1971 0.930 . S
H2014 C1972 0.930 . S
H2015 C1973 0.930 . S
H2016 C1975 0.929 . S
H2017 C1976 0.930 . S
H2018 C1977 0.930 . S
H2019 C1978 0.930 . S
H2020 C1982 0.929 . S
H2021 C1984 0.930 . S
H2022 C1990 0.929 . S
H2023 C1991 0.930 . S
Li2024 N2041 1.990 . S
Li2024 O2084 1.956 . S
Li2024 O2085 1.970 . S
Li2024 O2086 1.961 . S
Li2025 N2049 1.990 . S
Li2025 O2084 1.970 . S
Li2025 O2085 1.956 . S
Li2025 O2087 1.961 . S
Li2026 N2071 1.990 . S
Li2026 O2084 1.961 . S
Li2026 O2086 1.956 . S
Li2026 O2087 1.970 . S
Li2027 N2077 1.990 . S
Li2027 O2085 1.961 . S
Li2027 O2086 1.970 . S
Li2027 O2087 1.956 . S
C2028 C2030 1.348 . S
C2028 C2031 1.356 . S
C2028 O2084 1.325 . S
N2029 C2032 1.314 . S
N2029 C2033 1.279 . S
C2030 C2028 1.348 . S
C2030 C2032 1.353 . S
C2030 H2088 0.929 . S
C2031 C2028 1.356 . S
C2031 C2033 1.358 . S
C2031 H2089 0.930 . S
C2032 N2029 1.314 . S
C2032 C2030 1.353 . S
C2032 H2090 0.930 . S
C2033 N2029 1.279 . S
C2033 C2031 1.358 . S
C2033 H2091 0.930 . S
C2034 C2037 1.348 . S
C2034 C2038 1.356 . S
C2034 O2085 1.325 . S
C2035 N2036 1.279 . S
C2035 C2038 1.358 . S
C2035 H2092 0.930 . S
N2036 C2035 1.279 . S
N2036 C2039 1.314 . S
C2037 C2034 1.348 . S
C2037 C2039 1.353 . S
C2037 H2093 0.929 . S
C2038 C2034 1.356 . S
C2038 C2035 1.358 . S
C2038 H2094 0.930 . S
C2039 N2036 1.314 . S
C2039 C2037 1.353 . S
C2039 H2095 0.930 . S
C2040 N2041 1.314 . S
C2040 C2045 1.353 . S
C2040 H2046 0.930 . S
N2041 Li2024 1.990 . S
N2041 C2040 1.314 . S
N2041 C2043 1.279 . S
C2042 C2043 1.358 . S
C2042 C2044 1.356 . S
C2042 H2096 0.930 . S
C2043 N2041 1.279 . S
C2043 C2042 1.358 . S
C2043 H2047 0.930 . S
C2044 C2042 1.356 . S
C2044 C2045 1.348 . S
C2045 C2040 1.353 . S
C2045 C2044 1.348 . S
C2045 H2097 0.929 . S
H2046 C2040 0.930 . S
H2047 C2043 0.930 . S
C2048 N2049 1.314 . S
C2048 C2050 1.353 . S
C2048 H2054 0.930 . S
N2049 Li2025 1.990 . S
N2049 C2048 1.314 . S
N2049 C2052 1.279 . S
C2050 C2048 1.353 . S
C2050 C2053 1.348 . S
C2050 H2098 0.929 . S
C2051 C2052 1.358 . S
C2051 C2053 1.356 . S
C2051 H2099 0.930 . S
C2052 N2049 1.279 . S
C2052 C2051 1.358 . S
C2052 H2055 0.930 . S
C2053 C2050 1.348 . S
C2053 C2051 1.356 . S
H2054 C2048 0.930 . S
H2055 C2052 0.930 . S
C2056 C2058 1.348 . S
C2056 C2059 1.356 . S
C2056 O2086 1.325 . S
N2057 C2060 1.314 . S
N2057 C2061 1.279 . S
C2058 C2056 1.348 . S
C2058 C2060 1.353 . S
C2058 H2100 0.929 . S
C2059 C2056 1.356 . S
C2059 C2061 1.358 . S
C2059 H2101 0.930 . S
C2060 N2057 1.314 . S
C2060 C2058 1.353 . S
C2060 H2102 0.930 . S
C2061 N2057 1.279 . S
C2061 C2059 1.358 . S
C2061 H2103 0.930 . S
C2062 C2063 1.348 . S
C2062 C2064 1.356 . S
C2062 O2087 1.325 . S
C2063 C2062 1.348 . S
C2063 C2065 1.353 . S
C2063 H2104 0.929 . S
C2064 C2062 1.356 . S
C2064 C2066 1.358 . S
C2064 H2105 0.930 . S
C2065 C2063 1.353 . S
C2065 N2067 1.314 . S
C2065 H2106 0.930 . S
C2066 C2064 1.358 . S
C2066 N2067 1.279 . S
C2066 H2107 0.930 . S
N2067 C2065 1.314 . S
N2067 C2066 1.279 . S
C2068 C2070 1.353 . S
C2068 N2071 1.314 . S
C2068 H2074 0.930 . S
C2069 N2071 1.279 . S
C2069 C2072 1.358 . S
C2069 H2075 0.930 . S
C2070 C2068 1.353 . S
C2070 C2073 1.348 . S
C2070 H2108 0.929 . S
N2071 Li2026 1.990 . S
N2071 C2068 1.314 . S
N2071 C2069 1.279 . S
C2072 C2069 1.358 . S
C2072 C2073 1.356 . S
C2072 H2109 0.930 . S
C2073 C2070 1.348 . S
C2073 C2072 1.356 . S
H2074 C2068 0.930 . S
H2075 C2069 0.930 . S
C2076 N2077 1.314 . S
C2076 C2078 1.353 . S
C2076 H2082 0.930 . S
N2077 Li2027 1.990 . S
N2077 C2076 1.314 . S
N2077 C2080 1.279 . S
C2078 C2076 1.353 . S
C2078 C2081 1.348 . S
C2078 H2110 0.929 . S
C2079 C2080 1.358 . S
C2079 C2081 1.356 . S
C2079 H2111 0.930 . S
C2080 N2077 1.279 . S
C2080 C2079 1.358 . S
C2080 H2083 0.930 . S
C2081 C2078 1.348 . S
C2081 C2079 1.356 . S
H2082 C2076 0.930 . S
H2083 C2080 0.930 . S
O2084 Li2024 1.956 . S
O2084 Li2025 1.970 . S
O2084 Li2026 1.961 . S
O2084 C2028 1.325 . S
O2085 Li2024 1.970 . S
O2085 Li2025 1.956 . S
O2085 Li2027 1.961 . S
O2085 C2034 1.325 . S
O2086 Li2024 1.961 . S
O2086 Li2026 1.956 . S
O2086 Li2027 1.970 . S
O2086 C2056 1.325 . S
O2087 Li2025 1.961 . S
O2087 Li2026 1.970 . S
O2087 Li2027 1.956 . S
O2087 C2062 1.325 . S
H2088 C2030 0.929 . S
H2089 C2031 0.930 . S
H2090 C2032 0.930 . S
H2091 C2033 0.930 . S
H2092 C2035 0.930 . S
H2093 C2037 0.929 . S
H2094 C2038 0.930 . S
H2095 C2039 0.930 . S
H2096 C2042 0.930 . S
H2097 C2045 0.929 . S
H2098 C2050 0.929 . S
H2099 C2051 0.930 . S
H2100 C2058 0.929 . S
H2101 C2059 0.930 . S
H2102 C2060 0.930 . S
H2103 C2061 0.930 . S
H2104 C2063 0.929 . S
H2105 C2064 0.930 . S
H2106 C2065 0.930 . S
H2107 C2066 0.930 . S
H2108 C2070 0.929 . S
H2109 C2072 0.930 . S
H2110 C2078 0.929 . S
H2111 C2079 0.930 . S
Dy2112 O2116 2.398 1_554 S
Dy2112 O2117 2.491 . S
Dy2112 O2118 2.403 1_554 S
Dy2112 O2119 2.660 1_654 S
Dy2112 O2123 2.360 . S
Dy2112 O2127 2.310 1_655 S
Dy2112 O2128 2.351 1_545 S
C2113 O2124 1.185 . S
C2113 O2125 1.355 . S
C2114 O2116 1.185 . S
C2114 O2117 1.355 1_556 S
Dy2115 O2119 2.295 1_554 S
Dy2115 O2122 2.351 . S
Dy2115 O2124 2.398 . S
Dy2115 O2125 2.491 . S
Dy2115 O2126 2.403 . S
Dy2115 O2127 2.664 . S
Dy2115 O2129 2.326 . S
O2116 Dy2112 2.398 1_556 S
O2116 C2114 1.185 . S
O2117 Dy2112 2.491 . S
O2117 C2114 1.355 1_554 S
O2118 Dy2112 2.403 1_556 S
O2118 C2120 1.254 1_655 S
O2119 Dy2112 2.660 1_456 S
O2119 Dy2115 2.295 1_556 S
O2119 C2120 1.285 . S
C2120 O2118 1.254 1_455 S
C2120 O2119 1.285 . S
C2121 O2126 1.254 . S
C2121 O2127 1.268 . S
O2122 Dy2115 2.351 . S
O2122 C2130 1.249 . S
O2123 Dy2112 2.360 . S
O2123 C2130 1.244 1_655 S
O2124 C2113 1.185 . S
O2124 Dy2115 2.398 . S
O2125 C2113 1.355 . S
O2125 Dy2115 2.491 . S
O2126 Dy2115 2.403 . S
O2126 C2121 1.254 . S
O2127 Dy2112 2.310 1_455 S
O2127 Dy2115 2.664 . S
O2127 C2121 1.268 . S
O2128 Dy2112 2.351 1_565 S
O2128 C2131 1.249 1_655 S
O2129 Dy2115 2.326 . S
O2129 C2131 1.267 1_545 S
C2130 O2122 1.249 . S
C2130 O2123 1.244 1_455 S
C2131 O2128 1.249 1_455 S
C2131 O2129 1.267 1_565 S
Dy2132 O2136 2.398 . S
Dy2132 O2137 2.491 . S
Dy2132 O2138 2.403 . S
Dy2132 O2139 2.664 . S
Dy2132 O2143 2.326 . S
Dy2132 O2147 2.310 . S
Dy2132 O2148 2.351 . S
C2133 O2144 1.185 . S
C2133 O2145 1.355 . S
C2134 O2136 1.185 . S
C2134 O2137 1.355 . S
Dy2135 O2139 2.310 . S
Dy2135 O2142 2.351 . S
Dy2135 O2144 2.398 . S
Dy2135 O2145 2.491 . S
Dy2135 O2146 2.403 . S
Dy2135 O2147 2.664 . S
Dy2135 O2149 2.326 . S
O2136 Dy2132 2.398 . S
O2136 C2134 1.185 . S
O2137 Dy2132 2.491 . S
O2137 C2134 1.355 . S
O2138 Dy2132 2.403 . S
O2138 C2140 1.254 . S
O2139 Dy2132 2.664 . S
O2139 Dy2135 2.310 . S
O2139 C2140 1.268 . S
C2140 O2138 1.254 . S
C2140 O2139 1.268 . S
C2141 O2146 1.254 . S
C2141 O2147 1.268 . S
O2142 Dy2135 2.351 . S
O2142 C2150 1.249 . S
O2143 Dy2132 2.326 . S
O2143 C2150 1.267 . S
O2144 C2133 1.185 . S
O2144 Dy2135 2.398 . S
O2145 C2133 1.355 . S
O2145 Dy2135 2.491 . S
O2146 Dy2135 2.403 . S
O2146 C2141 1.254 . S
O2147 Dy2132 2.310 . S
O2147 Dy2135 2.664 . S
O2147 C2141 1.268 . S
O2148 Dy2132 2.351 . S
O2148 C2151 1.249 . S
O2149 Dy2135 2.326 . S
O2149 C2151 1.267 . S
C2150 O2142 1.249 . S
C2150 O2143 1.267 . S
C2151 O2148 1.249 . S
C2151 O2149 1.267 . S
Dy2152 O2156 2.398 . S
Dy2152 O2157 2.491 . S
Dy2152 O2158 2.403 . S
Dy2152 O2159 2.664 . S
Dy2152 O2163 2.349 . S
Dy2152 O2167 2.310 . S
Dy2152 O2168 2.351 . S
C2153 O2164 1.185 . S
C2153 O2165 1.355 . S
C2154 O2156 1.185 . S
C2154 O2157 1.355 . S
Dy2155 O2159 2.310 . S
Dy2155 O2162 2.351 1_545 S
Dy2155 O2164 2.398 . S
Dy2155 O2165 2.491 . S
Dy2155 O2166 2.403 . S
Dy2155 O2167 2.664 . S
Dy2155 O2169 2.326 . S
O2156 Dy2152 2.398 . S
O2156 C2154 1.185 . S
O2157 Dy2152 2.491 . S
O2157 C2154 1.355 . S
O2158 Dy2152 2.403 . S
O2158 C2160 1.254 . S
O2159 Dy2152 2.664 . S
O2159 Dy2155 2.310 . S
O2159 C2160 1.268 . S
C2160 O2158 1.254 . S
C2160 O2159 1.268 . S
C2161 O2166 1.254 . S
C2161 O2167 1.268 . S
O2162 Dy2155 2.351 1_565 S
O2162 C2170 1.249 . S
O2163 Dy2152 2.349 . S
O2163 C2170 1.254 1_545 S
O2164 C2153 1.185 . S
O2164 Dy2155 2.398 . S
O2165 C2153 1.355 . S
O2165 Dy2155 2.491 . S
O2166 Dy2155 2.403 . S
O2166 C2161 1.254 . S
O2167 Dy2152 2.310 . S
O2167 Dy2155 2.664 . S
O2167 C2161 1.268 . S
O2168 Dy2152 2.351 . S
O2168 C2171 1.249 . S
O2169 Dy2155 2.326 . S
O2169 C2171 1.267 . S
C2170 O2162 1.249 . S
C2170 O2163 1.254 1_565 S
C2171 O2168 1.249 . S
C2171 O2169 1.267 . S
Dy2172 O2176 2.398 . S
Dy2172 O2177 2.491 . S
Dy2172 O2178 2.403 . S
Dy2172 O2179 2.664 . S
Dy2172 O2183 2.326 . S
Dy2172 O2187 2.310 . S
Dy2172 O2188 2.351 . S
C2173 O2184 1.185 . S
C2173 O2185 1.355 . S
C2174 O2176 1.185 . S
C2174 O2177 1.355 . S
Dy2175 O2179 2.310 . S
Dy2175 O2182 2.351 . S
Dy2175 O2184 2.398 . S
Dy2175 O2185 2.491 . S
Dy2175 O2186 2.403 . S
Dy2175 O2187 2.664 . S
Dy2175 O2189 2.326 . S
O2176 Dy2172 2.398 . S
O2176 C2174 1.185 . S
O2177 Dy2172 2.491 . S
O2177 C2174 1.355 . S
O2178 Dy2172 2.403 . S
O2178 C2180 1.254 . S
O2179 Dy2172 2.664 . S
O2179 Dy2175 2.310 . S
O2179 C2180 1.268 . S
C2180 O2178 1.254 . S
C2180 O2179 1.268 . S
C2181 O2186 1.254 . S
C2181 O2187 1.268 . S
O2182 Dy2175 2.351 . S
O2182 C2190 1.249 . S
O2183 Dy2172 2.326 . S
O2183 C2190 1.267 . S
O2184 C2173 1.185 . S
O2184 Dy2175 2.398 . S
O2185 C2173 1.355 . S
O2185 Dy2175 2.491 . S
O2186 Dy2175 2.403 . S
O2186 C2181 1.254 . S
O2187 Dy2172 2.310 . S
O2187 Dy2175 2.664 . S
O2187 C2181 1.268 . S
O2188 Dy2172 2.351 . S
O2188 C2191 1.249 . S
O2189 Dy2175 2.326 . S
O2189 C2191 1.267 . S
C2190 O2182 1.249 . S
C2190 O2183 1.267 . S
C2191 O2188 1.249 . S
C2191 O2189 1.267 . S
Dy2192 O2196 2.398 . S
Dy2192 O2197 2.491 1_455 S
Dy2192 O2198 2.403 . S
Dy2192 O2199 2.664 . S
Dy2192 O2203 2.326 . S
Dy2192 O2207 2.310 1_455 S
Dy2192 O2208 2.351 1_545 S
C2193 O2204 1.185 . S
C2193 O2205 1.355 . S
C2194 O2196 1.185 1_655 S
C2194 O2197 1.355 . S
Dy2195 O2199 2.310 . S
Dy2195 O2202 2.351 . S
Dy2195 O2204 2.398 . S
Dy2195 O2205 2.491 . S
Dy2195 O2206 2.403 1_455 S
Dy2195 O2207 2.664 1_455 S
Dy2195 O2209 2.326 . S
O2196 Dy2192 2.398 . S
O2196 C2194 1.185 1_455 S
O2197 Dy2192 2.491 1_655 S
O2197 C2194 1.355 . S
O2198 Dy2192 2.403 . S
O2198 C2200 1.254 . S
O2199 Dy2192 2.664 . S
O2199 Dy2195 2.310 . S
O2199 C2200 1.268 . S
C2200 O2198 1.254 . S
C2200 O2199 1.268 . S
C2201 O2206 1.254 . S
C2201 O2207 1.268 . S
O2202 Dy2195 2.351 . S
O2202 C2210 1.249 . S
O2203 Dy2192 2.326 . S
O2203 C2210 1.267 . S
O2204 C2193 1.185 . S
O2204 Dy2195 2.398 . S
O2205 C2193 1.355 . S
O2205 Dy2195 2.491 . S
O2206 Dy2195 2.403 1_655 S
O2206 C2201 1.254 . S
O2207 Dy2192 2.310 1_655 S
O2207 Dy2195 2.664 1_655 S
O2207 C2201 1.268 . S
O2208 Dy2192 2.351 1_565 S
O2208 C2211 1.249 . S
O2209 Dy2195 2.326 . S
O2209 C2211 1.267 1_545 S
C2210 O2202 1.249 . S
C2210 O2203 1.267 . S
C2211 O2208 1.249 . S
C2211 O2209 1.267 1_565 S
Dy2212 O2216 2.398 . S
Dy2212 O2217 2.491 . S
Dy2212 O2218 2.403 . S
Dy2212 O2219 2.664 . S
Dy2212 O2223 2.326 . S
Dy2212 O2227 2.310 . S
Dy2212 O2228 2.351 . S
C2213 O2224 1.185 . S
C2213 O2225 1.355 . S
C2214 O2216 1.185 . S
C2214 O2217 1.355 . S
Dy2215 O2219 2.310 . S
Dy2215 O2222 2.351 . S
Dy2215 O2224 2.398 . S
Dy2215 O2225 2.491 . S
Dy2215 O2226 2.403 . S
Dy2215 O2227 2.664 . S
Dy2215 O2229 2.326 . S
O2216 Dy2212 2.398 . S
O2216 C2214 1.185 . S
O2217 Dy2212 2.491 . S
O2217 C2214 1.355 . S
O2218 Dy2212 2.403 . S
O2218 C2220 1.254 . S
O2219 Dy2212 2.664 . S
O2219 Dy2215 2.310 . S
O2219 C2220 1.268 . S
C2220 O2218 1.254 . S
C2220 O2219 1.268 . S
C2221 O2226 1.254 . S
C2221 O2227 1.268 . S
O2222 Dy2215 2.351 . S
O2222 C2230 1.249 . S
O2223 Dy2212 2.326 . S
O2223 C2230 1.267 . S
O2224 C2213 1.185 . S
O2224 Dy2215 2.398 . S
O2225 C2213 1.355 . S
O2225 Dy2215 2.491 . S
O2226 Dy2215 2.403 . S
O2226 C2221 1.254 . S
O2227 Dy2212 2.310 . S
O2227 Dy2215 2.664 . S
O2227 C2221 1.268 . S
O2228 Dy2212 2.351 . S
O2228 C2231 1.249 . S
O2229 Dy2215 2.326 . S
O2229 C2231 1.267 . S
C2230 O2222 1.249 . S
C2230 O2223 1.267 . S
C2231 O2228 1.249 . S
C2231 O2229 1.267 . S
Dy2232 O2236 2.398 . S
Dy2232 O2237 2.491 . S
Dy2232 O2238 2.403 1_545 S
Dy2232 O2239 2.664 . S
Dy2232 O2243 2.326 . S
Dy2232 O2247 2.310 . S
Dy2232 O2248 2.351 . S
C2233 O2244 1.185 . S
C2233 O2245 1.355 . S
C2234 O2236 1.185 . S
C2234 O2237 1.355 . S
Dy2235 O2239 2.310 1_556 S
Dy2235 O2242 2.351 1_556 S
Dy2235 O2244 2.398 . S
Dy2235 O2245 2.491 . S
Dy2235 O2246 2.403 1_556 S
Dy2235 O2247 2.664 1_556 S
Dy2235 O2249 2.326 1_556 S
O2236 Dy2232 2.398 . S
O2236 C2234 1.185 . S
O2237 Dy2232 2.491 . S
O2237 C2234 1.355 . S
O2238 Dy2232 2.403 1_565 S
O2238 C2240 1.254 . S
O2239 Dy2232 2.664 . S
O2239 Dy2235 2.310 1_554 S
O2239 C2240 1.268 1_545 S
C2240 O2238 1.254 . S
C2240 O2239 1.268 1_565 S
C2241 O2246 1.254 . S
C2241 O2247 1.268 . S
O2242 Dy2235 2.351 1_554 S
O2242 C2250 1.249 . S
O2243 Dy2232 2.326 . S
O2243 C2250 1.267 . S
O2244 C2233 1.185 . S
O2244 Dy2235 2.398 . S
O2245 C2233 1.355 . S
O2245 Dy2235 2.491 . S
O2246 Dy2235 2.403 1_554 S
O2246 C2241 1.254 . S
O2247 Dy2232 2.310 . S
O2247 Dy2235 2.664 1_554 S
O2247 C2241 1.268 . S
O2248 Dy2232 2.351 . S
O2248 C2251 1.249 . S
O2249 Dy2235 2.326 1_554 S
O2249 C2251 1.267 . S
C2250 O2242 1.249 . S
C2250 O2243 1.267 . S
C2251 O2248 1.249 . S
C2251 O2249 1.267 . S
Dy2252 O2256 2.398 . S
Dy2252 O2257 2.491 . S
Dy2252 O2258 2.403 . S
Dy2252 O2259 2.664 . S
Dy2252 O2263 2.326 . S
Dy2252 O2267 2.310 . S
Dy2252 O2268 2.351 . S
C2253 O2264 1.185 . S
C2253 O2265 1.355 . S
C2254 O2256 1.185 . S
C2254 O2257 1.355 . S
Dy2255 O2259 2.310 . S
Dy2255 O2262 2.351 . S
Dy2255 O2264 2.398 . S
Dy2255 O2265 2.491 . S
Dy2255 O2266 2.403 . S
Dy2255 O2267 2.664 . S
Dy2255 O2269 2.326 . S
O2256 Dy2252 2.398 . S
O2256 C2254 1.185 . S
O2257 Dy2252 2.491 . S
O2257 C2254 1.355 . S
O2258 Dy2252 2.403 . S
O2258 C2260 1.254 . S
O2259 Dy2252 2.664 . S
O2259 Dy2255 2.310 . S
O2259 C2260 1.268 . S
C2260 O2258 1.254 . S
C2260 O2259 1.268 . S
C2261 O2266 1.254 . S
C2261 O2267 1.268 . S
O2262 Dy2255 2.351 . S
O2262 C2270 1.249 . S
O2263 Dy2252 2.326 . S
O2263 C2270 1.267 . S
O2264 C2253 1.185 . S
O2264 Dy2255 2.398 . S
O2265 C2253 1.355 . S
O2265 Dy2255 2.491 . S
O2266 Dy2255 2.403 . S
O2266 C2261 1.254 . S
O2267 Dy2252 2.310 . S
O2267 Dy2255 2.664 . S
O2267 C2261 1.268 . S
O2268 Dy2252 2.351 . S
O2268 C2271 1.249 . S
O2269 Dy2255 2.326 . S
O2269 C2271 1.267 . S
C2270 O2262 1.249 . S
C2270 O2263 1.267 . S
C2271 O2268 1.249 . S
C2271 O2269 1.267 . S
Dy2272 O2276 2.398 . S
Dy2272 O2277 2.491 . S
Dy2272 O2278 2.403 . S
Dy2272 O2279 2.664 1_556 S
Dy2272 O2283 2.326 . S
Dy2272 O2287 2.310 1_556 S
Dy2272 O2288 2.351 1_556 S
C2273 O2284 1.185 . S
C2273 O2285 1.355 . S
C2274 O2276 1.185 . S
C2274 O2277 1.355 . S
Dy2275 O2279 2.310 . S
Dy2275 O2282 2.351 . S
Dy2275 O2284 2.398 . S
Dy2275 O2285 2.491 . S
Dy2275 O2286 2.403 . S
Dy2275 O2287 2.664 . S
Dy2275 O2289 2.326 . S
O2276 Dy2272 2.398 . S
O2276 C2274 1.185 . S
O2277 Dy2272 2.491 . S
O2277 C2274 1.355 . S
O2278 Dy2272 2.403 . S
O2278 C2280 1.254 1_556 S
O2279 Dy2272 2.664 1_554 S
O2279 Dy2275 2.310 . S
O2279 C2280 1.268 . S
C2280 O2278 1.254 1_554 S
C2280 O2279 1.268 . S
C2281 O2286 1.254 . S
C2281 O2287 1.268 . S
O2282 Dy2275 2.351 . S
O2282 C2290 1.249 . S
O2283 Dy2272 2.326 . S
O2283 C2290 1.267 1_556 S
O2284 C2273 1.185 . S
O2284 Dy2275 2.398 . S
O2285 C2273 1.355 . S
O2285 Dy2275 2.491 . S
O2286 Dy2275 2.403 . S
O2286 C2281 1.254 . S
O2287 Dy2272 2.310 1_554 S
O2287 Dy2275 2.664 . S
O2287 C2281 1.268 . S
O2288 Dy2272 2.351 1_554 S
O2288 C2291 1.249 . S
O2289 Dy2275 2.326 . S
O2289 C2291 1.267 . S
C2290 O2282 1.249 . S
C2290 O2283 1.267 1_554 S
C2291 O2288 1.249 . S
C2291 O2289 1.267 . S
Dy2292 O2296 2.398 . S
Dy2292 O2297 2.491 . S
Dy2292 O2298 2.403 . S
Dy2292 O2299 2.664 . S
Dy2292 O2303 2.326 . S
Dy2292 O2307 2.310 . S
Dy2292 O2308 2.351 . S
C2293 O2304 1.185 . S
C2293 O2305 1.355 . S
C2294 O2296 1.185 . S
C2294 O2297 1.355 . S
Dy2295 O2299 2.310 . S
Dy2295 O2302 2.351 . S
Dy2295 O2304 2.398 . S
Dy2295 O2305 2.491 . S
Dy2295 O2306 2.403 . S
Dy2295 O2307 2.664 . S
Dy2295 O2309 2.326 . S
O2296 Dy2292 2.398 . S
O2296 C2294 1.185 . S
O2297 Dy2292 2.491 . S
O2297 C2294 1.355 . S
O2298 Dy2292 2.403 . S
O2298 C2300 1.254 . S
O2299 Dy2292 2.664 . S
O2299 Dy2295 2.310 . S
O2299 C2300 1.268 . S
C2300 O2298 1.254 . S
C2300 O2299 1.268 . S
C2301 O2306 1.254 . S
C2301 O2307 1.268 . S
O2302 Dy2295 2.351 . S
O2302 C2310 1.249 . S
O2303 Dy2292 2.326 . S
O2303 C2310 1.267 . S
O2304 C2293 1.185 . S
O2304 Dy2295 2.398 . S
O2305 C2293 1.355 . S
O2305 Dy2295 2.491 . S
O2306 Dy2295 2.403 . S
O2306 C2301 1.254 . S
O2307 Dy2292 2.310 . S
O2307 Dy2295 2.664 . S
O2307 C2301 1.268 . S
O2308 Dy2292 2.351 . S
O2308 C2311 1.249 . S
O2309 Dy2295 2.326 . S
O2309 C2311 1.267 . S
C2310 O2302 1.249 . S
C2310 O2303 1.267 . S
C2311 O2308 1.249 . S
C2311 O2309 1.267 . S
Dy2312 O2316 2.397 . S
Dy2312 O2317 2.491 1_455 S
Dy2312 O2318 2.403 . S
Dy2312 O2319 2.664 . S
Dy2312 O2323 2.326 1_455 S
Dy2312 O2327 2.310 . S
Dy2312 O2328 2.351 . S
C2313 O2324 1.185 . S
C2313 O2325 1.355 . S
C2314 O2316 1.186 1_655 S
C2314 O2317 1.355 . S
Dy2315 O2319 2.310 . S
Dy2315 O2322 2.351 1_455 S
Dy2315 O2324 2.398 . S
Dy2315 O2325 2.491 . S
Dy2315 O2326 2.403 . S
Dy2315 O2327 2.664 . S
Dy2315 O2329 2.326 . S
O2316 Dy2312 2.397 . S
O2316 C2314 1.186 1_455 S
O2317 Dy2312 2.491 1_655 S
O2317 C2314 1.355 . S
O2318 Dy2312 2.403 . S
O2318 C2320 1.254 . S
O2319 Dy2312 2.664 . S
O2319 Dy2315 2.310 . S
O2319 C2320 1.268 . S
C2320 O2318 1.254 . S
C2320 O2319 1.268 . S
C2321 O2326 1.254 . S
C2321 O2327 1.268 . S
O2322 Dy2315 2.351 1_655 S
O2322 C2330 1.249 . S
O2323 Dy2312 2.326 1_655 S
O2323 C2330 1.267 . S
O2324 C2313 1.185 . S
O2324 Dy2315 2.398 . S
O2325 C2313 1.355 . S
O2325 Dy2315 2.491 . S
O2326 Dy2315 2.403 . S
O2326 C2321 1.254 . S
O2327 Dy2312 2.310 . S
O2327 Dy2315 2.664 . S
O2327 C2321 1.268 . S
O2328 Dy2312 2.351 . S
O2328 C2331 1.249 . S
O2329 Dy2315 2.326 . S
O2329 C2331 1.267 . S
C2330 O2322 1.249 . S
C2330 O2323 1.267 . S
C2331 O2328 1.249 . S
C2331 O2329 1.267 . S
Dy2332 O2336 2.398 . S
Dy2332 O2337 2.491 . S
Dy2332 O2338 2.403 . S
Dy2332 O2339 2.664 . S
Dy2332 O2343 2.326 . S
Dy2332 O2347 2.310 . S
Dy2332 O2348 2.351 . S
C2333 O2344 1.185 . S
C2333 O2345 1.355 . S
C2334 O2336 1.185 . S
C2334 O2337 1.355 . S
Dy2335 O2339 2.310 . S
Dy2335 O2342 2.351 . S
Dy2335 O2344 2.398 . S
Dy2335 O2345 2.491 . S
Dy2335 O2346 2.403 . S
Dy2335 O2347 2.664 . S
Dy2335 O2349 2.326 . S
O2336 Dy2332 2.398 . S
O2336 C2334 1.185 . S
O2337 Dy2332 2.491 . S
O2337 C2334 1.355 . S
O2338 Dy2332 2.403 . S
O2338 C2340 1.254 . S
O2339 Dy2332 2.664 . S
O2339 Dy2335 2.310 . S
O2339 C2340 1.268 . S
C2340 O2338 1.254 . S
C2340 O2339 1.268 . S
C2341 O2346 1.254 . S
C2341 O2347 1.268 . S
O2342 Dy2335 2.351 . S
O2342 C2350 1.249 . S
O2343 Dy2332 2.326 . S
O2343 C2350 1.267 . S
O2344 C2333 1.185 . S
O2344 Dy2335 2.398 . S
O2345 C2333 1.355 . S
O2345 Dy2335 2.491 . S
O2346 Dy2335 2.403 . S
O2346 C2341 1.254 . S
O2347 Dy2332 2.310 . S
O2347 Dy2335 2.664 . S
O2347 C2341 1.268 . S
O2348 Dy2332 2.351 . S
O2348 C2351 1.249 . S
O2349 Dy2335 2.326 . S
O2349 C2351 1.267 . S
C2350 O2342 1.249 . S
C2350 O2343 1.267 . S
C2351 O2348 1.249 . S
C2351 O2349 1.267 . S
Dy2352 O2356 2.398 . S
Dy2352 O2357 2.491 . S
Dy2352 O2358 2.403 . S
Dy2352 O2359 2.664 . S
Dy2352 O2363 2.326 . S
Dy2352 O2367 2.310 . S
Dy2352 O2368 2.351 . S
C2353 O2364 1.185 . S
C2353 O2365 1.355 . S
C2354 O2356 1.185 . S
C2354 O2357 1.355 . S
Dy2355 O2359 2.310 . S
Dy2355 O2362 2.351 . S
Dy2355 O2364 2.398 . S
Dy2355 O2365 2.491 . S
Dy2355 O2366 2.403 . S
Dy2355 O2367 2.664 . S
Dy2355 O2369 2.326 . S
O2356 Dy2352 2.398 . S
O2356 C2354 1.185 . S
O2357 Dy2352 2.491 . S
O2357 C2354 1.355 . S
O2358 Dy2352 2.403 . S
O2358 C2360 1.254 . S
O2359 Dy2352 2.664 . S
O2359 Dy2355 2.310 . S
O2359 C2360 1.268 . S
C2360 O2358 1.254 . S
C2360 O2359 1.268 . S
C2361 O2366 1.254 . S
C2361 O2367 1.268 . S
O2362 Dy2355 2.351 . S
O2362 C2370 1.249 . S
O2363 Dy2352 2.326 . S
O2363 C2370 1.267 . S
O2364 C2353 1.185 . S
O2364 Dy2355 2.398 . S
O2365 C2353 1.355 . S
O2365 Dy2355 2.491 . S
O2366 Dy2355 2.403 . S
O2366 C2361 1.254 . S
O2367 Dy2352 2.310 . S
O2367 Dy2355 2.664 . S
O2367 C2361 1.268 . S
O2368 Dy2352 2.351 . S
O2368 C2371 1.249 . S
O2369 Dy2355 2.326 . S
O2369 C2371 1.267 . S
C2370 O2362 1.249 . S
C2370 O2363 1.267 . S
C2371 O2368 1.249 . S
C2371 O2369 1.267 . S
Dy2372 O2376 2.398 . S
Dy2372 O2377 2.491 . S
Dy2372 O2378 2.403 . S
Dy2372 O2379 2.664 . S
Dy2372 O2383 2.326 . S
Dy2372 O2387 2.310 . S
Dy2372 O2388 2.351 . S
C2373 O2384 1.185 . S
C2373 O2385 1.355 . S
C2374 O2376 1.185 . S
C2374 O2377 1.355 . S
Dy2375 O2379 2.310 . S
Dy2375 O2382 2.351 . S
Dy2375 O2384 2.398 . S
Dy2375 O2385 2.491 . S
Dy2375 O2386 2.403 . S
Dy2375 O2387 2.664 . S
Dy2375 O2389 2.326 . S
O2376 Dy2372 2.398 . S
O2376 C2374 1.185 . S
O2377 Dy2372 2.491 . S
O2377 C2374 1.355 . S
O2378 Dy2372 2.403 . S
O2378 C2380 1.254 . S
O2379 Dy2372 2.664 . S
O2379 Dy2375 2.310 . S
O2379 C2380 1.268 . S
C2380 O2378 1.254 . S
C2380 O2379 1.268 . S
C2381 O2386 1.254 . S
C2381 O2387 1.268 . S
O2382 Dy2375 2.351 . S
O2382 C2390 1.249 . S
O2383 Dy2372 2.326 . S
O2383 C2390 1.267 . S
O2384 C2373 1.185 . S
O2384 Dy2375 2.398 . S
O2385 C2373 1.355 . S
O2385 Dy2375 2.491 . S
O2386 Dy2375 2.403 . S
O2386 C2381 1.254 . S
O2387 Dy2372 2.310 . S
O2387 Dy2375 2.664 . S
O2387 C2381 1.268 . S
O2388 Dy2372 2.351 . S
O2388 C2391 1.249 . S
O2389 Dy2375 2.326 . S
O2389 C2391 1.267 . S
C2390 O2382 1.249 . S
C2390 O2383 1.267 . S
C2391 O2388 1.249 . S
C2391 O2389 1.267 . S
Dy2392 O2396 2.398 . S
Dy2392 O2397 2.491 . S
Dy2392 O2398 2.403 . S
Dy2392 O2399 2.664 . S
Dy2392 O2403 2.326 . S
Dy2392 O2407 2.310 . S
Dy2392 O2408 2.351 . S
C2393 O2404 1.185 . S
C2393 O2405 1.355 . S
C2394 O2396 1.185 . S
C2394 O2397 1.355 . S
Dy2395 O2399 2.310 . S
Dy2395 O2402 2.351 . S
Dy2395 O2404 2.398 . S
Dy2395 O2405 2.491 . S
Dy2395 O2406 2.403 . S
Dy2395 O2407 2.664 . S
Dy2395 O2409 2.326 . S
O2396 Dy2392 2.398 . S
O2396 C2394 1.185 . S
O2397 Dy2392 2.491 . S
O2397 C2394 1.355 . S
O2398 Dy2392 2.403 . S
O2398 C2400 1.254 . S
O2399 Dy2392 2.664 . S
O2399 Dy2395 2.310 . S
O2399 C2400 1.268 . S
C2400 O2398 1.254 . S
C2400 O2399 1.268 . S
C2401 O2406 1.254 . S
C2401 O2407 1.268 . S
O2402 Dy2395 2.351 . S
O2402 C2410 1.249 . S
O2403 Dy2392 2.326 . S
O2403 C2410 1.267 . S
O2404 C2393 1.185 . S
O2404 Dy2395 2.398 . S
O2405 C2393 1.355 . S
O2405 Dy2395 2.491 . S
O2406 Dy2395 2.403 . S
O2406 C2401 1.254 . S
O2407 Dy2392 2.310 . S
O2407 Dy2395 2.664 . S
O2407 C2401 1.268 . S
O2408 Dy2392 2.351 . S
O2408 C2411 1.249 . S
O2409 Dy2395 2.326 . S
O2409 C2411 1.267 . S
C2410 O2402 1.249 . S
C2410 O2403 1.267 . S
C2411 O2408 1.249 . S
C2411 O2409 1.267 . S
Dy2412 O2416 2.398 1_554 S
Dy2412 O2417 2.491 . S
Dy2412 O2418 2.403 1_554 S
Dy2412 O2419 2.649 1_554 S
Dy2412 O2423 2.333 . S
Dy2412 O2427 2.310 . S
Dy2412 O2428 2.351 . S
C2413 O2424 1.185 . S
C2413 O2425 1.355 . S
C2414 O2416 1.185 1_554 S
C2414 O2417 1.355 . S
Dy2415 O2419 2.259 1_654 S
Dy2415 O2422 2.351 . S
Dy2415 O2424 2.398 . S
Dy2415 O2425 2.491 . S
Dy2415 O2426 2.403 . S
Dy2415 O2427 2.664 1_655 S
Dy2415 O2429 2.326 1_655 S
O2416 Dy2412 2.398 1_556 S
O2416 C2414 1.185 1_556 S
O2417 Dy2412 2.491 . S
O2417 C2414 1.355 . S
O2418 Dy2412 2.403 1_556 S
O2418 C2420 1.254 . S
O2419 Dy2412 2.649 1_556 S
O2419 Dy2415 2.259 1_456 S
O2419 C2420 1.326 . S
C2420 O2418 1.254 . S
C2420 O2419 1.326 . S
C2421 O2426 1.254 1_455 S
C2421 O2427 1.268 . S
O2422 Dy2415 2.351 . S
O2422 C2430 1.249 1_655 S
O2423 Dy2412 2.333 . S
O2423 C2430 1.286 . S
O2424 C2413 1.185 . S
O2424 Dy2415 2.398 . S
O2425 C2413 1.355 . S
O2425 Dy2415 2.491 . S
O2426 Dy2415 2.403 . S
O2426 C2421 1.254 1_655 S
O2427 Dy2412 2.310 . S
O2427 Dy2415 2.664 1_455 S
O2427 C2421 1.268 . S
O2428 Dy2412 2.351 . S
O2428 C2431 1.249 . S
O2429 Dy2415 2.326 1_455 S
O2429 C2431 1.267 . S
C2430 O2422 1.249 1_455 S
C2430 O2423 1.286 . S
C2431 O2428 1.249 . S
C2431 O2429 1.267 . S
H2432 C2440 0.929 . S
H2433 C2442 0.930 . S
H2434 C2444 0.930 . S
H2435 C2447 0.929 . S
H2436 C2450 0.925 1_655 S
H2437 C2452 0.960 . S
H2438 C2452 0.960 . S
H2439 C2452 0.966 . S
C2440 H2432 0.929 . S
C2440 C2441 1.339 1_455 S
C2440 C2442 1.384 . S
C2441 C2440 1.339 1_655 S
C2441 C2447 1.417 . S
C2442 H2433 0.930 . S
C2442 C2440 1.384 . S
C2442 C2443 1.372 . S
C2443 C2442 1.372 . S
C2443 C2444 1.400 1_455 S
C2443 C2448 1.490 . S
C2444 H2434 0.930 . S
C2444 C2443 1.400 1_655 S
C2444 C2447 1.386 . S
H2445 C2461 0.930 . S
H2446 C2462 0.931 . S
C2447 H2435 0.929 . S
C2447 C2441 1.417 . S
C2447 C2444 1.386 . S
C2448 C2443 1.490 . S
C2448 C2450 1.395 . S
C2448 C2451 1.403 . S
H2449 C2455 0.930 . S
C2450 H2436 0.925 1_455 S
C2450 C2448 1.395 . S
C2450 C2453 1.415 . S
C2451 C2448 1.403 . S
C2451 C2452 1.524 . S
C2451 C2455 1.400 . S
C2452 H2437 0.960 . S
C2452 H2438 0.960 . S
C2452 H2439 0.966 . S
C2452 C2451 1.524 . S
C2453 C2450 1.415 . S
C2453 C2454 1.404 . S
C2453 C2457 1.473 1_456 S
C2454 C2453 1.404 . S
C2454 C2455 1.385 . S
C2454 C2456 1.478 . S
C2455 H2449 0.930 . S
C2455 C2451 1.400 . S
C2455 C2454 1.385 . S
C2456 C2454 1.478 . S
C2456 C2458 1.381 1_556 S
C2456 C2462 1.383 1_455 S
C2457 C2453 1.473 1_654 S
C2457 H2463 0.960 . S
C2457 H2464 0.964 . S
C2457 H2465 0.956 1_655 S
C2458 C2456 1.381 1_554 S
C2458 C2459 1.394 . S
C2458 H2466 0.930 . S
C2459 C2458 1.394 . S
C2459 C2460 1.383 . S
C2459 H2467 0.929 . S
C2460 C2459 1.383 . S
C2460 C2461 1.377 1_454 S
C2461 H2445 0.930 . S
C2461 C2460 1.377 1_656 S
C2461 C2462 1.379 . S
C2462 H2446 0.931 . S
C2462 C2456 1.383 1_655 S
C2462 C2461 1.379 . S
H2463 C2457 0.960 . S
H2464 C2457 0.964 . S
H2465 C2457 0.956 1_455 S
H2466 C2458 0.930 . S
H2467 C2459 0.929 . S
H2468 C2476 0.929 . S
H2469 C2478 0.930 . S
H2470 C2480 0.930 . S
H2471 C2483 0.929 . S
H2472 C2486 0.930 . S
H2473 C2488 0.960 . S
H2474 C2488 0.960 . S
H2475 C2488 0.960 . S
C2476 H2468 0.929 . S
C2476 C2477 1.377 . S
C2476 C2478 1.384 . S
C2477 C2476 1.377 . S
C2477 C2483 1.390 . S
C2478 H2469 0.930 . S
C2478 C2476 1.384 . S
C2478 C2479 1.372 . S
C2479 C2478 1.372 . S
C2479 C2480 1.400 . S
C2479 C2484 1.490 . S
C2480 H2470 0.930 . S
C2480 C2479 1.400 . S
C2480 C2483 1.386 . S
H2481 C2497 0.930 . S
H2482 C2498 0.931 . S
C2483 H2471 0.929 . S
C2483 C2477 1.390 . S
C2483 C2480 1.386 . S
C2484 C2479 1.490 . S
C2484 C2486 1.395 . S
C2484 C2487 1.403 . S
H2485 C2491 0.930 . S
C2486 H2472 0.930 . S
C2486 C2484 1.395 . S
C2486 C2489 1.403 . S
C2487 C2484 1.403 . S
C2487 C2488 1.524 . S
C2487 C2491 1.400 . S
C2488 H2473 0.960 . S
C2488 H2474 0.960 . S
C2488 H2475 0.960 . S
C2488 C2487 1.524 . S
C2489 C2486 1.403 . S
C2489 C2490 1.392 . S
C2489 C2493 1.495 . S
C2490 C2489 1.392 . S
C2490 C2491 1.385 . S
C2490 C2492 1.478 . S
C2491 H2485 0.930 . S
C2491 C2487 1.400 . S
C2491 C2490 1.385 . S
C2492 C2490 1.478 . S
C2492 C2494 1.381 . S
C2492 C2498 1.383 . S
C2493 C2489 1.495 . S
C2493 H2499 0.959 . S
C2493 H2500 0.961 . S
C2493 H2501 0.960 . S
C2494 C2492 1.381 . S
C2494 C2495 1.394 . S
C2494 H2502 0.930 . S
C2495 C2494 1.394 . S
C2495 C2496 1.383 . S
C2495 H2503 0.929 . S
C2496 C2495 1.383 . S
C2496 C2497 1.377 . S
C2497 H2481 0.930 . S
C2497 C2496 1.377 . S
C2497 C2498 1.379 . S
C2498 H2482 0.931 . S
C2498 C2492 1.383 . S
C2498 C2497 1.379 . S
H2499 C2493 0.959 . S
H2500 C2493 0.961 . S
H2501 C2493 0.960 . S
H2502 C2494 0.930 . S
H2503 C2495 0.929 . S
H2504 C2512 0.929 . S
H2505 C2514 0.930 . S
H2506 C2516 0.930 . S
H2507 C2519 0.929 . S
H2508 C2522 0.930 . S
H2509 C2524 0.960 . S
H2510 C2524 0.960 . S
H2511 C2524 0.960 . S
C2512 H2504 0.929 . S
C2512 C2513 1.377 . S
C2512 C2514 1.384 . S
C2513 C2512 1.377 . S
C2513 C2519 1.390 . S
C2514 H2505 0.930 . S
C2514 C2512 1.384 . S
C2514 C2515 1.372 . S
C2515 C2514 1.372 . S
C2515 C2516 1.400 . S
C2515 C2520 1.490 . S
C2516 H2506 0.930 . S
C2516 C2515 1.400 . S
C2516 C2519 1.386 . S
H2517 C2533 0.930 . S
H2518 C2534 0.931 . S
C2519 H2507 0.929 . S
C2519 C2513 1.390 . S
C2519 C2516 1.386 . S
C2520 C2515 1.490 . S
C2520 C2522 1.395 . S
C2520 C2523 1.403 . S
H2521 C2527 0.930 . S
C2522 H2508 0.930 . S
C2522 C2520 1.395 . S
C2522 C2525 1.403 . S
C2523 C2520 1.403 . S
C2523 C2524 1.524 . S
C2523 C2527 1.400 . S
C2524 H2509 0.960 . S
C2524 H2510 0.960 . S
C2524 H2511 0.960 . S
C2524 C2523 1.524 . S
C2525 C2522 1.403 . S
C2525 C2526 1.392 . S
C2525 C2529 1.495 . S
C2526 C2525 1.392 . S
C2526 C2527 1.385 . S
C2526 C2528 1.478 . S
C2527 H2521 0.930 . S
C2527 C2523 1.400 . S
C2527 C2526 1.385 . S
C2528 C2526 1.478 . S
C2528 C2530 1.381 . S
C2528 C2534 1.383 . S
C2529 C2525 1.495 . S
C2529 H2535 0.959 . S
C2529 H2536 0.961 . S
C2529 H2537 0.960 . S
C2530 C2528 1.381 . S
C2530 C2531 1.394 . S
C2530 H2538 0.930 . S
C2531 C2530 1.394 . S
C2531 C2532 1.383 . S
C2531 H2539 0.929 . S
C2532 C2531 1.383 . S
C2532 C2533 1.377 . S
C2533 H2517 0.930 . S
C2533 C2532 1.377 . S
C2533 C2534 1.379 . S
C2534 H2518 0.931 . S
C2534 C2528 1.383 . S
C2534 C2533 1.379 . S
H2535 C2529 0.959 . S
H2536 C2529 0.961 . S
H2537 C2529 0.960 . S
H2538 C2530 0.930 . S
H2539 C2531 0.929 . S
H2540 C2548 0.929 . S
H2541 C2550 0.930 . S
H2542 C2552 0.930 . S
H2543 C2555 0.929 . S
H2544 C2558 0.930 . S
H2545 C2560 0.960 . S
H2546 C2560 0.960 . S
H2547 C2560 0.960 . S
C2548 H2540 0.929 . S
C2548 C2549 1.377 . S
C2548 C2550 1.384 . S
C2549 C2548 1.377 . S
C2549 C2555 1.390 . S
C2550 H2541 0.930 . S
C2550 C2548 1.384 . S
C2550 C2551 1.372 . S
C2551 C2550 1.372 . S
C2551 C2552 1.400 . S
C2551 C2556 1.490 . S
C2552 H2542 0.930 . S
C2552 C2551 1.400 . S
C2552 C2555 1.386 . S
H2553 C2569 0.930 . S
H2554 C2570 0.931 . S
C2555 H2543 0.929 . S
C2555 C2549 1.390 . S
C2555 C2552 1.386 . S
C2556 C2551 1.490 . S
C2556 C2558 1.395 . S
C2556 C2559 1.403 . S
H2557 C2563 0.930 . S
C2558 H2544 0.930 . S
C2558 C2556 1.395 . S
C2558 C2561 1.403 . S
C2559 C2556 1.403 . S
C2559 C2560 1.524 . S
C2559 C2563 1.400 . S
C2560 H2545 0.960 . S
C2560 H2546 0.960 . S
C2560 H2547 0.960 . S
C2560 C2559 1.524 . S
C2561 C2558 1.403 . S
C2561 C2562 1.392 . S
C2561 C2565 1.495 . S
C2562 C2561 1.392 . S
C2562 C2563 1.385 . S
C2562 C2564 1.478 . S
C2563 H2557 0.930 . S
C2563 C2559 1.400 . S
C2563 C2562 1.385 . S
C2564 C2562 1.478 . S
C2564 C2566 1.381 . S
C2564 C2570 1.383 . S
C2565 C2561 1.495 . S
C2565 H2571 0.959 . S
C2565 H2572 0.961 . S
C2565 H2573 0.960 . S
C2566 C2564 1.381 . S
C2566 C2567 1.394 . S
C2566 H2574 0.930 . S
C2567 C2566 1.394 . S
C2567 C2568 1.383 . S
C2567 H2575 0.929 . S
C2568 C2567 1.383 . S
C2568 C2569 1.377 . S
C2569 H2553 0.930 . S
C2569 C2568 1.377 . S
C2569 C2570 1.379 . S
C2570 H2554 0.931 . S
C2570 C2564 1.383 . S
C2570 C2569 1.379 . S
H2571 C2565 0.959 . S
H2572 C2565 0.961 . S
H2573 C2565 0.960 . S
H2574 C2566 0.930 . S
H2575 C2567 0.929 . S
H2576 C2584 0.929 . S
H2577 C2586 0.930 . S
H2578 C2588 0.930 . S
H2579 C2591 0.929 . S
H2580 C2594 0.964 . S
H2581 C2596 0.960 . S
H2582 C2596 0.960 . S
H2583 C2596 0.960 . S
C2584 H2576 0.929 . S
C2584 C2585 1.377 . S
C2584 C2586 1.384 . S
C2585 C2584 1.377 . S
C2585 C2591 1.390 . S
C2586 H2577 0.930 . S
C2586 C2584 1.384 . S
C2586 C2587 1.372 . S
C2587 C2586 1.372 . S
C2587 C2588 1.400 . S
C2587 C2592 1.490 . S
C2588 H2578 0.930 . S
C2588 C2587 1.400 . S
C2588 C2591 1.386 . S
H2589 C2605 0.930 . S
H2590 C2606 0.931 . S
C2591 H2579 0.929 . S
C2591 C2585 1.390 . S
C2591 C2588 1.386 . S
C2592 C2587 1.490 . S
C2592 C2594 1.354 1_455 S
C2592 C2595 1.403 . S
H2593 C2599 0.930 . S
C2594 H2580 0.964 . S
C2594 C2592 1.354 1_655 S
C2594 C2597 1.412 . S
C2595 C2592 1.403 . S
C2595 C2596 1.524 . S
C2595 C2599 1.400 . S
C2596 H2581 0.960 . S
C2596 H2582 0.960 . S
C2596 H2583 0.960 . S
C2596 C2595 1.524 . S
C2597 C2594 1.412 . S
C2597 C2598 1.392 1_655 S
C2597 C2601 1.495 . S
C2598 C2597 1.392 1_455 S
C2598 C2599 1.385 . S
C2598 C2600 1.478 . S
C2599 H2593 0.930 . S
C2599 C2595 1.400 . S
C2599 C2598 1.385 . S
C2600 C2598 1.478 . S
C2600 C2602 1.381 . S
C2600 C2606 1.383 . S
C2601 C2597 1.495 . S
C2601 H2607 0.959 . S
C2601 H2608 0.961 . S
C2601 H2609 0.960 . S
C2602 C2600 1.381 . S
C2602 C2603 1.394 . S
C2602 H2610 0.930 . S
C2603 C2602 1.394 . S
C2603 C2604 1.383 . S
C2603 H2611 0.929 . S
C2604 C2603 1.383 . S
C2604 C2605 1.377 . S
C2605 H2589 0.930 . S
C2605 C2604 1.377 . S
C2605 C2606 1.379 . S
C2606 H2590 0.931 . S
C2606 C2600 1.383 . S
C2606 C2605 1.379 . S
H2607 C2601 0.959 . S
H2608 C2601 0.961 . S
H2609 C2601 0.960 . S
H2610 C2602 0.930 . S
H2611 C2603 0.929 . S
H2612 C2620 0.929 . S
H2613 C2622 0.930 . S
H2614 C2624 0.930 . S
H2615 C2627 0.929 . S
H2616 C2630 0.930 . S
H2617 C2632 0.960 . S
H2618 C2632 0.960 . S
H2619 C2632 0.960 . S
C2620 H2612 0.929 . S
C2620 C2621 1.377 . S
C2620 C2622 1.384 . S
C2621 C2620 1.377 . S
C2621 C2627 1.390 . S
C2622 H2613 0.930 . S
C2622 C2620 1.384 . S
C2622 C2623 1.372 . S
C2623 C2622 1.372 . S
C2623 C2624 1.400 . S
C2623 C2628 1.490 . S
C2624 H2614 0.930 . S
C2624 C2623 1.400 . S
C2624 C2627 1.386 . S
H2625 C2641 0.930 . S
H2626 C2642 0.931 . S
C2627 H2615 0.929 . S
C2627 C2621 1.390 . S
C2627 C2624 1.386 . S
C2628 C2623 1.490 . S
C2628 C2630 1.395 . S
C2628 C2631 1.403 . S
H2629 C2635 0.930 . S
C2630 H2616 0.930 . S
C2630 C2628 1.395 . S
C2630 C2633 1.403 . S
C2631 C2628 1.403 . S
C2631 C2632 1.524 . S
C2631 C2635 1.400 . S
C2632 H2617 0.960 . S
C2632 H2618 0.960 . S
C2632 H2619 0.960 . S
C2632 C2631 1.524 . S
C2633 C2630 1.403 . S
C2633 C2634 1.392 . S
C2633 C2637 1.495 . S
C2634 C2633 1.392 . S
C2634 C2635 1.385 . S
C2634 C2636 1.478 . S
C2635 H2629 0.930 . S
C2635 C2631 1.400 . S
C2635 C2634 1.385 . S
C2636 C2634 1.478 . S
C2636 C2638 1.381 . S
C2636 C2642 1.383 . S
C2637 C2633 1.495 . S
C2637 H2643 0.959 . S
C2637 H2644 0.961 . S
C2637 H2645 0.960 . S
C2638 C2636 1.381 . S
C2638 C2639 1.394 . S
C2638 H2646 0.930 . S
C2639 C2638 1.394 . S
C2639 C2640 1.383 . S
C2639 H2647 0.929 . S
C2640 C2639 1.383 . S
C2640 C2641 1.377 . S
C2641 H2625 0.930 . S
C2641 C2640 1.377 . S
C2641 C2642 1.379 . S
C2642 H2626 0.931 . S
C2642 C2636 1.383 . S
C2642 C2641 1.379 . S
H2643 C2637 0.959 . S
H2644 C2637 0.961 . S
H2645 C2637 0.960 . S
H2646 C2638 0.930 . S
H2647 C2639 0.929 . S
H2648 C2656 0.929 . S
H2649 C2658 0.930 . S
H2650 C2660 0.930 . S
H2651 C2663 0.929 . S
H2652 C2666 0.930 . S
H2653 C2668 0.960 . S
H2654 C2668 0.960 . S
H2655 C2668 0.960 . S
C2656 H2648 0.929 . S
C2656 C2657 1.377 . S
C2656 C2658 1.384 . S
C2657 C2656 1.377 . S
C2657 C2663 1.390 . S
C2658 H2649 0.930 . S
C2658 C2656 1.384 . S
C2658 C2659 1.372 . S
C2659 C2658 1.372 . S
C2659 C2660 1.400 . S
C2659 C2664 1.490 . S
C2660 H2650 0.930 . S
C2660 C2659 1.400 . S
C2660 C2663 1.386 . S
H2661 C2677 0.930 . S
H2662 C2678 0.931 . S
C2663 H2651 0.929 . S
C2663 C2657 1.390 . S
C2663 C2660 1.386 . S
C2664 C2659 1.490 . S
C2664 C2666 1.395 . S
C2664 C2667 1.403 . S
H2665 C2671 0.930 . S
C2666 H2652 0.930 . S
C2666 C2664 1.395 . S
C2666 C2669 1.403 . S
C2667 C2664 1.403 . S
C2667 C2668 1.524 . S
C2667 C2671 1.400 . S
C2668 H2653 0.960 . S
C2668 H2654 0.960 . S
C2668 H2655 0.960 . S
C2668 C2667 1.524 . S
C2669 C2666 1.403 . S
C2669 C2670 1.392 . S
C2669 C2673 1.495 . S
C2670 C2669 1.392 . S
C2670 C2671 1.385 . S
C2670 C2672 1.478 . S
C2671 H2665 0.930 . S
C2671 C2667 1.400 . S
C2671 C2670 1.385 . S
C2672 C2670 1.478 . S
C2672 C2674 1.381 . S
C2672 C2678 1.383 . S
C2673 C2669 1.495 . S
C2673 H2679 0.959 . S
C2673 H2680 0.961 . S
C2673 H2681 0.960 . S
C2674 C2672 1.381 . S
C2674 C2675 1.394 . S
C2674 H2682 0.930 . S
C2675 C2674 1.394 . S
C2675 C2676 1.383 . S
C2675 H2683 0.929 . S
C2676 C2675 1.383 . S
C2676 C2677 1.377 . S
C2677 H2661 0.930 . S
C2677 C2676 1.377 . S
C2677 C2678 1.379 . S
C2678 H2662 0.931 . S
C2678 C2672 1.383 . S
C2678 C2677 1.379 . S
H2679 C2673 0.959 . S
H2680 C2673 0.961 . S
H2681 C2673 0.960 . S
H2682 C2674 0.930 . S
H2683 C2675 0.929 . S
H2684 C2692 0.929 . S
H2685 C2694 0.930 . S
H2686 C2696 0.930 . S
H2687 C2699 0.929 . S
H2688 C2702 0.930 . S
H2689 C2704 0.960 . S
H2690 C2704 0.960 . S
H2691 C2704 0.960 . S
C2692 H2684 0.929 . S
C2692 C2693 1.377 . S
C2692 C2694 1.384 . S
C2693 C2692 1.377 . S
C2693 C2699 1.390 . S
C2694 H2685 0.930 . S
C2694 C2692 1.384 . S
C2694 C2695 1.372 . S
C2695 C2694 1.372 . S
C2695 C2696 1.400 . S
C2695 C2700 1.490 . S
C2696 H2686 0.930 . S
C2696 C2695 1.400 . S
C2696 C2699 1.386 . S
H2697 C2713 0.930 . S
H2698 C2714 0.931 . S
C2699 H2687 0.929 . S
C2699 C2693 1.390 . S
C2699 C2696 1.386 . S
C2700 C2695 1.490 . S
C2700 C2702 1.395 . S
C2700 C2703 1.403 . S
H2701 C2707 0.930 . S
C2702 H2688 0.930 . S
C2702 C2700 1.395 . S
C2702 C2705 1.403 . S
C2703 C2700 1.403 . S
C2703 C2704 1.524 . S
C2703 C2707 1.400 . S
C2704 H2689 0.960 . S
C2704 H2690 0.960 . S
C2704 H2691 0.960 . S
C2704 C2703 1.524 . S
C2705 C2702 1.403 . S
C2705 C2706 1.392 . S
C2705 C2709 1.495 . S
C2706 C2705 1.392 . S
C2706 C2707 1.385 . S
C2706 C2708 1.478 . S
C2707 H2701 0.930 . S
C2707 C2703 1.400 . S
C2707 C2706 1.385 . S
C2708 C2706 1.478 . S
C2708 C2710 1.381 . S
C2708 C2714 1.383 . S
C2709 C2705 1.495 . S
C2709 H2715 0.959 . S
C2709 H2716 0.961 . S
C2709 H2717 0.960 . S
C2710 C2708 1.381 . S
C2710 C2711 1.394 . S
C2710 H2718 0.930 . S
C2711 C2710 1.394 . S
C2711 C2712 1.383 . S
C2711 H2719 0.929 . S
C2712 C2711 1.383 . S
C2712 C2713 1.377 . S
C2713 H2697 0.930 . S
C2713 C2712 1.377 . S
C2713 C2714 1.379 . S
C2714 H2698 0.931 . S
C2714 C2708 1.383 . S
C2714 C2713 1.379 . S
H2715 C2709 0.959 . S
H2716 C2709 0.961 . S
H2717 C2709 0.960 . S
H2718 C2710 0.930 . S
H2719 C2711 0.929 . S
H2720 C2728 0.929 . S
H2721 C2730 0.930 . S
H2722 C2732 0.930 . S
H2723 C2735 0.929 . S
H2724 C2738 0.930 . S
H2725 C2740 0.960 . S
H2726 C2740 0.960 . S
H2727 C2740 0.960 . S
C2728 H2720 0.929 . S
C2728 C2729 1.377 . S
C2728 C2730 1.384 . S
C2729 C2728 1.377 . S
C2729 C2735 1.390 . S
C2730 H2721 0.930 . S
C2730 C2728 1.384 . S
C2730 C2731 1.372 . S
C2731 C2730 1.372 . S
C2731 C2732 1.400 . S
C2731 C2736 1.490 . S
C2732 H2722 0.930 . S
C2732 C2731 1.400 . S
C2732 C2735 1.386 . S
H2733 C2749 0.930 . S
H2734 C2750 0.931 . S
C2735 H2723 0.929 . S
C2735 C2729 1.390 . S
C2735 C2732 1.386 . S
C2736 C2731 1.490 . S
C2736 C2738 1.395 . S
C2736 C2739 1.403 . S
H2737 C2743 0.930 . S
C2738 H2724 0.930 . S
C2738 C2736 1.395 . S
C2738 C2741 1.403 . S
C2739 C2736 1.403 . S
C2739 C2740 1.524 . S
C2739 C2743 1.400 . S
C2740 H2725 0.960 . S
C2740 H2726 0.960 . S
C2740 H2727 0.960 . S
C2740 C2739 1.524 . S
C2741 C2738 1.403 . S
C2741 C2742 1.392 . S
C2741 C2745 1.495 . S
C2742 C2741 1.392 . S
C2742 C2743 1.385 . S
C2742 C2744 1.478 . S
C2743 H2737 0.930 . S
C2743 C2739 1.400 . S
C2743 C2742 1.385 . S
C2744 C2742 1.478 . S
C2744 C2746 1.381 1_655 S
C2744 C2750 1.383 . S
C2745 C2741 1.495 . S
C2745 H2751 0.959 . S
C2745 H2752 0.961 . S
C2745 H2753 1.006 . S
C2746 C2744 1.381 1_455 S
C2746 C2747 1.394 . S
C2746 H2754 0.930 . S
C2747 C2746 1.394 . S
C2747 C2748 1.383 1_455 S
C2747 H2755 0.929 . S
C2748 C2747 1.383 1_655 S
C2748 C2749 1.377 . S
C2749 H2733 0.930 . S
C2749 C2748 1.377 . S
C2749 C2750 1.379 . S
C2750 H2734 0.931 . S
C2750 C2744 1.383 . S
C2750 C2749 1.379 . S
H2751 C2745 0.959 . S
H2752 C2745 0.961 . S
H2753 C2745 1.006 . S
H2754 C2746 0.930 . S
H2755 C2747 0.929 . S
H2756 C2764 0.929 . S
H2757 C2766 0.930 . S
H2758 C2768 0.930 . S
H2759 C2771 0.929 . S
H2760 C2774 0.930 . S
H2761 C2776 0.960 . S
H2762 C2776 0.960 . S
H2763 C2776 0.960 . S
C2764 H2756 0.929 . S
C2764 C2765 1.377 . S
C2764 C2766 1.384 . S
C2765 C2764 1.377 . S
C2765 C2771 1.390 . S
C2766 H2757 0.930 . S
C2766 C2764 1.384 . S
C2766 C2767 1.372 . S
C2767 C2766 1.372 . S
C2767 C2768 1.400 . S
C2767 C2772 1.490 . S
C2768 H2758 0.930 . S
C2768 C2767 1.400 . S
C2768 C2771 1.386 . S
H2769 C2785 0.930 . S
H2770 C2786 0.931 . S
C2771 H2759 0.929 . S
C2771 C2765 1.390 . S
C2771 C2768 1.386 . S
C2772 C2767 1.490 . S
C2772 C2774 1.395 . S
C2772 C2775 1.403 . S
H2773 C2779 0.930 . S
C2774 H2760 0.930 . S
C2774 C2772 1.395 . S
C2774 C2777 1.403 . S
C2775 C2772 1.403 . S
C2775 C2776 1.524 . S
C2775 C2779 1.400 . S
C2776 H2761 0.960 . S
C2776 H2762 0.960 . S
C2776 H2763 0.960 . S
C2776 C2775 1.524 . S
C2777 C2774 1.403 . S
C2777 C2778 1.392 . S
C2777 C2781 1.495 . S
C2778 C2777 1.392 . S
C2778 C2779 1.385 . S
C2778 C2780 1.478 . S
C2779 H2773 0.930 . S
C2779 C2775 1.400 . S
C2779 C2778 1.385 . S
C2780 C2778 1.478 . S
C2780 C2782 1.381 . S
C2780 C2786 1.383 . S
C2781 C2777 1.495 . S
C2781 H2787 0.959 . S
C2781 H2788 0.961 . S
C2781 H2789 0.960 . S
C2782 C2780 1.381 . S
C2782 C2783 1.394 . S
C2782 H2790 0.930 . S
C2783 C2782 1.394 . S
C2783 C2784 1.383 . S
C2783 H2791 0.929 . S
C2784 C2783 1.383 . S
C2784 C2785 1.377 . S
C2785 H2769 0.930 . S
C2785 C2784 1.377 . S
C2785 C2786 1.379 . S
C2786 H2770 0.931 . S
C2786 C2780 1.383 . S
C2786 C2785 1.379 . S
H2787 C2781 0.959 . S
H2788 C2781 0.961 . S
H2789 C2781 0.960 . S
H2790 C2782 0.930 . S
H2791 C2783 0.929 . S
H2792 C2800 0.929 . S
H2793 C2802 0.930 . S
H2794 C2804 0.930 . S
H2795 C2807 0.929 . S
H2796 C2810 0.926 . S
H2797 C2812 0.960 . S
H2798 C2812 0.960 . S
H2799 C2812 0.960 . S
C2800 H2792 0.929 . S
C2800 C2801 1.377 . S
C2800 C2802 1.384 . S
C2801 C2800 1.377 . S
C2801 C2807 1.390 . S
C2802 H2793 0.930 . S
C2802 C2800 1.384 . S
C2802 C2803 1.372 . S
C2803 C2802 1.372 . S
C2803 C2804 1.400 . S
C2803 C2808 1.490 . S
C2804 H2794 0.930 . S
C2804 C2803 1.400 . S
C2804 C2807 1.386 . S
H2805 C2821 0.930 . S
H2806 C2822 0.931 . S
C2807 H2795 0.929 . S
C2807 C2801 1.390 . S
C2807 C2804 1.386 . S
C2808 C2803 1.490 . S
C2808 C2810 1.398 1_545 S
C2808 C2811 1.403 . S
H2809 C2815 0.930 . S
C2810 H2796 0.926 . S
C2810 C2808 1.398 1_565 S
C2810 C2813 1.404 . S
C2811 C2808 1.403 . S
C2811 C2812 1.524 . S
C2811 C2815 1.400 . S
C2812 H2797 0.960 . S
C2812 H2798 0.960 . S
C2812 H2799 0.960 . S
C2812 C2811 1.524 . S
C2813 C2810 1.404 . S
C2813 C2814 1.392 1_565 S
C2813 C2817 1.495 . S
C2814 C2813 1.392 1_545 S
C2814 C2815 1.385 . S
C2814 C2816 1.478 . S
C2815 H2809 0.930 . S
C2815 C2811 1.400 . S
C2815 C2814 1.385 . S
C2816 C2814 1.478 . S
C2816 C2818 1.381 . S
C2816 C2822 1.383 . S
C2817 C2813 1.495 . S
C2817 H2823 0.959 . S
C2817 H2824 0.961 . S
C2817 H2825 0.960 . S
C2818 C2816 1.381 . S
C2818 C2819 1.394 . S
C2818 H2826 0.930 . S
C2819 C2818 1.394 . S
C2819 C2820 1.383 . S
C2819 H2827 0.929 . S
C2820 C2819 1.383 . S
C2820 C2821 1.377 . S
C2821 H2805 0.930 . S
C2821 C2820 1.377 . S
C2821 C2822 1.379 . S
C2822 H2806 0.931 . S
C2822 C2816 1.383 . S
C2822 C2821 1.379 . S
H2823 C2817 0.959 . S
H2824 C2817 0.961 . S
H2825 C2817 0.960 . S
H2826 C2818 0.930 . S
H2827 C2819 0.929 . S
H2828 C2836 0.929 . S
H2829 C2838 0.930 . S
H2830 C2840 0.930 . S
H2831 C2843 0.929 . S
H2832 C2846 0.930 . S
H2833 C2848 0.960 . S
H2834 C2848 0.960 . S
H2835 C2848 0.960 . S
C2836 H2828 0.929 . S
C2836 C2837 1.377 . S
C2836 C2838 1.384 . S
C2837 C2836 1.377 . S
C2837 C2843 1.390 . S
C2838 H2829 0.930 . S
C2838 C2836 1.384 . S
C2838 C2839 1.372 . S
C2839 C2838 1.372 . S
C2839 C2840 1.400 . S
C2839 C2844 1.490 . S
C2840 H2830 0.930 . S
C2840 C2839 1.400 . S
C2840 C2843 1.386 . S
H2841 C2857 0.930 . S
H2842 C2858 0.931 . S
C2843 H2831 0.929 . S
C2843 C2837 1.390 . S
C2843 C2840 1.386 . S
C2844 C2839 1.490 . S
C2844 C2846 1.395 . S
C2844 C2847 1.403 . S
H2845 C2851 0.930 . S
C2846 H2832 0.930 . S
C2846 C2844 1.395 . S
C2846 C2849 1.403 . S
C2847 C2844 1.403 . S
C2847 C2848 1.524 . S
C2847 C2851 1.400 . S
C2848 H2833 0.960 . S
C2848 H2834 0.960 . S
C2848 H2835 0.960 . S
C2848 C2847 1.524 . S
C2849 C2846 1.403 . S
C2849 C2850 1.392 . S
C2849 C2853 1.495 . S
C2850 C2849 1.392 . S
C2850 C2851 1.385 . S
C2850 C2852 1.478 . S
C2851 H2845 0.930 . S
C2851 C2847 1.400 . S
C2851 C2850 1.385 . S
C2852 C2850 1.478 . S
C2852 C2854 1.381 . S
C2852 C2858 1.383 . S
C2853 C2849 1.495 . S
C2853 H2859 0.959 . S
C2853 H2860 0.961 . S
C2853 H2861 0.960 . S
C2854 C2852 1.381 . S
C2854 C2855 1.394 . S
C2854 H2862 0.930 . S
C2855 C2854 1.394 . S
C2855 C2856 1.383 . S
C2855 H2863 0.929 . S
C2856 C2855 1.383 . S
C2856 C2857 1.377 . S
C2857 H2841 0.930 . S
C2857 C2856 1.377 . S
C2857 C2858 1.379 . S
C2858 H2842 0.931 . S
C2858 C2852 1.383 . S
C2858 C2857 1.379 . S
H2859 C2853 0.959 . S
H2860 C2853 0.961 . S
H2861 C2853 0.960 . S
H2862 C2854 0.930 . S
H2863 C2855 0.929 . S
H2864 C2872 0.929 . S
H2865 C2874 0.930 . S
H2866 C2876 0.930 . S
H2867 C2879 0.929 . S
H2868 C2882 0.930 . S
H2869 C2884 0.960 1_455 S
H2870 C2884 0.960 . S
H2871 C2884 0.960 . S
C2872 H2864 0.929 . S
C2872 C2873 1.377 . S
C2872 C2874 1.384 . S
C2873 C2872 1.377 . S
C2873 C2879 1.390 . S
C2874 H2865 0.930 . S
C2874 C2872 1.384 . S
C2874 C2875 1.372 . S
C2875 C2874 1.372 . S
C2875 C2876 1.400 . S
C2875 C2880 1.490 . S
C2876 H2866 0.930 . S
C2876 C2875 1.400 . S
C2876 C2879 1.386 . S
H2877 C2893 0.930 1_455 S
H2878 C2894 0.931 . S
C2879 H2867 0.929 . S
C2879 C2873 1.390 . S
C2879 C2876 1.386 . S
C2880 C2875 1.490 . S
C2880 C2882 1.395 . S
C2880 C2883 1.403 . S
H2881 C2887 0.930 . S
C2882 H2868 0.930 . S
C2882 C2880 1.395 . S
C2882 C2885 1.403 . S
C2883 C2880 1.403 . S
C2883 C2884 1.524 . S
C2883 C2887 1.400 . S
C2884 H2869 0.960 1_655 S
C2884 H2870 0.960 . S
C2884 H2871 0.960 . S
C2884 C2883 1.524 . S
C2885 C2882 1.403 . S
C2885 C2886 1.392 . S
C2885 C2889 1.495 . S
C2886 C2885 1.392 . S
C2886 C2887 1.385 . S
C2886 C2888 1.478 . S
C2887 H2881 0.930 . S
C2887 C2883 1.400 . S
C2887 C2886 1.385 . S
C2888 C2886 1.478 . S
C2888 C2890 1.381 . S
C2888 C2894 1.383 . S
C2889 C2885 1.495 . S
C2889 H2895 0.959 . S
C2889 H2896 0.961 . S
C2889 H2897 0.960 . S
C2890 C2888 1.381 . S
C2890 C2891 1.394 . S
C2890 H2898 0.930 . S
C2891 C2890 1.394 . S
C2891 C2892 1.383 . S
C2891 H2899 0.929 . S
C2892 C2891 1.383 . S
C2892 C2893 1.377 . S
C2893 H2877 0.930 1_655 S
C2893 C2892 1.377 . S
C2893 C2894 1.379 . S
C2894 H2878 0.931 . S
C2894 C2888 1.383 . S
C2894 C2893 1.379 . S
H2895 C2889 0.959 . S
H2896 C2889 0.961 . S
H2897 C2889 0.960 . S
H2898 C2890 0.930 . S
H2899 C2891 0.929 . S
H2900 C2908 0.929 . S
H2901 C2910 0.930 . S
H2902 C2912 0.930 . S
H2903 C2915 0.929 . S
H2904 C2918 0.930 . S
H2905 C2920 0.960 . S
H2906 C2920 0.960 . S
H2907 C2920 0.960 . S
C2908 H2900 0.929 . S
C2908 C2909 1.377 . S
C2908 C2910 1.384 . S
C2909 C2908 1.377 . S
C2909 C2915 1.390 . S
C2910 H2901 0.930 . S
C2910 C2908 1.384 . S
C2910 C2911 1.372 . S
C2911 C2910 1.372 . S
C2911 C2912 1.400 . S
C2911 C2916 1.490 . S
C2912 H2902 0.930 . S
C2912 C2911 1.400 . S
C2912 C2915 1.386 . S
H2913 C2929 0.930 . S
H2914 C2930 0.931 . S
C2915 H2903 0.929 . S
C2915 C2909 1.390 . S
C2915 C2912 1.386 . S
C2916 C2911 1.490 . S
C2916 C2918 1.395 . S
C2916 C2919 1.403 . S
H2917 C2923 0.930 . S
C2918 H2904 0.930 . S
C2918 C2916 1.395 . S
C2918 C2921 1.403 . S
C2919 C2916 1.403 . S
C2919 C2920 1.524 . S
C2919 C2923 1.400 . S
C2920 H2905 0.960 . S
C2920 H2906 0.960 . S
C2920 H2907 0.960 . S
C2920 C2919 1.524 . S
C2921 C2918 1.403 . S
C2921 C2922 1.392 . S
C2921 C2925 1.495 . S
C2922 C2921 1.392 . S
C2922 C2923 1.385 . S
C2922 C2924 1.478 . S
C2923 H2917 0.930 . S
C2923 C2919 1.400 . S
C2923 C2922 1.385 . S
C2924 C2922 1.478 . S
C2924 C2926 1.381 . S
C2924 C2930 1.383 . S
C2925 C2921 1.495 . S
C2925 H2931 0.959 . S
C2925 H2932 0.961 . S
C2925 H2933 0.960 . S
C2926 C2924 1.381 . S
C2926 C2927 1.394 . S
C2926 H2934 0.930 . S
C2927 C2926 1.394 . S
C2927 C2928 1.383 . S
C2927 H2935 0.929 . S
C2928 C2927 1.383 . S
C2928 C2929 1.377 . S
C2929 H2913 0.930 . S
C2929 C2928 1.377 . S
C2929 C2930 1.379 . S
C2930 H2914 0.931 . S
C2930 C2924 1.383 . S
C2930 C2929 1.379 . S
H2931 C2925 0.959 . S
H2932 C2925 0.961 . S
H2933 C2925 0.960 . S
H2934 C2926 0.930 . S
H2935 C2927 0.929 . S
H2936 C2944 0.929 . S
H2937 C2946 0.930 . S
H2938 C2948 0.974 . S
H2939 C2951 0.929 1_565 S
H2940 C2954 0.930 . S
H2941 C2956 0.960 . S
H2942 C2956 0.960 . S
H2943 C2956 0.993 . S
C2944 H2936 0.929 . S
C2944 C2945 1.377 . S
C2944 C2946 1.384 . S
C2945 C2944 1.377 . S
C2945 C2951 1.390 . S
C2946 H2937 0.930 . S
C2946 C2944 1.384 . S
C2946 C2947 1.372 . S
C2947 C2946 1.372 . S
C2947 C2948 1.400 . S
C2947 C2952 1.490 . S
C2948 H2938 0.974 . S
C2948 C2947 1.400 . S
C2948 C2951 1.386 . S
H2949 C2965 0.930 . S
H2950 C2966 0.931 . S
C2951 H2939 0.929 1_545 S
C2951 C2945 1.390 . S
C2951 C2948 1.386 . S
C2952 C2947 1.490 . S
C2952 C2954 1.395 . S
C2952 C2955 1.403 . S
H2953 C2959 0.930 . S
C2954 H2940 0.930 . S
C2954 C2952 1.395 . S
C2954 C2957 1.403 . S
C2955 C2952 1.403 . S
C2955 C2956 1.524 . S
C2955 C2959 1.400 . S
C2956 H2941 0.960 . S
C2956 H2942 0.960 . S
C2956 H2943 0.993 . S
C2956 C2955 1.524 . S
C2957 C2954 1.403 . S
C2957 C2958 1.392 . S
C2957 C2961 1.495 . S
C2958 C2957 1.392 . S
C2958 C2959 1.385 . S
C2958 C2960 1.478 . S
C2959 H2953 0.930 . S
C2959 C2955 1.400 . S
C2959 C2958 1.385 . S
C2960 C2958 1.478 . S
C2960 C2962 1.381 . S
C2960 C2966 1.383 . S
C2961 C2957 1.495 . S
C2961 H2967 0.959 . S
C2961 H2968 0.961 . S
C2961 H2969 0.960 . S
C2962 C2960 1.381 . S
C2962 C2963 1.394 . S
C2962 H2970 0.930 . S
C2963 C2962 1.394 . S
C2963 C2964 1.383 . S
C2963 H2971 0.929 . S
C2964 C2963 1.383 . S
C2964 C2965 1.377 . S
C2965 H2949 0.930 . S
C2965 C2964 1.377 . S
C2965 C2966 1.379 . S
C2966 H2950 0.931 . S
C2966 C2960 1.383 . S
C2966 C2965 1.379 . S
H2967 C2961 0.959 . S
H2968 C2961 0.961 . S
H2969 C2961 0.960 . S
H2970 C2962 0.930 . S
H2971 C2963 0.929 . S
H2972 C2980 0.929 . S
H2973 C2982 0.930 . S
H2974 C2984 0.930 . S
H2975 C2987 0.929 . S
H2976 C2990 0.930 . S
H2977 C2992 0.960 . S
H2978 C2992 0.960 . S
H2979 C2992 0.960 . S
C2980 H2972 0.929 . S
C2980 C2981 1.377 . S
C2980 C2982 1.384 . S
C2981 C2980 1.377 . S
C2981 C2987 1.390 . S
C2982 H2973 0.930 . S
C2982 C2980 1.384 . S
C2982 C2983 1.372 . S
C2983 C2982 1.372 . S
C2983 C2984 1.400 . S
C2983 C2988 1.490 . S
C2984 H2974 0.930 . S
C2984 C2983 1.400 . S
C2984 C2987 1.386 . S
H2985 C3001 0.930 . S
H2986 C3002 0.931 . S
C2987 H2975 0.929 . S
C2987 C2981 1.390 . S
C2987 C2984 1.386 . S
C2988 C2983 1.490 . S
C2988 C2990 1.395 . S
C2988 C2991 1.403 . S
H2989 C2995 0.930 . S
C2990 H2976 0.930 . S
C2990 C2988 1.395 . S
C2990 C2993 1.403 . S
C2991 C2988 1.403 . S
C2991 C2992 1.524 . S
C2991 C2995 1.400 . S
C2992 H2977 0.960 . S
C2992 H2978 0.960 . S
C2992 H2979 0.960 . S
C2992 C2991 1.524 . S
C2993 C2990 1.403 . S
C2993 C2994 1.392 . S
C2993 C2997 1.495 . S
C2994 C2993 1.392 . S
C2994 C2995 1.385 . S
C2994 C2996 1.478 . S
C2995 H2989 0.930 . S
C2995 C2991 1.400 . S
C2995 C2994 1.385 . S
C2996 C2994 1.478 . S
C2996 C2998 1.381 . S
C2996 C3002 1.383 . S
C2997 C2993 1.495 . S
C2997 H3003 0.959 . S
C2997 H3004 0.961 . S
C2997 H3005 0.960 . S
C2998 C2996 1.381 . S
C2998 C2999 1.394 . S
C2998 H3006 0.930 . S
C2999 C2998 1.394 . S
C2999 C3000 1.383 . S
C2999 H3007 0.929 . S
C3000 C2999 1.383 . S
C3000 C3001 1.377 . S
C3001 H2985 0.930 . S
C3001 C3000 1.377 . S
C3001 C3002 1.379 . S
C3002 H2986 0.931 . S
C3002 C2996 1.383 . S
C3002 C3001 1.379 . S
H3003 C2997 0.959 . S
H3004 C2997 0.961 . S
H3005 C2997 0.960 . S
H3006 C2998 0.930 . S
H3007 C2999 0.929 . S
H3008 C3016 0.929 . S
H3009 C3018 0.930 . S
H3010 C3020 0.930 . S
H3011 C3023 0.929 . S
H3012 C3026 0.930 . S
H3013 C3028 0.924 1_545 S
H3014 C3028 0.951 1_545 S
H3015 C3028 0.986 . S
C3016 H3008 0.929 . S
C3016 C3017 1.377 . S
C3016 C3018 1.384 . S
C3017 C3016 1.377 . S
C3017 C3023 1.390 . S
C3018 H3009 0.930 . S
C3018 C3016 1.384 . S
C3018 C3019 1.372 . S
C3019 C3018 1.372 . S
C3019 C3020 1.400 . S
C3019 C3024 1.490 . S
C3020 H3010 0.930 . S
C3020 C3019 1.400 . S
C3020 C3023 1.386 . S
H3021 C3037 0.930 . S
H3022 C3038 0.931 . S
C3023 H3011 0.929 . S
C3023 C3017 1.390 . S
C3023 C3020 1.386 . S
C3024 C3019 1.490 . S
C3024 C3026 1.395 . S
C3024 C3027 1.403 . S
H3025 C3031 0.930 1_545 S
C3026 H3012 0.930 . S
C3026 C3024 1.395 . S
C3026 C3029 1.403 . S
C3027 C3024 1.403 . S
C3027 C3028 1.545 . S
C3027 C3031 1.400 . S
C3028 H3013 0.924 1_565 S
C3028 H3014 0.951 1_565 S
C3028 H3015 0.986 . S
C3028 C3027 1.545 . S
C3029 C3026 1.403 . S
C3029 C3030 1.392 . S
C3029 C3033 1.495 . S
C3030 C3029 1.392 . S
C3030 C3031 1.385 . S
C3030 C3032 1.478 . S
C3031 H3025 0.930 1_565 S
C3031 C3027 1.400 . S
C3031 C3030 1.385 . S
C3032 C3030 1.478 . S
C3032 C3034 1.381 . S
C3032 C3038 1.383 . S
C3033 C3029 1.495 . S
C3033 H3039 0.959 . S
C3033 H3040 0.961 . S
C3033 H3041 0.960 . S
C3034 C3032 1.381 . S
C3034 C3035 1.407 . S
C3034 H3042 0.930 . S
C3035 C3034 1.407 . S
C3035 C3036 1.381 1_565 S
C3035 H3043 0.919 1_565 S
C3036 C3035 1.381 1_545 S
C3036 C3037 1.377 1_545 S
C3037 H3021 0.930 . S
C3037 C3036 1.377 1_565 S
C3037 C3038 1.379 . S
C3038 H3022 0.931 . S
C3038 C3032 1.383 . S
C3038 C3037 1.379 . S
H3039 C3033 0.959 . S
H3040 C3033 0.961 . S
H3041 C3033 0.960 . S
H3042 C3034 0.930 . S
H3043 C3035 0.919 1_545 S
H3044 C3052 0.938 . S
H3045 C3054 0.933 1_556 S
H3046 C3056 0.930 . S
H3047 C3059 0.929 . S
H3048 C3062 0.930 . S
H3049 C3064 0.960 . S
H3050 C3064 0.960 . S
H3051 C3064 0.960 . S
C3052 H3044 0.938 . S
C3052 C3053 1.377 . S
C3052 C3054 1.384 . S
C3053 C3052 1.377 . S
C3053 C3059 1.390 . S
C3054 H3045 0.933 1_554 S
C3054 C3052 1.384 . S
C3054 C3055 1.372 . S
C3055 C3054 1.372 . S
C3055 C3056 1.400 . S
C3055 C3060 1.490 . S
C3056 H3046 0.930 . S
C3056 C3055 1.400 . S
C3056 C3059 1.386 . S
H3057 C3073 0.930 . S
H3058 C3074 0.931 . S
C3059 H3047 0.929 . S
C3059 C3053 1.390 . S
C3059 C3056 1.386 . S
C3060 C3055 1.490 . S
C3060 C3062 1.395 1_554 S
C3060 C3063 1.403 . S
H3061 C3067 0.930 . S
C3062 H3048 0.930 . S
C3062 C3060 1.395 1_556 S
C3062 C3065 1.403 . S
C3063 C3060 1.403 . S
C3063 C3064 1.524 . S
C3063 C3067 1.400 . S
C3064 H3049 0.960 . S
C3064 H3050 0.960 . S
C3064 H3051 0.960 . S
C3064 C3063 1.524 . S
C3065 C3062 1.403 . S
C3065 C3066 1.392 1_556 S
C3065 C3069 1.495 . S
C3066 C3065 1.392 1_554 S
C3066 C3067 1.385 . S
C3066 C3068 1.478 . S
C3067 H3061 0.930 . S
C3067 C3063 1.400 . S
C3067 C3066 1.385 . S
C3068 C3066 1.478 . S
C3068 C3070 1.381 . S
C3068 C3074 1.383 . S
C3069 C3065 1.495 . S
C3069 H3075 0.959 . S
C3069 H3076 0.961 . S
C3069 H3077 0.960 . S
C3070 C3068 1.381 . S
C3070 C3071 1.394 . S
C3070 H3078 0.931 . S
C3071 C3070 1.394 . S
C3071 C3072 1.383 . S
C3071 H3079 0.929 . S
C3072 C3071 1.383 . S
C3072 C3073 1.377 . S
C3073 H3057 0.930 . S
C3073 C3072 1.377 . S
C3073 C3074 1.379 . S
C3074 H3058 0.931 . S
C3074 C3068 1.383 . S
C3074 C3073 1.379 . S
H3075 C3069 0.959 . S
H3076 C3069 0.961 . S
H3077 C3069 0.960 . S
H3078 C3070 0.931 . S
H3079 C3071 0.929 . S
H3080 C3088 0.929 . S
H3081 C3090 0.930 . S
H3082 C3092 0.930 . S
H3083 C3095 0.929 . S
H3084 C3098 0.930 . S
H3085 C3100 0.960 . S
H3086 C3100 0.960 . S
H3087 C3100 0.960 . S
C3088 H3080 0.929 . S
C3088 C3089 1.377 . S
C3088 C3090 1.384 . S
C3089 C3088 1.377 . S
C3089 C3095 1.390 . S
C3090 H3081 0.930 . S
C3090 C3088 1.384 . S
C3090 C3091 1.372 . S
C3091 C3090 1.372 . S
C3091 C3092 1.400 . S
C3091 C3096 1.490 . S
C3092 H3082 0.930 . S
C3092 C3091 1.400 . S
C3092 C3095 1.386 . S
H3093 C3109 0.930 . S
H3094 C3110 0.931 . S
C3095 H3083 0.929 . S
C3095 C3089 1.390 . S
C3095 C3092 1.386 . S
C3096 C3091 1.490 . S
C3096 C3098 1.395 . S
C3096 C3099 1.403 . S
H3097 C3103 0.930 . S
C3098 H3084 0.930 . S
C3098 C3096 1.395 . S
C3098 C3101 1.403 . S
C3099 C3096 1.403 . S
C3099 C3100 1.524 . S
C3099 C3103 1.400 . S
C3100 H3085 0.960 . S
C3100 H3086 0.960 . S
C3100 H3087 0.960 . S
C3100 C3099 1.524 . S
C3101 C3098 1.403 . S
C3101 C3102 1.392 . S
C3101 C3105 1.495 . S
C3102 C3101 1.392 . S
C3102 C3103 1.385 . S
C3102 C3104 1.478 . S
C3103 H3097 0.930 . S
C3103 C3099 1.400 . S
C3103 C3102 1.385 . S
C3104 C3102 1.478 . S
C3104 C3106 1.381 . S
C3104 C3110 1.383 . S
C3105 C3101 1.495 . S
C3105 H3111 0.959 . S
C3105 H3112 0.961 . S
C3105 H3113 0.960 . S
C3106 C3104 1.381 . S
C3106 C3107 1.394 . S
C3106 H3114 0.930 . S
C3107 C3106 1.394 . S
C3107 C3108 1.383 . S
C3107 H3115 0.929 . S
C3108 C3107 1.383 . S
C3108 C3109 1.377 . S
C3109 H3093 0.930 . S
C3109 C3108 1.377 . S
C3109 C3110 1.379 . S
C3110 H3094 0.931 . S
C3110 C3104 1.383 . S
C3110 C3109 1.379 . S
H3111 C3105 0.959 . S
H3112 C3105 0.961 . S
H3113 C3105 0.960 . S
H3114 C3106 0.930 . S
H3115 C3107 0.929 . S
H3116 C3124 0.929 . S
H3117 C3126 0.930 . S
H3118 C3128 0.930 . S
H3119 C3131 0.929 . S
H3120 C3134 0.930 . S
H3121 C3136 0.960 . S
H3122 C3136 0.960 . S
H3123 C3136 0.960 . S
C3124 H3116 0.929 . S
C3124 C3125 1.377 . S
C3124 C3126 1.384 . S
C3125 C3124 1.377 . S
C3125 C3131 1.390 . S
C3126 H3117 0.930 . S
C3126 C3124 1.384 . S
C3126 C3127 1.372 . S
C3127 C3126 1.372 . S
C3127 C3128 1.400 . S
C3127 C3132 1.490 . S
C3128 H3118 0.930 . S
C3128 C3127 1.400 . S
C3128 C3131 1.386 . S
H3129 C3145 0.930 . S
H3130 C3146 0.931 . S
C3131 H3119 0.929 . S
C3131 C3125 1.390 . S
C3131 C3128 1.386 . S
C3132 C3127 1.490 . S
C3132 C3134 1.395 . S
C3132 C3135 1.403 . S
H3133 C3139 0.930 . S
C3134 H3120 0.930 . S
C3134 C3132 1.395 . S
C3134 C3137 1.403 . S
C3135 C3132 1.403 . S
C3135 C3136 1.524 . S
C3135 C3139 1.400 . S
C3136 H3121 0.960 . S
C3136 H3122 0.960 . S
C3136 H3123 0.960 . S
C3136 C3135 1.524 . S
C3137 C3134 1.403 . S
C3137 C3138 1.392 . S
C3137 C3141 1.495 . S
C3138 C3137 1.392 . S
C3138 C3139 1.385 . S
C3138 C3140 1.478 . S
C3139 H3133 0.930 . S
C3139 C3135 1.400 . S
C3139 C3138 1.385 . S
C3140 C3138 1.478 . S
C3140 C3142 1.381 . S
C3140 C3146 1.383 . S
C3141 C3137 1.495 . S
C3141 H3147 0.959 . S
C3141 H3148 0.961 . S
C3141 H3149 0.960 . S
C3142 C3140 1.381 . S
C3142 C3143 1.394 . S
C3142 H3150 0.930 . S
C3143 C3142 1.394 . S
C3143 C3144 1.383 . S
C3143 H3151 0.929 . S
C3144 C3143 1.383 . S
C3144 C3145 1.377 . S
C3145 H3129 0.930 . S
C3145 C3144 1.377 . S
C3145 C3146 1.379 . S
C3146 H3130 0.931 . S
C3146 C3140 1.383 . S
C3146 C3145 1.379 . S
H3147 C3141 0.959 . S
H3148 C3141 0.961 . S
H3149 C3141 0.960 . S
H3150 C3142 0.930 . S
H3151 C3143 0.929 . S
H3152 C3160 0.929 . S
H3153 C3162 0.930 . S
H3154 C3164 0.930 . S
H3155 C3167 0.929 . S
H3156 C3170 0.930 . S
H3157 C3172 0.960 . S
H3158 C3172 0.960 . S
H3159 C3172 0.960 . S
C3160 H3152 0.929 . S
C3160 C3161 1.377 . S
C3160 C3162 1.384 . S
C3161 C3160 1.377 . S
C3161 C3167 1.390 . S
C3162 H3153 0.930 . S
C3162 C3160 1.384 . S
C3162 C3163 1.372 . S
C3163 C3162 1.372 . S
C3163 C3164 1.400 . S
C3163 C3168 1.490 . S
C3164 H3154 0.930 . S
C3164 C3163 1.400 . S
C3164 C3167 1.386 . S
H3165 C3181 0.930 . S
H3166 C3182 0.931 . S
C3167 H3155 0.929 . S
C3167 C3161 1.390 . S
C3167 C3164 1.386 . S
C3168 C3163 1.490 . S
C3168 C3170 1.395 . S
C3168 C3171 1.403 . S
H3169 C3175 0.930 . S
C3170 H3156 0.930 . S
C3170 C3168 1.395 . S
C3170 C3173 1.403 . S
C3171 C3168 1.403 . S
C3171 C3172 1.524 . S
C3171 C3175 1.400 . S
C3172 H3157 0.960 . S
C3172 H3158 0.960 . S
C3172 H3159 0.960 . S
C3172 C3171 1.524 . S
C3173 C3170 1.403 . S
C3173 C3174 1.392 . S
C3173 C3177 1.495 . S
C3174 C3173 1.392 . S
C3174 C3175 1.385 . S
C3174 C3176 1.478 . S
C3175 H3169 0.930 . S
C3175 C3171 1.400 . S
C3175 C3174 1.385 . S
C3176 C3174 1.478 . S
C3176 C3178 1.381 . S
C3176 C3182 1.383 . S
C3177 C3173 1.495 . S
C3177 H3183 0.959 . S
C3177 H3184 0.961 . S
C3177 H3185 0.960 . S
C3178 C3176 1.381 . S
C3178 C3179 1.394 . S
C3178 H3186 0.930 . S
C3179 C3178 1.394 . S
C3179 C3180 1.383 . S
C3179 H3187 0.929 . S
C3180 C3179 1.383 . S
C3180 C3181 1.377 . S
C3181 H3165 0.930 . S
C3181 C3180 1.377 . S
C3181 C3182 1.379 . S
C3182 H3166 0.931 . S
C3182 C3176 1.383 . S
C3182 C3181 1.379 . S
H3183 C3177 0.959 . S
H3184 C3177 0.961 . S
H3185 C3177 0.960 . S
H3186 C3178 0.930 . S
H3187 C3179 0.929 . S
H3188 C3196 0.929 . S
H3189 C3198 0.930 . S
H3190 C3200 0.930 . S
H3191 C3203 0.929 . S
H3192 C3206 0.930 . S
H3193 C3208 0.960 . S
H3194 C3208 0.960 . S
H3195 C3208 0.960 . S
C3196 H3188 0.929 . S
C3196 C3197 1.377 . S
C3196 C3198 1.384 . S
C3197 C3196 1.377 . S
C3197 C3203 1.390 . S
C3198 H3189 0.930 . S
C3198 C3196 1.384 . S
C3198 C3199 1.372 . S
C3199 C3198 1.372 . S
C3199 C3200 1.400 . S
C3199 C3204 1.490 . S
C3200 H3190 0.930 . S
C3200 C3199 1.400 . S
C3200 C3203 1.386 . S
H3201 C3217 0.930 . S
H3202 C3218 0.931 . S
C3203 H3191 0.929 . S
C3203 C3197 1.390 . S
C3203 C3200 1.386 . S
C3204 C3199 1.490 . S
C3204 C3206 1.395 . S
C3204 C3207 1.403 . S
H3205 C3211 0.930 . S
C3206 H3192 0.930 . S
C3206 C3204 1.395 . S
C3206 C3209 1.403 . S
C3207 C3204 1.403 . S
C3207 C3208 1.524 . S
C3207 C3211 1.400 . S
C3208 H3193 0.960 . S
C3208 H3194 0.960 . S
C3208 H3195 0.960 . S
C3208 C3207 1.524 . S
C3209 C3206 1.403 . S
C3209 C3210 1.392 . S
C3209 C3213 1.495 . S
C3210 C3209 1.392 . S
C3210 C3211 1.385 . S
C3210 C3212 1.478 . S
C3211 H3205 0.930 . S
C3211 C3207 1.400 . S
C3211 C3210 1.385 . S
C3212 C3210 1.478 . S
C3212 C3214 1.381 . S
C3212 C3218 1.383 . S
C3213 C3209 1.495 . S
C3213 H3219 0.959 . S
C3213 H3220 0.961 . S
C3213 H3221 0.960 . S
C3214 C3212 1.381 . S
C3214 C3215 1.394 . S
C3214 H3222 0.930 . S
C3215 C3214 1.394 . S
C3215 C3216 1.383 . S
C3215 H3223 0.929 . S
C3216 C3215 1.383 . S
C3216 C3217 1.377 . S
C3217 H3201 0.930 . S
C3217 C3216 1.377 . S
C3217 C3218 1.379 . S
C3218 H3202 0.931 . S
C3218 C3212 1.383 . S
C3218 C3217 1.379 . S
H3219 C3213 0.959 . S
H3220 C3213 0.961 . S
H3221 C3213 0.960 . S
H3222 C3214 0.930 . S
H3223 C3215 0.929 . S
H3224 C3232 0.929 . S
H3225 C3234 0.930 . S
H3226 C3236 0.930 . S
H3227 C3239 0.929 . S
H3228 C3242 0.930 . S
H3229 C3244 0.960 . S
H3230 C3244 0.960 . S
H3231 C3244 0.960 . S
C3232 H3224 0.929 . S
C3232 C3233 1.377 . S
C3232 C3234 1.384 . S
C3233 C3232 1.377 . S
C3233 C3239 1.390 . S
C3234 H3225 0.930 . S
C3234 C3232 1.384 . S
C3234 C3235 1.372 . S
C3235 C3234 1.372 . S
C3235 C3236 1.400 . S
C3235 C3240 1.490 . S
C3236 H3226 0.930 . S
C3236 C3235 1.400 . S
C3236 C3239 1.386 . S
H3237 C3253 0.930 . S
H3238 C3254 0.931 . S
C3239 H3227 0.929 . S
C3239 C3233 1.390 . S
C3239 C3236 1.386 . S
C3240 C3235 1.490 . S
C3240 C3242 1.395 . S
C3240 C3243 1.403 . S
H3241 C3247 0.930 . S
C3242 H3228 0.930 . S
C3242 C3240 1.395 . S
C3242 C3245 1.403 . S
C3243 C3240 1.403 . S
C3243 C3244 1.524 . S
C3243 C3247 1.400 . S
C3244 H3229 0.960 . S
C3244 H3230 0.960 . S
C3244 H3231 0.960 . S
C3244 C3243 1.524 . S
C3245 C3242 1.403 . S
C3245 C3246 1.392 . S
C3245 C3249 1.495 . S
C3246 C3245 1.392 . S
C3246 C3247 1.385 . S
C3246 C3248 1.478 . S
C3247 H3241 0.930 . S
C3247 C3243 1.400 . S
C3247 C3246 1.385 . S
C3248 C3246 1.478 . S
C3248 C3250 1.381 . S
C3248 C3254 1.383 . S
C3249 C3245 1.495 . S
C3249 H3255 0.959 . S
C3249 H3256 0.961 . S
C3249 H3257 0.960 . S
C3250 C3248 1.381 . S
C3250 C3251 1.394 . S
C3250 H3258 0.930 . S
C3251 C3250 1.394 . S
C3251 C3252 1.383 . S
C3251 H3259 0.929 . S
C3252 C3251 1.383 . S
C3252 C3253 1.377 . S
C3253 H3237 0.930 . S
C3253 C3252 1.377 . S
C3253 C3254 1.379 . S
C3254 H3238 0.931 . S
C3254 C3248 1.383 . S
C3254 C3253 1.379 . S
H3255 C3249 0.959 . S
H3256 C3249 0.961 . S
H3257 C3249 0.960 . S
H3258 C3250 0.930 . S
H3259 C3251 0.929 . S
H3260 C3268 0.929 . S
H3261 C3270 0.930 . S
H3262 C3272 0.930 . S
H3263 C3275 0.929 . S
H3264 C3278 0.930 . S
H3265 C3280 0.960 . S
H3266 C3280 0.960 . S
H3267 C3280 0.960 . S
C3268 H3260 0.929 . S
C3268 C3269 1.377 . S
C3268 C3270 1.384 . S
C3269 C3268 1.377 . S
C3269 C3275 1.390 . S
C3270 H3261 0.930 . S
C3270 C3268 1.384 . S
C3270 C3271 1.372 . S
C3271 C3270 1.372 . S
C3271 C3272 1.400 . S
C3271 C3276 1.490 . S
C3272 H3262 0.930 . S
C3272 C3271 1.400 . S
C3272 C3275 1.386 . S
H3273 C3289 0.930 . S
H3274 C3290 0.931 . S
C3275 H3263 0.929 . S
C3275 C3269 1.390 . S
C3275 C3272 1.386 . S
C3276 C3271 1.490 . S
C3276 C3278 1.395 . S
C3276 C3279 1.403 . S
H3277 C3283 0.930 . S
C3278 H3264 0.930 . S
C3278 C3276 1.395 . S
C3278 C3281 1.403 . S
C3279 C3276 1.403 . S
C3279 C3280 1.524 . S
C3279 C3283 1.400 . S
C3280 H3265 0.960 . S
C3280 H3266 0.960 . S
C3280 H3267 0.960 . S
C3280 C3279 1.524 . S
C3281 C3278 1.403 . S
C3281 C3282 1.392 . S
C3281 C3285 1.495 . S
C3282 C3281 1.392 . S
C3282 C3283 1.385 . S
C3282 C3284 1.478 . S
C3283 H3277 0.930 . S
C3283 C3279 1.400 . S
C3283 C3282 1.385 . S
C3284 C3282 1.478 . S
C3284 C3286 1.381 . S
C3284 C3290 1.383 . S
C3285 C3281 1.495 . S
C3285 H3291 0.959 . S
C3285 H3292 0.961 . S
C3285 H3293 0.960 . S
C3286 C3284 1.381 . S
C3286 C3287 1.394 . S
C3286 H3294 0.930 . S
C3287 C3286 1.394 . S
C3287 C3288 1.383 . S
C3287 H3295 0.929 . S
C3288 C3287 1.383 . S
C3288 C3289 1.377 . S
C3289 H3273 0.930 . S
C3289 C3288 1.377 . S
C3289 C3290 1.379 . S
C3290 H3274 0.931 . S
C3290 C3284 1.383 . S
C3290 C3289 1.379 . S
H3291 C3285 0.959 . S
H3292 C3285 0.961 . S
H3293 C3285 0.960 . S
H3294 C3286 0.930 . S
H3295 C3287 0.929 . S
H3296 C3304 0.929 . S
H3297 C3306 0.930 . S
H3298 C3308 0.930 . S
H3299 C3311 0.929 . S
H3300 C3314 0.934 1_655 S
H3301 C3316 0.960 . S
H3302 C3316 0.960 . S
H3303 C3316 0.960 . S
C3304 H3296 0.929 . S
C3304 C3305 1.377 . S
C3304 C3306 1.384 . S
C3305 C3304 1.377 . S
C3305 C3311 1.390 . S
C3306 H3297 0.930 . S
C3306 C3304 1.384 . S
C3306 C3307 1.372 . S
C3307 C3306 1.372 . S
C3307 C3308 1.400 . S
C3307 C3312 1.490 . S
C3308 H3298 0.930 . S
C3308 C3307 1.400 . S
C3308 C3311 1.386 . S
H3309 C3325 0.930 . S
H3310 C3326 0.931 . S
C3311 H3299 0.929 . S
C3311 C3305 1.390 . S
C3311 C3308 1.386 . S
C3312 C3307 1.490 . S
C3312 C3314 1.389 . S
C3312 C3315 1.403 . S
H3313 C3319 0.930 . S
C3314 H3300 0.934 1_455 S
C3314 C3312 1.389 . S
C3314 C3317 1.405 1_455 S
C3315 C3312 1.403 . S
C3315 C3316 1.524 . S
C3315 C3319 1.400 . S
C3316 H3301 0.960 . S
C3316 H3302 0.960 . S
C3316 H3303 0.960 . S
C3316 C3315 1.524 . S
C3317 C3314 1.405 1_655 S
C3317 C3318 1.392 1_655 S
C3317 C3321 1.495 . S
C3318 C3317 1.392 1_455 S
C3318 C3319 1.385 . S
C3318 C3320 1.478 . S
C3319 H3313 0.930 . S
C3319 C3315 1.400 . S
C3319 C3318 1.385 . S
C3320 C3318 1.478 . S
C3320 C3322 1.381 . S
C3320 C3326 1.383 . S
C3321 C3317 1.495 . S
C3321 H3327 0.959 . S
C3321 H3328 0.961 . S
C3321 H3329 0.960 . S
C3322 C3320 1.381 . S
C3322 C3323 1.394 . S
C3322 H3330 0.921 1_455 S
C3323 C3322 1.394 . S
C3323 C3324 1.383 . S
C3323 H3331 0.915 1_455 S
C3324 C3323 1.383 . S
C3324 C3325 1.377 . S
C3325 H3309 0.930 . S
C3325 C3324 1.377 . S
C3325 C3326 1.379 . S
C3326 H3310 0.931 . S
C3326 C3320 1.383 . S
C3326 C3325 1.379 . S
H3327 C3321 0.959 . S
H3328 C3321 0.961 . S
H3329 C3321 0.960 . S
H3330 C3322 0.921 1_655 S
H3331 C3323 0.915 1_655 S
H3332 C3340 0.929 . S
H3333 C3342 0.930 . S
H3334 C3344 0.930 . S
H3335 C3347 0.929 . S
H3336 C3350 0.930 . S
H3337 C3352 0.960 . S
H3338 C3352 0.960 . S
H3339 C3352 0.960 . S
C3340 H3332 0.929 . S
C3340 C3341 1.377 . S
C3340 C3342 1.384 . S
C3341 C3340 1.377 . S
C3341 C3347 1.390 . S
C3342 H3333 0.930 . S
C3342 C3340 1.384 . S
C3342 C3343 1.372 . S
C3343 C3342 1.372 . S
C3343 C3344 1.400 . S
C3343 C3348 1.490 . S
C3344 H3334 0.930 . S
C3344 C3343 1.400 . S
C3344 C3347 1.386 . S
H3345 C3361 0.930 . S
H3346 C3362 0.931 . S
C3347 H3335 0.929 . S
C3347 C3341 1.390 . S
C3347 C3344 1.386 . S
C3348 C3343 1.490 . S
C3348 C3350 1.395 . S
C3348 C3351 1.403 . S
H3349 C3355 0.930 . S
C3350 H3336 0.930 . S
C3350 C3348 1.395 . S
C3350 C3353 1.403 . S
C3351 C3348 1.403 . S
C3351 C3352 1.524 . S
C3351 C3355 1.400 . S
C3352 H3337 0.960 . S
C3352 H3338 0.960 . S
C3352 H3339 0.960 . S
C3352 C3351 1.524 . S
C3353 C3350 1.403 . S
C3353 C3354 1.392 . S
C3353 C3357 1.495 . S
C3354 C3353 1.392 . S
C3354 C3355 1.385 . S
C3354 C3356 1.478 . S
C3355 H3349 0.930 . S
C3355 C3351 1.400 . S
C3355 C3354 1.385 . S
C3356 C3354 1.478 . S
C3356 C3358 1.381 . S
C3356 C3362 1.383 . S
C3357 C3353 1.495 . S
C3357 H3363 0.959 . S
C3357 H3364 0.961 . S
C3357 H3365 0.960 . S
C3358 C3356 1.381 . S
C3358 C3359 1.394 . S
C3358 H3366 0.930 . S
C3359 C3358 1.394 . S
C3359 C3360 1.383 . S
C3359 H3367 0.929 . S
C3360 C3359 1.383 . S
C3360 C3361 1.377 . S
C3361 H3345 0.930 . S
C3361 C3360 1.377 . S
C3361 C3362 1.379 . S
C3362 H3346 0.931 . S
C3362 C3356 1.383 . S
C3362 C3361 1.379 . S
H3363 C3357 0.959 . S
H3364 C3357 0.961 . S
H3365 C3357 0.960 . S
H3366 C3358 0.930 . S
H3367 C3359 0.929 . S
H3368 C3376 0.929 . S
H3369 C3378 0.930 . S
H3370 C3380 0.930 . S
H3371 C3383 0.929 . S
H3372 C3386 0.930 . S
H3373 C3388 0.960 . S
H3374 C3388 0.960 . S
H3375 C3388 0.960 . S
C3376 H3368 0.929 . S
C3376 C3377 1.377 . S
C3376 C3378 1.384 . S
C3377 C3376 1.377 . S
C3377 C3383 1.390 . S
C3378 H3369 0.930 . S
C3378 C3376 1.384 . S
C3378 C3379 1.372 . S
C3379 C3378 1.372 . S
C3379 C3380 1.400 . S
C3379 C3384 1.490 . S
C3380 H3370 0.930 . S
C3380 C3379 1.400 . S
C3380 C3383 1.386 . S
H3381 C3397 0.930 . S
H3382 C3398 0.931 . S
C3383 H3371 0.929 . S
C3383 C3377 1.390 . S
C3383 C3380 1.386 . S
C3384 C3379 1.490 . S
C3384 C3386 1.395 . S
C3384 C3387 1.403 . S
H3385 C3391 0.930 . S
C3386 H3372 0.930 . S
C3386 C3384 1.395 . S
C3386 C3389 1.403 . S
C3387 C3384 1.403 . S
C3387 C3388 1.524 . S
C3387 C3391 1.400 . S
C3388 H3373 0.960 . S
C3388 H3374 0.960 . S
C3388 H3375 0.960 . S
C3388 C3387 1.524 . S
C3389 C3386 1.403 . S
C3389 C3390 1.392 . S
C3389 C3393 1.495 . S
C3390 C3389 1.392 . S
C3390 C3391 1.385 . S
C3390 C3392 1.478 . S
C3391 H3385 0.930 . S
C3391 C3387 1.400 . S
C3391 C3390 1.385 . S
C3392 C3390 1.478 . S
C3392 C3394 1.381 . S
C3392 C3398 1.383 . S
C3393 C3389 1.495 . S
C3393 H3399 0.959 . S
C3393 H3400 0.961 . S
C3393 H3401 0.960 . S
C3394 C3392 1.381 . S
C3394 C3395 1.394 . S
C3394 H3402 0.930 . S
C3395 C3394 1.394 . S
C3395 C3396 1.383 . S
C3395 H3403 0.929 . S
C3396 C3395 1.383 . S
C3396 C3397 1.377 . S
C3397 H3381 0.930 . S
C3397 C3396 1.377 . S
C3397 C3398 1.379 . S
C3398 H3382 0.931 . S
C3398 C3392 1.383 . S
C3398 C3397 1.379 . S
H3399 C3393 0.959 . S
H3400 C3393 0.961 . S
H3401 C3393 0.960 . S
H3402 C3394 0.930 . S
H3403 C3395 0.929 . S
H3404 C3412 0.929 . S
H3405 C3414 0.930 . S
H3406 C3416 0.930 . S
H3407 C3419 0.929 . S
H3408 C3422 0.930 . S
H3409 C3424 0.960 . S
H3410 C3424 0.960 . S
H3411 C3424 0.960 . S
C3412 H3404 0.929 . S
C3412 C3413 1.377 . S
C3412 C3414 1.384 . S
C3413 C3412 1.377 . S
C3413 C3419 1.390 . S
C3414 H3405 0.930 . S
C3414 C3412 1.384 . S
C3414 C3415 1.372 . S
C3415 C3414 1.372 . S
C3415 C3416 1.400 . S
C3415 C3420 1.490 . S
C3416 H3406 0.930 . S
C3416 C3415 1.400 . S
C3416 C3419 1.386 . S
H3417 C3433 0.930 . S
H3418 C3434 0.931 . S
C3419 H3407 0.929 . S
C3419 C3413 1.390 . S
C3419 C3416 1.386 . S
C3420 C3415 1.490 . S
C3420 C3422 1.395 . S
C3420 C3423 1.403 . S
H3421 C3427 0.930 . S
C3422 H3408 0.930 . S
C3422 C3420 1.395 . S
C3422 C3425 1.403 . S
C3423 C3420 1.403 . S
C3423 C3424 1.524 . S
C3423 C3427 1.400 . S
C3424 H3409 0.960 . S
C3424 H3410 0.960 . S
C3424 H3411 0.960 . S
C3424 C3423 1.524 . S
C3425 C3422 1.403 . S
C3425 C3426 1.392 . S
C3425 C3429 1.495 . S
C3426 C3425 1.392 . S
C3426 C3427 1.385 . S
C3426 C3428 1.478 . S
C3427 H3421 0.930 . S
C3427 C3423 1.400 . S
C3427 C3426 1.385 . S
C3428 C3426 1.478 . S
C3428 C3430 1.381 . S
C3428 C3434 1.383 . S
C3429 C3425 1.495 . S
C3429 H3435 0.959 . S
C3429 H3436 0.961 . S
C3429 H3437 0.960 . S
C3430 C3428 1.381 . S
C3430 C3431 1.394 . S
C3430 H3438 0.930 . S
C3431 C3430 1.394 . S
C3431 C3432 1.383 . S
C3431 H3439 0.929 . S
C3432 C3431 1.383 . S
C3432 C3433 1.377 . S
C3433 H3417 0.930 . S
C3433 C3432 1.377 . S
C3433 C3434 1.379 . S
C3434 H3418 0.931 . S
C3434 C3428 1.383 . S
C3434 C3433 1.379 . S
H3435 C3429 0.959 . S
H3436 C3429 0.961 . S
H3437 C3429 0.960 . S
H3438 C3430 0.930 . S
H3439 C3431 0.929 . S
H3440 C3448 0.929 . S
H3441 C3450 0.930 . S
H3442 C3452 0.930 . S
H3443 C3455 0.929 . S
H3444 C3458 0.930 . S
H3445 C3460 0.960 . S
H3446 C3460 0.960 . S
H3447 C3460 0.960 1_455 S
C3448 H3440 0.929 . S
C3448 C3449 1.377 1_655 S
C3448 C3450 1.384 . S
C3449 C3448 1.377 1_455 S
C3449 C3455 1.390 . S
C3450 H3441 0.930 . S
C3450 C3448 1.384 . S
C3450 C3451 1.372 1_655 S
C3451 C3450 1.372 1_455 S
C3451 C3452 1.400 . S
C3451 C3456 1.490 . S
C3452 H3442 0.930 . S
C3452 C3451 1.400 . S
C3452 C3455 1.386 . S
H3453 C3469 0.930 . S
H3454 C3470 0.931 . S
C3455 H3443 0.929 . S
C3455 C3449 1.390 . S
C3455 C3452 1.386 . S
C3456 C3451 1.490 . S
C3456 C3458 1.395 . S
C3456 C3459 1.412 . S
H3457 C3463 0.925 1_655 S
C3458 H3444 0.930 . S
C3458 C3456 1.395 . S
C3458 C3461 1.403 . S
C3459 C3456 1.412 . S
C3459 C3460 1.509 1_455 S
C3459 C3463 1.401 . S
C3460 H3445 0.960 . S
C3460 H3446 0.960 . S
C3460 H3447 0.960 1_655 S
C3460 C3459 1.509 1_655 S
C3461 C3458 1.403 . S
C3461 C3462 1.392 . S
C3461 C3465 1.495 . S
C3462 C3461 1.392 . S
C3462 C3463 1.396 . S
C3462 C3464 1.478 . S
C3463 H3457 0.925 1_455 S
C3463 C3459 1.401 . S
C3463 C3462 1.396 . S
C3464 C3462 1.478 . S
C3464 C3466 1.381 1_455 S
C3464 C3470 1.383 . S
C3465 C3461 1.495 . S
C3465 H3471 0.959 . S
C3465 H3472 0.961 . S
C3465 H3473 0.960 1_455 S
C3466 C3464 1.381 1_655 S
C3466 C3467 1.394 . S
C3466 H3474 0.930 . S
C3467 C3466 1.394 . S
C3467 C3468 1.350 1_655 S
C3467 H3475 0.929 . S
C3468 C3467 1.350 1_455 S
C3468 C3469 1.407 . S
C3469 H3453 0.930 . S
C3469 C3468 1.407 . S
C3469 C3470 1.379 . S
C3470 H3454 0.931 . S
C3470 C3464 1.383 . S
C3470 C3469 1.379 . S
H3471 C3465 0.959 . S
H3472 C3465 0.961 . S
H3473 C3465 0.960 1_655 S
H3474 C3466 0.930 . S
H3475 C3467 0.929 . S
H3476 C3484 0.929 . S
H3477 C3486 0.930 . S
H3478 C3488 0.930 . S
H3479 C3491 0.929 . S
H3480 C3494 0.930 . S
H3481 C3496 0.960 . S
H3482 C3496 0.960 . S
H3483 C3496 0.960 . S
C3484 H3476 0.929 . S
C3484 C3485 1.377 . S
C3484 C3486 1.384 . S
C3485 C3484 1.377 . S
C3485 C3491 1.390 . S
C3486 H3477 0.930 . S
C3486 C3484 1.384 . S
C3486 C3487 1.372 . S
C3487 C3486 1.372 . S
C3487 C3488 1.400 . S
C3487 C3492 1.490 . S
C3488 H3478 0.930 . S
C3488 C3487 1.400 . S
C3488 C3491 1.386 . S
H3489 C3505 0.930 . S
H3490 C3506 0.931 . S
C3491 H3479 0.929 . S
C3491 C3485 1.390 . S
C3491 C3488 1.386 . S
C3492 C3487 1.490 . S
C3492 C3494 1.395 . S
C3492 C3495 1.403 . S
H3493 C3499 0.930 . S
C3494 H3480 0.930 . S
C3494 C3492 1.395 . S
C3494 C3497 1.403 . S
C3495 C3492 1.403 . S
C3495 C3496 1.524 . S
C3495 C3499 1.400 . S
C3496 H3481 0.960 . S
C3496 H3482 0.960 . S
C3496 H3483 0.960 . S
C3496 C3495 1.524 . S
C3497 C3494 1.403 . S
C3497 C3498 1.392 . S
C3497 C3501 1.495 . S
C3498 C3497 1.392 . S
C3498 C3499 1.385 . S
C3498 C3500 1.478 . S
C3499 H3493 0.930 . S
C3499 C3495 1.400 . S
C3499 C3498 1.385 . S
C3500 C3498 1.478 . S
C3500 C3502 1.381 . S
C3500 C3506 1.383 . S
C3501 C3497 1.495 . S
C3501 H3507 0.959 . S
C3501 H3508 0.961 . S
C3501 H3509 0.960 . S
C3502 C3500 1.381 . S
C3502 C3503 1.394 . S
C3502 H3510 0.930 . S
C3503 C3502 1.394 . S
C3503 C3504 1.383 . S
C3503 H3511 0.929 . S
C3504 C3503 1.383 . S
C3504 C3505 1.377 . S
C3505 H3489 0.930 . S
C3505 C3504 1.377 . S
C3505 C3506 1.379 . S
C3506 H3490 0.931 . S
C3506 C3500 1.383 . S
C3506 C3505 1.379 . S
H3507 C3501 0.959 . S
H3508 C3501 0.961 . S
H3509 C3501 0.960 . S
H3510 C3502 0.930 . S
H3511 C3503 0.929 . S
H3512 C3520 0.929 . S
H3513 C3522 0.930 . S
H3514 C3524 0.930 . S
H3515 C3527 0.929 . S
H3516 C3530 0.930 . S
H3517 C3532 0.960 . S
H3518 C3532 0.960 . S
H3519 C3532 0.960 . S
C3520 H3512 0.929 . S
C3520 C3521 1.377 . S
C3520 C3522 1.384 . S
C3521 C3520 1.377 . S
C3521 C3527 1.390 . S
C3522 H3513 0.930 . S
C3522 C3520 1.384 . S
C3522 C3523 1.372 . S
C3523 C3522 1.372 . S
C3523 C3524 1.400 . S
C3523 C3528 1.490 . S
C3524 H3514 0.930 . S
C3524 C3523 1.400 . S
C3524 C3527 1.386 . S
H3525 C3541 0.930 . S
H3526 C3542 0.931 . S
C3527 H3515 0.929 . S
C3527 C3521 1.390 . S
C3527 C3524 1.386 . S
C3528 C3523 1.490 . S
C3528 C3530 1.395 . S
C3528 C3531 1.403 . S
H3529 C3535 0.930 . S
C3530 H3516 0.930 . S
C3530 C3528 1.395 . S
C3530 C3533 1.403 . S
C3531 C3528 1.403 . S
C3531 C3532 1.524 . S
C3531 C3535 1.400 . S
C3532 H3517 0.960 . S
C3532 H3518 0.960 . S
C3532 H3519 0.960 . S
C3532 C3531 1.524 . S
C3533 C3530 1.403 . S
C3533 C3534 1.392 . S
C3533 C3537 1.495 . S
C3534 C3533 1.392 . S
C3534 C3535 1.385 . S
C3534 C3536 1.478 . S
C3535 H3529 0.930 . S
C3535 C3531 1.400 . S
C3535 C3534 1.385 . S
C3536 C3534 1.478 . S
C3536 C3538 1.381 1_556 S
C3536 C3542 1.383 . S
C3537 C3533 1.495 . S
C3537 H3543 0.959 . S
C3537 H3544 0.961 . S
C3537 H3545 0.960 . S
C3538 C3536 1.381 1_554 S
C3538 C3539 1.394 . S
C3538 H3546 0.930 . S
C3539 C3538 1.394 . S
C3539 C3540 1.419 . S
C3539 H3547 0.929 . S
C3540 C3539 1.419 . S
C3540 C3541 1.320 1_554 S
C3541 H3525 0.930 . S
C3541 C3540 1.320 1_556 S
C3541 C3542 1.379 . S
C3542 H3526 0.931 . S
C3542 C3536 1.383 . S
C3542 C3541 1.379 . S
H3543 C3537 0.959 . S
H3544 C3537 0.961 . S
H3545 C3537 0.960 . S
H3546 C3538 0.930 . S
H3547 C3539 0.929 . S
H3548 C3556 0.929 . S
H3549 C3558 0.930 . S
H3550 C3560 0.930 . S
H3551 C3563 0.929 . S
H3552 C3566 0.930 . S
H3553 C3568 0.960 . S
H3554 C3568 0.960 . S
H3555 C3568 0.960 . S
C3556 H3548 0.929 . S
C3556 C3557 1.377 . S
C3556 C3558 1.384 . S
C3557 C3556 1.377 . S
C3557 C3563 1.390 . S
C3558 H3549 0.930 . S
C3558 C3556 1.384 . S
C3558 C3559 1.372 . S
C3559 C3558 1.372 . S
C3559 C3560 1.400 . S
C3559 C3564 1.490 . S
C3560 H3550 0.930 . S
C3560 C3559 1.400 . S
C3560 C3563 1.386 . S
H3561 C3577 0.930 . S
H3562 C3578 0.931 . S
C3563 H3551 0.929 . S
C3563 C3557 1.390 . S
C3563 C3560 1.386 . S
C3564 C3559 1.490 . S
C3564 C3566 1.395 . S
C3564 C3567 1.403 . S
H3565 C3571 0.930 . S
C3566 H3552 0.930 . S
C3566 C3564 1.395 . S
C3566 C3569 1.403 . S
C3567 C3564 1.403 . S
C3567 C3568 1.524 . S
C3567 C3571 1.400 . S
C3568 H3553 0.960 . S
C3568 H3554 0.960 . S
C3568 H3555 0.960 . S
C3568 C3567 1.524 . S
C3569 C3566 1.403 . S
C3569 C3570 1.392 . S
C3569 C3573 1.495 . S
C3570 C3569 1.392 . S
C3570 C3571 1.385 . S
C3570 C3572 1.478 . S
C3571 H3565 0.930 . S
C3571 C3567 1.400 . S
C3571 C3570 1.385 . S
C3572 C3570 1.478 . S
C3572 C3574 1.381 . S
C3572 C3578 1.383 . S
C3573 C3569 1.495 . S
C3573 H3579 0.959 . S
C3573 H3580 0.961 . S
C3573 H3581 0.960 . S
C3574 C3572 1.381 . S
C3574 C3575 1.394 . S
C3574 H3582 0.930 . S
C3575 C3574 1.394 . S
C3575 C3576 1.383 . S
C3575 H3583 0.929 . S
C3576 C3575 1.383 . S
C3576 C3577 1.377 . S
C3577 H3561 0.930 . S
C3577 C3576 1.377 . S
C3577 C3578 1.379 . S
C3578 H3562 0.931 . S
C3578 C3572 1.383 . S
C3578 C3577 1.379 . S
H3579 C3573 0.959 . S
H3580 C3573 0.961 . S
H3581 C3573 0.960 . S
H3582 C3574 0.930 . S
H3583 C3575 0.929 . S
H3584 C3592 0.929 . S
H3585 C3594 0.930 . S
H3586 C3596 0.930 . S
H3587 C3599 0.929 . S
H3588 C3602 0.930 . S
H3589 C3604 0.960 . S
H3590 C3604 0.960 . S
H3591 C3604 0.960 . S
C3592 H3584 0.929 . S
C3592 C3593 1.377 . S
C3592 C3594 1.384 . S
C3593 C3592 1.377 . S
C3593 C3599 1.390 1_565 S
C3594 H3585 0.930 . S
C3594 C3592 1.384 . S
C3594 C3595 1.372 1_565 S
C3595 C3594 1.372 1_545 S
C3595 C3596 1.400 . S
C3595 C3600 1.490 . S
C3596 H3586 0.930 . S
C3596 C3595 1.400 . S
C3596 C3599 1.386 . S
H3597 C3613 0.930 . S
H3598 C3614 0.931 . S
C3599 H3587 0.929 . S
C3599 C3593 1.390 1_545 S
C3599 C3596 1.386 . S
C3600 C3595 1.490 . S
C3600 C3602 1.395 1_545 S
C3600 C3603 1.403 . S
H3601 C3607 0.930 . S
C3602 H3588 0.930 . S
C3602 C3600 1.395 1_565 S
C3602 C3605 1.403 . S
C3603 C3600 1.403 . S
C3603 C3604 1.524 . S
C3603 C3607 1.400 . S
C3604 H3589 0.960 . S
C3604 H3590 0.960 . S
C3604 H3591 0.960 . S
C3604 C3603 1.524 . S
C3605 C3602 1.403 . S
C3605 C3606 1.392 1_565 S
C3605 C3609 1.495 . S
C3606 C3605 1.392 1_545 S
C3606 C3607 1.385 . S
C3606 C3608 1.478 . S
C3607 H3601 0.930 . S
C3607 C3603 1.400 . S
C3607 C3606 1.385 . S
C3608 C3606 1.478 . S
C3608 C3610 1.381 . S
C3608 C3614 1.383 . S
C3609 C3605 1.495 . S
C3609 H3615 0.959 . S
C3609 H3616 0.961 . S
C3609 H3617 0.960 . S
C3610 C3608 1.381 . S
C3610 C3611 1.394 . S
C3610 H3618 0.930 1_545 S
C3611 C3610 1.394 . S
C3611 C3612 1.383 . S
C3611 H3619 0.929 1_455 S
C3612 C3611 1.383 . S
C3612 C3613 1.377 . S
C3613 H3597 0.930 . S
C3613 C3612 1.377 . S
C3613 C3614 1.379 . S
C3614 H3598 0.931 . S
C3614 C3608 1.383 . S
C3614 C3613 1.379 . S
H3615 C3609 0.959 . S
H3616 C3609 0.961 . S
H3617 C3609 0.960 . S
H3618 C3610 0.930 1_565 S
H3619 C3611 0.929 1_655 S
H3620 C3628 0.929 . S
H3621 C3630 0.930 . S
H3622 C3632 0.930 . S
H3623 C3635 0.929 . S
H3624 C3638 0.930 . S
H3625 C3640 0.960 . S
H3626 C3640 0.960 . S
H3627 C3640 0.960 . S
C3628 H3620 0.929 . S
C3628 C3629 1.377 . S
C3628 C3630 1.384 . S
C3629 C3628 1.377 . S
C3629 C3635 1.390 . S
C3630 H3621 0.930 . S
C3630 C3628 1.384 . S
C3630 C3631 1.372 . S
C3631 C3630 1.372 . S
C3631 C3632 1.400 . S
C3631 C3636 1.490 . S
C3632 H3622 0.930 . S
C3632 C3631 1.400 . S
C3632 C3635 1.386 . S
H3633 C3649 0.930 . S
H3634 C3650 0.931 . S
C3635 H3623 0.929 . S
C3635 C3629 1.390 . S
C3635 C3632 1.386 . S
C3636 C3631 1.490 . S
C3636 C3638 1.395 . S
C3636 C3639 1.403 . S
H3637 C3643 0.930 . S
C3638 H3624 0.930 . S
C3638 C3636 1.395 . S
C3638 C3641 1.403 . S
C3639 C3636 1.403 . S
C3639 C3640 1.524 . S
C3639 C3643 1.400 . S
C3640 H3625 0.960 . S
C3640 H3626 0.960 . S
C3640 H3627 0.960 . S
C3640 C3639 1.524 . S
C3641 C3638 1.403 . S
C3641 C3642 1.392 . S
C3641 C3645 1.495 . S
C3642 C3641 1.392 . S
C3642 C3643 1.385 . S
C3642 C3644 1.478 . S
C3643 H3637 0.930 . S
C3643 C3639 1.400 . S
C3643 C3642 1.385 . S
C3644 C3642 1.478 . S
C3644 C3646 1.381 . S
C3644 C3650 1.383 . S
C3645 C3641 1.495 . S
C3645 H3651 0.959 . S
C3645 H3652 0.961 . S
C3645 H3653 0.960 . S
C3646 C3644 1.381 . S
C3646 C3647 1.394 . S
C3646 H3654 0.930 . S
C3647 C3646 1.394 . S
C3647 C3648 1.383 . S
C3647 H3655 0.929 . S
C3648 C3647 1.383 . S
C3648 C3649 1.377 . S
C3649 H3633 0.930 . S
C3649 C3648 1.377 . S
C3649 C3650 1.379 . S
C3650 H3634 0.931 . S
C3650 C3644 1.383 . S
C3650 C3649 1.379 . S
H3651 C3645 0.959 . S
H3652 C3645 0.961 . S
H3653 C3645 0.960 . S
H3654 C3646 0.930 . S
H3655 C3647 0.929 . S
H3656 C3664 0.929 . S
H3657 C3666 0.930 . S
H3658 C3668 0.930 . S
H3659 C3671 0.929 . S
H3660 C3674 0.930 . S
H3661 C3676 0.906 1_565 S
H3662 C3676 0.953 1_565 S
H3663 C3676 0.972 1_565 S
C3664 H3656 0.929 . S
C3664 C3665 1.377 . S
C3664 C3666 1.384 . S
C3665 C3664 1.377 . S
C3665 C3671 1.390 . S
C3666 H3657 0.930 . S
C3666 C3664 1.384 . S
C3666 C3667 1.372 . S
C3667 C3666 1.372 . S
C3667 C3668 1.400 . S
C3667 C3672 1.490 . S
C3668 H3658 0.930 . S
C3668 C3667 1.400 . S
C3668 C3671 1.386 . S
H3669 C3685 0.930 . S
H3670 C3686 0.931 . S
C3671 H3659 0.929 . S
C3671 C3665 1.390 . S
C3671 C3668 1.386 . S
C3672 C3667 1.490 . S
C3672 C3674 1.395 . S
C3672 C3675 1.403 . S
H3673 C3679 0.930 . S
C3674 H3660 0.930 . S
C3674 C3672 1.395 . S
C3674 C3677 1.403 . S
C3675 C3672 1.403 . S
C3675 C3676 1.582 . S
C3675 C3679 1.400 . S
C3676 H3661 0.906 1_545 S
C3676 H3662 0.953 1_545 S
C3676 H3663 0.972 1_545 S
C3676 C3675 1.582 . S
C3677 C3674 1.403 . S
C3677 C3678 1.392 . S
C3677 C3681 1.495 . S
C3678 C3677 1.392 . S
C3678 C3679 1.385 . S
C3678 C3680 1.478 . S
C3679 H3673 0.930 . S
C3679 C3675 1.400 . S
C3679 C3678 1.385 . S
C3680 C3678 1.478 . S
C3680 C3682 1.381 . S
C3680 C3686 1.383 . S
C3681 C3677 1.495 . S
C3681 H3687 0.959 . S
C3681 H3688 0.961 . S
C3681 H3689 0.960 . S
C3682 C3680 1.381 . S
C3682 C3683 1.394 . S
C3682 H3690 0.930 . S
C3683 C3682 1.394 . S
C3683 C3684 1.383 . S
C3683 H3691 0.929 . S
C3684 C3683 1.383 . S
C3684 C3685 1.377 . S
C3685 H3669 0.930 . S
C3685 C3684 1.377 . S
C3685 C3686 1.379 . S
C3686 H3670 0.931 . S
C3686 C3680 1.383 . S
C3686 C3685 1.379 . S
H3687 C3681 0.959 . S
H3688 C3681 0.961 . S
H3689 C3681 0.960 . S
H3690 C3682 0.930 . S
H3691 C3683 0.929 . S
H3692 C3700 0.929 . S
H3693 C3702 0.930 . S
H3694 C3704 0.930 . S
H3695 C3707 0.929 . S
H3696 C3710 0.930 . S
H3697 C3712 0.960 . S
H3698 C3712 0.960 . S
H3699 C3712 0.960 . S
C3700 H3692 0.929 . S
C3700 C3701 1.377 . S
C3700 C3702 1.384 . S
C3701 C3700 1.377 . S
C3701 C3707 1.390 . S
C3702 H3693 0.930 . S
C3702 C3700 1.384 . S
C3702 C3703 1.372 . S
C3703 C3702 1.372 . S
C3703 C3704 1.400 . S
C3703 C3708 1.490 . S
C3704 H3694 0.930 . S
C3704 C3703 1.400 . S
C3704 C3707 1.386 . S
H3705 C3721 0.930 . S
H3706 C3722 0.931 . S
C3707 H3695 0.929 . S
C3707 C3701 1.390 . S
C3707 C3704 1.386 . S
C3708 C3703 1.490 . S
C3708 C3710 1.395 . S
C3708 C3711 1.403 . S
H3709 C3715 0.930 . S
C3710 H3696 0.930 . S
C3710 C3708 1.395 . S
C3710 C3713 1.403 . S
C3711 C3708 1.403 . S
C3711 C3712 1.524 . S
C3711 C3715 1.400 . S
C3712 H3697 0.960 . S
C3712 H3698 0.960 . S
C3712 H3699 0.960 . S
C3712 C3711 1.524 . S
C3713 C3710 1.403 . S
C3713 C3714 1.392 . S
C3713 C3717 1.495 . S
C3714 C3713 1.392 . S
C3714 C3715 1.385 . S
C3714 C3716 1.478 . S
C3715 H3709 0.930 . S
C3715 C3711 1.400 . S
C3715 C3714 1.385 . S
C3716 C3714 1.478 . S
C3716 C3718 1.381 . S
C3716 C3722 1.383 . S
C3717 C3713 1.495 . S
C3717 H3723 0.959 . S
C3717 H3724 0.961 . S
C3717 H3725 0.960 . S
C3718 C3716 1.381 . S
C3718 C3719 1.394 . S
C3718 H3726 0.930 . S
C3719 C3718 1.394 . S
C3719 C3720 1.383 . S
C3719 H3727 0.929 . S
C3720 C3719 1.383 . S
C3720 C3721 1.377 . S
C3721 H3705 0.930 . S
C3721 C3720 1.377 . S
C3721 C3722 1.379 . S
C3722 H3706 0.931 . S
C3722 C3716 1.383 . S
C3722 C3721 1.379 . S
H3723 C3717 0.959 . S
H3724 C3717 0.961 . S
H3725 C3717 0.960 . S
H3726 C3718 0.930 . S
H3727 C3719 0.929 . S
H3728 C3736 0.929 . S
H3729 C3738 0.930 . S
H3730 C3740 0.930 . S
H3731 C3743 0.929 . S
H3732 C3746 0.930 . S
H3733 C3748 0.960 . S
H3734 C3748 0.960 . S
H3735 C3748 0.960 1_565 S
C3736 H3728 0.929 . S
C3736 C3737 1.377 1_545 S
C3736 C3738 1.384 . S
C3737 C3736 1.377 1_565 S
C3737 C3743 1.390 . S
C3738 H3729 0.930 . S
C3738 C3736 1.384 . S
C3738 C3739 1.367 1_545 S
C3739 C3738 1.367 1_565 S
C3739 C3740 1.410 . S
C3739 C3744 1.485 1_565 S
C3740 H3730 0.930 . S
C3740 C3739 1.410 . S
C3740 C3743 1.386 . S
H3741 C3757 0.930 . S
H3742 C3758 0.931 1_565 S
C3743 H3731 0.929 . S
C3743 C3737 1.390 . S
C3743 C3740 1.386 . S
C3744 C3739 1.485 1_545 S
C3744 C3746 1.395 . S
C3744 C3747 1.403 . S
H3745 C3751 0.930 . S
C3746 H3732 0.930 . S
C3746 C3744 1.395 . S
C3746 C3749 1.403 . S
C3747 C3744 1.403 . S
C3747 C3748 1.524 . S
C3747 C3751 1.400 . S
C3748 H3733 0.960 . S
C3748 H3734 0.960 . S
C3748 H3735 0.960 1_545 S
C3748 C3747 1.524 . S
C3749 C3746 1.403 . S
C3749 C3750 1.392 . S
C3749 C3753 1.495 . S
C3750 C3749 1.392 . S
C3750 C3751 1.385 . S
C3750 C3752 1.478 . S
C3751 H3745 0.930 . S
C3751 C3747 1.400 . S
C3751 C3750 1.385 . S
C3752 C3750 1.478 . S
C3752 C3754 1.381 . S
C3752 C3758 1.383 . S
C3753 C3749 1.495 . S
C3753 H3759 0.959 . S
C3753 H3760 0.961 1_545 S
C3753 H3761 0.960 . S
C3754 C3752 1.381 . S
C3754 C3755 1.394 . S
C3754 H3762 0.930 . S
C3755 C3754 1.394 . S
C3755 C3756 1.383 . S
C3755 H3763 0.929 . S
C3756 C3755 1.383 . S
C3756 C3757 1.377 . S
C3757 H3741 0.930 . S
C3757 C3756 1.377 . S
C3757 C3758 1.379 . S
C3758 H3742 0.931 1_545 S
C3758 C3752 1.383 . S
C3758 C3757 1.379 . S
H3759 C3753 0.959 . S
H3760 C3753 0.961 1_565 S
H3761 C3753 0.960 . S
H3762 C3754 0.930 . S
H3763 C3755 0.929 . S
H3764 C3772 0.929 . S
H3765 C3774 0.930 . S
H3766 C3776 0.930 . S
H3767 C3779 0.929 . S
H3768 C3782 0.930 . S
H3769 C3784 0.960 . S
H3770 C3784 0.960 . S
H3771 C3784 0.960 . S
C3772 H3764 0.929 . S
C3772 C3773 1.377 . S
C3772 C3774 1.384 . S
C3773 C3772 1.377 . S
C3773 C3779 1.390 . S
C3774 H3765 0.930 . S
C3774 C3772 1.384 . S
C3774 C3775 1.372 . S
C3775 C3774 1.372 . S
C3775 C3776 1.400 . S
C3775 C3780 1.490 . S
C3776 H3766 0.930 . S
C3776 C3775 1.400 . S
C3776 C3779 1.386 . S
H3777 C3793 0.930 . S
H3778 C3794 0.931 . S
C3779 H3767 0.929 . S
C3779 C3773 1.390 . S
C3779 C3776 1.386 . S
C3780 C3775 1.490 . S
C3780 C3782 1.395 . S
C3780 C3783 1.403 . S
H3781 C3787 0.930 . S
C3782 H3768 0.930 . S
C3782 C3780 1.395 . S
C3782 C3785 1.403 . S
C3783 C3780 1.403 . S
C3783 C3784 1.524 . S
C3783 C3787 1.400 . S
C3784 H3769 0.960 . S
C3784 H3770 0.960 . S
C3784 H3771 0.960 . S
C3784 C3783 1.524 . S
C3785 C3782 1.403 . S
C3785 C3786 1.392 . S
C3785 C3789 1.495 . S
C3786 C3785 1.392 . S
C3786 C3787 1.385 . S
C3786 C3788 1.478 . S
C3787 H3781 0.930 . S
C3787 C3783 1.400 . S
C3787 C3786 1.385 . S
C3788 C3786 1.478 . S
C3788 C3790 1.381 . S
C3788 C3794 1.383 . S
C3789 C3785 1.495 . S
C3789 H3795 0.959 . S
C3789 H3796 0.961 . S
C3789 H3797 0.960 . S
C3790 C3788 1.381 . S
C3790 C3791 1.394 . S
C3790 H3798 0.930 . S
C3791 C3790 1.394 . S
C3791 C3792 1.383 . S
C3791 H3799 0.929 . S
C3792 C3791 1.383 . S
C3792 C3793 1.377 . S
C3793 H3777 0.930 . S
C3793 C3792 1.377 . S
C3793 C3794 1.379 . S
C3794 H3778 0.931 . S
C3794 C3788 1.383 . S
C3794 C3793 1.379 . S
H3795 C3789 0.959 . S
H3796 C3789 0.961 . S
H3797 C3789 0.960 . S
H3798 C3790 0.930 . S
H3799 C3791 0.929 . S
H3800 C3808 0.929 . S
H3801 C3810 0.931 . S
H3802 C3812 0.930 . S
H3803 C3815 0.929 . S
H3804 C3818 0.930 . S
H3805 C3820 0.960 . S
H3806 C3820 0.960 . S
H3807 C3820 0.960 . S
C3808 H3800 0.929 . S
C3808 C3809 1.377 . S
C3808 C3810 1.384 . S
C3809 C3808 1.377 . S
C3809 C3815 1.390 . S
C3810 H3801 0.931 . S
C3810 C3808 1.384 . S
C3810 C3811 1.372 . S
C3811 C3810 1.372 . S
C3811 C3812 1.400 . S
C3811 C3816 1.490 . S
C3812 H3802 0.930 . S
C3812 C3811 1.400 . S
C3812 C3815 1.386 . S
H3813 C3829 0.930 . S
H3814 C3830 0.931 . S
C3815 H3803 0.929 . S
C3815 C3809 1.390 . S
C3815 C3812 1.386 . S
C3816 C3811 1.490 . S
C3816 C3818 1.395 . S
C3816 C3819 1.403 . S
H3817 C3823 0.930 . S
C3818 H3804 0.930 . S
C3818 C3816 1.395 . S
C3818 C3821 1.403 . S
C3819 C3816 1.403 . S
C3819 C3820 1.524 . S
C3819 C3823 1.400 . S
C3820 H3805 0.960 . S
C3820 H3806 0.960 . S
C3820 H3807 0.960 . S
C3820 C3819 1.524 . S
C3821 C3818 1.403 . S
C3821 C3822 1.392 . S
C3821 C3825 1.495 . S
C3822 C3821 1.392 . S
C3822 C3823 1.385 . S
C3822 C3824 1.478 . S
C3823 H3817 0.930 . S
C3823 C3819 1.400 . S
C3823 C3822 1.385 . S
C3824 C3822 1.478 . S
C3824 C3826 1.381 1_545 S
C3824 C3830 1.383 . S
C3825 C3821 1.495 . S
C3825 H3831 0.959 . S
C3825 H3832 0.961 . S
C3825 H3833 0.960 . S
C3826 C3824 1.381 1_565 S
C3826 C3827 1.394 . S
C3826 H3834 0.930 . S
C3827 C3826 1.394 . S
C3827 C3828 1.383 1_565 S
C3827 H3835 0.929 . S
C3828 C3827 1.383 1_545 S
C3828 C3829 1.377 . S
C3829 H3813 0.930 . S
C3829 C3828 1.377 . S
C3829 C3830 1.379 . S
C3830 H3814 0.931 . S
C3830 C3824 1.383 . S
C3830 C3829 1.379 . S
H3831 C3825 0.959 . S
H3832 C3825 0.961 . S
H3833 C3825 0.960 . S
H3834 C3826 0.930 . S
H3835 C3827 0.929 . S
H3836 C3844 0.929 . S
H3837 C3846 0.930 . S
H3838 C3848 0.930 . S
H3839 C3851 0.929 . S
H3840 C3854 0.930 . S
H3841 C3856 0.960 . S
H3842 C3856 0.960 . S
H3843 C3856 0.960 . S
C3844 H3836 0.929 . S
C3844 C3845 1.377 . S
C3844 C3846 1.384 . S
C3845 C3844 1.377 . S
C3845 C3851 1.390 . S
C3846 H3837 0.930 . S
C3846 C3844 1.384 . S
C3846 C3847 1.372 . S
C3847 C3846 1.372 . S
C3847 C3848 1.400 . S
C3847 C3852 1.490 . S
C3848 H3838 0.930 . S
C3848 C3847 1.400 . S
C3848 C3851 1.386 . S
H3849 C3865 0.930 . S
H3850 C3866 0.931 . S
C3851 H3839 0.929 . S
C3851 C3845 1.390 . S
C3851 C3848 1.386 . S
C3852 C3847 1.490 . S
C3852 C3854 1.395 . S
C3852 C3855 1.403 . S
H3853 C3859 0.930 . S
C3854 H3840 0.930 . S
C3854 C3852 1.395 . S
C3854 C3857 1.403 . S
C3855 C3852 1.403 . S
C3855 C3856 1.524 . S
C3855 C3859 1.400 . S
C3856 H3841 0.960 . S
C3856 H3842 0.960 . S
C3856 H3843 0.960 . S
C3856 C3855 1.524 . S
C3857 C3854 1.403 . S
C3857 C3858 1.392 . S
C3857 C3861 1.495 . S
C3858 C3857 1.392 . S
C3858 C3859 1.385 . S
C3858 C3860 1.478 . S
C3859 H3853 0.930 . S
C3859 C3855 1.400 . S
C3859 C3858 1.385 . S
C3860 C3858 1.478 . S
C3860 C3862 1.381 . S
C3860 C3866 1.383 . S
C3861 C3857 1.495 . S
C3861 H3867 0.959 . S
C3861 H3868 0.961 . S
C3861 H3869 0.960 . S
C3862 C3860 1.381 . S
C3862 C3863 1.394 . S
C3862 H3870 0.930 . S
C3863 C3862 1.394 . S
C3863 C3864 1.383 . S
C3863 H3871 0.929 . S
C3864 C3863 1.383 . S
C3864 C3865 1.377 . S
C3865 H3849 0.930 . S
C3865 C3864 1.377 . S
C3865 C3866 1.379 . S
C3866 H3850 0.931 . S
C3866 C3860 1.383 . S
C3866 C3865 1.379 . S
H3867 C3861 0.959 . S
H3868 C3861 0.961 . S
H3869 C3861 0.960 . S
H3870 C3862 0.930 . S
H3871 C3863 0.929 . S
H3872 C3880 0.929 . S
H3873 C3882 0.930 . S
H3874 C3884 0.930 . S
H3875 C3887 0.929 . S
H3876 C3890 0.930 . S
H3877 C3892 0.960 . S
H3878 C3892 0.960 . S
H3879 C3892 0.960 . S
C3880 H3872 0.929 . S
C3880 C3881 1.377 1_554 S
C3880 C3882 1.384 . S
C3881 C3880 1.377 1_556 S
C3881 C3887 1.390 . S
C3882 H3873 0.930 . S
C3882 C3880 1.384 . S
C3882 C3883 1.327 1_554 S
C3883 C3882 1.327 1_556 S
C3883 C3884 1.446 . S
C3883 C3888 1.490 . S
C3884 H3874 0.930 . S
C3884 C3883 1.446 . S
C3884 C3887 1.386 . S
H3885 C3901 0.930 . S
H3886 C3902 0.931 . S
C3887 H3875 0.929 . S
C3887 C3881 1.390 . S
C3887 C3884 1.386 . S
C3888 C3883 1.490 . S
C3888 C3890 1.366 1_556 S
C3888 C3891 1.430 . S
H3889 C3895 0.930 . S
C3890 H3876 0.930 . S
C3890 C3888 1.366 1_554 S
C3890 C3893 1.403 . S
C3891 C3888 1.430 . S
C3891 C3892 1.524 . S
C3891 C3895 1.400 . S
C3892 H3877 0.960 . S
C3892 H3878 0.960 . S
C3892 H3879 0.960 . S
C3892 C3891 1.524 . S
C3893 C3890 1.403 . S
C3893 C3894 1.426 . S
C3893 C3897 1.495 . S
C3894 C3893 1.426 . S
C3894 C3895 1.351 1_554 S
C3894 C3896 1.477 . S
C3895 H3889 0.930 . S
C3895 C3891 1.400 . S
C3895 C3894 1.351 1_556 S
C3896 C3894 1.477 . S
C3896 C3898 1.389 . S
C3896 C3902 1.374 1_554 S
C3897 C3893 1.495 . S
C3897 H3903 0.959 . S
C3897 H3904 0.961 . S
C3897 H3905 0.960 . S
C3898 C3896 1.389 . S
C3898 C3899 1.394 . S
C3898 H3906 0.930 . S
C3899 C3898 1.394 . S
C3899 C3900 1.383 1_554 S
C3899 H3907 0.929 . S
C3900 C3899 1.383 1_556 S
C3900 C3901 1.377 . S
C3901 H3885 0.930 . S
C3901 C3900 1.377 . S
C3901 C3902 1.379 . S
C3902 H3886 0.931 . S
C3902 C3896 1.374 1_556 S
C3902 C3901 1.379 . S
H3903 C3897 0.959 . S
H3904 C3897 0.961 . S
H3905 C3897 0.960 . S
H3906 C3898 0.930 . S
H3907 C3899 0.929 . S
H3908 C3916 0.929 . S
H3909 C3918 0.930 . S
H3910 C3920 0.930 1_556 S
H3911 C3923 0.929 1_556 S
H3912 C3926 0.930 . S
H3913 C3928 0.960 . S
H3914 C3928 0.960 1_554 S
H3915 C3928 0.960 . S
C3916 H3908 0.929 . S
C3916 C3917 1.377 . S
C3916 C3918 1.384 . S
C3917 C3916 1.377 . S
C3917 C3923 1.390 . S
C3918 H3909 0.930 . S
C3918 C3916 1.384 . S
C3918 C3919 1.372 . S
C3919 C3918 1.372 . S
C3919 C3920 1.400 . S
C3919 C3924 1.490 . S
C3920 H3910 0.930 1_554 S
C3920 C3919 1.400 . S
C3920 C3923 1.386 . S
H3921 C3937 0.930 1_556 S
H3922 C3938 0.911 1_556 S
C3923 H3911 0.929 1_554 S
C3923 C3917 1.390 . S
C3923 C3920 1.386 . S
C3924 C3919 1.490 . S
C3924 C3926 1.395 . S
C3924 C3927 1.403 . S
H3925 C3931 0.930 . S
C3926 H3912 0.930 . S
C3926 C3924 1.395 . S
C3926 C3929 1.403 . S
C3927 C3924 1.403 . S
C3927 C3928 1.524 1_554 S
C3927 C3931 1.400 . S
C3928 H3913 0.960 . S
C3928 H3914 0.960 1_556 S
C3928 H3915 0.960 . S
C3928 C3927 1.524 1_556 S
C3929 C3926 1.403 . S
C3929 C3930 1.392 . S
C3929 C3933 1.495 . S
C3930 C3929 1.392 . S
C3930 C3931 1.385 . S
C3930 C3932 1.478 . S
C3931 H3925 0.930 . S
C3931 C3927 1.400 . S
C3931 C3930 1.385 . S
C3932 C3930 1.478 . S
C3932 C3934 1.381 . S
C3932 C3938 1.383 . S
C3933 C3929 1.495 . S
C3933 H3939 0.959 . S
C3933 H3940 0.961 . S
C3933 H3941 0.960 . S
C3934 C3932 1.381 . S
C3934 C3935 1.394 . S
C3934 H3942 0.930 . S
C3935 C3934 1.394 . S
C3935 C3936 1.383 . S
C3935 H3943 0.929 . S
C3936 C3935 1.383 . S
C3936 C3937 1.377 . S
C3937 H3921 0.930 1_554 S
C3937 C3936 1.377 . S
C3937 C3938 1.379 . S
C3938 H3922 0.911 1_554 S
C3938 C3932 1.383 . S
C3938 C3937 1.379 . S
H3939 C3933 0.959 . S
H3940 C3933 0.961 . S
H3941 C3933 0.960 . S
H3942 C3934 0.930 . S
H3943 C3935 0.929 . S
H3944 C3952 0.929 . S
H3945 C3954 0.930 . S
H3946 C3956 0.930 . S
H3947 C3959 0.929 . S
H3948 C3962 0.930 . S
H3949 C3964 0.960 . S
H3950 C3964 0.960 . S
H3951 C3964 0.960 . S
C3952 H3944 0.929 . S
C3952 C3953 1.377 . S
C3952 C3954 1.384 . S
C3953 C3952 1.377 . S
C3953 C3959 1.390 . S
C3954 H3945 0.930 . S
C3954 C3952 1.384 . S
C3954 C3955 1.372 . S
C3955 C3954 1.372 . S
C3955 C3956 1.400 . S
C3955 C3960 1.490 . S
C3956 H3946 0.930 . S
C3956 C3955 1.400 . S
C3956 C3959 1.386 . S
H3957 C3973 0.930 . S
H3958 C3974 0.931 . S
C3959 H3947 0.929 . S
C3959 C3953 1.390 . S
C3959 C3956 1.386 . S
C3960 C3955 1.490 . S
C3960 C3962 1.395 . S
C3960 C3963 1.403 . S
H3961 C3967 0.930 . S
C3962 H3948 0.930 . S
C3962 C3960 1.395 . S
C3962 C3965 1.403 . S
C3963 C3960 1.403 . S
C3963 C3964 1.524 . S
C3963 C3967 1.400 . S
C3964 H3949 0.960 . S
C3964 H3950 0.960 . S
C3964 H3951 0.960 . S
C3964 C3963 1.524 . S
C3965 C3962 1.403 . S
C3965 C3966 1.392 . S
C3965 C3969 1.495 . S
C3966 C3965 1.392 . S
C3966 C3967 1.385 . S
C3966 C3968 1.478 . S
C3967 H3961 0.930 . S
C3967 C3963 1.400 . S
C3967 C3966 1.385 . S
C3968 C3966 1.478 . S
C3968 C3970 1.381 . S
C3968 C3974 1.383 . S
C3969 C3965 1.495 . S
C3969 H3975 0.959 . S
C3969 H3976 0.961 . S
C3969 H3977 0.960 . S
C3970 C3968 1.381 . S
C3970 C3971 1.394 . S
C3970 H3978 0.930 . S
C3971 C3970 1.394 . S
C3971 C3972 1.383 . S
C3971 H3979 0.929 . S
C3972 C3971 1.383 . S
C3972 C3973 1.377 . S
C3973 H3957 0.930 . S
C3973 C3972 1.377 . S
C3973 C3974 1.379 . S
C3974 H3958 0.931 . S
C3974 C3968 1.383 . S
C3974 C3973 1.379 . S
H3975 C3969 0.959 . S
H3976 C3969 0.961 . S
H3977 C3969 0.960 . S
H3978 C3970 0.930 . S
H3979 C3971 0.929 . S
H3980 C3988 0.929 . S
H3981 C3990 0.930 . S
H3982 C3992 0.930 . S
H3983 C3995 0.929 . S
H3984 C3998 0.930 . S
H3985 C4000 0.960 . S
H3986 C4000 0.960 . S
H3987 C4000 0.960 . S
C3988 H3980 0.929 . S
C3988 C3989 1.377 . S
C3988 C3990 1.384 . S
C3989 C3988 1.377 . S
C3989 C3995 1.390 . S
C3990 H3981 0.930 . S
C3990 C3988 1.384 . S
C3990 C3991 1.372 . S
C3991 C3990 1.372 . S
C3991 C3992 1.400 . S
C3991 C3996 1.490 . S
C3992 H3982 0.930 . S
C3992 C3991 1.400 . S
C3992 C3995 1.386 . S
H3993 C4009 0.930 . S
H3994 C4010 0.931 . S
C3995 H3983 0.929 . S
C3995 C3989 1.390 . S
C3995 C3992 1.386 . S
C3996 C3991 1.490 . S
C3996 C3998 1.395 . S
C3996 C3999 1.403 . S
H3997 C4003 0.930 . S
C3998 H3984 0.930 . S
C3998 C3996 1.395 . S
C3998 C4001 1.403 . S
C3999 C3996 1.403 . S
C3999 C4000 1.524 . S
C3999 C4003 1.400 . S
C4000 H3985 0.960 . S
C4000 H3986 0.960 . S
C4000 H3987 0.960 . S
C4000 C3999 1.524 . S
C4001 C3998 1.403 . S
C4001 C4002 1.392 . S
C4001 C4005 1.495 . S
C4002 C4001 1.392 . S
C4002 C4003 1.385 . S
C4002 C4004 1.478 . S
C4003 H3997 0.930 . S
C4003 C3999 1.400 . S
C4003 C4002 1.385 . S
C4004 C4002 1.478 . S
C4004 C4006 1.381 . S
C4004 C4010 1.383 . S
C4005 C4001 1.495 . S
C4005 H4011 0.959 . S
C4005 H4012 0.961 . S
C4005 H4013 0.960 . S
C4006 C4004 1.381 . S
C4006 C4007 1.394 . S
C4006 H4014 0.930 . S
C4007 C4006 1.394 . S
C4007 C4008 1.383 . S
C4007 H4015 0.929 . S
C4008 C4007 1.383 . S
C4008 C4009 1.377 . S
C4009 H3993 0.930 . S
C4009 C4008 1.377 . S
C4009 C4010 1.379 . S
C4010 H3994 0.931 . S
C4010 C4004 1.383 . S
C4010 C4009 1.379 . S
H4011 C4005 0.959 . S
H4012 C4005 0.961 . S
H4013 C4005 0.960 . S
H4014 C4006 0.930 . S
H4015 C4007 0.929 . S
H4016 C4024 0.929 . S
H4017 C4026 0.930 . S
H4018 C4028 0.930 . S
H4019 C4031 0.929 . S
H4020 C4034 0.930 . S
H4021 C4036 0.960 . S
H4022 C4036 0.960 . S
H4023 C4036 0.960 . S
C4024 H4016 0.929 . S
C4024 C4025 1.377 . S
C4024 C4026 1.384 . S
C4025 C4024 1.377 . S
C4025 C4031 1.390 . S
C4026 H4017 0.930 . S
C4026 C4024 1.384 . S
C4026 C4027 1.372 . S
C4027 C4026 1.372 . S
C4027 C4028 1.400 . S
C4027 C4032 1.490 . S
C4028 H4018 0.930 . S
C4028 C4027 1.400 . S
C4028 C4031 1.386 . S
H4029 C4045 0.930 . S
H4030 C4046 0.931 . S
C4031 H4019 0.929 . S
C4031 C4025 1.390 . S
C4031 C4028 1.386 . S
C4032 C4027 1.490 . S
C4032 C4034 1.395 . S
C4032 C4035 1.403 . S
H4033 C4039 0.930 . S
C4034 H4020 0.930 . S
C4034 C4032 1.395 . S
C4034 C4037 1.403 . S
C4035 C4032 1.403 . S
C4035 C4036 1.524 . S
C4035 C4039 1.400 . S
C4036 H4021 0.960 . S
C4036 H4022 0.960 . S
C4036 H4023 0.960 . S
C4036 C4035 1.524 . S
C4037 C4034 1.403 . S
C4037 C4038 1.392 . S
C4037 C4041 1.495 . S
C4038 C4037 1.392 . S
C4038 C4039 1.385 . S
C4038 C4040 1.478 . S
C4039 H4033 0.930 . S
C4039 C4035 1.400 . S
C4039 C4038 1.385 . S
C4040 C4038 1.478 . S
C4040 C4042 1.381 . S
C4040 C4046 1.383 . S
C4041 C4037 1.495 . S
C4041 H4047 0.959 . S
C4041 H4048 0.961 . S
C4041 H4049 0.960 . S
C4042 C4040 1.381 . S
C4042 C4043 1.394 . S
C4042 H4050 0.930 . S
C4043 C4042 1.394 . S
C4043 C4044 1.383 . S
C4043 H4051 0.929 . S
C4044 C4043 1.383 . S
C4044 C4045 1.377 . S
C4045 H4029 0.930 . S
C4045 C4044 1.377 . S
C4045 C4046 1.379 . S
C4046 H4030 0.931 . S
C4046 C4040 1.383 . S
C4046 C4045 1.379 . S
H4047 C4041 0.959 . S
H4048 C4041 0.961 . S
H4049 C4041 0.960 . S
H4050 C4042 0.930 . S
H4051 C4043 0.929 . S
H4052 C4060 0.929 . S
H4053 C4062 0.930 . S
H4054 C4064 0.930 . S
H4055 C4067 0.929 . S
H4056 C4070 0.930 . S
H4057 C4072 0.960 . S
H4058 C4072 0.960 . S
H4059 C4072 0.960 . S
C4060 H4052 0.929 . S
C4060 C4061 1.377 . S
C4060 C4062 1.384 . S
C4061 C4060 1.377 . S
C4061 C4067 1.390 . S
C4062 H4053 0.930 . S
C4062 C4060 1.384 . S
C4062 C4063 1.372 . S
C4063 C4062 1.372 . S
C4063 C4064 1.400 . S
C4063 C4068 1.490 . S
C4064 H4054 0.930 . S
C4064 C4063 1.400 . S
C4064 C4067 1.386 . S
H4065 C4081 0.930 . S
H4066 C4082 0.931 . S
C4067 H4055 0.929 . S
C4067 C4061 1.390 . S
C4067 C4064 1.386 . S
C4068 C4063 1.490 . S
C4068 C4070 1.395 . S
C4068 C4071 1.403 . S
H4069 C4075 0.930 . S
C4070 H4056 0.930 . S
C4070 C4068 1.395 . S
C4070 C4073 1.403 . S
C4071 C4068 1.403 . S
C4071 C4072 1.524 . S
C4071 C4075 1.400 . S
C4072 H4057 0.960 . S
C4072 H4058 0.960 . S
C4072 H4059 0.960 . S
C4072 C4071 1.524 . S
C4073 C4070 1.403 . S
C4073 C4074 1.392 . S
C4073 C4077 1.495 . S
C4074 C4073 1.392 . S
C4074 C4075 1.385 . S
C4074 C4076 1.478 . S
C4075 H4069 0.930 . S
C4075 C4071 1.400 . S
C4075 C4074 1.385 . S
C4076 C4074 1.478 . S
C4076 C4078 1.381 . S
C4076 C4082 1.383 . S
C4077 C4073 1.495 . S
C4077 H4083 0.958 1_565 S
C4077 H4084 0.961 . S
C4077 H4085 0.960 1_565 S
C4078 C4076 1.381 . S
C4078 C4079 1.394 1_565 S
C4078 H4086 0.930 . S
C4079 C4078 1.394 1_545 S
C4079 C4080 1.383 1_545 S
C4079 H4087 0.929 . S
C4080 C4079 1.383 1_565 S
C4080 C4081 1.377 . S
C4081 H4065 0.930 . S
C4081 C4080 1.377 . S
C4081 C4082 1.379 . S
C4082 H4066 0.931 . S
C4082 C4076 1.383 . S
C4082 C4081 1.379 . S
H4083 C4077 0.958 1_545 S
H4084 C4077 0.961 . S
H4085 C4077 0.960 1_545 S
H4086 C4078 0.930 . S
H4087 C4079 0.929 . S
H4088 C4096 0.929 . S
H4089 C4098 0.930 . S
H4090 C4100 0.930 . S
H4091 C4103 0.929 . S
H4092 C4106 0.930 . S
H4093 C4108 0.960 . S
H4094 C4108 0.960 . S
H4095 C4108 0.960 . S
C4096 H4088 0.929 . S
C4096 C4097 1.377 . S
C4096 C4098 1.384 . S
C4097 C4096 1.377 . S
C4097 C4103 1.390 . S
C4098 H4089 0.930 . S
C4098 C4096 1.384 . S
C4098 C4099 1.372 . S
C4099 C4098 1.372 . S
C4099 C4100 1.400 . S
C4099 C4104 1.490 . S
C4100 H4090 0.930 . S
C4100 C4099 1.400 . S
C4100 C4103 1.386 . S
H4101 C4117 0.930 . S
H4102 C4118 0.931 . S
C4103 H4091 0.929 . S
C4103 C4097 1.390 . S
C4103 C4100 1.386 . S
C4104 C4099 1.490 . S
C4104 C4106 1.395 . S
C4104 C4107 1.403 . S
H4105 C4111 0.930 . S
C4106 H4092 0.930 . S
C4106 C4104 1.395 . S
C4106 C4109 1.403 . S
C4107 C4104 1.403 . S
C4107 C4108 1.524 . S
C4107 C4111 1.400 . S
C4108 H4093 0.960 . S
C4108 H4094 0.960 . S
C4108 H4095 0.960 . S
C4108 C4107 1.524 . S
C4109 C4106 1.403 . S
C4109 C4110 1.392 . S
C4109 C4113 1.495 . S
C4110 C4109 1.392 . S
C4110 C4111 1.385 . S
C4110 C4112 1.478 . S
C4111 H4105 0.930 . S
C4111 C4107 1.400 . S
C4111 C4110 1.385 . S
C4112 C4110 1.478 . S
C4112 C4114 1.381 . S
C4112 C4118 1.383 . S
C4113 C4109 1.495 . S
C4113 H4119 0.959 . S
C4113 H4120 0.961 . S
C4113 H4121 0.960 . S
C4114 C4112 1.381 . S
C4114 C4115 1.394 . S
C4114 H4122 0.930 . S
C4115 C4114 1.394 . S
C4115 C4116 1.383 . S
C4115 H4123 0.929 . S
C4116 C4115 1.383 . S
C4116 C4117 1.377 . S
C4117 H4101 0.930 . S
C4117 C4116 1.377 . S
C4117 C4118 1.379 . S
C4118 H4102 0.931 . S
C4118 C4112 1.383 . S
C4118 C4117 1.379 . S
H4119 C4113 0.959 . S
H4120 C4113 0.961 . S
H4121 C4113 0.960 . S
H4122 C4114 0.930 . S
H4123 C4115 0.929 . S
H4124 C4132 0.929 . S
H4125 C4134 0.930 . S
H4126 C4136 0.930 . S
H4127 C4139 0.929 . S
H4128 C4142 0.930 . S
H4129 C4144 0.960 . S
H4130 C4144 0.960 . S
H4131 C4144 0.960 . S
C4132 H4124 0.929 . S
C4132 C4133 1.377 . S
C4132 C4134 1.384 . S
C4133 C4132 1.377 . S
C4133 C4139 1.390 . S
C4134 H4125 0.930 . S
C4134 C4132 1.384 . S
C4134 C4135 1.372 . S
C4135 C4134 1.372 . S
C4135 C4136 1.400 . S
C4135 C4140 1.490 . S
C4136 H4126 0.930 . S
C4136 C4135 1.400 . S
C4136 C4139 1.386 . S
H4137 C4153 0.930 . S
H4138 C4154 0.931 . S
C4139 H4127 0.929 . S
C4139 C4133 1.390 . S
C4139 C4136 1.386 . S
C4140 C4135 1.490 . S
C4140 C4142 1.395 . S
C4140 C4143 1.403 . S
H4141 C4147 0.930 . S
C4142 H4128 0.930 . S
C4142 C4140 1.395 . S
C4142 C4145 1.403 . S
C4143 C4140 1.403 . S
C4143 C4144 1.524 . S
C4143 C4147 1.400 . S
C4144 H4129 0.960 . S
C4144 H4130 0.960 . S
C4144 H4131 0.960 . S
C4144 C4143 1.524 . S
C4145 C4142 1.403 . S
C4145 C4146 1.392 . S
C4145 C4149 1.495 . S
C4146 C4145 1.392 . S
C4146 C4147 1.385 . S
C4146 C4148 1.478 . S
C4147 H4141 0.930 . S
C4147 C4143 1.400 . S
C4147 C4146 1.385 . S
C4148 C4146 1.478 . S
C4148 C4150 1.381 . S
C4148 C4154 1.383 . S
C4149 C4145 1.495 . S
C4149 H4155 0.959 . S
C4149 H4156 0.961 . S
C4149 H4157 0.960 . S
C4150 C4148 1.381 . S
C4150 C4151 1.394 . S
C4150 H4158 0.930 . S
C4151 C4150 1.394 . S
C4151 C4152 1.383 . S
C4151 H4159 0.929 . S
C4152 C4151 1.383 . S
C4152 C4153 1.377 . S
C4153 H4137 0.930 . S
C4153 C4152 1.377 . S
C4153 C4154 1.379 . S
C4154 H4138 0.931 . S
C4154 C4148 1.383 . S
C4154 C4153 1.379 . S
H4155 C4149 0.959 . S
H4156 C4149 0.961 . S
H4157 C4149 0.960 . S
H4158 C4150 0.930 . S
H4159 C4151 0.929 . S
H4160 C4168 0.929 . S
H4161 C4170 0.930 . S
H4162 C4172 0.930 . S
H4163 C4175 0.929 . S
H4164 C4178 0.930 . S
H4165 C4180 0.960 . S
H4166 C4180 0.960 . S
H4167 C4180 0.960 . S
C4168 H4160 0.929 . S
C4168 C4169 1.377 . S
C4168 C4170 1.384 . S
C4169 C4168 1.377 . S
C4169 C4175 1.390 . S
C4170 H4161 0.930 . S
C4170 C4168 1.384 . S
C4170 C4171 1.372 . S
C4171 C4170 1.372 . S
C4171 C4172 1.400 . S
C4171 C4176 1.490 . S
C4172 H4162 0.930 . S
C4172 C4171 1.400 . S
C4172 C4175 1.386 . S
H4173 C4189 0.930 . S
H4174 C4190 0.931 . S
C4175 H4163 0.929 . S
C4175 C4169 1.390 . S
C4175 C4172 1.386 . S
C4176 C4171 1.490 . S
C4176 C4178 1.395 . S
C4176 C4179 1.403 . S
H4177 C4183 0.930 . S
C4178 H4164 0.930 . S
C4178 C4176 1.395 . S
C4178 C4181 1.403 . S
C4179 C4176 1.403 . S
C4179 C4180 1.524 . S
C4179 C4183 1.400 . S
C4180 H4165 0.960 . S
C4180 H4166 0.960 . S
C4180 H4167 0.960 . S
C4180 C4179 1.524 . S
C4181 C4178 1.403 . S
C4181 C4182 1.392 . S
C4181 C4185 1.495 . S
C4182 C4181 1.392 . S
C4182 C4183 1.385 . S
C4182 C4184 1.478 . S
C4183 H4177 0.930 . S
C4183 C4179 1.400 . S
C4183 C4182 1.385 . S
C4184 C4182 1.478 . S
C4184 C4186 1.381 . S
C4184 C4190 1.383 . S
C4185 C4181 1.495 . S
C4185 H4191 0.959 . S
C4185 H4192 0.961 . S
C4185 H4193 0.960 . S
C4186 C4184 1.381 . S
C4186 C4187 1.394 . S
C4186 H4194 0.930 . S
C4187 C4186 1.394 . S
C4187 C4188 1.383 . S
C4187 H4195 0.929 . S
C4188 C4187 1.383 . S
C4188 C4189 1.377 . S
C4189 H4173 0.930 . S
C4189 C4188 1.377 . S
C4189 C4190 1.379 . S
C4190 H4174 0.931 . S
C4190 C4184 1.383 . S
C4190 C4189 1.379 . S
H4191 C4185 0.959 . S
H4192 C4185 0.961 . S
H4193 C4185 0.960 . S
H4194 C4186 0.930 . S
H4195 C4187 0.929 . S
H4196 C4204 0.929 . S
H4197 C4206 0.930 . S
H4198 C4208 0.930 . S
H4199 C4211 0.929 . S
H4200 C4214 0.930 . S
H4201 C4216 0.960 . S
H4202 C4216 0.960 . S
H4203 C4216 0.960 . S
C4204 H4196 0.929 . S
C4204 C4205 1.377 . S
C4204 C4206 1.384 . S
C4205 C4204 1.377 . S
C4205 C4211 1.390 . S
C4206 H4197 0.930 . S
C4206 C4204 1.384 . S
C4206 C4207 1.372 . S
C4207 C4206 1.372 . S
C4207 C4208 1.400 . S
C4207 C4212 1.490 . S
C4208 H4198 0.930 . S
C4208 C4207 1.400 . S
C4208 C4211 1.386 . S
H4209 C4225 0.930 . S
H4210 C4226 0.931 . S
C4211 H4199 0.929 . S
C4211 C4205 1.390 . S
C4211 C4208 1.386 . S
C4212 C4207 1.490 . S
C4212 C4214 1.395 . S
C4212 C4215 1.403 . S
H4213 C4219 0.930 . S
C4214 H4200 0.930 . S
C4214 C4212 1.395 . S
C4214 C4217 1.403 . S
C4215 C4212 1.403 . S
C4215 C4216 1.524 . S
C4215 C4219 1.400 . S
C4216 H4201 0.960 . S
C4216 H4202 0.960 . S
C4216 H4203 0.960 . S
C4216 C4215 1.524 . S
C4217 C4214 1.403 . S
C4217 C4218 1.392 . S
C4217 C4221 1.495 . S
C4218 C4217 1.392 . S
C4218 C4219 1.385 . S
C4218 C4220 1.478 . S
C4219 H4213 0.930 . S
C4219 C4215 1.400 . S
C4219 C4218 1.385 . S
C4220 C4218 1.478 . S
C4220 C4222 1.381 . S
C4220 C4226 1.383 . S
C4221 C4217 1.495 . S
C4221 H4227 0.959 . S
C4221 H4228 0.961 . S
C4221 H4229 0.960 . S
C4222 C4220 1.381 . S
C4222 C4223 1.394 . S
C4222 H4230 0.930 . S
C4223 C4222 1.394 . S
C4223 C4224 1.383 . S
C4223 H4231 0.929 . S
C4224 C4223 1.383 . S
C4224 C4225 1.377 . S
C4225 H4209 0.930 . S
C4225 C4224 1.377 . S
C4225 C4226 1.379 . S
C4226 H4210 0.931 . S
C4226 C4220 1.383 . S
C4226 C4225 1.379 . S
H4227 C4221 0.959 . S
H4228 C4221 0.961 . S
H4229 C4221 0.960 . S
H4230 C4222 0.930 . S
H4231 C4223 0.929 . S
H4232 C4240 0.929 . S
H4233 C4242 0.930 . S
H4234 C4244 0.930 . S
H4235 C4247 0.929 . S
H4236 C4250 0.967 . S
H4237 C4252 0.960 . S
H4238 C4252 0.960 . S
H4239 C4252 0.960 . S
C4240 H4232 0.929 . S
C4240 C4241 1.377 1_655 S
C4240 C4242 1.384 . S
C4241 C4240 1.377 1_455 S
C4241 C4247 1.390 . S
C4242 H4233 0.930 . S
C4242 C4240 1.384 . S
C4242 C4243 1.372 1_655 S
C4243 C4242 1.372 1_455 S
C4243 C4244 1.400 . S
C4243 C4248 1.490 . S
C4244 H4234 0.930 . S
C4244 C4243 1.400 . S
C4244 C4247 1.386 . S
H4245 C4261 0.930 . S
H4246 C4262 0.946 . S
C4247 H4235 0.929 . S
C4247 C4241 1.390 . S
C4247 C4244 1.386 . S
C4248 C4243 1.490 . S
C4248 C4250 1.395 . S
C4248 C4251 1.403 . S
H4249 C4255 0.930 . S
C4250 H4236 0.967 . S
C4250 C4248 1.395 . S
C4250 C4253 1.391 1_556 S
C4251 C4248 1.403 . S
C4251 C4252 1.524 . S
C4251 C4255 1.400 . S
C4252 H4237 0.960 . S
C4252 H4238 0.960 . S
C4252 H4239 0.960 . S
C4252 C4251 1.524 . S
C4253 C4250 1.391 1_554 S
C4253 C4254 1.370 1_554 S
C4253 C4257 1.529 . S
C4254 C4253 1.370 1_556 S
C4254 C4255 1.385 . S
C4254 C4256 1.478 . S
C4255 H4249 0.930 . S
C4255 C4251 1.400 . S
C4255 C4254 1.385 . S
C4256 C4254 1.478 . S
C4256 C4258 1.381 1_456 S
C4256 C4262 1.383 . S
C4257 C4253 1.529 . S
C4257 H4263 0.959 1_455 S
C4257 H4264 0.958 . S
C4257 H4265 0.963 1_455 S
C4258 C4256 1.381 1_654 S
C4258 C4259 1.394 . S
C4258 H4266 0.930 . S
C4259 C4258 1.394 . S
C4259 C4260 1.383 1_655 S
C4259 H4267 0.929 . S
C4260 C4259 1.383 1_455 S
C4260 C4261 1.377 . S
C4261 H4245 0.930 . S
C4261 C4260 1.377 . S
C4261 C4262 1.369 1_554 S
C4262 H4246 0.946 . S
C4262 C4256 1.383 . S
C4262 C4261 1.369 1_556 S
H4263 C4257 0.959 1_655 S
H4264 C4257 0.958 . S
H4265 C4257 0.963 1_655 S
H4266 C4258 0.930 . S
H4267 C4259 0.929 . S
H4268 C4276 0.929 . S
H4269 C4278 0.930 . S
H4270 C4280 0.930 . S
H4271 C4283 0.929 . S
H4272 C4286 0.930 . S
H4273 C4288 0.960 . S
H4274 C4288 0.960 . S
H4275 C4288 0.960 . S
C4276 H4268 0.929 . S
C4276 C4277 1.377 . S
C4276 C4278 1.384 . S
C4277 C4276 1.377 . S
C4277 C4283 1.390 . S
C4278 H4269 0.930 . S
C4278 C4276 1.384 . S
C4278 C4279 1.372 . S
C4279 C4278 1.372 . S
C4279 C4280 1.400 . S
C4279 C4284 1.490 . S
C4280 H4270 0.930 . S
C4280 C4279 1.400 . S
C4280 C4283 1.386 . S
H4281 C4297 0.930 . S
H4282 C4298 0.931 . S
C4283 H4271 0.929 . S
C4283 C4277 1.390 . S
C4283 C4280 1.386 . S
C4284 C4279 1.490 . S
C4284 C4286 1.395 . S
C4284 C4287 1.403 . S
H4285 C4291 0.930 . S
C4286 H4272 0.930 . S
C4286 C4284 1.395 . S
C4286 C4289 1.403 . S
C4287 C4284 1.403 . S
C4287 C4288 1.524 . S
C4287 C4291 1.400 . S
C4288 H4273 0.960 . S
C4288 H4274 0.960 . S
C4288 H4275 0.960 . S
C4288 C4287 1.524 . S
C4289 C4286 1.403 . S
C4289 C4290 1.392 . S
C4289 C4293 1.495 . S
C4290 C4289 1.392 . S
C4290 C4291 1.385 . S
C4290 C4292 1.478 . S
C4291 H4285 0.930 . S
C4291 C4287 1.400 . S
C4291 C4290 1.385 . S
C4292 C4290 1.478 . S
C4292 C4294 1.381 . S
C4292 C4298 1.383 . S
C4293 C4289 1.495 . S
C4293 H4299 0.959 . S
C4293 H4300 0.961 . S
C4293 H4301 0.960 . S
C4294 C4292 1.381 . S
C4294 C4295 1.394 . S
C4294 H4302 0.930 . S
C4295 C4294 1.394 . S
C4295 C4296 1.383 . S
C4295 H4303 0.929 . S
C4296 C4295 1.383 . S
C4296 C4297 1.377 . S
C4297 H4281 0.930 . S
C4297 C4296 1.377 . S
C4297 C4298 1.379 . S
C4298 H4282 0.931 . S
C4298 C4292 1.383 . S
C4298 C4297 1.379 . S
H4299 C4293 0.959 . S
H4300 C4293 0.961 . S
H4301 C4293 0.960 . S
H4302 C4294 0.930 . S
H4303 C4295 0.929 . S
H4304 C4312 0.929 . S
H4305 C4314 0.930 . S
H4306 C4316 0.930 . S
H4307 C4319 0.929 . S
H4308 C4322 0.930 . S
H4309 C4324 0.960 . S
H4310 C4324 0.960 . S
H4311 C4324 0.960 . S
C4312 H4304 0.929 . S
C4312 C4313 1.377 . S
C4312 C4314 1.384 . S
C4313 C4312 1.377 . S
C4313 C4319 1.390 . S
C4314 H4305 0.930 . S
C4314 C4312 1.384 . S
C4314 C4315 1.372 . S
C4315 C4314 1.372 . S
C4315 C4316 1.400 . S
C4315 C4320 1.490 . S
C4316 H4306 0.930 . S
C4316 C4315 1.400 . S
C4316 C4319 1.386 . S
H4317 C4333 0.930 . S
H4318 C4334 0.931 . S
C4319 H4307 0.929 . S
C4319 C4313 1.390 . S
C4319 C4316 1.386 . S
C4320 C4315 1.490 . S
C4320 C4322 1.395 . S
C4320 C4323 1.403 . S
H4321 C4327 0.930 . S
C4322 H4308 0.930 . S
C4322 C4320 1.395 . S
C4322 C4325 1.403 . S
C4323 C4320 1.403 . S
C4323 C4324 1.524 . S
C4323 C4327 1.400 . S
C4324 H4309 0.960 . S
C4324 H4310 0.960 . S
C4324 H4311 0.960 . S
C4324 C4323 1.524 . S
C4325 C4322 1.403 . S
C4325 C4326 1.392 . S
C4325 C4329 1.495 . S
C4326 C4325 1.392 . S
C4326 C4327 1.385 . S
C4326 C4328 1.478 . S
C4327 H4321 0.930 . S
C4327 C4323 1.400 . S
C4327 C4326 1.385 . S
C4328 C4326 1.478 . S
C4328 C4330 1.381 . S
C4328 C4334 1.383 . S
C4329 C4325 1.495 . S
C4329 H4335 0.959 . S
C4329 H4336 0.961 . S
C4329 H4337 0.960 . S
C4330 C4328 1.381 . S
C4330 C4331 1.394 . S
C4330 H4338 0.930 . S
C4331 C4330 1.394 . S
C4331 C4332 1.383 . S
C4331 H4339 0.929 . S
C4332 C4331 1.383 . S
C4332 C4333 1.377 . S
C4333 H4317 0.930 . S
C4333 C4332 1.377 . S
C4333 C4334 1.379 . S
C4334 H4318 0.931 . S
C4334 C4328 1.383 . S
C4334 C4333 1.379 . S
H4335 C4329 0.959 . S
H4336 C4329 0.961 . S
H4337 C4329 0.960 . S
H4338 C4330 0.930 . S
H4339 C4331 0.929 . S
H4340 C4348 0.929 . S
H4341 C4350 0.930 . S
H4342 C4352 0.930 . S
H4343 C4355 0.929 . S
H4344 C4358 0.930 . S
H4345 C4360 0.960 . S
H4346 C4360 0.960 . S
H4347 C4360 0.960 . S
C4348 H4340 0.929 . S
C4348 C4349 1.377 . S
C4348 C4350 1.384 . S
C4349 C4348 1.377 . S
C4349 C4355 1.390 . S
C4350 H4341 0.930 . S
C4350 C4348 1.384 . S
C4350 C4351 1.372 . S
C4351 C4350 1.372 . S
C4351 C4352 1.400 . S
C4351 C4356 1.490 . S
C4352 H4342 0.930 . S
C4352 C4351 1.400 . S
C4352 C4355 1.386 . S
H4353 C4369 0.930 . S
H4354 C4370 0.931 . S
C4355 H4343 0.929 . S
C4355 C4349 1.390 . S
C4355 C4352 1.386 . S
C4356 C4351 1.490 . S
C4356 C4358 1.395 . S
C4356 C4359 1.403 . S
H4357 C4363 0.930 . S
C4358 H4344 0.930 . S
C4358 C4356 1.395 . S
C4358 C4361 1.403 . S
C4359 C4356 1.403 . S
C4359 C4360 1.524 . S
C4359 C4363 1.400 . S
C4360 H4345 0.960 . S
C4360 H4346 0.960 . S
C4360 H4347 0.960 . S
C4360 C4359 1.524 . S
C4361 C4358 1.403 . S
C4361 C4362 1.392 . S
C4361 C4365 1.495 . S
C4362 C4361 1.392 . S
C4362 C4363 1.385 . S
C4362 C4364 1.478 . S
C4363 H4357 0.930 . S
C4363 C4359 1.400 . S
C4363 C4362 1.385 . S
C4364 C4362 1.478 . S
C4364 C4366 1.381 . S
C4364 C4370 1.383 . S
C4365 C4361 1.495 . S
C4365 H4371 0.959 . S
C4365 H4372 0.961 . S
C4365 H4373 0.960 . S
C4366 C4364 1.381 . S
C4366 C4367 1.394 . S
C4366 H4374 0.930 . S
C4367 C4366 1.394 . S
C4367 C4368 1.383 . S
C4367 H4375 0.929 . S
C4368 C4367 1.383 . S
C4368 C4369 1.377 . S
C4369 H4353 0.930 . S
C4369 C4368 1.377 . S
C4369 C4370 1.379 . S
C4370 H4354 0.931 . S
C4370 C4364 1.383 . S
C4370 C4369 1.379 . S
H4371 C4365 0.959 . S
H4372 C4365 0.961 . S
H4373 C4365 0.960 . S
H4374 C4366 0.930 . S
H4375 C4367 0.929 . S
H4376 C4384 0.929 . S
H4377 C4386 0.930 . S
H4378 C4388 0.930 . S
H4379 C4391 0.929 . S
H4380 C4394 0.930 . S
H4381 C4396 0.960 . S
H4382 C4396 0.960 . S
H4383 C4396 0.960 . S
C4384 H4376 0.929 . S
C4384 C4385 1.372 . S
C4384 C4386 1.384 . S
C4385 C4384 1.372 . S
C4385 C4391 1.394 1_455 S
C4386 H4377 0.930 . S
C4386 C4384 1.384 . S
C4386 C4387 1.372 . S
C4387 C4386 1.372 . S
C4387 C4388 1.400 1_455 S
C4387 C4392 1.490 . S
C4388 H4378 0.930 . S
C4388 C4387 1.400 1_655 S
C4388 C4391 1.386 . S
H4389 C4405 0.930 . S
H4390 C4406 0.931 . S
C4391 H4379 0.929 . S
C4391 C4385 1.394 1_655 S
C4391 C4388 1.386 . S
C4392 C4387 1.490 . S
C4392 C4394 1.395 . S
C4392 C4395 1.403 1_455 S
H4393 C4399 0.930 . S
C4394 H4380 0.930 . S
C4394 C4392 1.395 . S
C4394 C4397 1.403 . S
C4395 C4392 1.403 1_655 S
C4395 C4396 1.524 . S
C4395 C4399 1.400 . S
C4396 H4381 0.960 . S
C4396 H4382 0.960 . S
C4396 H4383 0.960 . S
C4396 C4395 1.524 . S
C4397 C4394 1.403 . S
C4397 C4398 1.392 . S
C4397 C4401 1.495 . S
C4398 C4397 1.392 . S
C4398 C4399 1.385 1_455 S
C4398 C4400 1.478 . S
C4399 H4393 0.930 . S
C4399 C4395 1.400 . S
C4399 C4398 1.385 1_655 S
C4400 C4398 1.478 . S
C4400 C4402 1.381 . S
C4400 C4406 1.383 1_455 S
C4401 C4397 1.495 . S
C4401 H4407 0.959 . S
C4401 H4408 0.961 . S
C4401 H4409 0.960 . S
C4402 C4400 1.381 . S
C4402 C4403 1.394 . S
C4402 H4410 0.930 . S
C4403 C4402 1.394 . S
C4403 C4404 1.383 . S
C4403 H4411 0.929 . S
C4404 C4403 1.383 . S
C4404 C4405 1.377 1_455 S
C4405 H4389 0.930 . S
C4405 C4404 1.377 1_655 S
C4405 C4406 1.379 . S
C4406 H4390 0.931 . S
C4406 C4400 1.383 1_655 S
C4406 C4405 1.379 . S
H4407 C4401 0.959 . S
H4408 C4401 0.961 . S
H4409 C4401 0.960 . S
H4410 C4402 0.930 . S
H4411 C4403 0.929 . S
H4412 C4420 0.929 . S
H4413 C4422 0.930 . S
H4414 C4424 0.930 . S
H4415 C4427 0.929 . S
H4416 C4430 0.930 . S
H4417 C4432 0.960 . S
H4418 C4432 0.960 . S
H4419 C4432 0.960 . S
C4420 H4412 0.929 . S
C4420 C4421 1.377 . S
C4420 C4422 1.384 . S
C4421 C4420 1.377 . S
C4421 C4427 1.390 . S
C4422 H4413 0.930 . S
C4422 C4420 1.384 . S
C4422 C4423 1.372 . S
C4423 C4422 1.372 . S
C4423 C4424 1.400 . S
C4423 C4428 1.490 . S
C4424 H4414 0.930 . S
C4424 C4423 1.400 . S
C4424 C4427 1.386 . S
H4425 C4441 0.930 . S
H4426 C4442 0.931 . S
C4427 H4415 0.929 . S
C4427 C4421 1.390 . S
C4427 C4424 1.386 . S
C4428 C4423 1.490 . S
C4428 C4430 1.395 . S
C4428 C4431 1.403 . S
H4429 C4435 0.930 . S
C4430 H4416 0.930 . S
C4430 C4428 1.395 . S
C4430 C4433 1.403 . S
C4431 C4428 1.403 . S
C4431 C4432 1.524 . S
C4431 C4435 1.400 . S
C4432 H4417 0.960 . S
C4432 H4418 0.960 . S
C4432 H4419 0.960 . S
C4432 C4431 1.524 . S
C4433 C4430 1.403 . S
C4433 C4434 1.392 . S
C4433 C4437 1.495 . S
C4434 C4433 1.392 . S
C4434 C4435 1.385 . S
C4434 C4436 1.478 . S
C4435 H4429 0.930 . S
C4435 C4431 1.400 . S
C4435 C4434 1.385 . S
C4436 C4434 1.478 . S
C4436 C4438 1.381 . S
C4436 C4442 1.383 . S
C4437 C4433 1.495 . S
C4437 H4443 0.959 . S
C4437 H4444 0.961 . S
C4437 H4445 0.960 . S
C4438 C4436 1.381 . S
C4438 C4439 1.394 . S
C4438 H4446 0.930 . S
C4439 C4438 1.394 . S
C4439 C4440 1.383 . S
C4439 H4447 0.929 . S
C4440 C4439 1.383 . S
C4440 C4441 1.377 . S
C4441 H4425 0.930 . S
C4441 C4440 1.377 . S
C4441 C4442 1.379 . S
C4442 H4426 0.931 . S
C4442 C4436 1.383 . S
C4442 C4441 1.379 . S
H4443 C4437 0.959 . S
H4444 C4437 0.961 . S
H4445 C4437 0.960 . S
H4446 C4438 0.930 . S
H4447 C4439 0.929 . S
H4448 C4456 0.929 . S
H4449 C4458 0.930 . S
H4450 C4460 0.930 . S
H4451 C4463 0.929 . S
H4452 C4466 0.930 . S
H4453 C4468 0.960 . S
H4454 C4468 0.960 . S
H4455 C4468 0.960 . S
C4456 H4448 0.929 . S
C4456 C4457 1.377 . S
C4456 C4458 1.384 . S
C4457 C4456 1.377 . S
C4457 C4463 1.390 . S
C4458 H4449 0.930 . S
C4458 C4456 1.384 . S
C4458 C4459 1.372 . S
C4459 C4458 1.372 . S
C4459 C4460 1.400 . S
C4459 C4464 1.490 . S
C4460 H4450 0.930 . S
C4460 C4459 1.400 . S
C4460 C4463 1.386 . S
H4461 C4477 0.930 . S
H4462 C4478 0.931 . S
C4463 H4451 0.929 . S
C4463 C4457 1.390 . S
C4463 C4460 1.386 . S
C4464 C4459 1.490 . S
C4464 C4466 1.395 . S
C4464 C4467 1.403 . S
H4465 C4471 0.930 . S
C4466 H4452 0.930 . S
C4466 C4464 1.395 . S
C4466 C4469 1.403 . S
C4467 C4464 1.403 . S
C4467 C4468 1.524 . S
C4467 C4471 1.400 . S
C4468 H4453 0.960 . S
C4468 H4454 0.960 . S
C4468 H4455 0.960 . S
C4468 C4467 1.524 . S
C4469 C4466 1.403 . S
C4469 C4470 1.392 . S
C4469 C4473 1.495 . S
C4470 C4469 1.392 . S
C4470 C4471 1.385 . S
C4470 C4472 1.478 . S
C4471 H4465 0.930 . S
C4471 C4467 1.400 . S
C4471 C4470 1.385 . S
C4472 C4470 1.478 . S
C4472 C4474 1.381 . S
C4472 C4478 1.383 . S
C4473 C4469 1.495 . S
C4473 H4479 0.959 . S
C4473 H4480 0.961 . S
C4473 H4481 0.960 . S
C4474 C4472 1.381 . S
C4474 C4475 1.394 . S
C4474 H4482 0.930 . S
C4475 C4474 1.394 . S
C4475 C4476 1.383 . S
C4475 H4483 0.929 . S
C4476 C4475 1.383 . S
C4476 C4477 1.377 . S
C4477 H4461 0.930 . S
C4477 C4476 1.377 . S
C4477 C4478 1.379 . S
C4478 H4462 0.931 . S
C4478 C4472 1.383 . S
C4478 C4477 1.379 . S
H4479 C4473 0.959 . S
H4480 C4473 0.961 . S
H4481 C4473 0.960 . S
H4482 C4474 0.930 . S
H4483 C4475 0.929 . S
H4484 C4492 0.929 . S
H4485 C4494 0.930 . S
H4486 C4496 0.930 . S
H4487 C4499 0.929 . S
H4488 C4502 0.930 . S
H4489 C4504 0.960 . S
H4490 C4504 0.960 . S
H4491 C4504 0.960 . S
C4492 H4484 0.929 . S
C4492 C4493 1.377 . S
C4492 C4494 1.384 . S
C4493 C4492 1.377 . S
C4493 C4499 1.390 . S
C4494 H4485 0.930 . S
C4494 C4492 1.384 . S
C4494 C4495 1.372 . S
C4495 C4494 1.372 . S
C4495 C4496 1.400 . S
C4495 C4500 1.490 . S
C4496 H4486 0.930 . S
C4496 C4495 1.400 . S
C4496 C4499 1.386 . S
H4497 C4513 0.930 . S
H4498 C4514 0.931 . S
C4499 H4487 0.929 . S
C4499 C4493 1.390 . S
C4499 C4496 1.386 . S
C4500 C4495 1.490 . S
C4500 C4502 1.395 . S
C4500 C4503 1.403 . S
H4501 C4507 0.930 . S
C4502 H4488 0.930 . S
C4502 C4500 1.395 . S
C4502 C4505 1.403 . S
C4503 C4500 1.403 . S
C4503 C4504 1.524 . S
C4503 C4507 1.400 . S
C4504 H4489 0.960 . S
C4504 H4490 0.960 . S
C4504 H4491 0.960 . S
C4504 C4503 1.524 . S
C4505 C4502 1.403 . S
C4505 C4506 1.392 . S
C4505 C4509 1.495 . S
C4506 C4505 1.392 . S
C4506 C4507 1.385 . S
C4506 C4508 1.478 . S
C4507 H4501 0.930 . S
C4507 C4503 1.400 . S
C4507 C4506 1.385 . S
C4508 C4506 1.478 . S
C4508 C4510 1.381 . S
C4508 C4514 1.383 . S
C4509 C4505 1.495 . S
C4509 H4515 0.959 . S
C4509 H4516 0.961 . S
C4509 H4517 0.960 . S
C4510 C4508 1.381 . S
C4510 C4511 1.394 . S
C4510 H4518 0.930 . S
C4511 C4510 1.394 . S
C4511 C4512 1.383 . S
C4511 H4519 0.929 . S
C4512 C4511 1.383 . S
C4512 C4513 1.377 . S
C4513 H4497 0.930 . S
C4513 C4512 1.377 . S
C4513 C4514 1.379 . S
C4514 H4498 0.931 . S
C4514 C4508 1.383 . S
C4514 C4513 1.379 . S
H4515 C4509 0.959 . S
H4516 C4509 0.961 . S
H4517 C4509 0.960 . S
H4518 C4510 0.930 . S
H4519 C4511 0.929 . S
H4520 C4528 0.929 . S
H4521 C4530 0.930 . S
H4522 C4532 0.930 . S
H4523 C4535 0.929 . S
H4524 C4538 0.930 . S
H4525 C4540 0.960 . S
H4526 C4540 0.960 . S
H4527 C4540 0.960 . S
C4528 H4520 0.929 . S
C4528 C4529 1.377 . S
C4528 C4530 1.384 . S
C4529 C4528 1.377 . S
C4529 C4535 1.390 . S
C4530 H4521 0.930 . S
C4530 C4528 1.384 . S
C4530 C4531 1.372 . S
C4531 C4530 1.372 . S
C4531 C4532 1.400 . S
C4531 C4536 1.490 . S
C4532 H4522 0.930 . S
C4532 C4531 1.400 . S
C4532 C4535 1.386 . S
H4533 C4549 0.930 . S
H4534 C4550 0.931 . S
C4535 H4523 0.929 . S
C4535 C4529 1.390 . S
C4535 C4532 1.386 . S
C4536 C4531 1.490 . S
C4536 C4538 1.395 . S
C4536 C4539 1.403 . S
H4537 C4543 0.930 . S
C4538 H4524 0.930 . S
C4538 C4536 1.395 . S
C4538 C4541 1.403 . S
C4539 C4536 1.403 . S
C4539 C4540 1.524 . S
C4539 C4543 1.400 . S
C4540 H4525 0.960 . S
C4540 H4526 0.960 . S
C4540 H4527 0.960 . S
C4540 C4539 1.524 . S
C4541 C4538 1.403 . S
C4541 C4542 1.392 . S
C4541 C4545 1.495 . S
C4542 C4541 1.392 . S
C4542 C4543 1.385 . S
C4542 C4544 1.478 . S
C4543 H4537 0.930 . S
C4543 C4539 1.400 . S
C4543 C4542 1.385 . S
C4544 C4542 1.478 . S
C4544 C4546 1.381 . S
C4544 C4550 1.383 . S
C4545 C4541 1.495 . S
C4545 H4551 0.959 . S
C4545 H4552 0.961 . S
C4545 H4553 0.960 . S
C4546 C4544 1.381 . S
C4546 C4547 1.394 . S
C4546 H4554 0.930 . S
C4547 C4546 1.394 . S
C4547 C4548 1.383 . S
C4547 H4555 0.929 . S
C4548 C4547 1.383 . S
C4548 C4549 1.377 . S
C4549 H4533 0.930 . S
C4549 C4548 1.377 . S
C4549 C4550 1.379 . S
C4550 H4534 0.931 . S
C4550 C4544 1.383 . S
C4550 C4549 1.379 . S
H4551 C4545 0.959 . S
H4552 C4545 0.961 . S
H4553 C4545 0.960 . S
H4554 C4546 0.930 . S
H4555 C4547 0.929 . S
H4556 C4564 0.929 . S
H4557 C4566 0.930 . S
H4558 C4568 0.930 . S
H4559 C4571 0.929 . S
H4560 C4574 0.930 . S
H4561 C4576 0.960 . S
H4562 C4576 0.960 . S
H4563 C4576 0.960 . S
C4564 H4556 0.929 . S
C4564 C4565 1.377 . S
C4564 C4566 1.384 . S
C4565 C4564 1.377 . S
C4565 C4571 1.390 . S
C4566 H4557 0.930 . S
C4566 C4564 1.384 . S
C4566 C4567 1.372 . S
C4567 C4566 1.372 . S
C4567 C4568 1.400 . S
C4567 C4572 1.490 . S
C4568 H4558 0.930 . S
C4568 C4567 1.400 . S
C4568 C4571 1.386 . S
H4569 C4585 0.930 . S
H4570 C4586 0.931 . S
C4571 H4559 0.929 . S
C4571 C4565 1.390 . S
C4571 C4568 1.386 . S
C4572 C4567 1.490 . S
C4572 C4574 1.395 . S
C4572 C4575 1.403 . S
H4573 C4579 0.930 . S
C4574 H4560 0.930 . S
C4574 C4572 1.395 . S
C4574 C4577 1.403 . S
C4575 C4572 1.403 . S
C4575 C4576 1.524 . S
C4575 C4579 1.400 . S
C4576 H4561 0.960 . S
C4576 H4562 0.960 . S
C4576 H4563 0.960 . S
C4576 C4575 1.524 . S
C4577 C4574 1.403 . S
C4577 C4578 1.392 . S
C4577 C4581 1.495 . S
C4578 C4577 1.392 . S
C4578 C4579 1.385 . S
C4578 C4580 1.478 . S
C4579 H4573 0.930 . S
C4579 C4575 1.400 . S
C4579 C4578 1.385 . S
C4580 C4578 1.478 . S
C4580 C4582 1.381 . S
C4580 C4586 1.383 . S
C4581 C4577 1.495 . S
C4581 H4587 0.959 . S
C4581 H4588 0.961 . S
C4581 H4589 0.960 . S
C4582 C4580 1.381 . S
C4582 C4583 1.394 . S
C4582 H4590 0.930 . S
C4583 C4582 1.394 . S
C4583 C4584 1.383 . S
C4583 H4591 0.929 . S
C4584 C4583 1.383 . S
C4584 C4585 1.377 . S
C4585 H4569 0.930 . S
C4585 C4584 1.377 . S
C4585 C4586 1.379 . S
C4586 H4570 0.931 . S
C4586 C4580 1.383 . S
C4586 C4585 1.379 . S
H4587 C4581 0.959 . S
H4588 C4581 0.961 . S
H4589 C4581 0.960 . S
H4590 C4582 0.930 . S
H4591 C4583 0.929 . S
H4592 C4600 0.929 . S
H4593 C4602 0.930 . S
H4594 C4604 0.930 . S
H4595 C4607 0.929 . S
H4596 C4610 0.930 . S
H4597 C4612 0.960 . S
H4598 C4612 0.960 . S
H4599 C4612 0.960 . S
C4600 H4592 0.929 . S
C4600 C4601 1.377 . S
C4600 C4602 1.384 . S
C4601 C4600 1.377 . S
C4601 C4607 1.390 . S
C4602 H4593 0.930 . S
C4602 C4600 1.384 . S
C4602 C4603 1.372 . S
C4603 C4602 1.372 . S
C4603 C4604 1.400 . S
C4603 C4608 1.490 . S
C4604 H4594 0.930 . S
C4604 C4603 1.400 . S
C4604 C4607 1.386 . S
H4605 C4621 0.930 . S
H4606 C4622 0.931 . S
C4607 H4595 0.929 . S
C4607 C4601 1.390 . S
C4607 C4604 1.386 . S
C4608 C4603 1.490 . S
C4608 C4610 1.395 . S
C4608 C4611 1.403 . S
H4609 C4615 0.930 . S
C4610 H4596 0.930 . S
C4610 C4608 1.395 . S
C4610 C4613 1.403 . S
C4611 C4608 1.403 . S
C4611 C4612 1.524 . S
C4611 C4615 1.400 . S
C4612 H4597 0.960 . S
C4612 H4598 0.960 . S
C4612 H4599 0.960 . S
C4612 C4611 1.524 . S
C4613 C4610 1.403 . S
C4613 C4614 1.392 . S
C4613 C4617 1.495 . S
C4614 C4613 1.392 . S
C4614 C4615 1.385 . S
C4614 C4616 1.478 . S
C4615 H4609 0.930 . S
C4615 C4611 1.400 . S
C4615 C4614 1.385 . S
C4616 C4614 1.478 . S
C4616 C4618 1.381 . S
C4616 C4622 1.383 . S
C4617 C4613 1.495 . S
C4617 H4623 0.959 . S
C4617 H4624 0.961 . S
C4617 H4625 0.960 . S
C4618 C4616 1.381 . S
C4618 C4619 1.394 . S
C4618 H4626 0.930 . S
C4619 C4618 1.394 . S
C4619 C4620 1.383 . S
C4619 H4627 0.929 . S
C4620 C4619 1.383 . S
C4620 C4621 1.377 . S
C4621 H4605 0.930 . S
C4621 C4620 1.377 . S
C4621 C4622 1.379 . S
C4622 H4606 0.931 . S
C4622 C4616 1.383 . S
C4622 C4621 1.379 . S
H4623 C4617 0.959 . S
H4624 C4617 0.961 . S
H4625 C4617 0.960 . S
H4626 C4618 0.930 . S
H4627 C4619 0.929 . S
H4628 C4636 0.929 . S
H4629 C4638 0.930 . S
H4630 C4640 0.930 . S
H4631 C4643 0.929 . S
H4632 C4646 0.930 . S
H4633 C4648 0.960 . S
H4634 C4648 0.960 . S
H4635 C4648 0.960 . S
C4636 H4628 0.929 . S
C4636 C4637 1.377 . S
C4636 C4638 1.384 . S
C4637 C4636 1.377 . S
C4637 C4643 1.390 . S
C4638 H4629 0.930 . S
C4638 C4636 1.384 . S
C4638 C4639 1.372 . S
C4639 C4638 1.372 . S
C4639 C4640 1.400 . S
C4639 C4644 1.490 . S
C4640 H4630 0.930 . S
C4640 C4639 1.400 . S
C4640 C4643 1.386 . S
H4641 C4657 0.930 . S
H4642 C4658 0.931 . S
C4643 H4631 0.929 . S
C4643 C4637 1.390 . S
C4643 C4640 1.386 . S
C4644 C4639 1.490 . S
C4644 C4646 1.395 . S
C4644 C4647 1.403 . S
H4645 C4651 0.930 . S
C4646 H4632 0.930 . S
C4646 C4644 1.395 . S
C4646 C4649 1.403 . S
C4647 C4644 1.403 . S
C4647 C4648 1.524 . S
C4647 C4651 1.400 . S
C4648 H4633 0.960 . S
C4648 H4634 0.960 . S
C4648 H4635 0.960 . S
C4648 C4647 1.524 . S
C4649 C4646 1.403 . S
C4649 C4650 1.392 . S
C4649 C4653 1.495 . S
C4650 C4649 1.392 . S
C4650 C4651 1.385 . S
C4650 C4652 1.478 . S
C4651 H4645 0.930 . S
C4651 C4647 1.400 . S
C4651 C4650 1.385 . S
C4652 C4650 1.478 . S
C4652 C4654 1.381 . S
C4652 C4658 1.383 . S
C4653 C4649 1.495 . S
C4653 H4659 0.959 . S
C4653 H4660 0.961 . S
C4653 H4661 0.960 . S
C4654 C4652 1.381 . S
C4654 C4655 1.394 . S
C4654 H4662 0.930 . S
C4655 C4654 1.394 . S
C4655 C4656 1.383 . S
C4655 H4663 0.929 . S
C4656 C4655 1.383 . S
C4656 C4657 1.377 . S
C4657 H4641 0.930 . S
C4657 C4656 1.377 . S
C4657 C4658 1.379 . S
C4658 H4642 0.931 . S
C4658 C4652 1.383 . S
C4658 C4657 1.379 . S
H4659 C4653 0.959 . S
H4660 C4653 0.961 . S
H4661 C4653 0.960 . S
H4662 C4654 0.930 . S
H4663 C4655 0.929 . S
H4664 C4672 0.929 . S
H4665 C4674 0.930 . S
H4666 C4676 0.930 . S
H4667 C4679 0.929 . S
H4668 C4682 0.930 . S
H4669 C4684 0.960 . S
H4670 C4684 0.960 . S
H4671 C4684 0.960 . S
C4672 H4664 0.929 . S
C4672 C4673 1.377 . S
C4672 C4674 1.384 . S
C4673 C4672 1.377 . S
C4673 C4679 1.390 . S
C4674 H4665 0.930 . S
C4674 C4672 1.384 . S
C4674 C4675 1.372 . S
C4675 C4674 1.372 . S
C4675 C4676 1.400 . S
C4675 C4680 1.490 . S
C4676 H4666 0.930 . S
C4676 C4675 1.400 . S
C4676 C4679 1.386 . S
H4677 C4693 0.930 . S
H4678 C4694 0.931 . S
C4679 H4667 0.929 . S
C4679 C4673 1.390 . S
C4679 C4676 1.386 . S
C4680 C4675 1.490 . S
C4680 C4682 1.395 . S
C4680 C4683 1.403 . S
H4681 C4687 0.930 . S
C4682 H4668 0.930 . S
C4682 C4680 1.395 . S
C4682 C4685 1.403 . S
C4683 C4680 1.403 . S
C4683 C4684 1.524 . S
C4683 C4687 1.400 . S
C4684 H4669 0.960 . S
C4684 H4670 0.960 . S
C4684 H4671 0.960 . S
C4684 C4683 1.524 . S
C4685 C4682 1.403 . S
C4685 C4686 1.392 . S
C4685 C4689 1.495 . S
C4686 C4685 1.392 . S
C4686 C4687 1.385 . S
C4686 C4688 1.478 . S
C4687 H4681 0.930 . S
C4687 C4683 1.400 . S
C4687 C4686 1.385 . S
C4688 C4686 1.478 . S
C4688 C4690 1.381 . S
C4688 C4694 1.383 . S
C4689 C4685 1.495 . S
C4689 H4695 0.959 . S
C4689 H4696 0.961 . S
C4689 H4697 0.960 . S
C4690 C4688 1.381 . S
C4690 C4691 1.394 . S
C4690 H4698 0.930 . S
C4691 C4690 1.394 . S
C4691 C4692 1.383 . S
C4691 H4699 0.929 . S
C4692 C4691 1.383 . S
C4692 C4693 1.377 . S
C4693 H4677 0.930 . S
C4693 C4692 1.377 . S
C4693 C4694 1.379 . S
C4694 H4678 0.931 . S
C4694 C4688 1.383 . S
C4694 C4693 1.379 . S
H4695 C4689 0.959 . S
H4696 C4689 0.961 . S
H4697 C4689 0.960 . S
H4698 C4690 0.930 . S
H4699 C4691 0.929 . S
H4700 C4708 0.929 . S
H4701 C4710 0.930 . S
H4702 C4712 0.930 . S
H4703 C4715 0.929 . S
H4704 C4718 0.930 . S
H4705 C4720 0.960 . S
H4706 C4720 0.960 . S
H4707 C4720 0.960 . S
C4708 H4700 0.929 . S
C4708 C4709 1.377 . S
C4708 C4710 1.384 . S
C4709 C4708 1.377 . S
C4709 C4715 1.390 . S
C4710 H4701 0.930 . S
C4710 C4708 1.384 . S
C4710 C4711 1.372 . S
C4711 C4710 1.372 . S
C4711 C4712 1.400 . S
C4711 C4716 1.490 . S
C4712 H4702 0.930 . S
C4712 C4711 1.400 . S
C4712 C4715 1.386 . S
H4713 C4729 0.930 . S
H4714 C4730 0.931 . S
C4715 H4703 0.929 . S
C4715 C4709 1.390 . S
C4715 C4712 1.386 . S
C4716 C4711 1.490 . S
C4716 C4718 1.395 . S
C4716 C4719 1.403 . S
H4717 C4723 0.930 . S
C4718 H4704 0.930 . S
C4718 C4716 1.395 . S
C4718 C4721 1.403 . S
C4719 C4716 1.403 . S
C4719 C4720 1.524 . S
C4719 C4723 1.400 . S
C4720 H4705 0.960 . S
C4720 H4706 0.960 . S
C4720 H4707 0.960 . S
C4720 C4719 1.524 . S
C4721 C4718 1.403 . S
C4721 C4722 1.392 . S
C4721 C4725 1.495 . S
C4722 C4721 1.392 . S
C4722 C4723 1.385 . S
C4722 C4724 1.478 . S
C4723 H4717 0.930 . S
C4723 C4719 1.400 . S
C4723 C4722 1.385 . S
C4724 C4722 1.478 . S
C4724 C4726 1.381 . S
C4724 C4730 1.383 . S
C4725 C4721 1.495 . S
C4725 H4731 0.959 . S
C4725 H4732 0.961 . S
C4725 H4733 0.960 . S
C4726 C4724 1.381 . S
C4726 C4727 1.394 . S
C4726 H4734 0.930 . S
C4727 C4726 1.394 . S
C4727 C4728 1.383 . S
C4727 H4735 0.929 . S
C4728 C4727 1.383 . S
C4728 C4729 1.377 . S
C4729 H4713 0.930 . S
C4729 C4728 1.377 . S
C4729 C4730 1.379 . S
C4730 H4714 0.931 . S
C4730 C4724 1.383 . S
C4730 C4729 1.379 . S
H4731 C4725 0.959 . S
H4732 C4725 0.961 . S
H4733 C4725 0.960 . S
H4734 C4726 0.930 . S
H4735 C4727 0.929 . S
H4736 C4744 0.929 . S
H4737 C4746 0.930 . S
H4738 C4748 0.930 . S
H4739 C4751 0.929 . S
H4740 C4754 0.930 . S
H4741 C4756 0.960 . S
H4742 C4756 0.960 . S
H4743 C4756 0.960 . S
C4744 H4736 0.929 . S
C4744 C4745 1.377 . S
C4744 C4746 1.384 . S
C4745 C4744 1.377 . S
C4745 C4751 1.390 . S
C4746 H4737 0.930 . S
C4746 C4744 1.384 . S
C4746 C4747 1.372 . S
C4747 C4746 1.372 . S
C4747 C4748 1.400 . S
C4747 C4752 1.490 . S
C4748 H4738 0.930 . S
C4748 C4747 1.400 . S
C4748 C4751 1.386 . S
H4749 C4765 0.930 . S
H4750 C4766 0.931 . S
C4751 H4739 0.929 . S
C4751 C4745 1.390 . S
C4751 C4748 1.386 . S
C4752 C4747 1.490 . S
C4752 C4754 1.395 . S
C4752 C4755 1.403 . S
H4753 C4759 0.930 . S
C4754 H4740 0.930 . S
C4754 C4752 1.395 . S
C4754 C4757 1.403 . S
C4755 C4752 1.403 . S
C4755 C4756 1.524 . S
C4755 C4759 1.400 . S
C4756 H4741 0.960 . S
C4756 H4742 0.960 . S
C4756 H4743 0.960 . S
C4756 C4755 1.524 . S
C4757 C4754 1.403 . S
C4757 C4758 1.392 . S
C4757 C4761 1.495 . S
C4758 C4757 1.392 . S
C4758 C4759 1.385 . S
C4758 C4760 1.478 . S
C4759 H4753 0.930 . S
C4759 C4755 1.400 . S
C4759 C4758 1.385 . S
C4760 C4758 1.478 . S
C4760 C4762 1.381 . S
C4760 C4766 1.383 . S
C4761 C4757 1.495 . S
C4761 H4767 0.959 . S
C4761 H4768 0.961 . S
C4761 H4769 0.960 . S
C4762 C4760 1.381 . S
C4762 C4763 1.394 . S
C4762 H4770 0.930 . S
C4763 C4762 1.394 . S
C4763 C4764 1.383 . S
C4763 H4771 0.929 . S
C4764 C4763 1.383 . S
C4764 C4765 1.377 . S
C4765 H4749 0.930 . S
C4765 C4764 1.377 . S
C4765 C4766 1.379 . S
C4766 H4750 0.931 . S
C4766 C4760 1.383 . S
C4766 C4765 1.379 . S
H4767 C4761 0.959 . S
H4768 C4761 0.961 . S
H4769 C4761 0.960 . S
H4770 C4762 0.930 . S
H4771 C4763 0.929 . S
H4772 C4780 0.929 . S
H4773 C4782 0.930 . S
H4774 C4784 0.930 . S
H4775 C4787 0.929 . S
H4776 C4790 0.930 . S
H4777 C4792 0.960 . S
H4778 C4792 0.960 . S
H4779 C4792 0.960 . S
C4780 H4772 0.929 . S
C4780 C4781 1.377 . S
C4780 C4782 1.384 . S
C4781 C4780 1.377 . S
C4781 C4787 1.390 . S
C4782 H4773 0.930 . S
C4782 C4780 1.384 . S
C4782 C4783 1.372 . S
C4783 C4782 1.372 . S
C4783 C4784 1.400 . S
C4783 C4788 1.490 . S
C4784 H4774 0.930 . S
C4784 C4783 1.400 . S
C4784 C4787 1.386 . S
H4785 C4801 0.930 . S
H4786 C4802 0.931 . S
C4787 H4775 0.929 . S
C4787 C4781 1.390 . S
C4787 C4784 1.386 . S
C4788 C4783 1.490 . S
C4788 C4790 1.395 . S
C4788 C4791 1.403 . S
H4789 C4795 0.930 . S
C4790 H4776 0.930 . S
C4790 C4788 1.395 . S
C4790 C4793 1.403 . S
C4791 C4788 1.403 . S
C4791 C4792 1.524 . S
C4791 C4795 1.400 . S
C4792 H4777 0.960 . S
C4792 H4778 0.960 . S
C4792 H4779 0.960 . S
C4792 C4791 1.524 . S
C4793 C4790 1.403 . S
C4793 C4794 1.392 . S
C4793 C4797 1.495 . S
C4794 C4793 1.392 . S
C4794 C4795 1.385 . S
C4794 C4796 1.478 . S
C4795 H4789 0.930 . S
C4795 C4791 1.400 . S
C4795 C4794 1.385 . S
C4796 C4794 1.478 . S
C4796 C4798 1.381 . S
C4796 C4802 1.383 . S
C4797 C4793 1.495 . S
C4797 H4803 0.959 . S
C4797 H4804 0.961 . S
C4797 H4805 0.960 . S
C4798 C4796 1.381 . S
C4798 C4799 1.394 . S
C4798 H4806 0.930 . S
C4799 C4798 1.394 . S
C4799 C4800 1.383 . S
C4799 H4807 0.929 . S
C4800 C4799 1.383 . S
C4800 C4801 1.377 . S
C4801 H4785 0.930 . S
C4801 C4800 1.377 . S
C4801 C4802 1.379 . S
C4802 H4786 0.931 . S
C4802 C4796 1.383 . S
C4802 C4801 1.379 . S
H4803 C4797 0.959 . S
H4804 C4797 0.961 . S
H4805 C4797 0.960 . S
H4806 C4798 0.930 . S
H4807 C4799 0.929 . S
H4808 C4816 0.929 . S
H4809 C4818 0.930 . S
H4810 C4820 0.930 . S
H4811 C4823 0.929 . S
H4812 C4826 0.930 . S
H4813 C4828 0.960 . S
H4814 C4828 0.960 . S
H4815 C4828 0.960 . S
C4816 H4808 0.929 . S
C4816 C4817 1.377 . S
C4816 C4818 1.384 . S
C4817 C4816 1.377 . S
C4817 C4823 1.390 . S
C4818 H4809 0.930 . S
C4818 C4816 1.384 . S
C4818 C4819 1.372 . S
C4819 C4818 1.372 . S
C4819 C4820 1.400 . S
C4819 C4824 1.490 . S
C4820 H4810 0.930 . S
C4820 C4819 1.400 . S
C4820 C4823 1.386 . S
H4821 C4837 0.930 . S
H4822 C4838 0.931 . S
C4823 H4811 0.929 . S
C4823 C4817 1.390 . S
C4823 C4820 1.386 . S
C4824 C4819 1.490 . S
C4824 C4826 1.395 . S
C4824 C4827 1.403 . S
H4825 C4831 0.930 . S
C4826 H4812 0.930 . S
C4826 C4824 1.395 . S
C4826 C4829 1.403 . S
C4827 C4824 1.403 . S
C4827 C4828 1.524 . S
C4827 C4831 1.400 . S
C4828 H4813 0.960 . S
C4828 H4814 0.960 . S
C4828 H4815 0.960 . S
C4828 C4827 1.524 . S
C4829 C4826 1.403 . S
C4829 C4830 1.392 . S
C4829 C4833 1.495 . S
C4830 C4829 1.392 . S
C4830 C4831 1.385 . S
C4830 C4832 1.478 . S
C4831 H4825 0.930 . S
C4831 C4827 1.400 . S
C4831 C4830 1.385 . S
C4832 C4830 1.478 . S
C4832 C4834 1.381 . S
C4832 C4838 1.383 . S
C4833 C4829 1.495 . S
C4833 H4839 0.959 . S
C4833 H4840 0.961 . S
C4833 H4841 0.960 . S
C4834 C4832 1.381 . S
C4834 C4835 1.394 . S
C4834 H4842 0.930 . S
C4835 C4834 1.394 . S
C4835 C4836 1.383 . S
C4835 H4843 0.929 . S
C4836 C4835 1.383 . S
C4836 C4837 1.377 . S
C4837 H4821 0.930 . S
C4837 C4836 1.377 . S
C4837 C4838 1.379 . S
C4838 H4822 0.931 . S
C4838 C4832 1.383 . S
C4838 C4837 1.379 . S
H4839 C4833 0.959 . S
H4840 C4833 0.961 . S
H4841 C4833 0.960 . S
H4842 C4834 0.930 . S
H4843 C4835 0.929 . S
H4844 C4852 0.929 . S
H4845 C4854 0.930 . S
H4846 C4856 0.930 . S
H4847 C4859 0.929 . S
H4848 C4862 0.930 . S
H4849 C4864 0.960 . S
H4850 C4864 0.960 . S
H4851 C4864 0.960 . S
C4852 H4844 0.929 . S
C4852 C4853 1.377 . S
C4852 C4854 1.384 . S
C4853 C4852 1.377 . S
C4853 C4859 1.390 . S
C4854 H4845 0.930 . S
C4854 C4852 1.384 . S
C4854 C4855 1.372 . S
C4855 C4854 1.372 . S
C4855 C4856 1.400 . S
C4855 C4860 1.490 . S
C4856 H4846 0.930 . S
C4856 C4855 1.400 . S
C4856 C4859 1.386 . S
H4857 C4873 0.930 . S
H4858 C4874 0.931 . S
C4859 H4847 0.929 . S
C4859 C4853 1.390 . S
C4859 C4856 1.386 . S
C4860 C4855 1.490 . S
C4860 C4862 1.395 . S
C4860 C4863 1.403 . S
H4861 C4867 0.930 . S
C4862 H4848 0.930 . S
C4862 C4860 1.395 . S
C4862 C4865 1.403 . S
C4863 C4860 1.403 . S
C4863 C4864 1.524 1_554 S
C4863 C4867 1.400 . S
C4864 H4849 0.960 . S
C4864 H4850 0.960 . S
C4864 H4851 0.960 . S
C4864 C4863 1.524 1_556 S
C4865 C4862 1.403 . S
C4865 C4866 1.392 . S
C4865 C4869 1.495 . S
C4866 C4865 1.392 . S
C4866 C4867 1.385 . S
C4866 C4868 1.475 1_565 S
C4867 H4861 0.930 . S
C4867 C4863 1.400 . S
C4867 C4866 1.385 . S
C4868 C4866 1.475 1_545 S
C4868 C4870 1.390 . S
C4868 C4874 1.376 1_545 S
C4869 C4865 1.495 . S
C4869 H4875 0.959 . S
C4869 H4876 0.961 . S
C4869 H4877 0.960 1_565 S
C4870 C4868 1.390 . S
C4870 C4871 1.394 . S
C4870 H4878 0.930 . S
C4871 C4870 1.394 . S
C4871 C4872 1.383 . S
C4871 H4879 0.929 . S
C4872 C4871 1.383 . S
C4872 C4873 1.377 1_545 S
C4873 H4857 0.930 . S
C4873 C4872 1.377 1_565 S
C4873 C4874 1.379 . S
C4874 H4858 0.931 . S
C4874 C4868 1.376 1_565 S
C4874 C4873 1.379 . S
H4875 C4869 0.959 . S
H4876 C4869 0.961 . S
H4877 C4869 0.960 1_545 S
H4878 C4870 0.930 . S
H4879 C4871 0.929 . S
H4880 C4888 0.929 . S
H4881 C4890 0.930 . S
H4882 C4892 0.930 . S
H4883 C4895 0.929 . S
H4884 C4898 0.930 . S
H4885 C4900 0.960 . S
H4886 C4900 0.960 . S
H4887 C4900 0.960 . S
C4888 H4880 0.929 . S
C4888 C4889 1.377 . S
C4888 C4890 1.384 . S
C4889 C4888 1.377 . S
C4889 C4895 1.390 . S
C4890 H4881 0.930 . S
C4890 C4888 1.384 . S
C4890 C4891 1.372 . S
C4891 C4890 1.372 . S
C4891 C4892 1.400 . S
C4891 C4896 1.490 . S
C4892 H4882 0.930 . S
C4892 C4891 1.400 . S
C4892 C4895 1.386 . S
H4893 C4909 0.930 . S
H4894 C4910 0.931 . S
C4895 H4883 0.929 . S
C4895 C4889 1.390 . S
C4895 C4892 1.386 . S
C4896 C4891 1.490 . S
C4896 C4898 1.395 . S
C4896 C4899 1.403 . S
H4897 C4903 0.930 . S
C4898 H4884 0.930 . S
C4898 C4896 1.395 . S
C4898 C4901 1.403 . S
C4899 C4896 1.403 . S
C4899 C4900 1.524 . S
C4899 C4903 1.400 . S
C4900 H4885 0.960 . S
C4900 H4886 0.960 . S
C4900 H4887 0.960 . S
C4900 C4899 1.524 . S
C4901 C4898 1.403 . S
C4901 C4902 1.392 . S
C4901 C4905 1.495 . S
C4902 C4901 1.392 . S
C4902 C4903 1.385 . S
C4902 C4904 1.478 . S
C4903 H4897 0.930 . S
C4903 C4899 1.400 . S
C4903 C4902 1.385 . S
C4904 C4902 1.478 . S
C4904 C4906 1.381 . S
C4904 C4910 1.383 . S
C4905 C4901 1.495 . S
C4905 H4911 0.959 . S
C4905 H4912 0.961 . S
C4905 H4913 0.960 . S
C4906 C4904 1.381 . S
C4906 C4907 1.394 . S
C4906 H4914 0.930 . S
C4907 C4906 1.394 . S
C4907 C4908 1.383 . S
C4907 H4915 0.929 . S
C4908 C4907 1.383 . S
C4908 C4909 1.377 . S
C4909 H4893 0.930 . S
C4909 C4908 1.377 . S
C4909 C4910 1.379 . S
C4910 H4894 0.931 . S
C4910 C4904 1.383 . S
C4910 C4909 1.379 . S
H4911 C4905 0.959 . S
H4912 C4905 0.961 . S
H4913 C4905 0.960 . S
H4914 C4906 0.930 . S
H4915 C4907 0.929 . S
H4916 C4924 0.905 1_556 S
H4917 C4926 0.930 . S
H4918 C4928 0.930 . S
H4919 C4931 0.929 . S
H4920 C4934 0.930 1_556 S
H4921 C4936 0.960 . S
H4922 C4936 0.960 . S
H4923 C4936 0.960 . S
C4924 H4916 0.905 1_554 S
C4924 C4925 1.377 . S
C4924 C4926 1.384 . S
C4925 C4924 1.377 . S
C4925 C4931 1.390 . S
C4926 H4917 0.930 . S
C4926 C4924 1.384 . S
C4926 C4927 1.372 . S
C4927 C4926 1.372 . S
C4927 C4928 1.400 . S
C4927 C4932 1.490 . S
C4928 H4918 0.930 . S
C4928 C4927 1.400 . S
C4928 C4931 1.386 . S
H4929 C4945 0.930 . S
H4930 C4946 0.931 . S
C4931 H4919 0.929 . S
C4931 C4925 1.390 . S
C4931 C4928 1.386 . S
C4932 C4927 1.490 . S
C4932 C4934 1.395 . S
C4932 C4935 1.403 . S
H4933 C4939 0.930 . S
C4934 H4920 0.930 1_554 S
C4934 C4932 1.395 . S
C4934 C4937 1.403 . S
C4935 C4932 1.403 . S
C4935 C4936 1.524 . S
C4935 C4939 1.400 . S
C4936 H4921 0.960 . S
C4936 H4922 0.960 . S
C4936 H4923 0.960 . S
C4936 C4935 1.524 . S
C4937 C4934 1.403 . S
C4937 C4938 1.392 . S
C4937 C4941 1.495 1_554 S
C4938 C4937 1.392 . S
C4938 C4939 1.385 . S
C4938 C4940 1.478 . S
C4939 H4933 0.930 . S
C4939 C4935 1.400 . S
C4939 C4938 1.385 . S
C4940 C4938 1.478 . S
C4940 C4942 1.381 . S
C4940 C4946 1.383 . S
C4941 C4937 1.495 1_556 S
C4941 H4947 0.959 . S
C4941 H4948 0.961 . S
C4941 H4949 0.960 . S
C4942 C4940 1.381 . S
C4942 C4943 1.394 . S
C4942 H4950 0.930 . S
C4943 C4942 1.394 . S
C4943 C4944 1.383 . S
C4943 H4951 0.929 . S
C4944 C4943 1.383 . S
C4944 C4945 1.377 . S
C4945 H4929 0.930 . S
C4945 C4944 1.377 . S
C4945 C4946 1.379 . S
C4946 H4930 0.931 . S
C4946 C4940 1.383 . S
C4946 C4945 1.379 . S
H4947 C4941 0.959 . S
H4948 C4941 0.961 . S
H4949 C4941 0.960 . S
H4950 C4942 0.930 . S
H4951 C4943 0.929 . S
H4952 C4960 0.929 . S
H4953 C4962 0.930 . S
H4954 C4964 0.930 . S
H4955 C4967 0.929 . S
H4956 C4970 0.930 . S
H4957 C4972 0.960 . S
H4958 C4972 0.960 . S
H4959 C4972 0.960 . S
C4960 H4952 0.929 . S
C4960 C4961 1.377 . S
C4960 C4962 1.384 . S
C4961 C4960 1.377 . S
C4961 C4967 1.390 . S
C4962 H4953 0.930 . S
C4962 C4960 1.384 . S
C4962 C4963 1.372 . S
C4963 C4962 1.372 . S
C4963 C4964 1.400 . S
C4963 C4968 1.490 . S
C4964 H4954 0.930 . S
C4964 C4963 1.400 . S
C4964 C4967 1.386 . S
H4965 C4981 0.930 . S
H4966 C4982 0.931 . S
C4967 H4955 0.929 . S
C4967 C4961 1.390 . S
C4967 C4964 1.386 . S
C4968 C4963 1.490 . S
C4968 C4970 1.395 . S
C4968 C4971 1.403 . S
H4969 C4975 0.930 . S
C4970 H4956 0.930 . S
C4970 C4968 1.395 . S
C4970 C4973 1.403 . S
C4971 C4968 1.403 . S
C4971 C4972 1.524 . S
C4971 C4975 1.400 . S
C4972 H4957 0.960 . S
C4972 H4958 0.960 . S
C4972 H4959 0.960 . S
C4972 C4971 1.524 . S
C4973 C4970 1.403 . S
C4973 C4974 1.392 . S
C4973 C4977 1.495 . S
C4974 C4973 1.392 . S
C4974 C4975 1.385 . S
C4974 C4976 1.478 . S
C4975 H4969 0.930 . S
C4975 C4971 1.400 . S
C4975 C4974 1.385 . S
C4976 C4974 1.478 . S
C4976 C4978 1.381 . S
C4976 C4982 1.383 . S
C4977 C4973 1.495 . S
C4977 H4983 0.959 . S
C4977 H4984 0.961 . S
C4977 H4985 0.960 . S
C4978 C4976 1.381 . S
C4978 C4979 1.394 . S
C4978 H4986 0.930 . S
C4979 C4978 1.394 . S
C4979 C4980 1.383 . S
C4979 H4987 0.929 . S
C4980 C4979 1.383 . S
C4980 C4981 1.377 . S
C4981 H4965 0.930 . S
C4981 C4980 1.377 . S
C4981 C4982 1.379 . S
C4982 H4966 0.931 . S
C4982 C4976 1.383 . S
C4982 C4981 1.379 . S
H4983 C4977 0.959 . S
H4984 C4977 0.961 . S
H4985 C4977 0.960 . S
H4986 C4978 0.930 . S
H4987 C4979 0.929 . S
H4988 C4996 0.929 . S
H4989 C4998 0.930 . S
H4990 C5000 0.930 . S
H4991 C5003 0.929 . S
H4992 C5006 0.930 . S
H4993 C5008 0.960 . S
H4994 C5008 0.960 . S
H4995 C5008 0.960 . S
C4996 H4988 0.929 . S
C4996 C4997 1.377 . S
C4996 C4998 1.384 . S
C4997 C4996 1.377 . S
C4997 C5003 1.390 . S
C4998 H4989 0.930 . S
C4998 C4996 1.384 . S
C4998 C4999 1.372 . S
C4999 C4998 1.372 . S
C4999 C5000 1.400 . S
C4999 C5004 1.490 . S
C5000 H4990 0.930 . S
C5000 C4999 1.400 . S
C5000 C5003 1.386 . S
H5001 C5017 0.930 . S
H5002 C5018 0.931 . S
C5003 H4991 0.929 . S
C5003 C4997 1.390 . S
C5003 C5000 1.386 . S
C5004 C4999 1.490 . S
C5004 C5006 1.395 . S
C5004 C5007 1.403 . S
H5005 C5011 0.930 . S
C5006 H4992 0.930 . S
C5006 C5004 1.395 . S
C5006 C5009 1.403 . S
C5007 C5004 1.403 . S
C5007 C5008 1.524 . S
C5007 C5011 1.400 . S
C5008 H4993 0.960 . S
C5008 H4994 0.960 . S
C5008 H4995 0.960 . S
C5008 C5007 1.524 . S
C5009 C5006 1.403 . S
C5009 C5010 1.392 . S
C5009 C5013 1.495 . S
C5010 C5009 1.392 . S
C5010 C5011 1.385 . S
C5010 C5012 1.478 . S
C5011 H5005 0.930 . S
C5011 C5007 1.400 . S
C5011 C5010 1.385 . S
C5012 C5010 1.478 . S
C5012 C5014 1.381 . S
C5012 C5018 1.383 . S
C5013 C5009 1.495 . S
C5013 H5019 0.959 . S
C5013 H5020 0.961 . S
C5013 H5021 0.960 . S
C5014 C5012 1.381 . S
C5014 C5015 1.394 . S
C5014 H5022 0.930 . S
C5015 C5014 1.394 . S
C5015 C5016 1.383 . S
C5015 H5023 0.929 . S
C5016 C5015 1.383 . S
C5016 C5017 1.377 . S
C5017 H5001 0.930 . S
C5017 C5016 1.377 . S
C5017 C5018 1.379 . S
C5018 H5002 0.931 . S
C5018 C5012 1.383 . S
C5018 C5017 1.379 . S
H5019 C5013 0.959 . S
H5020 C5013 0.961 . S
H5021 C5013 0.960 . S
H5022 C5014 0.930 . S
H5023 C5015 0.929 . S
H5024 C5032 0.929 . S
H5025 C5034 0.930 . S
H5026 C5036 0.930 . S
H5027 C5039 0.929 . S
H5028 C5042 0.930 . S
H5029 C5044 0.960 . S
H5030 C5044 0.960 . S
H5031 C5044 0.960 . S
C5032 H5024 0.929 . S
C5032 C5033 1.377 . S
C5032 C5034 1.384 . S
C5033 C5032 1.377 . S
C5033 C5039 1.390 . S
C5034 H5025 0.930 . S
C5034 C5032 1.384 . S
C5034 C5035 1.372 . S
C5035 C5034 1.372 . S
C5035 C5036 1.400 . S
C5035 C5040 1.490 . S
C5036 H5026 0.930 . S
C5036 C5035 1.400 . S
C5036 C5039 1.386 . S
H5037 C5053 0.930 . S
H5038 C5054 0.931 . S
C5039 H5027 0.929 . S
C5039 C5033 1.390 . S
C5039 C5036 1.386 . S
C5040 C5035 1.490 . S
C5040 C5042 1.395 . S
C5040 C5043 1.403 . S
H5041 C5047 0.930 . S
C5042 H5028 0.930 . S
C5042 C5040 1.395 . S
C5042 C5045 1.403 . S
C5043 C5040 1.403 . S
C5043 C5044 1.524 . S
C5043 C5047 1.400 . S
C5044 H5029 0.960 . S
C5044 H5030 0.960 . S
C5044 H5031 0.960 . S
C5044 C5043 1.524 . S
C5045 C5042 1.403 . S
C5045 C5046 1.392 . S
C5045 C5049 1.495 . S
C5046 C5045 1.392 . S
C5046 C5047 1.385 . S
C5046 C5048 1.478 . S
C5047 H5041 0.930 . S
C5047 C5043 1.400 . S
C5047 C5046 1.385 . S
C5048 C5046 1.478 . S
C5048 C5050 1.381 . S
C5048 C5054 1.383 . S
C5049 C5045 1.495 . S
C5049 H5055 0.959 . S
C5049 H5056 0.961 . S
C5049 H5057 0.960 . S
C5050 C5048 1.381 . S
C5050 C5051 1.394 . S
C5050 H5058 0.930 . S
C5051 C5050 1.394 . S
C5051 C5052 1.383 . S
C5051 H5059 0.929 . S
C5052 C5051 1.383 . S
C5052 C5053 1.377 . S
C5053 H5037 0.930 . S
C5053 C5052 1.377 . S
C5053 C5054 1.379 . S
C5054 H5038 0.931 . S
C5054 C5048 1.383 . S
C5054 C5053 1.379 . S
H5055 C5049 0.959 . S
H5056 C5049 0.961 . S
H5057 C5049 0.960 . S
H5058 C5050 0.930 . S
H5059 C5051 0.929 . S
H5060 C5068 0.929 . S
H5061 C5070 0.930 . S
H5062 C5072 0.930 . S
H5063 C5075 0.929 . S
H5064 C5078 0.930 . S
H5065 C5080 0.960 . S
H5066 C5080 0.960 . S
H5067 C5080 0.960 . S
C5068 H5060 0.929 . S
C5068 C5069 1.377 . S
C5068 C5070 1.384 . S
C5069 C5068 1.377 . S
C5069 C5075 1.390 . S
C5070 H5061 0.930 . S
C5070 C5068 1.384 . S
C5070 C5071 1.372 . S
C5071 C5070 1.372 . S
C5071 C5072 1.400 . S
C5071 C5076 1.490 . S
C5072 H5062 0.930 . S
C5072 C5071 1.400 . S
C5072 C5075 1.386 . S
H5073 C5089 0.930 . S
H5074 C5090 0.931 . S
C5075 H5063 0.929 . S
C5075 C5069 1.390 . S
C5075 C5072 1.386 . S
C5076 C5071 1.490 . S
C5076 C5078 1.395 . S
C5076 C5079 1.403 . S
H5077 C5083 0.930 . S
C5078 H5064 0.930 . S
C5078 C5076 1.395 . S
C5078 C5081 1.403 . S
C5079 C5076 1.403 . S
C5079 C5080 1.524 . S
C5079 C5083 1.400 . S
C5080 H5065 0.960 . S
C5080 H5066 0.960 . S
C5080 H5067 0.960 . S
C5080 C5079 1.524 . S
C5081 C5078 1.403 . S
C5081 C5082 1.392 . S
C5081 C5085 1.495 . S
C5082 C5081 1.392 . S
C5082 C5083 1.385 . S
C5082 C5084 1.478 . S
C5083 H5077 0.930 . S
C5083 C5079 1.400 . S
C5083 C5082 1.385 . S
C5084 C5082 1.478 . S
C5084 C5086 1.381 . S
C5084 C5090 1.383 . S
C5085 C5081 1.495 . S
C5085 H5091 0.959 . S
C5085 H5092 0.961 . S
C5085 H5093 0.960 . S
C5086 C5084 1.381 . S
C5086 C5087 1.394 . S
C5086 H5094 0.930 . S
C5087 C5086 1.394 . S
C5087 C5088 1.383 . S
C5087 H5095 0.929 . S
C5088 C5087 1.383 . S
C5088 C5089 1.377 . S
C5089 H5073 0.930 . S
C5089 C5088 1.377 . S
C5089 C5090 1.379 . S
C5090 H5074 0.931 . S
C5090 C5084 1.383 . S
C5090 C5089 1.379 . S
H5091 C5085 0.959 . S
H5092 C5085 0.961 . S
H5093 C5085 0.960 . S
H5094 C5086 0.930 . S
H5095 C5087 0.929 . S
H5096 C5104 0.929 . S
H5097 C5106 0.930 . S
H5098 C5108 0.930 . S
H5099 C5111 0.929 . S
H5100 C5114 0.930 . S
H5101 C5116 0.960 . S
H5102 C5116 0.960 . S
H5103 C5116 0.960 . S
C5104 H5096 0.929 . S
C5104 C5105 1.377 . S
C5104 C5106 1.384 . S
C5105 C5104 1.377 . S
C5105 C5111 1.390 1_455 S
C5106 H5097 0.930 . S
C5106 C5104 1.384 . S
C5106 C5107 1.372 . S
C5107 C5106 1.372 . S
C5107 C5108 1.400 1_455 S
C5107 C5112 1.490 . S
C5108 H5098 0.930 . S
C5108 C5107 1.400 1_655 S
C5108 C5111 1.386 . S
H5109 C5125 0.948 . S
H5110 C5126 0.931 . S
C5111 H5099 0.929 . S
C5111 C5105 1.390 1_655 S
C5111 C5108 1.386 . S
C5112 C5107 1.490 . S
C5112 C5114 1.395 . S
C5112 C5115 1.403 . S
H5113 C5119 0.930 . S
C5114 H5100 0.930 . S
C5114 C5112 1.395 . S
C5114 C5117 1.403 . S
C5115 C5112 1.403 . S
C5115 C5116 1.524 . S
C5115 C5119 1.400 . S
C5116 H5101 0.960 . S
C5116 H5102 0.960 . S
C5116 H5103 0.960 . S
C5116 C5115 1.524 . S
C5117 C5114 1.403 . S
C5117 C5118 1.392 . S
C5117 C5121 1.495 . S
C5118 C5117 1.392 . S
C5118 C5119 1.385 . S
C5118 C5120 1.478 . S
C5119 H5113 0.930 . S
C5119 C5115 1.400 . S
C5119 C5118 1.385 . S
C5120 C5118 1.478 . S
C5120 C5122 1.381 . S
C5120 C5126 1.383 1_455 S
C5121 C5117 1.495 . S
C5121 H5127 0.959 . S
C5121 H5128 0.961 1_455 S
C5121 H5129 0.960 . S
C5122 C5120 1.381 . S
C5122 C5123 1.394 . S
C5122 H5130 0.930 . S
C5123 C5122 1.394 . S
C5123 C5124 1.383 . S
C5123 H5131 0.929 . S
C5124 C5123 1.383 . S
C5124 C5125 1.352 1_455 S
C5125 H5109 0.948 . S
C5125 C5124 1.352 1_655 S
C5125 C5126 1.386 . S
C5126 H5110 0.931 . S
C5126 C5120 1.383 1_655 S
C5126 C5125 1.386 . S
H5127 C5121 0.959 . S
H5128 C5121 0.961 1_655 S
H5129 C5121 0.960 . S
H5130 C5122 0.930 . S
H5131 C5123 0.929 . S
H5132 C5140 0.929 . S
H5133 C5142 0.930 . S
H5134 C5144 0.930 . S
H5135 C5147 0.929 . S
H5136 C5150 0.930 . S
H5137 C5152 0.960 . S
H5138 C5152 0.960 . S
H5139 C5152 0.960 . S
C5140 H5132 0.929 . S
C5140 C5141 1.377 . S
C5140 C5142 1.384 . S
C5141 C5140 1.377 . S
C5141 C5147 1.390 . S
C5142 H5133 0.930 . S
C5142 C5140 1.384 . S
C5142 C5143 1.372 . S
C5143 C5142 1.372 . S
C5143 C5144 1.400 . S
C5143 C5148 1.490 . S
C5144 H5134 0.930 . S
C5144 C5143 1.400 . S
C5144 C5147 1.386 . S
H5145 C5161 0.930 . S
H5146 C5162 0.931 . S
C5147 H5135 0.929 . S
C5147 C5141 1.390 . S
C5147 C5144 1.386 . S
C5148 C5143 1.490 . S
C5148 C5150 1.395 . S
C5148 C5151 1.403 . S
H5149 C5155 0.930 . S
C5150 H5136 0.930 . S
C5150 C5148 1.395 . S
C5150 C5153 1.403 . S
C5151 C5148 1.403 . S
C5151 C5152 1.524 . S
C5151 C5155 1.400 . S
C5152 H5137 0.960 . S
C5152 H5138 0.960 . S
C5152 H5139 0.960 . S
C5152 C5151 1.524 . S
C5153 C5150 1.403 . S
C5153 C5154 1.392 . S
C5153 C5157 1.495 . S
C5154 C5153 1.392 . S
C5154 C5155 1.385 . S
C5154 C5156 1.478 . S
C5155 H5149 0.930 . S
C5155 C5151 1.400 . S
C5155 C5154 1.385 . S
C5156 C5154 1.478 . S
C5156 C5158 1.381 . S
C5156 C5162 1.383 . S
C5157 C5153 1.495 . S
C5157 H5163 0.959 . S
C5157 H5164 0.961 . S
C5157 H5165 0.960 . S
C5158 C5156 1.381 . S
C5158 C5159 1.394 . S
C5158 H5166 0.930 . S
C5159 C5158 1.394 . S
C5159 C5160 1.383 . S
C5159 H5167 0.929 . S
C5160 C5159 1.383 . S
C5160 C5161 1.377 . S
C5161 H5145 0.930 . S
C5161 C5160 1.377 . S
C5161 C5162 1.379 . S
C5162 H5146 0.931 . S
C5162 C5156 1.383 . S
C5162 C5161 1.379 . S
H5163 C5157 0.959 . S
H5164 C5157 0.961 . S
H5165 C5157 0.960 . S
H5166 C5158 0.930 . S
H5167 C5159 0.929 . S
H5168 C5176 0.929 . S
H5169 C5178 0.930 . S
H5170 C5180 0.930 . S
H5171 C5183 0.929 . S
H5172 C5186 0.930 . S
H5173 C5188 0.960 . S
H5174 C5188 0.960 . S
H5175 C5188 0.960 . S
C5176 H5168 0.929 . S
C5176 C5177 1.377 . S
C5176 C5178 1.384 . S
C5177 C5176 1.377 . S
C5177 C5183 1.390 . S
C5178 H5169 0.930 . S
C5178 C5176 1.384 . S
C5178 C5179 1.372 . S
C5179 C5178 1.372 . S
C5179 C5180 1.400 . S
C5179 C5184 1.490 . S
C5180 H5170 0.930 . S
C5180 C5179 1.400 . S
C5180 C5183 1.386 . S
H5181 C5197 0.930 . S
H5182 C5198 0.931 . S
C5183 H5171 0.929 . S
C5183 C5177 1.390 . S
C5183 C5180 1.386 . S
C5184 C5179 1.490 . S
C5184 C5186 1.395 . S
C5184 C5187 1.403 . S
H5185 C5191 0.930 . S
C5186 H5172 0.930 . S
C5186 C5184 1.395 . S
C5186 C5189 1.403 . S
C5187 C5184 1.403 . S
C5187 C5188 1.524 . S
C5187 C5191 1.400 . S
C5188 H5173 0.960 . S
C5188 H5174 0.960 . S
C5188 H5175 0.960 . S
C5188 C5187 1.524 . S
C5189 C5186 1.403 . S
C5189 C5190 1.392 . S
C5189 C5193 1.495 . S
C5190 C5189 1.392 . S
C5190 C5191 1.385 . S
C5190 C5192 1.478 . S
C5191 H5185 0.930 . S
C5191 C5187 1.400 . S
C5191 C5190 1.385 . S
C5192 C5190 1.478 . S
C5192 C5194 1.381 . S
C5192 C5198 1.383 . S
C5193 C5189 1.495 . S
C5193 H5199 0.959 . S
C5193 H5200 0.961 . S
C5193 H5201 0.960 . S
C5194 C5192 1.381 . S
C5194 C5195 1.394 . S
C5194 H5202 0.930 . S
C5195 C5194 1.394 . S
C5195 C5196 1.383 . S
C5195 H5203 0.929 . S
C5196 C5195 1.383 . S
C5196 C5197 1.377 1_556 S
C5197 H5181 0.930 . S
C5197 C5196 1.377 1_554 S
C5197 C5198 1.379 1_554 S
C5198 H5182 0.931 . S
C5198 C5192 1.383 . S
C5198 C5197 1.379 1_556 S
H5199 C5193 0.959 . S
H5200 C5193 0.961 . S
H5201 C5193 0.960 . S
H5202 C5194 0.930 . S
H5203 C5195 0.929 . S
H5204 C5212 0.929 . S
H5205 C5214 0.930 . S
H5206 C5216 0.930 . S
H5207 C5219 0.929 . S
H5208 C5222 0.930 . S
H5209 C5224 0.960 . S
H5210 C5224 0.960 . S
H5211 C5224 0.960 . S
C5212 H5204 0.929 . S
C5212 C5213 1.377 . S
C5212 C5214 1.384 . S
C5213 C5212 1.377 . S
C5213 C5219 1.390 . S
C5214 H5205 0.930 . S
C5214 C5212 1.384 . S
C5214 C5215 1.372 . S
C5215 C5214 1.372 . S
C5215 C5216 1.400 . S
C5215 C5220 1.490 . S
C5216 H5206 0.930 . S
C5216 C5215 1.400 . S
C5216 C5219 1.386 . S
H5217 C5233 0.930 . S
H5218 C5234 0.931 . S
C5219 H5207 0.929 . S
C5219 C5213 1.390 . S
C5219 C5216 1.386 . S
C5220 C5215 1.490 . S
C5220 C5222 1.395 . S
C5220 C5223 1.403 . S
H5221 C5227 0.930 . S
C5222 H5208 0.930 . S
C5222 C5220 1.395 . S
C5222 C5225 1.403 . S
C5223 C5220 1.403 . S
C5223 C5224 1.524 . S
C5223 C5227 1.400 . S
C5224 H5209 0.960 . S
C5224 H5210 0.960 . S
C5224 H5211 0.960 . S
C5224 C5223 1.524 . S
C5225 C5222 1.403 . S
C5225 C5226 1.392 . S
C5225 C5229 1.495 . S
C5226 C5225 1.392 . S
C5226 C5227 1.385 . S
C5226 C5228 1.478 . S
C5227 H5221 0.930 . S
C5227 C5223 1.400 . S
C5227 C5226 1.385 . S
C5228 C5226 1.478 . S
C5228 C5230 1.381 . S
C5228 C5234 1.383 . S
C5229 C5225 1.495 . S
C5229 H5235 0.959 . S
C5229 H5236 0.961 . S
C5229 H5237 0.960 . S
C5230 C5228 1.381 . S
C5230 C5231 1.394 . S
C5230 H5238 0.930 . S
C5231 C5230 1.394 . S
C5231 C5232 1.383 . S
C5231 H5239 0.929 . S
C5232 C5231 1.383 . S
C5232 C5233 1.377 . S
C5233 H5217 0.930 . S
C5233 C5232 1.377 . S
C5233 C5234 1.379 . S
C5234 H5218 0.931 . S
C5234 C5228 1.383 . S
C5234 C5233 1.379 . S
H5235 C5229 0.959 . S
H5236 C5229 0.961 . S
H5237 C5229 0.960 . S
H5238 C5230 0.930 . S
H5239 C5231 0.929 . S
H5240 C5248 0.929 . S
H5241 C5250 0.930 . S
H5242 C5252 0.930 . S
H5243 C5255 0.929 . S
H5244 C5258 0.930 1_655 S
H5245 C5260 0.960 . S
H5246 C5260 0.960 . S
H5247 C5260 0.960 . S
C5248 H5240 0.929 . S
C5248 C5249 1.377 . S
C5248 C5250 1.384 . S
C5249 C5248 1.377 . S
C5249 C5255 1.390 . S
C5250 H5241 0.930 . S
C5250 C5248 1.384 . S
C5250 C5251 1.372 . S
C5251 C5250 1.372 . S
C5251 C5252 1.400 . S
C5251 C5256 1.490 . S
C5252 H5242 0.930 . S
C5252 C5251 1.400 . S
C5252 C5255 1.386 . S
H5253 C5269 0.930 . S
H5254 C5270 0.931 . S
C5255 H5243 0.929 . S
C5255 C5249 1.390 . S
C5255 C5252 1.386 . S
C5256 C5251 1.490 . S
C5256 C5258 1.395 . S
C5256 C5259 1.403 . S
H5257 C5263 0.930 . S
C5258 H5244 0.930 1_455 S
C5258 C5256 1.395 . S
C5258 C5261 1.403 . S
C5259 C5256 1.403 . S
C5259 C5260 1.524 . S
C5259 C5263 1.400 . S
C5260 H5245 0.960 . S
C5260 H5246 0.960 . S
C5260 H5247 0.960 . S
C5260 C5259 1.524 . S
C5261 C5258 1.403 . S
C5261 C5262 1.392 . S
C5261 C5265 1.495 1_455 S
C5262 C5261 1.392 . S
C5262 C5263 1.385 . S
C5262 C5264 1.478 . S
C5263 H5257 0.930 . S
C5263 C5259 1.400 . S
C5263 C5262 1.385 . S
C5264 C5262 1.478 . S
C5264 C5266 1.381 . S
C5264 C5270 1.383 . S
C5265 C5261 1.495 1_655 S
C5265 H5271 0.959 . S
C5265 H5272 0.961 . S
C5265 H5273 0.960 . S
C5266 C5264 1.381 . S
C5266 C5267 1.394 . S
C5266 H5274 0.930 . S
C5267 C5266 1.394 . S
C5267 C5268 1.383 . S
C5267 H5275 0.929 . S
C5268 C5267 1.383 . S
C5268 C5269 1.377 . S
C5269 H5253 0.930 . S
C5269 C5268 1.377 . S
C5269 C5270 1.379 . S
C5270 H5254 0.931 . S
C5270 C5264 1.383 . S
C5270 C5269 1.379 . S
H5271 C5265 0.959 . S
H5272 C5265 0.961 . S
H5273 C5265 0.960 . S
H5274 C5266 0.930 . S
H5275 C5267 0.929 . S
H5276 C5284 0.929 . S
H5277 C5286 0.930 . S
H5278 C5288 0.930 . S
H5279 C5291 0.929 . S
H5280 C5294 0.930 . S
H5281 C5296 0.960 . S
H5282 C5296 0.960 . S
H5283 C5296 0.960 . S
C5284 H5276 0.929 . S
C5284 C5285 1.377 . S
C5284 C5286 1.384 . S
C5285 C5284 1.377 . S
C5285 C5291 1.390 . S
C5286 H5277 0.930 . S
C5286 C5284 1.384 . S
C5286 C5287 1.372 . S
C5287 C5286 1.372 . S
C5287 C5288 1.400 . S
C5287 C5292 1.490 . S
C5288 H5278 0.930 . S
C5288 C5287 1.400 . S
C5288 C5291 1.386 . S
H5289 C5305 0.930 . S
H5290 C5306 0.931 . S
C5291 H5279 0.929 . S
C5291 C5285 1.390 . S
C5291 C5288 1.386 . S
C5292 C5287 1.490 . S
C5292 C5294 1.395 . S
C5292 C5295 1.403 . S
H5293 C5299 0.930 . S
C5294 H5280 0.930 . S
C5294 C5292 1.395 . S
C5294 C5297 1.403 . S
C5295 C5292 1.403 . S
C5295 C5296 1.524 . S
C5295 C5299 1.400 . S
C5296 H5281 0.960 . S
C5296 H5282 0.960 . S
C5296 H5283 0.960 . S
C5296 C5295 1.524 . S
C5297 C5294 1.403 . S
C5297 C5298 1.392 . S
C5297 C5301 1.495 . S
C5298 C5297 1.392 . S
C5298 C5299 1.385 . S
C5298 C5300 1.478 . S
C5299 H5293 0.930 . S
C5299 C5295 1.400 . S
C5299 C5298 1.385 . S
C5300 C5298 1.478 . S
C5300 C5302 1.381 . S
C5300 C5306 1.383 . S
C5301 C5297 1.495 . S
C5301 H5307 0.959 . S
C5301 H5308 0.961 . S
C5301 H5309 0.960 . S
C5302 C5300 1.381 . S
C5302 C5303 1.394 . S
C5302 H5310 0.930 . S
C5303 C5302 1.394 . S
C5303 C5304 1.383 . S
C5303 H5311 0.929 . S
C5304 C5303 1.383 . S
C5304 C5305 1.377 . S
C5305 H5289 0.930 . S
C5305 C5304 1.377 . S
C5305 C5306 1.379 . S
C5306 H5290 0.931 . S
C5306 C5300 1.383 . S
C5306 C5305 1.379 . S
H5307 C5301 0.959 . S
H5308 C5301 0.961 . S
H5309 C5301 0.960 . S
H5310 C5302 0.930 . S
H5311 C5303 0.929 . S
H5312 C5320 0.929 . S
H5313 C5322 0.930 . S
H5314 C5324 0.930 . S
H5315 C5327 0.929 . S
H5316 C5330 0.930 . S
H5317 C5332 0.960 . S
H5318 C5332 0.960 . S
H5319 C5332 0.960 . S
C5320 H5312 0.929 . S
C5320 C5321 1.377 . S
C5320 C5322 1.384 . S
C5321 C5320 1.377 . S
C5321 C5327 1.390 . S
C5322 H5313 0.930 . S
C5322 C5320 1.384 . S
C5322 C5323 1.372 . S
C5323 C5322 1.372 . S
C5323 C5324 1.400 . S
C5323 C5328 1.490 . S
C5324 H5314 0.930 . S
C5324 C5323 1.400 . S
C5324 C5327 1.386 . S
H5325 C5341 0.930 . S
H5326 C5342 0.931 . S
C5327 H5315 0.929 . S
C5327 C5321 1.390 . S
C5327 C5324 1.386 . S
C5328 C5323 1.490 . S
C5328 C5330 1.395 . S
C5328 C5331 1.403 . S
H5329 C5335 0.930 . S
C5330 H5316 0.930 . S
C5330 C5328 1.395 . S
C5330 C5333 1.403 . S
C5331 C5328 1.403 . S
C5331 C5332 1.524 . S
C5331 C5335 1.400 . S
C5332 H5317 0.960 . S
C5332 H5318 0.960 . S
C5332 H5319 0.960 . S
C5332 C5331 1.524 . S
C5333 C5330 1.403 . S
C5333 C5334 1.392 . S
C5333 C5337 1.495 . S
C5334 C5333 1.392 . S
C5334 C5335 1.385 . S
C5334 C5336 1.478 . S
C5335 H5329 0.930 . S
C5335 C5331 1.400 . S
C5335 C5334 1.385 . S
C5336 C5334 1.478 . S
C5336 C5338 1.381 . S
C5336 C5342 1.383 . S
C5337 C5333 1.495 . S
C5337 H5343 0.959 . S
C5337 H5344 0.961 . S
C5337 H5345 0.960 . S
C5338 C5336 1.381 . S
C5338 C5339 1.394 . S
C5338 H5346 0.930 . S
C5339 C5338 1.394 . S
C5339 C5340 1.383 . S
C5339 H5347 0.929 . S
C5340 C5339 1.383 . S
C5340 C5341 1.377 . S
C5341 H5325 0.930 . S
C5341 C5340 1.377 . S
C5341 C5342 1.379 . S
C5342 H5326 0.931 . S
C5342 C5336 1.383 . S
C5342 C5341 1.379 . S
H5343 C5337 0.959 . S
H5344 C5337 0.961 . S
H5345 C5337 0.960 . S
H5346 C5338 0.930 . S
H5347 C5339 0.929 . S
H5348 C5356 0.929 . S
H5349 C5358 0.930 . S
H5350 C5360 0.930 . S
H5351 C5363 0.929 . S
H5352 C5366 0.930 . S
H5353 C5368 0.960 . S
H5354 C5368 0.960 . S
H5355 C5368 0.960 . S
C5356 H5348 0.929 . S
C5356 C5357 1.377 . S
C5356 C5358 1.384 . S
C5357 C5356 1.377 . S
C5357 C5363 1.390 . S
C5358 H5349 0.930 . S
C5358 C5356 1.384 . S
C5358 C5359 1.372 . S
C5359 C5358 1.372 . S
C5359 C5360 1.400 . S
C5359 C5364 1.490 . S
C5360 H5350 0.930 . S
C5360 C5359 1.400 . S
C5360 C5363 1.386 . S
H5361 C5377 0.930 . S
H5362 C5378 0.931 . S
C5363 H5351 0.929 . S
C5363 C5357 1.390 . S
C5363 C5360 1.386 . S
C5364 C5359 1.490 . S
C5364 C5366 1.395 . S
C5364 C5367 1.403 . S
H5365 C5371 0.930 . S
C5366 H5352 0.930 . S
C5366 C5364 1.395 . S
C5366 C5369 1.403 . S
C5367 C5364 1.403 . S
C5367 C5368 1.524 . S
C5367 C5371 1.400 . S
C5368 H5353 0.960 . S
C5368 H5354 0.960 . S
C5368 H5355 0.960 . S
C5368 C5367 1.524 . S
C5369 C5366 1.403 . S
C5369 C5370 1.392 . S
C5369 C5373 1.495 . S
C5370 C5369 1.392 . S
C5370 C5371 1.385 . S
C5370 C5372 1.478 . S
C5371 H5365 0.930 . S
C5371 C5367 1.400 . S
C5371 C5370 1.385 . S
C5372 C5370 1.478 . S
C5372 C5374 1.381 . S
C5372 C5378 1.383 . S
C5373 C5369 1.495 . S
C5373 H5379 0.959 . S
C5373 H5380 0.961 . S
C5373 H5381 0.960 . S
C5374 C5372 1.381 . S
C5374 C5375 1.394 . S
C5374 H5382 0.930 . S
C5375 C5374 1.394 . S
C5375 C5376 1.383 . S
C5375 H5383 0.929 . S
C5376 C5375 1.383 . S
C5376 C5377 1.377 . S
C5377 H5361 0.930 . S
C5377 C5376 1.377 . S
C5377 C5378 1.379 . S
C5378 H5362 0.931 . S
C5378 C5372 1.383 . S
C5378 C5377 1.379 . S
H5379 C5373 0.959 . S
H5380 C5373 0.961 . S
H5381 C5373 0.960 . S
H5382 C5374 0.930 . S
H5383 C5375 0.929 . S
H5384 C5392 0.929 . S
H5385 C5394 0.930 . S
H5386 C5396 0.930 . S
H5387 C5399 0.929 . S
H5388 C5402 0.930 . S
H5389 C5404 0.960 . S
H5390 C5404 0.960 . S
H5391 C5404 0.960 . S
C5392 H5384 0.929 . S
C5392 C5393 1.377 . S
C5392 C5394 1.384 . S
C5393 C5392 1.377 . S
C5393 C5399 1.390 . S
C5394 H5385 0.930 . S
C5394 C5392 1.384 . S
C5394 C5395 1.372 . S
C5395 C5394 1.372 . S
C5395 C5396 1.400 . S
C5395 C5400 1.490 . S
C5396 H5386 0.930 . S
C5396 C5395 1.400 . S
C5396 C5399 1.386 . S
H5397 C5413 0.924 1_455 S
H5398 C5414 0.931 . S
C5399 H5387 0.929 . S
C5399 C5393 1.390 . S
C5399 C5396 1.386 . S
C5400 C5395 1.490 . S
C5400 C5402 1.395 . S
C5400 C5403 1.403 . S
H5401 C5407 0.930 . S
C5402 H5388 0.930 . S
C5402 C5400 1.395 . S
C5402 C5405 1.403 . S
C5403 C5400 1.403 . S
C5403 C5404 1.524 . S
C5403 C5407 1.400 . S
C5404 H5389 0.960 . S
C5404 H5390 0.960 . S
C5404 H5391 0.960 . S
C5404 C5403 1.524 . S
C5405 C5402 1.403 . S
C5405 C5406 1.392 . S
C5405 C5409 1.495 . S
C5406 C5405 1.392 . S
C5406 C5407 1.385 . S
C5406 C5408 1.478 . S
C5407 H5401 0.930 . S
C5407 C5403 1.400 . S
C5407 C5406 1.385 . S
C5408 C5406 1.478 . S
C5408 C5410 1.381 . S
C5408 C5414 1.383 . S
C5409 C5405 1.495 . S
C5409 H5415 0.978 . S
C5409 H5416 0.961 1_655 S
C5409 H5417 0.960 . S
C5410 C5408 1.381 . S
C5410 C5411 1.394 . S
C5410 H5418 0.930 . S
C5411 C5410 1.394 . S
C5411 C5412 1.383 . S
C5411 H5419 0.929 . S
C5412 C5411 1.383 . S
C5412 C5413 1.377 . S
C5413 H5397 0.924 1_655 S
C5413 C5412 1.377 . S
C5413 C5414 1.385 . S
C5414 H5398 0.931 . S
C5414 C5408 1.383 . S
C5414 C5413 1.385 . S
H5415 C5409 0.978 . S
H5416 C5409 0.961 1_455 S
H5417 C5409 0.960 . S
H5418 C5410 0.930 . S
H5419 C5411 0.929 . S
H5420 C5428 0.929 . S
H5421 C5430 0.930 . S
H5422 C5432 0.930 . S
H5423 C5435 0.929 . S
H5424 C5438 0.930 . S
H5425 C5440 0.960 . S
H5426 C5440 0.960 . S
H5427 C5440 0.960 . S
C5428 H5420 0.929 . S
C5428 C5429 1.377 . S
C5428 C5430 1.384 . S
C5429 C5428 1.377 . S
C5429 C5435 1.390 . S
C5430 H5421 0.930 . S
C5430 C5428 1.384 . S
C5430 C5431 1.372 . S
C5431 C5430 1.372 . S
C5431 C5432 1.400 . S
C5431 C5436 1.490 . S
C5432 H5422 0.930 . S
C5432 C5431 1.400 . S
C5432 C5435 1.386 . S
H5433 C5449 0.930 . S
H5434 C5450 0.931 . S
C5435 H5423 0.929 . S
C5435 C5429 1.390 . S
C5435 C5432 1.386 . S
C5436 C5431 1.490 . S
C5436 C5438 1.395 . S
C5436 C5439 1.403 . S
H5437 C5443 0.930 . S
C5438 H5424 0.930 . S
C5438 C5436 1.395 . S
C5438 C5441 1.403 . S
C5439 C5436 1.403 . S
C5439 C5440 1.524 . S
C5439 C5443 1.400 . S
C5440 H5425 0.960 . S
C5440 H5426 0.960 . S
C5440 H5427 0.960 . S
C5440 C5439 1.524 . S
C5441 C5438 1.403 . S
C5441 C5442 1.392 . S
C5441 C5445 1.495 . S
C5442 C5441 1.392 . S
C5442 C5443 1.385 . S
C5442 C5444 1.478 . S
C5443 H5437 0.930 . S
C5443 C5439 1.400 . S
C5443 C5442 1.385 . S
C5444 C5442 1.478 . S
C5444 C5446 1.381 . S
C5444 C5450 1.383 . S
C5445 C5441 1.495 . S
C5445 H5451 0.959 . S
C5445 H5452 0.961 . S
C5445 H5453 0.960 . S
C5446 C5444 1.381 . S
C5446 C5447 1.394 . S
C5446 H5454 0.930 . S
C5447 C5446 1.394 . S
C5447 C5448 1.383 . S
C5447 H5455 0.929 . S
C5448 C5447 1.383 . S
C5448 C5449 1.377 . S
C5449 H5433 0.930 . S
C5449 C5448 1.377 . S
C5449 C5450 1.379 . S
C5450 H5434 0.931 . S
C5450 C5444 1.383 . S
C5450 C5449 1.379 . S
H5451 C5445 0.959 . S
H5452 C5445 0.961 . S
H5453 C5445 0.960 . S
H5454 C5446 0.930 . S
H5455 C5447 0.929 . S
H5456 C5464 0.929 . S
H5457 C5466 0.930 . S
H5458 C5468 0.930 . S
H5459 C5471 0.929 . S
H5460 C5474 0.930 . S
H5461 C5476 0.960 . S
H5462 C5476 0.960 . S
H5463 C5476 0.960 . S
C5464 H5456 0.929 . S
C5464 C5465 1.377 . S
C5464 C5466 1.384 . S
C5465 C5464 1.377 . S
C5465 C5471 1.390 . S
C5466 H5457 0.930 . S
C5466 C5464 1.384 . S
C5466 C5467 1.372 . S
C5467 C5466 1.372 . S
C5467 C5468 1.400 . S
C5467 C5472 1.490 . S
C5468 H5458 0.930 . S
C5468 C5467 1.400 . S
C5468 C5471 1.386 . S
H5469 C5485 0.930 . S
H5470 C5486 0.931 . S
C5471 H5459 0.929 . S
C5471 C5465 1.390 . S
C5471 C5468 1.386 . S
C5472 C5467 1.490 . S
C5472 C5474 1.395 . S
C5472 C5475 1.403 . S
H5473 C5479 0.930 . S
C5474 H5460 0.930 . S
C5474 C5472 1.395 . S
C5474 C5477 1.403 . S
C5475 C5472 1.403 . S
C5475 C5476 1.524 . S
C5475 C5479 1.400 . S
C5476 H5461 0.960 . S
C5476 H5462 0.960 . S
C5476 H5463 0.960 . S
C5476 C5475 1.524 . S
C5477 C5474 1.403 . S
C5477 C5478 1.392 . S
C5477 C5481 1.495 . S
C5478 C5477 1.392 . S
C5478 C5479 1.385 . S
C5478 C5480 1.478 . S
C5479 H5473 0.930 . S
C5479 C5475 1.400 . S
C5479 C5478 1.385 . S
C5480 C5478 1.478 . S
C5480 C5482 1.381 . S
C5480 C5486 1.383 . S
C5481 C5477 1.495 . S
C5481 H5487 0.959 . S
C5481 H5488 0.961 . S
C5481 H5489 0.960 . S
C5482 C5480 1.381 . S
C5482 C5483 1.394 . S
C5482 H5490 0.930 . S
C5483 C5482 1.394 . S
C5483 C5484 1.383 . S
C5483 H5491 0.929 . S
C5484 C5483 1.383 . S
C5484 C5485 1.377 . S
C5485 H5469 0.930 . S
C5485 C5484 1.377 . S
C5485 C5486 1.379 . S
C5486 H5470 0.931 . S
C5486 C5480 1.383 . S
C5486 C5485 1.379 . S
H5487 C5481 0.959 . S
H5488 C5481 0.961 . S
H5489 C5481 0.960 . S
H5490 C5482 0.930 . S
H5491 C5483 0.929 . S
H5492 C5500 0.929 . S
H5493 C5502 0.930 . S
H5494 C5504 0.930 . S
H5495 C5507 0.929 . S
H5496 C5510 0.930 . S
H5497 C5512 0.960 . S
H5498 C5512 0.960 . S
H5499 C5512 0.960 . S
C5500 H5492 0.929 . S
C5500 C5501 1.377 . S
C5500 C5502 1.384 . S
C5501 C5500 1.377 . S
C5501 C5507 1.390 . S
C5502 H5493 0.930 . S
C5502 C5500 1.384 . S
C5502 C5503 1.372 . S
C5503 C5502 1.372 . S
C5503 C5504 1.400 . S
C5503 C5508 1.490 . S
C5504 H5494 0.930 . S
C5504 C5503 1.400 . S
C5504 C5507 1.386 . S
H5505 C5521 0.930 . S
H5506 C5522 0.931 . S
C5507 H5495 0.929 . S
C5507 C5501 1.390 . S
C5507 C5504 1.386 . S
C5508 C5503 1.490 . S
C5508 C5510 1.395 . S
C5508 C5511 1.403 . S
H5509 C5515 0.930 . S
C5510 H5496 0.930 . S
C5510 C5508 1.395 . S
C5510 C5513 1.403 . S
C5511 C5508 1.403 . S
C5511 C5512 1.524 . S
C5511 C5515 1.400 . S
C5512 H5497 0.960 . S
C5512 H5498 0.960 . S
C5512 H5499 0.960 . S
C5512 C5511 1.524 . S
C5513 C5510 1.403 . S
C5513 C5514 1.392 . S
C5513 C5517 1.495 . S
C5514 C5513 1.392 . S
C5514 C5515 1.385 . S
C5514 C5516 1.478 . S
C5515 H5509 0.930 . S
C5515 C5511 1.400 . S
C5515 C5514 1.385 . S
C5516 C5514 1.478 . S
C5516 C5518 1.381 . S
C5516 C5522 1.383 . S
C5517 C5513 1.495 . S
C5517 H5523 0.959 . S
C5517 H5524 0.961 . S
C5517 H5525 0.960 . S
C5518 C5516 1.381 . S
C5518 C5519 1.394 . S
C5518 H5526 0.930 . S
C5519 C5518 1.394 . S
C5519 C5520 1.383 . S
C5519 H5527 0.929 . S
C5520 C5519 1.383 . S
C5520 C5521 1.377 . S
C5521 H5505 0.930 . S
C5521 C5520 1.377 . S
C5521 C5522 1.379 . S
C5522 H5506 0.931 . S
C5522 C5516 1.383 . S
C5522 C5521 1.379 . S
H5523 C5517 0.959 . S
H5524 C5517 0.961 . S
H5525 C5517 0.960 . S
H5526 C5518 0.930 . S
H5527 C5519 0.929 . S
H5528 C5536 0.929 . S
H5529 C5538 0.930 . S
H5530 C5540 0.930 . S
H5531 C5543 0.929 . S
H5532 C5546 0.930 . S
H5533 C5548 0.960 . S
H5534 C5548 0.960 . S
H5535 C5548 0.960 . S
C5536 H5528 0.929 . S
C5536 C5537 1.377 . S
C5536 C5538 1.384 . S
C5537 C5536 1.377 . S
C5537 C5543 1.390 . S
C5538 H5529 0.930 . S
C5538 C5536 1.384 . S
C5538 C5539 1.372 . S
C5539 C5538 1.372 . S
C5539 C5540 1.400 . S
C5539 C5544 1.490 . S
C5540 H5530 0.930 . S
C5540 C5539 1.400 . S
C5540 C5543 1.386 . S
H5541 C5557 0.958 . S
H5542 C5558 0.931 . S
C5543 H5531 0.929 . S
C5543 C5537 1.390 . S
C5543 C5540 1.386 . S
C5544 C5539 1.490 . S
C5544 C5546 1.395 . S
C5544 C5547 1.403 . S
H5545 C5551 0.930 . S
C5546 H5532 0.930 . S
C5546 C5544 1.395 . S
C5546 C5549 1.403 . S
C5547 C5544 1.403 . S
C5547 C5548 1.524 . S
C5547 C5551 1.400 . S
C5548 H5533 0.960 . S
C5548 H5534 0.960 . S
C5548 H5535 0.960 . S
C5548 C5547 1.524 . S
C5549 C5546 1.403 . S
C5549 C5550 1.392 . S
C5549 C5553 1.495 . S
C5550 C5549 1.392 . S
C5550 C5551 1.385 . S
C5550 C5552 1.478 . S
C5551 H5545 0.930 . S
C5551 C5547 1.400 . S
C5551 C5550 1.385 . S
C5552 C5550 1.478 . S
C5552 C5554 1.381 . S
C5552 C5558 1.383 . S
C5553 C5549 1.495 . S
C5553 H5559 0.959 . S
C5553 H5560 0.961 . S
C5553 H5561 0.960 . S
C5554 C5552 1.381 . S
C5554 C5555 1.394 . S
C5554 H5562 0.930 . S
C5555 C5554 1.394 . S
C5555 C5556 1.383 . S
C5555 H5563 0.929 . S
C5556 C5555 1.383 . S
C5556 C5557 1.377 . S
C5557 H5541 0.958 . S
C5557 C5556 1.377 . S
C5557 C5558 1.379 . S
C5558 H5542 0.931 . S
C5558 C5552 1.383 . S
C5558 C5557 1.379 . S
H5559 C5553 0.959 . S
H5560 C5553 0.961 . S
H5561 C5553 0.960 . S
H5562 C5554 0.930 . S
H5563 C5555 0.929 . S
H5564 C5572 0.929 . S
H5565 C5574 0.930 . S
H5566 C5576 0.930 . S
H5567 C5579 0.929 . S
H5568 C5582 0.930 . S
H5569 C5584 0.960 . S
H5570 C5584 0.960 . S
H5571 C5584 0.960 . S
C5572 H5564 0.929 . S
C5572 C5573 1.377 . S
C5572 C5574 1.384 . S
C5573 C5572 1.377 . S
C5573 C5579 1.390 . S
C5574 H5565 0.930 . S
C5574 C5572 1.384 . S
C5574 C5575 1.372 . S
C5575 C5574 1.372 . S
C5575 C5576 1.400 . S
C5575 C5580 1.490 . S
C5576 H5566 0.930 . S
C5576 C5575 1.400 . S
C5576 C5579 1.386 . S
H5577 C5593 0.930 . S
H5578 C5594 0.931 . S
C5579 H5567 0.929 . S
C5579 C5573 1.390 . S
C5579 C5576 1.386 . S
C5580 C5575 1.490 . S
C5580 C5582 1.395 . S
C5580 C5583 1.403 . S
H5581 C5587 0.930 . S
C5582 H5568 0.930 . S
C5582 C5580 1.395 . S
C5582 C5585 1.403 . S
C5583 C5580 1.403 . S
C5583 C5584 1.524 . S
C5583 C5587 1.400 . S
C5584 H5569 0.960 . S
C5584 H5570 0.960 . S
C5584 H5571 0.960 . S
C5584 C5583 1.524 . S
C5585 C5582 1.403 . S
C5585 C5586 1.392 . S
C5585 C5589 1.495 . S
C5586 C5585 1.392 . S
C5586 C5587 1.385 . S
C5586 C5588 1.478 . S
C5587 H5581 0.930 . S
C5587 C5583 1.400 . S
C5587 C5586 1.385 . S
C5588 C5586 1.478 . S
C5588 C5590 1.381 . S
C5588 C5594 1.383 . S
C5589 C5585 1.495 . S
C5589 H5595 0.959 . S
C5589 H5596 0.961 . S
C5589 H5597 0.960 . S
C5590 C5588 1.381 . S
C5590 C5591 1.394 . S
C5590 H5598 0.930 . S
C5591 C5590 1.394 . S
C5591 C5592 1.383 . S
C5591 H5599 0.929 . S
C5592 C5591 1.383 . S
C5592 C5593 1.377 . S
C5593 H5577 0.930 . S
C5593 C5592 1.377 . S
C5593 C5594 1.379 . S
C5594 H5578 0.931 . S
C5594 C5588 1.383 . S
C5594 C5593 1.379 . S
H5595 C5589 0.959 . S
H5596 C5589 0.961 . S
H5597 C5589 0.960 . S
H5598 C5590 0.930 . S
H5599 C5591 0.929 . S
H5600 C5608 0.929 . S
H5601 C5610 0.930 . S
H5602 C5612 0.930 . S
H5603 C5615 0.929 . S
H5604 C5618 0.930 . S
H5605 C5620 0.960 . S
H5606 C5620 0.960 . S
H5607 C5620 0.960 . S
C5608 H5600 0.929 . S
C5608 C5609 1.377 . S
C5608 C5610 1.384 . S
C5609 C5608 1.377 . S
C5609 C5615 1.390 . S
C5610 H5601 0.930 . S
C5610 C5608 1.384 . S
C5610 C5611 1.372 . S
C5611 C5610 1.372 . S
C5611 C5612 1.400 . S
C5611 C5616 1.490 . S
C5612 H5602 0.930 . S
C5612 C5611 1.400 . S
C5612 C5615 1.386 . S
H5613 C5629 0.930 . S
H5614 C5630 0.931 . S
C5615 H5603 0.929 . S
C5615 C5609 1.390 . S
C5615 C5612 1.386 . S
C5616 C5611 1.490 . S
C5616 C5618 1.395 . S
C5616 C5619 1.403 . S
H5617 C5623 0.930 . S
C5618 H5604 0.930 . S
C5618 C5616 1.395 . S
C5618 C5621 1.403 . S
C5619 C5616 1.403 . S
C5619 C5620 1.524 . S
C5619 C5623 1.400 . S
C5620 H5605 0.960 . S
C5620 H5606 0.960 . S
C5620 H5607 0.960 . S
C5620 C5619 1.524 . S
C5621 C5618 1.403 . S
C5621 C5622 1.392 . S
C5621 C5625 1.495 . S
C5622 C5621 1.392 . S
C5622 C5623 1.385 . S
C5622 C5624 1.478 . S
C5623 H5617 0.930 . S
C5623 C5619 1.400 . S
C5623 C5622 1.385 . S
C5624 C5622 1.478 . S
C5624 C5626 1.381 . S
C5624 C5630 1.383 . S
C5625 C5621 1.495 . S
C5625 H5631 0.959 . S
C5625 H5632 0.961 . S
C5625 H5633 0.960 . S
C5626 C5624 1.381 . S
C5626 C5627 1.394 . S
C5626 H5634 0.930 . S
C5627 C5626 1.394 . S
C5627 C5628 1.383 . S
C5627 H5635 0.929 . S
C5628 C5627 1.383 . S
C5628 C5629 1.377 . S
C5629 H5613 0.930 . S
C5629 C5628 1.377 . S
C5629 C5630 1.379 . S
C5630 H5614 0.931 . S
C5630 C5624 1.383 . S
C5630 C5629 1.379 . S
H5631 C5625 0.959 . S
H5632 C5625 0.961 . S
H5633 C5625 0.960 . S
H5634 C5626 0.930 . S
H5635 C5627 0.929 . S
H5636 C5644 0.929 . S
H5637 C5646 0.930 . S
H5638 C5648 0.930 . S
H5639 C5651 0.929 . S
H5640 C5654 0.930 . S
H5641 C5656 0.960 . S
H5642 C5656 0.960 . S
H5643 C5656 0.960 . S
C5644 H5636 0.929 . S
C5644 C5645 1.377 . S
C5644 C5646 1.384 . S
C5645 C5644 1.377 . S
C5645 C5651 1.390 . S
C5646 H5637 0.930 . S
C5646 C5644 1.384 . S
C5646 C5647 1.372 . S
C5647 C5646 1.372 . S
C5647 C5648 1.400 . S
C5647 C5652 1.490 . S
C5648 H5638 0.930 . S
C5648 C5647 1.400 . S
C5648 C5651 1.386 . S
H5649 C5665 0.930 . S
H5650 C5666 0.931 . S
C5651 H5639 0.929 . S
C5651 C5645 1.390 . S
C5651 C5648 1.386 . S
C5652 C5647 1.490 . S
C5652 C5654 1.395 . S
C5652 C5655 1.403 . S
H5653 C5659 0.930 . S
C5654 H5640 0.930 . S
C5654 C5652 1.395 . S
C5654 C5657 1.403 . S
C5655 C5652 1.403 . S
C5655 C5656 1.524 . S
C5655 C5659 1.400 . S
C5656 H5641 0.960 . S
C5656 H5642 0.960 . S
C5656 H5643 0.960 . S
C5656 C5655 1.524 . S
C5657 C5654 1.403 . S
C5657 C5658 1.392 . S
C5657 C5661 1.495 1_565 S
C5658 C5657 1.392 . S
C5658 C5659 1.385 . S
C5658 C5660 1.478 . S
C5659 H5653 0.930 . S
C5659 C5655 1.400 . S
C5659 C5658 1.385 . S
C5660 C5658 1.478 . S
C5660 C5662 1.381 1_565 S
C5660 C5666 1.383 . S
C5661 C5657 1.495 1_545 S
C5661 H5667 0.959 . S
C5661 H5668 0.961 . S
C5661 H5669 0.960 . S
C5662 C5660 1.381 1_545 S
C5662 C5663 1.394 . S
C5662 H5670 0.930 . S
C5663 C5662 1.394 . S
C5663 C5664 1.383 . S
C5663 H5671 0.929 . S
C5664 C5663 1.383 . S
C5664 C5665 1.377 1_545 S
C5665 H5649 0.930 . S
C5665 C5664 1.377 1_565 S
C5665 C5666 1.379 . S
C5666 H5650 0.931 . S
C5666 C5660 1.383 . S
C5666 C5665 1.379 . S
H5667 C5661 0.959 . S
H5668 C5661 0.961 . S
H5669 C5661 0.960 . S
H5670 C5662 0.930 . S
H5671 C5663 0.929 . S
H5672 C5680 0.929 . S
H5673 C5682 0.930 . S
H5674 C5684 0.930 . S
H5675 C5687 0.929 . S
H5676 C5690 0.930 . S
H5677 C5692 0.960 . S
H5678 C5692 0.960 . S
H5679 C5692 0.960 . S
C5680 H5672 0.929 . S
C5680 C5681 1.377 . S
C5680 C5682 1.384 . S
C5681 C5680 1.377 . S
C5681 C5687 1.390 . S
C5682 H5673 0.930 . S
C5682 C5680 1.384 . S
C5682 C5683 1.372 . S
C5683 C5682 1.372 . S
C5683 C5684 1.400 . S
C5683 C5688 1.490 . S
C5684 H5674 0.930 . S
C5684 C5683 1.400 . S
C5684 C5687 1.386 . S
H5685 C5701 0.930 . S
H5686 C5702 0.931 . S
C5687 H5675 0.929 . S
C5687 C5681 1.390 . S
C5687 C5684 1.386 . S
C5688 C5683 1.490 . S
C5688 C5690 1.395 . S
C5688 C5691 1.403 . S
H5689 C5695 0.930 . S
C5690 H5676 0.930 . S
C5690 C5688 1.395 . S
C5690 C5693 1.403 . S
C5691 C5688 1.403 . S
C5691 C5692 1.524 . S
C5691 C5695 1.400 . S
C5692 H5677 0.960 . S
C5692 H5678 0.960 . S
C5692 H5679 0.960 . S
C5692 C5691 1.524 . S
C5693 C5690 1.403 . S
C5693 C5694 1.392 . S
C5693 C5697 1.495 . S
C5694 C5693 1.392 . S
C5694 C5695 1.385 . S
C5694 C5696 1.478 . S
C5695 H5689 0.930 . S
C5695 C5691 1.400 . S
C5695 C5694 1.385 . S
C5696 C5694 1.478 . S
C5696 C5698 1.381 . S
C5696 C5702 1.383 . S
C5697 C5693 1.495 . S
C5697 H5703 0.959 . S
C5697 H5704 0.961 . S
C5697 H5705 0.960 . S
C5698 C5696 1.381 . S
C5698 C5699 1.394 . S
C5698 H5706 0.930 . S
C5699 C5698 1.394 . S
C5699 C5700 1.383 . S
C5699 H5707 0.929 . S
C5700 C5699 1.383 . S
C5700 C5701 1.377 . S
C5701 H5685 0.930 . S
C5701 C5700 1.377 . S
C5701 C5702 1.379 . S
C5702 H5686 0.931 . S
C5702 C5696 1.383 . S
C5702 C5701 1.379 . S
H5703 C5697 0.959 . S
H5704 C5697 0.961 . S
H5705 C5697 0.960 . S
H5706 C5698 0.930 . S
H5707 C5699 0.929 . S
H5708 C5716 0.929 . S
H5709 C5718 0.930 . S
H5710 C5720 0.930 . S
H5711 C5723 0.929 . S
H5712 C5726 0.930 . S
H5713 C5728 0.960 . S
H5714 C5728 0.960 . S
H5715 C5728 0.960 . S
C5716 H5708 0.929 . S
C5716 C5717 1.377 1_554 S
C5716 C5718 1.384 . S
C5717 C5716 1.377 1_556 S
C5717 C5723 1.390 . S
C5718 H5709 0.930 . S
C5718 C5716 1.384 . S
C5718 C5719 1.372 . S
C5719 C5718 1.372 . S
C5719 C5720 1.400 1_554 S
C5719 C5724 1.490 . S
C5720 H5710 0.930 . S
C5720 C5719 1.400 1_556 S
C5720 C5723 1.386 . S
H5721 C5737 0.881 1_556 S
H5722 C5738 0.942 . S
C5723 H5711 0.929 . S
C5723 C5717 1.390 . S
C5723 C5720 1.386 . S
C5724 C5719 1.490 . S
C5724 C5726 1.395 . S
C5724 C5727 1.403 1_554 S
H5725 C5731 0.930 . S
C5726 H5712 0.930 . S
C5726 C5724 1.395 . S
C5726 C5729 1.403 . S
C5727 C5724 1.403 1_556 S
C5727 C5728 1.524 . S
C5727 C5731 1.400 . S
C5728 H5713 0.960 . S
C5728 H5714 0.960 . S
C5728 H5715 0.960 . S
C5728 C5727 1.524 . S
C5729 C5726 1.403 . S
C5729 C5730 1.392 . S
C5729 C5733 1.495 . S
C5730 C5729 1.392 . S
C5730 C5731 1.385 1_554 S
C5730 C5732 1.478 . S
C5731 H5725 0.930 . S
C5731 C5727 1.400 . S
C5731 C5730 1.385 1_556 S
C5732 C5730 1.478 . S
C5732 C5734 1.381 . S
C5732 C5738 1.374 1_554 S
C5733 C5729 1.495 . S
C5733 H5739 0.959 . S
C5733 H5740 0.961 . S
C5733 H5741 0.960 . S
C5734 C5732 1.381 . S
C5734 C5735 1.394 . S
C5734 H5742 0.930 . S
C5735 C5734 1.394 . S
C5735 C5736 1.383 . S
C5735 H5743 0.929 . S
C5736 C5735 1.383 . S
C5736 C5737 1.438 . S
C5737 H5721 0.881 1_554 S
C5737 C5736 1.438 . S
C5737 C5738 1.369 1_554 S
C5738 H5722 0.942 . S
C5738 C5732 1.374 1_556 S
C5738 C5737 1.369 1_556 S
H5739 C5733 0.959 . S
H5740 C5733 0.961 . S
H5741 C5733 0.960 . S
H5742 C5734 0.930 . S
H5743 C5735 0.929 . S
H5744 C5752 0.929 . S
H5745 C5754 0.930 . S
H5746 C5756 0.930 . S
H5747 C5759 0.929 . S
H5748 C5762 0.930 . S
H5749 C5764 0.960 . S
H5750 C5764 0.960 . S
H5751 C5764 0.960 . S
C5752 H5744 0.929 . S
C5752 C5753 1.377 . S
C5752 C5754 1.384 . S
C5753 C5752 1.377 . S
C5753 C5759 1.390 . S
C5754 H5745 0.930 . S
C5754 C5752 1.384 . S
C5754 C5755 1.372 . S
C5755 C5754 1.372 . S
C5755 C5756 1.400 . S
C5755 C5760 1.490 . S
C5756 H5746 0.930 . S
C5756 C5755 1.400 . S
C5756 C5759 1.386 . S
H5757 C5773 0.930 . S
H5758 C5774 0.931 . S
C5759 H5747 0.929 . S
C5759 C5753 1.390 . S
C5759 C5756 1.386 . S
C5760 C5755 1.490 . S
C5760 C5762 1.395 . S
C5760 C5763 1.403 . S
H5761 C5767 0.930 . S
C5762 H5748 0.930 . S
C5762 C5760 1.395 . S
C5762 C5765 1.403 . S
C5763 C5760 1.403 . S
C5763 C5764 1.524 . S
C5763 C5767 1.400 . S
C5764 H5749 0.960 . S
C5764 H5750 0.960 . S
C5764 H5751 0.960 . S
C5764 C5763 1.524 . S
C5765 C5762 1.403 . S
C5765 C5766 1.392 . S
C5765 C5769 1.495 . S
C5766 C5765 1.392 . S
C5766 C5767 1.385 . S
C5766 C5768 1.478 . S
C5767 H5761 0.930 . S
C5767 C5763 1.400 . S
C5767 C5766 1.385 . S
C5768 C5766 1.478 . S
C5768 C5770 1.381 . S
C5768 C5774 1.383 . S
C5769 C5765 1.495 . S
C5769 H5775 0.959 . S
C5769 H5776 0.961 . S
C5769 H5777 0.960 . S
C5770 C5768 1.381 . S
C5770 C5771 1.394 . S
C5770 H5778 0.930 . S
C5771 C5770 1.394 . S
C5771 C5772 1.383 . S
C5771 H5779 0.929 . S
C5772 C5771 1.383 . S
C5772 C5773 1.377 . S
C5773 H5757 0.930 . S
C5773 C5772 1.377 . S
C5773 C5774 1.379 . S
C5774 H5758 0.931 . S
C5774 C5768 1.383 . S
C5774 C5773 1.379 . S
H5775 C5769 0.959 . S
H5776 C5769 0.961 . S
H5777 C5769 0.960 . S
H5778 C5770 0.930 . S
H5779 C5771 0.929 . S
H5780 C5788 0.929 . S
H5781 C5790 0.930 . S
H5782 C5792 0.930 1_556 S
H5783 C5795 0.929 1_556 S
H5784 C5798 0.930 . S
H5785 C5800 0.960 . S
H5786 C5800 0.960 . S
H5787 C5800 0.960 . S
C5788 H5780 0.929 . S
C5788 C5789 1.377 . S
C5788 C5790 1.384 . S
C5789 C5788 1.377 . S
C5789 C5795 1.390 . S
C5790 H5781 0.930 . S
C5790 C5788 1.384 . S
C5790 C5791 1.372 . S
C5791 C5790 1.372 . S
C5791 C5792 1.400 . S
C5791 C5796 1.490 . S
C5792 H5782 0.930 1_554 S
C5792 C5791 1.400 . S
C5792 C5795 1.386 . S
H5793 C5809 0.930 . S
H5794 C5810 0.931 . S
C5795 H5783 0.929 1_554 S
C5795 C5789 1.390 . S
C5795 C5792 1.386 . S
C5796 C5791 1.490 . S
C5796 C5798 1.395 . S
C5796 C5799 1.403 . S
H5797 C5803 0.930 . S
C5798 H5784 0.930 . S
C5798 C5796 1.395 . S
C5798 C5801 1.403 . S
C5799 C5796 1.403 . S
C5799 C5800 1.524 . S
C5799 C5803 1.400 . S
C5800 H5785 0.960 . S
C5800 H5786 0.960 . S
C5800 H5787 0.960 . S
C5800 C5799 1.524 . S
C5801 C5798 1.403 . S
C5801 C5802 1.392 . S
C5801 C5805 1.495 . S
C5802 C5801 1.392 . S
C5802 C5803 1.385 . S
C5802 C5804 1.478 . S
C5803 H5797 0.930 . S
C5803 C5799 1.400 . S
C5803 C5802 1.385 . S
C5804 C5802 1.478 . S
C5804 C5806 1.381 . S
C5804 C5810 1.383 1_554 S
C5805 C5801 1.495 . S
C5805 H5811 0.959 . S
C5805 H5812 0.961 1_554 S
C5805 H5813 0.960 . S
C5806 C5804 1.381 . S
C5806 C5807 1.394 . S
C5806 H5814 0.930 . S
C5807 C5806 1.394 . S
C5807 C5808 1.383 . S
C5807 H5815 0.929 . S
C5808 C5807 1.383 . S
C5808 C5809 1.377 1_554 S
C5809 H5793 0.930 . S
C5809 C5808 1.377 1_556 S
C5809 C5810 1.379 . S
C5810 H5794 0.931 . S
C5810 C5804 1.383 1_556 S
C5810 C5809 1.379 . S
H5811 C5805 0.959 . S
H5812 C5805 0.961 1_556 S
H5813 C5805 0.960 . S
H5814 C5806 0.930 . S
H5815 C5807 0.929 . S
H5816 C5824 0.929 . S
H5817 C5826 0.930 . S
H5818 C5828 0.930 . S
H5819 C5831 0.929 . S
H5820 C5834 0.930 . S
H5821 C5836 0.960 . S
H5822 C5836 0.960 . S
H5823 C5836 0.960 . S
C5824 H5816 0.929 . S
C5824 C5825 1.377 . S
C5824 C5826 1.384 . S
C5825 C5824 1.377 . S
C5825 C5831 1.390 . S
C5826 H5817 0.930 . S
C5826 C5824 1.384 . S
C5826 C5827 1.372 . S
C5827 C5826 1.372 . S
C5827 C5828 1.400 . S
C5827 C5832 1.490 . S
C5828 H5818 0.930 . S
C5828 C5827 1.400 . S
C5828 C5831 1.386 . S
H5829 C5845 0.930 . S
H5830 C5846 0.931 . S
C5831 H5819 0.929 . S
C5831 C5825 1.390 . S
C5831 C5828 1.386 . S
C5832 C5827 1.490 . S
C5832 C5834 1.395 . S
C5832 C5835 1.403 . S
H5833 C5839 0.930 . S
C5834 H5820 0.930 . S
C5834 C5832 1.395 . S
C5834 C5837 1.403 . S
C5835 C5832 1.403 . S
C5835 C5836 1.524 . S
C5835 C5839 1.400 . S
C5836 H5821 0.960 . S
C5836 H5822 0.960 . S
C5836 H5823 0.960 . S
C5836 C5835 1.524 . S
C5837 C5834 1.403 . S
C5837 C5838 1.392 . S
C5837 C5841 1.495 . S
C5838 C5837 1.392 . S
C5838 C5839 1.385 . S
C5838 C5840 1.478 . S
C5839 H5833 0.930 . S
C5839 C5835 1.400 . S
C5839 C5838 1.385 . S
C5840 C5838 1.478 . S
C5840 C5842 1.381 . S
C5840 C5846 1.383 . S
C5841 C5837 1.495 . S
C5841 H5847 0.959 . S
C5841 H5848 0.961 . S
C5841 H5849 0.960 . S
C5842 C5840 1.381 . S
C5842 C5843 1.394 . S
C5842 H5850 0.930 . S
C5843 C5842 1.394 . S
C5843 C5844 1.383 . S
C5843 H5851 0.929 . S
C5844 C5843 1.383 . S
C5844 C5845 1.377 . S
C5845 H5829 0.930 . S
C5845 C5844 1.377 . S
C5845 C5846 1.379 . S
C5846 H5830 0.931 . S
C5846 C5840 1.383 . S
C5846 C5845 1.379 . S
H5847 C5841 0.959 . S
H5848 C5841 0.961 . S
H5849 C5841 0.960 . S
H5850 C5842 0.930 . S
H5851 C5843 0.929 . S
H5852 C5860 0.929 . S
H5853 C5862 0.930 . S
H5854 C5864 0.930 . S
H5855 C5867 0.929 . S
H5856 C5870 0.930 . S
H5857 C5872 0.960 . S
H5858 C5872 0.960 . S
H5859 C5872 0.960 . S
C5860 H5852 0.929 . S
C5860 C5861 1.377 . S
C5860 C5862 1.384 . S
C5861 C5860 1.377 . S
C5861 C5867 1.390 . S
C5862 H5853 0.930 . S
C5862 C5860 1.384 . S
C5862 C5863 1.372 . S
C5863 C5862 1.372 . S
C5863 C5864 1.400 . S
C5863 C5868 1.490 . S
C5864 H5854 0.930 . S
C5864 C5863 1.400 . S
C5864 C5867 1.386 . S
H5865 C5881 0.930 . S
H5866 C5882 0.931 . S
C5867 H5855 0.929 . S
C5867 C5861 1.390 . S
C5867 C5864 1.386 . S
C5868 C5863 1.490 . S
C5868 C5870 1.395 . S
C5868 C5871 1.403 . S
H5869 C5875 0.930 . S
C5870 H5856 0.930 . S
C5870 C5868 1.395 . S
C5870 C5873 1.403 . S
C5871 C5868 1.403 . S
C5871 C5872 1.524 . S
C5871 C5875 1.400 . S
C5872 H5857 0.960 . S
C5872 H5858 0.960 . S
C5872 H5859 0.960 . S
C5872 C5871 1.524 . S
C5873 C5870 1.403 . S
C5873 C5874 1.392 . S
C5873 C5877 1.495 . S
C5874 C5873 1.392 . S
C5874 C5875 1.385 . S
C5874 C5876 1.478 . S
C5875 H5869 0.930 . S
C5875 C5871 1.400 . S
C5875 C5874 1.385 . S
C5876 C5874 1.478 . S
C5876 C5878 1.381 . S
C5876 C5882 1.383 . S
C5877 C5873 1.495 . S
C5877 H5883 0.959 . S
C5877 H5884 0.961 . S
C5877 H5885 0.960 . S
C5878 C5876 1.381 . S
C5878 C5879 1.394 . S
C5878 H5886 0.930 . S
C5879 C5878 1.394 . S
C5879 C5880 1.383 . S
C5879 H5887 0.929 . S
C5880 C5879 1.383 . S
C5880 C5881 1.377 . S
C5881 H5865 0.930 . S
C5881 C5880 1.377 . S
C5881 C5882 1.379 . S
C5882 H5866 0.931 . S
C5882 C5876 1.383 . S
C5882 C5881 1.379 . S
H5883 C5877 0.959 . S
H5884 C5877 0.961 . S
H5885 C5877 0.960 . S
H5886 C5878 0.930 . S
H5887 C5879 0.929 . S
C2441 C665 1.372 . S
C2460 C2130 1.378 . S
C2477 C381 1.473 . S
C2496 C2141 1.463 . S
C2513 C460 0.636 . S
C2532 C2170 0.595 . S
C2568 C2173 1.408 . S
C2549 C585 1.409 . S
C2585 C108 1.511 . S
C2604 C2211 1.437 . S
C2640 C2214 0.584 . S
C2621 C196 0.582 . S
C2676 C2241 1.309 . S
C2657 C313 1.305 . S
C2693 C49 1.535 . S
C2712 C2270 1.477 . S
C2748 C2121 1.368 1_655 S
C2729 C1457 1.392 . S
C2765 C1545 0.487 . S
C2784 C2133 0.569 . S
C2820 C2161 1.605 . S
C2801 C1721 1.619 . S
C2856 C2190 0.846 . S
C2837 C1113 0.846 . S
C2873 C1428 0.740 . S
C2892 C2194 0.729 . S
C2928 C2220 1.646 . S
C2909 C1516 1.653 . S
C2964 C2233 0.447 . S
C2945 C1692 0.402 . S
C3000 C2261 1.501 . S
C2981 C1085 1.501 . S
C3036 C2113 1.467 . S
C3017 C988 1.482 . S
C3053 C1817 1.725 . S
C3072 C2280 1.683 . S
C3108 C2311 1.302 . S
C3089 C2081 1.381 . S
C3144 C2330 0.639 . S
C3125 C1993 0.657 . S
C3161 C761 1.232 . S
C3180 C2253 1.194 . S
C3197 C821 1.298 . S
C3216 C2153 1.267 . S
C3233 C2053 1.562 . S
C3252 C2341 1.527 . S
C3288 C2370 0.645 . S
C3269 C1868 0.601 . S
C3324 C2131 1.347 . S
C3305 C372 1.376 . S
C3360 C2360 1.469 . S
C3341 C645 1.468 . S
C3377 C577 0.625 . S
C3396 C2171 0.588 . S
C3413 C497 1.405 . S
C3432 C2334 1.379 . S
C3468 C2210 1.464 . S
C3449 C57 1.506 . S
C3485 C293 0.591 . S
C3504 C2293 0.577 . S
C3540 C2240 1.324 . S
C3521 C205 1.300 . S
C3576 C2391 1.516 . S
C3557 C145 1.530 . S
C3612 C2120 1.373 . S
C3593 C909 1.387 . S
C3648 C2354 0.560 . S
C3629 C1956 0.475 . S
C3665 C724 1.617 . S
C3684 C2160 1.603 . S
C3701 C1780 0.835 . S
C3720 C2351 0.846 . S
C3737 C937 0.722 . S
C3756 C2193 0.723 . S
C3792 C2301 1.638 . S
C3773 C1985 1.645 . S
C3809 C753 0.399 . S
C3828 C2234 0.486 . S
C3845 C1809 1.493 . S
C3864 C2380 1.467 . S
C3881 C1173 1.478 . S
C3900 C2114 1.439 . S
C3917 C1105 1.723 . S
C3936 C2281 1.685 . S
C3953 C1633 1.379 . S
C3972 C2230 1.314 . S
C3989 C1553 0.650 . S
C4008 C2331 0.687 . S
C4044 C2374 1.230 . S
C4025 C1729 1.230 . S
C4061 C1340 1.299 . S
C4080 C2154 1.277 1_565 S
C4116 C2180 1.553 . S
C4097 C1604 1.557 . S
C4152 C2151 0.652 . S
C4133 C1252 0.602 . S
C4169 C489 1.379 . S
C4188 C2410 1.342 . S
C4224 C2361 1.458 . S
C4205 C557 1.470 . S
C4241 C636 0.625 . S
C4260 C2430 0.674 . S
C4277 C409 1.409 . S
C4296 C2333 1.380 . S
C4313 C284 1.510 . S
C4332 C2291 1.463 . S
C4368 C2294 0.592 . S
C4349 C20 0.585 . S
C4404 C2321 1.304 . S
C4385 C137 1.312 . S
C4440 C2390 1.483 . S
C4421 C225 1.536 . S
C4476 C2401 1.358 . S
C4457 C1641 1.391 . S
C4493 C1193 0.478 . S
C4512 C2353 0.536 . S
C4548 C2421 1.589 . S
C4529 C1289 1.621 . S
C4584 C2350 0.848 . S
C4565 C1377 0.851 . S
C4620 C2274 0.737 . S
C4601 C1613 0.728 . S
C4637 C1164 1.653 . S
C4656 C2300 1.639 . S
C4692 C2313 0.511 . S
C4673 C1261 0.411 . S
C4709 C1349 1.503 . S
C4728 C2381 1.481 . S
C4764 C2393 1.477 . S
C4745 C1965 1.480 . S
C4781 C849 1.727 . S
C4800 C2200 1.708 . S
C4836 C2231 1.336 . S
C4817 C929 1.389 . S
C4872 C2250 0.658 . S
C4853 C1017 0.660 . S
C4908 C2373 1.225 . S
C4889 C1897 1.234 . S
C4925 C1789 1.299 . S
C4944 C2413 1.272 . S
C4980 C2181 1.522 . S
C4961 C900 1.553 . S
C5016 C2150 0.569 . S
C4997 C733 0.612 . S
C5033 C548 1.373 . S
C5052 C2411 1.332 . S
C5088 C2140 1.447 . S
C5069 C469 1.465 . S
C5105 C401 0.624 . S
C5124 C2431 0.590 . S
C5141 C673 1.405 . S
C5160 C2174 1.377 . S
C5177 C233 1.506 . S
C5196 C2290 1.445 1_556 S
C5232 C2213 0.587 . S
C5213 C117 0.580 . S
C5249 C29 1.299 . S
C5268 C2320 1.298 . S
C5285 C321 1.531 . S
C5304 C2271 1.512 . S
C5340 C2400 1.389 . S
C5321 C2044 1.388 . S
C5357 C997 0.475 . S
C5376 C2134 0.557 . S
C5412 C2420 1.588 1_655 S
C5393 C1877 1.614 . S
C5429 C812 0.835 . S
C5448 C2191 0.831 . S
C5465 C2073 0.722 . S
C5484 C2273 0.731 . S
C5520 C2221 1.639 . S
C5501 C1025 1.645 . S
C5537 C1905 0.398 . S
C5556 C2314 0.480 . S
C5592 C2260 1.463 . S
C5573 C841 1.493 . S
C5628 C2394 1.449 . S
C5609 C1525 1.476 . S
C5664 C2201 1.691 . S
C5645 C1369 1.721 . S
C5681 C1465 1.379 . S
C5700 C2310 1.301 . S
C5736 C2251 0.623 . S
C5717 C1201 0.654 . S
C5753 C1281 1.229 . S
C5772 C2254 1.193 . S
C5789 C1076 1.299 . S
C5808 C2414 1.276 . S
C5844 C2340 1.551 . S
C5825 C1437 1.558 . S
C5880 C2371 0.563 . S
C5861 C1701 0.598 . S
