# Generated by pormake.
# Topology ocu, (6,8)-cn, num edge types: 1
# Building blocks:
#     Node 0, Type 0, BuildingBlock: HISSIN_clean_sbu_0, # of connection points: 6
#     Node 1, Type 0, BuildingBlock: HISSIN_clean_sbu_0, # of connection points: 6
#     Node 2, Type 0, BuildingBlock: HISSIN_clean_sbu_0, # of connection points: 6
#     Node 3, Type 0, BuildingBlock: HISSIN_clean_sbu_0, # of connection points: 6
#     Node 4, Type 0, BuildingBlock: HISSIN_clean_sbu_0, # of connection points: 6
#     Node 5, Type 0, BuildingBlock: HISSIN_clean_sbu_0, # of connection points: 6
#     Node 6, Type 0, BuildingBlock: HISSIN_clean_sbu_0, # of connection points: 6
#     Node 7, Type 0, BuildingBlock: HISSIN_clean_sbu_0, # of connection points: 6
#     Node 8, Type 1, BuildingBlock: AJUNOK_clean_sbu_0, # of connection points: 8
#     Node 9, Type 1, BuildingBlock: AJUNOK_clean_sbu_0, # of connection points: 8
#     Node 10, Type 1, BuildingBlock: AJUNOK_clean_sbu_0, # of connection points: 8
#     Node 11, Type 1, BuildingBlock: AJUNOK_clean_sbu_0, # of connection points: 8
#     Node 12, Type 1, BuildingBlock: AJUNOK_clean_sbu_0, # of connection points: 8
#     Node 13, Type 1, BuildingBlock: AJUNOK_clean_sbu_0, # of connection points: 8
#     Edge 14, Type (0, 1), BuildingBlock: UVAHIK_clean_linker_0, # of connection points: 2
#     Edge 15, Type (0, 1), BuildingBlock: UVAHIK_clean_linker_0, # of connection points: 2
#     Edge 16, Type (0, 1), BuildingBlock: UVAHIK_clean_linker_0, # of connection points: 2
#     Edge 17, Type (0, 1), BuildingBlock: UVAHIK_clean_linker_0, # of connection points: 2
#     Edge 18, Type (0, 1), BuildingBlock: UVAHIK_clean_linker_0, # of connection points: 2
#     Edge 19, Type (0, 1), BuildingBlock: UVAHIK_clean_linker_0, # of connection points: 2
#     Edge 20, Type (0, 1), BuildingBlock: UVAHIK_clean_linker_0, # of connection points: 2
#     Edge 21, Type (0, 1), BuildingBlock: UVAHIK_clean_linker_0, # of connection points: 2
#     Edge 22, Type (0, 1), BuildingBlock: UVAHIK_clean_linker_0, # of connection points: 2
#     Edge 23, Type (0, 1), BuildingBlock: UVAHIK_clean_linker_0, # of connection points: 2
#     Edge 24, Type (0, 1), BuildingBlock: UVAHIK_clean_linker_0, # of connection points: 2
#     Edge 25, Type (0, 1), BuildingBlock: UVAHIK_clean_linker_0, # of connection points: 2
#     Edge 26, Type (0, 1), BuildingBlock: UVAHIK_clean_linker_0, # of connection points: 2
#     Edge 27, Type (0, 1), BuildingBlock: UVAHIK_clean_linker_0, # of connection points: 2
#     Edge 28, Type (0, 1), BuildingBlock: UVAHIK_clean_linker_0, # of connection points: 2
#     Edge 29, Type (0, 1), BuildingBlock: UVAHIK_clean_linker_0, # of connection points: 2
#     Edge 30, Type (0, 1), BuildingBlock: UVAHIK_clean_linker_0, # of connection points: 2
#     Edge 31, Type (0, 1), BuildingBlock: UVAHIK_clean_linker_0, # of connection points: 2
#     Edge 32, Type (0, 1), BuildingBlock: UVAHIK_clean_linker_0, # of connection points: 2
#     Edge 33, Type (0, 1), BuildingBlock: UVAHIK_clean_linker_0, # of connection points: 2
#     Edge 34, Type (0, 1), BuildingBlock: UVAHIK_clean_linker_0, # of connection points: 2
#     Edge 35, Type (0, 1), BuildingBlock: UVAHIK_clean_linker_0, # of connection points: 2
#     Edge 36, Type (0, 1), BuildingBlock: UVAHIK_clean_linker_0, # of connection points: 2
#     Edge 37, Type (0, 1), BuildingBlock: UVAHIK_clean_linker_0, # of connection points: 2
#     Edge 38, Type (0, 1), BuildingBlock: UVAHIK_clean_linker_0, # of connection points: 2
#     Edge 39, Type (0, 1), BuildingBlock: UVAHIK_clean_linker_0, # of connection points: 2
#     Edge 40, Type (0, 1), BuildingBlock: UVAHIK_clean_linker_0, # of connection points: 2
#     Edge 41, Type (0, 1), BuildingBlock: UVAHIK_clean_linker_0, # of connection points: 2
#     Edge 42, Type (0, 1), BuildingBlock: UVAHIK_clean_linker_0, # of connection points: 2
#     Edge 43, Type (0, 1), BuildingBlock: UVAHIK_clean_linker_0, # of connection points: 2
#     Edge 44, Type (0, 1), BuildingBlock: UVAHIK_clean_linker_0, # of connection points: 2
#     Edge 45, Type (0, 1), BuildingBlock: UVAHIK_clean_linker_0, # of connection points: 2
#     Edge 46, Type (0, 1), BuildingBlock: UVAHIK_clean_linker_0, # of connection points: 2
#     Edge 47, Type (0, 1), BuildingBlock: UVAHIK_clean_linker_0, # of connection points: 2
#     Edge 48, Type (0, 1), BuildingBlock: UVAHIK_clean_linker_0, # of connection points: 2
#     Edge 49, Type (0, 1), BuildingBlock: UVAHIK_clean_linker_0, # of connection points: 2
#     Edge 50, Type (0, 1), BuildingBlock: UVAHIK_clean_linker_0, # of connection points: 2
#     Edge 51, Type (0, 1), BuildingBlock: UVAHIK_clean_linker_0, # of connection points: 2
#     Edge 52, Type (0, 1), BuildingBlock: UVAHIK_clean_linker_0, # of connection points: 2
#     Edge 53, Type (0, 1), BuildingBlock: UVAHIK_clean_linker_0, # of connection points: 2
#     Edge 54, Type (0, 1), BuildingBlock: UVAHIK_clean_linker_0, # of connection points: 2
#     Edge 55, Type (0, 1), BuildingBlock: UVAHIK_clean_linker_0, # of connection points: 2
#     Edge 56, Type (0, 1), BuildingBlock: UVAHIK_clean_linker_0, # of connection points: 2
#     Edge 57, Type (0, 1), BuildingBlock: UVAHIK_clean_linker_0, # of connection points: 2
#     Edge 58, Type (0, 1), BuildingBlock: UVAHIK_clean_linker_0, # of connection points: 2
#     Edge 59, Type (0, 1), BuildingBlock: UVAHIK_clean_linker_0, # of connection points: 2
#     Edge 60, Type (0, 1), BuildingBlock: UVAHIK_clean_linker_0, # of connection points: 2
#     Edge 61, Type (0, 1), BuildingBlock: UVAHIK_clean_linker_0, # of connection points: 2
# Relax obj value: 0.126
# Max RMSD: 0.190
# Mean RMSD: 0.165
data_MOF--net-ocu--node1-HISSIN_clean_sbu_0--node2-AJUNOK_clean_sbu_0--edge1-UVAHIK_clean_linker_0
_symmetry_space_group_name_H-M    P1
_symmetry_Int_Tables_number       1
_symmetry_cell_setting            triclinic
loop_
_symmetry_equiv_pos_as_xyz
'x, y, z'
_cell_length_a     55.267772
_cell_length_b     56.267548
_cell_length_c     45.957129
_cell_angle_alpha  104.44885
_cell_angle_beta   90.078306
_cell_angle_gamma 110.72908
loop_
_atom_site_label
_atom_site_type_symbol
_atom_site_fract_x
_atom_site_fract_y
_atom_site_fract_z
_atom_type_partial_charge
Eu0 Eu 0.28701 0.2545 0.28224 0.0
Eu1 Eu 0.24892 0.24363 0.22063 0.0
C2 C 0.23512 0.20411 0.26251 0.0
C3 C 0.32919 0.23988 0.33505 0.0
C4 C 0.32833 0.21729 0.31279 0.0
C5 C 0.3537 0.22869 0.37006 0.0
C6 C 0.34018 0.20059 0.31906 0.0
C7 C 0.34192 0.24543 0.36371 0.0
C8 C 0.35303 0.20605 0.34781 0.0
C9 C 0.31679 0.25755 0.32846 0.0
O10 O 0.24362 0.27747 0.25497 0.0
O11 O 0.25529 0.27026 0.299 0.0
C12 C 0.24318 0.28087 0.2843 0.0
O13 O 0.3007 0.29347 0.27035 0.0
O14 O 0.20989 0.23157 0.19835 0.0
O15 O 0.24323 0.24574 0.17434 0.0
O16 O 0.28623 0.27665 0.21994 0.0
C17 C 0.30034 0.29606 0.24272 0.0
O18 O 0.30513 0.23717 0.24241 0.0
O19 O 0.26982 0.2147 0.20693 0.0
O20 O 0.22588 0.21684 0.24799 0.0
O21 O 0.32549 0.26826 0.30659 0.0
O22 O 0.29145 0.24884 0.32705 0.0
O23 O 0.26011 0.21201 0.27007 0.0
C24 C 0.20752 0.25822 0.16715 0.0
C25 C 0.2156 0.2844 0.18497 0.0
C26 C 0.17725 0.26692 0.13665 0.0
C27 C 0.20447 0.30167 0.17882 0.0
C28 C 0.18838 0.24965 0.14288 0.0
C29 C 0.18499 0.29314 0.15468 0.0
C30 C 0.21819 0.23962 0.1747 0.0
C31 C 0.29366 0.21884 0.21737 0.0
H32 H 0.31843 0.21254 0.29055 0.0
H33 H 0.36366 0.23372 0.39231 0.0
H34 H 0.33896 0.1832 0.30148 0.0
H35 H 0.34282 0.26277 0.38119 0.0
H36 H 0.2303 0.2914 0.20391 0.0
H37 H 0.16262 0.25972 0.11762 0.0
H38 H 0.21072 0.32154 0.19346 0.0
H39 H 0.18187 0.22951 0.12887 0.0
Eu40 Eu 0.79231 0.23631 0.23044 0.0
Eu41 Eu 0.74462 0.25989 0.23968 0.0
C42 C 0.78801 0.27432 0.29397 0.0
C43 C 0.8414 0.20543 0.24304 0.0
C44 C 0.84974 0.2179 0.27377 0.0
C45 C 0.85477 0.16966 0.24721 0.0
C46 C 0.86067 0.20632 0.29106 0.0
C47 C 0.84412 0.18134 0.22992 0.0
C48 C 0.86319 0.18197 0.27801 0.0
C49 C 0.82856 0.2163 0.22456 0.0
O50 O 0.77908 0.29152 0.22914 0.0
O51 O 0.80135 0.26636 0.20401 0.0
C52 C 0.7964 0.28814 0.21066 0.0
O53 O 0.76343 0.21474 0.18944 0.0
O54 O 0.73058 0.29244 0.25384 0.0
O55 O 0.70319 0.25245 0.23598 0.0
O56 O 0.74401 0.24471 0.18958 0.0
C57 C 0.74975 0.22432 0.17563 0.0
O58 O 0.76655 0.21589 0.2613 0.0
O59 O 0.72884 0.21848 0.24455 0.0
O60 O 0.76327 0.2687 0.28658 0.0
O61 O 0.80405 0.20245 0.21572 0.0
O62 O 0.83339 0.24162 0.23317 0.0
O63 O 0.80341 0.26824 0.2741 0.0
C64 C 0.69345 0.28642 0.22307 0.0
C65 C 0.68515 0.27163 0.1929 0.0
C66 C 0.67759 0.31932 0.21403 0.0
C67 C 0.67295 0.28049 0.17357 0.0
C68 C 0.68959 0.31032 0.23346 0.0
C69 C 0.66909 0.30444 0.18391 0.0
C70 C 0.70656 0.27742 0.24367 0.0
C71 C 0.74114 0.20794 0.25878 0.0
H72 H 0.84762 0.23643 0.28448 0.0
H73 H 0.85587 0.15065 0.23651 0.0
H74 H 0.86719 0.2165 0.31461 0.0
H75 H 0.83753 0.17129 0.20633 0.0
H76 H 0.68811 0.25323 0.18417 0.0
H77 H 0.67464 0.33774 0.22267 0.0
H78 H 0.66683 0.26877 0.1504 0.0
H79 H 0.69589 0.32205 0.2566 0.0
Eu80 Eu 0.77656 0.77033 0.22292 0.0
Eu81 Eu 0.76535 0.72739 0.26523 0.0
C82 C 0.74571 0.70872 0.19609 0.0
C83 C 0.76712 0.82224 0.18933 0.0
C84 C 0.74689 0.82363 0.20729 0.0
C85 C 0.75783 0.85095 0.16283 0.0
C86 C 0.73179 0.83801 0.20255 0.0
C87 C 0.77275 0.83634 0.16742 0.0
C88 C 0.73677 0.85148 0.17987 0.0
C89 C 0.78015 0.80368 0.19081 0.0
O90 O 0.79675 0.7209 0.23693 0.0
O91 O 0.81162 0.75718 0.21744 0.0
C92 C 0.81349 0.7355 0.22214 0.0
O93 O 0.78731 0.79243 0.2719 0.0
O94 O 0.75312 0.6871 0.26957 0.0
O95 O 0.76716 0.71993 0.30949 0.0
O96 O 0.8014 0.7625 0.2838 0.0
C97 C 0.80009 0.78592 0.29059 0.0
O98 O 0.73653 0.76463 0.23899 0.0
O99 O 0.74032 0.75168 0.28182 0.0
O100 O 0.73786 0.70771 0.22287 0.0
O101 O 0.79588 0.80926 0.21491 0.0
O102 O 0.76497 0.77889 0.18268 0.0
O103 O 0.7639 0.72971 0.1921 0.0
C104 C 0.77827 0.68272 0.30801 0.0
C105 C 0.80464 0.69153 0.30292 0.0
C106 C 0.78498 0.65022 0.33015 0.0
C107 C 0.82105 0.67972 0.31131 0.0
C108 C 0.76859 0.66202 0.3217 0.0
C109 C 0.81146 0.65885 0.32501 0.0
C110 C 0.7607 0.69454 0.29837 0.0
C111 C 0.72976 0.76283 0.26609 0.0
H112 H 0.74225 0.81288 0.22433 0.0
H113 H 0.76208 0.86089 0.14502 0.0
H114 H 0.71596 0.83826 0.21634 0.0
H115 H 0.78811 0.83531 0.15311 0.0
H116 H 0.81251 0.70752 0.29241 0.0
H117 H 0.77676 0.63399 0.34023 0.0
H118 H 0.84134 0.68717 0.30732 0.0
H119 H 0.74826 0.65482 0.32566 0.0
Eu120 Eu 0.27931 0.74752 0.25137 0.0
Eu121 Eu 0.23199 0.77031 0.25855 0.0
C122 C 0.23679 0.73258 0.19593 0.0
C123 C 0.33451 0.73223 0.2165 0.0
C124 C 0.32484 0.73267 0.18844 0.0
C125 C 0.37522 0.73328 0.19619 0.0
C126 C 0.33997 0.7327 0.1642 0.0
C127 C 0.35992 0.73296 0.22041 0.0
C128 C 0.36519 0.73272 0.16776 0.0
C129 C 0.31823 0.73176 0.2417 0.0
O130 O 0.22636 0.7434 0.28885 0.0
O131 O 0.2452 0.71575 0.26218 0.0
C132 C 0.22957 0.72075 0.28218 0.0
O133 O 0.28017 0.76497 0.30122 0.0
O134 O 0.19093 0.76301 0.26392 0.0
O135 O 0.21744 0.80231 0.26465 0.0
O136 O 0.26327 0.79569 0.29652 0.0
C137 C 0.27625 0.78699 0.31252 0.0
O138 O 0.29466 0.78833 0.24483 0.0
O139 O 0.25717 0.79095 0.22733 0.0
O140 O 0.22066 0.73802 0.21511 0.0
O141 O 0.32062 0.75482 0.25906 0.0
O142 O 0.29396 0.71593 0.23482 0.0
O143 O 0.26151 0.73936 0.20431 0.0
C144 C 0.18758 0.7983 0.30143 0.0
C145 C 0.20691 0.81558 0.32473 0.0
C146 C 0.15521 0.79626 0.33735 0.0
C147 C 0.20044 0.8233 0.35394 0.0
C148 C 0.16169 0.78868 0.30795 0.0
C149 C 0.17455 0.81366 0.3607 0.0
C150 C 0.19487 0.78814 0.27138 0.0
C151 C 0.2826 0.79872 0.23004 0.0
H152 H 0.30544 0.73265 0.18515 0.0
H153 H 0.39453 0.73299 0.19938 0.0
H154 H 0.33186 0.73239 0.14257 0.0
H155 H 0.36777 0.73295 0.24202 0.0
H156 H 0.22716 0.82298 0.32053 0.0
H157 H 0.13511 0.78826 0.34184 0.0
H158 H 0.21578 0.83714 0.37113 0.0
H159 H 0.14658 0.77492 0.29044 0.0
Eu160 Eu 0.29862 0.73029 0.73908 0.0
Eu161 Eu 0.256 0.7598 0.75068 0.0
C162 C 0.29561 0.76611 0.8044 0.0
C163 C 0.34637 0.70162 0.75762 0.0
C164 C 0.33523 0.69896 0.78462 0.0
C165 C 0.38337 0.69381 0.77581 0.0
C166 C 0.34798 0.69357 0.80698 0.0
C167 C 0.3705 0.69904 0.75333 0.0
C168 C 0.37222 0.69102 0.80287 0.0
C169 C 0.33355 0.70866 0.73487 0.0
O170 O 0.29386 0.78935 0.74338 0.0
O171 O 0.3096 0.76056 0.71279 0.0
C172 C 0.30889 0.78423 0.72259 0.0
O173 O 0.26886 0.71103 0.69847 0.0
O174 O 0.24694 0.79483 0.77073 0.0
O175 O 0.21669 0.75905 0.74449 0.0
O176 O 0.25486 0.74519 0.70034 0.0
C177 C 0.25685 0.72283 0.68569 0.0
O178 O 0.27016 0.70946 0.76754 0.0
O179 O 0.23513 0.71826 0.75346 0.0
O180 O 0.27132 0.762 0.79687 0.0
O181 O 0.30868 0.69516 0.72796 0.0
O182 O 0.33923 0.7339 0.73893 0.0
O183 O 0.3109 0.76086 0.78395 0.0
C184 C 0.21445 0.79955 0.74192 0.0
C185 C 0.21365 0.79423 0.71033 0.0
C186 C 0.19773 0.83422 0.74317 0.0
C187 C 0.20448 0.80853 0.69523 0.0
C188 C 0.20669 0.81977 0.75824 0.0
C189 C 0.19627 0.82854 0.71149 0.0
C190 C 0.22308 0.78405 0.75809 0.0
C191 C 0.24509 0.70442 0.76533 0.0
H192 H 0.31679 0.70134 0.78854 0.0
H193 H 0.40192 0.69171 0.77191 0.0
H194 H 0.33907 0.69185 0.82772 0.0
H195 H 0.37946 0.70128 0.73274 0.0
H196 H 0.21985 0.77887 0.69733 0.0
H197 H 0.19129 0.84936 0.75625 0.0
H198 H 0.20381 0.80394 0.67083 0.0
H199 H 0.20727 0.82416 0.78263 0.0
Eu200 Eu 0.28662 0.27766 0.72414 0.0
Eu201 Eu 0.27465 0.23765 0.77002 0.0
C202 C 0.23929 0.22304 0.70925 0.0
C203 C 0.27745 0.32627 0.68484 0.0
C204 C 0.25537 0.32621 0.69992 0.0
C205 C 0.26978 0.35507 0.65721 0.0
C206 C 0.24037 0.3401 0.6934 0.0
C207 C 0.28471 0.34105 0.6637 0.0
C208 C 0.24712 0.35447 0.67161 0.0
C209 C 0.29143 0.30911 0.6891 0.0
O210 O 0.29671 0.22249 0.73326 0.0
O211 O 0.31802 0.25944 0.71703 0.0
C212 C 0.31527 0.23551 0.71893 0.0
O213 O 0.30034 0.30148 0.77205 0.0
O214 O 0.26064 0.19833 0.77722 0.0
O215 O 0.27926 0.23246 0.81498 0.0
O216 O 0.31303 0.27087 0.78378 0.0
C217 C 0.31282 0.29472 0.79074 0.0
O218 O 0.25044 0.28017 0.74625 0.0
O219 O 0.25314 0.26526 0.7882 0.0
O220 O 0.2389 0.22317 0.7378 0.0
O221 O 0.30573 0.31604 0.71464 0.0
O222 O 0.27757 0.28397 0.6812 0.0
O223 O 0.25978 0.23742 0.69886 0.0
C224 C 0.28688 0.19355 0.81399 0.0
C225 C 0.31187 0.19842 0.80444 0.0
C226 C 0.29274 0.16211 0.83853 0.0
C227 C 0.32721 0.18522 0.81189 0.0
C228 C 0.27743 0.17536 0.83109 0.0
C229 C 0.31784 0.16682 0.82899 0.0
C230 C 0.27035 0.20676 0.8054 0.0
C231 C 0.2437 0.27786 0.77329 0.0
H232 H 0.24931 0.31479 0.71615 0.0
H233 H 0.27593 0.36624 0.64072 0.0
H234 H 0.22296 0.33879 0.70474 0.0
H235 H 0.30163 0.34131 0.65171 0.0
H236 H 0.31946 0.21237 0.79112 0.0
H237 H 0.2847 0.14782 0.85132 0.0
H238 H 0.34652 0.18964 0.80447 0.0
H239 H 0.2581 0.17121 0.83846 0.0
Eu240 Eu 0.79358 0.23629 0.7528 0.0
Eu241 Eu 0.74474 0.25689 0.76172 0.0
C242 C 0.75005 0.22016 0.69762 0.0
C243 C 0.8344 0.20012 0.71445 0.0
C244 C 0.8123 0.18098 0.69617 0.0
C245 C 0.86174 0.18662 0.67785 0.0
C246 C 0.8149 0.16471 0.66893 0.0
C247 C 0.85912 0.20278 0.7052 0.0
C248 C 0.83965 0.16748 0.6593 0.0
C249 C 0.83151 0.2192 0.74117 0.0
O250 O 0.73989 0.22756 0.78839 0.0
O251 O 0.75832 0.20205 0.7572 0.0
C252 C 0.7426 0.20489 0.778 0.0
O253 O 0.796 0.25341 0.80288 0.0
O254 O 0.70284 0.2468 0.76037 0.0
O255 O 0.72869 0.28788 0.77393 0.0
O256 O 0.7736 0.28086 0.80249 0.0
C257 C 0.78909 0.27317 0.81642 0.0
O258 O 0.80777 0.27941 0.75403 0.0
O259 O 0.77055 0.27906 0.73226 0.0
O260 O 0.73434 0.22666 0.71671 0.0
O261 O 0.83144 0.24096 0.73616 0.0
O262 O 0.81329 0.20988 0.75783 0.0
O263 O 0.7745 0.22543 0.70582 0.0
C264 C 0.692 0.27465 0.80044 0.0
C265 C 0.70541 0.27975 0.82864 0.0
C266 C 0.65277 0.27285 0.82477 0.0
C267 C 0.69267 0.28179 0.85481 0.0
C268 C 0.6656 0.27102 0.7986 0.0
C269 C 0.66624 0.2784 0.85313 0.0
C270 C 0.70502 0.27107 0.77283 0.0
C271 C 0.79588 0.28909 0.73802 0.0
H272 H 0.79298 0.17894 0.70269 0.0
H273 H 0.88108 0.18959 0.6709 0.0
H274 H 0.79751 0.15 0.65543 0.0
H275 H 0.87633 0.21782 0.71874 0.0
H276 H 0.72571 0.28203 0.83039 0.0
H277 H 0.63248 0.27053 0.82289 0.0
H278 H 0.70345 0.28595 0.87635 0.0
H279 H 0.65491 0.2667 0.77695 0.0
Eu280 Eu 0.77712 0.74392 0.78477 0.0
Eu281 Eu 0.73818 0.73155 0.72277 0.0
C282 C 0.72688 0.69176 0.76446 0.0
C283 C 0.81987 0.73091 0.83894 0.0
C284 C 0.81419 0.72104 0.86433 0.0
C285 C 0.84991 0.70767 0.82707 0.0
C286 C 0.8261 0.70453 0.87096 0.0
C287 C 0.83787 0.72403 0.82035 0.0
C288 C 0.84414 0.69758 0.85242 0.0
C289 C 0.80637 0.74762 0.83169 0.0
O290 O 0.7334 0.76588 0.75655 0.0
O291 O 0.74502 0.75919 0.80086 0.0
C292 C 0.73303 0.76967 0.78588 0.0
O293 O 0.7923 0.78202 0.77129 0.0
O294 O 0.69866 0.7211 0.70275 0.0
O295 O 0.73076 0.72994 0.6754 0.0
O296 O 0.77328 0.7669 0.72209 0.0
C297 C 0.78976 0.78507 0.74416 0.0
O298 O 0.79585 0.72667 0.74563 0.0
O299 O 0.76147 0.70484 0.7086 0.0
O300 O 0.71648 0.70348 0.74966 0.0
O301 O 0.81509 0.75947 0.81068 0.0
O302 O 0.781 0.73782 0.82951 0.0
O303 O 0.75195 0.70096 0.77206 0.0
C304 C 0.69683 0.74517 0.66816 0.0
C305 C 0.71063 0.77247 0.67858 0.0
C306 C 0.66336 0.75386 0.64285 0.0
C307 C 0.70094 0.79033 0.6711 0.0
C308 C 0.67316 0.73603 0.65023 0.0
C309 C 0.67706 0.78131 0.65324 0.0
C310 C 0.70621 0.72632 0.67745 0.0
C311 C 0.78518 0.70915 0.71977 0.0
H312 H 0.80028 0.72589 0.87893 0.0
H313 H 0.86395 0.70316 0.81248 0.0
H314 H 0.82081 0.69688 0.8904 0.0
H315 H 0.84267 0.73122 0.80052 0.0
H316 H 0.72882 0.78001 0.69275 0.0
H317 H 0.64473 0.74607 0.62953 0.0
H318 H 0.71228 0.81121 0.67924 0.0
H319 H 0.66201 0.71507 0.64229 0.0
Cd320 Cd 0.98246 0.97687 0.53887 0.0
Cd321 Cd 0.03861 0.00999 0.46717 0.0
C322 C 0.02601 0.97691 0.58367 0.0
N323 N 1.01484 0.96443 0.55494 0.0
C324 C 0.03659 0.93403 0.55037 0.0
C325 C 0.04789 0.94602 0.58035 0.0
C326 C 0.04269 0.96801 0.5969 0.0
C327 C 0.01991 0.94346 0.53813 0.0
H328 H 0.02118 0.99322 0.59666 0.0
H329 H 1.01055 0.93358 0.5155 0.0
C330 C 0.99799 0.95547 0.46535 0.0
C331 C 0.99222 0.01193 0.4281 0.0
C332 C 0.97599 0.02216 0.41639 0.0
C333 C 0.97649 0.04746 0.43111 0.0
C334 C 0.99278 0.06143 0.45807 0.0
C335 C 1.00874 0.05045 0.46894 0.0
N336 N 1.00828 0.02622 0.45377 0.0
H337 H 0.99257 0.99287 0.41629 0.0
H338 H 0.02224 0.06175 0.48873 0.0
C339 C 0.08826 0.99699 0.47568 0.0
N340 N 0.07025 0.00266 0.49323 0.0
C341 C 0.08851 0.99422 0.535 0.0
C342 C 0.10655 0.98693 0.51682 0.0
C343 C 0.10665 0.98912 0.48703 0.0
C344 C 0.07036 0.00204 0.52264 0.0
H345 H 0.08758 -0.00258 0.45233 0.0
H346 H 0.05586 0.00665 0.53621 0.0
C347 C 0.01858 0.03375 0.53981 0.0
C348 C 0.95075 0.95071 0.57834 0.0
N349 N 0.94843 0.97819 0.50988 0.0
C350 C 0.9256 0.97414 0.52242 0.0
C351 C 0.90573 0.97941 0.50994 0.0
C352 C 0.90915 0.98878 0.48394 0.0
C353 C 0.93208 0.99033 0.4699 0.0
C354 C 0.95182 0.98563 0.48378 0.0
C355 C 0.07287 0.03753 0.4305 0.0
O356 O 1.00468 0.96964 0.49229 0.0
O357 O 1.01183 0.9633 0.44506 0.0
O358 O 0.01851 0.01775 0.51494 0.0
O359 O 1.00358 0.02481 0.55866 0.0
O360 O 0.95243 0.93836 0.55161 0.0
O361 O 0.96336 0.97549 0.58641 0.0
O362 O 0.07147 0.04875 0.45782 0.0
O363 O 0.05868 0.01324 0.42048 0.0
H364 H 0.92342 0.96859 0.54339 0.0
H365 H 0.97023 0.98911 0.47448 0.0
H366 H 0.04051 0.91745 0.53646 0.0
H367 H 0.05076 0.97775 0.62012 0.0
H368 H 0.96348 0.01054 0.39577 0.0
H369 H 0.99416 0.08117 0.46986 0.0
H370 H 0.08779 0.99292 0.55812 0.0
H371 H 0.11968 0.98315 0.47187 0.0
H372 H 0.88887 0.9782 0.52227 0.0
H373 H 0.93547 0.99664 0.44942 0.0
Cd374 Cd 0.49704 0.0012 0.05052 0.0
Cd375 Cd 0.53681 0.99337 0.95043 0.0
C376 C 0.54545 0.00204 0.09341 0.0
N377 N 0.52711 0.98656 0.06992 0.0
C378 C 0.54247 0.95115 0.06587 0.0
C379 C 0.56173 0.96664 0.08995 0.0
C380 C 0.56315 0.99249 0.10369 0.0
C381 C 0.5254 0.96157 0.05613 0.0
H382 H 0.54639 0.02183 0.10412 0.0
H383 H 0.51073 0.94972 0.03743 0.0
C384 C 0.48246 0.96085 0.97266 0.0
C385 C 0.49287 -0.00233 0.90615 0.0
C386 C 0.47672 0.00891 0.89595 0.0
C387 C 0.47737 0.03385 0.91249 0.0
C388 C 0.49417 0.04666 0.93926 0.0
C389 C 0.50981 0.03466 0.94868 0.0
N390 N 0.50902 0.01071 0.93207 0.0
H391 H 0.49262 0.97861 0.89337 0.0
H392 H 0.52265 0.04447 0.96933 0.0
C393 C 0.54295 0.93918 0.9115 0.0
N394 N 0.55092 0.95711 0.93894 0.0
C395 C 0.58364 0.94004 0.94759 0.0
C396 C 0.57665 0.92201 0.91875 0.0
C397 C 0.55546 0.92134 0.90103 0.0
C398 C 0.57058 0.95754 0.95718 0.0
H399 H 0.52772 0.93961 0.89706 0.0
H400 H 0.57713 0.97247 0.97851 0.0
C401 C 0.55055 0.03405 0.0275 0.0
C402 C 0.45781 0.97212 0.08045 0.0
N403 N 0.47841 0.03446 0.0596 0.0
C404 C 0.49045 0.05865 0.07923 0.0
C405 C 0.47676 0.07557 0.08906 0.0
C406 C 0.45021 0.0675 0.07903 0.0
C407 C 0.43869 0.0427 0.05794 0.0
C408 C 0.45312 0.02653 0.04859 0.0
C409 C 0.5782 0.02108 0.92152 0.0
O410 O 0.4943 0.97869 0.99637 0.0
O411 O 0.49377 0.95954 0.94851 0.0
O412 O 0.53851 0.01577 0.00426 0.0
O413 O 0.53952 0.03581 0.05182 0.0
O414 O 0.45748 0.96519 0.05184 0.0
O415 O 0.47683 0.99238 0.09499 0.0
O416 O 0.58064 0.02343 0.94976 0.0
O417 O 0.55637 0.00581 0.90696 0.0
H418 H 0.51037 0.06441 0.08832 0.0
H419 H 0.44369 0.00695 0.03367 0.0
H420 H 0.54083 0.93126 0.05436 0.0
H421 H 0.57753 0.00505 0.12247 0.0
H422 H 0.46421 -0.00159 0.87509 0.0
H423 H 0.49502 0.06568 0.953 0.0
H424 H 0.59999 0.94168 0.96198 0.0
H425 H 0.54903 0.90764 0.87885 0.0
H426 H 0.4868 0.09455 0.10493 0.0
H427 H 0.4183 0.03517 0.04979 0.0
Cd428 Cd 1.00341 0.50755 0.04998 0.0
Cd429 Cd 0.04256 0.49574 0.95003 0.0
C430 C 0.0465 0.49987 0.09383 0.0
N431 N 0.02937 0.48821 0.06856 0.0
C432 C 0.03895 0.44892 0.0606 0.0
C433 C 0.05657 0.46014 0.08676 0.0
C434 C 0.06047 0.48613 0.10333 0.0
C435 C 0.02557 0.46333 0.05194 0.0
H436 H 0.04916 0.51968 0.10673 0.0
H437 H 1.01192 0.45462 0.03193 0.0
C438 C 0.98885 0.46617 0.97438 0.0
C439 C 0.99501 0.50074 0.9111 0.0
C440 C 0.97848 0.51287 0.90379 0.0
C441 C 0.98031 0.53775 0.92201 0.0
C442 C 0.99882 0.54962 0.94739 0.0
C443 C 1.01484 0.53682 0.95385 0.0
N444 N 1.01275 0.5129 0.93578 0.0
H445 H 0.99378 0.48173 0.89703 0.0
H446 H 0.0293 0.54616 0.97315 0.0
C447 C 0.04941 0.44185 0.91046 0.0
N448 N 0.05958 0.4613 0.93648 0.0
C449 C 0.09501 0.44658 0.94064 0.0
C450 C 0.08552 0.42685 0.91318 0.0
C451 C 0.06201 0.42436 0.89847 0.0
C452 C 0.0818 0.46371 0.9518 0.0
H453 H 0.03204 0.44059 0.89827 0.0
H454 H 0.08998 0.47973 0.97199 0.0
C455 C 0.05829 0.5374 0.02639 0.0
C456 C 0.95998 0.47688 0.07294 0.0
N457 N 0.98993 0.54458 0.06336 0.0
C458 C 0.99856 0.56263 0.09068 0.0
C459 C 0.98725 0.58162 0.10108 0.0
C460 C 0.96659 0.582 0.08342 0.0
C461 C 0.95878 0.56362 0.05482 0.0
C462 C 0.97066 0.54505 0.04527 0.0
C463 C 0.07893 0.52705 0.91941 0.0
O464 O 1.0012 0.4862 0.9958 0.0
O465 O 0.99932 0.46217 0.94988 0.0
O466 O 0.047 0.51724 0.00464 0.0
O467 O 0.04693 0.54046 0.05038 0.0
O468 O 0.96029 0.47469 0.04468 0.0
O469 O 0.98 0.49352 0.09019 0.0
O470 O 0.08094 0.53258 0.94812 0.0
O471 O 0.05986 0.50674 0.90509 0.0
H472 H 1.01347 0.56159 0.10504 0.0
H473 H 0.96377 0.53029 0.02385 0.0
H474 H 0.0356 0.42918 0.04678 0.0
H475 H 0.07373 0.49552 0.12373 0.0
H476 H 0.96437 0.50281 0.88418 0.0
H477 H 1.0014 0.56894 0.96182 0.0
H478 H 0.11316 0.44965 0.95271 0.0
H479 H 0.05363 0.40935 0.87751 0.0
H480 H 0.99385 0.59503 0.1234 0.0
H481 H 0.94324 0.56322 0.04011 0.0
Cd482 Cd 0.48997 0.49945 0.05998 0.0
Cd483 Cd 0.52946 0.5054 0.9705 0.0
C484 C 0.52884 0.47622 0.08273 0.0
N485 N 0.51008 0.46939 0.0598 0.0
C486 C 0.51454 0.42774 0.04046 0.0
C487 C 0.53474 0.43477 0.06323 0.0
C488 C 0.54166 0.45931 0.08468 0.0
C489 C 0.50263 0.44561 0.03891 0.0
H490 H 0.53372 0.49478 0.09975 0.0
H491 H 0.4874 0.44042 0.02114 0.0
C492 C 0.47353 0.47099 0.97954 0.0
C493 C 0.48942 0.52924 0.9514 0.0
C494 C 0.47874 0.54757 0.94831 0.0
C495 C 0.49027 0.57393 0.96538 0.0
C496 C 0.51232 0.58105 0.98562 0.0
C497 C 0.52208 0.56187 0.98846 0.0
N498 N 0.51061 0.53657 0.97131 0.0
H499 H 0.48125 0.50934 0.93706 0.0
H500 H 0.5392 0.56732 0.00373 0.0
C501 C 0.52735 0.44604 0.95995 0.0
N502 N 0.54017 0.47079 0.97782 0.0
C503 C 0.56606 0.45526 0.00433 0.0
C504 C 0.55305 0.4294 0.98634 0.0
C505 C 0.53348 0.42497 0.96386 0.0
C506 C 0.5593 0.47574 0.99959 0.0
H507 H 0.51255 0.44269 0.94241 0.0
H508 H 0.56945 0.4956 0.01316 0.0
C509 C 0.54566 0.53189 0.05083 0.0
C510 C 0.45397 0.48323 0.10176 0.0
N511 N 0.48155 0.5347 0.05103 0.0
C512 C 0.49517 0.55939 0.06852 0.0
C513 C 0.49096 0.58103 0.06328 0.0
C514 C 0.4724 0.5772 0.03994 0.0
C515 C 0.45839 0.55138 0.02245 0.0
C516 C 0.46333 0.5303 0.02841 0.0
C517 C 0.56457 0.52215 0.92782 0.0
O518 O 0.4863 0.48375 0.00499 0.0
O519 O 0.48535 0.47297 0.95603 0.0
O520 O 0.53178 0.52041 0.02579 0.0
O521 O 0.5345 0.53059 0.07485 0.0
O522 O 0.44779 0.47415 0.07341 0.0
O523 O 0.4765 0.50073 0.11051 0.0
O524 O 0.57185 0.52955 0.95593 0.0
O525 O 0.54135 0.50605 0.91956 0.0
H526 H 0.50921 0.5623 0.08672 0.0
H527 H 0.45261 0.51042 0.01503 0.0
H528 H 0.50843 0.40894 0.02361 0.0
H529 H 0.55653 0.46522 0.10319 0.0
H530 H 0.46219 0.54132 0.9318 0.0
H531 H 0.52194 0.60118 0.99905 0.0
H532 H 0.58111 0.45962 0.02209 0.0
H533 H 0.52335 0.40551 0.94895 0.0
H534 H 0.50174 0.60048 0.07783 0.0
H535 H 0.44398 0.54752 0.00417 0.0
Cd536 Cd 0.99811 0.50004 0.55468 0.0
Cd537 Cd 0.04022 0.49799 0.45656 0.0
C538 C 0.04609 0.49926 0.59599 0.0
N539 N 0.03151 0.4869 0.56891 0.0
C540 C 0.05395 0.45673 0.55739 0.0
C541 C 0.06916 0.46881 0.58541 0.0
C542 C 0.06509 0.49053 0.6047 0.0
C543 C 0.03519 0.4661 0.54961 0.0
H544 H 0.04283 0.51579 0.61095 0.0
H545 H 0.02327 0.45652 0.52826 0.0
C546 C 0.9829 0.46397 0.47388 0.0
C547 C 0.99691 0.50108 0.40915 0.0
C548 C 0.98039 0.51174 0.39844 0.0
C549 C 0.9791 0.53572 0.41558 0.0
C550 C 0.99446 0.54816 0.44343 0.0
C551 C 1.01053 0.53674 0.45332 0.0
N552 N 1.01151 0.51367 0.43621 0.0
H553 H 0.9981 0.48279 0.39587 0.0
H554 H 0.02233 0.54634 0.47474 0.0
C555 C 0.05002 0.44616 0.41613 0.0
N556 N 0.05771 0.46392 0.44372 0.0
C557 C 0.09201 0.44846 0.45126 0.0
C558 C 0.0852 0.43059 0.42229 0.0
C559 C 0.06341 0.42924 0.40504 0.0
C560 C 0.07807 0.46506 0.46147 0.0
H561 H 0.03413 0.4459 0.40212 0.0
H562 H 0.0843 0.47975 0.48301 0.0
C563 C 0.04897 0.53558 0.53233 0.0
C564 C 0.96314 0.46812 0.58635 0.0
N565 N 0.97679 0.53117 0.56584 0.0
C566 C 0.98771 0.55543 0.58576 0.0
C567 C 0.97285 0.57124 0.59529 0.0
C568 C 0.94634 0.56193 0.58464 0.0
C569 C 0.9359 0.53709 0.56349 0.0
C570 C 0.95146 0.52206 0.55442 0.0
C571 C 0.08092 0.53354 0.43453 0.0
O572 O 0.99351 0.47906 0.49966 0.0
O573 O 0.99604 0.46499 0.45115 0.0
O574 O 0.03862 0.51483 0.51099 0.0
O575 O 0.03796 0.53803 0.55659 0.0
O576 O 0.95951 0.46368 0.55785 0.0
O577 O 0.98329 0.48748 0.60004 0.0
O578 O 0.07793 0.53799 0.46257 0.0
O579 O 0.06492 0.51244 0.41699 0.0
H580 H 1.00768 0.56214 0.59517 0.0
H581 H 0.94302 0.50259 0.53897 0.0
H582 H 0.05603 0.43976 0.54186 0.0
H583 H 0.07652 0.50079 0.6263 0.0
H584 H 0.96911 0.50155 0.37674 0.0
H585 H 0.99389 0.56642 0.45766 0.0
H586 H 0.10874 0.45059 0.46537 0.0
H587 H 0.05703 0.41561 0.38282 0.0
H588 H 0.98179 0.59009 0.61183 0.0
H589 H 0.91574 0.52911 0.55428 0.0
Cd590 Cd 0.50496 0.00329 0.54644 0.0
Cd591 Cd 0.5456 -0.00192 0.44705 0.0
C592 C 0.53838 0.98691 0.59247 0.0
N593 N 0.53367 0.98534 0.56284 0.0
C594 C 0.55734 0.95654 0.54832 0.0
C595 C 0.56177 0.9569 0.57863 0.0
C596 C 0.5524 0.9728 0.60089 0.0
C597 C 0.54305 0.97072 0.54092 0.0
H598 H 0.53049 -0.00162 0.60954 0.0
H599 H 0.53881 0.96946 0.51748 0.0
C600 C 0.48961 0.96686 0.46699 0.0
C601 C 0.50547 0.01005 0.40462 0.0
C602 C 0.49039 0.02349 0.39692 0.0
C603 C 0.48746 0.04457 0.41877 0.0
C604 C 0.49933 0.05098 0.44822 0.0
C605 C 0.51414 0.03704 0.45491 0.0
N606 N 0.51716 0.01719 0.43318 0.0
H607 H 0.50829 0.99431 0.38766 0.0
H608 H 0.52367 0.04239 0.47743 0.0
C609 C 0.55114 0.94397 0.40564 0.0
N610 N 0.5608 0.96211 0.43272 0.0
C611 C 0.59361 0.94408 0.4378 0.0
C612 C 0.58462 0.92556 0.40938 0.0
C613 C 0.56267 0.92548 0.39362 0.0
C614 C 0.58148 0.96223 0.44899 0.0
H615 H 0.53513 0.94457 0.39266 0.0
H616 H 0.58922 0.97707 0.47021 0.0
C617 C 0.56019 0.03448 0.52528 0.0
C618 C 0.46602 0.97143 0.57453 0.0
N619 N 0.48893 0.03889 0.55926 0.0
C620 C 0.49659 0.0562 0.58716 0.0
C621 C 0.48474 0.07467 0.59782 0.0
C622 C 0.46454 0.07551 0.57979 0.0
C623 C 0.45763 0.05783 0.55065 0.0
C624 C 0.47 0.03964 0.54089 0.0
C625 C 0.58373 0.02906 0.41751 0.0
O626 O 0.50136 0.98444 0.49098 0.0
O627 O 0.50148 0.96567 0.44322 0.0
O628 O 0.54837 0.01591 0.50218 0.0
O629 O 0.5489 0.03629 0.54944 0.0
O630 O 0.46798 0.96421 0.5464 0.0
O631 O 0.48226 0.99366 0.5895 0.0
O632 O 0.58473 0.03521 0.44621 0.0
O633 O 0.56499 0.00854 0.40299 0.0
H634 H 0.51125 0.05499 0.60173 0.0
H635 H 0.46385 0.02553 0.51895 0.0
H636 H 0.56451 0.94509 0.53032 0.0
H637 H 0.55497 0.97358 0.6245 0.0
H638 H 0.48182 0.01795 0.37389 0.0
H639 H 0.4973 0.06673 0.46596 0.0
H640 H 0.61017 0.94488 0.45116 0.0
H641 H 0.55509 0.91203 0.37151 0.0
H642 H 0.49067 0.08741 0.62055 0.0
H643 H 0.44253 0.05776 0.53556 0.0
C644 C 0.22672 0.16816 0.28851 0.0
C645 C 0.21706 0.1821 0.27305 0.0
C646 C 0.20991 0.14957 0.30166 0.0
C647 C 0.1477 0.1355 0.33396 0.0
H648 H 0.15519 0.06988 0.33577 0.0
C649 C 0.10263 0.07976 0.42152 0.0
C650 C 0.08965 0.05233 0.411 0.0
C651 C 0.11749 0.09403 0.4027 0.0
C652 C 0.15275 0.08805 0.33527 0.0
H653 H 0.18199 0.18646 0.25804 0.0
H654 H 0.1527 0.15399 0.28101 0.0
H655 H 0.18168 0.09648 0.30441 0.0
H656 H 0.08245 0.01827 0.37269 0.0
H657 H 0.10862 0.04328 0.33983 0.0
H658 H 0.11899 0.12727 0.36496 0.0
C659 C 0.17332 0.15769 0.2832 0.0
C660 C 0.16802 0.10334 0.31751 0.0
C661 C 0.1901 0.17618 0.26989 0.0
C662 C 0.09223 0.0394 0.38144 0.0
C663 C 0.10728 0.05368 0.36266 0.0
C664 C 0.13261 0.12034 0.35186 0.0
C665 C 0.18311 0.1446 0.29977 0.0
C666 C 0.16578 0.12733 0.31685 0.0
C667 C 0.11984 0.08119 0.37302 0.0
C668 C 0.13515 0.0966 0.35295 0.0
H669 H 0.24738 0.17218 0.2913 0.0
H670 H 0.21807 0.13994 0.31446 0.0
H671 H 0.14572 0.15402 0.3342 0.0
H672 H 0.10106 0.09031 0.44419 0.0
H673 H 0.12726 0.11517 0.41144 0.0
C674 C 0.88975 0.15497 0.28356 0.0
C675 C 0.87411 0.16909 0.29635 0.0
C676 C 0.89874 0.14149 0.29997 0.0
C677 C 0.91449 0.13906 0.37575 0.0
H678 H 0.90555 0.06659 0.33627 0.0
C679 C 0.9496 0.07589 0.43513 0.0
C680 C 0.9616 0.05993 0.41726 0.0
C681 C 0.93644 0.08831 0.42191 0.0
C682 C 0.90843 0.08687 0.34755 0.0
H683 H 0.85612 0.18043 0.33683 0.0
H684 H 0.87262 0.15741 0.36582 0.0
H685 H 0.88815 0.09083 0.31041 0.0
H686 H 0.96987 0.0452 0.37157 0.0
H687 H 0.94742 0.06702 0.34867 0.0
H688 H 0.93562 0.13549 0.41246 0.0
C689 C 0.87768 0.15677 0.34294 0.0
C690 C 0.89838 0.10069 0.33275 0.0
C691 C 0.86837 0.17003 0.32636 0.0
C692 C 0.96026 0.05677 0.38593 0.0
C693 C 0.94734 0.06931 0.37277 0.0
C694 C 0.92484 0.12531 0.39047 0.0
C695 C 0.89261 0.14206 0.3297 0.0
C696 C 0.90168 0.12703 0.3465 0.0
C697 C 0.93527 0.08525 0.39055 0.0
C698 C 0.92231 0.09918 0.37629 0.0
H699 H 0.8951 0.15432 0.2608 0.0
H700 H 0.91065 0.13068 0.28945 0.0
H701 H 0.91736 0.1594 0.38676 0.0
H702 H 0.95018 0.07863 0.45934 0.0
H703 H 0.92711 0.1002 0.43623 0.0
C704 C 0.82724 0.79878 0.33897 0.0
C705 C 0.80958 0.80322 0.32114 0.0
C706 C 0.83659 0.81521 0.36783 0.0
C707 C 0.85525 0.85083 0.42906 0.0
H708 H 0.88169 0.92174 0.41946 0.0
C709 C 0.95761 0.92485 0.47903 0.0
C710 C 0.97141 0.93612 0.45719 0.0
C711 C 0.93076 0.91147 0.47396 0.0
C712 C 0.87424 0.90211 0.42278 0.0
H713 H 0.78592 0.8267 0.32022 0.0
H714 H 0.80224 0.85554 0.37099 0.0
H715 H 0.84244 0.88965 0.38945 0.0
H716 H 0.96845 0.94094 0.41213 0.0
H717 H 0.92196 0.91651 0.40251 0.0
H718 H 0.88923 0.86255 0.45934 0.0
C719 C 0.80929 0.83969 0.36242 0.0
C720 C 0.85145 0.88372 0.40588 0.0
C721 C 0.80017 0.82339 0.33328 0.0
C722 C 0.95831 0.9324 0.42937 0.0
C723 C 0.93156 0.91902 0.42423 0.0
C724 C 0.87843 0.86909 0.44544 0.0
C725 C 0.82825 0.83631 0.37967 0.0
C726 C 0.84326 0.85724 0.40668 0.0
C727 C 0.91742 0.90904 0.44676 0.0
C728 C 0.88922 0.89407 0.44014 0.0
H729 H 0.83456 0.78315 0.33027 0.0
H730 H 0.85159 0.81224 0.37999 0.0
H731 H 0.84863 0.83083 0.43117 0.0
H732 H 0.96748 0.92725 0.50043 0.0
H733 H 0.92041 0.90356 0.49148 0.0
C734 C 0.18481 0.82806 0.41719 0.0
C735 C 0.16781 0.82304 0.39165 0.0
C736 C 0.18046 0.84082 0.44581 0.0
C737 C 0.13214 0.86439 0.48779 0.0
H738 H 0.19134 0.92918 0.51977 0.0
C739 C 0.14672 0.9757 0.51626 0.0
C740 C 0.12225 0.97312 0.5266 0.0
C741 C 0.1574 0.95668 0.51665 0.0
C742 C 0.17465 0.9111 0.51147 0.0
H743 H 0.13204 0.82604 0.37657 0.0
H744 H 0.12433 0.84786 0.42614 0.0
H745 H 0.19748 0.89196 0.48468 0.0
H746 H 0.09185 0.95078 0.54915 0.0
H747 H 0.11119 0.91885 0.55217 0.0
H748 H 0.10877 0.88408 0.51159 0.0
C749 C 0.14094 0.84181 0.42425 0.0
C750 C 0.17822 0.88961 0.49158 0.0
C751 C 0.14539 0.8293 0.39569 0.0
C752 C 0.11071 0.95346 0.54136 0.0
C753 C 0.12166 0.93482 0.5425 0.0
C754 C 0.12851 0.88589 0.50737 0.0
C755 C 0.15885 0.84849 0.44946 0.0
C756 C 0.15667 0.86678 0.47789 0.0
C757 C 0.14398 0.93492 0.52786 0.0
C758 C 0.14945 0.91019 0.51761 0.0
H759 H 0.20196 0.82291 0.41495 0.0
H760 H 0.19446 0.84553 0.46487 0.0
H761 H 0.11529 0.84674 0.47817 0.0
H762 H 0.15651 0.99106 0.50542 0.0
H763 H 0.17473 0.95774 0.50527 0.0
C764 C 0.19222 0.87021 0.70585 0.0
C765 C 0.18517 0.84275 0.69549 0.0
C766 C 0.18044 0.88331 0.69189 0.0
C767 C 0.13949 0.87497 0.62295 0.0
H768 H 0.1189 0.92846 0.67588 0.0
C769 C 0.05978 0.90837 0.58681 0.0
C770 C 0.06504 0.93564 0.59406 0.0
C771 C 0.07662 0.89865 0.59826 0.0
C772 C 0.12482 0.9138 0.66079 0.0
H773 H 0.1605 0.80748 0.66225 0.0
H774 H 0.1396 0.83017 0.63823 0.0
H775 H 0.14491 0.9086 0.69705 0.0
H776 H 0.09236 0.97405 0.61902 0.0
H777 H 0.12139 0.95689 0.63969 0.0
H778 H 0.11856 0.87969 0.58684 0.0
C779 C 0.15463 0.84176 0.65668 0.0
C780 C 0.1398 0.90247 0.67287 0.0
C781 C 0.16655 0.82871 0.67049 0.0
C782 C 0.08739 0.95292 0.61347 0.0
C783 C 0.10414 0.94314 0.62512 0.0
C784 C 0.12433 0.88617 0.61092 0.0
C785 C 0.1612 0.86918 0.66743 0.0
C786 C 0.14704 0.88266 0.65416 0.0
C787 C 0.09899 0.91593 0.61745 0.0
C788 C 0.11656 0.90542 0.62981 0.0
H789 H 0.20678 0.88156 0.72484 0.0
H790 H 0.18631 0.9045 0.70041 0.0
H791 H 0.14515 0.86015 0.6078 0.0
H792 H 0.04254 0.89445 0.57236 0.0
H793 H 0.07198 0.87754 0.59239 0.0
C794 C 0.1975 0.18487 0.69387 0.0
C795 C 0.21591 0.20749 0.68838 0.0
C796 C 0.17551 0.17002 0.67353 0.0
C797 C 0.12932 0.17022 0.62082 0.0
H798 H 0.12464 0.09922 0.58028 0.0
C799 C 0.06007 0.06664 0.53222 0.0
C800 C 0.03815 0.06054 0.54831 0.0
C801 C 0.08112 0.09005 0.54319 0.0
C802 C 0.1259 0.11916 0.59095 0.0
H803 H 0.22552 0.23319 0.65842 0.0
H804 H 0.18657 0.20725 0.62308 0.0
H805 H 0.16323 0.12914 0.61397 0.0
H806 H 0.01988 0.07494 0.58697 0.0
H807 H 0.05722 0.11585 0.6068 0.0
H808 H 0.09121 0.15962 0.59895 0.0
C809 C 0.18946 0.20099 0.64285 0.0
C810 C 0.14778 0.13606 0.61037 0.0
C811 C 0.2117 0.21555 0.66285 0.0
C812 C 0.03669 0.07917 0.5743 0.0
C813 C 0.05787 0.10266 0.58541 0.0
C814 C 0.1071 0.15309 0.60166 0.0
C815 C 0.17152 0.17803 0.64796 0.0
C816 C 0.14935 0.16143 0.62575 0.0
C817 C 0.08065 0.10756 0.57066 0.0
C818 C 0.10517 0.12734 0.58696 0.0
H819 H 0.20037 0.17838 0.71346 0.0
H820 H 0.16169 0.15222 0.67759 0.0
H821 H 0.13045 0.18988 0.63266 0.0
H822 H 0.06171 0.05252 0.5123 0.0
H823 H 0.09852 0.09355 0.53146 0.0
C824 C 0.82488 0.14363 0.60442 0.0
C825 C 0.84247 0.15051 0.63006 0.0
C826 C 0.82772 0.12758 0.57701 0.0
C827 C 0.87644 0.10507 0.53667 0.0
H828 H 0.81875 0.04099 0.49737 0.0
C829 C 0.86631 0.99538 0.48476 0.0
C830 C 0.8917 0.00179 0.47587 0.0
C831 C 0.85424 0.01385 0.4894 0.0
C832 C 0.83504 0.0589 0.50784 0.0
H833 H 0.87643 0.14536 0.64703 0.0
H834 H 0.88156 0.11786 0.59938 0.0
H835 H 0.81114 0.07472 0.5373 0.0
H836 H 0.9212 0.03012 0.45758 0.0
H837 H 0.89912 0.06083 0.46303 0.0
H838 H 0.90085 0.08893 0.50966 0.0
C839 C 0.86583 0.12521 0.6003 0.0
C840 C 0.83061 0.07831 0.53055 0.0
C841 C 0.8629 0.14099 0.62764 0.0
C842 C 0.90209 0.02454 0.46543 0.0
C843 C 0.88955 0.04254 0.469 0.0
C844 C 0.8809 0.08577 0.51422 0.0
C845 C 0.84835 0.11839 0.57468 0.0
C846 C 0.85155 0.10091 0.5462 0.0
C847 C 0.86693 0.03868 0.48407 0.0
C848 C 0.86049 0.06176 0.50056 0.0
H849 H 0.80911 0.15089 0.60541 0.0
H850 H 0.81399 0.1226 0.55759 0.0
H851 H 0.89285 0.12261 0.54795 0.0
H852 H 0.8568 0.97727 0.49116 0.0
H853 H 0.8364 0.00962 0.50024 0.0
C854 C 0.83309 0.82004 0.74468 0.0
C855 C 0.8061 0.80953 0.73714 0.0
C856 C 0.84892 0.83973 0.73209 0.0
C857 C 0.87834 0.88633 0.70658 0.0
H858 H 0.85564 0.87145 0.62186 0.0
C859 C 0.93257 0.9506 0.62828 0.0
C860 C 0.93469 0.93679 0.59895 0.0
C861 C 0.9172 0.93724 0.64759 0.0
C862 C 0.86235 0.87582 0.64544 0.0
H863 H 0.77411 0.81285 0.71337 0.0
H864 H 0.80143 0.84788 0.69254 0.0
H865 H 0.82847 0.84567 0.65272 0.0
H866 H 0.92281 0.89814 0.56705 0.0
H867 H 0.89631 0.87487 0.6007 0.0
H868 H 0.91286 0.91591 0.6986 0.0
C869 C 0.81063 0.84035 0.70703 0.0
C870 C 0.84656 0.8613 0.66332 0.0
C871 C 0.79496 0.82044 0.71909 0.0
C872 C 0.92141 0.90938 0.58943 0.0
C873 C 0.90612 0.89606 0.60868 0.0
C874 C 0.89425 0.9009 0.68855 0.0
C875 C 0.83786 0.84933 0.71214 0.0
C876 C 0.85436 0.86624 0.69408 0.0
C877 C 0.90365 0.90984 0.63788 0.0
C878 C 0.88652 0.89554 0.65769 0.0
H879 H 0.84204 0.81176 0.75848 0.0
H880 H 0.86982 0.84616 0.73644 0.0
H881 H 0.88485 0.89071 0.73021 0.0
H882 H 0.94264 0.97175 0.63627 0.0
H883 H 0.91553 0.94842 0.66987 0.0
C884 C 0.30006 0.1856 0.172 0.0
C885 C 0.30846 0.20252 0.20134 0.0
C886 C 0.31453 0.17062 0.15756 0.0
C887 C 0.36421 0.14374 0.1742 0.0
H888 H 0.37722 0.13816 0.09041 0.0
C889 C 0.43917 0.09909 0.12202 0.0
C890 C 0.43427 0.08394 0.09167 0.0
C891 C 0.42354 0.11331 0.13435 0.0
C892 C 0.37355 0.13914 0.11372 0.0
H893 H 0.33883 0.21655 0.23835 0.0
H894 H 0.36357 0.19063 0.21352 0.0
H895 H 0.34987 0.16227 0.11331 0.0
H896 H 0.40896 0.07282 0.0505 0.0
H897 H 0.38136 0.0968 0.07216 0.0
H898 H 0.38746 0.12046 0.17477 0.0
C899 C 0.34582 0.18876 0.20157 0.0
C900 C 0.35781 0.15305 0.12689 0.0
C901 C 0.3316 0.20386 0.21578 0.0
C902 C 0.41332 0.08386 0.07403 0.0
C903 C 0.39757 0.09799 0.08644 0.0
C904 C 0.37974 0.12971 0.16103 0.0
C905 C 0.33758 0.17188 0.17225 0.0
C906 C 0.35314 0.15582 0.15745 0.0
C907 C 0.40226 0.11281 0.11692 0.0
C908 C 0.38497 0.12737 0.13064 0.0
H909 H 0.28238 0.18401 0.16013 0.0
H910 H 0.30745 0.15773 0.13506 0.0
H911 H 0.36071 0.14496 0.19762 0.0
H912 H 0.45479 0.09956 0.13665 0.0
H913 H 0.42826 0.12478 0.15772 0.0
C914 C 0.82994 0.30675 0.17788 0.0
C915 C 0.80977 0.30886 0.19564 0.0
C916 C 0.84194 0.32567 0.16261 0.0
C917 C 0.85407 0.39421 0.16324 0.0
H918 H 0.87622 0.37245 0.08421 0.0
C919 C 0.91638 0.44068 0.06602 0.0
C920 C 0.93774 0.46014 0.08526 0.0
C921 C 0.89631 0.42359 0.07775 0.0
C922 C 0.86977 0.37889 0.106 0.0
H923 H 0.78628 0.33249 0.21127 0.0
H924 H 0.80719 0.36549 0.18433 0.0
H925 H 0.8491 0.33923 0.10757 0.0
H926 H 0.95445 0.47763 0.13186 0.0
H927 H 0.91986 0.44762 0.15218 0.0
H928 H 0.8748 0.4339 0.16168 0.0
C929 C 0.81387 0.34931 0.18252 0.0
C930 C 0.85454 0.35984 0.11957 0.0
C931 C 0.80191 0.33039 0.19793 0.0
C932 C 0.93825 0.4628 0.11646 0.0
C933 C 0.91827 0.44574 0.12815 0.0
C934 C 0.8692 0.41328 0.1496 0.0
C935 C 0.83394 0.34706 0.1646 0.0
C936 C 0.8472 0.36728 0.14871 0.0
C937 C 0.89729 0.42568 0.1089 0.0
C938 C 0.87785 0.4058 0.12122 0.0
H939 H 0.83655 0.29047 0.17574 0.0
H940 H 0.85774 0.32369 0.14953 0.0
H941 H 0.84876 0.40058 0.18573 0.0
H942 H 0.91542 0.43826 0.04185 0.0
H943 H 0.88025 0.40848 0.06239 0.0
C944 C 0.69207 0.85215 0.17114 0.0
C945 C 0.71923 0.86472 0.17282 0.0
C946 C 0.67545 0.86377 0.16296 0.0
C947 C 0.67211 0.92728 0.1588 0.0
H948 H 0.61298 0.88323 0.10001 0.0
C949 C 0.60676 0.97089 0.10736 0.0
C950 C 0.58005 0.95575 0.10062 0.0
C951 C 0.62399 0.96029 0.11654 0.0
C952 C 0.62912 0.89582 0.11681 0.0
H953 H 0.75013 0.89976 0.16788 0.0
H954 H 0.72106 0.92017 0.15377 0.0
H955 H 0.64222 0.86408 0.11585 0.0
H956 H 0.55045 0.91783 0.09923 0.0
H957 H 0.58019 0.89956 0.11583 0.0
H958 H 0.65883 0.95896 0.16022 0.0
C959 C 0.71266 0.90125 0.15876 0.0
C960 C 0.64598 0.88479 0.12582 0.0
C961 C 0.72932 0.88947 0.16662 0.0
C962 C 0.57096 0.9299 0.10375 0.0
C963 C 0.5881 0.91938 0.1132 0.0
C964 C 0.6551 0.93829 0.15001 0.0
C965 C 0.6855 0.88841 0.15651 0.0
C966 C 0.66767 0.90035 0.14696 0.0
C967 C 0.61494 0.93431 0.11951 0.0
C968 C 0.6333 0.92271 0.12889 0.0
H969 H 0.68361 0.83296 0.17545 0.0
H970 H 0.65464 0.85345 0.16174 0.0
H971 H 0.6885 0.93977 0.17535 0.0
H972 H 0.61447 0.99078 0.10486 0.0
H973 H 0.64451 0.97233 0.12072 0.0
C974 C 0.2023 0.71559 0.1528 0.0
C975 C 0.22693 0.71819 0.16419 0.0
C976 C 0.19205 0.70018 0.12359 0.0
C977 C 0.17609 0.67051 0.05785 0.0
H978 H 0.17148 0.59946 0.05414 0.0
C979 C 0.10362 0.55417 0.01232 0.0
C980 C 0.08154 0.55896 0.02284 0.0
C981 C 0.12711 0.57529 0.01429 0.0
C982 C 0.17311 0.61916 0.05385 0.0
H983 H 0.26079 0.70786 0.15335 0.0
H984 H 0.24248 0.6803 0.10246 0.0
H985 H 0.20487 0.63658 0.08839 0.0
H986 H 0.06568 0.58898 0.04137 0.0
H987 H 0.10635 0.62567 0.04526 0.0
H988 H 0.14305 0.65288 0.02485 0.0
C989 C 0.23127 0.69041 0.11612 0.0
C990 C 0.19229 0.64051 0.07366 0.0
C991 C 0.24166 0.70611 0.14526 0.0
C992 C 0.0826 0.58493 0.03325 0.0
C993 C 0.10588 0.60594 0.03505 0.0
C994 C 0.15703 0.64916 0.03784 0.0
C995 C 0.20613 0.68685 0.10527 0.0
C996 C 0.1927 0.66619 0.07738 0.0
C997 C 0.12869 0.60138 0.02684 0.0
C998 C 0.15412 0.62321 0.03744 0.0
H999 H 0.1906 0.72488 0.16671 0.0
H1000 H 0.17244 0.69747 0.11604 0.0
H1001 H 0.1764 0.69022 0.05987 0.0
H1002 H 0.1031 0.53416 0.0043 0.0
H1003 H 0.14432 0.57117 0.00767 0.0
C1004 C 0.29231 0.78895 0.85775 0.0
C1005 C 0.30664 0.77881 0.83615 0.0
C1006 C 0.30419 0.80426 0.88657 0.0
C1007 C 0.3667 0.82961 0.93628 0.0
H1008 H 0.35777 0.89659 0.94866 0.0
C1009 C 0.45053 0.92565 0.99189 0.0
C1010 C 0.45613 0.94209 0.9724 0.0
C1011 C 0.42616 0.90543 0.98848 0.0
C1012 C 0.36027 0.87793 0.94595 0.0
H1013 H 0.34383 0.77457 0.82873 0.0
H1014 H 0.36463 0.80164 0.87827 0.0
H1015 H 0.32496 0.85692 0.91708 0.0
H1016 H 0.44107 0.95134 0.93497 0.0
H1017 H 0.39877 0.91616 0.92868 0.0
H1018 H 0.40344 0.8512 0.96242 0.0
C1019 C 0.3442 0.79772 0.87337 0.0
C1020 C 0.3413 0.85507 0.92805 0.0
C1021 C 0.33236 0.78246 0.84467 0.0
C1022 C 0.43695 0.9389 0.95034 0.0
C1023 C 0.41265 0.91894 0.94705 0.0
C1024 C 0.3858 0.85254 0.95394 0.0
C1025 C 0.33058 0.80965 0.89428 0.0
C1026 C 0.34526 0.831 0.92127 0.0
C1027 C 0.40718 0.9015 0.96552 0.0
C1028 C 0.38358 0.87716 0.95708 0.0
H1029 H 0.27229 0.78615 0.85201 0.0
H1030 H 0.29307 0.81289 0.9023 0.0
H1031 H 0.36991 0.81119 0.93217 0.0
H1032 H 0.46536 0.92758 0.00867 0.0
H1033 H 0.42254 0.89224 0.00292 0.0
C1034 C 0.22293 0.29506 0.81888 0.0
C1035 C 0.22574 0.29099 0.78776 0.0
C1036 C 0.20736 0.30893 0.83269 0.0
C1037 C 0.17672 0.35599 0.8206 0.0
H1038 H 0.1375 0.3373 0.88666 0.0
C1039 C 0.10206 0.40335 0.86773 0.0
C1040 C 0.10068 0.41002 0.89919 0.0
C1041 C 0.1169 0.38847 0.85459 0.0
C1042 C 0.14852 0.34302 0.86844 0.0
H1043 H 0.21346 0.29782 0.74677 0.0
H1044 H 0.18618 0.32138 0.77049 0.0
H1045 H 0.16358 0.31204 0.86307 0.0
H1046 H 0.11385 0.40552 0.94126 0.0
H1047 H 0.13985 0.37983 0.91842 0.0
H1048 H 0.16159 0.38686 0.82586 0.0
C1049 C 0.19647 0.31449 0.78455 0.0
C1050 C 0.16359 0.32848 0.85485 0.0
C1051 C 0.2121 0.30075 0.77081 0.0
C1052 C 0.11451 0.40105 0.91702 0.0
C1053 C 0.12927 0.38602 0.90383 0.0
C1054 C 0.16161 0.37044 0.83409 0.0
C1055 C 0.19401 0.31908 0.81581 0.0
C1056 C 0.17791 0.33466 0.83061 0.0
C1057 C 0.13087 0.37964 0.8724 0.0
C1058 C 0.14719 0.36418 0.8582 0.0
H1059 H 0.23327 0.28809 0.8328 0.0
H1060 H 0.20635 0.31222 0.85681 0.0
H1061 H 0.18782 0.3619 0.80252 0.0
H1062 H 0.09206 0.41008 0.85315 0.0
H1063 H 0.11728 0.38377 0.83031 0.0
C1064 C 0.73325 0.15937 0.78417 0.0
C1065 C 0.72877 0.18316 0.79146 0.0
C1066 C 0.72071 0.13959 0.79838 0.0
C1067 C 0.67834 0.09631 0.81938 0.0
H1068 H 0.66893 0.11846 0.90417 0.0
C1069 C 0.59561 0.03464 0.87571 0.0
C1070 C 0.59956 0.03596 0.90635 0.0
C1071 C 0.61517 0.04998 0.86173 0.0
C1072 C 0.67174 0.11176 0.88066 0.0
H1073 H 0.70711 0.20454 0.81875 0.0
H1074 H 0.68525 0.17021 0.84295 0.0
H1075 H 0.69665 0.1505 0.8799 0.0
H1076 H 0.6275 0.05348 0.94608 0.0
H1077 H 0.66184 0.08006 0.92154 0.0
H1078 H 0.65324 0.05753 0.82017 0.0
C1079 C 0.69882 0.16696 0.82687 0.0
C1080 C 0.68738 0.13023 0.86664 0.0
C1081 C 0.71125 0.18658 0.81277 0.0
C1082 C 0.62381 0.05222 0.92248 0.0
C1083 C 0.64345 0.06749 0.90844 0.0
C1084 C 0.66272 0.07775 0.83346 0.0
C1085 C 0.7036 0.14337 0.82013 0.0
C1086 C 0.69018 0.12289 0.83566 0.0
C1087 C 0.63918 0.0669 0.87804 0.0
C1088 C 0.65867 0.08545 0.86406 0.0
H1089 H 0.74667 0.15617 0.76785 0.0
H1090 H 0.72473 0.12157 0.79275 0.0
H1091 H 0.68016 0.09009 0.79547 0.0
H1092 H 0.57713 0.02227 0.86267 0.0
H1093 H 0.61106 0.04934 0.83844 0.0
C1094 C 0.86222 0.66139 0.83619 0.0
C1095 C 0.85691 0.67997 0.85946 0.0
C1096 C 0.87452 0.64517 0.84278 0.0
C1097 C 0.91489 0.63987 0.9041 0.0
H1098 H 0.89599 0.56769 0.85551 0.0
C1099 C 0.95445 0.5671 0.93744 0.0
C1100 C 0.96365 0.55172 0.91441 0.0
C1101 C 0.94041 0.58171 0.93058 0.0
C1102 C 0.90162 0.58787 0.86915 0.0
H1103 H 0.86058 0.69585 0.9081 0.0
H1104 H 0.88107 0.66706 0.91958 0.0
H1105 H 0.87349 0.5951 0.8441 0.0
H1106 H 0.96467 0.53941 0.86591 0.0
H1107 H 0.93981 0.56459 0.85397 0.0
H1108 H 0.94283 0.63251 0.92932 0.0
C1109 C 0.87619 0.66532 0.89613 0.0
C1110 C 0.88877 0.60365 0.86258 0.0
C1111 C 0.86404 0.68164 0.88953 0.0
C1112 C 0.95768 0.55074 0.88424 0.0
C1113 C 0.94346 0.56525 0.87737 0.0
C1114 C 0.92758 0.62404 0.9108 0.0
C1115 C 0.88174 0.64693 0.87286 0.0
C1116 C 0.89524 0.62992 0.87994 0.0
C1117 C 0.93498 0.58121 0.90049 0.0
C1118 C 0.92114 0.59785 0.8934 0.0
H1119 H 0.85673 0.65919 0.81277 0.0
H1120 H 0.87868 0.63151 0.8242 0.0
H1121 H 0.92085 0.66011 0.91763 0.0
H1122 H 0.95812 0.56792 0.96089 0.0
H1123 H 0.93375 0.5934 0.9489 0.0
C1124 C 0.14565 0.302 0.1399 0.0
C1125 C 0.17249 0.31133 0.1487 0.0
C1126 C 0.1338 0.31902 0.13467 0.0
C1127 C 0.14807 0.38378 0.11807 0.0
H1128 H 0.07912 0.37529 0.14276 0.0
C1129 C 0.09689 0.45601 0.1075 0.0
C1130 C 0.07039 0.4445 0.09657 0.0
C1131 C 0.10991 0.44082 0.11541 0.0
C1132 C 0.09829 0.37782 0.13547 0.0
H1133 H 0.20789 0.34609 0.15848 0.0
H1134 H 0.18717 0.37584 0.14996 0.0
H1135 H 0.10067 0.3469 0.15324 0.0
H1136 H 0.0367 0.40807 0.0864 0.0
H1137 H 0.05935 0.38167 0.09976 0.0
H1138 H 0.14558 0.4147 0.10023 0.0
C1139 C 0.17529 0.35524 0.14681 0.0
C1140 C 0.11067 0.36147 0.14145 0.0
C1141 C 0.18715 0.3382 0.15205 0.0
C1142 C 0.05718 0.41756 0.09434 0.0
C1143 C 0.07013 0.40244 0.10235 0.0
C1144 C 0.13569 0.40018 0.11213 0.0
C1145 C 0.14842 0.34591 0.13811 0.0
C1146 C 0.13564 0.36403 0.13259 0.0
C1147 C 0.09671 0.41379 0.11283 0.0
C1148 C 0.11052 0.39726 0.1205 0.0
H1149 H 0.13362 0.28155 0.13743 0.0
H1150 H 0.11315 0.31098 0.12763 0.0
H1151 H 0.16715 0.38617 0.11057 0.0
H1152 H 0.10772 0.47665 0.10935 0.0
H1153 H 0.13032 0.45029 0.12367 0.0
C1154 C 0.20193 0.6816 0.78182 0.0
C1155 C 0.22783 0.68384 0.77833 0.0
C1156 C 0.18615 0.66347 0.79615 0.0
C1157 C 0.17785 0.60267 0.817 0.0
H1158 H 0.14006 0.62884 0.88036 0.0
C1159 C 0.09696 0.53576 0.87179 0.0
C1160 C 0.09762 0.54386 0.90337 0.0
C1161 C 0.11398 0.55214 0.85644 0.0
C1162 C 0.15065 0.62134 0.86285 0.0
H1163 H 0.25725 0.6682 0.78616 0.0
H1164 H 0.22948 0.63633 0.81104 0.0
H1165 H 0.1672 0.65853 0.85262 0.0
H1166 H 0.11682 0.57514 0.94375 0.0
H1167 H 0.14643 0.60388 0.91678 0.0
H1168 H 0.16118 0.56542 0.82725 0.0
C1169 C 0.2215 0.64869 0.80271 0.0
C1170 C 0.16592 0.63821 0.84681 0.0
C1171 C 0.23739 0.667 0.7886 0.0
C1172 C 0.11585 0.56843 0.91938 0.0
C1173 C 0.1327 0.5849 0.90398 0.0
C1174 C 0.16234 0.5857 0.83287 0.0
C1175 C 0.19589 0.64708 0.80701 0.0
C1176 C 0.17963 0.62902 0.82374 0.0
C1177 C 0.13177 0.57696 0.87238 0.0
C1178 C 0.14864 0.59492 0.85594 0.0
H1179 H 0.19397 0.69426 0.77412 0.0
H1180 H 0.16635 0.66235 0.79892 0.0
H1181 H 0.18819 0.59513 0.79922 0.0
H1182 H 0.08315 0.51688 0.85889 0.0
H1183 H 0.11277 0.54568 0.83203 0.0
C1184 C 0.34962 0.14377 0.81562 0.0
C1185 C 0.33406 0.1525 0.83668 0.0
C1186 C 0.36482 0.13034 0.82283 0.0
C1187 C 0.37133 0.09177 0.87491 0.0
H1188 H 0.44168 0.10872 0.85188 0.0
C1189 C 0.43473 0.03195 0.89042 0.0
C1190 C 0.46081 0.04661 0.902 0.0
C1191 C 0.41905 0.04423 0.88145 0.0
C1192 C 0.42211 0.10381 0.85858 0.0
H1193 H 0.32272 0.15415 0.8821 0.0
H1194 H 0.34905 0.1306 0.89454 0.0
H1195 H 0.41486 0.13161 0.83877 0.0
H1196 H 0.49098 0.08558 0.91248 0.0
H1197 H 0.46364 0.10698 0.89712 0.0
H1198 H 0.37874 0.06428 0.89516 0.0
C1199 C 0.34922 0.13385 0.87228 0.0
C1200 C 0.40664 0.11675 0.8508 0.0
C1201 C 0.33409 0.14736 0.86512 0.0
C1202 C 0.4709 0.07375 0.90398 0.0
C1203 C 0.4553 0.08597 0.89486 0.0
C1204 C 0.38676 0.07872 0.88256 0.0
C1205 C 0.3648 0.12519 0.85124 0.0
C1206 C 0.38109 0.11101 0.859 0.0
C1207 C 0.42913 0.07142 0.88363 0.0
C1208 C 0.4124 0.08469 0.87465 0.0
H1209 H 0.34978 0.14695 0.79332 0.0
H1210 H 0.3763 0.12363 0.80593 0.0
H1211 H 0.35166 0.08665 0.88131 0.0
H1212 H 0.42628 0.01106 0.88879 0.0
H1213 H 0.39904 0.03239 0.87264 0.0
C1214 C 0.81295 0.2779 0.86501 0.0
C1215 C 0.80063 0.28832 0.84748 0.0
C1216 C 0.82712 0.29359 0.89257 0.0
C1217 C 0.84664 0.36069 0.94694 0.0
H1218 H 0.91491 0.35605 0.94322 0.0
C1219 C 0.94089 0.44951 0.97092 0.0
C1220 C 0.96416 0.44676 0.97823 0.0
C1221 C 0.91725 0.42866 0.96866 0.0
C1222 C 0.89591 0.35741 0.94551 0.0
H1223 H 0.79157 0.32256 0.84624 0.0
H1224 H 0.81715 0.35026 0.89358 0.0
H1225 H 0.87817 0.32036 0.91317 0.0
H1226 H 0.98145 0.42149 0.99121 0.0
H1227 H 0.94004 0.38526 0.98841 0.0
H1228 H 0.86512 0.3988 0.97798 0.0
C1229 C 0.81553 0.32986 0.8865 0.0
C1230 C 0.87466 0.33677 0.9281 0.0
C1231 C 0.80107 0.31405 0.85912 0.0
C1232 C 0.96357 0.42391 0.98563 0.0
C1233 C 0.93991 0.40319 0.98384 0.0
C1234 C 0.868 0.38144 0.96446 0.0
C1235 C 0.82961 0.32014 0.90293 0.0
C1236 C 0.85002 0.33871 0.92741 0.0
C1237 C 0.91662 0.40479 0.97373 0.0
C1238 C 0.89309 0.38056 0.9627 0.0
H1239 H 0.81244 0.2579 0.85694 0.0
H1240 H 0.83723 0.28531 0.90503 0.0
H1241 H 0.82778 0.36252 0.9474 0.0
H1242 H 0.94115 0.4671 0.96507 0.0
H1243 H 0.8998 0.43057 0.96053 0.0
C1244 C 0.71522 0.78955 0.83285 0.0
C1245 C 0.71843 0.78614 0.80187 0.0
C1246 C 0.70069 0.80448 0.8471 0.0
C1247 C 0.67464 0.85532 0.83741 0.0
H1248 H 0.62754 0.83163 0.8955 0.0
C1249 C 0.5975 0.90108 0.87592 0.0
C1250 C 0.59241 0.90543 0.90644 0.0
C1251 C 0.61316 0.88668 0.86451 0.0
C1252 C 0.64081 0.83875 0.8796 0.0
H1253 H 0.70868 0.79607 0.76179 0.0
H1254 H 0.68355 0.82163 0.78633 0.0
H1255 H 0.65468 0.80687 0.87379 0.0
H1256 H 0.59976 0.89733 0.94864 0.0
H1257 H 0.62732 0.87251 0.92882 0.0
H1258 H 0.66081 0.88708 0.84302 0.0
C1259 C 0.69246 0.81313 0.79988 0.0
C1260 C 0.65644 0.82451 0.86713 0.0
C1261 C 0.70684 0.79823 0.78568 0.0
C1262 C 0.60333 0.89463 0.9251 0.0
C1263 C 0.61898 0.88013 0.91362 0.0
C1264 C 0.65905 0.86951 0.84983 0.0
C1265 C 0.6891 0.81653 0.8308 0.0
C1266 C 0.6734 0.83242 0.84556 0.0
C1267 C 0.62433 0.87612 0.88318 0.0
C1268 C 0.64165 0.86132 0.87087 0.0
H1269 H 0.72379 0.78055 0.84608 0.0
H1270 H 0.69877 0.8068 0.87099 0.0
H1271 H 0.68782 0.86246 0.82143 0.0
H1272 H 0.58985 0.90931 0.86084 0.0
H1273 H 0.61644 0.88377 0.84087 0.0
C1274 C 0.83917 0.70641 0.22069 0.0
C1275 C 0.8339 0.72526 0.20917 0.0
C1276 C 0.85504 0.69329 0.20658 0.0
C1277 C 0.90456 0.69341 0.15187 0.0
H1278 H 0.87842 0.61846 0.14569 0.0
C1279 C 0.96551 0.62622 0.11343 0.0
C1280 C 0.95234 0.60027 0.09542 0.0
C1281 C 0.95185 0.6427 0.12569 0.0
C1282 C 0.88601 0.6393 0.14692 0.0
H1283 H 0.84254 0.74578 0.17415 0.0
H1284 H 0.87062 0.72279 0.14938 0.0
H1285 H 0.85401 0.64517 0.16971 0.0
H1286 H 0.9141 0.57167 0.07639 0.0
H1287 H 0.89054 0.60027 0.09732 0.0
H1288 H 0.93663 0.6873 0.12887 0.0
C1289 C 0.86226 0.71826 0.16954 0.0
C1290 C 0.87208 0.65477 0.16108 0.0
C1291 C 0.8462 0.73152 0.18378 0.0
C1292 C 0.9251 0.59153 0.08979 0.0
C1293 C 0.91147 0.60792 0.10217 0.0
C1294 C 0.91868 0.67789 0.13783 0.0
C1295 C 0.86631 0.6984 0.18032 0.0
C1296 C 0.88116 0.68211 0.16401 0.0
C1297 C 0.92455 0.6337 0.12057 0.0
C1298 C 0.90961 0.65055 0.13517 0.0
H1299 H 0.83044 0.70119 0.24039 0.0
H1300 H 0.85817 0.67873 0.21614 0.0
H1301 H 0.91226 0.71437 0.15374 0.0
H1302 H 0.98646 0.63385 0.11812 0.0
H1303 H 0.96267 0.66232 0.13986 0.0
C1304 C 0.32531 0.82559 0.21648 0.0
C1305 C 0.29834 0.81938 0.2161 0.0
C1306 C 0.34046 0.84468 0.20302 0.0
C1307 C 0.33736 0.87882 0.14568 0.0
H1308 H 0.40646 0.92438 0.18381 0.0
C1309 C 0.43525 0.96787 0.12686 0.0
C1310 C 0.43697 0.95734 0.09619 0.0
C1311 C 0.41597 0.95364 0.14208 0.0
C1312 C 0.38709 0.91217 0.17302 0.0
H1313 H 0.26608 0.82841 0.20134 0.0
H1314 H 0.29281 0.86222 0.17797 0.0
H1315 H 0.37702 0.89555 0.21032 0.0
H1316 H 0.4196 0.92399 0.05716 0.0
H1317 H 0.38644 0.8987 0.08396 0.0
H1318 H 0.34745 0.89568 0.10843 0.0
C1319 C 0.30208 0.85202 0.18852 0.0
C1320 C 0.37032 0.89537 0.18807 0.0
C1321 C 0.28682 0.83277 0.20198 0.0
C1322 C 0.41873 0.93256 0.08083 0.0
C1323 C 0.39959 0.91819 0.09614 0.0
C1324 C 0.35412 0.89578 0.13064 0.0
C1325 C 0.32908 0.85817 0.18897 0.0
C1326 C 0.34552 0.87807 0.17429 0.0
C1327 C 0.39819 0.92845 0.12703 0.0
C1328 C 0.37936 0.91226 0.14392 0.0
H1329 H 0.33482 0.81549 0.22688 0.0
H1330 H 0.36111 0.84852 0.20317 0.0
H1331 H 0.31839 0.86563 0.13444 0.0
H1332 H 0.44885 0.98711 0.13917 0.0
H1333 H 0.41512 0.96232 0.16572 0.0
C1334 C 0.71611 0.21197 0.13286 0.0
C1335 C 0.73904 0.21062 0.14406 0.0
C1336 C 0.70342 0.19546 0.10493 0.0
C1337 C 0.69662 0.12958 0.06012 0.0
H1338 H 0.63857 0.13815 0.02246 0.0
C1339 C 0.59574 0.05707 0.05063 0.0
C1340 C 0.57705 0.05223 0.02717 0.0
C1341 C 0.62086 0.07495 0.05157 0.0
C1342 C 0.65501 0.13536 0.03192 0.0
H1343 H 0.76862 0.19365 0.13342 0.0
H1344 H 0.74705 0.16552 0.08404 0.0
H1345 H 0.67643 0.17688 0.04667 0.0
H1346 H 0.56941 0.06214 0.98642 0.0
H1347 H 0.61378 0.09388 0.98805 0.0
H1348 H 0.67487 0.08815 0.04609 0.0
C1349 C 0.73815 0.17842 0.0973 0.0
C1350 C 0.6766 0.1576 0.0462 0.0
C1351 C 0.75053 0.19452 0.12558 0.0
C1352 C 0.5838 0.06536 0.00444 0.0
C1353 C 0.60905 0.0835 0.00544 0.0
C1354 C 0.67531 0.10741 0.0454 0.0
C1355 C 0.71367 0.17756 0.08738 0.0
C1356 C 0.6966 0.15504 0.0627 0.0
C1357 C 0.62778 0.08857 0.02919 0.0
C1358 C 0.65342 0.11024 0.03347 0.0
H1359 H 0.70693 0.22439 0.14654 0.0
H1360 H 0.68455 0.19537 0.09846 0.0
H1361 H 0.71163 0.12654 0.07216 0.0
H1362 H 0.59083 0.04717 0.06845 0.0
H1363 H 0.63457 0.07891 0.07066 0.0
C1364 C 0.68359 0.65638 0.76453 0.0
C1365 C 0.7101 0.66905 0.77495 0.0
C1366 C 0.66749 0.63642 0.77655 0.0
C1367 C 0.66905 0.59241 0.82528 0.0
H1368 H 0.60007 0.59257 0.84015 0.0
C1369 C 0.60816 0.54835 0.91467 0.0
C1370 C 0.58161 0.53345 0.90605 0.0
C1371 C 0.62365 0.56129 0.89512 0.0
C1372 C 0.61916 0.59206 0.8358 0.0
H1373 H 0.7406 0.67036 0.80583 0.0
H1374 H 0.7126 0.63647 0.82736 0.0
H1375 H 0.62726 0.62189 0.81227 0.0
H1376 H 0.55061 0.51991 0.86995 0.0
H1377 H 0.57763 0.54293 0.83607 0.0
H1378 H 0.66117 0.56343 0.85029 0.0
C1379 C 0.70418 0.64125 0.80936 0.0
C1380 C 0.63476 0.60879 0.81967 0.0
C1381 C 0.72029 0.66091 0.79709 0.0
C1382 C 0.57103 0.53118 0.8772 0.0
C1383 C 0.58642 0.54445 0.85786 0.0
C1384 C 0.65357 0.57597 0.84181 0.0
C1385 C 0.67748 0.62892 0.79955 0.0
C1386 C 0.66007 0.60945 0.81449 0.0
C1387 C 0.6128 0.5599 0.86679 0.0
C1388 C 0.62858 0.57584 0.84747 0.0
H1389 H 0.67518 0.66208 0.74736 0.0
H1390 H 0.64715 0.62706 0.76799 0.0
H1391 H 0.68817 0.59189 0.82121 0.0
H1392 H 0.61686 0.55049 0.93677 0.0
H1393 H 0.6439 0.57322 0.90265 0.0
C1394 C 0.41256 0.69879 0.83484 0.0
C1395 C 0.38574 0.6853 0.82666 0.0
C1396 C 0.42538 0.69281 0.85664 0.0
C1397 C 0.41404 0.65729 0.91685 0.0
H1398 H 0.47954 0.64974 0.89693 0.0
C1399 C 0.45285 0.58724 0.95606 0.0
C1400 C 0.47983 0.59378 0.96067 0.0
C1401 C 0.44292 0.60423 0.94721 0.0
C1402 C 0.46157 0.6523 0.9033 0.0
H1403 H 0.35129 0.65512 0.83505 0.0
H1404 H 0.37366 0.64428 0.87258 0.0
H1405 H 0.45914 0.6682 0.86627 0.0
H1406 H 0.51751 0.62416 0.96168 0.0
H1407 H 0.50012 0.65395 0.94627 0.0
H1408 H 0.41597 0.64006 0.95301 0.0
C1409 C 0.38475 0.65993 0.86275 0.0
C1410 C 0.44983 0.66289 0.88564 0.0
C1411 C 0.37193 0.66604 0.84111 0.0
C1412 C 0.49663 0.61851 0.95824 0.0
C1413 C 0.48669 0.63549 0.94921 0.0
C1414 C 0.42575 0.64655 0.93443 0.0
C1415 C 0.41169 0.67306 0.8706 0.0
C1416 C 0.4256 0.66492 0.89173 0.0
C1417 C 0.45976 0.6281 0.94259 0.0
C1418 C 0.44935 0.64338 0.9274 0.0
H1419 H 0.42363 0.71404 0.82444 0.0
H1420 H 0.44605 0.70359 0.86246 0.0
H1421 H 0.39563 0.65906 0.92254 0.0
H1422 H 0.43937 0.56858 0.95844 0.0
H1423 H 0.42209 0.59789 0.94227 0.0
C1424 C 0.33795 0.30974 0.84113 0.0
C1425 C 0.31785 0.30972 0.8226 0.0
C1426 C 0.34243 0.32395 0.87146 0.0
C1427 C 0.33222 0.38197 0.91854 0.0
H1428 H 0.38063 0.37275 0.97169 0.0
C1429 C 0.43008 0.45362 0.95149 0.0
C1430 C 0.44555 0.45602 0.97695 0.0
C1431 C 0.40397 0.43756 0.94711 0.0
C1432 C 0.36643 0.37555 0.95799 0.0
H1433 H 0.28497 0.32213 0.82153 0.0
H1434 H 0.29198 0.34589 0.87463 0.0
H1435 H 0.35089 0.33462 0.93455 0.0
H1436 H 0.44584 0.44511 0.01886 0.0
H1437 H 0.3999 0.41598 0.01073 0.0
H1438 H 0.34851 0.42302 0.94129 0.0
C1439 C 0.30515 0.33612 0.86571 0.0
C1440 C 0.3497 0.35371 0.93621 0.0
C1441 C 0.30121 0.32261 0.8352 0.0
C1442 C 0.43418 0.4434 0.999 0.0
C1443 C 0.40797 0.42687 0.99441 0.0
C1444 C 0.34846 0.40364 0.94079 0.0
C1445 C 0.32638 0.33779 0.88405 0.0
C1446 C 0.33454 0.35723 0.91419 0.0
C1447 C 0.39282 0.42324 0.96795 0.0
C1448 C 0.36771 0.40097 0.95824 0.0
H1449 H 0.35071 0.29952 0.83193 0.0
H1450 H 0.35931 0.32507 0.88448 0.0
H1451 H 0.32043 0.38561 0.90261 0.0
H1452 H 0.43835 0.46354 0.93442 0.0
H1453 H 0.39308 0.43489 0.92617 0.0
C1454 C 0.66502 0.30511 0.90493 0.0
C1455 C 0.65312 0.28255 0.88094 0.0
C1456 C 0.65102 0.31183 0.92876 0.0
C1457 C 0.58385 0.3048 0.93738 0.0
H1458 H 0.61546 0.35544 0.01394 0.0
C1459 C 0.54144 0.38189 0.98587 0.0
C1460 C 0.56038 0.40729 0.99011 0.0
C1461 C 0.54872 0.36043 0.98522 0.0
C1462 C 0.60613 0.34102 0.9929 0.0
H1463 H 0.61836 0.24772 0.86461 0.0
H1464 H 0.5939 0.25921 0.90658 0.0
H1465 H 0.63679 0.32584 0.9885 0.0
H1466 H 0.60175 0.43029 0.99936 0.0
H1467 H 0.61443 0.39298 0.99769 0.0
H1468 H 0.55418 0.32096 0.94056 0.0
C1469 C 0.61382 0.27211 0.90661 0.0
C1470 C 0.61838 0.32412 0.97826 0.0
C1471 C 0.62776 0.26554 0.88257 0.0
C1472 C 0.58661 0.41104 0.99606 0.0
C1473 C 0.59389 0.38958 0.99533 0.0
C1474 C 0.57158 0.32153 0.95206 0.0
C1475 C 0.62486 0.29602 0.9292 0.0
C1476 C 0.60823 0.30706 0.94936 0.0
C1477 C 0.57511 0.36387 0.98853 0.0
C1478 C 0.58344 0.34098 0.97901 0.0
H1479 H 0.68452 0.31862 0.90421 0.0
H1480 H 0.66015 0.33055 0.94546 0.0
H1481 H 0.57541 0.29205 0.91514 0.0
H1482 H 0.52098 0.37841 0.98214 0.0
H1483 H 0.53376 0.34093 0.98056 0.0
C1484 C 0.633 0.29649 0.14532 0.0
C1485 C 0.65601 0.31379 0.16346 0.0
C1486 C 0.61999 0.30564 0.12715 0.0
C1487 C 0.62785 0.3601 0.0924 0.0
H1488 H 0.55491 0.34524 0.10325 0.0
C1489 C 0.57563 0.42718 0.07295 0.0
C1490 C 0.54865 0.41685 0.06501 0.0
C1491 C 0.58855 0.411 0.07762 0.0
C1492 C 0.57508 0.34913 0.09923 0.0
H1493 H 0.68401 0.3539 0.17593 0.0
H1494 H 0.66127 0.36991 0.14424 0.0
H1495 H 0.57815 0.32341 0.12517 0.0
H1496 H 0.51433 0.38101 0.05382 0.0
H1497 H 0.53705 0.35249 0.06103 0.0
H1498 H 0.62497 0.38622 0.06698 0.0
C1499 C 0.65331 0.34928 0.14401 0.0
C1500 C 0.58843 0.33665 0.11194 0.0
C1501 C 0.66616 0.34021 0.16241 0.0
C1502 C 0.53511 0.38962 0.06011 0.0
C1503 C 0.5481 0.37332 0.06453 0.0
C1504 C 0.61445 0.37245 0.07947 0.0
C1505 C 0.62991 0.33218 0.12651 0.0
C1506 C 0.61511 0.34258 0.10939 0.0
C1507 C 0.57487 0.38395 0.07419 0.0
C1508 C 0.58807 0.36771 0.08348 0.0
H1509 H 0.62467 0.27605 0.1458 0.0
H1510 H 0.60204 0.29202 0.1138 0.0
H1511 H 0.64833 0.3647 0.08967 0.0
H1512 H 0.58675 0.44798 0.07617 0.0
H1513 H 0.60909 0.42003 0.08525 0.0
C1514 C 0.71976 0.6609 0.17409 0.0
C1515 C 0.73564 0.68532 0.17013 0.0
C1516 C 0.71024 0.63891 0.14929 0.0
C1517 C 0.68705 0.62539 0.073 0.0
H1518 H 0.66793 0.55371 0.07914 0.0
C1519 C 0.58619 0.55286 0.02855 0.0
C1520 C 0.57403 0.54307 0.05209 0.0
C1521 C 0.61325 0.56307 0.02969 0.0
C1522 C 0.67342 0.57352 0.0766 0.0
H1523 H 0.75523 0.70564 0.13737 0.0
H1524 H 0.7379 0.66727 0.09401 0.0
H1525 H 0.70665 0.5882 0.10903 0.0
H1526 H 0.58018 0.53506 0.09466 0.0
H1527 H 0.62717 0.55401 0.09767 0.0
H1528 H 0.65237 0.61168 0.04358 0.0
C1529 C 0.73307 0.66516 0.1163 0.0
C1530 C 0.69558 0.59318 0.09363 0.0
C1531 C 0.74271 0.68712 0.14111 0.0
C1532 C 0.58916 0.5429 0.07643 0.0
C1533 C 0.61612 0.55316 0.0777 0.0
C1534 C 0.66477 0.60582 0.05627 0.0
C1535 C 0.71634 0.64101 0.1201 0.0
C1536 C 0.70118 0.61957 0.09384 0.0
C1537 C 0.62851 0.56387 0.05466 0.0
C1538 C 0.65653 0.58026 0.06017 0.0
H1539 H 0.71431 0.65883 0.19622 0.0
H1540 H 0.69691 0.62062 0.15279 0.0
H1541 H 0.69108 0.64558 0.07253 0.0
H1542 H 0.57476 0.55335 0.00982 0.0
H1543 H 0.62221 0.57127 0.01168 0.0
C1544 C 0.40647 0.74491 0.14277 0.0
C1545 C 0.38001 0.72944 0.14128 0.0
C1546 C 0.42129 0.73867 0.11953 0.0
C1547 C 0.41706 0.68922 0.04525 0.0
H1548 H 0.47754 0.68634 0.08472 0.0
C1549 C 0.44133 0.59798 0.02901 0.0
C1550 C 0.46702 0.6 0.03499 0.0
C1551 C 0.4359 0.62039 0.02907 0.0
C1552 C 0.46122 0.68748 0.07281 0.0
H1553 H 0.34785 0.69657 0.11361 0.0
H1554 H 0.37362 0.68488 0.07398 0.0
H1555 H 0.45783 0.71654 0.11047 0.0
H1556 H 0.50737 0.62661 0.0424 0.0
H1557 H 0.49777 0.66579 0.04296 0.0
H1558 H 0.41921 0.65788 0.00887 0.0
C1559 C 0.38307 0.70234 0.09234 0.0
C1560 C 0.44982 0.70498 0.08767 0.0
C1561 C 0.36822 0.70888 0.11527 0.0
C1562 C 0.48731 0.6245 0.03847 0.0
C1563 C 0.48186 0.6469 0.0385 0.0
C1564 C 0.42831 0.67138 0.03053 0.0
C1565 C 0.41005 0.71643 0.09477 0.0
C1566 C 0.42659 0.70485 0.07494 0.0
C1567 C 0.45602 0.64528 0.0353 0.0
C1568 C 0.44956 0.66929 0.04503 0.0
H1569 H 0.41586 0.76119 0.16243 0.0
H1570 H 0.44186 0.7504 0.12183 0.0
H1571 H 0.39971 0.68923 0.03431 0.0
H1572 H 0.42523 0.57945 0.02626 0.0
H1573 H 0.41574 0.61848 0.0268 0.0
C1574 C 0.33656 0.34072 0.25619 0.0
C1575 C 0.31551 0.3214 0.23632 0.0
C1576 C 0.3512 0.36402 0.24864 0.0
C1577 C 0.3491 0.40474 0.1969 0.0
H1578 H 0.42372 0.42283 0.19966 0.0
C1579 C 0.41139 0.45385 0.11342 0.0
C1580 C 0.43666 0.47223 0.12347 0.0
C1581 C 0.39616 0.44096 0.1331 0.0
C1582 C 0.40298 0.41843 0.19928 0.0
H1583 H 0.29265 0.31185 0.19363 0.0
H1584 H 0.31799 0.35194 0.18061 0.0
H1585 H 0.39777 0.39002 0.22457 0.0
H1586 H 0.46544 0.49228 0.16233 0.0
H1587 H 0.4388 0.46956 0.19667 0.0
H1588 H 0.35414 0.4322 0.1704 0.0
C1589 C 0.32327 0.34937 0.20201 0.0
C1590 C 0.38812 0.39966 0.2136 0.0
C1591 C 0.30891 0.32617 0.20935 0.0
C1592 C 0.44602 0.47822 0.15392 0.0
C1593 C 0.43085 0.46513 0.17355 0.0
C1594 C 0.36391 0.4234 0.18253 0.0
C1595 C 0.34471 0.36848 0.22136 0.0
C1596 C 0.36092 0.39193 0.21161 0.0
C1597 C 0.40594 0.44602 0.1632 0.0
C1598 C 0.39089 0.42979 0.1827 0.0
H1599 H 0.34204 0.3376 0.27717 0.0
H1600 H 0.36763 0.37846 0.26401 0.0
H1601 H 0.32822 0.39956 0.19549 0.0
H1602 H 0.40365 0.44879 0.09009 0.0
H1603 H 0.37715 0.42611 0.12434 0.0
C1604 C 0.79328 0.67758 0.67389 0.0
C1605 C 0.80079 0.69377 0.70365 0.0
C1606 C 0.8086 0.66361 0.65935 0.0
C1607 C 0.87579 0.66143 0.6655 0.0
H1608 H 0.84381 0.59206 0.61006 0.0
C1609 C 0.93861 0.60501 0.60172 0.0
C1610 C 0.9294 0.57739 0.59634 0.0
C1611 C 0.92276 0.61933 0.61303 0.0
C1612 C 0.85317 0.61132 0.62569 0.0
H1613 H 0.83025 0.70718 0.74153 0.0
H1614 H 0.85615 0.68272 0.71685 0.0
H1615 H 0.81665 0.61609 0.6332 0.0
H1616 H 0.8961 0.54344 0.59938 0.0
H1617 H 0.86882 0.56822 0.61944 0.0
H1618 H 0.91216 0.65633 0.65901 0.0
C1619 C 0.83894 0.68126 0.70414 0.0
C1620 C 0.8375 0.62535 0.6387 0.0
C1621 C 0.82383 0.69527 0.71849 0.0
C1622 C 0.90383 0.5646 0.60266 0.0
C1623 C 0.88806 0.57891 0.61418 0.0
C1624 C 0.89141 0.64736 0.65266 0.0
C1625 C 0.83179 0.66531 0.67423 0.0
C1626 C 0.84851 0.65059 0.65908 0.0
C1627 C 0.89721 0.60657 0.61962 0.0
C1628 C 0.88041 0.62196 0.63264 0.0
H1629 H 0.77572 0.6759 0.66168 0.0
H1630 H 0.80241 0.65179 0.63626 0.0
H1631 H 0.88526 0.68095 0.68056 0.0
H1632 H 0.95804 0.61559 0.59682 0.0
H1633 H 0.93055 0.64048 0.61628 0.0
C1634 C 0.32889 0.83173 0.72291 0.0
C1635 C 0.324 0.80507 0.70862 0.0
C1636 C 0.34254 0.85131 0.70907 0.0
C1637 C 0.35778 0.86252 0.63555 0.0
H1638 H 0.41945 0.92052 0.67823 0.0
C1639 C 0.43265 0.92775 0.57422 0.0
C1640 C 0.44641 0.95427 0.58942 0.0
C1641 C 0.41553 0.91096 0.58908 0.0
C1642 C 0.40198 0.9048 0.66615 0.0
H1643 H 0.32929 0.77795 0.66863 0.0
H1644 H 0.3528 0.81218 0.64433 0.0
H1645 H 0.39356 0.88862 0.70416 0.0
H1646 H 0.45219 0.98444 0.63152 0.0
H1647 H 0.42163 0.95536 0.65719 0.0
H1648 H 0.36584 0.87864 0.59763 0.0
C1649 C 0.34616 0.81786 0.66624 0.0
C1650 C 0.38727 0.88649 0.681 0.0
C1651 C 0.33292 0.79834 0.68026 0.0
C1652 C 0.44202 0.96397 0.61937 0.0
C1653 C 0.42464 0.94727 0.63412 0.0
C1654 C 0.37225 0.88101 0.62081 0.0
C1655 C 0.35105 0.84447 0.68051 0.0
C1656 C 0.36535 0.86497 0.66563 0.0
C1657 C 0.41154 0.92044 0.61934 0.0
C1658 C 0.39481 0.90211 0.63575 0.0
H1659 H 0.32224 0.83746 0.74479 0.0
H1660 H 0.3461 0.87175 0.72043 0.0
H1661 H 0.34071 0.8462 0.6234 0.0
H1662 H 0.43568 0.91973 0.55111 0.0
H1663 H 0.4061 0.89035 0.5771 0.0
C1664 C 0.21716 0.37994 0.68502 0.0
C1665 C 0.23011 0.36788 0.6632 0.0
C1666 C 0.20049 0.39157 0.67685 0.0
C1667 C 0.16206 0.39173 0.61016 0.0
H1668 H 0.15846 0.45554 0.6633 0.0
C1669 C 0.10338 0.44855 0.5733 0.0
C1670 C 0.08867 0.45847 0.59462 0.0
C1671 C 0.12106 0.43815 0.58177 0.0
C1672 C 0.15902 0.43758 0.6483 0.0
H1673 H 0.23536 0.35878 0.61544 0.0
H1674 H 0.2071 0.37969 0.60145 0.0
H1675 H 0.18844 0.43649 0.67779 0.0
H1676 H 0.0812 0.46496 0.64175 0.0
H1677 H 0.1121 0.44708 0.65648 0.0
H1678 H 0.13271 0.3929 0.58062 0.0
C1679 C 0.20948 0.37981 0.62488 0.0
C1680 C 0.17624 0.42659 0.65664 0.0
C1681 C 0.22608 0.36811 0.63302 0.0
C1682 C 0.09242 0.45794 0.62474 0.0
C1683 C 0.11017 0.44762 0.63322 0.0
C1684 C 0.14493 0.40277 0.60178 0.0
C1685 C 0.19628 0.39157 0.64662 0.0
C1686 C 0.17801 0.40347 0.6377 0.0
C1687 C 0.12464 0.43743 0.61183 0.0
C1688 C 0.14314 0.42584 0.62073 0.0
H1689 H 0.21992 0.38047 0.70853 0.0
H1690 H 0.19053 0.40017 0.69424 0.0
H1691 H 0.16242 0.37367 0.59519 0.0
H1692 H 0.10145 0.44901 0.55002 0.0
H1693 H 0.13216 0.43091 0.56475 0.0
C1694 C 0.7161 0.20597 0.65463 0.0
C1695 C 0.73963 0.20589 0.666 0.0
C1696 C 0.70494 0.19077 0.62567 0.0
C1697 C 0.69895 0.12845 0.57578 0.0
H1698 H 0.65314 0.14657 0.52875 0.0
C1699 C 0.60578 0.04886 0.51154 0.0
C1700 C 0.5849 0.05523 0.52375 0.0
C1701 C 0.63046 0.06857 0.51477 0.0
C1702 C 0.6662 0.14124 0.54116 0.0
H1703 H 0.77069 0.19093 0.65541 0.0
H1704 H 0.75071 0.16372 0.60481 0.0
H1705 H 0.68908 0.18158 0.56286 0.0
H1706 H 0.57254 0.08684 0.54686 0.0
H1707 H 0.61531 0.12119 0.55243 0.0
H1708 H 0.67478 0.0882 0.55617 0.0
C1709 C 0.74107 0.17575 0.61833 0.0
C1710 C 0.6867 0.16124 0.56071 0.0
C1711 C 0.75244 0.19127 0.64728 0.0
C1712 C 0.58847 0.08158 0.53735 0.0
C1713 C 0.61291 0.10125 0.54017 0.0
C1714 C 0.67845 0.10845 0.55622 0.0
C1715 C 0.71694 0.17496 0.6075 0.0
C1716 C 0.70208 0.15499 0.57974 0.0
C1717 C 0.63437 0.09485 0.52993 0.0
C1718 C 0.66081 0.11474 0.54042 0.0
H1719 H 0.70591 0.21726 0.66838 0.0
H1720 H 0.68611 0.19026 0.61823 0.0
H1721 H 0.7105 0.123 0.59012 0.0
H1722 H 0.60333 0.02853 0.5011 0.0
H1723 H 0.6467 0.06313 0.50677 0.0
C1724 C 0.82431 0.2908 0.33476 0.0
C1725 C 0.79936 0.28884 0.32528 0.0
C1726 C 0.83653 0.30688 0.363 0.0
C1727 C 0.83896 0.36808 0.41401 0.0
H1728 H 0.89403 0.35737 0.45503 0.0
C1729 C 0.93972 0.44451 0.44479 0.0
C1730 C 0.9556 0.44623 0.46957 0.0
C1731 C 0.91439 0.42616 0.43858 0.0
C1732 C 0.87836 0.36067 0.44457 0.0
H1733 H 0.76685 0.30071 0.33884 0.0
H1734 H 0.78843 0.32915 0.38835 0.0
H1735 H 0.85902 0.31949 0.42341 0.0
H1736 H 0.95787 0.43052 0.50746 0.0
H1737 H 0.91316 0.39814 0.49669 0.0
H1738 H 0.859 0.40935 0.43398 0.0
C1739 C 0.79853 0.31829 0.37374 0.0
C1740 C 0.85843 0.33896 0.42619 0.0
C1741 C 0.7862 0.30202 0.34542 0.0
C1742 C 0.94561 0.42989 0.48868 0.0
C1743 C 0.9202 0.41127 0.48234 0.0
C1744 C 0.8588 0.38976 0.43251 0.0
C1745 C 0.82412 0.32145 0.38246 0.0
C1746 C 0.83954 0.34263 0.40915 0.0
C1747 C 0.90451 0.40892 0.45686 0.0
C1748 C 0.8796 0.38637 0.44631 0.0
H1749 H 0.83486 0.28063 0.31994 0.0
H1750 H 0.85637 0.30911 0.36872 0.0
H1751 H 0.82465 0.37163 0.40133 0.0
H1752 H 0.94712 0.45697 0.42976 0.0
H1753 H 0.90308 0.42452 0.41841 0.0
C1754 C 0.70834 0.77963 0.31125 0.0
C1755 C 0.71167 0.776 0.28027 0.0
C1756 C 0.69366 0.79445 0.32528 0.0
C1757 C 0.6445 0.82287 0.30945 0.0
H1758 H 0.66923 0.86845 0.39036 0.0
C1759 C 0.58492 0.8816 0.37741 0.0
C1760 C 0.59859 0.90733 0.3957 0.0
C1761 C 0.59808 0.86502 0.36379 0.0
C1762 C 0.66205 0.85601 0.36769 0.0
H1763 H 0.70125 0.78482 0.23977 0.0
H1764 H 0.67602 0.81068 0.2641 0.0
H1765 H 0.69282 0.84095 0.36567 0.0
H1766 H 0.63734 0.93549 0.41338 0.0
H1767 H 0.66008 0.90676 0.38992 0.0
H1768 H 0.61406 0.83839 0.31122 0.0
C1769 C 0.68456 0.80191 0.27766 0.0
C1770 C 0.67547 0.83987 0.35358 0.0
C1771 C 0.69926 0.78712 0.26364 0.0
C1772 C 0.62591 0.91574 0.40004 0.0
C1773 C 0.63906 0.89916 0.38644 0.0
C1774 C 0.63103 0.83897 0.3236 0.0
C1775 C 0.68175 0.80614 0.30883 0.0
C1776 C 0.667 0.82304 0.32416 0.0
C1777 C 0.62541 0.87352 0.36795 0.0
C1778 C 0.6396 0.85591 0.35295 0.0
H1779 H 0.7176 0.77154 0.32495 0.0
H1780 H 0.69171 0.79677 0.34916 0.0
H1781 H 0.63708 0.8101 0.28697 0.0
H1782 H 0.56391 0.87408 0.37377 0.0
H1783 H 0.5867 0.84533 0.35022 0.0
C1784 C 0.20955 0.71051 0.32817 0.0
C1785 C 0.21717 0.70172 0.2996 0.0
C1786 C 0.19796 0.69281 0.34506 0.0
C1787 C 0.18615 0.62471 0.35032 0.0
H1788 H 0.13044 0.63557 0.39643 0.0
C1789 C 0.10748 0.54511 0.3928 0.0
C1790 C 0.10131 0.55258 0.42251 0.0
C1791 C 0.12509 0.56367 0.38036 0.0
C1792 C 0.14621 0.63252 0.384 0.0
H1793 H 0.21875 0.66762 0.26624 0.0
H1794 H 0.19736 0.63634 0.29514 0.0
H1795 H 0.15352 0.66698 0.36871 0.0
H1796 H 0.10938 0.58499 0.46293 0.0
H1797 H 0.13982 0.61765 0.44081 0.0
H1798 H 0.17763 0.58935 0.36463 0.0
C1799 C 0.20103 0.65704 0.30495 0.0
C1800 C 0.15952 0.65054 0.36814 0.0
C1801 C 0.21309 0.67489 0.28825 0.0
C1802 C 0.11375 0.57873 0.43995 0.0
C1803 C 0.13107 0.59739 0.42732 0.0
C1804 C 0.17251 0.60644 0.36583 0.0
C1805 C 0.19324 0.66579 0.33354 0.0
C1806 C 0.17962 0.64684 0.351 0.0
C1807 C 0.13654 0.59007 0.39728 0.0
C1808 C 0.15239 0.61019 0.3827 0.0
H1809 H 0.21285 0.73119 0.33772 0.0
H1810 H 0.19283 0.7004 0.36725 0.0
H1811 H 0.2018 0.62146 0.33782 0.0
H1812 H 0.09828 0.52504 0.37894 0.0
H1813 H 0.12889 0.55762 0.35708 0.0
C1814 C 0.36416 0.18227 0.38261 0.0
C1815 C 0.36573 0.18828 0.35457 0.0
C1816 C 0.37636 0.16594 0.38914 0.0
C1817 C 0.40528 0.11638 0.35313 0.0
H1818 H 0.43849 0.13378 0.43397 0.0
C1819 C 0.4496 0.04816 0.39154 0.0
C1820 C 0.47286 0.06034 0.41087 0.0
C1821 C 0.43598 0.06314 0.38444 0.0
C1822 C 0.42951 0.12869 0.41119 0.0
H1823 H 0.38164 0.18177 0.31146 0.0
H1824 H 0.40304 0.15353 0.32289 0.0
H1825 H 0.41636 0.16105 0.42186 0.0
H1826 H 0.50033 0.09809 0.4371 0.0
H1827 H 0.47683 0.12409 0.42465 0.0
H1828 H 0.41911 0.08442 0.34228 0.0
C1829 C 0.39197 0.16105 0.33971 0.0
C1830 C 0.41646 0.14419 0.40433 0.0
C1831 C 0.3797 0.17732 0.33315 0.0
C1832 C 0.48223 0.08792 0.42265 0.0
C1833 C 0.46869 0.10288 0.4155 0.0
C1834 C 0.41838 0.10088 0.35999 0.0
C1835 C 0.39058 0.1552 0.36786 0.0
C1836 C 0.4042 0.13833 0.37519 0.0
C1837 C 0.44529 0.09074 0.3964 0.0
C1838 C 0.4308 0.10687 0.3891 0.0
H1839 H 0.35321 0.18994 0.39947 0.0
H1840 H 0.37438 0.16153 0.41083 0.0
H1841 H 0.39584 0.11101 0.33054 0.0
H1842 H 0.44165 0.02695 0.38229 0.0
H1843 H 0.41789 0.05301 0.36997 0.0
C1844 C 0.65259 0.79458 0.61749 0.0
C1845 C 0.66635 0.80038 0.64576 0.0
C1846 C 0.64226 0.8122 0.61064 0.0
C1847 C 0.62379 0.86985 0.64659 0.0
H1848 H 0.6225 0.87697 0.56492 0.0
C1849 C 0.5913 0.94837 0.61379 0.0
C1850 C 0.57502 0.93995 0.58669 0.0
C1851 C 0.60321 0.93214 0.62137 0.0
C1852 C 0.62251 0.87508 0.5878 0.0
H1853 H 0.67973 0.82961 0.68905 0.0
H1854 H 0.66255 0.86061 0.67676 0.0
H1855 H 0.64192 0.84759 0.57731 0.0
H1856 H 0.55825 0.90726 0.54673 0.0
H1857 H 0.57928 0.87942 0.55967 0.0
H1858 H 0.60455 0.8976 0.65702 0.0
C1859 C 0.65934 0.84218 0.65998 0.0
C1860 C 0.63361 0.85812 0.59493 0.0
C1861 C 0.66957 0.82448 0.66689 0.0
C1862 C 0.57109 0.91483 0.56744 0.0
C1863 C 0.58312 0.89874 0.57491 0.0
C1864 C 0.61284 0.88696 0.63948 0.0
C1865 C 0.64546 0.8363 0.63175 0.0
C1866 C 0.63425 0.85505 0.62439 0.0
C1867 C 0.59932 0.90712 0.60198 0.0
C1868 C 0.61186 0.88965 0.60992 0.0
H1869 H 0.64992 0.77644 0.60043 0.0
H1870 H 0.63143 0.80669 0.58882 0.0
H1871 H 0.62351 0.86781 0.66941 0.0
H1872 H 0.59514 0.96765 0.62907 0.0
H1873 H 0.61579 0.93938 0.64225 0.0
C1874 C 0.69922 0.18123 0.27459 0.0
C1875 C 0.72607 0.1874 0.27328 0.0
C1876 C 0.68514 0.16273 0.28951 0.0
C1877 C 0.69305 0.13029 0.34739 0.0
H1878 H 0.62297 0.0829 0.31489 0.0
C1879 C 0.60327 0.03616 0.37014 0.0
C1880 C 0.60294 0.04539 0.40142 0.0
C1881 C 0.62012 0.05214 0.35432 0.0
C1882 C 0.64263 0.09573 0.32412 0.0
H1883 H 0.75914 0.17862 0.28609 0.0
H1884 H 0.73439 0.1459 0.31165 0.0
H1885 H 0.64875 0.11252 0.28663 0.0
H1886 H 0.62051 0.07823 0.44091 0.0
H1887 H 0.64957 0.10652 0.4131 0.0
H1888 H 0.68701 0.11308 0.38465 0.0
C1889 C 0.72434 0.15575 0.30162 0.0
C1890 C 0.65728 0.11298 0.3081 0.0
C1891 C 0.73848 0.17438 0.28681 0.0
C1892 C 0.62035 0.07063 0.41677 0.0
C1893 C 0.63709 0.08675 0.40086 0.0
C1894 C 0.67841 0.11291 0.36338 0.0
C1895 C 0.69754 0.14985 0.30328 0.0
C1896 C 0.68255 0.13064 0.31968 0.0
C1897 C 0.63684 0.07782 0.36937 0.0
C1898 C 0.65296 0.09557 0.352 0.0
H1899 H 0.68909 0.19102 0.26457 0.0
H1900 H 0.66459 0.15893 0.29078 0.0
H1901 H 0.71238 0.14383 0.35706 0.0
H1902 H 0.59028 0.01665 0.35776 0.0
H1903 H 0.61985 0.04445 0.33019 0.0
C1904 C 0.84795 0.64154 0.31522 0.0
C1905 C 0.82889 0.64604 0.33375 0.0
C1906 C 0.86413 0.62936 0.32331 0.0
C1907 C 0.86903 0.58706 0.37192 0.0
H1908 H 0.94193 0.61204 0.35843 0.0
C1909 C 0.9368 0.53224 0.39047 0.0
C1910 C 0.96199 0.54785 0.40465 0.0
C1911 C 0.92058 0.54381 0.38104 0.0
C1912 C 0.92165 0.60488 0.36252 0.0
H1913 H 0.81243 0.64155 0.37577 0.0
H1914 H 0.84052 0.62034 0.38978 0.0
H1915 H 0.91388 0.63327 0.34429 0.0
H1916 H 0.98999 0.58794 0.41924 0.0
H1917 H 0.96171 0.60807 0.40318 0.0
H1918 H 0.87691 0.55899 0.39067 0.0
C1919 C 0.84269 0.62584 0.3687 0.0
C1920 C 0.90546 0.61689 0.35409 0.0
C1921 C 0.82654 0.63804 0.36064 0.0
C1922 C 0.97062 0.5753 0.40875 0.0
C1923 C 0.95447 0.58684 0.3992 0.0
C1924 C 0.88519 0.57498 0.38025 0.0
C1925 C 0.86171 0.62129 0.35014 0.0
C1926 C 0.87893 0.60823 0.35877 0.0
C1927 C 0.92916 0.5713 0.38535 0.0
C1928 C 0.91177 0.58378 0.37579 0.0
H1929 H 0.85011 0.64701 0.29412 0.0
H1930 H 0.87826 0.62586 0.3082 0.0
H1931 H 0.84866 0.57963 0.37559 0.0
H1932 H 0.9294 0.51107 0.38713 0.0
H1933 H 0.90133 0.53116 0.37018 0.0
C1934 C 0.29541 0.83071 0.35005 0.0
C1935 C 0.28838 0.80329 0.34291 0.0
C1936 C 0.31037 0.84665 0.37703 0.0
C1937 C 0.3584 0.8436 0.43021 0.0
H1938 H 0.36917 0.91788 0.45721 0.0
C1939 C 0.45827 0.92105 0.44786 0.0
C1940 C 0.46412 0.94645 0.4669 0.0
C1941 C 0.43353 0.90199 0.44531 0.0
C1942 C 0.36625 0.89712 0.45077 0.0
H1943 H 0.28874 0.77065 0.35962 0.0
H1944 H 0.31376 0.79834 0.40754 0.0
H1945 H 0.32761 0.88664 0.43114 0.0
H1946 H 0.44898 0.97202 0.49841 0.0
H1947 H 0.40551 0.93828 0.49466 0.0
H1948 H 0.39693 0.85407 0.4501 0.0
C1949 C 0.30893 0.80778 0.39176 0.0
C1950 C 0.34249 0.87918 0.43526 0.0
C1951 C 0.29452 0.79186 0.36435 0.0
C1952 C 0.44498 0.95234 0.48403 0.0
C1953 C 0.4201 0.93312 0.48165 0.0
C1954 C 0.38184 0.86141 0.44639 0.0
C1955 C 0.31816 0.83546 0.39784 0.0
C1956 C 0.33904 0.85253 0.42271 0.0
C1957 C 0.41395 0.90784 0.46177 0.0
C1958 C 0.38677 0.8886 0.45469 0.0
H1959 H 0.2908 0.84003 0.33395 0.0
H1960 H 0.31724 0.86778 0.38037 0.0
H1961 H 0.35666 0.8233 0.42137 0.0
H1962 H 0.4727 0.91607 0.43431 0.0
H1963 H 0.42948 0.88306 0.42916 0.0
C1964 C 0.2162 0.30888 0.28473 0.0
C1965 C 0.22837 0.29706 0.30063 0.0
C1966 C 0.20165 0.3235 0.29926 0.0
C1967 C 0.16666 0.33484 0.36777 0.0
H1968 H 0.16875 0.39654 0.34315 0.0
C1969 C 0.11327 0.4042 0.42774 0.0
C1970 C 0.10148 0.41463 0.40947 0.0
C1971 C 0.12905 0.38998 0.41567 0.0
C1972 C 0.16762 0.3792 0.35013 0.0
H1973 H 0.23451 0.29165 0.34474 0.0
H1974 H 0.20927 0.31742 0.37023 0.0
H1975 H 0.19577 0.37223 0.32063 0.0
H1976 H 0.09765 0.4182 0.3639 0.0
H1977 H 0.12447 0.39319 0.34296 0.0
H1978 H 0.1384 0.34191 0.3973 0.0
C1979 C 0.21084 0.31511 0.34629 0.0
C1980 C 0.18322 0.36517 0.33715 0.0
C1981 C 0.22552 0.30044 0.33169 0.0
C1982 C 0.10596 0.41026 0.37875 0.0
C1983 C 0.12176 0.39615 0.36674 0.0
C1984 C 0.15102 0.34892 0.38081 0.0
C1985 C 0.19868 0.32691 0.33028 0.0
C1986 C 0.18283 0.34258 0.34547 0.0
C1987 C 0.13371 0.38587 0.38499 0.0
C1988 C 0.15104 0.3712 0.37197 0.0
H1989 H 0.2177 0.30672 0.26078 0.0
H1990 H 0.19231 0.33177 0.28588 0.0
H1991 H 0.16552 0.31744 0.37463 0.0
H1992 H 0.11021 0.40689 0.45142 0.0
H1993 H 0.13799 0.3826 0.43059 0.0
C1994 C 0.33228 0.19861 0.71156 0.0
C1995 C 0.33286 0.22176 0.70441 0.0
C1996 C 0.34724 0.18433 0.69739 0.0
C1997 C 0.4037 0.18757 0.65145 0.0
H1998 H 0.37248 0.11146 0.63449 0.0
C1999 C 0.46285 0.1189 0.61192 0.0
C2000 C 0.45013 0.09375 0.59182 0.0
C2001 C 0.4491 0.13531 0.62419 0.0
C2002 C 0.38156 0.13265 0.63868 0.0
H2003 H 0.35059 0.24816 0.6768 0.0
H2004 H 0.37666 0.22301 0.65168 0.0
H2005 H 0.348 0.13832 0.65757 0.0
H2006 H 0.41245 0.06661 0.56907 0.0
H2007 H 0.38883 0.09519 0.58966 0.0
H2008 H 0.43715 0.1817 0.63196 0.0
C2009 C 0.36458 0.21603 0.6686 0.0
C2010 C 0.36754 0.14822 0.65243 0.0
C2011 C 0.34955 0.23049 0.68297 0.0
C2012 C 0.4232 0.08583 0.58411 0.0
C2013 C 0.40947 0.10221 0.59637 0.0
C2014 C 0.41779 0.17193 0.63766 0.0
C2015 C 0.36338 0.19245 0.67529 0.0
C2016 C 0.37837 0.17599 0.65934 0.0
C2017 C 0.42208 0.12716 0.61688 0.0
C2018 C 0.407 0.14415 0.63111 0.0
H2019 H 0.32009 0.19128 0.72823 0.0
H2020 H 0.34615 0.16683 0.70398 0.0
H2021 H 0.41291 0.20881 0.65645 0.0
H2022 H 0.48356 0.12605 0.61827 0.0
H2023 H 0.45964 0.15418 0.64001 0.0
C2024 C 0.83748 0.32547 0.73601 0.0
C2025 C 0.81132 0.31059 0.72512 0.0
C2026 C 0.85255 0.34458 0.72233 0.0
C2027 C 0.85879 0.35894 0.64981 0.0
H2028 H 0.90241 0.42983 0.6945 0.0
C2029 C 0.9199 0.43446 0.58897 0.0
C2030 C 0.94473 0.45148 0.60284 0.0
C2031 C 0.90247 0.41863 0.60456 0.0
C2032 C 0.89061 0.41 0.68171 0.0
H2033 H 0.78027 0.30432 0.69179 0.0
H2034 H 0.80683 0.33742 0.66757 0.0
H2035 H 0.87412 0.39986 0.72118 0.0
H2036 H 0.97094 0.46527 0.64371 0.0
H2037 H 0.94098 0.43693 0.67052 0.0
H2038 H 0.87584 0.36839 0.61056 0.0
C2039 C 0.81554 0.33434 0.68677 0.0
C2040 C 0.87433 0.39296 0.697 0.0
C2041 C 0.80036 0.31553 0.70072 0.0
C2042 C 0.95184 0.45242 0.63254 0.0
C2043 C 0.93456 0.43631 0.64798 0.0
C2044 C 0.87532 0.3758 0.63458 0.0
C2045 C 0.84181 0.34882 0.69728 0.0
C2046 C 0.85833 0.36729 0.68115 0.0
C2047 C 0.90965 0.41918 0.63418 0.0
C2048 C 0.89151 0.40154 0.65034 0.0
H2049 H 0.8464 0.32214 0.75485 0.0
H2050 H 0.87283 0.35543 0.7307 0.0
H2051 H 0.84686 0.33908 0.63718 0.0
H2052 H 0.91384 0.43351 0.56614 0.0
H2053 H 0.8833 0.40608 0.5934 0.0
C2054 C 0.2414 0.68393 0.6403 0.0
C2055 C 0.24342 0.70975 0.65491 0.0
C2056 C 0.2249 0.66992 0.61375 0.0
C2057 C 0.16333 0.66638 0.58326 0.0
H2058 H 0.16897 0.60817 0.52119 0.0
C2059 C 0.07121 0.58133 0.52859 0.0
C2060 C 0.07233 0.55695 0.52899 0.0
C2061 C 0.09414 0.60302 0.53072 0.0
C2062 C 0.16708 0.62441 0.53829 0.0
H2063 H 0.2319 0.74213 0.65139 0.0
H2064 H 0.20312 0.71763 0.60511 0.0
H2065 H 0.20827 0.64249 0.55042 0.0
H2066 H 0.09745 0.53518 0.53017 0.0
H2067 H 0.13758 0.57317 0.5355 0.0
H2068 H 0.12236 0.64761 0.57335 0.0
C2069 C 0.21396 0.70809 0.61445 0.0
C2070 C 0.18959 0.64409 0.55491 0.0
C2071 C 0.23042 0.72208 0.64101 0.0
C2072 C 0.09637 0.55396 0.52977 0.0
C2073 C 0.11931 0.57572 0.53249 0.0
C2074 C 0.14091 0.64666 0.56695 0.0
C2075 C 0.21015 0.6815 0.6013 0.0
C2076 C 0.1878 0.66462 0.57848 0.0
C2077 C 0.1185 0.6008 0.53431 0.0
C2078 C 0.14239 0.62475 0.54526 0.0
H2079 H 0.25134 0.67394 0.65025 0.0
H2080 H 0.22225 0.6494 0.60431 0.0
H2081 H 0.16119 0.68176 0.60145 0.0
H2082 H 0.05267 0.58381 0.52778 0.0
H2083 H 0.09276 0.62185 0.53128 0.0
loop_
_geom_bond_atom_site_label_1
_geom_bond_atom_site_label_2
_geom_bond_distance
_geom_bond_site_symmetry_2
_ccdc_geom_bond_type
Eu0 C9 2.828 . S
Eu0 O11 2.392 . S
Eu0 O13 2.418 . S
Eu0 O18 2.373 . S
Eu0 O21 2.488 . S
Eu0 O22 2.471 . S
Eu0 O23 2.349 . S
Eu1 O10 2.373 . S
Eu1 O14 2.488 . S
Eu1 O15 2.471 . S
Eu1 O16 2.349 . S
Eu1 O19 2.392 . S
Eu1 O20 2.418 . S
Eu1 C30 2.828 . S
C2 O20 1.244 . S
C2 O23 1.265 . S
C3 C4 1.379 . S
C3 C7 1.373 . S
C3 C9 1.505 . S
C4 C3 1.379 . S
C4 C6 1.369 . S
C4 H32 0.930 . S
C5 C7 1.383 . S
C5 C8 1.382 . S
C5 H33 0.930 . S
C6 C4 1.369 . S
C6 C8 1.392 . S
C6 H34 0.930 . S
C7 C3 1.373 . S
C7 C5 1.383 . S
C7 H35 0.931 . S
C8 C5 1.382 . S
C8 C6 1.392 . S
C9 Eu0 2.828 . S
C9 C3 1.505 . S
C9 O21 1.249 . S
C9 O22 1.244 . S
O10 Eu1 2.373 . S
O10 C12 1.258 . S
O11 Eu0 2.392 . S
O11 C12 1.242 . S
C12 O10 1.258 . S
C12 O11 1.242 . S
O13 Eu0 2.418 . S
O13 C17 1.244 . S
O14 Eu1 2.488 . S
O14 C30 1.249 . S
O15 Eu1 2.471 . S
O15 C30 1.244 . S
O16 Eu1 2.349 . S
O16 C17 1.265 . S
C17 O13 1.244 . S
C17 O16 1.265 . S
O18 Eu0 2.373 . S
O18 C31 1.258 . S
O19 Eu1 2.392 . S
O19 C31 1.242 . S
O20 Eu1 2.418 . S
O20 C2 1.244 . S
O21 Eu0 2.488 . S
O21 C9 1.249 . S
O22 Eu0 2.471 . S
O22 C9 1.244 . S
O23 Eu0 2.349 . S
O23 C2 1.265 . S
C24 C25 1.379 . S
C24 C28 1.373 . S
C24 C30 1.505 . S
C25 C24 1.379 . S
C25 C27 1.369 . S
C25 H36 0.930 . S
C26 C28 1.383 . S
C26 C29 1.382 . S
C26 H37 0.930 . S
C27 C25 1.369 . S
C27 C29 1.392 . S
C27 H38 0.930 . S
C28 C24 1.373 . S
C28 C26 1.383 . S
C28 H39 0.931 . S
C29 C26 1.382 . S
C29 C27 1.392 . S
C30 Eu1 2.828 . S
C30 O14 1.249 . S
C30 O15 1.244 . S
C30 C24 1.505 . S
C31 O18 1.258 . S
C31 O19 1.242 . S
H32 C4 0.930 . S
H33 C5 0.930 . S
H34 C6 0.930 . S
H35 C7 0.931 . S
H36 C25 0.930 . S
H37 C26 0.930 . S
H38 C27 0.930 . S
H39 C28 0.931 . S
Eu40 C49 2.828 . S
Eu40 O51 2.392 . S
Eu40 O53 2.418 . S
Eu40 O58 2.373 . S
Eu40 O61 2.488 . S
Eu40 O62 2.471 . S
Eu40 O63 2.349 . S
Eu41 O50 2.373 . S
Eu41 O54 2.488 . S
Eu41 O55 2.471 . S
Eu41 O56 2.349 . S
Eu41 O59 2.392 . S
Eu41 O60 2.418 . S
Eu41 C70 2.828 . S
C42 O60 1.244 . S
C42 O63 1.265 . S
C43 C44 1.379 . S
C43 C47 1.373 . S
C43 C49 1.505 . S
C44 C43 1.379 . S
C44 C46 1.369 . S
C44 H72 0.930 . S
C45 C47 1.383 . S
C45 C48 1.382 . S
C45 H73 0.930 . S
C46 C44 1.369 . S
C46 C48 1.392 . S
C46 H74 0.930 . S
C47 C43 1.373 . S
C47 C45 1.383 . S
C47 H75 0.931 . S
C48 C45 1.382 . S
C48 C46 1.392 . S
C49 Eu40 2.828 . S
C49 C43 1.505 . S
C49 O61 1.249 . S
C49 O62 1.244 . S
O50 Eu41 2.373 . S
O50 C52 1.258 . S
O51 Eu40 2.392 . S
O51 C52 1.242 . S
C52 O50 1.258 . S
C52 O51 1.242 . S
O53 Eu40 2.418 . S
O53 C57 1.244 . S
O54 Eu41 2.488 . S
O54 C70 1.249 . S
O55 Eu41 2.471 . S
O55 C70 1.244 . S
O56 Eu41 2.349 . S
O56 C57 1.265 . S
C57 O53 1.244 . S
C57 O56 1.265 . S
O58 Eu40 2.373 . S
O58 C71 1.258 . S
O59 Eu41 2.392 . S
O59 C71 1.242 . S
O60 Eu41 2.418 . S
O60 C42 1.244 . S
O61 Eu40 2.488 . S
O61 C49 1.249 . S
O62 Eu40 2.471 . S
O62 C49 1.244 . S
O63 Eu40 2.349 . S
O63 C42 1.265 . S
C64 C65 1.379 . S
C64 C68 1.373 . S
C64 C70 1.505 . S
C65 C64 1.379 . S
C65 C67 1.369 . S
C65 H76 0.930 . S
C66 C68 1.383 . S
C66 C69 1.382 . S
C66 H77 0.930 . S
C67 C65 1.369 . S
C67 C69 1.392 . S
C67 H78 0.930 . S
C68 C64 1.373 . S
C68 C66 1.383 . S
C68 H79 0.931 . S
C69 C66 1.382 . S
C69 C67 1.392 . S
C70 Eu41 2.828 . S
C70 O54 1.249 . S
C70 O55 1.244 . S
C70 C64 1.505 . S
C71 O58 1.258 . S
C71 O59 1.242 . S
H72 C44 0.930 . S
H73 C45 0.930 . S
H74 C46 0.930 . S
H75 C47 0.931 . S
H76 C65 0.930 . S
H77 C66 0.930 . S
H78 C67 0.930 . S
H79 C68 0.931 . S
Eu80 C89 2.828 . S
Eu80 O91 2.392 . S
Eu80 O93 2.418 . S
Eu80 O98 2.373 . S
Eu80 O101 2.488 . S
Eu80 O102 2.471 . S
Eu80 O103 2.349 . S
Eu81 O90 2.373 . S
Eu81 O94 2.488 . S
Eu81 O95 2.471 . S
Eu81 O96 2.349 . S
Eu81 O99 2.392 . S
Eu81 O100 2.418 . S
Eu81 C110 2.828 . S
C82 O100 1.244 . S
C82 O103 1.265 . S
C83 C84 1.379 . S
C83 C87 1.373 . S
C83 C89 1.505 . S
C84 C83 1.379 . S
C84 C86 1.369 . S
C84 H112 0.930 . S
C85 C87 1.383 . S
C85 C88 1.382 . S
C85 H113 0.930 . S
C86 C84 1.369 . S
C86 C88 1.392 . S
C86 H114 0.930 . S
C87 C83 1.373 . S
C87 C85 1.383 . S
C87 H115 0.931 . S
C88 C85 1.382 . S
C88 C86 1.392 . S
C89 Eu80 2.828 . S
C89 C83 1.505 . S
C89 O101 1.249 . S
C89 O102 1.244 . S
O90 Eu81 2.373 . S
O90 C92 1.258 . S
O91 Eu80 2.392 . S
O91 C92 1.242 . S
C92 O90 1.258 . S
C92 O91 1.242 . S
O93 Eu80 2.418 . S
O93 C97 1.244 . S
O94 Eu81 2.488 . S
O94 C110 1.249 . S
O95 Eu81 2.471 . S
O95 C110 1.244 . S
O96 Eu81 2.349 . S
O96 C97 1.265 . S
C97 O93 1.244 . S
C97 O96 1.265 . S
O98 Eu80 2.373 . S
O98 C111 1.258 . S
O99 Eu81 2.392 . S
O99 C111 1.242 . S
O100 Eu81 2.418 . S
O100 C82 1.244 . S
O101 Eu80 2.488 . S
O101 C89 1.249 . S
O102 Eu80 2.471 . S
O102 C89 1.244 . S
O103 Eu80 2.349 . S
O103 C82 1.265 . S
C104 C105 1.379 . S
C104 C108 1.373 . S
C104 C110 1.505 . S
C105 C104 1.379 . S
C105 C107 1.369 . S
C105 H116 0.930 . S
C106 C108 1.383 . S
C106 C109 1.382 . S
C106 H117 0.930 . S
C107 C105 1.369 . S
C107 C109 1.392 . S
C107 H118 0.930 . S
C108 C104 1.373 . S
C108 C106 1.383 . S
C108 H119 0.931 . S
C109 C106 1.382 . S
C109 C107 1.392 . S
C110 Eu81 2.828 . S
C110 O94 1.249 . S
C110 O95 1.244 . S
C110 C104 1.505 . S
C111 O98 1.258 . S
C111 O99 1.242 . S
H112 C84 0.930 . S
H113 C85 0.930 . S
H114 C86 0.930 . S
H115 C87 0.931 . S
H116 C105 0.930 . S
H117 C106 0.930 . S
H118 C107 0.930 . S
H119 C108 0.931 . S
Eu120 C129 2.828 . S
Eu120 O131 2.392 . S
Eu120 O133 2.418 . S
Eu120 O138 2.373 . S
Eu120 O141 2.488 . S
Eu120 O142 2.471 . S
Eu120 O143 2.349 . S
Eu121 O130 2.373 . S
Eu121 O134 2.488 . S
Eu121 O135 2.471 . S
Eu121 O136 2.349 . S
Eu121 O139 2.392 . S
Eu121 O140 2.418 . S
Eu121 C150 2.828 . S
C122 O140 1.244 . S
C122 O143 1.265 . S
C123 C124 1.379 . S
C123 C127 1.373 . S
C123 C129 1.505 . S
C124 C123 1.379 . S
C124 C126 1.369 . S
C124 H152 0.930 . S
C125 C127 1.383 . S
C125 C128 1.382 . S
C125 H153 0.930 . S
C126 C124 1.369 . S
C126 C128 1.392 . S
C126 H154 0.930 . S
C127 C123 1.373 . S
C127 C125 1.383 . S
C127 H155 0.931 . S
C128 C125 1.382 . S
C128 C126 1.392 . S
C129 Eu120 2.828 . S
C129 C123 1.505 . S
C129 O141 1.249 . S
C129 O142 1.244 . S
O130 Eu121 2.373 . S
O130 C132 1.258 . S
O131 Eu120 2.392 . S
O131 C132 1.242 . S
C132 O130 1.258 . S
C132 O131 1.242 . S
O133 Eu120 2.418 . S
O133 C137 1.244 . S
O134 Eu121 2.488 . S
O134 C150 1.249 . S
O135 Eu121 2.471 . S
O135 C150 1.244 . S
O136 Eu121 2.349 . S
O136 C137 1.265 . S
C137 O133 1.244 . S
C137 O136 1.265 . S
O138 Eu120 2.373 . S
O138 C151 1.258 . S
O139 Eu121 2.392 . S
O139 C151 1.242 . S
O140 Eu121 2.418 . S
O140 C122 1.244 . S
O141 Eu120 2.488 . S
O141 C129 1.249 . S
O142 Eu120 2.471 . S
O142 C129 1.244 . S
O143 Eu120 2.349 . S
O143 C122 1.265 . S
C144 C145 1.379 . S
C144 C148 1.373 . S
C144 C150 1.505 . S
C145 C144 1.379 . S
C145 C147 1.369 . S
C145 H156 0.930 . S
C146 C148 1.383 . S
C146 C149 1.382 . S
C146 H157 0.930 . S
C147 C145 1.369 . S
C147 C149 1.392 . S
C147 H158 0.930 . S
C148 C144 1.373 . S
C148 C146 1.383 . S
C148 H159 0.931 . S
C149 C146 1.382 . S
C149 C147 1.392 . S
C150 Eu121 2.828 . S
C150 O134 1.249 . S
C150 O135 1.244 . S
C150 C144 1.505 . S
C151 O138 1.258 . S
C151 O139 1.242 . S
H152 C124 0.930 . S
H153 C125 0.930 . S
H154 C126 0.930 . S
H155 C127 0.931 . S
H156 C145 0.930 . S
H157 C146 0.930 . S
H158 C147 0.930 . S
H159 C148 0.931 . S
Eu160 C169 2.828 . S
Eu160 O171 2.392 . S
Eu160 O173 2.418 . S
Eu160 O178 2.373 . S
Eu160 O181 2.488 . S
Eu160 O182 2.471 . S
Eu160 O183 2.349 . S
Eu161 O170 2.373 . S
Eu161 O174 2.488 . S
Eu161 O175 2.471 . S
Eu161 O176 2.349 . S
Eu161 O179 2.392 . S
Eu161 O180 2.418 . S
Eu161 C190 2.828 . S
C162 O180 1.244 . S
C162 O183 1.265 . S
C163 C164 1.379 . S
C163 C167 1.373 . S
C163 C169 1.505 . S
C164 C163 1.379 . S
C164 C166 1.369 . S
C164 H192 0.930 . S
C165 C167 1.383 . S
C165 C168 1.382 . S
C165 H193 0.930 . S
C166 C164 1.369 . S
C166 C168 1.392 . S
C166 H194 0.930 . S
C167 C163 1.373 . S
C167 C165 1.383 . S
C167 H195 0.931 . S
C168 C165 1.382 . S
C168 C166 1.392 . S
C169 Eu160 2.828 . S
C169 C163 1.505 . S
C169 O181 1.249 . S
C169 O182 1.244 . S
O170 Eu161 2.373 . S
O170 C172 1.258 . S
O171 Eu160 2.392 . S
O171 C172 1.242 . S
C172 O170 1.258 . S
C172 O171 1.242 . S
O173 Eu160 2.418 . S
O173 C177 1.244 . S
O174 Eu161 2.488 . S
O174 C190 1.249 . S
O175 Eu161 2.471 . S
O175 C190 1.244 . S
O176 Eu161 2.349 . S
O176 C177 1.265 . S
C177 O173 1.244 . S
C177 O176 1.265 . S
O178 Eu160 2.373 . S
O178 C191 1.258 . S
O179 Eu161 2.392 . S
O179 C191 1.242 . S
O180 Eu161 2.418 . S
O180 C162 1.244 . S
O181 Eu160 2.488 . S
O181 C169 1.249 . S
O182 Eu160 2.471 . S
O182 C169 1.244 . S
O183 Eu160 2.349 . S
O183 C162 1.265 . S
C184 C185 1.379 . S
C184 C188 1.373 . S
C184 C190 1.505 . S
C185 C184 1.379 . S
C185 C187 1.369 . S
C185 H196 0.930 . S
C186 C188 1.383 . S
C186 C189 1.382 . S
C186 H197 0.930 . S
C187 C185 1.369 . S
C187 C189 1.392 . S
C187 H198 0.930 . S
C188 C184 1.373 . S
C188 C186 1.383 . S
C188 H199 0.931 . S
C189 C186 1.382 . S
C189 C187 1.392 . S
C190 Eu161 2.828 . S
C190 O174 1.249 . S
C190 O175 1.244 . S
C190 C184 1.505 . S
C191 O178 1.258 . S
C191 O179 1.242 . S
H192 C164 0.930 . S
H193 C165 0.930 . S
H194 C166 0.930 . S
H195 C167 0.931 . S
H196 C185 0.930 . S
H197 C186 0.930 . S
H198 C187 0.930 . S
H199 C188 0.931 . S
Eu200 C209 2.828 . S
Eu200 O211 2.392 . S
Eu200 O213 2.418 . S
Eu200 O218 2.373 . S
Eu200 O221 2.488 . S
Eu200 O222 2.471 . S
Eu200 O223 2.349 . S
Eu201 O210 2.373 . S
Eu201 O214 2.488 . S
Eu201 O215 2.471 . S
Eu201 O216 2.349 . S
Eu201 O219 2.392 . S
Eu201 O220 2.418 . S
Eu201 C230 2.828 . S
C202 O220 1.244 . S
C202 O223 1.265 . S
C203 C204 1.379 . S
C203 C207 1.373 . S
C203 C209 1.505 . S
C204 C203 1.379 . S
C204 C206 1.369 . S
C204 H232 0.930 . S
C205 C207 1.383 . S
C205 C208 1.382 . S
C205 H233 0.930 . S
C206 C204 1.369 . S
C206 C208 1.392 . S
C206 H234 0.930 . S
C207 C203 1.373 . S
C207 C205 1.383 . S
C207 H235 0.931 . S
C208 C205 1.382 . S
C208 C206 1.392 . S
C209 Eu200 2.828 . S
C209 C203 1.505 . S
C209 O221 1.249 . S
C209 O222 1.244 . S
O210 Eu201 2.373 . S
O210 C212 1.258 . S
O211 Eu200 2.392 . S
O211 C212 1.242 . S
C212 O210 1.258 . S
C212 O211 1.242 . S
O213 Eu200 2.418 . S
O213 C217 1.244 . S
O214 Eu201 2.488 . S
O214 C230 1.249 . S
O215 Eu201 2.471 . S
O215 C230 1.244 . S
O216 Eu201 2.349 . S
O216 C217 1.265 . S
C217 O213 1.244 . S
C217 O216 1.265 . S
O218 Eu200 2.373 . S
O218 C231 1.258 . S
O219 Eu201 2.392 . S
O219 C231 1.242 . S
O220 Eu201 2.418 . S
O220 C202 1.244 . S
O221 Eu200 2.488 . S
O221 C209 1.249 . S
O222 Eu200 2.471 . S
O222 C209 1.244 . S
O223 Eu200 2.349 . S
O223 C202 1.265 . S
C224 C225 1.379 . S
C224 C228 1.373 . S
C224 C230 1.505 . S
C225 C224 1.379 . S
C225 C227 1.369 . S
C225 H236 0.930 . S
C226 C228 1.383 . S
C226 C229 1.382 . S
C226 H237 0.930 . S
C227 C225 1.369 . S
C227 C229 1.392 . S
C227 H238 0.930 . S
C228 C224 1.373 . S
C228 C226 1.383 . S
C228 H239 0.931 . S
C229 C226 1.382 . S
C229 C227 1.392 . S
C230 Eu201 2.828 . S
C230 O214 1.249 . S
C230 O215 1.244 . S
C230 C224 1.505 . S
C231 O218 1.258 . S
C231 O219 1.242 . S
H232 C204 0.930 . S
H233 C205 0.930 . S
H234 C206 0.930 . S
H235 C207 0.931 . S
H236 C225 0.930 . S
H237 C226 0.930 . S
H238 C227 0.930 . S
H239 C228 0.931 . S
Eu240 C249 2.828 . S
Eu240 O251 2.392 . S
Eu240 O253 2.418 . S
Eu240 O258 2.373 . S
Eu240 O261 2.488 . S
Eu240 O262 2.471 . S
Eu240 O263 2.349 . S
Eu241 O250 2.373 . S
Eu241 O254 2.488 . S
Eu241 O255 2.471 . S
Eu241 O256 2.349 . S
Eu241 O259 2.392 . S
Eu241 O260 2.418 . S
Eu241 C270 2.828 . S
C242 O260 1.244 . S
C242 O263 1.265 . S
C243 C244 1.379 . S
C243 C247 1.373 . S
C243 C249 1.505 . S
C244 C243 1.379 . S
C244 C246 1.369 . S
C244 H272 0.930 . S
C245 C247 1.383 . S
C245 C248 1.382 . S
C245 H273 0.930 . S
C246 C244 1.369 . S
C246 C248 1.392 . S
C246 H274 0.930 . S
C247 C243 1.373 . S
C247 C245 1.383 . S
C247 H275 0.931 . S
C248 C245 1.382 . S
C248 C246 1.392 . S
C249 Eu240 2.828 . S
C249 C243 1.505 . S
C249 O261 1.249 . S
C249 O262 1.244 . S
O250 Eu241 2.373 . S
O250 C252 1.258 . S
O251 Eu240 2.392 . S
O251 C252 1.242 . S
C252 O250 1.258 . S
C252 O251 1.242 . S
O253 Eu240 2.418 . S
O253 C257 1.244 . S
O254 Eu241 2.488 . S
O254 C270 1.249 . S
O255 Eu241 2.471 . S
O255 C270 1.244 . S
O256 Eu241 2.349 . S
O256 C257 1.265 . S
C257 O253 1.244 . S
C257 O256 1.265 . S
O258 Eu240 2.373 . S
O258 C271 1.258 . S
O259 Eu241 2.392 . S
O259 C271 1.242 . S
O260 Eu241 2.418 . S
O260 C242 1.244 . S
O261 Eu240 2.488 . S
O261 C249 1.249 . S
O262 Eu240 2.471 . S
O262 C249 1.244 . S
O263 Eu240 2.349 . S
O263 C242 1.265 . S
C264 C265 1.379 . S
C264 C268 1.373 . S
C264 C270 1.505 . S
C265 C264 1.379 . S
C265 C267 1.369 . S
C265 H276 0.930 . S
C266 C268 1.383 . S
C266 C269 1.382 . S
C266 H277 0.930 . S
C267 C265 1.369 . S
C267 C269 1.392 . S
C267 H278 0.930 . S
C268 C264 1.373 . S
C268 C266 1.383 . S
C268 H279 0.931 . S
C269 C266 1.382 . S
C269 C267 1.392 . S
C270 Eu241 2.828 . S
C270 O254 1.249 . S
C270 O255 1.244 . S
C270 C264 1.505 . S
C271 O258 1.258 . S
C271 O259 1.242 . S
H272 C244 0.930 . S
H273 C245 0.930 . S
H274 C246 0.930 . S
H275 C247 0.931 . S
H276 C265 0.930 . S
H277 C266 0.930 . S
H278 C267 0.930 . S
H279 C268 0.931 . S
Eu280 C289 2.828 . S
Eu280 O291 2.392 . S
Eu280 O293 2.418 . S
Eu280 O298 2.373 . S
Eu280 O301 2.488 . S
Eu280 O302 2.471 . S
Eu280 O303 2.349 . S
Eu281 O290 2.373 . S
Eu281 O294 2.488 . S
Eu281 O295 2.471 . S
Eu281 O296 2.349 . S
Eu281 O299 2.392 . S
Eu281 O300 2.418 . S
Eu281 C310 2.828 . S
C282 O300 1.244 . S
C282 O303 1.265 . S
C283 C284 1.379 . S
C283 C287 1.373 . S
C283 C289 1.505 . S
C284 C283 1.379 . S
C284 C286 1.369 . S
C284 H312 0.930 . S
C285 C287 1.383 . S
C285 C288 1.382 . S
C285 H313 0.930 . S
C286 C284 1.369 . S
C286 C288 1.392 . S
C286 H314 0.930 . S
C287 C283 1.373 . S
C287 C285 1.383 . S
C287 H315 0.931 . S
C288 C285 1.382 . S
C288 C286 1.392 . S
C289 Eu280 2.828 . S
C289 C283 1.505 . S
C289 O301 1.249 . S
C289 O302 1.244 . S
O290 Eu281 2.373 . S
O290 C292 1.258 . S
O291 Eu280 2.392 . S
O291 C292 1.242 . S
C292 O290 1.258 . S
C292 O291 1.242 . S
O293 Eu280 2.418 . S
O293 C297 1.244 . S
O294 Eu281 2.488 . S
O294 C310 1.249 . S
O295 Eu281 2.471 . S
O295 C310 1.244 . S
O296 Eu281 2.349 . S
O296 C297 1.265 . S
C297 O293 1.244 . S
C297 O296 1.265 . S
O298 Eu280 2.373 . S
O298 C311 1.258 . S
O299 Eu281 2.392 . S
O299 C311 1.242 . S
O300 Eu281 2.418 . S
O300 C282 1.244 . S
O301 Eu280 2.488 . S
O301 C289 1.249 . S
O302 Eu280 2.471 . S
O302 C289 1.244 . S
O303 Eu280 2.349 . S
O303 C282 1.265 . S
C304 C305 1.379 . S
C304 C308 1.373 . S
C304 C310 1.505 . S
C305 C304 1.379 . S
C305 C307 1.369 . S
C305 H316 0.930 . S
C306 C308 1.383 . S
C306 C309 1.382 . S
C306 H317 0.930 . S
C307 C305 1.369 . S
C307 C309 1.392 . S
C307 H318 0.930 . S
C308 C304 1.373 . S
C308 C306 1.383 . S
C308 H319 0.931 . S
C309 C306 1.382 . S
C309 C307 1.392 . S
C310 Eu281 2.828 . S
C310 O294 1.249 . S
C310 O295 1.244 . S
C310 C304 1.505 . S
C311 O298 1.258 . S
C311 O299 1.242 . S
H312 C284 0.930 . S
H313 C285 0.930 . S
H314 C286 0.930 . S
H315 C287 0.931 . S
H316 C305 0.930 . S
H317 C306 0.930 . S
H318 C307 0.930 . S
H319 C308 0.931 . S
Cd320 N323 2.334 1_655 S
Cd320 N349 2.304 1_565 S
Cd320 O356 2.268 . S
Cd320 O359 2.273 1_665 S
Cd320 O360 2.417 . S
Cd320 O361 2.330 . S
Cd321 N336 2.304 1_455 S
Cd321 N340 2.334 1_545 S
Cd321 O357 2.273 1_445 S
Cd321 O358 2.268 . S
Cd321 O362 2.417 . S
Cd321 O363 2.330 . S
C322 N323 1.332 . S
C322 C326 1.381 . S
C322 H328 0.931 . S
N323 Cd320 2.334 1_455 S
N323 C322 1.332 . S
N323 C327 1.328 . S
C324 C325 1.396 . S
C324 C327 1.378 . S
C324 H366 0.931 . S
C325 C324 1.396 . S
C325 C326 1.382 . S
C326 C322 1.381 . S
C326 C325 1.382 . S
C326 H367 0.930 . S
C327 N323 1.328 . S
C327 C324 1.378 . S
C327 H329 0.930 1_455 S
H328 C322 0.931 . S
H329 C327 0.930 1_655 S
C330 O356 1.238 . S
C330 O357 1.253 . S
C331 C332 1.379 . S
C331 N336 1.337 . S
C331 H337 0.929 . S
C332 C331 1.379 . S
C332 C333 1.380 . S
C332 H368 0.929 . S
C333 C332 1.380 . S
C333 C334 1.399 . S
C334 C333 1.399 . S
C334 C335 1.409 . S
C334 H369 0.931 . S
C335 C334 1.409 . S
C335 N336 1.331 . S
C335 H338 0.904 1_655 S
N336 Cd321 2.304 1_655 S
N336 C331 1.337 . S
N336 C335 1.331 . S
H337 C331 0.929 . S
H338 C335 0.904 1_455 S
C339 N340 1.332 . S
C339 C343 1.381 . S
C339 H345 0.931 . S
N340 Cd321 2.334 1_565 S
N340 C339 1.332 . S
N340 C344 1.328 . S
C341 C342 1.396 . S
C341 C344 1.378 . S
C341 H370 0.931 . S
C342 C341 1.396 . S
C342 C343 1.382 . S
C343 C339 1.381 . S
C343 C342 1.382 . S
C343 H371 0.930 . S
C344 N340 1.328 . S
C344 C341 1.378 . S
C344 H346 0.930 1_565 S
H345 C339 0.931 . S
H346 C344 0.930 1_545 S
C347 O358 1.238 . S
C347 O359 1.253 . S
C348 O360 1.239 . S
C348 O361 1.230 . S
N349 Cd320 2.304 1_545 S
N349 C350 1.337 . S
N349 C354 1.338 . S
C350 N349 1.337 . S
C350 C351 1.379 . S
C350 H364 0.929 . S
C351 C350 1.379 . S
C351 C352 1.380 . S
C351 H372 0.929 . S
C352 C351 1.380 . S
C352 C353 1.399 . S
C353 C352 1.399 . S
C353 C354 1.376 . S
C353 H373 0.931 . S
C354 N349 1.338 . S
C354 C353 1.376 . S
C354 H365 0.930 1_545 S
C355 O362 1.239 . S
C355 O363 1.230 . S
O356 Cd320 2.268 . S
O356 C330 1.238 . S
O357 Cd321 2.273 1_665 S
O357 C330 1.253 . S
O358 Cd321 2.268 . S
O358 C347 1.238 . S
O359 Cd320 2.273 1_445 S
O359 C347 1.253 . S
O360 Cd320 2.417 . S
O360 C348 1.239 . S
O361 Cd320 2.330 . S
O361 C348 1.230 . S
O362 Cd321 2.417 . S
O362 C355 1.239 . S
O363 Cd321 2.330 . S
O363 C355 1.230 . S
H364 C350 0.929 . S
H365 C354 0.930 1_565 S
H366 C324 0.931 . S
H367 C326 0.930 . S
H368 C332 0.929 . S
H369 C334 0.931 . S
H370 C341 0.931 . S
H371 C343 0.930 . S
H372 C351 0.929 . S
H373 C353 0.931 . S
Cd374 N377 2.334 . S
Cd374 N403 2.304 1_565 S
Cd374 O410 2.268 1_554 S
Cd374 O413 2.273 1_565 S
Cd374 O414 2.417 . S
Cd374 O415 2.330 . S
Cd375 N390 2.304 . S
Cd375 N394 2.334 1_545 S
Cd375 O411 2.273 1_545 S
Cd375 O412 2.268 1_556 S
Cd375 O416 2.417 . S
Cd375 O417 2.330 . S
C376 N377 1.332 . S
C376 C380 1.381 . S
C376 H382 0.931 . S
N377 Cd374 2.334 . S
N377 C376 1.332 . S
N377 C381 1.328 . S
C378 C379 1.396 . S
C378 C381 1.378 . S
C378 H420 0.931 1_554 S
C379 C378 1.396 . S
C379 C380 1.382 . S
C380 C376 1.381 . S
C380 C379 1.382 . S
C380 H421 0.930 . S
C381 N377 1.328 . S
C381 C378 1.378 . S
C381 H383 0.930 1_554 S
H382 C376 0.931 . S
H383 C381 0.930 1_556 S
C384 O410 1.238 . S
C384 O411 1.253 . S
C385 C386 1.379 . S
C385 N390 1.337 . S
C385 H391 0.929 . S
C386 C385 1.379 . S
C386 C387 1.380 . S
C386 H422 0.929 . S
C387 C386 1.380 . S
C387 C388 1.399 . S
C388 C387 1.399 . S
C388 C389 1.376 . S
C388 H423 0.931 1_556 S
C389 C388 1.376 . S
C389 N390 1.338 . S
C389 H392 0.930 1_556 S
N390 Cd375 2.304 . S
N390 C385 1.337 . S
N390 C389 1.338 . S
H391 C385 0.929 . S
H392 C389 0.930 1_554 S
C393 N394 1.332 . S
C393 C397 1.381 . S
C393 H399 0.931 . S
N394 Cd375 2.334 1_565 S
N394 C393 1.332 . S
N394 C398 1.328 . S
C395 C396 1.396 . S
C395 C398 1.378 . S
C395 H424 0.931 1_556 S
C396 C395 1.396 . S
C396 C397 1.382 . S
C397 C393 1.381 . S
C397 C396 1.382 . S
C397 H425 0.930 . S
C398 N394 1.328 . S
C398 C395 1.378 . S
C398 H400 0.930 1_566 S
H399 C393 0.931 . S
H400 C398 0.930 1_544 S
C401 O412 1.238 . S
C401 O413 1.253 . S
C402 O414 1.239 . S
C402 O415 1.230 . S
N403 Cd374 2.304 1_545 S
N403 C404 1.337 . S
N403 C408 1.338 . S
C404 N403 1.337 . S
C404 C405 1.379 . S
C404 H418 0.929 . S
C405 C404 1.379 . S
C405 C406 1.380 . S
C405 H426 0.929 . S
C406 C405 1.380 . S
C406 C407 1.399 . S
C407 C406 1.399 . S
C407 C408 1.376 . S
C407 H427 0.914 1_554 S
C408 N403 1.338 . S
C408 C407 1.376 . S
C408 H419 0.930 1_544 S
C409 O416 1.239 . S
C409 O417 1.230 . S
O410 Cd374 2.268 1_556 S
O410 C384 1.238 . S
O411 Cd375 2.273 1_565 S
O411 C384 1.253 . S
O412 Cd375 2.268 1_554 S
O412 C401 1.238 . S
O413 Cd374 2.273 1_545 S
O413 C401 1.253 . S
O414 Cd374 2.417 . S
O414 C402 1.239 . S
O415 Cd374 2.330 . S
O415 C402 1.230 . S
O416 Cd375 2.417 . S
O416 C409 1.239 . S
O417 Cd375 2.330 . S
O417 C409 1.230 . S
H418 C404 0.929 . S
H419 C408 0.930 1_566 S
H420 C378 0.931 1_556 S
H421 C380 0.930 . S
H422 C386 0.929 . S
H423 C388 0.931 1_554 S
H424 C395 0.931 1_554 S
H425 C397 0.930 . S
H426 C405 0.929 . S
H427 C407 0.914 1_556 S
Cd428 N431 2.334 1_655 S
Cd428 N457 2.304 . S
Cd428 O464 2.268 1_554 S
Cd428 O467 2.273 1_655 S
Cd428 O468 2.417 . S
Cd428 O469 2.330 . S
Cd429 N444 2.304 1_455 S
Cd429 N448 2.334 . S
Cd429 O465 2.273 1_455 S
Cd429 O466 2.268 1_556 S
Cd429 O470 2.417 . S
Cd429 O471 2.330 . S
C430 N431 1.332 . S
C430 C434 1.381 . S
C430 H436 0.931 . S
N431 Cd428 2.334 1_455 S
N431 C430 1.332 . S
N431 C435 1.328 . S
C432 C433 1.396 . S
C432 C435 1.378 . S
C432 H474 0.931 1_554 S
C433 C432 1.396 . S
C433 C434 1.382 . S
C434 C430 1.381 . S
C434 C433 1.382 . S
C434 H475 0.930 . S
C435 N431 1.328 . S
C435 C432 1.378 . S
C435 H437 0.930 1_454 S
H436 C430 0.931 . S
H437 C435 0.930 1_656 S
C438 O464 1.238 . S
C438 O465 1.253 . S
C439 C440 1.379 . S
C439 N444 1.337 . S
C439 H445 0.929 . S
C440 C439 1.379 . S
C440 C441 1.380 . S
C440 H476 0.929 . S
C441 C440 1.380 . S
C441 C442 1.399 . S
C442 C441 1.399 . S
C442 C443 1.413 . S
C442 H477 0.931 1_556 S
C443 C442 1.413 . S
C443 N444 1.330 . S
C443 H446 0.901 1_656 S
N444 Cd429 2.304 1_655 S
N444 C439 1.337 . S
N444 C443 1.330 . S
H445 C439 0.929 . S
H446 C443 0.901 1_454 S
C447 N448 1.332 . S
C447 C451 1.381 . S
C447 H453 0.931 . S
N448 Cd429 2.334 . S
N448 C447 1.332 . S
N448 C452 1.328 . S
C449 C450 1.396 . S
C449 C452 1.378 . S
C449 H478 0.931 1_556 S
C450 C449 1.396 . S
C450 C451 1.382 . S
C451 C447 1.381 . S
C451 C450 1.382 . S
C451 H479 0.930 . S
C452 N448 1.328 . S
C452 C449 1.378 . S
C452 H454 0.930 1_556 S
H453 C447 0.931 . S
H454 C452 0.930 1_554 S
C455 O466 1.238 . S
C455 O467 1.253 . S
C456 O468 1.239 . S
C456 O469 1.230 . S
N457 Cd428 2.304 . S
N457 C458 1.337 . S
N457 C462 1.338 . S
C458 N457 1.337 . S
C458 C459 1.379 . S
C458 H472 0.929 . S
C459 C458 1.379 . S
C459 C460 1.380 . S
C459 H480 0.929 . S
C460 C459 1.380 . S
C460 C461 1.399 . S
C461 C460 1.399 . S
C461 C462 1.376 . S
C461 H481 0.915 1_554 S
C462 N457 1.338 . S
C462 C461 1.376 . S
C462 H473 0.930 1_554 S
C463 O470 1.239 . S
C463 O471 1.230 . S
O464 Cd428 2.268 1_556 S
O464 C438 1.238 . S
O465 Cd429 2.273 1_655 S
O465 C438 1.253 . S
O466 Cd429 2.268 1_554 S
O466 C455 1.238 . S
O467 Cd428 2.273 1_455 S
O467 C455 1.253 . S
O468 Cd428 2.417 . S
O468 C456 1.239 . S
O469 Cd428 2.330 . S
O469 C456 1.230 . S
O470 Cd429 2.417 . S
O470 C463 1.239 . S
O471 Cd429 2.330 . S
O471 C463 1.230 . S
H472 C458 0.929 . S
H473 C462 0.930 1_556 S
H474 C432 0.931 1_556 S
H475 C434 0.930 . S
H476 C440 0.929 . S
H477 C442 0.931 1_554 S
H478 C449 0.931 1_554 S
H479 C451 0.930 . S
H480 C459 0.929 . S
H481 C461 0.915 1_556 S
Cd482 N485 2.334 . S
Cd482 N511 2.304 . S
Cd482 O518 2.268 1_554 S
Cd482 O521 2.273 . S
Cd482 O522 2.417 . S
Cd482 O523 2.330 . S
Cd483 N498 2.304 . S
Cd483 N502 2.334 . S
Cd483 O519 2.273 . S
Cd483 O520 2.268 1_556 S
Cd483 O524 2.417 . S
Cd483 O525 2.330 . S
C484 N485 1.332 . S
C484 C488 1.381 . S
C484 H490 0.931 . S
N485 Cd482 2.334 . S
N485 C484 1.332 . S
N485 C489 1.328 . S
C486 C487 1.396 . S
C486 C489 1.378 . S
C486 H528 0.931 1_554 S
C487 C486 1.396 . S
C487 C488 1.382 . S
C488 C484 1.381 . S
C488 C487 1.382 . S
C488 H529 0.930 . S
C489 N485 1.328 . S
C489 C486 1.378 . S
C489 H491 0.930 1_554 S
H490 C484 0.931 . S
H491 C489 0.930 1_556 S
C492 O518 1.238 . S
C492 O519 1.253 . S
C493 C494 1.379 . S
C493 N498 1.337 . S
C493 H499 0.929 . S
C494 C493 1.379 . S
C494 C495 1.380 . S
C494 H530 0.929 . S
C495 C494 1.380 . S
C495 C496 1.399 . S
C496 C495 1.399 . S
C496 C497 1.376 . S
C496 H531 0.931 1_556 S
C497 C496 1.376 . S
C497 N498 1.338 . S
C497 H500 0.930 1_556 S
N498 Cd483 2.304 . S
N498 C493 1.337 . S
N498 C497 1.338 . S
H499 C493 0.929 . S
H500 C497 0.930 1_554 S
C501 N502 1.332 . S
C501 C505 1.381 . S
C501 H507 0.931 . S
N502 Cd483 2.334 . S
N502 C501 1.332 . S
N502 C506 1.328 . S
C503 C504 1.396 . S
C503 C506 1.378 . S
C503 H532 0.931 1_556 S
C504 C503 1.396 . S
C504 C505 1.382 . S
C505 C501 1.381 . S
C505 C504 1.382 . S
C505 H533 0.930 . S
C506 N502 1.328 . S
C506 C503 1.378 . S
C506 H508 0.930 1_556 S
H507 C501 0.931 . S
H508 C506 0.930 1_554 S
C509 O520 1.238 . S
C509 O521 1.253 . S
C510 O522 1.239 . S
C510 O523 1.230 . S
N511 Cd482 2.304 . S
N511 C512 1.337 . S
N511 C516 1.338 . S
C512 N511 1.337 . S
C512 C513 1.379 . S
C512 H526 0.929 . S
C513 C512 1.379 . S
C513 C514 1.380 . S
C513 H534 0.929 . S
C514 C513 1.380 . S
C514 C515 1.399 . S
C515 C514 1.399 . S
C515 C516 1.376 . S
C515 H535 0.916 1_554 S
C516 N511 1.338 . S
C516 C515 1.376 . S
C516 H527 0.930 1_554 S
C517 O524 1.239 . S
C517 O525 1.230 . S
O518 Cd482 2.268 1_556 S
O518 C492 1.238 . S
O519 Cd483 2.273 . S
O519 C492 1.253 . S
O520 Cd483 2.268 1_554 S
O520 C509 1.238 . S
O521 Cd482 2.273 . S
O521 C509 1.253 . S
O522 Cd482 2.417 . S
O522 C510 1.239 . S
O523 Cd482 2.330 . S
O523 C510 1.230 . S
O524 Cd483 2.417 . S
O524 C517 1.239 . S
O525 Cd483 2.330 . S
O525 C517 1.230 . S
H526 C512 0.929 . S
H527 C516 0.930 1_556 S
H528 C486 0.931 1_556 S
H529 C488 0.930 . S
H530 C494 0.929 . S
H531 C496 0.931 1_554 S
H532 C503 0.931 1_554 S
H533 C505 0.930 . S
H534 C513 0.929 . S
H535 C515 0.916 1_556 S
Cd536 N539 2.334 1_655 S
Cd536 N565 2.304 . S
Cd536 O572 2.268 . S
Cd536 O575 2.273 1_655 S
Cd536 O576 2.417 . S
Cd536 O577 2.330 . S
Cd537 N552 2.304 1_455 S
Cd537 N556 2.334 . S
Cd537 O573 2.273 1_455 S
Cd537 O574 2.268 . S
Cd537 O578 2.417 . S
Cd537 O579 2.330 . S
C538 N539 1.332 . S
C538 C542 1.381 . S
C538 H544 0.931 . S
N539 Cd536 2.334 1_455 S
N539 C538 1.332 . S
N539 C543 1.328 . S
C540 C541 1.396 . S
C540 C543 1.378 . S
C540 H582 0.931 . S
C541 C540 1.396 . S
C541 C542 1.382 . S
C542 C538 1.381 . S
C542 C541 1.382 . S
C542 H583 0.930 . S
C543 N539 1.328 . S
C543 C540 1.378 . S
C543 H545 0.930 1_455 S
H544 C538 0.931 . S
H545 C543 0.930 1_655 S
C546 O572 1.238 . S
C546 O573 1.253 . S
C547 C548 1.379 . S
C547 N552 1.337 . S
C547 H553 0.929 . S
C548 C547 1.379 . S
C548 C549 1.380 . S
C548 H584 0.929 . S
C549 C548 1.380 . S
C549 C550 1.399 . S
C550 C549 1.399 . S
C550 C551 1.412 . S
C550 H585 0.931 . S
C551 C550 1.412 . S
C551 N552 1.331 . S
C551 H554 0.902 1_655 S
N552 Cd537 2.304 1_655 S
N552 C547 1.337 . S
N552 C551 1.331 . S
H553 C547 0.929 . S
H554 C551 0.902 1_455 S
C555 N556 1.332 . S
C555 C559 1.381 . S
C555 H561 0.931 . S
N556 Cd537 2.334 . S
N556 C555 1.332 . S
N556 C560 1.328 . S
C557 C558 1.396 . S
C557 C560 1.378 . S
C557 H586 0.931 . S
C558 C557 1.396 . S
C558 C559 1.382 . S
C559 C555 1.381 . S
C559 C558 1.382 . S
C559 H587 0.930 . S
C560 N556 1.328 . S
C560 C557 1.378 . S
C560 H562 0.930 . S
H561 C555 0.931 . S
H562 C560 0.930 . S
C563 O574 1.238 . S
C563 O575 1.253 . S
C564 O576 1.239 . S
C564 O577 1.230 . S
N565 Cd536 2.304 . S
N565 C566 1.337 . S
N565 C570 1.338 . S
C566 N565 1.337 . S
C566 C567 1.379 . S
C566 H580 0.929 . S
C567 C566 1.379 . S
C567 C568 1.380 . S
C567 H588 0.929 . S
C568 C567 1.380 . S
C568 C569 1.399 . S
C569 C568 1.399 . S
C569 C570 1.376 . S
C569 H589 0.931 . S
C570 N565 1.338 . S
C570 C569 1.376 . S
C570 H581 0.930 . S
C571 O578 1.239 . S
C571 O579 1.230 . S
O572 Cd536 2.268 . S
O572 C546 1.238 . S
O573 Cd537 2.273 1_655 S
O573 C546 1.253 . S
O574 Cd537 2.268 . S
O574 C563 1.238 . S
O575 Cd536 2.273 1_455 S
O575 C563 1.253 . S
O576 Cd536 2.417 . S
O576 C564 1.239 . S
O577 Cd536 2.330 . S
O577 C564 1.230 . S
O578 Cd537 2.417 . S
O578 C571 1.239 . S
O579 Cd537 2.330 . S
O579 C571 1.230 . S
H580 C566 0.929 . S
H581 C570 0.930 . S
H582 C540 0.931 . S
H583 C542 0.930 . S
H584 C548 0.929 . S
H585 C550 0.931 . S
H586 C557 0.931 . S
H587 C559 0.930 . S
H588 C567 0.929 . S
H589 C569 0.931 . S
Cd590 N593 2.334 . S
Cd590 N619 2.304 1_565 S
Cd590 O626 2.268 . S
Cd590 O629 2.273 1_565 S
Cd590 O630 2.417 . S
Cd590 O631 2.330 . S
Cd591 N606 2.304 . S
Cd591 N610 2.334 1_545 S
Cd591 O627 2.273 1_545 S
Cd591 O628 2.268 . S
Cd591 O632 2.417 . S
Cd591 O633 2.330 . S
C592 N593 1.332 . S
C592 C596 1.381 . S
C592 H598 0.931 . S
N593 Cd590 2.334 . S
N593 C592 1.332 . S
N593 C597 1.328 . S
C594 C595 1.396 . S
C594 C597 1.378 . S
C594 H636 0.931 . S
C595 C594 1.396 . S
C595 C596 1.382 . S
C596 C592 1.381 . S
C596 C595 1.382 . S
C596 H637 0.930 . S
C597 N593 1.328 . S
C597 C594 1.378 . S
C597 H599 0.930 . S
H598 C592 0.931 . S
H599 C597 0.930 . S
C600 O626 1.238 . S
C600 O627 1.253 . S
C601 C602 1.379 . S
C601 N606 1.337 . S
C601 H607 0.929 . S
C602 C601 1.379 . S
C602 C603 1.380 . S
C602 H638 0.929 . S
C603 C602 1.380 . S
C603 C604 1.399 . S
C604 C603 1.399 . S
C604 C605 1.376 . S
C604 H639 0.931 . S
C605 C604 1.376 . S
C605 N606 1.338 . S
C605 H608 0.930 . S
N606 Cd591 2.304 . S
N606 C601 1.337 . S
N606 C605 1.338 . S
H607 C601 0.929 . S
H608 C605 0.930 . S
C609 N610 1.332 . S
C609 C613 1.381 . S
C609 H615 0.931 . S
N610 Cd591 2.334 1_565 S
N610 C609 1.332 . S
N610 C614 1.328 . S
C611 C612 1.396 . S
C611 C614 1.378 . S
C611 H640 0.931 . S
C612 C611 1.396 . S
C612 C613 1.382 . S
C613 C609 1.381 . S
C613 C612 1.382 . S
C613 H641 0.930 . S
C614 N610 1.328 . S
C614 C611 1.378 . S
C614 H616 0.930 1_565 S
H615 C609 0.931 . S
H616 C614 0.930 1_545 S
C617 O628 1.238 . S
C617 O629 1.253 . S
C618 O630 1.239 . S
C618 O631 1.230 . S
N619 Cd590 2.304 1_545 S
N619 C620 1.337 . S
N619 C624 1.338 . S
C620 N619 1.337 . S
C620 C621 1.379 . S
C620 H634 0.929 . S
C621 C620 1.379 . S
C621 C622 1.380 . S
C621 H642 0.929 . S
C622 C621 1.380 . S
C622 C623 1.399 . S
C623 C622 1.399 . S
C623 C624 1.376 . S
C623 H643 0.931 . S
C624 N619 1.338 . S
C624 C623 1.376 . S
C624 H635 0.930 1_545 S
C625 O632 1.239 . S
C625 O633 1.230 . S
O626 Cd590 2.268 . S
O626 C600 1.238 . S
O627 Cd591 2.273 1_565 S
O627 C600 1.253 . S
O628 Cd591 2.268 . S
O628 C617 1.238 . S
O629 Cd590 2.273 1_545 S
O629 C617 1.253 . S
O630 Cd590 2.417 . S
O630 C618 1.239 . S
O631 Cd590 2.330 . S
O631 C618 1.230 . S
O632 Cd591 2.417 . S
O632 C625 1.239 . S
O633 Cd591 2.330 . S
O633 C625 1.230 . S
H634 C620 0.929 . S
H635 C624 0.930 1_565 S
H636 C594 0.931 . S
H637 C596 0.930 . S
H638 C602 0.929 . S
H639 C604 0.931 . S
H640 C611 0.931 . S
H641 C613 0.930 . S
H642 C621 0.929 . S
H643 C623 0.931 . S
C644 C645 1.349 . S
C644 C646 1.327 . S
C644 H669 0.950 . S
C645 C644 1.349 . S
C645 C661 1.349 . S
C646 C644 1.327 . S
C646 C665 1.429 . S
C646 H670 0.950 . S
C647 C664 1.574 . S
C647 C666 1.368 . S
C647 H671 0.949 . S
H648 C652 0.949 . S
C649 C650 1.349 . S
C649 C651 1.327 . S
C649 H672 0.950 . S
C650 C649 1.349 . S
C650 C662 1.349 . S
C651 C649 1.327 . S
C651 C667 1.429 . S
C651 H673 0.950 . S
C652 H648 0.949 . S
C652 C660 1.574 . S
C652 C668 1.368 . S
H653 C661 0.950 . S
H654 C659 0.950 . S
H655 C660 0.949 . S
H656 C662 0.950 . S
H657 C663 0.950 . S
H658 C664 0.949 . S
C659 H654 0.950 . S
C659 C661 1.327 . S
C659 C665 1.429 . S
C660 C652 1.574 . S
C660 H655 0.949 . S
C660 C666 1.368 . S
C661 C645 1.349 . S
C661 H653 0.950 . S
C661 C659 1.327 . S
C662 C650 1.349 . S
C662 H656 0.950 . S
C662 C663 1.327 . S
C663 H657 0.950 . S
C663 C662 1.327 . S
C663 C667 1.429 . S
C664 C647 1.574 . S
C664 H658 0.949 . S
C664 C668 1.368 . S
C665 C646 1.429 . S
C665 C659 1.429 . S
C665 C666 1.523 . S
C666 C647 1.368 . S
C666 C660 1.368 . S
C666 C665 1.523 . S
C667 C651 1.429 . S
C667 C663 1.429 . S
C667 C668 1.523 . S
C668 C652 1.368 . S
C668 C664 1.368 . S
C668 C667 1.523 . S
H669 C644 0.950 . S
H670 C646 0.950 . S
H671 C647 0.949 . S
H672 C649 0.950 . S
H673 C651 0.950 . S
C674 C675 1.349 . S
C674 C676 1.327 . S
C674 H699 0.950 . S
C675 C674 1.349 . S
C675 C691 1.349 . S
C676 C674 1.327 . S
C676 C695 1.429 . S
C676 H700 0.950 . S
C677 C694 1.574 . S
C677 C696 1.368 . S
C677 H701 0.949 . S
H678 C682 0.949 . S
C679 C680 1.349 . S
C679 C681 1.327 . S
C679 H702 0.950 . S
C680 C679 1.349 . S
C680 C692 1.349 . S
C681 C679 1.327 . S
C681 C697 1.429 . S
C681 H703 0.950 . S
C682 H678 0.949 . S
C682 C690 1.574 . S
C682 C698 1.368 . S
H683 C691 0.950 . S
H684 C689 0.950 . S
H685 C690 0.949 . S
H686 C692 0.950 . S
H687 C693 0.950 . S
H688 C694 0.949 . S
C689 H684 0.950 . S
C689 C691 1.327 . S
C689 C695 1.429 . S
C690 C682 1.574 . S
C690 H685 0.949 . S
C690 C696 1.368 . S
C691 C675 1.349 . S
C691 H683 0.950 . S
C691 C689 1.327 . S
C692 C680 1.349 . S
C692 H686 0.950 . S
C692 C693 1.327 . S
C693 H687 0.950 . S
C693 C692 1.327 . S
C693 C697 1.429 . S
C694 C677 1.574 . S
C694 H688 0.949 . S
C694 C698 1.368 . S
C695 C676 1.429 . S
C695 C689 1.429 . S
C695 C696 1.523 . S
C696 C677 1.368 . S
C696 C690 1.368 . S
C696 C695 1.523 . S
C697 C681 1.429 . S
C697 C693 1.429 . S
C697 C698 1.523 . S
C698 C682 1.368 . S
C698 C694 1.368 . S
C698 C697 1.523 . S
H699 C674 0.950 . S
H700 C676 0.950 . S
H701 C677 0.949 . S
H702 C679 0.950 . S
H703 C681 0.950 . S
C704 C705 1.349 . S
C704 C706 1.327 . S
C704 H729 0.950 . S
C705 C704 1.349 . S
C705 C721 1.349 . S
C706 C704 1.327 . S
C706 C725 1.429 . S
C706 H730 0.950 . S
C707 C724 1.574 . S
C707 C726 1.368 . S
C707 H731 0.949 . S
H708 C712 0.949 . S
C709 C710 1.349 . S
C709 C711 1.327 . S
C709 H732 0.950 . S
C710 C709 1.349 . S
C710 C722 1.349 . S
C711 C709 1.327 . S
C711 C727 1.429 . S
C711 H733 0.950 . S
C712 H708 0.949 . S
C712 C720 1.574 . S
C712 C728 1.368 . S
H713 C721 0.950 . S
H714 C719 0.950 . S
H715 C720 0.949 . S
H716 C722 0.950 . S
H717 C723 0.950 . S
H718 C724 0.949 . S
C719 H714 0.950 . S
C719 C721 1.327 . S
C719 C725 1.429 . S
C720 C712 1.574 . S
C720 H715 0.949 . S
C720 C726 1.368 . S
C721 C705 1.349 . S
C721 H713 0.950 . S
C721 C719 1.327 . S
C722 C710 1.349 . S
C722 H716 0.950 . S
C722 C723 1.327 . S
C723 H717 0.950 . S
C723 C722 1.327 . S
C723 C727 1.429 . S
C724 C707 1.574 . S
C724 H718 0.949 . S
C724 C728 1.368 . S
C725 C706 1.429 . S
C725 C719 1.429 . S
C725 C726 1.523 . S
C726 C707 1.368 . S
C726 C720 1.368 . S
C726 C725 1.523 . S
C727 C711 1.429 . S
C727 C723 1.429 . S
C727 C728 1.523 . S
C728 C712 1.368 . S
C728 C724 1.368 . S
C728 C727 1.523 . S
H729 C704 0.950 . S
H730 C706 0.950 . S
H731 C707 0.949 . S
H732 C709 0.950 . S
H733 C711 0.950 . S
C734 C735 1.349 . S
C734 C736 1.327 . S
C734 H759 0.950 . S
C735 C734 1.349 . S
C735 C751 1.349 . S
C736 C734 1.327 . S
C736 C755 1.429 . S
C736 H760 0.950 . S
C737 C754 1.574 . S
C737 C756 1.368 . S
C737 H761 0.949 . S
H738 C742 0.949 . S
C739 C740 1.349 . S
C739 C741 1.327 . S
C739 H762 0.950 . S
C740 C739 1.349 . S
C740 C752 1.349 . S
C741 C739 1.327 . S
C741 C757 1.429 . S
C741 H763 0.950 . S
C742 H738 0.949 . S
C742 C750 1.574 . S
C742 C758 1.368 . S
H743 C751 0.950 . S
H744 C749 0.950 . S
H745 C750 0.949 . S
H746 C752 0.950 . S
H747 C753 0.950 . S
H748 C754 0.949 . S
C749 H744 0.950 . S
C749 C751 1.327 . S
C749 C755 1.429 . S
C750 C742 1.574 . S
C750 H745 0.949 . S
C750 C756 1.368 . S
C751 C735 1.349 . S
C751 H743 0.950 . S
C751 C749 1.327 . S
C752 C740 1.349 . S
C752 H746 0.950 . S
C752 C753 1.327 . S
C753 H747 0.950 . S
C753 C752 1.327 . S
C753 C757 1.429 . S
C754 C737 1.574 . S
C754 H748 0.949 . S
C754 C758 1.368 . S
C755 C736 1.429 . S
C755 C749 1.429 . S
C755 C756 1.523 . S
C756 C737 1.368 . S
C756 C750 1.368 . S
C756 C755 1.523 . S
C757 C741 1.429 . S
C757 C753 1.429 . S
C757 C758 1.523 . S
C758 C742 1.368 . S
C758 C754 1.368 . S
C758 C757 1.523 . S
H759 C734 0.950 . S
H760 C736 0.950 . S
H761 C737 0.949 . S
H762 C739 0.950 . S
H763 C741 0.950 . S
C764 C765 1.349 . S
C764 C766 1.327 . S
C764 H789 0.950 . S
C765 C764 1.349 . S
C765 C781 1.349 . S
C766 C764 1.327 . S
C766 C785 1.429 . S
C766 H790 0.950 . S
C767 C784 1.574 . S
C767 C786 1.368 . S
C767 H791 0.949 . S
H768 C772 0.949 . S
C769 C770 1.349 . S
C769 C771 1.327 . S
C769 H792 0.950 . S
C770 C769 1.349 . S
C770 C782 1.349 . S
C771 C769 1.327 . S
C771 C787 1.429 . S
C771 H793 0.950 . S
C772 H768 0.949 . S
C772 C780 1.574 . S
C772 C788 1.368 . S
H773 C781 0.950 . S
H774 C779 0.950 . S
H775 C780 0.949 . S
H776 C782 0.950 . S
H777 C783 0.950 . S
H778 C784 0.949 . S
C779 H774 0.950 . S
C779 C781 1.327 . S
C779 C785 1.429 . S
C780 C772 1.574 . S
C780 H775 0.949 . S
C780 C786 1.368 . S
C781 C765 1.349 . S
C781 H773 0.950 . S
C781 C779 1.327 . S
C782 C770 1.349 . S
C782 H776 0.950 . S
C782 C783 1.327 . S
C783 H777 0.950 . S
C783 C782 1.327 . S
C783 C787 1.429 . S
C784 C767 1.574 . S
C784 H778 0.949 . S
C784 C788 1.368 . S
C785 C766 1.429 . S
C785 C779 1.429 . S
C785 C786 1.523 . S
C786 C767 1.368 . S
C786 C780 1.368 . S
C786 C785 1.523 . S
C787 C771 1.429 . S
C787 C783 1.429 . S
C787 C788 1.523 . S
C788 C772 1.368 . S
C788 C784 1.368 . S
C788 C787 1.523 . S
H789 C764 0.950 . S
H790 C766 0.950 . S
H791 C767 0.949 . S
H792 C769 0.950 . S
H793 C771 0.950 . S
C794 C795 1.349 . S
C794 C796 1.327 . S
C794 H819 0.950 . S
C795 C794 1.349 . S
C795 C811 1.349 . S
C796 C794 1.327 . S
C796 C815 1.429 . S
C796 H820 0.950 . S
C797 C814 1.574 . S
C797 C816 1.368 . S
C797 H821 0.949 . S
H798 C802 0.949 . S
C799 C800 1.349 . S
C799 C801 1.327 . S
C799 H822 0.950 . S
C800 C799 1.349 . S
C800 C812 1.349 . S
C801 C799 1.327 . S
C801 C817 1.429 . S
C801 H823 0.950 . S
C802 H798 0.949 . S
C802 C810 1.574 . S
C802 C818 1.368 . S
H803 C811 0.950 . S
H804 C809 0.950 . S
H805 C810 0.949 . S
H806 C812 0.950 . S
H807 C813 0.950 . S
H808 C814 0.949 . S
C809 H804 0.950 . S
C809 C811 1.327 . S
C809 C815 1.429 . S
C810 C802 1.574 . S
C810 H805 0.949 . S
C810 C816 1.368 . S
C811 C795 1.349 . S
C811 H803 0.950 . S
C811 C809 1.327 . S
C812 C800 1.349 . S
C812 H806 0.950 . S
C812 C813 1.327 . S
C813 H807 0.950 . S
C813 C812 1.327 . S
C813 C817 1.429 . S
C814 C797 1.574 . S
C814 H808 0.949 . S
C814 C818 1.368 . S
C815 C796 1.429 . S
C815 C809 1.429 . S
C815 C816 1.523 . S
C816 C797 1.368 . S
C816 C810 1.368 . S
C816 C815 1.523 . S
C817 C801 1.429 . S
C817 C813 1.429 . S
C817 C818 1.523 . S
C818 C802 1.368 . S
C818 C814 1.368 . S
C818 C817 1.523 . S
H819 C794 0.950 . S
H820 C796 0.950 . S
H821 C797 0.949 . S
H822 C799 0.950 . S
H823 C801 0.950 . S
C824 C825 1.349 . S
C824 C826 1.327 . S
C824 H849 0.950 . S
C825 C824 1.349 . S
C825 C841 1.349 . S
C826 C824 1.327 . S
C826 C845 1.429 . S
C826 H850 0.950 . S
C827 C844 1.574 . S
C827 C846 1.368 . S
C827 H851 0.949 . S
H828 C832 0.949 . S
C829 C830 1.349 . S
C829 C831 1.327 . S
C829 H852 0.950 . S
C830 C829 1.349 . S
C830 C842 1.349 . S
C831 C829 1.327 . S
C831 C847 1.429 . S
C831 H853 0.950 . S
C832 H828 0.949 . S
C832 C840 1.574 . S
C832 C848 1.368 . S
H833 C841 0.950 . S
H834 C839 0.950 . S
H835 C840 0.949 . S
H836 C842 0.950 . S
H837 C843 0.950 . S
H838 C844 0.949 . S
C839 H834 0.950 . S
C839 C841 1.327 . S
C839 C845 1.429 . S
C840 C832 1.574 . S
C840 H835 0.949 . S
C840 C846 1.368 . S
C841 C825 1.349 . S
C841 H833 0.950 . S
C841 C839 1.327 . S
C842 C830 1.349 . S
C842 H836 0.950 . S
C842 C843 1.327 . S
C843 H837 0.950 . S
C843 C842 1.327 . S
C843 C847 1.429 . S
C844 C827 1.574 . S
C844 H838 0.949 . S
C844 C848 1.368 . S
C845 C826 1.429 . S
C845 C839 1.429 . S
C845 C846 1.523 . S
C846 C827 1.368 . S
C846 C840 1.368 . S
C846 C845 1.523 . S
C847 C831 1.429 . S
C847 C843 1.429 . S
C847 C848 1.523 . S
C848 C832 1.368 . S
C848 C844 1.368 . S
C848 C847 1.523 . S
H849 C824 0.950 . S
H850 C826 0.950 . S
H851 C827 0.949 . S
H852 C829 0.950 . S
H853 C831 0.950 . S
C854 C855 1.349 . S
C854 C856 1.327 . S
C854 H879 0.950 . S
C855 C854 1.349 . S
C855 C871 1.349 . S
C856 C854 1.327 . S
C856 C875 1.429 . S
C856 H880 0.950 . S
C857 C874 1.574 . S
C857 C876 1.368 . S
C857 H881 0.949 . S
H858 C862 0.949 . S
C859 C860 1.349 . S
C859 C861 1.327 . S
C859 H882 0.950 . S
C860 C859 1.349 . S
C860 C872 1.349 . S
C861 C859 1.327 . S
C861 C877 1.429 . S
C861 H883 0.950 . S
C862 H858 0.949 . S
C862 C870 1.574 . S
C862 C878 1.368 . S
H863 C871 0.950 . S
H864 C869 0.950 . S
H865 C870 0.949 . S
H866 C872 0.950 . S
H867 C873 0.950 . S
H868 C874 0.949 . S
C869 H864 0.950 . S
C869 C871 1.327 . S
C869 C875 1.429 . S
C870 C862 1.574 . S
C870 H865 0.949 . S
C870 C876 1.368 . S
C871 C855 1.349 . S
C871 H863 0.950 . S
C871 C869 1.327 . S
C872 C860 1.349 . S
C872 H866 0.950 . S
C872 C873 1.327 . S
C873 H867 0.950 . S
C873 C872 1.327 . S
C873 C877 1.429 . S
C874 C857 1.574 . S
C874 H868 0.949 . S
C874 C878 1.368 . S
C875 C856 1.429 . S
C875 C869 1.429 . S
C875 C876 1.523 . S
C876 C857 1.368 . S
C876 C870 1.368 . S
C876 C875 1.523 . S
C877 C861 1.429 . S
C877 C873 1.429 . S
C877 C878 1.523 . S
C878 C862 1.368 . S
C878 C874 1.368 . S
C878 C877 1.523 . S
H879 C854 0.950 . S
H880 C856 0.950 . S
H881 C857 0.949 . S
H882 C859 0.950 . S
H883 C861 0.950 . S
C884 C885 1.349 . S
C884 C886 1.327 . S
C884 H909 0.950 . S
C885 C884 1.349 . S
C885 C901 1.349 . S
C886 C884 1.327 . S
C886 C905 1.429 . S
C886 H910 0.950 . S
C887 C904 1.574 . S
C887 C906 1.368 . S
C887 H911 0.949 . S
H888 C892 0.949 . S
C889 C890 1.349 . S
C889 C891 1.327 . S
C889 H912 0.950 . S
C890 C889 1.349 . S
C890 C902 1.349 . S
C891 C889 1.327 . S
C891 C907 1.429 . S
C891 H913 0.950 . S
C892 H888 0.949 . S
C892 C900 1.574 . S
C892 C908 1.368 . S
H893 C901 0.950 . S
H894 C899 0.950 . S
H895 C900 0.949 . S
H896 C902 0.950 . S
H897 C903 0.950 . S
H898 C904 0.949 . S
C899 H894 0.950 . S
C899 C901 1.327 . S
C899 C905 1.429 . S
C900 C892 1.574 . S
C900 H895 0.949 . S
C900 C906 1.368 . S
C901 C885 1.349 . S
C901 H893 0.950 . S
C901 C899 1.327 . S
C902 C890 1.349 . S
C902 H896 0.950 . S
C902 C903 1.327 . S
C903 H897 0.950 . S
C903 C902 1.327 . S
C903 C907 1.429 . S
C904 C887 1.574 . S
C904 H898 0.949 . S
C904 C908 1.368 . S
C905 C886 1.429 . S
C905 C899 1.429 . S
C905 C906 1.523 . S
C906 C887 1.368 . S
C906 C900 1.368 . S
C906 C905 1.523 . S
C907 C891 1.429 . S
C907 C903 1.429 . S
C907 C908 1.523 . S
C908 C892 1.368 . S
C908 C904 1.368 . S
C908 C907 1.523 . S
H909 C884 0.950 . S
H910 C886 0.950 . S
H911 C887 0.949 . S
H912 C889 0.950 . S
H913 C891 0.950 . S
C914 C915 1.349 . S
C914 C916 1.327 . S
C914 H939 0.950 . S
C915 C914 1.349 . S
C915 C931 1.349 . S
C916 C914 1.327 . S
C916 C935 1.429 . S
C916 H940 0.950 . S
C917 C934 1.574 . S
C917 C936 1.368 . S
C917 H941 0.949 . S
H918 C922 0.949 . S
C919 C920 1.349 . S
C919 C921 1.327 . S
C919 H942 0.950 . S
C920 C919 1.349 . S
C920 C932 1.349 . S
C921 C919 1.327 . S
C921 C937 1.429 . S
C921 H943 0.950 . S
C922 H918 0.949 . S
C922 C930 1.574 . S
C922 C938 1.368 . S
H923 C931 0.950 . S
H924 C929 0.950 . S
H925 C930 0.949 . S
H926 C932 0.950 . S
H927 C933 0.950 . S
H928 C934 0.949 . S
C929 H924 0.950 . S
C929 C931 1.327 . S
C929 C935 1.429 . S
C930 C922 1.574 . S
C930 H925 0.949 . S
C930 C936 1.368 . S
C931 C915 1.349 . S
C931 H923 0.950 . S
C931 C929 1.327 . S
C932 C920 1.349 . S
C932 H926 0.950 . S
C932 C933 1.327 . S
C933 H927 0.950 . S
C933 C932 1.327 . S
C933 C937 1.429 . S
C934 C917 1.574 . S
C934 H928 0.949 . S
C934 C938 1.368 . S
C935 C916 1.429 . S
C935 C929 1.429 . S
C935 C936 1.523 . S
C936 C917 1.368 . S
C936 C930 1.368 . S
C936 C935 1.523 . S
C937 C921 1.429 . S
C937 C933 1.429 . S
C937 C938 1.523 . S
C938 C922 1.368 . S
C938 C934 1.368 . S
C938 C937 1.523 . S
H939 C914 0.950 . S
H940 C916 0.950 . S
H941 C917 0.949 . S
H942 C919 0.950 . S
H943 C921 0.950 . S
C944 C945 1.349 . S
C944 C946 1.327 . S
C944 H969 0.950 . S
C945 C944 1.349 . S
C945 C961 1.349 . S
C946 C944 1.327 . S
C946 C965 1.429 . S
C946 H970 0.950 . S
C947 C964 1.574 . S
C947 C966 1.368 . S
C947 H971 0.949 . S
H948 C952 0.949 . S
C949 C950 1.349 . S
C949 C951 1.327 . S
C949 H972 0.950 . S
C950 C949 1.349 . S
C950 C962 1.349 . S
C951 C949 1.327 . S
C951 C967 1.429 . S
C951 H973 0.950 . S
C952 H948 0.949 . S
C952 C960 1.574 . S
C952 C968 1.368 . S
H953 C961 0.950 . S
H954 C959 0.950 . S
H955 C960 0.949 . S
H956 C962 0.950 . S
H957 C963 0.950 . S
H958 C964 0.949 . S
C959 H954 0.950 . S
C959 C961 1.327 . S
C959 C965 1.429 . S
C960 C952 1.574 . S
C960 H955 0.949 . S
C960 C966 1.368 . S
C961 C945 1.349 . S
C961 H953 0.950 . S
C961 C959 1.327 . S
C962 C950 1.349 . S
C962 H956 0.950 . S
C962 C963 1.327 . S
C963 H957 0.950 . S
C963 C962 1.327 . S
C963 C967 1.429 . S
C964 C947 1.574 . S
C964 H958 0.949 . S
C964 C968 1.368 . S
C965 C946 1.429 . S
C965 C959 1.429 . S
C965 C966 1.523 . S
C966 C947 1.368 . S
C966 C960 1.368 . S
C966 C965 1.523 . S
C967 C951 1.429 . S
C967 C963 1.429 . S
C967 C968 1.523 . S
C968 C952 1.368 . S
C968 C964 1.368 . S
C968 C967 1.523 . S
H969 C944 0.950 . S
H970 C946 0.950 . S
H971 C947 0.949 . S
H972 C949 0.950 . S
H973 C951 0.950 . S
C974 C975 1.349 . S
C974 C976 1.327 . S
C974 H999 0.950 . S
C975 C974 1.349 . S
C975 C991 1.349 . S
C976 C974 1.327 . S
C976 C995 1.429 . S
C976 H1000 0.950 . S
C977 C994 1.574 . S
C977 C996 1.368 . S
C977 H1001 0.949 . S
H978 C982 0.949 . S
C979 C980 1.349 . S
C979 C981 1.327 . S
C979 H1002 0.950 . S
C980 C979 1.349 . S
C980 C992 1.349 . S
C981 C979 1.327 . S
C981 C997 1.429 . S
C981 H1003 0.950 . S
C982 H978 0.949 . S
C982 C990 1.574 . S
C982 C998 1.368 . S
H983 C991 0.950 . S
H984 C989 0.950 . S
H985 C990 0.949 . S
H986 C992 0.950 . S
H987 C993 0.950 . S
H988 C994 0.949 . S
C989 H984 0.950 . S
C989 C991 1.327 . S
C989 C995 1.429 . S
C990 C982 1.574 . S
C990 H985 0.949 . S
C990 C996 1.368 . S
C991 C975 1.349 . S
C991 H983 0.950 . S
C991 C989 1.327 . S
C992 C980 1.349 . S
C992 H986 0.950 . S
C992 C993 1.327 . S
C993 H987 0.950 . S
C993 C992 1.327 . S
C993 C997 1.429 . S
C994 C977 1.574 . S
C994 H988 0.949 . S
C994 C998 1.368 . S
C995 C976 1.429 . S
C995 C989 1.429 . S
C995 C996 1.523 . S
C996 C977 1.368 . S
C996 C990 1.368 . S
C996 C995 1.523 . S
C997 C981 1.429 . S
C997 C993 1.429 . S
C997 C998 1.523 . S
C998 C982 1.368 . S
C998 C994 1.368 . S
C998 C997 1.523 . S
H999 C974 0.950 . S
H1000 C976 0.950 . S
H1001 C977 0.949 . S
H1002 C979 0.950 . S
H1003 C981 0.950 . S
C1004 C1005 1.349 . S
C1004 C1006 1.327 . S
C1004 H1029 0.950 . S
C1005 C1004 1.349 . S
C1005 C1021 1.349 . S
C1006 C1004 1.327 . S
C1006 C1025 1.429 . S
C1006 H1030 0.950 . S
C1007 C1024 1.574 . S
C1007 C1026 1.368 . S
C1007 H1031 0.949 . S
H1008 C1012 0.949 . S
C1009 C1010 1.349 . S
C1009 C1011 1.327 . S
C1009 H1032 0.950 . S
C1010 C1009 1.349 . S
C1010 C1022 1.349 . S
C1011 C1009 1.327 . S
C1011 C1027 1.429 . S
C1011 H1033 0.950 . S
C1012 H1008 0.949 . S
C1012 C1020 1.574 . S
C1012 C1028 1.368 . S
H1013 C1021 0.950 . S
H1014 C1019 0.950 . S
H1015 C1020 0.949 . S
H1016 C1022 0.950 . S
H1017 C1023 0.950 . S
H1018 C1024 0.949 . S
C1019 H1014 0.950 . S
C1019 C1021 1.327 . S
C1019 C1025 1.429 . S
C1020 C1012 1.574 . S
C1020 H1015 0.949 . S
C1020 C1026 1.368 . S
C1021 C1005 1.349 . S
C1021 H1013 0.950 . S
C1021 C1019 1.327 . S
C1022 C1010 1.349 . S
C1022 H1016 0.950 . S
C1022 C1023 1.327 . S
C1023 H1017 0.950 . S
C1023 C1022 1.327 . S
C1023 C1027 1.429 . S
C1024 C1007 1.574 . S
C1024 H1018 0.949 . S
C1024 C1028 1.368 . S
C1025 C1006 1.429 . S
C1025 C1019 1.429 . S
C1025 C1026 1.523 . S
C1026 C1007 1.368 . S
C1026 C1020 1.368 . S
C1026 C1025 1.523 . S
C1027 C1011 1.429 . S
C1027 C1023 1.429 . S
C1027 C1028 1.523 . S
C1028 C1012 1.368 . S
C1028 C1024 1.368 . S
C1028 C1027 1.523 . S
H1029 C1004 0.950 . S
H1030 C1006 0.950 . S
H1031 C1007 0.949 . S
H1032 C1009 0.950 . S
H1033 C1011 0.950 . S
C1034 C1035 1.349 . S
C1034 C1036 1.327 . S
C1034 H1059 0.950 . S
C1035 C1034 1.349 . S
C1035 C1051 1.349 . S
C1036 C1034 1.327 . S
C1036 C1055 1.429 . S
C1036 H1060 0.950 . S
C1037 C1054 1.574 . S
C1037 C1056 1.368 . S
C1037 H1061 0.949 . S
H1038 C1042 0.949 . S
C1039 C1040 1.349 . S
C1039 C1041 1.327 . S
C1039 H1062 0.950 . S
C1040 C1039 1.349 . S
C1040 C1052 1.349 . S
C1041 C1039 1.327 . S
C1041 C1057 1.429 . S
C1041 H1063 0.950 . S
C1042 H1038 0.949 . S
C1042 C1050 1.574 . S
C1042 C1058 1.368 . S
H1043 C1051 0.950 . S
H1044 C1049 0.950 . S
H1045 C1050 0.949 . S
H1046 C1052 0.950 . S
H1047 C1053 0.950 . S
H1048 C1054 0.949 . S
C1049 H1044 0.950 . S
C1049 C1051 1.327 . S
C1049 C1055 1.429 . S
C1050 C1042 1.574 . S
C1050 H1045 0.949 . S
C1050 C1056 1.368 . S
C1051 C1035 1.349 . S
C1051 H1043 0.950 . S
C1051 C1049 1.327 . S
C1052 C1040 1.349 . S
C1052 H1046 0.950 . S
C1052 C1053 1.327 . S
C1053 H1047 0.950 . S
C1053 C1052 1.327 . S
C1053 C1057 1.429 . S
C1054 C1037 1.574 . S
C1054 H1048 0.949 . S
C1054 C1058 1.368 . S
C1055 C1036 1.429 . S
C1055 C1049 1.429 . S
C1055 C1056 1.523 . S
C1056 C1037 1.368 . S
C1056 C1050 1.368 . S
C1056 C1055 1.523 . S
C1057 C1041 1.429 . S
C1057 C1053 1.429 . S
C1057 C1058 1.523 . S
C1058 C1042 1.368 . S
C1058 C1054 1.368 . S
C1058 C1057 1.523 . S
H1059 C1034 0.950 . S
H1060 C1036 0.950 . S
H1061 C1037 0.949 . S
H1062 C1039 0.950 . S
H1063 C1041 0.950 . S
C1064 C1065 1.349 . S
C1064 C1066 1.327 . S
C1064 H1089 0.950 . S
C1065 C1064 1.349 . S
C1065 C1081 1.349 . S
C1066 C1064 1.327 . S
C1066 C1085 1.429 . S
C1066 H1090 0.950 . S
C1067 C1084 1.574 . S
C1067 C1086 1.368 . S
C1067 H1091 0.949 . S
H1068 C1072 0.949 . S
C1069 C1070 1.349 . S
C1069 C1071 1.327 . S
C1069 H1092 0.950 . S
C1070 C1069 1.349 . S
C1070 C1082 1.349 . S
C1071 C1069 1.327 . S
C1071 C1087 1.429 . S
C1071 H1093 0.950 . S
C1072 H1068 0.949 . S
C1072 C1080 1.574 . S
C1072 C1088 1.368 . S
H1073 C1081 0.950 . S
H1074 C1079 0.950 . S
H1075 C1080 0.949 . S
H1076 C1082 0.950 . S
H1077 C1083 0.950 . S
H1078 C1084 0.949 . S
C1079 H1074 0.950 . S
C1079 C1081 1.327 . S
C1079 C1085 1.429 . S
C1080 C1072 1.574 . S
C1080 H1075 0.949 . S
C1080 C1086 1.368 . S
C1081 C1065 1.349 . S
C1081 H1073 0.950 . S
C1081 C1079 1.327 . S
C1082 C1070 1.349 . S
C1082 H1076 0.950 . S
C1082 C1083 1.327 . S
C1083 H1077 0.950 . S
C1083 C1082 1.327 . S
C1083 C1087 1.429 . S
C1084 C1067 1.574 . S
C1084 H1078 0.949 . S
C1084 C1088 1.368 . S
C1085 C1066 1.429 . S
C1085 C1079 1.429 . S
C1085 C1086 1.523 . S
C1086 C1067 1.368 . S
C1086 C1080 1.368 . S
C1086 C1085 1.523 . S
C1087 C1071 1.429 . S
C1087 C1083 1.429 . S
C1087 C1088 1.523 . S
C1088 C1072 1.368 . S
C1088 C1084 1.368 . S
C1088 C1087 1.523 . S
H1089 C1064 0.950 . S
H1090 C1066 0.950 . S
H1091 C1067 0.949 . S
H1092 C1069 0.950 . S
H1093 C1071 0.950 . S
C1094 C1095 1.349 . S
C1094 C1096 1.327 . S
C1094 H1119 0.950 . S
C1095 C1094 1.349 . S
C1095 C1111 1.349 . S
C1096 C1094 1.327 . S
C1096 C1115 1.429 . S
C1096 H1120 0.950 . S
C1097 C1114 1.574 . S
C1097 C1116 1.368 . S
C1097 H1121 0.949 . S
H1098 C1102 0.949 . S
C1099 C1100 1.349 . S
C1099 C1101 1.327 . S
C1099 H1122 0.950 . S
C1100 C1099 1.349 . S
C1100 C1112 1.349 . S
C1101 C1099 1.327 . S
C1101 C1117 1.429 . S
C1101 H1123 0.950 . S
C1102 H1098 0.949 . S
C1102 C1110 1.574 . S
C1102 C1118 1.368 . S
H1103 C1111 0.950 . S
H1104 C1109 0.950 . S
H1105 C1110 0.949 . S
H1106 C1112 0.950 . S
H1107 C1113 0.950 . S
H1108 C1114 0.949 . S
C1109 H1104 0.950 . S
C1109 C1111 1.327 . S
C1109 C1115 1.429 . S
C1110 C1102 1.574 . S
C1110 H1105 0.949 . S
C1110 C1116 1.368 . S
C1111 C1095 1.349 . S
C1111 H1103 0.950 . S
C1111 C1109 1.327 . S
C1112 C1100 1.349 . S
C1112 H1106 0.950 . S
C1112 C1113 1.327 . S
C1113 H1107 0.950 . S
C1113 C1112 1.327 . S
C1113 C1117 1.429 . S
C1114 C1097 1.574 . S
C1114 H1108 0.949 . S
C1114 C1118 1.368 . S
C1115 C1096 1.429 . S
C1115 C1109 1.429 . S
C1115 C1116 1.523 . S
C1116 C1097 1.368 . S
C1116 C1110 1.368 . S
C1116 C1115 1.523 . S
C1117 C1101 1.429 . S
C1117 C1113 1.429 . S
C1117 C1118 1.523 . S
C1118 C1102 1.368 . S
C1118 C1114 1.368 . S
C1118 C1117 1.523 . S
H1119 C1094 0.950 . S
H1120 C1096 0.950 . S
H1121 C1097 0.949 . S
H1122 C1099 0.950 . S
H1123 C1101 0.950 . S
C1124 C1125 1.349 . S
C1124 C1126 1.327 . S
C1124 H1149 0.950 . S
C1125 C1124 1.349 . S
C1125 C1141 1.349 . S
C1126 C1124 1.327 . S
C1126 C1145 1.429 . S
C1126 H1150 0.950 . S
C1127 C1144 1.574 . S
C1127 C1146 1.368 . S
C1127 H1151 0.949 . S
H1128 C1132 0.949 . S
C1129 C1130 1.349 . S
C1129 C1131 1.327 . S
C1129 H1152 0.950 . S
C1130 C1129 1.349 . S
C1130 C1142 1.349 . S
C1131 C1129 1.327 . S
C1131 C1147 1.429 . S
C1131 H1153 0.950 . S
C1132 H1128 0.949 . S
C1132 C1140 1.574 . S
C1132 C1148 1.368 . S
H1133 C1141 0.950 . S
H1134 C1139 0.950 . S
H1135 C1140 0.949 . S
H1136 C1142 0.950 . S
H1137 C1143 0.950 . S
H1138 C1144 0.949 . S
C1139 H1134 0.950 . S
C1139 C1141 1.327 . S
C1139 C1145 1.429 . S
C1140 C1132 1.574 . S
C1140 H1135 0.949 . S
C1140 C1146 1.368 . S
C1141 C1125 1.349 . S
C1141 H1133 0.950 . S
C1141 C1139 1.327 . S
C1142 C1130 1.349 . S
C1142 H1136 0.950 . S
C1142 C1143 1.327 . S
C1143 H1137 0.950 . S
C1143 C1142 1.327 . S
C1143 C1147 1.429 . S
C1144 C1127 1.574 . S
C1144 H1138 0.949 . S
C1144 C1148 1.368 . S
C1145 C1126 1.429 . S
C1145 C1139 1.429 . S
C1145 C1146 1.523 . S
C1146 C1127 1.368 . S
C1146 C1140 1.368 . S
C1146 C1145 1.523 . S
C1147 C1131 1.429 . S
C1147 C1143 1.429 . S
C1147 C1148 1.523 . S
C1148 C1132 1.368 . S
C1148 C1144 1.368 . S
C1148 C1147 1.523 . S
H1149 C1124 0.950 . S
H1150 C1126 0.950 . S
H1151 C1127 0.949 . S
H1152 C1129 0.950 . S
H1153 C1131 0.950 . S
C1154 C1155 1.349 . S
C1154 C1156 1.327 . S
C1154 H1179 0.950 . S
C1155 C1154 1.349 . S
C1155 C1171 1.349 . S
C1156 C1154 1.327 . S
C1156 C1175 1.429 . S
C1156 H1180 0.950 . S
C1157 C1174 1.574 . S
C1157 C1176 1.368 . S
C1157 H1181 0.949 . S
H1158 C1162 0.949 . S
C1159 C1160 1.349 . S
C1159 C1161 1.327 . S
C1159 H1182 0.950 . S
C1160 C1159 1.349 . S
C1160 C1172 1.349 . S
C1161 C1159 1.327 . S
C1161 C1177 1.429 . S
C1161 H1183 0.950 . S
C1162 H1158 0.949 . S
C1162 C1170 1.574 . S
C1162 C1178 1.368 . S
H1163 C1171 0.950 . S
H1164 C1169 0.950 . S
H1165 C1170 0.949 . S
H1166 C1172 0.950 . S
H1167 C1173 0.950 . S
H1168 C1174 0.949 . S
C1169 H1164 0.950 . S
C1169 C1171 1.327 . S
C1169 C1175 1.429 . S
C1170 C1162 1.574 . S
C1170 H1165 0.949 . S
C1170 C1176 1.368 . S
C1171 C1155 1.349 . S
C1171 H1163 0.950 . S
C1171 C1169 1.327 . S
C1172 C1160 1.349 . S
C1172 H1166 0.950 . S
C1172 C1173 1.327 . S
C1173 H1167 0.950 . S
C1173 C1172 1.327 . S
C1173 C1177 1.429 . S
C1174 C1157 1.574 . S
C1174 H1168 0.949 . S
C1174 C1178 1.368 . S
C1175 C1156 1.429 . S
C1175 C1169 1.429 . S
C1175 C1176 1.523 . S
C1176 C1157 1.368 . S
C1176 C1170 1.368 . S
C1176 C1175 1.523 . S
C1177 C1161 1.429 . S
C1177 C1173 1.429 . S
C1177 C1178 1.523 . S
C1178 C1162 1.368 . S
C1178 C1174 1.368 . S
C1178 C1177 1.523 . S
H1179 C1154 0.950 . S
H1180 C1156 0.950 . S
H1181 C1157 0.949 . S
H1182 C1159 0.950 . S
H1183 C1161 0.950 . S
C1184 C1185 1.349 . S
C1184 C1186 1.327 . S
C1184 H1209 0.950 . S
C1185 C1184 1.349 . S
C1185 C1201 1.349 . S
C1186 C1184 1.327 . S
C1186 C1205 1.429 . S
C1186 H1210 0.950 . S
C1187 C1204 1.574 . S
C1187 C1206 1.368 . S
C1187 H1211 0.949 . S
H1188 C1192 0.949 . S
C1189 C1190 1.349 . S
C1189 C1191 1.327 . S
C1189 H1212 0.950 . S
C1190 C1189 1.349 . S
C1190 C1202 1.349 . S
C1191 C1189 1.327 . S
C1191 C1207 1.429 . S
C1191 H1213 0.950 . S
C1192 H1188 0.949 . S
C1192 C1200 1.574 . S
C1192 C1208 1.368 . S
H1193 C1201 0.950 . S
H1194 C1199 0.950 . S
H1195 C1200 0.949 . S
H1196 C1202 0.950 . S
H1197 C1203 0.950 . S
H1198 C1204 0.949 . S
C1199 H1194 0.950 . S
C1199 C1201 1.327 . S
C1199 C1205 1.429 . S
C1200 C1192 1.574 . S
C1200 H1195 0.949 . S
C1200 C1206 1.368 . S
C1201 C1185 1.349 . S
C1201 H1193 0.950 . S
C1201 C1199 1.327 . S
C1202 C1190 1.349 . S
C1202 H1196 0.950 . S
C1202 C1203 1.327 . S
C1203 H1197 0.950 . S
C1203 C1202 1.327 . S
C1203 C1207 1.429 . S
C1204 C1187 1.574 . S
C1204 H1198 0.949 . S
C1204 C1208 1.368 . S
C1205 C1186 1.429 . S
C1205 C1199 1.429 . S
C1205 C1206 1.523 . S
C1206 C1187 1.368 . S
C1206 C1200 1.368 . S
C1206 C1205 1.523 . S
C1207 C1191 1.429 . S
C1207 C1203 1.429 . S
C1207 C1208 1.523 . S
C1208 C1192 1.368 . S
C1208 C1204 1.368 . S
C1208 C1207 1.523 . S
H1209 C1184 0.950 . S
H1210 C1186 0.950 . S
H1211 C1187 0.949 . S
H1212 C1189 0.950 . S
H1213 C1191 0.950 . S
C1214 C1215 1.349 . S
C1214 C1216 1.327 . S
C1214 H1239 0.950 . S
C1215 C1214 1.349 . S
C1215 C1231 1.349 . S
C1216 C1214 1.327 . S
C1216 C1235 1.429 . S
C1216 H1240 0.950 . S
C1217 C1234 1.574 . S
C1217 C1236 1.368 . S
C1217 H1241 0.949 . S
H1218 C1222 0.949 . S
C1219 C1220 1.349 . S
C1219 C1221 1.327 . S
C1219 H1242 0.950 . S
C1220 C1219 1.349 . S
C1220 C1232 1.349 . S
C1221 C1219 1.327 . S
C1221 C1237 1.429 . S
C1221 H1243 0.950 . S
C1222 H1218 0.949 . S
C1222 C1230 1.574 . S
C1222 C1238 1.368 . S
H1223 C1231 0.950 . S
H1224 C1229 0.950 . S
H1225 C1230 0.949 . S
H1226 C1232 0.950 . S
H1227 C1233 0.950 . S
H1228 C1234 0.949 . S
C1229 H1224 0.950 . S
C1229 C1231 1.327 . S
C1229 C1235 1.429 . S
C1230 C1222 1.574 . S
C1230 H1225 0.949 . S
C1230 C1236 1.368 . S
C1231 C1215 1.349 . S
C1231 H1223 0.950 . S
C1231 C1229 1.327 . S
C1232 C1220 1.349 . S
C1232 H1226 0.950 . S
C1232 C1233 1.327 . S
C1233 H1227 0.950 . S
C1233 C1232 1.327 . S
C1233 C1237 1.429 . S
C1234 C1217 1.574 . S
C1234 H1228 0.949 . S
C1234 C1238 1.368 . S
C1235 C1216 1.429 . S
C1235 C1229 1.429 . S
C1235 C1236 1.523 . S
C1236 C1217 1.368 . S
C1236 C1230 1.368 . S
C1236 C1235 1.523 . S
C1237 C1221 1.429 . S
C1237 C1233 1.429 . S
C1237 C1238 1.523 . S
C1238 C1222 1.368 . S
C1238 C1234 1.368 . S
C1238 C1237 1.523 . S
H1239 C1214 0.950 . S
H1240 C1216 0.950 . S
H1241 C1217 0.949 . S
H1242 C1219 0.950 . S
H1243 C1221 0.950 . S
C1244 C1245 1.349 . S
C1244 C1246 1.327 . S
C1244 H1269 0.950 . S
C1245 C1244 1.349 . S
C1245 C1261 1.349 . S
C1246 C1244 1.327 . S
C1246 C1265 1.429 . S
C1246 H1270 0.950 . S
C1247 C1264 1.574 . S
C1247 C1266 1.368 . S
C1247 H1271 0.949 . S
H1248 C1252 0.949 . S
C1249 C1250 1.349 . S
C1249 C1251 1.327 . S
C1249 H1272 0.950 . S
C1250 C1249 1.349 . S
C1250 C1262 1.349 . S
C1251 C1249 1.327 . S
C1251 C1267 1.429 . S
C1251 H1273 0.950 . S
C1252 H1248 0.949 . S
C1252 C1260 1.574 . S
C1252 C1268 1.368 . S
H1253 C1261 0.950 . S
H1254 C1259 0.950 . S
H1255 C1260 0.949 . S
H1256 C1262 0.950 . S
H1257 C1263 0.950 . S
H1258 C1264 0.949 . S
C1259 H1254 0.950 . S
C1259 C1261 1.327 . S
C1259 C1265 1.429 . S
C1260 C1252 1.574 . S
C1260 H1255 0.949 . S
C1260 C1266 1.368 . S
C1261 C1245 1.349 . S
C1261 H1253 0.950 . S
C1261 C1259 1.327 . S
C1262 C1250 1.349 . S
C1262 H1256 0.950 . S
C1262 C1263 1.327 . S
C1263 H1257 0.950 . S
C1263 C1262 1.327 . S
C1263 C1267 1.429 . S
C1264 C1247 1.574 . S
C1264 H1258 0.949 . S
C1264 C1268 1.368 . S
C1265 C1246 1.429 . S
C1265 C1259 1.429 . S
C1265 C1266 1.523 . S
C1266 C1247 1.368 . S
C1266 C1260 1.368 . S
C1266 C1265 1.523 . S
C1267 C1251 1.429 . S
C1267 C1263 1.429 . S
C1267 C1268 1.523 . S
C1268 C1252 1.368 . S
C1268 C1264 1.368 . S
C1268 C1267 1.523 . S
H1269 C1244 0.950 . S
H1270 C1246 0.950 . S
H1271 C1247 0.949 . S
H1272 C1249 0.950 . S
H1273 C1251 0.950 . S
C1274 C1275 1.349 . S
C1274 C1276 1.327 . S
C1274 H1299 0.950 . S
C1275 C1274 1.349 . S
C1275 C1291 1.349 . S
C1276 C1274 1.327 . S
C1276 C1295 1.429 . S
C1276 H1300 0.950 . S
C1277 C1294 1.574 . S
C1277 C1296 1.368 . S
C1277 H1301 0.949 . S
H1278 C1282 0.949 . S
C1279 C1280 1.349 . S
C1279 C1281 1.327 . S
C1279 H1302 0.950 . S
C1280 C1279 1.349 . S
C1280 C1292 1.349 . S
C1281 C1279 1.327 . S
C1281 C1297 1.429 . S
C1281 H1303 0.950 . S
C1282 H1278 0.949 . S
C1282 C1290 1.574 . S
C1282 C1298 1.368 . S
H1283 C1291 0.950 . S
H1284 C1289 0.950 . S
H1285 C1290 0.949 . S
H1286 C1292 0.950 . S
H1287 C1293 0.950 . S
H1288 C1294 0.949 . S
C1289 H1284 0.950 . S
C1289 C1291 1.327 . S
C1289 C1295 1.429 . S
C1290 C1282 1.574 . S
C1290 H1285 0.949 . S
C1290 C1296 1.368 . S
C1291 C1275 1.349 . S
C1291 H1283 0.950 . S
C1291 C1289 1.327 . S
C1292 C1280 1.349 . S
C1292 H1286 0.950 . S
C1292 C1293 1.327 . S
C1293 H1287 0.950 . S
C1293 C1292 1.327 . S
C1293 C1297 1.429 . S
C1294 C1277 1.574 . S
C1294 H1288 0.949 . S
C1294 C1298 1.368 . S
C1295 C1276 1.429 . S
C1295 C1289 1.429 . S
C1295 C1296 1.523 . S
C1296 C1277 1.368 . S
C1296 C1290 1.368 . S
C1296 C1295 1.523 . S
C1297 C1281 1.429 . S
C1297 C1293 1.429 . S
C1297 C1298 1.523 . S
C1298 C1282 1.368 . S
C1298 C1294 1.368 . S
C1298 C1297 1.523 . S
H1299 C1274 0.950 . S
H1300 C1276 0.950 . S
H1301 C1277 0.949 . S
H1302 C1279 0.950 . S
H1303 C1281 0.950 . S
C1304 C1305 1.349 . S
C1304 C1306 1.327 . S
C1304 H1329 0.950 . S
C1305 C1304 1.349 . S
C1305 C1321 1.349 . S
C1306 C1304 1.327 . S
C1306 C1325 1.429 . S
C1306 H1330 0.950 . S
C1307 C1324 1.574 . S
C1307 C1326 1.368 . S
C1307 H1331 0.949 . S
H1308 C1312 0.949 . S
C1309 C1310 1.349 . S
C1309 C1311 1.327 . S
C1309 H1332 0.950 . S
C1310 C1309 1.349 . S
C1310 C1322 1.349 . S
C1311 C1309 1.327 . S
C1311 C1327 1.429 . S
C1311 H1333 0.950 . S
C1312 H1308 0.949 . S
C1312 C1320 1.574 . S
C1312 C1328 1.368 . S
H1313 C1321 0.950 . S
H1314 C1319 0.950 . S
H1315 C1320 0.949 . S
H1316 C1322 0.950 . S
H1317 C1323 0.950 . S
H1318 C1324 0.949 . S
C1319 H1314 0.950 . S
C1319 C1321 1.327 . S
C1319 C1325 1.429 . S
C1320 C1312 1.574 . S
C1320 H1315 0.949 . S
C1320 C1326 1.368 . S
C1321 C1305 1.349 . S
C1321 H1313 0.950 . S
C1321 C1319 1.327 . S
C1322 C1310 1.349 . S
C1322 H1316 0.950 . S
C1322 C1323 1.327 . S
C1323 H1317 0.950 . S
C1323 C1322 1.327 . S
C1323 C1327 1.429 . S
C1324 C1307 1.574 . S
C1324 H1318 0.949 . S
C1324 C1328 1.368 . S
C1325 C1306 1.429 . S
C1325 C1319 1.429 . S
C1325 C1326 1.523 . S
C1326 C1307 1.368 . S
C1326 C1320 1.368 . S
C1326 C1325 1.523 . S
C1327 C1311 1.429 . S
C1327 C1323 1.429 . S
C1327 C1328 1.523 . S
C1328 C1312 1.368 . S
C1328 C1324 1.368 . S
C1328 C1327 1.523 . S
H1329 C1304 0.950 . S
H1330 C1306 0.950 . S
H1331 C1307 0.949 . S
H1332 C1309 0.950 . S
H1333 C1311 0.950 . S
C1334 C1335 1.349 . S
C1334 C1336 1.327 . S
C1334 H1359 0.950 . S
C1335 C1334 1.349 . S
C1335 C1351 1.349 . S
C1336 C1334 1.327 . S
C1336 C1355 1.429 . S
C1336 H1360 0.950 . S
C1337 C1354 1.574 . S
C1337 C1356 1.368 . S
C1337 H1361 0.949 . S
H1338 C1342 0.949 . S
C1339 C1340 1.349 . S
C1339 C1341 1.327 . S
C1339 H1362 0.950 . S
C1340 C1339 1.349 . S
C1340 C1352 1.349 . S
C1341 C1339 1.327 . S
C1341 C1357 1.429 . S
C1341 H1363 0.950 . S
C1342 H1338 0.949 . S
C1342 C1350 1.574 . S
C1342 C1358 1.368 . S
H1343 C1351 0.950 . S
H1344 C1349 0.950 . S
H1345 C1350 0.949 . S
H1346 C1352 0.950 . S
H1347 C1353 0.950 . S
H1348 C1354 0.949 . S
C1349 H1344 0.950 . S
C1349 C1351 1.327 . S
C1349 C1355 1.429 . S
C1350 C1342 1.574 . S
C1350 H1345 0.949 . S
C1350 C1356 1.368 . S
C1351 C1335 1.349 . S
C1351 H1343 0.950 . S
C1351 C1349 1.327 . S
C1352 C1340 1.349 . S
C1352 H1346 0.950 . S
C1352 C1353 1.327 . S
C1353 H1347 0.950 . S
C1353 C1352 1.327 . S
C1353 C1357 1.429 . S
C1354 C1337 1.574 . S
C1354 H1348 0.949 . S
C1354 C1358 1.368 . S
C1355 C1336 1.429 . S
C1355 C1349 1.429 . S
C1355 C1356 1.523 . S
C1356 C1337 1.368 . S
C1356 C1350 1.368 . S
C1356 C1355 1.523 . S
C1357 C1341 1.429 . S
C1357 C1353 1.429 . S
C1357 C1358 1.523 . S
C1358 C1342 1.368 . S
C1358 C1354 1.368 . S
C1358 C1357 1.523 . S
H1359 C1334 0.950 . S
H1360 C1336 0.950 . S
H1361 C1337 0.949 . S
H1362 C1339 0.950 . S
H1363 C1341 0.950 . S
C1364 C1365 1.349 . S
C1364 C1366 1.327 . S
C1364 H1389 0.950 . S
C1365 C1364 1.349 . S
C1365 C1381 1.349 . S
C1366 C1364 1.327 . S
C1366 C1385 1.429 . S
C1366 H1390 0.950 . S
C1367 C1384 1.574 . S
C1367 C1386 1.368 . S
C1367 H1391 0.949 . S
H1368 C1372 0.949 . S
C1369 C1370 1.349 . S
C1369 C1371 1.327 . S
C1369 H1392 0.950 . S
C1370 C1369 1.349 . S
C1370 C1382 1.349 . S
C1371 C1369 1.327 . S
C1371 C1387 1.429 . S
C1371 H1393 0.950 . S
C1372 H1368 0.949 . S
C1372 C1380 1.574 . S
C1372 C1388 1.368 . S
H1373 C1381 0.950 . S
H1374 C1379 0.950 . S
H1375 C1380 0.949 . S
H1376 C1382 0.950 . S
H1377 C1383 0.950 . S
H1378 C1384 0.949 . S
C1379 H1374 0.950 . S
C1379 C1381 1.327 . S
C1379 C1385 1.429 . S
C1380 C1372 1.574 . S
C1380 H1375 0.949 . S
C1380 C1386 1.368 . S
C1381 C1365 1.349 . S
C1381 H1373 0.950 . S
C1381 C1379 1.327 . S
C1382 C1370 1.349 . S
C1382 H1376 0.950 . S
C1382 C1383 1.327 . S
C1383 H1377 0.950 . S
C1383 C1382 1.327 . S
C1383 C1387 1.429 . S
C1384 C1367 1.574 . S
C1384 H1378 0.949 . S
C1384 C1388 1.368 . S
C1385 C1366 1.429 . S
C1385 C1379 1.429 . S
C1385 C1386 1.523 . S
C1386 C1367 1.368 . S
C1386 C1380 1.368 . S
C1386 C1385 1.523 . S
C1387 C1371 1.429 . S
C1387 C1383 1.429 . S
C1387 C1388 1.523 . S
C1388 C1372 1.368 . S
C1388 C1384 1.368 . S
C1388 C1387 1.523 . S
H1389 C1364 0.950 . S
H1390 C1366 0.950 . S
H1391 C1367 0.949 . S
H1392 C1369 0.950 . S
H1393 C1371 0.950 . S
C1394 C1395 1.349 . S
C1394 C1396 1.327 . S
C1394 H1419 0.950 . S
C1395 C1394 1.349 . S
C1395 C1411 1.349 . S
C1396 C1394 1.327 . S
C1396 C1415 1.429 . S
C1396 H1420 0.950 . S
C1397 C1414 1.574 . S
C1397 C1416 1.368 . S
C1397 H1421 0.949 . S
H1398 C1402 0.949 . S
C1399 C1400 1.349 . S
C1399 C1401 1.327 . S
C1399 H1422 0.950 . S
C1400 C1399 1.349 . S
C1400 C1412 1.349 . S
C1401 C1399 1.327 . S
C1401 C1417 1.429 . S
C1401 H1423 0.950 . S
C1402 H1398 0.949 . S
C1402 C1410 1.574 . S
C1402 C1418 1.368 . S
H1403 C1411 0.950 . S
H1404 C1409 0.950 . S
H1405 C1410 0.949 . S
H1406 C1412 0.950 . S
H1407 C1413 0.950 . S
H1408 C1414 0.949 . S
C1409 H1404 0.950 . S
C1409 C1411 1.327 . S
C1409 C1415 1.429 . S
C1410 C1402 1.574 . S
C1410 H1405 0.949 . S
C1410 C1416 1.368 . S
C1411 C1395 1.349 . S
C1411 H1403 0.950 . S
C1411 C1409 1.327 . S
C1412 C1400 1.349 . S
C1412 H1406 0.950 . S
C1412 C1413 1.327 . S
C1413 H1407 0.950 . S
C1413 C1412 1.327 . S
C1413 C1417 1.429 . S
C1414 C1397 1.574 . S
C1414 H1408 0.949 . S
C1414 C1418 1.368 . S
C1415 C1396 1.429 . S
C1415 C1409 1.429 . S
C1415 C1416 1.523 . S
C1416 C1397 1.368 . S
C1416 C1410 1.368 . S
C1416 C1415 1.523 . S
C1417 C1401 1.429 . S
C1417 C1413 1.429 . S
C1417 C1418 1.523 . S
C1418 C1402 1.368 . S
C1418 C1414 1.368 . S
C1418 C1417 1.523 . S
H1419 C1394 0.950 . S
H1420 C1396 0.950 . S
H1421 C1397 0.949 . S
H1422 C1399 0.950 . S
H1423 C1401 0.950 . S
C1424 C1425 1.349 . S
C1424 C1426 1.327 . S
C1424 H1449 0.950 . S
C1425 C1424 1.349 . S
C1425 C1441 1.349 . S
C1426 C1424 1.327 . S
C1426 C1445 1.429 . S
C1426 H1450 0.950 . S
C1427 C1444 1.574 . S
C1427 C1446 1.368 . S
C1427 H1451 0.949 . S
H1428 C1432 0.949 . S
C1429 C1430 1.349 . S
C1429 C1431 1.327 . S
C1429 H1452 0.950 . S
C1430 C1429 1.349 . S
C1430 C1442 1.349 . S
C1431 C1429 1.327 . S
C1431 C1447 1.429 . S
C1431 H1453 0.950 . S
C1432 H1428 0.949 . S
C1432 C1440 1.574 . S
C1432 C1448 1.368 . S
H1433 C1441 0.950 . S
H1434 C1439 0.950 . S
H1435 C1440 0.949 . S
H1436 C1442 0.950 . S
H1437 C1443 0.950 . S
H1438 C1444 0.949 . S
C1439 H1434 0.950 . S
C1439 C1441 1.327 . S
C1439 C1445 1.429 . S
C1440 C1432 1.574 . S
C1440 H1435 0.949 . S
C1440 C1446 1.368 . S
C1441 C1425 1.349 . S
C1441 H1433 0.950 . S
C1441 C1439 1.327 . S
C1442 C1430 1.349 . S
C1442 H1436 0.950 . S
C1442 C1443 1.327 . S
C1443 H1437 0.950 . S
C1443 C1442 1.327 . S
C1443 C1447 1.429 . S
C1444 C1427 1.574 . S
C1444 H1438 0.949 . S
C1444 C1448 1.368 . S
C1445 C1426 1.429 . S
C1445 C1439 1.429 . S
C1445 C1446 1.523 . S
C1446 C1427 1.368 . S
C1446 C1440 1.368 . S
C1446 C1445 1.523 . S
C1447 C1431 1.429 . S
C1447 C1443 1.429 . S
C1447 C1448 1.523 . S
C1448 C1432 1.368 . S
C1448 C1444 1.368 . S
C1448 C1447 1.523 . S
H1449 C1424 0.950 . S
H1450 C1426 0.950 . S
H1451 C1427 0.949 . S
H1452 C1429 0.950 . S
H1453 C1431 0.950 . S
C1454 C1455 1.349 . S
C1454 C1456 1.327 . S
C1454 H1479 0.950 . S
C1455 C1454 1.349 . S
C1455 C1471 1.349 . S
C1456 C1454 1.327 . S
C1456 C1475 1.429 . S
C1456 H1480 0.950 . S
C1457 C1474 1.574 . S
C1457 C1476 1.368 . S
C1457 H1481 0.949 . S
H1458 C1462 0.949 . S
C1459 C1460 1.349 . S
C1459 C1461 1.327 . S
C1459 H1482 0.950 . S
C1460 C1459 1.349 . S
C1460 C1472 1.349 . S
C1461 C1459 1.327 . S
C1461 C1477 1.429 . S
C1461 H1483 0.950 . S
C1462 H1458 0.949 . S
C1462 C1470 1.574 . S
C1462 C1478 1.368 . S
H1463 C1471 0.950 . S
H1464 C1469 0.950 . S
H1465 C1470 0.949 . S
H1466 C1472 0.950 . S
H1467 C1473 0.950 . S
H1468 C1474 0.949 . S
C1469 H1464 0.950 . S
C1469 C1471 1.327 . S
C1469 C1475 1.429 . S
C1470 C1462 1.574 . S
C1470 H1465 0.949 . S
C1470 C1476 1.368 . S
C1471 C1455 1.349 . S
C1471 H1463 0.950 . S
C1471 C1469 1.327 . S
C1472 C1460 1.349 . S
C1472 H1466 0.950 . S
C1472 C1473 1.327 . S
C1473 H1467 0.950 . S
C1473 C1472 1.327 . S
C1473 C1477 1.429 . S
C1474 C1457 1.574 . S
C1474 H1468 0.949 . S
C1474 C1478 1.368 . S
C1475 C1456 1.429 . S
C1475 C1469 1.429 . S
C1475 C1476 1.523 . S
C1476 C1457 1.368 . S
C1476 C1470 1.368 . S
C1476 C1475 1.523 . S
C1477 C1461 1.429 . S
C1477 C1473 1.429 . S
C1477 C1478 1.523 . S
C1478 C1462 1.368 . S
C1478 C1474 1.368 . S
C1478 C1477 1.523 . S
H1479 C1454 0.950 . S
H1480 C1456 0.950 . S
H1481 C1457 0.949 . S
H1482 C1459 0.950 . S
H1483 C1461 0.950 . S
C1484 C1485 1.349 . S
C1484 C1486 1.327 . S
C1484 H1509 0.950 . S
C1485 C1484 1.349 . S
C1485 C1501 1.349 . S
C1486 C1484 1.327 . S
C1486 C1505 1.429 . S
C1486 H1510 0.950 . S
C1487 C1504 1.574 . S
C1487 C1506 1.368 . S
C1487 H1511 0.949 . S
H1488 C1492 0.949 . S
C1489 C1490 1.349 . S
C1489 C1491 1.327 . S
C1489 H1512 0.950 . S
C1490 C1489 1.349 . S
C1490 C1502 1.349 . S
C1491 C1489 1.327 . S
C1491 C1507 1.429 . S
C1491 H1513 0.950 . S
C1492 H1488 0.949 . S
C1492 C1500 1.574 . S
C1492 C1508 1.368 . S
H1493 C1501 0.950 . S
H1494 C1499 0.950 . S
H1495 C1500 0.949 . S
H1496 C1502 0.950 . S
H1497 C1503 0.950 . S
H1498 C1504 0.949 . S
C1499 H1494 0.950 . S
C1499 C1501 1.327 . S
C1499 C1505 1.429 . S
C1500 C1492 1.574 . S
C1500 H1495 0.949 . S
C1500 C1506 1.368 . S
C1501 C1485 1.349 . S
C1501 H1493 0.950 . S
C1501 C1499 1.327 . S
C1502 C1490 1.349 . S
C1502 H1496 0.950 . S
C1502 C1503 1.327 . S
C1503 H1497 0.950 . S
C1503 C1502 1.327 . S
C1503 C1507 1.429 . S
C1504 C1487 1.574 . S
C1504 H1498 0.949 . S
C1504 C1508 1.368 . S
C1505 C1486 1.429 . S
C1505 C1499 1.429 . S
C1505 C1506 1.523 . S
C1506 C1487 1.368 . S
C1506 C1500 1.368 . S
C1506 C1505 1.523 . S
C1507 C1491 1.429 . S
C1507 C1503 1.429 . S
C1507 C1508 1.523 . S
C1508 C1492 1.368 . S
C1508 C1504 1.368 . S
C1508 C1507 1.523 . S
H1509 C1484 0.950 . S
H1510 C1486 0.950 . S
H1511 C1487 0.949 . S
H1512 C1489 0.950 . S
H1513 C1491 0.950 . S
C1514 C1515 1.349 . S
C1514 C1516 1.327 . S
C1514 H1539 0.950 . S
C1515 C1514 1.349 . S
C1515 C1531 1.349 . S
C1516 C1514 1.327 . S
C1516 C1535 1.429 . S
C1516 H1540 0.950 . S
C1517 C1534 1.574 . S
C1517 C1536 1.368 . S
C1517 H1541 0.949 . S
H1518 C1522 0.949 . S
C1519 C1520 1.349 . S
C1519 C1521 1.327 . S
C1519 H1542 0.950 . S
C1520 C1519 1.349 . S
C1520 C1532 1.349 . S
C1521 C1519 1.327 . S
C1521 C1537 1.429 . S
C1521 H1543 0.950 . S
C1522 H1518 0.949 . S
C1522 C1530 1.574 . S
C1522 C1538 1.368 . S
H1523 C1531 0.950 . S
H1524 C1529 0.950 . S
H1525 C1530 0.949 . S
H1526 C1532 0.950 . S
H1527 C1533 0.950 . S
H1528 C1534 0.949 . S
C1529 H1524 0.950 . S
C1529 C1531 1.327 . S
C1529 C1535 1.429 . S
C1530 C1522 1.574 . S
C1530 H1525 0.949 . S
C1530 C1536 1.368 . S
C1531 C1515 1.349 . S
C1531 H1523 0.950 . S
C1531 C1529 1.327 . S
C1532 C1520 1.349 . S
C1532 H1526 0.950 . S
C1532 C1533 1.327 . S
C1533 H1527 0.950 . S
C1533 C1532 1.327 . S
C1533 C1537 1.429 . S
C1534 C1517 1.574 . S
C1534 H1528 0.949 . S
C1534 C1538 1.368 . S
C1535 C1516 1.429 . S
C1535 C1529 1.429 . S
C1535 C1536 1.523 . S
C1536 C1517 1.368 . S
C1536 C1530 1.368 . S
C1536 C1535 1.523 . S
C1537 C1521 1.429 . S
C1537 C1533 1.429 . S
C1537 C1538 1.523 . S
C1538 C1522 1.368 . S
C1538 C1534 1.368 . S
C1538 C1537 1.523 . S
H1539 C1514 0.950 . S
H1540 C1516 0.950 . S
H1541 C1517 0.949 . S
H1542 C1519 0.950 . S
H1543 C1521 0.950 . S
C1544 C1545 1.349 . S
C1544 C1546 1.327 . S
C1544 H1569 0.950 . S
C1545 C1544 1.349 . S
C1545 C1561 1.349 . S
C1546 C1544 1.327 . S
C1546 C1565 1.429 . S
C1546 H1570 0.950 . S
C1547 C1564 1.574 . S
C1547 C1566 1.368 . S
C1547 H1571 0.949 . S
H1548 C1552 0.949 . S
C1549 C1550 1.349 . S
C1549 C1551 1.327 . S
C1549 H1572 0.950 . S
C1550 C1549 1.349 . S
C1550 C1562 1.349 . S
C1551 C1549 1.327 . S
C1551 C1567 1.429 . S
C1551 H1573 0.950 . S
C1552 H1548 0.949 . S
C1552 C1560 1.574 . S
C1552 C1568 1.368 . S
H1553 C1561 0.950 . S
H1554 C1559 0.950 . S
H1555 C1560 0.949 . S
H1556 C1562 0.950 . S
H1557 C1563 0.950 . S
H1558 C1564 0.949 . S
C1559 H1554 0.950 . S
C1559 C1561 1.327 . S
C1559 C1565 1.429 . S
C1560 C1552 1.574 . S
C1560 H1555 0.949 . S
C1560 C1566 1.368 . S
C1561 C1545 1.349 . S
C1561 H1553 0.950 . S
C1561 C1559 1.327 . S
C1562 C1550 1.349 . S
C1562 H1556 0.950 . S
C1562 C1563 1.327 . S
C1563 H1557 0.950 . S
C1563 C1562 1.327 . S
C1563 C1567 1.429 . S
C1564 C1547 1.574 . S
C1564 H1558 0.949 . S
C1564 C1568 1.368 . S
C1565 C1546 1.429 . S
C1565 C1559 1.429 . S
C1565 C1566 1.523 . S
C1566 C1547 1.368 . S
C1566 C1560 1.368 . S
C1566 C1565 1.523 . S
C1567 C1551 1.429 . S
C1567 C1563 1.429 . S
C1567 C1568 1.523 . S
C1568 C1552 1.368 . S
C1568 C1564 1.368 . S
C1568 C1567 1.523 . S
H1569 C1544 0.950 . S
H1570 C1546 0.950 . S
H1571 C1547 0.949 . S
H1572 C1549 0.950 . S
H1573 C1551 0.950 . S
C1574 C1575 1.349 . S
C1574 C1576 1.327 . S
C1574 H1599 0.950 . S
C1575 C1574 1.349 . S
C1575 C1591 1.349 . S
C1576 C1574 1.327 . S
C1576 C1595 1.429 . S
C1576 H1600 0.950 . S
C1577 C1594 1.574 . S
C1577 C1596 1.368 . S
C1577 H1601 0.949 . S
H1578 C1582 0.949 . S
C1579 C1580 1.349 . S
C1579 C1581 1.327 . S
C1579 H1602 0.950 . S
C1580 C1579 1.349 . S
C1580 C1592 1.349 . S
C1581 C1579 1.327 . S
C1581 C1597 1.429 . S
C1581 H1603 0.950 . S
C1582 H1578 0.949 . S
C1582 C1590 1.574 . S
C1582 C1598 1.368 . S
H1583 C1591 0.950 . S
H1584 C1589 0.950 . S
H1585 C1590 0.949 . S
H1586 C1592 0.950 . S
H1587 C1593 0.950 . S
H1588 C1594 0.949 . S
C1589 H1584 0.950 . S
C1589 C1591 1.327 . S
C1589 C1595 1.429 . S
C1590 C1582 1.574 . S
C1590 H1585 0.949 . S
C1590 C1596 1.368 . S
C1591 C1575 1.349 . S
C1591 H1583 0.950 . S
C1591 C1589 1.327 . S
C1592 C1580 1.349 . S
C1592 H1586 0.950 . S
C1592 C1593 1.327 . S
C1593 H1587 0.950 . S
C1593 C1592 1.327 . S
C1593 C1597 1.429 . S
C1594 C1577 1.574 . S
C1594 H1588 0.949 . S
C1594 C1598 1.368 . S
C1595 C1576 1.429 . S
C1595 C1589 1.429 . S
C1595 C1596 1.523 . S
C1596 C1577 1.368 . S
C1596 C1590 1.368 . S
C1596 C1595 1.523 . S
C1597 C1581 1.429 . S
C1597 C1593 1.429 . S
C1597 C1598 1.523 . S
C1598 C1582 1.368 . S
C1598 C1594 1.368 . S
C1598 C1597 1.523 . S
H1599 C1574 0.950 . S
H1600 C1576 0.950 . S
H1601 C1577 0.949 . S
H1602 C1579 0.950 . S
H1603 C1581 0.950 . S
C1604 C1605 1.349 . S
C1604 C1606 1.327 . S
C1604 H1629 0.950 . S
C1605 C1604 1.349 . S
C1605 C1621 1.349 . S
C1606 C1604 1.327 . S
C1606 C1625 1.429 . S
C1606 H1630 0.950 . S
C1607 C1624 1.574 . S
C1607 C1626 1.368 . S
C1607 H1631 0.949 . S
H1608 C1612 0.949 . S
C1609 C1610 1.349 . S
C1609 C1611 1.327 . S
C1609 H1632 0.950 . S
C1610 C1609 1.349 . S
C1610 C1622 1.349 . S
C1611 C1609 1.327 . S
C1611 C1627 1.429 . S
C1611 H1633 0.950 . S
C1612 H1608 0.949 . S
C1612 C1620 1.574 . S
C1612 C1628 1.368 . S
H1613 C1621 0.950 . S
H1614 C1619 0.950 . S
H1615 C1620 0.949 . S
H1616 C1622 0.950 . S
H1617 C1623 0.950 . S
H1618 C1624 0.949 . S
C1619 H1614 0.950 . S
C1619 C1621 1.327 . S
C1619 C1625 1.429 . S
C1620 C1612 1.574 . S
C1620 H1615 0.949 . S
C1620 C1626 1.368 . S
C1621 C1605 1.349 . S
C1621 H1613 0.950 . S
C1621 C1619 1.327 . S
C1622 C1610 1.349 . S
C1622 H1616 0.950 . S
C1622 C1623 1.327 . S
C1623 H1617 0.950 . S
C1623 C1622 1.327 . S
C1623 C1627 1.429 . S
C1624 C1607 1.574 . S
C1624 H1618 0.949 . S
C1624 C1628 1.368 . S
C1625 C1606 1.429 . S
C1625 C1619 1.429 . S
C1625 C1626 1.523 . S
C1626 C1607 1.368 . S
C1626 C1620 1.368 . S
C1626 C1625 1.523 . S
C1627 C1611 1.429 . S
C1627 C1623 1.429 . S
C1627 C1628 1.523 . S
C1628 C1612 1.368 . S
C1628 C1624 1.368 . S
C1628 C1627 1.523 . S
H1629 C1604 0.950 . S
H1630 C1606 0.950 . S
H1631 C1607 0.949 . S
H1632 C1609 0.950 . S
H1633 C1611 0.950 . S
C1634 C1635 1.349 . S
C1634 C1636 1.327 . S
C1634 H1659 0.950 . S
C1635 C1634 1.349 . S
C1635 C1651 1.349 . S
C1636 C1634 1.327 . S
C1636 C1655 1.429 . S
C1636 H1660 0.950 . S
C1637 C1654 1.574 . S
C1637 C1656 1.368 . S
C1637 H1661 0.949 . S
H1638 C1642 0.949 . S
C1639 C1640 1.349 . S
C1639 C1641 1.327 . S
C1639 H1662 0.950 . S
C1640 C1639 1.349 . S
C1640 C1652 1.349 . S
C1641 C1639 1.327 . S
C1641 C1657 1.429 . S
C1641 H1663 0.950 . S
C1642 H1638 0.949 . S
C1642 C1650 1.574 . S
C1642 C1658 1.368 . S
H1643 C1651 0.950 . S
H1644 C1649 0.950 . S
H1645 C1650 0.949 . S
H1646 C1652 0.950 . S
H1647 C1653 0.950 . S
H1648 C1654 0.949 . S
C1649 H1644 0.950 . S
C1649 C1651 1.327 . S
C1649 C1655 1.429 . S
C1650 C1642 1.574 . S
C1650 H1645 0.949 . S
C1650 C1656 1.368 . S
C1651 C1635 1.349 . S
C1651 H1643 0.950 . S
C1651 C1649 1.327 . S
C1652 C1640 1.349 . S
C1652 H1646 0.950 . S
C1652 C1653 1.327 . S
C1653 H1647 0.950 . S
C1653 C1652 1.327 . S
C1653 C1657 1.429 . S
C1654 C1637 1.574 . S
C1654 H1648 0.949 . S
C1654 C1658 1.368 . S
C1655 C1636 1.429 . S
C1655 C1649 1.429 . S
C1655 C1656 1.523 . S
C1656 C1637 1.368 . S
C1656 C1650 1.368 . S
C1656 C1655 1.523 . S
C1657 C1641 1.429 . S
C1657 C1653 1.429 . S
C1657 C1658 1.523 . S
C1658 C1642 1.368 . S
C1658 C1654 1.368 . S
C1658 C1657 1.523 . S
H1659 C1634 0.950 . S
H1660 C1636 0.950 . S
H1661 C1637 0.949 . S
H1662 C1639 0.950 . S
H1663 C1641 0.950 . S
C1664 C1665 1.349 . S
C1664 C1666 1.327 . S
C1664 H1689 0.950 . S
C1665 C1664 1.349 . S
C1665 C1681 1.349 . S
C1666 C1664 1.327 . S
C1666 C1685 1.429 . S
C1666 H1690 0.950 . S
C1667 C1684 1.574 . S
C1667 C1686 1.368 . S
C1667 H1691 0.949 . S
H1668 C1672 0.949 . S
C1669 C1670 1.349 . S
C1669 C1671 1.327 . S
C1669 H1692 0.950 . S
C1670 C1669 1.349 . S
C1670 C1682 1.349 . S
C1671 C1669 1.327 . S
C1671 C1687 1.429 . S
C1671 H1693 0.950 . S
C1672 H1668 0.949 . S
C1672 C1680 1.574 . S
C1672 C1688 1.368 . S
H1673 C1681 0.950 . S
H1674 C1679 0.950 . S
H1675 C1680 0.949 . S
H1676 C1682 0.950 . S
H1677 C1683 0.950 . S
H1678 C1684 0.949 . S
C1679 H1674 0.950 . S
C1679 C1681 1.327 . S
C1679 C1685 1.429 . S
C1680 C1672 1.574 . S
C1680 H1675 0.949 . S
C1680 C1686 1.368 . S
C1681 C1665 1.349 . S
C1681 H1673 0.950 . S
C1681 C1679 1.327 . S
C1682 C1670 1.349 . S
C1682 H1676 0.950 . S
C1682 C1683 1.327 . S
C1683 H1677 0.950 . S
C1683 C1682 1.327 . S
C1683 C1687 1.429 . S
C1684 C1667 1.574 . S
C1684 H1678 0.949 . S
C1684 C1688 1.368 . S
C1685 C1666 1.429 . S
C1685 C1679 1.429 . S
C1685 C1686 1.523 . S
C1686 C1667 1.368 . S
C1686 C1680 1.368 . S
C1686 C1685 1.523 . S
C1687 C1671 1.429 . S
C1687 C1683 1.429 . S
C1687 C1688 1.523 . S
C1688 C1672 1.368 . S
C1688 C1684 1.368 . S
C1688 C1687 1.523 . S
H1689 C1664 0.950 . S
H1690 C1666 0.950 . S
H1691 C1667 0.949 . S
H1692 C1669 0.950 . S
H1693 C1671 0.950 . S
C1694 C1695 1.349 . S
C1694 C1696 1.327 . S
C1694 H1719 0.950 . S
C1695 C1694 1.349 . S
C1695 C1711 1.349 . S
C1696 C1694 1.327 . S
C1696 C1715 1.429 . S
C1696 H1720 0.950 . S
C1697 C1714 1.574 . S
C1697 C1716 1.368 . S
C1697 H1721 0.949 . S
H1698 C1702 0.949 . S
C1699 C1700 1.349 . S
C1699 C1701 1.327 . S
C1699 H1722 0.950 . S
C1700 C1699 1.349 . S
C1700 C1712 1.349 . S
C1701 C1699 1.327 . S
C1701 C1717 1.429 . S
C1701 H1723 0.950 . S
C1702 H1698 0.949 . S
C1702 C1710 1.574 . S
C1702 C1718 1.368 . S
H1703 C1711 0.950 . S
H1704 C1709 0.950 . S
H1705 C1710 0.949 . S
H1706 C1712 0.950 . S
H1707 C1713 0.950 . S
H1708 C1714 0.949 . S
C1709 H1704 0.950 . S
C1709 C1711 1.327 . S
C1709 C1715 1.429 . S
C1710 C1702 1.574 . S
C1710 H1705 0.949 . S
C1710 C1716 1.368 . S
C1711 C1695 1.349 . S
C1711 H1703 0.950 . S
C1711 C1709 1.327 . S
C1712 C1700 1.349 . S
C1712 H1706 0.950 . S
C1712 C1713 1.327 . S
C1713 H1707 0.950 . S
C1713 C1712 1.327 . S
C1713 C1717 1.429 . S
C1714 C1697 1.574 . S
C1714 H1708 0.949 . S
C1714 C1718 1.368 . S
C1715 C1696 1.429 . S
C1715 C1709 1.429 . S
C1715 C1716 1.523 . S
C1716 C1697 1.368 . S
C1716 C1710 1.368 . S
C1716 C1715 1.523 . S
C1717 C1701 1.429 . S
C1717 C1713 1.429 . S
C1717 C1718 1.523 . S
C1718 C1702 1.368 . S
C1718 C1714 1.368 . S
C1718 C1717 1.523 . S
H1719 C1694 0.950 . S
H1720 C1696 0.950 . S
H1721 C1697 0.949 . S
H1722 C1699 0.950 . S
H1723 C1701 0.950 . S
C1724 C1725 1.349 . S
C1724 C1726 1.327 . S
C1724 H1749 0.950 . S
C1725 C1724 1.349 . S
C1725 C1741 1.349 . S
C1726 C1724 1.327 . S
C1726 C1745 1.429 . S
C1726 H1750 0.950 . S
C1727 C1744 1.574 . S
C1727 C1746 1.368 . S
C1727 H1751 0.949 . S
H1728 C1732 0.949 . S
C1729 C1730 1.349 . S
C1729 C1731 1.327 . S
C1729 H1752 0.950 . S
C1730 C1729 1.349 . S
C1730 C1742 1.349 . S
C1731 C1729 1.327 . S
C1731 C1747 1.429 . S
C1731 H1753 0.950 . S
C1732 H1728 0.949 . S
C1732 C1740 1.574 . S
C1732 C1748 1.368 . S
H1733 C1741 0.950 . S
H1734 C1739 0.950 . S
H1735 C1740 0.949 . S
H1736 C1742 0.950 . S
H1737 C1743 0.950 . S
H1738 C1744 0.949 . S
C1739 H1734 0.950 . S
C1739 C1741 1.327 . S
C1739 C1745 1.429 . S
C1740 C1732 1.574 . S
C1740 H1735 0.949 . S
C1740 C1746 1.368 . S
C1741 C1725 1.349 . S
C1741 H1733 0.950 . S
C1741 C1739 1.327 . S
C1742 C1730 1.349 . S
C1742 H1736 0.950 . S
C1742 C1743 1.327 . S
C1743 H1737 0.950 . S
C1743 C1742 1.327 . S
C1743 C1747 1.429 . S
C1744 C1727 1.574 . S
C1744 H1738 0.949 . S
C1744 C1748 1.368 . S
C1745 C1726 1.429 . S
C1745 C1739 1.429 . S
C1745 C1746 1.523 . S
C1746 C1727 1.368 . S
C1746 C1740 1.368 . S
C1746 C1745 1.523 . S
C1747 C1731 1.429 . S
C1747 C1743 1.429 . S
C1747 C1748 1.523 . S
C1748 C1732 1.368 . S
C1748 C1744 1.368 . S
C1748 C1747 1.523 . S
H1749 C1724 0.950 . S
H1750 C1726 0.950 . S
H1751 C1727 0.949 . S
H1752 C1729 0.950 . S
H1753 C1731 0.950 . S
C1754 C1755 1.349 . S
C1754 C1756 1.327 . S
C1754 H1779 0.950 . S
C1755 C1754 1.349 . S
C1755 C1771 1.349 . S
C1756 C1754 1.327 . S
C1756 C1775 1.429 . S
C1756 H1780 0.950 . S
C1757 C1774 1.574 . S
C1757 C1776 1.368 . S
C1757 H1781 0.949 . S
H1758 C1762 0.949 . S
C1759 C1760 1.349 . S
C1759 C1761 1.327 . S
C1759 H1782 0.950 . S
C1760 C1759 1.349 . S
C1760 C1772 1.349 . S
C1761 C1759 1.327 . S
C1761 C1777 1.429 . S
C1761 H1783 0.950 . S
C1762 H1758 0.949 . S
C1762 C1770 1.574 . S
C1762 C1778 1.368 . S
H1763 C1771 0.950 . S
H1764 C1769 0.950 . S
H1765 C1770 0.949 . S
H1766 C1772 0.950 . S
H1767 C1773 0.950 . S
H1768 C1774 0.949 . S
C1769 H1764 0.950 . S
C1769 C1771 1.327 . S
C1769 C1775 1.429 . S
C1770 C1762 1.574 . S
C1770 H1765 0.949 . S
C1770 C1776 1.368 . S
C1771 C1755 1.349 . S
C1771 H1763 0.950 . S
C1771 C1769 1.327 . S
C1772 C1760 1.349 . S
C1772 H1766 0.950 . S
C1772 C1773 1.327 . S
C1773 H1767 0.950 . S
C1773 C1772 1.327 . S
C1773 C1777 1.429 . S
C1774 C1757 1.574 . S
C1774 H1768 0.949 . S
C1774 C1778 1.368 . S
C1775 C1756 1.429 . S
C1775 C1769 1.429 . S
C1775 C1776 1.523 . S
C1776 C1757 1.368 . S
C1776 C1770 1.368 . S
C1776 C1775 1.523 . S
C1777 C1761 1.429 . S
C1777 C1773 1.429 . S
C1777 C1778 1.523 . S
C1778 C1762 1.368 . S
C1778 C1774 1.368 . S
C1778 C1777 1.523 . S
H1779 C1754 0.950 . S
H1780 C1756 0.950 . S
H1781 C1757 0.949 . S
H1782 C1759 0.950 . S
H1783 C1761 0.950 . S
C1784 C1785 1.349 . S
C1784 C1786 1.327 . S
C1784 H1809 0.950 . S
C1785 C1784 1.349 . S
C1785 C1801 1.349 . S
C1786 C1784 1.327 . S
C1786 C1805 1.429 . S
C1786 H1810 0.950 . S
C1787 C1804 1.574 . S
C1787 C1806 1.368 . S
C1787 H1811 0.949 . S
H1788 C1792 0.949 . S
C1789 C1790 1.349 . S
C1789 C1791 1.327 . S
C1789 H1812 0.950 . S
C1790 C1789 1.349 . S
C1790 C1802 1.349 . S
C1791 C1789 1.327 . S
C1791 C1807 1.429 . S
C1791 H1813 0.950 . S
C1792 H1788 0.949 . S
C1792 C1800 1.574 . S
C1792 C1808 1.368 . S
H1793 C1801 0.950 . S
H1794 C1799 0.950 . S
H1795 C1800 0.949 . S
H1796 C1802 0.950 . S
H1797 C1803 0.950 . S
H1798 C1804 0.949 . S
C1799 H1794 0.950 . S
C1799 C1801 1.327 . S
C1799 C1805 1.429 . S
C1800 C1792 1.574 . S
C1800 H1795 0.949 . S
C1800 C1806 1.368 . S
C1801 C1785 1.349 . S
C1801 H1793 0.950 . S
C1801 C1799 1.327 . S
C1802 C1790 1.349 . S
C1802 H1796 0.950 . S
C1802 C1803 1.327 . S
C1803 H1797 0.950 . S
C1803 C1802 1.327 . S
C1803 C1807 1.429 . S
C1804 C1787 1.574 . S
C1804 H1798 0.949 . S
C1804 C1808 1.368 . S
C1805 C1786 1.429 . S
C1805 C1799 1.429 . S
C1805 C1806 1.523 . S
C1806 C1787 1.368 . S
C1806 C1800 1.368 . S
C1806 C1805 1.523 . S
C1807 C1791 1.429 . S
C1807 C1803 1.429 . S
C1807 C1808 1.523 . S
C1808 C1792 1.368 . S
C1808 C1804 1.368 . S
C1808 C1807 1.523 . S
H1809 C1784 0.950 . S
H1810 C1786 0.950 . S
H1811 C1787 0.949 . S
H1812 C1789 0.950 . S
H1813 C1791 0.950 . S
C1814 C1815 1.349 . S
C1814 C1816 1.327 . S
C1814 H1839 0.950 . S
C1815 C1814 1.349 . S
C1815 C1831 1.349 . S
C1816 C1814 1.327 . S
C1816 C1835 1.429 . S
C1816 H1840 0.950 . S
C1817 C1834 1.574 . S
C1817 C1836 1.368 . S
C1817 H1841 0.949 . S
H1818 C1822 0.949 . S
C1819 C1820 1.349 . S
C1819 C1821 1.327 . S
C1819 H1842 0.950 . S
C1820 C1819 1.349 . S
C1820 C1832 1.349 . S
C1821 C1819 1.327 . S
C1821 C1837 1.429 . S
C1821 H1843 0.950 . S
C1822 H1818 0.949 . S
C1822 C1830 1.574 . S
C1822 C1838 1.368 . S
H1823 C1831 0.950 . S
H1824 C1829 0.950 . S
H1825 C1830 0.949 . S
H1826 C1832 0.950 . S
H1827 C1833 0.950 . S
H1828 C1834 0.949 . S
C1829 H1824 0.950 . S
C1829 C1831 1.327 . S
C1829 C1835 1.429 . S
C1830 C1822 1.574 . S
C1830 H1825 0.949 . S
C1830 C1836 1.368 . S
C1831 C1815 1.349 . S
C1831 H1823 0.950 . S
C1831 C1829 1.327 . S
C1832 C1820 1.349 . S
C1832 H1826 0.950 . S
C1832 C1833 1.327 . S
C1833 H1827 0.950 . S
C1833 C1832 1.327 . S
C1833 C1837 1.429 . S
C1834 C1817 1.574 . S
C1834 H1828 0.949 . S
C1834 C1838 1.368 . S
C1835 C1816 1.429 . S
C1835 C1829 1.429 . S
C1835 C1836 1.523 . S
C1836 C1817 1.368 . S
C1836 C1830 1.368 . S
C1836 C1835 1.523 . S
C1837 C1821 1.429 . S
C1837 C1833 1.429 . S
C1837 C1838 1.523 . S
C1838 C1822 1.368 . S
C1838 C1834 1.368 . S
C1838 C1837 1.523 . S
H1839 C1814 0.950 . S
H1840 C1816 0.950 . S
H1841 C1817 0.949 . S
H1842 C1819 0.950 . S
H1843 C1821 0.950 . S
C1844 C1845 1.349 . S
C1844 C1846 1.327 . S
C1844 H1869 0.950 . S
C1845 C1844 1.349 . S
C1845 C1861 1.349 . S
C1846 C1844 1.327 . S
C1846 C1865 1.429 . S
C1846 H1870 0.950 . S
C1847 C1864 1.574 . S
C1847 C1866 1.368 . S
C1847 H1871 0.949 . S
H1848 C1852 0.949 . S
C1849 C1850 1.349 . S
C1849 C1851 1.327 . S
C1849 H1872 0.950 . S
C1850 C1849 1.349 . S
C1850 C1862 1.349 . S
C1851 C1849 1.327 . S
C1851 C1867 1.429 . S
C1851 H1873 0.950 . S
C1852 H1848 0.949 . S
C1852 C1860 1.574 . S
C1852 C1868 1.368 . S
H1853 C1861 0.950 . S
H1854 C1859 0.950 . S
H1855 C1860 0.949 . S
H1856 C1862 0.950 . S
H1857 C1863 0.950 . S
H1858 C1864 0.949 . S
C1859 H1854 0.950 . S
C1859 C1861 1.327 . S
C1859 C1865 1.429 . S
C1860 C1852 1.574 . S
C1860 H1855 0.949 . S
C1860 C1866 1.368 . S
C1861 C1845 1.349 . S
C1861 H1853 0.950 . S
C1861 C1859 1.327 . S
C1862 C1850 1.349 . S
C1862 H1856 0.950 . S
C1862 C1863 1.327 . S
C1863 H1857 0.950 . S
C1863 C1862 1.327 . S
C1863 C1867 1.429 . S
C1864 C1847 1.574 . S
C1864 H1858 0.949 . S
C1864 C1868 1.368 . S
C1865 C1846 1.429 . S
C1865 C1859 1.429 . S
C1865 C1866 1.523 . S
C1866 C1847 1.368 . S
C1866 C1860 1.368 . S
C1866 C1865 1.523 . S
C1867 C1851 1.429 . S
C1867 C1863 1.429 . S
C1867 C1868 1.523 . S
C1868 C1852 1.368 . S
C1868 C1864 1.368 . S
C1868 C1867 1.523 . S
H1869 C1844 0.950 . S
H1870 C1846 0.950 . S
H1871 C1847 0.949 . S
H1872 C1849 0.950 . S
H1873 C1851 0.950 . S
C1874 C1875 1.349 . S
C1874 C1876 1.327 . S
C1874 H1899 0.950 . S
C1875 C1874 1.349 . S
C1875 C1891 1.349 . S
C1876 C1874 1.327 . S
C1876 C1895 1.429 . S
C1876 H1900 0.950 . S
C1877 C1894 1.574 . S
C1877 C1896 1.368 . S
C1877 H1901 0.949 . S
H1878 C1882 0.949 . S
C1879 C1880 1.349 . S
C1879 C1881 1.327 . S
C1879 H1902 0.950 . S
C1880 C1879 1.349 . S
C1880 C1892 1.349 . S
C1881 C1879 1.327 . S
C1881 C1897 1.429 . S
C1881 H1903 0.950 . S
C1882 H1878 0.949 . S
C1882 C1890 1.574 . S
C1882 C1898 1.368 . S
H1883 C1891 0.950 . S
H1884 C1889 0.950 . S
H1885 C1890 0.949 . S
H1886 C1892 0.950 . S
H1887 C1893 0.950 . S
H1888 C1894 0.949 . S
C1889 H1884 0.950 . S
C1889 C1891 1.327 . S
C1889 C1895 1.429 . S
C1890 C1882 1.574 . S
C1890 H1885 0.949 . S
C1890 C1896 1.368 . S
C1891 C1875 1.349 . S
C1891 H1883 0.950 . S
C1891 C1889 1.327 . S
C1892 C1880 1.349 . S
C1892 H1886 0.950 . S
C1892 C1893 1.327 . S
C1893 H1887 0.950 . S
C1893 C1892 1.327 . S
C1893 C1897 1.429 . S
C1894 C1877 1.574 . S
C1894 H1888 0.949 . S
C1894 C1898 1.368 . S
C1895 C1876 1.429 . S
C1895 C1889 1.429 . S
C1895 C1896 1.523 . S
C1896 C1877 1.368 . S
C1896 C1890 1.368 . S
C1896 C1895 1.523 . S
C1897 C1881 1.429 . S
C1897 C1893 1.429 . S
C1897 C1898 1.523 . S
C1898 C1882 1.368 . S
C1898 C1894 1.368 . S
C1898 C1897 1.523 . S
H1899 C1874 0.950 . S
H1900 C1876 0.950 . S
H1901 C1877 0.949 . S
H1902 C1879 0.950 . S
H1903 C1881 0.950 . S
C1904 C1905 1.349 . S
C1904 C1906 1.327 . S
C1904 H1929 0.950 . S
C1905 C1904 1.349 . S
C1905 C1921 1.349 . S
C1906 C1904 1.327 . S
C1906 C1925 1.429 . S
C1906 H1930 0.950 . S
C1907 C1924 1.574 . S
C1907 C1926 1.368 . S
C1907 H1931 0.949 . S
H1908 C1912 0.949 . S
C1909 C1910 1.349 . S
C1909 C1911 1.327 . S
C1909 H1932 0.950 . S
C1910 C1909 1.349 . S
C1910 C1922 1.349 . S
C1911 C1909 1.327 . S
C1911 C1927 1.429 . S
C1911 H1933 0.950 . S
C1912 H1908 0.949 . S
C1912 C1920 1.574 . S
C1912 C1928 1.368 . S
H1913 C1921 0.950 . S
H1914 C1919 0.950 . S
H1915 C1920 0.949 . S
H1916 C1922 0.950 . S
H1917 C1923 0.950 . S
H1918 C1924 0.949 . S
C1919 H1914 0.950 . S
C1919 C1921 1.327 . S
C1919 C1925 1.429 . S
C1920 C1912 1.574 . S
C1920 H1915 0.949 . S
C1920 C1926 1.368 . S
C1921 C1905 1.349 . S
C1921 H1913 0.950 . S
C1921 C1919 1.327 . S
C1922 C1910 1.349 . S
C1922 H1916 0.950 . S
C1922 C1923 1.327 . S
C1923 H1917 0.950 . S
C1923 C1922 1.327 . S
C1923 C1927 1.429 . S
C1924 C1907 1.574 . S
C1924 H1918 0.949 . S
C1924 C1928 1.368 . S
C1925 C1906 1.429 . S
C1925 C1919 1.429 . S
C1925 C1926 1.523 . S
C1926 C1907 1.368 . S
C1926 C1920 1.368 . S
C1926 C1925 1.523 . S
C1927 C1911 1.429 . S
C1927 C1923 1.429 . S
C1927 C1928 1.523 . S
C1928 C1912 1.368 . S
C1928 C1924 1.368 . S
C1928 C1927 1.523 . S
H1929 C1904 0.950 . S
H1930 C1906 0.950 . S
H1931 C1907 0.949 . S
H1932 C1909 0.950 . S
H1933 C1911 0.950 . S
C1934 C1935 1.349 . S
C1934 C1936 1.327 . S
C1934 H1959 0.950 . S
C1935 C1934 1.349 . S
C1935 C1951 1.349 . S
C1936 C1934 1.327 . S
C1936 C1955 1.429 . S
C1936 H1960 0.950 . S
C1937 C1954 1.574 . S
C1937 C1956 1.368 . S
C1937 H1961 0.949 . S
H1938 C1942 0.949 . S
C1939 C1940 1.349 . S
C1939 C1941 1.327 . S
C1939 H1962 0.950 . S
C1940 C1939 1.349 . S
C1940 C1952 1.349 . S
C1941 C1939 1.327 . S
C1941 C1957 1.429 . S
C1941 H1963 0.950 . S
C1942 H1938 0.949 . S
C1942 C1950 1.574 . S
C1942 C1958 1.368 . S
H1943 C1951 0.950 . S
H1944 C1949 0.950 . S
H1945 C1950 0.949 . S
H1946 C1952 0.950 . S
H1947 C1953 0.950 . S
H1948 C1954 0.949 . S
C1949 H1944 0.950 . S
C1949 C1951 1.327 . S
C1949 C1955 1.429 . S
C1950 C1942 1.574 . S
C1950 H1945 0.949 . S
C1950 C1956 1.368 . S
C1951 C1935 1.349 . S
C1951 H1943 0.950 . S
C1951 C1949 1.327 . S
C1952 C1940 1.349 . S
C1952 H1946 0.950 . S
C1952 C1953 1.327 . S
C1953 H1947 0.950 . S
C1953 C1952 1.327 . S
C1953 C1957 1.429 . S
C1954 C1937 1.574 . S
C1954 H1948 0.949 . S
C1954 C1958 1.368 . S
C1955 C1936 1.429 . S
C1955 C1949 1.429 . S
C1955 C1956 1.523 . S
C1956 C1937 1.368 . S
C1956 C1950 1.368 . S
C1956 C1955 1.523 . S
C1957 C1941 1.429 . S
C1957 C1953 1.429 . S
C1957 C1958 1.523 . S
C1958 C1942 1.368 . S
C1958 C1954 1.368 . S
C1958 C1957 1.523 . S
H1959 C1934 0.950 . S
H1960 C1936 0.950 . S
H1961 C1937 0.949 . S
H1962 C1939 0.950 . S
H1963 C1941 0.950 . S
C1964 C1965 1.349 . S
C1964 C1966 1.327 . S
C1964 H1989 0.950 . S
C1965 C1964 1.349 . S
C1965 C1981 1.349 . S
C1966 C1964 1.327 . S
C1966 C1985 1.429 . S
C1966 H1990 0.950 . S
C1967 C1984 1.574 . S
C1967 C1986 1.368 . S
C1967 H1991 0.949 . S
H1968 C1972 0.949 . S
C1969 C1970 1.349 . S
C1969 C1971 1.327 . S
C1969 H1992 0.950 . S
C1970 C1969 1.349 . S
C1970 C1982 1.349 . S
C1971 C1969 1.327 . S
C1971 C1987 1.429 . S
C1971 H1993 0.950 . S
C1972 H1968 0.949 . S
C1972 C1980 1.574 . S
C1972 C1988 1.368 . S
H1973 C1981 0.950 . S
H1974 C1979 0.950 . S
H1975 C1980 0.949 . S
H1976 C1982 0.950 . S
H1977 C1983 0.950 . S
H1978 C1984 0.949 . S
C1979 H1974 0.950 . S
C1979 C1981 1.327 . S
C1979 C1985 1.429 . S
C1980 C1972 1.574 . S
C1980 H1975 0.949 . S
C1980 C1986 1.368 . S
C1981 C1965 1.349 . S
C1981 H1973 0.950 . S
C1981 C1979 1.327 . S
C1982 C1970 1.349 . S
C1982 H1976 0.950 . S
C1982 C1983 1.327 . S
C1983 H1977 0.950 . S
C1983 C1982 1.327 . S
C1983 C1987 1.429 . S
C1984 C1967 1.574 . S
C1984 H1978 0.949 . S
C1984 C1988 1.368 . S
C1985 C1966 1.429 . S
C1985 C1979 1.429 . S
C1985 C1986 1.523 . S
C1986 C1967 1.368 . S
C1986 C1980 1.368 . S
C1986 C1985 1.523 . S
C1987 C1971 1.429 . S
C1987 C1983 1.429 . S
C1987 C1988 1.523 . S
C1988 C1972 1.368 . S
C1988 C1984 1.368 . S
C1988 C1987 1.523 . S
H1989 C1964 0.950 . S
H1990 C1966 0.950 . S
H1991 C1967 0.949 . S
H1992 C1969 0.950 . S
H1993 C1971 0.950 . S
C1994 C1995 1.349 . S
C1994 C1996 1.327 . S
C1994 H2019 0.950 . S
C1995 C1994 1.349 . S
C1995 C2011 1.349 . S
C1996 C1994 1.327 . S
C1996 C2015 1.429 . S
C1996 H2020 0.950 . S
C1997 C2014 1.574 . S
C1997 C2016 1.368 . S
C1997 H2021 0.949 . S
H1998 C2002 0.949 . S
C1999 C2000 1.349 . S
C1999 C2001 1.327 . S
C1999 H2022 0.950 . S
C2000 C1999 1.349 . S
C2000 C2012 1.349 . S
C2001 C1999 1.327 . S
C2001 C2017 1.429 . S
C2001 H2023 0.950 . S
C2002 H1998 0.949 . S
C2002 C2010 1.574 . S
C2002 C2018 1.368 . S
H2003 C2011 0.950 . S
H2004 C2009 0.950 . S
H2005 C2010 0.949 . S
H2006 C2012 0.950 . S
H2007 C2013 0.950 . S
H2008 C2014 0.949 . S
C2009 H2004 0.950 . S
C2009 C2011 1.327 . S
C2009 C2015 1.429 . S
C2010 C2002 1.574 . S
C2010 H2005 0.949 . S
C2010 C2016 1.368 . S
C2011 C1995 1.349 . S
C2011 H2003 0.950 . S
C2011 C2009 1.327 . S
C2012 C2000 1.349 . S
C2012 H2006 0.950 . S
C2012 C2013 1.327 . S
C2013 H2007 0.950 . S
C2013 C2012 1.327 . S
C2013 C2017 1.429 . S
C2014 C1997 1.574 . S
C2014 H2008 0.949 . S
C2014 C2018 1.368 . S
C2015 C1996 1.429 . S
C2015 C2009 1.429 . S
C2015 C2016 1.523 . S
C2016 C1997 1.368 . S
C2016 C2010 1.368 . S
C2016 C2015 1.523 . S
C2017 C2001 1.429 . S
C2017 C2013 1.429 . S
C2017 C2018 1.523 . S
C2018 C2002 1.368 . S
C2018 C2014 1.368 . S
C2018 C2017 1.523 . S
H2019 C1994 0.950 . S
H2020 C1996 0.950 . S
H2021 C1997 0.949 . S
H2022 C1999 0.950 . S
H2023 C2001 0.950 . S
C2024 C2025 1.349 . S
C2024 C2026 1.327 . S
C2024 H2049 0.950 . S
C2025 C2024 1.349 . S
C2025 C2041 1.349 . S
C2026 C2024 1.327 . S
C2026 C2045 1.429 . S
C2026 H2050 0.950 . S
C2027 C2044 1.574 . S
C2027 C2046 1.368 . S
C2027 H2051 0.949 . S
H2028 C2032 0.949 . S
C2029 C2030 1.349 . S
C2029 C2031 1.327 . S
C2029 H2052 0.950 . S
C2030 C2029 1.349 . S
C2030 C2042 1.349 . S
C2031 C2029 1.327 . S
C2031 C2047 1.429 . S
C2031 H2053 0.950 . S
C2032 H2028 0.949 . S
C2032 C2040 1.574 . S
C2032 C2048 1.368 . S
H2033 C2041 0.950 . S
H2034 C2039 0.950 . S
H2035 C2040 0.949 . S
H2036 C2042 0.950 . S
H2037 C2043 0.950 . S
H2038 C2044 0.949 . S
C2039 H2034 0.950 . S
C2039 C2041 1.327 . S
C2039 C2045 1.429 . S
C2040 C2032 1.574 . S
C2040 H2035 0.949 . S
C2040 C2046 1.368 . S
C2041 C2025 1.349 . S
C2041 H2033 0.950 . S
C2041 C2039 1.327 . S
C2042 C2030 1.349 . S
C2042 H2036 0.950 . S
C2042 C2043 1.327 . S
C2043 H2037 0.950 . S
C2043 C2042 1.327 . S
C2043 C2047 1.429 . S
C2044 C2027 1.574 . S
C2044 H2038 0.949 . S
C2044 C2048 1.368 . S
C2045 C2026 1.429 . S
C2045 C2039 1.429 . S
C2045 C2046 1.523 . S
C2046 C2027 1.368 . S
C2046 C2040 1.368 . S
C2046 C2045 1.523 . S
C2047 C2031 1.429 . S
C2047 C2043 1.429 . S
C2047 C2048 1.523 . S
C2048 C2032 1.368 . S
C2048 C2044 1.368 . S
C2048 C2047 1.523 . S
H2049 C2024 0.950 . S
H2050 C2026 0.950 . S
H2051 C2027 0.949 . S
H2052 C2029 0.950 . S
H2053 C2031 0.950 . S
C2054 C2055 1.349 . S
C2054 C2056 1.327 . S
C2054 H2079 0.950 . S
C2055 C2054 1.349 . S
C2055 C2071 1.349 . S
C2056 C2054 1.327 . S
C2056 C2075 1.429 . S
C2056 H2080 0.950 . S
C2057 C2074 1.574 . S
C2057 C2076 1.368 . S
C2057 H2081 0.949 . S
H2058 C2062 0.949 . S
C2059 C2060 1.349 . S
C2059 C2061 1.327 . S
C2059 H2082 0.950 . S
C2060 C2059 1.349 . S
C2060 C2072 1.349 . S
C2061 C2059 1.327 . S
C2061 C2077 1.429 . S
C2061 H2083 0.950 . S
C2062 H2058 0.949 . S
C2062 C2070 1.574 . S
C2062 C2078 1.368 . S
H2063 C2071 0.950 . S
H2064 C2069 0.950 . S
H2065 C2070 0.949 . S
H2066 C2072 0.950 . S
H2067 C2073 0.950 . S
H2068 C2074 0.949 . S
C2069 H2064 0.950 . S
C2069 C2071 1.327 . S
C2069 C2075 1.429 . S
C2070 C2062 1.574 . S
C2070 H2065 0.949 . S
C2070 C2076 1.368 . S
C2071 C2055 1.349 . S
C2071 H2063 0.950 . S
C2071 C2069 1.327 . S
C2072 C2060 1.349 . S
C2072 H2066 0.950 . S
C2072 C2073 1.327 . S
C2073 H2067 0.950 . S
C2073 C2072 1.327 . S
C2073 C2077 1.429 . S
C2074 C2057 1.574 . S
C2074 H2068 0.949 . S
C2074 C2078 1.368 . S
C2075 C2056 1.429 . S
C2075 C2069 1.429 . S
C2075 C2076 1.523 . S
C2076 C2057 1.368 . S
C2076 C2070 1.368 . S
C2076 C2075 1.523 . S
C2077 C2061 1.429 . S
C2077 C2073 1.429 . S
C2077 C2078 1.523 . S
C2078 C2062 1.368 . S
C2078 C2074 1.368 . S
C2078 C2077 1.523 . S
H2079 C2054 0.950 . S
H2080 C2056 0.950 . S
H2081 C2057 0.949 . S
H2082 C2059 0.950 . S
H2083 C2061 0.950 . S
C650 C355 1.490 . S
C645 C2 1.477 . S
C680 C333 1.594 . S
C675 C48 1.631 . S
C710 C330 0.397 . S
C705 C97 0.413 . S
C735 C149 0.396 . S
C740 C342 0.376 . S
C765 C189 1.628 . S
C770 C325 1.587 . S
C800 C347 0.399 . S
C795 C202 0.415 . S
C825 C248 0.396 . S
C830 C352 0.370 . S
C855 C297 1.475 . S
C860 C348 1.487 . S
C890 C406 3.044 . S
C885 C31 3.094 . S
C915 C52 1.409 . S
C920 C456 1.417 . S
C950 C379 1.540 . S
C945 C88 1.593 . S
C980 C455 0.394 . S
C975 C122 0.451 . S
C1005 C162 0.424 . S
C1010 C384 0.396 . S
C1040 C450 3.030 . S
C1035 C231 3.084 . S
C1065 C252 1.425 . S
C1070 C409 1.440 . S
C1095 C288 1.631 . S
C1100 C441 1.579 . S
C1125 C29 1.638 . S
C1130 C433 1.584 . S
C1155 C191 1.420 . S
C1160 C463 1.429 . S
C1190 C387 1.557 . S
C1185 C229 1.607 . S
C1220 C438 0.407 . S
C1215 C257 0.460 . S
C1245 C292 3.099 . S
C1250 C396 3.048 . S
C1275 C92 3.097 . S
C1280 C460 3.046 . S
C1310 C402 1.447 . S
C1305 C151 1.432 . S
C1335 C57 0.438 . S
C1340 C401 0.413 . S
C1365 C282 1.477 . S
C1370 C517 1.490 . S
C1395 C168 1.631 . S
C1400 C495 1.594 . S
C1430 C492 0.397 . S
C1425 C217 0.413 . S
C1460 C504 0.376 . S
C1455 C269 0.396 . S
C1485 C69 1.628 . S
C1490 C487 1.587 . S
C1520 C509 0.399 . S
C1515 C82 0.415 . S
C1545 C128 0.396 . S
C1550 C514 0.370 . S
C1575 C17 1.475 . S
C1580 C510 1.487 . S
C1605 C311 3.094 . S
C1610 C568 3.044 . S
C1640 C618 1.417 . S
C1635 C172 1.409 . S
C1665 C208 1.593 . S
C1670 C541 1.540 . S
C1695 C242 0.450 . S
C1700 C617 0.394 . S
C1730 C546 0.396 . S
C1725 C42 0.424 . S
C1755 C111 3.084 . S
C1760 C612 3.030 . S
C1790 C571 1.440 . S
C1785 C132 1.424 . S
C1820 C603 1.579 . S
C1815 C8 1.631 . S
C1850 C595 1.584 . S
C1845 C309 1.638 . S
C1875 C71 1.420 . S
C1880 C625 1.429 . S
C1905 C109 1.607 . S
C1910 C549 1.557 . S
C1940 C600 0.407 . S
C1935 C137 0.460 . S
C1965 C12 3.099 . S
C1970 C558 3.048 . S
C1995 C212 3.097 . S
C2000 C622 3.046 . S
C2030 C564 1.447 . S
C2025 C271 1.432 . S
C2060 C563 0.413 . S
C2055 C177 0.437 . S
