# Generated by pormake.
# Topology alb, (6,12)-cn, num edge types: 1
# Building blocks:
#     Node 0, Type 0, BuildingBlock: IZENUY_clean_sbu_0, # of connection points: 6
#     Node 1, Type 0, BuildingBlock: IZENUY_clean_sbu_0, # of connection points: 6
#     Node 2, Type 1, BuildingBlock: QEWDON_clean_sbu_0, # of connection points: 12
#     Edge 3, Type (0, 1), BuildingBlock: FUNLAD_clean_linker_1, # of connection points: 2
#     Edge 4, Type (0, 1), BuildingBlock: FUNLAD_clean_linker_1, # of connection points: 2
#     Edge 5, Type (0, 1), BuildingBlock: FUNLAD_clean_linker_1, # of connection points: 2
#     Edge 6, Type (0, 1), BuildingBlock: FUNLAD_clean_linker_1, # of connection points: 2
#     Edge 7, Type (0, 1), BuildingBlock: FUNLAD_clean_linker_1, # of connection points: 2
#     Edge 8, Type (0, 1), BuildingBlock: FUNLAD_clean_linker_1, # of connection points: 2
#     Edge 9, Type (0, 1), BuildingBlock: FUNLAD_clean_linker_1, # of connection points: 2
#     Edge 10, Type (0, 1), BuildingBlock: FUNLAD_clean_linker_1, # of connection points: 2
#     Edge 11, Type (0, 1), BuildingBlock: FUNLAD_clean_linker_1, # of connection points: 2
#     Edge 12, Type (0, 1), BuildingBlock: FUNLAD_clean_linker_1, # of connection points: 2
#     Edge 13, Type (0, 1), BuildingBlock: FUNLAD_clean_linker_1, # of connection points: 2
#     Edge 14, Type (0, 1), BuildingBlock: FUNLAD_clean_linker_1, # of connection points: 2
# Relax obj value: 0.106
# Max RMSD: 0.215
# Mean RMSD: 0.115
data_MOF--net-alb--node1-IZENUY_clean_sbu_0--node2-QEWDON_clean_sbu_0--edge1-FUNLAD_clean_linker_1
_symmetry_space_group_name_H-M    P1
_symmetry_Int_Tables_number       1
_symmetry_cell_setting            triclinic
loop_
_symmetry_equiv_pos_as_xyz
'x, y, z'
_cell_length_a     25.342117
_cell_length_b     26.490098
_cell_length_c     20.384405
_cell_angle_alpha  89.989354
_cell_angle_beta   91.422848
_cell_angle_gamma 121.3371
loop_
_atom_site_label
_atom_site_type_symbol
_atom_site_fract_x
_atom_site_fract_y
_atom_site_fract_z
_atom_type_partial_charge
Fe0 Fe 0.32479 0.72138 0.13941 0.0
Fe1 Fe 0.30011 0.59548 0.12682 0.0
O2 O 0.27296 0.64407 0.14017 0.0
Fe3 Fe 0.19359 0.61442 0.15481 0.0
O4 O 0.18469 0.64961 0.08262 0.0
O5 O 0.26788 0.73748 0.10218 0.0
O6 O 0.34829 0.71891 0.0566 0.0
C7 C 0.37322 0.69029 0.04088 0.0
C8 C 0.25249 0.7138 0.24094 0.0
O9 O 0.36319 0.64541 0.07308 0.0
C10 C 0.21518 0.54039 0.22768 0.0
O11 O 0.3902 0.71798 0.17605 0.0
O12 O 0.35089 0.62375 0.19853 0.0
O13 O 0.20518 0.6756 0.20836 0.0
O14 O 0.30594 0.72998 0.22239 0.0
C15 C 0.19273 0.53854 0.05608 0.0
O16 O 0.24299 0.53628 0.17911 0.0
O17 O 0.19879 0.57794 0.22842 0.0
C18 C 0.39234 0.67729 0.20676 0.0
O19 O 0.25074 0.56481 0.05422 0.0
O20 O 0.16682 0.54765 0.10328 0.0
C21 C 0.2169 0.70424 0.07126 0.0
Fe22 Fe 0.71893 0.42192 0.05689 0.0
Fe23 Fe 0.72583 0.30979 0.07406 0.0
O24 O 0.76301 0.3872 0.0613 0.0
Fe25 Fe 0.84458 0.42995 0.05228 0.0
O26 O 0.85456 0.49691 0.09116 0.0
O27 O 0.76243 0.47135 0.12551 0.0
O28 O 0.662 0.37321 0.11603 0.0
C29 C 0.66062 0.33685 0.15718 0.0
C30 C 0.80739 0.47909 0.95792 0.0
O31 O 0.69353 0.31422 0.15105 0.0
C32 C 0.80977 0.32396 0.98258 0.0
O33 O 0.67159 0.37499 0.98817 0.0
O34 O 0.65504 0.29105 0.02879 0.0
O35 O 0.83666 0.45373 0.97128 0.0
O36 O 0.76797 0.47701 0.99661 0.0
C37 C 0.83776 0.35686 0.14982 0.0
O38 O 0.75383 0.29854 0.99775 0.0
O39 O 0.85025 0.37109 0.01153 0.0
C40 C 0.64264 0.31918 0.98767 0.0
O41 O 0.79051 0.31446 0.12127 0.0
O42 O 0.85893 0.40943 0.13255 0.0
C43 C 0.82043 0.50503 0.12841 0.0
Zn44 Zn 0.12868 0.11605 0.40329 0.0
Zn45 Zn 0.11435 0.99254 0.43561 0.0
O46 O 0.06684 0.03233 0.42863 0.0
H47 H 0.02255 0.01231 0.42193 0.0
C48 C 0.09979 0.19459 0.55154 0.0
O49 O 0.04518 0.15889 0.57546 0.0
Zn50 Zn 0.92527 0.89981 0.75887 0.0
Zn51 Zn 0.90425 1.00363 0.80375 0.0
O52 O 0.96324 0.98737 0.7571 0.0
H53 H 0.99938 0.01549 0.73366 0.0
Zn54 Zn 0.1328 0.12481 0.63766 0.0
O55 O 0.09176 0.038 0.61271 0.0
Zn56 Zn 0.12592 0.99923 0.67165 0.0
H57 H 0.06202 0.0197 0.5768 0.0
Zn58 Zn 0.88292 0.98852 0.54531 0.0
O59 O 0.93469 0.95509 0.57669 0.0
H60 H 0.96347 0.9712 0.61367 0.0
Zn61 Zn 0.91382 0.8837 0.52078 0.0
C62 C 0.87902 0.06287 0.652 0.0
O63 O 0.93928 0.08707 0.6525 0.0
O64 O 0.21153 0.12773 0.37188 0.0
O65 O 0.1961 0.03763 0.38756 0.0
O66 O 0.82266 0.9296 0.8278 0.0
O67 O 0.84121 0.85809 0.80499 0.0
O68 O 0.20309 0.14832 0.70492 0.0
O69 O 0.20136 0.06417 0.72361 0.0
C70 C 1.00429 0.88069 0.42593 0.0
O71 O 0.8266 0.94068 0.46731 0.0
O72 O 0.8427 0.86578 0.45636 0.0
O73 O 0.93774 0.07627 0.86567 0.0
C74 C 0.22943 0.09081 0.36799 0.0
O75 O 0.09005 0.16167 0.36236 0.0
C76 C 0.04318 0.91116 0.77935 0.0
O77 O 0.14483 0.18868 0.56873 0.0
C78 C 0.80612 0.87523 0.82695 0.0
O79 O 0.8455 0.02017 0.61263 0.0
C80 C 0.14731 0.95431 0.55405 0.0
O81 O 0.05779 0.90937 0.40164 0.0
O82 O 0.99108 0.90563 0.47058 0.0
C83 C 0.22518 0.11987 0.73247 0.0
O84 O 0.98893 0.88546 0.80181 0.0
O85 O 0.05511 0.94584 0.73118 0.0
C86 C 0.89111 0.82003 0.64177 0.0
O87 O 0.15044 0.95013 0.61603 0.0
O88 O 0.13107 0.9887 0.53109 0.0
C89 C 0.81468 0.89262 0.43975 0.0
O90 O 0.8877 0.81243 0.57982 0.0
O91 O 0.91277 0.8718 0.66487 0.0
C92 C 0.98155 0.12671 0.84932 0.0
O93 O 0.00915 0.13254 0.79368 0.0
C94 C 0.03622 0.14579 0.38133 0.0
O95 O 0.01018 0.10423 0.42519 0.0
H96 H 0.28578 0.76827 0.33164 0.0
C97 C 0.24608 0.74427 0.29819 0.0
H98 H 0.15533 0.72295 0.27404 0.0
H99 H 0.07656 0.77425 0.54272 0.0
H100 H 0.99956 0.67093 0.52251 0.0
H101 H 0.00993 0.61575 0.43139 0.0
H102 H 0.09686 0.66366 0.35937 0.0
C103 C 0.195 0.7467 0.30754 0.0
C104 C 0.19004 0.78025 0.3638 0.0
C105 C 0.14027 0.75083 0.40739 0.0
C106 C 0.135 0.78229 0.46105 0.0
C107 C 0.08338 0.75236 0.5019 0.0
C108 C 0.03878 0.69301 0.49087 0.0
C109 C 0.04458 0.66197 0.4395 0.0
C110 C 0.09472 0.69016 0.39835 0.0
H111 H 0.16084 0.93004 0.45589 0.0
C112 C 0.16043 0.91985 0.50756 0.0
H113 H 0.16879 0.86395 0.5754 0.0
H114 H 0.28187 0.85503 0.28111 0.0
H115 H 0.35899 0.958 0.30193 0.0
H116 H 0.35832 0.00838 0.40336 0.0
H117 H 0.2791 0.95637 0.48341 0.0
C118 C 0.17115 0.87696 0.52449 0.0
C119 C 0.18017 0.84284 0.4721 0.0
C120 C 0.23032 0.87211 0.42903 0.0
C121 C 0.23362 0.84167 0.3732 0.0
C122 C 0.27974 0.87438 0.32686 0.0
C123 C 0.32394 0.9339 0.33776 0.0
C124 C 0.32337 0.96236 0.39464 0.0
C125 C 0.2773 0.93206 0.43994 0.0
H126 H 0.59842 0.34406 0.22456 0.0
C127 C 0.61102 0.31363 0.20516 0.0
H128 H 0.58202 0.22387 0.19012 0.0
H129 H 0.38608 0.13214 0.4179 0.0
H130 H 0.46317 0.11456 0.46631 0.0
H131 H 0.5624 0.14966 0.41276 0.0
H132 H 0.58532 0.20321 0.31057 0.0
C133 C 0.57176 0.2552 0.21176 0.0
C134 C 0.51032 0.23151 0.2423 0.0
C135 C 0.49674 0.19876 0.30095 0.0
C136 C 0.43877 0.17727 0.33106 0.0
C137 C 0.42817 0.14764 0.39157 0.0
C138 C 0.47233 0.13765 0.42027 0.0
C139 C 0.52823 0.15748 0.39016 0.0
C140 C 0.54071 0.18801 0.33143 0.0
H141 H 0.3004 0.07594 0.32685 0.0
C142 C 0.29034 0.1097 0.34041 0.0
H143 H 0.32338 0.20095 0.34602 0.0
H144 H 0.5175 0.28627 0.12534 0.0
H145 H 0.43958 0.30162 0.07557 0.0
H146 H 0.3393 0.26428 0.12761 0.0
H147 H 0.31666 0.21136 0.2298 0.0
C148 C 0.33353 0.16714 0.33301 0.0
C149 C 0.39361 0.18703 0.30126 0.0
C150 C 0.40659 0.21848 0.24167 0.0
C151 C 0.46471 0.24047 0.21199 0.0
C152 C 0.47523 0.27014 0.15144 0.0
C153 C 0.43054 0.27889 0.12185 0.0
C154 C 0.37408 0.25777 0.15105 0.0
C155 C 0.36186 0.22768 0.21001 0.0
H156 H 0.21307 0.51961 0.3326 0.0
C157 C 0.20157 0.50032 0.28349 0.0
H158 H 0.16671 0.4243 0.2244 0.0
H159 H 0.21343 0.25552 0.39294 0.0
H160 H 0.26178 0.25997 0.29058 0.0
H161 H 0.27394 0.33135 0.20577 0.0
H162 H 0.23664 0.39763 0.22218 0.0
C163 C 0.17824 0.44201 0.27423 0.0
C164 C 0.17341 0.4013 0.32822 0.0
C165 C 0.19871 0.36483 0.31929 0.0
C166 C 0.1942 0.32535 0.36943 0.0
C167 C 0.21687 0.28736 0.35744 0.0
C168 C 0.24475 0.28935 0.29874 0.0
C169 C 0.25146 0.32942 0.25098 0.0
C170 C 0.22927 0.36704 0.261 0.0
H171 H 0.06561 0.23869 0.48729 0.0
C172 C 0.10721 0.24004 0.50433 0.0
H173 H 0.20397 0.28293 0.49802 0.0
H174 H 0.10624 0.45272 0.35803 0.0
H175 H 0.06966 0.45748 0.46513 0.0
H176 H 0.08161 0.40496 0.55888 0.0
H177 H 0.12702 0.34472 0.54484 0.0
C178 C 0.16229 0.282 0.48188 0.0
C179 C 0.16743 0.32435 0.43007 0.0
C180 C 0.14528 0.36308 0.44043 0.0
C181 C 0.14454 0.39855 0.38822 0.0
C182 C 0.114 0.42998 0.39757 0.0
C183 C 0.09188 0.43234 0.45865 0.0
C184 C 0.09819 0.40242 0.51129 0.0
C185 C 0.12385 0.36757 0.50239 0.0
H186 H 0.92057 0.38016 0.21148 0.0
C187 C 0.87611 0.34377 0.1935 0.0
H188 H 0.81749 0.25112 0.18403 0.0
H189 H 0.01508 0.1804 0.19448 0.0
H190 H 0.97971 0.15968 0.0805 0.0
H191 H 0.91507 0.19564 0.03279 0.0
H192 H 0.88195 0.2491 0.09986 0.0
C193 C 0.8607 0.28776 0.20417 0.0
C194 C 0.90596 0.27357 0.23185 0.0
C195 C 0.92812 0.24575 0.19085 0.0
C196 C 0.9679 0.22767 0.21749 0.0
C197 C 0.98586 0.1963 0.17652 0.0
C198 C 0.96599 0.18417 0.11092 0.0
C199 C 0.9294 0.20419 0.0841 0.0
C200 C 0.91064 0.23474 0.12329 0.0
H201 H 0.95497 0.15456 0.37117 0.0
C202 C 1.00199 0.17255 0.35513 0.0
H203 H 0.07206 0.23464 0.29426 0.0
H204 H 0.86766 0.32162 0.32458 0.0
H205 H 0.89856 0.33795 0.43984 0.0
H206 H 0.97151 0.3109 0.48504 0.0
H207 H 0.01575 0.2695 0.41467 0.0
C208 C 0.02592 0.21723 0.31265 0.0
C209 C 0.987 0.23921 0.28455 0.0
C210 C 0.9654 0.26782 0.32532 0.0
C211 C 0.92406 0.28423 0.2991 0.0
C212 C 0.90031 0.30952 0.34159 0.0
C213 C 0.91743 0.31892 0.40795 0.0
C214 C 0.95857 0.30376 0.43337 0.0
C215 C 0.98313 0.27939 0.39258 0.0
H216 H 0.4457 0.65669 0.27718 0.0
C217 C 0.44786 0.69089 0.24579 0.0
H218 H 0.50563 0.77536 0.20594 0.0
H219 H 0.66544 0.788 0.47474 0.0
H220 H 0.58003 0.77921 0.53575 0.0
H221 H 0.48457 0.76064 0.47827 0.0
H222 H 0.47349 0.74964 0.35992 0.0
C223 C 0.50156 0.74227 0.24039 0.0
C224 C 0.55841 0.75296 0.27582 0.0
C225 C 0.56437 0.76086 0.34498 0.0
C226 C 0.62025 0.77404 0.37784 0.0
C227 C 0.62458 0.77976 0.44717 0.0
C228 C 0.57584 0.77455 0.4828 0.0
C229 C 0.52205 0.76391 0.45046 0.0
C230 C 0.51617 0.7573 0.38239 0.0
H231 H 0.74341 0.89258 0.37685 0.0
C232 C 0.76278 0.86594 0.39184 0.0
H233 H 0.7494 0.77998 0.38951 0.0
H234 H 0.55852 0.73136 0.1446 0.0
H235 H 0.64522 0.74299 0.08349 0.0
H236 H 0.7447 0.77257 0.14002 0.0
H237 H 0.75775 0.79024 0.25814 0.0
C238 C 0.73273 0.80866 0.3742 0.0
C239 C 0.67102 0.78248 0.34118 0.0
C240 C 0.66435 0.77242 0.27257 0.0
C241 C 0.60759 0.75684 0.23988 0.0
C242 C 0.60144 0.74546 0.17141 0.0
C243 C 0.65064 0.75143 0.13593 0.0
C244 C 0.70662 0.76804 0.16777 0.0
C245 C 0.7136 0.77825 0.2354 0.0
H246 H 0.90039 0.58581 0.17062 0.0
C247 C 0.85024 0.55839 0.17103 0.0
H248 H 0.76908 0.54877 0.21041 0.0
H249 H 0.92466 0.71793 0.45387 0.0
H250 H 0.86082 0.62468 0.50749 0.0
H251 H 0.79294 0.53352 0.44304 0.0
H252 H 0.78818 0.53549 0.32402 0.0
C253 C 0.81906 0.57586 0.20773 0.0
C254 C 0.85301 0.63214 0.24689 0.0
C255 C 0.85389 0.63061 0.31647 0.0
C256 C 0.8925 0.68337 0.35385 0.0
C257 C 0.89492 0.67981 0.42305 0.0
C258 C 0.8589 0.6263 0.45455 0.0
C259 C 0.82066 0.57502 0.41821 0.0
C260 C 0.81828 0.57679 0.34995 0.0
H261 H 0.90971 0.80254 0.41121 0.0
C262 C 0.95795 0.82149 0.39938 0.0
H263 H 0.02288 0.81208 0.34647 0.0
H264 H 0.85405 0.65259 0.11486 0.0
H265 H 0.91683 0.74631 0.06098 0.0
H266 H 0.98469 0.83732 0.12543 0.0
H267 H 0.99056 0.83524 0.2441 0.0
C268 C 0.97461 0.79243 0.3587 0.0
C269 C 0.92914 0.73778 0.3215 0.0
C270 C 0.92607 0.73971 0.25199 0.0
C271 C 0.8875 0.68706 0.21472 0.0
C272 C 0.88418 0.69078 0.14551 0.0
C273 C 0.91942 0.74443 0.11392 0.0
C274 C 0.95769 0.79568 0.1502 0.0
C275 C 0.96084 0.79373 0.21838 0.0
H276 H 0.14611 0.69963 0.00198 0.0
C277 C 0.1909 0.72968 0.02537 0.0
H278 H 0.26279 0.81896 0.03741 0.0
H279 H 0.10849 0.81602 0.76446 0.0
H280 H 0.15426 0.76542 0.7142 0.0
H281 H 0.21751 0.73707 0.78018 0.0
H282 H 0.23461 0.75847 0.89724 0.0
C283 C 0.21907 0.78782 0.01285 0.0
C284 C 0.18794 0.81167 0.97099 0.0
C285 C 0.18028 0.80094 0.90217 0.0
C286 C 0.1454 0.81907 0.86367 0.0
C287 C 0.13586 0.80485 0.79577 0.0
C288 C 0.16173 0.77557 0.76628 0.0
C289 C 0.19723 0.75949 0.80346 0.0
C290 C 0.20648 0.77183 0.87063 0.0
H291 H 0.13756 0.92564 0.79329 0.0
C292 C 0.09024 0.90041 0.80956 0.0
H293 H 0.0275 0.83594 0.87419 0.0
H294 H 0.19699 0.84254 0.10074 0.0
H295 H 0.15416 0.89609 0.15064 0.0
H296 H 0.09638 0.92999 0.08363 0.0
H297 H 0.08071 0.91024 0.96633 0.0
C298 C 0.07466 0.86005 0.85723 0.0
C299 C 0.1196 0.84933 0.89384 0.0
C300 C 0.12992 0.86256 0.96213 0.0
C301 C 0.164 0.84372 0.00068 0.0
C302 C 0.17198 0.85625 0.06902 0.0
C303 C 0.14761 0.88694 0.09834 0.0
C304 C 0.115 0.90594 0.06063 0.0
C305 C 0.10613 0.89408 0.99337 0.0
H306 H 0.57529 0.23822 0.93458 0.0
C307 C 0.58897 0.28401 0.94355 0.0
H308 H 0.56295 0.34753 0.932 0.0
H309 H 0.38121 0.19954 0.69051 0.0
H310 H 0.46218 0.28377 0.6337 0.0
H311 H 0.55744 0.35839 0.69299 0.0
H312 H 0.57239 0.349 0.80943 0.0
C313 C 0.55134 0.30243 0.9228 0.0
C314 C 0.4917 0.26013 0.88868 0.0
C315 C 0.4832 0.2671 0.82114 0.0
C316 C 0.42789 0.22463 0.78728 0.0
C317 C 0.42156 0.23137 0.71911 0.0
C318 C 0.46789 0.27929 0.68577 0.0
C319 C 0.52156 0.32125 0.71913 0.0
C320 C 0.52951 0.31535 0.78597 0.0
H321 H 0.29619 0.20002 0.78465 0.0
C322 C 0.28214 0.15464 0.77241 0.0
H323 H 0.30794 0.09042 0.7765 0.0
H324 H 0.49126 0.23523 0.01948 0.0
H325 H 0.41045 0.15084 0.07597 0.0
H326 H 0.31496 0.07679 0.01662 0.0
H327 H 0.29996 0.08688 0.90037 0.0
C328 C 0.32021 0.13534 0.78815 0.0
C329 C 0.38058 0.17615 0.82161 0.0
C330 C 0.38917 0.16887 0.88898 0.0
C331 C 0.44454 0.21118 0.92283 0.0
C332 C 0.45089 0.20383 0.99084 0.0
C333 C 0.40461 0.15571 0.02401 0.0
C334 C 0.35083 0.11408 0.99065 0.0
C335 C 0.34283 0.12043 0.92395 0.0
H336 H 0.18088 0.4832 0.97026 0.0
C337 C 0.15687 0.48771 0.01127 0.0
H338 H 0.07684 0.44425 0.06834 0.0
H339 H 0.00877 0.28483 0.79023 0.0
H340 H 0.99457 0.36102 0.7427 0.0
H341 H 0.01285 0.44677 0.80888 0.0
H342 H 0.04902 0.45864 0.9227 0.0
C343 C 0.1002 0.44269 0.02509 0.0
C344 C 0.07575 0.38535 0.99004 0.0
C345 C 0.05288 0.37806 0.92458 0.0
C346 C 0.04109 0.32792 0.88691 0.0
C347 C 0.0189 0.32216 0.8212 0.0
C348 C 0.00984 0.36523 0.79343 0.0
C349 C 0.02065 0.41382 0.83058 0.0
C350 C 0.04173 0.4203 0.89556 0.0
H351 H 0.97104 0.17112 0.93494 0.0
C352 C 0.99716 0.17834 0.89077 0.0
H353 H 0.06547 0.24149 0.82947 0.0
H354 H 0.11117 0.38242 0.11711 0.0
H355 H 0.13371 0.31095 0.16317 0.0
H356 H 0.12412 0.22964 0.09488 0.0
H357 H 0.08789 0.21688 0.98146 0.0
C358 C 0.04074 0.23345 0.87478 0.0
C359 C 0.05235 0.28526 0.91501 0.0
C360 C 0.07505 0.29257 0.98088 0.0
C361 C 0.08451 0.34158 0.01909 0.0
C362 C 0.10514 0.34698 0.08537 0.0
C363 C 0.11857 0.30651 0.11232 0.0
C364 C 0.11274 0.26049 0.07395 0.0
C365 C 0.09113 0.25328 0.00904 0.0
H366 H 0.87892 0.3186 0.9239 0.0
C367 C 0.82995 0.29635 0.93423 0.0
H368 H 0.7416 0.22085 0.91534 0.0
H369 H 0.89886 0.21962 0.65904 0.0
H370 H 0.90088 0.30858 0.62602 0.0
H371 H 0.86209 0.35592 0.69871 0.0
H372 H 0.82097 0.31455 0.80465 0.0
C373 C 0.79032 0.24465 0.90385 0.0
C374 C 0.81214 0.21564 0.85848 0.0
C375 C 0.83632 0.24069 0.79676 0.0
C376 C 0.85813 0.21309 0.75456 0.0
C377 C 0.88185 0.23886 0.6931 0.0
C378 C 0.88294 0.28972 0.67334 0.0
C379 C 0.86117 0.3164 0.7143 0.0
C380 C 0.83811 0.29241 0.7753 0.0
H381 H 0.79975 0.06165 0.69681 0.0
C382 C 0.8499 0.08551 0.69547 0.0
H383 H 0.93337 0.16103 0.72807 0.0
H384 H 0.76753 0.15545 0.97279 0.0
H385 H 0.7572 0.0619 0.00142 0.0
H386 H 0.78872 0.01082 0.92493 0.0
H387 H 0.83153 0.05337 0.8201 0.0
C388 C 0.88345 0.13501 0.73195 0.0
C389 C 0.85433 0.15977 0.77328 0.0
C390 C 0.82654 0.13277 0.83313 0.0
C391 C 0.8066 0.16136 0.87634 0.0
C392 C 0.78215 0.13505 0.93743 0.0
C393 C 0.7761 0.08142 0.95461 0.0
C394 C 0.79394 0.05272 0.91163 0.0
C395 C 0.81879 0.07785 0.8516 0.0
H396 H 0.4336 0.75727 0.96953 0.0
C397 C 0.42509 0.71783 0.99517 0.0
H398 H 0.46 0.6625 0.0184 0.0
H399 H 0.64634 0.75779 0.78057 0.0
H400 H 0.56585 0.66469 0.73277 0.0
H401 H 0.46726 0.60353 0.78843 0.0
H402 H 0.44826 0.63576 0.89199 0.0
C403 C 0.4671 0.7013 0.99245 0.0
C404 C 0.52716 0.73795 0.95941 0.0
C405 C 0.53858 0.7177 0.90016 0.0
C406 C 0.59625 0.75232 0.86894 0.0
C407 C 0.60458 0.73252 0.80773 0.0
C408 C 0.55848 0.67925 0.77942 0.0
C409 C 0.50292 0.64485 0.81071 0.0
C410 C 0.49269 0.66377 0.87019 0.0
H411 H 0.73571 0.78732 0.86442 0.0
C412 C 0.74525 0.8314 0.85339 0.0
H413 H 0.71262 0.89016 0.85423 0.0
H414 H 0.52212 0.78846 0.07483 0.0
H415 H 0.60392 0.8792 0.12529 0.0
H416 H 0.7051 0.93731 0.07354 0.0
H417 H 0.72482 0.90485 0.97095 0.0
C418 C 0.70241 0.84576 0.86474 0.0
C419 C 0.64337 0.8062 0.8985 0.0
C420 C 0.63247 0.82552 0.95887 0.0
C421 C 0.57427 0.79175 0.98901 0.0
C422 C 0.56503 0.81243 0.04922 0.0
C423 C 0.61179 0.86446 0.07902 0.0
C424 C 0.66873 0.89711 0.04995 0.0
C425 C 0.67926 0.87808 0.99074 0.0
H426 H 0.87175 0.53356 0.88111 0.0
C427 C 0.82732 0.51985 0.90217 0.0
H428 H 0.75017 0.52994 0.90157 0.0
H429 H 0.88986 0.79267 0.81105 0.0
H430 H 0.86287 0.80145 0.92159 0.0
H431 H 0.81598 0.71512 0.99402 0.0
H432 H 0.79722 0.62047 0.95644 0.0
C433 C 0.79425 0.54311 0.88 0.0
C434 C 0.82077 0.59401 0.83443 0.0
C435 C 0.83095 0.64909 0.85699 0.0
C436 C 0.85721 0.69868 0.81492 0.0
C437 C 0.86877 0.75343 0.83998 0.0
C438 C 0.85376 0.75909 0.90369 0.0
C439 C 0.82749 0.71058 0.94445 0.0
C440 C 0.81659 0.65629 0.92191 0.0
H441 H 0.82071 0.75353 0.70576 0.0
C442 C 0.86599 0.76926 0.68585 0.0
H443 H 0.94362 0.76016 0.68382 0.0
H444 H 0.80228 0.49359 0.77364 0.0
H445 H 0.83296 0.48594 0.66424 0.0
H446 H 0.88294 0.57284 0.59301 0.0
H447 H 0.90089 0.66773 0.62992 0.0
C448 C 0.89852 0.74441 0.70429 0.0
C449 C 0.87281 0.69315 0.74983 0.0
C450 C 0.86375 0.63826 0.72783 0.0
C451 C 0.83667 0.58839 0.76971 0.0
C452 C 0.82495 0.5334 0.74503 0.0
C453 C 0.8418 0.52824 0.68202 0.0
C454 C 0.86972 0.57717 0.64181 0.0
C455 C 0.88008 0.63147 0.66385 0.0
loop_
_geom_bond_atom_site_label_1
_geom_bond_atom_site_label_2
_geom_bond_distance
_geom_bond_site_symmetry_2
_ccdc_geom_bond_type
Fe0 O2 1.918 . S
Fe0 O5 1.997 . S
Fe0 O6 2.002 . S
Fe0 O11 1.976 . S
Fe0 O14 1.996 . S
Fe1 O2 1.918 . S
Fe1 O9 1.997 . S
Fe1 O12 1.996 . S
Fe1 O16 1.976 . S
Fe1 O19 2.002 . S
O2 Fe0 1.918 . S
O2 Fe1 1.918 . S
O2 Fe3 1.918 . S
Fe3 O2 1.918 . S
Fe3 O4 2.002 . S
Fe3 O13 1.976 . S
Fe3 O17 1.996 . S
Fe3 O20 1.997 . S
O4 Fe3 2.002 . S
O4 C21 1.295 . S
O5 Fe0 1.997 . S
O5 C21 1.235 . S
O6 Fe0 2.002 . S
O6 C7 1.295 . S
C7 O6 1.295 . S
C7 O9 1.235 . S
C8 O13 1.287 . S
C8 O14 1.255 . S
O9 Fe1 1.997 . S
O9 C7 1.235 . S
C10 O16 1.287 . S
C10 O17 1.255 . S
O11 Fe0 1.976 . S
O11 C18 1.287 . S
O12 Fe1 1.996 . S
O12 C18 1.255 . S
O13 Fe3 1.976 . S
O13 C8 1.287 . S
O14 Fe0 1.996 . S
O14 C8 1.255 . S
C15 O19 1.295 . S
C15 O20 1.235 . S
O16 Fe1 1.976 . S
O16 C10 1.287 . S
O17 Fe3 1.996 . S
O17 C10 1.255 . S
C18 O11 1.287 . S
C18 O12 1.255 . S
O19 Fe1 2.002 . S
O19 C15 1.295 . S
O20 Fe3 1.997 . S
O20 C15 1.235 . S
C21 O4 1.295 . S
C21 O5 1.235 . S
Fe22 O24 1.918 . S
Fe22 O27 1.997 . S
Fe22 O28 2.002 . S
Fe22 O33 1.976 1_554 S
Fe22 O36 1.996 1_554 S
Fe23 O24 1.918 . S
Fe23 O31 1.997 . S
Fe23 O34 1.996 1_554 S
Fe23 O38 1.976 1_554 S
Fe23 O41 2.002 . S
O24 Fe22 1.918 . S
O24 Fe23 1.918 . S
O24 Fe25 1.918 . S
Fe25 O24 1.918 . S
Fe25 O26 2.002 . S
Fe25 O35 1.976 1_554 S
Fe25 O39 1.996 1_554 S
Fe25 O42 1.997 . S
O26 Fe25 2.002 . S
O26 C43 1.295 . S
O27 Fe22 1.997 . S
O27 C43 1.235 . S
O28 Fe22 2.002 . S
O28 C29 1.295 . S
C29 O28 1.295 . S
C29 O31 1.235 . S
C30 O35 1.287 . S
C30 O36 1.255 . S
O31 Fe23 1.997 . S
O31 C29 1.235 . S
C32 O38 1.287 . S
C32 O39 1.255 . S
O33 Fe22 1.976 1_556 S
O33 C40 1.287 . S
O34 Fe23 1.996 1_556 S
O34 C40 1.255 . S
O35 Fe25 1.976 1_556 S
O35 C30 1.287 . S
O36 Fe22 1.996 1_556 S
O36 C30 1.255 . S
C37 O41 1.295 . S
C37 O42 1.235 . S
O38 Fe23 1.976 1_556 S
O38 C32 1.287 . S
O39 Fe25 1.996 1_556 S
O39 C32 1.255 . S
C40 O33 1.287 . S
C40 O34 1.255 . S
O41 Fe23 2.002 . S
O41 C37 1.295 . S
O42 Fe25 1.997 . S
O42 C37 1.235 . S
C43 O26 1.295 . S
C43 O27 1.235 . S
Zn44 O46 1.933 . S
Zn44 O64 1.985 . S
Zn44 O75 1.955 . S
Zn45 O46 1.911 1_565 S
Zn45 O65 1.970 1_565 S
Zn45 O81 1.945 . S
Zn45 O88 1.981 . S
O46 Zn44 1.933 . S
O46 Zn45 1.911 1_545 S
O46 H47 0.841 1_445 S
H47 O46 0.841 1_665 S
C48 O49 1.246 . S
C48 O77 1.276 . S
O49 C48 1.246 . S
Zn50 O52 1.911 . S
Zn50 O67 1.970 . S
Zn50 O84 1.945 1_655 S
Zn50 O91 1.981 . S
Zn51 O52 1.933 1_545 S
Zn51 O66 1.985 1_545 S
Zn51 O73 1.955 1_655 S
O52 Zn50 1.911 . S
O52 Zn51 1.933 1_565 S
O52 H53 0.841 1_665 S
H53 O52 0.841 1_445 S
Zn54 O55 1.933 . S
Zn54 O68 1.985 . S
Zn54 O77 1.955 . S
O55 Zn54 1.933 . S
O55 Zn56 1.911 . S
O55 H57 0.841 . S
Zn56 O55 1.911 . S
Zn56 O69 1.970 . S
Zn56 O85 1.981 1_545 S
Zn56 O87 1.945 1_545 S
H57 O55 0.841 . S
Zn58 O59 1.933 . S
Zn58 O71 1.985 . S
Zn58 O79 1.955 1_565 S
O59 Zn58 1.933 . S
O59 H60 0.841 . S
O59 Zn61 1.911 . S
H60 O59 0.841 . S
Zn61 O59 1.911 . S
Zn61 O72 1.970 . S
Zn61 O82 1.981 . S
Zn61 O90 1.945 . S
C62 O63 1.246 . S
C62 O79 1.276 . S
O63 C62 1.246 . S
O64 Zn44 1.985 . S
O64 C74 1.245 . S
O65 Zn45 1.970 1_545 S
O65 C74 1.263 . S
O66 Zn51 1.985 1_565 S
O66 C78 1.245 . S
O67 Zn50 1.970 . S
O67 C78 1.263 . S
O68 Zn54 1.985 . S
O68 C83 1.245 . S
O69 Zn56 1.970 . S
O69 C83 1.263 . S
C70 O81 1.262 1_655 S
C70 O82 1.245 . S
O71 Zn58 1.985 . S
O71 C89 1.245 . S
O72 Zn61 1.970 . S
O72 C89 1.263 . S
O73 Zn51 1.955 1_455 S
O73 C92 1.276 . S
C74 O64 1.245 . S
C74 O65 1.263 . S
O75 Zn44 1.955 . S
O75 C94 1.276 1_455 S
C76 O84 1.262 . S
C76 O85 1.245 . S
O77 C48 1.276 . S
O77 Zn54 1.955 . S
C78 O66 1.245 . S
C78 O67 1.263 . S
O79 Zn58 1.955 1_545 S
O79 C62 1.276 . S
C80 O87 1.262 . S
C80 O88 1.245 . S
O81 Zn45 1.945 . S
O81 C70 1.262 1_455 S
O82 Zn61 1.981 . S
O82 C70 1.245 . S
C83 O68 1.245 . S
C83 O69 1.263 . S
O84 Zn50 1.945 1_455 S
O84 C76 1.262 . S
O85 Zn56 1.981 1_565 S
O85 C76 1.245 . S
C86 O90 1.262 . S
C86 O91 1.245 . S
O87 Zn56 1.945 1_565 S
O87 C80 1.262 . S
O88 Zn45 1.981 . S
O88 C80 1.245 . S
C89 O71 1.245 . S
C89 O72 1.263 . S
O90 Zn61 1.945 . S
O90 C86 1.262 . S
O91 Zn50 1.981 . S
O91 C86 1.245 . S
C92 O73 1.276 . S
C92 O93 1.246 . S
O93 C92 1.246 . S
C94 O75 1.276 1_655 S
C94 O95 1.246 . S
O95 C94 1.246 . S
H96 C97 0.951 . S
C97 H96 0.951 . S
C97 C103 1.265 . S
H98 C103 0.950 . S
H99 C107 0.949 . S
H100 C108 0.950 . S
H101 C109 0.951 . S
H102 C110 0.951 . S
C103 C97 1.265 . S
C103 H98 0.950 . S
C103 C104 1.478 . S
C104 C103 1.478 . S
C104 C105 1.397 . S
C104 C121 1.394 . S
C105 C104 1.397 . S
C105 C106 1.438 . S
C105 C110 1.429 . S
C106 C105 1.438 . S
C106 C107 1.428 . S
C106 C119 1.394 . S
C107 H99 0.949 . S
C107 C106 1.428 . S
C107 C108 1.345 . S
C108 H100 0.950 . S
C108 C107 1.345 . S
C108 C109 1.424 . S
C109 H101 0.951 . S
C109 C108 1.424 . S
C109 C110 1.347 . S
C110 H102 0.951 . S
C110 C105 1.429 . S
C110 C109 1.347 . S
H111 C112 0.951 . S
C112 H111 0.951 . S
C112 C118 1.265 . S
H113 C118 0.950 . S
H114 C122 0.949 . S
H115 C123 0.950 . S
H116 C124 0.951 1_545 S
H117 C125 0.951 . S
C118 C112 1.265 . S
C118 H113 0.950 . S
C118 C119 1.478 . S
C119 C106 1.394 . S
C119 C118 1.478 . S
C119 C120 1.397 . S
C120 C119 1.397 . S
C120 C121 1.438 . S
C120 C125 1.429 . S
C121 C104 1.394 . S
C121 C120 1.438 . S
C121 C122 1.428 . S
C122 H114 0.949 . S
C122 C121 1.428 . S
C122 C123 1.345 . S
C123 H115 0.950 . S
C123 C122 1.345 . S
C123 C124 1.424 . S
C124 H116 0.951 1_565 S
C124 C123 1.424 . S
C124 C125 1.347 . S
C125 H117 0.951 . S
C125 C120 1.429 . S
C125 C124 1.347 . S
H126 C127 0.951 . S
C127 H126 0.951 . S
C127 C133 1.265 . S
H128 C133 0.950 . S
H129 C137 0.949 . S
H130 C138 0.950 . S
H131 C139 0.951 . S
H132 C140 0.951 . S
C133 C127 1.265 . S
C133 H128 0.950 . S
C133 C134 1.478 . S
C134 C133 1.478 . S
C134 C135 1.397 . S
C134 C151 1.394 . S
C135 C134 1.397 . S
C135 C136 1.438 . S
C135 C140 1.429 . S
C136 C135 1.438 . S
C136 C137 1.428 . S
C136 C149 1.394 . S
C137 H129 0.949 . S
C137 C136 1.428 . S
C137 C138 1.345 . S
C138 H130 0.950 . S
C138 C137 1.345 . S
C138 C139 1.424 . S
C139 H131 0.951 . S
C139 C138 1.424 . S
C139 C140 1.347 . S
C140 H132 0.951 . S
C140 C135 1.429 . S
C140 C139 1.347 . S
H141 C142 0.951 . S
C142 H141 0.951 . S
C142 C148 1.265 . S
H143 C148 0.950 . S
H144 C152 0.949 . S
H145 C153 0.950 . S
H146 C154 0.951 . S
H147 C155 0.951 . S
C148 C142 1.265 . S
C148 H143 0.950 . S
C148 C149 1.478 . S
C149 C136 1.394 . S
C149 C148 1.478 . S
C149 C150 1.397 . S
C150 C149 1.397 . S
C150 C151 1.438 . S
C150 C155 1.429 . S
C151 C134 1.394 . S
C151 C150 1.438 . S
C151 C152 1.428 . S
C152 H144 0.949 . S
C152 C151 1.428 . S
C152 C153 1.345 . S
C153 H145 0.950 . S
C153 C152 1.345 . S
C153 C154 1.424 . S
C154 H146 0.951 . S
C154 C153 1.424 . S
C154 C155 1.347 . S
C155 H147 0.951 . S
C155 C150 1.429 . S
C155 C154 1.347 . S
H156 C157 0.951 . S
C157 H156 0.951 . S
C157 C163 1.265 . S
H158 C163 0.950 . S
H159 C167 0.949 . S
H160 C168 0.950 . S
H161 C169 0.951 . S
H162 C170 0.951 . S
C163 C157 1.265 . S
C163 H158 0.950 . S
C163 C164 1.478 . S
C164 C163 1.478 . S
C164 C165 1.397 . S
C164 C181 1.394 . S
C165 C164 1.397 . S
C165 C166 1.438 . S
C165 C170 1.429 . S
C166 C165 1.438 . S
C166 C167 1.428 . S
C166 C179 1.394 . S
C167 H159 0.949 . S
C167 C166 1.428 . S
C167 C168 1.345 . S
C168 H160 0.950 . S
C168 C167 1.345 . S
C168 C169 1.424 . S
C169 H161 0.951 . S
C169 C168 1.424 . S
C169 C170 1.347 . S
C170 H162 0.951 . S
C170 C165 1.429 . S
C170 C169 1.347 . S
H171 C172 0.951 . S
C172 H171 0.951 . S
C172 C178 1.265 . S
H173 C178 0.950 . S
H174 C182 0.949 . S
H175 C183 0.950 . S
H176 C184 0.951 . S
H177 C185 0.951 . S
C178 C172 1.265 . S
C178 H173 0.950 . S
C178 C179 1.478 . S
C179 C166 1.394 . S
C179 C178 1.478 . S
C179 C180 1.397 . S
C180 C179 1.397 . S
C180 C181 1.438 . S
C180 C185 1.429 . S
C181 C164 1.394 . S
C181 C180 1.438 . S
C181 C182 1.428 . S
C182 H174 0.949 . S
C182 C181 1.428 . S
C182 C183 1.345 . S
C183 H175 0.950 . S
C183 C182 1.345 . S
C183 C184 1.424 . S
C184 H176 0.951 . S
C184 C183 1.424 . S
C184 C185 1.347 . S
C185 H177 0.951 . S
C185 C180 1.429 . S
C185 C184 1.347 . S
H186 C187 0.951 . S
C187 H186 0.951 . S
C187 C193 1.265 . S
H188 C193 0.950 . S
H189 C197 0.949 . S
H190 C198 0.950 1_565 S
H191 C199 0.951 . S
H192 C200 0.951 . S
C193 C187 1.265 . S
C193 H188 0.950 . S
C193 C194 1.478 . S
C194 C193 1.478 . S
C194 C195 1.397 . S
C194 C211 1.394 . S
C195 C194 1.397 . S
C195 C196 1.438 . S
C195 C200 1.429 . S
C196 C195 1.438 . S
C196 C197 1.428 . S
C196 C209 1.394 . S
C197 H189 0.949 . S
C197 C196 1.428 . S
C197 C198 1.345 . S
C198 H190 0.950 1_545 S
C198 C197 1.345 . S
C198 C199 1.424 . S
C199 H191 0.951 . S
C199 C198 1.424 . S
C199 C200 1.347 . S
C200 H192 0.951 . S
C200 C195 1.429 . S
C200 C199 1.347 . S
H201 C202 0.951 . S
C202 H201 0.951 . S
C202 C208 1.265 . S
H203 C208 0.950 . S
H204 C212 0.949 . S
H205 C213 0.950 . S
H206 C214 0.951 . S
H207 C215 0.951 . S
C208 C202 1.265 . S
C208 H203 0.950 . S
C208 C209 1.478 . S
C209 C196 1.394 . S
C209 C208 1.478 . S
C209 C210 1.397 . S
C210 C209 1.397 . S
C210 C211 1.438 . S
C210 C215 1.429 . S
C211 C194 1.394 . S
C211 C210 1.438 . S
C211 C212 1.428 . S
C212 H204 0.949 . S
C212 C211 1.428 . S
C212 C213 1.345 . S
C213 H205 0.950 . S
C213 C212 1.345 . S
C213 C214 1.424 . S
C214 H206 0.951 . S
C214 C213 1.424 . S
C214 C215 1.347 . S
C215 H207 0.951 . S
C215 C210 1.429 . S
C215 C214 1.347 . S
H216 C217 0.951 . S
C217 H216 0.951 . S
C217 C223 1.265 . S
H218 C223 0.950 . S
H219 C227 0.949 . S
H220 C228 0.950 . S
H221 C229 0.951 . S
H222 C230 0.951 . S
C223 C217 1.265 . S
C223 H218 0.950 . S
C223 C224 1.478 . S
C224 C223 1.478 . S
C224 C225 1.397 . S
C224 C241 1.394 . S
C225 C224 1.397 . S
C225 C226 1.438 . S
C225 C230 1.429 . S
C226 C225 1.438 . S
C226 C227 1.428 . S
C226 C239 1.394 . S
C227 H219 0.949 . S
C227 C226 1.428 . S
C227 C228 1.345 . S
C228 H220 0.950 . S
C228 C227 1.345 . S
C228 C229 1.424 . S
C229 H221 0.951 . S
C229 C228 1.424 . S
C229 C230 1.347 . S
C230 H222 0.951 . S
C230 C225 1.429 . S
C230 C229 1.347 . S
H231 C232 0.951 . S
C232 H231 0.951 . S
C232 C238 1.265 . S
H233 C238 0.950 . S
H234 C242 0.949 . S
H235 C243 0.950 . S
H236 C244 0.951 . S
H237 C245 0.951 . S
C238 C232 1.265 . S
C238 H233 0.950 . S
C238 C239 1.478 . S
C239 C226 1.394 . S
C239 C238 1.478 . S
C239 C240 1.397 . S
C240 C239 1.397 . S
C240 C241 1.438 . S
C240 C245 1.429 . S
C241 C224 1.394 . S
C241 C240 1.438 . S
C241 C242 1.428 . S
C242 H234 0.949 . S
C242 C241 1.428 . S
C242 C243 1.345 . S
C243 H235 0.950 . S
C243 C242 1.345 . S
C243 C244 1.424 . S
C244 H236 0.951 . S
C244 C243 1.424 . S
C244 C245 1.347 . S
C245 H237 0.951 . S
C245 C240 1.429 . S
C245 C244 1.347 . S
H246 C247 0.951 . S
C247 H246 0.951 . S
C247 C253 1.265 . S
H248 C253 0.950 . S
H249 C257 0.949 . S
H250 C258 0.950 . S
H251 C259 0.951 . S
H252 C260 0.951 . S
C253 C247 1.265 . S
C253 H248 0.950 . S
C253 C254 1.478 . S
C254 C253 1.478 . S
C254 C255 1.397 . S
C254 C271 1.394 . S
C255 C254 1.397 . S
C255 C256 1.438 . S
C255 C260 1.429 . S
C256 C255 1.438 . S
C256 C257 1.428 . S
C256 C269 1.394 . S
C257 H249 0.949 . S
C257 C256 1.428 . S
C257 C258 1.345 . S
C258 H250 0.950 . S
C258 C257 1.345 . S
C258 C259 1.424 . S
C259 H251 0.951 . S
C259 C258 1.424 . S
C259 C260 1.347 . S
C260 H252 0.951 . S
C260 C255 1.429 . S
C260 C259 1.347 . S
H261 C262 0.951 . S
C262 H261 0.951 . S
C262 C268 1.265 . S
H263 C268 0.950 . S
H264 C272 0.949 . S
H265 C273 0.950 . S
H266 C274 0.951 . S
H267 C275 0.951 . S
C268 C262 1.265 . S
C268 H263 0.950 . S
C268 C269 1.478 . S
C269 C256 1.394 . S
C269 C268 1.478 . S
C269 C270 1.397 . S
C270 C269 1.397 . S
C270 C271 1.438 . S
C270 C275 1.429 . S
C271 C254 1.394 . S
C271 C270 1.438 . S
C271 C272 1.428 . S
C272 H264 0.949 . S
C272 C271 1.428 . S
C272 C273 1.345 . S
C273 H265 0.950 . S
C273 C272 1.345 . S
C273 C274 1.424 . S
C274 H266 0.951 . S
C274 C273 1.424 . S
C274 C275 1.347 . S
C275 H267 0.951 . S
C275 C270 1.429 . S
C275 C274 1.347 . S
H276 C277 0.951 . S
C277 H276 0.951 . S
C277 C283 1.265 1_554 S
H278 C283 0.950 . S
H279 C287 0.949 . S
H280 C288 0.950 . S
H281 C289 0.951 . S
H282 C290 0.951 . S
C283 C277 1.265 1_556 S
C283 H278 0.950 . S
C283 C284 1.478 . S
C284 C283 1.478 . S
C284 C285 1.397 . S
C284 C301 1.394 . S
C285 C284 1.397 . S
C285 C286 1.438 . S
C285 C290 1.429 . S
C286 C285 1.438 . S
C286 C287 1.428 . S
C286 C299 1.394 . S
C287 H279 0.949 . S
C287 C286 1.428 . S
C287 C288 1.345 . S
C288 H280 0.950 . S
C288 C287 1.345 . S
C288 C289 1.424 . S
C289 H281 0.951 . S
C289 C288 1.424 . S
C289 C290 1.347 . S
C290 H282 0.951 . S
C290 C285 1.429 . S
C290 C289 1.347 . S
H291 C292 0.951 . S
C292 H291 0.951 . S
C292 C298 1.265 . S
H293 C298 0.950 . S
H294 C302 0.949 . S
H295 C303 0.950 . S
H296 C304 0.951 . S
H297 C305 0.951 . S
C298 C292 1.265 . S
C298 H293 0.950 . S
C298 C299 1.478 . S
C299 C286 1.394 . S
C299 C298 1.478 . S
C299 C300 1.397 . S
C300 C299 1.397 . S
C300 C301 1.438 . S
C300 C305 1.429 . S
C301 C284 1.394 . S
C301 C300 1.438 . S
C301 C302 1.428 1_556 S
C302 H294 0.949 . S
C302 C301 1.428 1_554 S
C302 C303 1.345 . S
C303 H295 0.950 . S
C303 C302 1.345 . S
C303 C304 1.424 . S
C304 H296 0.951 . S
C304 C303 1.424 . S
C304 C305 1.347 1_554 S
C305 H297 0.951 . S
C305 C300 1.429 . S
C305 C304 1.347 1_556 S
H306 C307 0.951 . S
C307 H306 0.951 . S
C307 C313 1.265 . S
H308 C313 0.950 . S
H309 C317 0.949 . S
H310 C318 0.950 . S
H311 C319 0.951 . S
H312 C320 0.951 . S
C313 C307 1.265 . S
C313 H308 0.950 . S
C313 C314 1.478 . S
C314 C313 1.478 . S
C314 C315 1.397 . S
C314 C331 1.394 . S
C315 C314 1.397 . S
C315 C316 1.438 . S
C315 C320 1.429 . S
C316 C315 1.438 . S
C316 C317 1.428 . S
C316 C329 1.394 . S
C317 H309 0.949 . S
C317 C316 1.428 . S
C317 C318 1.345 . S
C318 H310 0.950 . S
C318 C317 1.345 . S
C318 C319 1.424 . S
C319 H311 0.951 . S
C319 C318 1.424 . S
C319 C320 1.347 . S
C320 H312 0.951 . S
C320 C315 1.429 . S
C320 C319 1.347 . S
H321 C322 0.951 . S
C322 H321 0.951 . S
C322 C328 1.265 . S
H323 C328 0.950 . S
H324 C332 0.949 . S
H325 C333 0.950 . S
H326 C334 0.951 . S
H327 C335 0.951 . S
C328 C322 1.265 . S
C328 H323 0.950 . S
C328 C329 1.478 . S
C329 C316 1.394 . S
C329 C328 1.478 . S
C329 C330 1.397 . S
C330 C329 1.397 . S
C330 C331 1.438 . S
C330 C335 1.429 . S
C331 C314 1.394 . S
C331 C330 1.438 . S
C331 C332 1.428 . S
C332 H324 0.949 . S
C332 C331 1.428 . S
C332 C333 1.345 . S
C333 H325 0.950 . S
C333 C332 1.345 . S
C333 C334 1.424 . S
C334 H326 0.951 . S
C334 C333 1.424 . S
C334 C335 1.347 . S
C335 H327 0.951 . S
C335 C330 1.429 . S
C335 C334 1.347 . S
H336 C337 0.951 . S
C337 H336 0.951 . S
C337 C343 1.265 1_554 S
H338 C343 0.950 . S
H339 C347 0.949 . S
H340 C348 0.950 . S
H341 C349 0.951 . S
H342 C350 0.951 . S
C343 C337 1.265 1_556 S
C343 H338 0.950 . S
C343 C344 1.478 . S
C344 C343 1.478 . S
C344 C345 1.397 . S
C344 C361 1.394 . S
C345 C344 1.397 . S
C345 C346 1.438 . S
C345 C350 1.429 . S
C346 C345 1.438 . S
C346 C347 1.428 . S
C346 C359 1.394 . S
C347 H339 0.949 . S
C347 C346 1.428 . S
C347 C348 1.345 . S
C348 H340 0.950 . S
C348 C347 1.345 . S
C348 C349 1.424 . S
C349 H341 0.951 . S
C349 C348 1.424 . S
C349 C350 1.347 . S
C350 H342 0.951 . S
C350 C345 1.429 . S
C350 C349 1.347 . S
H351 C352 0.951 . S
C352 H351 0.951 . S
C352 C358 1.265 . S
H353 C358 0.950 . S
H354 C362 0.949 . S
H355 C363 0.950 . S
H356 C364 0.951 . S
H357 C365 0.951 . S
C358 C352 1.265 . S
C358 H353 0.950 . S
C358 C359 1.478 . S
C359 C346 1.394 . S
C359 C358 1.478 . S
C359 C360 1.397 . S
C360 C359 1.397 . S
C360 C361 1.438 . S
C360 C365 1.429 . S
C361 C344 1.394 . S
C361 C360 1.438 . S
C361 C362 1.428 1_556 S
C362 H354 0.949 . S
C362 C361 1.428 1_554 S
C362 C363 1.345 . S
C363 H355 0.950 . S
C363 C362 1.345 . S
C363 C364 1.424 . S
C364 H356 0.951 . S
C364 C363 1.424 . S
C364 C365 1.347 1_554 S
C365 H357 0.951 . S
C365 C360 1.429 . S
C365 C364 1.347 1_556 S
H366 C367 0.951 . S
C367 H366 0.951 . S
C367 C373 1.265 . S
H368 C373 0.950 . S
H369 C377 0.949 . S
H370 C378 0.950 . S
H371 C379 0.951 . S
H372 C380 0.951 . S
C373 C367 1.265 . S
C373 H368 0.950 . S
C373 C374 1.478 . S
C374 C373 1.478 . S
C374 C375 1.397 . S
C374 C391 1.394 . S
C375 C374 1.397 . S
C375 C376 1.438 . S
C375 C380 1.429 . S
C376 C375 1.438 . S
C376 C377 1.428 . S
C376 C389 1.394 . S
C377 H369 0.949 . S
C377 C376 1.428 . S
C377 C378 1.345 . S
C378 H370 0.950 . S
C378 C377 1.345 . S
C378 C379 1.424 . S
C379 H371 0.951 . S
C379 C378 1.424 . S
C379 C380 1.347 . S
C380 H372 0.951 . S
C380 C375 1.429 . S
C380 C379 1.347 . S
H381 C382 0.951 . S
C382 H381 0.951 . S
C382 C388 1.265 . S
H383 C388 0.950 . S
H384 C392 0.949 . S
H385 C393 0.950 . S
H386 C394 0.951 . S
H387 C395 0.951 . S
C388 C382 1.265 . S
C388 H383 0.950 . S
C388 C389 1.478 . S
C389 C376 1.394 . S
C389 C388 1.478 . S
C389 C390 1.397 . S
C390 C389 1.397 . S
C390 C391 1.438 . S
C390 C395 1.429 . S
C391 C374 1.394 . S
C391 C390 1.438 . S
C391 C392 1.428 . S
C392 H384 0.949 . S
C392 C391 1.428 . S
C392 C393 1.345 . S
C393 H385 0.950 . S
C393 C392 1.345 . S
C393 C394 1.424 . S
C394 H386 0.951 . S
C394 C393 1.424 . S
C394 C395 1.347 . S
C395 H387 0.951 . S
C395 C390 1.429 . S
C395 C394 1.347 . S
H396 C397 0.951 . S
C397 H396 0.951 . S
C397 C403 1.265 . S
H398 C403 0.950 . S
H399 C407 0.949 . S
H400 C408 0.950 . S
H401 C409 0.951 . S
H402 C410 0.951 . S
C403 C397 1.265 . S
C403 H398 0.950 . S
C403 C404 1.478 1_554 S
C404 C403 1.478 1_556 S
C404 C405 1.397 . S
C404 C421 1.394 1_556 S
C405 C404 1.397 . S
C405 C406 1.438 . S
C405 C410 1.429 . S
C406 C405 1.438 . S
C406 C407 1.428 . S
C406 C419 1.394 . S
C407 H399 0.949 . S
C407 C406 1.428 . S
C407 C408 1.345 . S
C408 H400 0.950 . S
C408 C407 1.345 . S
C408 C409 1.424 . S
C409 H401 0.951 . S
C409 C408 1.424 . S
C409 C410 1.347 . S
C410 H402 0.951 . S
C410 C405 1.429 . S
C410 C409 1.347 . S
H411 C412 0.951 . S
C412 H411 0.951 . S
C412 C418 1.265 . S
H413 C418 0.950 . S
H414 C422 0.949 . S
H415 C423 0.950 . S
H416 C424 0.951 1_545 S
H417 C425 0.951 . S
C418 C412 1.265 . S
C418 H413 0.950 . S
C418 C419 1.478 . S
C419 C406 1.394 . S
C419 C418 1.478 . S
C419 C420 1.397 . S
C420 C419 1.397 . S
C420 C421 1.438 1_556 S
C420 C425 1.429 . S
C421 C404 1.394 1_554 S
C421 C420 1.438 1_554 S
C421 C422 1.428 . S
C422 H414 0.949 . S
C422 C421 1.428 . S
C422 C423 1.345 . S
C423 H415 0.950 . S
C423 C422 1.345 . S
C423 C424 1.424 . S
C424 H416 0.951 1_565 S
C424 C423 1.424 . S
C424 C425 1.347 1_554 S
C425 H417 0.951 . S
C425 C420 1.429 . S
C425 C424 1.347 1_556 S
H426 C427 0.951 . S
C427 H426 0.951 . S
C427 C433 1.265 . S
H428 C433 0.950 . S
H429 C437 0.949 . S
H430 C438 0.950 . S
H431 C439 0.951 . S
H432 C440 0.951 . S
C433 C427 1.265 . S
C433 H428 0.950 . S
C433 C434 1.478 . S
C434 C433 1.478 . S
C434 C435 1.397 . S
C434 C451 1.394 . S
C435 C434 1.397 . S
C435 C436 1.438 . S
C435 C440 1.429 . S
C436 C435 1.438 . S
C436 C437 1.428 . S
C436 C449 1.394 . S
C437 H429 0.949 . S
C437 C436 1.428 . S
C437 C438 1.345 . S
C438 H430 0.950 . S
C438 C437 1.345 . S
C438 C439 1.424 . S
C439 H431 0.951 . S
C439 C438 1.424 . S
C439 C440 1.347 . S
C440 H432 0.951 . S
C440 C435 1.429 . S
C440 C439 1.347 . S
H441 C442 0.951 . S
C442 H441 0.951 . S
C442 C448 1.265 . S
H443 C448 0.950 . S
H444 C452 0.949 . S
H445 C453 0.950 . S
H446 C454 0.951 . S
H447 C455 0.951 . S
C448 C442 1.265 . S
C448 H443 0.950 . S
C448 C449 1.478 . S
C449 C436 1.394 . S
C449 C448 1.478 . S
C449 C450 1.397 . S
C450 C449 1.397 . S
C450 C451 1.438 . S
C450 C455 1.429 . S
C451 C434 1.394 . S
C451 C450 1.438 . S
C451 C452 1.428 . S
C452 H444 0.949 . S
C452 C451 1.428 . S
C452 C453 1.345 . S
C453 H445 0.950 . S
C453 C452 1.345 . S
C453 C454 1.424 . S
C454 H446 0.951 . S
C454 C453 1.424 . S
C454 C455 1.347 . S
C455 H447 0.951 . S
C455 C450 1.429 . S
C455 C454 1.347 . S
C97 C8 1.376 . S
C112 C80 1.392 . S
C142 C74 1.739 . S
C127 C29 1.718 . S
C172 C48 1.429 . S
C157 C10 1.432 . S
C202 C94 1.958 . S
C187 C37 2.004 . S
C232 C89 0.282 . S
C217 C18 0.249 . S
C247 C43 1.923 . S
C262 C70 1.877 . S
C277 C21 1.922 . S
C292 C76 1.880 . S
C307 C40 0.351 . S
C322 C83 0.386 . S
C337 C15 2.006 . S
C352 C92 1.947 . S
C367 C32 1.414 . S
C382 C62 1.389 . S
C412 C78 1.743 . S
C397 C7 1.724 . S
C427 C30 1.393 . S
C442 C86 1.346 . S
