# Generated by pormake.
# Topology ocu, (6,8)-cn, num edge types: 1
# Building blocks:
#     Node 0, Type 0, BuildingBlock: KUMJIN_clean_sbu_1, # of connection points: 6
#     Node 1, Type 0, BuildingBlock: KUMJIN_clean_sbu_1, # of connection points: 6
#     Node 2, Type 0, BuildingBlock: KUMJIN_clean_sbu_1, # of connection points: 6
#     Node 3, Type 0, BuildingBlock: KUMJIN_clean_sbu_1, # of connection points: 6
#     Node 4, Type 0, BuildingBlock: KUMJIN_clean_sbu_1, # of connection points: 6
#     Node 5, Type 0, BuildingBlock: KUMJIN_clean_sbu_1, # of connection points: 6
#     Node 6, Type 0, BuildingBlock: KUMJIN_clean_sbu_1, # of connection points: 6
#     Node 7, Type 0, BuildingBlock: KUMJIN_clean_sbu_1, # of connection points: 6
#     Node 8, Type 1, BuildingBlock: AJUNOK_clean_sbu_0, # of connection points: 8
#     Node 9, Type 1, BuildingBlock: AJUNOK_clean_sbu_0, # of connection points: 8
#     Node 10, Type 1, BuildingBlock: AJUNOK_clean_sbu_0, # of connection points: 8
#     Node 11, Type 1, BuildingBlock: AJUNOK_clean_sbu_0, # of connection points: 8
#     Node 12, Type 1, BuildingBlock: AJUNOK_clean_sbu_0, # of connection points: 8
#     Node 13, Type 1, BuildingBlock: AJUNOK_clean_sbu_0, # of connection points: 8
#     Edge 14, Type (0, 1), BuildingBlock: TEMPAE_clean_linker_10, # of connection points: 2
#     Edge 15, Type (0, 1), BuildingBlock: TEMPAE_clean_linker_10, # of connection points: 2
#     Edge 16, Type (0, 1), BuildingBlock: TEMPAE_clean_linker_10, # of connection points: 2
#     Edge 17, Type (0, 1), BuildingBlock: TEMPAE_clean_linker_10, # of connection points: 2
#     Edge 18, Type (0, 1), BuildingBlock: TEMPAE_clean_linker_10, # of connection points: 2
#     Edge 19, Type (0, 1), BuildingBlock: TEMPAE_clean_linker_10, # of connection points: 2
#     Edge 20, Type (0, 1), BuildingBlock: TEMPAE_clean_linker_10, # of connection points: 2
#     Edge 21, Type (0, 1), BuildingBlock: TEMPAE_clean_linker_10, # of connection points: 2
#     Edge 22, Type (0, 1), BuildingBlock: TEMPAE_clean_linker_10, # of connection points: 2
#     Edge 23, Type (0, 1), BuildingBlock: TEMPAE_clean_linker_10, # of connection points: 2
#     Edge 24, Type (0, 1), BuildingBlock: TEMPAE_clean_linker_10, # of connection points: 2
#     Edge 25, Type (0, 1), BuildingBlock: TEMPAE_clean_linker_10, # of connection points: 2
#     Edge 26, Type (0, 1), BuildingBlock: TEMPAE_clean_linker_10, # of connection points: 2
#     Edge 27, Type (0, 1), BuildingBlock: TEMPAE_clean_linker_10, # of connection points: 2
#     Edge 28, Type (0, 1), BuildingBlock: TEMPAE_clean_linker_10, # of connection points: 2
#     Edge 29, Type (0, 1), BuildingBlock: TEMPAE_clean_linker_10, # of connection points: 2
#     Edge 30, Type (0, 1), BuildingBlock: TEMPAE_clean_linker_10, # of connection points: 2
#     Edge 31, Type (0, 1), BuildingBlock: TEMPAE_clean_linker_10, # of connection points: 2
#     Edge 32, Type (0, 1), BuildingBlock: TEMPAE_clean_linker_10, # of connection points: 2
#     Edge 33, Type (0, 1), BuildingBlock: TEMPAE_clean_linker_10, # of connection points: 2
#     Edge 34, Type (0, 1), BuildingBlock: TEMPAE_clean_linker_10, # of connection points: 2
#     Edge 35, Type (0, 1), BuildingBlock: TEMPAE_clean_linker_10, # of connection points: 2
#     Edge 36, Type (0, 1), BuildingBlock: TEMPAE_clean_linker_10, # of connection points: 2
#     Edge 37, Type (0, 1), BuildingBlock: TEMPAE_clean_linker_10, # of connection points: 2
#     Edge 38, Type (0, 1), BuildingBlock: TEMPAE_clean_linker_10, # of connection points: 2
#     Edge 39, Type (0, 1), BuildingBlock: TEMPAE_clean_linker_10, # of connection points: 2
#     Edge 40, Type (0, 1), BuildingBlock: TEMPAE_clean_linker_10, # of connection points: 2
#     Edge 41, Type (0, 1), BuildingBlock: TEMPAE_clean_linker_10, # of connection points: 2
#     Edge 42, Type (0, 1), BuildingBlock: TEMPAE_clean_linker_10, # of connection points: 2
#     Edge 43, Type (0, 1), BuildingBlock: TEMPAE_clean_linker_10, # of connection points: 2
#     Edge 44, Type (0, 1), BuildingBlock: TEMPAE_clean_linker_10, # of connection points: 2
#     Edge 45, Type (0, 1), BuildingBlock: TEMPAE_clean_linker_10, # of connection points: 2
#     Edge 46, Type (0, 1), BuildingBlock: TEMPAE_clean_linker_10, # of connection points: 2
#     Edge 47, Type (0, 1), BuildingBlock: TEMPAE_clean_linker_10, # of connection points: 2
#     Edge 48, Type (0, 1), BuildingBlock: TEMPAE_clean_linker_10, # of connection points: 2
#     Edge 49, Type (0, 1), BuildingBlock: TEMPAE_clean_linker_10, # of connection points: 2
#     Edge 50, Type (0, 1), BuildingBlock: TEMPAE_clean_linker_10, # of connection points: 2
#     Edge 51, Type (0, 1), BuildingBlock: TEMPAE_clean_linker_10, # of connection points: 2
#     Edge 52, Type (0, 1), BuildingBlock: TEMPAE_clean_linker_10, # of connection points: 2
#     Edge 53, Type (0, 1), BuildingBlock: TEMPAE_clean_linker_10, # of connection points: 2
#     Edge 54, Type (0, 1), BuildingBlock: TEMPAE_clean_linker_10, # of connection points: 2
#     Edge 55, Type (0, 1), BuildingBlock: TEMPAE_clean_linker_10, # of connection points: 2
#     Edge 56, Type (0, 1), BuildingBlock: TEMPAE_clean_linker_10, # of connection points: 2
#     Edge 57, Type (0, 1), BuildingBlock: TEMPAE_clean_linker_10, # of connection points: 2
#     Edge 58, Type (0, 1), BuildingBlock: TEMPAE_clean_linker_10, # of connection points: 2
#     Edge 59, Type (0, 1), BuildingBlock: TEMPAE_clean_linker_10, # of connection points: 2
#     Edge 60, Type (0, 1), BuildingBlock: TEMPAE_clean_linker_10, # of connection points: 2
#     Edge 61, Type (0, 1), BuildingBlock: TEMPAE_clean_linker_10, # of connection points: 2
# Relax obj value: 0.131
# Max RMSD: 0.182
# Mean RMSD: 0.157
data_MOF--net-ocu--node1-KUMJIN_clean_sbu_1--node2-AJUNOK_clean_sbu_0--edge1-TEMPAE_clean_linker_10
_symmetry_space_group_name_H-M    P1
_symmetry_Int_Tables_number       1
_symmetry_cell_setting            triclinic
loop_
_symmetry_equiv_pos_as_xyz
'x, y, z'
_cell_length_a     44.59361
_cell_length_b     45.294765
_cell_length_c     39.431263
_cell_angle_alpha  104.32593
_cell_angle_beta   88.074298
_cell_angle_gamma 113.54378
loop_
_atom_site_label
_atom_site_type_symbol
_atom_site_fract_x
_atom_site_fract_y
_atom_site_fract_z
_atom_type_partial_charge
Eu0 Eu 0.23493 0.25143 0.21035 0.0
C1 C 0.31546 0.33633 0.35997 0.0
N2 N 0.32901 0.32304 0.332 0.0
C3 C 0.37551 0.37559 0.3406 0.0
C4 C 0.3305 0.37048 0.37764 0.0
C5 C 0.35999 0.3416 0.32425 0.0
C6 C 0.36027 0.39032 0.36672 0.0
C7 C 0.27564 0.3278 0.40421 0.0
C8 C 0.28831 0.31524 0.37335 0.0
C9 C 0.28907 0.36213 0.42009 0.0
C10 C 0.31642 0.38342 0.40681 0.0
Eu11 Eu 0.29743 0.2656 0.30435 0.0
N12 N 0.27531 0.2821 0.35728 0.0
C13 C 0.25065 0.3053 0.41897 0.0
C14 C 0.25295 0.25986 0.37309 0.0
C15 C 0.23984 0.27114 0.4038 0.0
H16 H 0.3732 0.33045 0.3056 0.0
H17 H 0.22136 0.25354 0.41568 0.0
H18 H 0.15416 0.20663 0.21969 0.0
H19 H 0.30289 0.23598 0.09385 0.0
H20 H 0.24501 0.23353 0.36174 0.0
H21 H 0.24035 0.31398 0.44269 0.0
H22 H 0.29045 0.26717 0.14935 0.0
H23 H 0.39951 0.39031 0.33346 0.0
H24 H 0.27927 0.37229 0.44343 0.0
H25 H 0.32738 0.40967 0.42025 0.0
H26 H 0.11182 0.1506 0.1932 0.0
H27 H 0.37258 0.41659 0.37965 0.0
H28 H 0.26619 0.17698 0.06834 0.0
N29 N 0.1909 0.19968 0.18665 0.0
C30 C 0.19722 0.18067 0.15704 0.0
C31 C 0.13589 0.15852 0.18316 0.0
C32 C 0.17342 0.14871 0.1407 0.0
C33 C 0.16007 0.19008 0.19832 0.0
C34 C 0.14283 0.13744 0.15473 0.0
N35 N 0.24817 0.22578 0.15581 0.0
C36 C 0.27443 0.24145 0.13838 0.0
C37 C 0.23243 0.17545 0.10935 0.0
C38 C 0.22644 0.19404 0.14121 0.0
C39 C 0.26071 0.19053 0.09275 0.0
C40 C 0.28148 0.22385 0.10701 0.0
H41 H 0.12393 0.11309 0.14287 0.0
H42 H 0.16239 0.1048 0.09751 0.0
H43 H 0.2141 0.12808 0.07029 0.0
O44 O 0.2436 0.28679 0.17851 0.0
O45 O 0.27344 0.22807 0.20095 0.0
O46 O 0.30854 0.2381 0.25063 0.0
O47 O 0.19766 0.26954 0.20265 0.0
O48 O 0.27874 0.28167 0.24722 0.0
O49 O 0.32794 0.29476 0.26682 0.0
O50 O 0.29316 0.22251 0.32328 0.0
O51 O 0.25135 0.27839 0.31186 0.0
O52 O 0.24598 0.29332 0.26119 0.0
O53 O 0.3383 0.26622 0.33381 0.0
O54 O 0.25526 0.2247 0.26737 0.0
O55 O 0.20751 0.2236 0.24984 0.0
C56 C 0.29807 0.22538 0.21661 0.0
C57 C 0.19692 0.28483 0.14987 0.0
C58 C 0.16707 0.30657 0.11882 0.0
C59 C 0.16193 0.27959 0.08939 0.0
C60 C 0.19147 0.25821 0.12027 0.0
C61 C 0.17411 0.25571 0.09017 0.0
C62 C 0.18477 0.30894 0.14908 0.0
C63 C 0.30972 0.29715 0.24364 0.0
C64 C 0.21472 0.28751 0.18194 0.0
C65 C 0.18023 0.12955 0.11006 0.0
C66 C 0.20967 0.14285 0.09449 0.0
C67 C 0.23727 0.29082 0.29315 0.0
C68 C 0.34243 0.21466 0.32138 0.0
C69 C 0.36269 0.17295 0.3258 0.0
C70 C 0.37724 0.17549 0.29394 0.0
C71 C 0.35813 0.2175 0.29016 0.0
C72 C 0.34515 0.19262 0.33958 0.0
C73 C 0.37523 0.1979 0.2765 0.0
C74 C 0.22384 0.21615 0.27099 0.0
C75 C 0.32385 0.2352 0.33472 0.0
H76 H 0.14793 0.27653 0.0659 0.0
H77 H 0.2005 0.23933 0.12051 0.0
H78 H 0.16983 0.23502 0.06742 0.0
H79 H 0.18929 0.3296 0.17199 0.0
H80 H 0.3912 0.16092 0.28317 0.0
H81 H 0.35765 0.23533 0.27663 0.0
H82 H 0.33392 0.19088 0.36422 0.0
H83 H 0.38747 0.2005 0.25268 0.0
Eu84 Eu 0.72722 0.25581 0.24548 0.0
C85 C 0.86457 0.2541 0.20123 0.0
N86 N 0.83332 0.23094 0.19324 0.0
C87 C 0.84387 0.21746 0.13259 0.0
C88 C 0.88644 0.26099 0.17477 0.0
C89 C 0.82303 0.21169 0.15977 0.0
C90 C 0.87559 0.24253 0.14005 0.0
C91 C 0.90792 0.29236 0.2457 0.0
C92 C 0.87509 0.2695 0.23619 0.0
C93 C 0.9293 0.30095 0.21937 0.0
C94 C 0.91859 0.28524 0.18395 0.0
Eu95 Eu 0.79963 0.22216 0.24034 0.0
N96 N 0.85401 0.26003 0.26093 0.0
C97 C 0.91865 0.30463 0.28134 0.0
C98 C 0.86503 0.2699 0.29542 0.0
C99 C 0.8973 0.29268 0.30623 0.0
H100 H 0.79852 0.1923 0.1541 0.0
H101 H 0.90577 0.30075 0.33371 0.0
H102 H 0.74644 0.31197 0.32553 0.0
H103 H 0.61257 0.14862 0.19679 0.0
H104 H 0.84919 0.25948 0.3145 0.0
H105 H 0.9437 0.32213 0.28977 0.0
H106 H 0.66795 0.19133 0.1927 0.0
H107 H 0.83547 0.20264 0.10594 0.0
H108 H 0.95449 0.31877 0.22616 0.0
H109 H 0.93564 0.29127 0.16396 0.0
H110 H 0.72698 0.31539 0.38476 0.0
H111 H 0.89167 0.24699 0.11896 0.0
H112 H 0.58906 0.14812 0.25435 0.0
N113 N 0.70956 0.26364 0.30327 0.0
C114 C 0.68038 0.23987 0.30806 0.0
C115 C 0.71392 0.29372 0.36357 0.0
C116 C 0.66747 0.24159 0.34132 0.0
C117 C 0.7254 0.29126 0.32999 0.0
C118 C 0.68511 0.2685 0.36942 0.0
N119 N 0.67544 0.21352 0.24753 0.0
C120 C 0.65775 0.19087 0.21791 0.0
C121 C 0.63115 0.19082 0.2828 0.0
C122 C 0.66245 0.21459 0.27925 0.0
C123 C 0.61322 0.16677 0.25272 0.0
C124 C 0.62649 0.16693 0.22012 0.0
H125 H 0.67607 0.27069 0.39537 0.0
H126 H 0.62683 0.21787 0.37071 0.0
H127 H 0.59496 0.17351 0.31941 0.0
O128 O 0.70657 0.26483 0.20144 0.0
O129 O 0.71742 0.20471 0.254 0.0
O130 O 0.76532 0.21684 0.28372 0.0
O131 O 0.7071 0.29351 0.25421 0.0
O132 O 0.73452 0.2283 0.1918 0.0
O133 O 0.75347 0.1912 0.20408 0.0
O134 O 0.82653 0.19713 0.25876 0.0
O135 O 0.80042 0.25473 0.20424 0.0
O136 O 0.7788 0.28958 0.23744 0.0
O137 O 0.78547 0.16886 0.22022 0.0
O138 O 0.79582 0.25525 0.29321 0.0
O139 O 0.77409 0.29003 0.27974 0.0
C140 C 0.73377 0.19946 0.27731 0.0
C141 C 0.6635 0.28253 0.21417 0.0
C142 C 0.62519 0.29361 0.18162 0.0
C143 C 0.5999 0.27718 0.20135 0.0
C144 C 0.63795 0.26631 0.23347 0.0
C145 C 0.60628 0.26346 0.22685 0.0
C146 C 0.65697 0.29573 0.18804 0.0
C147 C 0.73871 0.20037 0.18293 0.0
C148 C 0.69723 0.28664 0.22141 0.0
C149 C 0.63695 0.21708 0.34529 0.0
C150 C 0.61875 0.19186 0.31606 0.0
C151 C 0.79601 0.28258 0.21149 0.0
C152 C 0.79199 0.14278 0.26278 0.0
C153 C 0.7999 0.11521 0.30557 0.0
C154 C 0.76599 0.09572 0.30242 0.0
C155 C 0.75814 0.12289 0.25992 0.0
C156 C 0.81271 0.13877 0.28564 0.0
C157 C 0.74536 0.0995 0.27954 0.0
C158 C 0.79212 0.28363 0.30037 0.0
C159 C 0.8059 0.16757 0.24203 0.0
H160 H 0.57531 0.27568 0.19785 0.0
H161 H 0.64251 0.25628 0.25397 0.0
H162 H 0.58671 0.25113 0.24201 0.0
H163 H 0.6768 0.30787 0.17298 0.0
H164 H 0.75559 0.07691 0.31687 0.0
H165 H 0.74143 0.12526 0.2425 0.0
H166 H 0.83883 0.15403 0.28792 0.0
H167 H 0.71941 0.08399 0.27653 0.0
Eu168 Eu 0.75354 0.72164 0.28925 0.0
C169 C 0.82089 0.8014 0.16325 0.0
N170 N 0.80918 0.8153 0.19239 0.0
C171 C 0.85317 0.86853 0.19602 0.0
C172 C 0.85032 0.82049 0.15041 0.0
C173 C 0.82387 0.84872 0.20774 0.0
C174 C 0.86676 0.85424 0.16763 0.0
C175 C 0.81336 0.75413 0.11362 0.0
C176 C 0.80244 0.76855 0.14478 0.0
C177 C 0.84354 0.77258 0.10197 0.0
C178 C 0.86191 0.80567 0.12024 0.0
Eu179 Eu 0.76056 0.77854 0.21041 0.0
N180 N 0.77325 0.75108 0.1565 0.0
C181 C 0.79325 0.72181 0.0946 0.0
C182 C 0.75253 0.72055 0.13681 0.0
C183 C 0.76247 0.70518 0.10595 0.0
H184 H 0.81316 0.86005 0.22936 0.0
H185 H 0.74639 0.68056 0.09093 0.0
H186 H 0.6962 0.64199 0.25979 0.0
H187 H 0.77405 0.80507 0.42007 0.0
H188 H 0.72879 0.70781 0.14546 0.0
H189 H 0.80086 0.70986 0.07062 0.0
H190 H 0.78881 0.78375 0.36062 0.0
H191 H 0.86516 0.89484 0.20878 0.0
H192 H 0.85247 0.76177 0.0783 0.0
H193 H 0.88467 0.81987 0.11031 0.0
H194 H 0.64261 0.60678 0.27664 0.0
H195 H 0.88939 0.86972 0.15852 0.0
H196 H 0.71918 0.77496 0.43914 0.0
N197 N 0.70294 0.68392 0.30272 0.0
C198 C 0.69239 0.69512 0.33417 0.0
C199 C 0.65612 0.63174 0.29277 0.0
C200 C 0.66232 0.67527 0.34534 0.0
C201 C 0.68628 0.65203 0.28302 0.0
C202 C 0.6438 0.64362 0.32373 0.0
N203 N 0.7422 0.74369 0.34605 0.0
C204 C 0.76474 0.771 0.36877 0.0
C205 C 0.7034 0.73637 0.39035 0.0
C206 C 0.7127 0.72549 0.35657 0.0
C207 C 0.7255 0.76576 0.41305 0.0
C208 C 0.75648 0.78288 0.40238 0.0
H209 H 0.62059 0.62767 0.3314 0.0
H210 H 0.62909 0.67217 0.38699 0.0
H211 H 0.66501 0.7256 0.42632 0.0
O212 O 0.8041 0.72893 0.30138 0.0
O213 O 0.7366 0.76544 0.30571 0.0
O214 O 0.74061 0.79533 0.26283 0.0
O215 O 0.76405 0.69069 0.31745 0.0
O216 O 0.78006 0.7639 0.26672 0.0
O217 O 0.80047 0.81123 0.25408 0.0
O218 O 0.71926 0.76695 0.1736 0.0
O219 O 0.78388 0.73951 0.20185 0.0
O220 O 0.76515 0.69868 0.23445 0.0
O221 O 0.74826 0.81804 0.20112 0.0
O222 O 0.72098 0.74039 0.23293 0.0
O223 O 0.71886 0.69236 0.24082 0.0
C224 C 0.7327 0.78917 0.29402 0.0
C225 C 0.80888 0.6781 0.29912 0.0
C226 C 0.84614 0.65102 0.30226 0.0
C227 C 0.83028 0.62719 0.27099 0.0
C228 C 0.79321 0.65353 0.26828 0.0
C229 C 0.80392 0.62838 0.25436 0.0
C230 C 0.83524 0.67658 0.31641 0.0
C231 C 0.80214 0.79424 0.27545 0.0
C232 C 0.79545 0.70312 0.31427 0.0
C233 C 0.65226 0.68697 0.37822 0.0
C234 C 0.67275 0.71738 0.40067 0.0
C235 C 0.78226 0.71177 0.20952 0.0
C236 C 0.72183 0.80939 0.14666 0.0
C237 C 0.6983 0.8369 0.11567 0.0
C238 C 0.7202 0.8352 0.08937 0.0
C239 C 0.74311 0.80783 0.12001 0.0
C240 C 0.69936 0.82369 0.14434 0.0
C241 C 0.74218 0.82061 0.09148 0.0
C242 C 0.71068 0.70812 0.22148 0.0
C243 C 0.72398 0.79805 0.17806 0.0
H244 H 0.83769 0.60695 0.25993 0.0
H245 H 0.77195 0.65316 0.25551 0.0
H246 H 0.79121 0.60923 0.23102 0.0
H247 H 0.84689 0.69484 0.34079 0.0
H248 H 0.72088 0.84569 0.06735 0.0
H249 H 0.76067 0.79714 0.12148 0.0
H250 H 0.68277 0.82446 0.16493 0.0
H251 H 0.75889 0.81961 0.0711 0.0
Eu252 Eu 0.23833 0.7641 0.24995 0.0
C253 C 0.30288 0.67207 0.27556 0.0
N254 N 0.31635 0.70583 0.28348 0.0
C255 C 0.33451 0.70844 0.34106 0.0
C256 C 0.30308 0.65506 0.30097 0.0
C257 C 0.33349 0.72419 0.315 0.0
C258 C 0.31861 0.67376 0.33427 0.0
C259 C 0.27859 0.61957 0.23154 0.0
C260 C 0.29077 0.65463 0.24131 0.0
C261 C 0.27664 0.60235 0.25727 0.0
C262 C 0.28887 0.62008 0.29194 0.0
Eu263 Eu 0.31044 0.73035 0.2393 0.0
N264 N 0.29352 0.67206 0.21702 0.0
C265 C 0.27008 0.60298 0.19599 0.0
C266 C 0.28815 0.65624 0.18208 0.0
C267 C 0.27558 0.62146 0.17108 0.0
H268 H 0.34527 0.75102 0.3203 0.0
H269 H 0.2704 0.60896 0.1434 0.0
H270 H 0.1904 0.71497 0.1752 0.0
H271 H 0.29973 0.89931 0.29104 0.0
H272 H 0.29327 0.67039 0.16259 0.0
H273 H 0.26062 0.57606 0.18738 0.0
H274 H 0.27891 0.84179 0.29793 0.0
H275 H 0.34723 0.72304 0.36644 0.0
H276 H 0.26686 0.57539 0.25038 0.0
H277 H 0.28824 0.60652 0.31125 0.0
H278 H 0.17907 0.72014 0.11678 0.0
H279 H 0.31927 0.66163 0.35455 0.0
H280 H 0.29081 0.90896 0.23381 0.0
N281 N 0.22324 0.76586 0.19354 0.0
C282 C 0.23489 0.79657 0.18717 0.0
C283 C 0.19535 0.74161 0.13612 0.0
C284 C 0.22833 0.80067 0.15428 0.0
C285 C 0.20238 0.73874 0.16915 0.0
C286 C 0.20884 0.77255 0.12839 0.0
N287 N 0.25906 0.81946 0.24513 0.0
C288 C 0.27503 0.84587 0.27291 0.0
C289 C 0.26428 0.85651 0.20872 0.0
C290 C 0.25269 0.8242 0.21396 0.0
C291 C 0.2815 0.88375 0.23679 0.0
C292 C 0.28669 0.87841 0.2691 0.0
H293 H 0.20315 0.77462 0.1028 0.0
H294 H 0.23621 0.83621 0.12328 0.0
H295 H 0.26767 0.88513 0.17102 0.0
O296 O 0.21925 0.78509 0.29685 0.0
O297 O 0.28884 0.79111 0.23259 0.0
O298 O 0.29798 0.74892 0.19612 0.0
O299 O 0.18689 0.75721 0.24988 0.0
O300 O 0.2717 0.78152 0.29907 0.0
O301 O 0.32088 0.77949 0.27954 0.0
O302 O 0.3531 0.7195 0.22458 0.0
O303 O 0.27909 0.72418 0.28567 0.0
O304 O 0.2287 0.71539 0.26314 0.0
O305 O 0.3581 0.77043 0.23712 0.0
O306 O 0.27174 0.71062 0.19376 0.0
O307 O 0.2242 0.71036 0.21903 0.0
C308 C 0.29895 0.77901 0.20299 0.0
C309 C 0.16494 0.75383 0.30508 0.0
C310 C 0.13415 0.7577 0.35673 0.0
C311 C 0.12479 0.72371 0.3539 0.0
C312 C 0.15521 0.71965 0.30189 0.0
C313 C 0.1351 0.70468 0.32624 0.0
C314 C 0.1541 0.77253 0.33226 0.0
C315 C 0.30368 0.79106 0.3029 0.0
C316 C 0.18921 0.7716 0.28324 0.0
C317 C 0.24074 0.83268 0.14851 0.0
C318 C 0.25857 0.86055 0.17571 0.0
C319 C 0.24702 0.71048 0.28459 0.0
C320 C 0.38663 0.75378 0.1898 0.0
C321 C 0.39433 0.72915 0.12942 0.0
C322 C 0.41576 0.76083 0.12629 0.0
C323 C 0.4084 0.78524 0.18643 0.0
C324 C 0.37932 0.72606 0.16094 0.0
C325 C 0.42275 0.78868 0.15475 0.0
C326 C 0.23972 0.69723 0.195 0.0
C327 C 0.37137 0.7498 0.22311 0.0
H328 H 0.10944 0.71199 0.37275 0.0
H329 H 0.16353 0.70482 0.28104 0.0
H330 H 0.12772 0.67839 0.32385 0.0
H331 H 0.16198 0.79905 0.335 0.0
H332 H 0.42796 0.76386 0.10239 0.0
H333 H 0.41437 0.80705 0.20828 0.0
H334 H 0.36224 0.70167 0.16301 0.0
H335 H 0.43986 0.81292 0.15248 0.0
Eu336 Eu 0.22656 0.7608 0.75318 0.0
C337 C 0.36377 0.76152 0.70781 0.0
N338 N 0.33257 0.73824 0.69957 0.0
C339 C 0.34247 0.72741 0.63855 0.0
C340 C 0.3853 0.76962 0.68132 0.0
C341 C 0.32203 0.72021 0.66573 0.0
C342 C 0.37412 0.75249 0.64633 0.0
C343 C 0.40644 0.80144 0.75229 0.0
C344 C 0.37411 0.7772 0.74288 0.0
C345 C 0.42775 0.81021 0.72597 0.0
C346 C 0.41723 0.79429 0.69058 0.0
Eu347 Eu 0.29955 0.72781 0.7468 0.0
N348 N 0.353 0.76806 0.76779 0.0
C349 C 0.41659 0.81568 0.78791 0.0
C350 C 0.36351 0.78023 0.80251 0.0
C351 C 0.39518 0.80469 0.81307 0.0
H352 H 0.29766 0.70064 0.65975 0.0
H353 H 0.40322 0.81482 0.84056 0.0
H354 H 0.24525 0.81246 0.83613 0.0
H355 H 0.11268 0.655 0.69858 0.0
H356 H 0.34773 0.77095 0.82223 0.0
H357 H 0.44117 0.83447 0.79625 0.0
H358 H 0.16808 0.69874 0.69719 0.0
H359 H 0.33383 0.71359 0.61165 0.0
H360 H 0.45258 0.82893 0.73274 0.0
H361 H 0.43406 0.80106 0.67059 0.0
H362 H 0.2249 0.81174 0.89463 0.0
H363 H 0.3899 0.75806 0.62522 0.0
H364 H 0.0882 0.65079 0.75533 0.0
N365 N 0.20828 0.76505 0.81075 0.0
C366 C 0.17882 0.7407 0.81389 0.0
C367 C 0.21196 0.79132 0.87224 0.0
C368 C 0.16546 0.74015 0.8468 0.0
C369 C 0.22391 0.79118 0.83899 0.0
C370 C 0.18289 0.76541 0.87628 0.0
N371 N 0.17461 0.71793 0.75252 0.0
C372 C 0.15742 0.69674 0.72198 0.0
C373 C 0.12982 0.69254 0.78593 0.0
C374 C 0.16114 0.71703 0.78386 0.0
C375 C 0.11236 0.66995 0.75483 0.0
C376 C 0.12615 0.67219 0.72271 0.0
H377 H 0.1735 0.76581 0.90202 0.0
H378 H 0.12432 0.71409 0.87427 0.0
H379 H 0.09313 0.67245 0.82097 0.0
O380 O 0.20607 0.7718 0.71062 0.0
O381 O 0.21638 0.70829 0.75753 0.0
O382 O 0.26327 0.71863 0.78814 0.0
O383 O 0.2036 0.79626 0.7644 0.0
O384 O 0.2352 0.73545 0.6989 0.0
O385 O 0.25474 0.69779 0.70885 0.0
O386 O 0.32942 0.70497 0.76346 0.0
O387 O 0.30101 0.76265 0.71339 0.0
O388 O 0.27768 0.79632 0.74645 0.0
O389 O 0.28716 0.67475 0.72664 0.0
O390 O 0.29189 0.75632 0.80031 0.0
O391 O 0.27315 0.79388 0.78859 0.0
C392 C 0.23192 0.70112 0.77988 0.0
C393 C 0.20982 0.82666 0.72215 0.0
C394 C 0.19946 0.86184 0.69046 0.0
C395 C 0.22983 0.88767 0.70451 0.0
C396 C 0.2402 0.85261 0.73587 0.0
C397 C 0.25019 0.88291 0.72687 0.0
C398 C 0.18972 0.83123 0.69914 0.0
C399 C 0.23978 0.70775 0.68879 0.0
C400 C 0.19877 0.79472 0.73153 0.0
C401 C 0.13479 0.71503 0.84915 0.0
C402 C 0.11696 0.69137 0.81879 0.0
C403 C 0.29627 0.79028 0.72158 0.0
C404 C 0.29863 0.65006 0.76817 0.0
C405 C 0.31263 0.62478 0.80984 0.0
C406 C 0.2795 0.60249 0.80754 0.0
C407 C 0.26569 0.62753 0.76622 0.0
C408 C 0.32178 0.64873 0.79026 0.0
C409 C 0.25628 0.60402 0.78593 0.0
C410 C 0.28993 0.78544 0.80843 0.0
C411 C 0.30945 0.67488 0.74724 0.0
H412 H 0.23783 0.91143 0.69803 0.0
H413 H 0.25619 0.84938 0.75339 0.0
H414 H 0.27369 0.9028 0.73737 0.0
H415 H 0.16618 0.81126 0.68868 0.0
H416 H 0.27158 0.58334 0.82173 0.0
H417 H 0.24716 0.62799 0.74953 0.0
H418 H 0.34703 0.66654 0.79214 0.0
H419 H 0.23094 0.58664 0.78404 0.0
Eu420 Eu 0.25254 0.2174 0.77942 0.0
C421 C 0.3262 0.29947 0.66954 0.0
N422 N 0.31858 0.31205 0.70207 0.0
C423 C 0.37114 0.35798 0.7124 0.0
C424 C 0.35705 0.31568 0.65733 0.0
C425 C 0.34026 0.34102 0.7234 0.0
C426 C 0.37963 0.34521 0.67927 0.0
C427 C 0.31042 0.25631 0.61471 0.0
C428 C 0.30314 0.27005 0.64847 0.0
C429 C 0.3412 0.27234 0.60254 0.0
C430 C 0.36444 0.30191 0.62378 0.0
Eu431 Eu 0.2664 0.28116 0.71856 0.0
N432 N 0.27388 0.2545 0.66135 0.0
C433 C 0.28653 0.22683 0.59418 0.0
C434 C 0.25006 0.22658 0.64094 0.0
C435 C 0.25612 0.2121 0.60724 0.0
H436 H 0.33357 0.35131 0.74873 0.0
H437 H 0.23724 0.18969 0.59128 0.0
H438 H 0.18404 0.14849 0.74998 0.0
H439 H 0.28511 0.30841 0.90716 0.0
H440 H 0.22629 0.21562 0.65031 0.0
H441 H 0.29117 0.21549 0.56809 0.0
H442 H 0.29469 0.28214 0.84768 0.0
H443 H 0.38833 0.38093 0.72942 0.0
H444 H 0.34727 0.26206 0.57672 0.0
H445 H 0.38806 0.31397 0.614 0.0
H446 H 0.12945 0.1199 0.77025 0.0
H447 H 0.4036 0.3584 0.67083 0.0
H448 H 0.2314 0.28373 0.93124 0.0
N449 N 0.20039 0.18752 0.79676 0.0
C450 C 0.19358 0.20026 0.82964 0.0
C451 C 0.1472 0.14255 0.78714 0.0
C452 C 0.16283 0.18465 0.84239 0.0
C453 C 0.178 0.15893 0.7756 0.0
C454 C 0.13953 0.15551 0.82063 0.0
N455 N 0.24649 0.24429 0.83713 0.0
C456 C 0.27096 0.27173 0.85735 0.0
C457 C 0.21085 0.24322 0.88459 0.0
C458 C 0.21733 0.2293 0.8505 0.0
C459 C 0.23541 0.27227 0.90491 0.0
C460 C 0.2657 0.28638 0.89135 0.0
H461 H 0.11563 0.14278 0.82948 0.0
H462 H 0.13273 0.18701 0.88645 0.0
H463 H 0.17474 0.23822 0.92336 0.0
O464 O 0.29258 0.21116 0.80322 0.0
O465 O 0.22147 0.24867 0.78887 0.0
O466 O 0.25475 0.29702 0.77479 0.0
O467 O 0.24667 0.16874 0.78548 0.0
O468 O 0.30283 0.25944 0.78193 0.0
O469 O 0.29431 0.30361 0.77175 0.0
O470 O 0.22639 0.28619 0.69305 0.0
O471 O 0.29784 0.25021 0.70958 0.0
O472 O 0.26407 0.20193 0.72314 0.0
O473 O 0.27122 0.3295 0.7125 0.0
O474 O 0.21609 0.23931 0.71652 0.0
O475 O 0.22449 0.19498 0.72629 0.0
C476 C 0.22899 0.28015 0.7897 0.0
C477 C 0.2785 0.1675 0.83161 0.0
C478 C 0.30415 0.1414 0.8621 0.0
C479 C 0.28279 0.14283 0.88904 0.0
C480 C 0.25784 0.1689 0.85897 0.0
C481 C 0.26002 0.15659 0.88749 0.0
C482 C 0.3017 0.15391 0.83331 0.0
C483 C 0.312 0.29151 0.78538 0.0
C484 C 0.27583 0.17956 0.80086 0.0
C485 C 0.15626 0.1986 0.87626 0.0
C486 C 0.18019 0.22779 0.89729 0.0
C487 C 0.29039 0.21881 0.70908 0.0
C488 C 0.2405 0.33016 0.66499 0.0
C489 C 0.21487 0.35523 0.63286 0.0
C490 C 0.2382 0.3558 0.6077 0.0
C491 C 0.26297 0.33063 0.63923 0.0
C492 C 0.21635 0.34224 0.66163 0.0
C493 C 0.26178 0.3434 0.6108 0.0
C494 C 0.20705 0.20718 0.71243 0.0
C495 C 0.24247 0.31797 0.69591 0.0
H496 H 0.28328 0.13286 0.9112 0.0
H497 H 0.23989 0.17923 0.85816 0.0
H498 H 0.2438 0.15749 0.90841 0.0
H499 H 0.31794 0.15337 0.81231 0.0
H500 H 0.23866 0.36631 0.58575 0.0
H501 H 0.28166 0.32148 0.64129 0.0
H502 H 0.19871 0.34131 0.68135 0.0
H503 H 0.27946 0.34401 0.5912 0.0
Eu504 Eu 0.73027 0.28085 0.76315 0.0
C505 C 0.81259 0.20643 0.80439 0.0
N506 N 0.82363 0.23737 0.79877 0.0
C507 C 0.86344 0.25902 0.84765 0.0
C508 C 0.82646 0.20078 0.83249 0.0
C509 C 0.84889 0.2635 0.81956 0.0
C510 C 0.85209 0.22759 0.85427 0.0
C511 C 0.77481 0.14812 0.78778 0.0
C512 C 0.78707 0.18032 0.78217 0.0
C513 C 0.78864 0.14246 0.81572 0.0
C514 C 0.81439 0.16869 0.83798 0.0
Eu515 Eu 0.79822 0.24203 0.75015 0.0
N516 N 0.77345 0.18672 0.75591 0.0
C517 C 0.74878 0.1226 0.76533 0.0
C518 C 0.74886 0.16167 0.73324 0.0
C519 C 0.7359 0.12938 0.73783 0.0
H520 H 0.8583 0.28763 0.81398 0.0
H521 H 0.71611 0.10969 0.71999 0.0
H522 H 0.68833 0.25605 0.68552 0.0
H523 H 0.80537 0.40773 0.84047 0.0
H524 H 0.73925 0.16624 0.71141 0.0
H525 H 0.7386 0.09756 0.76886 0.0
H526 H 0.77224 0.34789 0.83118 0.0
H527 H 0.88362 0.27969 0.86394 0.0
H528 H 0.77946 0.1179 0.82046 0.0
H529 H 0.82472 0.16391 0.85947 0.0
H530 H 0.68178 0.28044 0.63799 0.0
H531 H 0.86345 0.22424 0.87608 0.0
H532 H 0.8086 0.43473 0.79232 0.0
N533 N 0.72276 0.30193 0.71668 0.0
C534 C 0.73959 0.3352 0.7205 0.0
C535 C 0.69816 0.29607 0.66099 0.0
C536 C 0.73682 0.35009 0.69396 0.0
C537 C 0.70192 0.28231 0.6878 0.0
C538 C 0.71579 0.33007 0.66401 0.0
N539 N 0.76151 0.33935 0.77645 0.0
C540 C 0.7756 0.35853 0.80904 0.0
C541 C 0.77729 0.38894 0.75555 0.0
C542 C 0.75996 0.35426 0.75084 0.0
C543 C 0.79504 0.40804 0.78765 0.0
C544 C 0.79349 0.39287 0.81481 0.0
H545 H 0.71302 0.34061 0.64306 0.0
H546 H 0.7537 0.39609 0.67772 0.0
H547 H 0.78885 0.43017 0.73175 0.0
O548 O 0.70506 0.2951 0.80837 0.0
O549 O 0.76221 0.28672 0.71709 0.0
O550 O 0.81065 0.29274 0.74123 0.0
O551 O 0.67925 0.27427 0.75713 0.0
O552 O 0.76456 0.29069 0.80983 0.0
O553 O 0.81208 0.29426 0.78343 0.0
O554 O 0.81265 0.22068 0.69973 0.0
O555 O 0.76248 0.22871 0.79186 0.0
O556 O 0.71486 0.22968 0.77236 0.0
O557 O 0.84898 0.24808 0.74359 0.0
O558 O 0.76032 0.22464 0.7045 0.0
O559 O 0.7131 0.22935 0.72696 0.0
C560 C 0.79421 0.29766 0.71791 0.0
C561 C 0.67068 0.31932 0.79507 0.0
C562 C 0.67035 0.3699 0.83471 0.0
C563 C 0.65957 0.37763 0.80625 0.0
C564 C 0.65983 0.3274 0.76691 0.0
C565 C 0.65426 0.3564 0.77261 0.0
C566 C 0.67549 0.34054 0.82891 0.0
C567 C 0.79658 0.30075 0.81124 0.0
C568 C 0.67945 0.29043 0.7894 0.0
C569 C 0.75519 0.3843 0.69802 0.0
C570 C 0.77537 0.40366 0.72871 0.0
C571 C 0.73067 0.22014 0.79189 0.0
C572 C 0.85124 0.19908 0.70685 0.0
C573 C 0.85206 0.14841 0.66756 0.0
C574 C 0.86024 0.13983 0.69692 0.0
C575 C 0.86074 0.19057 0.73544 0.0
C576 C 0.84755 0.17823 0.67293 0.0
C577 C 0.86495 0.161 0.73044 0.0
C578 C 0.72862 0.21728 0.70199 0.0
C579 C 0.84204 0.22769 0.71239 0.0
H580 H 0.65559 0.40027 0.80996 0.0
H581 H 0.65611 0.31167 0.74045 0.0
H582 H 0.64614 0.36261 0.7508 0.0
H583 H 0.68347 0.33425 0.85081 0.0
H584 H 0.86285 0.11661 0.69414 0.0
H585 H 0.8643 0.20634 0.7618 0.0
H586 H 0.841 0.1853 0.65086 0.0
H587 H 0.87152 0.15426 0.75272 0.0
Eu588 Eu 0.7376 0.75018 0.7102 0.0
C589 C 0.81412 0.83588 0.85838 0.0
N590 N 0.82825 0.82365 0.83019 0.0
C591 C 0.87141 0.87826 0.83711 0.0
C592 C 0.82702 0.8703 0.87522 0.0
C593 C 0.85809 0.84402 0.82156 0.0
C594 C 0.85532 0.8916 0.86337 0.0
C595 C 0.77502 0.82566 0.90321 0.0
C596 C 0.78838 0.81378 0.87255 0.0
C597 C 0.78644 0.86003 0.91839 0.0
C598 C 0.81234 0.88228 0.90442 0.0
Eu599 Eu 0.79996 0.76517 0.80439 0.0
N600 N 0.77695 0.78053 0.85698 0.0
C601 C 0.75106 0.80257 0.91825 0.0
C602 C 0.75528 0.75784 0.87281 0.0
C603 C 0.74165 0.76855 0.90336 0.0
H604 H 0.87241 0.83431 0.80311 0.0
H605 H 0.72377 0.7507 0.91537 0.0
H606 H 0.65701 0.70718 0.7223 0.0
H607 H 0.79835 0.73403 0.58847 0.0
H608 H 0.7482 0.73159 0.86148 0.0
H609 H 0.74025 0.81074 0.9418 0.0
H610 H 0.78941 0.76521 0.64607 0.0
H611 H 0.89447 0.89426 0.82929 0.0
H612 H 0.77607 0.86959 0.94159 0.0
H613 H 0.82168 0.90867 0.91722 0.0
H614 H 0.61335 0.65163 0.69712 0.0
H615 H 0.86596 0.91812 0.87565 0.0
H616 H 0.76103 0.67508 0.56423 0.0
N617 N 0.69242 0.69888 0.68794 0.0
C618 C 0.69744 0.67941 0.65786 0.0
C619 C 0.63704 0.65889 0.68621 0.0
C620 C 0.67277 0.64777 0.64211 0.0
C621 C 0.66196 0.69018 0.70061 0.0
C622 C 0.64273 0.63726 0.65734 0.0
N623 N 0.74823 0.72388 0.65462 0.0
C624 C 0.77301 0.73952 0.63558 0.0
C625 C 0.73012 0.67361 0.6079 0.0
C626 C 0.72593 0.69226 0.64073 0.0
C627 C 0.75702 0.68862 0.5895 0.0
C628 C 0.77809 0.72195 0.60301 0.0
H629 H 0.62321 0.61317 0.64598 0.0
H630 H 0.65955 0.60382 0.59858 0.0
H631 H 0.70972 0.62639 0.56872 0.0
O632 O 0.74599 0.78629 0.67939 0.0
O633 O 0.77749 0.72845 0.69911 0.0
O634 O 0.80714 0.73372 0.75107 0.0
O635 O 0.70023 0.76858 0.70372 0.0
O636 O 0.78154 0.7807 0.74697 0.0
O637 O 0.83067 0.79219 0.76568 0.0
O638 O 0.79953 0.72366 0.82417 0.0
O639 O 0.75269 0.77602 0.81157 0.0
O640 O 0.74903 0.79167 0.76124 0.0
O641 O 0.8424 0.76964 0.83435 0.0
O642 O 0.75884 0.72299 0.76746 0.0
O643 O 0.71099 0.72145 0.7496 0.0
C644 C 0.79931 0.7229 0.7164 0.0
C645 C 0.6991 0.78457 0.65143 0.0
C646 C 0.66777 0.80585 0.62189 0.0
C647 C 0.66462 0.78067 0.59123 0.0
C648 C 0.69552 0.7596 0.62067 0.0
C649 C 0.6784 0.75777 0.59071 0.0
C650 C 0.68515 0.80755 0.65202 0.0
C651 C 0.81257 0.79477 0.74257 0.0
C652 C 0.71708 0.78686 0.68319 0.0
C653 C 0.67806 0.62833 0.6107 0.0
C654 C 0.70664 0.64121 0.59366 0.0
C655 C 0.73891 0.78838 0.79252 0.0
C656 C 0.85136 0.72063 0.82002 0.0
C657 C 0.87775 0.68317 0.82261 0.0
C658 C 0.89394 0.69026 0.79257 0.0
C659 C 0.86791 0.72728 0.78998 0.0
C660 C 0.85606 0.69814 0.83616 0.0
C661 C 0.88889 0.71206 0.77632 0.0
C662 C 0.72737 0.71386 0.77056 0.0
C663 C 0.83051 0.73844 0.83473 0.0
H664 H 0.651 0.77831 0.56776 0.0
H665 H 0.70587 0.74154 0.61982 0.0
H666 H 0.67564 0.73842 0.56704 0.0
H667 H 0.68811 0.8269 0.67583 0.0
H668 H 0.91062 0.67892 0.78175 0.0
H669 H 0.86496 0.74465 0.77721 0.0
H670 H 0.84376 0.6931 0.85956 0.0
H671 H 0.9015 0.71745 0.75323 0.0
Cd672 Cd 0.96671 0.9571 0.52386 0.0
Cd673 Cd 0.04584 0.0267 0.45771 0.0
C674 C 0.03263 0.95878 0.55356 0.0
N675 N 1.00588 0.93708 0.5317 0.0
C676 C 0.01923 0.89142 0.53398 0.0
C677 C 0.04702 0.91342 0.55662 0.0
C678 C 0.0538 0.94749 0.5661 0.0
C679 C 0.99896 0.90393 0.52147 0.0
H680 H 0.03687 0.98473 0.56252 0.0
H681 H 0.9769 0.88703 0.50503 0.0
C682 C 0.99212 0.95369 0.43676 0.0
C683 C 0.98703 0.02478 0.41267 0.0
C684 C 0.96204 0.03269 0.40283 0.0
C685 C 0.95227 0.0549 0.42718 0.0
C686 C 0.96753 0.06815 0.46133 0.0
C687 C 0.99232 0.05929 0.47018 0.0
N688 N 1.00151 0.03801 0.44583 0.0
H689 H 0.99547 0.00876 0.3935 0.0
H690 H 1.00475 0.07 0.49616 0.0
C691 C 0.08753 0.98452 0.43575 0.0
N692 N 0.07822 -0.0002 0.46576 0.0
C693 C 0.10072 0.97575 0.49984 0.0
C694 C 0.10856 0.95793 0.46896 0.0
C695 C 0.10289 0.96337 0.43675 0.0
C696 C 0.08544 0.99689 0.49765 0.0
H697 H 0.08148 0.98751 0.41082 0.0
H698 H 0.07821 0.00991 0.52109 0.0
C699 C 0.01952 0.03395 0.54758 0.0
C700 C 0.92795 0.9141 0.56407 0.0
N701 N 0.92343 0.96528 0.50187 0.0
C702 C 0.89831 0.96105 0.52312 0.0
C703 C 0.87381 0.97138 0.51786 0.0
C704 C 0.87503 0.98655 0.49042 0.0
C705 C 0.89968 0.98783 0.46688 0.0
C706 C 0.92402 0.97729 0.47333 0.0
C707 C 0.09035 0.07537 0.42619 0.0
O708 O 0.99395 0.96443 0.46987 0.0
O709 O 0.01346 0.97173 0.42002 0.0
O710 O 0.02301 0.02512 0.51508 0.0
O711 O 0.99652 0.0137 0.56089 0.0
O712 O 0.92626 0.90353 0.53073 0.0
O713 O 0.94649 0.9445 0.57758 0.0
O714 O 0.09018 0.08188 0.45956 0.0
O715 O 0.0707 0.04671 0.40895 0.0
H716 H 0.8985 0.95189 0.54587 0.0
H717 H 0.94427 0.9806 0.45679 0.0
H718 H 0.01313 0.86491 0.52635 0.0
H719 H 0.07472 0.96509 0.58396 0.0
H720 H 0.95126 0.0224 0.37608 0.0
H721 H 0.96053 0.08529 0.48083 0.0
H722 H 0.1054 0.97249 0.52508 0.0
H723 H 0.10835 0.94977 0.41236 0.0
H724 H 0.85595 0.97027 0.53733 0.0
H725 H 0.90134 -0.0012 0.4451 0.0
Cd726 Cd 0.47088 0.99672 0.04697 0.0
Cd727 Cd 0.54293 -0.00101 0.93977 0.0
C728 C 0.53077 0.995 0.09455 0.0
N729 N 0.50718 0.97736 0.0676 0.0
C730 C 0.52259 0.93114 0.05825 0.0
C731 C 0.54757 0.94889 0.08538 0.0
C732 C 0.55163 0.9813 0.1036 0.0
C733 C 0.50283 0.94598 0.04961 0.0
H734 H 0.53365 0.01976 0.10885 0.0
H735 H 0.48388 0.93244 0.02838 0.0
C736 C 0.47065 0.95368 0.95912 0.0
C737 C 0.48094 0.99444 0.88999 0.0
C738 C 0.459 0.00623 0.87941 0.0
C739 C 0.46311 0.03936 0.8942 0.0
C740 C 0.4894 0.05981 0.91934 0.0
C741 C 0.5103 0.0469 0.92956 0.0
N742 N 0.50574 0.01474 0.91507 0.0
H743 H 0.47779 0.96899 0.87856 0.0
H744 H 0.53005 0.06247 0.94956 0.0
C745 C 0.55771 0.93576 0.89411 0.0
N746 N 0.56715 0.95877 0.92567 0.0
C747 C 0.60984 0.94113 0.93499 0.0
C748 C 0.60121 0.9176 0.90203 0.0
C749 C 0.57429 0.91493 0.88185 0.0
C750 C 0.59259 0.96154 0.94623 0.0
H751 H 0.53796 0.93437 0.87773 0.0
H752 H 0.6002 0.98032 0.97096 0.0
C753 C 0.54666 0.04409 0.03277 0.0
C754 C 0.42313 0.94433 0.06954 0.0
N755 N 0.44826 0.03785 0.0673 0.0
C756 C 0.45215 0.05299 0.10227 0.0
C757 C 0.43652 0.07432 0.11644 0.0
C758 C 0.41635 0.08037 0.09463 0.0
C759 C 0.41342 0.06493 0.05842 0.0
C760 C 0.42946 0.04364 0.04534 0.0
C761 C 0.59335 0.047 0.91367 0.0
O762 O 0.48075 0.97871 0.98541 0.0
O763 O 0.48945 0.95224 0.93433 0.0
O764 O 0.53837 0.02397 0.00244 0.0
O765 O 0.52539 0.04188 0.05554 0.0
O766 O 0.41976 0.94676 0.0385 0.0
O767 O 0.44723 0.9671 0.08968 0.0
O768 O 0.5897 0.05155 0.94646 0.0
O769 O 0.57387 0.01975 0.89338 0.0
H770 H 0.46689 0.04791 0.11944 0.0
H771 H 0.42615 0.03104 0.0177 0.0
H772 H 0.51881 0.90623 0.04335 0.0
H773 H 0.5705 0.99574 0.12482 0.0
H774 H 0.43913 0.98968 0.85981 0.0
H775 H 0.49325 0.08535 0.93173 0.0
H776 H 0.63001 0.94409 0.9519 0.0
H777 H 0.56679 0.89781 0.85608 0.0
H778 H 0.44014 0.08586 0.14437 0.0
H779 H 0.398 0.06834 0.04043 0.0
Cd780 Cd 0.97593 0.5027 0.05605 0.0
Cd781 Cd 0.04357 0.4958 0.9473 0.0
C782 C 0.02981 0.49375 0.10472 0.0
N783 N 1.00986 0.48014 0.07457 0.0
C784 C 0.02625 0.43456 0.05976 0.0
C785 C 0.04701 0.44778 0.09067 0.0
C786 C 0.04888 0.47799 0.11322 0.0
C787 C 1.00781 0.45111 0.0523 0.0
H788 H 0.03087 0.51677 0.12218 0.0
H789 H 0.9916 0.44064 0.02869 0.0
C790 C 0.97049 0.45625 0.9689 0.0
C791 C 0.98696 0.49596 0.89463 0.0
C792 C 0.96597 0.50872 0.88392 0.0
C793 C 0.96515 0.53856 0.90464 0.0
C794 C 0.98546 0.55454 0.93592 0.0
C795 C 1.00587 0.54093 0.94559 0.0
N796 N 1.00639 0.51228 0.92501 0.0
H797 H 0.9878 0.47316 0.87873 0.0
H798 H 0.02175 0.55348 0.96947 0.0
C799 C 0.04839 0.42364 0.91309 0.0
N800 N 0.06548 0.45406 0.93529 0.0
C801 C 0.11327 0.44176 0.93445 0.0
C802 C 0.09667 0.41055 0.9105 0.0
C803 C 0.06345 0.40145 0.90052 0.0
C804 C 0.09724 0.46315 0.9464 0.0
H805 H 0.02339 0.41704 0.90393 0.0
H806 H 0.1107 0.48773 0.96334 0.0
C807 C 0.05299 0.54109 0.03993 0.0
C808 C 0.92787 0.45693 0.0873 0.0
N809 N 0.95377 0.54443 0.07005 0.0
C810 C 0.96791 0.5727 0.09636 0.0
C811 C 0.95152 0.5938 0.10842 0.0
C812 C 0.91997 0.58579 0.09364 0.0
C813 C 0.90656 0.55688 0.06575 0.0
C814 C 0.9238 0.53655 0.05448 0.0
C815 C 0.09262 0.53933 0.91416 0.0
O816 O 0.98245 0.48208 0.99406 0.0
O817 O 0.98794 0.45239 0.9433 0.0
O818 O 0.04158 0.52129 0.01004 0.0
O819 O 0.03356 0.54318 0.06407 0.0
O820 O 0.92546 0.45331 0.05422 0.0
O821 O 0.95169 0.48231 0.10512 0.0
O822 O 0.0898 0.54808 0.94699 0.0
O823 O 0.073 0.51039 0.89727 0.0
H824 H 0.99144 0.57833 0.10892 0.0
H825 H 0.91255 0.51359 0.03421 0.0
H826 H 0.02436 0.41166 0.04132 0.0
H827 H 0.06439 0.48895 0.13744 0.0
H828 H 0.95059 0.49541 0.85973 0.0
H829 H 0.98631 0.5779 0.95239 0.0
H830 H 0.13892 0.45035 0.94266 0.0
H831 H 0.04931 0.37763 0.88257 0.0
H832 H 0.96333 0.61591 0.12958 0.0
H833 H 0.88225 0.54908 0.05368 0.0
Cd834 Cd 0.46914 0.46846 0.03421 0.0
Cd835 Cd 0.55622 0.53967 0.97453 0.0
C836 C 0.53304 0.4678 0.06707 0.0
N837 N 0.50998 0.45012 0.0398 0.0
C838 C 0.52812 0.40581 0.02819 0.0
C839 C 0.55071 0.42259 0.05768 0.0
C840 C 0.55396 0.45457 0.07632 0.0
C841 C 0.50768 0.42007 0.01978 0.0
H842 H 0.53408 0.49141 0.08286 0.0
H843 H 0.48869 0.40632 -0.00137 0.0
C844 C 0.50184 0.46378 0.94812 0.0
C845 C 0.48976 0.54099 0.95524 0.0
C846 C 0.46791 0.55017 0.94084 0.0
C847 C 0.4775 0.58307 0.9384 0.0
C848 C 0.50912 0.60646 0.95244 0.0
C849 C 0.53043 0.59607 0.96665 0.0
N850 N 0.52052 0.56359 0.96705 0.0
H851 H 0.48275 0.5153 0.95514 0.0
H852 H 0.55535 0.6135 0.97548 0.0
C853 C 0.58405 0.49835 0.00695 0.0
N854 N 0.59222 0.53066 0.00747 0.0
C855 C 0.64663 0.54586 0.03068 0.0
C856 C 0.64004 0.51199 0.02615 0.0
C857 C 0.60755 0.48842 0.01656 0.0
C858 C 0.62226 0.55466 0.02057 0.0
H859 H 0.56018 0.4798 0.99583 0.0
H860 H 0.62825 0.58014 0.02021 0.0
C861 C 0.5222 0.54245 0.05773 0.0
C862 C 0.42756 0.42395 0.07131 0.0
N863 N 0.43186 0.48662 0.01685 0.0
C864 C 0.42379 0.50568 0.04481 0.0
C865 C 0.4067 0.52418 0.03974 0.0
C866 C 0.39782 0.52294 0.00554 0.0
C867 C 0.40334 0.50049 0.97718 0.0
C868 C 0.42088 0.48243 0.98346 0.0
C869 C 0.60237 0.57785 0.93494 0.0
O870 O 0.49745 0.47301 0.98027 0.0
O871 O 0.52585 0.48366 0.93554 0.0
O872 O 0.52398 0.53129 0.02526 0.0
O873 O 0.49949 0.52387 0.0728 0.0
O874 O 0.42594 0.41479 0.03784 0.0
O875 O 0.44764 0.45338 0.08609 0.0
O876 O 0.60083 0.59028 0.96738 0.0
O877 O 0.58342 0.54751 0.92193 0.0
H878 H 0.4326 0.50817 0.07103 0.0
H879 H 0.42741 0.46684 0.96169 0.0
H880 H 0.5246 0.38095 0.01339 0.0
H881 H 0.57136 0.46848 0.09896 0.0
H882 H 0.44398 0.53123 0.93082 0.0
H883 H 0.51802 0.63204 0.95087 0.0
H884 H 0.67119 0.56489 0.03828 0.0
H885 H 0.60109 0.46198 0.01213 0.0
H886 H 0.4029 0.54145 0.06215 0.0
H887 H 0.39618 0.49871 0.95055 0.0
Cd888 Cd 0.97822 0.50004 0.54938 0.0
Cd889 Cd 0.05817 0.5141 0.45106 0.0
C890 C 0.0359 0.49846 0.59987 0.0
N891 N 0.0146 0.48109 0.57088 0.0
C892 C 0.03332 0.4371 0.56176 0.0
C893 C 0.05608 0.45478 0.59098 0.0
C894 C 0.0573 0.48592 0.6101 0.0
C895 C 0.01295 0.45087 0.552 0.0
H896 H 0.03653 0.52218 0.61495 0.0
H897 H 0.99575 0.43747 0.52918 0.0
C898 C 0.97831 0.46626 0.45201 0.0
C899 C 0.01507 0.52373 0.39095 0.0
C900 C 0.99682 0.53806 0.37785 0.0
C901 C 0.99193 0.5652 0.39979 0.0
C902 C 1.00559 0.57714 0.43459 0.0
C903 C 0.02331 0.5619 0.44666 0.0
N904 N 0.02764 0.53569 0.42494 0.0
H905 H 0.01901 0.50298 0.37413 0.0
H906 H 0.03365 0.57094 0.47353 0.0
C907 C 0.06723 0.4481 0.4044 0.0
N908 N 0.07759 0.47039 0.43632 0.0
C909 C 0.11773 0.44914 0.44433 0.0
C910 C 0.10829 0.42646 0.41089 0.0
C911 C 0.08214 0.42591 0.39125 0.0
C912 C 0.10217 0.47099 0.45646 0.0
H913 H 0.0483 0.44856 0.38833 0.0
H914 H 0.1106 0.48931 0.48143 0.0
C915 C 0.05157 0.54834 0.54008 0.0
C916 C 0.92717 0.45357 0.57683 0.0
N917 N 0.95523 0.54127 0.5652 0.0
C918 C 0.96588 0.56388 0.59692 0.0
C919 C 0.95028 0.58534 0.61067 0.0
C920 C 0.92311 0.58379 0.59189 0.0
C921 C 0.91317 0.56063 0.55874 0.0
C922 C 0.92947 0.53952 0.54597 0.0
C923 C 0.11429 0.56139 0.43041 0.0
O924 O 0.98244 0.48036 0.48483 0.0
O925 O 1.00273 0.4732 0.43312 0.0
O926 O 0.04295 0.52596 0.51138 0.0
O927 O 0.03101 0.54682 0.56336 0.0
O928 O 0.93183 0.44701 0.54431 0.0
O929 O 0.94599 0.48175 0.596 0.0
O930 O 0.10405 0.5686 0.46058 0.0
O931 O 0.09866 0.53241 0.41073 0.0
H932 H 0.98581 0.56442 0.6123 0.0
H933 H 0.92085 0.52102 0.52113 0.0
H934 H 0.03174 0.41312 0.5462 0.0
H935 H 0.07436 0.50021 0.63294 0.0
H936 H 0.98696 0.52826 0.35075 0.0
H937 H 1.00215 0.59772 0.45251 0.0
H938 H 0.13736 0.45045 0.46084 0.0
H939 H 0.07413 0.40951 0.36517 0.0
H940 H 0.95875 0.60207 0.63653 0.0
H941 H 0.89273 0.55849 0.54284 0.0
Cd942 Cd 0.47479 -0.00027 0.5605 0.0
Cd943 Cd 0.54794 0.00465 0.45559 0.0
C944 C 0.52034 0.98499 0.61331 0.0
N945 N 0.50567 0.97501 0.58032 0.0
C946 C 0.52598 0.93236 0.56392 0.0
C947 C 0.54163 0.94212 0.5976 0.0
C948 C 0.53882 0.96896 0.62247 0.0
C949 C 0.5081 0.94921 0.55583 0.0
H950 H 0.51792 0.00554 0.63235 0.0
H951 H 0.49613 0.94175 0.52986 0.0
C952 C 0.47041 0.96507 0.46668 0.0
C953 C 0.50552 0.01824 0.39969 0.0
C954 C 0.48484 0.03087 0.38831 0.0
C955 C 0.47182 0.04985 0.41311 0.0
C956 C 0.47999 0.05565 0.4489 0.0
C957 C 0.50105 0.04294 0.45908 0.0
N958 N 0.51314 0.02447 0.43457 0.0
H959 H 0.51551 0.00349 0.38077 0.0
H960 H 0.50777 0.04776 0.48662 0.0
C961 C 0.56213 0.94309 0.40689 0.0
N962 N 0.5674 0.96099 0.44102 0.0
C963 C 0.60431 0.93693 0.45198 0.0
C964 C 0.60038 0.91905 0.41641 0.0
C965 C 0.57832 0.92207 0.39406 0.0
C966 C 0.58775 0.95795 0.46368 0.0
H967 H 0.54657 0.94646 0.38904 0.0
H968 H 0.59223 0.97285 0.49055 0.0
C969 C 0.55293 0.03788 0.55014 0.0
C970 C 0.42099 0.95569 0.58787 0.0
N971 N 0.45623 0.04404 0.57358 0.0
C972 C 0.4729 0.07364 0.59732 0.0
C973 C 0.45825 0.09634 0.60933 0.0
C974 C 0.42586 0.08856 0.59723 0.0
C975 C 0.40979 0.05815 0.57189 0.0
C976 C 0.42538 0.03631 0.56051 0.0
C977 C 0.59874 0.04864 0.42436 0.0
O978 O 0.48146 0.98193 0.49775 0.0
O979 O 0.49023 0.96596 0.44251 0.0
O980 O 0.54205 0.02176 0.51882 0.0
O981 O 0.5329 0.037 0.57411 0.0
O982 O 0.4249 0.94923 0.5551 0.0
O983 O 0.44173 0.98277 0.60715 0.0
O984 O 0.5941 0.05798 0.45658 0.0
O985 O 0.58029 0.01925 0.40766 0.0
H986 H 0.49714 0.07916 0.608 0.0
H987 H 0.41219 0.01233 0.54237 0.0
H988 H 0.52786 0.9121 0.54383 0.0
H989 H 0.5504 0.97713 0.64877 0.0
H990 H 0.47898 0.02578 0.36046 0.0
H991 H 0.47083 0.07053 0.46879 0.0
H992 H 0.62052 0.93529 0.47057 0.0
H993 H 0.57466 0.90958 0.36637 0.0
H994 H 0.47203 0.11951 0.62845 0.0
H995 H 0.38474 0.05042 0.56202 0.0
C996 C 0.18192 0.20743 0.31505 0.0
C997 C 0.20765 0.2005 0.2989 0.0
C998 C 0.1651 0.19114 0.3403 0.0
C999 C 0.17378 0.16685 0.34882 0.0
C1000 C 0.20056 0.1607 0.33338 0.0
C1001 C 0.21704 0.17747 0.30838 0.0
C1002 C 0.13715 0.19888 0.35668 0.0
C1003 C 0.21089 0.13536 0.34217 0.0
C1004 C 0.1372 0.12954 0.42513 0.0
C1005 C 0.11171 0.09971 0.4074 0.0
C1006 C 0.15775 0.15193 0.40658 0.0
C1007 C 0.15213 0.14447 0.36965 0.0
C1008 C 0.12604 0.11466 0.35185 0.0
C1009 C 0.10633 0.09265 0.37088 0.0
C1010 C 0.18511 0.18359 0.42661 0.0
C1011 C 0.11907 0.10576 0.31253 0.0
H1012 H 0.17481 0.22542 0.30775 0.0
H1013 H 0.23666 0.17181 0.29546 0.0
H1014 H 0.1136 0.17716 0.34704 0.0
H1015 H 0.13968 0.20348 0.38561 0.0
H1016 H 0.13599 0.221 0.35035 0.0
H1017 H 0.23433 0.13621 0.33095 0.0
H1018 H 0.21377 0.13965 0.37105 0.0
H1019 H 0.19158 0.10999 0.33167 0.0
H1020 H 0.14134 0.13521 0.45338 0.0
H1021 H 0.08651 0.06978 0.35697 0.0
H1022 H 0.17743 0.20453 0.42989 0.0
H1023 H 0.20772 0.18945 0.4122 0.0
H1024 H 0.19097 0.18206 0.45312 0.0
H1025 H 0.11482 0.12583 0.30487 0.0
H1026 H 0.09729 0.08198 0.30285 0.0
H1027 H 0.14058 0.10344 0.29908 0.0
C1028 C 0.85079 0.10703 0.31494 0.0
C1029 C 0.82208 0.10959 0.32802 0.0
C1030 C 0.8712 0.09976 0.33472 0.0
C1031 C 0.86273 0.09497 0.36847 0.0
C1032 C 0.83422 0.09833 0.38228 0.0
C1033 C 0.81412 0.10553 0.36179 0.0
C1034 C 0.90134 0.09621 0.31902 0.0
C1035 C 0.8247 0.09375 0.41835 0.0
C1036 C 0.89864 0.04105 0.39615 0.0
C1037 C 0.92723 0.06503 0.41611 0.0
C1038 C 0.87636 0.05043 0.3822 0.0
C1039 C 0.883 0.08465 0.38815 0.0
C1040 C 0.91099 0.10891 0.40976 0.0
C1041 C 0.93283 0.09879 0.42352 0.0
C1042 C 0.84664 0.02378 0.35952 0.0
C1043 C 0.9187 0.14561 0.41697 0.0
H1044 H 0.8568 0.1097 0.28869 0.0
H1045 H 0.79211 0.10788 0.37211 0.0
H1046 H 0.92346 0.11301 0.33689 0.0
H1047 H 0.89907 0.07034 0.31577 0.0
H1048 H 0.90514 0.10204 0.29304 0.0
H1049 H 0.80239 0.09835 0.42574 0.0
H1050 H 0.82008 0.06803 0.41931 0.0
H1051 H 0.84512 0.11092 0.43827 0.0
H1052 H 0.89406 0.0149 0.39076 0.0
H1053 H 0.95498 0.11738 0.43889 0.0
H1054 H 0.8492 0.02558 0.33192 0.0
H1055 H 0.82413 0.02741 0.36808 0.0
H1056 H 0.84338 -0.00169 0.36026 0.0
H1057 H 0.92588 0.15391 0.39258 0.0
H1058 H 0.93901 0.16088 0.43767 0.0
H1059 H 0.89671 0.15045 0.42521 0.0
C1060 C 0.82308 0.83892 0.3303 0.0
C1061 C 0.82364 0.80999 0.30778 0.0
C1062 C 0.84806 0.85867 0.35699 0.0
C1063 C 0.87413 0.84915 0.36086 0.0
C1064 C 0.87332 0.81856 0.33982 0.0
C1065 C 0.84854 0.79982 0.31278 0.0
C1066 C 0.84819 0.89128 0.37864 0.0
C1067 C 0.90031 0.80721 0.34356 0.0
C1068 C 0.95796 0.91983 0.38139 0.0
C1069 C 0.96336 0.92464 0.41752 0.0
C1070 C 0.9291 0.89516 0.36285 0.0
C1071 C 0.90522 0.8742 0.38071 0.0
C1072 C 0.91101 0.87795 0.41694 0.0
C1073 C 0.93998 0.90347 0.43507 0.0
C1074 C 0.92382 0.89227 0.32427 0.0
C1075 C 0.88634 0.85577 0.43673 0.0
H1076 H 0.80402 0.84699 0.32582 0.0
H1077 H 0.85019 0.77871 0.29394 0.0
H1078 H 0.85472 0.89502 0.40672 0.0
H1079 H 0.867 0.91212 0.36968 0.0
H1080 H 0.82403 0.8926 0.3762 0.0
H1081 H 0.89264 0.78023 0.33088 0.0
H1082 H 0.92211 0.82136 0.33093 0.0
H1083 H 0.90779 0.81204 0.37164 0.0
H1084 H 0.97582 0.9362 0.36766 0.0
H1085 H 0.94409 0.90715 0.46301 0.0
H1086 H 0.9013 0.89592 0.31952 0.0
H1087 H 0.92029 0.86702 0.30853 0.0
H1088 H 0.94474 0.91083 0.31452 0.0
H1089 H 0.86561 0.86352 0.44182 0.0
H1090 H 0.89725 0.85729 0.46236 0.0
H1091 H 0.87618 0.82943 0.42108 0.0
C1092 C 0.10392 0.79324 0.37547 0.0
C1093 C 0.12389 0.77895 0.38482 0.0
C1094 C 0.10199 0.82137 0.39816 0.0
C1095 C 0.12048 0.83534 0.43103 0.0
C1096 C 0.13815 0.81898 0.44199 0.0
C1097 C 0.13986 0.79089 0.41846 0.0
C1098 C 0.08255 0.83782 0.38548 0.0
C1099 C 0.15751 0.83244 0.47708 0.0
C1100 C 0.14467 0.92754 0.45121 0.0
C1101 C 0.11776 0.93008 0.46893 0.0
C1102 C 0.14818 0.89722 0.44217 0.0
C1103 C 0.1241 0.86904 0.45109 0.0
C1104 C 0.09924 0.87266 0.47268 0.0
C1105 C 0.09595 0.90306 0.48071 0.0
C1106 C 0.17557 0.89448 0.41984 0.0
C1107 C 0.07416 0.84348 0.484 0.0
H1108 H 0.09185 0.7839 0.34924 0.0
H1109 H 0.1556 0.77987 0.42538 0.0
H1110 H 0.06552 0.84226 0.40525 0.0
H1111 H 0.0995 0.86239 0.38176 0.0
H1112 H 0.06801 0.82258 0.36022 0.0
H1113 H 0.18328 0.84836 0.47381 0.0
H1114 H 0.14757 0.84766 0.49677 0.0
H1115 H 0.15778 0.8118 0.48735 0.0
H1116 H 0.16155 0.94855 0.44219 0.0
H1117 H 0.07477 0.90486 0.49362 0.0
H1118 H 0.16534 0.88032 0.39258 0.0
H1119 H 0.18746 0.88068 0.42989 0.0
H1120 H 0.19452 0.91931 0.41912 0.0
H1121 H 0.05603 0.82685 0.46164 0.0
H1122 H 0.06077 0.8516 0.50603 0.0
H1123 H 0.08606 0.82874 0.49217 0.0
C1124 C 0.16796 0.89388 0.68027 0.0
C1125 C 0.17726 0.86726 0.66798 0.0
C1126 C 0.14604 0.89888 0.66 0.0
C1127 C 0.13371 0.87713 0.6263 0.0
C1128 C 0.14345 0.85045 0.61352 0.0
C1129 C 0.16483 0.84555 0.63478 0.0
C1130 C 0.13589 0.92733 0.67479 0.0
C1131 C 0.13145 0.82727 0.57741 0.0
C1132 C 0.05582 0.87669 0.58963 0.0
C1133 C 0.06871 0.90124 0.57115 0.0
C1134 C 0.07665 0.86768 0.60686 0.0
C1135 C 0.111 0.88289 0.60453 0.0
C1136 C 0.12386 0.90612 0.58397 0.0
C1137 C 0.10262 0.91563 0.56828 0.0
C1138 C 0.06204 0.8433 0.6291 0.0
C1139 C 0.16016 0.92191 0.57959 0.0
H1140 H 0.17738 0.91042 0.70611 0.0
H1141 H 0.17221 0.82503 0.6253 0.0
H1142 H 0.14374 0.9451 0.65801 0.0
H1143 H 0.10877 0.91778 0.67482 0.0
H1144 H 0.14666 0.9411 0.70199 0.0
H1145 H 0.14335 0.80942 0.5703 0.0
H1146 H 0.10454 0.81294 0.57617 0.0
H1147 H 0.13628 0.84182 0.55748 0.0
H1148 H 0.02959 0.86577 0.59204 0.0
H1149 H 0.11262 0.93459 0.55397 0.0
H1150 H 0.07001 0.85631 0.65713 0.0
H1151 H 0.07099 0.82313 0.62207 0.0
H1152 H 0.0348 0.83195 0.62616 0.0
H1153 H 0.17309 0.9395 0.60473 0.0
H1154 H 0.16557 0.93577 0.55893 0.0
H1155 H 0.17032 0.90264 0.57268 0.0
C1156 C 0.1715 0.15011 0.67704 0.0
C1157 C 0.17768 0.18398 0.68882 0.0
C1158 C 0.14461 0.12809 0.65343 0.0
C1159 C 0.12354 0.1403 0.64111 0.0
C1160 C 0.12959 0.17443 0.65282 0.0
C1161 C 0.15659 0.1959 0.67664 0.0
C1162 C 0.13885 0.09174 0.64154 0.0
C1163 C 0.10764 0.18826 0.6401 0.0
C1164 C 0.07275 0.08378 0.55715 0.0
C1165 C 0.04376 0.06494 0.57038 0.0
C1166 C 0.09845 0.10977 0.57977 0.0
C1167 C 0.09492 0.11694 0.61635 0.0
C1168 C 0.06492 0.09943 0.62956 0.0
C1169 C 0.03966 0.07362 0.60637 0.0
C1170 C 0.13005 0.12812 0.56474 0.0
C1171 C 0.06022 0.1065 0.66841 0.0
H1172 H 0.18795 0.14078 0.68585 0.0
H1173 H 0.16126 0.22208 0.68553 0.0
H1174 H 0.11425 0.07608 0.64832 0.0
H1175 H 0.13932 0.08427 0.61259 0.0
H1176 H 0.15752 0.08628 0.6537 0.0
H1177 H 0.11593 0.2155 0.65154 0.0
H1178 H 0.107 0.18335 0.61108 0.0
H1179 H 0.08217 0.17557 0.64702 0.0
H1180 H 0.07604 0.0772 0.52935 0.0
H1181 H 0.0172 0.05929 0.61673 0.0
H1182 H 0.14945 0.12092 0.57221 0.0
H1183 H 0.13851 0.15541 0.57564 0.0
H1184 H 0.12744 0.12244 0.53564 0.0
H1185 H 0.07613 0.09869 0.68193 0.0
H1186 H 0.0344 0.09308 0.67402 0.0
H1187 H 0.0676 0.13358 0.67982 0.0
C1188 C 0.82501 0.12195 0.60589 0.0
C1189 C 0.84853 0.12627 0.63165 0.0
C1190 C 0.82152 0.10049 0.57228 0.0
C1191 C 0.84115 0.08195 0.56477 0.0
C1192 C 0.86501 0.08641 0.59068 0.0
C1193 C 0.86884 0.10898 0.62327 0.0
C1194 C 0.79644 0.09768 0.54555 0.0
C1195 C 0.88651 0.0671 0.58439 0.0
C1196 C 0.82571 -0.00154 0.50794 0.0
C1197 C 0.85572 0.00718 0.49222 0.0
C1198 C 0.81656 0.02332 0.52808 0.0
C1199 C 0.83715 0.05707 0.5307 0.0
C1200 C 0.86178 0.06486 0.50692 0.0
C1201 C 0.87149 0.03983 0.48844 0.0
C1202 C 0.78839 0.01374 0.55108 0.0
C1203 C 0.8817 0.10037 0.50582 0.0
H1204 H 0.8089 0.13491 0.61197 0.0
H1205 H 0.88788 0.11295 0.64236 0.0
H1206 H 0.80063 0.08685 0.51828 0.0
H1207 H 0.77163 0.08179 0.55166 0.0
H1208 H 0.79659 0.12258 0.54716 0.0
H1209 H 0.9014 0.07119 0.60848 0.0
H1210 H 0.87133 0.04 0.57485 0.0
H1211 H 0.90359 0.07484 0.56406 0.0
H1212 H 0.81202 0.97284 0.5089 0.0
H1213 H 0.894 0.04703 0.47533 0.0
H1214 H 0.77386 0.02871 0.55128 0.0
H1215 H 0.79817 0.01892 0.57844 0.0
H1216 H 0.77192 0.98688 0.54219 0.0
H1217 H 0.89027 0.10145 0.47926 0.0
H1218 H 0.90363 0.11123 0.52461 0.0
H1219 H 0.86722 0.11577 0.51302 0.0
C1220 C 0.81518 0.82737 0.7 0.0
C1221 C 0.82566 0.80598 0.71132 0.0
C1222 C 0.82918 0.84073 0.67198 0.0
C1223 C 0.85496 0.83318 0.65572 0.0
C1224 C 0.86503 0.81076 0.66655 0.0
C1225 C 0.85048 0.79772 0.69465 0.0
C1226 C 0.81754 0.86429 0.66103 0.0
C1227 C 0.8923 0.80194 0.64984 0.0
C1228 C 0.88391 0.86127 0.57269 0.0
C1229 C 0.90954 0.89238 0.58669 0.0
C1230 C 0.86598 0.8413 0.59473 0.0
C1231 C 0.8744 0.85258 0.63136 0.0
C1232 C 0.9008 0.88357 0.64539 0.0
C1233 C 0.91787 0.90313 0.62293 0.0
C1234 C 0.838 0.80832 0.57896 0.0
C1235 C 0.91074 0.89637 0.68429 0.0
H1236 H 0.79686 0.83468 0.71398 0.0
H1237 H 0.85884 0.78148 0.70393 0.0
H1238 H 0.83676 0.89002 0.66916 0.0
H1239 H 0.81321 0.85766 0.63206 0.0
H1240 H 0.79457 0.86405 0.67304 0.0
H1241 H 0.8935 0.7803 0.6573 0.0
H1242 H 0.88907 0.79606 0.62083 0.0
H1243 H 0.9161 0.82361 0.65832 0.0
H1244 H 0.87752 0.85282 0.54464 0.0
H1245 H 0.93791 0.92697 0.63386 0.0
H1246 H 0.81543 0.80654 0.59267 0.0
H1247 H 0.84417 0.78779 0.58245 0.0
H1248 H 0.83271 0.80451 0.55051 0.0
H1249 H 0.89025 0.90007 0.69882 0.0
H1250 H 0.93271 0.92035 0.69073 0.0
H1251 H 0.9161 0.87782 0.6939 0.0
C1252 C 0.34932 0.21641 0.19874 0.0
C1253 C 0.31516 0.20578 0.19442 0.0
C1254 C 0.36552 0.19702 0.17984 0.0
C1255 C 0.34719 0.1656 0.15648 0.0
C1256 C 0.31276 0.15527 0.15113 0.0
C1257 C 0.29728 0.17552 0.1699 0.0
C1258 C 0.40237 0.21007 0.18514 0.0
C1259 C 0.29202 0.12224 0.12646 0.0
C1260 C 0.39383 0.12347 0.09201 0.0
C1261 C 0.39794 0.10179 0.10981 0.0
C1262 C 0.37706 0.14392 0.10644 0.0
C1263 C 0.3638 0.14287 0.13959 0.0
C1264 C 0.36739 0.12065 0.15736 0.0
C1265 C 0.38431 0.1006 0.14241 0.0
C1266 C 0.374 0.16709 0.08639 0.0
C1267 C 0.3537 0.11836 0.1926 0.0
H1268 H 0.3635 0.24002 0.21704 0.0
H1269 H 0.27089 0.16697 0.16641 0.0
H1270 H 0.40942 0.19185 0.19336 0.0
H1271 H 0.41343 0.21334 0.15999 0.0
H1272 H 0.41302 0.23433 0.20514 0.0
H1273 H 0.26627 0.11918 0.1226 0.0
H1274 H 0.30251 0.11967 0.10053 0.0
H1275 H 0.29195 0.10173 0.13714 0.0
H1276 H 0.40435 0.12501 0.06701 0.0
H1277 H 0.38658 0.08364 0.15629 0.0
H1278 H 0.3882 0.1933 0.10111 0.0
H1279 H 0.34804 0.16363 0.08368 0.0
H1280 H 0.38315 0.16313 0.05981 0.0
H1281 H 0.36638 0.14251 0.21215 0.0
H1282 H 0.35674 0.09856 0.20219 0.0
H1283 H 0.32724 0.11333 0.19108 0.0
C1284 C 0.83033 0.30059 0.16284 0.0
C1285 C 0.81168 0.30722 0.19069 0.0
C1286 C 0.84701 0.32438 0.1443 0.0
C1287 C 0.84431 0.35541 0.15326 0.0
C1288 C 0.82407 0.36167 0.18007 0.0
C1289 C 0.80822 0.33762 0.19868 0.0
C1290 C 0.8688 0.31679 0.11638 0.0
C1291 C 0.81993 0.39416 0.18976 0.0
C1292 C 0.91596 0.42968 0.13653 0.0
C1293 C 0.90548 0.43177 0.10441 0.0
C1294 C 0.89622 0.40495 0.15263 0.0
C1295 C 0.86483 0.38225 0.13668 0.0
C1296 C 0.85375 0.38466 0.1046 0.0
C1297 C 0.87445 0.40919 0.08855 0.0
C1298 C 0.90931 0.40262 0.18629 0.0
C1299 C 0.82026 0.36107 0.0871 0.0
H1300 H 0.83237 0.27694 0.15575 0.0
H1301 H 0.79342 0.34287 0.21978 0.0
H1302 H 0.86633 0.32538 0.09304 0.0
H1303 H 0.89477 0.3302 0.12708 0.0
H1304 H 0.8632 0.28975 0.10782 0.0
H1305 H 0.80067 0.39374 0.20849 0.0
H1306 H 0.84343 0.41475 0.20197 0.0
H1307 H 0.81345 0.39982 0.1659 0.0
H1308 H 0.94012 0.44685 0.14866 0.0
H1309 H 0.86633 0.41079 0.06371 0.0
H1310 H 0.91013 0.37785 0.18251 0.0
H1311 H 0.89274 0.40504 0.20742 0.0
H1312 H 0.93432 0.42215 0.19519 0.0
H1313 H 0.81872 0.3352 0.07963 0.0
H1314 H 0.81467 0.36731 0.0632 0.0
H1315 H 0.80114 0.36164 0.10571 0.0
C1316 C 0.66721 0.87182 0.14351 0.0
C1317 C 0.67503 0.85294 0.11329 0.0
C1318 C 0.64613 0.88771 0.14132 0.0
C1319 C 0.63288 0.88528 0.10807 0.0
C1320 C 0.64054 0.86624 0.07752 0.0
C1321 C 0.66112 0.85008 0.08052 0.0
C1322 C 0.63821 0.90732 0.1746 0.0
C1323 C 0.62719 0.86312 0.0415 0.0
C1324 C 0.55619 0.9011 0.09816 0.0
C1325 C 0.56947 0.93363 0.09391 0.0
C1326 C 0.57652 0.88552 0.10404 0.0
C1327 C 0.61105 0.90261 0.10501 0.0
C1328 C 0.6246 0.93571 0.10134 0.0
C1329 C 0.60367 0.95091 0.09615 0.0
C1330 C 0.56099 0.85052 0.10857 0.0
C1331 C 0.6612 0.95469 0.10167 0.0
H1332 H 0.67803 0.87477 0.16897 0.0
H1333 H 0.66621 0.83504 0.05698 0.0
H1334 H 0.64737 0.93393 0.17439 0.0
H1335 H 0.61124 0.89815 0.1762 0.0
H1336 H 0.64925 0.90561 0.1985 0.0
H1337 H 0.63607 0.84806 0.02026 0.0
H1338 H 0.6 0.85133 0.03971 0.0
H1339 H 0.63448 0.88821 0.03694 0.0
H1340 H 0.52976 0.88776 0.09681 0.0
H1341 H 0.61405 0.97596 0.09258 0.0
H1342 H 0.57161 0.8493 0.13298 0.0
H1343 H 0.56631 0.83325 0.08636 0.0
H1344 H 0.53396 0.84161 0.10974 0.0
H1345 H 0.67356 0.95547 0.12601 0.0
H1346 H 0.66791 0.98064 0.09987 0.0
H1347 H 0.67084 0.94172 0.07922 0.0
C1348 C 0.22946 0.66554 0.13195 0.0
C1349 C 0.21967 0.6689 0.16634 0.0
C1350 C 0.20785 0.64172 0.10385 0.0
C1351 C 0.17593 0.62118 0.11062 0.0
C1352 C 0.16709 0.62281 0.14569 0.0
C1353 C 0.18909 0.64676 0.17311 0.0
C1354 C 0.21852 0.64032 0.06699 0.0
C1355 C 0.13342 0.60104 0.15419 0.0
C1356 C 0.09823 0.59642 0.05695 0.0
C1357 C 0.08787 0.56194 0.04713 0.0
C1358 C 0.12932 0.61669 0.07379 0.0
C1359 C 0.14978 0.6018 0.08187 0.0
C1360 C 0.14066 0.56713 0.06854 0.0
C1361 C 0.10955 0.54743 0.05106 0.0
C1362 C 0.13885 0.6537 0.08608 0.0
C1363 C 0.16202 0.5504 0.07601 0.0
H1364 H 0.25324 0.68269 0.12675 0.0
H1365 H 0.18184 0.64908 0.19985 0.0
H1366 H 0.20689 0.61475 0.04962 0.0
H1367 H 0.21116 0.65692 0.05597 0.0
H1368 H 0.2456 0.64905 0.06669 0.0
H1369 H 0.13167 0.60324 0.18282 0.0
H1370 H 0.11481 0.60832 0.14487 0.0
H1371 H 0.12711 0.57454 0.14056 0.0
H1372 H 0.08121 0.60731 0.05351 0.0
H1373 H 0.10111 0.52053 0.04338 0.0
H1374 H 0.16373 0.66703 0.07815 0.0
H1375 H 0.13952 0.66122 0.11516 0.0
H1376 H 0.1215 0.66159 0.0751 0.0
H1377 H 0.18837 0.56621 0.07516 0.0
H1378 H 0.15578 0.52579 0.057 0.0
H1379 H 0.15825 0.54634 0.10273 0.0
C1380 C 0.33451 0.83946 0.83557 0.0
C1381 C 0.30932 0.81026 0.83961 0.0
C1382 C 0.35686 0.86125 0.86386 0.0
C1383 C 0.35266 0.85437 0.89735 0.0
C1384 C 0.32575 0.82588 0.90195 0.0
C1385 C 0.30477 0.80356 0.87265 0.0
C1386 C 0.38604 0.89051 0.85725 0.0
C1387 C 0.32017 0.81813 0.93727 0.0
C1388 C 0.43569 0.8936 0.94458 0.0
C1389 C 0.43844 0.92634 0.95663 0.0
C1390 C 0.40577 0.86792 0.9296 0.0
C1391 C 0.37843 0.87572 0.92612 0.0
C1392 C 0.37998 0.90771 0.94349 0.0
C1393 C 0.4103 0.93297 0.95837 0.0
C1394 C 0.40491 0.8334 0.91552 0.0
C1395 C 0.35063 0.91624 0.94291 0.0
H1396 H 0.33798 0.8441 0.80971 0.0
H1397 H 0.28506 0.78074 0.87542 0.0
H1398 H 0.38582 0.9142 0.87347 0.0
H1399 H 0.40915 0.88921 0.86483 0.0
H1400 H 0.38634 0.89126 0.82928 0.0
H1401 H 0.29516 0.79893 0.93787 0.0
H1402 H 0.33829 0.80867 0.94326 0.0
H1403 H 0.32378 0.84096 0.95824 0.0
H1404 H 0.4575 0.8885 0.94436 0.0
H1405 H 0.41251 0.95839 0.96822 0.0
H1406 H 0.38272 0.81581 0.89822 0.0
H1407 H 0.40579 0.82305 0.93803 0.0
H1408 H 0.427 0.83457 0.90106 0.0
H1409 H 0.34874 0.92283 0.918 0.0
H1410 H 0.3529 0.9379 0.965 0.0
H1411 H 0.32764 0.89468 0.94438 0.0
C1412 C 0.18101 0.28129 0.82566 0.0
C1413 C 0.20927 0.29797 0.80971 0.0
C1414 C 0.16198 0.29796 0.84363 0.0
C1415 C 0.17109 0.33221 0.84558 0.0
C1416 C 0.19976 0.34921 0.82981 0.0
C1417 C 0.21837 0.33201 0.81222 0.0
C1418 C 0.13178 0.27873 0.86007 0.0
C1419 C 0.21064 0.38564 0.83112 0.0
C1420 C 0.10772 0.37076 0.85909 0.0
C1421 C 0.11435 0.38867 0.89461 0.0
C1422 C 0.12525 0.35164 0.84322 0.0
C1423 C 0.15036 0.35023 0.86307 0.0
C1424 C 0.15676 0.36762 0.89909 0.0
C1425 C 0.13879 0.38652 0.91434 0.0
C1426 C 0.11745 0.33363 0.80479 0.0
C1427 C 0.18315 0.36686 0.92142 0.0
H1428 H 0.17342 0.25502 0.82378 0.0
H1429 H 0.24006 0.34537 0.80009 0.0
H1430 H 0.13283 0.29149 0.88819 0.0
H1431 H 0.10966 0.2778 0.84701 0.0
H1432 H 0.12897 0.25282 0.858 0.0
H1433 H 0.23395 0.39555 0.81846 0.0
H1434 H 0.19142 0.38931 0.81769 0.0
H1435 H 0.21404 0.40048 0.85877 0.0
H1436 H 0.08939 0.37244 0.84321 0.0
H1437 H 0.14398 0.3997 0.94187 0.0
H1438 H 0.11235 0.30693 0.80106 0.0
H1439 H 0.13895 0.34427 0.78986 0.0
H1440 H 0.09599 0.33548 0.79345 0.0
H1441 H 0.17926 0.34075 0.91967 0.0
H1442 H 0.1838 0.37986 0.94943 0.0
H1443 H 0.20745 0.37896 0.91147 0.0
C1444 C 0.67757 0.18188 0.80885 0.0
C1445 C 0.7119 0.19689 0.81295 0.0
C1446 C 0.65969 0.15861 0.82754 0.0
C1447 C 0.67663 0.14979 0.85036 0.0
C1448 C 0.71122 0.16533 0.85518 0.0
C1449 C 0.72839 0.18911 0.83684 0.0
C1450 C 0.6227 0.14305 0.82241 0.0
C1451 C 0.73019 0.15613 0.87877 0.0
C1452 C 0.62748 0.10673 0.91742 0.0
C1453 C 0.61757 0.07318 0.89932 0.0
C1454 C 0.6473 0.13209 0.90207 0.0
C1455 C 0.65804 0.12351 0.8683 0.0
C1456 C 0.64957 0.08965 0.85078 0.0
C1457 C 0.62898 0.06482 0.86632 0.0
C1458 C 0.65555 0.16795 0.92129 0.0
C1459 C 0.66151 0.07968 0.81521 0.0
H1460 H 0.6646 0.18797 0.79071 0.0
H1461 H 0.75483 0.20134 0.84105 0.0
H1462 H 0.61404 0.11595 0.81011 0.0
H1463 H 0.61193 0.146 0.84817 0.0
H1464 H 0.61325 0.15424 0.80554 0.0
H1465 H 0.75663 0.17309 0.88259 0.0
H1466 H 0.71996 0.1566 0.90482 0.0
H1467 H 0.72799 0.13036 0.86698 0.0
H1468 H 0.61849 0.11316 0.9429 0.0
H1469 H 0.62153 0.03883 0.85249 0.0
H1470 H 0.64424 0.17908 0.90625 0.0
H1471 H 0.68245 0.18264 0.92341 0.0
H1472 H 0.64669 0.17045 0.94809 0.0
H1473 H 0.65071 0.08699 0.79543 0.0
H1474 H 0.6549 0.05244 0.80644 0.0
H1475 H 0.68856 0.09293 0.8159 0.0
C1476 C 0.91751 0.67096 0.85322 0.0
C1477 C 0.8853 0.6613 0.84007 0.0
C1478 C 0.92679 0.64904 0.86541 0.0
C1479 C 0.90338 0.61639 0.86387 0.0
C1480 C 0.87045 0.60686 0.85165 0.0
C1481 C 0.86174 0.62957 0.84001 0.0
C1482 C 0.96202 0.66048 0.87871 0.0
C1483 C 0.84485 0.57224 0.84934 0.0
C1484 C 0.9429 0.5551 0.85802 0.0
C1485 C 0.94487 0.55426 0.89319 0.0
C1486 C 0.92764 0.57364 0.84775 0.0
C1487 C 0.9142 0.59203 0.87327 0.0
C1488 C 0.91448 0.5898 0.90842 0.0
C1489 C 0.92966 0.57085 0.91791 0.0
C1490 C 0.92757 0.57505 0.80989 0.0
C1491 C 0.90038 0.6089 0.93644 0.0
H1492 H 0.93568 0.69553 0.85313 0.0
H1493 H 0.83692 0.62206 0.82941 0.0
H1494 H 0.96309 0.6562 0.90507 0.0
H1495 H 0.97371 0.64575 0.8609 0.0
H1496 H 0.97658 0.6873 0.88041 0.0
H1497 H 0.81984 0.56973 0.84247 0.0
H1498 H 0.8508 0.55395 0.82901 0.0
H1499 H 0.84482 0.5656 0.8746 0.0
H1500 H 0.9547 0.5426 0.83872 0.0
H1501 H 0.93038 0.56977 0.94501 0.0
H1502 H 0.94442 0.60026 0.80783 0.0
H1503 H 0.90271 0.57054 0.80004 0.0
H1504 H 0.93554 0.55649 0.79264 0.0
H1505 H 0.91589 0.63596 0.94145 0.0
H1506 H 0.89916 0.60161 0.96154 0.0
H1507 H 0.87539 0.60491 0.92759 0.0
C1508 C 0.13866 0.34367 0.14718 0.0
C1509 C 0.15325 0.3315 0.11799 0.0
C1510 C 0.1234 0.36521 0.14572 0.0
C1511 C 0.12243 0.37466 0.11424 0.0
C1512 C 0.13807 0.36341 0.08511 0.0
C1513 C 0.15337 0.34214 0.08739 0.0
C1514 C 0.10721 0.37681 0.17744 0.0
C1515 C 0.13766 0.37288 0.05105 0.0
C1516 C 0.05142 0.3948 0.09283 0.0
C1517 C 0.06609 0.42962 0.0991 0.0
C1518 C 0.06934 0.37681 0.09832 0.0
C1519 C 0.10282 0.39398 0.11065 0.0
C1520 C 0.11759 0.42922 0.11808 0.0
C1521 C 0.09906 0.44664 0.11219 0.0
C1522 C 0.05255 0.33928 0.09014 0.0
C1523 C 0.15316 0.44846 0.13146 0.0
H1524 H 0.13815 0.33545 0.17085 0.0
H1525 H 0.16515 0.33349 0.06494 0.0
H1526 H 0.11506 0.4042 0.18367 0.0
H1527 H 0.08021 0.36529 0.17173 0.0
H1528 H 0.11302 0.37013 0.20094 0.0
H1529 H 0.15264 0.36376 0.03159 0.0
H1530 H 0.11206 0.36225 0.03943 0.0
H1531 H 0.14704 0.40033 0.05589 0.0
H1532 H 0.0258 0.38149 0.0834 0.0
H1533 H 0.11065 0.47351 0.11688 0.0
H1534 H 0.05474 0.33064 0.11355 0.0
H1535 H 0.06472 0.32806 0.06893 0.0
H1536 H 0.02614 0.32978 0.08169 0.0
H1537 H 0.15796 0.44154 0.15518 0.0
H1538 H 0.16042 0.47583 0.13804 0.0
H1539 H 0.16899 0.44198 0.11128 0.0
C1540 C 0.181 0.65307 0.78678 0.0
C1541 C 0.21377 0.67444 0.79752 0.0
C1542 C 0.16264 0.62994 0.80547 0.0
C1543 C 0.17786 0.62709 0.83473 0.0
C1544 C 0.21167 0.64671 0.84397 0.0
C1545 C 0.22911 0.67054 0.82562 0.0
C1546 C 0.12671 0.60923 0.7945 0.0
C1547 C 0.22929 0.64288 0.87354 0.0
C1548 C 0.12366 0.59627 0.90582 0.0
C1549 C 0.11656 0.56215 0.89576 0.0
C1550 C 0.14377 0.61769 0.88623 0.0
C1551 C 0.15792 0.6048 0.85661 0.0
C1552 C 0.15175 0.5705 0.84722 0.0
C1553 C 0.13079 0.54952 0.86669 0.0
C1554 C 0.14886 0.65386 0.89639 0.0
C1555 C 0.16747 0.55586 0.81696 0.0
H1556 H 0.1695 0.65471 0.76402 0.0
H1557 H 0.25472 0.68631 0.83358 0.0
H1558 H 0.12083 0.58247 0.79156 0.0
H1559 H 0.11177 0.61675 0.81518 0.0
H1560 H 0.11933 0.61219 0.76935 0.0
H1561 H 0.25619 0.65773 0.87524 0.0
H1562 H 0.21967 0.65097 0.89886 0.0
H1563 H 0.22474 0.61631 0.86987 0.0
H1564 H 0.11236 0.60594 0.92813 0.0
H1565 H 0.12555 0.52314 0.85921 0.0
H1566 H 0.13935 0.65976 0.87442 0.0
H1567 H 0.17541 0.67013 0.9013 0.0
H1568 H 0.13628 0.66001 0.92021 0.0
H1569 H 0.16773 0.56611 0.7941 0.0
H1570 H 0.15477 0.52828 0.80838 0.0
H1571 H 0.19326 0.56231 0.8255 0.0
C1572 C 0.34421 0.13153 0.89672 0.0
C1573 C 0.32853 0.12665 0.86423 0.0
C1574 C 0.36592 0.11662 0.89966 0.0
C1575 C 0.37276 0.09663 0.86928 0.0
C1576 C 0.35766 0.09214 0.83626 0.0
C1577 C 0.33564 0.10701 0.83415 0.0
C1578 C 0.3814 0.12209 0.93542 0.0
C1579 C 0.36455 0.07136 0.80317 0.0
C1580 C 0.45152 0.08406 0.87757 0.0
C1581 C 0.43977 0.05259 0.88455 0.0
C1582 C 0.42994 0.09811 0.87121 0.0
C1583 C 0.39571 0.08053 0.87236 0.0
C1584 C 0.38366 0.04837 0.87853 0.0
C1585 C 0.4058 0.0347 0.88431 0.0
C1586 C 0.44385 0.13217 0.86413 0.0
C1587 C 0.34744 0.02891 0.88039 0.0
H1588 H 0.3396 0.14719 0.92008 0.0
H1589 H 0.3235 0.10266 0.80894 0.0
H1590 H 0.37521 0.09779 0.94157 0.0
H1591 H 0.4085 0.13419 0.93555 0.0
H1592 H 0.37317 0.13787 0.95655 0.0
H1593 H 0.35191 0.07136 0.77936 0.0
H1594 H 0.39132 0.08089 0.80006 0.0
H1595 H 0.35643 0.04528 0.805 0.0
H1596 H 0.47773 0.09785 0.87733 0.0
H1597 H 0.39659 0.01052 0.89 0.0
H1598 H 0.43908 0.1502 0.88594 0.0
H1599 H 0.43161 0.13155 0.83977 0.0
H1600 H 0.47071 0.14144 0.86142 0.0
H1601 H 0.33842 0.04248 0.90291 0.0
H1602 H 0.34185 0.00358 0.88357 0.0
H1603 H 0.33361 0.02651 0.85629 0.0
C1604 C 0.84608 0.34807 0.84246 0.0
C1605 C 0.81578 0.32256 0.844 0.0
C1606 C 0.86544 0.36874 0.87306 0.0
C1607 C 0.85437 0.36327 0.90605 0.0
C1608 C 0.82323 0.33811 0.90783 0.0
C1609 C 0.8041 0.31804 0.87658 0.0
C1610 C 0.89821 0.39584 0.86984 0.0
C1611 C 0.81071 0.33125 0.94231 0.0
C1612 C 0.93299 0.3973 0.95856 0.0
C1613 C 0.93769 0.43072 0.96883 0.0
C1614 C 0.90256 0.3728 0.94349 0.0
C1615 C 0.87719 0.38262 0.93762 0.0
C1616 C 0.88025 0.41539 0.95378 0.0
C1617 C 0.91083 0.43935 0.9695 0.0
C1618 C 0.89986 0.33781 0.92807 0.0
C1619 C 0.8533 0.42651 0.9492 0.0
H1620 H 0.85467 0.35184 0.81717 0.0
H1621 H 0.7805 0.29819 0.87755 0.0
H1622 H 0.90023 0.42029 0.8865 0.0
H1623 H 0.91837 0.39057 0.87898 0.0
H1624 H 0.90197 0.39797 0.8424 0.0
H1625 H 0.78352 0.31853 0.94045 0.0
H1626 H 0.8208 0.31467 0.94951 0.0
H1627 H 0.81859 0.35447 0.9638 0.0
H1628 H 0.95389 0.3908 0.95879 0.0
H1629 H 0.91466 0.46536 0.97795 0.0
H1630 H 0.9077 0.33577 0.90088 0.0
H1631 H 0.8743 0.31922 0.92713 0.0
H1632 H 0.91616 0.3318 0.94336 0.0
H1633 H 0.85486 0.43289 0.92357 0.0
H1634 H 0.85572 0.44897 0.97022 0.0
H1635 H 0.82876 0.40641 0.94921 0.0
C1636 C 0.70956 0.82596 0.7927 0.0
C1637 C 0.71733 0.80547 0.80925 0.0
C1638 C 0.69022 0.84315 0.80831 0.0
C1639 C 0.67813 0.84011 0.84158 0.0
C1640 C 0.6854 0.81901 0.85819 0.0
C1641 C 0.70463 0.80188 0.84177 0.0
C1642 C 0.68297 0.8649 0.78921 0.0
C1643 C 0.67323 0.8148 0.89357 0.0
C1644 C 0.65502 0.91036 0.89495 0.0
C1645 C 0.62073 0.89699 0.88812 0.0
C1646 C 0.67375 0.89196 0.88074 0.0
C1647 C 0.65815 0.85919 0.85885 0.0
C1648 C 0.62355 0.84529 0.85234 0.0
C1649 C 0.60539 0.86419 0.86698 0.0
C1650 C 0.71049 0.90794 0.88856 0.0
C1651 C 0.60567 0.81048 0.82939 0.0
H1652 H 0.71888 0.82894 0.76747 0.0
H1653 H 0.7096 0.78553 0.85442 0.0
H1654 H 0.65608 0.85698 0.78541 0.0
H1655 H 0.6933 0.89111 0.8052 0.0
H1656 H 0.69334 0.86398 0.76314 0.0
H1657 H 0.67864 0.79554 0.90172 0.0
H1658 H 0.68506 0.83881 0.91363 0.0
H1659 H 0.64637 0.80782 0.89318 0.0
H1660 H 0.66751 0.9357 0.9107 0.0
H1661 H 0.57898 0.85309 0.86183 0.0
H1662 H 0.72277 0.91072 0.8639 0.0
H1663 H 0.71861 0.89179 0.89951 0.0
H1664 H 0.71885 0.93286 0.90744 0.0
H1665 H 0.61414 0.80906 0.80248 0.0
H1666 H 0.57866 0.80271 0.82777 0.0
H1667 H 0.61135 0.79246 0.83969 0.0
C1668 C 0.78982 0.65884 0.18142 0.0
C1669 C 0.80091 0.69357 0.18794 0.0
C1670 C 0.8086 0.64182 0.16361 0.0
C1671 C 0.83962 0.65986 0.15233 0.0
C1672 C 0.85034 0.69481 0.15768 0.0
C1673 C 0.83087 0.71113 0.17518 0.0
C1674 C 0.79543 0.60446 0.15727 0.0
C1675 C 0.88296 0.71524 0.14598 0.0
C1676 C 0.90243 0.62068 0.14454 0.0
C1677 C 0.90054 0.60629 0.10826 0.0
C1678 C 0.88337 0.6386 0.15892 0.0
C1679 C 0.86142 0.64235 0.13677 0.0
C1680 C 0.8597 0.62841 0.10009 0.0
C1681 C 0.87916 0.61066 0.08635 0.0
C1682 C 0.88621 0.65295 0.1981 0.0
C1683 C 0.83697 0.63188 0.07529 0.0
H1684 H 0.7664 0.64487 0.19041 0.0
H1685 H 0.83975 0.73795 0.18001 0.0
H1686 H 0.79423 0.59269 0.12884 0.0
H1687 H 0.81226 0.59768 0.17075 0.0
H1688 H 0.77057 0.59386 0.16672 0.0
H1689 H 0.88628 0.7414 0.14872 0.0
H1690 H 0.90305 0.7154 0.16198 0.0
H1691 H 0.88537 0.70403 0.11819 0.0
H1692 H 0.91824 0.61721 0.16205 0.0
H1693 H 0.87764 0.60027 0.05828 0.0
H1694 H 0.86231 0.64113 0.20883 0.0
H1695 H 0.89229 0.68005 0.20417 0.0
H1696 H 0.90523 0.64907 0.2117 0.0
H1697 H 0.81116 0.61908 0.0812 0.0
H1698 H 0.8396 0.62115 0.04737 0.0
H1699 H 0.84182 0.65852 0.07895 0.0
C1700 C 0.32709 0.83496 0.19181 0.0
C1701 C 0.31455 0.80031 0.17916 0.0
C1702 C 0.34149 0.85575 0.1696 0.0
C1703 C 0.34442 0.8415 0.13409 0.0
C1704 C 0.33198 0.80645 0.12111 0.0
C1705 C 0.31703 0.78619 0.14386 0.0
C1706 C 0.35424 0.89303 0.18439 0.0
C1707 C 0.33528 0.79044 0.08358 0.0
C1708 C 0.36795 0.90215 0.07665 0.0
C1709 C 0.40215 0.91498 0.08136 0.0
C1710 C 0.34838 0.87675 0.09226 0.0
C1711 C 0.36368 0.86368 0.11204 0.0
C1712 C 0.39822 0.87498 0.11437 0.0
C1713 C 0.41705 0.90087 0.09944 0.0
C1714 C 0.31163 0.86563 0.08961 0.0
C1715 C 0.4154 0.86095 0.13424 0.0
H1716 H 0.32596 0.84593 0.21928 0.0
H1717 H 0.30741 0.75932 0.13406 0.0
H1718 H 0.38109 0.90466 0.1822 0.0
H1719 H 0.34262 0.90367 0.16904 0.0
H1720 H 0.34933 0.90003 0.21239 0.0
H1721 H 0.32165 0.76293 0.07676 0.0
H1722 H 0.32616 0.80063 0.06532 0.0
H1723 H 0.36154 0.79628 0.07932 0.0
H1724 H 0.35661 0.91318 0.06249 0.0
H1725 H 0.44361 0.91054 0.10241 0.0
H1726 H 0.30412 0.87776 0.11444 0.0
H1727 H 0.29888 0.8383 0.08589 0.0
H1728 H 0.30331 0.87261 0.06771 0.0
H1729 H 0.41257 0.86852 0.16275 0.0
H1730 H 0.442 0.86966 0.13011 0.0
H1731 H 0.40408 0.83336 0.1259 0.0
C1732 C 0.70295 0.14268 0.15099 0.0
C1733 C 0.72054 0.17598 0.15069 0.0
C1734 C 0.67947 0.12076 0.12363 0.0
C1735 C 0.67433 0.13242 0.09504 0.0
C1736 C 0.69502 0.16489 0.0927 0.0
C1737 C 0.71749 0.18663 0.12103 0.0
C1738 C 0.65764 0.08646 0.12746 0.0
C1739 C 0.69156 0.17761 0.06175 0.0
C1740 C 0.60737 0.06507 0.02878 0.0
C1741 C 0.57992 0.07027 0.04232 0.0
C1742 C 0.63909 0.08692 0.04365 0.0
C1743 C 0.64297 0.11384 0.07304 0.0
C1744 C 0.61542 0.12054 0.08479 0.0
C1745 C 0.58428 0.09874 0.0691 0.0
C1746 C 0.66798 0.07981 0.02936 0.0
C1747 C 0.61845 0.14938 0.11561 0.0
H1748 H 0.70542 0.13452 0.174 0.0
H1749 H 0.73169 0.21234 0.12062 0.0
H1750 H 0.63277 0.08547 0.13327 0.0
H1751 H 0.6551 0.06732 0.10269 0.0
H1752 H 0.66717 0.07996 0.14897 0.0
H1753 H 0.71465 0.19845 0.05882 0.0
H1754 H 0.68479 0.15748 0.03704 0.0
H1755 H 0.6719 0.187 0.06575 0.0
H1756 H 0.60399 0.04289 0.00818 0.0
H1757 H 0.56303 0.10304 0.07915 0.0
H1758 H 0.67346 0.06474 0.04457 0.0
H1759 H 0.69021 0.10318 0.03164 0.0
H1760 H 0.66263 0.06542 0.00141 0.0
H1761 H 0.63068 0.14799 0.13881 0.0
H1762 H 0.59429 0.14982 0.12276 0.0
H1763 H 0.63388 0.17325 0.10939 0.0
C1764 C 0.68329 0.69951 0.81179 0.0
C1765 C 0.71107 0.69607 0.79701 0.0
C1766 C 0.66728 0.68196 0.83646 0.0
C1767 C 0.6792 0.66028 0.84612 0.0
C1768 C 0.70764 0.65728 0.83168 0.0
C1769 C 0.72308 0.67501 0.80702 0.0
C1770 C 0.63733 0.68619 0.85175 0.0
C1771 C 0.72153 0.63505 0.84196 0.0
C1772 C 0.64804 0.62983 0.92746 0.0
C1773 C 0.62356 0.59827 0.91255 0.0
C1774 C 0.66697 0.65009 0.90622 0.0
C1775 C 0.66058 0.63884 0.86928 0.0
C1776 C 0.63606 0.60684 0.85413 0.0
C1777 C 0.61806 0.58683 0.87593 0.0
C1778 C 0.69292 0.68385 0.92366 0.0
C1779 C 0.62838 0.59395 0.81487 0.0
H1780 H 0.67417 0.71599 0.80413 0.0
H1781 H 0.7443 0.67201 0.79516 0.0
H1782 H 0.61573 0.66196 0.84467 0.0
H1783 H 0.64098 0.69426 0.88081 0.0
H1784 H 0.63182 0.70478 0.8423 0.0
H1785 H 0.74503 0.63721 0.83009 0.0
H1786 H 0.72574 0.64147 0.87094 0.0
H1787 H 0.70367 0.60871 0.83348 0.0
H1788 H 0.65234 0.63881 0.95577 0.0
H1789 H 0.59899 0.56252 0.86425 0.0
H1790 H 0.68221 0.70258 0.92679 0.0
H1791 H 0.71445 0.69098 0.90778 0.0
H1792 H 0.70142 0.6847 0.95019 0.0
H1793 H 0.6207 0.61088 0.8048 0.0
H1794 H 0.60857 0.56847 0.80728 0.0
H1795 H 0.65065 0.59352 0.80173 0.0
C1796 C 0.33075 0.61362 0.86339 0.0
C1797 C 0.33792 0.62234 0.83137 0.0
C1798 C 0.35402 0.60959 0.88279 0.0
C1799 C 0.38536 0.61493 0.87011 0.0
C1800 C 0.3932 0.62496 0.83859 0.0
C1801 C 0.36928 0.62806 0.81937 0.0
C1802 C 0.34442 0.59809 0.91592 0.0
C1803 C 0.42651 0.63126 0.82446 0.0
C1804 C 0.4547 0.62411 0.93075 0.0
C1805 C 0.45463 0.59208 0.9205 0.0
C1806 C 0.4322 0.63199 0.91476 0.0
C1807 C 0.409 0.60723 0.88801 0.0
C1808 C 0.4089 0.57505 0.87731 0.0
C1809 C 0.43206 0.56811 0.89311 0.0
C1810 C 0.43376 0.66697 0.92601 0.0
C1811 C 0.38438 0.54787 0.84897 0.0
H1812 H 0.30682 0.60962 0.87322 0.0
H1813 H 0.375 0.63409 0.79435 0.0
H1814 H 0.33723 0.57079 0.9098 0.0
H1815 H 0.36519 0.60999 0.93626 0.0
H1816 H 0.3233 0.60339 0.92693 0.0
H1817 H 0.42973 0.64197 0.80143 0.0
H1818 H 0.44617 0.64857 0.84515 0.0
H1819 H 0.42983 0.60755 0.81645 0.0
H1820 H 0.4721 0.64308 0.95145 0.0
H1821 H 0.43251 0.54375 0.88353 0.0
H1822 H 0.40882 0.66681 0.92811 0.0
H1823 H 0.44559 0.6804 0.90591 0.0
H1824 H 0.4482 0.68111 0.95155 0.0
H1825 H 0.35906 0.54425 0.85595 0.0
H1826 H 0.38664 0.5237 0.84484 0.0
H1827 H 0.38788 0.5552 0.82381 0.0
C1828 C 0.36385 0.30306 0.81869 0.0
C1829 C 0.34184 0.3148 0.80819 0.0
C1830 C 0.39137 0.32453 0.84179 0.0
C1831 C 0.39696 0.35847 0.85458 0.0
C1832 C 0.37497 0.37052 0.84392 0.0
C1833 C 0.34763 0.3485 0.82088 0.0
C1834 C 0.41433 0.31089 0.85267 0.0
C1835 C 0.38019 0.40664 0.85708 0.0
C1836 C 0.44911 0.41335 0.93827 0.0
C1837 C 0.47748 0.43315 0.92491 0.0
C1838 C 0.42318 0.3877 0.91569 0.0
C1839 C 0.42589 0.38172 0.87898 0.0
C1840 C 0.45534 0.40014 0.8655 0.0
C1841 C 0.48083 0.42566 0.88867 0.0
C1842 C 0.39217 0.36843 0.93102 0.0
C1843 C 0.45917 0.39429 0.82649 0.0
H1844 H 0.3595 0.27701 0.80901 0.0
H1845 H 0.33049 0.35765 0.81334 0.0
H1846 H 0.43949 0.32441 0.84546 0.0
H1847 H 0.41558 0.31488 0.8816 0.0
H1848 H 0.40652 0.28386 0.84024 0.0
H1849 H 0.36082 0.41199 0.84617 0.0
H1850 H 0.38048 0.41347 0.88614 0.0
H1851 H 0.40434 0.42288 0.84989 0.0
H1852 H 0.44645 0.41891 0.96629 0.0
H1853 H 0.50281 0.44072 0.87818 0.0
H1854 H 0.38402 0.34128 0.91929 0.0
H1855 H 0.37228 0.37549 0.92475 0.0
H1856 H 0.39541 0.3734 0.96 0.0
H1857 H 0.45209 0.3674 0.81412 0.0
H1858 H 0.48469 0.40833 0.82047 0.0
H1859 H 0.44257 0.4022 0.81423 0.0
C1860 C 0.65257 0.40478 0.88322 0.0
C1861 C 0.67585 0.39217 0.87052 0.0
C1862 C 0.65703 0.42584 0.91692 0.0
C1863 C 0.6857 0.43468 0.93858 0.0
C1864 C 0.70923 0.42173 0.92608 0.0
C1865 C 0.70391 0.40043 0.89217 0.0
C1866 C 0.63098 0.43877 0.92909 0.0
C1867 C 0.73969 0.42976 0.94838 0.0
C1868 C 0.6909 0.51357 -0.00225 0.0
C1869 C 0.66686 0.50007 0.02006 0.0
C1870 C 0.70306 0.49315 0.97406 0.0
C1871 C 0.69089 0.45898 0.97324 0.0
C1872 C 0.67369 0.44791 0.00156 0.0
C1873 C 0.66192 0.46888 0.02511 0.0
C1874 C 0.72349 0.50661 0.94572 0.0
C1875 C 0.66262 0.41232 0.00334 0.0
H1876 H 0.63058 0.39787 0.8668 0.0
H1877 H 0.72198 0.39063 0.88238 0.0
H1878 H 0.62098 0.43113 0.95316 0.0
H1879 H 0.64175 0.46639 0.93556 0.0
H1880 H 0.61026 0.42937 0.90893 0.0
H1881 H 0.75941 0.42636 0.93199 0.0
H1882 H 0.74928 0.4556 0.9653 0.0
H1883 H 0.73359 0.41261 0.96577 0.0
H1884 H 0.69622 0.53818 0.99448 0.0
H1885 H 0.6448 0.45892 0.04373 0.0
H1886 H 0.70707 0.50105 0.92233 0.0
H1887 H 0.74098 0.49476 0.93769 0.0
H1888 H 0.7374 0.53404 0.95453 0.0
H1889 H 0.63899 0.39703 0.98737 0.0
H1890 H 0.65874 0.41029 0.03079 0.0
H1891 H 0.68076 0.402 0.99274 0.0
C1892 C 0.58823 0.29598 0.13655 0.0
C1893 C 0.61864 0.31004 0.15601 0.0
C1894 C 0.57988 0.31344 0.11634 0.0
C1895 C 0.60278 0.34543 0.11481 0.0
C1896 C 0.63447 0.3586 0.13195 0.0
C1897 C 0.64189 0.34098 0.15271 0.0
C1898 C 0.54571 0.29859 0.09863 0.0
C1899 C 0.65981 0.39232 0.13029 0.0
C1900 C 0.58105 0.38519 0.05018 0.0
C1901 C 0.56708 0.40505 0.07206 0.0
C1902 C 0.59358 0.3661 0.06374 0.0
C1903 C 0.59191 0.36693 0.09989 0.0
C1904 C 0.57844 0.38747 0.1221 0.0
C1905 C 0.56627 0.40626 0.10793 0.0
C1906 C 0.60815 0.34474 0.03945 0.0
C1907 C 0.57574 0.38872 0.16071 0.0
H1908 H 0.57044 0.27169 0.138 0.0
H1909 H 0.6654 0.35234 0.1677 0.0
H1910 H 0.53173 0.313 0.11222 0.0
H1911 H 0.54664 0.30014 0.07097 0.0
H1912 H 0.5321 0.27213 0.09913 0.0
H1913 H 0.68468 0.39648 0.13988 0.0
H1914 H 0.6607 0.39505 0.10303 0.0
H1915 H 0.65304 0.41209 0.14679 0.0
H1916 H 0.5819 0.38439 0.02247 0.0
H1917 H 0.55488 0.42098 0.12485 0.0
H1918 H 0.59552 0.31843 0.04068 0.0
H1919 H 0.63434 0.35311 0.04798 0.0
H1920 H 0.60636 0.34576 0.01176 0.0
H1921 H 0.56011 0.36358 0.16398 0.0
H1922 H 0.56505 0.40639 0.17444 0.0
H1923 H 0.60029 0.3963 0.17371 0.0
C1924 C 0.68214 0.65706 0.174 0.0
C1925 C 0.68553 0.68907 0.19218 0.0
C1926 C 0.65647 0.63714 0.1482 0.0
C1927 C 0.63336 0.6494 0.14101 0.0
C1928 C 0.63762 0.68236 0.15811 0.0
C1929 C 0.66373 0.70185 0.18364 0.0
C1930 C 0.65308 0.60231 0.13003 0.0
C1931 C 0.6135 0.69632 0.15125 0.0
C1932 C 0.57336 0.59428 0.06251 0.0
C1933 C 0.54817 0.57333 0.07866 0.0
C1934 C 0.60064 0.62072 0.08264 0.0
C1935 C 0.60257 0.62601 0.11955 0.0
C1936 C 0.57612 0.60637 0.13602 0.0
C1937 C 0.5492 0.58035 0.11537 0.0
C1938 C 0.62808 0.64189 0.0644 0.0
C1939 C 0.5771 0.61147 0.1754 0.0
H1940 H 0.69929 0.64738 0.1804 0.0
H1941 H 0.66609 0.72647 0.19807 0.0
H1942 H 0.63125 0.5839 0.13875 0.0
H1943 H 0.64928 0.59763 0.10121 0.0
H1944 H 0.67495 0.59792 0.13579 0.0
H1945 H 0.6239 0.72393 0.1606 0.0
H1946 H 0.60582 0.68903 0.12288 0.0
H1947 H 0.5912 0.6861 0.16527 0.0
H1948 H 0.57232 0.58933 0.03416 0.0
H1949 H 0.52965 0.56451 0.12808 0.0
H1950 H 0.65002 0.63651 0.06666 0.0
H1951 H 0.63519 0.66871 0.07716 0.0
H1952 H 0.6212 0.63717 0.03615 0.0
H1953 H 0.59648 0.60481 0.18399 0.0
H1954 H 0.55337 0.59604 0.18424 0.0
H1955 H 0.58332 0.63802 0.18875 0.0
C1956 C 0.38388 0.69644 0.06608 0.0
C1957 C 0.38972 0.69867 0.10154 0.0
C1958 C 0.38032 0.66748 0.03998 0.0
C1959 C 0.38277 0.64043 0.04978 0.0
C1960 C 0.38805 0.64251 0.08569 0.0
C1961 C 0.39157 0.67157 0.11096 0.0
C1962 C 0.37415 0.66588 0.00211 0.0
C1963 C 0.3914 0.61457 0.09754 0.0
C1964 C 0.35944 0.55047 0.0054 0.0
C1965 C 0.39075 0.55074 0.00073 0.0
C1966 C 0.3554 0.58059 0.01598 0.0
C1967 C 0.38352 0.61111 0.02324 0.0
C1968 C 0.4145 0.61123 0.01397 0.0
C1969 C 0.41763 0.58089 0.00256 0.0
C1970 C 0.32183 0.57958 0.02429 0.0
C1971 C 0.4452 0.6431 0.02176 0.0
H1972 H 0.38205 0.71727 0.05881 0.0
H1973 H 0.39668 0.67341 0.13828 0.0
H1974 H 0.37582 0.69002 -0.00152 0.0
H1975 H 0.39205 0.65853 0.98599 0.0
H1976 H 0.34934 0.64655 0.99213 0.0
H1977 H 0.39454 0.61993 0.12656 0.0
H1978 H 0.36938 0.59107 0.08804 0.0
H1979 H 0.41294 0.61035 0.0863 0.0
H1980 H 0.33871 0.52707 0.00418 0.0
H1981 H 0.4419 0.58093 -0.0002 0.0
H1982 H 0.3185 0.60067 0.01797 0.0
H1983 H 0.31905 0.58177 0.05277 0.0
H1984 H 0.30219 0.55581 0.00958 0.0
H1985 H 0.44195 0.6618 0.01039 0.0
H1986 H 0.46709 0.63904 0.01139 0.0
H1987 H 0.45007 0.65375 0.05057 0.0
C1988 C 0.34921 0.30393 0.19729 0.0
C1989 C 0.32298 0.30989 0.21324 0.0
C1990 C 0.36378 0.31828 0.17 0.0
C1991 C 0.35216 0.33961 0.15912 0.0
C1992 C 0.32505 0.34494 0.17467 0.0
C1993 C 0.31116 0.33042 0.20204 0.0
C1994 C 0.39271 0.31207 0.15425 0.0
C1995 C 0.31189 0.36746 0.16383 0.0
C1996 C 0.41441 0.41211 0.12947 0.0
C1997 C 0.40787 0.40165 0.09291 0.0
C1998 C 0.39664 0.3919 0.15105 0.0
C1999 C 0.37143 0.36042 0.13581 0.0
C2000 C 0.36459 0.34952 0.09893 0.0
C2001 C 0.38308 0.37027 0.07778 0.0
C2002 C 0.40484 0.40439 0.19029 0.0
C2003 C 0.33779 0.31605 0.08195 0.0
H2004 H 0.35869 0.28852 0.20657 0.0
H2005 H 0.2918 0.33611 0.21559 0.0
H2006 H 0.39006 0.30621 0.1252 0.0
H2007 H 0.41547 0.33494 0.16326 0.0
H2008 H 0.39561 0.2913 0.16195 0.0
H2009 H 0.28791 0.365 0.17464 0.0
H2010 H 0.32962 0.39375 0.17342 0.0
H2011 H 0.30886 0.36181 0.13481 0.0
H2012 H 0.43367 0.43622 0.14139 0.0
H2013 H 0.378 0.36205 0.04953 0.0
H2014 H 0.4113 0.38658 0.2001 0.0
H2015 H 0.38316 0.40617 0.20377 0.0
H2016 H 0.42563 0.42924 0.19784 0.0
H2017 H 0.34362 0.29594 0.08732 0.0
H2018 H 0.33457 0.31184 0.05309 0.0
H2019 H 0.31417 0.31396 0.0934 0.0
C2020 C 0.82719 0.70544 0.66271 0.0
C2021 C 0.81639 0.70235 0.69599 0.0
C2022 C 0.84422 0.68673 0.6441 0.0
C2023 C 0.85089 0.6643 0.65909 0.0
C2024 C 0.83995 0.66111 0.69273 0.0
C2025 C 0.82297 0.68006 0.71063 0.0
C2026 C 0.85553 0.6914 0.60858 0.0
C2027 C 0.84631 0.6377 0.71 0.0
C2028 C 0.8704 0.59299 0.60182 0.0
C2029 C 0.90474 0.60521 0.60744 0.0
C2030 C 0.85279 0.61213 0.61767 0.0
C2031 C 0.8696 0.64448 0.64003 0.0
C2032 C 0.90425 0.65725 0.64528 0.0
C2033 C 0.92126 0.63764 0.62904 0.0
C2034 C 0.81596 0.59736 0.61105 0.0
C2035 C 0.92344 0.69142 0.66892 0.0
H2036 H 0.8233 0.7233 0.65165 0.0
H2037 H 0.81462 0.67729 0.73626 0.0
H2038 H 0.88267 0.70092 0.60928 0.0
H2039 H 0.84557 0.66711 0.58864 0.0
H2040 H 0.84776 0.70909 0.60012 0.0
H2041 H 0.83619 0.63795 0.73616 0.0
H2042 H 0.83521 0.61189 0.69307 0.0
H2043 H 0.87308 0.64468 0.71325 0.0
H2044 H 0.857 0.56796 0.58574 0.0
H2045 H 0.94772 0.64788 0.63336 0.0
H2046 H 0.80821 0.61444 0.60138 0.0
H2047 H 0.8043 0.59433 0.63598 0.0
H2048 H 0.80658 0.57272 0.5916 0.0
H2049 H 0.91588 0.71012 0.66261 0.0
H2050 H 0.95031 0.69955 0.66681 0.0
H2051 H 0.91823 0.69107 0.69655 0.0
C2052 C 0.34496 0.82835 0.69884 0.0
C2053 C 0.31104 0.81466 0.7009 0.0
C2054 C 0.35944 0.85099 0.67846 0.0
C2055 C 0.33935 0.86025 0.65992 0.0
C2056 C 0.30494 0.84659 0.66218 0.0
C2057 C 0.29116 0.82379 0.68267 0.0
C2058 C 0.39625 0.86498 0.67678 0.0
C2059 C 0.28277 0.85612 0.64313 0.0
C2060 C 0.38723 0.94233 0.63795 0.0
C2061 C 0.39531 0.93172 0.60374 0.0
C2062 C 0.36691 0.91931 0.65571 0.0
C2063 C 0.35488 0.88487 0.63901 0.0
C2064 C 0.36129 0.87414 0.6037 0.0
C2065 C 0.3813 0.89779 0.58633 0.0
C2066 C 0.3602 0.93175 0.69317 0.0
C2067 C 0.3489 0.8376 0.58506 0.0
H2068 H 0.36024 0.82187 0.71373 0.0
H2069 H 0.26481 0.81265 0.68401 0.0
H2070 H 0.4024 0.85696 0.6495 0.0
H2071 H 0.40659 0.8926 0.68425 0.0
H2072 H 0.40842 0.8567 0.69438 0.0
H2073 H 0.25642 0.84197 0.64625 0.0
H2074 H 0.28872 0.88311 0.65334 0.0
H2075 H 0.28685 0.85168 0.61475 0.0
H2076 H 0.39774 0.96861 0.65133 0.0
H2077 H 0.3875 0.88952 0.55987 0.0
H2078 H 0.37392 0.92537 0.71114 0.0
H2079 H 0.33375 0.91949 0.6971 0.0
H2080 H 0.36772 0.95917 0.70074 0.0
H2081 H 0.36215 0.82588 0.59671 0.0
H2082 H 0.35257 0.83354 0.55654 0.0
H2083 H 0.32243 0.82468 0.58849 0.0
C2084 C 0.17659 0.36499 0.59544 0.0
C2085 C 0.18965 0.36863 0.62896 0.0
C2086 C 0.15469 0.37925 0.5909 0.0
C2087 C 0.14467 0.39704 0.62059 0.0
C2088 C 0.1568 0.39996 0.65457 0.0
C2089 C 0.1793 0.38602 0.65834 0.0
C2090 C 0.14261 0.37565 0.55414 0.0
C2091 C 0.14631 0.41816 0.68698 0.0
C2092 C 0.1126 0.45973 0.60552 0.0
C2093 C 0.07863 0.44083 0.60097 0.0
C2094 C 0.13433 0.44601 0.61249 0.0
C2095 C 0.12178 0.41279 0.61578 0.0
C2096 C 0.08738 0.39405 0.61247 0.0
C2097 C 0.06628 0.40814 0.60469 0.0
C2098 C 0.17079 0.46671 0.61512 0.0
C2099 C 0.07284 0.3589 0.6166 0.0
H2100 H 0.18354 0.35094 0.57249 0.0
H2101 H 0.1893 0.38943 0.68437 0.0
H2102 H 0.11549 0.36261 0.55086 0.0
H2103 H 0.14913 0.40063 0.54957 0.0
H2104 H 0.15314 0.36156 0.53376 0.0
H2105 H 0.1563 0.41648 0.71153 0.0
H2106 H 0.15479 0.44483 0.68727 0.0
H2107 H 0.11915 0.40781 0.68668 0.0
H2108 H 0.12225 0.48492 0.60241 0.0
H2109 H 0.04 0.39356 0.60153 0.0
H2110 H 0.18227 0.45473 0.59377 0.0
H2111 H 0.18215 0.46806 0.64036 0.0
H2112 H 0.1766 0.49245 0.61318 0.0
H2113 H 0.07996 0.34248 0.59512 0.0
H2114 H 0.04564 0.34866 0.6161 0.0
H2115 H 0.08263 0.35809 0.6417 0.0
C2116 C 0.7233 0.17554 0.6448 0.0
C2117 C 0.70894 0.19221 0.67058 0.0
C2118 C 0.70396 0.14932 0.61686 0.0
C2119 C 0.66966 0.13983 0.61483 0.0
C2120 C 0.6554 0.15798 0.63952 0.0
C2121 C 0.67521 0.1838 0.66714 0.0
C2122 C 0.72012 0.13075 0.59096 0.0
C2123 C 0.61884 0.14894 0.63807 0.0
C2124 C 0.60385 0.08495 0.54377 0.0
C2125 C 0.58768 0.05862 0.55914 0.0
C2126 C 0.63404 0.11019 0.55896 0.0
C2127 C 0.64752 0.10873 0.59018 0.0
C2128 C 0.63327 0.07977 0.60274 0.0
C2129 C 0.60311 0.05512 0.58721 0.0
C2130 C 0.64916 0.14021 0.54422 0.0
C2131 C 0.64744 0.0768 0.63536 0.0
H2132 H 0.74946 0.18207 0.64708 0.0
H2133 H 0.66391 0.19668 0.68669 0.0
H2134 H 0.71901 0.10884 0.5996 0.0
H2135 H 0.70747 0.12159 0.56432 0.0
H2136 H 0.74636 0.14666 0.58946 0.0
H2137 H 0.61216 0.16713 0.65776 0.0
H2138 H 0.60987 0.1477 0.61165 0.0
H2139 H 0.60576 0.124 0.64308 0.0
H2140 H 0.59155 0.08751 0.52213 0.0
H2141 H 0.59049 0.03424 0.59854 0.0
H2142 H 0.67634 0.15042 0.54719 0.0
H2143 H 0.64139 0.15997 0.55883 0.0
H2144 H 0.64115 0.13406 0.51603 0.0
H2145 H 0.6745 0.0858 0.63542 0.0
H2146 H 0.63711 0.0507 0.63772 0.0
H2147 H 0.64167 0.09248 0.65885 0.0
C2148 C 0.81683 0.34367 0.33282 0.0
C2149 C 0.811 0.31052 0.3312 0.0
C2150 C 0.83879 0.36997 0.35882 0.0
C2151 C 0.85593 0.36294 0.38313 0.0
C2152 C 0.84798 0.32947 0.38352 0.0
C2153 C 0.82501 0.30361 0.35792 0.0
C2154 C 0.84604 0.40529 0.35796 0.0
C2155 C 0.86628 0.32086 0.4084 0.0
C2156 C 0.9452 0.42174 0.40078 0.0
C2157 C 0.94653 0.43996 0.43548 0.0
C2158 C 0.91593 0.39668 0.38373 0.0
C2159 C 0.88689 0.38951 0.40176 0.0
C2160 C 0.88778 0.40799 0.43672 0.0
C2161 C 0.91773 0.43313 0.45324 0.0
C2162 C 0.91661 0.37913 0.34589 0.0
C2163 C 0.85705 0.40194 0.45619 0.0
H2164 H 0.80561 0.34931 0.31268 0.0
H2165 H 0.81939 0.27799 0.35775 0.0
H2166 H 0.84996 0.4217 0.38493 0.0
H2167 H 0.86885 0.41501 0.3445 0.0
H2168 H 0.82589 0.40672 0.34353 0.0
H2169 H 0.85398 0.29431 0.40901 0.0
H2170 H 0.89138 0.32556 0.39981 0.0
H2171 H 0.8688 0.33679 0.43539 0.0
H2172 H 0.96718 0.42703 0.38652 0.0
H2173 H 0.91848 0.44772 0.47974 0.0
H2174 H 0.91542 0.39487 0.32885 0.0
H2175 H 0.89594 0.3545 0.33712 0.0
H2176 H 0.93991 0.37575 0.34158 0.0
H2177 H 0.84034 0.40944 0.44352 0.0
H2178 H 0.86238 0.41621 0.48419 0.0
H2179 H 0.84377 0.37507 0.4549 0.0
C2180 C 0.69874 0.80019 0.34486 0.0
C2181 C 0.71638 0.80974 0.3164 0.0
C2182 C 0.68083 0.81775 0.36377 0.0
C2183 C 0.68 0.8455 0.35387 0.0
C2184 C 0.69832 0.85573 0.32567 0.0
C2185 C 0.71625 0.83796 0.30752 0.0
C2186 C 0.66207 0.806 0.39382 0.0
C2187 C 0.69822 0.88497 0.31388 0.0
C2188 C 0.60704 0.86993 0.37424 0.0
C2189 C 0.62012 0.89879 0.40217 0.0
C2190 C 0.62597 0.85218 0.35884 0.0
C2191 C 0.65893 0.86299 0.37175 0.0
C2192 C 0.67204 0.89139 0.40063 0.0
C2193 C 0.65268 0.90895 0.41527 0.0
C2194 C 0.61082 0.82217 0.3281 0.0
C2195 C 0.70688 0.90378 0.41557 0.0
H2196 H 0.69794 0.7783 0.35171 0.0
H2197 H 0.72973 0.84595 0.28575 0.0
H2198 H 0.66879 0.82695 0.41777 0.0
H2199 H 0.63538 0.79714 0.38736 0.0
H2200 H 0.66679 0.78545 0.39976 0.0
H2201 H 0.71454 0.89055 0.29231 0.0
H2202 H 0.67293 0.87971 0.30464 0.0
H2203 H 0.70621 0.9075 0.33622 0.0
H2204 H 0.58185 0.86114 0.36413 0.0
H2205 H 0.66354 0.93131 0.43641 0.0
H2206 H 0.61249 0.80007 0.33379 0.0
H2207 H 0.62458 0.82667 0.30461 0.0
H2208 H 0.58466 0.81632 0.32169 0.0
H2209 H 0.71123 0.8832 0.4219 0.0
H2210 H 0.71272 0.92455 0.43967 0.0
H2211 H 0.72414 0.91258 0.39575 0.0
C2212 C 0.19866 0.66618 0.30088 0.0
C2213 C 0.23096 0.68995 0.30896 0.0
C2214 C 0.18272 0.64688 0.32404 0.0
C2215 C 0.19979 0.65108 0.3557 0.0
C2216 C 0.2326 0.6747 0.36377 0.0
C2217 C 0.24768 0.69419 0.34044 0.0
C2218 C 0.14766 0.62188 0.31448 0.0
C2219 C 0.25179 0.67923 0.39686 0.0
C2220 C 0.14411 0.61925 0.42484 0.0
C2221 C 0.14103 0.58625 0.41691 0.0
C2222 C 0.1646 0.64142 0.40623 0.0
C2223 C 0.183 0.63037 0.38001 0.0
C2224 C 0.18208 0.59792 0.37419 0.0
C2225 C 0.16061 0.576 0.39235 0.0
C2226 C 0.16444 0.67563 0.4126 0.0
C2227 C 0.20213 0.58563 0.3472 0.0
H2228 H 0.18584 0.6625 0.2763 0.0
H2229 H 0.2724 0.71306 0.34708 0.0
H2230 H 0.14638 0.5963 0.31069 0.0
H2231 H 0.13204 0.62597 0.33611 0.0
H2232 H 0.13725 0.62335 0.29005 0.0
H2233 H 0.27704 0.69891 0.39934 0.0
H2234 H 0.23896 0.68582 0.42022 0.0
H2235 H 0.25345 0.65547 0.39705 0.0
H2236 H 0.12872 0.62701 0.44368 0.0
H2237 H 0.15832 0.55047 0.38649 0.0
H2238 H 0.15167 0.67686 0.38963 0.0
H2239 H 0.18984 0.69498 0.41548 0.0
H2240 H 0.15178 0.68168 0.43638 0.0
H2241 H 0.19154 0.58137 0.32047 0.0
H2242 H 0.20257 0.56194 0.34979 0.0
H2243 H 0.22772 0.60454 0.34959 0.0
C2244 C 0.38898 0.16623 0.37633 0.0
C2245 C 0.36868 0.15158 0.3452 0.0
C2246 C 0.40224 0.14794 0.39021 0.0
C2247 C 0.39454 0.11415 0.37272 0.0
C2248 C 0.37177 0.09858 0.34294 0.0
C2249 C 0.35942 0.11763 0.32926 0.0
C2250 C 0.42666 0.16559 0.42179 0.0
C2251 C 0.36232 0.06246 0.32397 0.0
C2252 C 0.46099 0.08228 0.37582 0.0
C2253 C 0.45102 0.06486 0.40183 0.0
C2254 C 0.44274 0.09833 0.36616 0.0
C2255 C 0.41353 0.09656 0.3826 0.0
C2256 C 0.40296 0.07843 0.40841 0.0
C2257 C 0.42199 0.06297 0.41791 0.0
C2258 C 0.45508 0.11769 0.33876 0.0
C2259 C 0.37169 0.07549 0.42604 0.0
H2260 H 0.39645 0.19262 0.3883 0.0
H2261 H 0.34382 0.10644 0.30504 0.0
H2262 H 0.42109 0.15048 0.44124 0.0
H2263 H 0.45159 0.16898 0.41344 0.0
H2264 H 0.42698 0.19046 0.4348 0.0
H2265 H 0.34066 0.05284 0.30498 0.0
H2266 H 0.38316 0.05972 0.30937 0.0
H2267 H 0.3568 0.04682 0.34292 0.0
H2268 H 0.48363 0.08412 0.36367 0.0
H2269 H 0.4141 0.04925 0.43784 0.0
H2270 H 0.45911 0.14411 0.34998 0.0
H2271 H 0.43645 0.10753 0.31627 0.0
H2272 H 0.47839 0.11686 0.32877 0.0
H2273 H 0.37342 0.10055 0.44042 0.0
H2274 H 0.36637 0.05965 0.44481 0.0
H2275 H 0.35072 0.06474 0.40599 0.0
C2276 C 0.65387 0.84313 0.59354 0.0
C2277 C 0.65238 0.82971 0.62236 0.0
C2278 C 0.63742 0.86362 0.5923 0.0
C2279 C 0.61894 0.87096 0.62057 0.0
C2280 C 0.61831 0.85854 0.65034 0.0
C2281 C 0.63504 0.83807 0.65089 0.0
C2282 C 0.63896 0.87655 0.56016 0.0
C2283 C 0.59894 0.86579 0.68104 0.0
C2284 C 0.59223 0.94162 0.62329 0.0
C2285 C 0.56066 0.92413 0.60629 0.0
C2286 C 0.61129 0.92467 0.62899 0.0
C2287 C 0.59835 0.88943 0.61761 0.0
C2288 C 0.56605 0.87167 0.60156 0.0
C2289 C 0.54768 0.88922 0.59604 0.0
C2290 C 0.64561 0.9445 0.64615 0.0
C2291 C 0.55117 0.83411 0.58932 0.0
H2292 H 0.66773 0.83732 0.57169 0.0
H2293 H 0.63355 0.82765 0.67316 0.0
H2294 H 0.61418 0.86558 0.54637 0.0
H2295 H 0.64684 0.90397 0.5679 0.0
H2296 H 0.65609 0.87041 0.54148 0.0
H2297 H 0.60344 0.85699 0.7035 0.0
H2298 H 0.60522 0.89292 0.69006 0.0
H2299 H 0.57236 0.85331 0.67274 0.0
H2300 H 0.60245 0.96861 0.63106 0.0
H2301 H 0.5231 0.87557 0.58339 0.0
H2302 H 0.66363 0.94138 0.62703 0.0
H2303 H 0.64907 0.93513 0.66854 0.0
H2304 H 0.65117 0.97149 0.65577 0.0
H2305 H 0.56539 0.82579 0.56832 0.0
H2306 H 0.52518 0.824 0.57899 0.0
H2307 H 0.55237 0.82322 0.61127 0.0
C2308 C 0.7329 0.17344 0.32671 0.0
C2309 C 0.71642 0.17511 0.29798 0.0
C2310 C 0.71637 0.15179 0.3477 0.0
C2311 C 0.68232 0.13215 0.34049 0.0
C2312 C 0.66585 0.13286 0.3108 0.0
C2313 C 0.68331 0.15372 0.28947 0.0
C2314 C 0.73524 0.15026 0.37782 0.0
C2315 C 0.62954 0.11229 0.3021 0.0
C2316 C 0.63728 0.05745 0.37742 0.0
C2317 C 0.62323 0.07101 0.40601 0.0
C2318 C 0.65763 0.0773 0.35671 0.0
C2319 C 0.66358 0.11148 0.36436 0.0
C2320 C 0.65002 0.1255 0.39381 0.0
C2321 C 0.63032 0.10513 0.41465 0.0
C2322 C 0.67239 0.06148 0.32647 0.0
C2323 C 0.65502 0.16161 0.40226 0.0
H2324 H 0.75876 0.18921 0.33303 0.0
H2325 H 0.67088 0.15352 0.2663 0.0
H2326 H 0.72647 0.1599 0.40306 0.0
H2327 H 0.73096 0.12405 0.37615 0.0
H2328 H 0.76205 0.165 0.37812 0.0
H2329 H 0.62102 0.11346 0.27652 0.0
H2330 H 0.6234 0.08584 0.30122 0.0
H2331 H 0.61572 0.12149 0.32296 0.0
H2332 H 0.632 0.03108 0.37099 0.0
H2333 H 0.61916 0.11552 0.43661 0.0
H2334 H 0.69934 0.07225 0.33198 0.0
H2335 H 0.66716 0.06682 0.30188 0.0
H2336 H 0.66308 0.03405 0.32226 0.0
H2337 H 0.68158 0.17795 0.40543 0.0
H2338 H 0.64357 0.16891 0.42657 0.0
H2339 H 0.64422 0.16617 0.38015 0.0
C2340 C 0.89777 0.6417 0.3014 0.0
C2341 C 0.87243 0.64701 0.3204 0.0
C2342 C 0.91927 0.63145 0.31565 0.0
C2343 C 0.91517 0.626 0.34967 0.0
C2344 C 0.89067 0.63301 0.36971 0.0
C2345 C 0.86967 0.6436 0.35487 0.0
C2346 C 0.94531 0.62481 0.29353 0.0
C2347 C 0.88539 0.62745 0.40602 0.0
C2348 C 0.9425 0.56102 0.36692 0.0
C2349 C 0.97245 0.58086 0.38675 0.0
C2350 C 0.9235 0.57543 0.35515 0.0
C2351 C 0.93481 0.61059 0.36306 0.0
C2352 C 0.96511 0.63076 0.38295 0.0
C2353 C 0.98347 0.61567 0.39467 0.0
C2354 C 0.89123 0.55296 0.33424 0.0
C2355 C 0.97828 0.66828 0.39155 0.0
H2356 H 0.9 0.64442 0.27477 0.0
H2357 H 0.84988 0.64732 0.36947 0.0
H2358 H 0.96953 0.63752 0.30867 0.0
H2359 H 0.93938 0.5977 0.28623 0.0
H2360 H 0.94733 0.63327 0.26908 0.0
H2361 H 0.86743 0.63689 0.41936 0.0
H2362 H 0.87618 0.60041 0.40423 0.0
H2363 H 0.90889 0.6399 0.42248 0.0
H2364 H 0.93362 0.53414 0.36109 0.0
H2365 H 1.00676 0.63118 0.40969 0.0
H2366 H 0.8918 0.55757 0.30783 0.0
H2367 H 0.87104 0.55859 0.3474 0.0
H2368 H 0.88552 0.52615 0.33103 0.0
H2369 H 0.98178 0.67661 0.36696 0.0
H2370 H 1.00204 0.68045 0.40764 0.0
H2371 H 0.96035 0.67699 0.40604 0.0
C2372 C 0.35549 0.82599 0.34022 0.0
C2373 C 0.32151 0.81563 0.33549 0.0
C2374 C 0.37344 0.85071 0.36964 0.0
C2375 C 0.357 0.86552 0.39513 0.0
C2376 C 0.32249 0.85407 0.39157 0.0
C2377 C 0.30508 0.82926 0.36159 0.0
C2378 C 0.41032 0.86202 0.37246 0.0
C2379 C 0.30398 0.86886 0.41833 0.0
C2380 C 0.41982 0.91628 0.46991 0.0
C2381 C 0.43557 0.94481 0.45776 0.0
C2382 C 0.39027 0.89128 0.45271 0.0
C2383 C 0.37709 0.89529 0.42281 0.0
C2384 C 0.39052 0.92633 0.41416 0.0
C2385 C 0.42002 0.95071 0.4316 0.0
C2386 C 0.37573 0.859 0.46354 0.0
C2387 C 0.37659 0.93205 0.38321 0.0
H2388 H 0.36841 0.81538 0.32047 0.0
H2389 H 0.27872 0.82115 0.35834 0.0
H2390 H 0.42238 0.88834 0.37109 0.0
H2391 H 0.41857 0.86065 0.39803 0.0
H2392 H 0.41896 0.84673 0.35121 0.0
H2393 H 0.27828 0.85075 0.41833 0.0
H2394 H 0.31599 0.87705 0.44518 0.0
H2395 H 0.30317 0.89093 0.41163 0.0
H2396 H 0.43209 0.91204 0.49035 0.0
H2397 H 0.43232 0.97324 0.42281 0.0
H2398 H 0.38434 0.8408 0.44673 0.0
H2399 H 0.34855 0.84817 0.46008 0.0
H2400 H 0.38334 0.86256 0.49131 0.0
H2401 H 0.38373 0.91918 0.35856 0.0
H2402 H 0.38591 0.95897 0.38412 0.0
H2403 H 0.34942 0.92164 0.38226 0.0
C2404 C 0.21043 0.33092 0.29576 0.0
C2405 C 0.21702 0.30898 0.31103 0.0
C2406 C 0.19226 0.34899 0.31256 0.0
C2407 C 0.18013 0.34526 0.34565 0.0
C2408 C 0.18615 0.32267 0.36092 0.0
C2409 C 0.20429 0.30479 0.34339 0.0
C2410 C 0.18629 0.37238 0.29491 0.0
C2411 C 0.17383 0.31765 0.39603 0.0
C2412 C 0.16062 0.41661 0.40235 0.0
C2413 C 0.12643 0.40476 0.39585 0.0
C2414 C 0.17816 0.3973 0.38696 0.0
C2415 C 0.16139 0.36519 0.36416 0.0
C2416 C 0.12686 0.35278 0.35798 0.0
C2417 C 0.1099 0.37255 0.37383 0.0
C2418 C 0.21488 0.41164 0.39449 0.0
C2419 C 0.10781 0.31869 0.33412 0.0
H2420 H 0.21981 0.33435 0.27066 0.0
H2421 H 0.20829 0.28729 0.35499 0.0
H2422 H 0.15957 0.3656 0.29137 0.0
H2423 H 0.19746 0.39821 0.31178 0.0
H2424 H 0.19664 0.37196 0.26886 0.0
H2425 H 0.17763 0.2969 0.40271 0.0
H2426 H 0.18694 0.34082 0.41681 0.0
H2427 H 0.14731 0.31242 0.39629 0.0
H2428 H 0.174 0.4415 0.41876 0.0
H2429 H 0.08352 0.36263 0.36892 0.0
H2430 H 0.22717 0.41474 0.36989 0.0
H2431 H 0.222 0.39426 0.40437 0.0
H2432 H 0.22418 0.43618 0.41411 0.0
H2433 H 0.11615 0.31775 0.30719 0.0
H2434 H 0.08097 0.31205 0.33287 0.0
H2435 H 0.1125 0.29955 0.3433 0.0
C2436 C 0.33997 0.21809 0.67589 0.0
C2437 C 0.31089 0.20121 0.69055 0.0
C2438 C 0.35978 0.20164 0.65953 0.0
C2439 C 0.35053 0.16739 0.65776 0.0
C2440 C 0.32102 0.15021 0.67217 0.0
C2441 C 0.30173 0.16721 0.6883 0.0
C2442 C 0.39094 0.22112 0.64465 0.0
C2443 C 0.30986 0.11374 0.67083 0.0
C2444 C 0.38505 0.11366 0.59119 0.0
C2445 C 0.40828 0.11086 0.61211 0.0
C2446 C 0.36677 0.13252 0.60539 0.0
C2447 C 0.37175 0.14946 0.64153 0.0
C2448 C 0.39579 0.14759 0.66259 0.0
C2449 C 0.41354 0.12835 0.64777 0.0
C2450 C 0.34146 0.13362 0.58183 0.0
C2451 C 0.40215 0.16522 0.70116 0.0
H2452 H 0.34755 0.24433 0.67754 0.0
H2453 H 0.27941 0.15371 0.69944 0.0
H2454 H 0.41238 0.22207 0.65907 0.0
H2455 H 0.3912 0.20853 0.61674 0.0
H2456 H 0.39389 0.24701 0.64641 0.0
H2457 H 0.2859 0.10367 0.6823 0.0
H2458 H 0.30759 0.09905 0.64325 0.0
H2459 H 0.32838 0.11004 0.6854 0.0
H2460 H 0.38096 0.10093 0.56353 0.0
H2461 H 0.4309 0.12623 0.66459 0.0
H2462 H 0.34583 0.15982 0.58334 0.0
H2463 H 0.31666 0.12171 0.59083 0.0
H2464 H 0.34162 0.12064 0.55399 0.0
H2465 H 0.40723 0.19193 0.70497 0.0
H2466 H 0.42316 0.16337 0.71347 0.0
H2467 H 0.38001 0.15426 0.71511 0.0
C2468 C 0.7949 0.31939 0.66548 0.0
C2469 C 0.81199 0.31774 0.69366 0.0
C2470 C 0.81101 0.34026 0.64378 0.0
C2471 C 0.84525 0.35904 0.64976 0.0
C2472 C 0.86293 0.35627 0.67712 0.0
C2473 C 0.84602 0.33583 0.69896 0.0
C2474 C 0.79118 0.34308 0.61537 0.0
C2475 C 0.89964 0.3754 0.68376 0.0
C2476 C 0.89543 0.39493 0.57909 0.0
C2477 C 0.90262 0.42885 0.59252 0.0
C2478 C 0.8759 0.37159 0.59696 0.0
C2479 C 0.86267 0.38253 0.62832 0.0
C2480 C 0.86813 0.4165 0.64066 0.0
C2481 C 0.88854 0.4394 0.62286 0.0
C2482 C 0.87088 0.33559 0.58336 0.0
C2483 C 0.85335 0.42879 0.6733 0.0
H2484 H 0.76878 0.30462 0.66055 0.0
H2485 H 0.85946 0.33442 0.72049 0.0
H2486 H 0.78941 0.36757 0.62327 0.0
H2487 H 0.80326 0.34186 0.59032 0.0
H2488 H 0.76593 0.32321 0.6107 0.0
H2489 H 0.90997 0.36866 0.70449 0.0
H2490 H 0.91186 0.37061 0.65928 0.0
H2491 H 0.9057 0.40252 0.69197 0.0
H2492 H 0.90653 0.38689 0.55568 0.0
H2493 H 0.89392 0.46567 0.63297 0.0
H2494 H 0.84437 0.3191 0.58073 0.0
H2495 H 0.8829 0.32861 0.6024 0.0
H2496 H 0.88117 0.33082 0.55752 0.0
H2497 H 0.82651 0.41381 0.67132 0.0
H2498 H 0.85782 0.45545 0.67774 0.0
H2499 H 0.86391 0.42566 0.69657 0.0
C2500 C 0.22024 0.69482 0.62644 0.0
C2501 C 0.22163 0.684 0.65643 0.0
C2502 C 0.19847 0.67331 0.59747 0.0
C2503 C 0.17668 0.64115 0.5997 0.0
C2504 C 0.17982 0.62948 0.62906 0.0
C2505 C 0.20278 0.651 0.65688 0.0
C2506 C 0.19732 0.68596 0.56577 0.0
C2507 C 0.15661 0.5956 0.63293 0.0
C2508 C 0.0876 0.60591 0.5707 0.0
C2509 C 0.08405 0.57589 0.54704 0.0
C2510 C 0.11849 0.62927 0.58564 0.0
C2511 C 0.14643 0.62251 0.57608 0.0
C2512 C 0.14332 0.59417 0.54891 0.0
C2513 C 0.11189 0.57064 0.53516 0.0
C2514 C 0.12072 0.65946 0.61421 0.0
C2515 C 0.17276 0.58724 0.53644 0.0
H2516 H 0.23542 0.72033 0.62607 0.0
H2517 H 0.20399 0.64285 0.68026 0.0
H2518 H 0.18857 0.66536 0.54149 0.0
H2519 H 0.18034 0.69874 0.5696 0.0
H2520 H 0.2219 0.70436 0.56219 0.0
H2521 H 0.16373 0.58968 0.65634 0.0
H2522 H 0.13143 0.59476 0.63547 0.0
H2523 H 0.15581 0.57589 0.60937 0.0
H2524 H 0.06594 0.61004 0.57945 0.0
H2525 H 0.10907 0.54727 0.51694 0.0
H2526 H 0.13751 0.68253 0.60733 0.0
H2527 H 0.13097 0.65896 0.6392 0.0
H2528 H 0.0965 0.66077 0.61866 0.0
H2529 H 0.19461 0.61071 0.53763 0.0
H2530 H 0.16782 0.5713 0.50911 0.0
H2531 H 0.1786 0.57383 0.55352 0.0
loop_
_geom_bond_atom_site_label_1
_geom_bond_atom_site_label_2
_geom_bond_distance
_geom_bond_site_symmetry_2
_ccdc_geom_bond_type
Eu0 N29 2.600 . S
Eu0 N35 2.562 . S
Eu0 O44 2.462 . S
Eu0 O45 2.373 . S
Eu0 O47 2.432 . S
Eu0 O48 2.291 . S
Eu0 O52 2.335 . S
Eu0 O55 2.372 . S
Eu0 C64 2.787 . S
C1 N2 1.365 . S
C1 C4 1.405 . S
C1 C8 1.448 . S
N2 C1 1.365 . S
N2 C5 1.319 . S
N2 Eu11 2.600 . S
C3 C5 1.397 . S
C3 C6 1.367 . S
C3 H23 0.931 . S
C4 C1 1.405 . S
C4 C6 1.403 . S
C4 C10 1.439 . S
C5 N2 1.319 . S
C5 C3 1.397 . S
C5 H16 0.930 . S
C6 C3 1.367 . S
C6 C4 1.403 . S
C6 H27 0.929 . S
C7 C8 1.430 . S
C7 C9 1.387 . S
C7 C13 1.404 . S
C8 C1 1.448 . S
C8 C7 1.430 . S
C8 N12 1.351 . S
C9 C7 1.387 . S
C9 C10 1.374 . S
C9 H24 0.931 . S
C10 C4 1.439 . S
C10 C9 1.374 . S
C10 H25 0.931 . S
Eu11 N2 2.600 . S
Eu11 N12 2.562 . S
Eu11 O46 2.335 . S
Eu11 O49 2.372 . S
Eu11 O50 2.462 . S
Eu11 O51 2.373 . S
Eu11 O53 2.432 . S
Eu11 O54 2.291 . S
Eu11 C75 2.787 . S
N12 C8 1.351 . S
N12 Eu11 2.562 . S
N12 C14 1.325 . S
C13 C7 1.404 . S
C13 C15 1.366 . S
C13 H21 0.930 . S
C14 N12 1.325 . S
C14 C15 1.416 . S
C14 H20 0.929 . S
C15 C13 1.366 . S
C15 C14 1.416 . S
C15 H17 0.930 . S
H16 C5 0.930 . S
H17 C15 0.930 . S
H18 C33 0.930 . S
H19 C40 0.930 . S
H20 C14 0.929 . S
H21 C13 0.930 . S
H22 C36 0.929 . S
H23 C3 0.931 . S
H24 C9 0.931 . S
H25 C10 0.931 . S
H26 C31 0.931 . S
H27 C6 0.929 . S
H28 C39 0.930 . S
N29 Eu0 2.600 . S
N29 C30 1.365 . S
N29 C33 1.319 . S
C30 N29 1.365 . S
C30 C32 1.405 . S
C30 C38 1.448 . S
C31 H26 0.931 . S
C31 C33 1.397 . S
C31 C34 1.367 . S
C32 C30 1.405 . S
C32 C34 1.403 . S
C32 C65 1.439 . S
C33 H18 0.930 . S
C33 N29 1.319 . S
C33 C31 1.397 . S
C34 C31 1.367 . S
C34 C32 1.403 . S
C34 H41 0.929 . S
N35 Eu0 2.562 . S
N35 C36 1.325 . S
N35 C38 1.351 . S
C36 H22 0.929 . S
C36 N35 1.325 . S
C36 C40 1.416 . S
C37 C38 1.430 . S
C37 C39 1.404 . S
C37 C66 1.387 . S
C38 C30 1.448 . S
C38 N35 1.351 . S
C38 C37 1.430 . S
C39 H28 0.930 . S
C39 C37 1.404 . S
C39 C40 1.366 . S
C40 H19 0.930 . S
C40 C36 1.416 . S
C40 C39 1.366 . S
H41 C34 0.929 . S
H42 C65 0.931 . S
H43 C66 0.931 . S
O44 Eu0 2.462 . S
O44 C64 1.252 . S
O45 Eu0 2.373 . S
O45 C56 1.249 . S
O46 Eu11 2.335 . S
O46 C56 1.264 . S
O47 Eu0 2.432 . S
O47 C64 1.268 . S
O48 Eu0 2.291 . S
O48 C63 1.255 . S
O49 Eu11 2.372 . S
O49 C63 1.257 . S
O50 Eu11 2.462 . S
O50 C75 1.252 . S
O51 Eu11 2.373 . S
O51 C67 1.249 . S
O52 Eu0 2.335 . S
O52 C67 1.264 . S
O53 Eu11 2.432 . S
O53 C75 1.268 . S
O54 Eu11 2.291 . S
O54 C74 1.255 . S
O55 Eu0 2.372 . S
O55 C74 1.257 . S
C56 O45 1.249 . S
C56 O46 1.264 . S
C57 C60 1.382 . S
C57 C62 1.390 . S
C57 C64 1.506 . S
C58 C59 1.398 . S
C58 C62 1.392 . S
C59 C58 1.398 . S
C59 C61 1.372 . S
C59 H76 0.931 . S
C60 C57 1.382 . S
C60 C61 1.390 . S
C60 H77 0.931 . S
C61 C59 1.372 . S
C61 C60 1.390 . S
C61 H78 0.929 . S
C62 C57 1.390 . S
C62 C58 1.392 . S
C62 H79 0.930 . S
C63 O48 1.255 . S
C63 O49 1.257 . S
C64 Eu0 2.787 . S
C64 O44 1.252 . S
C64 O47 1.268 . S
C64 C57 1.506 . S
C65 C32 1.439 . S
C65 H42 0.931 . S
C65 C66 1.374 . S
C66 C37 1.387 . S
C66 H43 0.931 . S
C66 C65 1.374 . S
C67 O51 1.249 . S
C67 O52 1.264 . S
C68 C71 1.382 . S
C68 C72 1.390 . S
C68 C75 1.506 . S
C69 C70 1.398 . S
C69 C72 1.392 . S
C70 C69 1.398 . S
C70 C73 1.372 . S
C70 H80 0.931 . S
C71 C68 1.382 . S
C71 C73 1.390 . S
C71 H81 0.931 . S
C72 C68 1.390 . S
C72 C69 1.392 . S
C72 H82 0.930 . S
C73 C70 1.372 . S
C73 C71 1.390 . S
C73 H83 0.929 . S
C74 O54 1.255 . S
C74 O55 1.257 . S
C75 Eu11 2.787 . S
C75 O50 1.252 . S
C75 O53 1.268 . S
C75 C68 1.506 . S
H76 C59 0.931 . S
H77 C60 0.931 . S
H78 C61 0.929 . S
H79 C62 0.930 . S
H80 C70 0.931 . S
H81 C71 0.931 . S
H82 C72 0.930 . S
H83 C73 0.929 . S
Eu84 N113 2.600 . S
Eu84 N119 2.562 . S
Eu84 O128 2.462 . S
Eu84 O129 2.373 . S
Eu84 O131 2.432 . S
Eu84 O132 2.291 . S
Eu84 O136 2.335 . S
Eu84 O139 2.372 . S
Eu84 C148 2.787 . S
C85 N86 1.365 . S
C85 C88 1.405 . S
C85 C92 1.448 . S
N86 C85 1.365 . S
N86 C89 1.319 . S
N86 Eu95 2.600 . S
C87 C89 1.397 . S
C87 C90 1.367 . S
C87 H107 0.931 . S
C88 C85 1.405 . S
C88 C90 1.403 . S
C88 C94 1.439 . S
C89 N86 1.319 . S
C89 C87 1.397 . S
C89 H100 0.930 . S
C90 C87 1.367 . S
C90 C88 1.403 . S
C90 H111 0.929 . S
C91 C92 1.430 . S
C91 C93 1.387 . S
C91 C97 1.404 . S
C92 C85 1.448 . S
C92 C91 1.430 . S
C92 N96 1.351 . S
C93 C91 1.387 . S
C93 C94 1.374 . S
C93 H108 0.931 . S
C94 C88 1.439 . S
C94 C93 1.374 . S
C94 H109 0.931 . S
Eu95 N86 2.600 . S
Eu95 N96 2.562 . S
Eu95 O130 2.335 . S
Eu95 O133 2.372 . S
Eu95 O134 2.462 . S
Eu95 O135 2.373 . S
Eu95 O137 2.432 . S
Eu95 O138 2.291 . S
Eu95 C159 2.787 . S
N96 C92 1.351 . S
N96 Eu95 2.562 . S
N96 C98 1.325 . S
C97 C91 1.404 . S
C97 C99 1.366 . S
C97 H105 0.930 . S
C98 N96 1.325 . S
C98 C99 1.416 . S
C98 H104 0.929 . S
C99 C97 1.366 . S
C99 C98 1.416 . S
C99 H101 0.930 . S
H100 C89 0.930 . S
H101 C99 0.930 . S
H102 C117 0.930 . S
H103 C124 0.930 . S
H104 C98 0.929 . S
H105 C97 0.930 . S
H106 C120 0.929 . S
H107 C87 0.931 . S
H108 C93 0.931 . S
H109 C94 0.931 . S
H110 C115 0.931 . S
H111 C90 0.929 . S
H112 C123 0.930 . S
N113 Eu84 2.600 . S
N113 C114 1.365 . S
N113 C117 1.319 . S
C114 N113 1.365 . S
C114 C116 1.405 . S
C114 C122 1.448 . S
C115 H110 0.931 . S
C115 C117 1.397 . S
C115 C118 1.367 . S
C116 C114 1.405 . S
C116 C118 1.403 . S
C116 C149 1.439 . S
C117 H102 0.930 . S
C117 N113 1.319 . S
C117 C115 1.397 . S
C118 C115 1.367 . S
C118 C116 1.403 . S
C118 H125 0.929 . S
N119 Eu84 2.562 . S
N119 C120 1.325 . S
N119 C122 1.351 . S
C120 H106 0.929 . S
C120 N119 1.325 . S
C120 C124 1.416 . S
C121 C122 1.430 . S
C121 C123 1.404 . S
C121 C150 1.387 . S
C122 C114 1.448 . S
C122 N119 1.351 . S
C122 C121 1.430 . S
C123 H112 0.930 . S
C123 C121 1.404 . S
C123 C124 1.366 . S
C124 H103 0.930 . S
C124 C120 1.416 . S
C124 C123 1.366 . S
H125 C118 0.929 . S
H126 C149 0.931 . S
H127 C150 0.931 . S
O128 Eu84 2.462 . S
O128 C148 1.252 . S
O129 Eu84 2.373 . S
O129 C140 1.249 . S
O130 Eu95 2.335 . S
O130 C140 1.264 . S
O131 Eu84 2.432 . S
O131 C148 1.268 . S
O132 Eu84 2.291 . S
O132 C147 1.255 . S
O133 Eu95 2.372 . S
O133 C147 1.257 . S
O134 Eu95 2.462 . S
O134 C159 1.252 . S
O135 Eu95 2.373 . S
O135 C151 1.249 . S
O136 Eu84 2.335 . S
O136 C151 1.264 . S
O137 Eu95 2.432 . S
O137 C159 1.268 . S
O138 Eu95 2.291 . S
O138 C158 1.255 . S
O139 Eu84 2.372 . S
O139 C158 1.257 . S
C140 O129 1.249 . S
C140 O130 1.264 . S
C141 C144 1.382 . S
C141 C146 1.390 . S
C141 C148 1.506 . S
C142 C143 1.398 . S
C142 C146 1.392 . S
C143 C142 1.398 . S
C143 C145 1.372 . S
C143 H160 0.931 . S
C144 C141 1.382 . S
C144 C145 1.390 . S
C144 H161 0.931 . S
C145 C143 1.372 . S
C145 C144 1.390 . S
C145 H162 0.929 . S
C146 C141 1.390 . S
C146 C142 1.392 . S
C146 H163 0.930 . S
C147 O132 1.255 . S
C147 O133 1.257 . S
C148 Eu84 2.787 . S
C148 O128 1.252 . S
C148 O131 1.268 . S
C148 C141 1.506 . S
C149 C116 1.439 . S
C149 H126 0.931 . S
C149 C150 1.374 . S
C150 C121 1.387 . S
C150 H127 0.931 . S
C150 C149 1.374 . S
C151 O135 1.249 . S
C151 O136 1.264 . S
C152 C155 1.382 . S
C152 C156 1.390 . S
C152 C159 1.506 . S
C153 C154 1.398 . S
C153 C156 1.392 . S
C154 C153 1.398 . S
C154 C157 1.372 . S
C154 H164 0.931 . S
C155 C152 1.382 . S
C155 C157 1.390 . S
C155 H165 0.931 . S
C156 C152 1.390 . S
C156 C153 1.392 . S
C156 H166 0.930 . S
C157 C154 1.372 . S
C157 C155 1.390 . S
C157 H167 0.929 . S
C158 O138 1.255 . S
C158 O139 1.257 . S
C159 Eu95 2.787 . S
C159 O134 1.252 . S
C159 O137 1.268 . S
C159 C152 1.506 . S
H160 C143 0.931 . S
H161 C144 0.931 . S
H162 C145 0.929 . S
H163 C146 0.930 . S
H164 C154 0.931 . S
H165 C155 0.931 . S
H166 C156 0.930 . S
H167 C157 0.929 . S
Eu168 N197 2.600 . S
Eu168 N203 2.562 . S
Eu168 O212 2.462 . S
Eu168 O213 2.373 . S
Eu168 O215 2.432 . S
Eu168 O216 2.291 . S
Eu168 O220 2.335 . S
Eu168 O223 2.372 . S
Eu168 C232 2.787 . S
C169 N170 1.365 . S
C169 C172 1.405 . S
C169 C176 1.448 . S
N170 C169 1.365 . S
N170 C173 1.319 . S
N170 Eu179 2.600 . S
C171 C173 1.397 . S
C171 C174 1.367 . S
C171 H191 0.931 . S
C172 C169 1.405 . S
C172 C174 1.403 . S
C172 C178 1.439 . S
C173 N170 1.319 . S
C173 C171 1.397 . S
C173 H184 0.930 . S
C174 C171 1.367 . S
C174 C172 1.403 . S
C174 H195 0.929 . S
C175 C176 1.430 . S
C175 C177 1.387 . S
C175 C181 1.404 . S
C176 C169 1.448 . S
C176 C175 1.430 . S
C176 N180 1.351 . S
C177 C175 1.387 . S
C177 C178 1.374 . S
C177 H192 0.931 . S
C178 C172 1.439 . S
C178 C177 1.374 . S
C178 H193 0.931 . S
Eu179 N170 2.600 . S
Eu179 N180 2.562 . S
Eu179 O214 2.335 . S
Eu179 O217 2.372 . S
Eu179 O218 2.462 . S
Eu179 O219 2.373 . S
Eu179 O221 2.432 . S
Eu179 O222 2.291 . S
Eu179 C243 2.787 . S
N180 C176 1.351 . S
N180 Eu179 2.562 . S
N180 C182 1.325 . S
C181 C175 1.404 . S
C181 C183 1.366 . S
C181 H189 0.930 . S
C182 N180 1.325 . S
C182 C183 1.416 . S
C182 H188 0.929 . S
C183 C181 1.366 . S
C183 C182 1.416 . S
C183 H185 0.930 . S
H184 C173 0.930 . S
H185 C183 0.930 . S
H186 C201 0.930 . S
H187 C208 0.930 . S
H188 C182 0.929 . S
H189 C181 0.930 . S
H190 C204 0.929 . S
H191 C171 0.931 . S
H192 C177 0.931 . S
H193 C178 0.931 . S
H194 C199 0.931 . S
H195 C174 0.929 . S
H196 C207 0.930 . S
N197 Eu168 2.600 . S
N197 C198 1.365 . S
N197 C201 1.319 . S
C198 N197 1.365 . S
C198 C200 1.405 . S
C198 C206 1.448 . S
C199 H194 0.931 . S
C199 C201 1.397 . S
C199 C202 1.367 . S
C200 C198 1.405 . S
C200 C202 1.403 . S
C200 C233 1.439 . S
C201 H186 0.930 . S
C201 N197 1.319 . S
C201 C199 1.397 . S
C202 C199 1.367 . S
C202 C200 1.403 . S
C202 H209 0.929 . S
N203 Eu168 2.562 . S
N203 C204 1.325 . S
N203 C206 1.351 . S
C204 H190 0.929 . S
C204 N203 1.325 . S
C204 C208 1.416 . S
C205 C206 1.430 . S
C205 C207 1.404 . S
C205 C234 1.387 . S
C206 C198 1.448 . S
C206 N203 1.351 . S
C206 C205 1.430 . S
C207 H196 0.930 . S
C207 C205 1.404 . S
C207 C208 1.366 . S
C208 H187 0.930 . S
C208 C204 1.416 . S
C208 C207 1.366 . S
H209 C202 0.929 . S
H210 C233 0.931 . S
H211 C234 0.931 . S
O212 Eu168 2.462 . S
O212 C232 1.252 . S
O213 Eu168 2.373 . S
O213 C224 1.249 . S
O214 Eu179 2.335 . S
O214 C224 1.264 . S
O215 Eu168 2.432 . S
O215 C232 1.268 . S
O216 Eu168 2.291 . S
O216 C231 1.255 . S
O217 Eu179 2.372 . S
O217 C231 1.257 . S
O218 Eu179 2.462 . S
O218 C243 1.252 . S
O219 Eu179 2.373 . S
O219 C235 1.249 . S
O220 Eu168 2.335 . S
O220 C235 1.264 . S
O221 Eu179 2.432 . S
O221 C243 1.268 . S
O222 Eu179 2.291 . S
O222 C242 1.255 . S
O223 Eu168 2.372 . S
O223 C242 1.257 . S
C224 O213 1.249 . S
C224 O214 1.264 . S
C225 C228 1.382 . S
C225 C230 1.390 . S
C225 C232 1.506 . S
C226 C227 1.398 . S
C226 C230 1.392 . S
C227 C226 1.398 . S
C227 C229 1.372 . S
C227 H244 0.931 . S
C228 C225 1.382 . S
C228 C229 1.390 . S
C228 H245 0.931 . S
C229 C227 1.372 . S
C229 C228 1.390 . S
C229 H246 0.929 . S
C230 C225 1.390 . S
C230 C226 1.392 . S
C230 H247 0.930 . S
C231 O216 1.255 . S
C231 O217 1.257 . S
C232 Eu168 2.787 . S
C232 O212 1.252 . S
C232 O215 1.268 . S
C232 C225 1.506 . S
C233 C200 1.439 . S
C233 H210 0.931 . S
C233 C234 1.374 . S
C234 C205 1.387 . S
C234 H211 0.931 . S
C234 C233 1.374 . S
C235 O219 1.249 . S
C235 O220 1.264 . S
C236 C239 1.382 . S
C236 C240 1.390 . S
C236 C243 1.506 . S
C237 C238 1.398 . S
C237 C240 1.392 . S
C238 C237 1.398 . S
C238 C241 1.372 . S
C238 H248 0.931 . S
C239 C236 1.382 . S
C239 C241 1.390 . S
C239 H249 0.931 . S
C240 C236 1.390 . S
C240 C237 1.392 . S
C240 H250 0.930 . S
C241 C238 1.372 . S
C241 C239 1.390 . S
C241 H251 0.929 . S
C242 O222 1.255 . S
C242 O223 1.257 . S
C243 Eu179 2.787 . S
C243 O218 1.252 . S
C243 O221 1.268 . S
C243 C236 1.506 . S
H244 C227 0.931 . S
H245 C228 0.931 . S
H246 C229 0.929 . S
H247 C230 0.930 . S
H248 C238 0.931 . S
H249 C239 0.931 . S
H250 C240 0.930 . S
H251 C241 0.929 . S
Eu252 N281 2.600 . S
Eu252 N287 2.562 . S
Eu252 O296 2.462 . S
Eu252 O297 2.373 . S
Eu252 O299 2.432 . S
Eu252 O300 2.291 . S
Eu252 O304 2.335 . S
Eu252 O307 2.372 . S
Eu252 C316 2.787 . S
C253 N254 1.365 . S
C253 C256 1.405 . S
C253 C260 1.448 . S
N254 C253 1.365 . S
N254 C257 1.319 . S
N254 Eu263 2.600 . S
C255 C257 1.397 . S
C255 C258 1.367 . S
C255 H275 0.931 . S
C256 C253 1.405 . S
C256 C258 1.403 . S
C256 C262 1.439 . S
C257 N254 1.319 . S
C257 C255 1.397 . S
C257 H268 0.930 . S
C258 C255 1.367 . S
C258 C256 1.403 . S
C258 H279 0.929 . S
C259 C260 1.430 . S
C259 C261 1.387 . S
C259 C265 1.404 . S
C260 C253 1.448 . S
C260 C259 1.430 . S
C260 N264 1.351 . S
C261 C259 1.387 . S
C261 C262 1.374 . S
C261 H276 0.931 . S
C262 C256 1.439 . S
C262 C261 1.374 . S
C262 H277 0.931 . S
Eu263 N254 2.600 . S
Eu263 N264 2.562 . S
Eu263 O298 2.335 . S
Eu263 O301 2.372 . S
Eu263 O302 2.462 . S
Eu263 O303 2.373 . S
Eu263 O305 2.432 . S
Eu263 O306 2.291 . S
Eu263 C327 2.787 . S
N264 C260 1.351 . S
N264 Eu263 2.562 . S
N264 C266 1.325 . S
C265 C259 1.404 . S
C265 C267 1.366 . S
C265 H273 0.930 . S
C266 N264 1.325 . S
C266 C267 1.416 . S
C266 H272 0.929 . S
C267 C265 1.366 . S
C267 C266 1.416 . S
C267 H269 0.930 . S
H268 C257 0.930 . S
H269 C267 0.930 . S
H270 C285 0.930 . S
H271 C292 0.930 . S
H272 C266 0.929 . S
H273 C265 0.930 . S
H274 C288 0.929 . S
H275 C255 0.931 . S
H276 C261 0.931 . S
H277 C262 0.931 . S
H278 C283 0.931 . S
H279 C258 0.929 . S
H280 C291 0.930 . S
N281 Eu252 2.600 . S
N281 C282 1.365 . S
N281 C285 1.319 . S
C282 N281 1.365 . S
C282 C284 1.405 . S
C282 C290 1.448 . S
C283 H278 0.931 . S
C283 C285 1.397 . S
C283 C286 1.367 . S
C284 C282 1.405 . S
C284 C286 1.403 . S
C284 C317 1.439 . S
C285 H270 0.930 . S
C285 N281 1.319 . S
C285 C283 1.397 . S
C286 C283 1.367 . S
C286 C284 1.403 . S
C286 H293 0.929 . S
N287 Eu252 2.562 . S
N287 C288 1.325 . S
N287 C290 1.351 . S
C288 H274 0.929 . S
C288 N287 1.325 . S
C288 C292 1.416 . S
C289 C290 1.430 . S
C289 C291 1.404 . S
C289 C318 1.387 . S
C290 C282 1.448 . S
C290 N287 1.351 . S
C290 C289 1.430 . S
C291 H280 0.930 . S
C291 C289 1.404 . S
C291 C292 1.366 . S
C292 H271 0.930 . S
C292 C288 1.416 . S
C292 C291 1.366 . S
H293 C286 0.929 . S
H294 C317 0.931 . S
H295 C318 0.931 . S
O296 Eu252 2.462 . S
O296 C316 1.252 . S
O297 Eu252 2.373 . S
O297 C308 1.249 . S
O298 Eu263 2.335 . S
O298 C308 1.264 . S
O299 Eu252 2.432 . S
O299 C316 1.268 . S
O300 Eu252 2.291 . S
O300 C315 1.255 . S
O301 Eu263 2.372 . S
O301 C315 1.257 . S
O302 Eu263 2.462 . S
O302 C327 1.252 . S
O303 Eu263 2.373 . S
O303 C319 1.249 . S
O304 Eu252 2.335 . S
O304 C319 1.264 . S
O305 Eu263 2.432 . S
O305 C327 1.268 . S
O306 Eu263 2.291 . S
O306 C326 1.255 . S
O307 Eu252 2.372 . S
O307 C326 1.257 . S
C308 O297 1.249 . S
C308 O298 1.264 . S
C309 C312 1.382 . S
C309 C314 1.390 . S
C309 C316 1.506 . S
C310 C311 1.398 . S
C310 C314 1.392 . S
C311 C310 1.398 . S
C311 C313 1.372 . S
C311 H328 0.931 . S
C312 C309 1.382 . S
C312 C313 1.390 . S
C312 H329 0.931 . S
C313 C311 1.372 . S
C313 C312 1.390 . S
C313 H330 0.929 . S
C314 C309 1.390 . S
C314 C310 1.392 . S
C314 H331 0.930 . S
C315 O300 1.255 . S
C315 O301 1.257 . S
C316 Eu252 2.787 . S
C316 O296 1.252 . S
C316 O299 1.268 . S
C316 C309 1.506 . S
C317 C284 1.439 . S
C317 H294 0.931 . S
C317 C318 1.374 . S
C318 C289 1.387 . S
C318 H295 0.931 . S
C318 C317 1.374 . S
C319 O303 1.249 . S
C319 O304 1.264 . S
C320 C323 1.382 . S
C320 C324 1.390 . S
C320 C327 1.506 . S
C321 C322 1.398 . S
C321 C324 1.392 . S
C322 C321 1.398 . S
C322 C325 1.372 . S
C322 H332 0.931 . S
C323 C320 1.382 . S
C323 C325 1.390 . S
C323 H333 0.931 . S
C324 C320 1.390 . S
C324 C321 1.392 . S
C324 H334 0.930 . S
C325 C322 1.372 . S
C325 C323 1.390 . S
C325 H335 0.929 . S
C326 O306 1.255 . S
C326 O307 1.257 . S
C327 Eu263 2.787 . S
C327 O302 1.252 . S
C327 O305 1.268 . S
C327 C320 1.506 . S
H328 C311 0.931 . S
H329 C312 0.931 . S
H330 C313 0.929 . S
H331 C314 0.930 . S
H332 C322 0.931 . S
H333 C323 0.931 . S
H334 C324 0.930 . S
H335 C325 0.929 . S
Eu336 N365 2.600 . S
Eu336 N371 2.562 . S
Eu336 O380 2.462 . S
Eu336 O381 2.373 . S
Eu336 O383 2.432 . S
Eu336 O384 2.291 . S
Eu336 O388 2.335 . S
Eu336 O391 2.372 . S
Eu336 C400 2.787 . S
C337 N338 1.365 . S
C337 C340 1.405 . S
C337 C344 1.448 . S
N338 C337 1.365 . S
N338 C341 1.319 . S
N338 Eu347 2.600 . S
C339 C341 1.397 . S
C339 C342 1.367 . S
C339 H359 0.931 . S
C340 C337 1.405 . S
C340 C342 1.403 . S
C340 C346 1.439 . S
C341 N338 1.319 . S
C341 C339 1.397 . S
C341 H352 0.930 . S
C342 C339 1.367 . S
C342 C340 1.403 . S
C342 H363 0.929 . S
C343 C344 1.430 . S
C343 C345 1.387 . S
C343 C349 1.404 . S
C344 C337 1.448 . S
C344 C343 1.430 . S
C344 N348 1.351 . S
C345 C343 1.387 . S
C345 C346 1.374 . S
C345 H360 0.931 . S
C346 C340 1.439 . S
C346 C345 1.374 . S
C346 H361 0.931 . S
Eu347 N338 2.600 . S
Eu347 N348 2.562 . S
Eu347 O382 2.335 . S
Eu347 O385 2.372 . S
Eu347 O386 2.462 . S
Eu347 O387 2.373 . S
Eu347 O389 2.432 . S
Eu347 O390 2.291 . S
Eu347 C411 2.787 . S
N348 C344 1.351 . S
N348 Eu347 2.562 . S
N348 C350 1.325 . S
C349 C343 1.404 . S
C349 C351 1.366 . S
C349 H357 0.930 . S
C350 N348 1.325 . S
C350 C351 1.416 . S
C350 H356 0.929 . S
C351 C349 1.366 . S
C351 C350 1.416 . S
C351 H353 0.930 . S
H352 C341 0.930 . S
H353 C351 0.930 . S
H354 C369 0.930 . S
H355 C376 0.930 . S
H356 C350 0.929 . S
H357 C349 0.930 . S
H358 C372 0.929 . S
H359 C339 0.931 . S
H360 C345 0.931 . S
H361 C346 0.931 . S
H362 C367 0.931 . S
H363 C342 0.929 . S
H364 C375 0.930 . S
N365 Eu336 2.600 . S
N365 C366 1.365 . S
N365 C369 1.319 . S
C366 N365 1.365 . S
C366 C368 1.405 . S
C366 C374 1.448 . S
C367 H362 0.931 . S
C367 C369 1.397 . S
C367 C370 1.367 . S
C368 C366 1.405 . S
C368 C370 1.403 . S
C368 C401 1.439 . S
C369 H354 0.930 . S
C369 N365 1.319 . S
C369 C367 1.397 . S
C370 C367 1.367 . S
C370 C368 1.403 . S
C370 H377 0.929 . S
N371 Eu336 2.562 . S
N371 C372 1.325 . S
N371 C374 1.351 . S
C372 H358 0.929 . S
C372 N371 1.325 . S
C372 C376 1.416 . S
C373 C374 1.430 . S
C373 C375 1.404 . S
C373 C402 1.387 . S
C374 C366 1.448 . S
C374 N371 1.351 . S
C374 C373 1.430 . S
C375 H364 0.930 . S
C375 C373 1.404 . S
C375 C376 1.366 . S
C376 H355 0.930 . S
C376 C372 1.416 . S
C376 C375 1.366 . S
H377 C370 0.929 . S
H378 C401 0.931 . S
H379 C402 0.931 . S
O380 Eu336 2.462 . S
O380 C400 1.252 . S
O381 Eu336 2.373 . S
O381 C392 1.249 . S
O382 Eu347 2.335 . S
O382 C392 1.264 . S
O383 Eu336 2.432 . S
O383 C400 1.268 . S
O384 Eu336 2.291 . S
O384 C399 1.255 . S
O385 Eu347 2.372 . S
O385 C399 1.257 . S
O386 Eu347 2.462 . S
O386 C411 1.252 . S
O387 Eu347 2.373 . S
O387 C403 1.249 . S
O388 Eu336 2.335 . S
O388 C403 1.264 . S
O389 Eu347 2.432 . S
O389 C411 1.268 . S
O390 Eu347 2.291 . S
O390 C410 1.255 . S
O391 Eu336 2.372 . S
O391 C410 1.257 . S
C392 O381 1.249 . S
C392 O382 1.264 . S
C393 C396 1.382 . S
C393 C398 1.390 . S
C393 C400 1.506 . S
C394 C395 1.398 . S
C394 C398 1.392 . S
C395 C394 1.398 . S
C395 C397 1.372 . S
C395 H412 0.931 . S
C396 C393 1.382 . S
C396 C397 1.390 . S
C396 H413 0.931 . S
C397 C395 1.372 . S
C397 C396 1.390 . S
C397 H414 0.929 . S
C398 C393 1.390 . S
C398 C394 1.392 . S
C398 H415 0.930 . S
C399 O384 1.255 . S
C399 O385 1.257 . S
C400 Eu336 2.787 . S
C400 O380 1.252 . S
C400 O383 1.268 . S
C400 C393 1.506 . S
C401 C368 1.439 . S
C401 H378 0.931 . S
C401 C402 1.374 . S
C402 C373 1.387 . S
C402 H379 0.931 . S
C402 C401 1.374 . S
C403 O387 1.249 . S
C403 O388 1.264 . S
C404 C407 1.382 . S
C404 C408 1.390 . S
C404 C411 1.506 . S
C405 C406 1.398 . S
C405 C408 1.392 . S
C406 C405 1.398 . S
C406 C409 1.372 . S
C406 H416 0.931 . S
C407 C404 1.382 . S
C407 C409 1.390 . S
C407 H417 0.931 . S
C408 C404 1.390 . S
C408 C405 1.392 . S
C408 H418 0.930 . S
C409 C406 1.372 . S
C409 C407 1.390 . S
C409 H419 0.929 . S
C410 O390 1.255 . S
C410 O391 1.257 . S
C411 Eu347 2.787 . S
C411 O386 1.252 . S
C411 O389 1.268 . S
C411 C404 1.506 . S
H412 C395 0.931 . S
H413 C396 0.931 . S
H414 C397 0.929 . S
H415 C398 0.930 . S
H416 C406 0.931 . S
H417 C407 0.931 . S
H418 C408 0.930 . S
H419 C409 0.929 . S
Eu420 N449 2.600 . S
Eu420 N455 2.562 . S
Eu420 O464 2.462 . S
Eu420 O465 2.373 . S
Eu420 O467 2.432 . S
Eu420 O468 2.291 . S
Eu420 O472 2.335 . S
Eu420 O475 2.372 . S
Eu420 C484 2.787 . S
C421 N422 1.365 . S
C421 C424 1.405 . S
C421 C428 1.448 . S
N422 C421 1.365 . S
N422 C425 1.319 . S
N422 Eu431 2.600 . S
C423 C425 1.397 . S
C423 C426 1.367 . S
C423 H443 0.931 . S
C424 C421 1.405 . S
C424 C426 1.403 . S
C424 C430 1.439 . S
C425 N422 1.319 . S
C425 C423 1.397 . S
C425 H436 0.930 . S
C426 C423 1.367 . S
C426 C424 1.403 . S
C426 H447 0.929 . S
C427 C428 1.430 . S
C427 C429 1.387 . S
C427 C433 1.404 . S
C428 C421 1.448 . S
C428 C427 1.430 . S
C428 N432 1.351 . S
C429 C427 1.387 . S
C429 C430 1.374 . S
C429 H444 0.931 . S
C430 C424 1.439 . S
C430 C429 1.374 . S
C430 H445 0.931 . S
Eu431 N422 2.600 . S
Eu431 N432 2.562 . S
Eu431 O466 2.335 . S
Eu431 O469 2.372 . S
Eu431 O470 2.462 . S
Eu431 O471 2.373 . S
Eu431 O473 2.432 . S
Eu431 O474 2.291 . S
Eu431 C495 2.787 . S
N432 C428 1.351 . S
N432 Eu431 2.562 . S
N432 C434 1.325 . S
C433 C427 1.404 . S
C433 C435 1.366 . S
C433 H441 0.930 . S
C434 N432 1.325 . S
C434 C435 1.416 . S
C434 H440 0.929 . S
C435 C433 1.366 . S
C435 C434 1.416 . S
C435 H437 0.930 . S
H436 C425 0.930 . S
H437 C435 0.930 . S
H438 C453 0.930 . S
H439 C460 0.930 . S
H440 C434 0.929 . S
H441 C433 0.930 . S
H442 C456 0.929 . S
H443 C423 0.931 . S
H444 C429 0.931 . S
H445 C430 0.931 . S
H446 C451 0.931 . S
H447 C426 0.929 . S
H448 C459 0.930 . S
N449 Eu420 2.600 . S
N449 C450 1.365 . S
N449 C453 1.319 . S
C450 N449 1.365 . S
C450 C452 1.405 . S
C450 C458 1.448 . S
C451 H446 0.931 . S
C451 C453 1.397 . S
C451 C454 1.367 . S
C452 C450 1.405 . S
C452 C454 1.403 . S
C452 C485 1.439 . S
C453 H438 0.930 . S
C453 N449 1.319 . S
C453 C451 1.397 . S
C454 C451 1.367 . S
C454 C452 1.403 . S
C454 H461 0.929 . S
N455 Eu420 2.562 . S
N455 C456 1.325 . S
N455 C458 1.351 . S
C456 H442 0.929 . S
C456 N455 1.325 . S
C456 C460 1.416 . S
C457 C458 1.430 . S
C457 C459 1.404 . S
C457 C486 1.387 . S
C458 C450 1.448 . S
C458 N455 1.351 . S
C458 C457 1.430 . S
C459 H448 0.930 . S
C459 C457 1.404 . S
C459 C460 1.366 . S
C460 H439 0.930 . S
C460 C456 1.416 . S
C460 C459 1.366 . S
H461 C454 0.929 . S
H462 C485 0.931 . S
H463 C486 0.931 . S
O464 Eu420 2.462 . S
O464 C484 1.252 . S
O465 Eu420 2.373 . S
O465 C476 1.249 . S
O466 Eu431 2.335 . S
O466 C476 1.264 . S
O467 Eu420 2.432 . S
O467 C484 1.268 . S
O468 Eu420 2.291 . S
O468 C483 1.255 . S
O469 Eu431 2.372 . S
O469 C483 1.257 . S
O470 Eu431 2.462 . S
O470 C495 1.252 . S
O471 Eu431 2.373 . S
O471 C487 1.249 . S
O472 Eu420 2.335 . S
O472 C487 1.264 . S
O473 Eu431 2.432 . S
O473 C495 1.268 . S
O474 Eu431 2.291 . S
O474 C494 1.255 . S
O475 Eu420 2.372 . S
O475 C494 1.257 . S
C476 O465 1.249 . S
C476 O466 1.264 . S
C477 C480 1.382 . S
C477 C482 1.390 . S
C477 C484 1.506 . S
C478 C479 1.398 . S
C478 C482 1.392 . S
C479 C478 1.398 . S
C479 C481 1.372 . S
C479 H496 0.931 . S
C480 C477 1.382 . S
C480 C481 1.390 . S
C480 H497 0.931 . S
C481 C479 1.372 . S
C481 C480 1.390 . S
C481 H498 0.929 . S
C482 C477 1.390 . S
C482 C478 1.392 . S
C482 H499 0.930 . S
C483 O468 1.255 . S
C483 O469 1.257 . S
C484 Eu420 2.787 . S
C484 O464 1.252 . S
C484 O467 1.268 . S
C484 C477 1.506 . S
C485 C452 1.439 . S
C485 H462 0.931 . S
C485 C486 1.374 . S
C486 C457 1.387 . S
C486 H463 0.931 . S
C486 C485 1.374 . S
C487 O471 1.249 . S
C487 O472 1.264 . S
C488 C491 1.382 . S
C488 C492 1.390 . S
C488 C495 1.506 . S
C489 C490 1.398 . S
C489 C492 1.392 . S
C490 C489 1.398 . S
C490 C493 1.372 . S
C490 H500 0.931 . S
C491 C488 1.382 . S
C491 C493 1.390 . S
C491 H501 0.931 . S
C492 C488 1.390 . S
C492 C489 1.392 . S
C492 H502 0.930 . S
C493 C490 1.372 . S
C493 C491 1.390 . S
C493 H503 0.929 . S
C494 O474 1.255 . S
C494 O475 1.257 . S
C495 Eu431 2.787 . S
C495 O470 1.252 . S
C495 O473 1.268 . S
C495 C488 1.506 . S
H496 C479 0.931 . S
H497 C480 0.931 . S
H498 C481 0.929 . S
H499 C482 0.930 . S
H500 C490 0.931 . S
H501 C491 0.931 . S
H502 C492 0.930 . S
H503 C493 0.929 . S
Eu504 N533 2.600 . S
Eu504 N539 2.562 . S
Eu504 O548 2.462 . S
Eu504 O549 2.373 . S
Eu504 O551 2.432 . S
Eu504 O552 2.291 . S
Eu504 O556 2.335 . S
Eu504 O559 2.372 . S
Eu504 C568 2.787 . S
C505 N506 1.365 . S
C505 C508 1.405 . S
C505 C512 1.448 . S
N506 C505 1.365 . S
N506 C509 1.319 . S
N506 Eu515 2.600 . S
C507 C509 1.397 . S
C507 C510 1.367 . S
C507 H527 0.931 . S
C508 C505 1.405 . S
C508 C510 1.403 . S
C508 C514 1.439 . S
C509 N506 1.319 . S
C509 C507 1.397 . S
C509 H520 0.930 . S
C510 C507 1.367 . S
C510 C508 1.403 . S
C510 H531 0.929 . S
C511 C512 1.430 . S
C511 C513 1.387 . S
C511 C517 1.404 . S
C512 C505 1.448 . S
C512 C511 1.430 . S
C512 N516 1.351 . S
C513 C511 1.387 . S
C513 C514 1.374 . S
C513 H528 0.931 . S
C514 C508 1.439 . S
C514 C513 1.374 . S
C514 H529 0.931 . S
Eu515 N506 2.600 . S
Eu515 N516 2.562 . S
Eu515 O550 2.335 . S
Eu515 O553 2.372 . S
Eu515 O554 2.462 . S
Eu515 O555 2.373 . S
Eu515 O557 2.432 . S
Eu515 O558 2.291 . S
Eu515 C579 2.787 . S
N516 C512 1.351 . S
N516 Eu515 2.562 . S
N516 C518 1.325 . S
C517 C511 1.404 . S
C517 C519 1.366 . S
C517 H525 0.930 . S
C518 N516 1.325 . S
C518 C519 1.416 . S
C518 H524 0.929 . S
C519 C517 1.366 . S
C519 C518 1.416 . S
C519 H521 0.930 . S
H520 C509 0.930 . S
H521 C519 0.930 . S
H522 C537 0.930 . S
H523 C544 0.930 . S
H524 C518 0.929 . S
H525 C517 0.930 . S
H526 C540 0.929 . S
H527 C507 0.931 . S
H528 C513 0.931 . S
H529 C514 0.931 . S
H530 C535 0.931 . S
H531 C510 0.929 . S
H532 C543 0.930 . S
N533 Eu504 2.600 . S
N533 C534 1.365 . S
N533 C537 1.319 . S
C534 N533 1.365 . S
C534 C536 1.405 . S
C534 C542 1.448 . S
C535 H530 0.931 . S
C535 C537 1.397 . S
C535 C538 1.367 . S
C536 C534 1.405 . S
C536 C538 1.403 . S
C536 C569 1.439 . S
C537 H522 0.930 . S
C537 N533 1.319 . S
C537 C535 1.397 . S
C538 C535 1.367 . S
C538 C536 1.403 . S
C538 H545 0.929 . S
N539 Eu504 2.562 . S
N539 C540 1.325 . S
N539 C542 1.351 . S
C540 H526 0.929 . S
C540 N539 1.325 . S
C540 C544 1.416 . S
C541 C542 1.430 . S
C541 C543 1.404 . S
C541 C570 1.387 . S
C542 C534 1.448 . S
C542 N539 1.351 . S
C542 C541 1.430 . S
C543 H532 0.930 . S
C543 C541 1.404 . S
C543 C544 1.366 . S
C544 H523 0.930 . S
C544 C540 1.416 . S
C544 C543 1.366 . S
H545 C538 0.929 . S
H546 C569 0.931 . S
H547 C570 0.931 . S
O548 Eu504 2.462 . S
O548 C568 1.252 . S
O549 Eu504 2.373 . S
O549 C560 1.249 . S
O550 Eu515 2.335 . S
O550 C560 1.264 . S
O551 Eu504 2.432 . S
O551 C568 1.268 . S
O552 Eu504 2.291 . S
O552 C567 1.255 . S
O553 Eu515 2.372 . S
O553 C567 1.257 . S
O554 Eu515 2.462 . S
O554 C579 1.252 . S
O555 Eu515 2.373 . S
O555 C571 1.249 . S
O556 Eu504 2.335 . S
O556 C571 1.264 . S
O557 Eu515 2.432 . S
O557 C579 1.268 . S
O558 Eu515 2.291 . S
O558 C578 1.255 . S
O559 Eu504 2.372 . S
O559 C578 1.257 . S
C560 O549 1.249 . S
C560 O550 1.264 . S
C561 C564 1.382 . S
C561 C566 1.390 . S
C561 C568 1.506 . S
C562 C563 1.398 . S
C562 C566 1.392 . S
C563 C562 1.398 . S
C563 C565 1.372 . S
C563 H580 0.931 . S
C564 C561 1.382 . S
C564 C565 1.390 . S
C564 H581 0.931 . S
C565 C563 1.372 . S
C565 C564 1.390 . S
C565 H582 0.929 . S
C566 C561 1.390 . S
C566 C562 1.392 . S
C566 H583 0.930 . S
C567 O552 1.255 . S
C567 O553 1.257 . S
C568 Eu504 2.787 . S
C568 O548 1.252 . S
C568 O551 1.268 . S
C568 C561 1.506 . S
C569 C536 1.439 . S
C569 H546 0.931 . S
C569 C570 1.374 . S
C570 C541 1.387 . S
C570 H547 0.931 . S
C570 C569 1.374 . S
C571 O555 1.249 . S
C571 O556 1.264 . S
C572 C575 1.382 . S
C572 C576 1.390 . S
C572 C579 1.506 . S
C573 C574 1.398 . S
C573 C576 1.392 . S
C574 C573 1.398 . S
C574 C577 1.372 . S
C574 H584 0.931 . S
C575 C572 1.382 . S
C575 C577 1.390 . S
C575 H585 0.931 . S
C576 C572 1.390 . S
C576 C573 1.392 . S
C576 H586 0.930 . S
C577 C574 1.372 . S
C577 C575 1.390 . S
C577 H587 0.929 . S
C578 O558 1.255 . S
C578 O559 1.257 . S
C579 Eu515 2.787 . S
C579 O554 1.252 . S
C579 O557 1.268 . S
C579 C572 1.506 . S
H580 C563 0.931 . S
H581 C564 0.931 . S
H582 C565 0.929 . S
H583 C566 0.930 . S
H584 C574 0.931 . S
H585 C575 0.931 . S
H586 C576 0.930 . S
H587 C577 0.929 . S
Eu588 N617 2.600 . S
Eu588 N623 2.562 . S
Eu588 O632 2.462 . S
Eu588 O633 2.373 . S
Eu588 O635 2.432 . S
Eu588 O636 2.291 . S
Eu588 O640 2.335 . S
Eu588 O643 2.372 . S
Eu588 C652 2.787 . S
C589 N590 1.365 . S
C589 C592 1.405 . S
C589 C596 1.448 . S
N590 C589 1.365 . S
N590 C593 1.319 . S
N590 Eu599 2.600 . S
C591 C593 1.397 . S
C591 C594 1.367 . S
C591 H611 0.931 . S
C592 C589 1.405 . S
C592 C594 1.403 . S
C592 C598 1.439 . S
C593 N590 1.319 . S
C593 C591 1.397 . S
C593 H604 0.930 . S
C594 C591 1.367 . S
C594 C592 1.403 . S
C594 H615 0.929 . S
C595 C596 1.430 . S
C595 C597 1.387 . S
C595 C601 1.404 . S
C596 C589 1.448 . S
C596 C595 1.430 . S
C596 N600 1.351 . S
C597 C595 1.387 . S
C597 C598 1.374 . S
C597 H612 0.931 . S
C598 C592 1.439 . S
C598 C597 1.374 . S
C598 H613 0.931 . S
Eu599 N590 2.600 . S
Eu599 N600 2.562 . S
Eu599 O634 2.335 . S
Eu599 O637 2.372 . S
Eu599 O638 2.462 . S
Eu599 O639 2.373 . S
Eu599 O641 2.432 . S
Eu599 O642 2.291 . S
Eu599 C663 2.787 . S
N600 C596 1.351 . S
N600 Eu599 2.562 . S
N600 C602 1.325 . S
C601 C595 1.404 . S
C601 C603 1.366 . S
C601 H609 0.930 . S
C602 N600 1.325 . S
C602 C603 1.416 . S
C602 H608 0.929 . S
C603 C601 1.366 . S
C603 C602 1.416 . S
C603 H605 0.930 . S
H604 C593 0.930 . S
H605 C603 0.930 . S
H606 C621 0.930 . S
H607 C628 0.930 . S
H608 C602 0.929 . S
H609 C601 0.930 . S
H610 C624 0.929 . S
H611 C591 0.931 . S
H612 C597 0.931 . S
H613 C598 0.931 . S
H614 C619 0.931 . S
H615 C594 0.929 . S
H616 C627 0.930 . S
N617 Eu588 2.600 . S
N617 C618 1.365 . S
N617 C621 1.319 . S
C618 N617 1.365 . S
C618 C620 1.405 . S
C618 C626 1.448 . S
C619 H614 0.931 . S
C619 C621 1.397 . S
C619 C622 1.367 . S
C620 C618 1.405 . S
C620 C622 1.403 . S
C620 C653 1.439 . S
C621 H606 0.930 . S
C621 N617 1.319 . S
C621 C619 1.397 . S
C622 C619 1.367 . S
C622 C620 1.403 . S
C622 H629 0.929 . S
N623 Eu588 2.562 . S
N623 C624 1.325 . S
N623 C626 1.351 . S
C624 H610 0.929 . S
C624 N623 1.325 . S
C624 C628 1.416 . S
C625 C626 1.430 . S
C625 C627 1.404 . S
C625 C654 1.387 . S
C626 C618 1.448 . S
C626 N623 1.351 . S
C626 C625 1.430 . S
C627 H616 0.930 . S
C627 C625 1.404 . S
C627 C628 1.366 . S
C628 H607 0.930 . S
C628 C624 1.416 . S
C628 C627 1.366 . S
H629 C622 0.929 . S
H630 C653 0.931 . S
H631 C654 0.931 . S
O632 Eu588 2.462 . S
O632 C652 1.252 . S
O633 Eu588 2.373 . S
O633 C644 1.249 . S
O634 Eu599 2.335 . S
O634 C644 1.264 . S
O635 Eu588 2.432 . S
O635 C652 1.268 . S
O636 Eu588 2.291 . S
O636 C651 1.255 . S
O637 Eu599 2.372 . S
O637 C651 1.257 . S
O638 Eu599 2.462 . S
O638 C663 1.252 . S
O639 Eu599 2.373 . S
O639 C655 1.249 . S
O640 Eu588 2.335 . S
O640 C655 1.264 . S
O641 Eu599 2.432 . S
O641 C663 1.268 . S
O642 Eu599 2.291 . S
O642 C662 1.255 . S
O643 Eu588 2.372 . S
O643 C662 1.257 . S
C644 O633 1.249 . S
C644 O634 1.264 . S
C645 C648 1.382 . S
C645 C650 1.390 . S
C645 C652 1.506 . S
C646 C647 1.398 . S
C646 C650 1.392 . S
C647 C646 1.398 . S
C647 C649 1.372 . S
C647 H664 0.931 . S
C648 C645 1.382 . S
C648 C649 1.390 . S
C648 H665 0.931 . S
C649 C647 1.372 . S
C649 C648 1.390 . S
C649 H666 0.929 . S
C650 C645 1.390 . S
C650 C646 1.392 . S
C650 H667 0.930 . S
C651 O636 1.255 . S
C651 O637 1.257 . S
C652 Eu588 2.787 . S
C652 O632 1.252 . S
C652 O635 1.268 . S
C652 C645 1.506 . S
C653 C620 1.439 . S
C653 H630 0.931 . S
C653 C654 1.374 . S
C654 C625 1.387 . S
C654 H631 0.931 . S
C654 C653 1.374 . S
C655 O639 1.249 . S
C655 O640 1.264 . S
C656 C659 1.382 . S
C656 C660 1.390 . S
C656 C663 1.506 . S
C657 C658 1.398 . S
C657 C660 1.392 . S
C658 C657 1.398 . S
C658 C661 1.372 . S
C658 H668 0.931 . S
C659 C656 1.382 . S
C659 C661 1.390 . S
C659 H669 0.931 . S
C660 C656 1.390 . S
C660 C657 1.392 . S
C660 H670 0.930 . S
C661 C658 1.372 . S
C661 C659 1.390 . S
C661 H671 0.929 . S
C662 O642 1.255 . S
C662 O643 1.257 . S
C663 Eu599 2.787 . S
C663 O638 1.252 . S
C663 O641 1.268 . S
C663 C656 1.506 . S
H664 C647 0.931 . S
H665 C648 0.931 . S
H666 C649 0.929 . S
H667 C650 0.930 . S
H668 C658 0.931 . S
H669 C659 0.931 . S
H670 C660 0.930 . S
H671 C661 0.929 . S
Cd672 N675 2.334 1_655 S
Cd672 N701 2.304 1_565 S
Cd672 O708 2.268 . S
Cd672 O711 2.273 1_665 S
Cd672 O712 2.417 . S
Cd672 O713 2.330 . S
Cd673 N688 2.304 1_455 S
Cd673 N692 2.334 1_545 S
Cd673 O709 2.273 1_445 S
Cd673 O710 2.268 . S
Cd673 O714 2.417 . S
Cd673 O715 2.330 . S
C674 N675 1.332 . S
C674 C678 1.381 . S
C674 H680 0.931 . S
N675 Cd672 2.334 1_455 S
N675 C674 1.332 . S
N675 C679 1.328 . S
C676 C677 1.396 . S
C676 C679 1.378 . S
C676 H718 0.931 . S
C677 C676 1.396 . S
C677 C678 1.382 . S
C678 C674 1.381 . S
C678 C677 1.382 . S
C678 H719 0.930 . S
C679 N675 1.328 . S
C679 C676 1.378 . S
C679 H681 0.930 1_455 S
H680 C674 0.931 . S
H681 C679 0.930 1_655 S
C682 O708 1.238 . S
C682 O709 1.253 . S
C683 C684 1.379 . S
C683 N688 1.337 . S
C683 H689 0.929 . S
C684 C683 1.379 . S
C684 C685 1.380 . S
C684 H720 0.929 . S
C685 C684 1.380 . S
C685 C686 1.399 . S
C686 C685 1.399 . S
C686 C687 1.391 . S
C686 H721 0.931 . S
C687 C686 1.391 . S
C687 N688 1.335 . S
C687 H690 0.917 1_655 S
N688 Cd673 2.304 1_655 S
N688 C683 1.337 . S
N688 C687 1.335 . S
H689 C683 0.929 . S
H690 C687 0.917 1_455 S
C691 N692 1.332 . S
C691 C695 1.381 . S
C691 H697 0.931 . S
N692 Cd673 2.334 1_565 S
N692 C691 1.332 . S
N692 C696 1.328 . S
C693 C694 1.396 . S
C693 C696 1.378 . S
C693 H722 0.931 . S
C694 C693 1.396 . S
C694 C695 1.382 . S
C695 C691 1.381 . S
C695 C694 1.382 . S
C695 H723 0.930 . S
C696 N692 1.328 . S
C696 C693 1.378 . S
C696 H698 0.930 1_565 S
H697 C691 0.931 . S
H698 C696 0.930 1_545 S
C699 O710 1.238 . S
C699 O711 1.253 . S
C700 O712 1.239 . S
C700 O713 1.230 . S
N701 Cd672 2.304 1_545 S
N701 C702 1.337 . S
N701 C706 1.338 . S
C702 N701 1.337 . S
C702 C703 1.379 . S
C702 H716 0.929 . S
C703 C702 1.379 . S
C703 C704 1.380 . S
C703 H724 0.929 . S
C704 C703 1.380 . S
C704 C705 1.399 . S
C705 C704 1.399 . S
C705 C706 1.376 . S
C705 H725 0.931 . S
C706 N701 1.338 . S
C706 C705 1.376 . S
C706 H717 0.930 1_545 S
C707 O714 1.239 . S
C707 O715 1.230 . S
O708 Cd672 2.268 . S
O708 C682 1.238 . S
O709 Cd673 2.273 1_665 S
O709 C682 1.253 . S
O710 Cd673 2.268 . S
O710 C699 1.238 . S
O711 Cd672 2.273 1_445 S
O711 C699 1.253 . S
O712 Cd672 2.417 . S
O712 C700 1.239 . S
O713 Cd672 2.330 . S
O713 C700 1.230 . S
O714 Cd673 2.417 . S
O714 C707 1.239 . S
O715 Cd673 2.330 . S
O715 C707 1.230 . S
H716 C702 0.929 . S
H717 C706 0.930 1_565 S
H718 C676 0.931 . S
H719 C678 0.930 . S
H720 C684 0.929 . S
H721 C686 0.931 . S
H722 C693 0.931 . S
H723 C695 0.930 . S
H724 C703 0.929 . S
H725 C705 0.931 . S
Cd726 N729 2.334 . S
Cd726 N755 2.304 1_565 S
Cd726 O762 2.268 1_554 S
Cd726 O765 2.273 1_565 S
Cd726 O766 2.417 . S
Cd726 O767 2.330 . S
Cd727 N742 2.304 . S
Cd727 N746 2.334 1_545 S
Cd727 O763 2.273 1_545 S
Cd727 O764 2.268 1_556 S
Cd727 O768 2.417 . S
Cd727 O769 2.330 . S
C728 N729 1.332 . S
C728 C732 1.381 . S
C728 H734 0.931 . S
N729 Cd726 2.334 . S
N729 C728 1.332 . S
N729 C733 1.328 . S
C730 C731 1.396 . S
C730 C733 1.378 . S
C730 H772 0.931 1_554 S
C731 C730 1.396 . S
C731 C732 1.382 . S
C732 C728 1.381 . S
C732 C731 1.382 . S
C732 H773 0.930 . S
C733 N729 1.328 . S
C733 C730 1.378 . S
C733 H735 0.930 1_554 S
H734 C728 0.931 . S
H735 C733 0.930 1_556 S
C736 O762 1.238 . S
C736 O763 1.253 . S
C737 C738 1.379 . S
C737 N742 1.337 . S
C737 H743 0.929 . S
C738 C737 1.379 . S
C738 C739 1.380 . S
C738 H774 0.929 . S
C739 C738 1.380 . S
C739 C740 1.399 . S
C740 C739 1.399 . S
C740 C741 1.376 . S
C740 H775 0.931 1_556 S
C741 C740 1.376 . S
C741 N742 1.338 . S
C741 H744 0.930 1_556 S
N742 Cd727 2.304 . S
N742 C737 1.337 . S
N742 C741 1.338 . S
H743 C737 0.929 . S
H744 C741 0.930 1_554 S
C745 N746 1.332 . S
C745 C749 1.381 . S
C745 H751 0.931 . S
N746 Cd727 2.334 1_565 S
N746 C745 1.332 . S
N746 C750 1.328 . S
C747 C748 1.396 . S
C747 C750 1.378 . S
C747 H776 0.931 . S
C748 C747 1.396 . S
C748 C749 1.382 . S
C749 C745 1.381 . S
C749 C748 1.382 . S
C749 H777 0.930 . S
C750 N746 1.328 . S
C750 C747 1.378 . S
C750 H752 0.930 1_566 S
H751 C745 0.931 . S
H752 C750 0.930 1_544 S
C753 O764 1.238 . S
C753 O765 1.253 . S
C754 O766 1.239 . S
C754 O767 1.230 . S
N755 Cd726 2.304 1_545 S
N755 C756 1.337 . S
N755 C760 1.338 . S
C756 N755 1.337 . S
C756 C757 1.379 . S
C756 H770 0.929 . S
C757 C756 1.379 . S
C757 C758 1.380 . S
C757 H778 0.929 . S
C758 C757 1.380 . S
C758 C759 1.399 . S
C759 C758 1.399 . S
C759 C760 1.376 . S
C759 H779 0.931 . S
C760 N755 1.338 . S
C760 C759 1.376 . S
C760 H771 0.930 1_544 S
C761 O768 1.239 . S
C761 O769 1.230 . S
O762 Cd726 2.268 1_556 S
O762 C736 1.238 . S
O763 Cd727 2.273 1_565 S
O763 C736 1.253 . S
O764 Cd727 2.268 1_554 S
O764 C753 1.238 . S
O765 Cd726 2.273 1_545 S
O765 C753 1.253 . S
O766 Cd726 2.417 . S
O766 C754 1.239 . S
O767 Cd726 2.330 . S
O767 C754 1.230 . S
O768 Cd727 2.417 . S
O768 C761 1.239 . S
O769 Cd727 2.330 . S
O769 C761 1.230 . S
H770 C756 0.929 . S
H771 C760 0.930 1_566 S
H772 C730 0.931 1_556 S
H773 C732 0.930 . S
H774 C738 0.929 . S
H775 C740 0.931 1_554 S
H776 C747 0.931 . S
H777 C749 0.930 . S
H778 C757 0.929 . S
H779 C759 0.931 . S
Cd780 N783 2.334 1_655 S
Cd780 N809 2.304 . S
Cd780 O816 2.268 1_554 S
Cd780 O819 2.273 1_655 S
Cd780 O820 2.417 . S
Cd780 O821 2.330 . S
Cd781 N796 2.304 1_455 S
Cd781 N800 2.334 . S
Cd781 O817 2.273 1_455 S
Cd781 O818 2.268 1_556 S
Cd781 O822 2.417 . S
Cd781 O823 2.330 . S
C782 N783 1.332 . S
C782 C786 1.381 . S
C782 H788 0.931 . S
N783 Cd780 2.334 1_455 S
N783 C782 1.332 . S
N783 C787 1.328 . S
C784 C785 1.396 . S
C784 C787 1.378 . S
C784 H826 0.931 1_554 S
C785 C784 1.396 . S
C785 C786 1.382 . S
C786 C782 1.381 . S
C786 C785 1.382 . S
C786 H827 0.930 . S
C787 N783 1.328 . S
C787 C784 1.378 . S
C787 H789 0.930 1_454 S
H788 C782 0.931 . S
H789 C787 0.930 1_656 S
C790 O816 1.238 . S
C790 O817 1.253 . S
C791 C792 1.379 . S
C791 N796 1.337 . S
C791 H797 0.929 . S
C792 C791 1.379 . S
C792 C793 1.380 . S
C792 H828 0.929 . S
C793 C792 1.380 . S
C793 C794 1.399 . S
C794 C793 1.399 . S
C794 C795 1.396 . S
C794 H829 0.931 1_556 S
C795 C794 1.396 . S
C795 N796 1.334 . S
C795 H798 0.914 1_656 S
N796 Cd781 2.304 1_655 S
N796 C791 1.337 . S
N796 C795 1.334 . S
H797 C791 0.929 . S
H798 C795 0.914 1_454 S
C799 N800 1.332 . S
C799 C803 1.381 . S
C799 H805 0.931 . S
N800 Cd781 2.334 . S
N800 C799 1.332 . S
N800 C804 1.328 . S
C801 C802 1.396 . S
C801 C804 1.378 . S
C801 H830 0.931 . S
C802 C801 1.396 . S
C802 C803 1.382 . S
C803 C799 1.381 . S
C803 C802 1.382 . S
C803 H831 0.930 . S
C804 N800 1.328 . S
C804 C801 1.378 . S
C804 H806 0.930 1_556 S
H805 C799 0.931 . S
H806 C804 0.930 1_554 S
C807 O818 1.238 . S
C807 O819 1.253 . S
C808 O820 1.239 . S
C808 O821 1.230 . S
N809 Cd780 2.304 . S
N809 C810 1.337 . S
N809 C814 1.338 . S
C810 N809 1.337 . S
C810 C811 1.379 . S
C810 H824 0.929 . S
C811 C810 1.379 . S
C811 C812 1.380 . S
C811 H832 0.929 . S
C812 C811 1.380 . S
C812 C813 1.399 . S
C813 C812 1.399 . S
C813 C814 1.376 . S
C813 H833 0.931 . S
C814 N809 1.338 . S
C814 C813 1.376 . S
C814 H825 0.930 1_554 S
C815 O822 1.239 . S
C815 O823 1.230 . S
O816 Cd780 2.268 1_556 S
O816 C790 1.238 . S
O817 Cd781 2.273 1_655 S
O817 C790 1.253 . S
O818 Cd781 2.268 1_554 S
O818 C807 1.238 . S
O819 Cd780 2.273 1_455 S
O819 C807 1.253 . S
O820 Cd780 2.417 . S
O820 C808 1.239 . S
O821 Cd780 2.330 . S
O821 C808 1.230 . S
O822 Cd781 2.417 . S
O822 C815 1.239 . S
O823 Cd781 2.330 . S
O823 C815 1.230 . S
H824 C810 0.929 . S
H825 C814 0.930 1_556 S
H826 C784 0.931 1_556 S
H827 C786 0.930 . S
H828 C792 0.929 . S
H829 C794 0.931 1_554 S
H830 C801 0.931 . S
H831 C803 0.930 . S
H832 C811 0.929 . S
H833 C813 0.931 . S
Cd834 N837 2.334 . S
Cd834 N863 2.304 . S
Cd834 O870 2.268 1_554 S
Cd834 O873 2.273 . S
Cd834 O874 2.417 . S
Cd834 O875 2.330 . S
Cd835 N850 2.304 . S
Cd835 N854 2.334 . S
Cd835 O871 2.273 . S
Cd835 O872 2.268 1_556 S
Cd835 O876 2.417 . S
Cd835 O877 2.330 . S
C836 N837 1.332 . S
C836 C840 1.381 . S
C836 H842 0.931 . S
N837 Cd834 2.334 . S
N837 C836 1.332 . S
N837 C841 1.328 . S
C838 C839 1.396 . S
C838 C841 1.378 . S
C838 H880 0.931 1_554 S
C839 C838 1.396 . S
C839 C840 1.382 . S
C840 C836 1.381 . S
C840 C839 1.382 . S
C840 H881 0.930 . S
C841 N837 1.328 . S
C841 C838 1.378 . S
C841 H843 0.930 1_554 S
H842 C836 0.931 . S
H843 C841 0.930 1_556 S
C844 O870 1.238 . S
C844 O871 1.253 . S
C845 C846 1.379 . S
C845 N850 1.337 . S
C845 H851 0.929 . S
C846 C845 1.379 . S
C846 C847 1.380 . S
C846 H882 0.929 . S
C847 C846 1.380 . S
C847 C848 1.399 . S
C848 C847 1.399 . S
C848 C849 1.376 . S
C848 H883 0.931 1_556 S
C849 C848 1.376 . S
C849 N850 1.338 . S
C849 H852 0.930 1_556 S
N850 Cd835 2.304 . S
N850 C845 1.337 . S
N850 C849 1.338 . S
H851 C845 0.929 . S
H852 C849 0.930 1_554 S
C853 N854 1.332 . S
C853 C857 1.381 . S
C853 H859 0.931 . S
N854 Cd835 2.334 . S
N854 C853 1.332 . S
N854 C858 1.328 . S
C855 C856 1.396 . S
C855 C858 1.378 . S
C855 H884 0.931 . S
C856 C855 1.396 . S
C856 C857 1.382 . S
C857 C853 1.381 . S
C857 C856 1.382 . S
C857 H885 0.930 . S
C858 N854 1.328 . S
C858 C855 1.378 . S
C858 H860 0.930 1_556 S
H859 C853 0.931 . S
H860 C858 0.930 1_554 S
C861 O872 1.238 . S
C861 O873 1.253 . S
C862 O874 1.239 . S
C862 O875 1.230 . S
N863 Cd834 2.304 . S
N863 C864 1.337 . S
N863 C868 1.338 . S
C864 N863 1.337 . S
C864 C865 1.379 . S
C864 H878 0.929 . S
C865 C864 1.379 . S
C865 C866 1.380 . S
C865 H886 0.929 . S
C866 C865 1.380 . S
C866 C867 1.399 . S
C867 C866 1.399 . S
C867 C868 1.376 . S
C867 H887 0.931 . S
C868 N863 1.338 . S
C868 C867 1.376 . S
C868 H879 0.930 1_554 S
C869 O876 1.239 . S
C869 O877 1.230 . S
O870 Cd834 2.268 1_556 S
O870 C844 1.238 . S
O871 Cd835 2.273 . S
O871 C844 1.253 . S
O872 Cd835 2.268 1_554 S
O872 C861 1.238 . S
O873 Cd834 2.273 . S
O873 C861 1.253 . S
O874 Cd834 2.417 . S
O874 C862 1.239 . S
O875 Cd834 2.330 . S
O875 C862 1.230 . S
O876 Cd835 2.417 . S
O876 C869 1.239 . S
O877 Cd835 2.330 . S
O877 C869 1.230 . S
H878 C864 0.929 . S
H879 C868 0.930 1_556 S
H880 C838 0.931 1_556 S
H881 C840 0.930 . S
H882 C846 0.929 . S
H883 C848 0.931 1_554 S
H884 C855 0.931 . S
H885 C857 0.930 . S
H886 C865 0.929 . S
H887 C867 0.931 . S
Cd888 N891 2.334 1_655 S
Cd888 N917 2.304 . S
Cd888 O924 2.268 . S
Cd888 O927 2.273 1_655 S
Cd888 O928 2.417 . S
Cd888 O929 2.330 . S
Cd889 N904 2.304 1_455 S
Cd889 N908 2.334 . S
Cd889 O925 2.273 1_455 S
Cd889 O926 2.268 . S
Cd889 O930 2.417 . S
Cd889 O931 2.330 . S
C890 N891 1.332 . S
C890 C894 1.381 . S
C890 H896 0.931 . S
N891 Cd888 2.334 1_455 S
N891 C890 1.332 . S
N891 C895 1.328 . S
C892 C893 1.396 . S
C892 C895 1.378 . S
C892 H934 0.931 . S
C893 C892 1.396 . S
C893 C894 1.382 . S
C894 C890 1.381 . S
C894 C893 1.382 . S
C894 H935 0.930 . S
C895 N891 1.328 . S
C895 C892 1.378 . S
C895 H897 0.930 1_455 S
H896 C890 0.931 . S
H897 C895 0.930 1_655 S
C898 O924 1.238 . S
C898 O925 1.253 . S
C899 C900 1.379 . S
C899 N904 1.337 . S
C899 H905 0.929 . S
C900 C899 1.379 . S
C900 C901 1.380 . S
C900 H936 0.929 . S
C901 C900 1.380 . S
C901 C902 1.399 . S
C902 C901 1.399 . S
C902 C903 1.394 . S
C902 H937 0.931 . S
C903 C902 1.394 . S
C903 N904 1.334 . S
C903 H906 0.915 1_655 S
N904 Cd889 2.304 1_655 S
N904 C899 1.337 . S
N904 C903 1.334 . S
H905 C899 0.929 . S
H906 C903 0.915 1_455 S
C907 N908 1.332 . S
C907 C911 1.381 . S
C907 H913 0.931 . S
N908 Cd889 2.334 . S
N908 C907 1.332 . S
N908 C912 1.328 . S
C909 C910 1.396 . S
C909 C912 1.378 . S
C909 H938 0.931 . S
C910 C909 1.396 . S
C910 C911 1.382 . S
C911 C907 1.381 . S
C911 C910 1.382 . S
C911 H939 0.930 . S
C912 N908 1.328 . S
C912 C909 1.378 . S
C912 H914 0.930 . S
H913 C907 0.931 . S
H914 C912 0.930 . S
C915 O926 1.238 . S
C915 O927 1.253 . S
C916 O928 1.239 . S
C916 O929 1.230 . S
N917 Cd888 2.304 . S
N917 C918 1.337 . S
N917 C922 1.338 . S
C918 N917 1.337 . S
C918 C919 1.379 . S
C918 H932 0.929 . S
C919 C918 1.379 . S
C919 C920 1.380 . S
C919 H940 0.929 . S
C920 C919 1.380 . S
C920 C921 1.399 . S
C921 C920 1.399 . S
C921 C922 1.376 . S
C921 H941 0.931 . S
C922 N917 1.338 . S
C922 C921 1.376 . S
C922 H933 0.930 . S
C923 O930 1.239 . S
C923 O931 1.230 . S
O924 Cd888 2.268 . S
O924 C898 1.238 . S
O925 Cd889 2.273 1_655 S
O925 C898 1.253 . S
O926 Cd889 2.268 . S
O926 C915 1.238 . S
O927 Cd888 2.273 1_455 S
O927 C915 1.253 . S
O928 Cd888 2.417 . S
O928 C916 1.239 . S
O929 Cd888 2.330 . S
O929 C916 1.230 . S
O930 Cd889 2.417 . S
O930 C923 1.239 . S
O931 Cd889 2.330 . S
O931 C923 1.230 . S
H932 C918 0.929 . S
H933 C922 0.930 . S
H934 C892 0.931 . S
H935 C894 0.930 . S
H936 C900 0.929 . S
H937 C902 0.931 . S
H938 C909 0.931 . S
H939 C911 0.930 . S
H940 C919 0.929 . S
H941 C921 0.931 . S
Cd942 N945 2.334 . S
Cd942 N971 2.304 1_565 S
Cd942 O978 2.268 . S
Cd942 O981 2.273 1_565 S
Cd942 O982 2.417 . S
Cd942 O983 2.330 . S
Cd943 N958 2.304 . S
Cd943 N962 2.334 1_545 S
Cd943 O979 2.273 1_545 S
Cd943 O980 2.268 . S
Cd943 O984 2.417 . S
Cd943 O985 2.330 . S
C944 N945 1.332 . S
C944 C948 1.381 . S
C944 H950 0.931 . S
N945 Cd942 2.334 . S
N945 C944 1.332 . S
N945 C949 1.328 . S
C946 C947 1.396 . S
C946 C949 1.378 . S
C946 H988 0.931 . S
C947 C946 1.396 . S
C947 C948 1.382 . S
C948 C944 1.381 . S
C948 C947 1.382 . S
C948 H989 0.930 . S
C949 N945 1.328 . S
C949 C946 1.378 . S
C949 H951 0.930 . S
H950 C944 0.931 . S
H951 C949 0.930 . S
C952 O978 1.238 . S
C952 O979 1.253 . S
C953 C954 1.379 . S
C953 N958 1.337 . S
C953 H959 0.929 . S
C954 C953 1.379 . S
C954 C955 1.380 . S
C954 H990 0.929 . S
C955 C954 1.380 . S
C955 C956 1.399 . S
C956 C955 1.399 . S
C956 C957 1.376 . S
C956 H991 0.931 . S
C957 C956 1.376 . S
C957 N958 1.338 . S
C957 H960 0.930 . S
N958 Cd943 2.304 . S
N958 C953 1.337 . S
N958 C957 1.338 . S
H959 C953 0.929 . S
H960 C957 0.930 . S
C961 N962 1.332 . S
C961 C965 1.381 . S
C961 H967 0.931 . S
N962 Cd943 2.334 1_565 S
N962 C961 1.332 . S
N962 C966 1.328 . S
C963 C964 1.396 . S
C963 C966 1.378 . S
C963 H992 0.931 . S
C964 C963 1.396 . S
C964 C965 1.382 . S
C965 C961 1.381 . S
C965 C964 1.382 . S
C965 H993 0.930 . S
C966 N962 1.328 . S
C966 C963 1.378 . S
C966 H968 0.930 1_565 S
H967 C961 0.931 . S
H968 C966 0.930 1_545 S
C969 O980 1.238 . S
C969 O981 1.253 . S
C970 O982 1.239 . S
C970 O983 1.230 . S
N971 Cd942 2.304 1_545 S
N971 C972 1.337 . S
N971 C976 1.338 . S
C972 N971 1.337 . S
C972 C973 1.379 . S
C972 H986 0.929 . S
C973 C972 1.379 . S
C973 C974 1.380 . S
C973 H994 0.929 . S
C974 C973 1.380 . S
C974 C975 1.399 . S
C975 C974 1.399 . S
C975 C976 1.376 . S
C975 H995 0.931 . S
C976 N971 1.338 . S
C976 C975 1.376 . S
C976 H987 0.930 1_545 S
C977 O984 1.239 . S
C977 O985 1.230 . S
O978 Cd942 2.268 . S
O978 C952 1.238 . S
O979 Cd943 2.273 1_565 S
O979 C952 1.253 . S
O980 Cd943 2.268 . S
O980 C969 1.238 . S
O981 Cd942 2.273 1_545 S
O981 C969 1.253 . S
O982 Cd942 2.417 . S
O982 C970 1.239 . S
O983 Cd942 2.330 . S
O983 C970 1.230 . S
O984 Cd943 2.417 . S
O984 C977 1.239 . S
O985 Cd943 2.330 . S
O985 C977 1.230 . S
H986 C972 0.929 . S
H987 C976 0.930 1_565 S
H988 C946 0.931 . S
H989 C948 0.930 . S
H990 C954 0.929 . S
H991 C956 0.931 . S
H992 C963 0.931 . S
H993 C965 0.930 . S
H994 C973 0.929 . S
H995 C975 0.931 . S
C996 C997 1.391 . S
C996 C998 1.394 . S
C996 H1012 0.931 . S
C997 C996 1.391 . S
C997 C1001 1.376 . S
C998 C996 1.394 . S
C998 C999 1.369 . S
C998 C1002 1.531 . S
C999 C998 1.369 . S
C999 C1000 1.410 . S
C999 C1007 1.503 . S
C1000 C999 1.410 . S
C1000 C1001 1.392 . S
C1000 C1003 1.511 . S
C1001 C997 1.376 . S
C1001 C1000 1.392 . S
C1001 H1013 0.929 . S
C1002 C998 1.531 . S
C1002 H1014 0.960 . S
C1002 H1015 0.962 . S
C1002 H1016 0.960 . S
C1003 C1000 1.511 . S
C1003 H1017 0.961 . S
C1003 H1018 0.961 . S
C1003 H1019 0.961 . S
C1004 C1005 1.370 . S
C1004 C1006 1.363 . S
C1004 H1020 0.931 . S
C1005 C1004 1.370 . S
C1005 C1009 1.408 . S
C1006 C1004 1.363 . S
C1006 C1007 1.370 . S
C1006 C1010 1.524 . S
C1007 C999 1.503 . S
C1007 C1006 1.370 . S
C1007 C1008 1.403 . S
C1008 C1007 1.403 . S
C1008 C1009 1.404 . S
C1008 C1011 1.539 . S
C1009 C1005 1.408 . S
C1009 C1008 1.404 . S
C1009 H1021 0.930 . S
C1010 C1006 1.524 . S
C1010 H1022 0.956 . S
C1010 H1023 0.961 . S
C1010 H1024 0.961 . S
C1011 C1008 1.539 . S
C1011 H1025 0.958 . S
C1011 H1026 0.961 . S
C1011 H1027 0.960 . S
H1012 C996 0.931 . S
H1013 C1001 0.929 . S
H1014 C1002 0.960 . S
H1015 C1002 0.962 . S
H1016 C1002 0.960 . S
H1017 C1003 0.961 . S
H1018 C1003 0.961 . S
H1019 C1003 0.961 . S
H1020 C1004 0.931 . S
H1021 C1009 0.930 . S
H1022 C1010 0.956 . S
H1023 C1010 0.961 . S
H1024 C1010 0.961 . S
H1025 C1011 0.958 . S
H1026 C1011 0.961 . S
H1027 C1011 0.960 . S
C1028 C1029 1.391 . S
C1028 C1030 1.394 . S
C1028 H1044 0.931 . S
C1029 C1028 1.391 . S
C1029 C1033 1.376 . S
C1030 C1028 1.394 . S
C1030 C1031 1.369 . S
C1030 C1034 1.531 . S
C1031 C1030 1.369 . S
C1031 C1032 1.410 . S
C1031 C1039 1.503 . S
C1032 C1031 1.410 . S
C1032 C1033 1.392 . S
C1032 C1035 1.511 . S
C1033 C1029 1.376 . S
C1033 C1032 1.392 . S
C1033 H1045 0.929 . S
C1034 C1030 1.531 . S
C1034 H1046 0.960 . S
C1034 H1047 0.962 . S
C1034 H1048 0.960 . S
C1035 C1032 1.511 . S
C1035 H1049 0.961 . S
C1035 H1050 0.961 . S
C1035 H1051 0.961 . S
C1036 C1037 1.370 . S
C1036 C1038 1.363 . S
C1036 H1052 0.931 . S
C1037 C1036 1.370 . S
C1037 C1041 1.408 . S
C1038 C1036 1.363 . S
C1038 C1039 1.370 . S
C1038 C1042 1.524 . S
C1039 C1031 1.503 . S
C1039 C1038 1.370 . S
C1039 C1040 1.403 . S
C1040 C1039 1.403 . S
C1040 C1041 1.404 . S
C1040 C1043 1.539 . S
C1041 C1037 1.408 . S
C1041 C1040 1.404 . S
C1041 H1053 0.930 . S
C1042 C1038 1.524 . S
C1042 H1054 0.956 . S
C1042 H1055 0.961 . S
C1042 H1056 0.961 . S
C1043 C1040 1.539 . S
C1043 H1057 0.958 . S
C1043 H1058 0.961 . S
C1043 H1059 0.960 . S
H1044 C1028 0.931 . S
H1045 C1033 0.929 . S
H1046 C1034 0.960 . S
H1047 C1034 0.962 . S
H1048 C1034 0.960 . S
H1049 C1035 0.961 . S
H1050 C1035 0.961 . S
H1051 C1035 0.961 . S
H1052 C1036 0.931 . S
H1053 C1041 0.930 . S
H1054 C1042 0.956 . S
H1055 C1042 0.961 . S
H1056 C1042 0.961 . S
H1057 C1043 0.958 . S
H1058 C1043 0.961 . S
H1059 C1043 0.960 . S
C1060 C1061 1.391 . S
C1060 C1062 1.394 . S
C1060 H1076 0.931 . S
C1061 C1060 1.391 . S
C1061 C1065 1.376 . S
C1062 C1060 1.394 . S
C1062 C1063 1.369 . S
C1062 C1066 1.531 . S
C1063 C1062 1.369 . S
C1063 C1064 1.410 . S
C1063 C1071 1.503 . S
C1064 C1063 1.410 . S
C1064 C1065 1.392 . S
C1064 C1067 1.511 . S
C1065 C1061 1.376 . S
C1065 C1064 1.392 . S
C1065 H1077 0.929 . S
C1066 C1062 1.531 . S
C1066 H1078 0.960 . S
C1066 H1079 0.962 . S
C1066 H1080 0.960 . S
C1067 C1064 1.511 . S
C1067 H1081 0.961 . S
C1067 H1082 0.961 . S
C1067 H1083 0.961 . S
C1068 C1069 1.370 . S
C1068 C1070 1.363 . S
C1068 H1084 0.931 . S
C1069 C1068 1.370 . S
C1069 C1073 1.408 . S
C1070 C1068 1.363 . S
C1070 C1071 1.370 . S
C1070 C1074 1.524 . S
C1071 C1063 1.503 . S
C1071 C1070 1.370 . S
C1071 C1072 1.403 . S
C1072 C1071 1.403 . S
C1072 C1073 1.404 . S
C1072 C1075 1.539 . S
C1073 C1069 1.408 . S
C1073 C1072 1.404 . S
C1073 H1085 0.930 . S
C1074 C1070 1.524 . S
C1074 H1086 0.956 . S
C1074 H1087 0.961 . S
C1074 H1088 0.961 . S
C1075 C1072 1.539 . S
C1075 H1089 0.958 . S
C1075 H1090 0.961 . S
C1075 H1091 0.960 . S
H1076 C1060 0.931 . S
H1077 C1065 0.929 . S
H1078 C1066 0.960 . S
H1079 C1066 0.962 . S
H1080 C1066 0.960 . S
H1081 C1067 0.961 . S
H1082 C1067 0.961 . S
H1083 C1067 0.961 . S
H1084 C1068 0.931 . S
H1085 C1073 0.930 . S
H1086 C1074 0.956 . S
H1087 C1074 0.961 . S
H1088 C1074 0.961 . S
H1089 C1075 0.958 . S
H1090 C1075 0.961 . S
H1091 C1075 0.960 . S
C1092 C1093 1.391 . S
C1092 C1094 1.394 . S
C1092 H1108 0.931 . S
C1093 C1092 1.391 . S
C1093 C1097 1.376 . S
C1094 C1092 1.394 . S
C1094 C1095 1.369 . S
C1094 C1098 1.531 . S
C1095 C1094 1.369 . S
C1095 C1096 1.410 . S
C1095 C1103 1.503 . S
C1096 C1095 1.410 . S
C1096 C1097 1.392 . S
C1096 C1099 1.511 . S
C1097 C1093 1.376 . S
C1097 C1096 1.392 . S
C1097 H1109 0.929 . S
C1098 C1094 1.531 . S
C1098 H1110 0.960 . S
C1098 H1111 0.962 . S
C1098 H1112 0.960 . S
C1099 C1096 1.511 . S
C1099 H1113 0.961 . S
C1099 H1114 0.961 . S
C1099 H1115 0.961 . S
C1100 C1101 1.370 . S
C1100 C1102 1.363 . S
C1100 H1116 0.931 . S
C1101 C1100 1.370 . S
C1101 C1105 1.408 . S
C1102 C1100 1.363 . S
C1102 C1103 1.370 . S
C1102 C1106 1.524 . S
C1103 C1095 1.503 . S
C1103 C1102 1.370 . S
C1103 C1104 1.403 . S
C1104 C1103 1.403 . S
C1104 C1105 1.404 . S
C1104 C1107 1.539 . S
C1105 C1101 1.408 . S
C1105 C1104 1.404 . S
C1105 H1117 0.930 . S
C1106 C1102 1.524 . S
C1106 H1118 0.956 . S
C1106 H1119 0.961 . S
C1106 H1120 0.961 . S
C1107 C1104 1.539 . S
C1107 H1121 0.958 . S
C1107 H1122 0.961 . S
C1107 H1123 0.960 . S
H1108 C1092 0.931 . S
H1109 C1097 0.929 . S
H1110 C1098 0.960 . S
H1111 C1098 0.962 . S
H1112 C1098 0.960 . S
H1113 C1099 0.961 . S
H1114 C1099 0.961 . S
H1115 C1099 0.961 . S
H1116 C1100 0.931 . S
H1117 C1105 0.930 . S
H1118 C1106 0.956 . S
H1119 C1106 0.961 . S
H1120 C1106 0.961 . S
H1121 C1107 0.958 . S
H1122 C1107 0.961 . S
H1123 C1107 0.960 . S
C1124 C1125 1.391 . S
C1124 C1126 1.394 . S
C1124 H1140 0.931 . S
C1125 C1124 1.391 . S
C1125 C1129 1.376 . S
C1126 C1124 1.394 . S
C1126 C1127 1.369 . S
C1126 C1130 1.531 . S
C1127 C1126 1.369 . S
C1127 C1128 1.410 . S
C1127 C1135 1.503 . S
C1128 C1127 1.410 . S
C1128 C1129 1.392 . S
C1128 C1131 1.511 . S
C1129 C1125 1.376 . S
C1129 C1128 1.392 . S
C1129 H1141 0.929 . S
C1130 C1126 1.531 . S
C1130 H1142 0.960 . S
C1130 H1143 0.962 . S
C1130 H1144 0.960 . S
C1131 C1128 1.511 . S
C1131 H1145 0.961 . S
C1131 H1146 0.961 . S
C1131 H1147 0.961 . S
C1132 C1133 1.370 . S
C1132 C1134 1.363 . S
C1132 H1148 0.931 . S
C1133 C1132 1.370 . S
C1133 C1137 1.408 . S
C1134 C1132 1.363 . S
C1134 C1135 1.370 . S
C1134 C1138 1.524 . S
C1135 C1127 1.503 . S
C1135 C1134 1.370 . S
C1135 C1136 1.403 . S
C1136 C1135 1.403 . S
C1136 C1137 1.404 . S
C1136 C1139 1.539 . S
C1137 C1133 1.408 . S
C1137 C1136 1.404 . S
C1137 H1149 0.930 . S
C1138 C1134 1.524 . S
C1138 H1150 0.956 . S
C1138 H1151 0.961 . S
C1138 H1152 0.961 . S
C1139 C1136 1.539 . S
C1139 H1153 0.958 . S
C1139 H1154 0.961 . S
C1139 H1155 0.960 . S
H1140 C1124 0.931 . S
H1141 C1129 0.929 . S
H1142 C1130 0.960 . S
H1143 C1130 0.962 . S
H1144 C1130 0.960 . S
H1145 C1131 0.961 . S
H1146 C1131 0.961 . S
H1147 C1131 0.961 . S
H1148 C1132 0.931 . S
H1149 C1137 0.930 . S
H1150 C1138 0.956 . S
H1151 C1138 0.961 . S
H1152 C1138 0.961 . S
H1153 C1139 0.958 . S
H1154 C1139 0.961 . S
H1155 C1139 0.960 . S
C1156 C1157 1.391 . S
C1156 C1158 1.394 . S
C1156 H1172 0.931 . S
C1157 C1156 1.391 . S
C1157 C1161 1.376 . S
C1158 C1156 1.394 . S
C1158 C1159 1.369 . S
C1158 C1162 1.531 . S
C1159 C1158 1.369 . S
C1159 C1160 1.410 . S
C1159 C1167 1.503 . S
C1160 C1159 1.410 . S
C1160 C1161 1.392 . S
C1160 C1163 1.511 . S
C1161 C1157 1.376 . S
C1161 C1160 1.392 . S
C1161 H1173 0.929 . S
C1162 C1158 1.531 . S
C1162 H1174 0.960 . S
C1162 H1175 0.962 . S
C1162 H1176 0.960 . S
C1163 C1160 1.511 . S
C1163 H1177 0.961 . S
C1163 H1178 0.961 . S
C1163 H1179 0.961 . S
C1164 C1165 1.370 . S
C1164 C1166 1.363 . S
C1164 H1180 0.931 . S
C1165 C1164 1.370 . S
C1165 C1169 1.408 . S
C1166 C1164 1.363 . S
C1166 C1167 1.370 . S
C1166 C1170 1.524 . S
C1167 C1159 1.503 . S
C1167 C1166 1.370 . S
C1167 C1168 1.403 . S
C1168 C1167 1.403 . S
C1168 C1169 1.404 . S
C1168 C1171 1.539 . S
C1169 C1165 1.408 . S
C1169 C1168 1.404 . S
C1169 H1181 0.930 . S
C1170 C1166 1.524 . S
C1170 H1182 0.956 . S
C1170 H1183 0.961 . S
C1170 H1184 0.961 . S
C1171 C1168 1.539 . S
C1171 H1185 0.958 . S
C1171 H1186 0.961 . S
C1171 H1187 0.960 . S
H1172 C1156 0.931 . S
H1173 C1161 0.929 . S
H1174 C1162 0.960 . S
H1175 C1162 0.962 . S
H1176 C1162 0.960 . S
H1177 C1163 0.961 . S
H1178 C1163 0.961 . S
H1179 C1163 0.961 . S
H1180 C1164 0.931 . S
H1181 C1169 0.930 . S
H1182 C1170 0.956 . S
H1183 C1170 0.961 . S
H1184 C1170 0.961 . S
H1185 C1171 0.958 . S
H1186 C1171 0.961 . S
H1187 C1171 0.960 . S
C1188 C1189 1.391 . S
C1188 C1190 1.394 . S
C1188 H1204 0.931 . S
C1189 C1188 1.391 . S
C1189 C1193 1.376 . S
C1190 C1188 1.394 . S
C1190 C1191 1.369 . S
C1190 C1194 1.531 . S
C1191 C1190 1.369 . S
C1191 C1192 1.410 . S
C1191 C1199 1.503 . S
C1192 C1191 1.410 . S
C1192 C1193 1.392 . S
C1192 C1195 1.511 . S
C1193 C1189 1.376 . S
C1193 C1192 1.392 . S
C1193 H1205 0.929 . S
C1194 C1190 1.531 . S
C1194 H1206 0.960 . S
C1194 H1207 0.962 . S
C1194 H1208 0.960 . S
C1195 C1192 1.511 . S
C1195 H1209 0.961 . S
C1195 H1210 0.961 . S
C1195 H1211 0.961 . S
C1196 C1197 1.370 . S
C1196 C1198 1.363 . S
C1196 H1212 0.931 . S
C1197 C1196 1.370 . S
C1197 C1201 1.408 . S
C1198 C1196 1.363 . S
C1198 C1199 1.370 . S
C1198 C1202 1.524 . S
C1199 C1191 1.503 . S
C1199 C1198 1.370 . S
C1199 C1200 1.403 . S
C1200 C1199 1.403 . S
C1200 C1201 1.404 . S
C1200 C1203 1.539 . S
C1201 C1197 1.408 . S
C1201 C1200 1.404 . S
C1201 H1213 0.930 . S
C1202 C1198 1.524 . S
C1202 H1214 0.956 . S
C1202 H1215 0.961 . S
C1202 H1216 0.961 . S
C1203 C1200 1.539 . S
C1203 H1217 0.958 . S
C1203 H1218 0.961 . S
C1203 H1219 0.960 . S
H1204 C1188 0.931 . S
H1205 C1193 0.929 . S
H1206 C1194 0.960 . S
H1207 C1194 0.962 . S
H1208 C1194 0.960 . S
H1209 C1195 0.961 . S
H1210 C1195 0.961 . S
H1211 C1195 0.961 . S
H1212 C1196 0.931 . S
H1213 C1201 0.930 . S
H1214 C1202 0.956 . S
H1215 C1202 0.961 . S
H1216 C1202 0.961 . S
H1217 C1203 0.958 . S
H1218 C1203 0.961 . S
H1219 C1203 0.960 . S
C1220 C1221 1.391 . S
C1220 C1222 1.394 . S
C1220 H1236 0.931 . S
C1221 C1220 1.391 . S
C1221 C1225 1.376 . S
C1222 C1220 1.394 . S
C1222 C1223 1.369 . S
C1222 C1226 1.531 . S
C1223 C1222 1.369 . S
C1223 C1224 1.410 . S
C1223 C1231 1.503 . S
C1224 C1223 1.410 . S
C1224 C1225 1.392 . S
C1224 C1227 1.511 . S
C1225 C1221 1.376 . S
C1225 C1224 1.392 . S
C1225 H1237 0.929 . S
C1226 C1222 1.531 . S
C1226 H1238 0.960 . S
C1226 H1239 0.962 . S
C1226 H1240 0.960 . S
C1227 C1224 1.511 . S
C1227 H1241 0.961 . S
C1227 H1242 0.961 . S
C1227 H1243 0.961 . S
C1228 C1229 1.370 . S
C1228 C1230 1.363 . S
C1228 H1244 0.931 . S
C1229 C1228 1.370 . S
C1229 C1233 1.408 . S
C1230 C1228 1.363 . S
C1230 C1231 1.370 . S
C1230 C1234 1.524 . S
C1231 C1223 1.503 . S
C1231 C1230 1.370 . S
C1231 C1232 1.403 . S
C1232 C1231 1.403 . S
C1232 C1233 1.404 . S
C1232 C1235 1.539 . S
C1233 C1229 1.408 . S
C1233 C1232 1.404 . S
C1233 H1245 0.930 . S
C1234 C1230 1.524 . S
C1234 H1246 0.956 . S
C1234 H1247 0.961 . S
C1234 H1248 0.961 . S
C1235 C1232 1.539 . S
C1235 H1249 0.958 . S
C1235 H1250 0.961 . S
C1235 H1251 0.960 . S
H1236 C1220 0.931 . S
H1237 C1225 0.929 . S
H1238 C1226 0.960 . S
H1239 C1226 0.962 . S
H1240 C1226 0.960 . S
H1241 C1227 0.961 . S
H1242 C1227 0.961 . S
H1243 C1227 0.961 . S
H1244 C1228 0.931 . S
H1245 C1233 0.930 . S
H1246 C1234 0.956 . S
H1247 C1234 0.961 . S
H1248 C1234 0.961 . S
H1249 C1235 0.958 . S
H1250 C1235 0.961 . S
H1251 C1235 0.960 . S
C1252 C1253 1.391 . S
C1252 C1254 1.394 . S
C1252 H1268 0.931 . S
C1253 C1252 1.391 . S
C1253 C1257 1.376 . S
C1254 C1252 1.394 . S
C1254 C1255 1.369 . S
C1254 C1258 1.531 . S
C1255 C1254 1.369 . S
C1255 C1256 1.410 . S
C1255 C1263 1.503 . S
C1256 C1255 1.410 . S
C1256 C1257 1.392 . S
C1256 C1259 1.511 . S
C1257 C1253 1.376 . S
C1257 C1256 1.392 . S
C1257 H1269 0.929 . S
C1258 C1254 1.531 . S
C1258 H1270 0.960 . S
C1258 H1271 0.962 . S
C1258 H1272 0.960 . S
C1259 C1256 1.511 . S
C1259 H1273 0.961 . S
C1259 H1274 0.961 . S
C1259 H1275 0.961 . S
C1260 C1261 1.370 . S
C1260 C1262 1.363 . S
C1260 H1276 0.931 . S
C1261 C1260 1.370 . S
C1261 C1265 1.408 . S
C1262 C1260 1.363 . S
C1262 C1263 1.370 . S
C1262 C1266 1.524 . S
C1263 C1255 1.503 . S
C1263 C1262 1.370 . S
C1263 C1264 1.403 . S
C1264 C1263 1.403 . S
C1264 C1265 1.404 . S
C1264 C1267 1.539 . S
C1265 C1261 1.408 . S
C1265 C1264 1.404 . S
C1265 H1277 0.930 . S
C1266 C1262 1.524 . S
C1266 H1278 0.956 . S
C1266 H1279 0.961 . S
C1266 H1280 0.961 . S
C1267 C1264 1.539 . S
C1267 H1281 0.958 . S
C1267 H1282 0.961 . S
C1267 H1283 0.960 . S
H1268 C1252 0.931 . S
H1269 C1257 0.929 . S
H1270 C1258 0.960 . S
H1271 C1258 0.962 . S
H1272 C1258 0.960 . S
H1273 C1259 0.961 . S
H1274 C1259 0.961 . S
H1275 C1259 0.961 . S
H1276 C1260 0.931 . S
H1277 C1265 0.930 . S
H1278 C1266 0.956 . S
H1279 C1266 0.961 . S
H1280 C1266 0.961 . S
H1281 C1267 0.958 . S
H1282 C1267 0.961 . S
H1283 C1267 0.960 . S
C1284 C1285 1.391 . S
C1284 C1286 1.394 . S
C1284 H1300 0.931 . S
C1285 C1284 1.391 . S
C1285 C1289 1.376 . S
C1286 C1284 1.394 . S
C1286 C1287 1.369 . S
C1286 C1290 1.531 . S
C1287 C1286 1.369 . S
C1287 C1288 1.410 . S
C1287 C1295 1.503 . S
C1288 C1287 1.410 . S
C1288 C1289 1.392 . S
C1288 C1291 1.511 . S
C1289 C1285 1.376 . S
C1289 C1288 1.392 . S
C1289 H1301 0.929 . S
C1290 C1286 1.531 . S
C1290 H1302 0.960 . S
C1290 H1303 0.962 . S
C1290 H1304 0.960 . S
C1291 C1288 1.511 . S
C1291 H1305 0.961 . S
C1291 H1306 0.961 . S
C1291 H1307 0.961 . S
C1292 C1293 1.370 . S
C1292 C1294 1.363 . S
C1292 H1308 0.931 . S
C1293 C1292 1.370 . S
C1293 C1297 1.408 . S
C1294 C1292 1.363 . S
C1294 C1295 1.370 . S
C1294 C1298 1.524 . S
C1295 C1287 1.503 . S
C1295 C1294 1.370 . S
C1295 C1296 1.403 . S
C1296 C1295 1.403 . S
C1296 C1297 1.404 . S
C1296 C1299 1.539 . S
C1297 C1293 1.408 . S
C1297 C1296 1.404 . S
C1297 H1309 0.930 . S
C1298 C1294 1.524 . S
C1298 H1310 0.956 . S
C1298 H1311 0.961 . S
C1298 H1312 0.961 . S
C1299 C1296 1.539 . S
C1299 H1313 0.958 . S
C1299 H1314 0.961 . S
C1299 H1315 0.960 . S
H1300 C1284 0.931 . S
H1301 C1289 0.929 . S
H1302 C1290 0.960 . S
H1303 C1290 0.962 . S
H1304 C1290 0.960 . S
H1305 C1291 0.961 . S
H1306 C1291 0.961 . S
H1307 C1291 0.961 . S
H1308 C1292 0.931 . S
H1309 C1297 0.930 . S
H1310 C1298 0.956 . S
H1311 C1298 0.961 . S
H1312 C1298 0.961 . S
H1313 C1299 0.958 . S
H1314 C1299 0.961 . S
H1315 C1299 0.960 . S
C1316 C1317 1.391 . S
C1316 C1318 1.394 . S
C1316 H1332 0.931 . S
C1317 C1316 1.391 . S
C1317 C1321 1.376 . S
C1318 C1316 1.394 . S
C1318 C1319 1.369 . S
C1318 C1322 1.531 . S
C1319 C1318 1.369 . S
C1319 C1320 1.410 . S
C1319 C1327 1.503 . S
C1320 C1319 1.410 . S
C1320 C1321 1.392 . S
C1320 C1323 1.511 . S
C1321 C1317 1.376 . S
C1321 C1320 1.392 . S
C1321 H1333 0.929 . S
C1322 C1318 1.531 . S
C1322 H1334 0.960 . S
C1322 H1335 0.962 . S
C1322 H1336 0.960 . S
C1323 C1320 1.511 . S
C1323 H1337 0.961 . S
C1323 H1338 0.961 . S
C1323 H1339 0.961 . S
C1324 C1325 1.370 . S
C1324 C1326 1.363 . S
C1324 H1340 0.931 . S
C1325 C1324 1.370 . S
C1325 C1329 1.408 . S
C1326 C1324 1.363 . S
C1326 C1327 1.370 . S
C1326 C1330 1.524 . S
C1327 C1319 1.503 . S
C1327 C1326 1.370 . S
C1327 C1328 1.403 . S
C1328 C1327 1.403 . S
C1328 C1329 1.404 . S
C1328 C1331 1.539 . S
C1329 C1325 1.408 . S
C1329 C1328 1.404 . S
C1329 H1341 0.930 . S
C1330 C1326 1.524 . S
C1330 H1342 0.956 . S
C1330 H1343 0.961 . S
C1330 H1344 0.961 . S
C1331 C1328 1.539 . S
C1331 H1345 0.958 . S
C1331 H1346 0.961 . S
C1331 H1347 0.960 . S
H1332 C1316 0.931 . S
H1333 C1321 0.929 . S
H1334 C1322 0.960 . S
H1335 C1322 0.962 . S
H1336 C1322 0.960 . S
H1337 C1323 0.961 . S
H1338 C1323 0.961 . S
H1339 C1323 0.961 . S
H1340 C1324 0.931 . S
H1341 C1329 0.930 . S
H1342 C1330 0.956 . S
H1343 C1330 0.961 . S
H1344 C1330 0.961 . S
H1345 C1331 0.958 . S
H1346 C1331 0.961 . S
H1347 C1331 0.960 . S
C1348 C1349 1.391 . S
C1348 C1350 1.394 . S
C1348 H1364 0.931 . S
C1349 C1348 1.391 . S
C1349 C1353 1.376 . S
C1350 C1348 1.394 . S
C1350 C1351 1.369 . S
C1350 C1354 1.531 . S
C1351 C1350 1.369 . S
C1351 C1352 1.410 . S
C1351 C1359 1.503 . S
C1352 C1351 1.410 . S
C1352 C1353 1.392 . S
C1352 C1355 1.511 . S
C1353 C1349 1.376 . S
C1353 C1352 1.392 . S
C1353 H1365 0.929 . S
C1354 C1350 1.531 . S
C1354 H1366 0.960 . S
C1354 H1367 0.962 . S
C1354 H1368 0.960 . S
C1355 C1352 1.511 . S
C1355 H1369 0.961 . S
C1355 H1370 0.961 . S
C1355 H1371 0.961 . S
C1356 C1357 1.370 . S
C1356 C1358 1.363 . S
C1356 H1372 0.931 . S
C1357 C1356 1.370 . S
C1357 C1361 1.408 . S
C1358 C1356 1.363 . S
C1358 C1359 1.370 . S
C1358 C1362 1.524 . S
C1359 C1351 1.503 . S
C1359 C1358 1.370 . S
C1359 C1360 1.403 . S
C1360 C1359 1.403 . S
C1360 C1361 1.404 . S
C1360 C1363 1.539 . S
C1361 C1357 1.408 . S
C1361 C1360 1.404 . S
C1361 H1373 0.930 . S
C1362 C1358 1.524 . S
C1362 H1374 0.956 . S
C1362 H1375 0.961 . S
C1362 H1376 0.961 . S
C1363 C1360 1.539 . S
C1363 H1377 0.958 . S
C1363 H1378 0.961 . S
C1363 H1379 0.960 . S
H1364 C1348 0.931 . S
H1365 C1353 0.929 . S
H1366 C1354 0.960 . S
H1367 C1354 0.962 . S
H1368 C1354 0.960 . S
H1369 C1355 0.961 . S
H1370 C1355 0.961 . S
H1371 C1355 0.961 . S
H1372 C1356 0.931 . S
H1373 C1361 0.930 . S
H1374 C1362 0.956 . S
H1375 C1362 0.961 . S
H1376 C1362 0.961 . S
H1377 C1363 0.958 . S
H1378 C1363 0.961 . S
H1379 C1363 0.960 . S
C1380 C1381 1.391 . S
C1380 C1382 1.394 . S
C1380 H1396 0.931 . S
C1381 C1380 1.391 . S
C1381 C1385 1.376 . S
C1382 C1380 1.394 . S
C1382 C1383 1.369 . S
C1382 C1386 1.531 . S
C1383 C1382 1.369 . S
C1383 C1384 1.410 . S
C1383 C1391 1.503 . S
C1384 C1383 1.410 . S
C1384 C1385 1.392 . S
C1384 C1387 1.511 . S
C1385 C1381 1.376 . S
C1385 C1384 1.392 . S
C1385 H1397 0.929 . S
C1386 C1382 1.531 . S
C1386 H1398 0.960 . S
C1386 H1399 0.962 . S
C1386 H1400 0.960 . S
C1387 C1384 1.511 . S
C1387 H1401 0.961 . S
C1387 H1402 0.961 . S
C1387 H1403 0.961 . S
C1388 C1389 1.370 . S
C1388 C1390 1.363 . S
C1388 H1404 0.931 . S
C1389 C1388 1.370 . S
C1389 C1393 1.408 . S
C1390 C1388 1.363 . S
C1390 C1391 1.370 . S
C1390 C1394 1.524 . S
C1391 C1383 1.503 . S
C1391 C1390 1.370 . S
C1391 C1392 1.403 . S
C1392 C1391 1.403 . S
C1392 C1393 1.404 . S
C1392 C1395 1.539 . S
C1393 C1389 1.408 . S
C1393 C1392 1.404 . S
C1393 H1405 0.930 . S
C1394 C1390 1.524 . S
C1394 H1406 0.956 . S
C1394 H1407 0.961 . S
C1394 H1408 0.961 . S
C1395 C1392 1.539 . S
C1395 H1409 0.958 . S
C1395 H1410 0.961 . S
C1395 H1411 0.960 . S
H1396 C1380 0.931 . S
H1397 C1385 0.929 . S
H1398 C1386 0.960 . S
H1399 C1386 0.962 . S
H1400 C1386 0.960 . S
H1401 C1387 0.961 . S
H1402 C1387 0.961 . S
H1403 C1387 0.961 . S
H1404 C1388 0.931 . S
H1405 C1393 0.930 . S
H1406 C1394 0.956 . S
H1407 C1394 0.961 . S
H1408 C1394 0.961 . S
H1409 C1395 0.958 . S
H1410 C1395 0.961 . S
H1411 C1395 0.960 . S
C1412 C1413 1.391 . S
C1412 C1414 1.394 . S
C1412 H1428 0.931 . S
C1413 C1412 1.391 . S
C1413 C1417 1.376 . S
C1414 C1412 1.394 . S
C1414 C1415 1.369 . S
C1414 C1418 1.531 . S
C1415 C1414 1.369 . S
C1415 C1416 1.410 . S
C1415 C1423 1.503 . S
C1416 C1415 1.410 . S
C1416 C1417 1.392 . S
C1416 C1419 1.511 . S
C1417 C1413 1.376 . S
C1417 C1416 1.392 . S
C1417 H1429 0.929 . S
C1418 C1414 1.531 . S
C1418 H1430 0.960 . S
C1418 H1431 0.962 . S
C1418 H1432 0.960 . S
C1419 C1416 1.511 . S
C1419 H1433 0.961 . S
C1419 H1434 0.961 . S
C1419 H1435 0.961 . S
C1420 C1421 1.370 . S
C1420 C1422 1.363 . S
C1420 H1436 0.931 . S
C1421 C1420 1.370 . S
C1421 C1425 1.408 . S
C1422 C1420 1.363 . S
C1422 C1423 1.370 . S
C1422 C1426 1.524 . S
C1423 C1415 1.503 . S
C1423 C1422 1.370 . S
C1423 C1424 1.403 . S
C1424 C1423 1.403 . S
C1424 C1425 1.404 . S
C1424 C1427 1.539 . S
C1425 C1421 1.408 . S
C1425 C1424 1.404 . S
C1425 H1437 0.930 . S
C1426 C1422 1.524 . S
C1426 H1438 0.956 . S
C1426 H1439 0.961 . S
C1426 H1440 0.961 . S
C1427 C1424 1.539 . S
C1427 H1441 0.958 . S
C1427 H1442 0.961 . S
C1427 H1443 0.960 . S
H1428 C1412 0.931 . S
H1429 C1417 0.929 . S
H1430 C1418 0.960 . S
H1431 C1418 0.962 . S
H1432 C1418 0.960 . S
H1433 C1419 0.961 . S
H1434 C1419 0.961 . S
H1435 C1419 0.961 . S
H1436 C1420 0.931 . S
H1437 C1425 0.930 . S
H1438 C1426 0.956 . S
H1439 C1426 0.961 . S
H1440 C1426 0.961 . S
H1441 C1427 0.958 . S
H1442 C1427 0.961 . S
H1443 C1427 0.960 . S
C1444 C1445 1.391 . S
C1444 C1446 1.394 . S
C1444 H1460 0.931 . S
C1445 C1444 1.391 . S
C1445 C1449 1.376 . S
C1446 C1444 1.394 . S
C1446 C1447 1.369 . S
C1446 C1450 1.531 . S
C1447 C1446 1.369 . S
C1447 C1448 1.410 . S
C1447 C1455 1.503 . S
C1448 C1447 1.410 . S
C1448 C1449 1.392 . S
C1448 C1451 1.511 . S
C1449 C1445 1.376 . S
C1449 C1448 1.392 . S
C1449 H1461 0.929 . S
C1450 C1446 1.531 . S
C1450 H1462 0.960 . S
C1450 H1463 0.962 . S
C1450 H1464 0.960 . S
C1451 C1448 1.511 . S
C1451 H1465 0.961 . S
C1451 H1466 0.961 . S
C1451 H1467 0.961 . S
C1452 C1453 1.370 . S
C1452 C1454 1.363 . S
C1452 H1468 0.931 . S
C1453 C1452 1.370 . S
C1453 C1457 1.408 . S
C1454 C1452 1.363 . S
C1454 C1455 1.370 . S
C1454 C1458 1.524 . S
C1455 C1447 1.503 . S
C1455 C1454 1.370 . S
C1455 C1456 1.403 . S
C1456 C1455 1.403 . S
C1456 C1457 1.404 . S
C1456 C1459 1.539 . S
C1457 C1453 1.408 . S
C1457 C1456 1.404 . S
C1457 H1469 0.930 . S
C1458 C1454 1.524 . S
C1458 H1470 0.956 . S
C1458 H1471 0.961 . S
C1458 H1472 0.961 . S
C1459 C1456 1.539 . S
C1459 H1473 0.958 . S
C1459 H1474 0.961 . S
C1459 H1475 0.960 . S
H1460 C1444 0.931 . S
H1461 C1449 0.929 . S
H1462 C1450 0.960 . S
H1463 C1450 0.962 . S
H1464 C1450 0.960 . S
H1465 C1451 0.961 . S
H1466 C1451 0.961 . S
H1467 C1451 0.961 . S
H1468 C1452 0.931 . S
H1469 C1457 0.930 . S
H1470 C1458 0.956 . S
H1471 C1458 0.961 . S
H1472 C1458 0.961 . S
H1473 C1459 0.958 . S
H1474 C1459 0.961 . S
H1475 C1459 0.960 . S
C1476 C1477 1.391 . S
C1476 C1478 1.394 . S
C1476 H1492 0.931 . S
C1477 C1476 1.391 . S
C1477 C1481 1.376 . S
C1478 C1476 1.394 . S
C1478 C1479 1.369 . S
C1478 C1482 1.531 . S
C1479 C1478 1.369 . S
C1479 C1480 1.410 . S
C1479 C1487 1.503 . S
C1480 C1479 1.410 . S
C1480 C1481 1.392 . S
C1480 C1483 1.511 . S
C1481 C1477 1.376 . S
C1481 C1480 1.392 . S
C1481 H1493 0.929 . S
C1482 C1478 1.531 . S
C1482 H1494 0.960 . S
C1482 H1495 0.962 . S
C1482 H1496 0.960 . S
C1483 C1480 1.511 . S
C1483 H1497 0.961 . S
C1483 H1498 0.961 . S
C1483 H1499 0.961 . S
C1484 C1485 1.370 . S
C1484 C1486 1.363 . S
C1484 H1500 0.931 . S
C1485 C1484 1.370 . S
C1485 C1489 1.408 . S
C1486 C1484 1.363 . S
C1486 C1487 1.370 . S
C1486 C1490 1.524 . S
C1487 C1479 1.503 . S
C1487 C1486 1.370 . S
C1487 C1488 1.403 . S
C1488 C1487 1.403 . S
C1488 C1489 1.404 . S
C1488 C1491 1.539 . S
C1489 C1485 1.408 . S
C1489 C1488 1.404 . S
C1489 H1501 0.930 1_556 S
C1490 C1486 1.524 . S
C1490 H1502 0.956 . S
C1490 H1503 0.961 . S
C1490 H1504 0.961 . S
C1491 C1488 1.539 . S
C1491 H1505 0.958 1_556 S
C1491 H1506 0.961 1_556 S
C1491 H1507 0.960 . S
H1492 C1476 0.931 . S
H1493 C1481 0.929 . S
H1494 C1482 0.960 . S
H1495 C1482 0.962 . S
H1496 C1482 0.960 . S
H1497 C1483 0.961 . S
H1498 C1483 0.961 . S
H1499 C1483 0.961 . S
H1500 C1484 0.931 . S
H1501 C1489 0.930 1_554 S
H1502 C1490 0.956 . S
H1503 C1490 0.961 . S
H1504 C1490 0.961 . S
H1505 C1491 0.958 1_554 S
H1506 C1491 0.961 1_554 S
H1507 C1491 0.960 . S
C1508 C1509 1.391 . S
C1508 C1510 1.394 . S
C1508 H1524 0.931 . S
C1509 C1508 1.391 . S
C1509 C1513 1.376 . S
C1510 C1508 1.394 . S
C1510 C1511 1.369 . S
C1510 C1514 1.531 . S
C1511 C1510 1.369 . S
C1511 C1512 1.410 . S
C1511 C1519 1.503 . S
C1512 C1511 1.410 . S
C1512 C1513 1.392 . S
C1512 C1515 1.511 . S
C1513 C1509 1.376 . S
C1513 C1512 1.392 . S
C1513 H1525 0.929 . S
C1514 C1510 1.531 . S
C1514 H1526 0.960 . S
C1514 H1527 0.962 . S
C1514 H1528 0.960 . S
C1515 C1512 1.511 . S
C1515 H1529 0.961 . S
C1515 H1530 0.961 . S
C1515 H1531 0.961 . S
C1516 C1517 1.370 . S
C1516 C1518 1.363 . S
C1516 H1532 0.931 . S
C1517 C1516 1.370 . S
C1517 C1521 1.408 . S
C1518 C1516 1.363 . S
C1518 C1519 1.370 . S
C1518 C1522 1.524 . S
C1519 C1511 1.503 . S
C1519 C1518 1.370 . S
C1519 C1520 1.403 . S
C1520 C1519 1.403 . S
C1520 C1521 1.404 . S
C1520 C1523 1.539 . S
C1521 C1517 1.408 . S
C1521 C1520 1.404 . S
C1521 H1533 0.930 . S
C1522 C1518 1.524 . S
C1522 H1534 0.956 . S
C1522 H1535 0.961 . S
C1522 H1536 0.961 . S
C1523 C1520 1.539 . S
C1523 H1537 0.958 . S
C1523 H1538 0.961 . S
C1523 H1539 0.960 . S
H1524 C1508 0.931 . S
H1525 C1513 0.929 . S
H1526 C1514 0.960 . S
H1527 C1514 0.962 . S
H1528 C1514 0.960 . S
H1529 C1515 0.961 . S
H1530 C1515 0.961 . S
H1531 C1515 0.961 . S
H1532 C1516 0.931 . S
H1533 C1521 0.930 . S
H1534 C1522 0.956 . S
H1535 C1522 0.961 . S
H1536 C1522 0.961 . S
H1537 C1523 0.958 . S
H1538 C1523 0.961 . S
H1539 C1523 0.960 . S
C1540 C1541 1.391 . S
C1540 C1542 1.394 . S
C1540 H1556 0.931 . S
C1541 C1540 1.391 . S
C1541 C1545 1.376 . S
C1542 C1540 1.394 . S
C1542 C1543 1.369 . S
C1542 C1546 1.531 . S
C1543 C1542 1.369 . S
C1543 C1544 1.410 . S
C1543 C1551 1.503 . S
C1544 C1543 1.410 . S
C1544 C1545 1.392 . S
C1544 C1547 1.511 . S
C1545 C1541 1.376 . S
C1545 C1544 1.392 . S
C1545 H1557 0.929 . S
C1546 C1542 1.531 . S
C1546 H1558 0.960 . S
C1546 H1559 0.962 . S
C1546 H1560 0.960 . S
C1547 C1544 1.511 . S
C1547 H1561 0.961 . S
C1547 H1562 0.961 . S
C1547 H1563 0.961 . S
C1548 C1549 1.370 . S
C1548 C1550 1.363 . S
C1548 H1564 0.931 . S
C1549 C1548 1.370 . S
C1549 C1553 1.408 . S
C1550 C1548 1.363 . S
C1550 C1551 1.370 . S
C1550 C1554 1.524 . S
C1551 C1543 1.503 . S
C1551 C1550 1.370 . S
C1551 C1552 1.403 . S
C1552 C1551 1.403 . S
C1552 C1553 1.404 . S
C1552 C1555 1.539 . S
C1553 C1549 1.408 . S
C1553 C1552 1.404 . S
C1553 H1565 0.930 . S
C1554 C1550 1.524 . S
C1554 H1566 0.956 . S
C1554 H1567 0.961 . S
C1554 H1568 0.961 . S
C1555 C1552 1.539 . S
C1555 H1569 0.958 . S
C1555 H1570 0.961 . S
C1555 H1571 0.960 . S
H1556 C1540 0.931 . S
H1557 C1545 0.929 . S
H1558 C1546 0.960 . S
H1559 C1546 0.962 . S
H1560 C1546 0.960 . S
H1561 C1547 0.961 . S
H1562 C1547 0.961 . S
H1563 C1547 0.961 . S
H1564 C1548 0.931 . S
H1565 C1553 0.930 . S
H1566 C1554 0.956 . S
H1567 C1554 0.961 . S
H1568 C1554 0.961 . S
H1569 C1555 0.958 . S
H1570 C1555 0.961 . S
H1571 C1555 0.960 . S
C1572 C1573 1.391 . S
C1572 C1574 1.394 . S
C1572 H1588 0.931 . S
C1573 C1572 1.391 . S
C1573 C1577 1.376 . S
C1574 C1572 1.394 . S
C1574 C1575 1.369 . S
C1574 C1578 1.531 . S
C1575 C1574 1.369 . S
C1575 C1576 1.410 . S
C1575 C1583 1.503 . S
C1576 C1575 1.410 . S
C1576 C1577 1.392 . S
C1576 C1579 1.511 . S
C1577 C1573 1.376 . S
C1577 C1576 1.392 . S
C1577 H1589 0.929 . S
C1578 C1574 1.531 . S
C1578 H1590 0.960 . S
C1578 H1591 0.962 . S
C1578 H1592 0.960 . S
C1579 C1576 1.511 . S
C1579 H1593 0.961 . S
C1579 H1594 0.961 . S
C1579 H1595 0.961 . S
C1580 C1581 1.370 . S
C1580 C1582 1.363 . S
C1580 H1596 0.931 . S
C1581 C1580 1.370 . S
C1581 C1585 1.408 . S
C1582 C1580 1.363 . S
C1582 C1583 1.370 . S
C1582 C1586 1.524 . S
C1583 C1575 1.503 . S
C1583 C1582 1.370 . S
C1583 C1584 1.403 . S
C1584 C1583 1.403 . S
C1584 C1585 1.404 . S
C1584 C1587 1.539 . S
C1585 C1581 1.408 . S
C1585 C1584 1.404 . S
C1585 H1597 0.930 . S
C1586 C1582 1.524 . S
C1586 H1598 0.956 . S
C1586 H1599 0.961 . S
C1586 H1600 0.961 . S
C1587 C1584 1.539 . S
C1587 H1601 0.958 . S
C1587 H1602 0.961 . S
C1587 H1603 0.960 . S
H1588 C1572 0.931 . S
H1589 C1577 0.929 . S
H1590 C1578 0.960 . S
H1591 C1578 0.962 . S
H1592 C1578 0.960 . S
H1593 C1579 0.961 . S
H1594 C1579 0.961 . S
H1595 C1579 0.961 . S
H1596 C1580 0.931 . S
H1597 C1585 0.930 . S
H1598 C1586 0.956 . S
H1599 C1586 0.961 . S
H1600 C1586 0.961 . S
H1601 C1587 0.958 . S
H1602 C1587 0.961 . S
H1603 C1587 0.960 . S
C1604 C1605 1.391 . S
C1604 C1606 1.394 . S
C1604 H1620 0.931 . S
C1605 C1604 1.391 . S
C1605 C1609 1.376 . S
C1606 C1604 1.394 . S
C1606 C1607 1.369 . S
C1606 C1610 1.531 . S
C1607 C1606 1.369 . S
C1607 C1608 1.410 . S
C1607 C1615 1.503 . S
C1608 C1607 1.410 . S
C1608 C1609 1.392 . S
C1608 C1611 1.511 . S
C1609 C1605 1.376 . S
C1609 C1608 1.392 . S
C1609 H1621 0.929 . S
C1610 C1606 1.531 . S
C1610 H1622 0.960 . S
C1610 H1623 0.962 . S
C1610 H1624 0.960 . S
C1611 C1608 1.511 . S
C1611 H1625 0.961 . S
C1611 H1626 0.961 . S
C1611 H1627 0.961 . S
C1612 C1613 1.370 . S
C1612 C1614 1.363 . S
C1612 H1628 0.931 . S
C1613 C1612 1.370 . S
C1613 C1617 1.408 . S
C1614 C1612 1.363 . S
C1614 C1615 1.370 . S
C1614 C1618 1.524 . S
C1615 C1607 1.503 . S
C1615 C1614 1.370 . S
C1615 C1616 1.403 . S
C1616 C1615 1.403 . S
C1616 C1617 1.404 . S
C1616 C1619 1.539 . S
C1617 C1613 1.408 . S
C1617 C1616 1.404 . S
C1617 H1629 0.930 . S
C1618 C1614 1.524 . S
C1618 H1630 0.956 . S
C1618 H1631 0.961 . S
C1618 H1632 0.961 . S
C1619 C1616 1.539 . S
C1619 H1633 0.958 . S
C1619 H1634 0.961 . S
C1619 H1635 0.960 . S
H1620 C1604 0.931 . S
H1621 C1609 0.929 . S
H1622 C1610 0.960 . S
H1623 C1610 0.962 . S
H1624 C1610 0.960 . S
H1625 C1611 0.961 . S
H1626 C1611 0.961 . S
H1627 C1611 0.961 . S
H1628 C1612 0.931 . S
H1629 C1617 0.930 . S
H1630 C1618 0.956 . S
H1631 C1618 0.961 . S
H1632 C1618 0.961 . S
H1633 C1619 0.958 . S
H1634 C1619 0.961 . S
H1635 C1619 0.960 . S
C1636 C1637 1.391 . S
C1636 C1638 1.394 . S
C1636 H1652 0.931 . S
C1637 C1636 1.391 . S
C1637 C1641 1.376 . S
C1638 C1636 1.394 . S
C1638 C1639 1.369 . S
C1638 C1642 1.531 . S
C1639 C1638 1.369 . S
C1639 C1640 1.410 . S
C1639 C1647 1.503 . S
C1640 C1639 1.410 . S
C1640 C1641 1.392 . S
C1640 C1643 1.511 . S
C1641 C1637 1.376 . S
C1641 C1640 1.392 . S
C1641 H1653 0.929 . S
C1642 C1638 1.531 . S
C1642 H1654 0.960 . S
C1642 H1655 0.962 . S
C1642 H1656 0.960 . S
C1643 C1640 1.511 . S
C1643 H1657 0.961 . S
C1643 H1658 0.961 . S
C1643 H1659 0.961 . S
C1644 C1645 1.370 . S
C1644 C1646 1.363 . S
C1644 H1660 0.931 . S
C1645 C1644 1.370 . S
C1645 C1649 1.408 . S
C1646 C1644 1.363 . S
C1646 C1647 1.370 . S
C1646 C1650 1.524 . S
C1647 C1639 1.503 . S
C1647 C1646 1.370 . S
C1647 C1648 1.403 . S
C1648 C1647 1.403 . S
C1648 C1649 1.404 . S
C1648 C1651 1.539 . S
C1649 C1645 1.408 . S
C1649 C1648 1.404 . S
C1649 H1661 0.930 . S
C1650 C1646 1.524 . S
C1650 H1662 0.956 . S
C1650 H1663 0.961 . S
C1650 H1664 0.961 . S
C1651 C1648 1.539 . S
C1651 H1665 0.958 . S
C1651 H1666 0.961 . S
C1651 H1667 0.960 . S
H1652 C1636 0.931 . S
H1653 C1641 0.929 . S
H1654 C1642 0.960 . S
H1655 C1642 0.962 . S
H1656 C1642 0.960 . S
H1657 C1643 0.961 . S
H1658 C1643 0.961 . S
H1659 C1643 0.961 . S
H1660 C1644 0.931 . S
H1661 C1649 0.930 . S
H1662 C1650 0.956 . S
H1663 C1650 0.961 . S
H1664 C1650 0.961 . S
H1665 C1651 0.958 . S
H1666 C1651 0.961 . S
H1667 C1651 0.960 . S
C1668 C1669 1.391 . S
C1668 C1670 1.394 . S
C1668 H1684 0.931 . S
C1669 C1668 1.391 . S
C1669 C1673 1.376 . S
C1670 C1668 1.394 . S
C1670 C1671 1.369 . S
C1670 C1674 1.531 . S
C1671 C1670 1.369 . S
C1671 C1672 1.410 . S
C1671 C1679 1.503 . S
C1672 C1671 1.410 . S
C1672 C1673 1.392 . S
C1672 C1675 1.511 . S
C1673 C1669 1.376 . S
C1673 C1672 1.392 . S
C1673 H1685 0.929 . S
C1674 C1670 1.531 . S
C1674 H1686 0.960 . S
C1674 H1687 0.962 . S
C1674 H1688 0.960 . S
C1675 C1672 1.511 . S
C1675 H1689 0.961 . S
C1675 H1690 0.961 . S
C1675 H1691 0.961 . S
C1676 C1677 1.370 . S
C1676 C1678 1.363 . S
C1676 H1692 0.931 . S
C1677 C1676 1.370 . S
C1677 C1681 1.408 . S
C1678 C1676 1.363 . S
C1678 C1679 1.370 . S
C1678 C1682 1.524 . S
C1679 C1671 1.503 . S
C1679 C1678 1.370 . S
C1679 C1680 1.403 . S
C1680 C1679 1.403 . S
C1680 C1681 1.404 . S
C1680 C1683 1.539 . S
C1681 C1677 1.408 . S
C1681 C1680 1.404 . S
C1681 H1693 0.930 . S
C1682 C1678 1.524 . S
C1682 H1694 0.956 . S
C1682 H1695 0.961 . S
C1682 H1696 0.961 . S
C1683 C1680 1.539 . S
C1683 H1697 0.958 . S
C1683 H1698 0.961 . S
C1683 H1699 0.960 . S
H1684 C1668 0.931 . S
H1685 C1673 0.929 . S
H1686 C1674 0.960 . S
H1687 C1674 0.962 . S
H1688 C1674 0.960 . S
H1689 C1675 0.961 . S
H1690 C1675 0.961 . S
H1691 C1675 0.961 . S
H1692 C1676 0.931 . S
H1693 C1681 0.930 . S
H1694 C1682 0.956 . S
H1695 C1682 0.961 . S
H1696 C1682 0.961 . S
H1697 C1683 0.958 . S
H1698 C1683 0.961 . S
H1699 C1683 0.960 . S
C1700 C1701 1.391 . S
C1700 C1702 1.394 . S
C1700 H1716 0.931 . S
C1701 C1700 1.391 . S
C1701 C1705 1.376 . S
C1702 C1700 1.394 . S
C1702 C1703 1.369 . S
C1702 C1706 1.531 . S
C1703 C1702 1.369 . S
C1703 C1704 1.410 . S
C1703 C1711 1.503 . S
C1704 C1703 1.410 . S
C1704 C1705 1.392 . S
C1704 C1707 1.511 . S
C1705 C1701 1.376 . S
C1705 C1704 1.392 . S
C1705 H1717 0.929 . S
C1706 C1702 1.531 . S
C1706 H1718 0.960 . S
C1706 H1719 0.962 . S
C1706 H1720 0.960 . S
C1707 C1704 1.511 . S
C1707 H1721 0.961 . S
C1707 H1722 0.961 . S
C1707 H1723 0.961 . S
C1708 C1709 1.370 . S
C1708 C1710 1.363 . S
C1708 H1724 0.931 . S
C1709 C1708 1.370 . S
C1709 C1713 1.408 . S
C1710 C1708 1.363 . S
C1710 C1711 1.370 . S
C1710 C1714 1.524 . S
C1711 C1703 1.503 . S
C1711 C1710 1.370 . S
C1711 C1712 1.403 . S
C1712 C1711 1.403 . S
C1712 C1713 1.404 . S
C1712 C1715 1.539 . S
C1713 C1709 1.408 . S
C1713 C1712 1.404 . S
C1713 H1725 0.930 . S
C1714 C1710 1.524 . S
C1714 H1726 0.956 . S
C1714 H1727 0.961 . S
C1714 H1728 0.961 . S
C1715 C1712 1.539 . S
C1715 H1729 0.958 . S
C1715 H1730 0.961 . S
C1715 H1731 0.960 . S
H1716 C1700 0.931 . S
H1717 C1705 0.929 . S
H1718 C1706 0.960 . S
H1719 C1706 0.962 . S
H1720 C1706 0.960 . S
H1721 C1707 0.961 . S
H1722 C1707 0.961 . S
H1723 C1707 0.961 . S
H1724 C1708 0.931 . S
H1725 C1713 0.930 . S
H1726 C1714 0.956 . S
H1727 C1714 0.961 . S
H1728 C1714 0.961 . S
H1729 C1715 0.958 . S
H1730 C1715 0.961 . S
H1731 C1715 0.960 . S
C1732 C1733 1.391 . S
C1732 C1734 1.394 . S
C1732 H1748 0.931 . S
C1733 C1732 1.391 . S
C1733 C1737 1.376 . S
C1734 C1732 1.394 . S
C1734 C1735 1.369 . S
C1734 C1738 1.531 . S
C1735 C1734 1.369 . S
C1735 C1736 1.410 . S
C1735 C1743 1.503 . S
C1736 C1735 1.410 . S
C1736 C1737 1.392 . S
C1736 C1739 1.511 . S
C1737 C1733 1.376 . S
C1737 C1736 1.392 . S
C1737 H1749 0.929 . S
C1738 C1734 1.531 . S
C1738 H1750 0.960 . S
C1738 H1751 0.962 . S
C1738 H1752 0.960 . S
C1739 C1736 1.511 . S
C1739 H1753 0.961 . S
C1739 H1754 0.961 . S
C1739 H1755 0.961 . S
C1740 C1741 1.370 . S
C1740 C1742 1.363 . S
C1740 H1756 0.931 . S
C1741 C1740 1.370 . S
C1741 C1745 1.408 . S
C1742 C1740 1.363 . S
C1742 C1743 1.370 . S
C1742 C1746 1.524 . S
C1743 C1735 1.503 . S
C1743 C1742 1.370 . S
C1743 C1744 1.403 . S
C1744 C1743 1.403 . S
C1744 C1745 1.404 . S
C1744 C1747 1.539 . S
C1745 C1741 1.408 . S
C1745 C1744 1.404 . S
C1745 H1757 0.930 . S
C1746 C1742 1.524 . S
C1746 H1758 0.956 . S
C1746 H1759 0.961 . S
C1746 H1760 0.961 . S
C1747 C1744 1.539 . S
C1747 H1761 0.958 . S
C1747 H1762 0.961 . S
C1747 H1763 0.960 . S
H1748 C1732 0.931 . S
H1749 C1737 0.929 . S
H1750 C1738 0.960 . S
H1751 C1738 0.962 . S
H1752 C1738 0.960 . S
H1753 C1739 0.961 . S
H1754 C1739 0.961 . S
H1755 C1739 0.961 . S
H1756 C1740 0.931 . S
H1757 C1745 0.930 . S
H1758 C1746 0.956 . S
H1759 C1746 0.961 . S
H1760 C1746 0.961 . S
H1761 C1747 0.958 . S
H1762 C1747 0.961 . S
H1763 C1747 0.960 . S
C1764 C1765 1.391 . S
C1764 C1766 1.394 . S
C1764 H1780 0.931 . S
C1765 C1764 1.391 . S
C1765 C1769 1.376 . S
C1766 C1764 1.394 . S
C1766 C1767 1.369 . S
C1766 C1770 1.531 . S
C1767 C1766 1.369 . S
C1767 C1768 1.410 . S
C1767 C1775 1.503 . S
C1768 C1767 1.410 . S
C1768 C1769 1.392 . S
C1768 C1771 1.511 . S
C1769 C1765 1.376 . S
C1769 C1768 1.392 . S
C1769 H1781 0.929 . S
C1770 C1766 1.531 . S
C1770 H1782 0.960 . S
C1770 H1783 0.962 . S
C1770 H1784 0.960 . S
C1771 C1768 1.511 . S
C1771 H1785 0.961 . S
C1771 H1786 0.961 . S
C1771 H1787 0.961 . S
C1772 C1773 1.370 . S
C1772 C1774 1.363 . S
C1772 H1788 0.931 . S
C1773 C1772 1.370 . S
C1773 C1777 1.408 . S
C1774 C1772 1.363 . S
C1774 C1775 1.370 . S
C1774 C1778 1.524 . S
C1775 C1767 1.503 . S
C1775 C1774 1.370 . S
C1775 C1776 1.403 . S
C1776 C1775 1.403 . S
C1776 C1777 1.404 . S
C1776 C1779 1.539 . S
C1777 C1773 1.408 . S
C1777 C1776 1.404 . S
C1777 H1789 0.930 . S
C1778 C1774 1.524 . S
C1778 H1790 0.956 . S
C1778 H1791 0.961 . S
C1778 H1792 0.961 . S
C1779 C1776 1.539 . S
C1779 H1793 0.958 . S
C1779 H1794 0.961 . S
C1779 H1795 0.960 . S
H1780 C1764 0.931 . S
H1781 C1769 0.929 . S
H1782 C1770 0.960 . S
H1783 C1770 0.962 . S
H1784 C1770 0.960 . S
H1785 C1771 0.961 . S
H1786 C1771 0.961 . S
H1787 C1771 0.961 . S
H1788 C1772 0.931 . S
H1789 C1777 0.930 . S
H1790 C1778 0.956 . S
H1791 C1778 0.961 . S
H1792 C1778 0.961 . S
H1793 C1779 0.958 . S
H1794 C1779 0.961 . S
H1795 C1779 0.960 . S
C1796 C1797 1.391 . S
C1796 C1798 1.394 . S
C1796 H1812 0.931 . S
C1797 C1796 1.391 . S
C1797 C1801 1.376 . S
C1798 C1796 1.394 . S
C1798 C1799 1.369 . S
C1798 C1802 1.531 . S
C1799 C1798 1.369 . S
C1799 C1800 1.410 . S
C1799 C1807 1.503 . S
C1800 C1799 1.410 . S
C1800 C1801 1.392 . S
C1800 C1803 1.511 . S
C1801 C1797 1.376 . S
C1801 C1800 1.392 . S
C1801 H1813 0.929 . S
C1802 C1798 1.531 . S
C1802 H1814 0.960 . S
C1802 H1815 0.962 . S
C1802 H1816 0.960 . S
C1803 C1800 1.511 . S
C1803 H1817 0.961 . S
C1803 H1818 0.961 . S
C1803 H1819 0.961 . S
C1804 C1805 1.370 . S
C1804 C1806 1.363 . S
C1804 H1820 0.931 . S
C1805 C1804 1.370 . S
C1805 C1809 1.408 . S
C1806 C1804 1.363 . S
C1806 C1807 1.370 . S
C1806 C1810 1.524 . S
C1807 C1799 1.503 . S
C1807 C1806 1.370 . S
C1807 C1808 1.403 . S
C1808 C1807 1.403 . S
C1808 C1809 1.404 . S
C1808 C1811 1.539 . S
C1809 C1805 1.408 . S
C1809 C1808 1.404 . S
C1809 H1821 0.930 . S
C1810 C1806 1.524 . S
C1810 H1822 0.956 . S
C1810 H1823 0.961 . S
C1810 H1824 0.961 . S
C1811 C1808 1.539 . S
C1811 H1825 0.958 . S
C1811 H1826 0.961 . S
C1811 H1827 0.960 . S
H1812 C1796 0.931 . S
H1813 C1801 0.929 . S
H1814 C1802 0.960 . S
H1815 C1802 0.962 . S
H1816 C1802 0.960 . S
H1817 C1803 0.961 . S
H1818 C1803 0.961 . S
H1819 C1803 0.961 . S
H1820 C1804 0.931 . S
H1821 C1809 0.930 . S
H1822 C1810 0.956 . S
H1823 C1810 0.961 . S
H1824 C1810 0.961 . S
H1825 C1811 0.958 . S
H1826 C1811 0.961 . S
H1827 C1811 0.960 . S
C1828 C1829 1.391 . S
C1828 C1830 1.394 . S
C1828 H1844 0.931 . S
C1829 C1828 1.391 . S
C1829 C1833 1.376 . S
C1830 C1828 1.394 . S
C1830 C1831 1.369 . S
C1830 C1834 1.531 . S
C1831 C1830 1.369 . S
C1831 C1832 1.410 . S
C1831 C1839 1.503 . S
C1832 C1831 1.410 . S
C1832 C1833 1.392 . S
C1832 C1835 1.511 . S
C1833 C1829 1.376 . S
C1833 C1832 1.392 . S
C1833 H1845 0.929 . S
C1834 C1830 1.531 . S
C1834 H1846 0.960 . S
C1834 H1847 0.962 . S
C1834 H1848 0.960 . S
C1835 C1832 1.511 . S
C1835 H1849 0.961 . S
C1835 H1850 0.961 . S
C1835 H1851 0.961 . S
C1836 C1837 1.370 . S
C1836 C1838 1.363 . S
C1836 H1852 0.931 . S
C1837 C1836 1.370 . S
C1837 C1841 1.408 . S
C1838 C1836 1.363 . S
C1838 C1839 1.370 . S
C1838 C1842 1.524 . S
C1839 C1831 1.503 . S
C1839 C1838 1.370 . S
C1839 C1840 1.403 . S
C1840 C1839 1.403 . S
C1840 C1841 1.404 . S
C1840 C1843 1.539 . S
C1841 C1837 1.408 . S
C1841 C1840 1.404 . S
C1841 H1853 0.930 . S
C1842 C1838 1.524 . S
C1842 H1854 0.956 . S
C1842 H1855 0.961 . S
C1842 H1856 0.961 . S
C1843 C1840 1.539 . S
C1843 H1857 0.958 . S
C1843 H1858 0.961 . S
C1843 H1859 0.960 . S
H1844 C1828 0.931 . S
H1845 C1833 0.929 . S
H1846 C1834 0.960 . S
H1847 C1834 0.962 . S
H1848 C1834 0.960 . S
H1849 C1835 0.961 . S
H1850 C1835 0.961 . S
H1851 C1835 0.961 . S
H1852 C1836 0.931 . S
H1853 C1841 0.930 . S
H1854 C1842 0.956 . S
H1855 C1842 0.961 . S
H1856 C1842 0.961 . S
H1857 C1843 0.958 . S
H1858 C1843 0.961 . S
H1859 C1843 0.960 . S
C1860 C1861 1.391 . S
C1860 C1862 1.394 . S
C1860 H1876 0.931 . S
C1861 C1860 1.391 . S
C1861 C1865 1.376 . S
C1862 C1860 1.394 . S
C1862 C1863 1.369 . S
C1862 C1866 1.531 . S
C1863 C1862 1.369 . S
C1863 C1864 1.410 . S
C1863 C1871 1.503 . S
C1864 C1863 1.410 . S
C1864 C1865 1.392 . S
C1864 C1867 1.511 . S
C1865 C1861 1.376 . S
C1865 C1864 1.392 . S
C1865 H1877 0.929 . S
C1866 C1862 1.531 . S
C1866 H1878 0.960 . S
C1866 H1879 0.962 . S
C1866 H1880 0.960 . S
C1867 C1864 1.511 . S
C1867 H1881 0.961 . S
C1867 H1882 0.961 . S
C1867 H1883 0.961 . S
C1868 C1869 1.370 . S
C1868 C1870 1.363 . S
C1868 H1884 0.931 . S
C1869 C1868 1.370 . S
C1869 C1873 1.408 . S
C1870 C1868 1.363 . S
C1870 C1871 1.370 . S
C1870 C1874 1.524 . S
C1871 C1863 1.503 . S
C1871 C1870 1.370 . S
C1871 C1872 1.403 . S
C1872 C1871 1.403 . S
C1872 C1873 1.404 . S
C1872 C1875 1.539 . S
C1873 C1869 1.408 . S
C1873 C1872 1.404 . S
C1873 H1885 0.930 1_556 S
C1874 C1870 1.524 . S
C1874 H1886 0.956 . S
C1874 H1887 0.961 . S
C1874 H1888 0.961 . S
C1875 C1872 1.539 . S
C1875 H1889 0.958 . S
C1875 H1890 0.961 1_556 S
C1875 H1891 0.960 . S
H1876 C1860 0.931 . S
H1877 C1865 0.929 . S
H1878 C1866 0.960 . S
H1879 C1866 0.962 . S
H1880 C1866 0.960 . S
H1881 C1867 0.961 . S
H1882 C1867 0.961 . S
H1883 C1867 0.961 . S
H1884 C1868 0.931 . S
H1885 C1873 0.930 1_554 S
H1886 C1874 0.956 . S
H1887 C1874 0.961 . S
H1888 C1874 0.961 . S
H1889 C1875 0.958 . S
H1890 C1875 0.961 1_554 S
H1891 C1875 0.960 . S
C1892 C1893 1.391 . S
C1892 C1894 1.394 . S
C1892 H1908 0.931 . S
C1893 C1892 1.391 . S
C1893 C1897 1.376 . S
C1894 C1892 1.394 . S
C1894 C1895 1.369 . S
C1894 C1898 1.531 . S
C1895 C1894 1.369 . S
C1895 C1896 1.410 . S
C1895 C1903 1.503 . S
C1896 C1895 1.410 . S
C1896 C1897 1.392 . S
C1896 C1899 1.511 . S
C1897 C1893 1.376 . S
C1897 C1896 1.392 . S
C1897 H1909 0.929 . S
C1898 C1894 1.531 . S
C1898 H1910 0.960 . S
C1898 H1911 0.962 . S
C1898 H1912 0.960 . S
C1899 C1896 1.511 . S
C1899 H1913 0.961 . S
C1899 H1914 0.961 . S
C1899 H1915 0.961 . S
C1900 C1901 1.370 . S
C1900 C1902 1.363 . S
C1900 H1916 0.931 . S
C1901 C1900 1.370 . S
C1901 C1905 1.408 . S
C1902 C1900 1.363 . S
C1902 C1903 1.370 . S
C1902 C1906 1.524 . S
C1903 C1895 1.503 . S
C1903 C1902 1.370 . S
C1903 C1904 1.403 . S
C1904 C1903 1.403 . S
C1904 C1905 1.404 . S
C1904 C1907 1.539 . S
C1905 C1901 1.408 . S
C1905 C1904 1.404 . S
C1905 H1917 0.930 . S
C1906 C1902 1.524 . S
C1906 H1918 0.956 . S
C1906 H1919 0.961 . S
C1906 H1920 0.961 . S
C1907 C1904 1.539 . S
C1907 H1921 0.958 . S
C1907 H1922 0.961 . S
C1907 H1923 0.960 . S
H1908 C1892 0.931 . S
H1909 C1897 0.929 . S
H1910 C1898 0.960 . S
H1911 C1898 0.962 . S
H1912 C1898 0.960 . S
H1913 C1899 0.961 . S
H1914 C1899 0.961 . S
H1915 C1899 0.961 . S
H1916 C1900 0.931 . S
H1917 C1905 0.930 . S
H1918 C1906 0.956 . S
H1919 C1906 0.961 . S
H1920 C1906 0.961 . S
H1921 C1907 0.958 . S
H1922 C1907 0.961 . S
H1923 C1907 0.960 . S
C1924 C1925 1.391 . S
C1924 C1926 1.394 . S
C1924 H1940 0.931 . S
C1925 C1924 1.391 . S
C1925 C1929 1.376 . S
C1926 C1924 1.394 . S
C1926 C1927 1.369 . S
C1926 C1930 1.531 . S
C1927 C1926 1.369 . S
C1927 C1928 1.410 . S
C1927 C1935 1.503 . S
C1928 C1927 1.410 . S
C1928 C1929 1.392 . S
C1928 C1931 1.511 . S
C1929 C1925 1.376 . S
C1929 C1928 1.392 . S
C1929 H1941 0.929 . S
C1930 C1926 1.531 . S
C1930 H1942 0.960 . S
C1930 H1943 0.962 . S
C1930 H1944 0.960 . S
C1931 C1928 1.511 . S
C1931 H1945 0.961 . S
C1931 H1946 0.961 . S
C1931 H1947 0.961 . S
C1932 C1933 1.370 . S
C1932 C1934 1.363 . S
C1932 H1948 0.931 . S
C1933 C1932 1.370 . S
C1933 C1937 1.408 . S
C1934 C1932 1.363 . S
C1934 C1935 1.370 . S
C1934 C1938 1.524 . S
C1935 C1927 1.503 . S
C1935 C1934 1.370 . S
C1935 C1936 1.403 . S
C1936 C1935 1.403 . S
C1936 C1937 1.404 . S
C1936 C1939 1.539 . S
C1937 C1933 1.408 . S
C1937 C1936 1.404 . S
C1937 H1949 0.930 . S
C1938 C1934 1.524 . S
C1938 H1950 0.956 . S
C1938 H1951 0.961 . S
C1938 H1952 0.961 . S
C1939 C1936 1.539 . S
C1939 H1953 0.958 . S
C1939 H1954 0.961 . S
C1939 H1955 0.960 . S
H1940 C1924 0.931 . S
H1941 C1929 0.929 . S
H1942 C1930 0.960 . S
H1943 C1930 0.962 . S
H1944 C1930 0.960 . S
H1945 C1931 0.961 . S
H1946 C1931 0.961 . S
H1947 C1931 0.961 . S
H1948 C1932 0.931 . S
H1949 C1937 0.930 . S
H1950 C1938 0.956 . S
H1951 C1938 0.961 . S
H1952 C1938 0.961 . S
H1953 C1939 0.958 . S
H1954 C1939 0.961 . S
H1955 C1939 0.960 . S
C1956 C1957 1.391 . S
C1956 C1958 1.394 . S
C1956 H1972 0.931 . S
C1957 C1956 1.391 . S
C1957 C1961 1.376 . S
C1958 C1956 1.394 . S
C1958 C1959 1.369 . S
C1958 C1962 1.531 . S
C1959 C1958 1.369 . S
C1959 C1960 1.410 . S
C1959 C1967 1.503 . S
C1960 C1959 1.410 . S
C1960 C1961 1.392 . S
C1960 C1963 1.511 . S
C1961 C1957 1.376 . S
C1961 C1960 1.392 . S
C1961 H1973 0.929 . S
C1962 C1958 1.531 . S
C1962 H1974 0.960 . S
C1962 H1975 0.962 . S
C1962 H1976 0.960 . S
C1963 C1960 1.511 . S
C1963 H1977 0.961 . S
C1963 H1978 0.961 . S
C1963 H1979 0.961 . S
C1964 C1965 1.370 . S
C1964 C1966 1.363 . S
C1964 H1980 0.931 . S
C1965 C1964 1.370 . S
C1965 C1969 1.408 . S
C1966 C1964 1.363 . S
C1966 C1967 1.370 . S
C1966 C1970 1.524 . S
C1967 C1959 1.503 . S
C1967 C1966 1.370 . S
C1967 C1968 1.403 . S
C1968 C1967 1.403 . S
C1968 C1969 1.404 . S
C1968 C1971 1.539 . S
C1969 C1965 1.408 . S
C1969 C1968 1.404 . S
C1969 H1981 0.930 . S
C1970 C1966 1.524 . S
C1970 H1982 0.956 . S
C1970 H1983 0.961 . S
C1970 H1984 0.961 . S
C1971 C1968 1.539 . S
C1971 H1985 0.958 . S
C1971 H1986 0.961 . S
C1971 H1987 0.960 . S
H1972 C1956 0.931 . S
H1973 C1961 0.929 . S
H1974 C1962 0.960 . S
H1975 C1962 0.962 . S
H1976 C1962 0.960 . S
H1977 C1963 0.961 . S
H1978 C1963 0.961 . S
H1979 C1963 0.961 . S
H1980 C1964 0.931 . S
H1981 C1969 0.930 . S
H1982 C1970 0.956 . S
H1983 C1970 0.961 . S
H1984 C1970 0.961 . S
H1985 C1971 0.958 . S
H1986 C1971 0.961 . S
H1987 C1971 0.960 . S
C1988 C1989 1.391 . S
C1988 C1990 1.394 . S
C1988 H2004 0.931 . S
C1989 C1988 1.391 . S
C1989 C1993 1.376 . S
C1990 C1988 1.394 . S
C1990 C1991 1.369 . S
C1990 C1994 1.531 . S
C1991 C1990 1.369 . S
C1991 C1992 1.410 . S
C1991 C1999 1.503 . S
C1992 C1991 1.410 . S
C1992 C1993 1.392 . S
C1992 C1995 1.511 . S
C1993 C1989 1.376 . S
C1993 C1992 1.392 . S
C1993 H2005 0.929 . S
C1994 C1990 1.531 . S
C1994 H2006 0.960 . S
C1994 H2007 0.962 . S
C1994 H2008 0.960 . S
C1995 C1992 1.511 . S
C1995 H2009 0.961 . S
C1995 H2010 0.961 . S
C1995 H2011 0.961 . S
C1996 C1997 1.370 . S
C1996 C1998 1.363 . S
C1996 H2012 0.931 . S
C1997 C1996 1.370 . S
C1997 C2001 1.408 . S
C1998 C1996 1.363 . S
C1998 C1999 1.370 . S
C1998 C2002 1.524 . S
C1999 C1991 1.503 . S
C1999 C1998 1.370 . S
C1999 C2000 1.403 . S
C2000 C1999 1.403 . S
C2000 C2001 1.404 . S
C2000 C2003 1.539 . S
C2001 C1997 1.408 . S
C2001 C2000 1.404 . S
C2001 H2013 0.930 . S
C2002 C1998 1.524 . S
C2002 H2014 0.956 . S
C2002 H2015 0.961 . S
C2002 H2016 0.961 . S
C2003 C2000 1.539 . S
C2003 H2017 0.958 . S
C2003 H2018 0.961 . S
C2003 H2019 0.960 . S
H2004 C1988 0.931 . S
H2005 C1993 0.929 . S
H2006 C1994 0.960 . S
H2007 C1994 0.962 . S
H2008 C1994 0.960 . S
H2009 C1995 0.961 . S
H2010 C1995 0.961 . S
H2011 C1995 0.961 . S
H2012 C1996 0.931 . S
H2013 C2001 0.930 . S
H2014 C2002 0.956 . S
H2015 C2002 0.961 . S
H2016 C2002 0.961 . S
H2017 C2003 0.958 . S
H2018 C2003 0.961 . S
H2019 C2003 0.960 . S
C2020 C2021 1.391 . S
C2020 C2022 1.394 . S
C2020 H2036 0.931 . S
C2021 C2020 1.391 . S
C2021 C2025 1.376 . S
C2022 C2020 1.394 . S
C2022 C2023 1.369 . S
C2022 C2026 1.531 . S
C2023 C2022 1.369 . S
C2023 C2024 1.410 . S
C2023 C2031 1.503 . S
C2024 C2023 1.410 . S
C2024 C2025 1.392 . S
C2024 C2027 1.511 . S
C2025 C2021 1.376 . S
C2025 C2024 1.392 . S
C2025 H2037 0.929 . S
C2026 C2022 1.531 . S
C2026 H2038 0.960 . S
C2026 H2039 0.962 . S
C2026 H2040 0.960 . S
C2027 C2024 1.511 . S
C2027 H2041 0.961 . S
C2027 H2042 0.961 . S
C2027 H2043 0.961 . S
C2028 C2029 1.370 . S
C2028 C2030 1.363 . S
C2028 H2044 0.931 . S
C2029 C2028 1.370 . S
C2029 C2033 1.408 . S
C2030 C2028 1.363 . S
C2030 C2031 1.370 . S
C2030 C2034 1.524 . S
C2031 C2023 1.503 . S
C2031 C2030 1.370 . S
C2031 C2032 1.403 . S
C2032 C2031 1.403 . S
C2032 C2033 1.404 . S
C2032 C2035 1.539 . S
C2033 C2029 1.408 . S
C2033 C2032 1.404 . S
C2033 H2045 0.930 . S
C2034 C2030 1.524 . S
C2034 H2046 0.956 . S
C2034 H2047 0.961 . S
C2034 H2048 0.961 . S
C2035 C2032 1.539 . S
C2035 H2049 0.958 . S
C2035 H2050 0.961 . S
C2035 H2051 0.960 . S
H2036 C2020 0.931 . S
H2037 C2025 0.929 . S
H2038 C2026 0.960 . S
H2039 C2026 0.962 . S
H2040 C2026 0.960 . S
H2041 C2027 0.961 . S
H2042 C2027 0.961 . S
H2043 C2027 0.961 . S
H2044 C2028 0.931 . S
H2045 C2033 0.930 . S
H2046 C2034 0.956 . S
H2047 C2034 0.961 . S
H2048 C2034 0.961 . S
H2049 C2035 0.958 . S
H2050 C2035 0.961 . S
H2051 C2035 0.960 . S
C2052 C2053 1.391 . S
C2052 C2054 1.394 . S
C2052 H2068 0.931 . S
C2053 C2052 1.391 . S
C2053 C2057 1.376 . S
C2054 C2052 1.394 . S
C2054 C2055 1.369 . S
C2054 C2058 1.531 . S
C2055 C2054 1.369 . S
C2055 C2056 1.410 . S
C2055 C2063 1.503 . S
C2056 C2055 1.410 . S
C2056 C2057 1.392 . S
C2056 C2059 1.511 . S
C2057 C2053 1.376 . S
C2057 C2056 1.392 . S
C2057 H2069 0.929 . S
C2058 C2054 1.531 . S
C2058 H2070 0.960 . S
C2058 H2071 0.962 . S
C2058 H2072 0.960 . S
C2059 C2056 1.511 . S
C2059 H2073 0.961 . S
C2059 H2074 0.961 . S
C2059 H2075 0.961 . S
C2060 C2061 1.370 . S
C2060 C2062 1.363 . S
C2060 H2076 0.931 . S
C2061 C2060 1.370 . S
C2061 C2065 1.408 . S
C2062 C2060 1.363 . S
C2062 C2063 1.370 . S
C2062 C2066 1.524 . S
C2063 C2055 1.503 . S
C2063 C2062 1.370 . S
C2063 C2064 1.403 . S
C2064 C2063 1.403 . S
C2064 C2065 1.404 . S
C2064 C2067 1.539 . S
C2065 C2061 1.408 . S
C2065 C2064 1.404 . S
C2065 H2077 0.930 . S
C2066 C2062 1.524 . S
C2066 H2078 0.956 . S
C2066 H2079 0.961 . S
C2066 H2080 0.961 . S
C2067 C2064 1.539 . S
C2067 H2081 0.958 . S
C2067 H2082 0.961 . S
C2067 H2083 0.960 . S
H2068 C2052 0.931 . S
H2069 C2057 0.929 . S
H2070 C2058 0.960 . S
H2071 C2058 0.962 . S
H2072 C2058 0.960 . S
H2073 C2059 0.961 . S
H2074 C2059 0.961 . S
H2075 C2059 0.961 . S
H2076 C2060 0.931 . S
H2077 C2065 0.930 . S
H2078 C2066 0.956 . S
H2079 C2066 0.961 . S
H2080 C2066 0.961 . S
H2081 C2067 0.958 . S
H2082 C2067 0.961 . S
H2083 C2067 0.960 . S
C2084 C2085 1.391 . S
C2084 C2086 1.394 . S
C2084 H2100 0.931 . S
C2085 C2084 1.391 . S
C2085 C2089 1.376 . S
C2086 C2084 1.394 . S
C2086 C2087 1.369 . S
C2086 C2090 1.531 . S
C2087 C2086 1.369 . S
C2087 C2088 1.410 . S
C2087 C2095 1.503 . S
C2088 C2087 1.410 . S
C2088 C2089 1.392 . S
C2088 C2091 1.511 . S
C2089 C2085 1.376 . S
C2089 C2088 1.392 . S
C2089 H2101 0.929 . S
C2090 C2086 1.531 . S
C2090 H2102 0.960 . S
C2090 H2103 0.962 . S
C2090 H2104 0.960 . S
C2091 C2088 1.511 . S
C2091 H2105 0.961 . S
C2091 H2106 0.961 . S
C2091 H2107 0.961 . S
C2092 C2093 1.370 . S
C2092 C2094 1.363 . S
C2092 H2108 0.931 . S
C2093 C2092 1.370 . S
C2093 C2097 1.408 . S
C2094 C2092 1.363 . S
C2094 C2095 1.370 . S
C2094 C2098 1.524 . S
C2095 C2087 1.503 . S
C2095 C2094 1.370 . S
C2095 C2096 1.403 . S
C2096 C2095 1.403 . S
C2096 C2097 1.404 . S
C2096 C2099 1.539 . S
C2097 C2093 1.408 . S
C2097 C2096 1.404 . S
C2097 H2109 0.930 . S
C2098 C2094 1.524 . S
C2098 H2110 0.956 . S
C2098 H2111 0.961 . S
C2098 H2112 0.961 . S
C2099 C2096 1.539 . S
C2099 H2113 0.958 . S
C2099 H2114 0.961 . S
C2099 H2115 0.960 . S
H2100 C2084 0.931 . S
H2101 C2089 0.929 . S
H2102 C2090 0.960 . S
H2103 C2090 0.962 . S
H2104 C2090 0.960 . S
H2105 C2091 0.961 . S
H2106 C2091 0.961 . S
H2107 C2091 0.961 . S
H2108 C2092 0.931 . S
H2109 C2097 0.930 . S
H2110 C2098 0.956 . S
H2111 C2098 0.961 . S
H2112 C2098 0.961 . S
H2113 C2099 0.958 . S
H2114 C2099 0.961 . S
H2115 C2099 0.960 . S
C2116 C2117 1.391 . S
C2116 C2118 1.394 . S
C2116 H2132 0.931 . S
C2117 C2116 1.391 . S
C2117 C2121 1.376 . S
C2118 C2116 1.394 . S
C2118 C2119 1.369 . S
C2118 C2122 1.531 . S
C2119 C2118 1.369 . S
C2119 C2120 1.410 . S
C2119 C2127 1.503 . S
C2120 C2119 1.410 . S
C2120 C2121 1.392 . S
C2120 C2123 1.511 . S
C2121 C2117 1.376 . S
C2121 C2120 1.392 . S
C2121 H2133 0.929 . S
C2122 C2118 1.531 . S
C2122 H2134 0.960 . S
C2122 H2135 0.962 . S
C2122 H2136 0.960 . S
C2123 C2120 1.511 . S
C2123 H2137 0.961 . S
C2123 H2138 0.961 . S
C2123 H2139 0.961 . S
C2124 C2125 1.370 . S
C2124 C2126 1.363 . S
C2124 H2140 0.931 . S
C2125 C2124 1.370 . S
C2125 C2129 1.408 . S
C2126 C2124 1.363 . S
C2126 C2127 1.370 . S
C2126 C2130 1.524 . S
C2127 C2119 1.503 . S
C2127 C2126 1.370 . S
C2127 C2128 1.403 . S
C2128 C2127 1.403 . S
C2128 C2129 1.404 . S
C2128 C2131 1.539 . S
C2129 C2125 1.408 . S
C2129 C2128 1.404 . S
C2129 H2141 0.930 . S
C2130 C2126 1.524 . S
C2130 H2142 0.956 . S
C2130 H2143 0.961 . S
C2130 H2144 0.961 . S
C2131 C2128 1.539 . S
C2131 H2145 0.958 . S
C2131 H2146 0.961 . S
C2131 H2147 0.960 . S
H2132 C2116 0.931 . S
H2133 C2121 0.929 . S
H2134 C2122 0.960 . S
H2135 C2122 0.962 . S
H2136 C2122 0.960 . S
H2137 C2123 0.961 . S
H2138 C2123 0.961 . S
H2139 C2123 0.961 . S
H2140 C2124 0.931 . S
H2141 C2129 0.930 . S
H2142 C2130 0.956 . S
H2143 C2130 0.961 . S
H2144 C2130 0.961 . S
H2145 C2131 0.958 . S
H2146 C2131 0.961 . S
H2147 C2131 0.960 . S
C2148 C2149 1.391 . S
C2148 C2150 1.394 . S
C2148 H2164 0.931 . S
C2149 C2148 1.391 . S
C2149 C2153 1.376 . S
C2150 C2148 1.394 . S
C2150 C2151 1.369 . S
C2150 C2154 1.531 . S
C2151 C2150 1.369 . S
C2151 C2152 1.410 . S
C2151 C2159 1.503 . S
C2152 C2151 1.410 . S
C2152 C2153 1.392 . S
C2152 C2155 1.511 . S
C2153 C2149 1.376 . S
C2153 C2152 1.392 . S
C2153 H2165 0.929 . S
C2154 C2150 1.531 . S
C2154 H2166 0.960 . S
C2154 H2167 0.962 . S
C2154 H2168 0.960 . S
C2155 C2152 1.511 . S
C2155 H2169 0.961 . S
C2155 H2170 0.961 . S
C2155 H2171 0.961 . S
C2156 C2157 1.370 . S
C2156 C2158 1.363 . S
C2156 H2172 0.931 . S
C2157 C2156 1.370 . S
C2157 C2161 1.408 . S
C2158 C2156 1.363 . S
C2158 C2159 1.370 . S
C2158 C2162 1.524 . S
C2159 C2151 1.503 . S
C2159 C2158 1.370 . S
C2159 C2160 1.403 . S
C2160 C2159 1.403 . S
C2160 C2161 1.404 . S
C2160 C2163 1.539 . S
C2161 C2157 1.408 . S
C2161 C2160 1.404 . S
C2161 H2173 0.930 . S
C2162 C2158 1.524 . S
C2162 H2174 0.956 . S
C2162 H2175 0.961 . S
C2162 H2176 0.961 . S
C2163 C2160 1.539 . S
C2163 H2177 0.958 . S
C2163 H2178 0.961 . S
C2163 H2179 0.960 . S
H2164 C2148 0.931 . S
H2165 C2153 0.929 . S
H2166 C2154 0.960 . S
H2167 C2154 0.962 . S
H2168 C2154 0.960 . S
H2169 C2155 0.961 . S
H2170 C2155 0.961 . S
H2171 C2155 0.961 . S
H2172 C2156 0.931 . S
H2173 C2161 0.930 . S
H2174 C2162 0.956 . S
H2175 C2162 0.961 . S
H2176 C2162 0.961 . S
H2177 C2163 0.958 . S
H2178 C2163 0.961 . S
H2179 C2163 0.960 . S
C2180 C2181 1.391 . S
C2180 C2182 1.394 . S
C2180 H2196 0.931 . S
C2181 C2180 1.391 . S
C2181 C2185 1.376 . S
C2182 C2180 1.394 . S
C2182 C2183 1.369 . S
C2182 C2186 1.531 . S
C2183 C2182 1.369 . S
C2183 C2184 1.410 . S
C2183 C2191 1.503 . S
C2184 C2183 1.410 . S
C2184 C2185 1.392 . S
C2184 C2187 1.511 . S
C2185 C2181 1.376 . S
C2185 C2184 1.392 . S
C2185 H2197 0.929 . S
C2186 C2182 1.531 . S
C2186 H2198 0.960 . S
C2186 H2199 0.962 . S
C2186 H2200 0.960 . S
C2187 C2184 1.511 . S
C2187 H2201 0.961 . S
C2187 H2202 0.961 . S
C2187 H2203 0.961 . S
C2188 C2189 1.370 . S
C2188 C2190 1.363 . S
C2188 H2204 0.931 . S
C2189 C2188 1.370 . S
C2189 C2193 1.408 . S
C2190 C2188 1.363 . S
C2190 C2191 1.370 . S
C2190 C2194 1.524 . S
C2191 C2183 1.503 . S
C2191 C2190 1.370 . S
C2191 C2192 1.403 . S
C2192 C2191 1.403 . S
C2192 C2193 1.404 . S
C2192 C2195 1.539 . S
C2193 C2189 1.408 . S
C2193 C2192 1.404 . S
C2193 H2205 0.930 . S
C2194 C2190 1.524 . S
C2194 H2206 0.956 . S
C2194 H2207 0.961 . S
C2194 H2208 0.961 . S
C2195 C2192 1.539 . S
C2195 H2209 0.958 . S
C2195 H2210 0.961 . S
C2195 H2211 0.960 . S
H2196 C2180 0.931 . S
H2197 C2185 0.929 . S
H2198 C2186 0.960 . S
H2199 C2186 0.962 . S
H2200 C2186 0.960 . S
H2201 C2187 0.961 . S
H2202 C2187 0.961 . S
H2203 C2187 0.961 . S
H2204 C2188 0.931 . S
H2205 C2193 0.930 . S
H2206 C2194 0.956 . S
H2207 C2194 0.961 . S
H2208 C2194 0.961 . S
H2209 C2195 0.958 . S
H2210 C2195 0.961 . S
H2211 C2195 0.960 . S
C2212 C2213 1.391 . S
C2212 C2214 1.394 . S
C2212 H2228 0.931 . S
C2213 C2212 1.391 . S
C2213 C2217 1.376 . S
C2214 C2212 1.394 . S
C2214 C2215 1.369 . S
C2214 C2218 1.531 . S
C2215 C2214 1.369 . S
C2215 C2216 1.410 . S
C2215 C2223 1.503 . S
C2216 C2215 1.410 . S
C2216 C2217 1.392 . S
C2216 C2219 1.511 . S
C2217 C2213 1.376 . S
C2217 C2216 1.392 . S
C2217 H2229 0.929 . S
C2218 C2214 1.531 . S
C2218 H2230 0.960 . S
C2218 H2231 0.962 . S
C2218 H2232 0.960 . S
C2219 C2216 1.511 . S
C2219 H2233 0.961 . S
C2219 H2234 0.961 . S
C2219 H2235 0.961 . S
C2220 C2221 1.370 . S
C2220 C2222 1.363 . S
C2220 H2236 0.931 . S
C2221 C2220 1.370 . S
C2221 C2225 1.408 . S
C2222 C2220 1.363 . S
C2222 C2223 1.370 . S
C2222 C2226 1.524 . S
C2223 C2215 1.503 . S
C2223 C2222 1.370 . S
C2223 C2224 1.403 . S
C2224 C2223 1.403 . S
C2224 C2225 1.404 . S
C2224 C2227 1.539 . S
C2225 C2221 1.408 . S
C2225 C2224 1.404 . S
C2225 H2237 0.930 . S
C2226 C2222 1.524 . S
C2226 H2238 0.956 . S
C2226 H2239 0.961 . S
C2226 H2240 0.961 . S
C2227 C2224 1.539 . S
C2227 H2241 0.958 . S
C2227 H2242 0.961 . S
C2227 H2243 0.960 . S
H2228 C2212 0.931 . S
H2229 C2217 0.929 . S
H2230 C2218 0.960 . S
H2231 C2218 0.962 . S
H2232 C2218 0.960 . S
H2233 C2219 0.961 . S
H2234 C2219 0.961 . S
H2235 C2219 0.961 . S
H2236 C2220 0.931 . S
H2237 C2225 0.930 . S
H2238 C2226 0.956 . S
H2239 C2226 0.961 . S
H2240 C2226 0.961 . S
H2241 C2227 0.958 . S
H2242 C2227 0.961 . S
H2243 C2227 0.960 . S
C2244 C2245 1.391 . S
C2244 C2246 1.394 . S
C2244 H2260 0.931 . S
C2245 C2244 1.391 . S
C2245 C2249 1.376 . S
C2246 C2244 1.394 . S
C2246 C2247 1.369 . S
C2246 C2250 1.531 . S
C2247 C2246 1.369 . S
C2247 C2248 1.410 . S
C2247 C2255 1.503 . S
C2248 C2247 1.410 . S
C2248 C2249 1.392 . S
C2248 C2251 1.511 . S
C2249 C2245 1.376 . S
C2249 C2248 1.392 . S
C2249 H2261 0.929 . S
C2250 C2246 1.531 . S
C2250 H2262 0.960 . S
C2250 H2263 0.962 . S
C2250 H2264 0.960 . S
C2251 C2248 1.511 . S
C2251 H2265 0.961 . S
C2251 H2266 0.961 . S
C2251 H2267 0.961 . S
C2252 C2253 1.370 . S
C2252 C2254 1.363 . S
C2252 H2268 0.931 . S
C2253 C2252 1.370 . S
C2253 C2257 1.408 . S
C2254 C2252 1.363 . S
C2254 C2255 1.370 . S
C2254 C2258 1.524 . S
C2255 C2247 1.503 . S
C2255 C2254 1.370 . S
C2255 C2256 1.403 . S
C2256 C2255 1.403 . S
C2256 C2257 1.404 . S
C2256 C2259 1.539 . S
C2257 C2253 1.408 . S
C2257 C2256 1.404 . S
C2257 H2269 0.930 . S
C2258 C2254 1.524 . S
C2258 H2270 0.956 . S
C2258 H2271 0.961 . S
C2258 H2272 0.961 . S
C2259 C2256 1.539 . S
C2259 H2273 0.958 . S
C2259 H2274 0.961 . S
C2259 H2275 0.960 . S
H2260 C2244 0.931 . S
H2261 C2249 0.929 . S
H2262 C2250 0.960 . S
H2263 C2250 0.962 . S
H2264 C2250 0.960 . S
H2265 C2251 0.961 . S
H2266 C2251 0.961 . S
H2267 C2251 0.961 . S
H2268 C2252 0.931 . S
H2269 C2257 0.930 . S
H2270 C2258 0.956 . S
H2271 C2258 0.961 . S
H2272 C2258 0.961 . S
H2273 C2259 0.958 . S
H2274 C2259 0.961 . S
H2275 C2259 0.960 . S
C2276 C2277 1.391 . S
C2276 C2278 1.394 . S
C2276 H2292 0.931 . S
C2277 C2276 1.391 . S
C2277 C2281 1.376 . S
C2278 C2276 1.394 . S
C2278 C2279 1.369 . S
C2278 C2282 1.531 . S
C2279 C2278 1.369 . S
C2279 C2280 1.410 . S
C2279 C2287 1.503 . S
C2280 C2279 1.410 . S
C2280 C2281 1.392 . S
C2280 C2283 1.511 . S
C2281 C2277 1.376 . S
C2281 C2280 1.392 . S
C2281 H2293 0.929 . S
C2282 C2278 1.531 . S
C2282 H2294 0.960 . S
C2282 H2295 0.962 . S
C2282 H2296 0.960 . S
C2283 C2280 1.511 . S
C2283 H2297 0.961 . S
C2283 H2298 0.961 . S
C2283 H2299 0.961 . S
C2284 C2285 1.370 . S
C2284 C2286 1.363 . S
C2284 H2300 0.931 . S
C2285 C2284 1.370 . S
C2285 C2289 1.408 . S
C2286 C2284 1.363 . S
C2286 C2287 1.370 . S
C2286 C2290 1.524 . S
C2287 C2279 1.503 . S
C2287 C2286 1.370 . S
C2287 C2288 1.403 . S
C2288 C2287 1.403 . S
C2288 C2289 1.404 . S
C2288 C2291 1.539 . S
C2289 C2285 1.408 . S
C2289 C2288 1.404 . S
C2289 H2301 0.930 . S
C2290 C2286 1.524 . S
C2290 H2302 0.956 . S
C2290 H2303 0.961 . S
C2290 H2304 0.961 . S
C2291 C2288 1.539 . S
C2291 H2305 0.958 . S
C2291 H2306 0.961 . S
C2291 H2307 0.960 . S
H2292 C2276 0.931 . S
H2293 C2281 0.929 . S
H2294 C2282 0.960 . S
H2295 C2282 0.962 . S
H2296 C2282 0.960 . S
H2297 C2283 0.961 . S
H2298 C2283 0.961 . S
H2299 C2283 0.961 . S
H2300 C2284 0.931 . S
H2301 C2289 0.930 . S
H2302 C2290 0.956 . S
H2303 C2290 0.961 . S
H2304 C2290 0.961 . S
H2305 C2291 0.958 . S
H2306 C2291 0.961 . S
H2307 C2291 0.960 . S
C2308 C2309 1.391 . S
C2308 C2310 1.394 . S
C2308 H2324 0.931 . S
C2309 C2308 1.391 . S
C2309 C2313 1.376 . S
C2310 C2308 1.394 . S
C2310 C2311 1.369 . S
C2310 C2314 1.531 . S
C2311 C2310 1.369 . S
C2311 C2312 1.410 . S
C2311 C2319 1.503 . S
C2312 C2311 1.410 . S
C2312 C2313 1.392 . S
C2312 C2315 1.511 . S
C2313 C2309 1.376 . S
C2313 C2312 1.392 . S
C2313 H2325 0.929 . S
C2314 C2310 1.531 . S
C2314 H2326 0.960 . S
C2314 H2327 0.962 . S
C2314 H2328 0.960 . S
C2315 C2312 1.511 . S
C2315 H2329 0.961 . S
C2315 H2330 0.961 . S
C2315 H2331 0.961 . S
C2316 C2317 1.370 . S
C2316 C2318 1.363 . S
C2316 H2332 0.931 . S
C2317 C2316 1.370 . S
C2317 C2321 1.408 . S
C2318 C2316 1.363 . S
C2318 C2319 1.370 . S
C2318 C2322 1.524 . S
C2319 C2311 1.503 . S
C2319 C2318 1.370 . S
C2319 C2320 1.403 . S
C2320 C2319 1.403 . S
C2320 C2321 1.404 . S
C2320 C2323 1.539 . S
C2321 C2317 1.408 . S
C2321 C2320 1.404 . S
C2321 H2333 0.930 . S
C2322 C2318 1.524 . S
C2322 H2334 0.956 . S
C2322 H2335 0.961 . S
C2322 H2336 0.961 . S
C2323 C2320 1.539 . S
C2323 H2337 0.958 . S
C2323 H2338 0.961 . S
C2323 H2339 0.960 . S
H2324 C2308 0.931 . S
H2325 C2313 0.929 . S
H2326 C2314 0.960 . S
H2327 C2314 0.962 . S
H2328 C2314 0.960 . S
H2329 C2315 0.961 . S
H2330 C2315 0.961 . S
H2331 C2315 0.961 . S
H2332 C2316 0.931 . S
H2333 C2321 0.930 . S
H2334 C2322 0.956 . S
H2335 C2322 0.961 . S
H2336 C2322 0.961 . S
H2337 C2323 0.958 . S
H2338 C2323 0.961 . S
H2339 C2323 0.960 . S
C2340 C2341 1.391 . S
C2340 C2342 1.394 . S
C2340 H2356 0.931 . S
C2341 C2340 1.391 . S
C2341 C2345 1.376 . S
C2342 C2340 1.394 . S
C2342 C2343 1.369 . S
C2342 C2346 1.531 . S
C2343 C2342 1.369 . S
C2343 C2344 1.410 . S
C2343 C2351 1.503 . S
C2344 C2343 1.410 . S
C2344 C2345 1.392 . S
C2344 C2347 1.511 . S
C2345 C2341 1.376 . S
C2345 C2344 1.392 . S
C2345 H2357 0.929 . S
C2346 C2342 1.531 . S
C2346 H2358 0.960 . S
C2346 H2359 0.962 . S
C2346 H2360 0.960 . S
C2347 C2344 1.511 . S
C2347 H2361 0.961 . S
C2347 H2362 0.961 . S
C2347 H2363 0.961 . S
C2348 C2349 1.370 . S
C2348 C2350 1.363 . S
C2348 H2364 0.931 . S
C2349 C2348 1.370 . S
C2349 C2353 1.408 . S
C2350 C2348 1.363 . S
C2350 C2351 1.370 . S
C2350 C2354 1.524 . S
C2351 C2343 1.503 . S
C2351 C2350 1.370 . S
C2351 C2352 1.403 . S
C2352 C2351 1.403 . S
C2352 C2353 1.404 . S
C2352 C2355 1.539 . S
C2353 C2349 1.408 . S
C2353 C2352 1.404 . S
C2353 H2365 0.930 . S
C2354 C2350 1.524 . S
C2354 H2366 0.956 . S
C2354 H2367 0.961 . S
C2354 H2368 0.961 . S
C2355 C2352 1.539 . S
C2355 H2369 0.958 . S
C2355 H2370 0.961 . S
C2355 H2371 0.960 . S
H2356 C2340 0.931 . S
H2357 C2345 0.929 . S
H2358 C2346 0.960 . S
H2359 C2346 0.962 . S
H2360 C2346 0.960 . S
H2361 C2347 0.961 . S
H2362 C2347 0.961 . S
H2363 C2347 0.961 . S
H2364 C2348 0.931 . S
H2365 C2353 0.930 . S
H2366 C2354 0.956 . S
H2367 C2354 0.961 . S
H2368 C2354 0.961 . S
H2369 C2355 0.958 . S
H2370 C2355 0.961 . S
H2371 C2355 0.960 . S
C2372 C2373 1.391 . S
C2372 C2374 1.394 . S
C2372 H2388 0.931 . S
C2373 C2372 1.391 . S
C2373 C2377 1.376 . S
C2374 C2372 1.394 . S
C2374 C2375 1.369 . S
C2374 C2378 1.531 . S
C2375 C2374 1.369 . S
C2375 C2376 1.410 . S
C2375 C2383 1.503 . S
C2376 C2375 1.410 . S
C2376 C2377 1.392 . S
C2376 C2379 1.511 . S
C2377 C2373 1.376 . S
C2377 C2376 1.392 . S
C2377 H2389 0.929 . S
C2378 C2374 1.531 . S
C2378 H2390 0.960 . S
C2378 H2391 0.962 . S
C2378 H2392 0.960 . S
C2379 C2376 1.511 . S
C2379 H2393 0.961 . S
C2379 H2394 0.961 . S
C2379 H2395 0.961 . S
C2380 C2381 1.370 . S
C2380 C2382 1.363 . S
C2380 H2396 0.931 . S
C2381 C2380 1.370 . S
C2381 C2385 1.408 . S
C2382 C2380 1.363 . S
C2382 C2383 1.370 . S
C2382 C2386 1.524 . S
C2383 C2375 1.503 . S
C2383 C2382 1.370 . S
C2383 C2384 1.403 . S
C2384 C2383 1.403 . S
C2384 C2385 1.404 . S
C2384 C2387 1.539 . S
C2385 C2381 1.408 . S
C2385 C2384 1.404 . S
C2385 H2397 0.930 . S
C2386 C2382 1.524 . S
C2386 H2398 0.956 . S
C2386 H2399 0.961 . S
C2386 H2400 0.961 . S
C2387 C2384 1.539 . S
C2387 H2401 0.958 . S
C2387 H2402 0.961 . S
C2387 H2403 0.960 . S
H2388 C2372 0.931 . S
H2389 C2377 0.929 . S
H2390 C2378 0.960 . S
H2391 C2378 0.962 . S
H2392 C2378 0.960 . S
H2393 C2379 0.961 . S
H2394 C2379 0.961 . S
H2395 C2379 0.961 . S
H2396 C2380 0.931 . S
H2397 C2385 0.930 . S
H2398 C2386 0.956 . S
H2399 C2386 0.961 . S
H2400 C2386 0.961 . S
H2401 C2387 0.958 . S
H2402 C2387 0.961 . S
H2403 C2387 0.960 . S
C2404 C2405 1.391 . S
C2404 C2406 1.394 . S
C2404 H2420 0.931 . S
C2405 C2404 1.391 . S
C2405 C2409 1.376 . S
C2406 C2404 1.394 . S
C2406 C2407 1.369 . S
C2406 C2410 1.531 . S
C2407 C2406 1.369 . S
C2407 C2408 1.410 . S
C2407 C2415 1.503 . S
C2408 C2407 1.410 . S
C2408 C2409 1.392 . S
C2408 C2411 1.511 . S
C2409 C2405 1.376 . S
C2409 C2408 1.392 . S
C2409 H2421 0.929 . S
C2410 C2406 1.531 . S
C2410 H2422 0.960 . S
C2410 H2423 0.962 . S
C2410 H2424 0.960 . S
C2411 C2408 1.511 . S
C2411 H2425 0.961 . S
C2411 H2426 0.961 . S
C2411 H2427 0.961 . S
C2412 C2413 1.370 . S
C2412 C2414 1.363 . S
C2412 H2428 0.931 . S
C2413 C2412 1.370 . S
C2413 C2417 1.408 . S
C2414 C2412 1.363 . S
C2414 C2415 1.370 . S
C2414 C2418 1.524 . S
C2415 C2407 1.503 . S
C2415 C2414 1.370 . S
C2415 C2416 1.403 . S
C2416 C2415 1.403 . S
C2416 C2417 1.404 . S
C2416 C2419 1.539 . S
C2417 C2413 1.408 . S
C2417 C2416 1.404 . S
C2417 H2429 0.930 . S
C2418 C2414 1.524 . S
C2418 H2430 0.956 . S
C2418 H2431 0.961 . S
C2418 H2432 0.961 . S
C2419 C2416 1.539 . S
C2419 H2433 0.958 . S
C2419 H2434 0.961 . S
C2419 H2435 0.960 . S
H2420 C2404 0.931 . S
H2421 C2409 0.929 . S
H2422 C2410 0.960 . S
H2423 C2410 0.962 . S
H2424 C2410 0.960 . S
H2425 C2411 0.961 . S
H2426 C2411 0.961 . S
H2427 C2411 0.961 . S
H2428 C2412 0.931 . S
H2429 C2417 0.930 . S
H2430 C2418 0.956 . S
H2431 C2418 0.961 . S
H2432 C2418 0.961 . S
H2433 C2419 0.958 . S
H2434 C2419 0.961 . S
H2435 C2419 0.960 . S
C2436 C2437 1.391 . S
C2436 C2438 1.394 . S
C2436 H2452 0.931 . S
C2437 C2436 1.391 . S
C2437 C2441 1.376 . S
C2438 C2436 1.394 . S
C2438 C2439 1.369 . S
C2438 C2442 1.531 . S
C2439 C2438 1.369 . S
C2439 C2440 1.410 . S
C2439 C2447 1.503 . S
C2440 C2439 1.410 . S
C2440 C2441 1.392 . S
C2440 C2443 1.511 . S
C2441 C2437 1.376 . S
C2441 C2440 1.392 . S
C2441 H2453 0.929 . S
C2442 C2438 1.531 . S
C2442 H2454 0.960 . S
C2442 H2455 0.962 . S
C2442 H2456 0.960 . S
C2443 C2440 1.511 . S
C2443 H2457 0.961 . S
C2443 H2458 0.961 . S
C2443 H2459 0.961 . S
C2444 C2445 1.370 . S
C2444 C2446 1.363 . S
C2444 H2460 0.931 . S
C2445 C2444 1.370 . S
C2445 C2449 1.408 . S
C2446 C2444 1.363 . S
C2446 C2447 1.370 . S
C2446 C2450 1.524 . S
C2447 C2439 1.503 . S
C2447 C2446 1.370 . S
C2447 C2448 1.403 . S
C2448 C2447 1.403 . S
C2448 C2449 1.404 . S
C2448 C2451 1.539 . S
C2449 C2445 1.408 . S
C2449 C2448 1.404 . S
C2449 H2461 0.930 . S
C2450 C2446 1.524 . S
C2450 H2462 0.956 . S
C2450 H2463 0.961 . S
C2450 H2464 0.961 . S
C2451 C2448 1.539 . S
C2451 H2465 0.958 . S
C2451 H2466 0.961 . S
C2451 H2467 0.960 . S
H2452 C2436 0.931 . S
H2453 C2441 0.929 . S
H2454 C2442 0.960 . S
H2455 C2442 0.962 . S
H2456 C2442 0.960 . S
H2457 C2443 0.961 . S
H2458 C2443 0.961 . S
H2459 C2443 0.961 . S
H2460 C2444 0.931 . S
H2461 C2449 0.930 . S
H2462 C2450 0.956 . S
H2463 C2450 0.961 . S
H2464 C2450 0.961 . S
H2465 C2451 0.958 . S
H2466 C2451 0.961 . S
H2467 C2451 0.960 . S
C2468 C2469 1.391 . S
C2468 C2470 1.394 . S
C2468 H2484 0.931 . S
C2469 C2468 1.391 . S
C2469 C2473 1.376 . S
C2470 C2468 1.394 . S
C2470 C2471 1.369 . S
C2470 C2474 1.531 . S
C2471 C2470 1.369 . S
C2471 C2472 1.410 . S
C2471 C2479 1.503 . S
C2472 C2471 1.410 . S
C2472 C2473 1.392 . S
C2472 C2475 1.511 . S
C2473 C2469 1.376 . S
C2473 C2472 1.392 . S
C2473 H2485 0.929 . S
C2474 C2470 1.531 . S
C2474 H2486 0.960 . S
C2474 H2487 0.962 . S
C2474 H2488 0.960 . S
C2475 C2472 1.511 . S
C2475 H2489 0.961 . S
C2475 H2490 0.961 . S
C2475 H2491 0.961 . S
C2476 C2477 1.370 . S
C2476 C2478 1.363 . S
C2476 H2492 0.931 . S
C2477 C2476 1.370 . S
C2477 C2481 1.408 . S
C2478 C2476 1.363 . S
C2478 C2479 1.370 . S
C2478 C2482 1.524 . S
C2479 C2471 1.503 . S
C2479 C2478 1.370 . S
C2479 C2480 1.403 . S
C2480 C2479 1.403 . S
C2480 C2481 1.404 . S
C2480 C2483 1.539 . S
C2481 C2477 1.408 . S
C2481 C2480 1.404 . S
C2481 H2493 0.930 . S
C2482 C2478 1.524 . S
C2482 H2494 0.956 . S
C2482 H2495 0.961 . S
C2482 H2496 0.961 . S
C2483 C2480 1.539 . S
C2483 H2497 0.958 . S
C2483 H2498 0.961 . S
C2483 H2499 0.960 . S
H2484 C2468 0.931 . S
H2485 C2473 0.929 . S
H2486 C2474 0.960 . S
H2487 C2474 0.962 . S
H2488 C2474 0.960 . S
H2489 C2475 0.961 . S
H2490 C2475 0.961 . S
H2491 C2475 0.961 . S
H2492 C2476 0.931 . S
H2493 C2481 0.930 . S
H2494 C2482 0.956 . S
H2495 C2482 0.961 . S
H2496 C2482 0.961 . S
H2497 C2483 0.958 . S
H2498 C2483 0.961 . S
H2499 C2483 0.960 . S
C2500 C2501 1.391 . S
C2500 C2502 1.394 . S
C2500 H2516 0.931 . S
C2501 C2500 1.391 . S
C2501 C2505 1.376 . S
C2502 C2500 1.394 . S
C2502 C2503 1.369 . S
C2502 C2506 1.531 . S
C2503 C2502 1.369 . S
C2503 C2504 1.410 . S
C2503 C2511 1.503 . S
C2504 C2503 1.410 . S
C2504 C2505 1.392 . S
C2504 C2507 1.511 . S
C2505 C2501 1.376 . S
C2505 C2504 1.392 . S
C2505 H2517 0.929 . S
C2506 C2502 1.531 . S
C2506 H2518 0.960 . S
C2506 H2519 0.962 . S
C2506 H2520 0.960 . S
C2507 C2504 1.511 . S
C2507 H2521 0.961 . S
C2507 H2522 0.961 . S
C2507 H2523 0.961 . S
C2508 C2509 1.370 . S
C2508 C2510 1.363 . S
C2508 H2524 0.931 . S
C2509 C2508 1.370 . S
C2509 C2513 1.408 . S
C2510 C2508 1.363 . S
C2510 C2511 1.370 . S
C2510 C2514 1.524 . S
C2511 C2503 1.503 . S
C2511 C2510 1.370 . S
C2511 C2512 1.403 . S
C2512 C2511 1.403 . S
C2512 C2513 1.404 . S
C2512 C2515 1.539 . S
C2513 C2509 1.408 . S
C2513 C2512 1.404 . S
C2513 H2525 0.930 . S
C2514 C2510 1.524 . S
C2514 H2526 0.956 . S
C2514 H2527 0.961 . S
C2514 H2528 0.961 . S
C2515 C2512 1.539 . S
C2515 H2529 0.958 . S
C2515 H2530 0.961 . S
C2515 H2531 0.960 . S
H2516 C2500 0.931 . S
H2517 C2505 0.929 . S
H2518 C2506 0.960 . S
H2519 C2506 0.962 . S
H2520 C2506 0.960 . S
H2521 C2507 0.961 . S
H2522 C2507 0.961 . S
H2523 C2507 0.961 . S
H2524 C2508 0.931 . S
H2525 C2513 0.930 . S
H2526 C2514 0.956 . S
H2527 C2514 0.961 . S
H2528 C2514 0.961 . S
H2529 C2515 0.958 . S
H2530 C2515 0.961 . S
H2531 C2515 0.960 . S
C1005 C707 1.419 . S
C997 C74 1.365 . S
C1037 C685 1.548 . S
C1029 C153 1.518 . S
C1069 C682 0.939 . S
C1061 C231 0.946 . S
C1093 C310 0.530 . S
C1101 C694 0.304 . S
C1125 C394 1.489 . S
C1133 C677 1.555 . S
C1165 C699 0.929 . S
C1157 C494 0.959 . S
C1189 C573 0.704 . S
C1197 C704 0.358 . S
C1221 C651 1.358 . S
C1229 C700 1.414 . S
C1261 C758 2.722 . S
C1253 C56 2.786 . S
C1285 C151 1.375 . S
C1293 C808 1.373 . S
C1325 C731 1.572 . S
C1317 C237 1.461 . S
C1357 C807 0.946 . S
C1349 C326 0.908 . S
C1381 C410 0.914 . S
C1389 C736 0.936 . S
C1421 C802 2.734 . S
C1413 C476 2.791 . S
C1445 C571 1.380 . S
C1453 C761 1.396 . S
C1477 C657 1.514 . S
C1485 C793 1.589 . S
C1509 C58 1.520 . S
C1517 C785 1.572 . S
C1541 C392 1.381 . S
C1549 C815 1.388 . S
C1581 C739 1.586 . S
C1573 C478 1.478 . S
C1613 C790 0.956 . S
C1605 C567 0.922 . S
C1637 C655 2.788 . S
C1645 C748 2.726 . S
C1669 C235 2.802 . S
C1677 C812 2.750 . S
C1709 C754 1.393 . S
C1701 C308 1.407 . S
C1733 C147 0.887 . S
C1741 C753 0.936 . S
C1765 C662 1.407 . S
C1773 C869 1.418 . S
C1797 C405 1.472 . S
C1805 C847 1.543 . S
C1837 C844 0.922 . S
C1829 C483 0.888 . S
C1869 C856 0.369 . S
C1861 C562 0.740 . S
C1893 C142 1.479 . S
C1901 C839 1.534 . S
C1933 C861 0.919 . S
C1925 C242 0.913 . S
C1957 C321 0.532 . S
C1965 C866 0.296 . S
C1989 C63 1.378 . S
C1997 C862 1.411 . S
C2021 C644 2.787 . S
C2029 C920 2.729 . S
C2061 C970 1.365 . S
C2053 C403 1.380 . S
C2085 C489 1.542 . S
C2093 C893 1.576 . S
C2117 C578 0.902 . S
C2125 C969 0.947 . S
C2157 C898 0.940 . S
C2149 C158 0.963 . S
C2181 C224 2.788 . S
C2189 C964 2.730 . S
C2221 C923 1.396 . S
C2213 C319 1.380 . S
C2253 C955 1.589 . S
C2245 C69 1.515 . S
C2285 C947 1.579 . S
C2277 C646 1.467 . S
C2309 C140 1.391 . S
C2317 C977 1.376 . S
C2341 C226 1.555 . S
C2349 C901 1.593 . S
C2381 C952 0.957 . S
C2373 C315 0.934 . S
C2405 C67 2.787 . S
C2413 C910 2.725 . S
C2437 C487 2.798 . S
C2445 C974 2.740 . S
C2477 C916 1.397 . S
C2469 C560 1.392 . S
C2509 C915 0.954 . S
C2501 C399 0.963 . S
