# Generated by pormake.
# Topology iac, (4,6)-cn, num edge types: 1
# Building blocks:
#     Node 0, Type 0, BuildingBlock: QUQFOY_clean_sbu_3, # of connection points: 4
#     Node 1, Type 0, BuildingBlock: QUQFOY_clean_sbu_3, # of connection points: 4
#     Node 2, Type 0, BuildingBlock: QUQFOY_clean_sbu_3, # of connection points: 4
#     Node 3, Type 0, BuildingBlock: QUQFOY_clean_sbu_3, # of connection points: 4
#     Node 4, Type 0, BuildingBlock: QUQFOY_clean_sbu_3, # of connection points: 4
#     Node 5, Type 0, BuildingBlock: QUQFOY_clean_sbu_3, # of connection points: 4
#     Node 6, Type 0, BuildingBlock: QUQFOY_clean_sbu_3, # of connection points: 4
#     Node 7, Type 0, BuildingBlock: QUQFOY_clean_sbu_3, # of connection points: 4
#     Node 8, Type 0, BuildingBlock: QUQFOY_clean_sbu_3, # of connection points: 4
#     Node 9, Type 0, BuildingBlock: QUQFOY_clean_sbu_3, # of connection points: 4
#     Node 10, Type 0, BuildingBlock: QUQFOY_clean_sbu_3, # of connection points: 4
#     Node 11, Type 0, BuildingBlock: QUQFOY_clean_sbu_3, # of connection points: 4
#     Node 12, Type 0, BuildingBlock: QUQFOY_clean_sbu_3, # of connection points: 4
#     Node 13, Type 0, BuildingBlock: QUQFOY_clean_sbu_3, # of connection points: 4
#     Node 14, Type 0, BuildingBlock: QUQFOY_clean_sbu_3, # of connection points: 4
#     Node 15, Type 0, BuildingBlock: QUQFOY_clean_sbu_3, # of connection points: 4
#     Node 16, Type 0, BuildingBlock: QUQFOY_clean_sbu_3, # of connection points: 4
#     Node 17, Type 0, BuildingBlock: QUQFOY_clean_sbu_3, # of connection points: 4
#     Node 18, Type 0, BuildingBlock: QUQFOY_clean_sbu_3, # of connection points: 4
#     Node 19, Type 0, BuildingBlock: QUQFOY_clean_sbu_3, # of connection points: 4
#     Node 20, Type 0, BuildingBlock: QUQFOY_clean_sbu_3, # of connection points: 4
#     Node 21, Type 0, BuildingBlock: QUQFOY_clean_sbu_3, # of connection points: 4
#     Node 22, Type 0, BuildingBlock: QUQFOY_clean_sbu_3, # of connection points: 4
#     Node 23, Type 0, BuildingBlock: QUQFOY_clean_sbu_3, # of connection points: 4
#     Node 24, Type 1, BuildingBlock: FUNLAD_clean_sbu_0, # of connection points: 6
#     Node 25, Type 1, BuildingBlock: FUNLAD_clean_sbu_0, # of connection points: 6
#     Node 26, Type 1, BuildingBlock: FUNLAD_clean_sbu_0, # of connection points: 6
#     Node 27, Type 1, BuildingBlock: FUNLAD_clean_sbu_0, # of connection points: 6
#     Node 28, Type 1, BuildingBlock: FUNLAD_clean_sbu_0, # of connection points: 6
#     Node 29, Type 1, BuildingBlock: FUNLAD_clean_sbu_0, # of connection points: 6
#     Node 30, Type 1, BuildingBlock: FUNLAD_clean_sbu_0, # of connection points: 6
#     Node 31, Type 1, BuildingBlock: FUNLAD_clean_sbu_0, # of connection points: 6
#     Node 32, Type 1, BuildingBlock: FUNLAD_clean_sbu_0, # of connection points: 6
#     Node 33, Type 1, BuildingBlock: FUNLAD_clean_sbu_0, # of connection points: 6
#     Node 34, Type 1, BuildingBlock: FUNLAD_clean_sbu_0, # of connection points: 6
#     Node 35, Type 1, BuildingBlock: FUNLAD_clean_sbu_0, # of connection points: 6
#     Node 36, Type 1, BuildingBlock: FUNLAD_clean_sbu_0, # of connection points: 6
#     Node 37, Type 1, BuildingBlock: FUNLAD_clean_sbu_0, # of connection points: 6
#     Node 38, Type 1, BuildingBlock: FUNLAD_clean_sbu_0, # of connection points: 6
#     Node 39, Type 1, BuildingBlock: FUNLAD_clean_sbu_0, # of connection points: 6
#     Edge 40, Type (0, 1), BuildingBlock: AJUNOK_clean_linker_0, # of connection points: 2
#     Edge 41, Type (0, 1), BuildingBlock: AJUNOK_clean_linker_0, # of connection points: 2
#     Edge 42, Type (0, 1), BuildingBlock: AJUNOK_clean_linker_0, # of connection points: 2
#     Edge 43, Type (0, 1), BuildingBlock: AJUNOK_clean_linker_0, # of connection points: 2
#     Edge 44, Type (0, 1), BuildingBlock: AJUNOK_clean_linker_0, # of connection points: 2
#     Edge 45, Type (0, 1), BuildingBlock: AJUNOK_clean_linker_0, # of connection points: 2
#     Edge 46, Type (0, 1), BuildingBlock: AJUNOK_clean_linker_0, # of connection points: 2
#     Edge 47, Type (0, 1), BuildingBlock: AJUNOK_clean_linker_0, # of connection points: 2
#     Edge 48, Type (0, 1), BuildingBlock: AJUNOK_clean_linker_0, # of connection points: 2
#     Edge 49, Type (0, 1), BuildingBlock: AJUNOK_clean_linker_0, # of connection points: 2
#     Edge 50, Type (0, 1), BuildingBlock: AJUNOK_clean_linker_0, # of connection points: 2
#     Edge 51, Type (0, 1), BuildingBlock: AJUNOK_clean_linker_0, # of connection points: 2
#     Edge 52, Type (0, 1), BuildingBlock: AJUNOK_clean_linker_0, # of connection points: 2
#     Edge 53, Type (0, 1), BuildingBlock: AJUNOK_clean_linker_0, # of connection points: 2
#     Edge 54, Type (0, 1), BuildingBlock: AJUNOK_clean_linker_0, # of connection points: 2
#     Edge 55, Type (0, 1), BuildingBlock: AJUNOK_clean_linker_0, # of connection points: 2
#     Edge 56, Type (0, 1), BuildingBlock: AJUNOK_clean_linker_0, # of connection points: 2
#     Edge 57, Type (0, 1), BuildingBlock: AJUNOK_clean_linker_0, # of connection points: 2
#     Edge 58, Type (0, 1), BuildingBlock: AJUNOK_clean_linker_0, # of connection points: 2
#     Edge 59, Type (0, 1), BuildingBlock: AJUNOK_clean_linker_0, # of connection points: 2
#     Edge 60, Type (0, 1), BuildingBlock: AJUNOK_clean_linker_0, # of connection points: 2
#     Edge 61, Type (0, 1), BuildingBlock: AJUNOK_clean_linker_0, # of connection points: 2
#     Edge 62, Type (0, 1), BuildingBlock: AJUNOK_clean_linker_0, # of connection points: 2
#     Edge 63, Type (0, 1), BuildingBlock: AJUNOK_clean_linker_0, # of connection points: 2
#     Edge 64, Type (0, 1), BuildingBlock: AJUNOK_clean_linker_0, # of connection points: 2
#     Edge 65, Type (0, 1), BuildingBlock: AJUNOK_clean_linker_0, # of connection points: 2
#     Edge 66, Type (0, 1), BuildingBlock: AJUNOK_clean_linker_0, # of connection points: 2
#     Edge 67, Type (0, 1), BuildingBlock: AJUNOK_clean_linker_0, # of connection points: 2
#     Edge 68, Type (0, 1), BuildingBlock: AJUNOK_clean_linker_0, # of connection points: 2
#     Edge 69, Type (0, 1), BuildingBlock: AJUNOK_clean_linker_0, # of connection points: 2
#     Edge 70, Type (0, 1), BuildingBlock: AJUNOK_clean_linker_0, # of connection points: 2
#     Edge 71, Type (0, 1), BuildingBlock: AJUNOK_clean_linker_0, # of connection points: 2
#     Edge 72, Type (0, 1), BuildingBlock: AJUNOK_clean_linker_0, # of connection points: 2
#     Edge 73, Type (0, 1), BuildingBlock: AJUNOK_clean_linker_0, # of connection points: 2
#     Edge 74, Type (0, 1), BuildingBlock: AJUNOK_clean_linker_0, # of connection points: 2
#     Edge 75, Type (0, 1), BuildingBlock: AJUNOK_clean_linker_0, # of connection points: 2
#     Edge 76, Type (0, 1), BuildingBlock: AJUNOK_clean_linker_0, # of connection points: 2
#     Edge 77, Type (0, 1), BuildingBlock: AJUNOK_clean_linker_0, # of connection points: 2
#     Edge 78, Type (0, 1), BuildingBlock: AJUNOK_clean_linker_0, # of connection points: 2
#     Edge 79, Type (0, 1), BuildingBlock: AJUNOK_clean_linker_0, # of connection points: 2
#     Edge 80, Type (0, 1), BuildingBlock: AJUNOK_clean_linker_0, # of connection points: 2
#     Edge 81, Type (0, 1), BuildingBlock: AJUNOK_clean_linker_0, # of connection points: 2
#     Edge 82, Type (0, 1), BuildingBlock: AJUNOK_clean_linker_0, # of connection points: 2
#     Edge 83, Type (0, 1), BuildingBlock: AJUNOK_clean_linker_0, # of connection points: 2
#     Edge 84, Type (0, 1), BuildingBlock: AJUNOK_clean_linker_0, # of connection points: 2
#     Edge 85, Type (0, 1), BuildingBlock: AJUNOK_clean_linker_0, # of connection points: 2
#     Edge 86, Type (0, 1), BuildingBlock: AJUNOK_clean_linker_0, # of connection points: 2
#     Edge 87, Type (0, 1), BuildingBlock: AJUNOK_clean_linker_0, # of connection points: 2
#     Edge 88, Type (0, 1), BuildingBlock: AJUNOK_clean_linker_0, # of connection points: 2
#     Edge 89, Type (0, 1), BuildingBlock: AJUNOK_clean_linker_0, # of connection points: 2
#     Edge 90, Type (0, 1), BuildingBlock: AJUNOK_clean_linker_0, # of connection points: 2
#     Edge 91, Type (0, 1), BuildingBlock: AJUNOK_clean_linker_0, # of connection points: 2
#     Edge 92, Type (0, 1), BuildingBlock: AJUNOK_clean_linker_0, # of connection points: 2
#     Edge 93, Type (0, 1), BuildingBlock: AJUNOK_clean_linker_0, # of connection points: 2
#     Edge 94, Type (0, 1), BuildingBlock: AJUNOK_clean_linker_0, # of connection points: 2
#     Edge 95, Type (0, 1), BuildingBlock: AJUNOK_clean_linker_0, # of connection points: 2
#     Edge 96, Type (0, 1), BuildingBlock: AJUNOK_clean_linker_0, # of connection points: 2
#     Edge 97, Type (0, 1), BuildingBlock: AJUNOK_clean_linker_0, # of connection points: 2
#     Edge 98, Type (0, 1), BuildingBlock: AJUNOK_clean_linker_0, # of connection points: 2
#     Edge 99, Type (0, 1), BuildingBlock: AJUNOK_clean_linker_0, # of connection points: 2
#     Edge 100, Type (0, 1), BuildingBlock: AJUNOK_clean_linker_0, # of connection points: 2
#     Edge 101, Type (0, 1), BuildingBlock: AJUNOK_clean_linker_0, # of connection points: 2
#     Edge 102, Type (0, 1), BuildingBlock: AJUNOK_clean_linker_0, # of connection points: 2
#     Edge 103, Type (0, 1), BuildingBlock: AJUNOK_clean_linker_0, # of connection points: 2
#     Edge 104, Type (0, 1), BuildingBlock: AJUNOK_clean_linker_0, # of connection points: 2
#     Edge 105, Type (0, 1), BuildingBlock: AJUNOK_clean_linker_0, # of connection points: 2
#     Edge 106, Type (0, 1), BuildingBlock: AJUNOK_clean_linker_0, # of connection points: 2
#     Edge 107, Type (0, 1), BuildingBlock: AJUNOK_clean_linker_0, # of connection points: 2
#     Edge 108, Type (0, 1), BuildingBlock: AJUNOK_clean_linker_0, # of connection points: 2
#     Edge 109, Type (0, 1), BuildingBlock: AJUNOK_clean_linker_0, # of connection points: 2
#     Edge 110, Type (0, 1), BuildingBlock: AJUNOK_clean_linker_0, # of connection points: 2
#     Edge 111, Type (0, 1), BuildingBlock: AJUNOK_clean_linker_0, # of connection points: 2
#     Edge 112, Type (0, 1), BuildingBlock: AJUNOK_clean_linker_0, # of connection points: 2
#     Edge 113, Type (0, 1), BuildingBlock: AJUNOK_clean_linker_0, # of connection points: 2
#     Edge 114, Type (0, 1), BuildingBlock: AJUNOK_clean_linker_0, # of connection points: 2
#     Edge 115, Type (0, 1), BuildingBlock: AJUNOK_clean_linker_0, # of connection points: 2
#     Edge 116, Type (0, 1), BuildingBlock: AJUNOK_clean_linker_0, # of connection points: 2
#     Edge 117, Type (0, 1), BuildingBlock: AJUNOK_clean_linker_0, # of connection points: 2
#     Edge 118, Type (0, 1), BuildingBlock: AJUNOK_clean_linker_0, # of connection points: 2
#     Edge 119, Type (0, 1), BuildingBlock: AJUNOK_clean_linker_0, # of connection points: 2
#     Edge 120, Type (0, 1), BuildingBlock: AJUNOK_clean_linker_0, # of connection points: 2
#     Edge 121, Type (0, 1), BuildingBlock: AJUNOK_clean_linker_0, # of connection points: 2
#     Edge 122, Type (0, 1), BuildingBlock: AJUNOK_clean_linker_0, # of connection points: 2
#     Edge 123, Type (0, 1), BuildingBlock: AJUNOK_clean_linker_0, # of connection points: 2
#     Edge 124, Type (0, 1), BuildingBlock: AJUNOK_clean_linker_0, # of connection points: 2
#     Edge 125, Type (0, 1), BuildingBlock: AJUNOK_clean_linker_0, # of connection points: 2
#     Edge 126, Type (0, 1), BuildingBlock: AJUNOK_clean_linker_0, # of connection points: 2
#     Edge 127, Type (0, 1), BuildingBlock: AJUNOK_clean_linker_0, # of connection points: 2
#     Edge 128, Type (0, 1), BuildingBlock: AJUNOK_clean_linker_0, # of connection points: 2
#     Edge 129, Type (0, 1), BuildingBlock: AJUNOK_clean_linker_0, # of connection points: 2
#     Edge 130, Type (0, 1), BuildingBlock: AJUNOK_clean_linker_0, # of connection points: 2
#     Edge 131, Type (0, 1), BuildingBlock: AJUNOK_clean_linker_0, # of connection points: 2
#     Edge 132, Type (0, 1), BuildingBlock: AJUNOK_clean_linker_0, # of connection points: 2
#     Edge 133, Type (0, 1), BuildingBlock: AJUNOK_clean_linker_0, # of connection points: 2
#     Edge 134, Type (0, 1), BuildingBlock: AJUNOK_clean_linker_0, # of connection points: 2
#     Edge 135, Type (0, 1), BuildingBlock: AJUNOK_clean_linker_0, # of connection points: 2
# Relax obj value: 0.368
# Max RMSD: 0.298
# Mean RMSD: 0.136
data_MOF--net-iac--node1-QUQFOY_clean_sbu_3--node2-FUNLAD_clean_sbu_0--edge1-AJUNOK_clean_linker_0
_symmetry_space_group_name_H-M    P1
_symmetry_Int_Tables_number       1
_symmetry_cell_setting            triclinic
loop_
_symmetry_equiv_pos_as_xyz
'x, y, z'
_cell_length_a     41.478834
_cell_length_b     40.254144
_cell_length_c     46.213174
_cell_angle_alpha  90.676982
_cell_angle_beta   92.414223
_cell_angle_gamma 90.058318
loop_
_atom_site_label
_atom_site_type_symbol
_atom_site_fract_x
_atom_site_fract_y
_atom_site_fract_z
_atom_type_partial_charge
C0 C 0.03265 0.17793 0.19012 0.0
O1 O 0.055 0.16144 0.20289 0.0
Cd2 Cd 0.11106 0.1686 0.19086 0.0
O3 O 0.0394 0.19852 0.17062 0.0
Cd4 Cd 0.08689 0.21965 0.14714 0.0
C5 C 0.11501 0.14857 0.11959 0.0
O6 O 0.12212 0.2275 0.19003 0.0
O7 O 0.14332 0.23397 0.14857 0.0
O8 O 0.06366 0.27455 0.14469 0.0
C9 C 0.14607 0.2366 0.17586 0.0
O10 O 0.12405 0.14071 0.14527 0.0
C11 C 0.06532 0.2767 0.11743 0.0
O12 O 0.09842 0.17461 0.11511 0.0
O13 O 0.0757 0.25147 0.10403 0.0
C14 C 0.9751 0.77774 0.35458 0.0
O15 O -0.00556 0.79628 0.34163 0.0
Cd16 Cd 0.05005 0.80446 0.35362 0.0
O17 O 0.98565 0.75966 0.37551 0.0
Cd18 Cd 0.04137 0.75161 0.40027 0.0
C19 C 0.04172 0.83298 0.42309 0.0
O20 O 0.07472 0.75073 0.35672 0.0
O21 O 0.10057 0.75847 0.39738 0.0
O22 O 0.03256 0.69123 0.40509 0.0
C23 C 0.10173 0.75261 0.37042 0.0
O24 O 0.04982 0.83911 0.39741 0.0
C25 C 0.04058 0.68977 0.43188 0.0
O26 O 0.03557 0.80319 0.43022 0.0
O27 O 0.04766 0.71727 0.44434 0.0
C28 C 0.53252 0.6698 0.68187 0.0
O29 O 0.5561 0.65526 0.69477 0.0
Cd30 Cd 0.61113 0.6631 0.68154 0.0
O31 O 0.53725 0.68794 0.66 0.0
Cd32 Cd 0.58316 0.7075 0.63207 0.0
C33 C 0.61491 0.63328 0.61285 0.0
O34 O 0.61385 0.72252 0.67552 0.0
O35 O 0.63817 0.72952 0.63572 0.0
O36 O 0.55296 0.7581 0.62398 0.0
C37 C 0.63759 0.73438 0.66279 0.0
O38 O 0.62399 0.62892 0.63917 0.0
C39 C 0.55869 0.76017 0.59732 0.0
O40 O 0.59794 0.65834 0.60568 0.0
O41 O 0.57402 0.73624 0.5863 0.0
C42 C 0.47644 0.28224 0.85623 0.0
O43 O 0.49573 0.30146 0.84393 0.0
Cd44 Cd 0.55145 0.30929 0.85607 0.0
O45 O 0.48705 0.26346 0.8767 0.0
Cd46 Cd 0.54301 0.25512 0.90185 0.0
C47 C 0.54302 0.33634 0.92581 0.0
O48 O 0.57512 0.25491 0.85758 0.0
O49 O 0.60301 0.25837 0.89754 0.0
O50 O 0.53216 0.19514 0.90775 0.0
C51 C 0.60275 0.25428 0.87028 0.0
O52 O 0.55097 0.34322 0.90025 0.0
C53 C 0.54081 0.19393 0.93442 0.0
O54 O 0.53738 0.30628 0.93239 0.0
O55 O 0.54943 0.22134 0.94625 0.0
C56 C 0.11529 0.05079 0.3039 0.0
O57 O 0.1056 0.07146 0.2849 0.0
Cd58 Cd 0.11671 0.07032 0.23485 0.0
O59 O 0.13315 0.02624 0.29723 0.0
Cd60 Cd 0.1587 0.00656 0.2525 0.0
C61 C 0.1963 0.08104 0.2493 0.0
O62 O 0.10847 0.01275 0.22372 0.0
O63 O 0.14973 0.99859 0.19986 0.0
O64 O 0.16644 0.95082 0.27311 0.0
C65 C 0.11958 0.0033 0.20002 0.0
O66 O 0.17149 0.09282 0.23598 0.0
C67 C 0.1929 0.94606 0.26067 0.0
O68 O 0.19663 0.05164 0.25875 0.0
O69 O 0.20328 0.96946 0.24548 0.0
C70 C 0.34183 0.97458 0.54395 0.0
O71 O 0.31954 0.9911 0.53115 0.0
Cd72 Cd 0.26589 0.97212 0.5236 0.0
O73 O 0.33559 0.94818 0.55779 0.0
Cd74 Cd 0.28767 0.91428 0.5703 0.0
C75 C 0.28768 0.8939 0.49991 0.0
O76 O 0.24832 0.95851 0.57015 0.0
O77 O 0.22891 0.90901 0.56627 0.0
O78 O 0.29815 0.90463 0.62196 0.0
C79 C 0.22374 0.93989 0.56888 0.0
O80 O 0.27712 0.92288 0.4942 0.0
C81 C 0.29804 0.87309 0.61956 0.0
O82 O 0.29352 0.88447 0.52569 0.0
O83 O 0.29506 0.86096 0.59412 0.0
C84 C 0.47714 0.99703 0.78871 0.0
O85 O 0.49618 0.98631 0.76998 0.0
Cd86 Cd 0.47589 0.98007 0.72219 0.0
O87 O 0.45001 0.00985 0.78092 0.0
Cd88 Cd 0.41618 0.02531 0.73709 0.0
C89 C 0.4042 0.94351 0.74325 0.0
O90 O 0.46211 0.03549 0.70849 0.0
O91 O 0.41929 0.02136 0.68361 0.0
O92 O 0.406 0.07949 0.75994 0.0
C93 C 0.44799 0.0324 0.68391 0.0
O94 O 0.43257 0.94132 0.73387 0.0
C95 C 0.37789 0.08321 0.74845 0.0
O96 O 0.39088 0.97181 0.74594 0.0
O97 O 0.36719 0.0598 0.73206 0.0
C98 C 0.34127 0.07157 0.99242 0.0
O99 O 0.33168 0.04449 0.98108 0.0
Cd100 Cd 0.31458 0.02283 0.026 0.0
O101 O 0.32315 0.08552 0.0103 0.0
Cd102 Cd 0.26591 0.07141 0.01757 0.0
C103 C 0.30816 0.08848 0.07595 0.0
O104 O 0.26113 0.01132 0.01091 0.0
O105 O 0.234 0.0322 0.04556 0.0
O106 O 0.24724 0.08729 0.96942 0.0
C107 C 0.24183 0.00675 0.03088 0.0
O108 O 0.32363 0.06291 0.06768 0.0
C109 C 0.23169 0.11261 0.97767 0.0
O110 O 0.28276 0.09754 0.06192 0.0
O111 O 0.22997 0.1175 0.0048 0.0
C112 C 0.84028 0.4752 0.04589 0.0
O113 O 0.81688 0.48957 0.03265 0.0
Cd114 Cd 0.76314 0.47061 0.02683 0.0
O115 O 0.83579 0.44886 0.06047 0.0
Cd116 Cd 0.78817 0.41338 0.07256 0.0
C117 C 0.78607 0.3934 0.00142 0.0
O118 O 0.74818 0.45698 0.07381 0.0
O119 O 0.72919 0.40757 0.06823 0.0
O120 O 0.80005 0.40628 0.12444 0.0
C121 C 0.72374 0.43822 0.07217 0.0
O122 O 0.77252 0.42143 -0.00281 0.0
C123 C 0.79727 0.3748 0.124 0.0
O124 O 0.79519 0.38455 0.02682 0.0
O125 O 0.79305 0.36108 0.09924 0.0
C126 C 0.97769 0.49778 0.28682 0.0
O127 O 0.99272 0.48243 0.26736 0.0
Cd128 Cd 0.97432 0.47625 0.21895 0.0
O129 O 0.95194 0.51414 0.28051 0.0
Cd130 Cd 0.91662 0.52836 0.23699 0.0
C131 C 0.90161 0.44493 0.24048 0.0
O132 O 0.96449 0.53336 0.21004 0.0
O133 O 0.92093 0.5372 0.18371 0.0
O134 O 0.90406 0.58106 0.26179 0.0
C135 C 0.95147 0.53894 0.1855 0.0
O136 O 0.92923 0.44016 0.23012 0.0
C137 C 0.87619 0.58417 0.24955 0.0
O138 O 0.89106 0.4743 0.24411 0.0
O139 O 0.86695 0.56119 0.23207 0.0
C140 C 0.84014 0.52624 0.52828 0.0
O141 O 0.83393 0.50205 0.54446 0.0
Cd142 Cd 0.78673 0.49928 0.56988 0.0
O143 O 0.81969 0.54902 0.52246 0.0
Cd144 Cd 0.76217 0.56083 0.52927 0.0
C145 C 0.79025 0.58018 0.5968 0.0
O146 O 0.75061 0.50286 0.5289 0.0
O147 O 0.7121 0.53303 0.54449 0.0
O148 O 0.75999 0.57363 0.47802 0.0
C149 C 0.72222 0.50447 0.53723 0.0
O150 O 0.79469 0.5492 0.60054 0.0
C151 C 0.74528 0.60111 0.48025 0.0
O152 O 0.77779 0.59102 0.57316 0.0
O153 O 0.7371 0.60953 0.5055 0.0
C154 C 0.60187 0.54134 0.80479 0.0
O155 O 0.58452 0.5566 0.78599 0.0
Cd156 Cd 0.5907 0.55787 0.73566 0.0
O157 O 0.62429 0.52165 0.79725 0.0
Cd158 Cd 0.64852 0.50241 0.75136 0.0
C159 C 0.66882 0.58452 0.74711 0.0
O160 O 0.59713 0.5009 0.72488 0.0
O161 O 0.63809 0.49404 0.69846 0.0
O162 O 0.65685 0.4451 0.76753 0.0
C163 C 0.60766 0.49481 0.7002 0.0
O164 O 0.6399 0.59025 0.73838 0.0
C165 C 0.68659 0.44388 0.7619 0.0
O166 O 0.67807 0.5551 0.75299 0.0
O167 O 0.69903 0.47034 0.75259 0.0
C168 C 0.93981 0.8212 0.85154 0.0
O169 O 0.93384 0.85205 0.84995 0.0
Cd170 Cd 0.97775 0.89226 0.85419 0.0
O171 O 0.96772 0.81151 0.85942 0.0
Cd172 Cd 0.00683 0.84538 0.88566 0.0
C173 C 0.96526 0.90424 0.9205 0.0
O174 O 0.03055 0.86801 0.84266 0.0
O175 O 0.05693 0.87656 0.88355 0.0
O176 O 0.02555 0.78898 0.89213 0.0
C177 C 0.05696 0.87563 0.8561 0.0
O178 O 0.97052 0.92298 0.89932 0.0
C179 C 0.02804 0.79172 0.91954 0.0
O180 O 0.97193 0.87372 0.91836 0.0
O181 O 0.02455 0.82048 0.93047 0.0
C182 C 0.97108 0.25287 0.71102 0.0
O183 O 0.98931 0.23256 0.72469 0.0
Cd184 Cd 0.04213 0.21568 0.7105 0.0
O185 O 0.98077 0.26674 0.68811 0.0
Cd186 Cd 0.03344 0.26682 0.66031 0.0
C187 C 0.03317 0.18355 0.64139 0.0
O188 O 0.07229 0.26561 0.70326 0.0
O189 O 0.09322 0.26111 0.66176 0.0
O190 O 0.02847 0.32729 0.65043 0.0
C191 C 0.09767 0.26336 0.689 0.0
O192 O 0.03943 0.17816 0.66814 0.0
C193 C 0.02825 0.32468 0.62299 0.0
O194 O 0.02798 0.21315 0.63277 0.0
O195 O 0.03007 0.29531 0.61289 0.0
C196 C 0.46108 0.32174 0.35789 0.0
O197 O 0.45798 0.3497 0.34562 0.0
Cd198 Cd 0.48673 0.3975 0.36486 0.0
O199 O 0.47945 0.31824 0.38025 0.0
Cd200 Cd 0.51664 0.3513 0.41031 0.0
C201 C 0.45709 0.40429 0.4308 0.0
O202 O 0.54075 0.37297 0.36784 0.0
O203 O 0.56674 0.38359 0.40848 0.0
O204 O 0.53578 0.29567 0.4172 0.0
C205 C 0.56666 0.38247 0.38099 0.0
O206 O 0.4565 0.41853 0.40639 0.0
C207 C 0.53674 0.2972 0.44468 0.0
O208 O 0.47673 0.38082 0.43578 0.0
O209 O 0.53126 0.3253 0.45625 0.0
C210 C 0.47024 0.75352 0.21199 0.0
O211 O 0.48933 0.73418 0.22584 0.0
Cd212 Cd 0.54313 0.71961 0.21372 0.0
O213 O 0.47905 0.76752 0.18884 0.0
Cd214 Cd 0.53115 0.77017 0.16048 0.0
C215 C 0.53609 0.68578 0.14458 0.0
O216 O 0.56797 0.77131 0.20402 0.0
O217 O 0.59185 0.76855 0.16394 0.0
O218 O 0.52178 0.83047 0.15171 0.0
C219 C 0.59439 0.76997 0.19137 0.0
O220 O 0.54262 0.68239 0.17155 0.0
C221 C 0.52187 0.82899 0.12424 0.0
O222 O 0.52888 0.71447 0.13459 0.0
O223 O 0.52615 0.80024 0.11342 0.0
C224 C 0.97436 -0.00044 0.85528 0.0
O225 O 0.98997 0.98117 0.83825 0.0
Cd226 Cd 0.97443 0.96534 0.78957 0.0
O227 O 0.94687 0.0113 0.84741 0.0
Cd228 Cd 0.90846 0.01203 0.8049 0.0
C229 C 0.90082 0.92761 0.79913 0.0
O230 O 0.9498 0.01342 0.77051 0.0
O231 O 0.9014 0.01044 0.75212 0.0
O232 O 0.89889 0.07023 0.81631 0.0
C233 C 0.93138 0.0103 0.74811 0.0
O234 O 0.9298 0.92659 0.79104 0.0
C235 C 0.86839 0.06877 0.81288 0.0
O236 O 0.88818 0.95471 0.80785 0.0
O237 O 0.85618 0.04031 0.80728 0.0
C238 C 0.83514 0.06423 0.50513 0.0
O239 O 0.8142 0.04555 0.51599 0.0
Cd240 Cd 0.75895 0.05755 0.52349 0.0
O241 O 0.8275 0.09287 0.49551 0.0
Cd242 Cd 0.77981 0.12963 0.48807 0.0
C243 C 0.77039 0.13245 0.56122 0.0
O244 O 0.7419 0.08523 0.48137 0.0
O245 O 0.72062 0.13354 0.48447 0.0
O246 O 0.79801 0.14282 0.43993 0.0
C247 C 0.7166 0.10231 0.48391 0.0
O248 O 0.76202 0.10195 0.55977 0.0
C249 C 0.79713 0.17418 0.44325 0.0
O250 O 0.77926 0.1481 0.53899 0.0
O251 O 0.78833 0.18501 0.46765 0.0
C252 C 0.60408 0.04057 0.35412 0.0
O253 O 0.5887 0.05869 0.33594 0.0
Cd254 Cd 0.6002 0.06868 0.28699 0.0
O255 O 0.63014 0.02584 0.34751 0.0
Cd256 Cd 0.66526 0.01898 0.30479 0.0
C257 C 0.67703 0.1031 0.29482 0.0
O258 O 0.61819 0.01572 0.27367 0.0
O259 O 0.66235 0.01306 0.25145 0.0
O260 O 0.67414 0.96113 0.31957 0.0
C261 C 0.63182 0.01387 0.24986 0.0
O262 O 0.64709 0.10481 0.28768 0.0
C263 C 0.70392 0.96031 0.3143 0.0
O264 O 0.68975 0.07574 0.30337 0.0
O265 O 0.71633 0.98746 0.30642 0.0
C266 C 0.8107 0.02679 0.00843 0.0
O267 O 0.78266 0.03491 -0.00094 0.0
Cd268 Cd 0.73649 -6e-05 0.00174 0.0
O269 O 0.81647 0.99866 0.02004 0.0
Cd270 Cd 0.78858 0.94701 0.03364 0.0
C271 C 0.75778 0.92692 0.96655 0.0
O272 O 0.74458 0.97874 0.04897 0.0
O273 O 0.73535 0.92638 0.04718 0.0
O274 O 0.81757 0.9429 0.08017 0.0
C275 C 0.72525 0.95527 0.05303 0.0
O276 O 0.73971 0.95241 0.96829 0.0
C277 C 0.82467 0.91238 0.07759 0.0
O278 O 0.77957 0.92102 0.98611 0.0
O279 O 0.81745 0.89863 0.0533 0.0
C280 C 0.33604 0.5681 0.00718 0.0
O281 O 0.31467 0.55076 0.01894 0.0
Cd282 Cd 0.2586 0.56305 0.02385 0.0
O283 O 0.32887 0.59593 -0.00426 0.0
Cd284 Cd 0.28153 0.63251 0.98725 0.0
C285 C 0.26624 0.63991 0.05875 0.0
O286 O 0.24144 0.58986 0.98148 0.0
O287 O 0.22292 0.63925 0.98721 0.0
O288 O 0.28736 0.64247 0.93626 0.0
C289 C 0.21719 0.60831 0.9852 0.0
O290 O 0.25705 0.60967 0.05754 0.0
C291 C 0.29548 0.6728 0.93877 0.0
O292 O 0.27922 0.65389 0.0374 0.0
O293 O 0.29813 0.68493 0.96431 0.0
C294 C 0.10196 0.54055 0.85442 0.0
O295 O 0.08852 0.55951 0.83577 0.0
Cd296 Cd 0.10023 0.56984 0.78705 0.0
O297 O 0.1275 0.52433 0.84865 0.0
Cd298 Cd 0.16241 0.51763 0.80546 0.0
C299 C 0.1782 0.60057 0.79294 0.0
O300 O 0.1155 0.51604 0.7739 0.0
O301 O 0.15969 0.51209 0.75201 0.0
O302 O 0.1711 0.45906 0.81771 0.0
C303 C 0.12923 0.51405 0.75018 0.0
O304 O 0.14838 0.60385 0.78585 0.0
C305 C 0.20116 0.45901 0.81353 0.0
O306 O 0.18919 0.57305 0.8028 0.0
O307 O 0.21363 0.4868 0.80753 0.0
C308 C 0.3226 0.52526 0.49764 0.0
O309 O 0.29505 0.5292 0.48523 0.0
Cd310 Cd 0.25271 0.49 0.48853 0.0
O311 O 0.32971 0.49921 0.51213 0.0
Cd312 Cd 0.30289 0.44679 0.52598 0.0
C313 C 0.28361 0.41857 0.45919 0.0
O314 O 0.25642 0.47755 0.53882 0.0
O315 O 0.24787 0.42547 0.53347 0.0
O316 O 0.33179 0.44013 0.57355 0.0
C317 C 0.23739 0.45353 0.54135 0.0
O318 O 0.26125 0.44027 0.45853 0.0
C319 C 0.33397 0.40877 0.57068 0.0
O320 O 0.30478 0.41829 0.47987 0.0
O321 O 0.32465 0.39638 0.54643 0.0
C322 C 0.47038 0.50355 0.35395 0.0
O323 O 0.48846 0.49343 0.33419 0.0
Cd324 Cd 0.47263 0.48373 0.28438 0.0
O325 O 0.44093 0.51075 0.34807 0.0
Cd326 Cd 0.40287 0.51379 0.3056 0.0
C327 C 0.40663 0.43165 0.29211 0.0
O328 O 0.43964 0.52826 0.26913 0.0
O329 O 0.39333 0.50923 0.25383 0.0
O330 O 0.39049 0.56938 0.32062 0.0
C331 C 0.42091 0.51997 0.24788 0.0
O332 O 0.4347 0.43764 0.28325 0.0
C333 C 0.36013 0.56679 0.31685 0.0
O334 O 0.39027 0.45433 0.30439 0.0
O335 O 0.34896 0.53824 0.30979 0.0
C336 C 0.02754 0.01983 0.97227 0.0
N337 N 0.9887 0.06639 0.04367 0.0
C338 C 0.98288 0.08997 0.02324 0.0
C339 C 0.95176 0.10253 0.01888 0.0
C340 C 0.92731 0.09104 0.03627 0.0
C341 C 0.93582 0.07238 0.06089 0.0
C342 C 0.96691 0.05971 0.06396 0.0
Zn343 Zn 0.02126 0.03022 0.03557 0.0
C344 C 0.98904 0.96632 0.02402 0.0
N345 N 0.08789 0.95387 0.01736 0.0
C346 C 0.10885 0.95972 -0.00375 0.0
C347 C 0.09228 0.92794 0.03578 0.0
C348 C 0.12167 0.91096 0.03693 0.0
C349 C 0.14626 0.92143 0.01915 0.0
C350 C 0.13798 0.94291 -0.00382 0.0
Zn351 Zn 0.05598 0.99059 0.02585 0.0
O352 O 0.01289 0.03708 0.99068 0.0
C353 C 0.08742 0.05601 0.03559 0.0
O354 O 0.04881 -0.00061 0.98119 0.0
H355 H 0.07471 0.92294 0.05182 0.0
H356 H 0.00085 0.09538 0.00768 0.0
H357 H 0.10501 0.98021 0.98164 0.0
O358 O 0.05809 0.06448 0.03702 0.0
O359 O 0.09446 0.02584 0.03042 0.0
H360 H 0.97192 0.04077 0.07989 0.0
O361 O 0.06276 0.98176 0.06983 0.0
O362 O 0.03055 0.02246 0.08096 0.0
O363 O 0.01809 0.95693 0.02203 0.0
O364 O 0.98325 0.99564 0.0326 0.0
C365 C 0.05033 -0.00011 0.08892 0.0
H366 H 0.94597 0.11701 -0.00025 0.0
H367 H 0.91756 0.06288 0.07472 0.0
H368 H 0.12665 0.89356 0.05424 0.0
H369 H 0.1557 0.95139 0.98136 0.0
C370 C 0.34315 0.76745 0.26146 0.0
N371 N 0.25529 0.73364 0.22445 0.0
C372 C 0.26256 0.75301 0.20166 0.0
C373 C 0.25962 0.74055 0.17345 0.0
C374 C 0.24966 0.70761 0.16856 0.0
C375 C 0.24068 0.68866 0.19231 0.0
C376 C 0.24344 0.70235 0.22023 0.0
Zn377 Zn 0.27131 0.74987 0.26451 0.0
C378 C 0.30083 0.69465 0.2995 0.0
N379 N 0.31114 0.78382 0.34552 0.0
C380 C 0.32052 0.81609 0.34827 0.0
C381 C 0.30735 0.76465 0.36919 0.0
C382 C 0.31035 0.77864 0.39691 0.0
C383 C 0.31549 0.813 0.40013 0.0
C384 C 0.32224 0.83141 0.37542 0.0
Zn385 Zn 0.29435 0.76717 0.30602 0.0
O386 O 0.31863 0.75659 0.24675 0.0
C387 C 0.26257 0.82208 0.27257 0.0
O388 O 0.33977 0.77567 0.28781 0.0
H389 H 0.29993 0.73901 0.36667 0.0
H390 H 0.27267 0.77752 0.20536 0.0
H391 H 0.32421 0.83075 0.32925 0.0
O392 O 0.25753 0.79916 0.25386 0.0
O393 O 0.27801 0.81558 0.29604 0.0
H394 H 0.2381 0.68724 0.23862 0.0
O395 O 0.24931 0.75865 0.32395 0.0
O396 O 0.22449 0.74346 0.28315 0.0
O397 O 0.30921 0.71877 0.31604 0.0
O398 O 0.28452 0.70042 0.2762 0.0
C399 C 0.22344 0.75012 0.31017 0.0
H400 H 0.26656 0.75605 0.15574 0.0
H401 H 0.23352 0.6629 0.18963 0.0
H402 H 0.30685 0.76298 0.41538 0.0
H403 H 0.32656 0.85793 0.37663 0.0
C404 C 0.52389 0.0357 0.58197 0.0
N405 N 0.55389 0.95623 0.53157 0.0
C406 C 0.57135 0.94689 0.55564 0.0
C407 C 0.57227 0.91365 0.56357 0.0
C408 C 0.55524 0.88999 0.54643 0.0
C409 C 0.53915 0.8999 0.52073 0.0
C410 C 0.53874 0.93349 0.51367 0.0
Zn411 Zn 0.54405 0.00498 0.52612 0.0
C412 C 0.47218 0.0134 0.51821 0.0
N413 N 0.51827 0.10575 0.51671 0.0
C414 C 0.53409 0.12814 0.5345 0.0
C415 C 0.50159 0.1154 0.49231 0.0
C416 C 0.50282 0.14835 0.48363 0.0
C417 C 0.52126 0.17136 0.50032 0.0
C418 C 0.5359 0.16139 0.52665 0.0
Zn419 Zn 0.5279 0.05694 0.52223 0.0
O420 O 0.53539 0.00955 0.57078 0.0
C421 C 0.59975 0.04872 0.5295 0.0
O422 O 0.52031 0.06156 0.56678 0.0
H423 H 0.48933 0.0971 0.4785 0.0
H424 H 0.58304 0.96546 0.56956 0.0
H425 H 0.54746 0.11977 0.55364 0.0
O426 O 0.59339 0.01798 0.53162 0.0
O427 O 0.57674 0.06938 0.52767 0.0
H428 H 0.52472 0.94162 0.49481 0.0
O429 O 0.53569 0.05189 0.47721 0.0
O430 O 0.55202 0.00046 0.48188 0.0
O431 O 0.47885 0.04412 0.51668 0.0
O432 O 0.49502 0.99254 0.52027 0.0
C433 C 0.54748 0.02576 0.46618 0.0
H434 H 0.5851 0.90663 0.58347 0.0
H435 H 0.52558 0.88223 0.50719 0.0
H436 H 0.49103 0.15542 0.46326 0.0
H437 H 0.55053 0.17848 0.53988 0.0
C438 C 0.30718 0.20621 0.76502 0.0
N439 N 0.25315 0.23681 0.83536 0.0
C440 C 0.24213 0.20508 0.83226 0.0
C441 C 0.2316 0.1878 0.85605 0.0
C442 C 0.2308 0.20366 0.88328 0.0
C443 C 0.24035 0.23722 0.88539 0.0
C444 C 0.25197 0.25321 0.86121 0.0
Zn445 Zn 0.27339 0.25825 0.80031 0.0
C446 C 0.34238 0.27774 0.81121 0.0
N447 N 0.31447 0.29944 0.72496 0.0
C448 C 0.31584 0.28174 0.69979 0.0
C449 C 0.32451 0.33164 0.72655 0.0
C450 C 0.33394 0.34799 0.70179 0.0
C451 C 0.33465 0.33066 0.67522 0.0
C452 C 0.32656 0.29667 0.67482 0.0
Zn453 Zn 0.29453 0.27828 0.76042 0.0
O454 O 0.29149 0.21113 0.78765 0.0
C455 C 0.22562 0.25948 0.74854 0.0
O456 O 0.31145 0.23014 0.74792 0.0
H457 H 0.32407 0.34523 0.7468 0.0
H458 H 0.24256 0.19254 0.81149 0.0
H459 H 0.30773 0.25622 0.69872 0.0
O460 O 0.22854 0.25117 0.77508 0.0
O461 O 0.25017 0.27092 0.73638 0.0
H462 H 0.26078 0.27844 0.86333 0.0
O463 O 0.27756 0.32591 0.7741 0.0
O464 O 0.25646 0.30593 0.81294 0.0
O465 O 0.33822 0.28554 0.78473 0.0
O466 O 0.31877 0.26578 0.82453 0.0
C467 C 0.2622 0.33058 0.79702 0.0
H468 H 0.22579 0.16174 0.85318 0.0
H469 H 0.23993 0.25073 0.90577 0.0
H470 H 0.33892 0.37433 0.7034 0.0
H471 H 0.32723 0.28194 0.65511 0.0
C472 C 0.09527 0.99201 0.54613 0.0
N473 N 0.05417 0.04412 0.4761 0.0
C474 C 0.08334 0.05921 0.4739 0.0
C475 C 0.09452 0.06687 0.44665 0.0
C476 C 0.07508 0.05947 0.42184 0.0
C477 C 0.04447 0.04566 0.42489 0.0
C478 C 0.03456 0.03787 0.45231 0.0
Zn479 Zn 0.04081 0.02325 0.51351 0.0
C480 C 0.02867 0.94853 0.50041 0.0
N481 N 0.01066 0.97263 0.58678 0.0
C482 C 0.02864 0.98205 0.61076 0.0
C483 C 0.98162 0.9573 0.58882 0.0
C484 C 0.96805 0.95436 0.61582 0.0
C485 C 0.98459 0.9677 0.64045 0.0
C486 C 0.01601 0.9798 0.63792 0.0
Zn487 Zn 0.02411 0.99317 0.54952 0.0
O488 O 0.08989 0.01139 0.52496 0.0
C489 C 0.03653 0.06806 0.5627 0.0
O490 O 0.07186 0.98175 0.56025 0.0
H491 H 0.96781 0.94999 0.56941 0.0
H492 H 0.09864 0.06369 0.49308 0.0
H493 H 0.05143 0.99464 0.60872 0.0
O494 O 0.04479 0.06944 0.53655 0.0
O495 O 0.02792 0.04016 0.57252 0.0
H496 H 0.01196 0.02493 0.45429 0.0
O497 O 0.97599 0.00401 0.5384 0.0
O498 O 0.99159 0.03485 0.50296 0.0
O499 O 0.02047 0.94698 0.52658 0.0
O500 O 0.03685 0.97655 0.49057 0.0
C501 C 0.96901 0.02309 0.51745 0.0
H502 H 0.11842 0.07732 0.44486 0.0
H503 H 0.02921 0.03895 0.40612 0.0
H504 H 0.94405 0.94404 0.61713 0.0
H505 H 0.02956 0.99049 0.65632 0.0
C506 C 0.29044 0.79145 0.7219 0.0
N507 N 0.35874 0.72739 0.75933 0.0
C508 C 0.3548 0.70793 0.73514 0.0
C509 C 0.38125 0.69217 0.72332 0.0
C510 C 0.41206 0.69635 0.73657 0.0
C511 C 0.41528 0.71549 0.76216 0.0
C512 C 0.38814 0.7309 0.77323 0.0
Zn513 Zn 0.32012 0.75478 0.77197 0.0
C514 C 0.33823 0.82584 0.78374 0.0
N515 N 0.23864 0.8133 0.79557 0.0
C516 C 0.21392 0.81682 0.77551 0.0
C517 C 0.23633 0.82582 0.8229 0.0
C518 C 0.20786 0.8411 0.83126 0.0
C519 C 0.1818 0.84473 0.81104 0.0
C520 C 0.18559 0.83304 0.78262 0.0
Zn521 Zn 0.27846 0.78602 0.78445 0.0
O522 O 0.31154 0.76945 0.7279 0.0
C523 C 0.26006 0.71505 0.77175 0.0
O524 O 0.27217 0.80138 0.7415 0.0
H525 H 0.25612 0.82297 0.83863 0.0
H526 H 0.33127 0.70562 0.72431 0.0
H527 H 0.21562 0.80627 0.75404 0.0
O528 O 0.28992 0.7126 0.76706 0.0
O529 O 0.24839 0.7435 0.77745 0.0
H530 H 0.39076 0.74671 0.79227 0.0
O531 O 0.28603 0.77005 0.82755 0.0
O532 O 0.32849 0.7408 0.81626 0.0
O533 O 0.30894 0.8281 0.79075 0.0
O534 O 0.3494 0.79753 0.77694 0.0
C535 C 0.30873 0.75037 0.83496 0.0
H536 H 0.37783 0.67769 0.70353 0.0
H537 H 0.43874 0.71991 0.77268 0.0
H538 H 0.20597 0.84858 0.85369 0.0
H539 H 0.16642 0.83543 0.76615 0.0
C540 C 0.51594 0.95128 0.05572 0.0
N541 N 0.53576 0.04748 0.08849 0.0
C542 C 0.5183 0.03508 0.11014 0.0
C543 C 0.53101 0.03596 0.13851 0.0
C544 C 0.56159 0.05004 0.14414 0.0
C545 C 0.57641 0.06741 0.12219 0.0
C546 C 0.56301 0.06563 0.09413 0.0
Zn547 Zn 0.53054 0.02604 0.04894 0.0
C548 C 0.59304 0.99387 0.035 0.0
N549 N 0.52556 0.97617 0.96825 0.0
C550 C 0.49823 0.95993 0.95896 0.0
C551 C 0.54782 0.98612 0.94941 0.0
C552 C 0.54109 0.98384 0.91975 0.0
C553 C 0.5115 0.97041 0.90941 0.0
C554 C 0.49093 0.95624 0.92933 0.0
Zn555 Zn 0.52922 0.99676 0.00839 0.0
O556 O 0.51991 0.97891 0.06915 0.0
C557 C 0.46793 0.0318 0.02157 0.0
O558 O 0.51665 0.95109 0.02822 0.0
H559 H 0.56944 0.9989 0.95731 0.0
H560 H 0.49656 0.02095 0.10504 0.0
H561 H 0.48093 0.9522 0.97441 0.0
O562 O 0.48241 0.03946 0.04543 0.0
O563 O 0.48123 0.01231 0.00389 0.0
H564 H 0.57653 0.07515 0.07651 0.0
O565 O 0.54146 0.04254 0.98856 0.0
O566 O 0.54104 0.07214 0.0284 0.0
O567 O 0.57739 0.98233 0.01298 0.0
O568 O 0.57929 0.01334 0.05227 0.0
C569 C 0.54337 0.07074 0.00108 0.0
H570 H 0.51878 0.02264 0.15509 0.0
H571 H 0.59969 0.07924 0.12609 0.0
H572 H 0.55777 0.99499 0.90529 0.0
H573 H 0.46853 0.9443 0.92222 0.0
C574 C 0.29276 0.18 0.27825 0.0
N575 N 0.3538 0.21687 0.21782 0.0
C576 C 0.3651 0.18518 0.21936 0.0
C577 C 0.3657 0.16535 0.19444 0.0
C578 C 0.35481 0.17851 0.16784 0.0
C579 C 0.34739 0.21253 0.16639 0.0
C580 C 0.34704 0.23144 0.19188 0.0
Zn581 Zn 0.33366 0.2356 0.25402 0.0
C582 C 0.26622 0.25683 0.24008 0.0
N583 N 0.28568 0.26718 0.32868 0.0
C584 C 0.29507 0.2573 0.35581 0.0
C585 C 0.26963 0.29632 0.32435 0.0
C586 C 0.2652 0.31819 0.34733 0.0
C587 C 0.27762 0.31021 0.37501 0.0
C588 C 0.29128 0.27867 0.37951 0.0
Zn589 Zn 0.30623 0.24725 0.29299 0.0
O590 O 0.31176 0.18901 0.25902 0.0
C591 C 0.37433 0.22883 0.30651 0.0
O592 O 0.2868 0.19973 0.29903 0.0
H593 H 0.26311 0.30436 0.30268 0.0
H594 H 0.36996 0.17396 0.24024 0.0
H595 H 0.30792 0.23416 0.35884 0.0
O596 O 0.3745 0.22283 0.27949 0.0
O597 O 0.34796 0.23644 0.31783 0.0
H598 H 0.33799 0.25662 0.19118 0.0
O599 O 0.32563 0.29482 0.28656 0.0
O600 O 0.35463 0.28273 0.2493 0.0
O601 O 0.26511 0.25814 0.26742 0.0
O602 O 0.29258 0.24933 0.22873 0.0
C603 C 0.34579 0.30359 0.26824 0.0
H604 H 0.37121 0.13918 0.19657 0.0
H605 H 0.3391 0.22358 0.14615 0.0
H606 H 0.25465 0.34233 0.34298 0.0
H607 H 0.30061 0.27144 0.40075 0.0
C608 C 0.5954 0.49129 0.05045 0.0
N609 N 0.55497 0.5443 0.98055 0.0
C610 C 0.58499 0.55708 0.97722 0.0
C611 C 0.59565 0.56315 0.94944 0.0
C612 C 0.57477 0.55665 0.9254 0.0
C613 C 0.54355 0.54517 0.9296 0.0
C614 C 0.53424 0.53875 0.95739 0.0
Zn615 Zn 0.5413 0.52452 0.01832 0.0
C616 C 0.52768 0.44985 0.00494 0.0
N617 N 0.51029 0.47423 0.09154 0.0
C618 C 0.52904 0.48184 0.11558 0.0
C619 C 0.47934 0.46352 0.09356 0.0
C620 C 0.46465 0.46525 0.12012 0.0
C621 C 0.48241 0.47761 0.14441 0.0
C622 C 0.51553 0.48332 0.14251 0.0
Zn623 Zn 0.52454 0.49407 0.05413 0.0
O624 O 0.59017 0.51151 0.02985 0.0
C625 C 0.53923 0.56892 0.06743 0.0
O626 O 0.57195 0.48082 0.06442 0.0
H627 H 0.46497 0.45727 0.07419 0.0
H628 H 0.60125 0.56086 -0.00413 0.0
H629 H 0.55344 0.49068 0.11364 0.0
O630 O 0.54624 0.57075 0.04098 0.0
O631 O 0.53058 0.54101 0.07726 0.0
H632 H 0.51109 0.52718 0.96007 0.0
O633 O 0.47651 0.50689 0.04323 0.0
O634 O 0.49239 0.53733 0.00779 0.0
O635 O 0.51919 0.44796 0.03102 0.0
O636 O 0.53642 0.47792 -0.00439 0.0
C637 C 0.46967 0.52606 0.02236 0.0
H638 H 0.62008 0.57174 0.94669 0.0
H639 H 0.52718 0.53918 0.91138 0.0
H640 H 0.43907 0.46016 0.12103 0.0
H641 H 0.53008 0.49201 0.16111 0.0
C642 C 0.78685 0.29666 0.22866 0.0
N643 N 0.85559 0.23054 0.26252 0.0
C644 C 0.85137 0.21039 0.23881 0.0
C645 C 0.87782 0.19456 0.22696 0.0
C646 C 0.90886 0.19985 0.2395 0.0
C647 C 0.9122 0.21935 0.26484 0.0
C648 C 0.88513 0.23454 0.27603 0.0
Zn649 Zn 0.81803 0.25826 0.27656 0.0
C650 C 0.83819 0.32929 0.28778 0.0
N651 N 0.74126 0.31927 0.30669 0.0
C652 C 0.71568 0.32614 0.28835 0.0
C653 C 0.74172 0.32992 0.3348 0.0
C654 C 0.71493 0.34581 0.34593 0.0
C655 C 0.68781 0.35253 0.32768 0.0
C656 C 0.68906 0.34343 0.29824 0.0
Zn657 Zn 0.77886 0.29067 0.29235 0.0
O658 O 0.80709 0.2734 0.23312 0.0
C659 C 0.75738 0.22032 0.2793 0.0
O660 O 0.77021 0.30696 0.24939 0.0
H661 H 0.76241 0.32517 0.34908 0.0
H662 H 0.82763 0.20751 0.22847 0.0
H663 H 0.71536 0.31755 0.26611 0.0
O664 O 0.78666 0.21674 0.27279 0.0
O665 O 0.74743 0.24904 0.28654 0.0
H666 H 0.88791 0.25062 0.29488 0.0
O667 O 0.78928 0.27401 0.335 0.0
O668 O 0.82903 0.2434 0.32011 0.0
O669 O 0.81001 0.33164 0.29738 0.0
O670 O 0.8484 0.30091 0.28 0.0
C671 C 0.81161 0.25322 0.34053 0.0
H672 H 0.87417 0.17923 0.20769 0.0
H673 H 0.93575 0.22421 0.27507 0.0
H674 H 0.71516 0.35121 0.36891 0.0
H675 H 0.66912 0.34849 0.28307 0.0
C676 C 0.02988 0.44409 0.55117 0.0
N677 N 0.04494 0.54074 0.5835 0.0
C678 C 0.02622 0.52838 0.60428 0.0
C679 C 0.0362 0.53134 0.63328 0.0
C680 C 0.06527 0.54781 0.64072 0.0
C681 C 0.08167 0.5642 0.61908 0.0
C682 C 0.07109 0.56013 0.59027 0.0
Zn683 Zn 0.04101 0.51942 0.54391 0.0
C684 C 0.10415 0.49139 0.52827 0.0
N685 N 0.03515 0.46958 0.46336 0.0
C686 C 0.00716 0.45467 0.45389 0.0
C687 C 0.05723 0.48019 0.44457 0.0
C688 C 0.04975 0.47986 0.41498 0.0
C689 C 0.0193 0.46867 0.40496 0.0
C690 C -0.00144 0.45414 0.42441 0.0
Zn691 Zn 0.03843 0.48988 0.50353 0.0
O692 O 0.03336 0.47205 0.56408 0.0
C693 C 0.97539 0.51743 0.51964 0.0
O694 O 0.03016 0.44325 0.52364 0.0
H695 H 0.07911 0.49238 0.45259 0.0
H696 H 0.00554 0.51304 0.59826 0.0
H697 H 0.9901 0.44629 0.46929 0.0
O698 O 0.99178 0.52876 0.54134 0.0
O699 O 0.98904 0.49978 0.50091 0.0
H700 H 0.08562 0.56954 0.57329 0.0
O701 O 0.04607 0.53702 0.48347 0.0
O702 O 0.04833 0.56601 0.52373 0.0
O703 O 0.08775 0.47983 0.50669 0.0
O704 O 0.09063 0.50985 0.54651 0.0
C705 C 0.04836 0.56509 0.49624 0.0
H706 H 0.02308 0.5179 0.64919 0.0
H707 H 0.10402 0.5774 0.62411 0.0
H708 H 0.0663 0.49116 0.40044 0.0
H709 H 0.97508 0.44472 0.41713 0.0
C710 C 0.80134 0.70444 0.26638 0.0
N711 N 0.75235 0.73524 0.3388 0.0
C712 C 0.73356 0.7078 0.3341 0.0
C713 C 0.7264 0.68716 0.357 0.0
C714 C 0.73916 0.69447 0.38495 0.0
C715 C 0.75643 0.72422 0.38961 0.0
C716 C 0.76281 0.74439 0.36605 0.0
Zn717 Zn 0.77062 0.75741 0.30328 0.0
C718 C 0.84049 0.77403 0.31181 0.0
N719 N 0.80967 0.79742 0.22718 0.0
C720 C 0.80113 0.78564 0.20024 0.0
C721 C 0.82917 0.82448 0.23094 0.0
C722 C 0.84005 0.84141 0.20706 0.0
C723 C 0.83034 0.83081 0.17896 0.0
C724 C 0.81099 0.80219 0.17573 0.0
Zn725 Zn 0.79069 0.77639 0.26272 0.0
O726 O 0.78641 0.70984 0.2894 0.0
C727 C 0.72076 0.76088 0.25312 0.0
O728 O 0.80547 0.72817 0.24899 0.0
H729 H 0.83542 0.83368 0.25251 0.0
H730 H 0.72571 0.70072 0.31229 0.0
H731 H 0.78555 0.76415 0.19773 0.0
O732 O 0.72445 0.75242 0.27956 0.0
O733 O 0.74521 0.77112 0.24013 0.0
H734 H 0.77777 0.76624 0.36934 0.0
O735 O 0.77626 0.82435 0.27739 0.0
O736 O 0.75593 0.8056 0.31716 0.0
O737 O 0.83557 0.78167 0.28543 0.0
O738 O 0.81711 0.76303 0.3259 0.0
C739 C 0.76199 0.82988 0.30081 0.0
H740 H 0.71242 0.66478 0.35264 0.0
H741 H 0.76666 0.73073 0.41087 0.0
H742 H 0.85494 0.86333 0.21057 0.0
H743 H 0.80205 0.79363 0.15459 0.0
C744 C 0.84429 0.26908 0.76091 0.0
N745 N 0.7571 0.23228 0.72471 0.0
C746 C 0.76741 0.24902 0.70142 0.0
C747 C 0.76624 0.23406 0.67407 0.0
C748 C 0.75397 0.20171 0.67061 0.0
C749 C 0.74052 0.18634 0.69449 0.0
C750 C 0.74267 0.20203 0.72162 0.0
Zn751 Zn 0.77248 0.24964 0.76444 0.0
C752 C 0.80413 0.1957 0.79936 0.0
N753 N 0.81125 0.2858 0.84487 0.0
C754 C 0.82495 0.31643 0.84746 0.0
C755 C 0.80218 0.26881 0.86848 0.0
C756 C 0.80402 0.28384 0.8958 0.0
C757 C 0.8154 0.31655 0.89869 0.0
C758 C 0.82729 0.33239 0.87441 0.0
Zn759 Zn 0.79549 0.26859 0.80538 0.0
O760 O 0.8194 0.25843 0.74666 0.0
C761 C 0.76168 0.32205 0.77126 0.0
O762 O 0.84171 0.27672 0.78752 0.0
H763 H 0.79104 0.24461 0.86585 0.0
H764 H 0.77882 0.27305 0.70438 0.0
H765 H 0.83184 0.32946 0.82833 0.0
O766 O 0.75609 0.29784 0.7539 0.0
O767 O 0.77928 0.31755 0.79406 0.0
H768 H 0.73467 0.1892 0.74047 0.0
O769 O 0.74915 0.26007 0.82305 0.0
O770 O 0.7263 0.24111 0.78262 0.0
O771 O 0.81089 0.21994 0.81641 0.0
O772 O 0.788 0.20106 0.77591 0.0
C773 C 0.72412 0.24914 0.80921 0.0
H774 H 0.77679 0.24686 0.65628 0.0
H775 H 0.72986 0.16181 0.69251 0.0
H776 H 0.79414 0.27104 0.91392 0.0
H777 H 0.83632 0.35764 0.87594 0.0
C778 C 0.75273 0.69371 0.78371 0.0
N779 N 0.82835 0.71875 0.73263 0.0
C780 C 0.83552 0.68621 0.73716 0.0
C781 C 0.83724 0.66425 0.71376 0.0
C782 C 0.83217 0.6761 0.68549 0.0
C783 C 0.82924 0.71055 0.68144 0.0
C784 C 0.82732 0.73162 0.70553 0.0
Zn785 Zn 0.80402 0.74199 0.76449 0.0
C786 C 0.74277 0.77057 0.73942 0.0
N787 N 0.74662 0.78441 0.82905 0.0
C788 C 0.74829 0.7725 0.8565 0.0
C789 C 0.7371 0.81617 0.82361 0.0
C790 C 0.73236 0.83835 0.8464 0.0
C791 C 0.73737 0.82765 0.87499 0.0
C792 C 0.74385 0.79392 0.87999 0.0
Zn793 Zn 0.77102 0.76079 0.79739 0.0
O794 O 0.77699 0.69761 0.76829 0.0
C795 C 0.83396 0.73614 0.82174 0.0
O796 O 0.74434 0.71694 0.80065 0.0
H797 H 0.73659 0.82541 0.80173 0.0
H798 H 0.83582 0.6764 0.75885 0.0
H799 H 0.75604 0.74724 0.86037 0.0
O800 O 0.83833 0.72746 0.79573 0.0
O801 O 0.80611 0.74574 0.82862 0.0
H802 H 0.82144 0.75754 0.70243 0.0
O803 O 0.79769 0.8045 0.7938 0.0
O804 O 0.83057 0.78682 0.7612 0.0
O805 O 0.73694 0.77612 0.76576 0.0
O806 O 0.76945 0.75754 0.73323 0.0
C807 C 0.82177 0.80958 0.7785 0.0
H808 H 0.83902 0.63791 0.71802 0.0
H809 H 0.82566 0.72071 0.65995 0.0
H810 H 0.72789 0.86426 0.84163 0.0
H811 H 0.74764 0.78477 0.90181 0.0
C812 C 0.5139 0.5091 0.47477 0.0
N813 N 0.48348 0.56455 0.54468 0.0
C814 C 0.48428 0.58885 0.52448 0.0
C815 C 0.45656 0.6074 0.51817 0.0
C816 C 0.4285 0.59986 0.53271 0.0
C817 C 0.43158 0.58167 0.55847 0.0
C818 C 0.45942 0.56308 0.56363 0.0
Zn819 Zn 0.50875 0.52243 0.53759 0.0
C820 C 0.46662 0.46374 0.52857 0.0
N821 N 0.5638 0.43477 0.5218 0.0
C822 C 0.58295 0.43577 0.49866 0.0
C823 C 0.57089 0.41375 0.54408 0.0
C824 C 0.60197 0.40055 0.54737 0.0
C825 C 0.62506 0.40993 0.52764 0.0
C826 C 0.61377 0.42244 0.50081 0.0
Zn827 Zn 0.53679 0.47672 0.52939 0.0
O828 O 0.50111 0.52888 0.49244 0.0
C829 C 0.57813 0.53654 0.53681 0.0
O830 O 0.53123 0.48553 0.48451 0.0
H831 H 0.55456 0.41124 0.56153 0.0
H832 H 0.50419 0.59013 0.51016 0.0
H833 H 0.57704 0.45135 0.48043 0.0
O834 O 0.55057 0.54994 0.53764 0.0
O835 O 0.58031 0.50527 0.53337 0.0
H836 H 0.45952 0.54385 0.57977 0.0
O837 O 0.5418 0.46909 0.57364 0.0
O838 O 0.51715 0.51567 0.58317 0.0
O839 O 0.49391 0.4497 0.52639 0.0
O840 O 0.46553 0.4942 0.53601 0.0
C841 C 0.533 0.49045 0.59199 0.0
H842 H 0.45525 0.62196 0.49859 0.0
H843 H 0.41067 0.57588 0.57078 0.0
H844 H 0.60913 0.38853 0.56747 0.0
H845 H 0.6301 0.42856 0.48398 0.0
C846 C 0.02182 0.5501 0.0807 0.0
N847 N 0.0543 0.46595 0.03783 0.0
C848 C 0.07285 0.46111 0.06235 0.0
C849 C 0.07544 0.42956 0.0741 0.0
C850 C 0.05872 0.40309 0.06038 0.0
C851 C 0.04178 0.40825 0.03398 0.0
C852 C 0.03977 0.44025 0.02302 0.0
Zn853 Zn 0.04207 0.51249 0.02717 0.0
C854 C 0.96985 0.51763 0.01977 0.0
N855 N 0.01271 0.60953 0.00849 0.0
C856 C 0.02785 0.63495 0.02316 0.0
C857 C -0.00369 0.61424 0.98276 0.0
C858 C -0.00246 0.64491 0.96933 0.0
C859 C 0.01513 0.67073 0.98302 0.0
C860 C 0.02927 0.66614 0.01071 0.0
Zn861 Zn 0.0245 0.56303 0.01971 0.0
O862 O 0.03431 0.52326 0.07174 0.0
C863 C 0.09655 0.55824 0.02685 0.0
O864 O 0.01626 0.57345 0.06304 0.0
H865 H 0.98444 0.59356 0.97161 0.0
H866 H 0.08411 0.48204 0.07368 0.0
H867 H 0.04099 0.63039 0.04343 0.0
O868 O 0.09073 0.5277 0.03068 0.0
O869 O 0.07314 0.57831 0.02394 0.0
H870 H 0.02502 0.4449 0.00364 0.0
O871 O 0.03245 0.55264 0.97609 0.0
O872 O 0.04983 0.502 0.98277 0.0
O873 O 0.97624 0.54794 0.01541 0.0
O874 O 0.99297 0.49728 0.0236 0.0
C875 C 0.04402 0.5261 0.96589 0.0
H876 H 0.08927 0.4261 0.09425 0.0
H877 H 0.02878 0.38817 0.02287 0.0
H878 H 0.98603 0.64808 0.94806 0.0
H879 H 0.04293 0.68583 0.02175 0.0
C880 C 0.11107 0.13619 0.06662 0.0
C881 C 0.12076 0.1261 0.09475 0.0
C882 C 0.10639 0.11292 0.04416 0.0
C883 C 0.11111 0.07894 0.04922 0.0
H884 H 0.10398 0.16164 0.06249 0.0
H885 H 0.09469 0.12099 0.02404 0.0
S886 S 0.14692 0.0416 0.11597 0.0
N887 N 0.14305 0.08132 0.12421 0.0
N888 N 0.13397 0.03745 0.08183 0.0
C889 C 0.12647 0.06948 0.07552 0.0
C890 C 0.13111 0.09316 0.09853 0.0
C891 C 0.13484 0.7368 0.32773 0.0
C892 C 0.13281 0.75188 0.35531 0.0
C893 C 0.16411 0.73597 0.31323 0.0
C894 C 0.1925 0.7503 0.32571 0.0
H895 H 0.11369 0.72532 0.31732 0.0
H896 H 0.16447 0.72397 0.29214 0.0
S897 S 0.19909 0.79595 0.39622 0.0
N898 N 0.16129 0.78322 0.39362 0.0
N899 N 0.21581 0.78207 0.3667 0.0
C900 C 0.19049 0.76602 0.35309 0.0
C901 C 0.16084 0.76669 0.36778 0.0
C902 C 0.54059 0.81898 0.59664 0.0
C903 C 0.55235 0.79132 0.58146 0.0
C904 C 0.54069 0.85063 0.58463 0.0
C905 C 0.55222 0.85576 0.55691 0.0
H906 H 0.53271 0.81658 0.61857 0.0
H907 H 0.53251 0.87145 0.59746 0.0
S908 S 0.58179 0.79142 0.50666 0.0
N909 N 0.57304 0.7708 0.53601 0.0
N910 N 0.57293 0.83066 0.51345 0.0
C911 C 0.56193 0.8282 0.54063 0.0
C912 C 0.56205 0.79585 0.55291 0.0
C913 C 0.41951 0.25877 0.85625 0.0
C914 C 0.44148 0.28252 0.84644 0.0
C915 C 0.38697 0.25814 0.84591 0.0
C916 C 0.37521 0.28114 0.82528 0.0
H917 H 0.42763 0.24005 0.87153 0.0
H918 H 0.37128 0.23874 0.85328 0.0
S919 S 0.4213 0.35061 0.79485 0.0
N920 N 0.44772 0.33142 0.81642 0.0
N921 N 0.38728 0.32978 0.79716 0.0
C922 C 0.39649 0.30569 0.81618 0.0
C923 C 0.42937 0.3065 0.82669 0.0
C924 C 0.04292 0.89411 0.43428 0.0
C925 C 0.03815 0.86144 0.44388 0.0
C926 C 0.03922 0.92173 0.45256 0.0
C927 C 0.03057 0.91823 0.48153 0.0
H928 H 0.04958 0.89865 0.41224 0.0
H929 H 0.0434 0.9461 0.44379 0.0
S930 S 0.01518 0.83827 0.51787 0.0
N931 N 0.02412 0.82726 0.48461 0.0
N932 N 0.0173 0.87924 0.51907 0.0
C933 C 0.02557 0.88577 0.49155 0.0
C934 C 0.02933 0.85742 0.47281 0.0
C935 C 0.47412 0.68527 0.67944 0.0
C936 C 0.50021 0.67013 0.69466 0.0
C937 C 0.44514 0.69207 0.69281 0.0
C938 C 0.44106 0.68414 0.72198 0.0
H939 H 0.4765 0.69333 0.65735 0.0
H940 H 0.4264 0.70522 0.68059 0.0
S941 S 0.49979 0.63997 0.77038 0.0
N942 N 0.51855 0.64413 0.73981 0.0
N943 N 0.46395 0.65713 0.7648 0.0
C944 C 0.46602 0.66711 0.73695 0.0
C945 C 0.49556 0.65992 0.7233 0.0
C946 C 0.55014 0.16218 0.98074 0.0
C947 C 0.54168 0.16212 0.95084 0.0
C948 C 0.55131 0.13261 -0.00327 0.0
C949 C 0.54445 0.10159 0.98346 0.0
H950 H 0.55571 0.18534 0.99205 0.0
H951 H 0.5575 0.13414 0.01971 0.0
S952 S 0.52063 0.08751 0.90575 0.0
N953 N 0.52608 0.12805 0.9087 0.0
N954 N 0.52848 0.07278 0.93845 0.0
C955 C 0.53618 0.10112 0.9535 0.0
C956 C 0.53472 0.13124 0.93731 0.0
C957 C 0.17731 0.2542 0.22043 0.0
C958 C 0.17668 0.24673 0.19066 0.0
C959 C 0.20642 0.26009 0.23587 0.0
C960 C 0.23603 0.25836 0.22215 0.0
H961 H 0.15522 0.25447 0.23215 0.0
H962 H 0.20569 0.26428 0.25903 0.0
S963 S 0.24715 0.24374 0.14371 0.0
N964 N 0.20781 0.24118 0.14733 0.0
N965 N 0.26271 0.25201 0.17645 0.0
C966 C 0.23559 0.25316 0.19197 0.0
C967 C 0.20585 0.24734 0.1762 0.0
C968 C 0.10662 0.9773 0.15198 0.0
C969 C 0.099 0.00068 0.17333 0.0
C970 C 0.08902 0.97571 0.12555 0.0
C971 C 0.06347 0.99793 0.11917 0.0
H972 H 0.12676 0.96049 0.15549 0.0
H973 H 0.09666 0.95787 0.1095 0.0
S974 S 0.03303 0.0628 0.1688 0.0
N975 N 0.06322 0.04531 0.18739 0.0
N976 N 0.03048 0.04298 0.13729 0.0
C977 C 0.05478 0.0206 0.1409 0.0
C978 C 0.07249 0.02184 0.16808 0.0
C979 C 0.3216 0.87931 0.45903 0.0
C980 C 0.29561 0.87165 0.47614 0.0
C981 C 0.32923 0.85887 0.43565 0.0
C982 C 0.31051 0.83057 0.4281 0.0
H983 H 0.33607 0.90132 0.46373 0.0
H984 H 0.34953 0.86579 0.42301 0.0
S985 S 0.24044 0.79975 0.46796 0.0
N986 N 0.25243 0.83349 0.48598 0.0
N987 N 0.26504 0.79577 0.44096 0.0
C988 C 0.28488 0.82228 0.44593 0.0
C989 C 0.27777 0.84276 0.47018 0.0
C990 C 0.48965 0.05854 0.6542 0.0
C991 C 0.46692 0.03307 0.65771 0.0
C992 C 0.50882 0.05909 0.62989 0.0
C993 C 0.50682 0.03337 0.60913 0.0
H994 H 0.49217 0.07848 0.6701 0.0
H995 H 0.52523 0.0797 0.6273 0.0
S996 S 0.4517 0.96064 0.60882 0.0
N997 N 0.44351 0.98162 0.63853 0.0
N998 N 0.48041 0.98179 0.59352 0.0
C999 C 0.48464 0.00742 0.61275 0.0
C1000 C 0.46445 0.00747 0.63691 0.0
C1001 C 0.24314 0.16797 0.95853 0.0
C1002 C 0.22413 0.13913 0.95698 0.0
C1003 C 0.24355 0.18988 0.93528 0.0
C1004 C 0.22441 0.18413 0.90976 0.0
H1005 H 0.25983 0.17223 0.9769 0.0
H1006 H 0.26079 0.21011 0.9367 0.0
S1007 S 0.16501 0.11549 0.89819 0.0
N1008 N 0.18292 0.10764 0.92998 0.0
N1009 N 0.18136 0.15024 0.88699 0.0
C1010 C 0.20278 0.15696 0.90936 0.0
C1011 C 0.20325 0.13407 0.93276 0.0
C1012 C 0.12366 0.03978 0.35677 0.0
C1013 C 0.10603 0.05563 0.33421 0.0
C1014 C 0.1147 0.043 0.38553 0.0
C1015 C 0.08766 0.0619 0.39263 0.0
H1016 H 0.14429 0.0244 0.35219 0.0
H1017 H 0.12812 0.02937 0.40214 0.0
S1018 S 0.03443 0.1099 0.34226 0.0
N1019 N 0.06106 0.09236 0.32137 0.0
N1020 N 0.04427 0.09795 0.37552 0.0
C1021 C 0.07045 0.07874 0.37058 0.0
C1022 C 0.07965 0.07574 0.34133 0.0
C1023 C 0.28458 0.86402 0.67076 0.0
C1024 C 0.29759 0.85157 0.64527 0.0
C1025 C 0.28119 0.84379 0.69482 0.0
C1026 C 0.29126 0.81037 0.69465 0.0
H1027 H 0.27634 0.88951 0.67202 0.0
H1028 H 0.27127 0.85482 0.71401 0.0
S1029 S 0.32775 0.76589 0.63344 0.0
N1030 N 0.32069 0.80369 0.62113 0.0
N1031 N 0.31537 0.76586 0.66695 0.0
C1032 C 0.3047 0.79762 0.66942 0.0
C1033 C 0.30756 0.81814 0.64459 0.0
C1034 C 0.51606 0.97917 0.82814 0.0
C1035 C 0.48523 0.99108 0.81969 0.0
C1036 C 0.52385 0.97116 0.85692 0.0
C1037 C 0.50121 0.97485 0.87854 0.0
H1038 H 0.53445 0.97587 0.81239 0.0
H1039 H 0.54795 0.96219 0.86231 0.0
S1040 S 0.41647 0.00354 0.86749 0.0
N1041 N 0.43139 0.00474 0.83503 0.0
N1042 N 0.44626 0.99059 0.88931 0.0
C1043 C 0.47008 0.98623 0.87033 0.0
C1044 C 0.46209 0.99427 0.84093 0.0
C1045 C 0.30158 0.13593 0.11029 0.0
C1046 C 0.32089 0.10984 0.10022 0.0
C1047 C 0.31326 0.15836 0.13149 0.0
C1048 C 0.34481 0.15584 0.14359 0.0
H1049 H 0.27709 0.1392 0.10174 0.0
H1050 H 0.29709 0.17749 0.13892 0.0
S1051 S 0.40568 0.09268 0.1247 0.0
N1052 N 0.37351 0.08297 0.10403 0.0
N1053 N 0.39546 0.12559 0.14392 0.0
C1054 C 0.3645 0.12994 0.13392 0.0
C1055 C 0.35256 0.10687 0.11225 0.0
C1056 C 0.22665 0.95065 0.01134 0.0
C1057 C 0.22658 0.97401 0.03428 0.0
C1058 C 0.20433 0.92449 0.00991 0.0
C1059 C 0.18029 0.9227 0.03045 0.0
H1060 H 0.24143 0.95452 0.9929 0.0
H1061 H 0.20171 0.91028 0.98989 0.0
S1062 S 0.18355 0.96497 0.10228 0.0
N1063 N 0.21083 0.98437 0.08364 0.0
N1064 N 0.16836 0.93556 0.08055 0.0
C1065 C 0.18611 0.93999 0.05685 0.0
C1066 C 0.20884 0.96651 0.05849 0.0
C1067 C 0.68648 0.48416 0.05717 0.0
C1068 C 0.69097 0.45196 0.06822 0.0
C1069 C 0.65545 0.49686 0.05139 0.0
C1070 C 0.62796 0.47807 0.05712 0.0
H1071 H 0.70705 0.49937 0.05225 0.0
H1072 H 0.65299 0.52155 0.04248 0.0
S1073 S 0.62683 0.39268 0.08677 0.0
N1074 N 0.6655 0.40176 0.08496 0.0
N1075 N 0.60719 0.42572 0.0747 0.0
C1076 C 0.63217 0.44606 0.0687 0.0
C1077 C 0.6637 0.43298 0.07409 0.0
C1078 C 0.89745 0.38393 0.24996 0.0
C1079 C 0.88424 0.41601 0.25239 0.0
C1080 C 0.88354 0.35648 0.26302 0.0
C1081 C 0.85561 0.35973 0.27914 0.0
H1082 H 0.91893 0.37978 0.23784 0.0
H1083 H 0.89438 0.33236 0.25973 0.0
S1084 S 0.8118 0.43842 0.29312 0.0
N1085 N 0.84182 0.44951 0.27297 0.0
N1086 N 0.81562 0.39796 0.29744 0.0
C1087 C 0.84238 0.39174 0.28223 0.0
C1088 C 0.85654 0.4198 0.26883 0.0
C1089 C 0.89359 0.551 0.53616 0.0
C1090 C 0.87309 0.5298 0.51971 0.0
C1091 C 0.92696 0.54794 0.53487 0.0
C1092 C 0.94058 0.52367 0.51697 0.0
H1093 H 0.88384 0.56832 0.55165 0.0
H1094 H 0.94209 0.56363 0.549 0.0
S1095 S 0.89604 0.46581 0.46641 0.0
N1096 N 0.86764 0.48641 0.48303 0.0
N1097 N 0.93067 0.481 0.47968 0.0
C1098 C 0.92003 0.50431 0.49852 0.0
C1099 C 0.88606 0.50723 0.5002 0.0
C1100 C 0.23799 0.12134 0.23536 0.0
C1101 C 0.22361 0.10302 0.2569 0.0
C1102 C 0.26213 0.14457 0.24263 0.0
C1103 C 0.2719 0.15103 0.27178 0.0
H1104 H 0.23017 0.11806 0.21284 0.0
H1105 H 0.2719 0.15888 0.2253 0.0
S1106 S 0.24168 0.10894 0.33607 0.0
N1107 N 0.22137 0.09153 0.30833 0.0
N1108 N 0.26585 0.13662 0.32212 0.0
C1109 C 0.25805 0.13241 0.29347 0.0
C1110 C 0.23411 0.108 0.28598 0.0
C1111 C 0.38289 0.017 0.53206 0.0
C1112 C 0.37555 0.98399 0.53899 0.0
C1113 C 0.41389 0.02607 0.52425 0.0
C1114 C 0.4387 0.0024 0.52271 0.0
H1115 H 0.3645 0.03606 0.53268 0.0
H1116 H 0.41846 0.05197 0.51977 0.0
S1117 S 0.43132 0.91203 0.53708 0.0
N1118 N 0.3952 0.92725 0.54284 0.0
N1119 N 0.45337 0.94403 0.52782 0.0
C1120 C 0.43147 0.96908 0.52906 0.0
C1121 C 0.39999 0.95997 0.5374 0.0
C1122 C 0.838 0.6281 0.23126 0.0
C1123 C 0.85583 0.61374 0.25453 0.0
C1124 C 0.82003 0.65734 0.2351 0.0
C1125 C 0.81832 0.67244 0.26257 0.0
H1126 H 0.83875 0.61725 0.20973 0.0
H1127 H 0.80745 0.6682 0.2165 0.0
S1128 S 0.85972 0.64402 0.33065 0.0
N1129 N 0.87046 0.6167 0.30592 0.0
N1130 N 0.8357 0.67064 0.31348 0.0
C1131 C 0.83535 0.65777 0.28613 0.0
C1132 C 0.85437 0.62868 0.28203 0.0
C1133 C 0.73923 0.41372 0.76994 0.0
C1134 C 0.70552 0.41269 0.76461 0.0
C1135 C 0.75757 0.38437 0.77204 0.0
C1136 C 0.74295 0.35308 0.76777 0.0
H1137 H 0.75148 0.43738 0.77291 0.0
H1138 H 0.78332 0.38615 0.77676 0.0
S1139 S 0.65565 0.33658 0.75361 0.0
N1140 N 0.65835 0.37748 0.75574 0.0
N1141 N 0.69286 0.32266 0.75865 0.0
C1142 C 0.70937 0.35172 0.76225 0.0
C1143 C 0.69064 0.38142 0.76093 0.0
C1144 C 0.95127 0.95215 0.9526 0.0
C1145 C 0.95764 0.91805 0.94932 0.0
C1146 C 0.95457 0.96763 0.97989 0.0
C1147 C 0.9655 0.9496 0.00434 0.0
H1148 H 0.94676 0.96752 0.93378 0.0
H1149 H 0.95345 0.99452 0.98087 0.0
S1150 S 0.9753 0.85891 0.00909 0.0
N1151 N 0.96666 0.86554 0.97444 0.0
N1152 N 0.97467 0.89563 0.02517 0.0
C1153 C 0.96646 0.91506 0.00219 0.0
C1154 C 0.9624 0.89901 0.97467 0.0
C1155 C 0.93514 0.26073 0.75295 0.0
C1156 C 0.93878 0.2605 0.72274 0.0
C1157 C 0.90484 0.26523 0.76502 0.0
C1158 C 0.87654 0.26891 0.74744 0.0
H1159 H 0.95595 0.25704 0.76752 0.0
H1160 H 0.9035 0.26447 0.78837 0.0
S1161 S 0.8727 0.27102 0.667 0.0
N1162 N 0.91143 0.26568 0.67552 0.0
N1163 N 0.85438 0.27304 0.69803 0.0
C1164 C 0.87986 0.26937 0.71717 0.0
C1165 C 0.91093 0.26551 0.70489 0.0
C1166 C 0.54582 0.23643 0.44752 0.0
C1167 C 0.53858 0.26644 0.46171 0.0
C1168 C 0.54075 0.20591 0.46058 0.0
C1169 C 0.5284 0.20421 0.48835 0.0
H1170 H 0.55415 0.23639 0.42561 0.0
H1171 H 0.54592 0.18337 0.44858 0.0
S1172 S 0.50821 0.27526 0.53588 0.0
N1173 N 0.52053 0.29255 0.50604 0.0
N1174 N 0.51114 0.23474 0.53058 0.0
C1175 C 0.52286 0.23387 0.50357 0.0
C1176 C 0.52797 0.26513 0.49025 0.0
C1177 C 0.65518 0.76955 0.19303 0.0
C1178 C 0.6262 0.76684 0.20764 0.0
C1179 C 0.68542 0.76694 0.20779 0.0
C1180 C 0.68818 0.76112 0.23785 0.0
H1181 H 0.65458 0.77414 0.16997 0.0
H1182 H 0.70687 0.76976 0.19545 0.0
S1183 S 0.61966 0.75085 0.28625 0.0
N1184 N 0.60227 0.75722 0.254 0.0
N1185 N 0.65888 0.75203 0.28158 0.0
C1186 C 0.65936 0.75773 0.25267 0.0
C1187 C 0.62852 0.7607 0.23766 0.0
C1188 C 0.03213 0.12218 0.63071 0.0
C1189 C 0.03315 0.15495 0.62036 0.0
C1190 C 0.03333 0.09457 0.61193 0.0
C1191 C 0.03602 0.09826 0.58185 0.0
H1192 H 0.03031 0.11766 0.65364 0.0
H1193 H 0.03234 0.07003 0.62125 0.0
S1194 S 0.03949 0.17856 0.5433 0.0
N1195 N 0.03678 0.1894 0.57769 0.0
N1196 N 0.03934 0.13753 0.54249 0.0
C1197 C 0.03707 0.13085 0.57108 0.0
C1198 C 0.03551 0.1591 0.59025 0.0
C1199 C 0.59841 0.35948 0.34108 0.0
C1200 C 0.59734 0.38002 0.36585 0.0
C1201 C 0.62755 0.35176 0.32857 0.0
C1202 C 0.65706 0.36497 0.33966 0.0
H1203 H 0.57674 0.34754 0.33209 0.0
H1204 H 0.62682 0.33391 0.31085 0.0
S1205 S 0.66666 0.42462 0.40154 0.0
N1206 N 0.62776 0.41568 0.39981 0.0
N1207 N 0.6826 0.40335 0.37491 0.0
C1208 C 0.65608 0.38749 0.36331 0.0
C1209 C 0.62627 0.39453 0.37667 0.0
C1210 C 0.51666 0.89116 0.1193 0.0
C1211 C 0.51802 0.8595 0.10602 0.0
C1212 C 0.51481 0.92041 0.1029 0.0
C1213 C 0.51408 0.91953 0.07234 0.0
H1214 H 0.51769 0.89353 0.14269 0.0
H1215 H 0.51467 0.94401 0.11442 0.0
S1216 S 0.51505 0.8429 0.02667 0.0
N1217 N 0.51704 0.8291 0.0602 0.0
N1218 N 0.51346 0.88378 0.02948 0.0
C1219 C 0.5144 0.88796 0.05873 0.0
C1220 C 0.51642 0.85813 0.07548 0.0
C1221 C 0.8827 0.80458 0.8558 0.0
C1222 C 0.91384 0.79654 0.84739 0.0
C1223 C 0.85732 0.78203 0.85163 0.0
C1224 C 0.86192 0.75105 0.83779 0.0
H1225 H 0.8777 0.82878 0.86512 0.0
H1226 H 0.83339 0.79046 0.85676 0.0
S1227 S 0.93996 0.71651 0.81549 0.0
N1228 N 0.94904 0.754 0.82831 0.0
N1229 N 0.90073 0.71205 0.819 0.0
C1230 C 0.89349 0.74174 0.83142 0.0
C1231 C 0.91956 0.76448 0.83636 0.0
C1232 C 0.01718 0.99138 0.89421 0.0
C1233 C 0.98868 0.00745 0.88451 0.0
C1234 C 0.03062 0.99706 0.92207 0.0
C1235 C 0.01618 0.01916 0.94146 0.0
H1236 H 0.02892 0.97349 0.88046 0.0
H1237 H 0.0519 0.98309 0.92873 0.0
S1238 S 0.94278 0.06982 0.92601 0.0
N1239 N 0.94754 0.04812 0.89599 0.0
N1240 N 0.97285 0.05889 0.94838 0.0
C1241 C 0.98846 0.03655 0.93167 0.0
C1242 C 0.97464 0.03065 0.90326 0.0
C1243 C 0.75661 0.18307 0.58986 0.0
C1244 C 0.76786 0.15017 0.58915 0.0
C1245 C 0.7515 0.19934 0.61626 0.0
C1246 C 0.75782 0.18341 0.64288 0.0
H1247 H 0.75092 0.19604 0.56988 0.0
H1248 H 0.74231 0.22452 0.61582 0.0
S1249 S 0.79099 0.0984 0.65252 0.0
N1250 N 0.78683 0.10276 0.61708 0.0
N1251 N 0.77848 0.13368 0.6667 0.0
C1252 C 0.76994 0.15076 0.64236 0.0
C1253 C 0.77468 0.13408 0.6155 0.0
C1254 C 0.56511 0.05669 0.39154 0.0
C1255 C 0.59011 0.03564 0.38279 0.0
C1256 C 0.55062 0.05247 0.41802 0.0
C1257 C 0.56025 0.0268 0.43679 0.0
H1258 H 0.55678 0.07698 0.37798 0.0
H1259 H 0.532 0.06982 0.42399 0.0
S1260 S 0.62419 0.96434 0.42406 0.0
N1261 N 0.62355 0.98774 0.39495 0.0
N1262 N 0.59624 0.9797 0.44477 0.0
C1263 C 0.58486 0.00514 0.42819 0.0
C1264 C 0.59986 0.00965 0.40125 0.0
C1265 C 0.83051 0.90639 0.13107 0.0
C1266 C 0.83454 0.89264 0.10332 0.0
C1267 C 0.83123 0.88645 0.15565 0.0
C1268 C 0.83642 0.85197 0.15358 0.0
H1269 H 0.82439 0.93238 0.13371 0.0
H1270 H 0.82548 0.89791 0.17612 0.0
S1271 S 0.85578 0.80509 0.08692 0.0
N1272 N 0.84885 0.84335 0.07575 0.0
N1273 N 0.85122 0.80596 0.12225 0.0
C1274 C 0.84369 0.83846 0.12639 0.0
C1275 C 0.8426 0.85878 0.10121 0.0
C1276 C 0.97326 0.98159 0.72015 0.0
C1277 C 0.94367 0.99851 0.72044 0.0
C1278 C 0.98511 0.9693 0.69432 0.0
C1279 C 0.96821 0.97421 0.66772 0.0
H1280 H 0.98756 0.97781 0.73994 0.0
H1281 H 0.00826 0.95682 0.69505 0.0
S1282 S 0.8898 0.01774 0.65683 0.0
N1283 N 0.89735 0.01915 0.69219 0.0
N1284 N 0.92044 0.99761 0.64321 0.0
C1285 C 0.9383 0.99073 0.66774 0.0
C1286 C 0.92592 0.00264 0.6942 0.0
C1287 C 0.82093 0.18422 0.39523 0.0
C1288 C 0.80466 0.19671 0.41918 0.0
C1289 C 0.8253 0.20366 0.3707 0.0
C1290 C 0.81317 0.23625 0.36892 0.0
H1291 H 0.82959 0.15885 0.39504 0.0
H1292 H 0.83668 0.19231 0.35238 0.0
S1293 S 0.77163 0.28192 0.42681 0.0
N1294 N 0.77877 0.2448 0.4405 0.0
N1295 N 0.78656 0.28112 0.39426 0.0
C1296 C 0.79837 0.24966 0.39331 0.0
C1297 C 0.79424 0.22997 0.41846 0.0
C1298 C 0.5829 0.03562 0.22331 0.0
C1299 C 0.61397 0.02157 0.22255 0.0
C1300 C 0.5663 0.04552 0.19792 0.0
C1301 C 0.58012 0.04154 0.17093 0.0
H1302 H 0.57139 0.03946 0.24367 0.0
H1303 H 0.54253 0.0564 0.1994 0.0
S1304 S 0.65889 0.00209 0.15682 0.0
N1305 N 0.65681 0.00194 0.19241 0.0
N1306 N 0.62519 0.01972 0.14451 0.0
C1307 C 0.61068 0.02652 0.16974 0.0
C1308 C 0.62768 0.01669 0.1956 0.0
C1309 C 0.77426 0.87656 0.93861 0.0
C1310 C 0.752 0.90244 0.94258 0.0
C1311 C 0.76881 0.85209 0.9172 0.0
C1312 C 0.74084 0.85239 0.89892 0.0
H1313 H 0.79622 0.87517 0.95207 0.0
H1314 H 0.78703 0.83315 0.91455 0.0
S1315 S 0.67423 0.91355 0.9008 0.0
N1316 N 0.70029 0.92623 0.9266 0.0
N1317 N 0.69021 0.87995 0.88647 0.0
C1318 C 0.71826 0.87786 0.90263 0.0
C1319 C 0.72378 0.90292 0.92442 0.0
C1320 C 0.86224 0.04902 0.99199 0.0
C1321 C 0.83619 0.05181 0.01012 0.0
C1322 C 0.89084 0.06646 -0.00154 0.0
C1323 C 0.89437 0.08645 0.02366 0.0
H1324 H 0.86138 0.03141 0.97405 0.0
H1325 H 0.91143 0.06111 0.98553 0.0
S1326 S 0.83126 0.10487 0.07575 0.0
N1327 N 0.81382 0.0788 0.05203 0.0
N1328 N 0.86816 0.11099 0.06472 0.0
C1329 C 0.86736 0.09174 0.04035 0.0
C1330 C 0.83808 0.07437 0.0335 0.0
C1331 C 0.37893 0.53048 0.02734 0.0
C1332 C 0.37 0.55653 0.00863 0.0
C1333 C 0.41106 0.52046 0.03107 0.0
C1334 C 0.43572 0.5359 0.0161 0.0
H1335 H 0.36109 0.51811 0.0399 0.0
H1336 H 0.41658 0.50073 0.04621 0.0
S1337 S 0.42503 0.60369 0.96275 0.0
N1338 N 0.38832 0.59644 0.97366 0.0
N1339 N 0.44885 0.57746 0.98058 0.0
C1340 C 0.4271 0.56122 -0.00349 0.0
C1341 C 0.39426 0.57161 0.99281 0.0
C1342 C 0.18676 0.66051 0.78145 0.0
C1343 C 0.20011 0.62908 0.78781 0.0
C1344 C 0.20622 0.68776 0.77525 0.0
C1345 C 0.23995 0.68481 0.77479 0.0
H1346 H 0.16091 0.66434 0.78146 0.0
H1347 H 0.19468 0.71146 0.77111 0.0
S1348 S 0.28733 0.60817 0.78996 0.0
N1349 N 0.24944 0.59672 0.79323 0.0
N1350 N 0.28607 0.64787 0.78145 0.0
C1351 C 0.25374 0.65348 0.78079 0.0
C1352 C 0.23386 0.62572 0.78741 0.0
C1353 C 0.18128 0.4424 0.52341 0.0
C1354 C 0.20279 0.46029 0.54194 0.0
C1355 C 0.14939 0.45285 0.51902 0.0
C1356 C 0.13792 0.48125 0.53332 0.0
H1357 H 0.18948 0.42117 0.51111 0.0
H1358 H 0.13373 0.43867 0.50412 0.0
S1359 S 0.18435 0.53473 0.58617 0.0
N1360 N 0.2104 0.50635 0.57599 0.0
N1361 N 0.1501 0.5258 0.56825 0.0
C1362 C 0.15889 0.49844 0.55296 0.0
C1363 C 0.19145 0.48797 0.55715 0.0
C1364 C 0.88893 0.8732 0.77448 0.0
C1365 C 0.88075 0.89736 0.79524 0.0
C1366 C 0.86939 0.84533 0.76868 0.0
C1367 C 0.84096 0.84037 0.78353 0.0
H1368 H 0.91037 0.87607 0.76214 0.0
H1369 H 0.87679 0.82748 0.75255 0.0
S1370 S 0.8101 0.89511 0.84172 0.0
N1371 N 0.84319 0.91378 0.83167 0.0
N1372 N 0.80644 0.86143 0.82115 0.0
C1373 C 0.83281 0.86411 0.8048 0.0
C1374 C 0.85268 0.89257 0.81056 0.0
C1375 C 0.66563 0.10801 0.51033 0.0
C1376 C 0.68744 0.08751 0.49598 0.0
C1377 C 0.63869 0.09474 0.52324 0.0
C1378 C 0.63223 0.0604 0.52225 0.0
H1379 H 0.66927 0.13465 0.51162 0.0
H1380 H 0.62213 0.11177 0.53323 0.0
S1381 S 0.6822 0.99579 0.48781 0.0
N1382 N 0.70131 0.03097 0.48217 0.0
N1383 N 0.65031 0.00598 0.50618 0.0
C1384 C 0.6543 0.03942 0.50869 0.0
C1385 C 0.68188 0.053 0.49552 0.0
C1386 C 0.20657 0.3982 0.82386 0.0
C1387 C 0.21969 0.42743 0.81266 0.0
C1388 C 0.22129 0.36718 0.81986 0.0
C1389 C 0.2494 0.36404 0.80402 0.0
H1390 H 0.18425 0.39913 0.83519 0.0
H1391 H 0.20975 0.34533 0.82819 0.0
S1392 S 0.29501 0.43307 0.77224 0.0
N1393 N 0.26389 0.45138 0.7868 0.0
N1394 N 0.29112 0.3931 0.77891 0.0
C1395 C 0.26349 0.39318 0.7937 0.0
C1396 C 0.24879 0.42484 0.79815 0.0
C1397 C 0.35114 0.6252 0.33219 0.0
C1398 C 0.34 0.59698 0.31661 0.0
C1399 C 0.33718 0.65636 0.32748 0.0
C1400 C 0.31184 0.66063 0.30664 0.0
H1401 H 0.37179 0.62348 0.34726 0.0
H1402 H 0.34748 0.6775 0.33931 0.0
S1403 S 0.2715 0.59388 0.26237 0.0
N1404 N 0.30021 0.57458 0.28144 0.0
N1405 N 0.27409 0.63337 0.27227 0.0
C1406 C 0.29915 0.63226 0.29215 0.0
C1407 C 0.31315 0.60035 0.29727 0.0
C1408 C 0.62097 0.57362 0.59914 0.0
C1409 C 0.61998 0.60711 0.59084 0.0
C1410 C 0.61347 0.54833 0.57889 0.0
C1411 C 0.60482 0.5559 0.54998 0.0
H1412 H 0.62346 0.56713 0.62181 0.0
H1413 H 0.60909 0.52367 0.58693 0.0
S1414 S 0.60914 0.63827 0.51585 0.0
N1415 N 0.61803 0.64557 0.55053 0.0
N1416 N 0.6033 0.59776 0.51275 0.0
C1417 C 0.60929 0.58845 0.54063 0.0
C1418 C 0.6169 0.61425 0.56111 0.0
C1419 C 0.6634 0.25331 0.86906 0.0
C1420 C 0.63318 0.25143 0.85405 0.0
C1421 C 0.69242 0.25175 0.85443 0.0
C1422 C 0.69272 0.24798 0.82404 0.0
H1423 H 0.66476 0.25645 0.89239 0.0
H1424 H 0.71489 0.25385 0.86715 0.0
S1425 S 0.62026 0.24126 0.77432 0.0
N1426 N 0.60547 0.24511 0.80681 0.0
N1427 N 0.65988 0.24205 0.77946 0.0
C1428 C 0.6627 0.24547 0.80874 0.0
C1429 C 0.63306 0.24725 0.82366 0.0
C1430 C 0.06741 0.31113 0.07321 0.0
C1431 C 0.05918 0.30822 0.10233 0.0
C1432 C 0.06653 0.34186 0.05948 0.0
C1433 C 0.05749 0.37063 0.07446 0.0
H1434 H 0.07575 0.28977 0.06117 0.0
H1435 H 0.07399 0.34333 0.03733 0.0
S1436 S 0.02928 0.3759 0.14942 0.0
N1437 N 0.03855 0.33638 0.14469 0.0
N1438 N 0.03682 0.39419 0.11863 0.0
C1439 C 0.04752 0.36791 0.10298 0.0
C1440 C 0.04833 0.33664 0.11698 0.0
C1441 C 0.91822 0.7547 0.3556 0.0
C1442 C 0.94014 0.77809 0.34515 0.0
C1443 C 0.88554 0.75422 0.34576 0.0
C1444 C 0.87366 0.77702 0.32503 0.0
H1445 H 0.92645 0.73619 0.37103 0.0
H1446 H 0.8698 0.73516 0.35365 0.0
S1447 S 0.91965 0.84563 0.29313 0.0
N1448 N 0.9463 0.82645 0.31449 0.0
N1449 N 0.88554 0.82515 0.2962 0.0
C1450 C 0.89492 0.80121 0.31529 0.0
C1451 C 0.92794 0.80185 0.32527 0.0
C1452 C 0.54234 0.39722 0.93788 0.0
C1453 C 0.53876 0.36422 0.94706 0.0
C1454 C 0.53793 0.42431 0.95657 0.0
C1455 C 0.52974 0.41998 0.98557 0.0
H1456 H 0.54862 0.40243 0.91586 0.0
H1457 H 0.54128 0.44899 0.94808 0.0
S1458 S 0.51731 0.33884 0.02091 0.0
N1459 N 0.52621 0.32878 0.98742 0.0
N1460 N 0.51812 0.37984 0.02267 0.0
C1461 C 0.52583 0.38718 0.99518 0.0
C1462 C 0.53031 0.35935 0.97599 0.0
C1463 C 0.9936 0.16762 0.22894 0.0
C1464 C -0.00077 0.17698 0.20033 0.0
C1465 C 0.96362 0.17336 0.24107 0.0
C1466 C 0.9381 0.18825 0.22493 0.0
H1467 H 0.01299 0.15768 0.24267 0.0
H1468 H 0.96079 0.16731 0.2636 0.0
S1469 S 0.93921 0.21348 0.14799 0.0
N1470 N 0.9757 0.19867 0.15527 0.0
N1471 N 0.91967 0.2098 0.17816 0.0
C1472 C 0.94273 0.19553 0.19571 0.0
C1473 C 0.97322 0.1898 0.18339 0.0
C1474 C 0.05052 0.65728 0.47764 0.0
C1475 C 0.04262 0.65759 0.44766 0.0
C1476 C 0.05299 0.62737 0.49302 0.0
C1477 C 0.04796 0.59636 0.47911 0.0
H1478 H 0.05467 0.68038 0.48946 0.0
H1479 H 0.05871 0.62865 0.5161 0.0
S1480 S 0.02686 0.58316 0.40076 0.0
N1481 N 0.0299 0.62388 0.40461 0.0
N1482 N 0.0347 0.56795 0.43329 0.0
C1483 C 0.04036 0.59627 0.44904 0.0
C1484 C 0.03763 0.62674 0.43342 0.0
C1485 C 0.65878 0.76221 0.70771 0.0
C1486 C 0.66416 0.75075 0.67949 0.0
C1487 C 0.68435 0.77257 0.72619 0.0
C1488 C 0.71629 0.77132 0.71719 0.0
H1489 H 0.6348 0.76159 0.71615 0.0
H1490 H 0.67919 0.77888 0.74837 0.0
S1491 S 0.74234 0.74974 0.64343 0.0
N1492 N 0.70292 0.74373 0.64182 0.0
N1493 N 0.75133 0.76303 0.67673 0.0
C1494 C 0.7216 0.76329 0.68804 0.0
C1495 C 0.69542 0.75292 0.66912 0.0
C1496 C 0.59104 0.4675 0.6536 0.0
C1497 C 0.58578 0.49226 0.67437 0.0
C1498 C 0.57186 0.46553 0.62804 0.0
C1499 C 0.54722 0.48889 0.62189 0.0
H1500 H 0.61042 0.44974 0.65697 0.0
H1501 H 0.57762 0.44645 0.61237 0.0
S1502 S 0.52244 0.55728 0.67065 0.0
N1503 N 0.55273 0.53907 0.68853 0.0
N1504 N 0.51739 0.53634 0.63984 0.0
C1505 C 0.54083 0.51297 0.64316 0.0
C1506 C 0.55998 0.51444 0.66956 0.0
C1507 C 0.785 0.38391 0.948 0.0
C1508 C 0.79345 0.37242 0.97596 0.0
C1509 C 0.79305 0.36601 0.9233 0.0
C1510 C 0.8098 0.33579 0.92544 0.0
H1511 H 0.77209 0.40707 0.94498 0.0
H1512 H 0.78546 0.37564 0.9023 0.0
S1513 S 0.83804 0.29456 0.99314 0.0
N1514 N 0.81989 0.32864 0.0042 0.0
N1515 N 0.83495 0.29501 0.9574 0.0
C1516 C 0.81843 0.32379 0.95309 0.0
C1517 C 0.8103 0.34209 0.97842 0.0
C1518 C 0.95938 0.56298 0.13682 0.0
C1519 C 0.9711 0.54346 0.15991 0.0
C1520 C 0.97729 0.56702 0.11207 0.0
C1521 C 0.0072 0.55098 0.10925 0.0
H1522 H 0.93611 0.57504 0.13779 0.0
H1523 H 0.9668 0.58143 0.0944 0.0
S1524 S 0.04882 0.49764 0.16384 0.0
N1525 N 0.01511 0.50897 0.17895 0.0
N1526 N 0.04806 0.5155 0.13183 0.0
C1527 C 0.01945 0.53189 0.13239 0.0
C1528 C 0.00159 0.52841 0.15789 0.0
C1529 C 0.72959 0.65626 0.45909 0.0
C1530 C 0.74038 0.62341 0.45503 0.0
C1531 C 0.72842 0.67897 0.43622 0.0
C1532 C 0.73764 0.66957 0.40835 0.0
H1533 H 0.72292 0.66488 0.48031 0.0
H1534 H 0.72069 0.70419 0.44045 0.0
S1535 S 0.76696 0.58644 0.38594 0.0
N1536 N 0.75957 0.58251 0.42054 0.0
N1537 N 0.75769 0.62519 0.37787 0.0
C1538 C 0.74763 0.6366 0.40379 0.0
C1539 C 0.7489 0.61354 0.42702 0.0
C1540 C 0.61451 0.53022 0.85726 0.0
C1541 C 0.59672 0.54787 0.83585 0.0
C1542 C 0.60908 0.53513 0.88671 0.0
C1543 C 0.58576 0.55785 0.89565 0.0
H1544 H 0.63211 0.51179 0.85128 0.0
H1545 H 0.62196 0.51981 0.90247 0.0
S1546 S 0.5352 0.61297 0.84912 0.0
N1547 N 0.55661 0.59127 0.82629 0.0
N1548 N 0.54656 0.59989 0.88168 0.0
C1549 C 0.56899 0.57682 0.8748 0.0
C1550 C 0.57442 0.57197 0.84488 0.0
C1551 C 0.79795 0.32028 0.15013 0.0
C1552 C 0.79583 0.35526 0.15105 0.0
C1553 C 0.79449 0.30122 0.17514 0.0
C1554 C 0.78779 0.31634 0.20179 0.0
H1555 H 0.80244 0.3075 0.12994 0.0
H1556 H 0.79693 0.27447 0.17358 0.0
S1557 S 0.78116 0.40701 0.21626 0.0
N1558 N 0.78778 0.40415 0.18136 0.0
N1559 N 0.78054 0.36845 0.22792 0.0
C1560 C 0.78571 0.35125 0.20303 0.0
C1561 C 0.78993 0.37066 0.17781 0.0
C1562 C 0.01704 0.47465 0.32351 0.0
C1563 C 0.9887 0.49308 0.31737 0.0
C1564 C 0.02655 0.46643 0.35186 0.0
C1565 C 0.00801 0.47613 0.37513 0.0
H1566 H 0.03192 0.46598 0.30626 0.0
H1567 H 0.04843 0.45214 0.3556 0.0
S1568 S 0.93361 0.52717 0.37163 0.0
N1569 N 0.94327 0.52246 0.33752 0.0
N1570 N 0.96152 0.50706 0.39096 0.0
C1571 C 0.98019 0.49531 0.36963 0.0
C1572 C 0.97049 0.50385 0.34073 0.0
C1573 C 0.78564 0.63464 0.62255 0.0
C1574 C 0.80173 0.60422 0.61934 0.0
C1575 C 0.79641 0.65817 0.64332 0.0
C1576 C 0.82406 0.65246 0.66134 0.0
H1577 H 0.76414 0.64005 0.60932 0.0
H1578 H 0.78231 0.68056 0.64584 0.0
S1579 S 0.87705 0.57836 0.65901 0.0
N1580 N 0.84793 0.57048 0.63441 0.0
N1581 N 0.86875 0.61521 0.6729 0.0
C1582 C 0.84105 0.62261 0.65759 0.0
C1583 C 0.82976 0.59839 0.63674 0.0
C1584 C 0.70464 0.44878 0.51899 0.0
C1585 C 0.7032 0.47405 0.54013 0.0
C1586 C 0.68238 0.42257 0.51821 0.0
C1587 C 0.65764 0.42145 0.53816 0.0
H1588 H 0.72125 0.45069 0.50161 0.0
H1589 H 0.68188 0.40574 0.49972 0.0
S1590 S 0.65429 0.4735 0.60508 0.0
N1591 N 0.68297 0.49057 0.58652 0.0
N1592 N 0.64082 0.44158 0.58533 0.0
C1593 C 0.66029 0.44312 0.56247 0.0
C1594 C 0.68285 0.46982 0.56311 0.0
C1595 C 0.18642 0.98515 0.55238 0.0
C1596 C 0.19101 0.95364 0.56479 0.0
C1597 C 0.15533 0.9976 0.54639 0.0
C1598 C 0.12792 0.97926 0.55324 0.0
H1599 H 0.20694 -9e-05 0.54652 0.0
H1600 H 0.15277 0.0217 0.53635 0.0
S1601 S 0.12717 0.89585 0.58687 0.0
N1602 N 0.16578 0.90468 0.58418 0.0
N1603 N 0.1074 0.92815 0.5735 0.0
C1604 C 0.13228 0.94802 0.56626 0.0
C1605 C 0.16384 0.93518 0.57189 0.0
C1606 C 0.35626 0.91494 0.76349 0.0
C1607 C 0.38811 0.91323 0.75413 0.0
C1608 C 0.34098 0.88709 0.77479 0.0
C1609 C 0.35688 0.85628 0.77731 0.0
H1610 H 0.34277 0.93791 0.76179 0.0
H1611 H 0.31606 0.88954 0.78061 0.0
S1612 S 0.44142 0.83899 0.7583 0.0
N1613 N 0.43571 0.87831 0.74986 0.0
N1614 N 0.40707 0.8263 0.77115 0.0
C1615 C 0.38912 0.85449 0.76902 0.0
C1616 C 0.40465 0.88278 0.75737 0.0
C1617 C 0.3886 0.07678 0.02615 0.0
C1618 C 0.37622 0.07468 -0.00263 0.0
C1619 C 0.41875 0.06341 0.03388 0.0
C1620 C 0.43761 0.04838 0.01289 0.0
H1621 H 0.37377 0.08573 0.04326 0.0
H1622 H 0.42649 0.06333 0.05657 0.0
S1623 S 0.42099 0.04929 0.93339 0.0
N1624 N 0.38804 0.0647 0.94715 0.0
N1625 N 0.44572 0.04093 0.96125 0.0
C1626 C 0.42755 0.05098 0.98352 0.0
C1627 C 0.39667 0.06416 0.97583 0.0
C1628 C 0.72344 0.6078 0.76131 0.0
C1629 C 0.69029 0.61299 0.7551 0.0
C1630 C 0.74353 0.63383 0.77152 0.0
C1631 C 0.73097 0.66562 0.77681 0.0
H1632 H 0.734 0.58349 0.75818 0.0
H1633 H 0.76907 0.6291 0.77527 0.0
S1634 S 0.64657 0.69311 0.76268 0.0
N1635 N 0.64632 0.65329 0.75382 0.0
N1636 N 0.68405 0.70159 0.77373 0.0
C1637 C 0.69806 0.67129 0.77062 0.0
C1638 C 0.67774 0.64514 0.75955 0.0
C1639 C 0.89961 0.46519 0.04318 0.0
C1640 C 0.87336 0.48721 0.04096 0.0
C1641 C 0.93044 0.47488 0.03522 0.0
C1642 C 0.93632 0.50704 0.02488 0.0
H1643 H 0.89623 0.44001 0.0505 0.0
H1644 H 0.94988 0.45702 0.03754 0.0
S1645 S 0.87587 0.57459 0.01608 0.0
N1646 N 0.8554 0.54297 0.02843 0.0
N1647 N 0.91319 0.56112 0.01344 0.0
C1648 C 0.91029 0.5294 0.0228 0.0
C1649 C 0.87891 0.51953 0.0309 0.0
C1650 C 0.33955 0.12734 0.73057 0.0
C1651 C 0.35892 0.11382 0.75329 0.0
C1652 C 0.32284 0.15742 0.73427 0.0
C1653 C 0.32405 0.17424 0.7611 0.0
H1654 H 0.33799 0.11507 0.70957 0.0
H1655 H 0.30874 0.16743 0.71614 0.0
S1656 S 0.37074 0.14908 0.82748 0.0
N1657 N 0.37838 0.11978 0.80341 0.0
N1658 N 0.34597 0.17533 0.81071 0.0
C1659 C 0.34281 0.16065 0.78408 0.0
C1660 C 0.36052 0.13068 0.78009 0.0
C1661 C 0.21454 0.89896 0.29018 0.0
C1662 C 0.21096 0.91467 0.26329 0.0
C1663 C 0.23251 0.86963 0.29312 0.0
C1664 C 0.24663 0.85456 0.2691 0.0
H1665 H 0.20375 0.90962 0.3091 0.0
H1666 H 0.23455 0.85815 0.31421 0.0
S1667 S 0.24355 0.88555 0.1939 0.0
N1668 N 0.22306 0.91331 0.21225 0.0
N1669 N 0.25559 0.85728 0.2176 0.0
C1670 C 0.24294 0.86985 0.24206 0.0
C1671 C 0.22543 0.90019 0.23922 0.0
C1672 C 0.43328 0.45192 0.45755 0.0
C1673 C 0.43957 0.41772 0.4556 0.0
C1674 C 0.43264 0.46768 0.48479 0.0
C1675 C 0.44014 0.44964 0.51019 0.0
H1676 H 0.43332 0.46716 0.4384 0.0
H1677 H 0.43305 0.49461 0.4854 0.0
S1678 S 0.44114 0.35828 0.51635 0.0
N1679 N 0.43937 0.36509 0.48113 0.0
N1680 N 0.44051 0.39532 0.53211 0.0
C1681 C 0.43781 0.41501 0.50846 0.0
C1682 C 0.4376 0.39881 0.48094 0.0
C1683 C 0.40978 0.76197 0.20645 0.0
C1684 C 0.43816 0.76052 0.22421 0.0
C1685 C 0.37917 0.76499 0.21853 0.0
C1686 C 0.3758 0.76751 0.24878 0.0
H1687 H 0.41112 0.75944 0.18317 0.0
H1688 H 0.35795 0.76484 0.20404 0.0
S1689 S 0.44314 0.76785 0.30445 0.0
N1690 N 0.46106 0.76363 0.27342 0.0
N1691 N 0.40417 0.77006 0.29594 0.0
C1692 C 0.40424 0.76755 0.26657 0.0
C1693 C 0.43518 0.76385 0.25435 0.0
C1694 C 0.03968 0.73165 0.92654 0.0
C1695 C 0.02873 0.76202 0.93778 0.0
C1696 C 0.03544 0.70203 0.94145 0.0
C1697 C 0.02004 0.70199 0.96793 0.0
H1698 H 0.05086 0.73066 0.90577 0.0
H1699 H 0.04393 0.67898 0.93212 0.0
S1700 S 0.98539 0.77387 0.00586 0.0
N1701 N 0.00095 0.78974 0.97675 0.0
N1702 N 0.99321 0.73377 0.00453 0.0
C1703 C 0.00935 0.73195 0.97957 0.0
C1704 C 0.01368 0.76211 0.96456 0.0
C1705 C 0.13418 0.25712 0.73368 0.0
C1706 C 0.1306 0.2616 0.7035 0.0
C1707 C 0.16486 0.2554 0.74787 0.0
C1708 C 0.19342 0.25845 0.7326 0.0
H1709 H 0.11308 0.25492 0.74656 0.0
H1710 H 0.16612 0.25238 0.77115 0.0
S1711 S 0.19759 0.26987 0.65314 0.0
N1712 N 0.15857 0.26838 0.65874 0.0
N1713 N 0.21591 0.26552 0.68527 0.0
C1714 C 0.19018 0.26261 0.70235 0.0
C1715 C 0.15895 0.26408 0.68788 0.0
C1716 C 0.52989 0.65826 0.09495 0.0
C1717 C 0.53767 0.65588 0.1249 0.0
C1718 C 0.5313 0.63035 0.07627 0.0
C1719 C 0.54016 0.5988 0.0868 0.0
H1720 H 0.52248 0.68184 0.08581 0.0
H1721 H 0.52463 0.63334 0.05354 0.0
S1722 S 0.56604 0.5792 0.16245 0.0
N1723 N 0.55698 0.6191 0.16349 0.0
N1724 N 0.55886 0.56718 0.12855 0.0
C1725 C 0.54859 0.59612 0.11643 0.0
C1726 C 0.54756 0.62445 0.13539 0.0
C1727 C 0.09109 0.84938 0.81938 0.0
C1728 C 0.08791 0.87315 0.84156 0.0
C1729 C 0.12136 0.84127 0.80909 0.0
C1730 C 0.14973 0.85712 0.82007 0.0
H1731 H 0.07031 0.83532 0.81115 0.0
H1732 H 0.12252 0.82114 0.79342 0.0
S1733 S 0.15329 0.92548 0.87487 0.0
N1734 N 0.11481 0.9148 0.87234 0.0
N1735 N 0.17171 0.90117 0.85175 0.0
C1736 C 0.14647 0.88275 0.84082 0.0
C1737 C 0.11559 0.89039 0.85183 0.0
C1738 C 0.02734 0.38666 0.61628 0.0
C1739 C 0.0269 0.35451 0.6039 0.0
C1740 C 0.02759 0.41521 0.59906 0.0
C1741 C 0.02735 0.41308 0.56855 0.0
H1742 H 0.02798 0.38992 0.6396 0.0
H1743 H 0.02844 0.43921 0.60992 0.0
S1744 S 0.02474 0.33484 0.52504 0.0
N1745 N 0.02516 0.32232 0.55895 0.0
N1746 N 0.02559 0.37582 0.52668 0.0
C1747 C 0.0262 0.38109 0.5558 0.0
C1748 C 0.026 0.35193 0.5734 0.0
C1749 C 0.44452 0.28507 0.31656 0.0
C1750 C 0.4436 0.29271 0.34614 0.0
C1751 C 0.42552 0.25945 0.30435 0.0
C1752 C 0.40398 0.24167 0.32123 0.0
H1753 H 0.4591 0.29979 0.30259 0.0
H1754 H 0.4252 0.25623 0.28103 0.0
S1755 S 0.39635 0.24957 0.40063 0.0
N1756 N 0.42332 0.27797 0.39285 0.0
N1757 N 0.38611 0.23072 0.36963 0.0
C1758 C 0.40518 0.24717 0.35134 0.0
C1759 C 0.42519 0.27273 0.36386 0.0
C1760 C 0.46523 0.52328 0.40506 0.0
C1761 C 0.48346 0.5069 0.3842 0.0
C1762 C 0.47616 0.52545 0.43408 0.0
C1763 C 0.50549 0.5109 0.44348 0.0
H1764 H 0.44204 0.53413 0.39909 0.0
H1765 H 0.46078 0.53739 0.44944 0.0
S1766 S 0.56404 0.46843 0.39726 0.0
N1767 N 0.5337 0.47821 0.37475 0.0
N1768 N 0.55393 0.48208 0.42942 0.0
C1769 C 0.52459 0.49563 0.42276 0.0
C1770 C 0.51366 0.49367 0.39311 0.0
C1771 C 0.2839 0.68136 0.09683 0.0
C1772 C 0.26059 0.65899 0.08545 0.0
C1773 C 0.2798 0.69749 0.12346 0.0
C1774 C 0.25199 0.69222 0.13937 0.0
H1775 H 0.30596 0.68548 0.08563 0.0
H1776 H 0.29907 0.71341 0.13204 0.0
S1777 S 0.18177 0.63965 0.11652 0.0
N1778 N 0.20754 0.63448 0.09057 0.0
N1779 N 0.19939 0.66563 0.14017 0.0
C1780 C 0.22783 0.6711 0.12743 0.0
C1781 C 0.23222 0.65433 0.10056 0.0
C1782 C 0.09727 0.51179 0.90221 0.0
C1783 C 0.08613 0.53601 0.88242 0.0
C1784 C 0.08218 0.507 0.92851 0.0
C1785 C 0.05542 0.52628 0.93599 0.0
H1786 H 0.11802 0.49663 0.89755 0.0
H1787 H 0.09241 0.48907 0.94359 0.0
S1788 S 0.01548 0.5917 0.89139 0.0
N1789 N 0.04563 0.57871 0.87206 0.0
N1790 N 0.01734 0.5692 0.92098 0.0
C1791 C 0.04339 0.54974 0.91604 0.0
C1792 C 0.05873 0.55479 0.88945 0.0
C1793 C 0.3209 0.35798 0.59735 0.0
C1794 C 0.33959 0.38698 0.59586 0.0
C1795 C 0.3205 0.33949 0.62269 0.0
C1796 C 0.33949 0.34855 0.64753 0.0
H1797 H 0.30474 0.35058 0.57938 0.0
H1798 H 0.30372 0.3189 0.62306 0.0
S1799 S 0.39733 0.41927 0.65268 0.0
N1800 N 0.3799 0.42244 0.62003 0.0
N1801 N 0.38121 0.38621 0.66729 0.0
C1802 C 0.36024 0.37623 0.64553 0.0
C1803 C 0.35982 0.39575 0.61981 0.0
C1804 C 0.4287 0.47884 0.20849 0.0
C1805 C 0.4344 0.51083 0.22023 0.0
C1806 C 0.44426 0.46811 0.18381 0.0
C1807 C 0.46581 0.48912 0.17021 0.0
H1808 H 0.413 0.46162 0.21901 0.0
H1809 H 0.43994 0.44307 0.17569 0.0
S1810 S 0.48501 0.57671 0.19049 0.0
N1811 N 0.46078 0.56409 0.21559 0.0
N1812 N 0.48919 0.54461 0.16837 0.0
C1813 C 0.4705 0.52169 0.1811 0.0
C1814 C 0.45501 0.53236 0.20641 0.0
C1815 C 0.32462 0.71609 0.91076 0.0
C1816 C 0.29901 0.6933 0.91278 0.0
C1817 C 0.3283 0.7346 0.88537 0.0
C1818 C 0.30585 0.73151 0.86185 0.0
H1819 H 0.34221 0.71906 0.9286 0.0
H1820 H 0.34852 0.75152 0.88421 0.0
S1821 S 0.23388 0.67673 0.85704 0.0
N1822 N 0.25081 0.66926 0.88927 0.0
N1823 N 0.25691 0.70492 0.84246 0.0
C1824 C 0.2799 0.7094 0.86399 0.0
C1825 C 0.27666 0.69006 0.88925 0.0
C1826 C 0.12873 0.52187 0.69686 0.0
C1827 C 0.11204 0.52258 0.72267 0.0
C1828 C 0.11366 0.53136 0.67068 0.0
C1829 C 0.0814 0.54222 0.66934 0.0
H1830 H 0.1536 0.51369 0.69677 0.0
H1831 H 0.12719 0.52922 0.65119 0.0
S1832 S 0.02728 0.54998 0.73084 0.0
N1833 N 0.06133 0.53527 0.74531 0.0
N1834 N 0.03356 0.55441 0.69607 0.0
C1835 C 0.06453 0.54361 0.695 0.0
C1836 C 0.0797 0.53344 0.72166 0.0
C1837 C 0.25391 0.38285 0.42245 0.0
C1838 C 0.28309 0.39134 0.43739 0.0
C1839 C 0.25209 0.35585 0.40308 0.0
C1840 C 0.27937 0.33635 0.39784 0.0
H1841 H 0.23212 0.39684 0.42603 0.0
H1842 H 0.22915 0.35026 0.392 0.0
S1843 S 0.36212 0.34954 0.42969 0.0
N1844 N 0.34025 0.37877 0.44474 0.0
N1845 N 0.33687 0.32838 0.40789 0.0
C1846 C 0.3088 0.34471 0.41237 0.0
C1847 C 0.31066 0.37214 0.4322 0.0
C1848 C 0.37389 0.55071 0.48424 0.0
C1849 C 0.34524 0.55301 0.49898 0.0
C1850 C 0.39987 0.57154 0.49188 0.0
C1851 C 0.39827 0.59424 0.51533 0.0
H1852 H 0.37716 0.53097 0.46849 0.0
H1853 H 0.42261 0.56644 0.48205 0.0
S1854 S 0.32594 0.61369 0.55649 0.0
N1855 N 0.31429 0.58325 0.53411 0.0
N1856 N 0.36389 0.62167 0.54943 0.0
C1857 C 0.36831 0.5995 0.52757 0.0
C1858 C 0.34162 0.57872 0.51935 0.0
C1859 C 0.8783 0.02505 0.52189 0.0
C1860 C 0.86917 0.05299 0.50547 0.0
C1861 C 0.91049 0.01514 0.52484 0.0
C1862 C 0.93499 0.03256 0.51134 0.0
H1863 H 0.8606 0.01109 0.53333 0.0
H1864 H 0.9162 0.99392 0.53832 0.0
S1865 S 0.92381 0.10586 0.46396 0.0
N1866 N 0.88713 0.09687 0.47405 0.0
N1867 N 0.94785 0.07806 0.47954 0.0
C1868 C 0.9262 0.05976 0.49387 0.0
C1869 C 0.89327 0.07005 0.49098 0.0
C1870 C 0.73061 0.13052 0.2878 0.0
C1871 C 0.69723 0.13331 0.29153 0.0
C1872 C 0.74963 0.15863 0.28284 0.0
C1873 C 0.73613 0.19076 0.28173 0.0
H1874 H 0.74212 0.10638 0.28831 0.0
H1875 H 0.77526 0.15513 0.2804 0.0
S1876 S 0.64994 0.21178 0.29067 0.0
N1877 N 0.65151 0.17104 0.29402 0.0
N1878 N 0.68719 0.2236 0.28487 0.0
C1879 C 0.70278 0.1939 0.28549 0.0
C1880 C 0.68339 0.16531 0.29035 0.0
C1881 C 0.66881 0.9422 0.03703 0.0
C1882 C 0.69071 0.96256 0.05304 0.0
C1883 C 0.63712 0.95261 0.0312 0.0
C1884 C 0.62633 0.98343 0.04157 0.0
H1885 H 0.67659 0.91892 0.02762 0.0
H1886 H 0.62109 0.93655 0.01826 0.0
S1887 S 0.67389 0.04462 0.08635 0.0
N1888 N 0.69926 0.01393 0.0805 0.0
N1889 N 0.63943 0.0334 0.06989 0.0
C1890 C 0.6476 0.00327 0.0588 0.0
C1891 C 0.67989 0.99281 0.06448 0.0
C1892 C 0.36068 0.39167 0.29487 0.0
C1893 C 0.3919 0.39858 0.28582 0.0
C1894 C 0.34558 0.36132 0.28808 0.0
C1895 C 0.36093 0.33668 0.27176 0.0
H1896 H 0.34768 0.40979 0.30736 0.0
H1897 H 0.32171 0.35705 0.29598 0.0
S1898 S 0.44289 0.34178 0.24306 0.0
N1899 N 0.43785 0.37776 0.25973 0.0
N1900 N 0.40916 0.32085 0.24697 0.0
C1901 C 0.39201 0.34318 0.26235 0.0
C1902 C 0.40759 0.37403 0.26945 0.0
C1903 C 0.16402 0.61616 0.00786 0.0
C1904 C 0.18684 0.5946 -0.00396 0.0
C1905 C 0.13578 0.60396 0.01946 0.0
C1906 C 0.1292 0.56969 0.01984 0.0
H1907 H 0.16784 0.64279 0.00811 0.0
H1908 H 0.11859 0.62167 0.02756 0.0
S1909 S 0.18118 0.50258 0.99175 0.0
N1910 N 0.20106 0.53717 0.98566 0.0
N1911 N 0.14802 0.51423 0.00756 0.0
C1912 C 0.15212 0.54774 0.00868 0.0
C1913 C 0.18084 0.5602 -0.00333 0.0
C1914 C 0.70896 0.90006 0.32721 0.0
C1915 C 0.72205 0.92838 0.31439 0.0
C1916 C 0.72302 0.86854 0.32406 0.0
C1917 C 0.75043 0.86395 0.30753 0.0
H1918 H 0.68707 0.90204 0.3391 0.0
H1919 H 0.71138 0.84739 0.3335 0.0
S1920 S 0.79588 0.93024 0.27163 0.0
N1921 N 0.76564 0.94995 0.28634 0.0
N1922 N 0.79164 0.89079 0.28006 0.0
C1923 C 0.76462 0.89223 0.29569 0.0
C1924 C 0.75058 0.9244 0.29924 0.0
C1925 C 0.86074 0.1282 0.82702 0.0
C1926 C 0.84874 0.09947 0.81265 0.0
C1927 C 0.84515 0.15889 0.82378 0.0
C1928 C 0.81733 0.16219 0.80554 0.0
H1929 H 0.88286 0.12716 0.8403 0.0
H1930 H 0.8559 0.18046 0.83462 0.0
S1931 S 0.77493 0.09413 0.76453 0.0
N1932 N 0.80617 0.07584 0.78093 0.0
N1933 N 0.77723 0.13365 0.77435 0.0
C1934 C 0.80434 0.13341 0.79193 0.0
C1935 C 0.81993 0.10202 0.79564 0.0
loop_
_geom_bond_atom_site_label_1
_geom_bond_atom_site_label_2
_geom_bond_distance
_geom_bond_site_symmetry_2
_ccdc_geom_bond_type
C0 O1 1.306 . S
C0 O3 1.160 . S
O1 C0 1.306 . S
O1 Cd2 2.228 . S
Cd2 O1 2.228 . S
Cd2 O6 2.273 . S
Cd2 O10 2.277 . S
O3 C0 1.160 . S
O3 Cd4 2.203 . S
Cd4 O3 2.203 . S
Cd4 O6 2.411 . S
Cd4 O7 2.333 . S
Cd4 O8 2.352 . S
Cd4 O12 2.277 . S
Cd4 O13 2.356 . S
C5 O10 1.209 . S
C5 O12 1.226 . S
O6 Cd2 2.273 . S
O6 Cd4 2.411 . S
O6 C9 1.320 . S
O7 Cd4 2.333 . S
O7 C9 1.214 . S
O8 Cd4 2.352 . S
O8 C11 1.258 . S
C9 O6 1.320 . S
C9 O7 1.214 . S
O10 Cd2 2.277 . S
O10 C5 1.209 . S
C11 O8 1.258 . S
C11 O13 1.282 . S
O12 Cd4 2.277 . S
O12 C5 1.226 . S
O13 Cd4 2.356 . S
O13 C11 1.282 . S
C14 O15 1.306 1_655 S
C14 O17 1.160 . S
O15 C14 1.306 1_455 S
O15 Cd16 2.228 . S
Cd16 O15 2.228 . S
Cd16 O20 2.273 . S
Cd16 O24 2.277 . S
O17 C14 1.160 . S
O17 Cd18 2.203 1_655 S
Cd18 O17 2.203 1_455 S
Cd18 O20 2.411 . S
Cd18 O21 2.333 . S
Cd18 O22 2.352 . S
Cd18 O26 2.277 . S
Cd18 O27 2.356 . S
C19 O24 1.209 . S
C19 O26 1.226 . S
O20 Cd16 2.273 . S
O20 Cd18 2.411 . S
O20 C23 1.320 . S
O21 Cd18 2.333 . S
O21 C23 1.214 . S
O22 Cd18 2.352 . S
O22 C25 1.258 . S
C23 O20 1.320 . S
C23 O21 1.214 . S
O24 Cd16 2.277 . S
O24 C19 1.209 . S
C25 O22 1.258 . S
C25 O27 1.282 . S
O26 Cd18 2.277 . S
O26 C19 1.226 . S
O27 Cd18 2.356 . S
O27 C25 1.282 . S
C28 O29 1.306 . S
C28 O31 1.160 . S
O29 C28 1.306 . S
O29 Cd30 2.228 . S
Cd30 O29 2.228 . S
Cd30 O34 2.273 . S
Cd30 O38 2.277 . S
O31 C28 1.160 . S
O31 Cd32 2.203 . S
Cd32 O31 2.203 . S
Cd32 O34 2.411 . S
Cd32 O35 2.333 . S
Cd32 O36 2.352 . S
Cd32 O40 2.277 . S
Cd32 O41 2.356 . S
C33 O38 1.209 . S
C33 O40 1.226 . S
O34 Cd30 2.273 . S
O34 Cd32 2.411 . S
O34 C37 1.320 . S
O35 Cd32 2.333 . S
O35 C37 1.214 . S
O36 Cd32 2.352 . S
O36 C39 1.258 . S
C37 O34 1.320 . S
C37 O35 1.214 . S
O38 Cd30 2.277 . S
O38 C33 1.209 . S
C39 O36 1.258 . S
C39 O41 1.282 . S
O40 Cd32 2.277 . S
O40 C33 1.226 . S
O41 Cd32 2.356 . S
O41 C39 1.282 . S
C42 O43 1.306 . S
C42 O45 1.160 . S
O43 C42 1.306 . S
O43 Cd44 2.228 . S
Cd44 O43 2.228 . S
Cd44 O48 2.273 . S
Cd44 O52 2.277 . S
O45 C42 1.160 . S
O45 Cd46 2.203 . S
Cd46 O45 2.203 . S
Cd46 O48 2.411 . S
Cd46 O49 2.333 . S
Cd46 O50 2.352 . S
Cd46 O54 2.277 . S
Cd46 O55 2.356 . S
C47 O52 1.209 . S
C47 O54 1.226 . S
O48 Cd44 2.273 . S
O48 Cd46 2.411 . S
O48 C51 1.320 . S
O49 Cd46 2.333 . S
O49 C51 1.214 . S
O50 Cd46 2.352 . S
O50 C53 1.258 . S
C51 O48 1.320 . S
C51 O49 1.214 . S
O52 Cd44 2.277 . S
O52 C47 1.209 . S
C53 O50 1.258 . S
C53 O55 1.282 . S
O54 Cd46 2.277 . S
O54 C47 1.226 . S
O55 Cd46 2.356 . S
O55 C53 1.282 . S
C56 O57 1.306 . S
C56 O59 1.160 . S
O57 C56 1.306 . S
O57 Cd58 2.228 . S
Cd58 O57 2.228 . S
Cd58 O62 2.273 . S
Cd58 O66 2.277 . S
O59 C56 1.160 . S
O59 Cd60 2.203 . S
Cd60 O59 2.203 . S
Cd60 O62 2.411 . S
Cd60 O63 2.333 . S
Cd60 O64 2.352 1_545 S
Cd60 O68 2.277 . S
Cd60 O69 2.356 1_545 S
C61 O66 1.209 . S
C61 O68 1.226 . S
O62 Cd58 2.273 . S
O62 Cd60 2.411 . S
O62 C65 1.320 . S
O63 Cd60 2.333 . S
O63 C65 1.214 . S
O64 Cd60 2.352 1_565 S
O64 C67 1.258 . S
C65 O62 1.320 . S
C65 O63 1.214 . S
O66 Cd58 2.277 . S
O66 C61 1.209 . S
C67 O64 1.258 . S
C67 O69 1.282 . S
O68 Cd60 2.277 . S
O68 C61 1.226 . S
O69 Cd60 2.356 1_565 S
O69 C67 1.282 . S
C70 O71 1.306 . S
C70 O73 1.160 . S
O71 C70 1.306 . S
O71 Cd72 2.228 . S
Cd72 O71 2.228 . S
Cd72 O76 2.273 . S
Cd72 O80 2.277 . S
O73 C70 1.160 . S
O73 Cd74 2.203 . S
Cd74 O73 2.203 . S
Cd74 O76 2.411 . S
Cd74 O77 2.333 . S
Cd74 O78 2.352 . S
Cd74 O82 2.277 . S
Cd74 O83 2.356 . S
C75 O80 1.209 . S
C75 O82 1.226 . S
O76 Cd72 2.273 . S
O76 Cd74 2.411 . S
O76 C79 1.320 . S
O77 Cd74 2.333 . S
O77 C79 1.214 . S
O78 Cd74 2.352 . S
O78 C81 1.258 . S
C79 O76 1.320 . S
C79 O77 1.214 . S
O80 Cd72 2.277 . S
O80 C75 1.209 . S
C81 O78 1.258 . S
C81 O83 1.282 . S
O82 Cd74 2.277 . S
O82 C75 1.226 . S
O83 Cd74 2.356 . S
O83 C81 1.282 . S
C84 O85 1.306 1_545 S
C84 O87 1.160 . S
O85 C84 1.306 1_565 S
O85 Cd86 2.228 . S
Cd86 O85 2.228 . S
Cd86 O90 2.273 1_565 S
Cd86 O94 2.277 . S
O87 C84 1.160 . S
O87 Cd88 2.203 . S
Cd88 O87 2.203 . S
Cd88 O90 2.411 . S
Cd88 O91 2.333 . S
Cd88 O92 2.352 . S
Cd88 O96 2.277 1_545 S
Cd88 O97 2.356 . S
C89 O94 1.209 . S
C89 O96 1.226 . S
O90 Cd86 2.273 1_545 S
O90 Cd88 2.411 . S
O90 C93 1.320 . S
O91 Cd88 2.333 . S
O91 C93 1.214 . S
O92 Cd88 2.352 . S
O92 C95 1.258 . S
C93 O90 1.320 . S
C93 O91 1.214 . S
O94 Cd86 2.277 . S
O94 C89 1.209 . S
C95 O92 1.258 . S
C95 O97 1.282 . S
O96 Cd88 2.277 1_565 S
O96 C89 1.226 . S
O97 Cd88 2.356 . S
O97 C95 1.282 . S
C98 O99 1.306 . S
C98 O101 1.160 . S
O99 C98 1.306 . S
O99 Cd100 2.228 . S
Cd100 O99 2.228 . S
Cd100 O104 2.273 . S
Cd100 O108 2.277 . S
O101 C98 1.160 . S
O101 Cd102 2.203 . S
Cd102 O101 2.203 . S
Cd102 O104 2.411 . S
Cd102 O105 2.333 . S
Cd102 O106 2.352 1_554 S
Cd102 O110 2.277 . S
Cd102 O111 2.356 1_554 S
C103 O108 1.209 . S
C103 O110 1.226 . S
O104 Cd100 2.273 . S
O104 Cd102 2.411 . S
O104 C107 1.320 . S
O105 Cd102 2.333 . S
O105 C107 1.214 . S
O106 Cd102 2.352 1_556 S
O106 C109 1.258 . S
C107 O104 1.320 . S
C107 O105 1.214 . S
O108 Cd100 2.277 . S
O108 C103 1.209 . S
C109 O106 1.258 . S
C109 O111 1.282 . S
O110 Cd102 2.277 . S
O110 C103 1.226 . S
O111 Cd102 2.356 1_556 S
O111 C109 1.282 . S
C112 O113 1.306 . S
C112 O115 1.160 . S
O113 C112 1.306 . S
O113 Cd114 2.228 . S
Cd114 O113 2.228 . S
Cd114 O118 2.273 . S
Cd114 O122 2.277 . S
O115 C112 1.160 . S
O115 Cd116 2.203 . S
Cd116 O115 2.203 . S
Cd116 O118 2.411 . S
Cd116 O119 2.333 . S
Cd116 O120 2.352 . S
Cd116 O124 2.277 . S
Cd116 O125 2.356 . S
C117 O122 1.209 . S
C117 O124 1.226 . S
O118 Cd114 2.273 . S
O118 Cd116 2.411 . S
O118 C121 1.320 . S
O119 Cd116 2.333 . S
O119 C121 1.214 . S
O120 Cd116 2.352 . S
O120 C123 1.258 . S
C121 O118 1.320 . S
C121 O119 1.214 . S
O122 Cd114 2.277 . S
O122 C117 1.209 . S
C123 O120 1.258 . S
C123 O125 1.282 . S
O124 Cd116 2.277 . S
O124 C117 1.226 . S
O125 Cd116 2.356 . S
O125 C123 1.282 . S
C126 O127 1.306 . S
C126 O129 1.160 . S
O127 C126 1.306 . S
O127 Cd128 2.228 . S
Cd128 O127 2.228 . S
Cd128 O132 2.273 . S
Cd128 O136 2.277 . S
O129 C126 1.160 . S
O129 Cd130 2.203 . S
Cd130 O129 2.203 . S
Cd130 O132 2.411 . S
Cd130 O133 2.333 . S
Cd130 O134 2.352 . S
Cd130 O138 2.277 . S
Cd130 O139 2.356 . S
C131 O136 1.209 . S
C131 O138 1.226 . S
O132 Cd128 2.273 . S
O132 Cd130 2.411 . S
O132 C135 1.320 . S
O133 Cd130 2.333 . S
O133 C135 1.214 . S
O134 Cd130 2.352 . S
O134 C137 1.258 . S
C135 O132 1.320 . S
C135 O133 1.214 . S
O136 Cd128 2.277 . S
O136 C131 1.209 . S
C137 O134 1.258 . S
C137 O139 1.282 . S
O138 Cd130 2.277 . S
O138 C131 1.226 . S
O139 Cd130 2.356 . S
O139 C137 1.282 . S
C140 O141 1.306 . S
C140 O143 1.160 . S
O141 C140 1.306 . S
O141 Cd142 2.228 . S
Cd142 O141 2.228 . S
Cd142 O146 2.273 . S
Cd142 O150 2.277 . S
O143 C140 1.160 . S
O143 Cd144 2.203 . S
Cd144 O143 2.203 . S
Cd144 O146 2.411 . S
Cd144 O147 2.333 . S
Cd144 O148 2.352 . S
Cd144 O152 2.277 . S
Cd144 O153 2.356 . S
C145 O150 1.209 . S
C145 O152 1.226 . S
O146 Cd142 2.273 . S
O146 Cd144 2.411 . S
O146 C149 1.320 . S
O147 Cd144 2.333 . S
O147 C149 1.214 . S
O148 Cd144 2.352 . S
O148 C151 1.258 . S
C149 O146 1.320 . S
C149 O147 1.214 . S
O150 Cd142 2.277 . S
O150 C145 1.209 . S
C151 O148 1.258 . S
C151 O153 1.282 . S
O152 Cd144 2.277 . S
O152 C145 1.226 . S
O153 Cd144 2.356 . S
O153 C151 1.282 . S
C154 O155 1.306 . S
C154 O157 1.160 . S
O155 C154 1.306 . S
O155 Cd156 2.228 . S
Cd156 O155 2.228 . S
Cd156 O160 2.273 . S
Cd156 O164 2.277 . S
O157 C154 1.160 . S
O157 Cd158 2.203 . S
Cd158 O157 2.203 . S
Cd158 O160 2.411 . S
Cd158 O161 2.333 . S
Cd158 O162 2.352 . S
Cd158 O166 2.277 . S
Cd158 O167 2.356 . S
C159 O164 1.209 . S
C159 O166 1.226 . S
O160 Cd156 2.273 . S
O160 Cd158 2.411 . S
O160 C163 1.320 . S
O161 Cd158 2.333 . S
O161 C163 1.214 . S
O162 Cd158 2.352 . S
O162 C165 1.258 . S
C163 O160 1.320 . S
C163 O161 1.214 . S
O164 Cd156 2.277 . S
O164 C159 1.209 . S
C165 O162 1.258 . S
C165 O167 1.282 . S
O166 Cd158 2.277 . S
O166 C159 1.226 . S
O167 Cd158 2.356 . S
O167 C165 1.282 . S
C168 O169 1.306 . S
C168 O171 1.160 . S
O169 C168 1.306 . S
O169 Cd170 2.228 1_655 S
Cd170 O169 2.228 1_455 S
Cd170 O174 2.273 . S
Cd170 O178 2.277 . S
O171 C168 1.160 . S
O171 Cd172 2.203 1_655 S
Cd172 O171 2.203 1_455 S
Cd172 O174 2.411 . S
Cd172 O175 2.333 . S
Cd172 O176 2.352 1_455 S
Cd172 O180 2.277 . S
Cd172 O181 2.356 . S
C173 O178 1.209 . S
C173 O180 1.226 . S
O174 Cd170 2.273 . S
O174 Cd172 2.411 . S
O174 C177 1.320 . S
O175 Cd172 2.333 . S
O175 C177 1.214 . S
O176 Cd172 2.352 1_655 S
O176 C179 1.258 1_655 S
C177 O174 1.320 . S
C177 O175 1.214 . S
O178 Cd170 2.277 . S
O178 C173 1.209 . S
C179 O176 1.258 1_455 S
C179 O181 1.282 . S
O180 Cd172 2.277 . S
O180 C173 1.226 . S
O181 Cd172 2.356 . S
O181 C179 1.282 . S
C182 O183 1.306 1_655 S
C182 O185 1.160 . S
O183 C182 1.306 1_455 S
O183 Cd184 2.228 . S
Cd184 O183 2.228 . S
Cd184 O188 2.273 . S
Cd184 O192 2.277 . S
O185 C182 1.160 . S
O185 Cd186 2.203 1_655 S
Cd186 O185 2.203 1_455 S
Cd186 O188 2.411 . S
Cd186 O189 2.333 . S
Cd186 O190 2.352 . S
Cd186 O194 2.277 . S
Cd186 O195 2.356 . S
C187 O192 1.209 . S
C187 O194 1.226 . S
O188 Cd184 2.273 . S
O188 Cd186 2.411 . S
O188 C191 1.320 . S
O189 Cd186 2.333 . S
O189 C191 1.214 . S
O190 Cd186 2.352 . S
O190 C193 1.258 . S
C191 O188 1.320 . S
C191 O189 1.214 . S
O192 Cd184 2.277 . S
O192 C187 1.209 . S
C193 O190 1.258 . S
C193 O195 1.282 . S
O194 Cd186 2.277 . S
O194 C187 1.226 . S
O195 Cd186 2.356 . S
O195 C193 1.282 . S
C196 O197 1.306 . S
C196 O199 1.160 . S
O197 C196 1.306 . S
O197 Cd198 2.228 . S
Cd198 O197 2.228 . S
Cd198 O202 2.273 . S
Cd198 O206 2.277 . S
O199 C196 1.160 . S
O199 Cd200 2.203 . S
Cd200 O199 2.203 . S
Cd200 O202 2.411 . S
Cd200 O203 2.333 . S
Cd200 O204 2.352 . S
Cd200 O208 2.277 . S
Cd200 O209 2.356 . S
C201 O206 1.209 . S
C201 O208 1.226 . S
O202 Cd198 2.273 . S
O202 Cd200 2.411 . S
O202 C205 1.320 . S
O203 Cd200 2.333 . S
O203 C205 1.214 . S
O204 Cd200 2.352 . S
O204 C207 1.258 . S
C205 O202 1.320 . S
C205 O203 1.214 . S
O206 Cd198 2.277 . S
O206 C201 1.209 . S
C207 O204 1.258 . S
C207 O209 1.282 . S
O208 Cd200 2.277 . S
O208 C201 1.226 . S
O209 Cd200 2.356 . S
O209 C207 1.282 . S
C210 O211 1.306 . S
C210 O213 1.160 . S
O211 C210 1.306 . S
O211 Cd212 2.228 . S
Cd212 O211 2.228 . S
Cd212 O216 2.273 . S
Cd212 O220 2.277 . S
O213 C210 1.160 . S
O213 Cd214 2.203 . S
Cd214 O213 2.203 . S
Cd214 O216 2.411 . S
Cd214 O217 2.333 . S
Cd214 O218 2.352 . S
Cd214 O222 2.277 . S
Cd214 O223 2.356 . S
C215 O220 1.209 . S
C215 O222 1.226 . S
O216 Cd212 2.273 . S
O216 Cd214 2.411 . S
O216 C219 1.320 . S
O217 Cd214 2.333 . S
O217 C219 1.214 . S
O218 Cd214 2.352 . S
O218 C221 1.258 . S
C219 O216 1.320 . S
C219 O217 1.214 . S
O220 Cd212 2.277 . S
O220 C215 1.209 . S
C221 O218 1.258 . S
C221 O223 1.282 . S
O222 Cd214 2.277 . S
O222 C215 1.226 . S
O223 Cd214 2.356 . S
O223 C221 1.282 . S
C224 O225 1.306 1_545 S
C224 O227 1.160 . S
O225 C224 1.306 1_565 S
O225 Cd226 2.228 . S
Cd226 O225 2.228 . S
Cd226 O230 2.273 1_565 S
Cd226 O234 2.277 . S
O227 C224 1.160 . S
O227 Cd228 2.203 . S
Cd228 O227 2.203 . S
Cd228 O230 2.411 . S
Cd228 O231 2.333 . S
Cd228 O232 2.352 . S
Cd228 O236 2.277 1_545 S
Cd228 O237 2.356 . S
C229 O234 1.209 . S
C229 O236 1.226 . S
O230 Cd226 2.273 1_545 S
O230 Cd228 2.411 . S
O230 C233 1.320 . S
O231 Cd228 2.333 . S
O231 C233 1.214 . S
O232 Cd228 2.352 . S
O232 C235 1.258 . S
C233 O230 1.320 . S
C233 O231 1.214 . S
O234 Cd226 2.277 . S
O234 C229 1.209 . S
C235 O232 1.258 . S
C235 O237 1.282 . S
O236 Cd228 2.277 1_565 S
O236 C229 1.226 . S
O237 Cd228 2.356 . S
O237 C235 1.282 . S
C238 O239 1.306 . S
C238 O241 1.160 . S
O239 C238 1.306 . S
O239 Cd240 2.228 . S
Cd240 O239 2.228 . S
Cd240 O244 2.273 . S
Cd240 O248 2.277 . S
O241 C238 1.160 . S
O241 Cd242 2.203 . S
Cd242 O241 2.203 . S
Cd242 O244 2.411 . S
Cd242 O245 2.333 . S
Cd242 O246 2.352 . S
Cd242 O250 2.277 . S
Cd242 O251 2.356 . S
C243 O248 1.209 . S
C243 O250 1.226 . S
O244 Cd240 2.273 . S
O244 Cd242 2.411 . S
O244 C247 1.320 . S
O245 Cd242 2.333 . S
O245 C247 1.214 . S
O246 Cd242 2.352 . S
O246 C249 1.258 . S
C247 O244 1.320 . S
C247 O245 1.214 . S
O248 Cd240 2.277 . S
O248 C243 1.209 . S
C249 O246 1.258 . S
C249 O251 1.282 . S
O250 Cd242 2.277 . S
O250 C243 1.226 . S
O251 Cd242 2.356 . S
O251 C249 1.282 . S
C252 O253 1.306 . S
C252 O255 1.160 . S
O253 C252 1.306 . S
O253 Cd254 2.228 . S
Cd254 O253 2.228 . S
Cd254 O258 2.273 . S
Cd254 O262 2.277 . S
O255 C252 1.160 . S
O255 Cd256 2.203 . S
Cd256 O255 2.203 . S
Cd256 O258 2.411 . S
Cd256 O259 2.333 . S
Cd256 O260 2.352 1_545 S
Cd256 O264 2.277 . S
Cd256 O265 2.356 1_545 S
C257 O262 1.209 . S
C257 O264 1.226 . S
O258 Cd254 2.273 . S
O258 Cd256 2.411 . S
O258 C261 1.320 . S
O259 Cd256 2.333 . S
O259 C261 1.214 . S
O260 Cd256 2.352 1_565 S
O260 C263 1.258 . S
C261 O258 1.320 . S
C261 O259 1.214 . S
O262 Cd254 2.277 . S
O262 C257 1.209 . S
C263 O260 1.258 . S
C263 O265 1.282 . S
O264 Cd256 2.277 . S
O264 C257 1.226 . S
O265 Cd256 2.356 1_565 S
O265 C263 1.282 . S
C266 O267 1.306 . S
C266 O269 1.160 . S
O267 C266 1.306 . S
O267 Cd268 2.228 1_554 S
Cd268 O267 2.228 1_556 S
Cd268 O272 2.273 1_556 S
Cd268 O276 2.277 . S
O269 C266 1.160 . S
O269 Cd270 2.203 . S
Cd270 O269 2.203 . S
Cd270 O272 2.411 . S
Cd270 O273 2.333 . S
Cd270 O274 2.352 . S
Cd270 O278 2.277 1_554 S
Cd270 O279 2.356 . S
C271 O276 1.209 . S
C271 O278 1.226 . S
O272 Cd268 2.273 1_554 S
O272 Cd270 2.411 . S
O272 C275 1.320 . S
O273 Cd270 2.333 . S
O273 C275 1.214 . S
O274 Cd270 2.352 . S
O274 C277 1.258 . S
C275 O272 1.320 . S
C275 O273 1.214 . S
O276 Cd268 2.277 . S
O276 C271 1.209 . S
C277 O274 1.258 . S
C277 O279 1.282 . S
O278 Cd270 2.277 1_556 S
O278 C271 1.226 . S
O279 Cd270 2.356 . S
O279 C277 1.282 . S
C280 O281 1.306 . S
C280 O283 1.160 1_554 S
O281 C280 1.306 . S
O281 Cd282 2.228 . S
Cd282 O281 2.228 . S
Cd282 O286 2.273 . S
Cd282 O290 2.277 . S
O283 C280 1.160 1_556 S
O283 Cd284 2.203 . S
Cd284 O283 2.203 . S
Cd284 O286 2.411 1_556 S
Cd284 O287 2.333 . S
Cd284 O288 2.352 . S
Cd284 O292 2.277 1_556 S
Cd284 O293 2.356 . S
C285 O290 1.209 . S
C285 O292 1.226 . S
O286 Cd282 2.273 . S
O286 Cd284 2.411 1_554 S
O286 C289 1.320 1_554 S
O287 Cd284 2.333 . S
O287 C289 1.214 . S
O288 Cd284 2.352 . S
O288 C291 1.258 . S
C289 O286 1.320 1_556 S
C289 O287 1.214 . S
O290 Cd282 2.277 . S
O290 C285 1.209 . S
C291 O288 1.258 . S
C291 O293 1.282 . S
O292 Cd284 2.277 1_554 S
O292 C285 1.226 . S
O293 Cd284 2.356 . S
O293 C291 1.282 . S
C294 O295 1.306 . S
C294 O297 1.160 . S
O295 C294 1.306 . S
O295 Cd296 2.228 . S
Cd296 O295 2.228 . S
Cd296 O300 2.273 . S
Cd296 O304 2.277 . S
O297 C294 1.160 . S
O297 Cd298 2.203 . S
Cd298 O297 2.203 . S
Cd298 O300 2.411 . S
Cd298 O301 2.333 . S
Cd298 O302 2.352 . S
Cd298 O306 2.277 . S
Cd298 O307 2.356 . S
C299 O304 1.209 . S
C299 O306 1.226 . S
O300 Cd296 2.273 . S
O300 Cd298 2.411 . S
O300 C303 1.320 . S
O301 Cd298 2.333 . S
O301 C303 1.214 . S
O302 Cd298 2.352 . S
O302 C305 1.258 . S
C303 O300 1.320 . S
C303 O301 1.214 . S
O304 Cd296 2.277 . S
O304 C299 1.209 . S
C305 O302 1.258 . S
C305 O307 1.282 . S
O306 Cd298 2.277 . S
O306 C299 1.226 . S
O307 Cd298 2.356 . S
O307 C305 1.282 . S
C308 O309 1.306 . S
C308 O311 1.160 . S
O309 C308 1.306 . S
O309 Cd310 2.228 . S
Cd310 O309 2.228 . S
Cd310 O314 2.273 . S
Cd310 O318 2.277 . S
O311 C308 1.160 . S
O311 Cd312 2.203 . S
Cd312 O311 2.203 . S
Cd312 O314 2.411 . S
Cd312 O315 2.333 . S
Cd312 O316 2.352 . S
Cd312 O320 2.277 . S
Cd312 O321 2.356 . S
C313 O318 1.209 . S
C313 O320 1.226 . S
O314 Cd310 2.273 . S
O314 Cd312 2.411 . S
O314 C317 1.320 . S
O315 Cd312 2.333 . S
O315 C317 1.214 . S
O316 Cd312 2.352 . S
O316 C319 1.258 . S
C317 O314 1.320 . S
C317 O315 1.214 . S
O318 Cd310 2.277 . S
O318 C313 1.209 . S
C319 O316 1.258 . S
C319 O321 1.282 . S
O320 Cd312 2.277 . S
O320 C313 1.226 . S
O321 Cd312 2.356 . S
O321 C319 1.282 . S
C322 O323 1.306 . S
C322 O325 1.160 . S
O323 C322 1.306 . S
O323 Cd324 2.228 . S
Cd324 O323 2.228 . S
Cd324 O328 2.273 . S
Cd324 O332 2.277 . S
O325 C322 1.160 . S
O325 Cd326 2.203 . S
Cd326 O325 2.203 . S
Cd326 O328 2.411 . S
Cd326 O329 2.333 . S
Cd326 O330 2.352 . S
Cd326 O334 2.277 . S
Cd326 O335 2.356 . S
C327 O332 1.209 . S
C327 O334 1.226 . S
O328 Cd324 2.273 . S
O328 Cd326 2.411 . S
O328 C331 1.320 . S
O329 Cd326 2.333 . S
O329 C331 1.214 . S
O330 Cd326 2.352 . S
O330 C333 1.258 . S
C331 O328 1.320 . S
C331 O329 1.214 . S
O332 Cd324 2.277 . S
O332 C327 1.209 . S
C333 O330 1.258 . S
C333 O335 1.282 . S
O334 Cd326 2.277 . S
O334 C327 1.226 . S
O335 Cd326 2.356 . S
O335 C333 1.282 . S
C336 O352 1.255 . S
C336 O354 1.254 . S
N337 C338 1.333 1_565 S
N337 C342 1.307 . S
N337 Zn343 2.020 1_665 S
C338 N337 1.333 1_545 S
C338 C339 1.379 . S
C338 H356 0.952 . S
C339 C338 1.379 . S
C339 C340 1.390 1_545 S
C339 H366 0.949 . S
C340 C339 1.390 1_565 S
C340 C341 1.357 . S
C341 C340 1.357 . S
C341 C342 1.370 . S
C341 H367 0.950 . S
C342 N337 1.307 . S
C342 C341 1.370 . S
C342 H360 0.948 . S
Zn343 N337 2.020 1_445 S
Zn343 O352 2.033 1_554 S
Zn343 O358 2.034 . S
Zn343 O362 2.025 1_545 S
Zn343 O364 2.024 1_545 S
C344 O363 1.246 . S
C344 O364 1.249 . S
N345 C346 1.307 1_554 S
N345 C347 1.333 . S
N345 Zn351 2.020 . S
C346 N345 1.307 1_556 S
C346 C350 1.370 . S
C346 H357 0.948 . S
C347 N345 1.333 . S
C347 C348 1.379 . S
C347 H355 0.952 . S
C348 C347 1.379 . S
C348 C349 1.390 . S
C348 H368 0.949 . S
C349 C348 1.390 . S
C349 C350 1.357 1_554 S
C350 C346 1.370 . S
C350 C349 1.357 1_556 S
C350 H369 0.950 . S
Zn351 N345 2.020 . S
Zn351 O354 2.025 1_554 S
Zn351 O359 2.024 . S
Zn351 O361 2.039 . S
Zn351 O363 2.034 1_545 S
O352 C336 1.255 . S
O352 Zn343 2.033 1_556 S
C353 O358 1.246 . S
C353 O359 1.249 . S
O354 C336 1.254 . S
O354 Zn351 2.025 1_556 S
H355 C347 0.952 . S
H356 C338 0.952 . S
H357 C346 0.948 . S
O358 Zn343 2.034 . S
O358 C353 1.246 . S
O359 Zn351 2.024 . S
O359 C353 1.249 . S
H360 C342 0.948 . S
O361 Zn351 2.039 . S
O361 C365 1.251 1_545 S
O362 Zn343 2.025 1_565 S
O362 C365 1.254 . S
O363 C344 1.246 . S
O363 Zn351 2.034 1_565 S
O364 Zn343 2.024 1_565 S
O364 C344 1.249 . S
C365 O361 1.251 1_565 S
C365 O362 1.254 . S
H366 C339 0.949 . S
H367 C341 0.950 . S
H368 C348 0.949 . S
H369 C350 0.950 . S
C370 O386 1.251 . S
C370 O388 1.254 . S
N371 C372 1.333 . S
N371 C376 1.307 . S
N371 Zn377 2.020 . S
C372 N371 1.333 . S
C372 C373 1.379 . S
C372 H390 0.952 . S
C373 C372 1.379 . S
C373 C374 1.390 . S
C373 H400 0.949 . S
C374 C373 1.390 . S
C374 C375 1.357 . S
C375 C374 1.357 . S
C375 C376 1.370 . S
C375 H401 0.950 . S
C376 N371 1.307 . S
C376 C375 1.370 . S
C376 H394 0.948 . S
Zn377 N371 2.020 . S
Zn377 O386 2.039 . S
Zn377 O392 2.034 . S
Zn377 O396 2.025 . S
Zn377 O398 2.024 . S
C378 O397 1.246 . S
C378 O398 1.249 . S
N379 C380 1.307 . S
N379 C381 1.333 . S
N379 Zn385 2.020 . S
C380 N379 1.307 . S
C380 C384 1.370 . S
C380 H391 0.948 . S
C381 N379 1.333 . S
C381 C382 1.379 . S
C381 H389 0.952 . S
C382 C381 1.379 . S
C382 C383 1.390 . S
C382 H402 0.949 . S
C383 C382 1.390 . S
C383 C384 1.357 . S
C384 C380 1.370 . S
C384 C383 1.357 . S
C384 H403 0.950 . S
Zn385 N379 2.020 . S
Zn385 O388 2.025 . S
Zn385 O393 2.024 . S
Zn385 O395 2.039 . S
Zn385 O397 2.034 . S
O386 C370 1.251 . S
O386 Zn377 2.039 . S
C387 O392 1.246 . S
C387 O393 1.249 . S
O388 C370 1.254 . S
O388 Zn385 2.025 . S
H389 C381 0.952 . S
H390 C372 0.952 . S
H391 C380 0.948 . S
O392 Zn377 2.034 . S
O392 C387 1.246 . S
O393 Zn385 2.024 . S
O393 C387 1.249 . S
H394 C376 0.948 . S
O395 Zn385 2.039 . S
O395 C399 1.251 . S
O396 Zn377 2.025 . S
O396 C399 1.254 . S
O397 C378 1.246 . S
O397 Zn385 2.034 . S
O398 Zn377 2.024 . S
O398 C378 1.249 . S
C399 O395 1.251 . S
C399 O396 1.254 . S
H400 C373 0.949 . S
H401 C375 0.950 . S
H402 C382 0.949 . S
H403 C384 0.950 . S
C404 O420 1.251 . S
C404 O422 1.254 . S
N405 C406 1.333 . S
N405 C410 1.307 . S
N405 Zn411 2.020 . S
C406 N405 1.333 . S
C406 C407 1.379 . S
C406 H424 0.952 . S
C407 C406 1.379 . S
C407 C408 1.390 . S
C407 H434 0.949 . S
C408 C407 1.390 . S
C408 C409 1.357 . S
C409 C408 1.357 . S
C409 C410 1.370 . S
C409 H435 0.950 . S
C410 N405 1.307 . S
C410 C409 1.370 . S
C410 H428 0.948 . S
Zn411 N405 2.020 . S
Zn411 O420 2.039 1_565 S
Zn411 O426 2.034 1_565 S
Zn411 O430 2.025 . S
Zn411 O432 2.024 . S
C412 O431 1.246 1_565 S
C412 O432 1.249 . S
N413 C414 1.307 . S
N413 C415 1.333 . S
N413 Zn419 2.020 . S
C414 N413 1.307 . S
C414 C418 1.370 . S
C414 H425 0.948 . S
C415 N413 1.333 . S
C415 C416 1.379 . S
C415 H423 0.952 . S
C416 C415 1.379 . S
C416 C417 1.390 . S
C416 H436 0.949 . S
C417 C416 1.390 . S
C417 C418 1.357 . S
C418 C414 1.370 . S
C418 C417 1.357 . S
C418 H437 0.950 . S
Zn419 N413 2.020 . S
Zn419 O422 2.025 . S
Zn419 O427 2.024 . S
Zn419 O429 2.039 . S
Zn419 O431 2.034 . S
O420 C404 1.251 . S
O420 Zn411 2.039 1_545 S
C421 O426 1.246 . S
C421 O427 1.249 . S
O422 C404 1.254 . S
O422 Zn419 2.025 . S
H423 C415 0.952 . S
H424 C406 0.952 . S
H425 C414 0.948 . S
O426 Zn411 2.034 1_545 S
O426 C421 1.246 . S
O427 Zn419 2.024 . S
O427 C421 1.249 . S
H428 C410 0.948 . S
O429 Zn419 2.039 . S
O429 C433 1.251 . S
O430 Zn411 2.025 . S
O430 C433 1.254 1_565 S
O431 C412 1.246 1_545 S
O431 Zn419 2.034 . S
O432 Zn411 2.024 . S
O432 C412 1.249 . S
C433 O429 1.251 . S
C433 O430 1.254 1_545 S
H434 C407 0.949 . S
H435 C409 0.950 . S
H436 C416 0.949 . S
H437 C418 0.950 . S
C438 O454 1.251 . S
C438 O456 1.254 . S
N439 C440 1.333 . S
N439 C444 1.307 . S
N439 Zn445 2.020 . S
C440 N439 1.333 . S
C440 C441 1.379 . S
C440 H458 0.952 . S
C441 C440 1.379 . S
C441 C442 1.390 . S
C441 H468 0.949 . S
C442 C441 1.390 . S
C442 C443 1.357 . S
C443 C442 1.357 . S
C443 C444 1.370 . S
C443 H469 0.950 . S
C444 N439 1.307 . S
C444 C443 1.370 . S
C444 H462 0.948 . S
Zn445 N439 2.020 . S
Zn445 O454 2.039 . S
Zn445 O460 2.034 . S
Zn445 O464 2.025 . S
Zn445 O466 2.024 . S
C446 O465 1.246 . S
C446 O466 1.249 . S
N447 C448 1.307 . S
N447 C449 1.333 . S
N447 Zn453 2.020 . S
C448 N447 1.307 . S
C448 C452 1.370 . S
C448 H459 0.948 . S
C449 N447 1.333 . S
C449 C450 1.379 . S
C449 H457 0.952 . S
C450 C449 1.379 . S
C450 C451 1.390 . S
C450 H470 0.949 . S
C451 C450 1.390 . S
C451 C452 1.357 . S
C452 C448 1.370 . S
C452 C451 1.357 . S
C452 H471 0.950 . S
Zn453 N447 2.020 . S
Zn453 O456 2.025 . S
Zn453 O461 2.024 . S
Zn453 O463 2.039 . S
Zn453 O465 2.034 . S
O454 C438 1.251 . S
O454 Zn445 2.039 . S
C455 O460 1.246 . S
C455 O461 1.249 . S
O456 C438 1.254 . S
O456 Zn453 2.025 . S
H457 C449 0.952 . S
H458 C440 0.952 . S
H459 C448 0.948 . S
O460 Zn445 2.034 . S
O460 C455 1.246 . S
O461 Zn453 2.024 . S
O461 C455 1.249 . S
H462 C444 0.948 . S
O463 Zn453 2.039 . S
O463 C467 1.251 . S
O464 Zn445 2.025 . S
O464 C467 1.254 . S
O465 C446 1.246 . S
O465 Zn453 2.034 . S
O466 Zn445 2.024 . S
O466 C446 1.249 . S
C467 O463 1.251 . S
C467 O464 1.254 . S
H468 C441 0.949 . S
H469 C443 0.950 . S
H470 C450 0.949 . S
H471 C452 0.950 . S
C472 O488 1.251 1_565 S
C472 O490 1.254 . S
N473 C474 1.333 . S
N473 C478 1.307 . S
N473 Zn479 2.020 . S
C474 N473 1.333 . S
C474 C475 1.379 . S
C474 H492 0.952 . S
C475 C474 1.379 . S
C475 C476 1.390 . S
C475 H502 0.949 . S
C476 C475 1.390 . S
C476 C477 1.357 . S
C477 C476 1.357 . S
C477 C478 1.370 . S
C477 H503 0.950 . S
C478 N473 1.307 . S
C478 C477 1.370 . S
C478 H496 0.948 . S
Zn479 N473 2.020 . S
Zn479 O488 2.039 . S
Zn479 O494 2.034 . S
Zn479 O498 2.025 . S
Zn479 O500 2.024 1_545 S
C480 O499 1.246 . S
C480 O500 1.249 . S
N481 C482 1.307 . S
N481 C483 1.333 1_455 S
N481 Zn487 2.020 1_565 S
C482 N481 1.307 . S
C482 C486 1.370 . S
C482 H493 0.949 . S
C483 N481 1.333 1_655 S
C483 C484 1.379 . S
C483 H491 0.952 . S
C484 C483 1.379 . S
C484 C485 1.390 . S
C484 H504 0.949 . S
C485 C484 1.390 . S
C485 C486 1.357 1_655 S
C486 C482 1.370 . S
C486 C485 1.357 1_455 S
C486 H505 0.950 . S
Zn487 N481 2.020 1_545 S
Zn487 O490 2.025 1_545 S
Zn487 O495 2.024 . S
Zn487 O497 2.039 1_455 S
Zn487 O499 2.034 1_545 S
O488 C472 1.251 1_545 S
O488 Zn479 2.039 . S
C489 O494 1.246 . S
C489 O495 1.249 . S
O490 C472 1.254 . S
O490 Zn487 2.025 1_565 S
H491 C483 0.952 . S
H492 C474 0.952 . S
H493 C482 0.949 . S
O494 Zn479 2.034 . S
O494 C489 1.246 . S
O495 Zn487 2.024 . S
O495 C489 1.249 . S
H496 C478 0.948 . S
O497 Zn487 2.039 1_655 S
O497 C501 1.251 . S
O498 Zn479 2.025 . S
O498 C501 1.254 1_455 S
O499 C480 1.246 . S
O499 Zn487 2.034 1_565 S
O500 Zn479 2.024 1_565 S
O500 C480 1.249 . S
C501 O497 1.251 . S
C501 O498 1.254 1_655 S
H502 C475 0.949 . S
H503 C477 0.950 . S
H504 C484 0.949 . S
H505 C486 0.950 . S
C506 O522 1.251 . S
C506 O524 1.254 . S
N507 C508 1.333 . S
N507 C512 1.307 . S
N507 Zn513 2.020 . S
C508 N507 1.333 . S
C508 C509 1.379 . S
C508 H526 0.952 . S
C509 C508 1.379 . S
C509 C510 1.390 . S
C509 H536 0.949 . S
C510 C509 1.390 . S
C510 C511 1.357 . S
C511 C510 1.357 . S
C511 C512 1.370 . S
C511 H537 0.950 . S
C512 N507 1.307 . S
C512 C511 1.370 . S
C512 H530 0.948 . S
Zn513 N507 2.020 . S
Zn513 O522 2.039 . S
Zn513 O528 2.034 . S
Zn513 O532 2.025 . S
Zn513 O534 2.024 . S
C514 O533 1.246 . S
C514 O534 1.249 . S
N515 C516 1.307 . S
N515 C517 1.333 . S
N515 Zn521 2.020 . S
C516 N515 1.307 . S
C516 C520 1.370 . S
C516 H527 0.948 . S
C517 N515 1.333 . S
C517 C518 1.379 . S
C517 H525 0.952 . S
C518 C517 1.379 . S
C518 C519 1.390 . S
C518 H538 0.949 . S
C519 C518 1.390 . S
C519 C520 1.357 . S
C520 C516 1.370 . S
C520 C519 1.357 . S
C520 H539 0.950 . S
Zn521 N515 2.020 . S
Zn521 O524 2.025 . S
Zn521 O529 2.024 . S
Zn521 O531 2.039 . S
Zn521 O533 2.034 . S
O522 C506 1.251 . S
O522 Zn513 2.039 . S
C523 O528 1.246 . S
C523 O529 1.249 . S
O524 C506 1.254 . S
O524 Zn521 2.025 . S
H525 C517 0.952 . S
H526 C508 0.952 . S
H527 C516 0.948 . S
O528 Zn513 2.034 . S
O528 C523 1.246 . S
O529 Zn521 2.024 . S
O529 C523 1.249 . S
H530 C512 0.948 . S
O531 Zn521 2.039 . S
O531 C535 1.251 . S
O532 Zn513 2.025 . S
O532 C535 1.254 . S
O533 C514 1.246 . S
O533 Zn521 2.034 . S
O534 Zn513 2.024 . S
O534 C514 1.249 . S
C535 O531 1.251 . S
C535 O532 1.254 . S
H536 C509 0.949 . S
H537 C511 0.950 . S
H538 C518 0.949 . S
H539 C520 0.950 . S
C540 O556 1.251 . S
C540 O558 1.254 . S
N541 C542 1.333 . S
N541 C546 1.307 . S
N541 Zn547 2.020 . S
C542 N541 1.333 . S
C542 C543 1.379 . S
C542 H560 0.952 . S
C543 C542 1.379 . S
C543 C544 1.390 . S
C543 H570 0.949 . S
C544 C543 1.390 . S
C544 C545 1.357 . S
C545 C544 1.357 . S
C545 C546 1.370 . S
C545 H571 0.950 . S
C546 N541 1.307 . S
C546 C545 1.370 . S
C546 H564 0.948 . S
Zn547 N541 2.020 . S
Zn547 O556 2.039 1_545 S
Zn547 O562 2.034 . S
Zn547 O566 2.025 . S
Zn547 O568 2.024 . S
C548 O567 1.246 . S
C548 O568 1.249 1_565 S
N549 C550 1.307 . S
N549 C551 1.333 1_565 S
N549 Zn555 2.020 1_566 S
C550 N549 1.307 . S
C550 C554 1.370 . S
C550 H561 0.948 . S
C551 N549 1.333 1_545 S
C551 C552 1.379 1_545 S
C551 H559 0.952 . S
C552 C551 1.379 1_565 S
C552 C553 1.390 . S
C552 H572 0.949 1_565 S
C553 C552 1.390 . S
C553 C554 1.357 . S
C554 C550 1.370 . S
C554 C553 1.357 . S
C554 H573 0.950 . S
Zn555 N549 2.020 1_544 S
Zn555 O558 2.025 1_545 S
Zn555 O563 2.024 . S
Zn555 O565 2.039 1_554 S
Zn555 O567 2.034 1_545 S
O556 C540 1.251 . S
O556 Zn547 2.039 1_565 S
C557 O562 1.246 . S
C557 O563 1.249 . S
O558 C540 1.254 . S
O558 Zn555 2.025 1_565 S
H559 C551 0.952 . S
H560 C542 0.952 . S
H561 C550 0.948 . S
O562 Zn547 2.034 . S
O562 C557 1.246 . S
O563 Zn555 2.024 . S
O563 C557 1.249 . S
H564 C546 0.948 . S
O565 Zn555 2.039 1_556 S
O565 C569 1.251 1_556 S
O566 Zn547 2.025 . S
O566 C569 1.254 . S
O567 C548 1.246 . S
O567 Zn555 2.034 1_565 S
O568 Zn547 2.024 . S
O568 C548 1.249 1_545 S
C569 O565 1.251 1_554 S
C569 O566 1.254 . S
H570 C543 0.949 . S
H571 C545 0.950 . S
H572 C552 0.949 1_545 S
H573 C554 0.950 . S
C574 O590 1.251 . S
C574 O592 1.254 . S
N575 C576 1.333 . S
N575 C580 1.307 . S
N575 Zn581 2.020 . S
C576 N575 1.333 . S
C576 C577 1.379 . S
C576 H594 0.952 . S
C577 C576 1.379 . S
C577 C578 1.390 . S
C577 H604 0.949 . S
C578 C577 1.390 . S
C578 C579 1.357 . S
C579 C578 1.357 . S
C579 C580 1.370 . S
C579 H605 0.950 . S
C580 N575 1.307 . S
C580 C579 1.370 . S
C580 H598 0.948 . S
Zn581 N575 2.020 . S
Zn581 O590 2.039 . S
Zn581 O596 2.034 . S
Zn581 O600 2.025 . S
Zn581 O602 2.024 . S
C582 O601 1.246 . S
C582 O602 1.249 . S
N583 C584 1.307 . S
N583 C585 1.333 . S
N583 Zn589 2.020 . S
C584 N583 1.307 . S
C584 C588 1.370 . S
C584 H595 0.948 . S
C585 N583 1.333 . S
C585 C586 1.379 . S
C585 H593 0.952 . S
C586 C585 1.379 . S
C586 C587 1.390 . S
C586 H606 0.949 . S
C587 C586 1.390 . S
C587 C588 1.357 . S
C588 C584 1.370 . S
C588 C587 1.357 . S
C588 H607 0.950 . S
Zn589 N583 2.020 . S
Zn589 O592 2.025 . S
Zn589 O597 2.024 . S
Zn589 O599 2.039 . S
Zn589 O601 2.034 . S
O590 C574 1.251 . S
O590 Zn581 2.039 . S
C591 O596 1.246 . S
C591 O597 1.249 . S
O592 C574 1.254 . S
O592 Zn589 2.025 . S
H593 C585 0.952 . S
H594 C576 0.952 . S
H595 C584 0.948 . S
O596 Zn581 2.034 . S
O596 C591 1.246 . S
O597 Zn589 2.024 . S
O597 C591 1.249 . S
H598 C580 0.948 . S
O599 Zn589 2.039 . S
O599 C603 1.251 . S
O600 Zn581 2.025 . S
O600 C603 1.254 . S
O601 C582 1.246 . S
O601 Zn589 2.034 . S
O602 Zn581 2.024 . S
O602 C582 1.249 . S
C603 O599 1.251 . S
C603 O600 1.254 . S
H604 C577 0.949 . S
H605 C579 0.950 . S
H606 C586 0.949 . S
H607 C588 0.950 . S
C608 O624 1.251 . S
C608 O626 1.254 . S
N609 C610 1.333 . S
N609 C614 1.307 . S
N609 Zn615 2.020 1_556 S
C610 N609 1.333 . S
C610 C611 1.379 . S
C610 H628 0.952 . S
C611 C610 1.379 . S
C611 C612 1.390 . S
C611 H638 0.949 . S
C612 C611 1.390 . S
C612 C613 1.357 . S
C613 C612 1.357 . S
C613 C614 1.370 . S
C613 H639 0.950 . S
C614 N609 1.307 . S
C614 C613 1.370 . S
C614 H632 0.948 . S
Zn615 N609 2.020 1_554 S
Zn615 O624 2.039 . S
Zn615 O630 2.034 . S
Zn615 O634 2.027 . S
Zn615 O636 2.024 1_554 S
C616 O635 1.246 . S
C616 O636 1.249 1_554 S
N617 C618 1.307 . S
N617 C619 1.333 . S
N617 Zn623 2.020 . S
C618 N617 1.307 . S
C618 C622 1.370 . S
C618 H629 0.948 . S
C619 N617 1.333 . S
C619 C620 1.379 . S
C619 H627 0.952 . S
C620 C619 1.379 . S
C620 C621 1.390 . S
C620 H640 0.949 . S
C621 C620 1.390 . S
C621 C622 1.357 . S
C622 C618 1.370 . S
C622 C621 1.357 . S
C622 H641 0.950 . S
Zn623 N617 2.020 . S
Zn623 O626 2.025 . S
Zn623 O631 2.024 . S
Zn623 O633 2.039 . S
Zn623 O635 2.034 . S
O624 C608 1.251 . S
O624 Zn615 2.039 . S
C625 O630 1.246 . S
C625 O631 1.249 . S
O626 C608 1.254 . S
O626 Zn623 2.025 . S
H627 C619 0.952 . S
H628 C610 0.952 . S
H629 C618 0.948 . S
O630 Zn615 2.034 . S
O630 C625 1.246 . S
O631 Zn623 2.024 . S
O631 C625 1.249 . S
H632 C614 0.948 . S
O633 Zn623 2.039 . S
O633 C637 1.251 . S
O634 Zn615 2.027 . S
O634 C637 1.275 . S
O635 C616 1.246 . S
O635 Zn623 2.034 . S
O636 Zn615 2.024 1_556 S
O636 C616 1.249 1_556 S
C637 O633 1.251 . S
C637 O634 1.275 . S
H638 C611 0.949 . S
H639 C613 0.950 . S
H640 C620 0.949 . S
H641 C622 0.950 . S
C642 O658 1.251 . S
C642 O660 1.254 . S
N643 C644 1.333 . S
N643 C648 1.307 . S
N643 Zn649 2.020 . S
C644 N643 1.333 . S
C644 C645 1.379 . S
C644 H662 0.952 . S
C645 C644 1.379 . S
C645 C646 1.390 . S
C645 H672 0.949 . S
C646 C645 1.390 . S
C646 C647 1.357 . S
C647 C646 1.357 . S
C647 C648 1.370 . S
C647 H673 0.950 . S
C648 N643 1.307 . S
C648 C647 1.370 . S
C648 H666 0.948 . S
Zn649 N643 2.020 . S
Zn649 O658 2.039 . S
Zn649 O664 2.034 . S
Zn649 O668 2.025 . S
Zn649 O670 2.024 . S
C650 O669 1.246 . S
C650 O670 1.249 . S
N651 C652 1.307 . S
N651 C653 1.333 . S
N651 Zn657 2.020 . S
C652 N651 1.307 . S
C652 C656 1.370 . S
C652 H663 0.948 . S
C653 N651 1.333 . S
C653 C654 1.379 . S
C653 H661 0.952 . S
C654 C653 1.379 . S
C654 C655 1.390 . S
C654 H674 0.949 . S
C655 C654 1.390 . S
C655 C656 1.357 . S
C656 C652 1.370 . S
C656 C655 1.357 . S
C656 H675 0.950 . S
Zn657 N651 2.020 . S
Zn657 O660 2.025 . S
Zn657 O665 2.024 . S
Zn657 O667 2.039 . S
Zn657 O669 2.034 . S
O658 C642 1.251 . S
O658 Zn649 2.039 . S
C659 O664 1.246 . S
C659 O665 1.249 . S
O660 C642 1.254 . S
O660 Zn657 2.025 . S
H661 C653 0.952 . S
H662 C644 0.952 . S
H663 C652 0.948 . S
O664 Zn649 2.034 . S
O664 C659 1.246 . S
O665 Zn657 2.024 . S
O665 C659 1.249 . S
H666 C648 0.948 . S
O667 Zn657 2.039 . S
O667 C671 1.251 . S
O668 Zn649 2.025 . S
O668 C671 1.254 . S
O669 C650 1.246 . S
O669 Zn657 2.034 . S
O670 Zn649 2.024 . S
O670 C650 1.249 . S
C671 O667 1.251 . S
C671 O668 1.254 . S
H672 C645 0.949 . S
H673 C647 0.950 . S
H674 C654 0.949 . S
H675 C656 0.950 . S
C676 O692 1.251 . S
C676 O694 1.254 . S
N677 C678 1.333 . S
N677 C682 1.307 . S
N677 Zn683 2.020 . S
C678 N677 1.333 . S
C678 C679 1.379 . S
C678 H696 0.952 . S
C679 C678 1.379 . S
C679 C680 1.390 . S
C679 H706 0.949 . S
C680 C679 1.390 . S
C680 C681 1.357 . S
C681 C680 1.357 . S
C681 C682 1.370 . S
C681 H707 0.950 . S
C682 N677 1.307 . S
C682 C681 1.370 . S
C682 H700 0.948 . S
Zn683 N677 2.020 . S
Zn683 O692 2.039 . S
Zn683 O698 2.034 . S
Zn683 O702 2.025 . S
Zn683 O704 2.024 . S
C684 O703 1.246 . S
C684 O704 1.249 . S
N685 C686 1.307 1_455 S
N685 C687 1.333 . S
N685 Zn691 2.020 . S
C686 N685 1.307 1_655 S
C686 C690 1.370 . S
C686 H697 0.948 . S
C687 N685 1.333 . S
C687 C688 1.379 . S
C687 H695 0.952 . S
C688 C687 1.379 . S
C688 C689 1.390 1_455 S
C688 H708 0.949 . S
C689 C688 1.390 1_655 S
C689 C690 1.357 . S
C690 C686 1.370 . S
C690 C689 1.357 . S
C690 H709 0.950 . S
Zn691 N685 2.020 . S
Zn691 O694 2.025 . S
Zn691 O699 2.024 1_455 S
Zn691 O701 2.039 . S
Zn691 O703 2.034 . S
O692 C676 1.251 . S
O692 Zn683 2.039 . S
C693 O698 1.246 1_655 S
C693 O699 1.249 . S
O694 C676 1.254 . S
O694 Zn691 2.025 . S
H695 C687 0.952 . S
H696 C678 0.952 . S
H697 C686 0.948 . S
O698 Zn683 2.034 . S
O698 C693 1.246 1_455 S
O699 Zn691 2.024 1_655 S
O699 C693 1.249 . S
H700 C682 0.948 . S
O701 Zn691 2.039 . S
O701 C705 1.251 . S
O702 Zn683 2.025 . S
O702 C705 1.254 . S
O703 C684 1.246 . S
O703 Zn691 2.034 . S
O704 Zn683 2.024 . S
O704 C684 1.249 . S
C705 O701 1.251 . S
C705 O702 1.254 . S
H706 C679 0.949 . S
H707 C681 0.950 . S
H708 C688 0.949 . S
H709 C690 0.950 . S
C710 O726 1.251 . S
C710 O728 1.254 . S
N711 C712 1.333 . S
N711 C716 1.307 . S
N711 Zn717 2.020 . S
C712 N711 1.333 . S
C712 C713 1.379 . S
C712 H730 0.952 . S
C713 C712 1.379 . S
C713 C714 1.390 . S
C713 H740 0.949 . S
C714 C713 1.390 . S
C714 C715 1.357 . S
C715 C714 1.357 . S
C715 C716 1.370 . S
C715 H741 0.950 . S
C716 N711 1.307 . S
C716 C715 1.370 . S
C716 H734 0.948 . S
Zn717 N711 2.020 . S
Zn717 O726 2.039 . S
Zn717 O732 2.034 . S
Zn717 O736 2.025 . S
Zn717 O738 2.024 . S
C718 O737 1.246 . S
C718 O738 1.249 . S
N719 C720 1.307 . S
N719 C721 1.333 . S
N719 Zn725 2.020 . S
C720 N719 1.307 . S
C720 C724 1.370 . S
C720 H731 0.948 . S
C721 N719 1.333 . S
C721 C722 1.379 . S
C721 H729 0.952 . S
C722 C721 1.379 . S
C722 C723 1.390 . S
C722 H742 0.949 . S
C723 C722 1.390 . S
C723 C724 1.357 . S
C724 C720 1.370 . S
C724 C723 1.357 . S
C724 H743 0.950 . S
Zn725 N719 2.020 . S
Zn725 O728 2.025 . S
Zn725 O733 2.024 . S
Zn725 O735 2.039 . S
Zn725 O737 2.034 . S
O726 C710 1.251 . S
O726 Zn717 2.039 . S
C727 O732 1.246 . S
C727 O733 1.249 . S
O728 C710 1.254 . S
O728 Zn725 2.025 . S
H729 C721 0.952 . S
H730 C712 0.952 . S
H731 C720 0.948 . S
O732 Zn717 2.034 . S
O732 C727 1.246 . S
O733 Zn725 2.024 . S
O733 C727 1.249 . S
H734 C716 0.948 . S
O735 Zn725 2.039 . S
O735 C739 1.251 . S
O736 Zn717 2.025 . S
O736 C739 1.254 . S
O737 C718 1.246 . S
O737 Zn725 2.034 . S
O738 Zn717 2.024 . S
O738 C718 1.249 . S
C739 O735 1.251 . S
C739 O736 1.254 . S
H740 C713 0.949 . S
H741 C715 0.950 . S
H742 C722 0.949 . S
H743 C724 0.950 . S
C744 O760 1.251 . S
C744 O762 1.254 . S
N745 C746 1.333 . S
N745 C750 1.307 . S
N745 Zn751 2.020 . S
C746 N745 1.333 . S
C746 C747 1.379 . S
C746 H764 0.952 . S
C747 C746 1.379 . S
C747 C748 1.390 . S
C747 H774 0.949 . S
C748 C747 1.390 . S
C748 C749 1.357 . S
C749 C748 1.357 . S
C749 C750 1.370 . S
C749 H775 0.950 . S
C750 N745 1.307 . S
C750 C749 1.370 . S
C750 H768 0.948 . S
Zn751 N745 2.020 . S
Zn751 O760 2.039 . S
Zn751 O766 2.034 . S
Zn751 O770 2.025 . S
Zn751 O772 2.024 . S
C752 O771 1.246 . S
C752 O772 1.249 . S
N753 C754 1.307 . S
N753 C755 1.333 . S
N753 Zn759 2.020 . S
C754 N753 1.307 . S
C754 C758 1.370 . S
C754 H765 0.948 . S
C755 N753 1.333 . S
C755 C756 1.379 . S
C755 H763 0.952 . S
C756 C755 1.379 . S
C756 C757 1.390 . S
C756 H776 0.949 . S
C757 C756 1.390 . S
C757 C758 1.357 . S
C758 C754 1.370 . S
C758 C757 1.357 . S
C758 H777 0.950 . S
Zn759 N753 2.020 . S
Zn759 O762 2.025 . S
Zn759 O767 2.024 . S
Zn759 O769 2.039 . S
Zn759 O771 2.034 . S
O760 C744 1.251 . S
O760 Zn751 2.039 . S
C761 O766 1.246 . S
C761 O767 1.249 . S
O762 C744 1.254 . S
O762 Zn759 2.025 . S
H763 C755 0.952 . S
H764 C746 0.952 . S
H765 C754 0.948 . S
O766 Zn751 2.034 . S
O766 C761 1.246 . S
O767 Zn759 2.024 . S
O767 C761 1.249 . S
H768 C750 0.948 . S
O769 Zn759 2.039 . S
O769 C773 1.251 . S
O770 Zn751 2.025 . S
O770 C773 1.254 . S
O771 C752 1.246 . S
O771 Zn759 2.034 . S
O772 Zn751 2.024 . S
O772 C752 1.249 . S
C773 O769 1.251 . S
C773 O770 1.254 . S
H774 C747 0.949 . S
H775 C749 0.950 . S
H776 C756 0.949 . S
H777 C758 0.950 . S
C778 O794 1.251 . S
C778 O796 1.254 . S
N779 C780 1.333 . S
N779 C784 1.307 . S
N779 Zn785 2.020 . S
C780 N779 1.333 . S
C780 C781 1.379 . S
C780 H798 0.952 . S
C781 C780 1.379 . S
C781 C782 1.390 . S
C781 H808 0.949 . S
C782 C781 1.390 . S
C782 C783 1.357 . S
C783 C782 1.357 . S
C783 C784 1.370 . S
C783 H809 0.950 . S
C784 N779 1.307 . S
C784 C783 1.370 . S
C784 H802 0.948 . S
Zn785 N779 2.020 . S
Zn785 O794 2.039 . S
Zn785 O800 2.034 . S
Zn785 O804 2.025 . S
Zn785 O806 2.024 . S
C786 O805 1.246 . S
C786 O806 1.249 . S
N787 C788 1.307 . S
N787 C789 1.333 . S
N787 Zn793 2.020 . S
C788 N787 1.307 . S
C788 C792 1.370 . S
C788 H799 0.948 . S
C789 N787 1.333 . S
C789 C790 1.379 . S
C789 H797 0.952 . S
C790 C789 1.379 . S
C790 C791 1.390 . S
C790 H810 0.949 . S
C791 C790 1.390 . S
C791 C792 1.357 . S
C792 C788 1.370 . S
C792 C791 1.357 . S
C792 H811 0.950 . S
Zn793 N787 2.020 . S
Zn793 O796 2.025 . S
Zn793 O801 2.024 . S
Zn793 O803 2.039 . S
Zn793 O805 2.034 . S
O794 C778 1.251 . S
O794 Zn785 2.039 . S
C795 O800 1.246 . S
C795 O801 1.249 . S
O796 C778 1.254 . S
O796 Zn793 2.025 . S
H797 C789 0.952 . S
H798 C780 0.952 . S
H799 C788 0.948 . S
O800 Zn785 2.034 . S
O800 C795 1.246 . S
O801 Zn793 2.024 . S
O801 C795 1.249 . S
H802 C784 0.948 . S
O803 Zn793 2.039 . S
O803 C807 1.251 . S
O804 Zn785 2.025 . S
O804 C807 1.254 . S
O805 C786 1.246 . S
O805 Zn793 2.034 . S
O806 Zn785 2.024 . S
O806 C786 1.249 . S
C807 O803 1.251 . S
C807 O804 1.254 . S
H808 C781 0.949 . S
H809 C783 0.950 . S
H810 C790 0.949 . S
H811 C792 0.950 . S
C812 O828 1.251 . S
C812 O830 1.254 . S
N813 C814 1.333 . S
N813 C818 1.307 . S
N813 Zn819 2.020 . S
C814 N813 1.333 . S
C814 C815 1.379 . S
C814 H832 0.952 . S
C815 C814 1.379 . S
C815 C816 1.390 . S
C815 H842 0.949 . S
C816 C815 1.390 . S
C816 C817 1.357 . S
C817 C816 1.357 . S
C817 C818 1.370 . S
C817 H843 0.950 . S
C818 N813 1.307 . S
C818 C817 1.370 . S
C818 H836 0.948 . S
Zn819 N813 2.020 . S
Zn819 O828 2.039 . S
Zn819 O834 2.034 . S
Zn819 O838 2.025 . S
Zn819 O840 2.024 . S
C820 O839 1.246 . S
C820 O840 1.249 . S
N821 C822 1.307 . S
N821 C823 1.333 . S
N821 Zn827 2.020 . S
C822 N821 1.307 . S
C822 C826 1.370 . S
C822 H833 0.948 . S
C823 N821 1.333 . S
C823 C824 1.379 . S
C823 H831 0.952 . S
C824 C823 1.379 . S
C824 C825 1.390 . S
C824 H844 0.949 . S
C825 C824 1.390 . S
C825 C826 1.357 . S
C826 C822 1.370 . S
C826 C825 1.357 . S
C826 H845 0.950 . S
Zn827 N821 2.020 . S
Zn827 O830 2.025 . S
Zn827 O835 2.024 . S
Zn827 O837 2.039 . S
Zn827 O839 2.034 . S
O828 C812 1.251 . S
O828 Zn819 2.039 . S
C829 O834 1.246 . S
C829 O835 1.249 . S
O830 C812 1.254 . S
O830 Zn827 2.025 . S
H831 C823 0.952 . S
H832 C814 0.952 . S
H833 C822 0.948 . S
O834 Zn819 2.034 . S
O834 C829 1.246 . S
O835 Zn827 2.024 . S
O835 C829 1.249 . S
H836 C818 0.948 . S
O837 Zn827 2.039 . S
O837 C841 1.251 . S
O838 Zn819 2.025 . S
O838 C841 1.254 . S
O839 C820 1.246 . S
O839 Zn827 2.034 . S
O840 Zn819 2.024 . S
O840 C820 1.249 . S
C841 O837 1.251 . S
C841 O838 1.254 . S
H842 C815 0.949 . S
H843 C817 0.950 . S
H844 C824 0.949 . S
H845 C826 0.950 . S
C846 O862 1.251 . S
C846 O864 1.254 . S
N847 C848 1.333 . S
N847 C852 1.307 . S
N847 Zn853 2.020 . S
C848 N847 1.333 . S
C848 C849 1.379 . S
C848 H866 0.952 . S
C849 C848 1.379 . S
C849 C850 1.390 . S
C849 H876 0.949 . S
C850 C849 1.390 . S
C850 C851 1.357 . S
C851 C850 1.357 . S
C851 C852 1.370 . S
C851 H877 0.950 . S
C852 N847 1.307 . S
C852 C851 1.370 . S
C852 H870 0.948 . S
Zn853 N847 2.020 . S
Zn853 O862 2.039 . S
Zn853 O868 2.034 . S
Zn853 O872 2.040 . S
Zn853 O874 2.024 . S
C854 O873 1.246 . S
C854 O874 1.249 1_655 S
N855 C856 1.307 . S
N855 C857 1.333 1_554 S
N855 Zn861 2.020 . S
C856 N855 1.307 . S
C856 C860 1.370 . S
C856 H867 0.948 . S
C857 N855 1.333 1_556 S
C857 C858 1.379 . S
C857 H865 0.952 . S
C858 C857 1.379 . S
C858 C859 1.390 1_455 S
C858 H878 0.950 1_455 S
C859 C858 1.390 1_655 S
C859 C860 1.357 1_656 S
C860 C856 1.370 . S
C860 C859 1.357 1_454 S
C860 H879 0.950 . S
Zn861 N855 2.020 . S
Zn861 O864 2.025 . S
Zn861 O869 2.024 . S
Zn861 O871 2.039 1_554 S
Zn861 O873 2.034 1_455 S
O862 C846 1.251 . S
O862 Zn853 2.039 . S
C863 O868 1.246 . S
C863 O869 1.249 . S
O864 C846 1.254 . S
O864 Zn861 2.025 . S
H865 C857 0.952 . S
H866 C848 0.952 . S
H867 C856 0.948 . S
O868 Zn853 2.034 . S
O868 C863 1.246 . S
O869 Zn861 2.024 . S
O869 C863 1.249 . S
H870 C852 0.948 . S
O871 Zn861 2.039 1_556 S
O871 C875 1.251 . S
O872 Zn853 2.040 . S
O872 C875 1.244 1_554 S
O873 C854 1.246 . S
O873 Zn861 2.034 1_655 S
O874 Zn853 2.024 . S
O874 C854 1.249 1_455 S
C875 O871 1.251 . S
C875 O872 1.244 1_556 S
H876 C849 0.949 . S
H877 C851 0.950 . S
H878 C858 0.950 1_655 S
H879 C860 0.950 . S
C880 C881 1.369 . S
C880 C882 1.419 . S
C880 H884 0.930 . S
C881 C880 1.369 . S
C881 C890 1.429 . S
C882 C880 1.419 . S
C882 C883 1.363 . S
C882 H885 0.929 . S
C883 C882 1.363 . S
C883 C889 1.428 . S
H884 C880 0.930 . S
H885 C882 0.929 . S
S886 N887 1.613 . S
S886 N888 1.610 . S
N887 S886 1.613 . S
N887 C890 1.350 . S
N888 S886 1.610 . S
N888 C889 1.351 . S
C889 C883 1.428 . S
C889 N888 1.351 . S
C889 C890 1.434 . S
C890 C881 1.429 . S
C890 N887 1.350 . S
C890 C889 1.434 . S
C891 C892 1.369 . S
C891 C893 1.419 . S
C891 H895 0.930 . S
C892 C891 1.369 . S
C892 C901 1.429 . S
C893 C891 1.419 . S
C893 C894 1.363 . S
C893 H896 0.929 . S
C894 C893 1.363 . S
C894 C900 1.428 . S
H895 C891 0.930 . S
H896 C893 0.929 . S
S897 N898 1.613 . S
S897 N899 1.610 . S
N898 S897 1.613 . S
N898 C901 1.350 . S
N899 S897 1.610 . S
N899 C900 1.351 . S
C900 C894 1.428 . S
C900 N899 1.351 . S
C900 C901 1.434 . S
C901 C892 1.429 . S
C901 N898 1.350 . S
C901 C900 1.434 . S
C902 C903 1.369 . S
C902 C904 1.419 . S
C902 H906 0.930 . S
C903 C902 1.369 . S
C903 C912 1.429 . S
C904 C902 1.419 . S
C904 C905 1.363 . S
C904 H907 0.929 . S
C905 C904 1.363 . S
C905 C911 1.428 . S
H906 C902 0.930 . S
H907 C904 0.929 . S
S908 N909 1.613 . S
S908 N910 1.610 . S
N909 S908 1.613 . S
N909 C912 1.350 . S
N910 S908 1.610 . S
N910 C911 1.351 . S
C911 C905 1.428 . S
C911 N910 1.351 . S
C911 C912 1.434 . S
C912 C903 1.429 . S
C912 N909 1.350 . S
C912 C911 1.434 . S
C913 C914 1.369 . S
C913 C915 1.419 . S
C913 H917 0.930 . S
C914 C913 1.369 . S
C914 C923 1.429 . S
C915 C913 1.419 . S
C915 C916 1.363 . S
C915 H918 0.929 . S
C916 C915 1.363 . S
C916 C922 1.428 . S
H917 C913 0.930 . S
H918 C915 0.929 . S
S919 N920 1.613 . S
S919 N921 1.610 . S
N920 S919 1.613 . S
N920 C923 1.350 . S
N921 S919 1.610 . S
N921 C922 1.351 . S
C922 C916 1.428 . S
C922 N921 1.351 . S
C922 C923 1.434 . S
C923 C914 1.429 . S
C923 N920 1.350 . S
C923 C922 1.434 . S
C924 C925 1.369 . S
C924 C926 1.419 . S
C924 H928 0.930 1_455 S
C925 C924 1.369 . S
C925 C934 1.429 . S
C926 C924 1.419 . S
C926 C927 1.363 . S
C926 H929 0.929 1_455 S
C927 C926 1.363 . S
C927 C933 1.428 . S
H928 C924 0.930 1_655 S
H929 C926 0.929 1_655 S
S930 N931 1.613 . S
S930 N932 1.610 . S
N931 S930 1.613 . S
N931 C934 1.350 . S
N932 S930 1.610 . S
N932 C933 1.351 . S
C933 C927 1.428 . S
C933 N932 1.351 . S
C933 C934 1.434 . S
C934 C925 1.429 . S
C934 N931 1.350 . S
C934 C933 1.434 . S
C935 C936 1.369 . S
C935 C937 1.419 . S
C935 H939 0.930 . S
C936 C935 1.369 . S
C936 C945 1.429 . S
C937 C935 1.419 . S
C937 C938 1.363 . S
C937 H940 0.929 . S
C938 C937 1.363 . S
C938 C944 1.428 . S
H939 C935 0.930 . S
H940 C937 0.929 . S
S941 N942 1.613 . S
S941 N943 1.610 . S
N942 S941 1.613 . S
N942 C945 1.350 . S
N943 S941 1.610 . S
N943 C944 1.351 . S
C944 C938 1.428 . S
C944 N943 1.351 . S
C944 C945 1.434 . S
C945 C936 1.429 . S
C945 N942 1.350 . S
C945 C944 1.434 . S
C946 C947 1.369 . S
C946 C948 1.419 . S
C946 H950 0.930 . S
C947 C946 1.369 . S
C947 C956 1.429 . S
C948 C946 1.419 . S
C948 C949 1.363 . S
C948 H951 0.929 1_556 S
C949 C948 1.363 . S
C949 C955 1.428 . S
H950 C946 0.930 . S
H951 C948 0.929 1_554 S
S952 N953 1.613 . S
S952 N954 1.610 . S
N953 S952 1.613 . S
N953 C956 1.350 . S
N954 S952 1.610 . S
N954 C955 1.351 . S
C955 C949 1.428 . S
C955 N954 1.351 . S
C955 C956 1.434 . S
C956 C947 1.429 . S
C956 N953 1.350 . S
C956 C955 1.434 . S
C957 C958 1.369 . S
C957 C959 1.419 . S
C957 H961 0.930 . S
C958 C957 1.369 . S
C958 C967 1.429 . S
C959 C957 1.419 . S
C959 C960 1.363 . S
C959 H962 0.929 . S
C960 C959 1.363 . S
C960 C966 1.428 . S
H961 C957 0.930 . S
H962 C959 0.929 . S
S963 N964 1.613 . S
S963 N965 1.610 . S
N964 S963 1.613 . S
N964 C967 1.350 . S
N965 S963 1.610 . S
N965 C966 1.351 . S
C966 C960 1.428 . S
C966 N965 1.351 . S
C966 C967 1.434 . S
C967 C958 1.429 . S
C967 N964 1.350 . S
C967 C966 1.434 . S
C968 C969 1.369 . S
C968 C970 1.419 . S
C968 H972 0.930 . S
C969 C968 1.369 . S
C969 C978 1.429 . S
C970 C968 1.419 . S
C970 C971 1.363 1_545 S
C970 H973 0.929 . S
C971 C970 1.363 1_565 S
C971 C977 1.428 . S
H972 C968 0.930 . S
H973 C970 0.929 . S
S974 N975 1.613 . S
S974 N976 1.610 . S
N975 S974 1.613 . S
N975 C978 1.350 1_565 S
N976 S974 1.610 . S
N976 C977 1.351 . S
C977 C971 1.428 . S
C977 N976 1.351 . S
C977 C978 1.434 1_565 S
C978 C969 1.429 . S
C978 N975 1.350 1_545 S
C978 C977 1.434 1_545 S
C979 C980 1.369 . S
C979 C981 1.419 . S
C979 H983 0.930 . S
C980 C979 1.369 . S
C980 C989 1.429 . S
C981 C979 1.419 . S
C981 C982 1.363 . S
C981 H984 0.929 . S
C982 C981 1.363 . S
C982 C988 1.428 . S
H983 C979 0.930 . S
H984 C981 0.929 . S
S985 N986 1.613 . S
S985 N987 1.610 . S
N986 S985 1.613 . S
N986 C989 1.350 . S
N987 S985 1.610 . S
N987 C988 1.351 . S
C988 C982 1.428 . S
C988 N987 1.351 . S
C988 C989 1.434 . S
C989 C980 1.429 . S
C989 N986 1.350 . S
C989 C988 1.434 . S
C990 C991 1.369 . S
C990 C992 1.419 . S
C990 H994 0.930 . S
C991 C990 1.369 . S
C991 C1000 1.429 1_545 S
C992 C990 1.419 . S
C992 C993 1.363 . S
C992 H995 0.929 . S
C993 C992 1.363 . S
C993 C999 1.417 1_545 S
H994 C990 0.930 . S
H995 C992 0.929 . S
S996 N997 1.613 . S
S996 N998 1.610 . S
N997 S996 1.613 . S
N997 C1000 1.350 . S
N998 S996 1.610 . S
N998 C999 1.361 . S
C999 C993 1.417 1_565 S
C999 N998 1.361 . S
C999 C1000 1.437 . S
C1000 C991 1.429 1_565 S
C1000 N997 1.350 . S
C1000 C999 1.437 . S
C1001 C1002 1.369 . S
C1001 C1003 1.419 . S
C1001 H1005 0.930 . S
C1002 C1001 1.369 . S
C1002 C1011 1.429 . S
C1003 C1001 1.419 . S
C1003 C1004 1.363 . S
C1003 H1006 0.929 . S
C1004 C1003 1.363 . S
C1004 C1010 1.428 . S
H1005 C1001 0.930 . S
H1006 C1003 0.929 . S
S1007 N1008 1.613 . S
S1007 N1009 1.610 . S
N1008 S1007 1.613 . S
N1008 C1011 1.350 . S
N1009 S1007 1.610 . S
N1009 C1010 1.351 . S
C1010 C1004 1.428 . S
C1010 N1009 1.351 . S
C1010 C1011 1.434 . S
C1011 C1002 1.429 . S
C1011 N1008 1.350 . S
C1011 C1010 1.434 . S
C1012 C1013 1.369 . S
C1012 C1014 1.419 . S
C1012 H1016 0.930 . S
C1013 C1012 1.369 . S
C1013 C1022 1.429 . S
C1014 C1012 1.419 . S
C1014 C1015 1.363 . S
C1014 H1017 0.929 . S
C1015 C1014 1.363 . S
C1015 C1021 1.428 . S
H1016 C1012 0.930 . S
H1017 C1014 0.929 . S
S1018 N1019 1.613 . S
S1018 N1020 1.610 . S
N1019 S1018 1.613 . S
N1019 C1022 1.350 . S
N1020 S1018 1.610 . S
N1020 C1021 1.351 . S
C1021 C1015 1.428 . S
C1021 N1020 1.351 . S
C1021 C1022 1.434 . S
C1022 C1013 1.429 . S
C1022 N1019 1.350 . S
C1022 C1021 1.434 . S
C1023 C1024 1.369 . S
C1023 C1025 1.419 . S
C1023 H1027 0.930 . S
C1024 C1023 1.369 . S
C1024 C1033 1.429 . S
C1025 C1023 1.419 . S
C1025 C1026 1.363 . S
C1025 H1028 0.929 . S
C1026 C1025 1.363 . S
C1026 C1032 1.428 . S
H1027 C1023 0.930 . S
H1028 C1025 0.929 . S
S1029 N1030 1.613 . S
S1029 N1031 1.610 . S
N1030 S1029 1.613 . S
N1030 C1033 1.350 . S
N1031 S1029 1.610 . S
N1031 C1032 1.351 . S
C1032 C1026 1.428 . S
C1032 N1031 1.351 . S
C1032 C1033 1.434 . S
C1033 C1024 1.429 . S
C1033 N1030 1.350 . S
C1033 C1032 1.434 . S
C1034 C1035 1.369 1_565 S
C1034 C1036 1.419 . S
C1034 H1038 0.930 . S
C1035 C1034 1.369 1_545 S
C1035 C1044 1.429 . S
C1036 C1034 1.419 . S
C1036 C1037 1.363 . S
C1036 H1039 0.929 . S
C1037 C1036 1.363 . S
C1037 C1043 1.428 1_565 S
H1038 C1034 0.930 . S
H1039 C1036 0.929 . S
S1040 N1041 1.613 . S
S1040 N1042 1.610 . S
N1041 S1040 1.613 . S
N1041 C1044 1.350 . S
N1042 S1040 1.610 . S
N1042 C1043 1.351 . S
C1043 C1037 1.428 1_545 S
C1043 N1042 1.351 . S
C1043 C1044 1.434 . S
C1044 C1035 1.429 . S
C1044 N1041 1.350 . S
C1044 C1043 1.434 . S
C1045 C1046 1.369 . S
C1045 C1047 1.419 . S
C1045 H1049 0.930 . S
C1046 C1045 1.369 . S
C1046 C1055 1.429 . S
C1047 C1045 1.419 . S
C1047 C1048 1.363 . S
C1047 H1050 0.929 . S
C1048 C1047 1.363 . S
C1048 C1054 1.428 . S
H1049 C1045 0.930 . S
H1050 C1047 0.929 . S
S1051 N1052 1.613 . S
S1051 N1053 1.610 . S
N1052 S1051 1.613 . S
N1052 C1055 1.350 . S
N1053 S1051 1.610 . S
N1053 C1054 1.351 . S
C1054 C1048 1.428 . S
C1054 N1053 1.351 . S
C1054 C1055 1.434 . S
C1055 C1046 1.429 . S
C1055 N1052 1.350 . S
C1055 C1054 1.434 . S
C1056 C1057 1.369 . S
C1056 C1058 1.419 1_554 S
C1056 H1060 0.930 1_554 S
C1057 C1056 1.369 . S
C1057 C1066 1.429 . S
C1058 C1056 1.419 1_556 S
C1058 C1059 1.363 1_556 S
C1058 H1061 0.929 . S
C1059 C1058 1.363 1_554 S
C1059 C1065 1.428 . S
H1060 C1056 0.930 1_556 S
H1061 C1058 0.929 . S
S1062 N1063 1.613 . S
S1062 N1064 1.610 . S
N1063 S1062 1.613 . S
N1063 C1066 1.350 . S
N1064 S1062 1.610 . S
N1064 C1065 1.351 . S
C1065 C1059 1.428 . S
C1065 N1064 1.351 . S
C1065 C1066 1.434 . S
C1066 C1057 1.429 . S
C1066 N1063 1.350 . S
C1066 C1065 1.434 . S
C1067 C1068 1.369 . S
C1067 C1069 1.419 . S
C1067 H1071 0.930 . S
C1068 C1067 1.369 . S
C1068 C1077 1.429 . S
C1069 C1067 1.419 . S
C1069 C1070 1.363 . S
C1069 H1072 0.929 . S
C1070 C1069 1.363 . S
C1070 C1076 1.428 . S
H1071 C1067 0.930 . S
H1072 C1069 0.929 . S
S1073 N1074 1.613 . S
S1073 N1075 1.610 . S
N1074 S1073 1.613 . S
N1074 C1077 1.350 . S
N1075 S1073 1.610 . S
N1075 C1076 1.351 . S
C1076 C1070 1.428 . S
C1076 N1075 1.351 . S
C1076 C1077 1.434 . S
C1077 C1068 1.429 . S
C1077 N1074 1.350 . S
C1077 C1076 1.434 . S
C1078 C1079 1.369 . S
C1078 C1080 1.419 . S
C1078 H1082 0.930 . S
C1079 C1078 1.369 . S
C1079 C1088 1.429 . S
C1080 C1078 1.419 . S
C1080 C1081 1.363 . S
C1080 H1083 0.929 . S
C1081 C1080 1.363 . S
C1081 C1087 1.428 . S
H1082 C1078 0.930 . S
H1083 C1080 0.929 . S
S1084 N1085 1.613 . S
S1084 N1086 1.610 . S
N1085 S1084 1.613 . S
N1085 C1088 1.350 . S
N1086 S1084 1.610 . S
N1086 C1087 1.351 . S
C1087 C1081 1.428 . S
C1087 N1086 1.351 . S
C1087 C1088 1.434 . S
C1088 C1079 1.429 . S
C1088 N1085 1.350 . S
C1088 C1087 1.434 . S
C1089 C1090 1.369 . S
C1089 C1091 1.419 . S
C1089 H1093 0.930 . S
C1090 C1089 1.369 . S
C1090 C1099 1.429 . S
C1091 C1089 1.419 . S
C1091 C1092 1.363 . S
C1091 H1094 0.929 . S
C1092 C1091 1.363 . S
C1092 C1098 1.428 . S
H1093 C1089 0.930 . S
H1094 C1091 0.929 . S
S1095 N1096 1.613 . S
S1095 N1097 1.610 . S
N1096 S1095 1.613 . S
N1096 C1099 1.350 . S
N1097 S1095 1.610 . S
N1097 C1098 1.351 . S
C1098 C1092 1.428 . S
C1098 N1097 1.351 . S
C1098 C1099 1.434 . S
C1099 C1090 1.429 . S
C1099 N1096 1.350 . S
C1099 C1098 1.434 . S
C1100 C1101 1.369 . S
C1100 C1102 1.419 . S
C1100 H1104 0.930 . S
C1101 C1100 1.369 . S
C1101 C1110 1.429 . S
C1102 C1100 1.419 . S
C1102 C1103 1.363 . S
C1102 H1105 0.929 . S
C1103 C1102 1.363 . S
C1103 C1109 1.428 . S
H1104 C1100 0.930 . S
H1105 C1102 0.929 . S
S1106 N1107 1.613 . S
S1106 N1108 1.610 . S
N1107 S1106 1.613 . S
N1107 C1110 1.350 . S
N1108 S1106 1.610 . S
N1108 C1109 1.351 . S
C1109 C1103 1.428 . S
C1109 N1108 1.351 . S
C1109 C1110 1.434 . S
C1110 C1101 1.429 . S
C1110 N1107 1.350 . S
C1110 C1109 1.434 . S
C1111 C1112 1.369 . S
C1111 C1113 1.419 . S
C1111 H1115 0.930 . S
C1112 C1111 1.369 . S
C1112 C1121 1.429 . S
C1113 C1111 1.419 . S
C1113 C1114 1.363 . S
C1113 H1116 0.929 1_565 S
C1114 C1113 1.363 . S
C1114 C1120 1.428 . S
H1115 C1111 0.930 . S
H1116 C1113 0.929 1_545 S
S1117 N1118 1.613 . S
S1117 N1119 1.610 . S
N1118 S1117 1.613 . S
N1118 C1121 1.350 . S
N1119 S1117 1.610 . S
N1119 C1120 1.351 . S
C1120 C1114 1.428 . S
C1120 N1119 1.351 . S
C1120 C1121 1.434 . S
C1121 C1112 1.429 . S
C1121 N1118 1.350 . S
C1121 C1120 1.434 . S
C1122 C1123 1.369 . S
C1122 C1124 1.419 . S
C1122 H1126 0.930 . S
C1123 C1122 1.369 . S
C1123 C1132 1.429 . S
C1124 C1122 1.419 . S
C1124 C1125 1.363 . S
C1124 H1127 0.929 . S
C1125 C1124 1.363 . S
C1125 C1131 1.428 . S
H1126 C1122 0.930 . S
H1127 C1124 0.929 . S
S1128 N1129 1.613 . S
S1128 N1130 1.610 . S
N1129 S1128 1.613 . S
N1129 C1132 1.350 . S
N1130 S1128 1.610 . S
N1130 C1131 1.351 . S
C1131 C1125 1.428 . S
C1131 N1130 1.351 . S
C1131 C1132 1.434 . S
C1132 C1123 1.429 . S
C1132 N1129 1.350 . S
C1132 C1131 1.434 . S
C1133 C1134 1.369 . S
C1133 C1135 1.419 . S
C1133 H1137 0.930 . S
C1134 C1133 1.369 . S
C1134 C1143 1.429 . S
C1135 C1133 1.419 . S
C1135 C1136 1.363 . S
C1135 H1138 0.929 . S
C1136 C1135 1.363 . S
C1136 C1142 1.428 . S
H1137 C1133 0.930 . S
H1138 C1135 0.929 . S
S1139 N1140 1.613 . S
S1139 N1141 1.610 . S
N1140 S1139 1.613 . S
N1140 C1143 1.350 . S
N1141 S1139 1.610 . S
N1141 C1142 1.351 . S
C1142 C1136 1.428 . S
C1142 N1141 1.351 . S
C1142 C1143 1.434 . S
C1143 C1134 1.429 . S
C1143 N1140 1.350 . S
C1143 C1142 1.434 . S
C1144 C1145 1.369 . S
C1144 C1146 1.419 . S
C1144 H1148 0.930 . S
C1145 C1144 1.369 . S
C1145 C1154 1.429 . S
C1146 C1144 1.419 . S
C1146 C1147 1.363 . S
C1146 H1149 0.929 1_556 S
C1147 C1146 1.363 . S
C1147 C1153 1.428 . S
H1148 C1144 0.930 . S
H1149 C1146 0.929 1_554 S
S1150 N1151 1.613 . S
S1150 N1152 1.610 . S
N1151 S1150 1.613 . S
N1151 C1154 1.350 . S
N1152 S1150 1.610 . S
N1152 C1153 1.351 . S
C1153 C1147 1.428 . S
C1153 N1152 1.351 . S
C1153 C1154 1.434 . S
C1154 C1145 1.429 . S
C1154 N1151 1.350 . S
C1154 C1153 1.434 . S
C1155 C1156 1.369 . S
C1155 C1157 1.419 . S
C1155 H1159 0.930 . S
C1156 C1155 1.369 . S
C1156 C1165 1.429 . S
C1157 C1155 1.419 . S
C1157 C1158 1.363 . S
C1157 H1160 0.929 . S
C1158 C1157 1.363 . S
C1158 C1164 1.428 . S
H1159 C1155 0.930 . S
H1160 C1157 0.929 . S
S1161 N1162 1.613 . S
S1161 N1163 1.610 . S
N1162 S1161 1.613 . S
N1162 C1165 1.350 . S
N1163 S1161 1.610 . S
N1163 C1164 1.351 . S
C1164 C1158 1.428 . S
C1164 N1163 1.351 . S
C1164 C1165 1.434 . S
C1165 C1156 1.429 . S
C1165 N1162 1.350 . S
C1165 C1164 1.434 . S
C1166 C1167 1.369 . S
C1166 C1168 1.419 . S
C1166 H1170 0.930 . S
C1167 C1166 1.369 . S
C1167 C1176 1.429 . S
C1168 C1166 1.419 . S
C1168 C1169 1.363 . S
C1168 H1171 0.929 . S
C1169 C1168 1.363 . S
C1169 C1175 1.428 . S
H1170 C1166 0.930 . S
H1171 C1168 0.929 . S
S1172 N1173 1.613 . S
S1172 N1174 1.610 . S
N1173 S1172 1.613 . S
N1173 C1176 1.350 . S
N1174 S1172 1.610 . S
N1174 C1175 1.351 . S
C1175 C1169 1.428 . S
C1175 N1174 1.351 . S
C1175 C1176 1.434 . S
C1176 C1167 1.429 . S
C1176 N1173 1.350 . S
C1176 C1175 1.434 . S
C1177 C1178 1.369 . S
C1177 C1179 1.419 . S
C1177 H1181 0.930 . S
C1178 C1177 1.369 . S
C1178 C1187 1.429 . S
C1179 C1177 1.419 . S
C1179 C1180 1.363 . S
C1179 H1182 0.929 . S
C1180 C1179 1.363 . S
C1180 C1186 1.428 . S
H1181 C1177 0.930 . S
H1182 C1179 0.929 . S
S1183 N1184 1.613 . S
S1183 N1185 1.610 . S
N1184 S1183 1.613 . S
N1184 C1187 1.350 . S
N1185 S1183 1.610 . S
N1185 C1186 1.351 . S
C1186 C1180 1.428 . S
C1186 N1185 1.351 . S
C1186 C1187 1.434 . S
C1187 C1178 1.429 . S
C1187 N1184 1.350 . S
C1187 C1186 1.434 . S
C1188 C1189 1.369 . S
C1188 C1190 1.419 . S
C1188 H1192 0.930 . S
C1189 C1188 1.369 . S
C1189 C1198 1.429 . S
C1190 C1188 1.419 . S
C1190 C1191 1.363 . S
C1190 H1193 0.929 . S
C1191 C1190 1.363 . S
C1191 C1197 1.428 . S
H1192 C1188 0.930 . S
H1193 C1190 0.929 . S
S1194 N1195 1.613 . S
S1194 N1196 1.610 . S
N1195 S1194 1.613 . S
N1195 C1198 1.350 . S
N1196 S1194 1.610 . S
N1196 C1197 1.351 . S
C1197 C1191 1.428 . S
C1197 N1196 1.351 . S
C1197 C1198 1.434 . S
C1198 C1189 1.429 . S
C1198 N1195 1.350 . S
C1198 C1197 1.434 . S
C1199 C1200 1.369 . S
C1199 C1201 1.419 . S
C1199 H1203 0.930 . S
C1200 C1199 1.369 . S
C1200 C1209 1.429 . S
C1201 C1199 1.419 . S
C1201 C1202 1.363 . S
C1201 H1204 0.929 . S
C1202 C1201 1.363 . S
C1202 C1208 1.428 . S
H1203 C1199 0.930 . S
H1204 C1201 0.929 . S
S1205 N1206 1.613 . S
S1205 N1207 1.610 . S
N1206 S1205 1.613 . S
N1206 C1209 1.350 . S
N1207 S1205 1.610 . S
N1207 C1208 1.351 . S
C1208 C1202 1.428 . S
C1208 N1207 1.351 . S
C1208 C1209 1.434 . S
C1209 C1200 1.429 . S
C1209 N1206 1.350 . S
C1209 C1208 1.434 . S
C1210 C1211 1.369 . S
C1210 C1212 1.419 . S
C1210 H1214 0.930 . S
C1211 C1210 1.369 . S
C1211 C1220 1.429 . S
C1212 C1210 1.419 . S
C1212 C1213 1.363 . S
C1212 H1215 0.929 . S
C1213 C1212 1.363 . S
C1213 C1219 1.428 . S
H1214 C1210 0.930 . S
H1215 C1212 0.929 . S
S1216 N1217 1.613 . S
S1216 N1218 1.610 . S
N1217 S1216 1.613 . S
N1217 C1220 1.350 . S
N1218 S1216 1.610 . S
N1218 C1219 1.351 . S
C1219 C1213 1.428 . S
C1219 N1218 1.351 . S
C1219 C1220 1.434 . S
C1220 C1211 1.429 . S
C1220 N1217 1.350 . S
C1220 C1219 1.434 . S
C1221 C1222 1.369 . S
C1221 C1223 1.419 . S
C1221 H1225 0.930 . S
C1222 C1221 1.369 . S
C1222 C1231 1.429 . S
C1223 C1221 1.419 . S
C1223 C1224 1.363 . S
C1223 H1226 0.929 . S
C1224 C1223 1.363 . S
C1224 C1230 1.428 . S
H1225 C1221 0.930 . S
H1226 C1223 0.929 . S
S1227 N1228 1.613 . S
S1227 N1229 1.610 . S
N1228 S1227 1.613 . S
N1228 C1231 1.350 . S
N1229 S1227 1.610 . S
N1229 C1230 1.351 . S
C1230 C1224 1.428 . S
C1230 N1229 1.351 . S
C1230 C1231 1.434 . S
C1231 C1222 1.429 . S
C1231 N1228 1.350 . S
C1231 C1230 1.434 . S
C1232 C1233 1.369 . S
C1232 C1234 1.419 . S
C1232 H1236 0.930 . S
C1233 C1232 1.369 . S
C1233 C1242 1.429 1_545 S
C1234 C1232 1.419 . S
C1234 C1235 1.363 1_655 S
C1234 H1237 0.929 1_655 S
C1235 C1234 1.363 1_455 S
C1235 C1241 1.397 1_445 S
H1236 C1232 0.930 . S
H1237 C1234 0.929 1_455 S
S1238 N1239 1.613 . S
S1238 N1240 1.610 . S
N1239 S1238 1.613 . S
N1239 C1242 1.350 . S
N1240 S1238 1.610 . S
N1240 C1241 1.376 . S
C1241 C1235 1.397 1_665 S
C1241 N1240 1.376 . S
C1241 C1242 1.443 . S
C1242 C1233 1.429 1_565 S
C1242 N1239 1.350 . S
C1242 C1241 1.443 . S
C1243 C1244 1.369 . S
C1243 C1245 1.419 . S
C1243 H1247 0.930 . S
C1244 C1243 1.369 . S
C1244 C1253 1.429 . S
C1245 C1243 1.419 . S
C1245 C1246 1.363 . S
C1245 H1248 0.929 . S
C1246 C1245 1.363 . S
C1246 C1252 1.428 . S
H1247 C1243 0.930 . S
H1248 C1245 0.929 . S
S1249 N1250 1.613 . S
S1249 N1251 1.610 . S
N1250 S1249 1.613 . S
N1250 C1253 1.350 . S
N1251 S1249 1.610 . S
N1251 C1252 1.351 . S
C1252 C1246 1.428 . S
C1252 N1251 1.351 . S
C1252 C1253 1.434 . S
C1253 C1244 1.429 . S
C1253 N1250 1.350 . S
C1253 C1252 1.434 . S
C1254 C1255 1.369 . S
C1254 C1256 1.419 . S
C1254 H1258 0.930 . S
C1255 C1254 1.369 . S
C1255 C1264 1.439 . S
C1256 C1254 1.419 . S
C1256 C1257 1.363 . S
C1256 H1259 0.929 . S
C1257 C1256 1.363 . S
C1257 C1263 1.428 1_545 S
H1258 C1254 0.930 . S
H1259 C1256 0.929 . S
S1260 N1261 1.613 . S
S1260 N1262 1.610 . S
N1261 S1260 1.613 . S
N1261 C1264 1.344 1_565 S
N1262 S1260 1.610 . S
N1262 C1263 1.351 . S
C1263 C1257 1.428 1_565 S
C1263 N1262 1.351 . S
C1263 C1264 1.430 1_565 S
C1264 C1255 1.439 . S
C1264 N1261 1.344 1_545 S
C1264 C1263 1.430 1_545 S
C1265 C1266 1.369 . S
C1265 C1267 1.419 . S
C1265 H1269 0.930 . S
C1266 C1265 1.369 . S
C1266 C1275 1.429 . S
C1267 C1265 1.419 . S
C1267 C1268 1.363 . S
C1267 H1270 0.929 . S
C1268 C1267 1.363 . S
C1268 C1274 1.428 . S
H1269 C1265 0.930 . S
H1270 C1267 0.929 . S
S1271 N1272 1.613 . S
S1271 N1273 1.610 . S
N1272 S1271 1.613 . S
N1272 C1275 1.350 . S
N1273 S1271 1.610 . S
N1273 C1274 1.351 . S
C1274 C1268 1.428 . S
C1274 N1273 1.351 . S
C1274 C1275 1.434 . S
C1275 C1266 1.429 . S
C1275 N1272 1.350 . S
C1275 C1274 1.434 . S
C1276 C1277 1.367 1_565 S
C1276 C1278 1.419 . S
C1276 H1280 0.930 . S
C1277 C1276 1.367 1_545 S
C1277 C1286 1.430 . S
C1278 C1276 1.419 . S
C1278 C1279 1.363 . S
C1278 H1281 0.929 . S
C1279 C1278 1.363 . S
C1279 C1285 1.428 1_565 S
H1280 C1276 0.930 . S
H1281 C1278 0.929 . S
S1282 N1283 1.613 . S
S1282 N1284 1.610 . S
N1283 S1282 1.613 . S
N1283 C1286 1.350 . S
N1284 S1282 1.610 . S
N1284 C1285 1.351 . S
C1285 C1279 1.428 1_545 S
C1285 N1284 1.351 . S
C1285 C1286 1.434 . S
C1286 C1277 1.430 . S
C1286 N1283 1.350 . S
C1286 C1285 1.434 . S
C1287 C1288 1.369 . S
C1287 C1289 1.419 . S
C1287 H1291 0.930 . S
C1288 C1287 1.369 . S
C1288 C1297 1.429 . S
C1289 C1287 1.419 . S
C1289 C1290 1.363 . S
C1289 H1292 0.929 . S
C1290 C1289 1.363 . S
C1290 C1296 1.428 . S
H1291 C1287 0.930 . S
H1292 C1289 0.929 . S
S1293 N1294 1.613 . S
S1293 N1295 1.610 . S
N1294 S1293 1.613 . S
N1294 C1297 1.350 . S
N1295 S1293 1.610 . S
N1295 C1296 1.351 . S
C1296 C1290 1.428 . S
C1296 N1295 1.351 . S
C1296 C1297 1.434 . S
C1297 C1288 1.429 . S
C1297 N1294 1.350 . S
C1297 C1296 1.434 . S
C1298 C1299 1.369 . S
C1298 C1300 1.419 . S
C1298 H1302 0.930 . S
C1299 C1298 1.369 . S
C1299 C1308 1.429 . S
C1300 C1298 1.419 . S
C1300 C1301 1.363 . S
C1300 H1303 0.929 . S
C1301 C1300 1.363 . S
C1301 C1307 1.428 . S
H1302 C1298 0.930 . S
H1303 C1300 0.929 . S
S1304 N1305 1.613 . S
S1304 N1306 1.610 1_565 S
N1305 S1304 1.613 . S
N1305 C1308 1.350 1_565 S
N1306 S1304 1.610 1_545 S
N1306 C1307 1.351 . S
C1307 C1301 1.428 . S
C1307 N1306 1.351 . S
C1307 C1308 1.434 . S
C1308 C1299 1.429 . S
C1308 N1305 1.350 1_545 S
C1308 C1307 1.434 . S
C1309 C1310 1.369 . S
C1309 C1311 1.419 . S
C1309 H1313 0.930 . S
C1310 C1309 1.369 . S
C1310 C1319 1.429 . S
C1311 C1309 1.419 . S
C1311 C1312 1.363 . S
C1311 H1314 0.929 . S
C1312 C1311 1.363 . S
C1312 C1318 1.428 . S
H1313 C1309 0.930 . S
H1314 C1311 0.929 . S
S1315 N1316 1.613 . S
S1315 N1317 1.610 . S
N1316 S1315 1.613 . S
N1316 C1319 1.350 . S
N1317 S1315 1.610 . S
N1317 C1318 1.351 . S
C1318 C1312 1.428 . S
C1318 N1317 1.351 . S
C1318 C1319 1.434 . S
C1319 C1310 1.429 . S
C1319 N1316 1.350 . S
C1319 C1318 1.434 . S
C1320 C1321 1.369 . S
C1320 C1322 1.419 . S
C1320 H1324 0.930 . S
C1321 C1320 1.369 . S
C1321 C1330 1.429 . S
C1322 C1320 1.419 . S
C1322 C1323 1.363 . S
C1322 H1325 0.929 . S
C1323 C1322 1.363 . S
C1323 C1329 1.428 1_565 S
H1324 C1320 0.930 . S
H1325 C1322 0.929 . S
S1326 N1327 1.613 . S
S1326 N1328 1.610 . S
N1327 S1326 1.613 . S
N1327 C1330 1.350 1_545 S
N1328 S1326 1.610 . S
N1328 C1329 1.351 . S
C1329 C1323 1.428 1_545 S
C1329 N1328 1.351 . S
C1329 C1330 1.434 1_545 S
C1330 C1321 1.429 . S
C1330 N1327 1.350 1_565 S
C1330 C1329 1.434 1_565 S
C1331 C1332 1.369 . S
C1331 C1333 1.419 . S
C1331 H1335 0.930 . S
C1332 C1331 1.369 . S
C1332 C1341 1.429 . S
C1333 C1331 1.419 . S
C1333 C1334 1.363 . S
C1333 H1336 0.929 . S
C1334 C1333 1.363 . S
C1334 C1340 1.428 . S
H1335 C1331 0.930 . S
H1336 C1333 0.929 . S
S1337 N1338 1.615 . S
S1337 N1339 1.610 1_556 S
N1338 S1337 1.615 . S
N1338 C1341 1.344 1_556 S
N1339 S1337 1.610 1_554 S
N1339 C1340 1.351 . S
C1340 C1334 1.428 . S
C1340 N1339 1.351 . S
C1340 C1341 1.434 . S
C1341 C1332 1.429 . S
C1341 N1338 1.344 1_554 S
C1341 C1340 1.434 . S
C1342 C1343 1.369 . S
C1342 C1344 1.419 . S
C1342 H1346 0.930 . S
C1343 C1342 1.369 . S
C1343 C1352 1.429 . S
C1344 C1342 1.419 . S
C1344 C1345 1.363 . S
C1344 H1347 0.929 . S
C1345 C1344 1.363 . S
C1345 C1351 1.428 . S
H1346 C1342 0.930 . S
H1347 C1344 0.929 . S
S1348 N1349 1.613 . S
S1348 N1350 1.610 . S
N1349 S1348 1.613 . S
N1349 C1352 1.350 . S
N1350 S1348 1.610 . S
N1350 C1351 1.351 . S
C1351 C1345 1.428 . S
C1351 N1350 1.351 . S
C1351 C1352 1.434 . S
C1352 C1343 1.429 . S
C1352 N1349 1.350 . S
C1352 C1351 1.434 . S
C1353 C1354 1.369 . S
C1353 C1355 1.419 . S
C1353 H1357 0.930 . S
C1354 C1353 1.369 . S
C1354 C1363 1.429 . S
C1355 C1353 1.419 . S
C1355 C1356 1.363 . S
C1355 H1358 0.929 . S
C1356 C1355 1.363 . S
C1356 C1362 1.428 . S
H1357 C1353 0.930 . S
H1358 C1355 0.929 . S
S1359 N1360 1.613 . S
S1359 N1361 1.610 . S
N1360 S1359 1.613 . S
N1360 C1363 1.350 . S
N1361 S1359 1.610 . S
N1361 C1362 1.351 . S
C1362 C1356 1.428 . S
C1362 N1361 1.351 . S
C1362 C1363 1.434 . S
C1363 C1354 1.429 . S
C1363 N1360 1.350 . S
C1363 C1362 1.434 . S
C1364 C1365 1.369 . S
C1364 C1366 1.419 . S
C1364 H1368 0.930 . S
C1365 C1364 1.369 . S
C1365 C1374 1.429 . S
C1366 C1364 1.419 . S
C1366 C1367 1.363 . S
C1366 H1369 0.929 . S
C1367 C1366 1.363 . S
C1367 C1373 1.428 . S
H1368 C1364 0.930 . S
H1369 C1366 0.929 . S
S1370 N1371 1.613 . S
S1370 N1372 1.610 . S
N1371 S1370 1.613 . S
N1371 C1374 1.350 . S
N1372 S1370 1.610 . S
N1372 C1373 1.351 . S
C1373 C1367 1.428 . S
C1373 N1372 1.351 . S
C1373 C1374 1.434 . S
C1374 C1365 1.429 . S
C1374 N1371 1.350 . S
C1374 C1373 1.434 . S
C1375 C1376 1.369 . S
C1375 C1377 1.419 . S
C1375 H1379 0.930 . S
C1376 C1375 1.369 . S
C1376 C1385 1.429 . S
C1377 C1375 1.419 . S
C1377 C1378 1.363 . S
C1377 H1380 0.929 . S
C1378 C1377 1.363 . S
C1378 C1384 1.428 . S
H1379 C1375 0.930 . S
H1380 C1377 0.929 . S
S1381 N1382 1.613 . S
S1381 N1383 1.610 . S
N1382 S1381 1.613 . S
N1382 C1385 1.350 . S
N1383 S1381 1.610 . S
N1383 C1384 1.351 . S
C1384 C1378 1.428 . S
C1384 N1383 1.351 . S
C1384 C1385 1.434 . S
C1385 C1376 1.429 . S
C1385 N1382 1.350 . S
C1385 C1384 1.434 . S
C1386 C1387 1.369 . S
C1386 C1388 1.419 . S
C1386 H1390 0.930 . S
C1387 C1386 1.369 . S
C1387 C1396 1.429 . S
C1388 C1386 1.419 . S
C1388 C1389 1.363 . S
C1388 H1391 0.929 . S
C1389 C1388 1.363 . S
C1389 C1395 1.428 . S
H1390 C1386 0.930 . S
H1391 C1388 0.929 . S
S1392 N1393 1.613 . S
S1392 N1394 1.610 . S
N1393 S1392 1.613 . S
N1393 C1396 1.350 . S
N1394 S1392 1.610 . S
N1394 C1395 1.351 . S
C1395 C1389 1.428 . S
C1395 N1394 1.351 . S
C1395 C1396 1.434 . S
C1396 C1387 1.429 . S
C1396 N1393 1.350 . S
C1396 C1395 1.434 . S
C1397 C1398 1.369 . S
C1397 C1399 1.419 . S
C1397 H1401 0.930 . S
C1398 C1397 1.369 . S
C1398 C1407 1.429 . S
C1399 C1397 1.419 . S
C1399 C1400 1.363 . S
C1399 H1402 0.929 . S
C1400 C1399 1.363 . S
C1400 C1406 1.428 . S
H1401 C1397 0.930 . S
H1402 C1399 0.929 . S
S1403 N1404 1.613 . S
S1403 N1405 1.610 . S
N1404 S1403 1.613 . S
N1404 C1407 1.350 . S
N1405 S1403 1.610 . S
N1405 C1406 1.351 . S
C1406 C1400 1.428 . S
C1406 N1405 1.351 . S
C1406 C1407 1.434 . S
C1407 C1398 1.429 . S
C1407 N1404 1.350 . S
C1407 C1406 1.434 . S
C1408 C1409 1.369 . S
C1408 C1410 1.419 . S
C1408 H1412 0.930 . S
C1409 C1408 1.369 . S
C1409 C1418 1.429 . S
C1410 C1408 1.419 . S
C1410 C1411 1.363 . S
C1410 H1413 0.929 . S
C1411 C1410 1.363 . S
C1411 C1417 1.428 . S
H1412 C1408 0.930 . S
H1413 C1410 0.929 . S
S1414 N1415 1.613 . S
S1414 N1416 1.610 . S
N1415 S1414 1.613 . S
N1415 C1418 1.350 . S
N1416 S1414 1.610 . S
N1416 C1417 1.351 . S
C1417 C1411 1.428 . S
C1417 N1416 1.351 . S
C1417 C1418 1.434 . S
C1418 C1409 1.429 . S
C1418 N1415 1.350 . S
C1418 C1417 1.434 . S
C1419 C1420 1.369 . S
C1419 C1421 1.419 . S
C1419 H1423 0.930 . S
C1420 C1419 1.369 . S
C1420 C1429 1.429 . S
C1421 C1419 1.419 . S
C1421 C1422 1.363 . S
C1421 H1424 0.929 . S
C1422 C1421 1.363 . S
C1422 C1428 1.428 . S
H1423 C1419 0.930 . S
H1424 C1421 0.929 . S
S1425 N1426 1.613 . S
S1425 N1427 1.610 . S
N1426 S1425 1.613 . S
N1426 C1429 1.350 . S
N1427 S1425 1.610 . S
N1427 C1428 1.351 . S
C1428 C1422 1.428 . S
C1428 N1427 1.351 . S
C1428 C1429 1.434 . S
C1429 C1420 1.429 . S
C1429 N1426 1.350 . S
C1429 C1428 1.434 . S
C1430 C1431 1.369 . S
C1430 C1432 1.419 . S
C1430 H1434 0.930 . S
C1431 C1430 1.369 . S
C1431 C1440 1.429 . S
C1432 C1430 1.419 . S
C1432 C1433 1.363 . S
C1432 H1435 0.929 . S
C1433 C1432 1.363 . S
C1433 C1439 1.428 . S
H1434 C1430 0.930 . S
H1435 C1432 0.929 . S
S1436 N1437 1.613 . S
S1436 N1438 1.610 . S
N1437 S1436 1.613 . S
N1437 C1440 1.350 . S
N1438 S1436 1.610 . S
N1438 C1439 1.351 . S
C1439 C1433 1.428 . S
C1439 N1438 1.351 . S
C1439 C1440 1.434 . S
C1440 C1431 1.429 . S
C1440 N1437 1.350 . S
C1440 C1439 1.434 . S
C1441 C1442 1.369 . S
C1441 C1443 1.419 . S
C1441 H1445 0.930 . S
C1442 C1441 1.369 . S
C1442 C1451 1.429 . S
C1443 C1441 1.419 . S
C1443 C1444 1.363 . S
C1443 H1446 0.929 . S
C1444 C1443 1.363 . S
C1444 C1450 1.428 . S
H1445 C1441 0.930 . S
H1446 C1443 0.929 . S
S1447 N1448 1.613 . S
S1447 N1449 1.610 . S
N1448 S1447 1.613 . S
N1448 C1451 1.350 . S
N1449 S1447 1.610 . S
N1449 C1450 1.351 . S
C1450 C1444 1.428 . S
C1450 N1449 1.351 . S
C1450 C1451 1.434 . S
C1451 C1442 1.429 . S
C1451 N1448 1.350 . S
C1451 C1450 1.434 . S
C1452 C1453 1.369 . S
C1452 C1454 1.419 . S
C1452 H1456 0.930 . S
C1453 C1452 1.369 . S
C1453 C1462 1.429 . S
C1454 C1452 1.419 . S
C1454 C1455 1.363 . S
C1454 H1457 0.929 . S
C1455 C1454 1.363 . S
C1455 C1461 1.428 1_556 S
H1456 C1452 0.930 . S
H1457 C1454 0.929 . S
S1458 N1459 1.613 1_554 S
S1458 N1460 1.610 . S
N1459 S1458 1.613 1_556 S
N1459 C1462 1.350 . S
N1460 S1458 1.610 . S
N1460 C1461 1.351 . S
C1461 C1455 1.428 1_554 S
C1461 N1460 1.351 . S
C1461 C1462 1.434 1_554 S
C1462 C1453 1.429 . S
C1462 N1459 1.350 . S
C1462 C1461 1.434 1_556 S
C1463 C1464 1.369 . S
C1463 C1465 1.419 1_455 S
C1463 H1467 0.930 . S
C1464 C1463 1.369 . S
C1464 C1473 1.429 1_455 S
C1465 C1463 1.419 1_655 S
C1465 C1466 1.363 . S
C1465 H1468 0.929 . S
C1466 C1465 1.363 . S
C1466 C1472 1.428 . S
H1467 C1463 0.930 . S
H1468 C1465 0.929 . S
S1469 N1470 1.613 . S
S1469 N1471 1.610 . S
N1470 S1469 1.613 . S
N1470 C1473 1.350 . S
N1471 S1469 1.610 . S
N1471 C1472 1.351 . S
C1472 C1466 1.428 . S
C1472 N1471 1.351 . S
C1472 C1473 1.434 . S
C1473 C1464 1.429 1_655 S
C1473 N1470 1.350 . S
C1473 C1472 1.434 . S
C1474 C1475 1.369 . S
C1474 C1476 1.419 . S
C1474 H1478 0.930 . S
C1475 C1474 1.369 . S
C1475 C1484 1.429 . S
C1476 C1474 1.419 . S
C1476 C1477 1.363 . S
C1476 H1479 0.929 . S
C1477 C1476 1.363 . S
C1477 C1483 1.428 . S
H1478 C1474 0.930 . S
H1479 C1476 0.929 . S
S1480 N1481 1.613 . S
S1480 N1482 1.610 . S
N1481 S1480 1.613 . S
N1481 C1484 1.350 . S
N1482 S1480 1.610 . S
N1482 C1483 1.351 . S
C1483 C1477 1.428 . S
C1483 N1482 1.351 . S
C1483 C1484 1.434 . S
C1484 C1475 1.429 . S
C1484 N1481 1.350 . S
C1484 C1483 1.434 . S
C1485 C1486 1.369 . S
C1485 C1487 1.419 . S
C1485 H1489 0.930 . S
C1486 C1485 1.369 . S
C1486 C1495 1.429 . S
C1487 C1485 1.419 . S
C1487 C1488 1.363 . S
C1487 H1490 0.929 . S
C1488 C1487 1.363 . S
C1488 C1494 1.428 . S
H1489 C1485 0.930 . S
H1490 C1487 0.929 . S
S1491 N1492 1.613 . S
S1491 N1493 1.610 . S
N1492 S1491 1.613 . S
N1492 C1495 1.350 . S
N1493 S1491 1.610 . S
N1493 C1494 1.351 . S
C1494 C1488 1.428 . S
C1494 N1493 1.351 . S
C1494 C1495 1.434 . S
C1495 C1486 1.429 . S
C1495 N1492 1.350 . S
C1495 C1494 1.434 . S
C1496 C1497 1.369 . S
C1496 C1498 1.419 . S
C1496 H1500 0.930 . S
C1497 C1496 1.369 . S
C1497 C1506 1.429 . S
C1498 C1496 1.419 . S
C1498 C1499 1.363 . S
C1498 H1501 0.929 . S
C1499 C1498 1.363 . S
C1499 C1505 1.428 . S
H1500 C1496 0.930 . S
H1501 C1498 0.929 . S
S1502 N1503 1.613 . S
S1502 N1504 1.610 . S
N1503 S1502 1.613 . S
N1503 C1506 1.350 . S
N1504 S1502 1.610 . S
N1504 C1505 1.351 . S
C1505 C1499 1.428 . S
C1505 N1504 1.351 . S
C1505 C1506 1.434 . S
C1506 C1497 1.429 . S
C1506 N1503 1.350 . S
C1506 C1505 1.434 . S
C1507 C1508 1.369 . S
C1507 C1509 1.419 . S
C1507 H1511 0.930 . S
C1508 C1507 1.369 . S
C1508 C1517 1.429 . S
C1509 C1507 1.419 . S
C1509 C1510 1.363 . S
C1509 H1512 0.929 . S
C1510 C1509 1.363 . S
C1510 C1516 1.428 . S
H1511 C1507 0.930 . S
H1512 C1509 0.929 . S
S1513 N1514 1.613 . S
S1513 N1515 1.610 . S
N1514 S1513 1.613 . S
N1514 C1517 1.350 . S
N1515 S1513 1.610 . S
N1515 C1516 1.351 . S
C1516 C1510 1.428 . S
C1516 N1515 1.351 . S
C1516 C1517 1.434 . S
C1517 C1508 1.429 . S
C1517 N1514 1.350 . S
C1517 C1516 1.434 . S
C1518 C1519 1.369 . S
C1518 C1520 1.419 . S
C1518 H1522 0.930 . S
C1519 C1518 1.369 . S
C1519 C1528 1.429 . S
C1520 C1518 1.419 . S
C1520 C1521 1.344 1_655 S
C1520 H1523 0.929 . S
C1521 C1520 1.344 1_455 S
C1521 C1527 1.433 . S
H1522 C1518 0.930 . S
H1523 C1520 0.929 . S
S1524 N1525 1.595 1_455 S
S1524 N1526 1.610 . S
N1525 S1524 1.595 1_655 S
N1525 C1528 1.357 . S
N1526 S1524 1.610 . S
N1526 C1527 1.351 . S
C1527 C1521 1.433 . S
C1527 N1526 1.351 . S
C1527 C1528 1.434 1_455 S
C1528 C1519 1.429 . S
C1528 N1525 1.357 . S
C1528 C1527 1.434 1_655 S
C1529 C1530 1.369 . S
C1529 C1531 1.419 . S
C1529 H1533 0.930 . S
C1530 C1529 1.369 . S
C1530 C1539 1.429 . S
C1531 C1529 1.419 . S
C1531 C1532 1.363 . S
C1531 H1534 0.929 . S
C1532 C1531 1.363 . S
C1532 C1538 1.428 . S
H1533 C1529 0.930 . S
H1534 C1531 0.929 . S
S1535 N1536 1.613 . S
S1535 N1537 1.610 . S
N1536 S1535 1.613 . S
N1536 C1539 1.350 . S
N1537 S1535 1.610 . S
N1537 C1538 1.351 . S
C1538 C1532 1.428 . S
C1538 N1537 1.351 . S
C1538 C1539 1.434 . S
C1539 C1530 1.429 . S
C1539 N1536 1.350 . S
C1539 C1538 1.434 . S
C1540 C1541 1.369 . S
C1540 C1542 1.419 . S
C1540 H1544 0.930 . S
C1541 C1540 1.369 . S
C1541 C1550 1.429 . S
C1542 C1540 1.419 . S
C1542 C1543 1.363 . S
C1542 H1545 0.929 . S
C1543 C1542 1.363 . S
C1543 C1549 1.428 . S
H1544 C1540 0.930 . S
H1545 C1542 0.929 . S
S1546 N1547 1.613 . S
S1546 N1548 1.610 . S
N1547 S1546 1.613 . S
N1547 C1550 1.350 . S
N1548 S1546 1.610 . S
N1548 C1549 1.351 . S
C1549 C1543 1.428 . S
C1549 N1548 1.351 . S
C1549 C1550 1.434 . S
C1550 C1541 1.429 . S
C1550 N1547 1.350 . S
C1550 C1549 1.434 . S
C1551 C1552 1.369 . S
C1551 C1553 1.419 . S
C1551 H1555 0.930 . S
C1552 C1551 1.369 . S
C1552 C1561 1.429 . S
C1553 C1551 1.419 . S
C1553 C1554 1.363 . S
C1553 H1556 0.929 . S
C1554 C1553 1.363 . S
C1554 C1560 1.428 . S
H1555 C1551 0.930 . S
H1556 C1553 0.929 . S
S1557 N1558 1.613 . S
S1557 N1559 1.610 . S
N1558 S1557 1.613 . S
N1558 C1561 1.350 . S
N1559 S1557 1.610 . S
N1559 C1560 1.351 . S
C1560 C1554 1.428 . S
C1560 N1559 1.351 . S
C1560 C1561 1.434 . S
C1561 C1552 1.429 . S
C1561 N1558 1.350 . S
C1561 C1560 1.434 . S
C1562 C1563 1.369 . S
C1562 C1564 1.419 . S
C1562 H1566 0.930 . S
C1563 C1562 1.369 . S
C1563 C1572 1.429 . S
C1564 C1562 1.419 . S
C1564 C1565 1.363 . S
C1564 H1567 0.929 1_655 S
C1565 C1564 1.363 . S
C1565 C1571 1.428 . S
H1566 C1562 0.930 . S
H1567 C1564 0.929 1_455 S
S1568 N1569 1.613 . S
S1568 N1570 1.610 . S
N1569 S1568 1.613 . S
N1569 C1572 1.350 . S
N1570 S1568 1.610 . S
N1570 C1571 1.351 . S
C1571 C1565 1.428 . S
C1571 N1570 1.351 . S
C1571 C1572 1.434 . S
C1572 C1563 1.429 . S
C1572 N1569 1.350 . S
C1572 C1571 1.434 . S
C1573 C1574 1.369 . S
C1573 C1575 1.419 . S
C1573 H1577 0.930 . S
C1574 C1573 1.369 . S
C1574 C1583 1.429 . S
C1575 C1573 1.419 . S
C1575 C1576 1.363 . S
C1575 H1578 0.929 . S
C1576 C1575 1.363 . S
C1576 C1582 1.428 . S
H1577 C1573 0.930 . S
H1578 C1575 0.929 . S
S1579 N1580 1.613 . S
S1579 N1581 1.610 . S
N1580 S1579 1.613 . S
N1580 C1583 1.350 . S
N1581 S1579 1.610 . S
N1581 C1582 1.351 . S
C1582 C1576 1.428 . S
C1582 N1581 1.351 . S
C1582 C1583 1.434 . S
C1583 C1574 1.429 . S
C1583 N1580 1.350 . S
C1583 C1582 1.434 . S
C1584 C1585 1.369 . S
C1584 C1586 1.419 . S
C1584 H1588 0.930 . S
C1585 C1584 1.369 . S
C1585 C1594 1.429 . S
C1586 C1584 1.419 . S
C1586 C1587 1.363 . S
C1586 H1589 0.929 . S
C1587 C1586 1.363 . S
C1587 C1593 1.428 . S
H1588 C1584 0.930 . S
H1589 C1586 0.929 . S
S1590 N1591 1.613 . S
S1590 N1592 1.610 . S
N1591 S1590 1.613 . S
N1591 C1594 1.350 . S
N1592 S1590 1.610 . S
N1592 C1593 1.351 . S
C1593 C1587 1.428 . S
C1593 N1592 1.351 . S
C1593 C1594 1.434 . S
C1594 C1585 1.429 . S
C1594 N1591 1.350 . S
C1594 C1593 1.434 . S
C1595 C1596 1.369 . S
C1595 C1597 1.419 . S
C1595 H1599 0.930 . S
C1596 C1595 1.369 . S
C1596 C1605 1.429 . S
C1597 C1595 1.419 . S
C1597 C1598 1.363 . S
C1597 H1600 0.929 1_565 S
C1598 C1597 1.363 . S
C1598 C1604 1.428 . S
H1599 C1595 0.930 . S
H1600 C1597 0.929 1_545 S
S1601 N1602 1.613 . S
S1601 N1603 1.610 . S
N1602 S1601 1.613 . S
N1602 C1605 1.350 . S
N1603 S1601 1.610 . S
N1603 C1604 1.351 . S
C1604 C1598 1.428 . S
C1604 N1603 1.351 . S
C1604 C1605 1.434 . S
C1605 C1596 1.429 . S
C1605 N1602 1.350 . S
C1605 C1604 1.434 . S
C1606 C1607 1.369 . S
C1606 C1608 1.419 . S
C1606 H1610 0.930 . S
C1607 C1606 1.369 . S
C1607 C1616 1.429 . S
C1608 C1606 1.419 . S
C1608 C1609 1.363 . S
C1608 H1611 0.929 . S
C1609 C1608 1.363 . S
C1609 C1615 1.428 . S
H1610 C1606 0.930 . S
H1611 C1608 0.929 . S
S1612 N1613 1.613 . S
S1612 N1614 1.610 . S
N1613 S1612 1.613 . S
N1613 C1616 1.350 . S
N1614 S1612 1.610 . S
N1614 C1615 1.351 . S
C1615 C1609 1.428 . S
C1615 N1614 1.351 . S
C1615 C1616 1.434 . S
C1616 C1607 1.429 . S
C1616 N1613 1.350 . S
C1616 C1615 1.434 . S
C1617 C1618 1.369 . S
C1617 C1619 1.419 . S
C1617 H1621 0.930 . S
C1618 C1617 1.369 . S
C1618 C1627 1.429 . S
C1619 C1617 1.419 . S
C1619 C1620 1.363 . S
C1619 H1622 0.929 . S
C1620 C1619 1.363 . S
C1620 C1626 1.428 . S
H1621 C1617 0.930 . S
H1622 C1619 0.929 . S
S1623 N1624 1.613 . S
S1623 N1625 1.610 . S
N1624 S1623 1.613 . S
N1624 C1627 1.350 1_556 S
N1625 S1623 1.610 . S
N1625 C1626 1.351 1_556 S
C1626 C1620 1.428 . S
C1626 N1625 1.351 1_554 S
C1626 C1627 1.434 . S
C1627 C1618 1.429 . S
C1627 N1624 1.350 1_554 S
C1627 C1626 1.434 . S
C1628 C1629 1.369 . S
C1628 C1630 1.419 . S
C1628 H1632 0.930 . S
C1629 C1628 1.369 . S
C1629 C1638 1.429 . S
C1630 C1628 1.419 . S
C1630 C1631 1.363 . S
C1630 H1633 0.929 . S
C1631 C1630 1.363 . S
C1631 C1637 1.428 . S
H1632 C1628 0.930 . S
H1633 C1630 0.929 . S
S1634 N1635 1.613 . S
S1634 N1636 1.610 . S
N1635 S1634 1.613 . S
N1635 C1638 1.350 . S
N1636 S1634 1.610 . S
N1636 C1637 1.351 . S
C1637 C1631 1.428 . S
C1637 N1636 1.351 . S
C1637 C1638 1.434 . S
C1638 C1629 1.429 . S
C1638 N1635 1.350 . S
C1638 C1637 1.434 . S
C1639 C1640 1.369 . S
C1639 C1641 1.419 . S
C1639 H1643 0.930 . S
C1640 C1639 1.369 . S
C1640 C1649 1.429 . S
C1641 C1639 1.419 . S
C1641 C1642 1.363 . S
C1641 H1644 0.929 . S
C1642 C1641 1.363 . S
C1642 C1648 1.428 . S
H1643 C1639 0.930 . S
H1644 C1641 0.929 . S
S1645 N1646 1.613 1_556 S
S1645 N1647 1.610 . S
N1646 S1645 1.613 1_554 S
N1646 C1649 1.350 . S
N1647 S1645 1.610 . S
N1647 C1648 1.351 1_556 S
C1648 C1642 1.428 . S
C1648 N1647 1.351 1_554 S
C1648 C1649 1.434 . S
C1649 C1640 1.429 . S
C1649 N1646 1.350 . S
C1649 C1648 1.434 . S
C1650 C1651 1.369 . S
C1650 C1652 1.419 . S
C1650 H1654 0.930 . S
C1651 C1650 1.369 . S
C1651 C1660 1.429 . S
C1652 C1650 1.419 . S
C1652 C1653 1.363 . S
C1652 H1655 0.929 . S
C1653 C1652 1.363 . S
C1653 C1659 1.428 . S
H1654 C1650 0.930 . S
H1655 C1652 0.929 . S
S1656 N1657 1.613 . S
S1656 N1658 1.610 . S
N1657 S1656 1.613 . S
N1657 C1660 1.350 . S
N1658 S1656 1.610 . S
N1658 C1659 1.351 . S
C1659 C1653 1.428 . S
C1659 N1658 1.351 . S
C1659 C1660 1.434 . S
C1660 C1651 1.429 . S
C1660 N1657 1.350 . S
C1660 C1659 1.434 . S
C1661 C1662 1.369 . S
C1661 C1663 1.419 . S
C1661 H1665 0.930 . S
C1662 C1661 1.369 . S
C1662 C1671 1.429 . S
C1663 C1661 1.419 . S
C1663 C1664 1.363 . S
C1663 H1666 0.929 . S
C1664 C1663 1.363 . S
C1664 C1670 1.428 . S
H1665 C1661 0.930 . S
H1666 C1663 0.929 . S
S1667 N1668 1.613 . S
S1667 N1669 1.610 . S
N1668 S1667 1.613 . S
N1668 C1671 1.350 . S
N1669 S1667 1.610 . S
N1669 C1670 1.351 . S
C1670 C1664 1.428 . S
C1670 N1669 1.351 . S
C1670 C1671 1.434 . S
C1671 C1662 1.429 . S
C1671 N1668 1.350 . S
C1671 C1670 1.434 . S
C1672 C1673 1.369 . S
C1672 C1674 1.419 . S
C1672 H1676 0.930 . S
C1673 C1672 1.369 . S
C1673 C1682 1.429 . S
C1674 C1672 1.419 . S
C1674 C1675 1.363 . S
C1674 H1677 0.929 . S
C1675 C1674 1.363 . S
C1675 C1681 1.428 . S
H1676 C1672 0.930 . S
H1677 C1674 0.929 . S
S1678 N1679 1.613 . S
S1678 N1680 1.610 . S
N1679 S1678 1.613 . S
N1679 C1682 1.350 . S
N1680 S1678 1.610 . S
N1680 C1681 1.351 . S
C1681 C1675 1.428 . S
C1681 N1680 1.351 . S
C1681 C1682 1.434 . S
C1682 C1673 1.429 . S
C1682 N1679 1.350 . S
C1682 C1681 1.434 . S
C1683 C1684 1.369 . S
C1683 C1685 1.419 . S
C1683 H1687 0.930 . S
C1684 C1683 1.369 . S
C1684 C1693 1.429 . S
C1685 C1683 1.419 . S
C1685 C1686 1.363 . S
C1685 H1688 0.929 . S
C1686 C1685 1.363 . S
C1686 C1692 1.428 . S
H1687 C1683 0.930 . S
H1688 C1685 0.929 . S
S1689 N1690 1.613 . S
S1689 N1691 1.610 . S
N1690 S1689 1.613 . S
N1690 C1693 1.350 . S
N1691 S1689 1.610 . S
N1691 C1692 1.351 . S
C1692 C1686 1.428 . S
C1692 N1691 1.351 . S
C1692 C1693 1.434 . S
C1693 C1684 1.429 . S
C1693 N1690 1.350 . S
C1693 C1692 1.434 . S
C1694 C1695 1.369 . S
C1694 C1696 1.419 . S
C1694 H1698 0.930 . S
C1695 C1694 1.369 . S
C1695 C1704 1.429 1_455 S
C1696 C1694 1.419 . S
C1696 C1697 1.363 1_455 S
C1696 H1699 0.929 . S
C1697 C1696 1.363 1_655 S
C1697 C1703 1.428 . S
H1698 C1694 0.930 . S
H1699 C1696 0.929 . S
S1700 N1701 1.613 . S
S1700 N1702 1.610 . S
N1701 S1700 1.613 . S
N1701 C1704 1.350 . S
N1702 S1700 1.610 . S
N1702 C1703 1.351 . S
C1703 C1697 1.428 . S
C1703 N1702 1.351 . S
C1703 C1704 1.434 . S
C1704 C1695 1.429 1_655 S
C1704 N1701 1.350 . S
C1704 C1703 1.434 . S
C1705 C1706 1.369 . S
C1705 C1707 1.419 . S
C1705 H1709 0.930 . S
C1706 C1705 1.369 . S
C1706 C1715 1.429 . S
C1707 C1705 1.419 . S
C1707 C1708 1.363 . S
C1707 H1710 0.929 . S
C1708 C1707 1.363 . S
C1708 C1714 1.428 . S
H1709 C1705 0.930 . S
H1710 C1707 0.929 . S
S1711 N1712 1.613 . S
S1711 N1713 1.610 . S
N1712 S1711 1.613 . S
N1712 C1715 1.350 . S
N1713 S1711 1.610 . S
N1713 C1714 1.351 . S
C1714 C1708 1.428 . S
C1714 N1713 1.351 . S
C1714 C1715 1.434 . S
C1715 C1706 1.429 . S
C1715 N1712 1.350 . S
C1715 C1714 1.434 . S
C1716 C1717 1.369 . S
C1716 C1718 1.419 . S
C1716 H1720 0.930 . S
C1717 C1716 1.369 . S
C1717 C1726 1.429 . S
C1718 C1716 1.419 . S
C1718 C1719 1.363 . S
C1718 H1721 0.929 . S
C1719 C1718 1.363 . S
C1719 C1725 1.428 . S
H1720 C1716 0.930 . S
H1721 C1718 0.929 . S
S1722 N1723 1.613 . S
S1722 N1724 1.610 . S
N1723 S1722 1.613 . S
N1723 C1726 1.350 . S
N1724 S1722 1.610 . S
N1724 C1725 1.351 . S
C1725 C1719 1.428 . S
C1725 N1724 1.351 . S
C1725 C1726 1.434 . S
C1726 C1717 1.429 . S
C1726 N1723 1.350 . S
C1726 C1725 1.434 . S
C1727 C1728 1.369 . S
C1727 C1729 1.419 . S
C1727 H1731 0.930 . S
C1728 C1727 1.369 . S
C1728 C1737 1.429 . S
C1729 C1727 1.419 . S
C1729 C1730 1.363 . S
C1729 H1732 0.929 . S
C1730 C1729 1.363 . S
C1730 C1736 1.428 . S
H1731 C1727 0.930 . S
H1732 C1729 0.929 . S
S1733 N1734 1.613 . S
S1733 N1735 1.610 . S
N1734 S1733 1.613 . S
N1734 C1737 1.350 . S
N1735 S1733 1.610 . S
N1735 C1736 1.351 . S
C1736 C1730 1.428 . S
C1736 N1735 1.351 . S
C1736 C1737 1.434 . S
C1737 C1728 1.429 . S
C1737 N1734 1.350 . S
C1737 C1736 1.434 . S
C1738 C1739 1.369 . S
C1738 C1740 1.419 . S
C1738 H1742 0.930 . S
C1739 C1738 1.369 . S
C1739 C1748 1.429 . S
C1740 C1738 1.419 . S
C1740 C1741 1.363 . S
C1740 H1743 0.929 . S
C1741 C1740 1.363 . S
C1741 C1747 1.428 . S
H1742 C1738 0.930 . S
H1743 C1740 0.929 . S
S1744 N1745 1.613 . S
S1744 N1746 1.610 . S
N1745 S1744 1.613 . S
N1745 C1748 1.350 1_655 S
N1746 S1744 1.610 . S
N1746 C1747 1.351 1_655 S
C1747 C1741 1.428 . S
C1747 N1746 1.351 1_455 S
C1747 C1748 1.434 . S
C1748 C1739 1.429 . S
C1748 N1745 1.350 1_455 S
C1748 C1747 1.434 . S
C1749 C1750 1.369 . S
C1749 C1751 1.419 . S
C1749 H1753 0.930 . S
C1750 C1749 1.369 . S
C1750 C1759 1.429 . S
C1751 C1749 1.419 . S
C1751 C1752 1.363 . S
C1751 H1754 0.929 . S
C1752 C1751 1.363 . S
C1752 C1758 1.428 . S
H1753 C1749 0.930 . S
H1754 C1751 0.929 . S
S1755 N1756 1.613 . S
S1755 N1757 1.610 . S
N1756 S1755 1.613 . S
N1756 C1759 1.350 . S
N1757 S1755 1.610 . S
N1757 C1758 1.351 . S
C1758 C1752 1.428 . S
C1758 N1757 1.351 . S
C1758 C1759 1.434 . S
C1759 C1750 1.429 . S
C1759 N1756 1.350 . S
C1759 C1758 1.434 . S
C1760 C1761 1.369 . S
C1760 C1762 1.419 . S
C1760 H1764 0.930 . S
C1761 C1760 1.369 . S
C1761 C1770 1.429 . S
C1762 C1760 1.419 . S
C1762 C1763 1.363 . S
C1762 H1765 0.929 . S
C1763 C1762 1.363 . S
C1763 C1769 1.428 . S
H1764 C1760 0.930 . S
H1765 C1762 0.929 . S
S1766 N1767 1.613 . S
S1766 N1768 1.610 . S
N1767 S1766 1.613 . S
N1767 C1770 1.350 . S
N1768 S1766 1.610 . S
N1768 C1769 1.351 . S
C1769 C1763 1.428 . S
C1769 N1768 1.351 . S
C1769 C1770 1.434 . S
C1770 C1761 1.429 . S
C1770 N1767 1.350 . S
C1770 C1769 1.434 . S
C1771 C1772 1.369 . S
C1771 C1773 1.419 . S
C1771 H1775 0.930 . S
C1772 C1771 1.369 . S
C1772 C1781 1.429 . S
C1773 C1771 1.419 . S
C1773 C1774 1.363 . S
C1773 H1776 0.929 . S
C1774 C1773 1.363 . S
C1774 C1780 1.428 . S
H1775 C1771 0.930 . S
H1776 C1773 0.929 . S
S1777 N1778 1.613 . S
S1777 N1779 1.610 . S
N1778 S1777 1.613 . S
N1778 C1781 1.350 . S
N1779 S1777 1.610 . S
N1779 C1780 1.351 . S
C1780 C1774 1.428 . S
C1780 N1779 1.351 . S
C1780 C1781 1.434 . S
C1781 C1772 1.429 . S
C1781 N1778 1.350 . S
C1781 C1780 1.434 . S
C1782 C1783 1.369 . S
C1782 C1784 1.419 . S
C1782 H1786 0.930 . S
C1783 C1782 1.369 . S
C1783 C1792 1.429 . S
C1784 C1782 1.419 . S
C1784 C1785 1.363 . S
C1784 H1787 0.929 . S
C1785 C1784 1.363 . S
C1785 C1791 1.428 . S
H1786 C1782 0.930 . S
H1787 C1784 0.929 . S
S1788 N1789 1.613 . S
S1788 N1790 1.610 . S
N1789 S1788 1.613 . S
N1789 C1792 1.350 . S
N1790 S1788 1.610 . S
N1790 C1791 1.351 . S
C1791 C1785 1.428 . S
C1791 N1790 1.351 . S
C1791 C1792 1.434 . S
C1792 C1783 1.429 . S
C1792 N1789 1.350 . S
C1792 C1791 1.434 . S
C1793 C1794 1.369 . S
C1793 C1795 1.419 . S
C1793 H1797 0.930 . S
C1794 C1793 1.369 . S
C1794 C1803 1.429 . S
C1795 C1793 1.419 . S
C1795 C1796 1.363 . S
C1795 H1798 0.929 . S
C1796 C1795 1.363 . S
C1796 C1802 1.428 . S
H1797 C1793 0.930 . S
H1798 C1795 0.929 . S
S1799 N1800 1.613 . S
S1799 N1801 1.610 . S
N1800 S1799 1.613 . S
N1800 C1803 1.350 . S
N1801 S1799 1.610 . S
N1801 C1802 1.351 . S
C1802 C1796 1.428 . S
C1802 N1801 1.351 . S
C1802 C1803 1.434 . S
C1803 C1794 1.429 . S
C1803 N1800 1.350 . S
C1803 C1802 1.434 . S
C1804 C1805 1.369 . S
C1804 C1806 1.419 . S
C1804 H1808 0.930 . S
C1805 C1804 1.369 . S
C1805 C1814 1.429 . S
C1806 C1804 1.419 . S
C1806 C1807 1.363 . S
C1806 H1809 0.929 . S
C1807 C1806 1.363 . S
C1807 C1813 1.428 . S
H1808 C1804 0.930 . S
H1809 C1806 0.929 . S
S1810 N1811 1.613 . S
S1810 N1812 1.610 . S
N1811 S1810 1.613 . S
N1811 C1814 1.350 . S
N1812 S1810 1.610 . S
N1812 C1813 1.351 . S
C1813 C1807 1.428 . S
C1813 N1812 1.351 . S
C1813 C1814 1.434 . S
C1814 C1805 1.429 . S
C1814 N1811 1.350 . S
C1814 C1813 1.434 . S
C1815 C1816 1.369 . S
C1815 C1817 1.419 . S
C1815 H1819 0.930 . S
C1816 C1815 1.369 . S
C1816 C1825 1.429 . S
C1817 C1815 1.419 . S
C1817 C1818 1.363 . S
C1817 H1820 0.929 . S
C1818 C1817 1.363 . S
C1818 C1824 1.428 . S
H1819 C1815 0.930 . S
H1820 C1817 0.929 . S
S1821 N1822 1.613 . S
S1821 N1823 1.610 . S
N1822 S1821 1.613 . S
N1822 C1825 1.350 . S
N1823 S1821 1.610 . S
N1823 C1824 1.351 . S
C1824 C1818 1.428 . S
C1824 N1823 1.351 . S
C1824 C1825 1.434 . S
C1825 C1816 1.429 . S
C1825 N1822 1.350 . S
C1825 C1824 1.434 . S
C1826 C1827 1.369 . S
C1826 C1828 1.419 . S
C1826 H1830 0.930 . S
C1827 C1826 1.369 . S
C1827 C1836 1.429 . S
C1828 C1826 1.419 . S
C1828 C1829 1.363 . S
C1828 H1831 0.929 . S
C1829 C1828 1.363 . S
C1829 C1835 1.428 . S
H1830 C1826 0.930 . S
H1831 C1828 0.929 . S
S1832 N1833 1.613 . S
S1832 N1834 1.610 . S
N1833 S1832 1.613 . S
N1833 C1836 1.350 . S
N1834 S1832 1.610 . S
N1834 C1835 1.351 . S
C1835 C1829 1.428 . S
C1835 N1834 1.351 . S
C1835 C1836 1.434 . S
C1836 C1827 1.429 . S
C1836 N1833 1.350 . S
C1836 C1835 1.434 . S
C1837 C1838 1.369 . S
C1837 C1839 1.419 . S
C1837 H1841 0.930 . S
C1838 C1837 1.369 . S
C1838 C1847 1.429 . S
C1839 C1837 1.419 . S
C1839 C1840 1.363 . S
C1839 H1842 0.929 . S
C1840 C1839 1.363 . S
C1840 C1846 1.428 . S
H1841 C1837 0.930 . S
H1842 C1839 0.929 . S
S1843 N1844 1.613 . S
S1843 N1845 1.610 . S
N1844 S1843 1.613 . S
N1844 C1847 1.350 . S
N1845 S1843 1.610 . S
N1845 C1846 1.351 . S
C1846 C1840 1.428 . S
C1846 N1845 1.351 . S
C1846 C1847 1.434 . S
C1847 C1838 1.429 . S
C1847 N1844 1.350 . S
C1847 C1846 1.434 . S
C1848 C1849 1.369 . S
C1848 C1850 1.419 . S
C1848 H1852 0.930 . S
C1849 C1848 1.369 . S
C1849 C1858 1.429 . S
C1850 C1848 1.419 . S
C1850 C1851 1.363 . S
C1850 H1853 0.929 . S
C1851 C1850 1.363 . S
C1851 C1857 1.428 . S
H1852 C1848 0.930 . S
H1853 C1850 0.929 . S
S1854 N1855 1.613 . S
S1854 N1856 1.610 . S
N1855 S1854 1.613 . S
N1855 C1858 1.350 . S
N1856 S1854 1.610 . S
N1856 C1857 1.351 . S
C1857 C1851 1.428 . S
C1857 N1856 1.351 . S
C1857 C1858 1.434 . S
C1858 C1849 1.429 . S
C1858 N1855 1.350 . S
C1858 C1857 1.434 . S
C1859 C1860 1.369 . S
C1859 C1861 1.419 . S
C1859 H1863 0.930 . S
C1860 C1859 1.369 . S
C1860 C1869 1.429 . S
C1861 C1859 1.419 . S
C1861 C1862 1.363 . S
C1861 H1864 0.929 . S
C1862 C1861 1.363 . S
C1862 C1868 1.428 . S
H1863 C1859 0.930 . S
H1864 C1861 0.929 . S
S1865 N1866 1.613 . S
S1865 N1867 1.610 . S
N1866 S1865 1.613 . S
N1866 C1869 1.350 . S
N1867 S1865 1.610 . S
N1867 C1868 1.351 . S
C1868 C1862 1.428 . S
C1868 N1867 1.351 . S
C1868 C1869 1.434 . S
C1869 C1860 1.429 . S
C1869 N1866 1.350 . S
C1869 C1868 1.434 . S
C1870 C1871 1.369 . S
C1870 C1872 1.419 . S
C1870 H1874 0.930 . S
C1871 C1870 1.369 . S
C1871 C1880 1.429 . S
C1872 C1870 1.419 . S
C1872 C1873 1.363 . S
C1872 H1875 0.929 . S
C1873 C1872 1.363 . S
C1873 C1879 1.428 . S
H1874 C1870 0.930 . S
H1875 C1872 0.929 . S
S1876 N1877 1.613 . S
S1876 N1878 1.610 . S
N1877 S1876 1.613 . S
N1877 C1880 1.350 . S
N1878 S1876 1.610 . S
N1878 C1879 1.351 . S
C1879 C1873 1.428 . S
C1879 N1878 1.351 . S
C1879 C1880 1.434 . S
C1880 C1871 1.429 . S
C1880 N1877 1.350 . S
C1880 C1879 1.434 . S
C1881 C1882 1.369 . S
C1881 C1883 1.419 . S
C1881 H1885 0.930 . S
C1882 C1881 1.369 . S
C1882 C1891 1.429 . S
C1883 C1881 1.419 . S
C1883 C1884 1.363 . S
C1883 H1886 0.929 1_554 S
C1884 C1883 1.363 . S
C1884 C1890 1.428 1_565 S
H1885 C1881 0.930 . S
H1886 C1883 0.929 1_556 S
S1887 N1888 1.613 . S
S1887 N1889 1.610 . S
N1888 S1887 1.613 . S
N1888 C1891 1.350 1_545 S
N1889 S1887 1.610 . S
N1889 C1890 1.351 . S
C1890 C1884 1.428 1_545 S
C1890 N1889 1.351 . S
C1890 C1891 1.434 1_545 S
C1891 C1882 1.429 . S
C1891 N1888 1.350 1_565 S
C1891 C1890 1.434 1_565 S
C1892 C1893 1.369 . S
C1892 C1894 1.419 . S
C1892 H1896 0.930 . S
C1893 C1892 1.369 . S
C1893 C1902 1.429 . S
C1894 C1892 1.419 . S
C1894 C1895 1.363 . S
C1894 H1897 0.929 . S
C1895 C1894 1.363 . S
C1895 C1901 1.428 . S
H1896 C1892 0.930 . S
H1897 C1894 0.929 . S
S1898 N1899 1.613 . S
S1898 N1900 1.610 . S
N1899 S1898 1.613 . S
N1899 C1902 1.350 . S
N1900 S1898 1.610 . S
N1900 C1901 1.351 . S
C1901 C1895 1.428 . S
C1901 N1900 1.351 . S
C1901 C1902 1.434 . S
C1902 C1893 1.429 . S
C1902 N1899 1.350 . S
C1902 C1901 1.434 . S
C1903 C1904 1.358 1_556 S
C1903 C1905 1.399 1_556 S
C1903 H1907 0.964 . S
C1904 C1903 1.358 1_554 S
C1904 C1913 1.429 . S
C1905 C1903 1.399 1_554 S
C1905 C1906 1.363 . S
C1905 H1908 0.929 . S
C1906 C1905 1.363 . S
C1906 C1912 1.428 . S
H1907 C1903 0.964 . S
H1908 C1905 0.929 . S
S1909 N1910 1.613 . S
S1909 N1911 1.610 . S
N1910 S1909 1.613 . S
N1910 C1913 1.350 . S
N1911 S1909 1.610 . S
N1911 C1912 1.351 . S
C1912 C1906 1.428 . S
C1912 N1911 1.351 . S
C1912 C1913 1.434 . S
C1913 C1904 1.429 . S
C1913 N1910 1.350 . S
C1913 C1912 1.434 . S
C1914 C1915 1.369 . S
C1914 C1916 1.419 . S
C1914 H1918 0.930 . S
C1915 C1914 1.369 . S
C1915 C1924 1.429 . S
C1916 C1914 1.419 . S
C1916 C1917 1.363 . S
C1916 H1919 0.929 . S
C1917 C1916 1.363 . S
C1917 C1923 1.428 . S
H1918 C1914 0.930 . S
H1919 C1916 0.929 . S
S1920 N1921 1.613 . S
S1920 N1922 1.610 . S
N1921 S1920 1.613 . S
N1921 C1924 1.350 . S
N1922 S1920 1.610 . S
N1922 C1923 1.351 . S
C1923 C1917 1.428 . S
C1923 N1922 1.351 . S
C1923 C1924 1.434 . S
C1924 C1915 1.429 . S
C1924 N1921 1.350 . S
C1924 C1923 1.434 . S
C1925 C1926 1.369 . S
C1925 C1927 1.419 . S
C1925 H1929 0.930 . S
C1926 C1925 1.369 . S
C1926 C1935 1.429 . S
C1927 C1925 1.419 . S
C1927 C1928 1.363 . S
C1927 H1930 0.929 . S
C1928 C1927 1.363 . S
C1928 C1934 1.428 . S
H1929 C1925 0.930 . S
H1930 C1927 0.929 . S
S1931 N1932 1.613 . S
S1931 N1933 1.610 . S
N1932 S1931 1.613 . S
N1932 C1935 1.350 . S
N1933 S1931 1.610 . S
N1933 C1934 1.351 . S
C1934 C1928 1.428 . S
C1934 N1933 1.351 . S
C1934 C1935 1.434 . S
C1935 C1926 1.429 . S
C1935 N1932 1.350 . S
C1935 C1934 1.434 . S
C883 C353 1.299 . S
C881 C5 1.307 . S
C892 C23 2.000 . S
C894 C399 1.978 . S
C903 C39 0.991 . S
C905 C408 0.995 . S
C916 C446 1.752 . S
C914 C42 1.778 . S
C925 C19 1.787 . S
C927 C480 1.753 . S
C938 C510 0.971 . S
C936 C28 0.971 . S
C949 C569 1.714 1_556 S
C947 C53 1.720 . S
C958 C9 1.210 . S
C960 C582 1.209 . S
C969 C65 1.608 . S
C971 C365 1.581 . S
C980 C75 1.345 . S
C982 C383 1.314 . S
C993 C404 1.872 . S
C991 C93 1.916 . S
C1004 C442 1.131 . S
C1002 C109 1.131 . S
C1013 C56 1.391 . S
C1015 C476 1.374 . S
C1026 C506 1.704 . S
C1024 C81 1.712 . S
C1037 C553 1.390 . S
C1035 C84 1.408 . S
C1048 C578 0.900 . S
C1046 C103 0.906 . S
C1059 C349 0.877 . S
C1057 C107 0.894 . S
C1070 C608 1.700 . S
C1068 C121 1.694 . S
C1079 C131 1.641 . S
C1081 C650 1.631 . S
C1092 C693 0.568 . S
C1090 C140 0.570 . S
C1101 C61 1.572 . S
C1103 C574 1.539 . S
C1114 C412 1.606 . S
C1112 C70 1.590 . S
C1123 C137 1.438 . S
C1125 C710 1.443 . S
C1136 C761 1.634 . S
C1134 C165 1.633 . S
C1145 C173 1.290 . S
C1147 C344 1.288 1_556 S
C1158 C744 1.933 . S
C1156 C182 1.951 . S
C1167 C207 0.992 . S
C1169 C417 0.991 . S
C1178 C219 1.780 . S
C1180 C727 1.724 . S
C1191 C489 1.725 . S
C1189 C187 1.755 . S
C1202 C655 0.967 . S
C1200 C205 0.973 . S
C1213 C540 1.689 . S
C1211 C221 1.691 . S
C1224 C795 1.201 . S
C1222 C168 1.222 . S
C1235 C336 1.542 . S
C1233 C224 1.598 . S
C1244 C243 1.318 . S
C1246 C748 1.299 . S
C1257 C433 1.823 . S
C1255 C252 1.850 . S
C1266 C277 1.133 . S
C1268 C723 1.113 . S
C1277 C233 1.425 . S
C1279 C485 1.379 . S
C1288 C249 1.705 . S
C1290 C671 1.685 . S
C1301 C544 1.383 . S
C1299 C261 1.429 . S
C1310 C271 0.895 . S
C1312 C791 0.888 . S
C1321 C266 0.890 . S
C1323 C340 0.872 . S
C1332 C280 1.656 . S
C1334 C637 1.664 . S
C1343 C299 1.608 . S
C1345 C523 1.587 . S
C1354 C317 0.524 . S
C1356 C684 0.543 . S
C1367 C807 1.514 . S
C1365 C229 1.553 . S
C1378 C421 1.595 . S
C1376 C247 1.629 . S
C1389 C467 1.424 . S
C1387 C305 1.415 . S
C1400 C378 1.622 . S
C1398 C333 1.617 . S
C1409 C33 1.299 . S
C1411 C829 1.308 . S
C1422 C773 1.981 . S
C1420 C51 1.997 . S
C1433 C850 0.987 . S
C1431 C11 0.997 . S
C1442 C14 1.776 . S
C1444 C718 1.753 . S
C1453 C47 1.786 . S
C1455 C616 1.755 1_556 S
C1466 C646 0.967 . S
C1464 C0 0.976 . S
C1477 C705 1.712 . S
C1475 C25 1.721 . S
C1488 C786 1.208 . S
C1486 C37 1.214 . S
C1499 C841 1.581 . S
C1497 C163 1.608 . S
C1508 C117 1.339 1_556 S
C1510 C757 1.319 . S
C1519 C135 1.914 . S
C1521 C846 1.888 . S
C1532 C714 1.117 . S
C1530 C151 1.148 . S
C1543 C612 1.373 . S
C1541 C154 1.392 . S
C1552 C123 1.717 . S
C1554 C642 1.700 . S
C1565 C689 1.391 . S
C1563 C126 1.407 . S
C1574 C145 0.912 . S
C1576 C782 0.894 . S
C1587 C825 0.877 . S
C1585 C149 0.894 . S
C1598 C472 1.701 . S
C1596 C79 1.693 . S
C1609 C514 1.625 . S
C1607 C89 1.647 . S
C1618 C98 0.572 . S
C1620 C557 0.567 . S
C1631 C778 1.537 . S
C1629 C159 1.573 . S
C1640 C112 1.588 . S
C1642 C854 1.608 . S
C1653 C438 1.443 . S
C1651 C95 1.439 . S
C1664 C387 1.635 . S
C1662 C67 1.634 . S
C1673 C201 1.280 . S
C1675 C820 1.296 . S
C1686 C370 1.933 . S
C1684 C210 1.950 . S
C1697 C859 0.994 . S
C1695 C179 0.992 . S
C1706 C191 1.782 . S
C1708 C455 1.719 . S
C1717 C215 1.757 . S
C1719 C625 1.723 . S
C1728 C177 0.973 . S
C1730 C519 0.965 . S
C1739 C193 1.692 . S
C1741 C676 1.689 . S
C1750 C196 1.219 . S
C1752 C591 1.201 . S
C1763 C812 1.548 . S
C1761 C322 1.594 . S
C1772 C285 1.316 . S
C1774 C374 1.302 . S
C1785 C875 1.822 . S
C1783 C294 1.851 . S
C1794 C319 1.136 . S
C1796 C451 1.112 . S
C1805 C331 1.427 . S
C1807 C621 1.377 . S
C1818 C535 1.681 . S
C1816 C291 1.710 . S
C1827 C303 1.429 . S
C1829 C680 1.388 . S
C1840 C587 0.880 . S
C1838 C313 0.897 . S
C1851 C816 0.871 . S
C1849 C308 0.891 . S
C1862 C501 1.664 . S
C1860 C238 1.657 . S
C1871 C257 1.608 . S
C1873 C659 1.587 . S
C1884 C548 0.540 . S
C1882 C275 0.524 . S
C1895 C603 1.518 . S
C1893 C327 1.548 . S
C1904 C289 1.626 1_554 S
C1906 C863 1.600 . S
C1917 C739 1.424 . S
C1915 C263 1.416 . S
C1928 C752 1.623 . S
C1926 C235 1.617 . S
