# Generated by pormake.
# Topology pts, (4,4)-cn, num edge types: 1
# Building blocks:
#     Node 0, Type 0, BuildingBlock: KOZSID_clean_sbu_0, # of connection points: 4
#     Node 1, Type 0, BuildingBlock: KOZSID_clean_sbu_0, # of connection points: 4
#     Node 2, Type 1, BuildingBlock: UXUYUI_clean_sbu_0, # of connection points: 4
#     Node 3, Type 1, BuildingBlock: UXUYUI_clean_sbu_0, # of connection points: 4
#     Edge 4, Type (0, 1), BuildingBlock: OJICUG_clean_linker_0, # of connection points: 2
#     Edge 5, Type (0, 1), BuildingBlock: OJICUG_clean_linker_0, # of connection points: 2
#     Edge 6, Type (0, 1), BuildingBlock: OJICUG_clean_linker_0, # of connection points: 2
#     Edge 7, Type (0, 1), BuildingBlock: OJICUG_clean_linker_0, # of connection points: 2
#     Edge 8, Type (0, 1), BuildingBlock: OJICUG_clean_linker_0, # of connection points: 2
#     Edge 9, Type (0, 1), BuildingBlock: OJICUG_clean_linker_0, # of connection points: 2
#     Edge 10, Type (0, 1), BuildingBlock: OJICUG_clean_linker_0, # of connection points: 2
#     Edge 11, Type (0, 1), BuildingBlock: OJICUG_clean_linker_0, # of connection points: 2
# Relax obj value: 0.000
# Max RMSD: 0.026
# Mean RMSD: 0.017
data_MOF--net-pts--node1-KOZSID_clean_sbu_0--node2-UXUYUI_clean_sbu_0--edge1-OJICUG_clean_linker_0
_symmetry_space_group_name_H-M    P1
_symmetry_Int_Tables_number       1
_symmetry_cell_setting            triclinic
loop_
_symmetry_equiv_pos_as_xyz
'x, y, z'
_cell_length_a     26.352528
_cell_length_b     26.353784
_cell_length_c     38.353904
_cell_angle_alpha  85.987984
_cell_angle_beta   93.87479
_cell_angle_gamma 90.019659
loop_
_atom_site_label
_atom_site_type_symbol
_atom_site_fract_x
_atom_site_fract_y
_atom_site_fract_z
_atom_type_partial_charge
C0 C 0.63681 0.10356 0.05854 0.0
C1 C 0.65424 0.15035 0.06883 0.0
C2 C 0.625 0.18665 0.05001 0.0
C3 C 0.59167 0.16028 0.02918 0.0
N4 N 0.59741 0.10917 0.03378 0.0
Co5 Co 0.55869 0.05694 0.00704 0.0
N6 N 0.51965 0.11082 0.97667 0.0
C7 C 0.52523 0.16174 0.97746 0.0
C8 C 0.49228 0.18925 0.95424 0.0
C9 C 0.4634 0.15383 0.93788 0.0
C10 C 0.4805 0.10656 0.95215 0.0
N11 N 0.51933 0.00473 0.98074 0.0
C12 C 0.47955 0.01051 0.95634 0.0
C13 C 0.4616 0.96399 0.94602 0.0
C14 C 0.49038 0.92744 0.96502 0.0
C15 C 0.52414 0.9536 0.98573 0.0
N16 N 0.59834 1.0031 0.03696 0.0
C17 C 0.59366 0.95215 0.0355 0.0
C18 C 0.62682 0.92462 0.05854 0.0
C19 C 0.65509 0.96004 0.07533 0.0
C20 C 0.63768 0.00738 0.06136 0.0
N21 N 0.50466 0.05592 0.04126 0.0
C22 C 0.4224 0.05427 0.0855 0.0
C23 C 0.4459 0.00928 0.07752 0.0
C24 C 0.48653 0.01095 0.05568 0.0
C25 C 0.44192 0.10016 0.07151 0.0
C26 C 0.48268 0.10012 0.04985 0.0
N27 N 0.61272 0.05793 0.97281 0.0
C28 C 0.67122 0.01333 0.93924 0.0
C29 C 0.69518 0.05877 0.9289 0.0
C30 C 0.67602 0.10388 0.94012 0.0
C31 C 0.635 0.10265 0.96157 0.0
C32 C 0.63058 0.01375 0.96103 0.0
H33 H 0.6224 0.13843 0.96904 0.0
H34 H 0.61478 0.97772 0.96846 0.0
H35 H 0.50231 0.97525 0.05056 0.0
H36 H 0.49521 0.13639 0.03992 0.0
C37 C 0.5584 0.18251 1.00255 0.0
C38 C 0.66074 0.05512 0.07153 0.0
C39 C 0.45646 0.05896 0.94296 0.0
C40 C 0.55897 0.93134 0.01135 0.0
H41 H 0.68587 0.15783 0.08717 0.0
H42 H 0.62904 0.22749 0.05036 0.0
H43 H 0.48843 0.2302 0.95058 0.0
H44 H 0.43231 0.1619 0.91837 0.0
H45 H 0.43028 0.95723 0.9272 0.0
H46 H 0.4863 0.88662 0.96446 0.0
H47 H 0.63064 0.88367 0.0622 0.0
H48 H 0.68565 0.95191 0.09524 0.0
H49 H 0.43322 0.97266 0.08817 0.0
H50 H 0.42512 0.13622 0.07647 0.0
H51 H 0.68463 0.97727 0.93139 0.0
H52 H 0.6925 0.14024 0.9323 0.0
C53 C 0.10649 0.48024 0.56251 0.0
C54 C 0.15418 0.46224 0.57529 0.0
C55 C 0.18903 0.49095 0.55816 0.0
C56 C 0.16093 0.52454 0.53581 0.0
N57 N 0.11011 0.5196 0.5379 0.0
Co58 Co 0.05559 0.55845 0.50801 0.0
N59 N 0.10706 0.59716 0.48045 0.0
C60 C 0.15821 0.59169 0.48439 0.0
C61 C 0.18389 0.62367 0.4621 0.0
C62 C 0.14704 0.65197 0.44311 0.0
C63 C 0.10079 0.63584 0.45518 0.0
N64 N 1.00109 0.59731 0.4781 0.0
C65 C 1.00471 0.63664 0.45345 0.0
C66 C 0.957 0.65476 0.44081 0.0
C67 C 0.92216 0.62609 0.45798 0.0
C68 C 0.95027 0.59241 0.48025 0.0
N69 N 1.00413 0.5197 0.53558 0.0
C70 C 0.95298 0.52516 0.53166 0.0
C71 C 0.92732 0.49274 0.55368 0.0
C72 C 0.96419 0.46416 0.57246 0.0
C73 C 0.01042 0.48067 0.56059 0.0
N74 N 0.05733 0.61309 0.54169 0.0
C75 C 0.05921 0.69623 0.5851 0.0
C76 C 0.01347 0.673 0.57452 0.0
C77 C 0.01339 0.63215 0.55302 0.0
C78 C 0.10414 0.67584 0.57421 0.0
C79 C 0.10237 0.63453 0.55303 0.0
N80 N 0.05381 0.50376 0.47438 0.0
C81 C 0.00698 0.44023 0.44263 0.0
C82 C 0.05186 0.41974 0.43174 0.0
C83 C 0.09758 0.4435 0.44181 0.0
C84 C 0.0977 0.48474 0.46297 0.0
C85 C 0.00877 0.48204 0.46335 0.0
H86 H 0.13394 0.50018 0.47007 0.0
H87 H 0.97319 0.49554 0.47063 0.0
H88 H 0.97714 0.61701 0.54564 0.0
H89 H 0.13798 0.6211 0.54571 0.0
C90 C 0.18104 0.55803 0.51054 0.0
C91 C 0.059 0.45688 0.57312 0.0
C92 C 0.05226 0.65975 0.44262 0.0
C93 C 0.93016 0.55888 0.50553 0.0
H94 H 0.16307 0.43062 0.59422 0.0
H95 H 0.22998 0.48651 0.5607 0.0
H96 H 0.22462 0.62683 0.46042 0.0
H97 H 0.15356 0.68182 0.42309 0.0
H98 H 0.94806 0.68643 0.42193 0.0
H99 H 0.88122 0.63061 0.4555 0.0
H100 H 0.88658 0.48935 0.55524 0.0
H101 H 0.95772 0.43387 0.59219 0.0
H102 H 0.97752 0.68607 0.58277 0.0
H103 H 0.14074 0.69227 0.58123 0.0
H104 H 0.97038 0.42351 0.43602 0.0
H105 H 0.13349 0.43052 0.43346 0.0
Li106 Li 0.05146 0.09708 0.28106 0.0
Li107 Li 0.05154 1.00241 0.28087 0.0
Li108 Li 0.09786 0.05622 0.23464 0.0
Li109 Li 1.00298 0.05096 0.23306 0.0
C110 C 0.1514 0.06627 0.30653 0.0
N111 N 0.23353 0.10152 0.34636 0.0
C112 C 0.16342 0.04457 0.34038 0.0
C113 C 0.1815 0.10541 0.29277 0.0
C114 C 0.205 0.06307 0.36016 0.0
C115 C 0.22276 0.12283 0.31336 0.0
C116 C 0.96656 0.0265 0.31045 0.0
C117 C 0.91459 0.95777 0.33261 0.0
N118 N 0.91537 0.9788 0.36403 0.0
C119 C 0.96663 0.04758 0.34289 0.0
C120 C 0.9401 0.98139 0.30516 0.0
C121 C 0.94058 0.02285 0.36967 0.0
C122 C 0.02538 0.19782 0.2967 0.0
N123 N 0.04997 0.15466 0.31011 0.0
C124 C 0.07243 0.19392 0.36357 0.0
C125 C 0.0726 0.15186 0.34315 0.0
C126 C 0.04892 0.23981 0.34998 0.0
C127 C 0.02496 0.24103 0.31597 0.0
H128 H 0.00672 0.19904 0.27066 0.0
H129 H 0.09043 0.1168 0.35389 0.0
C130 C 0.05756 0.89443 0.29621 0.0
N131 N 0.05444 0.93975 0.31087 0.0
C132 C 0.05781 0.84858 0.31709 0.0
C133 C 0.05176 0.89664 0.36791 0.0
C134 C 0.05239 0.94153 0.34612 0.0
C135 C 0.05439 0.84899 0.35358 0.0
H136 H 0.05989 0.89379 0.26821 0.0
H137 H 0.05045 0.97791 0.35735 0.0
C138 C 0.0617 0.15678 0.21117 0.0
N139 N 0.09098 0.24571 0.17555 0.0
C140 C 0.0449 0.16762 0.1761 0.0
C141 C 0.09332 0.19137 0.22814 0.0
C142 C 0.06018 0.21269 0.15853 0.0
C143 C 0.10768 0.23608 0.20969 0.0
C144 C 0.03215 0.97131 0.20152 0.0
C145 C 0.04952 0.98212 0.16819 0.0
C146 C 0.99223 0.93704 0.20596 0.0
C147 C 0.02639 0.95858 0.13973 0.0
C148 C 0.97003 0.91439 0.17683 0.0
N149 N 0.98742 0.92554 0.1446 0.0
C150 C 0.18094 0.01216 0.20348 0.0
C151 C 0.17703 0.10151 0.19265 0.0
C152 C 0.22427 0.00979 0.18428 0.0
N153 N 0.15802 0.05756 0.2073 0.0
C154 C 0.22033 0.10095 0.17345 0.0
C155 C 0.24475 0.05468 0.16897 0.0
H156 H 0.16547 0.9776 0.21537 0.0
H157 H 0.15901 0.13732 0.19577 0.0
C158 C 0.89571 0.04438 0.21757 0.0
N159 N 0.94078 0.0516 0.20266 0.0
C160 C 0.84993 0.044 0.19681 0.0
C161 C 0.89729 0.05947 0.1455 0.0
C162 C 0.94222 0.05901 0.16727 0.0
C163 C 0.85001 0.05186 0.16012 0.0
H164 H 0.89513 0.0389 0.24569 0.0
H165 H 0.9783 0.06454 0.15581 0.0
O166 O 0.11072 0.04876 0.28688 0.0
O167 O 0.9924 0.04985 0.28407 0.0
O168 O 0.0465 0.11307 0.2289 0.0
O169 O 0.05368 0.99466 0.22959 0.0
H170 H 0.1407 0.01401 0.35133 0.0
H171 H 0.17321 0.12207 0.26647 0.0
H172 H 0.21457 0.04685 0.38647 0.0
H173 H 0.24628 0.15324 0.30308 0.0
H174 H 0.89427 0.92266 0.32895 0.0
H175 H 0.98672 0.08255 0.3474 0.0
H176 H 0.93975 0.96452 0.28024 0.0
H177 H 0.94047 0.03862 0.39495 0.0
H178 H 0.09014 0.19012 0.38991 0.0
H179 H 0.00672 0.27526 0.3039 0.0
H180 H 0.06114 0.81324 0.30464 0.0
H181 H 0.04835 0.89951 0.39566 0.0
H182 H 0.02032 0.14157 0.16253 0.0
H183 H 0.10709 0.18368 0.25515 0.0
H184 H 0.04749 0.22146 0.13136 0.0
H185 H 0.13223 0.26303 0.2225 0.0
H186 H 0.0801 0.00887 0.16425 0.0
H187 H 0.97831 0.92832 0.23158 0.0
H188 H 0.03927 0.96676 0.11375 0.0
H189 H 0.93892 0.88799 0.17984 0.0
H190 H 0.24193 0.97322 0.1819 0.0
H191 H 0.23411 0.13652 0.16183 0.0
H192 H 0.81492 0.03707 0.20954 0.0
H193 H 0.89973 0.06648 0.11753 0.0
Li194 Li 0.01816 0.06448 0.77922 0.0
Li195 Li 0.11296 0.0632 0.78406 0.0
Li196 Li 0.06277 0.11429 0.73472 0.0
Li197 Li 0.06741 0.01917 0.7348 0.0
C198 C 0.04674 0.14644 0.81259 0.0
N199 N 0.00585 0.19308 0.86665 0.0
C200 C 0.0712 0.14227 0.84616 0.0
C201 C 1.00171 0.17463 0.80643 0.0
C202 C 0.04987 0.1661 0.87316 0.0
C203 C 0.98156 0.1978 0.83414 0.0
C204 C 0.0806 0.96085 0.80545 0.0
C205 C 0.13192 0.88458 0.81225 0.0
N206 N 0.11239 0.87243 0.84367 0.0
C207 C 0.06065 0.94735 0.83764 0.0
C208 C 0.1162 0.92901 0.79248 0.0
C209 C 0.07736 0.90261 0.85664 0.0
C210 C 0.91116 0.06089 0.78968 0.0
N211 N 0.9584 0.06102 0.8064 0.0
C212 C 0.92192 0.05895 0.86212 0.0
C213 C 0.96434 0.05943 0.84199 0.0
C214 C 0.87261 0.05928 0.84562 0.0
C215 C 0.86763 0.05985 0.80884 0.0
H216 H 0.9072 0.06186 0.7614 0.0
H217 H 1.00213 0.05894 0.85484 0.0
C218 C 0.21188 0.09552 0.80652 0.0
N219 N 0.17419 0.06269 0.81527 0.0
C220 C 0.25787 0.09594 0.82706 0.0
C221 C 0.22525 0.02965 0.86592 0.0
C222 C 0.17989 0.03052 0.84463 0.0
C223 C 0.26534 0.06244 0.85719 0.0
H224 H 0.20637 0.12118 0.78329 0.0
H225 H 0.1494 0.0053 0.8516 0.0
C226 C 0.98016 0.08766 0.69829 0.0
N227 N 0.93073 0.13622 0.63945 0.0
C228 C 0.98709 0.07091 0.66516 0.0
C229 C 0.94789 0.12888 0.70156 0.0
C230 C 0.96176 0.096 0.63571 0.0
C231 C 0.92334 0.15302 0.67147 0.0
C232 C 0.16979 0.05928 0.72049 0.0
C233 C 0.18535 0.08528 0.69006 0.0
C234 C 0.20227 0.02323 0.73885 0.0
C235 C 0.23288 0.07436 0.67825 0.0
C236 C 0.24953 0.01345 0.72624 0.0
N237 N 0.26372 0.03896 0.69643 0.0
C238 C 0.05439 0.22194 0.71894 0.0
C239 C 0.06822 0.17539 0.66989 0.0
C240 C 0.0533 0.26774 0.69802 0.0
N241 N 0.06167 0.17688 0.70469 0.0
C242 C 0.06774 0.22031 0.64803 0.0
C243 C 0.06022 0.26759 0.66194 0.0
H244 H 0.04945 0.22245 0.74663 0.0
H245 H 0.07398 0.13923 0.65903 0.0
C246 C 0.02294 0.9342 0.70272 0.0
N247 N 0.06714 0.96061 0.70655 0.0
C248 C 0.0202 0.89115 0.68316 0.0
C249 C 0.10861 0.90266 0.67203 0.0
C250 C 0.10947 0.94581 0.69138 0.0
C251 C 0.06357 0.87458 0.66766 0.0
H252 H 0.98972 0.94657 0.71497 0.0
H253 H 0.14415 0.96716 0.69429 0.0
O254 O 0.06672 0.12286 0.78595 0.0
O255 O 0.06471 1.00459 0.78656 0.0
O256 O 0.00546 0.06429 0.72732 0.0
O257 O 0.12351 0.06992 0.73258 0.0
H258 H 0.10609 0.12063 0.85136 0.0
H259 H 0.98219 0.17803 0.78064 0.0
H260 H 0.06827 0.16305 0.89931 0.0
H261 H 0.94653 0.21942 0.82982 0.0
H262 H 0.15957 0.85969 0.80256 0.0
H263 H 0.03276 0.97128 0.84795 0.0
H264 H 0.13138 0.9383 0.76738 0.0
H265 H 0.06245 0.89186 0.88169 0.0
H266 H 0.92773 0.05779 0.89039 0.0
H267 H 0.83045 0.06045 0.79494 0.0
H268 H 0.28709 0.12261 0.8195 0.0
H269 H 0.2291 1.00285 0.88867 0.0
H270 H 0.01216 0.03921 0.66218 0.0
H271 H 0.94228 0.14237 0.72702 0.0
H272 H 0.96692 0.08362 0.60988 0.0
H273 H 0.89849 0.18517 0.67357 0.0
H274 H 0.16106 0.11364 0.67568 0.0
H275 H 0.19125 1.00306 0.76261 0.0
H276 H 0.24531 0.09412 0.65467 0.0
H277 H 0.27495 0.98561 0.74019 0.0
H278 H 0.04654 0.30283 0.71007 0.0
H279 H 0.07401 0.2179 0.62059 0.0
H280 H 0.98472 0.87055 0.68069 0.0
H281 H 0.14278 0.89177 0.66019 0.0
C282 C 0.34047 0.0151 0.10533 0.0
C283 C 0.37761 0.05342 0.10771 0.0
H284 H 0.26967 0.9856 0.12228 0.0
C285 C 0.37104 0.09142 0.13108 0.0
H286 H 0.34357 0.98561 0.0873 0.0
C287 C 0.3284 0.09152 0.15105 0.0
C288 C 0.29103 0.05354 0.14838 0.0
H289 H 0.39913 0.12103 0.13426 0.0
H290 H 0.32499 0.12124 0.16889 0.0
C291 C 0.29789 0.0151 0.12542 0.0
C292 C 0.03986 0.36359 0.58271 0.0
C293 C 0.05972 0.40838 0.59591 0.0
H294 H 0.02338 0.28465 0.59306 0.0
C295 C 0.0793 0.40698 0.63092 0.0
H296 H 0.02417 0.36386 0.55585 0.0
C297 C 0.0797 0.36148 0.6522 0.0
C298 C 0.05991 0.31628 0.63913 0.0
H299 H 0.09451 0.44114 0.64175 0.0
H300 H 0.09619 0.36173 0.67881 0.0
C301 C 0.03983 0.31815 0.60404 0.0
C302 C 0.7103 0.07154 0.12815 0.0
C303 C 0.70914 0.05421 0.09434 0.0
H304 H 0.75533 0.08613 0.17483 0.0
C305 C 0.75415 0.03545 0.08232 0.0
H306 H 0.67596 0.08587 0.13809 0.0
C307 C 0.79959 0.03435 0.1036 0.0
C308 C 0.80128 0.05242 0.13742 0.0
H309 H 0.75409 0.02151 0.0564 0.0
H310 H 0.83323 0.01871 0.0936 0.0
C311 C 0.75582 0.0711 0.1493 0.0
C312 C 0.02011 0.77769 0.60272 0.0
C313 C 0.05993 0.74157 0.6068 0.0
H314 H 0.99002 0.84754 0.61847 0.0
C315 C 0.10064 0.74962 0.63154 0.0
H316 H 0.98853 0.77373 0.58356 0.0
C317 C 0.10177 0.79257 0.65119 0.0
C318 C 0.06197 0.8285 0.64701 0.0
H319 H 0.13158 0.72245 0.63612 0.0
H320 H 0.1336 0.79732 0.67005 0.0
C321 C 0.02098 0.82031 0.62268 0.0
C322 C 0.4073 0.06739 0.88436 0.0
C323 C 0.40762 0.05978 0.92092 0.0
H324 H 0.36247 0.07344 0.83553 0.0
C325 C 0.36132 0.05294 0.9366 0.0
H326 H 0.44272 0.0725 0.87179 0.0
C327 C 0.31526 0.05391 0.91602 0.0
C328 C 0.31452 0.06159 0.87924 0.0
H329 H 0.36084 0.04714 0.96482 0.0
H330 H 0.28018 0.04934 0.92903 0.0
C331 C 0.36128 0.06825 0.86372 0.0
C332 C 0.00985 0.36442 0.38662 0.0
C333 C 0.05113 0.3738 0.41058 0.0
H334 H 0.97586 0.31508 0.34982 0.0
C335 C 0.09156 0.33843 0.41439 0.0
H336 H 0.97819 0.39077 0.38237 0.0
C337 C 0.09094 0.29549 0.39477 0.0
C338 C 0.04952 0.28591 0.37098 0.0
H339 H 0.12375 0.34342 0.43288 0.0
H340 H 0.12343 0.27008 0.39812 0.0
C341 C 0.00891 0.32108 0.36735 0.0
C342 C 0.74195 0.0283 0.87878 0.0
C343 C 0.74032 0.05913 0.90721 0.0
H344 H 0.78456 1.00424 0.83707 0.0
C345 C 0.7825 0.09012 0.91504 0.0
H346 H 0.71005 1.00423 0.87184 0.0
C347 C 0.82523 0.09005 0.89516 0.0
C348 C 0.82684 0.05934 0.86668 0.0
H349 H 0.78285 0.11398 0.93693 0.0
H350 H 0.85689 0.11452 0.90193 0.0
C351 C 0.78451 0.02864 0.85864 0.0
C352 C 0.03082 0.71043 0.38515 0.0
C353 C 0.05181 0.70834 0.41985 0.0
H354 H 0.01349 0.75615 0.33754 0.0
C355 C 0.07397 0.7524 0.43264 0.0
H356 H 0.01393 0.67682 0.37455 0.0
C357 C 0.07511 0.79767 0.41123 0.0
C358 C 0.05358 0.80031 0.37646 0.0
H359 H 0.09084 0.75163 0.45923 0.0
H360 H 0.09365 0.83036 0.42192 0.0
C361 C 0.03124 0.75588 0.36383 0.0
loop_
_geom_bond_atom_site_label_1
_geom_bond_atom_site_label_2
_geom_bond_distance
_geom_bond_site_symmetry_2
_ccdc_geom_bond_type
C0 C1 1.443 . S
C0 N4 1.376 . S
C0 C38 1.389 . S
C1 C0 1.443 . S
C1 C2 1.340 . S
C1 H41 0.951 . S
C2 C1 1.340 . S
C2 C3 1.439 . S
C2 H42 0.950 . S
C3 C2 1.439 . S
C3 N4 1.374 . S
C3 C37 1.395 1_554 S
N4 C0 1.376 . S
N4 C3 1.374 . S
N4 Co5 2.008 . S
Co5 N4 2.008 . S
Co5 N6 1.995 1_554 S
Co5 N11 2.010 1_554 S
Co5 N16 1.995 1_545 S
Co5 N21 2.282 . S
Co5 N27 2.282 1_554 S
N6 Co5 1.995 1_556 S
N6 C7 1.376 . S
N6 C10 1.383 . S
C7 N6 1.376 . S
C7 C8 1.446 . S
C7 C37 1.391 . S
C8 C7 1.446 . S
C8 C9 1.339 . S
C8 H43 0.949 . S
C9 C8 1.339 . S
C9 C10 1.439 . S
C9 H44 0.950 . S
C10 N6 1.383 . S
C10 C9 1.439 . S
C10 C39 1.392 . S
N11 Co5 2.010 1_556 S
N11 C12 1.377 . S
N11 C15 1.371 1_545 S
C12 N11 1.377 . S
C12 C13 1.443 1_545 S
C12 C39 1.389 . S
C13 C12 1.443 1_565 S
C13 C14 1.340 . S
C13 H45 0.951 . S
C14 C13 1.340 . S
C14 C15 1.439 . S
C14 H46 0.950 . S
C15 N11 1.371 1_565 S
C15 C14 1.439 . S
C15 C40 1.395 1_556 S
N16 Co5 1.995 1_565 S
N16 C17 1.376 . S
N16 C20 1.383 1_565 S
C17 N16 1.376 . S
C17 C18 1.446 . S
C17 C40 1.391 . S
C18 C17 1.446 . S
C18 C19 1.339 . S
C18 H47 0.949 . S
C19 C18 1.339 . S
C19 C20 1.439 1_565 S
C19 H48 0.950 . S
C20 N16 1.383 1_545 S
C20 C19 1.439 1_545 S
C20 C38 1.392 . S
N21 Co5 2.282 . S
N21 C24 1.332 . S
N21 C26 1.332 . S
C22 C23 1.386 . S
C22 C25 1.388 . S
C23 C22 1.386 . S
C23 C24 1.382 . S
C23 H49 0.950 1_545 S
C24 N21 1.332 . S
C24 C23 1.382 . S
C24 H35 0.952 1_545 S
C25 C22 1.388 . S
C25 C26 1.382 . S
C25 H50 0.950 . S
C26 N21 1.332 . S
C26 C25 1.382 . S
C26 H36 0.948 . S
N27 Co5 2.282 1_556 S
N27 C31 1.332 . S
N27 C32 1.332 . S
C28 C29 1.388 . S
C28 C32 1.382 . S
C28 H51 0.950 1_545 S
C29 C28 1.388 . S
C29 C30 1.386 . S
C30 C29 1.386 . S
C30 C31 1.382 . S
C30 H52 0.950 . S
C31 N27 1.332 . S
C31 C30 1.382 . S
C31 H33 0.952 . S
C32 N27 1.332 . S
C32 C28 1.382 . S
C32 H34 0.948 1_545 S
H33 C31 0.952 . S
H34 C32 0.948 1_565 S
H35 C24 0.952 1_565 S
H36 C26 0.948 . S
C37 C3 1.395 1_556 S
C37 C7 1.391 . S
C38 C0 1.389 . S
C38 C20 1.392 . S
C39 C10 1.392 . S
C39 C12 1.389 . S
C40 C15 1.395 1_554 S
C40 C17 1.391 . S
H41 C1 0.951 . S
H42 C2 0.950 . S
H43 C8 0.949 . S
H44 C9 0.950 . S
H45 C13 0.951 . S
H46 C14 0.950 . S
H47 C18 0.949 . S
H48 C19 0.950 . S
H49 C23 0.950 1_565 S
H50 C25 0.950 . S
H51 C28 0.950 1_565 S
H52 C30 0.950 . S
C53 C54 1.443 . S
C53 N57 1.376 . S
C53 C91 1.389 . S
C54 C53 1.443 . S
C54 C55 1.340 . S
C54 H94 0.951 . S
C55 C54 1.340 . S
C55 C56 1.439 . S
C55 H95 0.950 . S
C56 C55 1.439 . S
C56 N57 1.374 . S
C56 C90 1.395 . S
N57 C53 1.376 . S
N57 C56 1.374 . S
N57 Co58 2.008 . S
Co58 N57 2.008 . S
Co58 N59 1.995 . S
Co58 N64 2.008 1_455 S
Co58 N69 1.995 . S
Co58 N74 2.282 . S
Co58 N80 2.282 . S
N59 Co58 1.995 . S
N59 C60 1.376 . S
N59 C63 1.383 . S
C60 N59 1.376 . S
C60 C61 1.446 . S
C60 C90 1.391 . S
C61 C60 1.446 . S
C61 C62 1.339 . S
C61 H96 0.949 . S
C62 C61 1.339 . S
C62 C63 1.439 . S
C62 H97 0.950 . S
C63 N59 1.383 . S
C63 C62 1.439 . S
C63 C92 1.392 . S
N64 Co58 2.008 1_655 S
N64 C65 1.376 1_655 S
N64 C68 1.374 . S
C65 N64 1.376 1_455 S
C65 C66 1.443 1_455 S
C65 C92 1.389 . S
C66 C65 1.443 1_655 S
C66 C67 1.340 . S
C66 H98 0.951 . S
C67 C66 1.340 . S
C67 C68 1.439 . S
C67 H99 0.950 . S
C68 N64 1.374 . S
C68 C67 1.439 . S
C68 C93 1.395 . S
N69 Co58 1.995 . S
N69 C70 1.376 1_455 S
N69 C73 1.383 . S
C70 N69 1.376 1_655 S
C70 C71 1.446 . S
C70 C93 1.391 . S
C71 C70 1.446 . S
C71 C72 1.339 . S
C71 H100 0.949 . S
C72 C71 1.339 . S
C72 C73 1.439 1_655 S
C72 H101 0.950 . S
C73 N69 1.383 . S
C73 C72 1.439 1_455 S
C73 C91 1.392 . S
N74 Co58 2.282 . S
N74 C77 1.332 . S
N74 C79 1.332 . S
C75 C76 1.386 . S
C75 C78 1.388 . S
C76 C75 1.386 . S
C76 C77 1.382 . S
C76 H102 0.950 1_455 S
C77 N74 1.332 . S
C77 C76 1.382 . S
C77 H88 0.952 1_455 S
C78 C75 1.388 . S
C78 C79 1.382 . S
C78 H103 0.950 . S
C79 N74 1.332 . S
C79 C78 1.382 . S
C79 H89 0.948 . S
N80 Co58 2.282 . S
N80 C84 1.332 . S
N80 C85 1.332 . S
C81 C82 1.388 . S
C81 C85 1.382 . S
C81 H104 0.950 1_455 S
C82 C81 1.388 . S
C82 C83 1.386 . S
C83 C82 1.386 . S
C83 C84 1.382 . S
C83 H105 0.950 . S
C84 N80 1.332 . S
C84 C83 1.382 . S
C84 H86 0.952 . S
C85 N80 1.332 . S
C85 C81 1.382 . S
C85 H87 0.948 1_455 S
H86 C84 0.952 . S
H87 C85 0.948 1_655 S
H88 C77 0.952 1_655 S
H89 C79 0.948 . S
C90 C56 1.395 . S
C90 C60 1.391 . S
C91 C53 1.389 . S
C91 C73 1.392 . S
C92 C63 1.392 . S
C92 C65 1.389 . S
C93 C68 1.395 . S
C93 C70 1.391 . S
H94 C54 0.951 . S
H95 C55 0.950 . S
H96 C61 0.949 . S
H97 C62 0.950 . S
H98 C66 0.951 . S
H99 C67 0.950 . S
H100 C71 0.949 . S
H101 C72 0.950 . S
H102 C76 0.950 1_655 S
H103 C78 0.950 . S
H104 C81 0.950 1_655 S
H105 C83 0.950 . S
Li106 N123 1.990 . S
Li106 O166 1.956 . S
Li106 O167 1.970 1_455 S
Li106 O168 1.961 . S
Li107 N131 1.990 . S
Li107 O166 1.970 1_565 S
Li107 O167 1.956 1_465 S
Li107 O169 1.961 . S
Li108 N153 1.990 . S
Li108 O166 1.961 . S
Li108 O168 1.956 . S
Li108 O169 1.970 1_545 S
Li109 N159 1.990 . S
Li109 O167 1.961 . S
Li109 O168 1.970 1_655 S
Li109 O169 1.956 1_645 S
C110 C112 1.348 . S
C110 C113 1.356 . S
C110 O166 1.325 . S
N111 C114 1.314 . S
N111 C115 1.279 . S
C112 C110 1.348 . S
C112 C114 1.353 . S
C112 H170 0.929 1_545 S
C113 C110 1.356 . S
C113 C115 1.358 . S
C113 H171 0.930 . S
C114 N111 1.314 . S
C114 C112 1.353 . S
C114 H172 0.930 1_545 S
C115 N111 1.279 . S
C115 C113 1.358 . S
C115 H173 0.930 . S
C116 C119 1.348 . S
C116 C120 1.356 . S
C116 O167 1.325 . S
C117 N118 1.279 . S
C117 C120 1.358 . S
C117 H174 0.930 1_545 S
N118 C117 1.279 . S
N118 C121 1.314 . S
C119 C116 1.348 . S
C119 C121 1.353 . S
C119 H175 0.929 . S
C120 C116 1.356 . S
C120 C117 1.358 . S
C120 H176 0.930 1_545 S
C121 N118 1.314 . S
C121 C119 1.353 . S
C121 H177 0.930 . S
C122 N123 1.314 . S
C122 C127 1.353 . S
C122 H128 0.930 1_455 S
N123 Li106 1.990 . S
N123 C122 1.314 . S
N123 C125 1.279 . S
C124 C125 1.358 . S
C124 C126 1.356 . S
C124 H178 0.930 . S
C125 N123 1.279 . S
C125 C124 1.358 . S
C125 H129 0.930 . S
C126 C124 1.356 . S
C126 C127 1.348 . S
C127 C122 1.353 . S
C127 C126 1.348 . S
C127 H179 0.929 1_455 S
H128 C122 0.930 1_655 S
H129 C125 0.930 . S
C130 N131 1.314 . S
C130 C132 1.353 . S
C130 H136 0.930 . S
N131 Li107 1.990 . S
N131 C130 1.314 . S
N131 C134 1.279 . S
C132 C130 1.353 . S
C132 C135 1.348 . S
C132 H180 0.929 . S
C133 C134 1.358 . S
C133 C135 1.356 . S
C133 H181 0.930 1_455 S
C134 N131 1.279 . S
C134 C133 1.358 . S
C134 H137 0.930 1_455 S
C135 C132 1.348 . S
C135 C133 1.356 . S
H136 C130 0.930 . S
H137 C134 0.930 1_655 S
C138 C140 1.348 . S
C138 C141 1.356 . S
C138 O168 1.325 . S
N139 C142 1.314 . S
N139 C143 1.279 . S
C140 C138 1.348 . S
C140 C142 1.353 . S
C140 H182 0.929 1_455 S
C141 C138 1.356 . S
C141 C143 1.358 . S
C141 H183 0.930 . S
C142 N139 1.314 . S
C142 C140 1.353 . S
C142 H184 0.930 1_455 S
C143 N139 1.279 . S
C143 C141 1.358 . S
C143 H185 0.930 . S
C144 C145 1.348 . S
C144 C146 1.356 . S
C144 O169 1.325 . S
C145 C144 1.348 . S
C145 C147 1.353 . S
C145 H186 0.929 . S
C146 C144 1.356 . S
C146 C148 1.358 . S
C146 H187 0.930 1_455 S
C147 C145 1.353 . S
C147 N149 1.314 . S
C147 H188 0.930 . S
C148 C146 1.358 . S
C148 N149 1.279 . S
C148 H189 0.930 1_455 S
N149 C147 1.314 . S
N149 C148 1.279 . S
C150 C152 1.353 . S
C150 N153 1.314 . S
C150 H156 0.930 1_545 S
C151 N153 1.279 . S
C151 C154 1.358 . S
C151 H157 0.930 . S
C152 C150 1.353 . S
C152 C155 1.348 . S
C152 H190 0.929 1_545 S
N153 Li108 1.990 . S
N153 C150 1.314 . S
N153 C151 1.279 . S
C154 C151 1.358 . S
C154 C155 1.356 . S
C154 H191 0.930 . S
C155 C152 1.348 . S
C155 C154 1.356 . S
H156 C150 0.930 1_565 S
H157 C151 0.930 . S
C158 N159 1.314 . S
C158 C160 1.353 . S
C158 H164 0.930 . S
N159 Li109 1.990 . S
N159 C158 1.314 . S
N159 C162 1.279 . S
C160 C158 1.353 . S
C160 C163 1.348 . S
C160 H192 0.929 . S
C161 C162 1.358 . S
C161 C163 1.356 . S
C161 H193 0.930 1_545 S
C162 N159 1.279 . S
C162 C161 1.358 . S
C162 H165 0.930 1_545 S
C163 C160 1.348 . S
C163 C161 1.356 . S
H164 C158 0.930 . S
H165 C162 0.930 1_565 S
O166 Li106 1.956 . S
O166 Li107 1.970 1_545 S
O166 Li108 1.961 . S
O166 C110 1.325 . S
O167 Li106 1.970 1_655 S
O167 Li107 1.956 1_645 S
O167 Li109 1.961 . S
O167 C116 1.325 . S
O168 Li106 1.961 . S
O168 Li108 1.956 . S
O168 Li109 1.970 1_455 S
O168 C138 1.325 . S
O169 Li107 1.961 . S
O169 Li108 1.970 1_565 S
O169 Li109 1.956 1_465 S
O169 C144 1.325 . S
H170 C112 0.929 1_565 S
H171 C113 0.930 . S
H172 C114 0.930 1_565 S
H173 C115 0.930 . S
H174 C117 0.930 1_565 S
H175 C119 0.929 . S
H176 C120 0.930 1_565 S
H177 C121 0.930 . S
H178 C124 0.930 . S
H179 C127 0.929 1_655 S
H180 C132 0.929 . S
H181 C133 0.930 1_655 S
H182 C140 0.929 1_655 S
H183 C141 0.930 . S
H184 C142 0.930 1_655 S
H185 C143 0.930 . S
H186 C145 0.929 . S
H187 C146 0.930 1_655 S
H188 C147 0.930 . S
H189 C148 0.930 1_655 S
H190 C152 0.929 1_565 S
H191 C154 0.930 . S
H192 C160 0.929 . S
H193 C161 0.930 1_565 S
Li194 N211 1.990 1_455 S
Li194 O254 1.956 . S
Li194 O255 1.970 . S
Li194 O256 1.961 . S
Li195 N219 1.990 . S
Li195 O254 1.970 . S
Li195 O255 1.956 . S
Li195 O257 1.961 . S
Li196 N241 1.990 . S
Li196 O254 1.961 . S
Li196 O256 1.956 . S
Li196 O257 1.970 . S
Li197 N247 1.990 1_545 S
Li197 O255 1.961 . S
Li197 O256 1.970 . S
Li197 O257 1.956 . S
C198 C200 1.348 . S
C198 C201 1.356 . S
C198 O254 1.325 . S
N199 C202 1.314 . S
N199 C203 1.279 . S
C200 C198 1.348 . S
C200 C202 1.353 . S
C200 H258 0.929 . S
C201 C198 1.356 . S
C201 C203 1.358 . S
C201 H259 0.930 . S
C202 N199 1.314 . S
C202 C200 1.353 . S
C202 H260 0.930 . S
C203 N199 1.279 . S
C203 C201 1.358 . S
C203 H261 0.930 . S
C204 C207 1.348 . S
C204 C208 1.356 . S
C204 O255 1.325 1_565 S
C205 N206 1.279 . S
C205 C208 1.358 . S
C205 H262 0.930 . S
N206 C205 1.279 . S
N206 C209 1.314 . S
C207 C204 1.348 . S
C207 C209 1.353 . S
C207 H263 0.929 . S
C208 C204 1.356 . S
C208 C205 1.358 . S
C208 H264 0.930 . S
C209 N206 1.314 . S
C209 C207 1.353 . S
C209 H265 0.930 . S
C210 N211 1.314 . S
C210 C215 1.353 . S
C210 H216 0.930 . S
N211 Li194 1.990 1_655 S
N211 C210 1.314 . S
N211 C213 1.279 . S
C212 C213 1.358 . S
C212 C214 1.356 . S
C212 H266 0.930 . S
C213 N211 1.279 . S
C213 C212 1.358 . S
C213 H217 0.930 . S
C214 C212 1.356 . S
C214 C215 1.348 . S
C215 C210 1.353 . S
C215 C214 1.348 . S
C215 H267 0.929 . S
H216 C210 0.930 . S
H217 C213 0.930 . S
C218 N219 1.314 . S
C218 C220 1.353 . S
C218 H224 0.930 . S
N219 Li195 1.990 . S
N219 C218 1.314 . S
N219 C222 1.279 . S
C220 C218 1.353 . S
C220 C223 1.348 . S
C220 H268 0.929 . S
C221 C222 1.358 . S
C221 C223 1.356 . S
C221 H269 0.930 . S
C222 N219 1.279 . S
C222 C221 1.358 . S
C222 H225 0.930 . S
C223 C220 1.348 . S
C223 C221 1.356 . S
H224 C218 0.930 . S
H225 C222 0.930 . S
C226 C228 1.348 . S
C226 C229 1.356 . S
C226 O256 1.325 1_655 S
N227 C230 1.314 . S
N227 C231 1.279 . S
C228 C226 1.348 . S
C228 C230 1.353 . S
C228 H270 0.929 . S
C229 C226 1.356 . S
C229 C231 1.358 . S
C229 H271 0.930 . S
C230 N227 1.314 . S
C230 C228 1.353 . S
C230 H272 0.930 . S
C231 N227 1.279 . S
C231 C229 1.358 . S
C231 H273 0.930 . S
C232 C233 1.348 . S
C232 C234 1.356 . S
C232 O257 1.325 . S
C233 C232 1.348 . S
C233 C235 1.353 . S
C233 H274 0.929 . S
C234 C232 1.356 . S
C234 C236 1.358 . S
C234 H275 0.930 . S
C235 C233 1.353 . S
C235 N237 1.314 . S
C235 H276 0.930 . S
C236 C234 1.358 . S
C236 N237 1.279 . S
C236 H277 0.930 . S
N237 C235 1.314 . S
N237 C236 1.279 . S
C238 C240 1.353 . S
C238 N241 1.314 . S
C238 H244 0.930 . S
C239 N241 1.279 . S
C239 C242 1.358 . S
C239 H245 0.930 . S
C240 C238 1.353 . S
C240 C243 1.348 . S
C240 H278 0.929 . S
N241 Li196 1.990 . S
N241 C238 1.314 . S
N241 C239 1.279 . S
C242 C239 1.358 . S
C242 C243 1.356 . S
C242 H279 0.930 . S
C243 C240 1.348 . S
C243 C242 1.356 . S
H244 C238 0.930 . S
H245 C239 0.930 . S
C246 N247 1.314 . S
C246 C248 1.353 . S
C246 H252 0.930 . S
N247 Li197 1.990 1_565 S
N247 C246 1.314 . S
N247 C250 1.279 . S
C248 C246 1.353 . S
C248 C251 1.348 . S
C248 H280 0.929 . S
C249 C250 1.358 . S
C249 C251 1.356 . S
C249 H281 0.930 . S
C250 N247 1.279 . S
C250 C249 1.358 . S
C250 H253 0.930 . S
C251 C248 1.348 . S
C251 C249 1.356 . S
H252 C246 0.930 . S
H253 C250 0.930 . S
O254 Li194 1.956 . S
O254 Li195 1.970 . S
O254 Li196 1.961 . S
O254 C198 1.325 . S
O255 Li194 1.970 . S
O255 Li195 1.956 . S
O255 Li197 1.961 . S
O255 C204 1.325 1_545 S
O256 Li194 1.961 . S
O256 Li196 1.956 . S
O256 Li197 1.970 . S
O256 C226 1.325 1_455 S
O257 Li195 1.961 . S
O257 Li196 1.970 . S
O257 Li197 1.956 . S
O257 C232 1.325 . S
H258 C200 0.929 . S
H259 C201 0.930 . S
H260 C202 0.930 . S
H261 C203 0.930 . S
H262 C205 0.930 . S
H263 C207 0.929 . S
H264 C208 0.930 . S
H265 C209 0.930 . S
H266 C212 0.930 . S
H267 C215 0.929 . S
H268 C220 0.929 . S
H269 C221 0.930 . S
H270 C228 0.929 . S
H271 C229 0.930 . S
H272 C230 0.930 . S
H273 C231 0.930 . S
H274 C233 0.929 . S
H275 C234 0.930 . S
H276 C235 0.930 . S
H277 C236 0.930 . S
H278 C240 0.929 . S
H279 C242 0.930 . S
H280 C248 0.929 . S
H281 C249 0.930 . S
C282 C283 1.387 . S
C282 H286 0.950 1_545 S
C282 C291 1.390 . S
C283 C282 1.387 . S
C283 C285 1.387 . S
H284 C291 0.933 1_565 S
C285 C283 1.387 . S
C285 C287 1.390 . S
C285 H289 0.950 . S
H286 C282 0.950 1_565 S
C287 C285 1.390 . S
C287 C288 1.387 . S
C287 H290 0.950 . S
C288 C287 1.387 . S
C288 C291 1.405 . S
H289 C285 0.950 . S
H290 C287 0.950 . S
C291 C282 1.390 . S
C291 H284 0.933 1_545 S
C291 C288 1.405 . S
C292 C293 1.387 . S
C292 H296 0.950 1_455 S
C292 C301 1.390 . S
C293 C292 1.387 . S
C293 C295 1.387 . S
H294 C301 0.950 1_655 S
C295 C293 1.387 . S
C295 C297 1.390 . S
C295 H299 0.950 . S
H296 C292 0.950 1_655 S
C297 C295 1.390 . S
C297 C298 1.387 . S
C297 H300 0.950 . S
C298 C297 1.387 . S
C298 C301 1.387 . S
H299 C295 0.950 . S
H300 C297 0.950 . S
C301 C292 1.390 . S
C301 H294 0.950 1_455 S
C301 C298 1.387 . S
C302 C303 1.387 . S
C302 H306 0.950 . S
C302 C311 1.390 . S
C303 C302 1.387 . S
C303 C305 1.387 . S
H304 C311 0.950 . S
C305 C303 1.387 . S
C305 C307 1.390 . S
C305 H309 0.950 1_545 S
H306 C302 0.950 . S
C307 C305 1.390 . S
C307 C308 1.387 . S
C307 H310 0.950 1_545 S
C308 C307 1.387 . S
C308 C311 1.387 . S
H309 C305 0.950 1_565 S
H310 C307 0.950 1_565 S
C311 C302 1.390 . S
C311 H304 0.950 . S
C311 C308 1.387 . S
C312 C313 1.387 . S
C312 H316 0.950 1_455 S
C312 C321 1.390 . S
C313 C312 1.387 . S
C313 C315 1.387 . S
H314 C321 0.950 1_655 S
C315 C313 1.387 . S
C315 C317 1.390 . S
C315 H319 0.950 . S
H316 C312 0.950 1_655 S
C317 C315 1.390 . S
C317 C318 1.387 . S
C317 H320 0.950 . S
C318 C317 1.387 . S
C318 C321 1.387 . S
H319 C315 0.950 . S
H320 C317 0.950 . S
C321 C312 1.390 . S
C321 H314 0.950 1_455 S
C321 C318 1.387 . S
C322 C323 1.387 . S
C322 H326 0.950 1_545 S
C322 C331 1.390 . S
C323 C322 1.387 . S
C323 C325 1.387 . S
H324 C331 0.950 1_565 S
C325 C323 1.387 . S
C325 C327 1.390 . S
C325 H329 0.950 . S
H326 C322 0.950 1_565 S
C327 C325 1.390 . S
C327 C328 1.387 . S
C327 H330 0.950 . S
C328 C327 1.387 . S
C328 C331 1.387 . S
H329 C325 0.950 . S
H330 C327 0.950 . S
C331 C322 1.390 . S
C331 H324 0.950 1_545 S
C331 C328 1.387 . S
C332 C333 1.387 . S
C332 H336 0.950 1_455 S
C332 C341 1.390 . S
C333 C332 1.387 . S
C333 C335 1.387 . S
H334 C341 0.950 1_655 S
C335 C333 1.387 . S
C335 C337 1.390 . S
C335 H339 0.950 . S
H336 C332 0.950 1_655 S
C337 C335 1.390 . S
C337 C338 1.387 . S
C337 H340 0.950 . S
C338 C337 1.387 . S
C338 C341 1.387 . S
H339 C335 0.950 . S
H340 C337 0.950 . S
C341 C332 1.390 . S
C341 H334 0.950 1_455 S
C341 C338 1.387 . S
C342 C343 1.387 . S
C342 H346 0.950 1_545 S
C342 C351 1.390 . S
C343 C342 1.387 . S
C343 C345 1.387 . S
H344 C351 0.950 1_565 S
C345 C343 1.387 . S
C345 C347 1.390 . S
C345 H349 0.950 . S
H346 C342 0.950 1_565 S
C347 C345 1.390 . S
C347 C348 1.387 . S
C347 H350 0.950 . S
C348 C347 1.387 . S
C348 C351 1.387 . S
H349 C345 0.950 . S
H350 C347 0.950 . S
C351 C342 1.390 . S
C351 H344 0.950 1_545 S
C351 C348 1.387 . S
C352 C353 1.387 . S
C352 H356 0.950 1_455 S
C352 C361 1.390 . S
C353 C352 1.387 . S
C353 C355 1.387 . S
H354 C361 0.950 1_655 S
C355 C353 1.387 . S
C355 C357 1.390 . S
C355 H359 0.950 . S
H356 C352 0.950 1_655 S
C357 C355 1.390 . S
C357 C358 1.387 . S
C357 H360 0.950 . S
C358 C357 1.387 . S
C358 C361 1.387 . S
H359 C355 0.950 . S
H360 C357 0.950 . S
C361 C352 1.390 . S
C361 H354 0.950 1_455 S
C361 C358 1.387 . S
C288 C155 1.494 . S
C283 C22 1.494 . S
C298 C243 1.491 . S
C293 C91 1.491 . S
C308 C163 1.491 . S
C303 C38 1.491 . S
C318 C251 1.493 . S
C313 C75 1.494 . S
C328 C223 1.491 . S
C323 C39 1.491 . S
C338 C126 1.493 . S
C333 C82 1.494 . S
C348 C214 1.494 . S
C343 C29 1.494 . S
C353 C92 1.491 . S
C358 C135 1.491 . S
