# Generated by pormake.
# Topology anh, (6,3)-cn, num edge types: 1
# Building blocks:
#     Node 0, Type 0, BuildingBlock: CUKXOW_clean_sbu_0, # of connection points: 6
#     Node 1, Type 0, BuildingBlock: CUKXOW_clean_sbu_0, # of connection points: 6
#     Node 2, Type 0, BuildingBlock: CUKXOW_clean_sbu_0, # of connection points: 6
#     Node 3, Type 1, BuildingBlock: OLANEW_clean_sbu_2, # of connection points: 3
#     Node 4, Type 1, BuildingBlock: OLANEW_clean_sbu_2, # of connection points: 3
#     Node 5, Type 1, BuildingBlock: OLANEW_clean_sbu_2, # of connection points: 3
#     Node 6, Type 1, BuildingBlock: OLANEW_clean_sbu_2, # of connection points: 3
#     Node 7, Type 1, BuildingBlock: OLANEW_clean_sbu_2, # of connection points: 3
#     Node 8, Type 1, BuildingBlock: OLANEW_clean_sbu_2, # of connection points: 3
#     Edge 9, Type (0, 1), BuildingBlock: XUDNAN_clean_linker_2, # of connection points: 2
#     Edge 10, Type (0, 1), BuildingBlock: XUDNAN_clean_linker_2, # of connection points: 2
#     Edge 11, Type (0, 1), BuildingBlock: XUDNAN_clean_linker_2, # of connection points: 2
#     Edge 12, Type (0, 1), BuildingBlock: XUDNAN_clean_linker_2, # of connection points: 2
#     Edge 13, Type (0, 1), BuildingBlock: XUDNAN_clean_linker_2, # of connection points: 2
#     Edge 14, Type (0, 1), BuildingBlock: XUDNAN_clean_linker_2, # of connection points: 2
#     Edge 15, Type (0, 1), BuildingBlock: XUDNAN_clean_linker_2, # of connection points: 2
#     Edge 16, Type (0, 1), BuildingBlock: XUDNAN_clean_linker_2, # of connection points: 2
#     Edge 17, Type (0, 1), BuildingBlock: XUDNAN_clean_linker_2, # of connection points: 2
#     Edge 18, Type (0, 1), BuildingBlock: XUDNAN_clean_linker_2, # of connection points: 2
#     Edge 19, Type (0, 1), BuildingBlock: XUDNAN_clean_linker_2, # of connection points: 2
#     Edge 20, Type (0, 1), BuildingBlock: XUDNAN_clean_linker_2, # of connection points: 2
#     Edge 21, Type (0, 1), BuildingBlock: XUDNAN_clean_linker_2, # of connection points: 2
#     Edge 22, Type (0, 1), BuildingBlock: XUDNAN_clean_linker_2, # of connection points: 2
#     Edge 23, Type (0, 1), BuildingBlock: XUDNAN_clean_linker_2, # of connection points: 2
#     Edge 24, Type (0, 1), BuildingBlock: XUDNAN_clean_linker_2, # of connection points: 2
#     Edge 25, Type (0, 1), BuildingBlock: XUDNAN_clean_linker_2, # of connection points: 2
#     Edge 26, Type (0, 1), BuildingBlock: XUDNAN_clean_linker_2, # of connection points: 2
# Relax obj value: 0.080
# Max RMSD: 0.150
# Mean RMSD: 0.110
data_MOF--net-anh--node1-CUKXOW_clean_sbu_0--node2-OLANEW_clean_sbu_2--edge1-XUDNAN_clean_linker_2
_symmetry_space_group_name_H-M    P1
_symmetry_Int_Tables_number       1
_symmetry_cell_setting            triclinic
loop_
_symmetry_equiv_pos_as_xyz
'x, y, z'
_cell_length_a     32.906752
_cell_length_b     31.652814
_cell_length_c     49.96013
_cell_angle_alpha  95.182784
_cell_angle_beta   90.065207
_cell_angle_gamma 116.32648
loop_
_atom_site_label
_atom_site_type_symbol
_atom_site_fract_x
_atom_site_fract_y
_atom_site_fract_z
_atom_type_partial_charge
Tb0 Tb 0.06983 0.57472 0.16395 0.0
C1 C 0.04447 0.52789 0.21879 0.0
Tb2 Tb 0.99585 0.47162 0.16259 0.0
O3 O 0.01782 0.59751 0.15331 0.0
O4 O 0.00176 0.53941 0.17473 0.0
O5 O 0.07209 0.56456 0.20618 0.0
C6 C 0.91653 0.39569 0.16466 0.0
O7 O 0.01194 0.48827 0.20614 0.0
C8 C 0.07447 0.48121 0.14545 0.0
C9 C 0.01977 0.52324 0.10949 0.0
O10 O 0.95539 0.39923 0.17333 0.0
O11 O 0.92263 0.4347 0.15507 0.0
O12 O 0.03596 0.44547 0.1377 0.0
O13 O 0.06801 0.50674 0.16419 0.0
O14 O 0.9874 0.49101 0.1226 0.0
O15 O 0.05873 0.55487 0.12122 0.0
C16 C 0.14778 0.65357 0.16686 0.0
O17 O 0.10983 0.65045 0.17617 0.0
O18 O 0.14199 0.61222 0.15619 0.0
C19 C 0.98519 0.5625 0.16352 0.0
Tb20 Tb 0.47349 0.98475 0.5016 0.0
C21 C 0.52845 0.02376 0.45017 0.0
Tb22 Tb 0.57571 0.05462 0.50771 0.0
O23 O 0.45696 0.04173 0.51889 0.0
O24 O 0.51497 0.05703 0.49753 0.0
O25 O 0.49421 0.98731 0.45966 0.0
C26 C 0.65338 0.13345 0.51818 0.0
O27 O 0.55948 0.05919 0.46623 0.0
C28 C 0.55685 0.96534 0.49678 0.0
C29 C 0.52136 0.0121 0.55963 0.0
O30 O 0.64824 0.09664 0.50212 0.0
O31 O 0.61495 0.12548 0.52875 0.0
O32 O 0.59495 0.99981 0.49104 0.0
O33 O 0.53496 0.98213 0.51098 0.0
O34 O 0.55851 0.04508 0.54999 0.0
O35 O 0.48556 0.98205 0.54407 0.0
C36 C 0.39204 0.90995 0.49216 0.0
O37 O 0.4001 0.95403 0.49259 0.0
O38 O 0.42998 0.90796 0.49661 0.0
C39 C 0.49429 0.07535 0.51153 0.0
Tb40 Tb 0.49357 0.53162 0.84052 0.0
C41 C 0.5584 0.53774 0.88866 0.0
Tb42 Tb 0.58783 0.54419 0.82953 0.0
O43 O 0.46601 0.46288 0.8166 0.0
O44 O 0.52702 0.48737 0.83908 0.0
O45 O 0.52528 0.54761 0.88089 0.0
C46 C 0.65712 0.52872 0.81205 0.0
O47 O 0.58374 0.52754 0.87108 0.0
C48 C 0.58335 0.623 0.84634 0.0
C49 C 0.52389 0.54544 0.78163 0.0
O50 O 0.66061 0.56741 0.82534 0.0
O51 O 0.61463 0.49878 0.80857 0.0
O52 O 0.61871 0.6158 0.85026 0.0
O53 O 0.55481 0.58874 0.83105 0.0
O54 O 0.56071 0.54099 0.7887 0.0
O55 O 0.49488 0.54792 0.79934 0.0
C56 C 0.41567 0.52941 0.85696 0.0
O57 O 0.42848 0.49656 0.8589 0.0
O58 O 0.44717 0.56429 0.84603 0.0
C59 C 0.49998 0.45459 0.82244 0.0
O60 O 0.5719 0.0173 0.23884 0.0
Cd61 Cd 0.58448 0.00466 0.19135 0.0
O62 O 0.55924 0.9464 0.24881 0.0
Cd63 Cd 0.54938 0.91997 0.20642 0.0
O64 O 0.48593 0.88166 0.18274 0.0
C65 C 0.45956 0.9013 0.18345 0.0
O66 O 0.47438 0.9445 0.19547 0.0
C67 C 0.56488 0.98816 0.25623 0.0
C68 C 0.64989 0.09101 0.17698 0.0
O69 O 0.60744 0.07935 0.17386 0.0
O70 O 0.66139 0.0611 0.18609 0.0
O71 O 0.50789 0.50207 0.57412 0.0
Cd72 Cd 0.50179 0.47754 0.5261 0.0
O73 O 0.46336 0.53673 0.57078 0.0
Cd74 Cd 0.46864 0.54166 0.52758 0.0
O75 O 0.48534 0.60267 0.50495 0.0
C76 C 0.47405 0.63287 0.51682 0.0
O77 O 0.4526 0.62296 0.5393 0.0
C78 C 0.48562 0.52241 0.58521 0.0
C79 C 0.51136 0.39406 0.51928 0.0
O80 O 0.54527 0.43446 0.51752 0.0
O81 O 0.47258 0.39296 0.5237 0.0
O82 O 0.01958 0.54144 0.89849 0.0
Cd83 Cd 0.0362 0.53223 0.85137 0.0
O84 O 0.99435 0.46549 0.90293 0.0
Cd85 Cd 0.98093 0.44868 0.85958 0.0
O86 O 0.93301 0.44979 0.82985 0.0
C87 C 0.92609 0.48628 0.83341 0.0
O88 O 0.94977 0.51953 0.85264 0.0
C89 C 0.00664 0.50771 0.91343 0.0
C90 C 0.11495 0.5206 0.85205 0.0
O91 O 0.11696 0.56169 0.85056 0.0
O92 O 0.07574 0.4851 0.85204 0.0
O93 O 0.03968 0.49294 0.42404 0.0
Cd94 Cd 0.05522 0.50773 0.47266 0.0
O95 O 0.00835 0.54148 0.42988 0.0
Cd96 Cd 0.98412 0.51682 0.46897 0.0
O97 O 0.93453 0.46478 0.49297 0.0
C98 C 0.92226 0.42142 0.48492 0.0
O99 O 0.94155 0.41102 0.46401 0.0
C100 C 0.02553 0.52009 0.41446 0.0
C101 C 0.12058 0.6025 0.48166 0.0
O102 O 0.13222 0.56876 0.47894 0.0
O103 O 0.07809 0.5914 0.48122 0.0
O104 O 0.54112 0.99137 0.77122 0.0
Cd105 Cd 0.54235 0.99302 0.82025 0.0
O106 O 0.57833 0.06712 0.76456 0.0
Cd107 Cd 0.58287 0.10201 0.80497 0.0
O108 O 0.56964 0.16385 0.81378 0.0
C109 C 0.54234 0.1652 0.79621 0.0
O110 O 0.52521 0.13029 0.77684 0.0
C111 C 0.55826 0.02365 0.75542 0.0
C112 C 0.55824 0.9182 0.83536 0.0
O113 O 0.51814 0.91151 0.8285 0.0
O114 O 0.59059 0.96017 0.8354 0.0
O115 O 0.58532 0.55173 0.1027 0.0
Cd116 Cd 0.60259 0.56385 0.15111 0.0
O117 O 0.51686 0.54552 0.09266 0.0
Cd118 Cd 0.48126 0.54825 0.12946 0.0
O119 O 0.41139 0.53736 0.13735 0.0
C120 C 0.38367 0.51527 0.1174 0.0
O121 O 0.39911 0.50129 0.09584 0.0
C122 C 0.55445 0.54655 0.08552 0.0
C123 C 0.68255 0.5546 0.15978 0.0
O124 O 0.64338 0.52015 0.16222 0.0
O125 O 0.68417 0.5938 0.15378 0.0
H126 H 0.15877 0.52812 0.17226 0.0
H127 H 0.08938 0.44239 0.09854 0.0
H128 H 0.1609 0.44278 0.08353 0.0
H129 H 0.26658 0.59962 0.14361 0.0
H130 H 0.30076 0.59969 0.17185 0.0
H131 H 0.24474 0.59502 0.17687 0.0
H132 H 0.22201 0.51781 0.1992 0.0
H133 H 0.27799 0.52217 0.19461 0.0
H134 H 0.22878 0.4693 0.18146 0.0
H135 H 0.2383 0.45036 0.07676 0.0
H136 H 0.31817 0.46514 0.07816 0.0
H137 H 0.33929 0.54436 0.15681 0.0
C138 C 0.15898 0.51005 0.15282 0.0
C139 C 0.11871 0.48541 0.13642 0.0
C140 C 0.11992 0.46146 0.11135 0.0
C141 C 0.16035 0.46148 0.10266 0.0
C142 C 0.19931 0.48526 0.1194 0.0
C143 C 0.19914 0.50907 0.14397 0.0
C144 C 0.24567 0.53018 0.15835 0.0
C145 C 0.2656 0.58436 0.16292 0.0
C146 C 0.24346 0.50856 0.18498 0.0
C147 C 0.27194 0.51484 0.13792 0.0
C148 C 0.24433 0.48896 0.11565 0.0
C149 C 0.26033 0.47068 0.09406 0.0
C150 C 0.30589 0.4793 0.09509 0.0
C151 C 0.33525 0.50598 0.11758 0.0
C152 C 0.31781 0.52381 0.13935 0.0
H153 H 0.73066 0.1577 0.49054 0.0
H154 H 0.66751 0.21301 0.55101 0.0
H155 H 0.73319 0.29224 0.55208 0.0
H156 H 0.84938 0.23062 0.51546 0.0
H157 H 0.86983 0.23822 0.48193 0.0
H158 H 0.82041 0.18508 0.48832 0.0
H159 H 0.77413 0.2001 0.45152 0.0
H160 H 0.82325 0.25329 0.44509 0.0
H161 H 0.77112 0.2558 0.45367 0.0
H162 H 0.80314 0.36679 0.54373 0.0
H163 H 0.87068 0.43049 0.52625 0.0
H164 H 0.88689 0.32588 0.47076 0.0
C165 C 0.73117 0.18626 0.50444 0.0
C166 C 0.69441 0.17931 0.52093 0.0
C167 C 0.69568 0.21765 0.53843 0.0
C168 C 0.73281 0.26271 0.53917 0.0
C169 C 0.76828 0.26866 0.52228 0.0
C170 C 0.76778 0.2314 0.50529 0.0
C171 C 0.80835 0.24771 0.48775 0.0
C172 C 0.8388 0.224 0.49373 0.0
C173 C 0.7933 0.2387 0.45774 0.0
C174 C 0.83137 0.30013 0.49712 0.0
C175 C 0.80806 0.31152 0.51723 0.0
C176 C 0.82192 0.35818 0.52818 0.0
C177 C 0.86031 0.39413 0.51811 0.0
C178 C 0.8842 0.38323 0.49717 0.0
C179 C 0.86966 0.33545 0.48689 0.0
H180 H 0.51907 0.6495 0.82981 0.0
H181 H 0.64952 0.70272 0.87295 0.0
H182 H 0.65493 0.78339 0.87727 0.0
H183 H 0.5464 0.74581 0.79203 0.0
H184 H 0.49182 0.74614 0.79369 0.0
H185 H 0.49612 0.69184 0.79602 0.0
H186 H 0.4567 0.68155 0.84145 0.0
H187 H 0.45198 0.73572 0.83921 0.0
H188 H 0.47963 0.72866 0.86846 0.0
H189 H 0.64997 0.859 0.87298 0.0
H190 H 0.63296 0.92444 0.86263 0.0
H191 H 0.50437 0.82254 0.82365 0.0
C192 C 0.54831 0.67802 0.84061 0.0
C193 C 0.58391 0.66998 0.85108 0.0
C194 C 0.62189 0.70818 0.86481 0.0
C195 C 0.62525 0.7541 0.86738 0.0
C196 C 0.59009 0.76112 0.85635 0.0
C197 C 0.55208 0.72412 0.8435 0.0
C198 C 0.52 0.74171 0.83252 0.0
C199 C 0.51321 0.73072 0.80174 0.0
C200 C 0.47438 0.72066 0.84623 0.0
C201 C 0.54647 0.79453 0.84065 0.0
C202 C 0.58676 0.80487 0.85442 0.0
C203 C 0.61823 0.85133 0.86259 0.0
C204 C 0.60835 0.88828 0.85652 0.0
C205 C 0.56722 0.87862 0.84254 0.0
C206 C 0.53577 0.83101 0.83475 0.0
H207 H 0.94325 0.61061 0.14136 0.0
H208 H 0.92007 0.49781 0.19153 0.0
H209 H 0.8401 0.48237 0.19503 0.0
H210 H 0.8741 0.65524 0.17875 0.0
H211 H 0.85294 0.66998 0.14948 0.0
H212 H 0.908 0.67072 0.14962 0.0
H213 H 0.88387 0.61208 0.10635 0.0
H214 H 0.82875 0.61119 0.10606 0.0
H215 H 0.83342 0.55655 0.10588 0.0
H216 H 0.76236 0.47795 0.19254 0.0
H217 H 0.69285 0.48823 0.18655 0.0
H218 H 0.76691 0.60775 0.14094 0.0
C219 C 0.9212 0.58259 0.15297 0.0
C220 C 0.93752 0.55455 0.16559 0.0
C221 C 0.90794 0.51877 0.18102 0.0
C222 C 0.86251 0.50994 0.1833 0.0
C223 C 0.84727 0.53785 0.17048 0.0
C224 C 0.87574 0.5738 0.15585 0.0
C225 C 0.85095 0.59961 0.1449 0.0
C226 C 0.8728 0.65199 0.15638 0.0
C227 C 0.84914 0.59454 0.11396 0.0
C228 C 0.80422 0.57253 0.15567 0.0
C229 C 0.80279 0.53675 0.17013 0.0
C230 C 0.7631 0.50606 0.18142 0.0
C231 C 0.72378 0.51212 0.17788 0.0
C232 C 0.72453 0.54899 0.16349 0.0
C233 C 0.76543 0.57962 0.15233 0.0
H234 H 0.37109 0.81648 0.49404 0.0
H235 H 0.31054 0.91124 0.48409 0.0
H236 H 0.23412 0.84311 0.48111 0.0
H237 H 0.29496 0.71909 0.44876 0.0
H238 H 0.2931 0.67437 0.46933 0.0
H239 H 0.34279 0.73062 0.47094 0.0
H240 H 0.33596 0.74323 0.52267 0.0
H241 H 0.28692 0.68653 0.5209 0.0
H242 H 0.28338 0.73896 0.53549 0.0
H243 H 0.16414 0.76443 0.4802 0.0
H244 H 0.10635 0.68104 0.47904 0.0
H245 H 0.21298 0.63765 0.48907 0.0
C246 C 0.34172 0.82278 0.49119 0.0
C247 C 0.3466 0.86899 0.48926 0.0
C248 C 0.30746 0.87601 0.48554 0.0
C249 C 0.26396 0.83758 0.48391 0.0
C250 C 0.26026 0.79241 0.48612 0.0
C251 C 0.2981 0.78484 0.48963 0.0
C252 C 0.28483 0.73285 0.49144 0.0
C253 C 0.30512 0.71308 0.46876 0.0
C254 C 0.29859 0.72493 0.51928 0.0
C255 C 0.23373 0.7122 0.48779 0.0
C256 C 0.22014 0.74718 0.48514 0.0
C257 C 0.17444 0.73675 0.48218 0.0
C258 C 0.14185 0.68928 0.48166 0.0
C259 C 0.1551 0.65276 0.48392 0.0
C260 C 0.20172 0.66466 0.48717 0.0
H261 H 0.55845 0.42234 0.84177 0.0
H262 H 0.44698 0.38644 0.78376 0.0
H263 H 0.44732 0.30967 0.77032 0.0
H264 H 0.61716 0.36484 0.80113 0.0
H265 H 0.6338 0.34519 0.8301 0.0
H266 H 0.6266 0.39862 0.83353 0.0
H267 H 0.56949 0.36399 0.87082 0.0
H268 H 0.57593 0.31019 0.86682 0.0
H269 H 0.52035 0.30769 0.86339 0.0
H270 H 0.45737 0.23644 0.76419 0.0
H271 H 0.4769 0.17008 0.7652 0.0
H272 H 0.58134 0.25131 0.82776 0.0
C273 C 0.53454 0.39845 0.82603 0.0
C274 C 0.50267 0.41017 0.81372 0.0
C275 C 0.47159 0.37801 0.79341 0.0
C276 C 0.47158 0.3344 0.78562 0.0
C277 C 0.50288 0.3235 0.79836 0.0
C278 C 0.53395 0.35452 0.81805 0.0
C279 C 0.56289 0.33311 0.82904 0.0
C280 C 0.61309 0.36219 0.8231 0.0
C281 C 0.55678 0.32847 0.85931 0.0
C282 C 0.5426 0.28492 0.81276 0.0
C283 C 0.50831 0.28049 0.79506 0.0
C284 C 0.48425 0.23947 0.77789 0.0
C285 C 0.4956 0.20191 0.77866 0.0
C286 C 0.53058 0.20534 0.7966 0.0
C287 C 0.55428 0.24748 0.81393 0.0
H288 H 0.50132 0.89624 0.52658 0.0
H289 H 0.59 0.92147 0.45961 0.0
H290 H 0.57496 0.83703 0.45524 0.0
H291 H 0.53868 0.82164 0.55621 0.0
H292 H 0.48384 0.78364 0.5679 0.0
H293 H 0.49824 0.84454 0.56392 0.0
H294 H 0.427 0.81812 0.53199 0.0
H295 H 0.41245 0.75734 0.53659 0.0
H296 H 0.4183 0.77585 0.50315 0.0
H297 H 0.55154 0.74982 0.45953 0.0
H298 H 0.52505 0.66895 0.47337 0.0
H299 H 0.45442 0.70347 0.53861 0.0
C300 C 0.51694 0.88376 0.5107 0.0
C301 C 0.54638 0.91489 0.4932 0.0
C302 C 0.56717 0.89781 0.4731 0.0
C303 C 0.55873 0.85002 0.47045 0.0
C304 C 0.52983 0.82019 0.48828 0.0
C305 C 0.50952 0.83658 0.50811 0.0
C306 C 0.4826 0.79854 0.52598 0.0
C307 C 0.50202 0.81296 0.55523 0.0
C308 C 0.43208 0.78682 0.5243 0.0
C309 C 0.49058 0.75797 0.51307 0.0
C310 C 0.51765 0.7709 0.49125 0.0
C311 C 0.53017 0.73929 0.47652 0.0
C312 C 0.51491 0.69343 0.48449 0.0
C313 C 0.48762 0.67983 0.50705 0.0
C314 C 0.4751 0.71259 0.52124 0.0
H315 H 0.74647 0.5852 0.82462 0.0
H316 H 0.65337 0.44808 0.78506 0.0
H317 H 0.71673 0.42648 0.7793 0.0
H318 H 0.84877 0.60008 0.78536 0.0
H319 H 0.88603 0.62731 0.81487 0.0
H320 H 0.83531 0.63504 0.81108 0.0
H321 H 0.80956 0.60276 0.85716 0.0
H322 H 0.85994 0.59488 0.86105 0.0
H323 H 0.80494 0.54536 0.8628 0.0
H324 H 0.7877 0.41593 0.78397 0.0
H325 H 0.85893 0.41621 0.8 0.0
H326 H 0.90505 0.56051 0.8365 0.0
C327 C 0.73977 0.55124 0.81397 0.0
C328 C 0.69536 0.51832 0.80512 0.0
C329 C 0.68742 0.47379 0.79183 0.0
C330 C 0.72319 0.46138 0.78836 0.0
C331 C 0.76661 0.4942 0.79804 0.0
C332 C 0.77503 0.53839 0.81042 0.0
C333 C 0.82327 0.56508 0.82192 0.0
C334 C 0.84992 0.60951 0.80743 0.0
C335 C 0.82446 0.57771 0.85253 0.0
C336 C 0.84009 0.52819 0.81527 0.0
C337 C 0.80736 0.48792 0.80098 0.0
C338 C 0.81392 0.44761 0.79469 0.0
C339 C 0.85447 0.44807 0.80388 0.0
C340 C 0.88751 0.48839 0.81948 0.0
C341 C 0.88062 0.52929 0.82443 0.0
H342 H 0.23257 0.66146 0.15864 0.0
H343 H 0.15886 0.74423 0.17686 0.0
H344 H 0.23065 0.81808 0.1778 0.0
H345 H 0.32814 0.73534 0.20377 0.0
H346 H 0.36785 0.72563 0.18232 0.0
H347 H 0.3098 0.68142 0.1818 0.0
H348 H 0.30533 0.68497 0.12977 0.0
H349 H 0.36284 0.73104 0.13119 0.0
H350 H 0.31755 0.74079 0.1172 0.0
H351 H 0.31082 0.88234 0.17904 0.0
H352 H 0.39365 0.93188 0.18438 0.0
H353 H 0.41493 0.8066 0.16627 0.0
C354 C 0.23161 0.69519 0.16257 0.0
C355 C 0.19042 0.69745 0.16749 0.0
C356 C 0.19027 0.74199 0.173 0.0
C357 C 0.23076 0.78402 0.1734 0.0
C358 C 0.27097 0.78066 0.16848 0.0
C359 C 0.27177 0.73736 0.1635 0.0
C360 C 0.31982 0.7433 0.1612 0.0
C361 C 0.33214 0.72006 0.18359 0.0
C362 C 0.32678 0.72387 0.13317 0.0
C363 C 0.34596 0.79668 0.1655 0.0
C364 C 0.31719 0.81764 0.16951 0.0
C365 C 0.33367 0.86637 0.17569 0.0
C366 C 0.3808 0.89421 0.17866 0.0
C367 C 0.41081 0.87316 0.17566 0.0
C368 C 0.39299 0.8239 0.16831 0.0
H369 H 0.44368 0.12027 0.53126 0.0
H370 H 0.5696 0.14469 0.49317 0.0
H371 H 0.58885 0.22904 0.49293 0.0
H372 H 0.41878 0.19574 0.49241 0.0
H373 H 0.39457 0.21749 0.51941 0.0
H374 H 0.39214 0.15948 0.5191 0.0
H375 H 0.43198 0.18228 0.56659 0.0
H376 H 0.43431 0.24031 0.5671 0.0
H377 H 0.48563 0.23436 0.57244 0.0
H378 H 0.5941 0.31 0.49557 0.0
H379 H 0.58368 0.3828 0.49966 0.0
H380 H 0.45226 0.30623 0.53331 0.0
C381 C 0.47556 0.14362 0.52327 0.0
C382 C 0.50571 0.12618 0.51286 0.0
C383 C 0.54658 0.15748 0.50193 0.0
C384 C 0.55773 0.20548 0.50153 0.0
C385 C 0.52728 0.22161 0.51175 0.0
C386 C 0.48691 0.19174 0.52229 0.0
C387 C 0.45919 0.21796 0.53052 0.0
C388 C 0.41347 0.19638 0.51439 0.0
C389 C 0.45239 0.21878 0.56098 0.0
C390 C 0.49021 0.26696 0.52278 0.0
C391 C 0.52948 0.26827 0.51225 0.0
C392 C 0.56349 0.3095 0.50378 0.0
C393 C 0.55726 0.35066 0.50617 0.0
C394 C 0.51711 0.35014 0.51667 0.0
C395 C 0.48317 0.30762 0.52502 0.0
H396 H 0.38006 0.5911 0.84866 0.0
H397 H 0.34737 0.45385 0.87605 0.0
H398 H 0.2672 0.43801 0.87902 0.0
H399 H 0.29897 0.61597 0.89095 0.0
H400 H 0.28521 0.64448 0.86517 0.0
H401 H 0.34082 0.64676 0.8674 0.0
H402 H 0.33067 0.61124 0.8177 0.0
H403 H 0.27483 0.60819 0.81536 0.0
H404 H 0.28238 0.55552 0.80732 0.0
H405 H 0.19028 0.43323 0.87452 0.0
H406 H 0.12099 0.44298 0.86722 0.0
H407 H 0.20283 0.58437 0.84409 0.0
C408 C 0.3561 0.55822 0.85583 0.0
C409 C 0.36966 0.52366 0.86217 0.0
C410 C 0.33753 0.4808 0.87119 0.0
C411 C 0.29195 0.47143 0.8729 0.0
C412 C 0.27927 0.50554 0.86576 0.0
C413 C 0.31039 0.5484 0.85782 0.0
C414 C 0.28732 0.5782 0.85051 0.0
C415 C 0.30407 0.62407 0.86966 0.0
C416 C 0.29422 0.58889 0.82097 0.0
C417 C 0.23831 0.54483 0.85494 0.0
C418 C 0.23456 0.50314 0.86371 0.0
C419 C 0.19273 0.46594 0.86802 0.0
C420 C 0.15356 0.47171 0.86363 0.0
C421 C 0.15655 0.51446 0.85516 0.0
C422 C 0.19954 0.55143 0.85075 0.0
H423 H 0.89798 0.30856 0.18101 0.0
H424 H 0.83511 0.3888 0.14816 0.0
H425 H 0.7604 0.31892 0.14661 0.0
H426 H 0.82931 0.1974 0.14189 0.0
H427 H 0.82568 0.16182 0.16883 0.0
H428 H 0.87447 0.21816 0.16747 0.0
H429 H 0.86096 0.24566 0.21565 0.0
H430 H 0.8123 0.18932 0.21722 0.0
H431 H 0.80644 0.24334 0.22306 0.0
H432 H 0.69274 0.24092 0.14862 0.0
H433 H 0.63575 0.15997 0.1553 0.0
H434 H 0.74218 0.12975 0.18666 0.0
C435 C 0.86841 0.3113 0.17356 0.0
C436 C 0.87216 0.35388 0.16465 0.0
C437 C 0.83287 0.35635 0.15502 0.0
C438 C 0.79033 0.31689 0.15403 0.0
C439 C 0.7877 0.27524 0.16274 0.0
C440 C 0.82558 0.27213 0.17241 0.0
C441 C 0.81316 0.22316 0.18072 0.0
C442 C 0.83708 0.1987 0.16371 0.0
C443 C 0.82385 0.22553 0.21096 0.0
C444 C 0.76245 0.19938 0.17425 0.0
C445 C 0.74852 0.23006 0.16386 0.0
C446 C 0.70319 0.21649 0.1567 0.0
C447 C 0.67109 0.17041 0.16054 0.0
C448 C 0.68448 0.13846 0.17142 0.0
C449 C 0.73088 0.1532 0.17813 0.0
H450 H 0.98926 0.45302 0.06741 0.0
H451 H 0.03472 0.60354 0.08812 0.0
H452 H 0.03042 0.61461 0.04013 0.0
H453 H 0.05499 0.46575 0.01078 0.0
H454 H 0.0139 0.4142 0.99061 0.0
H455 H 0.01414 0.41636 0.02673 0.0
H456 H 0.92977 0.40031 0.02575 0.0
H457 H 0.92913 0.3977 0.98955 0.0
H458 H 0.91278 0.43824 0.00878 0.0
H459 H 0.02768 0.61107 0.99057 0.0
H460 H 0.02676 0.59324 0.94152 0.0
H461 H 0.98543 0.44514 0.95199 0.0
C462 C 0.99701 0.48792 0.06172 0.0
C463 C 0.01177 0.52742 0.08121 0.0
C464 C 0.02314 0.57295 0.07328 0.0
C465 C 0.02069 0.57954 0.04615 0.0
C466 C 0.00717 0.54023 0.02724 0.0
C467 C 0.99548 0.49527 0.03455 0.0
C468 C 0.98604 0.46002 0.00993 0.0
C469 C 0.01925 0.43779 0.0095 0.0
C470 C 0.93647 0.42181 0.00842 0.0
C471 C 0.99489 0.49239 0.98778 0.0
C472 C 0.00662 0.53837 0.99828 0.0
C473 C 0.01811 0.57511 0.98202 0.0
C474 C 0.01764 0.56463 0.95418 0.0
C475 C 0.00597 0.5178 0.94287 0.0
C476 C 0.99423 0.48124 0.95998 0.0
H477 H 0.50394 0.95096 0.4099 0.0
H478 H 0.56215 0.10407 0.42501 0.0
H479 H 0.57505 0.1112 0.37667 0.0
H480 H 0.58281 0.94946 0.36259 0.0
H481 H 0.54271 0.89911 0.34118 0.0
H482 H 0.53333 0.90524 0.37651 0.0
H483 H 0.45415 0.89988 0.36536 0.0
H484 H 0.46309 0.89326 0.32996 0.0
H485 H 0.44939 0.93989 0.34347 0.0
H486 H 0.58479 0.10238 0.32751 0.0
H487 H 0.5916 0.07805 0.28009 0.0
H488 H 0.53046 0.93076 0.29684 0.0
C489 C 0.51845 0.98583 0.40285 0.0
C490 C 0.53174 0.02696 0.42101 0.0
C491 C 0.55173 0.07215 0.41131 0.0
C492 C 0.55909 0.07656 0.38393 0.0
C493 C 0.54661 0.03545 0.36657 0.0
C494 C 0.52673 0.99093 0.37556 0.0
C495 C 0.51931 0.95276 0.35286 0.0
C496 C 0.54615 0.92503 0.35864 0.0
C497 C 0.46846 0.91949 0.3476 0.0
C498 C 0.5386 0.9829 0.32986 0.0
C499 C 0.55368 0.03044 0.33819 0.0
C500 C 0.57299 0.06525 0.32067 0.0
C501 C 0.57678 0.05108 0.2938 0.0
C502 C 0.56177 0.00256 0.2848 0.0
C503 C 0.54256 0.96815 0.30316 0.0
H504 H 0.55894 0.51838 0.73714 0.0
H505 H 0.46807 0.57929 0.76178 0.0
H506 H 0.44978 0.58138 0.71424 0.0
H507 H 0.6013 0.58422 0.67895 0.0
H508 H 0.60284 0.53475 0.65885 0.0
H509 H 0.61063 0.54021 0.69491 0.0
H510 H 0.54432 0.45625 0.69618 0.0
H511 H 0.53615 0.45062 0.66015 0.0
H512 H 0.48951 0.44298 0.68129 0.0
H513 H 0.43964 0.57508 0.66441 0.0
H514 H 0.43822 0.5607 0.61504 0.0
H515 H 0.53454 0.50247 0.62249 0.0
C516 C 0.53563 0.53268 0.73252 0.0
C517 C 0.51498 0.54873 0.75314 0.0
C518 C 0.48416 0.5666 0.7463 0.0
C519 C 0.47363 0.56807 0.71936 0.0
C520 C 0.49406 0.55139 0.69952 0.0
C521 C 0.52441 0.53405 0.70569 0.0
C522 C 0.54035 0.51683 0.68045 0.0
C523 C 0.59184 0.54574 0.67816 0.0
C524 C 0.52675 0.46351 0.67947 0.0
C525 C 0.514 0.52701 0.65916 0.0
C526 C 0.48769 0.54714 0.67063 0.0
C527 C 0.46015 0.55943 0.65514 0.0
C528 C 0.45954 0.55105 0.62711 0.0
C529 C 0.48619 0.53037 0.61486 0.0
C530 C 0.5137 0.51822 0.63121 0.0
H531 H 0.57296 0.07628 0.60152 0.0
H532 H 0.47079 0.9309 0.58259 0.0
H533 H 0.47293 0.91677 0.63016 0.0
H534 H 0.63812 0.05361 0.65176 0.0
H535 H 0.64914 0.10669 0.67336 0.0
H536 H 0.64106 0.1052 0.63754 0.0
H537 H 0.57624 0.12977 0.64512 0.0
H538 H 0.58439 0.13173 0.68093 0.0
H539 H 0.52922 0.09525 0.66478 0.0
H540 H 0.48609 0.91808 0.67961 0.0
H541 H 0.50418 0.93691 0.72846 0.0
H542 H 0.59596 0.0821 0.71563 0.0
C543 C 0.55115 0.04147 0.60741 0.0
C544 C 0.52171 0.00473 0.58838 0.0
C545 C 0.49335 0.95975 0.59686 0.0
C546 C 0.49456 0.95122 0.62381 0.0
C547 C 0.52406 0.98811 0.64205 0.0
C548 C 0.55148 0.03249 0.63432 0.0
C549 C 0.5785 0.06656 0.65822 0.0
C550 C 0.62974 0.08403 0.65502 0.0
C551 C 0.56634 0.10828 0.66251 0.0
C552 C 0.56176 0.03443 0.68057 0.0
C553 C 0.53082 0.98918 0.67075 0.0
C554 C 0.51029 0.9534 0.68758 0.0
C555 C 0.52092 0.96442 0.7153 0.0
C556 C 0.55144 0.01099 0.72594 0.0
C557 C 0.57253 0.04614 0.70818 0.0
H558 H 0.50509 0.54369 0.92928 0.0
H559 H 0.62879 0.52998 0.91388 0.0
H560 H 0.64099 0.52942 0.9627 0.0
H561 H 0.54493 0.62105 0.98986 0.0
H562 H 0.49146 0.59407 0.00575 0.0
H563 H 0.49258 0.59284 0.96968 0.0
H564 H 0.44725 0.50128 0.96517 0.0
H565 H 0.44601 0.5022 0.00125 0.0
H566 H 0.46861 0.46691 0.98224 0.0
H567 H 0.64023 0.53245 0.0136 0.0
H568 H 0.62596 0.53728 0.06205 0.0
H569 H 0.50185 0.54735 0.04316 0.0
C570 C 0.53484 0.54061 0.93607 0.0
C571 C 0.5661 0.53705 0.91774 0.0
C572 C 0.60437 0.53275 0.92755 0.0
C573 C 0.61158 0.53241 0.95523 0.0
C574 C 0.58006 0.53609 0.97273 0.0
C575 C 0.54237 0.53991 0.96348 0.0
C576 C 0.51348 0.54333 0.98629 0.0
C577 C 0.51046 0.59064 0.98799 0.0
C578 C 0.46604 0.5009 0.98357 0.0
C579 C 0.54097 0.54127 0.00995 0.0
C580 C 0.57927 0.53712 0.00178 0.0
C581 C 0.61023 0.5355 0.0202 0.0
C582 C 0.60187 0.53833 0.0477 0.0
C583 C 0.56273 0.54258 0.05647 0.0
C584 C 0.53196 0.54383 0.03719 0.0
H585 H 0.01981 0.46 0.25483 0.0
H586 H 0.07485 0.61158 0.24982 0.0
H587 H 0.07599 0.62522 0.29903 0.0
H588 H 0.94861 0.45337 0.30987 0.0
H589 H 0.96006 0.41089 0.32606 0.0
H590 H 0.96349 0.41214 0.29013 0.0
H591 H 0.04603 0.42249 0.29341 0.0
H592 H 0.04278 0.42103 0.32934 0.0
H593 H 0.0875 0.47055 0.31554 0.0
H594 H 0.06572 0.6229 0.34786 0.0
H595 H 0.0532 0.60512 0.39512 0.0
H596 H 0.01158 0.45635 0.37019 0.0
C597 C 0.03231 0.49598 0.26418 0.0
C598 C 0.04726 0.5347 0.24848 0.0
C599 C 0.0636 0.58136 0.2614 0.0
C600 C 0.06418 0.58955 0.28937 0.0
C601 C 0.04901 0.5508 0.30426 0.0
C602 C 0.03412 0.505 0.2923 0.0
C603 C 0.02073 0.47006 0.31336 0.0
C604 C 0.97022 0.43452 0.30963 0.0
C605 C 0.05108 0.44453 0.31288 0.0
C606 C 0.02991 0.50348 0.33885 0.0
C607 C 0.04561 0.54979 0.33298 0.0
C608 C 0.05409 0.5869 0.35283 0.0
C609 C 0.04668 0.57648 0.37953 0.0
C610 C 0.03189 0.52958 0.38613 0.0
C611 C 0.02357 0.49262 0.36557 0.0
loop_
_geom_bond_atom_site_label_1
_geom_bond_atom_site_label_2
_geom_bond_distance
_geom_bond_site_symmetry_2
_ccdc_geom_bond_type
Tb0 O3 2.453 1_455 S
Tb0 O4 2.596 1_455 S
Tb0 O5 2.374 . S
Tb0 O13 2.343 . S
Tb0 O15 2.353 . S
Tb0 O17 2.427 . S
Tb0 O18 2.513 . S
C1 O5 1.251 . S
C1 O7 1.263 . S
Tb2 O4 2.343 1_455 S
Tb2 O7 2.353 . S
Tb2 O10 2.427 1_455 S
Tb2 O11 2.513 1_455 S
Tb2 O12 2.453 . S
Tb2 O13 2.596 . S
Tb2 O14 2.374 . S
O3 Tb0 2.453 1_655 S
O3 C19 1.245 . S
O4 Tb0 2.596 1_655 S
O4 Tb2 2.343 1_655 S
O4 C19 1.259 . S
O5 Tb0 2.374 . S
O5 C1 1.251 . S
C6 O10 1.275 . S
C6 O11 1.246 . S
O7 C1 1.263 . S
O7 Tb2 2.353 . S
C8 O12 1.245 . S
C8 O13 1.259 . S
C9 O14 1.250 . S
C9 O15 1.263 . S
O10 Tb2 2.427 1_655 S
O10 C6 1.275 . S
O11 Tb2 2.513 1_655 S
O11 C6 1.246 . S
O12 Tb2 2.453 . S
O12 C8 1.245 . S
O13 Tb0 2.343 . S
O13 Tb2 2.596 . S
O13 C8 1.259 . S
O14 Tb2 2.374 . S
O14 C9 1.250 . S
O15 Tb0 2.353 . S
O15 C9 1.263 . S
C16 O17 1.275 . S
C16 O18 1.246 . S
O17 Tb0 2.427 . S
O17 C16 1.275 . S
O18 Tb0 2.513 . S
O18 C16 1.246 . S
C19 O3 1.245 . S
C19 O4 1.259 . S
Tb20 O23 2.453 . S
Tb20 O24 2.596 . S
Tb20 O25 2.374 . S
Tb20 O33 2.343 1_545 S
Tb20 O35 2.353 . S
Tb20 O37 2.427 1_545 S
Tb20 O38 2.513 1_545 S
C21 O25 1.251 . S
C21 O27 1.263 . S
Tb22 O24 2.343 . S
Tb22 O27 2.353 . S
Tb22 O30 2.427 . S
Tb22 O31 2.513 . S
Tb22 O32 2.453 1_545 S
Tb22 O33 2.596 1_545 S
Tb22 O34 2.374 . S
O23 Tb20 2.453 . S
O23 C39 1.245 . S
O24 Tb20 2.596 . S
O24 Tb22 2.343 . S
O24 C39 1.259 . S
O25 Tb20 2.374 . S
O25 C21 1.251 . S
C26 O30 1.275 . S
C26 O31 1.246 . S
O27 C21 1.263 . S
O27 Tb22 2.353 . S
C28 O32 1.245 . S
C28 O33 1.259 . S
C29 O34 1.250 . S
C29 O35 1.263 . S
O30 Tb22 2.427 . S
O30 C26 1.275 . S
O31 Tb22 2.513 . S
O31 C26 1.246 . S
O32 Tb22 2.453 1_565 S
O32 C28 1.245 . S
O33 Tb20 2.343 1_565 S
O33 Tb22 2.596 1_565 S
O33 C28 1.259 . S
O34 Tb22 2.374 . S
O34 C29 1.250 . S
O35 Tb20 2.353 . S
O35 C29 1.263 . S
C36 O37 1.275 . S
C36 O38 1.246 . S
O37 Tb20 2.427 1_565 S
O37 C36 1.275 . S
O38 Tb20 2.513 1_565 S
O38 C36 1.246 . S
C39 O23 1.245 . S
C39 O24 1.259 . S
Tb40 O43 2.453 . S
Tb40 O44 2.596 . S
Tb40 O45 2.374 . S
Tb40 O53 2.343 . S
Tb40 O55 2.353 . S
Tb40 O57 2.427 . S
Tb40 O58 2.513 . S
C41 O45 1.251 . S
C41 O47 1.263 . S
Tb42 O44 2.343 . S
Tb42 O47 2.353 . S
Tb42 O50 2.427 . S
Tb42 O51 2.513 . S
Tb42 O52 2.453 . S
Tb42 O53 2.596 . S
Tb42 O54 2.374 . S
O43 Tb40 2.453 . S
O43 C59 1.245 . S
O44 Tb40 2.596 . S
O44 Tb42 2.343 . S
O44 C59 1.259 . S
O45 Tb40 2.374 . S
O45 C41 1.251 . S
C46 O50 1.275 . S
C46 O51 1.246 . S
O47 C41 1.263 . S
O47 Tb42 2.353 . S
C48 O52 1.245 . S
C48 O53 1.259 . S
C49 O54 1.250 . S
C49 O55 1.263 . S
O50 Tb42 2.427 . S
O50 C46 1.275 . S
O51 Tb42 2.513 . S
O51 C46 1.246 . S
O52 Tb42 2.453 . S
O52 C48 1.245 . S
O53 Tb40 2.343 . S
O53 Tb42 2.596 . S
O53 C48 1.259 . S
O54 Tb42 2.374 . S
O54 C49 1.250 . S
O55 Tb40 2.353 . S
O55 C49 1.263 . S
C56 O57 1.275 . S
C56 O58 1.246 . S
O57 Tb40 2.427 . S
O57 C56 1.275 . S
O58 Tb40 2.513 . S
O58 C56 1.246 . S
C59 O43 1.245 . S
C59 O44 1.259 . S
O60 Cd61 2.300 . S
O60 C67 1.275 . S
Cd61 O60 2.300 . S
Cd61 O69 2.381 . S
Cd61 O70 2.378 . S
O62 Cd63 2.385 1_545 S
O62 C67 1.255 . S
Cd63 O62 2.385 1_565 S
Cd63 O64 2.317 . S
O64 Cd63 2.317 . S
O64 C65 1.232 . S
C65 O64 1.232 . S
C65 O66 1.218 . S
O66 C65 1.218 . S
C67 O60 1.275 . S
C67 O62 1.255 . S
C68 O69 1.258 . S
C68 O70 1.256 . S
O69 Cd61 2.381 . S
O69 C68 1.258 . S
O70 Cd61 2.378 . S
O70 C68 1.256 . S
O71 Cd72 2.300 . S
O71 C78 1.275 . S
Cd72 O71 2.300 . S
Cd72 O80 2.381 . S
Cd72 O81 2.378 . S
O73 Cd74 2.385 . S
O73 C78 1.255 . S
Cd74 O73 2.385 . S
Cd74 O75 2.317 . S
O75 Cd74 2.317 . S
O75 C76 1.232 . S
C76 O75 1.232 . S
C76 O77 1.218 . S
O77 C76 1.218 . S
C78 O71 1.275 . S
C78 O73 1.255 . S
C79 O80 1.258 . S
C79 O81 1.256 . S
O80 Cd72 2.381 . S
O80 C79 1.258 . S
O81 Cd72 2.378 . S
O81 C79 1.256 . S
O82 Cd83 2.300 . S
O82 C89 1.275 . S
Cd83 O82 2.300 . S
Cd83 O91 2.381 . S
Cd83 O92 2.378 . S
O84 Cd85 2.385 1_455 S
O84 C89 1.255 . S
Cd85 O84 2.385 1_655 S
Cd85 O86 2.317 . S
O86 Cd85 2.317 . S
O86 C87 1.232 . S
C87 O86 1.232 . S
C87 O88 1.218 . S
O88 C87 1.218 . S
C89 O82 1.275 . S
C89 O84 1.255 . S
C90 O91 1.258 . S
C90 O92 1.256 . S
O91 Cd83 2.381 . S
O91 C90 1.258 . S
O92 Cd83 2.378 . S
O92 C90 1.256 . S
O93 Cd94 2.300 . S
O93 C100 1.275 1_455 S
Cd94 O93 2.300 . S
Cd94 O102 2.381 . S
Cd94 O103 2.378 . S
O95 Cd96 2.385 . S
O95 C100 1.255 . S
Cd96 O95 2.385 . S
Cd96 O97 2.317 . S
O97 Cd96 2.317 . S
O97 C98 1.232 . S
C98 O97 1.232 . S
C98 O99 1.218 . S
O99 C98 1.218 . S
C100 O93 1.275 1_655 S
C100 O95 1.255 . S
C101 O102 1.258 . S
C101 O103 1.256 . S
O102 Cd94 2.381 . S
O102 C101 1.258 . S
O103 Cd94 2.378 . S
O103 C101 1.256 . S
O104 Cd105 2.300 . S
O104 C111 1.275 1_565 S
Cd105 O104 2.300 . S
Cd105 O113 2.381 . S
Cd105 O114 2.378 . S
O106 Cd107 2.385 . S
O106 C111 1.255 . S
Cd107 O106 2.385 . S
Cd107 O108 2.317 . S
O108 Cd107 2.317 . S
O108 C109 1.232 . S
C109 O108 1.232 . S
C109 O110 1.218 . S
O110 C109 1.218 . S
C111 O104 1.275 1_545 S
C111 O106 1.255 . S
C112 O113 1.258 . S
C112 O114 1.256 . S
O113 Cd105 2.381 . S
O113 C112 1.258 . S
O114 Cd105 2.378 . S
O114 C112 1.256 . S
O115 Cd116 2.300 . S
O115 C122 1.275 . S
Cd116 O115 2.300 . S
Cd116 O124 2.381 . S
Cd116 O125 2.378 . S
O117 Cd118 2.385 . S
O117 C122 1.255 . S
Cd118 O117 2.385 . S
Cd118 O119 2.317 . S
O119 Cd118 2.317 . S
O119 C120 1.232 . S
C120 O119 1.232 . S
C120 O121 1.218 . S
O121 C120 1.218 . S
C122 O115 1.275 . S
C122 O117 1.255 . S
C123 O124 1.258 . S
C123 O125 1.256 . S
O124 Cd116 2.381 . S
O124 C123 1.258 . S
O125 Cd116 2.378 . S
O125 C123 1.256 . S
H126 C138 0.930 . S
H127 C140 0.930 . S
H128 C141 0.930 . S
H129 C145 0.959 . S
H130 C145 0.959 . S
H131 C145 0.961 . S
H132 C146 0.960 . S
H133 C146 0.961 . S
H134 C146 0.959 . S
H135 C149 0.929 . S
H136 C150 0.931 . S
H137 C152 0.930 . S
C138 H126 0.930 . S
C138 C139 1.399 . S
C138 C143 1.399 . S
C139 C138 1.399 . S
C139 C140 1.376 . S
C140 H127 0.930 . S
C140 C139 1.376 . S
C140 C141 1.388 . S
C141 H128 0.930 . S
C141 C140 1.388 . S
C141 C142 1.390 . S
C142 C141 1.390 . S
C142 C143 1.394 . S
C142 C148 1.465 . S
C143 C138 1.399 . S
C143 C142 1.394 . S
C143 C144 1.516 . S
C144 C143 1.516 . S
C144 C145 1.502 . S
C144 C146 1.561 . S
C144 C147 1.526 . S
C145 H129 0.959 . S
C145 H130 0.959 . S
C145 H131 0.961 . S
C145 C144 1.502 . S
C146 H132 0.960 . S
C146 H133 0.961 . S
C146 H134 0.959 . S
C146 C144 1.561 . S
C147 C144 1.526 . S
C147 C148 1.396 . S
C147 C152 1.390 . S
C148 C142 1.465 . S
C148 C147 1.396 . S
C148 C149 1.399 . S
C149 H135 0.929 . S
C149 C148 1.399 . S
C149 C150 1.385 . S
C150 H136 0.931 . S
C150 C149 1.385 . S
C150 C151 1.389 . S
C151 C150 1.389 . S
C151 C152 1.387 . S
C152 H137 0.930 . S
C152 C147 1.390 . S
C152 C151 1.387 . S
H153 C165 0.930 . S
H154 C167 0.930 . S
H155 C168 0.930 . S
H156 C172 0.959 . S
H157 C172 0.959 . S
H158 C172 0.961 . S
H159 C173 0.960 . S
H160 C173 0.961 . S
H161 C173 0.959 . S
H162 C176 0.929 . S
H163 C177 0.931 . S
H164 C179 0.930 . S
C165 H153 0.930 . S
C165 C166 1.399 . S
C165 C170 1.399 . S
C166 C165 1.399 . S
C166 C167 1.376 . S
C167 H154 0.930 . S
C167 C166 1.376 . S
C167 C168 1.388 . S
C168 H155 0.930 . S
C168 C167 1.388 . S
C168 C169 1.390 . S
C169 C168 1.390 . S
C169 C170 1.394 . S
C169 C175 1.465 . S
C170 C165 1.399 . S
C170 C169 1.394 . S
C170 C171 1.516 . S
C171 C170 1.516 . S
C171 C172 1.502 . S
C171 C173 1.561 . S
C171 C174 1.526 . S
C172 H156 0.959 . S
C172 H157 0.959 . S
C172 H158 0.961 . S
C172 C171 1.502 . S
C173 H159 0.960 . S
C173 H160 0.961 . S
C173 H161 0.959 . S
C173 C171 1.561 . S
C174 C171 1.526 . S
C174 C175 1.396 . S
C174 C179 1.390 . S
C175 C169 1.465 . S
C175 C174 1.396 . S
C175 C176 1.399 . S
C176 H162 0.929 . S
C176 C175 1.399 . S
C176 C177 1.385 . S
C177 H163 0.931 . S
C177 C176 1.385 . S
C177 C178 1.389 . S
C178 C177 1.389 . S
C178 C179 1.387 . S
C179 H164 0.930 . S
C179 C174 1.390 . S
C179 C178 1.387 . S
H180 C192 0.930 . S
H181 C194 0.930 . S
H182 C195 0.930 . S
H183 C199 0.959 . S
H184 C199 0.959 . S
H185 C199 0.961 . S
H186 C200 0.960 . S
H187 C200 0.961 . S
H188 C200 0.959 . S
H189 C203 0.929 . S
H190 C204 0.931 . S
H191 C206 0.930 . S
C192 H180 0.930 . S
C192 C193 1.399 . S
C192 C197 1.399 . S
C193 C192 1.399 . S
C193 C194 1.376 . S
C194 H181 0.930 . S
C194 C193 1.376 . S
C194 C195 1.388 . S
C195 H182 0.930 . S
C195 C194 1.388 . S
C195 C196 1.390 . S
C196 C195 1.390 . S
C196 C197 1.394 . S
C196 C202 1.465 . S
C197 C192 1.399 . S
C197 C196 1.394 . S
C197 C198 1.516 . S
C198 C197 1.516 . S
C198 C199 1.502 . S
C198 C200 1.561 . S
C198 C201 1.526 . S
C199 H183 0.959 . S
C199 H184 0.959 . S
C199 H185 0.961 . S
C199 C198 1.502 . S
C200 H186 0.960 . S
C200 H187 0.961 . S
C200 H188 0.959 . S
C200 C198 1.561 . S
C201 C198 1.526 . S
C201 C202 1.396 . S
C201 C206 1.390 . S
C202 C196 1.465 . S
C202 C201 1.396 . S
C202 C203 1.399 . S
C203 H189 0.929 . S
C203 C202 1.399 . S
C203 C204 1.385 . S
C204 H190 0.931 . S
C204 C203 1.385 . S
C204 C205 1.389 . S
C205 C204 1.389 . S
C205 C206 1.387 . S
C206 H191 0.930 . S
C206 C201 1.390 . S
C206 C205 1.387 . S
H207 C219 0.930 . S
H208 C221 0.930 . S
H209 C222 0.930 . S
H210 C226 0.959 . S
H211 C226 0.959 . S
H212 C226 0.961 . S
H213 C227 0.960 . S
H214 C227 0.961 . S
H215 C227 0.959 . S
H216 C230 0.929 . S
H217 C231 0.931 . S
H218 C233 0.930 . S
C219 H207 0.930 . S
C219 C220 1.399 . S
C219 C224 1.399 . S
C220 C219 1.399 . S
C220 C221 1.376 . S
C221 H208 0.930 . S
C221 C220 1.376 . S
C221 C222 1.388 . S
C222 H209 0.930 . S
C222 C221 1.388 . S
C222 C223 1.390 . S
C223 C222 1.390 . S
C223 C224 1.394 . S
C223 C229 1.465 . S
C224 C219 1.399 . S
C224 C223 1.394 . S
C224 C225 1.516 . S
C225 C224 1.516 . S
C225 C226 1.502 . S
C225 C227 1.561 . S
C225 C228 1.526 . S
C226 H210 0.959 . S
C226 H211 0.959 . S
C226 H212 0.961 . S
C226 C225 1.502 . S
C227 H213 0.960 . S
C227 H214 0.961 . S
C227 H215 0.959 . S
C227 C225 1.561 . S
C228 C225 1.526 . S
C228 C229 1.396 . S
C228 C233 1.390 . S
C229 C223 1.465 . S
C229 C228 1.396 . S
C229 C230 1.399 . S
C230 H216 0.929 . S
C230 C229 1.399 . S
C230 C231 1.385 . S
C231 H217 0.931 . S
C231 C230 1.385 . S
C231 C232 1.389 . S
C232 C231 1.389 . S
C232 C233 1.387 . S
C233 H218 0.930 . S
C233 C228 1.390 . S
C233 C232 1.387 . S
H234 C246 0.930 . S
H235 C248 0.930 . S
H236 C249 0.930 . S
H237 C253 0.959 . S
H238 C253 0.959 . S
H239 C253 0.961 . S
H240 C254 0.960 . S
H241 C254 0.961 . S
H242 C254 0.959 . S
H243 C257 0.929 . S
H244 C258 0.931 . S
H245 C260 0.930 . S
C246 H234 0.930 . S
C246 C247 1.399 . S
C246 C251 1.399 . S
C247 C246 1.399 . S
C247 C248 1.376 . S
C248 H235 0.930 . S
C248 C247 1.376 . S
C248 C249 1.388 . S
C249 H236 0.930 . S
C249 C248 1.388 . S
C249 C250 1.390 . S
C250 C249 1.390 . S
C250 C251 1.394 . S
C250 C256 1.465 . S
C251 C246 1.399 . S
C251 C250 1.394 . S
C251 C252 1.516 . S
C252 C251 1.516 . S
C252 C253 1.502 . S
C252 C254 1.561 . S
C252 C255 1.526 . S
C253 H237 0.959 . S
C253 H238 0.959 . S
C253 H239 0.961 . S
C253 C252 1.502 . S
C254 H240 0.960 . S
C254 H241 0.961 . S
C254 H242 0.959 . S
C254 C252 1.561 . S
C255 C252 1.526 . S
C255 C256 1.396 . S
C255 C260 1.390 . S
C256 C250 1.465 . S
C256 C255 1.396 . S
C256 C257 1.399 . S
C257 H243 0.929 . S
C257 C256 1.399 . S
C257 C258 1.385 . S
C258 H244 0.931 . S
C258 C257 1.385 . S
C258 C259 1.389 . S
C259 C258 1.389 . S
C259 C260 1.387 . S
C260 H245 0.930 . S
C260 C255 1.390 . S
C260 C259 1.387 . S
H261 C273 0.930 . S
H262 C275 0.930 . S
H263 C276 0.930 . S
H264 C280 0.959 . S
H265 C280 0.959 . S
H266 C280 0.961 . S
H267 C281 0.960 . S
H268 C281 0.961 . S
H269 C281 0.959 . S
H270 C284 0.929 . S
H271 C285 0.931 . S
H272 C287 0.930 . S
C273 H261 0.930 . S
C273 C274 1.399 . S
C273 C278 1.399 . S
C274 C273 1.399 . S
C274 C275 1.376 . S
C275 H262 0.930 . S
C275 C274 1.376 . S
C275 C276 1.388 . S
C276 H263 0.930 . S
C276 C275 1.388 . S
C276 C277 1.390 . S
C277 C276 1.390 . S
C277 C278 1.394 . S
C277 C283 1.465 . S
C278 C273 1.399 . S
C278 C277 1.394 . S
C278 C279 1.516 . S
C279 C278 1.516 . S
C279 C280 1.502 . S
C279 C281 1.561 . S
C279 C282 1.526 . S
C280 H264 0.959 . S
C280 H265 0.959 . S
C280 H266 0.961 . S
C280 C279 1.502 . S
C281 H267 0.960 . S
C281 H268 0.961 . S
C281 H269 0.959 . S
C281 C279 1.561 . S
C282 C279 1.526 . S
C282 C283 1.396 . S
C282 C287 1.390 . S
C283 C277 1.465 . S
C283 C282 1.396 . S
C283 C284 1.399 . S
C284 H270 0.929 . S
C284 C283 1.399 . S
C284 C285 1.385 . S
C285 H271 0.931 . S
C285 C284 1.385 . S
C285 C286 1.389 . S
C286 C285 1.389 . S
C286 C287 1.387 . S
C287 H272 0.930 . S
C287 C282 1.390 . S
C287 C286 1.387 . S
H288 C300 0.930 . S
H289 C302 0.930 . S
H290 C303 0.930 . S
H291 C307 0.959 . S
H292 C307 0.959 . S
H293 C307 0.961 . S
H294 C308 0.960 . S
H295 C308 0.961 . S
H296 C308 0.959 . S
H297 C311 0.929 . S
H298 C312 0.931 . S
H299 C314 0.930 . S
C300 H288 0.930 . S
C300 C301 1.399 . S
C300 C305 1.399 . S
C301 C300 1.399 . S
C301 C302 1.376 . S
C302 H289 0.930 . S
C302 C301 1.376 . S
C302 C303 1.388 . S
C303 H290 0.930 . S
C303 C302 1.388 . S
C303 C304 1.390 . S
C304 C303 1.390 . S
C304 C305 1.394 . S
C304 C310 1.465 . S
C305 C300 1.399 . S
C305 C304 1.394 . S
C305 C306 1.516 . S
C306 C305 1.516 . S
C306 C307 1.502 . S
C306 C308 1.561 . S
C306 C309 1.526 . S
C307 H291 0.959 . S
C307 H292 0.959 . S
C307 H293 0.961 . S
C307 C306 1.502 . S
C308 H294 0.960 . S
C308 H295 0.961 . S
C308 H296 0.959 . S
C308 C306 1.561 . S
C309 C306 1.526 . S
C309 C310 1.396 . S
C309 C314 1.390 . S
C310 C304 1.465 . S
C310 C309 1.396 . S
C310 C311 1.399 . S
C311 H297 0.929 . S
C311 C310 1.399 . S
C311 C312 1.385 . S
C312 H298 0.931 . S
C312 C311 1.385 . S
C312 C313 1.389 . S
C313 C312 1.389 . S
C313 C314 1.387 . S
C314 H299 0.930 . S
C314 C309 1.390 . S
C314 C313 1.387 . S
H315 C327 0.930 . S
H316 C329 0.930 . S
H317 C330 0.930 . S
H318 C334 0.959 . S
H319 C334 0.959 . S
H320 C334 0.961 . S
H321 C335 0.960 . S
H322 C335 0.961 . S
H323 C335 0.959 . S
H324 C338 0.929 . S
H325 C339 0.931 . S
H326 C341 0.930 . S
C327 H315 0.930 . S
C327 C328 1.399 . S
C327 C332 1.399 . S
C328 C327 1.399 . S
C328 C329 1.376 . S
C329 H316 0.930 . S
C329 C328 1.376 . S
C329 C330 1.388 . S
C330 H317 0.930 . S
C330 C329 1.388 . S
C330 C331 1.390 . S
C331 C330 1.390 . S
C331 C332 1.394 . S
C331 C337 1.465 . S
C332 C327 1.399 . S
C332 C331 1.394 . S
C332 C333 1.516 . S
C333 C332 1.516 . S
C333 C334 1.502 . S
C333 C335 1.561 . S
C333 C336 1.526 . S
C334 H318 0.959 . S
C334 H319 0.959 . S
C334 H320 0.961 . S
C334 C333 1.502 . S
C335 H321 0.960 . S
C335 H322 0.961 . S
C335 H323 0.959 . S
C335 C333 1.561 . S
C336 C333 1.526 . S
C336 C337 1.396 . S
C336 C341 1.390 . S
C337 C331 1.465 . S
C337 C336 1.396 . S
C337 C338 1.399 . S
C338 H324 0.929 . S
C338 C337 1.399 . S
C338 C339 1.385 . S
C339 H325 0.931 . S
C339 C338 1.385 . S
C339 C340 1.389 . S
C340 C339 1.389 . S
C340 C341 1.387 . S
C341 H326 0.930 . S
C341 C336 1.390 . S
C341 C340 1.387 . S
H342 C354 0.930 . S
H343 C356 0.930 . S
H344 C357 0.930 . S
H345 C361 0.959 . S
H346 C361 0.959 . S
H347 C361 0.961 . S
H348 C362 0.960 . S
H349 C362 0.961 . S
H350 C362 0.959 . S
H351 C365 0.929 . S
H352 C366 0.931 . S
H353 C368 0.930 . S
C354 H342 0.930 . S
C354 C355 1.399 . S
C354 C359 1.399 . S
C355 C354 1.399 . S
C355 C356 1.376 . S
C356 H343 0.930 . S
C356 C355 1.376 . S
C356 C357 1.388 . S
C357 H344 0.930 . S
C357 C356 1.388 . S
C357 C358 1.390 . S
C358 C357 1.390 . S
C358 C359 1.394 . S
C358 C364 1.465 . S
C359 C354 1.399 . S
C359 C358 1.394 . S
C359 C360 1.516 . S
C360 C359 1.516 . S
C360 C361 1.502 . S
C360 C362 1.561 . S
C360 C363 1.526 . S
C361 H345 0.959 . S
C361 H346 0.959 . S
C361 H347 0.961 . S
C361 C360 1.502 . S
C362 H348 0.960 . S
C362 H349 0.961 . S
C362 H350 0.959 . S
C362 C360 1.561 . S
C363 C360 1.526 . S
C363 C364 1.396 . S
C363 C368 1.390 . S
C364 C358 1.465 . S
C364 C363 1.396 . S
C364 C365 1.399 . S
C365 H351 0.929 . S
C365 C364 1.399 . S
C365 C366 1.385 . S
C366 H352 0.931 . S
C366 C365 1.385 . S
C366 C367 1.389 . S
C367 C366 1.389 . S
C367 C368 1.387 . S
C368 H353 0.930 . S
C368 C363 1.390 . S
C368 C367 1.387 . S
H369 C381 0.930 . S
H370 C383 0.930 . S
H371 C384 0.930 . S
H372 C388 0.959 . S
H373 C388 0.959 . S
H374 C388 0.961 . S
H375 C389 0.960 . S
H376 C389 0.961 . S
H377 C389 0.959 . S
H378 C392 0.929 . S
H379 C393 0.931 . S
H380 C395 0.930 . S
C381 H369 0.930 . S
C381 C382 1.399 . S
C381 C386 1.399 . S
C382 C381 1.399 . S
C382 C383 1.376 . S
C383 H370 0.930 . S
C383 C382 1.376 . S
C383 C384 1.388 . S
C384 H371 0.930 . S
C384 C383 1.388 . S
C384 C385 1.390 . S
C385 C384 1.390 . S
C385 C386 1.394 . S
C385 C391 1.465 . S
C386 C381 1.399 . S
C386 C385 1.394 . S
C386 C387 1.516 . S
C387 C386 1.516 . S
C387 C388 1.502 . S
C387 C389 1.561 . S
C387 C390 1.526 . S
C388 H372 0.959 . S
C388 H373 0.959 . S
C388 H374 0.961 . S
C388 C387 1.502 . S
C389 H375 0.960 . S
C389 H376 0.961 . S
C389 H377 0.959 . S
C389 C387 1.561 . S
C390 C387 1.526 . S
C390 C391 1.396 . S
C390 C395 1.390 . S
C391 C385 1.465 . S
C391 C390 1.396 . S
C391 C392 1.399 . S
C392 H378 0.929 . S
C392 C391 1.399 . S
C392 C393 1.385 . S
C393 H379 0.931 . S
C393 C392 1.385 . S
C393 C394 1.389 . S
C394 C393 1.389 . S
C394 C395 1.387 . S
C395 H380 0.930 . S
C395 C390 1.390 . S
C395 C394 1.387 . S
H396 C408 0.930 . S
H397 C410 0.930 . S
H398 C411 0.930 . S
H399 C415 0.959 . S
H400 C415 0.959 . S
H401 C415 0.961 . S
H402 C416 0.960 . S
H403 C416 0.961 . S
H404 C416 0.959 . S
H405 C419 0.929 . S
H406 C420 0.931 . S
H407 C422 0.930 . S
C408 H396 0.930 . S
C408 C409 1.399 . S
C408 C413 1.399 . S
C409 C408 1.399 . S
C409 C410 1.376 . S
C410 H397 0.930 . S
C410 C409 1.376 . S
C410 C411 1.388 . S
C411 H398 0.930 . S
C411 C410 1.388 . S
C411 C412 1.390 . S
C412 C411 1.390 . S
C412 C413 1.394 . S
C412 C418 1.465 . S
C413 C408 1.399 . S
C413 C412 1.394 . S
C413 C414 1.516 . S
C414 C413 1.516 . S
C414 C415 1.502 . S
C414 C416 1.561 . S
C414 C417 1.526 . S
C415 H399 0.959 . S
C415 H400 0.959 . S
C415 H401 0.961 . S
C415 C414 1.502 . S
C416 H402 0.960 . S
C416 H403 0.961 . S
C416 H404 0.959 . S
C416 C414 1.561 . S
C417 C414 1.526 . S
C417 C418 1.396 . S
C417 C422 1.390 . S
C418 C412 1.465 . S
C418 C417 1.396 . S
C418 C419 1.399 . S
C419 H405 0.929 . S
C419 C418 1.399 . S
C419 C420 1.385 . S
C420 H406 0.931 . S
C420 C419 1.385 . S
C420 C421 1.389 . S
C421 C420 1.389 . S
C421 C422 1.387 . S
C422 H407 0.930 . S
C422 C417 1.390 . S
C422 C421 1.387 . S
H423 C435 0.930 . S
H424 C437 0.930 . S
H425 C438 0.930 . S
H426 C442 0.959 . S
H427 C442 0.959 . S
H428 C442 0.961 . S
H429 C443 0.960 . S
H430 C443 0.961 . S
H431 C443 0.959 . S
H432 C446 0.929 . S
H433 C447 0.931 . S
H434 C449 0.930 . S
C435 H423 0.930 . S
C435 C436 1.399 . S
C435 C440 1.399 . S
C436 C435 1.399 . S
C436 C437 1.376 . S
C437 H424 0.930 . S
C437 C436 1.376 . S
C437 C438 1.388 . S
C438 H425 0.930 . S
C438 C437 1.388 . S
C438 C439 1.390 . S
C439 C438 1.390 . S
C439 C440 1.394 . S
C439 C445 1.465 . S
C440 C435 1.399 . S
C440 C439 1.394 . S
C440 C441 1.516 . S
C441 C440 1.516 . S
C441 C442 1.502 . S
C441 C443 1.561 . S
C441 C444 1.526 . S
C442 H426 0.959 . S
C442 H427 0.959 . S
C442 H428 0.961 . S
C442 C441 1.502 . S
C443 H429 0.960 . S
C443 H430 0.961 . S
C443 H431 0.959 . S
C443 C441 1.561 . S
C444 C441 1.526 . S
C444 C445 1.396 . S
C444 C449 1.390 . S
C445 C439 1.465 . S
C445 C444 1.396 . S
C445 C446 1.399 . S
C446 H432 0.929 . S
C446 C445 1.399 . S
C446 C447 1.385 . S
C447 H433 0.931 . S
C447 C446 1.385 . S
C447 C448 1.389 . S
C448 C447 1.389 . S
C448 C449 1.387 . S
C449 H434 0.930 . S
C449 C444 1.390 . S
C449 C448 1.387 . S
H450 C462 0.930 . S
H451 C464 0.930 . S
H452 C465 0.930 . S
H453 C469 0.959 . S
H454 C469 0.959 1_556 S
H455 C469 0.961 . S
H456 C470 0.963 1_554 S
H457 C470 0.957 . S
H458 C470 0.959 1_655 S
H459 C473 0.929 . S
H460 C474 0.931 . S
H461 C476 0.930 . S
C462 H450 0.930 . S
C462 C463 1.399 . S
C462 C467 1.399 . S
C463 C462 1.399 . S
C463 C464 1.376 . S
C464 H451 0.930 . S
C464 C463 1.376 . S
C464 C465 1.388 . S
C465 H452 0.930 . S
C465 C464 1.388 . S
C465 C466 1.390 . S
C466 C465 1.390 . S
C466 C467 1.394 . S
C466 C472 1.465 . S
C467 C462 1.399 . S
C467 C466 1.394 . S
C467 C468 1.516 . S
C468 C467 1.516 . S
C468 C469 1.502 . S
C468 C470 1.562 1_554 S
C468 C471 1.526 1_554 S
C469 H453 0.959 . S
C469 H454 0.959 1_554 S
C469 H455 0.961 . S
C469 C468 1.502 . S
C470 H456 0.963 1_556 S
C470 H457 0.957 . S
C470 H458 0.959 1_455 S
C470 C468 1.562 1_556 S
C471 C468 1.526 1_556 S
C471 C472 1.396 1_556 S
C471 C476 1.390 . S
C472 C466 1.465 . S
C472 C471 1.396 1_554 S
C472 C473 1.399 1_554 S
C473 H459 0.929 . S
C473 C472 1.399 1_556 S
C473 C474 1.385 . S
C474 H460 0.931 . S
C474 C473 1.385 . S
C474 C475 1.389 . S
C475 C474 1.389 . S
C475 C476 1.387 . S
C476 H461 0.930 . S
C476 C471 1.390 . S
C476 C475 1.387 . S
H477 C489 0.930 1_565 S
H478 C491 0.930 . S
H479 C492 0.930 . S
H480 C496 0.959 . S
H481 C496 0.959 . S
H482 C496 0.961 . S
H483 C497 0.960 . S
H484 C497 0.961 . S
H485 C497 0.959 . S
H486 C500 0.929 . S
H487 C501 0.931 . S
H488 C503 0.930 1_565 S
C489 H477 0.930 1_545 S
C489 C490 1.399 . S
C489 C494 1.399 . S
C490 C489 1.399 . S
C490 C491 1.376 . S
C491 H478 0.930 . S
C491 C490 1.376 . S
C491 C492 1.388 . S
C492 H479 0.930 . S
C492 C491 1.388 . S
C492 C493 1.390 . S
C493 C492 1.390 . S
C493 C494 1.394 . S
C493 C499 1.465 . S
C494 C489 1.399 . S
C494 C493 1.394 . S
C494 C495 1.516 1_545 S
C495 C494 1.516 1_565 S
C495 C496 1.502 . S
C495 C497 1.561 . S
C495 C498 1.526 1_565 S
C496 H480 0.959 . S
C496 H481 0.959 . S
C496 H482 0.961 . S
C496 C495 1.502 . S
C497 H483 0.960 . S
C497 H484 0.961 . S
C497 H485 0.959 . S
C497 C495 1.561 . S
C498 C495 1.526 1_545 S
C498 C499 1.396 . S
C498 C503 1.390 . S
C499 C493 1.465 . S
C499 C498 1.396 . S
C499 C500 1.399 . S
C500 H486 0.929 . S
C500 C499 1.399 . S
C500 C501 1.385 . S
C501 H487 0.931 . S
C501 C500 1.385 . S
C501 C502 1.389 . S
C502 C501 1.389 . S
C502 C503 1.387 . S
C503 H488 0.930 1_545 S
C503 C498 1.390 . S
C503 C502 1.387 . S
H504 C516 0.930 . S
H505 C518 0.930 . S
H506 C519 0.930 . S
H507 C523 0.959 . S
H508 C523 0.959 . S
H509 C523 0.961 . S
H510 C524 0.960 . S
H511 C524 0.961 . S
H512 C524 0.959 . S
H513 C527 0.929 . S
H514 C528 0.931 . S
H515 C530 0.930 . S
C516 H504 0.930 . S
C516 C517 1.399 . S
C516 C521 1.399 . S
C517 C516 1.399 . S
C517 C518 1.376 . S
C518 H505 0.930 . S
C518 C517 1.376 . S
C518 C519 1.388 . S
C519 H506 0.930 . S
C519 C518 1.388 . S
C519 C520 1.390 . S
C520 C519 1.390 . S
C520 C521 1.394 . S
C520 C526 1.465 . S
C521 C516 1.399 . S
C521 C520 1.394 . S
C521 C522 1.516 . S
C522 C521 1.516 . S
C522 C523 1.502 . S
C522 C524 1.561 . S
C522 C525 1.526 . S
C523 H507 0.959 . S
C523 H508 0.959 . S
C523 H509 0.961 . S
C523 C522 1.502 . S
C524 H510 0.960 . S
C524 H511 0.961 . S
C524 H512 0.959 . S
C524 C522 1.561 . S
C525 C522 1.526 . S
C525 C526 1.396 . S
C525 C530 1.390 . S
C526 C520 1.465 . S
C526 C525 1.396 . S
C526 C527 1.399 . S
C527 H513 0.929 . S
C527 C526 1.399 . S
C527 C528 1.385 . S
C528 H514 0.931 . S
C528 C527 1.385 . S
C528 C529 1.389 . S
C529 C528 1.389 . S
C529 C530 1.387 . S
C530 H515 0.930 . S
C530 C525 1.390 . S
C530 C529 1.387 . S
H531 C543 0.930 . S
H532 C545 0.930 . S
H533 C546 0.930 . S
H534 C550 0.959 . S
H535 C550 0.959 . S
H536 C550 0.961 . S
H537 C551 0.960 . S
H538 C551 0.961 . S
H539 C551 0.959 . S
H540 C554 0.929 . S
H541 C555 0.931 . S
H542 C557 0.930 . S
C543 H531 0.930 . S
C543 C544 1.399 . S
C543 C548 1.399 . S
C544 C543 1.399 . S
C544 C545 1.376 1_545 S
C545 H532 0.930 . S
C545 C544 1.376 1_565 S
C545 C546 1.388 . S
C546 H533 0.930 . S
C546 C545 1.388 . S
C546 C547 1.390 1_565 S
C547 C546 1.390 1_545 S
C547 C548 1.394 . S
C547 C553 1.465 . S
C548 C543 1.399 . S
C548 C547 1.394 . S
C548 C549 1.516 . S
C549 C548 1.516 . S
C549 C550 1.502 . S
C549 C551 1.561 . S
C549 C552 1.526 . S
C550 H534 0.959 . S
C550 H535 0.959 . S
C550 H536 0.961 . S
C550 C549 1.502 . S
C551 H537 0.960 . S
C551 H538 0.961 . S
C551 H539 0.959 . S
C551 C549 1.561 . S
C552 C549 1.526 . S
C552 C553 1.396 . S
C552 C557 1.390 . S
C553 C547 1.465 . S
C553 C552 1.396 . S
C553 C554 1.399 1_545 S
C554 H540 0.929 . S
C554 C553 1.399 1_565 S
C554 C555 1.385 . S
C555 H541 0.931 . S
C555 C554 1.385 . S
C555 C556 1.389 1_565 S
C556 C555 1.389 1_545 S
C556 C557 1.387 . S
C557 H542 0.930 . S
C557 C552 1.390 . S
C557 C556 1.387 . S
H558 C570 0.930 . S
H559 C572 0.930 . S
H560 C573 0.930 . S
H561 C577 0.959 . S
H562 C577 0.959 . S
H563 C577 0.961 . S
H564 C578 0.960 . S
H565 C578 0.961 . S
H566 C578 0.959 . S
H567 C581 0.929 . S
H568 C582 0.931 . S
H569 C584 0.930 . S
C570 H558 0.930 . S
C570 C571 1.399 . S
C570 C575 1.399 . S
C571 C570 1.399 . S
C571 C572 1.376 . S
C572 H559 0.930 . S
C572 C571 1.376 . S
C572 C573 1.388 . S
C573 H560 0.930 . S
C573 C572 1.388 . S
C573 C574 1.390 . S
C574 C573 1.390 . S
C574 C575 1.394 . S
C574 C580 1.465 1_556 S
C575 C570 1.399 . S
C575 C574 1.394 . S
C575 C576 1.516 . S
C576 C575 1.516 . S
C576 C577 1.502 . S
C576 C578 1.561 . S
C576 C579 1.526 1_556 S
C577 H561 0.959 . S
C577 H562 0.959 . S
C577 H563 0.961 . S
C577 C576 1.502 . S
C578 H564 0.960 . S
C578 H565 0.961 . S
C578 H566 0.959 . S
C578 C576 1.561 . S
C579 C576 1.526 1_554 S
C579 C580 1.396 . S
C579 C584 1.390 . S
C580 C574 1.465 1_554 S
C580 C579 1.396 . S
C580 C581 1.399 . S
C581 H567 0.929 . S
C581 C580 1.399 . S
C581 C582 1.385 . S
C582 H568 0.931 . S
C582 C581 1.385 . S
C582 C583 1.389 . S
C583 C582 1.389 . S
C583 C584 1.387 . S
C584 H569 0.930 . S
C584 C579 1.390 . S
C584 C583 1.387 . S
H585 C597 0.930 . S
H586 C599 0.930 . S
H587 C600 0.930 . S
H588 C604 0.959 . S
H589 C604 0.959 . S
H590 C604 0.961 . S
H591 C605 0.961 1_655 S
H592 C605 0.960 1_655 S
H593 C605 0.963 . S
H594 C608 0.929 . S
H595 C609 0.931 . S
H596 C611 0.930 . S
C597 H585 0.930 . S
C597 C598 1.399 1_655 S
C597 C602 1.399 . S
C598 C597 1.399 1_455 S
C598 C599 1.376 . S
C599 H586 0.930 . S
C599 C598 1.376 . S
C599 C600 1.388 . S
C600 H587 0.930 . S
C600 C599 1.388 . S
C600 C601 1.390 . S
C601 C600 1.390 . S
C601 C602 1.394 1_455 S
C601 C607 1.465 . S
C602 C597 1.399 . S
C602 C601 1.394 1_655 S
C602 C603 1.516 . S
C603 C602 1.516 . S
C603 C604 1.502 . S
C603 C605 1.557 1_655 S
C603 C606 1.526 . S
C604 H588 0.959 . S
C604 H589 0.959 . S
C604 H590 0.961 . S
C604 C603 1.502 . S
C605 H591 0.961 1_455 S
C605 H592 0.960 1_455 S
C605 H593 0.963 . S
C605 C603 1.557 1_455 S
C606 C603 1.526 . S
C606 C607 1.396 1_655 S
C606 C611 1.390 . S
C607 C601 1.465 . S
C607 C606 1.396 1_455 S
C607 C608 1.399 . S
C608 H594 0.929 . S
C608 C607 1.399 . S
C608 C609 1.385 . S
C609 H595 0.931 . S
C609 C608 1.385 . S
C609 C610 1.389 1_455 S
C610 C609 1.389 1_655 S
C610 C611 1.387 . S
C611 H596 0.930 . S
C611 C606 1.390 . S
C611 C610 1.387 . S
C139 C8 2.086 . S
C151 C120 1.902 . S
C166 C26 1.504 . S
C178 C98 1.251 . S
C193 C48 1.366 . S
C205 C112 1.432 . S
C220 C19 1.700 . S
C232 C123 1.698 . S
C259 C101 1.298 . S
C247 C36 1.293 . S
C286 C109 1.515 . S
C274 C59 1.675 . S
C301 C28 1.648 . S
C313 C76 1.520 . S
C328 C46 1.333 . S
C340 C87 1.036 . S
C355 C16 1.586 . S
C367 C65 1.418 . S
C394 C79 1.544 . S
C382 C39 1.536 . S
C421 C90 0.904 . S
C409 C56 0.876 . S
C436 C6 1.272 . S
C448 C68 1.262 . S
C475 C89 1.453 . S
C463 C9 1.411 . S
C490 C21 1.511 . S
C502 C67 1.451 . S
C517 C49 1.548 . S
C529 C78 1.496 . S
C556 C111 1.429 . S
C544 C29 1.463 . S
C583 C122 1.461 . S
C571 C41 1.582 . S
C598 C1 1.515 . S
C610 C100 1.427 . S
