# Generated by pormake.
# Topology zzz, (3,6)-cn, num edge types: 1
# Building blocks:
#     Node 0, Type 0, BuildingBlock: OLANEW_clean_sbu_2, # of connection points: 3
#     Node 1, Type 0, BuildingBlock: OLANEW_clean_sbu_2, # of connection points: 3
#     Node 2, Type 0, BuildingBlock: OLANEW_clean_sbu_2, # of connection points: 3
#     Node 3, Type 0, BuildingBlock: OLANEW_clean_sbu_2, # of connection points: 3
#     Node 4, Type 0, BuildingBlock: OLANEW_clean_sbu_2, # of connection points: 3
#     Node 5, Type 0, BuildingBlock: OLANEW_clean_sbu_2, # of connection points: 3
#     Node 6, Type 0, BuildingBlock: OLANEW_clean_sbu_2, # of connection points: 3
#     Node 7, Type 0, BuildingBlock: OLANEW_clean_sbu_2, # of connection points: 3
#     Node 8, Type 1, BuildingBlock: MIFKUJ_clean_sbu_0, # of connection points: 6
#     Node 9, Type 1, BuildingBlock: MIFKUJ_clean_sbu_0, # of connection points: 6
#     Node 10, Type 1, BuildingBlock: MIFKUJ_clean_sbu_0, # of connection points: 6
#     Node 11, Type 1, BuildingBlock: MIFKUJ_clean_sbu_0, # of connection points: 6
#     Edge 12, Type (0, 1), BuildingBlock: OJICUG_clean_linker_0, # of connection points: 2
#     Edge 13, Type (0, 1), BuildingBlock: OJICUG_clean_linker_0, # of connection points: 2
#     Edge 14, Type (0, 1), BuildingBlock: OJICUG_clean_linker_0, # of connection points: 2
#     Edge 15, Type (0, 1), BuildingBlock: OJICUG_clean_linker_0, # of connection points: 2
#     Edge 16, Type (0, 1), BuildingBlock: OJICUG_clean_linker_0, # of connection points: 2
#     Edge 17, Type (0, 1), BuildingBlock: OJICUG_clean_linker_0, # of connection points: 2
#     Edge 18, Type (0, 1), BuildingBlock: OJICUG_clean_linker_0, # of connection points: 2
#     Edge 19, Type (0, 1), BuildingBlock: OJICUG_clean_linker_0, # of connection points: 2
#     Edge 20, Type (0, 1), BuildingBlock: OJICUG_clean_linker_0, # of connection points: 2
#     Edge 21, Type (0, 1), BuildingBlock: OJICUG_clean_linker_0, # of connection points: 2
#     Edge 22, Type (0, 1), BuildingBlock: OJICUG_clean_linker_0, # of connection points: 2
#     Edge 23, Type (0, 1), BuildingBlock: OJICUG_clean_linker_0, # of connection points: 2
#     Edge 24, Type (0, 1), BuildingBlock: OJICUG_clean_linker_0, # of connection points: 2
#     Edge 25, Type (0, 1), BuildingBlock: OJICUG_clean_linker_0, # of connection points: 2
#     Edge 26, Type (0, 1), BuildingBlock: OJICUG_clean_linker_0, # of connection points: 2
#     Edge 27, Type (0, 1), BuildingBlock: OJICUG_clean_linker_0, # of connection points: 2
#     Edge 28, Type (0, 1), BuildingBlock: OJICUG_clean_linker_0, # of connection points: 2
#     Edge 29, Type (0, 1), BuildingBlock: OJICUG_clean_linker_0, # of connection points: 2
#     Edge 30, Type (0, 1), BuildingBlock: OJICUG_clean_linker_0, # of connection points: 2
#     Edge 31, Type (0, 1), BuildingBlock: OJICUG_clean_linker_0, # of connection points: 2
#     Edge 32, Type (0, 1), BuildingBlock: OJICUG_clean_linker_0, # of connection points: 2
#     Edge 33, Type (0, 1), BuildingBlock: OJICUG_clean_linker_0, # of connection points: 2
#     Edge 34, Type (0, 1), BuildingBlock: OJICUG_clean_linker_0, # of connection points: 2
#     Edge 35, Type (0, 1), BuildingBlock: OJICUG_clean_linker_0, # of connection points: 2
# Relax obj value: 0.120
# Max RMSD: 0.127
# Mean RMSD: 0.088
data_MOF--net-zzz--node1-OLANEW_clean_sbu_2--node2-MIFKUJ_clean_sbu_0--edge1-OJICUG_clean_linker_0
_symmetry_space_group_name_H-M    P1
_symmetry_Int_Tables_number       1
_symmetry_cell_setting            triclinic
loop_
_symmetry_equiv_pos_as_xyz
'x, y, z'
_cell_length_a     40.343823
_cell_length_b     40.810592
_cell_length_c     13.706157
_cell_angle_alpha  90.102314
_cell_angle_beta   89.964234
_cell_angle_gamma 89.65918
loop_
_atom_site_label
_atom_site_type_symbol
_atom_site_fract_x
_atom_site_fract_y
_atom_site_fract_z
_atom_type_partial_charge
O0 O 0.75925 0.56093 0.82832 0.0
Cd1 Cd 0.70422 0.5708 0.89717 0.0
O2 O 0.76927 0.54085 0.97313 0.0
Cd3 Cd 0.80193 0.52278 0.08776 0.0
O4 O 0.83462 0.50595 0.2033 0.0
C5 C 0.86332 0.51802 0.2147 0.0
O6 O 0.87357 0.54085 0.1545 0.0
C7 C 0.77948 0.548 0.8881 0.0
C8 C 0.65037 0.54687 0.79218 0.0
O9 O 0.66102 0.57607 0.77886 0.0
O10 O 0.66593 0.52855 0.85294 0.0
O11 O 0.09994 0.76903 0.77854 0.0
Cd12 Cd 0.12775 0.71875 0.83091 0.0
O13 O 0.0892 0.77913 0.93247 0.0
Cd14 Cd 0.065 0.8087 0.04434 0.0
O15 O 0.04629 0.84331 0.15196 0.0
C16 C 0.06386 0.86843 0.16819 0.0
O17 O 0.09151 0.87218 0.11884 0.0
C18 C 0.08764 0.78768 0.84356 0.0
C19 C 0.09133 0.66261 0.78935 0.0
O20 O 0.088 0.6774 0.87138 0.0
O21 O 0.11167 0.67453 0.72712 0.0
O22 O 0.71503 0.8888 0.8612 0.0
Cd23 Cd 0.77049 0.86608 0.88935 0.0
O24 O 0.71013 0.90703 0.01146 0.0
Cd25 Cd 0.68117 0.928 0.13172 0.0
O26 O 0.65223 0.95002 0.24981 0.0
C27 C 0.6214 0.94467 0.26002 0.0
O28 O 0.60631 0.92546 0.19738 0.0
C29 C 0.69796 0.90317 0.92669 0.0
C30 C 0.82268 0.90403 0.81906 0.0
O31 O 0.80691 0.88456 0.76244 0.0
O32 O 0.81336 0.90605 0.90832 0.0
O33 O 0.37379 0.72873 0.76582 0.0
Cd34 Cd 0.34378 0.77748 0.82066 0.0
O35 O 0.34519 0.70052 0.8719 0.0
Cd36 Cd 0.33729 0.65716 0.961 0.0
O37 O 0.34589 0.62144 0.07527 0.0
C38 C 0.37333 0.60603 0.0788 0.0
O39 O 0.39522 0.61052 0.00913 0.0
C40 C 0.36746 0.70152 0.80638 0.0
C41 C 0.38181 0.83381 0.79902 0.0
O42 O 0.38321 0.81698 0.87781 0.0
O43 O 0.36246 0.82394 0.73103 0.0
O44 O 0.22411 0.48277 0.25536 0.0
Cd45 Cd 0.27789 0.49004 0.17669 0.0
O46 O 0.22882 0.4292 0.26188 0.0
Cd47 Cd 0.258 0.4331 0.12938 0.0
O48 O 0.22601 0.44879 0.00934 0.0
C49 C 0.19634 0.43848 0.01468 0.0
O50 O 0.18851 0.41816 0.08518 0.0
C51 C 0.21389 0.45537 0.28712 0.0
C52 C 0.32809 0.47831 0.31282 0.0
O53 O 0.31388 0.5064 0.30702 0.0
O54 O 0.31895 0.45585 0.25331 0.0
O55 O 0.88265 0.22245 0.47371 0.0
Cd56 Cd 0.86121 0.27829 0.46245 0.0
O57 O 0.90425 0.2259 0.32675 0.0
Cd58 Cd 0.9294 0.2021 0.20374 0.0
O59 O 0.94449 0.16605 0.09411 0.0
C60 C 0.92737 0.14005 0.08959 0.0
O61 O 0.90256 0.13643 0.15075 0.0
C62 C 0.89922 0.20966 0.40442 0.0
C63 C 0.90642 0.32379 0.53465 0.0
O64 O 0.88431 0.31138 0.59045 0.0
O65 O 0.90712 0.31459 0.44519 0.0
O66 O 0.26285 0.08476 0.38079 0.0
Cd67 Cd 0.21163 0.10138 0.29992 0.0
O68 O 0.28907 0.12988 0.34052 0.0
Cd69 Cd 0.26525 0.13081 0.1987 0.0
O70 O 0.29778 0.10954 0.0867 0.0
C71 C 0.30787 0.08034 0.10107 0.0
O72 O 0.29623 0.06401 0.17605 0.0
C73 C 0.28725 0.10401 0.39153 0.0
C74 C 0.15677 0.07486 0.39639 0.0
O75 O 0.1686 0.0615 0.31904 0.0
O76 O 0.17071 0.10088 0.4283 0.0
O77 O 0.61613 0.25614 0.53873 0.0
Cd78 Cd 0.64571 0.20418 0.52454 0.0
O79 O 0.59679 0.25097 0.38947 0.0
Cd80 Cd 0.56798 0.27211 0.26937 0.0
O81 O 0.54331 0.306 0.16927 0.0
C82 C 0.54621 0.33667 0.18342 0.0
O83 O 0.56355 0.34694 0.25849 0.0
C84 C 0.59791 0.26658 0.46976 0.0
C85 C 0.6031 0.15495 0.58672 0.0
O86 O 0.62342 0.16828 0.64645 0.0
O87 O 0.60362 0.16437 0.49757 0.0
Zn88 Zn 0.96815 0.02546 0.58834 0.0
Zn89 Zn 0.00998 0.97206 0.67771 0.0
C90 C 0.94373 0.05197 0.76367 0.0
O91 O 0.91629 0.04255 0.72063 0.0
C92 C 0.03714 0.94726 0.50695 0.0
O93 O 0.06324 0.95441 0.56002 0.0
O94 O 0.94312 0.06012 0.51373 0.0
O95 O 0.01336 0.02172 0.52754 0.0
O96 O 0.03839 0.01314 0.66759 0.0
C97 C 0.9595 0.08463 0.48363 0.0
O98 O -0.00813 0.08463 0.49392 0.0
O99 O 0.97136 0.04614 0.72216 0.0
C100 C 0.0217 0.90777 0.73286 0.0
O101 O -0.0053 0.90593 0.67961 0.0
O102 O 0.03399 0.93586 0.75036 0.0
O103 O 0.96408 0.97392 0.73693 0.0
O104 O 0.94001 0.98479 0.59707 0.0
O105 O 0.00839 0.9533 0.54103 0.0
C106 C 0.03894 0.02431 0.58089 0.0
C107 C 0.93905 0.97177 0.68113 0.0
Zn108 Zn 0.44927 0.01958 0.68647 0.0
Zn109 Zn 0.51556 -0.00899 0.77538 0.0
C110 C 0.40398 0.02039 0.84358 0.0
O111 O 0.39339 -0.00521 0.79473 0.0
C112 C 0.55574 -0.0081 0.60818 0.0
O113 O 0.57284 0.0097 0.67003 0.0
O114 O 0.41298 0.03345 0.59717 0.0
O115 O 0.48928 0.04537 0.64839 0.0
O116 O 0.51449 0.04031 0.78946 0.0
C117 C 0.40424 0.06339 0.59941 0.0
O118 O 0.42131 0.08419 0.65236 0.0
O119 O 0.4305 0.0344 0.81623 0.0
C120 C 0.56558 0.94585 0.82682 0.0
O121 O 0.54785 0.9282 0.76612 0.0
O122 O 0.55548 0.97448 0.84904 0.0
O123 O 0.47654 0.9633 0.81676 0.0
O124 O 0.45136 0.97058 0.6764 0.0
O125 O 0.52764 0.98104 0.63474 0.0
C126 C 0.51036 0.05567 0.70973 0.0
C127 C 0.45675 0.95317 0.75137 0.0
Zn128 Zn 0.49135 0.43197 0.66862 0.0
Zn129 Zn 0.4533 0.52633 0.60062 0.0
C130 C 0.50704 0.42518 0.87641 0.0
O131 O 0.52401 0.45227 0.86489 0.0
C132 C 0.41334 0.55202 0.44727 0.0
O133 O 0.39534 0.56063 0.52301 0.0
O134 O 0.52248 0.40079 0.60096 0.0
O135 O 0.44568 0.42838 0.60481 0.0
O136 O 0.44677 0.47998 0.63506 0.0
C137 C 0.51159 0.37529 0.55879 0.0
O138 O 0.47944 0.37073 0.5535 0.0
O139 O 0.48982 0.4144 0.80587 0.0
C140 C 0.44248 0.58769 0.68524 0.0
O141 O 0.46935 0.59254 0.63315 0.0
O142 O 0.43054 0.55893 0.6893 0.0
O143 O 0.50238 0.53057 0.62065 0.0
O144 O 0.51197 0.47838 0.65794 0.0
O145 O 0.44032 0.53636 0.46087 0.0
C146 C 0.43229 0.45623 0.59441 0.0
C147 C 0.52212 0.50787 0.64861 0.0
Zn148 Zn 0.04058 0.47964 0.62097 0.0
Zn149 Zn 0.97443 0.49304 0.7311 0.0
C150 C 0.09482 0.4839 0.74852 0.0
O151 O 0.10178 0.50695 0.68499 0.0
C152 C 0.93548 0.48566 0.56468 0.0
O153 O 0.92168 0.46539 0.62682 0.0
O154 O 0.07409 0.47597 0.51426 0.0
O155 O 0.00634 0.44498 0.59588 0.0
O156 O 0.98394 0.44465 0.74205 0.0
C157 C 0.09266 0.45075 0.51008 0.0
O158 O 0.08691 0.42608 0.56907 0.0
O159 O 0.06739 0.46884 0.74106 0.0
C160 C 0.91687 0.52894 0.78162 0.0
O161 O 0.93097 0.54937 0.72054 0.0
O162 O 0.93221 0.50276 0.80472 0.0
O163 O 0.00895 0.52542 0.77475 0.0
O164 O 0.02786 0.52738 0.62497 0.0
O165 O 0.96111 0.50135 0.59112 0.0
C166 C -0.01051 0.43044 0.66097 0.0
C167 C 0.02422 0.54073 0.70802 0.0
C168 C 0.12112 0.06737 0.54512 0.0
C169 C 0.1274 0.06104 0.44579 0.0
H170 H 0.0884 0.0599 0.667 0.0
C171 C 0.105 0.0417 0.39304 0.0
H172 H 0.13809 0.08209 0.58764 0.0
C173 C 0.07642 0.02977 0.43765 0.0
C174 C 0.07002 0.03614 0.5367 0.0
H175 H 0.10915 0.03641 0.31649 0.0
H176 H 0.05932 0.01538 0.39452 0.0
C177 C 0.09286 0.0546 0.59063 0.0
C178 C 0.5806 0.11718 0.71492 0.0
C179 C 0.57923 0.12991 0.6197 0.0
H180 H 0.55986 0.08374 0.81854 0.0
C181 C 0.55444 0.11881 0.55605 0.0
H182 H 0.59939 0.1253 0.76577 0.0
C183 C 0.53167 0.09536 0.58649 0.0
C184 C 0.53325 0.08222 0.68117 0.0
H185 H 0.55256 0.12824 0.48242 0.0
H186 H 0.5131 0.08722 0.53498 0.0
C187 C 0.55789 0.09346 0.74528 0.0
C188 C 0.37643 0.44564 0.37479 0.0
C189 C 0.3542 0.47201 0.38624 0.0
H190 H 0.41886 0.42015 0.43139 0.0
C191 C 0.35709 0.49227 0.46877 0.0
H192 H 0.37469 0.42947 0.31225 0.0
C193 C 0.38215 0.48669 0.53736 0.0
C194 C 0.4051 0.46118 0.52387 0.0
H195 H 0.33995 0.51243 0.4805 0.0
H196 H 0.38371 0.50242 0.60092 0.0
C197 C 0.40167 0.44028 0.44297 0.0
C198 C 0.92677 0.36156 0.66626 0.0
C199 C 0.92976 0.34884 0.57119 0.0
H200 H 0.9435 0.39718 0.76993 0.0
C201 C 0.95451 0.36124 0.5096 0.0
H202 H 0.90803 0.35242 0.71567 0.0
C203 C 0.97493 0.38668 0.54081 0.0
C204 C 0.97102 0.40045 0.63429 0.0
H205 H 0.95767 0.35182 0.43622 0.0
H206 H -0.0069 0.39622 0.49025 0.0
C207 C 0.94719 0.38713 0.6975 0.0
C208 C 0.87458 0.93566 0.84978 0.0
C209 C 0.8516 0.92266 0.78339 0.0
H210 H 0.9204 0.96101 0.86937 0.0
C211 C 0.85717 0.92667 0.68285 0.0
H212 H 0.87104 0.93288 0.92767 0.0
C213 C 0.88526 0.94321 0.64943 0.0
C214 C 0.90863 0.95546 0.71589 0.0
H215 H 0.83985 0.91698 0.62994 0.0
H216 H 0.88902 0.94579 0.57157 0.0
C217 C 0.90294 0.95161 0.81637 0.0
C218 C 0.42369 0.8743 0.86006 0.0
C219 C 0.40168 0.8639 0.78686 0.0
H220 H 0.45855 0.91061 0.90632 0.0
C221 C 0.39854 0.88271 0.70166 0.0
H222 H 0.42672 0.86029 0.92653 0.0
C223 C 0.41668 0.91143 0.69017 0.0
C224 C 0.4385 0.92207 0.76353 0.0
H225 H 0.38185 0.8754 0.64381 0.0
H226 H 0.41339 0.9254 0.62373 0.0
C227 C 0.44196 0.9031 0.84846 0.0
C228 C 0.6089 0.50301 0.75445 0.0
C229 C 0.61954 0.53559 0.74458 0.0
H230 H 0.57011 0.46838 0.72962 0.0
C231 C 0.59917 0.55804 0.69489 0.0
H232 H 0.62417 0.48506 0.7917 0.0
C233 C 0.56806 0.54863 0.66063 0.0
C234 C 0.55668 0.51646 0.67446 0.0
H235 H 0.60666 0.58329 0.68569 0.0
H236 H 0.55256 0.56693 0.62574 0.0
C237 C 0.57787 0.49348 0.71908 0.0
C238 C 0.05255 0.61768 0.83874 0.0
C239 C 0.07283 0.63224 0.76766 0.0
H240 H 0.02119 0.57736 0.87576 0.0
C241 C 0.07595 0.61707 0.67603 0.0
H242 H 0.04961 0.62878 0.91007 0.0
C243 C 0.05962 0.58774 0.65632 0.0
C244 C 0.03985 0.57279 0.72788 0.0
H245 H 0.0913 0.62766 0.61956 0.0
H246 H 0.06297 0.57653 0.58526 0.0
C247 C 0.03626 0.58821 0.8191 0.0
C248 C 0.94584 0.16991 0.38555 0.0
C249 C 0.91321 0.17648 0.4155 0.0
H250 H 0.98594 0.13543 0.38262 0.0
C251 C 0.89497 0.15176 0.46166 0.0
H252 H 0.9607 0.18884 0.35207 0.0
C253 C 0.90936 0.12104 0.47885 0.0
C254 C 0.94245 0.11488 0.452 0.0
H255 H 0.86978 0.15637 0.48569 0.0
H256 H 0.89507 0.10269 0.51702 0.0
C257 C 0.96035 0.13942 0.40373 0.0
C258 C 0.32071 0.06112 0.476 0.0
C259 C 0.31568 0.09425 0.45254 0.0
H260 H 0.35306 0.02532 0.53917 0.0
C261 C 0.33961 0.11736 0.48011 0.0
H262 H 0.30281 0.04271 0.45506 0.0
C263 C 0.36832 0.10741 0.52894 0.0
C264 C 0.37383 0.07412 0.54923 0.0
H265 H 0.33636 0.14308 0.46286 0.0
H266 H 0.38649 0.12567 0.54889 0.0
C267 C 0.34965 0.05111 0.52314 0.0
C268 C 0.58902 0.32299 0.53598 0.0
C269 C 0.57695 0.29579 0.48478 0.0
H270 H 0.57796 0.37004 0.59754 0.0
C271 C 0.54381 0.29564 0.45378 0.0
H272 H 0.61447 0.32348 0.56117 0.0
C273 C 0.52289 0.32206 0.4747 0.0
C274 C 0.5347 0.34913 0.52735 0.0
H275 H 0.53365 0.2745 0.41671 0.0
H276 H 0.49723 0.32087 0.45177 0.0
C277 C 0.56816 0.34961 0.5563 0.0
C278 C 0.1728 0.42446 0.38831 0.0
C279 C 0.18319 0.45395 0.34565 0.0
H280 H 0.13582 0.40023 0.4736 0.0
C281 C 0.1631 0.48201 0.35531 0.0
H282 H 0.18767 0.40238 0.38167 0.0
C283 C 0.13328 0.48066 0.40646 0.0
C284 C 0.12301 0.45129 0.44999 0.0
H285 H 0.17023 0.50507 0.32261 0.0
H286 H 0.11855 0.50284 0.41305 0.0
C287 C 0.14305 0.42318 0.44049 0.0
C288 C 0.04924 0.81911 0.73631 0.0
C289 C 0.07102 0.81851 0.81581 0.0
H290 H 0.01612 0.84776 0.64921 0.0
C291 C 0.07695 0.84758 0.86792 0.0
H292 H 0.04442 0.79702 0.69484 0.0
C293 C 0.06114 0.87685 0.84112 0.0
C294 C 0.03876 0.87728 0.76273 0.0
H295 H 0.09425 0.84776 0.92829 0.0
H296 H 0.0662 0.89898 0.88209 0.0
C297 C 0.03295 0.84812 0.71074 0.0
C298 C 0.6508 0.94311 0.94323 0.0
C299 C 0.66374 0.91379 0.90477 0.0
H300 H 0.60943 0.97621 0.94959 0.0
C301 C 0.6439 0.89473 0.84301 0.0
H302 H 0.66592 0.95879 0.98858 0.0
C303 C 0.61165 0.90468 0.8204 0.0
C304 C 0.59868 0.93415 0.85808 0.0
H305 H 0.65332 0.87203 0.81229 0.0
H306 H 0.59713 0.88952 0.7718 0.0
C307 C 0.61854 0.9532 0.92023 0.0
C308 C 0.42023 0.67498 0.75232 0.0
C309 C 0.38698 0.67199 0.78078 0.0
H310 H 0.46407 0.65056 0.70203 0.0
C311 C 0.37245 0.64078 0.78168 0.0
H312 H 0.43205 0.69875 0.75084 0.0
C313 C 0.39087 0.61307 0.75479 0.0
C314 C 0.42403 0.61613 0.72496 0.0
H315 H 0.34652 0.63786 0.79963 0.0
H316 H 0.37876 0.58945 0.754 0.0
C317 C 0.43859 0.64735 0.72491 0.0
C318 C 0.83245 0.51583 0.89611 0.0
C319 C 0.81459 0.54301 0.86113 0.0
H320 H 0.8789 0.49021 0.89968 0.0
C321 C 0.83064 0.56567 0.80078 0.0
H322 H 0.8204 0.49737 0.93999 0.0
C323 C 0.86411 0.56152 0.77713 0.0
C324 C 0.88212 0.53441 0.81255 0.0
H325 H 0.81741 0.58682 0.77271 0.0
H326 H 0.87574 0.57941 0.73015 0.0
C327 C 0.86591 0.51161 0.87238 0.0
C328 C 0.90904 0.09206 -0.0096 0.0
C329 C 0.93337 0.11547 0.01194 0.0
H330 H 0.89336 0.05364 0.89493 0.0
C331 C 0.96258 0.11596 0.95586 0.0
H332 H 0.88631 0.09094 0.03232 0.0
C333 C 0.96684 0.09414 0.87781 0.0
C334 C 0.94171 0.07187 0.85358 0.0
H335 H 0.98187 0.13358 0.97116 0.0
H336 H 0.98915 0.09564 0.83407 0.0
C337 C 0.91305 0.07069 0.9116 0.0
C338 C 0.33648 0.03091 0.03235 0.0
C339 C 0.33337 0.06519 0.03746 0.0
H340 H 0.36134 -0.01012 0.9665 0.0
C341 C 0.35532 0.08465 0.98326 0.0
H342 H 0.32003 0.01527 0.07362 0.0
C343 C 0.37965 0.07007 0.92425 0.0
C344 C 0.38193 0.03578 0.91669 0.0
H345 H 0.35374 0.11114 0.9866 0.0
H346 H 0.39579 0.08562 0.8816 0.0
C347 C 0.36021 0.01637 0.97152 0.0
C348 C 0.51169 0.34984 0.03657 0.0
C349 C 0.53277 0.36038 0.11172 0.0
H350 H 0.48642 0.3622 0.90451 0.0
C351 C 0.54236 0.39344 0.11448 0.0
H352 H 0.50356 0.32462 0.03289 0.0
C353 C 0.53267 0.41503 0.04044 0.0
C354 C 0.51292 0.40407 0.96265 0.0
H355 H 0.55843 0.4024 0.17176 0.0
H356 H 0.54161 0.44 0.04249 0.0
C357 C 0.50173 0.37148 0.96315 0.0
C358 C 0.1772 0.47506 0.87878 0.0
C359 C 0.17042 0.45023 0.94657 0.0
H360 H 0.15854 0.50547 0.76416 0.0
C361 C 0.13822 0.43724 0.95077 0.0
H362 H 0.20167 0.48574 0.87412 0.0
C363 C 0.11345 0.44854 0.88777 0.0
C364 C 0.12028 0.47322 0.81956 0.0
H365 H 0.13212 0.41816 0.00248 0.0
H366 H 0.08903 0.43775 0.8921 0.0
C367 C 0.15238 0.4865 0.81616 0.0
C368 C 0.0787 0.91385 0.28165 0.0
C369 C 0.05517 0.8913 0.24789 0.0
H370 H 0.09124 0.94931 0.39028 0.0
C371 C 0.02418 0.88962 0.29471 0.0
H372 H 0.10273 0.91587 0.24693 0.0
C373 C 0.01744 0.90917 0.37637 0.0
C374 C 0.04178 0.93028 0.41312 0.0
H375 H 0.00546 0.87264 0.26979 0.0
H376 H -0.00616 0.90664 0.41327 0.0
C377 C 0.07216 0.93296 0.36387 0.0
C378 C 0.61896 0.9811 0.40678 0.0
C379 C 0.60327 0.95862 0.3446 0.0
H380 H 0.6161 0.0095 0.53749 0.0
C381 C 0.57071 0.94883 0.36623 0.0
H382 H 0.64391 0.98939 0.3919 0.0
C383 C 0.55468 0.96035 0.45038 0.0
C384 C 0.57088 0.98199 0.51416 0.0
H385 H 0.55788 0.93163 0.31957 0.0
H386 H 0.52996 0.9517 0.46659 0.0
C387 C 0.60293 -0.0073 0.49033 0.0
C388 C 0.41436 0.5743 0.17933 0.0
C389 C 0.38232 0.58751 0.1676 0.0
H390 H 0.44943 0.55241 0.27755 0.0
C391 C 0.35975 0.58554 0.24538 0.0
H392 H 0.43225 0.57523 0.12047 0.0
C393 C 0.36964 0.57275 0.33496 0.0
C394 C 0.40224 0.56142 0.34866 0.0
H395 H 0.33475 0.5951 0.23851 0.0
H396 H 0.35192 0.57264 0.39437 0.0
C397 C 0.42422 0.56125 0.26919 0.0
C398 C 0.91308 0.52474 0.3227 0.0
C399 C 0.8838 0.50797 0.29903 0.0
H400 H 0.95261 0.53081 0.42556 0.0
C401 C 0.87328 0.48231 0.35953 0.0
H402 H 0.9219 0.54455 0.27727 0.0
C403 C 0.89086 0.47441 0.44384 0.0
C404 C 0.91933 0.49204 0.46989 0.0
H405 H 0.85102 0.46868 0.34295 0.0
H406 H 0.88159 0.45494 0.48981 0.0
C407 C 0.93068 0.51687 0.40753 0.0
loop_
_geom_bond_atom_site_label_1
_geom_bond_atom_site_label_2
_geom_bond_distance
_geom_bond_site_symmetry_2
_ccdc_geom_bond_type
O0 Cd1 2.300 . S
O0 C7 1.275 . S
Cd1 O0 2.300 . S
Cd1 O9 2.381 . S
Cd1 O10 2.378 1_556 S
O2 Cd3 2.386 . S
O2 C7 1.254 1_554 S
Cd3 O2 2.386 . S
Cd3 O4 2.317 . S
O4 Cd3 2.317 . S
O4 C5 1.232 . S
C5 O4 1.232 . S
C5 O6 1.218 . S
O6 C5 1.218 . S
C7 O0 1.275 . S
C7 O2 1.254 1_556 S
C8 O9 1.258 . S
C8 O10 1.256 1_556 S
O9 Cd1 2.381 . S
O9 C8 1.258 . S
O10 Cd1 2.378 1_554 S
O10 C8 1.256 1_554 S
O11 Cd12 2.294 1_656 S
O11 C18 1.275 1_655 S
Cd12 O11 2.294 1_454 S
Cd12 O20 2.376 1_454 S
Cd12 O21 2.380 . S
O13 Cd14 2.385 . S
O13 C18 1.255 1_554 S
Cd14 O13 2.385 . S
Cd14 O15 2.317 . S
O15 Cd14 2.317 . S
O15 C16 1.232 . S
C16 O15 1.232 . S
C16 O17 1.218 . S
O17 C16 1.218 . S
C18 O11 1.275 1_455 S
C18 O13 1.255 1_556 S
C19 O20 1.258 1_455 S
C19 O21 1.256 1_556 S
O20 Cd12 2.376 1_656 S
O20 C19 1.258 1_655 S
O21 Cd12 2.380 . S
O21 C19 1.256 1_554 S
O22 Cd23 2.300 . S
O22 C29 1.275 . S
Cd23 O22 2.300 . S
Cd23 O31 2.381 . S
Cd23 O32 2.378 1_556 S
O24 Cd25 2.385 1_565 S
O24 C29 1.255 1_554 S
Cd25 O24 2.385 1_545 S
Cd25 O26 2.317 1_545 S
O26 Cd25 2.317 1_565 S
O26 C27 1.232 . S
C27 O26 1.232 . S
C27 O28 1.218 . S
O28 C27 1.218 . S
C29 O22 1.275 . S
C29 O24 1.255 1_556 S
C30 O31 1.258 . S
C30 O32 1.256 1_556 S
O31 Cd23 2.381 . S
O31 C30 1.258 . S
O32 Cd23 2.378 1_554 S
O32 C30 1.256 1_554 S
O33 Cd34 2.300 1_556 S
O33 C40 1.275 . S
Cd34 O33 2.300 1_554 S
Cd34 O42 2.381 1_554 S
Cd34 O43 2.378 . S
O35 Cd36 2.385 . S
O35 C40 1.255 1_554 S
Cd36 O35 2.385 . S
Cd36 O37 2.317 . S
O37 Cd36 2.317 . S
O37 C38 1.232 . S
C38 O37 1.232 . S
C38 O39 1.218 . S
O39 C38 1.218 . S
C40 O33 1.275 . S
C40 O35 1.255 1_556 S
C41 O42 1.258 . S
C41 O43 1.256 1_556 S
O42 Cd34 2.381 1_556 S
O42 C41 1.258 . S
O43 Cd34 2.378 . S
O43 C41 1.256 1_554 S
O44 Cd45 2.300 . S
O44 C51 1.275 . S
Cd45 O44 2.300 . S
Cd45 O53 2.381 . S
Cd45 O54 2.378 . S
O46 Cd47 2.385 . S
O46 C51 1.255 . S
Cd47 O46 2.385 . S
Cd47 O48 2.317 . S
O48 Cd47 2.317 . S
O48 C49 1.232 . S
C49 O48 1.232 . S
C49 O50 1.218 . S
O50 C49 1.218 . S
C51 O44 1.275 . S
C51 O46 1.255 . S
C52 O53 1.258 . S
C52 O54 1.256 . S
O53 Cd45 2.381 . S
O53 C52 1.258 . S
O54 Cd45 2.378 . S
O54 C52 1.256 . S
O55 Cd56 2.300 1_655 S
O55 C62 1.275 1_655 S
Cd56 O55 2.300 1_455 S
Cd56 O64 2.381 1_455 S
Cd56 O65 2.378 . S
O57 Cd58 2.385 . S
O57 C62 1.255 . S
Cd58 O57 2.385 . S
Cd58 O59 2.317 . S
O59 Cd58 2.317 . S
O59 C60 1.232 . S
C60 O59 1.232 . S
C60 O61 1.218 . S
O61 C60 1.218 . S
C62 O55 1.275 1_455 S
C62 O57 1.255 . S
C63 O64 1.258 1_455 S
C63 O65 1.256 . S
O64 Cd56 2.381 1_655 S
O64 C63 1.258 1_655 S
O65 Cd56 2.378 . S
O65 C63 1.256 . S
O66 Cd67 2.300 . S
O66 C73 1.275 . S
Cd67 O66 2.300 . S
Cd67 O75 2.381 . S
Cd67 O76 2.378 . S
O68 Cd69 2.385 . S
O68 C73 1.255 . S
Cd69 O68 2.385 . S
Cd69 O70 2.317 . S
O70 Cd69 2.317 . S
O70 C71 1.232 . S
C71 O70 1.232 . S
C71 O72 1.218 . S
O72 C71 1.218 . S
C73 O66 1.275 . S
C73 O68 1.255 . S
C74 O75 1.258 . S
C74 O76 1.256 . S
O75 Cd67 2.381 . S
O75 C74 1.258 . S
O76 Cd67 2.378 . S
O76 C74 1.256 . S
O77 Cd78 2.300 . S
O77 C84 1.275 . S
Cd78 O77 2.300 . S
Cd78 O86 2.381 . S
Cd78 O87 2.378 . S
O79 Cd80 2.385 . S
O79 C84 1.255 . S
Cd80 O79 2.385 . S
Cd80 O81 2.317 . S
O81 Cd80 2.317 . S
O81 C82 1.232 . S
C82 O81 1.232 . S
C82 O83 1.218 . S
O83 C82 1.218 . S
C84 O77 1.275 . S
C84 O79 1.255 . S
C85 O86 1.258 . S
C85 O87 1.256 . S
O86 Cd78 2.381 . S
O86 C85 1.258 . S
O87 Cd78 2.378 . S
O87 C85 1.256 . S
Zn88 O94 1.969 . S
Zn88 O95 1.965 1_655 S
Zn88 O99 2.024 1_655 S
Zn88 O104 1.969 . S
Zn89 O96 1.969 . S
Zn89 O102 1.969 . S
Zn89 O103 1.965 1_455 S
Zn89 O105 2.024 1_455 S
C90 O91 1.229 1_455 S
C90 O99 1.058 . S
O91 C90 1.229 1_655 S
C92 O93 1.229 1_655 S
C92 O105 1.058 . S
O93 C92 1.229 1_455 S
O94 Zn88 1.969 . S
O94 C97 1.267 . S
O95 Zn88 1.965 1_455 S
O95 C106 1.260 . S
O96 Zn89 1.969 . S
O96 C106 1.258 1_565 S
C97 O94 1.267 . S
C97 O98 1.228 1_655 S
O98 C97 1.228 1_455 S
O99 Zn88 2.024 1_455 S
O99 C90 1.058 . S
C100 O101 1.228 1_455 S
C100 O102 1.267 . S
O101 C100 1.228 1_655 S
O102 Zn89 1.969 . S
O102 C100 1.267 . S
O103 Zn89 1.965 1_655 S
O103 C107 1.260 1_565 S
O104 Zn88 1.969 . S
O104 C107 1.258 . S
O105 Zn89 2.024 1_655 S
O105 C92 1.058 . S
C106 O95 1.260 . S
C106 O96 1.258 1_545 S
C107 O103 1.260 1_545 S
C107 O104 1.258 . S
Zn108 O114 1.969 1_545 S
Zn108 O115 1.965 . S
Zn108 O119 2.024 . S
Zn108 O124 1.969 1_545 S
Zn109 O116 1.969 1_565 S
Zn109 O122 1.969 1_565 S
Zn109 O123 1.965 . S
Zn109 O125 2.024 . S
C110 O111 1.229 . S
C110 O119 1.058 . S
O111 C110 1.229 . S
C112 O113 1.229 1_565 S
C112 O125 1.058 . S
O113 C112 1.229 1_545 S
O114 Zn108 1.969 1_565 S
O114 C117 1.267 1_565 S
O115 Zn108 1.965 . S
O115 C126 1.260 . S
O116 Zn109 1.969 1_545 S
O116 C126 1.258 . S
C117 O114 1.267 1_545 S
C117 O118 1.228 . S
O118 C117 1.228 . S
O119 Zn108 2.024 . S
O119 C110 1.058 . S
C120 O121 1.228 . S
C120 O122 1.267 1_565 S
O121 C120 1.228 . S
O122 Zn109 1.969 1_545 S
O122 C120 1.267 1_545 S
O123 Zn109 1.965 . S
O123 C127 1.260 . S
O124 Zn108 1.969 1_565 S
O124 C127 1.258 . S
O125 Zn109 2.024 . S
O125 C112 1.058 . S
C126 O115 1.260 . S
C126 O116 1.258 . S
C127 O123 1.260 . S
C127 O124 1.258 . S
Zn128 O134 1.969 . S
Zn128 O135 1.965 . S
Zn128 O139 2.024 . S
Zn128 O144 1.969 . S
Zn129 O136 1.969 . S
Zn129 O142 1.969 . S
Zn129 O143 1.965 . S
Zn129 O145 2.024 . S
C130 O131 1.229 . S
C130 O139 1.058 . S
O131 C130 1.229 . S
C132 O133 1.229 . S
C132 O145 1.058 . S
O133 C132 1.229 . S
O134 Zn128 1.969 . S
O134 C137 1.267 . S
O135 Zn128 1.965 . S
O135 C146 1.260 . S
O136 Zn129 1.969 . S
O136 C146 1.258 . S
C137 O134 1.267 . S
C137 O138 1.228 . S
O138 C137 1.228 . S
O139 Zn128 2.024 . S
O139 C130 1.058 . S
C140 O141 1.228 . S
C140 O142 1.267 . S
O141 C140 1.228 . S
O142 Zn129 1.969 . S
O142 C140 1.267 . S
O143 Zn129 1.965 . S
O143 C147 1.260 . S
O144 Zn128 1.969 . S
O144 C147 1.258 . S
O145 Zn129 2.024 . S
O145 C132 1.058 . S
C146 O135 1.260 . S
C146 O136 1.258 . S
C147 O143 1.260 . S
C147 O144 1.258 . S
Zn148 O154 1.969 . S
Zn148 O155 1.965 . S
Zn148 O159 2.024 . S
Zn148 O164 1.969 . S
Zn149 O156 1.969 . S
Zn149 O162 1.969 . S
Zn149 O163 1.965 . S
Zn149 O165 2.024 . S
C150 O151 1.229 . S
C150 O159 1.058 . S
O151 C150 1.229 . S
C152 O153 1.229 . S
C152 O165 1.058 . S
O153 C152 1.229 . S
O154 Zn148 1.969 . S
O154 C157 1.267 . S
O155 Zn148 1.965 . S
O155 C166 1.260 1_455 S
O156 Zn149 1.969 . S
O156 C166 1.258 . S
C157 O154 1.267 . S
C157 O158 1.228 . S
O158 C157 1.228 . S
O159 Zn148 2.024 . S
O159 C150 1.058 . S
C160 O161 1.228 . S
C160 O162 1.267 . S
O161 C160 1.228 . S
O162 Zn149 1.969 . S
O162 C160 1.267 . S
O163 Zn149 1.965 . S
O163 C167 1.260 1_655 S
O164 Zn148 1.969 . S
O164 C167 1.258 . S
O165 Zn149 2.024 . S
O165 C152 1.058 . S
C166 O155 1.260 1_655 S
C166 O156 1.258 . S
C167 O163 1.260 1_455 S
C167 O164 1.258 . S
C168 C169 1.387 . S
C168 H172 0.950 . S
C168 C177 1.390 . S
C169 C168 1.387 . S
C169 C171 1.387 . S
H170 C177 0.950 . S
C171 C169 1.387 . S
C171 C173 1.390 . S
C171 H175 0.950 . S
H172 C168 0.950 . S
C173 C171 1.390 . S
C173 C174 1.387 . S
C173 H176 0.950 1_545 S
C174 C173 1.387 . S
C174 C177 1.387 . S
H175 C171 0.950 . S
H176 C173 0.950 1_565 S
C177 C168 1.390 . S
C177 H170 0.950 . S
C177 C174 1.387 . S
C178 C179 1.387 . S
C178 H182 0.950 . S
C178 C187 1.390 . S
C179 C178 1.387 . S
C179 C181 1.387 . S
H180 C187 0.950 . S
C181 C179 1.387 . S
C181 C183 1.390 . S
C181 H185 0.950 . S
H182 C178 0.950 . S
C183 C181 1.390 . S
C183 C184 1.387 . S
C183 H186 0.950 . S
C184 C183 1.387 . S
C184 C187 1.387 . S
H185 C181 0.950 . S
H186 C183 0.950 . S
C187 C178 1.390 . S
C187 H180 0.950 . S
C187 C184 1.387 . S
C188 C189 1.387 . S
C188 H192 0.950 . S
C188 C197 1.390 . S
C189 C188 1.387 . S
C189 C191 1.387 . S
H190 C197 0.950 . S
C191 C189 1.387 . S
C191 C193 1.390 . S
C191 H195 0.950 . S
H192 C188 0.950 . S
C193 C191 1.390 . S
C193 C194 1.387 . S
C193 H196 0.950 . S
C194 C193 1.387 . S
C194 C197 1.387 . S
H195 C191 0.950 . S
H196 C193 0.950 . S
C197 C188 1.390 . S
C197 H190 0.950 . S
C197 C194 1.387 . S
C198 C199 1.401 . S
C198 H202 0.950 . S
C198 C207 1.390 . S
C199 C198 1.401 . S
C199 C201 1.374 1_655 S
H200 C207 0.950 . S
C201 C199 1.374 1_455 S
C201 C203 1.390 . S
C201 H205 0.950 . S
H202 C198 0.950 . S
C203 C201 1.390 . S
C203 C204 1.387 1_455 S
C203 H206 0.950 . S
C204 C203 1.387 1_655 S
C204 C207 1.387 . S
H205 C201 0.950 . S
H206 C203 0.950 . S
C207 C198 1.390 . S
C207 H200 0.950 . S
C207 C204 1.387 . S
C208 C209 1.387 . S
C208 H212 0.950 . S
C208 C217 1.390 . S
C209 C208 1.387 . S
C209 C211 1.387 . S
H210 C217 0.950 . S
C211 C209 1.387 . S
C211 C213 1.395 . S
C211 H215 0.950 . S
H212 C208 0.950 . S
C213 C211 1.395 . S
C213 C214 1.393 . S
C213 H216 0.940 1_565 S
C214 C213 1.393 . S
C214 C217 1.387 . S
H215 C211 0.950 . S
H216 C213 0.940 1_545 S
C217 C208 1.390 . S
C217 H210 0.950 . S
C217 C214 1.387 . S
C218 C219 1.387 . S
C218 H222 0.950 . S
C218 C227 1.390 . S
C219 C218 1.387 . S
C219 C221 1.387 . S
H220 C227 0.950 . S
C221 C219 1.387 . S
C221 C223 1.390 . S
C221 H225 0.950 . S
H222 C218 0.950 . S
C223 C221 1.390 . S
C223 C224 1.387 . S
C223 H226 0.950 . S
C224 C223 1.387 . S
C224 C227 1.387 . S
H225 C221 0.950 . S
H226 C223 0.950 . S
C227 C218 1.390 . S
C227 H220 0.950 . S
C227 C224 1.387 . S
C228 C229 1.387 . S
C228 H232 0.950 . S
C228 C237 1.390 . S
C229 C228 1.387 . S
C229 C231 1.387 . S
H230 C237 0.950 . S
C231 C229 1.387 . S
C231 C233 1.390 . S
C231 H235 0.950 . S
H232 C228 0.950 . S
C233 C231 1.390 . S
C233 C234 1.387 . S
C233 H236 0.950 . S
C234 C233 1.387 . S
C234 C237 1.387 . S
H235 C231 0.950 . S
H236 C233 0.950 . S
C237 C228 1.390 . S
C237 H230 0.950 . S
C237 C234 1.387 . S
C238 C239 1.373 1_655 S
C238 H242 0.950 . S
C238 C247 1.390 . S
C239 C238 1.373 1_455 S
C239 C241 1.402 . S
H240 C247 0.950 . S
C241 C239 1.402 . S
C241 C243 1.390 . S
C241 H245 0.950 . S
H242 C238 0.950 . S
C243 C241 1.390 . S
C243 C244 1.387 . S
C243 H246 0.950 . S
C244 C243 1.387 . S
C244 C247 1.387 1_455 S
H245 C241 0.950 . S
H246 C243 0.950 . S
C247 C238 1.390 . S
C247 H240 0.950 . S
C247 C244 1.387 1_655 S
C248 C249 1.388 . S
C248 H252 0.946 1_655 S
C248 C257 1.393 . S
C249 C248 1.388 . S
C249 C251 1.387 . S
H250 C257 0.950 . S
C251 C249 1.387 . S
C251 C253 1.390 . S
C251 H255 0.950 . S
H252 C248 0.946 1_455 S
C253 C251 1.390 . S
C253 C254 1.387 . S
C253 H256 0.950 . S
C254 C253 1.387 . S
C254 C257 1.387 . S
H255 C251 0.950 . S
H256 C253 0.950 . S
C257 C248 1.393 . S
C257 H250 0.950 . S
C257 C254 1.387 . S
C258 C259 1.387 . S
C258 H262 0.950 . S
C258 C267 1.390 . S
C259 C258 1.387 . S
C259 C261 1.387 . S
H260 C267 0.950 . S
C261 C259 1.387 . S
C261 C263 1.390 . S
C261 H265 0.950 . S
H262 C258 0.950 . S
C263 C261 1.390 . S
C263 C264 1.387 . S
C263 H266 0.950 . S
C264 C263 1.387 . S
C264 C267 1.387 . S
H265 C261 0.950 . S
H266 C263 0.950 . S
C267 C258 1.390 . S
C267 H260 0.950 . S
C267 C264 1.387 . S
C268 C269 1.387 . S
C268 H272 0.950 . S
C268 C277 1.390 . S
C269 C268 1.387 . S
C269 C271 1.387 . S
H270 C277 0.950 . S
C271 C269 1.387 . S
C271 C273 1.390 . S
C271 H275 0.950 . S
H272 C268 0.950 . S
C273 C271 1.390 . S
C273 C274 1.387 . S
C273 H276 0.950 . S
C274 C273 1.387 . S
C274 C277 1.387 . S
H275 C271 0.950 . S
H276 C273 0.950 . S
C277 C268 1.390 . S
C277 H270 0.950 . S
C277 C274 1.387 . S
C278 C279 1.387 . S
C278 H282 0.950 . S
C278 C287 1.390 . S
C279 C278 1.387 . S
C279 C281 1.387 . S
H280 C287 0.950 . S
C281 C279 1.387 . S
C281 C283 1.390 . S
C281 H285 0.950 . S
H282 C278 0.950 . S
C283 C281 1.390 . S
C283 C284 1.387 . S
C283 H286 0.950 . S
C284 C283 1.387 . S
C284 C287 1.387 . S
H285 C281 0.950 . S
H286 C283 0.950 . S
C287 C278 1.390 . S
C287 H280 0.950 . S
C287 C284 1.387 . S
C288 C289 1.387 1_655 S
C288 H292 0.950 . S
C288 C297 1.390 . S
C289 C288 1.387 1_455 S
C289 C291 1.387 . S
H290 C297 0.950 . S
C291 C289 1.387 . S
C291 C293 1.390 . S
C291 H295 0.950 . S
H292 C288 0.950 . S
C293 C291 1.390 . S
C293 C294 1.387 . S
C293 H296 0.950 . S
C294 C293 1.387 . S
C294 C297 1.387 1_455 S
H295 C291 0.950 . S
H296 C293 0.950 . S
C297 C288 1.390 . S
C297 H290 0.950 . S
C297 C294 1.387 1_655 S
C298 C299 1.387 . S
C298 H302 0.934 1_565 S
C298 C307 1.390 1_565 S
C299 C298 1.387 . S
C299 C301 1.387 . S
H300 C307 0.950 . S
C301 C299 1.387 . S
C301 C303 1.390 . S
C301 H305 0.950 . S
H302 C298 0.934 1_545 S
C303 C301 1.390 . S
C303 C304 1.387 . S
C303 H306 0.950 . S
C304 C303 1.387 . S
C304 C307 1.387 1_565 S
H305 C301 0.950 . S
H306 C303 0.950 . S
C307 C298 1.390 1_545 S
C307 H300 0.950 . S
C307 C304 1.387 1_545 S
C308 C309 1.387 . S
C308 H312 0.950 1_556 S
C308 C317 1.390 . S
C309 C308 1.387 . S
C309 C311 1.387 . S
H310 C317 0.950 . S
C311 C309 1.387 . S
C311 C313 1.390 . S
C311 H315 0.950 . S
H312 C308 0.950 1_554 S
C313 C311 1.390 . S
C313 C314 1.387 . S
C313 H316 0.950 . S
C314 C313 1.387 . S
C314 C317 1.387 . S
H315 C311 0.950 . S
H316 C313 0.950 . S
C317 C308 1.390 . S
C317 H310 0.950 . S
C317 C314 1.387 . S
C318 C319 1.387 . S
C318 H322 0.950 1_556 S
C318 C327 1.390 . S
C319 C318 1.387 . S
C319 C321 1.387 . S
H320 C327 0.950 . S
C321 C319 1.387 . S
C321 C323 1.390 . S
C321 H325 0.950 . S
H322 C318 0.950 1_554 S
C323 C321 1.390 . S
C323 C324 1.387 . S
C323 H326 0.950 . S
C324 C323 1.387 . S
C324 C327 1.387 . S
H325 C321 0.950 . S
H326 C323 0.950 . S
C327 C318 1.390 . S
C327 H320 0.950 . S
C327 C324 1.387 . S
C328 C329 1.387 1_655 S
C328 H332 0.950 . S
C328 C337 1.390 . S
C329 C328 1.387 1_455 S
C329 C331 1.387 . S
H330 C337 0.950 . S
C331 C329 1.387 . S
C331 C333 1.390 . S
C331 H335 0.950 1_556 S
H332 C328 0.950 . S
C333 C331 1.390 . S
C333 C334 1.387 . S
C333 H336 0.950 . S
C334 C333 1.387 . S
C334 C337 1.387 1_455 S
H335 C331 0.950 1_554 S
H336 C333 0.950 . S
C337 C328 1.390 . S
C337 H330 0.950 . S
C337 C334 1.387 1_655 S
C338 C339 1.387 1_554 S
C338 H342 0.950 . S
C338 C347 1.390 1_554 S
C339 C338 1.387 1_556 S
C339 C341 1.387 . S
H340 C347 0.950 . S
C341 C339 1.387 . S
C341 C343 1.390 . S
C341 H345 0.950 . S
H342 C338 0.950 . S
C343 C341 1.390 . S
C343 C344 1.387 . S
C343 H346 0.950 . S
C344 C343 1.387 . S
C344 C347 1.387 . S
H345 C341 0.950 . S
H346 C343 0.950 . S
C347 C338 1.390 1_556 S
C347 H340 0.950 . S
C347 C344 1.387 . S
C348 C349 1.387 . S
C348 H352 0.950 . S
C348 C357 1.390 . S
C349 C348 1.387 . S
C349 C351 1.387 . S
H350 C357 0.950 . S
C351 C349 1.387 . S
C351 C353 1.390 . S
C351 H355 0.950 1_556 S
H352 C348 0.950 . S
C353 C351 1.390 . S
C353 C354 1.387 . S
C353 H356 0.950 . S
C354 C353 1.387 . S
C354 C357 1.387 . S
H355 C351 0.950 1_554 S
H356 C353 0.950 . S
C357 C348 1.390 . S
C357 H350 0.950 . S
C357 C354 1.387 . S
C358 C359 1.387 . S
C358 H362 0.950 . S
C358 C367 1.390 . S
C359 C358 1.387 . S
C359 C361 1.387 1_556 S
H360 C367 0.950 . S
C361 C359 1.387 1_554 S
C361 C363 1.390 1_554 S
C361 H365 0.950 . S
H362 C358 0.950 . S
C363 C361 1.390 1_556 S
C363 C364 1.387 . S
C363 H366 0.951 . S
C364 C363 1.387 . S
C364 C367 1.387 . S
H365 C361 0.950 . S
H366 C363 0.951 . S
C367 C358 1.390 . S
C367 H360 0.950 . S
C367 C364 1.387 . S
C368 C369 1.387 . S
C368 H372 0.950 . S
C368 C377 1.390 . S
C369 C368 1.387 . S
C369 C371 1.387 1_655 S
H370 C377 0.950 . S
C371 C369 1.387 1_455 S
C371 C373 1.390 . S
C371 H375 0.950 . S
H372 C368 0.950 . S
C373 C371 1.390 . S
C373 C374 1.387 1_455 S
C373 H376 0.950 . S
C374 C373 1.387 1_655 S
C374 C377 1.387 . S
H375 C371 0.950 . S
H376 C373 0.950 . S
C377 C368 1.390 . S
C377 H370 0.950 . S
C377 C374 1.387 . S
C378 C379 1.387 . S
C378 H382 0.950 1_565 S
C378 C387 1.390 . S
C379 C378 1.387 . S
C379 C381 1.387 . S
H380 C387 0.950 1_545 S
C381 C379 1.387 . S
C381 C383 1.390 . S
C381 H385 0.950 . S
H382 C378 0.950 1_545 S
C383 C381 1.390 . S
C383 C384 1.387 . S
C383 H386 0.950 . S
C384 C383 1.387 . S
C384 C387 1.387 . S
H385 C381 0.950 . S
H386 C383 0.950 . S
C387 C378 1.390 . S
C387 H380 0.950 1_565 S
C387 C384 1.387 . S
C388 C389 1.387 . S
C388 H392 0.950 . S
C388 C397 1.390 . S
C389 C388 1.387 . S
C389 C391 1.387 . S
H390 C397 0.950 . S
C391 C389 1.387 . S
C391 C393 1.390 . S
C391 H395 0.950 . S
H392 C388 0.950 . S
C393 C391 1.390 . S
C393 C394 1.387 . S
C393 H396 0.950 . S
C394 C393 1.387 . S
C394 C397 1.387 . S
H395 C391 0.950 . S
H396 C393 0.950 . S
C397 C388 1.390 . S
C397 H390 0.950 . S
C397 C394 1.387 . S
C398 C399 1.387 . S
C398 H402 0.950 . S
C398 C407 1.390 . S
C399 C398 1.387 . S
C399 C401 1.387 . S
H400 C407 0.950 . S
C401 C399 1.387 . S
C401 C403 1.390 . S
C401 H405 0.950 . S
H402 C398 0.950 . S
C403 C401 1.390 . S
C403 C404 1.387 . S
C403 H406 0.950 . S
C404 C403 1.387 . S
C404 C407 1.387 . S
H405 C401 0.950 . S
H406 C403 0.950 . S
C407 C398 1.390 . S
C407 H400 0.950 . S
C407 C404 1.387 . S
C169 C74 1.604 . S
C174 C106 1.590 . S
C184 C126 1.433 . S
C179 C85 1.453 . S
C194 C146 1.584 . S
C189 C52 1.595 . S
C204 C166 1.442 . S
C199 C63 1.461 1_655 S
C214 C107 1.595 1_565 S
C209 C30 1.538 . S
C219 C41 1.458 . S
C224 C127 1.433 . S
C229 C8 1.527 . S
C234 C147 1.584 . S
C239 C19 1.459 . S
C244 C167 1.443 . S
C254 C97 1.030 . S
C249 C62 1.097 1_655 S
C264 C117 1.088 . S
C259 C73 1.185 . S
C274 C137 1.041 . S
C269 C84 1.094 . S
C279 C51 1.181 . S
C284 C157 1.078 . S
C289 C18 1.067 . S
C294 C100 1.034 . S
C304 C120 1.089 . S
C299 C29 1.093 . S
C314 C140 1.041 . S
C309 C40 1.076 . S
C319 C7 1.086 . S
C324 C160 1.087 . S
C329 C60 1.267 1_556 S
C334 C90 1.468 . S
C339 C71 1.424 1_556 S
C344 C110 1.521 . S
C354 C130 1.460 . S
C349 C82 1.243 1_556 S
C364 C150 1.535 . S
C359 C49 1.439 1_556 S
C369 C16 1.349 1_655 S
C374 C92 1.468 . S
C384 C112 1.526 . S
C379 C27 1.260 . S
C394 C132 1.455 . S
C389 C38 1.357 . S
C399 C5 1.263 . S
C404 C152 1.539 . S
