# Generated by pormake.
# Topology ocu, (6,8)-cn, num edge types: 1
# Building blocks:
#     Node 0, Type 0, BuildingBlock: KUMBUR_clean_sbu_0, # of connection points: 6
#     Node 1, Type 0, BuildingBlock: KUMBUR_clean_sbu_0, # of connection points: 6
#     Node 2, Type 0, BuildingBlock: KUMBUR_clean_sbu_0, # of connection points: 6
#     Node 3, Type 0, BuildingBlock: KUMBUR_clean_sbu_0, # of connection points: 6
#     Node 4, Type 0, BuildingBlock: KUMBUR_clean_sbu_0, # of connection points: 6
#     Node 5, Type 0, BuildingBlock: KUMBUR_clean_sbu_0, # of connection points: 6
#     Node 6, Type 0, BuildingBlock: KUMBUR_clean_sbu_0, # of connection points: 6
#     Node 7, Type 0, BuildingBlock: KUMBUR_clean_sbu_0, # of connection points: 6
#     Node 8, Type 1, BuildingBlock: VETTIZ_charged_sbu_0, # of connection points: 8
#     Node 9, Type 1, BuildingBlock: VETTIZ_charged_sbu_0, # of connection points: 8
#     Node 10, Type 1, BuildingBlock: VETTIZ_charged_sbu_0, # of connection points: 8
#     Node 11, Type 1, BuildingBlock: VETTIZ_charged_sbu_0, # of connection points: 8
#     Node 12, Type 1, BuildingBlock: VETTIZ_charged_sbu_0, # of connection points: 8
#     Node 13, Type 1, BuildingBlock: VETTIZ_charged_sbu_0, # of connection points: 8
#     Edge 14, Type (0, 1), BuildingBlock: OJICUG_clean_linker_0, # of connection points: 2
#     Edge 15, Type (0, 1), BuildingBlock: OJICUG_clean_linker_0, # of connection points: 2
#     Edge 16, Type (0, 1), BuildingBlock: OJICUG_clean_linker_0, # of connection points: 2
#     Edge 17, Type (0, 1), BuildingBlock: OJICUG_clean_linker_0, # of connection points: 2
#     Edge 18, Type (0, 1), BuildingBlock: OJICUG_clean_linker_0, # of connection points: 2
#     Edge 19, Type (0, 1), BuildingBlock: OJICUG_clean_linker_0, # of connection points: 2
#     Edge 20, Type (0, 1), BuildingBlock: OJICUG_clean_linker_0, # of connection points: 2
#     Edge 21, Type (0, 1), BuildingBlock: OJICUG_clean_linker_0, # of connection points: 2
#     Edge 22, Type (0, 1), BuildingBlock: OJICUG_clean_linker_0, # of connection points: 2
#     Edge 23, Type (0, 1), BuildingBlock: OJICUG_clean_linker_0, # of connection points: 2
#     Edge 24, Type (0, 1), BuildingBlock: OJICUG_clean_linker_0, # of connection points: 2
#     Edge 25, Type (0, 1), BuildingBlock: OJICUG_clean_linker_0, # of connection points: 2
#     Edge 26, Type (0, 1), BuildingBlock: OJICUG_clean_linker_0, # of connection points: 2
#     Edge 27, Type (0, 1), BuildingBlock: OJICUG_clean_linker_0, # of connection points: 2
#     Edge 28, Type (0, 1), BuildingBlock: OJICUG_clean_linker_0, # of connection points: 2
#     Edge 29, Type (0, 1), BuildingBlock: OJICUG_clean_linker_0, # of connection points: 2
#     Edge 30, Type (0, 1), BuildingBlock: OJICUG_clean_linker_0, # of connection points: 2
#     Edge 31, Type (0, 1), BuildingBlock: OJICUG_clean_linker_0, # of connection points: 2
#     Edge 32, Type (0, 1), BuildingBlock: OJICUG_clean_linker_0, # of connection points: 2
#     Edge 33, Type (0, 1), BuildingBlock: OJICUG_clean_linker_0, # of connection points: 2
#     Edge 34, Type (0, 1), BuildingBlock: OJICUG_clean_linker_0, # of connection points: 2
#     Edge 35, Type (0, 1), BuildingBlock: OJICUG_clean_linker_0, # of connection points: 2
#     Edge 36, Type (0, 1), BuildingBlock: OJICUG_clean_linker_0, # of connection points: 2
#     Edge 37, Type (0, 1), BuildingBlock: OJICUG_clean_linker_0, # of connection points: 2
#     Edge 38, Type (0, 1), BuildingBlock: OJICUG_clean_linker_0, # of connection points: 2
#     Edge 39, Type (0, 1), BuildingBlock: OJICUG_clean_linker_0, # of connection points: 2
#     Edge 40, Type (0, 1), BuildingBlock: OJICUG_clean_linker_0, # of connection points: 2
#     Edge 41, Type (0, 1), BuildingBlock: OJICUG_clean_linker_0, # of connection points: 2
#     Edge 42, Type (0, 1), BuildingBlock: OJICUG_clean_linker_0, # of connection points: 2
#     Edge 43, Type (0, 1), BuildingBlock: OJICUG_clean_linker_0, # of connection points: 2
#     Edge 44, Type (0, 1), BuildingBlock: OJICUG_clean_linker_0, # of connection points: 2
#     Edge 45, Type (0, 1), BuildingBlock: OJICUG_clean_linker_0, # of connection points: 2
#     Edge 46, Type (0, 1), BuildingBlock: OJICUG_clean_linker_0, # of connection points: 2
#     Edge 47, Type (0, 1), BuildingBlock: OJICUG_clean_linker_0, # of connection points: 2
#     Edge 48, Type (0, 1), BuildingBlock: OJICUG_clean_linker_0, # of connection points: 2
#     Edge 49, Type (0, 1), BuildingBlock: OJICUG_clean_linker_0, # of connection points: 2
#     Edge 50, Type (0, 1), BuildingBlock: OJICUG_clean_linker_0, # of connection points: 2
#     Edge 51, Type (0, 1), BuildingBlock: OJICUG_clean_linker_0, # of connection points: 2
#     Edge 52, Type (0, 1), BuildingBlock: OJICUG_clean_linker_0, # of connection points: 2
#     Edge 53, Type (0, 1), BuildingBlock: OJICUG_clean_linker_0, # of connection points: 2
#     Edge 54, Type (0, 1), BuildingBlock: OJICUG_clean_linker_0, # of connection points: 2
#     Edge 55, Type (0, 1), BuildingBlock: OJICUG_clean_linker_0, # of connection points: 2
#     Edge 56, Type (0, 1), BuildingBlock: OJICUG_clean_linker_0, # of connection points: 2
#     Edge 57, Type (0, 1), BuildingBlock: OJICUG_clean_linker_0, # of connection points: 2
#     Edge 58, Type (0, 1), BuildingBlock: OJICUG_clean_linker_0, # of connection points: 2
#     Edge 59, Type (0, 1), BuildingBlock: OJICUG_clean_linker_0, # of connection points: 2
#     Edge 60, Type (0, 1), BuildingBlock: OJICUG_clean_linker_0, # of connection points: 2
#     Edge 61, Type (0, 1), BuildingBlock: OJICUG_clean_linker_0, # of connection points: 2
# Relax obj value: 0.133
# Max RMSD: 0.244
# Mean RMSD: 0.168
data_MOF--net-ocu--node1-KUMBUR_clean_sbu_0--node2-VETTIZ_charged_sbu_0--edge1-OJICUG_clean_linker_0
_symmetry_space_group_name_H-M    P1
_symmetry_Int_Tables_number       1
_symmetry_cell_setting            triclinic
loop_
_symmetry_equiv_pos_as_xyz
'x, y, z'
_cell_length_a     28.776578
_cell_length_b     29.63064
_cell_length_c     31.296805
_cell_angle_alpha  74.663283
_cell_angle_beta   102.86905
_cell_angle_gamma 106.73658
loop_
_atom_site_label
_atom_site_type_symbol
_atom_site_fract_x
_atom_site_fract_y
_atom_site_fract_z
_atom_type_partial_charge
Tb0 Tb 0.28401 0.20336 0.25355 0.0
C1 C 0.44182 0.33937 0.36078 0.0
C2 C 0.45644 0.29026 0.43517 0.0
C3 C 0.52136 0.35814 0.40774 0.0
C4 C 0.42544 0.30074 0.394 0.0
C5 C 0.48966 0.36918 0.3674 0.0
C6 C 0.50479 0.31865 0.44157 0.0
C7 C 0.47014 0.41989 0.29495 0.0
N8 N 0.41014 0.34852 0.32233 0.0
C9 C 0.42314 0.38911 0.28996 0.0
C10 C 0.50379 0.4096 0.33363 0.0
Tb11 Tb 0.33436 0.29533 0.31665 0.0
N12 N 0.37848 0.2744 0.38647 0.0
C13 C 0.35913 0.23903 0.42037 0.0
C14 C 0.4376 0.2522 0.4689 0.0
C15 C 0.38848 0.22696 0.46165 0.0
H16 H 0.39785 0.39752 0.25968 0.0
H17 H 0.37306 0.19796 0.48766 0.0
H18 H 0.52929 0.31095 0.47284 0.0
H19 H 0.48041 0.45141 0.26885 0.0
H20 H 0.32148 0.21864 0.41568 0.0
H21 H 0.26313 0.31528 0.08492 0.0
H22 H 0.4604 0.24267 0.50078 0.0
H23 H 0.21295 0.0991 0.29359 0.0
H24 H 0.30858 0.28369 0.15663 0.0
H25 H 0.12612 0.05353 0.27848 0.0
H26 H 0.55841 0.38034 0.41338 0.0
H27 H 0.17318 0.28348 0.06773 0.0
H28 H 0.09695 0.22259 0.09003 0.0
H29 H 0.5402 0.43345 0.33741 0.0
H30 H 1.05924 0.1507 0.14305 0.0
N31 N 0.24583 0.23363 0.18233 0.0
C32 C 0.26979 0.26828 0.15045 0.0
C33 C 0.19323 0.26912 0.09962 0.0
C34 C 0.16929 0.23154 0.13072 0.0
C35 C 0.2439 0.28689 0.10916 0.0
C36 C 0.19706 0.21425 0.17195 0.0
H37 H 0.0701 0.08701 0.21317 0.0
N38 N 0.20538 0.15749 0.23862 0.0
C39 C 0.1396 0.08768 0.25654 0.0
C40 C 0.17598 0.17448 0.20136 0.0
C41 C 0.18865 0.11331 0.26492 0.0
C42 C 0.10804 0.10666 0.21982 0.0
C43 C 0.12643 0.15 0.19099 0.0
O44 O 0.29192 0.13336 0.2598 0.0
O45 O 0.33711 0.22606 0.30942 0.0
O46 O 0.39458 0.29174 0.28682 0.0
O47 O 0.34803 0.25713 0.22755 0.0
O48 O 0.30078 0.15566 0.31918 0.0
O49 O 0.32744 0.1939 0.2127 0.0
O50 O 0.31612 0.36189 0.30314 0.0
O51 O 0.27874 0.27138 0.26223 0.0
O52 O 0.22703 0.19823 0.29183 0.0
O53 O 0.27273 0.24146 0.34633 0.0
O54 O 0.31993 0.34031 0.24985 0.0
O55 O 0.29998 0.3079 0.36343 0.0
C56 C 0.33503 0.18648 0.33787 0.0
C57 C 0.30936 0.11824 0.19543 0.0
C58 C 0.34352 0.09015 0.14625 0.0
C59 C 0.34993 0.11305 0.18146 0.0
C60 C 0.29578 0.07104 0.12561 0.0
C61 C 0.26162 0.09865 0.17535 0.0
C62 C 0.25497 0.07464 0.14069 0.0
C63 C 0.39 0.28148 0.2472 0.0
C64 C 0.31925 0.14761 0.22857 0.0
C65 C 0.09758 0.16859 0.15138 0.0
C66 C 0.11904 0.20945 0.12122 0.0
C67 C 0.28292 0.31052 0.23305 0.0
C68 C 0.30231 0.38848 0.36247 0.0
C69 C 0.25988 0.40209 0.36258 0.0
C70 C 0.26171 0.43699 0.38571 0.0
C71 C 0.30712 0.45965 0.4078 0.0
C72 C 0.34762 0.41042 0.38492 0.0
C73 C 0.34984 0.44599 0.40769 0.0
C74 C 0.23249 0.21178 0.33009 0.0
C75 C 0.29635 0.35028 0.33924 0.0
H76 H 0.3868 0.12899 0.19662 0.0
H77 H 0.29022 0.0537 0.09783 0.0
H78 H 0.22985 0.10264 0.18578 0.0
H79 H 0.21824 0.05976 0.12484 0.0
H80 H 0.22472 0.38397 0.34606 0.0
H81 H 0.30914 0.48602 0.42683 0.0
H82 H 0.38072 0.39987 0.3851 0.0
H83 H 0.38463 0.46284 0.42545 0.0
Tb84 Tb 0.85512 0.2175 0.30338 0.0
C85 C 0.66082 0.25314 0.3193 0.0
C86 C 0.60163 0.25691 0.25079 0.0
C87 C 0.57335 0.2333 0.32278 0.0
C88 C 0.65058 0.26164 0.27318 0.0
C89 C 0.62227 0.2396 0.34474 0.0
C90 C 0.56302 0.24193 0.27589 0.0
C91 C 0.68335 0.24414 0.41112 0.0
N92 N 0.70865 0.26051 0.3391 0.0
C93 C 0.72026 0.25809 0.38439 0.0
C94 C 0.6341 0.2343 0.39129 0.0
Tb95 Tb 0.76629 0.28546 0.29184 0.0
N96 N 0.68887 0.277 0.25017 0.0
C97 C 0.68068 0.29048 0.20421 0.0
C98 C 0.59305 0.26879 0.20388 0.0
C99 C 0.63283 0.28599 0.1805 0.0
H100 H 0.75782 0.26585 0.40081 0.0
H101 H 0.6267 0.29598 0.14422 0.0
H102 H 0.52518 0.23801 0.25936 0.0
H103 H 0.69297 0.24111 0.44705 0.0
H104 H 0.71095 0.3038 0.18552 0.0
H105 H 0.98339 0.20425 0.45897 0.0
H106 H 0.55601 0.26579 0.18548 0.0
H107 H 0.87347 0.24035 0.19794 0.0
H108 H 0.90168 0.19439 0.41213 0.0
H109 H 0.94333 0.26993 0.15642 0.0
H110 H 0.5433 0.22302 0.34158 0.0
H111 H 1.0582 0.24111 0.42362 0.0
H112 H 0.09583 0.27565 0.35301 0.0
H113 H 0.60561 0.22376 0.41206 0.0
H114 H 0.08488 0.29435 0.27044 0.0
N115 N 0.92943 0.22594 0.35036 0.0
C116 C 0.93385 0.2103 0.39605 0.0
C117 C 1.02235 0.23696 0.40279 0.0
C118 C 1.01775 0.25125 0.35602 0.0
C119 C 0.98021 0.21604 0.42285 0.0
C120 C 0.97021 0.24503 0.33049 0.0
H121 H 1.02811 0.29193 0.19676 0.0
N122 N 0.91753 0.24769 0.26138 0.0
C123 C 0.94972 0.26669 0.19239 0.0
C124 C 0.96399 0.25637 0.2843 0.0
C125 C 0.91009 0.25003 0.21621 0.0
C126 C 0.99749 0.2792 0.21525 0.0
C127 C 1.00524 0.2731 0.26194 0.0
O128 O 0.83909 0.17034 0.25912 0.0
O129 O 0.78599 0.21799 0.31938 0.0
O130 O 0.81826 0.28588 0.35588 0.0
O131 O 0.88894 0.27815 0.33766 0.0
O132 O 0.82334 0.17364 0.36466 0.0
O133 O 0.87036 0.14991 0.32867 0.0
O134 O 0.79513 0.34164 0.32743 0.0
O135 O 0.83503 0.28483 0.27434 0.0
O136 O 0.80305 0.21543 0.2397 0.0
O137 O 0.73223 0.22616 0.25529 0.0
O138 O 0.79265 0.3236 0.22751 0.0
O139 O 0.74971 0.35222 0.26299 0.0
C140 C 0.78372 0.18813 0.35642 0.0
C141 C 0.81454 0.08791 0.2949 0.0
C142 C 0.79867 1.00921 0.34447 0.0
C143 C 0.80858 0.05952 0.33752 0.0
C144 C 0.77946 0.9875 0.30739 0.0
C145 C 0.79586 0.06646 0.25762 0.0
C146 C 0.77577 0.01653 0.26405 0.0
C147 C 0.86691 0.29375 0.36201 0.0
C148 C 0.85013 0.13542 0.29133 0.0
C149 C 1.05275 0.28111 0.28701 0.0
C150 C 1.059 0.27031 0.33402 0.0
C151 C 0.83409 0.31253 0.23591 0.0
C152 C 0.8211 0.41288 0.27331 0.0
C153 C 0.80609 0.44247 0.23344 0.0
C154 C 0.8391 0.47033 0.20426 0.0
C155 C 0.88937 0.47313 0.21743 0.0
C156 C 0.87169 0.41562 0.28701 0.0
C157 C 0.9057 0.44651 0.25955 0.0
C158 C 0.75454 0.2092 0.23219 0.0
C159 C 0.78212 0.37311 0.29259 0.0
H160 H 0.82279 0.07632 0.36616 0.0
H161 H 0.77179 0.9487 0.31167 0.0
H162 H 0.79944 0.08754 0.224 0.0
H163 H 0.7622 0.99995 0.23541 0.0
H164 H 0.76709 0.44053 0.22304 0.0
H165 H 0.91541 0.4952 0.19543 0.0
H166 H 0.88485 0.39295 0.31767 0.0
H167 H 0.9445 0.4481 0.27007 0.0
Tb168 Tb 0.79475 0.75229 0.32422 0.0
C169 C 0.93104 0.92175 0.21323 0.0
C170 C 0.87901 0.95524 0.14802 0.0
C171 C 0.95383 1.00724 0.17913 0.0
C172 C 0.8889 0.91598 0.18255 0.0
C173 C 0.96492 0.96708 0.21135 0.0
C174 C 0.91084 1.0013 0.14739 0.0
C175 C 1.02052 0.9282 0.26905 0.0
N176 N 0.94069 0.88176 0.24264 0.0
C177 C 0.98588 0.88402 0.26905 0.0
C178 C 1.00968 0.9701 0.24059 0.0
Tb179 Tb 0.88003 0.81122 0.24421 0.0
N180 N 0.86018 0.8707 0.18399 0.0
C181 C 0.82378 0.86149 0.14862 0.0
C182 C 0.83897 0.94649 0.11404 0.0
C183 C 0.81187 0.89918 0.11387 0.0
H184 H 0.995 0.85203 0.29116 0.0
H185 H 0.78169 0.89164 0.08705 0.0
H186 H 0.90359 0.03207 0.12152 0.0
H187 H 1.05562 0.92987 0.29091 0.0
H188 H 0.80232 0.82535 0.14747 0.0
H189 H 0.89762 0.66731 0.47597 0.0
H190 H 0.82997 0.97558 0.08692 0.0
H191 H 0.68291 0.71326 0.27045 0.0
H192 H 0.8811 0.73383 0.41413 0.0
H193 H 0.61792 0.63798 0.2739 0.0
H194 H 0.97908 0.04253 0.17738 0.0
H195 H 0.83962 0.58687 0.48238 0.0
H196 H 0.75968 0.53433 0.45274 0.0
H197 H 1.03673 1.00411 0.24041 0.0
H198 H 0.68337 0.52631 0.39778 0.0
N199 N 0.8141 0.69221 0.38372 0.0
C200 C 0.85497 0.69937 0.41577 0.0
C201 C 0.83198 0.61614 0.45481 0.0
C202 C 0.78927 0.60941 0.42314 0.0
C203 C 0.86471 0.66149 0.45134 0.0
C204 C 0.78121 0.64874 0.38787 0.0
H205 H 0.62995 0.56492 0.33118 0.0
N206 N 0.73212 0.68362 0.32519 0.0
C207 C 0.65173 0.6392 0.29763 0.0
C208 C 0.73861 0.64426 0.35739 0.0
C209 C 0.68874 0.68201 0.29599 0.0
C210 C 0.6587 0.59802 0.3299 0.0
C211 C 0.70238 0.60031 0.36063 0.0
O212 O 0.73635 0.77556 0.33539 0.0
O213 O 0.81529 0.81097 0.26793 0.0
O214 O 0.89591 0.85481 0.29578 0.0
O215 O 0.86265 0.79525 0.35389 0.0
O216 O 0.74305 0.78841 0.27407 0.0
O217 O 0.80455 0.78078 0.38127 0.0
O218 O 0.93898 0.78795 0.23484 0.0
O219 O 0.85883 0.74996 0.29908 0.0
O220 O 0.78354 0.70673 0.27613 0.0
O221 O 0.81117 0.76598 0.21544 0.0
O222 O 0.93167 0.77804 0.29608 0.0
O223 O 0.87189 0.78228 0.18753 0.0
C224 C 0.77364 0.82002 0.25062 0.0
C225 C 0.7351 0.78284 0.40906 0.0
C226 C 0.69586 0.81664 0.45122 0.0
C227 C 0.718 0.82114 0.41383 0.0
C228 C 0.69072 0.77289 0.48341 0.0
C229 C 0.72924 0.73959 0.44143 0.0
C230 C 0.70706 0.73474 0.47837 0.0
C231 C 0.89 0.83804 0.33858 0.0
C232 C 0.76139 0.79006 0.37145 0.0
C233 C 0.71062 0.56049 0.39482 0.0
C234 C 0.75404 0.56505 0.42607 0.0
C235 C 0.90145 0.74373 0.31792 0.0
C236 C 0.94205 0.77665 0.16353 0.0
C237 C 0.94278 0.73383 0.15278 0.0
C238 C 0.97155 0.73479 0.1217 0.0
C239 C 0.999 0.77943 0.10065 0.0
C240 C 0.96894 0.82106 0.14199 0.0
C241 C 0.99708 0.82234 0.11034 0.0
C242 C 0.78676 0.72196 0.2327 0.0
C243 C 0.9147 0.7726 0.19909 0.0
H244 H 0.72301 0.85479 0.389 0.0
H245 H 0.67339 0.76788 0.51226 0.0
H246 H 0.74225 0.7099 0.43836 0.0
H247 H 0.70267 0.70128 0.50335 0.0
H248 H 0.92218 0.69947 0.16978 0.0
H249 H 1.02167 0.78108 0.07664 0.0
H250 H 0.96856 0.85435 0.15001 0.0
H251 H 1.01796 0.8566 0.09371 0.0
Tb252 Tb 0.32487 0.70872 0.30449 0.0
C253 C 0.22134 0.86445 0.18492 0.0
C254 C 0.28244 0.92986 0.14961 0.0
C255 C 0.19827 0.91174 0.11089 0.0
C256 C 0.26906 0.89137 0.18574 0.0
C257 C 0.18508 0.87444 0.14776 0.0
C258 C 0.24695 0.93939 0.11178 0.0
C259 C 0.12548 0.81121 0.18711 0.0
N260 N 0.21043 0.82869 0.22112 0.0
C261 C 0.16285 0.80283 0.22325 0.0
C262 C 0.13672 0.84693 0.14904 0.0
Tb263 Tb 0.27458 0.81619 0.27776 0.0
N264 N 0.30204 0.88082 0.22282 0.0
C265 C 0.34825 0.91029 0.22764 0.0
C266 C 0.33085 0.95789 0.15299 0.0
C267 C 0.36366 0.94846 0.19253 0.0
H268 H 0.15381 0.77458 0.25213 0.0
H269 H 0.4012 0.96967 0.19579 0.0
H270 H 0.25657 0.96844 0.08341 0.0
H271 H 0.0881 0.78997 0.18856 0.0
H272 H 0.37413 0.90301 0.25791 0.0
H273 H 0.23646 0.56819 0.43073 0.0
H274 H 0.343 0.9871 0.12561 0.0
H275 H 0.44355 0.76809 0.30376 0.0
H276 H 0.24043 0.62401 0.35638 0.0
H277 H 0.52332 0.76018 0.34847 0.0
H278 H 0.17105 0.91984 0.08182 0.0
H279 H 0.3128 0.55653 0.48161 0.0
H280 H 0.40524 0.57826 0.49647 0.0
H281 H 0.10783 0.85331 0.12106 0.0
H282 H 0.48343 0.62948 0.47339 0.0
N283 N 0.31772 0.65113 0.36951 0.0
C284 C 0.27377 0.62197 0.37998 0.0
C285 C 0.31472 0.58278 0.4501 0.0
C286 C 0.35992 0.61023 0.43773 0.0
C287 C 0.27148 0.589 0.42122 0.0
C288 C 0.36014 0.64476 0.3969 0.0
H289 H 0.52783 0.69728 0.41816 0.0
N290 N 0.40184 0.70785 0.34554 0.0
C291 C 0.48998 0.73528 0.35869 0.0
C292 C 0.40387 0.67348 0.38402 0.0
C293 C 0.44425 0.73918 0.33298 0.0
C294 C 0.4924 0.69978 0.39803 0.0
C295 C 0.44897 0.6687 0.4115 0.0
O296 O 0.34905 0.68525 0.25733 0.0
O297 O 0.32728 0.78249 0.26925 0.0
O298 O 0.24633 0.77515 0.22358 0.0
O299 O 0.24886 0.70047 0.27 0.0
O300 O 0.37145 0.7499 0.25277 0.0
O301 O 0.28853 0.64 0.29057 0.0
O302 O 0.23443 0.83681 0.31464 0.0
O303 O 0.27275 0.74334 0.31558 0.0
O304 O 0.35219 0.74416 0.36145 0.0
O305 O 0.34743 0.82161 0.32136 0.0
O306 O 0.21764 0.77245 0.31832 0.0
O307 O 0.30844 0.87713 0.30617 0.0
C308 C 0.35628 0.78859 0.24235 0.0
C309 C 0.33742 0.60156 0.26599 0.0
C310 C 0.36617 0.55264 0.22962 0.0
C311 C 0.34486 0.59106 0.2268 0.0
C312 C 0.38 0.52528 0.27234 0.0
C313 C 0.35197 0.57376 0.308 0.0
C314 C 0.37353 0.53627 0.31097 0.0
C315 C 0.23468 0.72724 0.23067 0.0
C316 C 0.31755 0.64348 0.26251 0.0
C317 C 0.44916 0.63378 0.45185 0.0
C318 C 0.40467 0.60469 0.46503 0.0
C319 C 0.23568 0.73552 0.33461 0.0
C320 C 0.25603 0.91815 0.32101 0.0
C321 C 0.26299 0.93438 0.36087 0.0
C322 C 0.24189 0.97132 0.36256 0.0
C323 C 0.21597 0.99313 0.32236 0.0
C324 C 0.23147 0.94151 0.28132 0.0
C325 C 0.21207 0.97935 0.282 0.0
C326 C 0.36072 0.79108 0.35889 0.0
C327 C 0.27001 0.87353 0.32336 0.0
H328 H 0.33476 0.6132 0.19429 0.0
H329 H 0.39804 0.49669 0.27612 0.0
H330 H 0.34764 0.58156 0.33854 0.0
H331 H 0.3868 0.51657 0.34343 0.0
H332 H 0.28325 0.9165 0.39084 0.0
H333 H 0.19636 0.01907 0.32236 0.0
H334 H 0.22592 0.92946 0.25036 0.0
H335 H 0.1919 0.99659 0.25156 0.0
Tb336 Tb 0.34801 0.73179 0.80938 0.0
C337 C 0.15096 0.75867 0.79813 0.0
C338 C 0.09712 0.76162 0.72677 0.0
C339 C 1.06243 0.72983 0.79588 0.0
C340 C 0.14469 0.76937 0.75223 0.0
C341 C 0.1099 0.74016 0.82073 0.0
C342 C 1.05604 0.74054 0.74885 0.0
C343 C 0.16518 0.74974 0.88977 0.0
N344 N 0.19727 0.77039 0.82047 0.0
C345 C 0.20456 0.76822 0.86565 0.0
C346 C 0.11769 0.73482 0.86732 0.0
Tb347 Tb 0.26046 0.80133 0.77882 0.0
N348 N 0.18531 0.79079 0.7326 0.0
C349 C 0.18036 0.80886 0.68718 0.0
C350 C 0.09228 0.77717 0.6801 0.0
C351 C 0.13408 0.80155 0.6603 0.0
H352 H 0.24095 0.77947 0.88372 0.0
H353 H 0.13068 0.81503 0.62433 0.0
H354 H 1.0192 0.73396 0.72994 0.0
H355 H 0.17155 0.74691 0.92568 0.0
H356 H 0.21209 0.82825 0.67123 0.0
H357 H 0.52472 0.84738 0.76946 0.0
H358 H 1.05644 0.77197 0.65928 0.0
H359 H 0.3095 0.61366 0.80755 0.0
H360 H 0.45653 0.81704 0.81165 0.0
H361 H 0.31721 0.56022 0.763 0.0
H362 H 1.03043 0.71521 0.8126 0.0
H363 H 0.52788 0.80849 0.70981 0.0
H364 H 0.49374 0.73856 0.67183 0.0
H365 H 0.08729 0.72079 0.88603 0.0
H366 H 0.43682 0.65893 0.67043 0.0
N367 N 0.41694 0.76262 0.77444 0.0
C368 C 0.45538 0.79992 0.78503 0.0
C369 C 0.49691 0.79512 0.72789 0.0
C370 C 0.46049 0.7539 0.72045 0.0
C371 C 0.49527 0.81708 0.76154 0.0
C372 C 0.42111 0.73783 0.74523 0.0
H373 H 0.37184 0.59134 0.70549 0.0
N374 N 0.35667 0.67651 0.77367 0.0
C375 C 0.33738 0.59769 0.75709 0.0
C376 C 0.38975 0.69297 0.74485 0.0
C377 C 0.33295 0.62848 0.78221 0.0
C378 C 0.36808 0.61542 0.72454 0.0
C379 C 0.39599 0.66316 0.71911 0.0
O380 O 0.36279 0.72742 0.8796 0.0
O381 O 0.28237 0.74055 0.82584 0.0
O382 O 0.30928 0.8121 0.84277 0.0
O383 O 0.37899 0.80378 0.82612 0.0
O384 O 0.28511 0.67258 0.82902 0.0
O385 O 0.39603 0.69049 0.8497 0.0
O386 O 0.25816 0.85362 0.81232 0.0
O387 O 0.3328 0.79834 0.77061 0.0
O388 O 0.29785 0.70939 0.74991 0.0
O389 O 0.23051 0.74256 0.74124 0.0
O390 O 0.29204 0.82837 0.71561 0.0
O391 O 0.2648 0.8726 0.74261 0.0
C392 C 0.25756 0.69706 0.83456 0.0
C393 C 0.44835 0.73772 0.89935 0.0
C394 C 0.53554 0.74842 0.90503 0.0
C395 C 0.4882 0.73747 0.88104 0.0
C396 C 0.54453 0.77974 0.93451 0.0
C397 C 0.45664 0.76486 0.93211 0.0
C398 C 0.50483 0.78853 0.94744 0.0
C399 C 0.35769 0.82154 0.84906 0.0
C400 C 0.39937 0.70891 0.88385 0.0
C401 C 0.43196 0.68098 0.69096 0.0
C402 C 0.46428 0.72636 0.69169 0.0
C403 C 0.33308 0.81631 0.7292 0.0
C404 C 0.30085 0.93329 0.7836 0.0
C405 C 0.28261 0.97413 0.77229 0.0
C406 C 0.31119 0.01812 0.75161 0.0
C407 C 0.36233 0.0244 0.75728 0.0
C408 C 0.35159 0.93863 0.78781 0.0
C409 C 0.38269 0.98471 0.77731 0.0
C410 C 0.2529 0.71412 0.73089 0.0
C411 C 0.26457 0.88828 0.77747 0.0
H412 H 0.48151 0.71862 0.85419 0.0
H413 H 0.58115 0.79092 0.95251 0.0
H414 H 0.42636 0.76759 0.94573 0.0
H415 H 0.51151 0.80997 0.97233 0.0
H416 H 0.24299 0.96876 0.76791 0.0
H417 H 0.38527 0.05793 0.74155 0.0
H418 H 0.36658 0.90756 0.79595 0.0
H419 H 0.42172 0.9887 0.77967 0.0
Tb420 Tb 0.24724 0.21662 0.8377 0.0
C421 C 0.39006 0.38985 0.73292 0.0
C422 C 0.34117 0.42741 0.66745 0.0
C423 C 0.41693 0.47565 0.70149 0.0
C424 C 0.34885 0.3865 0.70083 0.0
C425 C 0.42514 0.43423 0.73345 0.0
C426 C 0.37497 0.47223 0.66847 0.0
C427 C 0.47487 0.3927 0.79525 0.0
N428 N 0.39654 0.34898 0.7628 0.0
C429 C 0.43905 0.34953 0.79312 0.0
C430 C 0.46772 0.43537 0.76553 0.0
Tb431 Tb 0.33471 0.28018 0.7592 0.0
N432 N 0.31732 0.34255 0.70124 0.0
C433 C 0.27878 0.33656 0.66682 0.0
C434 C 0.30045 0.42178 0.63356 0.0
C435 C 0.2695 0.376 0.63293 0.0
H436 H 0.44482 0.31704 0.81679 0.0
H437 H 0.2383 0.37102 0.60646 0.0
H438 H 0.3695 0.50418 0.64341 0.0
H439 H 0.50789 0.39303 0.81995 0.0
H440 H 0.2541 0.30179 0.66525 0.0
H441 H 0.34162 0.12348 0.98956 0.0
H442 H 0.29316 0.45226 0.60731 0.0
H443 H 0.13214 0.1815 0.78808 0.0
H444 H 0.32231 0.19403 0.93424 0.0
H445 H 0.06987 0.10539 0.78274 0.0
H446 H 0.44321 0.51021 0.7015 0.0
H447 H 0.29195 0.04139 0.98366 0.0
H448 H 0.21789 0.98932 0.94451 0.0
H449 H 0.49554 0.46875 0.76717 0.0
H450 H 0.14317 0.98435 0.88763 0.0
N451 N 0.26456 0.15291 0.89404 0.0
C452 C 0.30041 0.15869 0.93045 0.0
C453 C 0.28362 0.07233 0.95865 0.0
C454 C 0.24397 0.06691 0.92377 0.0
C455 C 0.31136 0.1186 0.96243 0.0
C456 C 0.2352 0.1085 0.892 0.0
H457 H 0.08672 0.02783 0.82769 0.0
N458 N 0.18505 0.14767 0.83428 0.0
C459 C 0.1047 0.10489 0.80464 0.0
C460 C 0.19349 0.10576 0.86076 0.0
C461 C 0.14022 0.14807 0.80784 0.0
C462 C 0.11438 0.06116 0.82992 0.0
C463 C 0.15882 0.06131 0.85929 0.0
O464 O 0.19006 0.24137 0.84839 0.0
O465 O 0.26919 0.27796 0.78378 0.0
O466 O 0.34417 0.32238 0.81017 0.0
O467 O 0.3163 0.25989 0.86871 0.0
O468 O 0.19664 0.25513 0.78979 0.0
O469 O 0.25513 0.23944 0.89794 0.0
O470 O 0.39398 0.2581 0.7481 0.0
O471 O 0.31305 0.21997 0.81383 0.0
O472 O 0.23113 0.17748 0.78263 0.0
O473 O 0.26649 0.23944 0.72688 0.0
O474 O 0.38546 0.24166 0.80807 0.0
O475 O 0.32632 0.25321 0.70146 0.0
C476 C 0.22756 0.2878 0.76734 0.0
C477 C 0.18531 0.24843 0.92062 0.0
C478 C 0.15345 0.29053 0.96025 0.0
C479 C 0.18385 0.29134 0.93071 0.0
C480 C 0.12512 0.2461 0.98058 0.0
C481 C 0.15732 0.20414 0.94124 0.0
C482 C 0.12757 0.20308 0.97149 0.0
C483 C 0.34073 0.30469 0.85341 0.0
C484 C 0.21391 0.25248 0.88604 0.0
C485 C 0.16887 0.01902 0.88854 0.0
C486 C 0.21147 0.02183 0.92086 0.0
C487 C 0.35416 0.20945 0.83036 0.0
C488 C 0.39584 0.24862 0.67518 0.0
C489 C 0.41055 0.20856 0.67114 0.0
C490 C 0.43313 0.21119 0.63456 0.0
C491 C 0.44122 0.25495 0.60252 0.0
C492 C 0.40441 0.29171 0.64288 0.0
C493 C 0.42712 0.29477 0.60679 0.0
C494 C 0.23805 0.19641 0.74023 0.0
C495 C 0.36924 0.24339 0.71205 0.0
H496 H 0.20527 0.32566 0.91445 0.0
H497 H 0.10127 0.24475 1.00347 0.0
H498 H 0.15801 0.17082 0.93349 0.0
H499 H 0.10569 0.16895 0.98731 0.0
H500 H 0.40337 0.17503 0.6959 0.0
H501 H 0.45918 0.25866 0.57441 0.0
H502 H 0.39317 0.32269 0.64541 0.0
H503 H 0.43373 0.32815 0.58188 0.0
Tb504 Tb 0.85952 0.2055 0.80615 0.0
C505 C 0.77026 0.37207 0.68677 0.0
C506 C 0.84108 0.43126 0.66051 0.0
C507 C 0.76024 0.42869 0.6153 0.0
C508 C 0.81987 0.39224 0.69286 0.0
C509 C 0.73944 0.39056 0.64843 0.0
C510 C 0.81112 0.44886 0.62123 0.0
C511 C 0.67006 0.33436 0.68002 0.0
N512 N 0.75205 0.33526 0.71955 0.0
C513 C 0.70232 0.31726 0.71739 0.0
C514 C 0.68872 0.37081 0.64511 0.0
Tb515 Tb 0.8081 0.30902 0.77894 0.0
N516 N 0.84711 0.37485 0.73165 0.0
C517 C 0.89512 0.39797 0.74218 0.0
C518 C 0.89158 0.45153 0.66902 0.0
C519 C 0.91857 0.43482 0.71031 0.0
H520 H 0.68724 0.28897 0.7439 0.0
H521 H 0.95768 0.44887 0.71762 0.0
H522 H 0.82674 0.47868 0.59581 0.0
H523 H 0.63082 0.31932 0.67814 0.0
H524 H 0.91655 0.38577 0.77396 0.0
H525 H 0.71751 0.04486 0.84867 0.0
H526 H 0.90979 0.48026 0.64431 0.0
H527 H 0.97624 0.24064 0.85385 0.0
H528 H 0.75228 0.12492 0.80483 0.0
H529 H 1.0321 0.20941 0.91901 0.0
H530 H 0.73729 0.44325 0.58539 0.0
H531 H 0.76791 1.00776 0.91568 0.0
H532 H 0.84871 0.01363 0.96876 0.0
H533 H 0.66367 0.38399 0.61624 0.0
H534 H 0.93361 0.05856 0.98854 0.0
N535 N 0.82097 0.135 0.84863 0.0
C536 C 0.77439 0.10997 0.83494 0.0
C537 C 0.78294 0.04366 0.8978 0.0
C538 C 0.83092 0.06888 0.91127 0.0
C539 C 0.75448 0.06437 0.85961 0.0
C540 C 0.84917 0.1149 0.88541 0.0
H541 H 1.0025 0.13172 0.97029 0.0
N542 N 0.91407 0.18216 0.86804 0.0
C543 C 0.99432 0.18927 0.91292 0.0
C544 C 0.89734 0.13951 0.89569 0.0
C545 C 0.9623 0.20681 0.8757 0.0
C546 C 0.97741 0.14554 0.9418 0.0
C547 C 0.92852 0.11977 0.93308 0.0
O548 O 0.9111 0.1879 0.77927 0.0
O549 O 0.85855 0.27586 0.76263 0.0
O550 O 0.77876 0.27475 0.72133 0.0
O551 O 0.79171 0.19793 0.75566 0.0
O552 O 0.9246 0.25843 0.78407 0.0
O553 O 0.83348 0.15339 0.76671 0.0
O554 O 0.76163 0.32516 0.81313 0.0
O555 O 0.80883 0.23806 0.81968 0.0
O556 O 0.87768 0.23663 0.8662 0.0
O557 O 0.87716 0.31486 0.8275 0.0
O558 O 0.74379 0.25603 0.80524 0.0
O559 O 0.83678 0.36633 0.81248 0.0
C560 C 0.90374 0.29109 0.75882 0.0
C561 C 0.88856 0.10991 0.76272 0.0
C562 C 0.89132 0.0528 0.72006 0.0
C563 C 0.87321 0.09056 0.72418 0.0
C564 C 0.92156 0.03191 0.75753 0.0
C565 C 0.91777 0.08803 0.79992 0.0
C566 C 0.93344 0.04849 0.79747 0.0
C567 C 0.77233 0.22852 0.72181 0.0
C568 C 0.87737 0.15576 0.76048 0.0
C569 C 0.91024 0.07454 0.9598 0.0
C570 C 0.86169 0.04898 0.94864 0.0
C571 C 0.76504 0.2221 0.82658 0.0
C572 C 0.78114 0.40458 0.82507 0.0
C573 C 0.77952 0.41484 0.86593 0.0
C574 C 0.7632 0.455 0.86675 0.0
C575 C 0.74995 0.48558 0.82568 0.0
C576 C 0.76757 0.43519 0.78455 0.0
C577 C 0.75197 0.47549 0.78505 0.0
C578 C 0.88818 0.28355 0.86483 0.0
C579 C 0.79567 0.36074 0.82625 0.0
H580 H 0.8493 0.10719 0.69645 0.0
H581 H 0.93849 1.00469 0.7553 0.0
H582 H 0.92965 0.10233 0.83009 0.0
H583 H 0.95703 0.03227 0.82579 0.0
H584 H 0.78985 0.39073 0.89712 0.0
H585 H 0.73574 0.516 0.82473 0.0
H586 H 0.76828 0.42753 0.75278 0.0
H587 H 0.73972 0.4981 0.75386 0.0
Tb588 Tb 0.79589 0.73032 0.76889 0.0
C589 C 0.95615 0.8475 0.8829 0.0
C590 C 0.96585 0.78895 0.95224 0.0
C591 C 1.03664 0.85182 0.92922 0.0
C592 C 0.93634 0.80708 0.91253 0.0
C593 C 1.00614 0.87156 0.89152 0.0
C594 C 1.01647 0.81044 0.9596 0.0
C595 C 0.99029 0.93597 0.82889 0.0
N596 N 0.92514 0.86578 0.84772 0.0
C597 C 0.9409 0.91086 0.82224 0.0
C598 C 1.0233 0.91577 0.86318 0.0
Tb599 Tb 0.84586 0.81981 0.83529 0.0
N600 N 0.88716 0.78842 0.90442 0.0
C601 C 0.86462 0.75465 0.93767 0.0
C602 C 0.94324 0.75142 0.98427 0.0
C603 C 0.89223 0.73513 0.97747 0.0
H604 H 0.91541 0.92621 0.79543 0.0
H605 H 0.87406 0.70722 1.00273 0.0
H606 H 1.03985 0.7966 0.98956 0.0
H607 H 1.00293 0.97075 0.80751 0.0
H608 H 0.82553 0.74084 0.93373 0.0
H609 H 0.752 0.83435 0.60138 0.0
H610 H 0.96456 0.73618 1.01498 0.0
H611 H 0.73813 0.62128 0.81936 0.0
H612 H 0.80547 0.8115 0.67141 0.0
H613 H 0.65722 0.56502 0.80886 0.0
H614 H 0.07531 0.86935 0.93612 0.0
H615 H 0.66509 0.78856 0.58861 0.0
H616 H 0.59787 0.71763 0.61569 0.0
H617 H 1.06143 0.93532 0.86849 0.0
H618 H 0.572 0.64392 0.67232 0.0
N619 N 0.74991 0.75347 0.70039 0.0
C620 C 0.76804 0.79054 0.66701 0.0
C621 C 0.68864 0.77817 0.6198 0.0
C622 C 0.67114 0.73827 0.65266 0.0
C623 C 0.73758 0.80391 0.62677 0.0
C624 C 0.70322 0.72658 0.69285 0.0
H625 H 0.59432 0.58602 0.74403 0.0
N626 N 0.72175 0.67491 0.7614 0.0
C627 C 0.6654 0.59901 0.78498 0.0
C628 C 0.68864 0.68561 0.7245 0.0
C629 C 0.71145 0.63129 0.7908 0.0
C630 C 0.62998 0.61103 0.74844 0.0
C631 C 0.64163 0.65448 0.7172 0.0
O632 O 0.82086 0.6675 0.78243 0.0
O633 O 0.85205 0.7528 0.82438 0.0
O634 O 0.90025 0.82999 0.79229 0.0
O635 O 0.85526 0.78599 0.73838 0.0
O636 O 0.80962 0.6837 0.83447 0.0
O637 O 0.82699 0.71853 0.71903 0.0
O638 O 0.84494 0.88856 0.84195 0.0
O639 O 0.79249 0.79811 0.77937 0.0
O640 O 0.73693 0.72853 0.803 0.0
O641 O 0.78432 0.76298 0.86242 0.0
O642 O 0.8236 0.8694 0.77228 0.0
O643 O 0.79696 0.82422 0.87356 0.0
C644 C 0.84657 0.71263 0.85247 0.0
C645 C 0.83135 0.63853 0.72384 0.0
C646 C 0.8734 0.59015 0.70235 0.0
C647 C 0.87475 0.6287 0.72054 0.0
C648 C 0.82793 0.56047 0.68804 0.0
C649 C 0.78577 0.60922 0.70952 0.0
C650 C 0.78424 0.57029 0.69139 0.0
C651 C 0.89461 0.8169 0.75384 0.0
C652 C 0.83644 0.67858 0.74438 0.0
C653 C 0.60852 0.66702 0.67833 0.0
C654 C 0.62325 0.70896 0.6461 0.0
C655 C 0.79099 0.83821 0.75267 0.0
C656 C 0.82115 0.88816 0.90975 0.0
C657 C 0.78096 0.89574 0.92235 0.0
C658 C 0.78497 0.90749 0.96372 0.0
C659 C 0.8307 0.91294 0.99209 0.0
C660 C 0.86657 0.89321 0.93826 0.0
C661 C 0.8713 0.90597 0.97925 0.0
C662 C 0.74289 0.73673 0.84377 0.0
C663 C 0.81234 0.87063 0.86857 0.0
H664 H 0.90993 0.65236 0.73056 0.0
H665 H 0.82626 0.53152 0.67222 0.0
H666 H 0.75185 0.61651 0.71216 0.0
H667 H 0.74919 0.54812 0.67932 0.0
H668 H 0.74618 0.89211 0.89972 0.0
H669 H 0.83508 0.92239 1.02408 0.0
H670 H 0.8979 0.88681 0.92914 0.0
H671 H 0.90632 0.90993 1.00135 0.0
Fe672 Fe 1.02865 0.11089 0.52 0.0
O673 O 1.04826 0.05004 0.55092 0.0
Fe674 Fe 0.1151 0.04333 0.54149 0.0
Fe675 Fe 1.00927 0.98599 0.53866 0.0
O676 O 1.05197 0.05257 0.5494 0.0
O677 O 0.07613 0.97925 0.52931 0.0
O678 O 0.07248 0.97671 0.53092 0.0
Fe679 Fe 0.09566 0.91836 0.56117 0.0
C680 C 0.94531 0.03935 0.56568 0.0
O681 O 0.97358 0.0796 0.47326 0.0
O682 O 0.99896 0.01651 0.47229 0.0
O683 O 0.14751 0.94699 0.52003 0.0
O684 O 0.17701 0.02595 0.52859 0.0
O685 O 0.10454 0.07381 0.4747 0.0
O686 O 0.07895 0.13757 0.47524 0.0
O687 O 0.97572 0.91899 0.52096 0.0
O688 O 1.03976 0.89089 0.5138 0.0
C689 C 0.10007 0.11644 0.4575 0.0
O690 O 0.15054 0.95005 0.60812 0.0
O691 O 0.12448 0.01312 0.60772 0.0
O692 O 0.97663 0.08114 0.56114 0.0
O693 O 0.94738 1.0027 0.55098 0.0
C694 C 0.96894 0.04271 0.45751 0.0
C695 C 0.99494 0.89587 0.50203 0.0
C696 C 1.02409 0.91342 0.62338 0.0
O697 O 1.0196 0.95593 0.60571 0.0
O698 O 1.04518 0.89207 0.60585 0.0
C699 C 0.17868 0.98872 0.51431 0.0
O700 O 0.14901 0.11029 0.55967 0.0
O701 O 0.08491 0.13809 0.56734 0.0
C702 C 0.15411 0.98682 0.6237 0.0
C703 C 0.13 0.13379 0.57846 0.0
Fe704 Fe 0.54928 0.90248 0.07712 0.0
O705 O 0.56302 0.97334 0.07248 0.0
Fe706 Fe 0.50472 1.00603 1.03442 0.0
Fe707 Fe 0.62021 0.0207 0.04545 0.0
O708 O 0.55677 0.97186 0.06994 0.0
O709 O 0.56181 0.05331 1.00772 0.0
O710 O 0.56786 0.05458 1.00988 0.0
Fe711 Fe 0.57324 0.12377 1.00179 0.0
C712 C 0.65643 0.93543 0.11888 0.0
O713 O 0.5973 0.90798 1.03547 0.0
O714 O 0.6078 0.98319 0.99612 0.0
O715 O 0.51213 0.11371 0.95288 0.0
O716 O 0.45788 0.05091 0.9915 0.0
O717 O 0.48952 0.96823 0.98356 0.0
O718 O 0.49046 0.89454 1.02478 0.0
O719 O 0.67172 0.07499 1.00736 0.0
O720 O 0.62569 0.12847 0.96442 0.0
C721 C 0.47796 0.92254 0.98805 0.0
O722 O 0.5231 0.11717 1.04224 0.0
O723 O 0.51727 0.04339 0.08416 0.0
O724 O 0.61203 0.9109 0.12487 0.0
O725 O 0.66676 0.97538 0.08825 0.0
C726 C 0.61431 0.94106 1.00384 0.0
C727 C 0.66311 0.10958 0.97274 0.0
C728 C 0.64316 0.10494 0.09209 0.0
O729 O 0.63597 0.05953 0.09583 0.0
O730 O 0.62937 0.13266 0.05568 0.0
C731 C 0.46786 0.08947 0.95936 0.0
O732 O 0.45276 0.95143 0.07181 0.0
O733 O 0.49893 0.89852 0.11574 0.0
C734 C 0.50902 0.08488 0.07578 0.0
C735 C 0.46107 0.91678 0.10647 0.0
Fe736 Fe 1.06479 0.56367 1.03359 0.0
O737 O 1.01807 0.50517 1.01434 0.0
Fe738 Fe 0.17202 0.52426 0.07747 0.0
Fe739 Fe 0.94606 0.49248 1.01248 0.0
O740 O 0.10129 0.51511 0.07249 0.0
O741 O 0.09965 0.50904 0.07672 0.0
O742 O 1.01656 0.49919 1.01831 0.0
Fe743 Fe 1.05325 0.45044 0.05711 0.0
C744 C 0.98495 0.56178 0.07766 0.0
O745 O 1.01742 0.60675 0.9898 0.0
O746 O 0.95468 0.55075 0.95851 0.0
O747 O 0.09128 0.46203 1.00522 0.0
O748 O 0.16832 0.47479 1.04006 0.0
O749 O 0.17866 0.57984 1.02072 0.0
O750 O 0.104 0.57767 0.98073 0.0
O751 O 0.94253 0.437 0.98181 0.0
O752 O 1.00027 0.39697 1.0273 0.0
C753 C 0.15079 0.59095 0.98377 0.0
O754 O 0.10208 0.40793 0.10004 0.0
O755 O 0.16486 0.46471 0.13039 0.0
O756 O 1.02691 0.55296 0.08501 0.0
O757 O 0.95112 0.54451 0.04814 0.0
C758 C 0.97751 0.59501 0.96117 0.0
C759 C 0.96274 0.4004 0.99525 0.0
C760 C 0.96503 0.42364 0.10596 0.0
O761 O 0.93889 0.43946 0.06963 0.0
O762 O 1.01219 0.43375 0.11019 0.0
C763 C 0.13467 0.45677 1.0109 0.0
O764 O 0.17317 0.57613 0.11073 0.0
O765 O 0.11792 0.61765 0.06326 0.0
C766 C 0.14293 0.42035 0.12755 0.0
C767 C 0.15231 0.61208 0.09802 0.0
Fe768 Fe 0.56484 0.48646 0.95514 0.0
O769 O 0.57298 0.48083 1.01951 0.0
Fe770 Fe 0.51211 0.4808 0.04847 0.0
Fe771 Fe 0.6271 0.52564 0.05117 0.0
O772 O 0.5672 0.47656 1.02067 0.0
O773 O 0.56737 0.52369 0.08143 0.0
O774 O 0.57249 0.52977 0.07911 0.0
Fe775 Fe 0.57991 0.51977 0.14555 0.0
C776 C 0.66823 0.47864 0.99356 0.0
O777 O 0.61571 0.55049 0.94419 0.0
O778 O 0.6224 0.58556 1.00041 0.0
O779 O 0.51322 0.53747 0.1333 0.0
O780 O 0.46237 0.49241 0.08328 0.0
O781 O 0.50524 0.54154 1.00256 0.0
O782 O 0.51104 0.52454 0.93936 0.0
O783 O 0.67494 0.57573 0.09066 0.0
O784 O 0.62165 0.58813 0.12939 0.0
C785 C 0.50853 0.55431 0.96123 0.0
O786 O 0.5418 0.44905 0.15907 0.0
O787 O 0.51766 0.41903 0.09682 0.0
O788 O 0.62514 0.45768 0.97461 0.0
O789 O 0.67637 0.51052 1.01826 0.0
C790 C 0.62819 0.58765 0.9607 0.0
C791 C 0.66369 0.59893 0.116 0.0
C792 C 0.66187 0.47774 0.13655 0.0
O793 O 0.63591 0.46752 0.10082 0.0
O794 O 0.64607 0.49942 0.15829 0.0
C795 C 0.47043 0.5193 0.11251 0.0
O796 O 0.46116 0.43799 1.00554 0.0
O797 O 0.51053 0.42386 0.96421 0.0
C798 C 0.52349 0.41387 0.13939 0.0
C799 C 0.46873 0.41698 0.97678 0.0
Fe800 Fe 0.08351 0.41148 0.55392 0.0
O801 O 0.0905 0.48118 0.54737 0.0
Fe802 Fe 1.05328 0.51733 0.48554 0.0
Fe803 Fe 0.07229 0.50699 0.59291 0.0
O804 O 0.08685 0.48023 0.5416 0.0
O805 O 1.03479 0.54332 0.53066 0.0
O806 O 1.03827 0.54404 0.53668 0.0
Fe807 Fe 1.04486 0.61399 0.52283 0.0
C808 C 1.00743 0.40788 0.61147 0.0
O809 O 0.14247 0.42515 0.60342 0.0
O810 O 0.11239 0.46086 0.64483 0.0
O811 O 0.08871 0.63361 0.47284 0.0
O812 O 0.1182 0.56981 0.4838 0.0
O813 O 0.08142 0.48616 0.44711 0.0
O814 O 0.12142 0.43328 0.50078 0.0
O815 O 0.13684 0.56214 0.59583 0.0
O816 O 0.10587 0.62682 0.57047 0.0
C817 C 0.11114 0.45745 0.46016 0.0
O818 O 0.98544 0.60174 0.47349 0.0
O819 O 1.01423 0.56411 0.43305 0.0
O820 O 1.03947 0.39004 0.60394 0.0
O821 O 1.00809 0.4524 0.59663 0.0
C822 C 0.14137 0.43536 0.64078 0.0
C823 C 0.13895 0.60632 0.59448 0.0
C824 C 1.01748 0.57213 0.61646 0.0
O825 O 1.04483 0.54085 0.63055 0.0
O826 O 1.00742 0.59455 0.57522 0.0
C827 C 0.12065 0.61417 0.46784 0.0
O828 O 0.989 0.46131 0.48229 0.0
O829 O 1.02305 0.39826 0.50622 0.0
C830 C 0.98575 0.59039 0.43652 0.0
C831 C 0.98876 0.4176 0.4832 0.0
Fe832 Fe 0.55466 0.95074 0.55557 0.0
O833 O 0.59125 1.00772 0.58288 0.0
Fe834 Fe 0.52027 1.00847 0.44402 0.0
Fe835 Fe 0.59736 1.00815 0.64649 0.0
O836 O 0.52541 1.00152 0.50964 0.0
O837 O 0.52686 1.00795 0.50786 0.0
O838 O 0.59275 0.01388 0.58116 0.0
Fe839 Fe 0.56517 0.06496 0.53425 0.0
C840 C 0.49945 0.92919 0.63498 0.0
O841 O 0.59576 0.90703 0.60834 0.0
O842 O 0.63981 0.95964 0.65433 0.0
O843 O 0.62217 0.07863 0.49705 0.0
O844 O 0.57734 0.0691 0.43096 0.0
O845 O 0.56764 0.96469 0.45064 0.0
O846 O 0.61049 0.96297 0.51929 0.0
O847 O 0.65104 0.07044 0.63233 0.0
O848 O 0.61184 0.11695 0.57109 0.0
C849 C 0.60365 0.95447 0.48023 0.0
O850 O 0.52548 0.10942 0.48108 0.0
O851 O 0.47705 0.05564 0.43783 0.0
O852 O 0.49731 0.93332 0.59286 0.0
O853 O 0.53809 0.9492 0.6588 0.0
C854 C 0.63172 0.92017 0.64027 0.0
C855 C 0.64653 0.11139 0.60582 0.0
C856 C 0.51671 0.06527 0.60868 0.0
O857 O 0.55185 0.05395 0.63873 0.0
O858 O 0.50963 0.05603 0.56991 0.0
C859 C 0.61804 0.08539 0.45436 0.0
O860 O 0.46813 0.94528 0.45824 0.0
O861 O 0.50969 0.89893 0.51751 0.0
C862 C 0.48743 0.09595 0.45102 0.0
C863 C 0.47446 0.90424 0.48317 0.0
C864 C 0.18194 0.21604 0.3842 0.0
C865 C 0.1933 0.18969 0.35823 0.0
H866 H 0.14192 0.21374 0.43539 0.0
C867 C 0.16938 0.14073 0.36192 0.0
H868 H 0.19985 0.25395 0.382 0.0
C869 C 0.13635 0.1179 0.392 0.0
C870 C 0.12654 0.14345 0.41948 0.0
H871 H 0.17844 0.11901 0.34391 0.0
H872 H 0.12035 0.07949 0.39535 0.0
C873 C 0.14843 0.19318 0.41435 0.0
C874 C 0.87313 0.98126 0.37416 0.0
C875 C 0.83004 0.98724 0.38378 0.0
H876 H 0.95185 0.99759 0.38865 0.0
C877 C 0.83202 0.99907 0.42492 0.0
H878 H 0.87272 0.97078 0.3434 0.0
C879 C 0.87756 0.01806 0.4487 0.0
C880 C 0.92111 0.02081 0.43387 0.0
H881 H 0.79915 1.00286 0.43366 0.0
H882 H 0.87862 0.0325 0.47737 0.0
C883 C 0.91862 0.99852 0.39888 0.0
C884 C 0.96879 0.86429 0.38744 0.0
C885 C 0.91884 0.86341 0.37412 0.0
H886 H 1.03157 0.87377 0.43854 0.0
C887 C 0.89364 0.87254 0.4034 0.0
H888 H 0.9885 0.85493 0.36668 0.0
C889 C 0.91777 0.88221 0.44527 0.0
C890 C 0.9676 0.88198 0.45925 0.0
H891 H 0.85461 0.87056 0.39446 0.0
H892 H 0.89722 0.88933 0.46681 0.0
C893 C 0.99292 0.87351 0.42945 0.0
C894 C 0.2334 0.027 0.40865 0.0
C895 C 0.24089 0.98253 0.40652 0.0
H896 H 0.20905 0.06493 0.44596 0.0
C897 C 0.24111 0.94639 0.44617 0.0
H898 H 0.23503 0.05674 0.37974 0.0
C899 C 0.22838 0.95216 0.48452 0.0
C900 C 0.21374 0.9936 0.4842 0.0
H901 H 0.24653 0.91154 0.44698 0.0
H902 H 0.22459 0.92173 0.51286 0.0
C903 C 0.21965 0.03237 0.44707 0.0
C904 C 0.28786 0.02368 0.67183 0.0
C905 C 0.28482 0.04042 0.70901 0.0
H906 H 0.24742 0.98798 0.61877 0.0
C907 C 0.24074 0.05099 0.71058 0.0
H908 H 0.32173 0.01641 0.66893 0.0
C909 C 0.19796 0.03386 0.68225 0.0
C910 C 0.19944 1.00738 0.65154 0.0
H911 H 0.23761 0.06468 0.73841 0.0
H912 H 0.16332 0.03838 0.68648 0.0
C913 C 0.24504 1.00532 0.64439 0.0
C914 C 0.23428 0.16459 0.6732 0.0
C915 C 0.20938 0.17272 0.70334 0.0
H916 H 0.22929 0.14606 0.61021 0.0
C917 C 0.15884 0.16928 0.69157 0.0
H918 H 0.2736 0.16811 0.68104 0.0
C919 C 0.13367 0.15807 0.65049 0.0
C920 C 0.15846 0.14998 0.62004 0.0
H921 H 0.13915 0.17764 0.71298 0.0
H922 H 0.09455 0.15564 0.64274 0.0
C923 C 0.20907 0.15274 0.63229 0.0
C924 C 0.89205 0.99705 0.67114 0.0
C925 C 0.88626 0.04143 0.6751 0.0
H926 H 0.91432 0.96058 0.63118 0.0
C927 C 0.88399 0.07816 0.636 0.0
H928 H 0.89141 0.96691 0.69966 0.0
C929 C 0.89488 0.07351 0.5965 0.0
C930 C 0.90971 0.03279 0.59543 0.0
H931 H 0.87935 0.11293 0.63649 0.0
H932 H 0.89809 0.10454 0.56867 0.0
C933 C 0.90405 0.99285 0.63155 0.0
C934 C 0.94474 0.81364 0.69902 0.0
C935 C 0.93301 0.83993 0.72485 0.0
H936 H 0.98419 0.816 0.64741 0.0
C937 C 0.9558 0.88926 0.72024 0.0
H938 H 0.92784 0.77544 0.702 0.0
C939 C 0.98782 0.91242 0.68914 0.0
C940 C 0.99799 0.88675 0.66188 0.0
H941 H 0.94671 0.91078 0.73853 0.0
H942 H 1.00297 0.95102 0.68506 0.0
C943 C 0.97736 0.83674 0.66812 0.0
C944 C 0.39256 0.11254 0.08476 0.0
C945 C 0.38706 0.08995 0.12919 0.0
H946 H 0.43661 0.1299 1.0334 0.0
C947 C 0.42441 0.06969 0.15766 0.0
H948 H 0.36501 0.13013 0.06313 0.0
C949 C 0.46507 0.06869 0.14076 0.0
C950 C 0.46995 0.0903 0.09582 0.0
H951 H 0.42147 0.05373 0.19261 0.0
H952 H 0.49247 0.05092 0.16257 0.0
C953 C 0.43388 0.11315 0.06825 0.0
C954 C 0.92136 0.35802 0.22017 0.0
C955 C 0.87204 0.33514 0.20564 0.0
H956 H 0.99045 0.40357 0.20066 0.0
C957 C 0.85588 0.33988 0.1594 0.0
H958 H 0.9347 0.356 0.25566 0.0
C959 C 0.88728 0.36638 0.12844 0.0
C960 C 0.93627 0.3906 0.14207 0.0
H961 H 0.81815 0.32345 0.14693 0.0
H962 H 0.87233 0.36881 0.09316 0.0
C963 C 0.95332 0.38531 0.18866 0.0
C964 C 0.71577 0.83248 0.17975 0.0
C965 C 0.75579 0.85322 0.20919 0.0
H966 H 0.65481 0.84227 0.12797 0.0
C967 C 0.7673 0.90381 0.20466 0.0
H968 H 0.70517 0.7937 0.18276 0.0
C969 C 0.73799 0.93228 0.17242 0.0
C970 C 0.6958 0.9104 0.14541 0.0
H971 H 0.79699 0.92087 0.22766 0.0
H972 H 0.74634 0.97067 0.17057 0.0
C973 C 0.68659 0.86045 0.14843 0.0
C974 C 0.20207 0.72344 0.14904 0.0
C975 C 0.20522 0.70138 0.19506 0.0
H976 H 0.18217 0.71227 0.08116 0.0
C977 C 0.18459 0.65161 0.20747 0.0
H978 H 0.2175 0.76178 0.13846 0.0
C979 C 0.16524 0.62381 0.17523 0.0
C980 C 0.16526 0.64485 0.12951 0.0
H981 H 0.18532 0.6334 0.24245 0.0
H982 H 0.15175 0.58517 0.18627 0.0
C983 C 0.18197 0.69523 0.11632 0.0
C984 C 0.43704 0.87549 0.87987 0.0
C985 C 0.38793 0.84995 0.88319 0.0
H986 H 0.50367 0.91927 0.90987 0.0
C987 C 0.36827 0.85088 0.92023 0.0
H988 H 0.45334 0.87594 0.85171 0.0
C989 C 0.39734 0.87512 0.95377 0.0
C990 C 0.44641 0.90029 0.95056 0.0
H991 H 0.33073 0.83159 0.92402 0.0
H992 H 0.38155 0.87389 0.98255 0.0
C993 C 0.4658 0.90066 0.91298 0.0
C994 C 0.19096 0.36326 0.99357 0.0
C995 C 0.15076 0.33623 0.96901 0.0
H996 H 0.21757 0.42274 1.02643 0.0
C997 C 0.1079 0.35294 0.95296 0.0
H998 H 0.22471 0.35135 1.00549 0.0
C999 C 0.10436 0.39485 0.9633 0.0
C1000 C 0.14295 0.41982 0.99121 0.0
H1001 H 0.07694 0.33319 0.93293 0.0
H1002 H 0.07056 0.40657 0.951 0.0
C1003 C 0.18694 0.40436 1.00509 0.0
C1004 C 0.69455 0.16052 0.85635 0.0
C1005 C 0.74441 0.18408 0.86402 0.0
H1006 H 0.63096 0.11684 0.88462 0.0
C1007 C 0.77008 0.17662 0.90836 0.0
H1008 H 0.67373 0.16569 0.82275 0.0
C1009 C 0.7452 0.14844 0.94447 0.0
C1010 C 0.69434 0.1276 0.93661 0.0
H1011 H 0.80834 0.19505 0.91556 0.0
H1012 H 0.76479 0.14602 0.9785 0.0
C1013 C 0.67009 0.13243 0.89192 0.0
C1014 C 0.93513 0.70448 0.88175 0.0
C1015 C 0.88473 0.69095 0.88547 0.0
H1016 H 1.00504 0.68505 0.90334 0.0
C1017 C 0.86769 0.64908 0.91703 0.0
H1018 H 0.94925 0.7361 0.85718 0.0
C1019 C 0.89891 0.62005 0.94246 0.0
C1020 C 0.94858 0.63162 0.93744 0.0
H1021 H 0.82918 0.63747 0.9207 0.0
H1022 H 0.88356 0.58727 0.96527 0.0
C1023 C 0.96698 0.67515 0.90794 0.0
C1024 C 0.25698 0.37226 0.1685 0.0
C1025 C 0.24274 0.33033 0.201 0.0
H1026 H 0.23667 0.43191 0.11993 0.0
C1027 C 0.19261 0.31426 0.20605 0.0
H1028 H 0.29511 0.38578 0.16368 0.0
C1029 C 0.15834 0.34133 0.1805 0.0
C1030 C 0.17392 0.38501 0.14995 0.0
H1031 H 0.18049 0.28242 0.23123 0.0
H1032 H 0.12063 0.32962 0.18646 0.0
C1033 C 0.22333 0.39891 0.14346 0.0
C1034 C 0.17877 0.64651 0.86343 0.0
C1035 C 0.22703 0.67515 0.87127 0.0
H1036 H 0.11596 0.59866 0.89225 0.0
C1037 C 0.24872 0.67696 0.91588 0.0
H1038 H 0.1614 0.64362 0.82948 0.0
C1039 C 0.22331 0.65065 0.95166 0.0
C1040 C 0.17514 0.62158 0.94425 0.0
H1041 H 0.28598 0.69794 0.92326 0.0
H1042 H 0.24189 0.65268 0.98549 0.0
C1043 C 0.15278 0.62069 0.89942 0.0
C1044 C 0.40837 0.19287 0.90289 0.0
C1045 C 0.37072 0.17425 0.87046 0.0
H1046 H 0.46653 0.18015 0.95691 0.0
C1047 C 0.36091 0.12461 0.87085 0.0
H1048 H 0.41792 0.23107 0.90274 0.0
C1049 C 0.38948 0.09491 0.90223 0.0
C1050 C 0.42872 0.11465 0.93321 0.0
H1051 H 0.33344 0.10955 0.84518 0.0
H1052 H 0.38313 0.05766 0.90017 0.0
C1053 C 0.43645 0.16359 0.93387 0.0
C1054 C 0.87389 0.32263 0.91971 0.0
C1055 C 0.90512 0.30209 0.90648 0.0
H1056 H 0.86768 0.37034 0.95766 0.0
C1057 C 0.95368 0.30663 0.92902 0.0
H1058 H 0.83565 0.31734 0.90468 0.0
C1059 C 0.9716 0.33508 0.96155 0.0
C1060 C 0.94185 0.36093 0.97025 0.0
H1061 H 0.97837 0.29057 0.91983 0.0
H1062 H 1.00939 0.33919 0.97775 0.0
C1063 C 0.89215 0.35247 0.95051 0.0
C1064 C 0.74507 0.95444 0.9942 0.0
C1065 C 0.7412 0.91489 0.97583 0.0
H1066 H 0.70705 0.99594 1.01379 0.0
C1067 C 0.69445 0.88448 0.96573 0.0
H1068 H 0.78037 0.97812 1.003 0.0
C1069 C 0.65249 0.89417 0.97293 0.0
C1070 C 0.65647 0.93499 0.98915 0.0
H1071 H 0.69034 0.85296 0.95258 0.0
H1072 H 0.61698 0.86976 0.9662 0.0
C1073 C 0.70299 0.96512 0.99968 0.0
C1074 C 1.01962 0.67738 0.12022 0.0
C1075 C 0.97418 0.689 0.11278 0.0
H1076 H 1.05825 0.62706 0.11714 0.0
C1077 C 0.9314 0.65639 0.09745 0.0
H1078 H 1.053 0.70161 0.13269 0.0
C1079 C 0.93437 0.61387 0.08768 0.0
C1080 C 0.98009 0.60263 0.09414 0.0
H1081 H 0.89587 0.66455 0.09175 0.0
H1082 H 0.90105 0.59037 0.07417 0.0
C1083 C 1.02245 0.63441 0.11161 0.0
C1084 C 0.353 0.83797 0.16328 0.0
C1085 C 0.37603 0.83092 0.20844 0.0
H1086 H 0.36144 0.87283 0.09457 0.0
C1087 C 0.42407 0.85783 0.21924 0.0
H1088 H 0.31652 0.8163 0.15399 0.0
C1089 C 0.44908 0.8904 0.18579 0.0
C1090 C 0.42748 0.89586 0.1403 0.0
H1091 H 0.44309 0.85215 0.25351 0.0
H1092 H 0.48702 0.90881 0.1952 0.0
C1093 C 0.3785 0.87051 0.12936 0.0
C1094 C 0.67337 0.1718 0.18759 0.0
C1095 C 0.7251 0.1815 0.19695 0.0
H1096 H 0.60702 0.14019 0.14705 0.0
C1097 C 0.74891 0.16361 0.17244 0.0
H1098 H 0.65346 0.18449 0.20568 0.0
C1099 C 0.72214 0.1368 0.14007 0.0
C1100 C 0.67075 0.12784 0.13041 0.0
H1101 H 0.78856 0.17055 0.17784 0.0
H1102 H 0.74181 0.12427 0.12158 0.0
C1103 C 0.64664 0.14591 0.15431 0.0
C1104 C 0.66526 0.67459 0.85567 0.0
C1105 C 0.7058 0.70777 0.87279 0.0
H1106 H 0.61095 0.60928 0.87022 0.0
C1107 C 0.71415 0.70721 0.91911 0.0
H1108 H 0.65559 0.6758 0.82005 0.0
C1109 C 0.6863 0.67013 0.94827 0.0
C1110 C 0.65036 0.63311 0.93132 0.0
H1111 H 0.74375 0.7337 0.93326 0.0
H1112 H 0.69528 0.66856 0.98405 0.0
C1113 C 0.63921 0.63671 0.8846 0.0
C1114 C 0.55021 0.67741 0.88648 0.0
C1115 C 0.55931 0.70736 0.91746 0.0
H1116 H 0.51983 0.60549 0.87473 0.0
C1117 C 0.56412 0.68543 0.96319 0.0
H1118 H 0.54967 0.69321 0.85099 0.0
C1119 C 0.54476 0.63634 0.97638 0.0
C1120 C 0.52589 0.60686 0.94461 0.0
H1121 H 0.57447 0.70651 0.9888 0.0
H1122 H 0.54474 0.62169 1.01198 0.0
C1123 C 0.53112 0.62751 0.89963 0.0
C1124 C 0.37474 0.3144 0.93308 0.0
C1125 C 0.36802 0.33482 0.88659 0.0
H1126 H 0.41162 0.3248 0.99898 0.0
C1127 C 0.3889 0.38416 0.87207 0.0
H1128 H 0.35903 0.27654 0.94558 0.0
C1129 C 0.41803 0.41167 0.90277 0.0
C1130 C 0.42692 0.3907 0.94876 0.0
H1131 H 0.3841 0.40133 0.83677 0.0
H1132 H 0.43596 0.44898 0.8902 0.0
C1133 C 0.40427 0.34205 0.96389 0.0
C1134 C 0.75924 0.50746 0.91702 0.0
C1135 C 0.75322 0.46121 0.90933 0.0
H1136 H 0.73801 0.54933 0.95241 0.0
C1137 C 0.73043 0.42072 0.93941 0.0
H1138 H 0.77751 0.53937 0.89505 0.0
C1139 C 0.70861 0.42651 0.97256 0.0
C1140 C 0.70927 0.47279 0.97642 0.0
H1141 H 0.7249 0.38455 0.93464 0.0
H1142 H 0.68661 0.39486 0.99189 0.0
C1143 C 0.73751 0.5132 0.95049 0.0
C1144 C 0.79827 0.5316 0.16475 0.0
C1145 C 0.81697 0.49463 0.16064 0.0
H1146 H 0.73341 0.54755 0.17104 0.0
C1147 C 0.7875 0.46299 0.13306 0.0
H1148 H 0.82088 0.55803 0.18388 0.0
C1149 C 0.73649 0.45808 0.12359 0.0
C1150 C 0.71578 0.48627 0.14016 0.0
H1151 H 0.80189 0.43555 0.12713 0.0
H1152 H 0.71327 0.42969 0.10708 0.0
C1153 C 0.74752 0.52475 0.15851 0.0
C1154 C 0.7599 0.70406 0.1549 0.0
C1155 C 0.75998 0.6894 0.20178 0.0
H1156 H 0.72996 0.68625 0.09002 0.0
C1157 C 0.73305 0.64317 0.21914 0.0
H1158 H 0.78074 0.73941 0.1404 0.0
C1159 C 0.70406 0.61371 0.19055 0.0
C1160 C 0.70241 0.62857 0.14372 0.0
H1161 H 0.73305 0.62997 0.25487 0.0
H1162 H 0.6818 0.57909 0.20518 0.0
C1163 C 0.73135 0.67365 0.12597 0.0
C1164 C 0.4051 0.58275 0.15966 0.0
C1165 C 0.37982 0.54397 0.18951 0.0
H1166 H 0.45307 0.60496 0.11045 0.0
C1167 C 0.37519 0.49664 0.18498 0.0
H1168 H 0.40977 0.61957 0.1623 0.0
C1169 C 0.39954 0.48831 0.15462 0.0
C1170 C 0.42911 0.52713 0.12832 0.0
H1171 H 0.35552 0.46592 0.20713 0.0
H1172 H 0.39923 0.45152 0.15509 0.0
C1173 C 0.42977 0.57439 0.1297 0.0
C1174 C 0.42345 0.30552 0.17471 0.0
C1175 C 0.43105 0.30388 0.22108 0.0
H1176 H 0.44774 0.3417 0.11174 0.0
C1177 C 0.47642 0.32901 0.24094 0.0
H1178 H 0.38988 0.28495 0.15849 0.0
C1179 C 0.51013 0.36076 0.21419 0.0
C1180 C 0.49899 0.36805 0.16708 0.0
H1181 H 0.4845 0.32686 0.27681 0.0
H1182 H 0.54288 0.3828 0.23021 0.0
C1183 C 0.45708 0.33757 0.14783 0.0
C1184 C 0.93444 0.62592 0.65217 0.0
C1185 C 0.91811 0.58942 0.68796 0.0
H1186 H 0.98091 0.65032 0.6028 0.0
C1187 C 0.94365 0.55328 0.70768 0.0
H1188 H 0.91639 0.65523 0.63771 0.0
C1189 C 0.98187 0.5508 0.68786 0.0
C1190 C 0.99235 0.58283 0.64749 0.0
H1191 H 0.93287 0.52631 0.73699 0.0
H1192 H 1.00097 0.52247 0.70201 0.0
C1193 C 0.97147 0.62293 0.63233 0.0
C1194 C 0.41269 0.88051 0.72277 0.0
C1195 C 0.37685 0.84299 0.70616 0.0
H1196 H 0.47888 0.93612 0.71419 0.0
C1197 C 0.37997 0.83565 0.66427 0.0
H1198 H 0.41102 0.88808 0.75422 0.0
C1199 C 0.41906 0.86363 0.64071 0.0
C1200 C 0.456 0.90014 0.65822 0.0
H1201 H 0.35215 0.80806 0.64975 0.0
H1202 H 0.42062 0.85627 0.60902 0.0
C1203 C 0.45177 0.90819 0.69955 0.0
C1204 C 0.16185 0.31732 0.7115 0.0
C1205 C 0.21061 0.32855 0.73362 0.0
H1206 H 0.10146 0.34221 0.66835 0.0
C1207 C 0.2351 0.37781 0.72988 0.0
H1208 H 0.14109 0.28005 0.71439 0.0
C1209 C 0.21198 0.4143 0.70212 0.0
C1210 C 0.16291 0.40225 0.68013 0.0
H1211 H 0.27179 0.38805 0.74813 0.0
H1212 H 0.23273 0.4516 0.69705 0.0
C1213 C 0.13845 0.3532 0.68586 0.0
C1214 C 0.69487 0.21433 0.66522 0.0
C1215 C 0.74281 0.20872 0.68273 0.0
H1216 H 0.6259 0.18788 0.62518 0.0
C1217 C 0.76112 0.17901 0.66588 0.0
H1218 H 0.67976 0.23676 0.67783 0.0
C1219 C 0.73085 0.15188 0.63541 0.0
C1220 C 0.68139 0.1536 0.62122 0.0
H1221 H 0.79822 0.17475 0.67807 0.0
H1222 H 0.74494 0.12633 0.62592 0.0
C1223 C 0.66419 0.18674 0.63469 0.0
C1224 C 0.94859 0.33892 0.39736 0.0
C1225 C 0.89717 0.32564 0.39354 0.0
H1226 H 1.01674 0.37883 0.42756 0.0
C1227 C 0.8752 0.3459 0.4178 0.0
H1228 H 0.9671 0.32507 0.37895 0.0
C1229 C 0.90402 0.37805 0.44536 0.0
C1230 C 0.95547 0.39026 0.44959 0.0
H1231 H 0.83566 0.33688 0.41568 0.0
H1232 H 0.88623 0.39195 0.46437 0.0
C1233 C 0.97711 0.37038 0.42499 0.0
C1234 C 0.64843 0.88126 0.42125 0.0
C1235 C 0.67748 0.85677 0.45692 0.0
H1236 H 0.60262 0.93136 0.40041 0.0
C1237 C 0.68623 0.86874 0.4991 0.0
H1238 H 0.64085 0.87293 0.38833 0.0
C1239 C 0.66457 0.9024 0.50614 0.0
C1240 C 0.63322 0.92497 0.47111 0.0
H1241 H 0.70921 0.85126 0.52697 0.0
H1242 H 0.6709 0.90918 0.53958 0.0
C1243 C 0.62641 0.91474 0.42828 0.0
C1244 C 0.23205 0.69106 0.41399 0.0
C1245 C 0.2127 0.69486 0.3681 0.0
H1246 H 0.21803 0.66167 0.48201 0.0
C1247 C 0.1639 0.67013 0.35578 0.0
H1248 H 0.26884 0.7115 0.42434 0.0
C1249 C 0.1347 0.64285 0.38846 0.0
C1250 C 0.1535 0.64011 0.43421 0.0
H1251 H 0.14748 0.67412 0.32071 0.0
H1252 H 0.09677 0.62526 0.37796 0.0
C1253 C 0.20282 0.6633 0.44686 0.0
C1254 C 0.36384 0.12526 0.40272 0.0
C1255 C 0.37572 0.17004 0.37278 0.0
H1256 H 0.38944 0.06775 0.45101 0.0
C1257 C 0.42604 0.19391 0.37371 0.0
H1258 H 0.32579 0.10567 0.40311 0.0
C1259 C 0.46307 0.17245 0.4027 0.0
C1260 C 0.45074 0.12607 0.43028 0.0
H1261 H 0.43695 0.22802 0.35074 0.0
H1262 H 0.50129 0.19066 0.40154 0.0
C1263 C 0.40051 0.10359 0.43058 0.0
C1264 C 0.6988 0.82759 0.72042 0.0
C1265 C 0.74852 0.85255 0.71869 0.0
H1266 H 0.62235 0.82823 0.69608 0.0
C1267 C 0.75797 0.89618 0.68675 0.0
H1268 H 0.68983 0.79444 0.74513 0.0
C1269 C 0.71955 0.91526 0.65871 0.0
C1270 C 0.66988 0.89163 0.66133 0.0
H1271 H 0.79549 0.91671 0.68453 0.0
H1272 H 0.72882 0.95019 0.63631 0.0
C1273 C 0.65996 0.84685 0.69202 0.0
C1274 C 0.74874 0.15097 0.42872 0.0
C1275 C 0.74108 0.16419 0.38141 0.0
H1276 H 0.71665 0.11726 0.48894 0.0
C1277 C 0.69308 0.15057 0.35864 0.0
H1278 H 0.78548 0.15999 0.44731 0.0
C1279 C 0.6537 0.1257 0.3824 0.0
C1280 C 0.66089 0.11322 0.42988 0.0
H1281 H 0.68594 0.1588 0.32231 0.0
H1282 H 0.61737 0.11622 0.36324 0.0
C1283 C 0.70921 0.12644 0.45264 0.0
C1284 C 0.89119 0.65218 0.3537 0.0
C1285 C 0.91941 0.70037 0.34632 0.0
H1286 H 0.8896 0.57831 0.38903 0.0
C1287 C 0.97037 0.70822 0.36224 0.0
H1288 H 0.85245 0.64403 0.34016 0.0
C1289 C 0.99219 0.67046 0.38603 0.0
C1290 C 0.96403 0.62294 0.39662 0.0
H1291 H 0.99402 0.74436 0.35669 0.0
H1292 H 1.03111 0.67921 0.39919 0.0
C1293 C 0.91294 0.61416 0.38018 0.0
C1294 C 0.36588 0.83831 0.41519 0.0
C1295 C 0.38736 0.81092 0.3987 0.0
H1296 H 0.37631 0.88736 0.4577 0.0
C1297 C 0.43473 0.80531 0.41905 0.0
H1298 H 0.32883 0.84177 0.40131 0.0
C1299 C 0.46217 0.83129 0.45194 0.0
C1300 C 0.44205 0.86243 0.46526 0.0
H1301 H 0.45181 0.78376 0.40736 0.0
H1302 H 0.50036 0.83049 0.4637 0.0
C1303 C 0.39275 0.86352 0.44826 0.0
C1304 C 0.20473 0.48747 0.385 0.0
C1305 C 0.21536 0.44224 0.39386 0.0
H1306 H 0.15943 0.52767 0.39745 0.0
C1307 C 0.18326 0.40115 0.41479 0.0
H1308 H 0.22828 0.51915 0.36735 0.0
C1309 C 0.14466 0.40589 0.43165 0.0
C1310 C 0.13756 0.45176 0.42778 0.0
H1311 H 0.19035 0.36574 0.42137 0.0
H1312 H 0.12304 0.37413 0.45122 0.0
C1313 C 0.16529 0.49216 0.40153 0.0
C1314 C 0.44044 0.15717 0.58739 0.0
C1315 C 0.44894 0.16912 0.62955 0.0
H1316 H 0.45402 0.11486 0.54766 0.0
C1317 C 0.47531 0.14255 0.66596 0.0
H1318 H 0.41939 0.17614 0.55896 0.0
C1319 C 0.4952 0.1071 0.65967 0.0
C1320 C 0.48884 0.09691 0.61688 0.0
H1321 H 0.48255 0.15071 0.69892 0.0
H1322 H 0.51707 0.08888 0.68813 0.0
C1323 C 0.45994 0.12155 0.58109 0.0
C1324 C 0.9786 0.3413 0.72712 0.0
C1325 C 0.9272 0.32377 0.72004 0.0
H1326 H 1.04346 0.38121 0.69861 0.0
C1327 C 0.90149 0.33427 0.67609 0.0
H1328 H 0.99961 0.33337 0.76035 0.0
C1329 C 0.92695 0.36275 0.64045 0.0
C1330 C 0.97852 0.37978 0.64804 0.0
H1331 H 0.86207 0.32031 0.6693 0.0
H1332 H 0.90657 0.37058 0.60696 0.0
C1333 C 1.00382 0.36866 0.69174 0.0
C1334 C 0.20498 0.70975 0.65374 0.0
C1335 C 0.22674 0.68642 0.69518 0.0
H1336 H 0.16267 0.70363 0.58918 0.0
C1337 C 0.2241 0.63684 0.70148 0.0
H1338 H 0.2074 0.748 0.64714 0.0
C1339 C 0.19866 0.61092 0.6678 0.0
C1340 C 0.17531 0.63406 0.6268 0.0
H1341 H 0.2398 0.61754 0.73322 0.0
H1342 H 0.19525 0.5724 0.67479 0.0
C1343 C 0.17993 0.68416 0.62014 0.0
loop_
_geom_bond_atom_site_label_1
_geom_bond_atom_site_label_2
_geom_bond_distance
_geom_bond_site_symmetry_2
_ccdc_geom_bond_type
Tb0 N31 2.660 . S
Tb0 N38 2.600 . S
Tb0 O44 2.546 . S
Tb0 O45 2.610 . S
Tb0 O47 2.320 . S
Tb0 O48 2.552 . S
Tb0 O49 2.413 . S
Tb0 O51 2.362 . S
Tb0 O52 2.421 . S
Tb0 C64 2.833 . S
C1 C4 1.432 . S
C1 C5 1.414 . S
C1 N8 1.359 . S
C2 C4 1.417 . S
C2 C6 1.432 . S
C2 C14 1.410 . S
C3 C5 1.444 . S
C3 C6 1.317 . S
C3 H26 0.929 . S
C4 C1 1.432 . S
C4 C2 1.417 . S
C4 N12 1.360 . S
C5 C1 1.414 . S
C5 C3 1.444 . S
C5 C10 1.385 . S
C6 C2 1.432 . S
C6 C3 1.317 . S
C6 H18 0.930 . S
C7 C9 1.392 . S
C7 C10 1.370 . S
C7 H19 0.931 . S
N8 C1 1.359 . S
N8 C9 1.327 . S
N8 Tb11 2.600 . S
C9 C7 1.392 . S
C9 N8 1.327 . S
C9 H16 0.930 . S
C10 C5 1.385 . S
C10 C7 1.370 . S
C10 H29 0.930 . S
Tb11 N8 2.600 . S
Tb11 N12 2.660 . S
Tb11 O45 2.362 . S
Tb11 O46 2.421 . S
Tb11 O50 2.546 . S
Tb11 O51 2.610 . S
Tb11 O53 2.320 . S
Tb11 O54 2.552 . S
Tb11 O55 2.413 . S
Tb11 C75 2.833 . S
N12 C4 1.360 . S
N12 Tb11 2.660 . S
N12 C13 1.305 . S
C13 N12 1.305 . S
C13 C15 1.407 . S
C13 H20 0.930 . S
C14 C2 1.410 . S
C14 C15 1.345 . S
C14 H22 0.930 . S
C15 C13 1.407 . S
C15 C14 1.345 . S
C15 H17 0.930 . S
H16 C9 0.930 . S
H17 C15 0.930 . S
H18 C6 0.930 . S
H19 C7 0.931 . S
H20 C13 0.930 . S
H21 C35 0.930 . S
H22 C14 0.930 . S
H23 C41 0.930 . S
H24 C32 0.930 . S
H25 C39 0.931 . S
H26 C3 0.929 . S
H27 C33 0.930 . S
H28 C66 0.930 . S
H29 C10 0.930 . S
H30 C65 0.929 . S
N31 Tb0 2.660 . S
N31 C32 1.305 . S
N31 C36 1.360 . S
C32 H24 0.930 . S
C32 N31 1.305 . S
C32 C35 1.407 . S
C33 H27 0.930 . S
C33 C34 1.410 . S
C33 C35 1.345 . S
C34 C33 1.410 . S
C34 C36 1.417 . S
C34 C66 1.432 . S
C35 H21 0.930 . S
C35 C32 1.407 . S
C35 C33 1.345 . S
C36 N31 1.360 . S
C36 C34 1.417 . S
C36 C40 1.432 . S
H37 C42 0.930 . S
N38 Tb0 2.600 . S
N38 C40 1.359 . S
N38 C41 1.327 . S
C39 H25 0.931 . S
C39 C41 1.392 . S
C39 C42 1.370 . S
C40 C36 1.432 . S
C40 N38 1.359 . S
C40 C43 1.414 . S
C41 H23 0.930 . S
C41 N38 1.327 . S
C41 C39 1.392 . S
C42 H37 0.930 . S
C42 C39 1.370 . S
C42 C43 1.385 . S
C43 C40 1.414 . S
C43 C42 1.385 . S
C43 C65 1.444 . S
O44 Tb0 2.546 . S
O44 C64 1.251 . S
O45 Tb0 2.610 . S
O45 Tb11 2.362 . S
O45 C56 1.283 . S
O46 Tb11 2.421 . S
O46 C63 1.262 . S
O47 Tb0 2.320 . S
O47 C63 1.260 . S
O48 Tb0 2.552 . S
O48 C56 1.243 . S
O49 Tb0 2.413 . S
O49 C64 1.256 . S
O50 Tb11 2.546 . S
O50 C75 1.251 . S
O51 Tb0 2.362 . S
O51 Tb11 2.610 . S
O51 C67 1.283 . S
O52 Tb0 2.421 . S
O52 C74 1.262 . S
O53 Tb11 2.320 . S
O53 C74 1.260 . S
O54 Tb11 2.552 . S
O54 C67 1.243 . S
O55 Tb11 2.413 . S
O55 C75 1.256 . S
C56 O45 1.283 . S
C56 O48 1.243 . S
C57 C59 1.382 . S
C57 C61 1.393 . S
C57 C64 1.500 . S
C58 C59 1.400 . S
C58 C60 1.384 . S
C59 C57 1.382 . S
C59 C58 1.400 . S
C59 H76 0.930 . S
C60 C58 1.384 . S
C60 C62 1.392 . S
C60 H77 0.931 . S
C61 C57 1.393 . S
C61 C62 1.401 . S
C61 H78 0.930 . S
C62 C60 1.392 . S
C62 C61 1.401 . S
C62 H79 0.930 . S
C63 O46 1.262 . S
C63 O47 1.260 . S
C64 Tb0 2.833 . S
C64 O44 1.251 . S
C64 O49 1.256 . S
C64 C57 1.500 . S
C65 H30 0.929 . S
C65 C43 1.444 . S
C65 C66 1.317 . S
C66 H28 0.930 . S
C66 C34 1.432 . S
C66 C65 1.317 . S
C67 O51 1.283 . S
C67 O54 1.243 . S
C68 C69 1.382 . S
C68 C72 1.393 . S
C68 C75 1.500 . S
C69 C68 1.382 . S
C69 C70 1.400 . S
C69 H80 0.930 . S
C70 C69 1.400 . S
C70 C71 1.384 . S
C71 C70 1.384 . S
C71 C73 1.392 . S
C71 H81 0.931 . S
C72 C68 1.393 . S
C72 C73 1.401 . S
C72 H82 0.930 . S
C73 C71 1.392 . S
C73 C72 1.401 . S
C73 H83 0.930 . S
C74 O52 1.262 . S
C74 O53 1.260 . S
C75 Tb11 2.833 . S
C75 O50 1.251 . S
C75 O55 1.256 . S
C75 C68 1.500 . S
H76 C59 0.930 . S
H77 C60 0.931 . S
H78 C61 0.930 . S
H79 C62 0.930 . S
H80 C69 0.930 . S
H81 C71 0.931 . S
H82 C72 0.930 . S
H83 C73 0.930 . S
Tb84 N115 2.660 . S
Tb84 N122 2.600 . S
Tb84 O128 2.546 . S
Tb84 O129 2.610 . S
Tb84 O131 2.320 . S
Tb84 O132 2.552 . S
Tb84 O133 2.413 . S
Tb84 O135 2.362 . S
Tb84 O136 2.421 . S
Tb84 C148 2.833 . S
C85 C88 1.432 . S
C85 C89 1.414 . S
C85 N92 1.359 . S
C86 C88 1.417 . S
C86 C90 1.432 . S
C86 C98 1.410 . S
C87 C89 1.444 . S
C87 C90 1.317 . S
C87 H110 0.929 . S
C88 C85 1.432 . S
C88 C86 1.417 . S
C88 N96 1.360 . S
C89 C85 1.414 . S
C89 C87 1.444 . S
C89 C94 1.385 . S
C90 C86 1.432 . S
C90 C87 1.317 . S
C90 H102 0.930 . S
C91 C93 1.392 . S
C91 C94 1.370 . S
C91 H103 0.931 . S
N92 C85 1.359 . S
N92 C93 1.327 . S
N92 Tb95 2.600 . S
C93 C91 1.392 . S
C93 N92 1.327 . S
C93 H100 0.930 . S
C94 C89 1.385 . S
C94 C91 1.370 . S
C94 H113 0.930 . S
Tb95 N92 2.600 . S
Tb95 N96 2.660 . S
Tb95 O129 2.362 . S
Tb95 O130 2.421 . S
Tb95 O134 2.546 . S
Tb95 O135 2.610 . S
Tb95 O137 2.320 . S
Tb95 O138 2.552 . S
Tb95 O139 2.413 . S
Tb95 C159 2.833 . S
N96 C88 1.360 . S
N96 Tb95 2.660 . S
N96 C97 1.305 . S
C97 N96 1.305 . S
C97 C99 1.407 . S
C97 H104 0.930 . S
C98 C86 1.410 . S
C98 C99 1.345 . S
C98 H106 0.930 . S
C99 C97 1.407 . S
C99 C98 1.345 . S
C99 H101 0.930 . S
H100 C93 0.930 . S
H101 C99 0.930 . S
H102 C90 0.930 . S
H103 C91 0.931 . S
H104 C97 0.930 . S
H105 C119 0.930 . S
H106 C98 0.930 . S
H107 C125 0.930 . S
H108 C116 0.930 . S
H109 C123 0.931 . S
H110 C87 0.929 . S
H111 C117 0.930 . S
H112 C150 0.930 . S
H113 C94 0.930 . S
H114 C149 0.929 . S
N115 Tb84 2.660 . S
N115 C116 1.305 . S
N115 C120 1.360 . S
C116 H108 0.930 . S
C116 N115 1.305 . S
C116 C119 1.407 . S
C117 H111 0.930 . S
C117 C118 1.410 . S
C117 C119 1.345 . S
C118 C117 1.410 . S
C118 C120 1.417 . S
C118 C150 1.432 . S
C119 H105 0.930 . S
C119 C116 1.407 . S
C119 C117 1.345 . S
C120 N115 1.360 . S
C120 C118 1.417 . S
C120 C124 1.432 . S
H121 C126 0.930 . S
N122 Tb84 2.600 . S
N122 C124 1.359 . S
N122 C125 1.327 . S
C123 H109 0.931 . S
C123 C125 1.392 . S
C123 C126 1.370 . S
C124 C120 1.432 . S
C124 N122 1.359 . S
C124 C127 1.414 . S
C125 H107 0.930 . S
C125 N122 1.327 . S
C125 C123 1.392 . S
C126 H121 0.930 . S
C126 C123 1.370 . S
C126 C127 1.385 . S
C127 C124 1.414 . S
C127 C126 1.385 . S
C127 C149 1.444 . S
O128 Tb84 2.546 . S
O128 C148 1.251 . S
O129 Tb84 2.610 . S
O129 Tb95 2.362 . S
O129 C140 1.283 . S
O130 Tb95 2.421 . S
O130 C147 1.262 . S
O131 Tb84 2.320 . S
O131 C147 1.260 . S
O132 Tb84 2.552 . S
O132 C140 1.243 . S
O133 Tb84 2.413 . S
O133 C148 1.256 . S
O134 Tb95 2.546 . S
O134 C159 1.251 . S
O135 Tb84 2.362 . S
O135 Tb95 2.610 . S
O135 C151 1.283 . S
O136 Tb84 2.421 . S
O136 C158 1.262 . S
O137 Tb95 2.320 . S
O137 C158 1.260 . S
O138 Tb95 2.552 . S
O138 C151 1.243 . S
O139 Tb95 2.413 . S
O139 C159 1.256 . S
C140 O129 1.283 . S
C140 O132 1.243 . S
C141 C143 1.382 . S
C141 C145 1.393 . S
C141 C148 1.500 . S
C142 C143 1.400 . S
C142 C144 1.384 . S
C143 C141 1.382 . S
C143 C142 1.400 . S
C143 H160 0.930 . S
C144 C142 1.384 . S
C144 C146 1.392 . S
C144 H161 0.931 . S
C145 C141 1.393 . S
C145 C146 1.401 . S
C145 H162 0.930 . S
C146 C144 1.392 . S
C146 C145 1.401 . S
C146 H163 0.930 . S
C147 O130 1.262 . S
C147 O131 1.260 . S
C148 Tb84 2.833 . S
C148 O128 1.251 . S
C148 O133 1.256 . S
C148 C141 1.500 . S
C149 H114 0.929 . S
C149 C127 1.444 . S
C149 C150 1.317 . S
C150 H112 0.930 . S
C150 C118 1.432 . S
C150 C149 1.317 . S
C151 O135 1.283 . S
C151 O138 1.243 . S
C152 C153 1.382 . S
C152 C156 1.393 . S
C152 C159 1.500 . S
C153 C152 1.382 . S
C153 C154 1.400 . S
C153 H164 0.930 . S
C154 C153 1.400 . S
C154 C155 1.384 . S
C155 C154 1.384 . S
C155 C157 1.392 . S
C155 H165 0.931 . S
C156 C152 1.393 . S
C156 C157 1.401 . S
C156 H166 0.930 . S
C157 C155 1.392 . S
C157 C156 1.401 . S
C157 H167 0.930 . S
C158 O136 1.262 . S
C158 O137 1.260 . S
C159 Tb95 2.833 . S
C159 O134 1.251 . S
C159 O139 1.256 . S
C159 C152 1.500 . S
H160 C143 0.930 . S
H161 C144 0.931 . S
H162 C145 0.930 . S
H163 C146 0.930 . S
H164 C153 0.930 . S
H165 C155 0.931 . S
H166 C156 0.930 . S
H167 C157 0.930 . S
Tb168 N199 2.660 . S
Tb168 N206 2.600 . S
Tb168 O212 2.546 . S
Tb168 O213 2.610 . S
Tb168 O215 2.320 . S
Tb168 O216 2.552 . S
Tb168 O217 2.413 . S
Tb168 O219 2.362 . S
Tb168 O220 2.421 . S
Tb168 C232 2.833 . S
C169 C172 1.432 . S
C169 C173 1.414 . S
C169 N176 1.359 . S
C170 C172 1.417 . S
C170 C174 1.432 . S
C170 C182 1.410 . S
C171 C173 1.444 . S
C171 C174 1.317 . S
C171 H194 0.929 . S
C172 C169 1.432 . S
C172 C170 1.417 . S
C172 N180 1.360 . S
C173 C169 1.414 . S
C173 C171 1.444 . S
C173 C178 1.385 . S
C174 C170 1.432 . S
C174 C171 1.317 . S
C174 H186 0.930 . S
C175 C177 1.392 . S
C175 C178 1.370 . S
C175 H187 0.931 . S
N176 C169 1.359 . S
N176 C177 1.327 . S
N176 Tb179 2.600 . S
C177 C175 1.392 . S
C177 N176 1.327 . S
C177 H184 0.930 . S
C178 C173 1.385 . S
C178 C175 1.370 . S
C178 H197 0.930 . S
Tb179 N176 2.600 . S
Tb179 N180 2.660 . S
Tb179 O213 2.362 . S
Tb179 O214 2.421 . S
Tb179 O218 2.546 . S
Tb179 O219 2.610 . S
Tb179 O221 2.320 . S
Tb179 O222 2.552 . S
Tb179 O223 2.413 . S
Tb179 C243 2.833 . S
N180 C172 1.360 . S
N180 Tb179 2.660 . S
N180 C181 1.305 . S
C181 N180 1.305 . S
C181 C183 1.407 . S
C181 H188 0.930 . S
C182 C170 1.410 . S
C182 C183 1.345 . S
C182 H190 0.930 . S
C183 C181 1.407 . S
C183 C182 1.345 . S
C183 H185 0.930 . S
H184 C177 0.930 . S
H185 C183 0.930 . S
H186 C174 0.930 . S
H187 C175 0.931 . S
H188 C181 0.930 . S
H189 C203 0.930 . S
H190 C182 0.930 . S
H191 C209 0.930 . S
H192 C200 0.930 . S
H193 C207 0.931 . S
H194 C171 0.929 . S
H195 C201 0.930 . S
H196 C234 0.930 . S
H197 C178 0.930 . S
H198 C233 0.929 . S
N199 Tb168 2.660 . S
N199 C200 1.305 . S
N199 C204 1.360 . S
C200 H192 0.930 . S
C200 N199 1.305 . S
C200 C203 1.407 . S
C201 H195 0.930 . S
C201 C202 1.410 . S
C201 C203 1.345 . S
C202 C201 1.410 . S
C202 C204 1.417 . S
C202 C234 1.432 . S
C203 H189 0.930 . S
C203 C200 1.407 . S
C203 C201 1.345 . S
C204 N199 1.360 . S
C204 C202 1.417 . S
C204 C208 1.432 . S
H205 C210 0.930 . S
N206 Tb168 2.600 . S
N206 C208 1.359 . S
N206 C209 1.327 . S
C207 H193 0.931 . S
C207 C209 1.392 . S
C207 C210 1.370 . S
C208 C204 1.432 . S
C208 N206 1.359 . S
C208 C211 1.414 . S
C209 H191 0.930 . S
C209 N206 1.327 . S
C209 C207 1.392 . S
C210 H205 0.930 . S
C210 C207 1.370 . S
C210 C211 1.385 . S
C211 C208 1.414 . S
C211 C210 1.385 . S
C211 C233 1.444 . S
O212 Tb168 2.546 . S
O212 C232 1.251 . S
O213 Tb168 2.610 . S
O213 Tb179 2.362 . S
O213 C224 1.283 . S
O214 Tb179 2.421 . S
O214 C231 1.262 . S
O215 Tb168 2.320 . S
O215 C231 1.260 . S
O216 Tb168 2.552 . S
O216 C224 1.243 . S
O217 Tb168 2.413 . S
O217 C232 1.256 . S
O218 Tb179 2.546 . S
O218 C243 1.251 . S
O219 Tb168 2.362 . S
O219 Tb179 2.610 . S
O219 C235 1.283 . S
O220 Tb168 2.421 . S
O220 C242 1.262 . S
O221 Tb179 2.320 . S
O221 C242 1.260 . S
O222 Tb179 2.552 . S
O222 C235 1.243 . S
O223 Tb179 2.413 . S
O223 C243 1.256 . S
C224 O213 1.283 . S
C224 O216 1.243 . S
C225 C227 1.382 . S
C225 C229 1.393 . S
C225 C232 1.500 . S
C226 C227 1.400 . S
C226 C228 1.384 . S
C227 C225 1.382 . S
C227 C226 1.400 . S
C227 H244 0.930 . S
C228 C226 1.384 . S
C228 C230 1.392 . S
C228 H245 0.931 . S
C229 C225 1.393 . S
C229 C230 1.401 . S
C229 H246 0.930 . S
C230 C228 1.392 . S
C230 C229 1.401 . S
C230 H247 0.930 . S
C231 O214 1.262 . S
C231 O215 1.260 . S
C232 Tb168 2.833 . S
C232 O212 1.251 . S
C232 O217 1.256 . S
C232 C225 1.500 . S
C233 H198 0.929 . S
C233 C211 1.444 . S
C233 C234 1.317 . S
C234 H196 0.930 . S
C234 C202 1.432 . S
C234 C233 1.317 . S
C235 O219 1.283 . S
C235 O222 1.243 . S
C236 C237 1.382 . S
C236 C240 1.393 . S
C236 C243 1.500 . S
C237 C236 1.382 . S
C237 C238 1.400 . S
C237 H248 0.930 . S
C238 C237 1.400 . S
C238 C239 1.384 . S
C239 C238 1.384 . S
C239 C241 1.392 . S
C239 H249 0.931 . S
C240 C236 1.393 . S
C240 C241 1.401 . S
C240 H250 0.930 . S
C241 C239 1.392 . S
C241 C240 1.401 . S
C241 H251 0.930 . S
C242 O220 1.262 . S
C242 O221 1.260 . S
C243 Tb179 2.833 . S
C243 O218 1.251 . S
C243 O223 1.256 . S
C243 C236 1.500 . S
H244 C227 0.930 . S
H245 C228 0.931 . S
H246 C229 0.930 . S
H247 C230 0.930 . S
H248 C237 0.930 . S
H249 C239 0.931 . S
H250 C240 0.930 . S
H251 C241 0.930 . S
Tb252 N283 2.660 . S
Tb252 N290 2.600 . S
Tb252 O296 2.546 . S
Tb252 O297 2.610 . S
Tb252 O299 2.320 . S
Tb252 O300 2.552 . S
Tb252 O301 2.413 . S
Tb252 O303 2.362 . S
Tb252 O304 2.421 . S
Tb252 C316 2.833 . S
C253 C256 1.432 . S
C253 C257 1.414 . S
C253 N260 1.359 . S
C254 C256 1.417 . S
C254 C258 1.432 . S
C254 C266 1.410 . S
C255 C257 1.444 . S
C255 C258 1.317 . S
C255 H278 0.929 . S
C256 C253 1.432 . S
C256 C254 1.417 . S
C256 N264 1.360 . S
C257 C253 1.414 . S
C257 C255 1.444 . S
C257 C262 1.385 . S
C258 C254 1.432 . S
C258 C255 1.317 . S
C258 H270 0.930 . S
C259 C261 1.392 . S
C259 C262 1.370 . S
C259 H271 0.931 . S
N260 C253 1.359 . S
N260 C261 1.327 . S
N260 Tb263 2.600 . S
C261 C259 1.392 . S
C261 N260 1.327 . S
C261 H268 0.930 . S
C262 C257 1.385 . S
C262 C259 1.370 . S
C262 H281 0.930 . S
Tb263 N260 2.600 . S
Tb263 N264 2.660 . S
Tb263 O297 2.362 . S
Tb263 O298 2.421 . S
Tb263 O302 2.546 . S
Tb263 O303 2.610 . S
Tb263 O305 2.320 . S
Tb263 O306 2.552 . S
Tb263 O307 2.413 . S
Tb263 C327 2.833 . S
N264 C256 1.360 . S
N264 Tb263 2.660 . S
N264 C265 1.305 . S
C265 N264 1.305 . S
C265 C267 1.407 . S
C265 H272 0.930 . S
C266 C254 1.410 . S
C266 C267 1.345 . S
C266 H274 0.930 . S
C267 C265 1.407 . S
C267 C266 1.345 . S
C267 H269 0.930 . S
H268 C261 0.930 . S
H269 C267 0.930 . S
H270 C258 0.930 . S
H271 C259 0.931 . S
H272 C265 0.930 . S
H273 C287 0.930 . S
H274 C266 0.930 . S
H275 C293 0.930 . S
H276 C284 0.930 . S
H277 C291 0.931 . S
H278 C255 0.929 . S
H279 C285 0.930 . S
H280 C318 0.930 . S
H281 C262 0.930 . S
H282 C317 0.929 . S
N283 Tb252 2.660 . S
N283 C284 1.305 . S
N283 C288 1.360 . S
C284 H276 0.930 . S
C284 N283 1.305 . S
C284 C287 1.407 . S
C285 H279 0.930 . S
C285 C286 1.410 . S
C285 C287 1.345 . S
C286 C285 1.410 . S
C286 C288 1.417 . S
C286 C318 1.432 . S
C287 H273 0.930 . S
C287 C284 1.407 . S
C287 C285 1.345 . S
C288 N283 1.360 . S
C288 C286 1.417 . S
C288 C292 1.432 . S
H289 C294 0.930 . S
N290 Tb252 2.600 . S
N290 C292 1.359 . S
N290 C293 1.327 . S
C291 H277 0.931 . S
C291 C293 1.392 . S
C291 C294 1.370 . S
C292 C288 1.432 . S
C292 N290 1.359 . S
C292 C295 1.414 . S
C293 H275 0.930 . S
C293 N290 1.327 . S
C293 C291 1.392 . S
C294 H289 0.930 . S
C294 C291 1.370 . S
C294 C295 1.385 . S
C295 C292 1.414 . S
C295 C294 1.385 . S
C295 C317 1.444 . S
O296 Tb252 2.546 . S
O296 C316 1.251 . S
O297 Tb252 2.610 . S
O297 Tb263 2.362 . S
O297 C308 1.283 . S
O298 Tb263 2.421 . S
O298 C315 1.262 . S
O299 Tb252 2.320 . S
O299 C315 1.260 . S
O300 Tb252 2.552 . S
O300 C308 1.243 . S
O301 Tb252 2.413 . S
O301 C316 1.256 . S
O302 Tb263 2.546 . S
O302 C327 1.251 . S
O303 Tb252 2.362 . S
O303 Tb263 2.610 . S
O303 C319 1.283 . S
O304 Tb252 2.421 . S
O304 C326 1.262 . S
O305 Tb263 2.320 . S
O305 C326 1.260 . S
O306 Tb263 2.552 . S
O306 C319 1.243 . S
O307 Tb263 2.413 . S
O307 C327 1.256 . S
C308 O297 1.283 . S
C308 O300 1.243 . S
C309 C311 1.382 . S
C309 C313 1.393 . S
C309 C316 1.500 . S
C310 C311 1.400 . S
C310 C312 1.384 . S
C311 C309 1.382 . S
C311 C310 1.400 . S
C311 H328 0.930 . S
C312 C310 1.384 . S
C312 C314 1.392 . S
C312 H329 0.931 . S
C313 C309 1.393 . S
C313 C314 1.401 . S
C313 H330 0.930 . S
C314 C312 1.392 . S
C314 C313 1.401 . S
C314 H331 0.930 . S
C315 O298 1.262 . S
C315 O299 1.260 . S
C316 Tb252 2.833 . S
C316 O296 1.251 . S
C316 O301 1.256 . S
C316 C309 1.500 . S
C317 H282 0.929 . S
C317 C295 1.444 . S
C317 C318 1.317 . S
C318 H280 0.930 . S
C318 C286 1.432 . S
C318 C317 1.317 . S
C319 O303 1.283 . S
C319 O306 1.243 . S
C320 C321 1.382 . S
C320 C324 1.393 . S
C320 C327 1.500 . S
C321 C320 1.382 . S
C321 C322 1.400 . S
C321 H332 0.930 . S
C322 C321 1.400 . S
C322 C323 1.384 . S
C323 C322 1.384 . S
C323 C325 1.392 . S
C323 H333 0.931 . S
C324 C320 1.393 . S
C324 C325 1.401 . S
C324 H334 0.930 . S
C325 C323 1.392 . S
C325 C324 1.401 . S
C325 H335 0.930 . S
C326 O304 1.262 . S
C326 O305 1.260 . S
C327 Tb263 2.833 . S
C327 O302 1.251 . S
C327 O307 1.256 . S
C327 C320 1.500 . S
H328 C311 0.930 . S
H329 C312 0.931 . S
H330 C313 0.930 . S
H331 C314 0.930 . S
H332 C321 0.930 . S
H333 C323 0.931 . S
H334 C324 0.930 . S
H335 C325 0.930 . S
Tb336 N367 2.660 . S
Tb336 N374 2.600 . S
Tb336 O380 2.546 . S
Tb336 O381 2.610 . S
Tb336 O383 2.320 . S
Tb336 O384 2.552 . S
Tb336 O385 2.413 . S
Tb336 O387 2.362 . S
Tb336 O388 2.421 . S
Tb336 C400 2.833 . S
C337 C340 1.432 . S
C337 C341 1.414 . S
C337 N344 1.359 . S
C338 C340 1.417 . S
C338 C342 1.432 . S
C338 C350 1.410 . S
C339 C341 1.444 . S
C339 C342 1.317 . S
C339 H362 0.929 . S
C340 C337 1.432 . S
C340 C338 1.417 . S
C340 N348 1.360 . S
C341 C337 1.414 . S
C341 C339 1.444 . S
C341 C346 1.385 . S
C342 C338 1.432 . S
C342 C339 1.317 . S
C342 H354 0.930 . S
C343 C345 1.392 . S
C343 C346 1.370 . S
C343 H355 0.931 . S
N344 C337 1.359 . S
N344 C345 1.327 . S
N344 Tb347 2.600 . S
C345 C343 1.392 . S
C345 N344 1.327 . S
C345 H352 0.930 . S
C346 C341 1.385 . S
C346 C343 1.370 . S
C346 H365 0.930 . S
Tb347 N344 2.600 . S
Tb347 N348 2.660 . S
Tb347 O381 2.362 . S
Tb347 O382 2.421 . S
Tb347 O386 2.546 . S
Tb347 O387 2.610 . S
Tb347 O389 2.320 . S
Tb347 O390 2.552 . S
Tb347 O391 2.413 . S
Tb347 C411 2.833 . S
N348 C340 1.360 . S
N348 Tb347 2.660 . S
N348 C349 1.305 . S
C349 N348 1.305 . S
C349 C351 1.407 . S
C349 H356 0.930 . S
C350 C338 1.410 . S
C350 C351 1.345 . S
C350 H358 0.930 . S
C351 C349 1.407 . S
C351 C350 1.345 . S
C351 H353 0.930 . S
H352 C345 0.930 . S
H353 C351 0.930 . S
H354 C342 0.930 . S
H355 C343 0.931 . S
H356 C349 0.930 . S
H357 C371 0.930 . S
H358 C350 0.930 . S
H359 C377 0.930 . S
H360 C368 0.930 . S
H361 C375 0.931 . S
H362 C339 0.929 . S
H363 C369 0.930 . S
H364 C402 0.930 . S
H365 C346 0.930 . S
H366 C401 0.929 . S
N367 Tb336 2.660 . S
N367 C368 1.305 . S
N367 C372 1.360 . S
C368 H360 0.930 . S
C368 N367 1.305 . S
C368 C371 1.407 . S
C369 H363 0.930 . S
C369 C370 1.410 . S
C369 C371 1.345 . S
C370 C369 1.410 . S
C370 C372 1.417 . S
C370 C402 1.432 . S
C371 H357 0.930 . S
C371 C368 1.407 . S
C371 C369 1.345 . S
C372 N367 1.360 . S
C372 C370 1.417 . S
C372 C376 1.432 . S
H373 C378 0.930 . S
N374 Tb336 2.600 . S
N374 C376 1.359 . S
N374 C377 1.327 . S
C375 H361 0.931 . S
C375 C377 1.392 . S
C375 C378 1.370 . S
C376 C372 1.432 . S
C376 N374 1.359 . S
C376 C379 1.414 . S
C377 H359 0.930 . S
C377 N374 1.327 . S
C377 C375 1.392 . S
C378 H373 0.930 . S
C378 C375 1.370 . S
C378 C379 1.385 . S
C379 C376 1.414 . S
C379 C378 1.385 . S
C379 C401 1.444 . S
O380 Tb336 2.546 . S
O380 C400 1.251 . S
O381 Tb336 2.610 . S
O381 Tb347 2.362 . S
O381 C392 1.283 . S
O382 Tb347 2.421 . S
O382 C399 1.262 . S
O383 Tb336 2.320 . S
O383 C399 1.260 . S
O384 Tb336 2.552 . S
O384 C392 1.243 . S
O385 Tb336 2.413 . S
O385 C400 1.256 . S
O386 Tb347 2.546 . S
O386 C411 1.251 . S
O387 Tb336 2.362 . S
O387 Tb347 2.610 . S
O387 C403 1.283 . S
O388 Tb336 2.421 . S
O388 C410 1.262 . S
O389 Tb347 2.320 . S
O389 C410 1.260 . S
O390 Tb347 2.552 . S
O390 C403 1.243 . S
O391 Tb347 2.413 . S
O391 C411 1.256 . S
C392 O381 1.283 . S
C392 O384 1.243 . S
C393 C395 1.382 . S
C393 C397 1.393 . S
C393 C400 1.500 . S
C394 C395 1.400 . S
C394 C396 1.384 . S
C395 C393 1.382 . S
C395 C394 1.400 . S
C395 H412 0.930 . S
C396 C394 1.384 . S
C396 C398 1.392 . S
C396 H413 0.931 . S
C397 C393 1.393 . S
C397 C398 1.401 . S
C397 H414 0.930 . S
C398 C396 1.392 . S
C398 C397 1.401 . S
C398 H415 0.930 . S
C399 O382 1.262 . S
C399 O383 1.260 . S
C400 Tb336 2.833 . S
C400 O380 1.251 . S
C400 O385 1.256 . S
C400 C393 1.500 . S
C401 H366 0.929 . S
C401 C379 1.444 . S
C401 C402 1.317 . S
C402 H364 0.930 . S
C402 C370 1.432 . S
C402 C401 1.317 . S
C403 O387 1.283 . S
C403 O390 1.243 . S
C404 C405 1.382 . S
C404 C408 1.393 . S
C404 C411 1.500 . S
C405 C404 1.382 . S
C405 C406 1.400 . S
C405 H416 0.930 . S
C406 C405 1.400 . S
C406 C407 1.384 . S
C407 C406 1.384 . S
C407 C409 1.392 . S
C407 H417 0.931 . S
C408 C404 1.393 . S
C408 C409 1.401 . S
C408 H418 0.930 . S
C409 C407 1.392 . S
C409 C408 1.401 . S
C409 H419 0.930 . S
C410 O388 1.262 . S
C410 O389 1.260 . S
C411 Tb347 2.833 . S
C411 O386 1.251 . S
C411 O391 1.256 . S
C411 C404 1.500 . S
H412 C395 0.930 . S
H413 C396 0.931 . S
H414 C397 0.930 . S
H415 C398 0.930 . S
H416 C405 0.930 . S
H417 C407 0.931 . S
H418 C408 0.930 . S
H419 C409 0.930 . S
Tb420 N451 2.660 . S
Tb420 N458 2.600 . S
Tb420 O464 2.546 . S
Tb420 O465 2.610 . S
Tb420 O467 2.320 . S
Tb420 O468 2.552 . S
Tb420 O469 2.413 . S
Tb420 O471 2.362 . S
Tb420 O472 2.421 . S
Tb420 C484 2.833 . S
C421 C424 1.432 . S
C421 C425 1.414 . S
C421 N428 1.359 . S
C422 C424 1.417 . S
C422 C426 1.432 . S
C422 C434 1.410 . S
C423 C425 1.444 . S
C423 C426 1.317 . S
C423 H446 0.929 . S
C424 C421 1.432 . S
C424 C422 1.417 . S
C424 N432 1.360 . S
C425 C421 1.414 . S
C425 C423 1.444 . S
C425 C430 1.385 . S
C426 C422 1.432 . S
C426 C423 1.317 . S
C426 H438 0.930 . S
C427 C429 1.392 . S
C427 C430 1.370 . S
C427 H439 0.931 . S
N428 C421 1.359 . S
N428 C429 1.327 . S
N428 Tb431 2.600 . S
C429 C427 1.392 . S
C429 N428 1.327 . S
C429 H436 0.930 . S
C430 C425 1.385 . S
C430 C427 1.370 . S
C430 H449 0.930 . S
Tb431 N428 2.600 . S
Tb431 N432 2.660 . S
Tb431 O465 2.362 . S
Tb431 O466 2.421 . S
Tb431 O470 2.546 . S
Tb431 O471 2.610 . S
Tb431 O473 2.320 . S
Tb431 O474 2.552 . S
Tb431 O475 2.413 . S
Tb431 C495 2.833 . S
N432 C424 1.360 . S
N432 Tb431 2.660 . S
N432 C433 1.305 . S
C433 N432 1.305 . S
C433 C435 1.407 . S
C433 H440 0.930 . S
C434 C422 1.410 . S
C434 C435 1.345 . S
C434 H442 0.930 . S
C435 C433 1.407 . S
C435 C434 1.345 . S
C435 H437 0.930 . S
H436 C429 0.930 . S
H437 C435 0.930 . S
H438 C426 0.930 . S
H439 C427 0.931 . S
H440 C433 0.930 . S
H441 C455 0.930 . S
H442 C434 0.930 . S
H443 C461 0.930 . S
H444 C452 0.930 . S
H445 C459 0.931 . S
H446 C423 0.929 . S
H447 C453 0.930 . S
H448 C486 0.930 . S
H449 C430 0.930 . S
H450 C485 0.929 . S
N451 Tb420 2.660 . S
N451 C452 1.305 . S
N451 C456 1.360 . S
C452 H444 0.930 . S
C452 N451 1.305 . S
C452 C455 1.407 . S
C453 H447 0.930 . S
C453 C454 1.410 . S
C453 C455 1.345 . S
C454 C453 1.410 . S
C454 C456 1.417 . S
C454 C486 1.432 . S
C455 H441 0.930 . S
C455 C452 1.407 . S
C455 C453 1.345 . S
C456 N451 1.360 . S
C456 C454 1.417 . S
C456 C460 1.432 . S
H457 C462 0.930 . S
N458 Tb420 2.600 . S
N458 C460 1.359 . S
N458 C461 1.327 . S
C459 H445 0.931 . S
C459 C461 1.392 . S
C459 C462 1.370 . S
C460 C456 1.432 . S
C460 N458 1.359 . S
C460 C463 1.414 . S
C461 H443 0.930 . S
C461 N458 1.327 . S
C461 C459 1.392 . S
C462 H457 0.930 . S
C462 C459 1.370 . S
C462 C463 1.385 . S
C463 C460 1.414 . S
C463 C462 1.385 . S
C463 C485 1.444 . S
O464 Tb420 2.546 . S
O464 C484 1.251 . S
O465 Tb420 2.610 . S
O465 Tb431 2.362 . S
O465 C476 1.283 . S
O466 Tb431 2.421 . S
O466 C483 1.262 . S
O467 Tb420 2.320 . S
O467 C483 1.260 . S
O468 Tb420 2.552 . S
O468 C476 1.243 . S
O469 Tb420 2.413 . S
O469 C484 1.256 . S
O470 Tb431 2.546 . S
O470 C495 1.251 . S
O471 Tb420 2.362 . S
O471 Tb431 2.610 . S
O471 C487 1.283 . S
O472 Tb420 2.421 . S
O472 C494 1.262 . S
O473 Tb431 2.320 . S
O473 C494 1.260 . S
O474 Tb431 2.552 . S
O474 C487 1.243 . S
O475 Tb431 2.413 . S
O475 C495 1.256 . S
C476 O465 1.283 . S
C476 O468 1.243 . S
C477 C479 1.382 . S
C477 C481 1.393 . S
C477 C484 1.500 . S
C478 C479 1.400 . S
C478 C480 1.384 . S
C479 C477 1.382 . S
C479 C478 1.400 . S
C479 H496 0.930 . S
C480 C478 1.384 . S
C480 C482 1.392 . S
C480 H497 0.931 . S
C481 C477 1.393 . S
C481 C482 1.401 . S
C481 H498 0.930 . S
C482 C480 1.392 . S
C482 C481 1.401 . S
C482 H499 0.930 . S
C483 O466 1.262 . S
C483 O467 1.260 . S
C484 Tb420 2.833 . S
C484 O464 1.251 . S
C484 O469 1.256 . S
C484 C477 1.500 . S
C485 H450 0.929 . S
C485 C463 1.444 . S
C485 C486 1.317 . S
C486 H448 0.930 . S
C486 C454 1.432 . S
C486 C485 1.317 . S
C487 O471 1.283 . S
C487 O474 1.243 . S
C488 C489 1.382 . S
C488 C492 1.393 . S
C488 C495 1.500 . S
C489 C488 1.382 . S
C489 C490 1.400 . S
C489 H500 0.930 . S
C490 C489 1.400 . S
C490 C491 1.384 . S
C491 C490 1.384 . S
C491 C493 1.392 . S
C491 H501 0.931 . S
C492 C488 1.393 . S
C492 C493 1.401 . S
C492 H502 0.930 . S
C493 C491 1.392 . S
C493 C492 1.401 . S
C493 H503 0.930 . S
C494 O472 1.262 . S
C494 O473 1.260 . S
C495 Tb431 2.833 . S
C495 O470 1.251 . S
C495 O475 1.256 . S
C495 C488 1.500 . S
H496 C479 0.930 . S
H497 C480 0.931 . S
H498 C481 0.930 . S
H499 C482 0.930 . S
H500 C489 0.930 . S
H501 C491 0.931 . S
H502 C492 0.930 . S
H503 C493 0.930 . S
Tb504 N535 2.660 . S
Tb504 N542 2.600 . S
Tb504 O548 2.546 . S
Tb504 O549 2.610 . S
Tb504 O551 2.320 . S
Tb504 O552 2.552 . S
Tb504 O553 2.413 . S
Tb504 O555 2.362 . S
Tb504 O556 2.421 . S
Tb504 C568 2.833 . S
C505 C508 1.432 . S
C505 C509 1.414 . S
C505 N512 1.359 . S
C506 C508 1.417 . S
C506 C510 1.432 . S
C506 C518 1.410 . S
C507 C509 1.444 . S
C507 C510 1.317 . S
C507 H530 0.929 . S
C508 C505 1.432 . S
C508 C506 1.417 . S
C508 N516 1.360 . S
C509 C505 1.414 . S
C509 C507 1.444 . S
C509 C514 1.385 . S
C510 C506 1.432 . S
C510 C507 1.317 . S
C510 H522 0.930 . S
C511 C513 1.392 . S
C511 C514 1.370 . S
C511 H523 0.931 . S
N512 C505 1.359 . S
N512 C513 1.327 . S
N512 Tb515 2.600 . S
C513 C511 1.392 . S
C513 N512 1.327 . S
C513 H520 0.930 . S
C514 C509 1.385 . S
C514 C511 1.370 . S
C514 H533 0.930 . S
Tb515 N512 2.600 . S
Tb515 N516 2.660 . S
Tb515 O549 2.362 . S
Tb515 O550 2.421 . S
Tb515 O554 2.546 . S
Tb515 O555 2.610 . S
Tb515 O557 2.320 . S
Tb515 O558 2.552 . S
Tb515 O559 2.413 . S
Tb515 C579 2.833 . S
N516 C508 1.360 . S
N516 Tb515 2.660 . S
N516 C517 1.305 . S
C517 N516 1.305 . S
C517 C519 1.407 . S
C517 H524 0.930 . S
C518 C506 1.410 . S
C518 C519 1.345 . S
C518 H526 0.930 . S
C519 C517 1.407 . S
C519 C518 1.345 . S
C519 H521 0.930 . S
H520 C513 0.930 . S
H521 C519 0.930 . S
H522 C510 0.930 . S
H523 C511 0.931 . S
H524 C517 0.930 . S
H525 C539 0.930 . S
H526 C518 0.930 . S
H527 C545 0.930 . S
H528 C536 0.930 . S
H529 C543 0.931 . S
H530 C507 0.929 . S
H531 C537 0.930 . S
H532 C570 0.930 . S
H533 C514 0.930 . S
H534 C569 0.929 . S
N535 Tb504 2.660 . S
N535 C536 1.305 . S
N535 C540 1.360 . S
C536 H528 0.930 . S
C536 N535 1.305 . S
C536 C539 1.407 . S
C537 H531 0.930 . S
C537 C538 1.410 . S
C537 C539 1.345 . S
C538 C537 1.410 . S
C538 C540 1.417 . S
C538 C570 1.432 . S
C539 H525 0.930 . S
C539 C536 1.407 . S
C539 C537 1.345 . S
C540 N535 1.360 . S
C540 C538 1.417 . S
C540 C544 1.432 . S
H541 C546 0.930 . S
N542 Tb504 2.600 . S
N542 C544 1.359 . S
N542 C545 1.327 . S
C543 H529 0.931 . S
C543 C545 1.392 . S
C543 C546 1.370 . S
C544 C540 1.432 . S
C544 N542 1.359 . S
C544 C547 1.414 . S
C545 H527 0.930 . S
C545 N542 1.327 . S
C545 C543 1.392 . S
C546 H541 0.930 . S
C546 C543 1.370 . S
C546 C547 1.385 . S
C547 C544 1.414 . S
C547 C546 1.385 . S
C547 C569 1.444 . S
O548 Tb504 2.546 . S
O548 C568 1.251 . S
O549 Tb504 2.610 . S
O549 Tb515 2.362 . S
O549 C560 1.283 . S
O550 Tb515 2.421 . S
O550 C567 1.262 . S
O551 Tb504 2.320 . S
O551 C567 1.260 . S
O552 Tb504 2.552 . S
O552 C560 1.243 . S
O553 Tb504 2.413 . S
O553 C568 1.256 . S
O554 Tb515 2.546 . S
O554 C579 1.251 . S
O555 Tb504 2.362 . S
O555 Tb515 2.610 . S
O555 C571 1.283 . S
O556 Tb504 2.421 . S
O556 C578 1.262 . S
O557 Tb515 2.320 . S
O557 C578 1.260 . S
O558 Tb515 2.552 . S
O558 C571 1.243 . S
O559 Tb515 2.413 . S
O559 C579 1.256 . S
C560 O549 1.283 . S
C560 O552 1.243 . S
C561 C563 1.382 . S
C561 C565 1.393 . S
C561 C568 1.500 . S
C562 C563 1.400 . S
C562 C564 1.384 . S
C563 C561 1.382 . S
C563 C562 1.400 . S
C563 H580 0.930 . S
C564 C562 1.384 . S
C564 C566 1.392 . S
C564 H581 0.931 . S
C565 C561 1.393 . S
C565 C566 1.401 . S
C565 H582 0.930 . S
C566 C564 1.392 . S
C566 C565 1.401 . S
C566 H583 0.930 . S
C567 O550 1.262 . S
C567 O551 1.260 . S
C568 Tb504 2.833 . S
C568 O548 1.251 . S
C568 O553 1.256 . S
C568 C561 1.500 . S
C569 H534 0.929 . S
C569 C547 1.444 . S
C569 C570 1.317 . S
C570 H532 0.930 . S
C570 C538 1.432 . S
C570 C569 1.317 . S
C571 O555 1.283 . S
C571 O558 1.243 . S
C572 C573 1.382 . S
C572 C576 1.393 . S
C572 C579 1.500 . S
C573 C572 1.382 . S
C573 C574 1.400 . S
C573 H584 0.930 . S
C574 C573 1.400 . S
C574 C575 1.384 . S
C575 C574 1.384 . S
C575 C577 1.392 . S
C575 H585 0.931 . S
C576 C572 1.393 . S
C576 C577 1.401 . S
C576 H586 0.930 . S
C577 C575 1.392 . S
C577 C576 1.401 . S
C577 H587 0.930 . S
C578 O556 1.262 . S
C578 O557 1.260 . S
C579 Tb515 2.833 . S
C579 O554 1.251 . S
C579 O559 1.256 . S
C579 C572 1.500 . S
H580 C563 0.930 . S
H581 C564 0.931 . S
H582 C565 0.930 . S
H583 C566 0.930 . S
H584 C573 0.930 . S
H585 C575 0.931 . S
H586 C576 0.930 . S
H587 C577 0.930 . S
Tb588 N619 2.660 . S
Tb588 N626 2.600 . S
Tb588 O632 2.546 . S
Tb588 O633 2.610 . S
Tb588 O635 2.320 . S
Tb588 O636 2.552 . S
Tb588 O637 2.413 . S
Tb588 O639 2.362 . S
Tb588 O640 2.421 . S
Tb588 C652 2.833 . S
C589 C592 1.432 . S
C589 C593 1.414 . S
C589 N596 1.359 . S
C590 C592 1.417 . S
C590 C594 1.432 . S
C590 C602 1.410 . S
C591 C593 1.444 . S
C591 C594 1.317 . S
C591 H614 0.929 . S
C592 C589 1.432 . S
C592 C590 1.417 . S
C592 N600 1.360 . S
C593 C589 1.414 . S
C593 C591 1.444 . S
C593 C598 1.385 . S
C594 C590 1.432 . S
C594 C591 1.317 . S
C594 H606 0.930 . S
C595 C597 1.392 . S
C595 C598 1.370 . S
C595 H607 0.931 . S
N596 C589 1.359 . S
N596 C597 1.327 . S
N596 Tb599 2.600 . S
C597 C595 1.392 . S
C597 N596 1.327 . S
C597 H604 0.930 . S
C598 C593 1.385 . S
C598 C595 1.370 . S
C598 H617 0.930 . S
Tb599 N596 2.600 . S
Tb599 N600 2.660 . S
Tb599 O633 2.362 . S
Tb599 O634 2.421 . S
Tb599 O638 2.546 . S
Tb599 O639 2.610 . S
Tb599 O641 2.320 . S
Tb599 O642 2.552 . S
Tb599 O643 2.413 . S
Tb599 C663 2.833 . S
N600 C592 1.360 . S
N600 Tb599 2.660 . S
N600 C601 1.305 . S
C601 N600 1.305 . S
C601 C603 1.407 . S
C601 H608 0.930 . S
C602 C590 1.410 . S
C602 C603 1.345 . S
C602 H610 0.930 . S
C603 C601 1.407 . S
C603 C602 1.345 . S
C603 H605 0.930 . S
H604 C597 0.930 . S
H605 C603 0.930 . S
H606 C594 0.930 . S
H607 C595 0.931 . S
H608 C601 0.930 . S
H609 C623 0.930 . S
H610 C602 0.930 . S
H611 C629 0.930 . S
H612 C620 0.930 . S
H613 C627 0.931 . S
H614 C591 0.929 . S
H615 C621 0.930 . S
H616 C654 0.930 . S
H617 C598 0.930 . S
H618 C653 0.929 . S
N619 Tb588 2.660 . S
N619 C620 1.305 . S
N619 C624 1.360 . S
C620 H612 0.930 . S
C620 N619 1.305 . S
C620 C623 1.407 . S
C621 H615 0.930 . S
C621 C622 1.410 . S
C621 C623 1.345 . S
C622 C621 1.410 . S
C622 C624 1.417 . S
C622 C654 1.432 . S
C623 H609 0.930 . S
C623 C620 1.407 . S
C623 C621 1.345 . S
C624 N619 1.360 . S
C624 C622 1.417 . S
C624 C628 1.432 . S
H625 C630 0.930 . S
N626 Tb588 2.600 . S
N626 C628 1.359 . S
N626 C629 1.327 . S
C627 H613 0.931 . S
C627 C629 1.392 . S
C627 C630 1.370 . S
C628 C624 1.432 . S
C628 N626 1.359 . S
C628 C631 1.414 . S
C629 H611 0.930 . S
C629 N626 1.327 . S
C629 C627 1.392 . S
C630 H625 0.930 . S
C630 C627 1.370 . S
C630 C631 1.385 . S
C631 C628 1.414 . S
C631 C630 1.385 . S
C631 C653 1.444 . S
O632 Tb588 2.546 . S
O632 C652 1.251 . S
O633 Tb588 2.610 . S
O633 Tb599 2.362 . S
O633 C644 1.283 . S
O634 Tb599 2.421 . S
O634 C651 1.262 . S
O635 Tb588 2.320 . S
O635 C651 1.260 . S
O636 Tb588 2.552 . S
O636 C644 1.243 . S
O637 Tb588 2.413 . S
O637 C652 1.256 . S
O638 Tb599 2.546 . S
O638 C663 1.251 . S
O639 Tb588 2.362 . S
O639 Tb599 2.610 . S
O639 C655 1.283 . S
O640 Tb588 2.421 . S
O640 C662 1.262 . S
O641 Tb599 2.320 . S
O641 C662 1.260 . S
O642 Tb599 2.552 . S
O642 C655 1.243 . S
O643 Tb599 2.413 . S
O643 C663 1.256 . S
C644 O633 1.283 . S
C644 O636 1.243 . S
C645 C647 1.382 . S
C645 C649 1.393 . S
C645 C652 1.500 . S
C646 C647 1.400 . S
C646 C648 1.384 . S
C647 C645 1.382 . S
C647 C646 1.400 . S
C647 H664 0.930 . S
C648 C646 1.384 . S
C648 C650 1.392 . S
C648 H665 0.931 . S
C649 C645 1.393 . S
C649 C650 1.401 . S
C649 H666 0.930 . S
C650 C648 1.392 . S
C650 C649 1.401 . S
C650 H667 0.930 . S
C651 O634 1.262 . S
C651 O635 1.260 . S
C652 Tb588 2.833 . S
C652 O632 1.251 . S
C652 O637 1.256 . S
C652 C645 1.500 . S
C653 H618 0.929 . S
C653 C631 1.444 . S
C653 C654 1.317 . S
C654 H616 0.930 . S
C654 C622 1.432 . S
C654 C653 1.317 . S
C655 O639 1.283 . S
C655 O642 1.243 . S
C656 C657 1.382 . S
C656 C660 1.393 . S
C656 C663 1.500 . S
C657 C656 1.382 . S
C657 C658 1.400 . S
C657 H668 0.930 . S
C658 C657 1.400 . S
C658 C659 1.384 . S
C659 C658 1.384 . S
C659 C661 1.392 . S
C659 H669 0.931 . S
C660 C656 1.393 . S
C660 C661 1.401 . S
C660 H670 0.930 . S
C661 C659 1.392 . S
C661 C660 1.401 . S
C661 H671 0.930 . S
C662 O640 1.262 . S
C662 O641 1.260 . S
C663 Tb599 2.833 . S
C663 O638 1.251 . S
C663 O643 1.256 . S
C663 C656 1.500 . S
H664 C647 0.930 . S
H665 C648 0.931 . S
H666 C649 0.930 . S
H667 C650 0.930 . S
H668 C657 0.930 . S
H669 C659 0.931 . S
H670 C660 0.930 . S
H671 C661 0.930 . S
Fe672 O673 1.886 1_455 S
Fe672 O676 1.715 . S
Fe672 O681 2.077 1_455 S
Fe672 O686 1.935 . S
Fe672 O692 2.077 1_455 S
Fe672 O701 1.935 . S
O673 Fe672 1.886 1_655 S
O673 Fe675 1.715 1_545 S
Fe674 O676 1.886 . S
Fe674 O677 1.715 1_545 S
Fe674 O684 1.935 1_545 S
Fe674 O685 2.077 . S
Fe674 O691 1.935 1_545 S
Fe674 O700 2.077 . S
Fe675 O673 1.715 1_565 S
Fe675 O678 1.886 . S
Fe675 O682 1.935 1_565 S
Fe675 O687 2.077 . S
Fe675 O693 1.935 1_565 S
Fe675 O697 2.077 . S
O676 Fe672 1.715 . S
O676 Fe674 1.886 . S
O677 Fe674 1.715 1_565 S
O677 Fe679 1.886 1_455 S
O678 Fe675 1.886 . S
O678 Fe679 1.715 . S
Fe679 O677 1.886 1_655 S
Fe679 O678 1.715 . S
Fe679 O683 2.077 1_655 S
Fe679 O688 1.935 . S
Fe679 O690 2.077 1_655 S
Fe679 O698 1.935 . S
C680 O692 1.381 . S
C680 O693 1.421 . S
O681 Fe672 2.077 1_655 S
O681 C694 1.381 . S
O682 Fe675 1.935 1_545 S
O682 C694 1.421 . S
O683 Fe679 2.077 1_455 S
O683 C699 1.381 . S
O684 Fe674 1.935 1_565 S
O684 C699 1.421 . S
O685 Fe674 2.077 . S
O685 C689 1.381 . S
O686 Fe672 1.935 . S
O686 C689 1.421 . S
O687 Fe675 2.077 . S
O687 C695 1.381 . S
O688 Fe679 1.935 . S
O688 C695 1.421 . S
C689 O685 1.381 . S
C689 O686 1.421 . S
O690 Fe679 2.077 1_455 S
O690 C702 1.381 . S
O691 Fe674 1.935 1_565 S
O691 C702 1.421 . S
O692 Fe672 2.077 1_655 S
O692 C680 1.381 . S
O693 Fe675 1.935 1_545 S
O693 C680 1.421 . S
C694 O681 1.381 . S
C694 O682 1.421 . S
C695 O687 1.381 . S
C695 O688 1.421 . S
C696 O697 1.381 . S
C696 O698 1.421 . S
O697 Fe675 2.077 . S
O697 C696 1.381 . S
O698 Fe679 1.935 . S
O698 C696 1.421 . S
C699 O683 1.381 . S
C699 O684 1.421 . S
O700 Fe674 2.077 . S
O700 C703 1.381 . S
O701 Fe672 1.935 . S
O701 C703 1.421 . S
C702 O690 1.381 . S
C702 O691 1.421 . S
C703 O700 1.381 . S
C703 O701 1.421 . S
Fe704 O705 1.886 . S
Fe704 O708 1.714 . S
Fe704 O713 2.077 1_554 S
Fe704 O718 1.935 1_554 S
Fe704 O724 2.077 . S
Fe704 O733 1.935 . S
O705 Fe704 1.886 . S
O705 Fe707 1.715 1_565 S
Fe706 O708 1.887 1_556 S
Fe706 O709 1.715 1_565 S
Fe706 O716 1.935 1_565 S
Fe706 O717 2.077 . S
Fe706 O723 1.935 1_566 S
Fe706 O732 2.077 1_556 S
Fe707 O705 1.715 1_545 S
Fe707 O710 1.886 1_554 S
Fe707 O714 1.935 1_544 S
Fe707 O719 2.077 1_554 S
Fe707 O725 1.935 1_545 S
Fe707 O729 2.077 . S
O708 Fe704 1.714 . S
O708 Fe706 1.887 1_554 S
O709 Fe706 1.715 1_545 S
O709 Fe711 1.886 . S
O710 Fe707 1.886 1_556 S
O710 Fe711 1.714 . S
Fe711 O709 1.886 . S
Fe711 O710 1.714 . S
Fe711 O715 2.077 . S
Fe711 O720 1.935 . S
Fe711 O722 2.077 1_556 S
Fe711 O730 1.935 1_556 S
C712 O724 1.381 . S
C712 O725 1.421 . S
O713 Fe704 2.077 1_556 S
O713 C726 1.381 . S
O714 Fe707 1.935 1_566 S
O714 C726 1.421 . S
O715 Fe711 2.077 . S
O715 C731 1.381 . S
O716 Fe706 1.935 1_545 S
O716 C731 1.421 . S
O717 Fe706 2.077 . S
O717 C721 1.381 . S
O718 Fe704 1.935 1_556 S
O718 C721 1.421 . S
O719 Fe707 2.077 1_556 S
O719 C727 1.381 . S
O720 Fe711 1.935 . S
O720 C727 1.421 . S
C721 O717 1.381 . S
C721 O718 1.421 . S
O722 Fe711 2.077 1_554 S
O722 C734 1.381 . S
O723 Fe706 1.935 1_544 S
O723 C734 1.421 . S
O724 Fe704 2.077 . S
O724 C712 1.381 . S
O725 Fe707 1.935 1_565 S
O725 C712 1.421 . S
C726 O713 1.381 . S
C726 O714 1.421 . S
C727 O719 1.381 . S
C727 O720 1.421 . S
C728 O729 1.381 . S
C728 O730 1.421 . S
O729 Fe707 2.077 . S
O729 C728 1.381 . S
O730 Fe711 1.935 1_554 S
O730 C728 1.421 . S
C731 O715 1.381 . S
C731 O716 1.421 . S
O732 Fe706 2.077 1_554 S
O732 C735 1.381 . S
O733 Fe704 1.935 . S
O733 C735 1.421 . S
C734 O722 1.381 . S
C734 O723 1.421 . S
C735 O732 1.381 . S
C735 O733 1.421 . S
Fe736 O737 1.886 1_455 S
Fe736 O740 1.715 . S
Fe736 O745 2.077 1_455 S
Fe736 O750 1.935 . S
Fe736 O756 2.077 1_456 S
Fe736 O765 1.935 1_556 S
O737 Fe736 1.886 1_655 S
O737 Fe739 1.715 . S
Fe738 O740 1.886 1_554 S
Fe738 O741 1.715 . S
Fe738 O748 1.935 1_554 S
Fe738 O749 2.077 1_554 S
Fe738 O755 1.935 . S
Fe738 O764 2.077 . S
Fe739 O737 1.715 . S
Fe739 O742 1.887 1_556 S
Fe739 O746 1.935 . S
Fe739 O751 2.077 . S
Fe739 O757 1.935 1_556 S
Fe739 O761 2.077 1_556 S
O740 Fe736 1.715 . S
O740 Fe738 1.886 1_556 S
O741 Fe738 1.715 . S
O741 Fe743 1.886 1_455 S
O742 Fe739 1.887 1_554 S
O742 Fe743 1.714 . S
Fe743 O741 1.886 1_655 S
Fe743 O742 1.714 . S
Fe743 O747 2.077 1_654 S
Fe743 O752 1.935 1_554 S
Fe743 O754 2.077 1_655 S
Fe743 O762 1.935 . S
C744 O756 1.381 . S
C744 O757 1.421 . S
O745 Fe736 2.077 1_655 S
O745 C758 1.381 . S
O746 Fe739 1.935 . S
O746 C758 1.421 . S
O747 Fe743 2.077 1_456 S
O747 C763 1.381 . S
O748 Fe738 1.935 1_556 S
O748 C763 1.421 . S
O749 Fe738 2.077 1_556 S
O749 C753 1.381 . S
O750 Fe736 1.935 . S
O750 C753 1.421 . S
O751 Fe739 2.077 . S
O751 C759 1.381 . S
O752 Fe743 1.935 1_556 S
O752 C759 1.421 . S
C753 O749 1.381 . S
C753 O750 1.421 . S
O754 Fe743 2.077 1_455 S
O754 C766 1.381 . S
O755 Fe738 1.935 . S
O755 C766 1.421 . S
O756 Fe736 2.077 1_654 S
O756 C744 1.381 . S
O757 Fe739 1.935 1_554 S
O757 C744 1.421 . S
C758 O745 1.381 . S
C758 O746 1.421 . S
C759 O751 1.381 . S
C759 O752 1.421 . S
C760 O761 1.381 . S
C760 O762 1.421 . S
O761 Fe739 2.077 1_554 S
O761 C760 1.381 . S
O762 Fe743 1.935 . S
O762 C760 1.421 . S
C763 O747 1.381 . S
C763 O748 1.421 . S
O764 Fe738 2.077 . S
O764 C767 1.381 . S
O765 Fe736 1.935 1_554 S
O765 C767 1.421 . S
C766 O754 1.381 . S
C766 O755 1.421 . S
C767 O764 1.381 . S
C767 O765 1.421 . S
Fe768 O769 1.886 . S
Fe768 O772 1.715 . S
Fe768 O777 2.077 . S
Fe768 O782 1.935 . S
Fe768 O788 2.077 . S
Fe768 O797 1.935 . S
O769 Fe768 1.886 . S
O769 Fe771 1.715 1_556 S
Fe770 O772 1.886 . S
Fe770 O773 1.715 1_556 S
Fe770 O780 1.935 1_556 S
Fe770 O781 2.077 . S
Fe770 O787 1.935 1_556 S
Fe770 O796 2.077 . S
Fe771 O769 1.715 1_554 S
Fe771 O774 1.886 . S
Fe771 O778 1.935 1_554 S
Fe771 O783 2.077 . S
Fe771 O789 1.935 1_554 S
Fe771 O793 2.077 . S
O772 Fe768 1.715 . S
O772 Fe770 1.886 . S
O773 Fe770 1.715 1_554 S
O773 Fe775 1.886 . S
O774 Fe771 1.886 . S
O774 Fe775 1.715 . S
Fe775 O773 1.886 . S
Fe775 O774 1.715 . S
Fe775 O779 2.077 . S
Fe775 O784 1.935 . S
Fe775 O786 2.077 . S
Fe775 O794 1.935 . S
C776 O788 1.381 . S
C776 O789 1.421 . S
O777 Fe768 2.077 . S
O777 C790 1.381 . S
O778 Fe771 1.935 1_556 S
O778 C790 1.421 . S
O779 Fe775 2.077 . S
O779 C795 1.381 . S
O780 Fe770 1.935 1_554 S
O780 C795 1.421 . S
O781 Fe770 2.077 . S
O781 C785 1.381 . S
O782 Fe768 1.935 . S
O782 C785 1.421 . S
O783 Fe771 2.077 . S
O783 C791 1.381 . S
O784 Fe775 1.935 . S
O784 C791 1.421 . S
C785 O781 1.381 . S
C785 O782 1.421 . S
O786 Fe775 2.077 . S
O786 C798 1.381 . S
O787 Fe770 1.935 1_554 S
O787 C798 1.421 . S
O788 Fe768 2.077 . S
O788 C776 1.381 . S
O789 Fe771 1.935 1_556 S
O789 C776 1.421 . S
C790 O777 1.381 . S
C790 O778 1.421 . S
C791 O783 1.381 . S
C791 O784 1.421 . S
C792 O793 1.381 . S
C792 O794 1.421 . S
O793 Fe771 2.077 . S
O793 C792 1.381 . S
O794 Fe775 1.935 . S
O794 C792 1.421 . S
C795 O779 1.381 . S
C795 O780 1.421 . S
O796 Fe770 2.077 . S
O796 C799 1.381 . S
O797 Fe768 1.935 . S
O797 C799 1.421 . S
C798 O786 1.381 . S
C798 O787 1.421 . S
C799 O796 1.381 . S
C799 O797 1.421 . S
Fe800 O801 1.886 . S
Fe800 O804 1.715 . S
Fe800 O809 2.077 1_655 S
Fe800 O814 1.935 1_655 S
Fe800 O820 2.077 . S
Fe800 O829 1.935 . S
O801 Fe800 1.886 . S
O801 Fe803 1.715 1_655 S
Fe802 O804 1.886 . S
Fe802 O805 1.715 1_655 S
Fe802 O812 1.935 1_655 S
Fe802 O813 2.077 1_655 S
Fe802 O819 1.935 . S
Fe802 O828 2.077 . S
Fe803 O801 1.715 1_455 S
Fe803 O806 1.886 . S
Fe803 O810 1.935 . S
Fe803 O815 2.077 . S
Fe803 O821 1.935 1_455 S
Fe803 O825 2.077 1_455 S
O804 Fe800 1.715 . S
O804 Fe802 1.886 . S
O805 Fe802 1.715 1_455 S
O805 Fe807 1.886 . S
O806 Fe803 1.886 . S
O806 Fe807 1.715 . S
Fe807 O805 1.886 . S
Fe807 O806 1.715 . S
Fe807 O811 2.077 . S
Fe807 O816 1.935 . S
Fe807 O818 2.077 1_455 S
Fe807 O826 1.935 1_455 S
C808 O820 1.381 . S
C808 O821 1.421 . S
O809 Fe800 2.077 1_455 S
O809 C822 1.381 . S
O810 Fe803 1.935 . S
O810 C822 1.421 . S
O811 Fe807 2.077 . S
O811 C827 1.381 . S
O812 Fe802 1.935 1_455 S
O812 C827 1.421 . S
O813 Fe802 2.077 1_455 S
O813 C817 1.381 . S
O814 Fe800 1.935 1_455 S
O814 C817 1.421 . S
O815 Fe803 2.077 . S
O815 C823 1.381 . S
O816 Fe807 1.935 . S
O816 C823 1.421 . S
C817 O813 1.381 . S
C817 O814 1.421 . S
O818 Fe807 2.077 1_655 S
O818 C830 1.381 . S
O819 Fe802 1.935 . S
O819 C830 1.421 . S
O820 Fe800 2.077 . S
O820 C808 1.381 . S
O821 Fe803 1.935 1_655 S
O821 C808 1.421 . S
C822 O809 1.381 . S
C822 O810 1.421 . S
C823 O815 1.381 . S
C823 O816 1.421 . S
C824 O825 1.381 . S
C824 O826 1.421 . S
O825 Fe803 2.077 1_655 S
O825 C824 1.381 . S
O826 Fe807 1.935 1_655 S
O826 C824 1.421 . S
C827 O811 1.381 . S
C827 O812 1.421 . S
O828 Fe802 2.077 . S
O828 C831 1.381 . S
O829 Fe800 1.935 . S
O829 C831 1.421 . S
C830 O818 1.381 . S
C830 O819 1.421 . S
C831 O828 1.381 . S
C831 O829 1.421 . S
Fe832 O833 1.886 . S
Fe832 O836 1.715 . S
Fe832 O841 2.077 . S
Fe832 O846 1.935 . S
Fe832 O852 2.077 . S
Fe832 O861 1.935 . S
O833 Fe832 1.886 . S
O833 Fe835 1.715 . S
Fe834 O836 1.886 1_545 S
Fe834 O837 1.715 . S
Fe834 O844 1.935 . S
Fe834 O845 2.077 1_545 S
Fe834 O851 1.935 . S
Fe834 O860 2.077 1_545 S
Fe835 O833 1.715 . S
Fe835 O838 1.886 1_565 S
Fe835 O842 1.935 . S
Fe835 O847 2.077 1_565 S
Fe835 O853 1.935 . S
Fe835 O857 2.077 1_565 S
O836 Fe832 1.715 . S
O836 Fe834 1.886 1_565 S
O837 Fe834 1.715 . S
O837 Fe839 1.886 . S
O838 Fe835 1.886 1_545 S
O838 Fe839 1.715 . S
Fe839 O837 1.886 . S
Fe839 O838 1.715 . S
Fe839 O843 2.077 . S
Fe839 O848 1.935 . S
Fe839 O850 2.077 . S
Fe839 O858 1.935 . S
C840 O852 1.381 . S
C840 O853 1.421 . S
O841 Fe832 2.077 . S
O841 C854 1.381 . S
O842 Fe835 1.935 . S
O842 C854 1.421 . S
O843 Fe839 2.077 . S
O843 C859 1.381 . S
O844 Fe834 1.935 . S
O844 C859 1.421 . S
O845 Fe834 2.077 1_565 S
O845 C849 1.381 . S
O846 Fe832 1.935 . S
O846 C849 1.421 . S
O847 Fe835 2.077 1_545 S
O847 C855 1.381 . S
O848 Fe839 1.935 . S
O848 C855 1.421 . S
C849 O845 1.381 . S
C849 O846 1.421 . S
O850 Fe839 2.077 . S
O850 C862 1.381 . S
O851 Fe834 1.935 . S
O851 C862 1.421 . S
O852 Fe832 2.077 . S
O852 C840 1.381 . S
O853 Fe835 1.935 . S
O853 C840 1.421 . S
C854 O841 1.381 . S
C854 O842 1.421 . S
C855 O847 1.381 . S
C855 O848 1.421 . S
C856 O857 1.381 . S
C856 O858 1.421 . S
O857 Fe835 2.077 1_545 S
O857 C856 1.381 . S
O858 Fe839 1.935 . S
O858 C856 1.421 . S
C859 O843 1.381 . S
C859 O844 1.421 . S
O860 Fe834 2.077 1_565 S
O860 C863 1.381 . S
O861 Fe832 1.935 . S
O861 C863 1.421 . S
C862 O850 1.381 . S
C862 O851 1.421 . S
C863 O860 1.381 . S
C863 O861 1.421 . S
C864 C865 1.387 . S
C864 H868 0.950 . S
C864 C873 1.390 . S
C865 C864 1.387 . S
C865 C867 1.387 . S
H866 C873 0.950 . S
C867 C865 1.387 . S
C867 C869 1.390 . S
C867 H871 0.950 . S
H868 C864 0.950 . S
C869 C867 1.390 . S
C869 C870 1.387 . S
C869 H872 0.950 . S
C870 C869 1.387 . S
C870 C873 1.387 . S
H871 C867 0.950 . S
H872 C869 0.950 . S
C873 C864 1.390 . S
C873 H866 0.950 . S
C873 C870 1.387 . S
C874 C875 1.387 . S
C874 H878 0.950 . S
C874 C883 1.390 . S
C875 C874 1.387 . S
C875 C877 1.387 . S
H876 C883 0.950 . S
C877 C875 1.387 . S
C877 C879 1.390 . S
C877 H881 0.950 . S
H878 C874 0.950 . S
C879 C877 1.390 . S
C879 C880 1.387 . S
C879 H882 0.950 . S
C880 C879 1.387 . S
C880 C883 1.387 . S
H881 C877 0.950 . S
H882 C879 0.950 . S
C883 C874 1.390 . S
C883 H876 0.950 . S
C883 C880 1.387 . S
C884 C885 1.387 . S
C884 H888 0.950 . S
C884 C893 1.390 . S
C885 C884 1.387 . S
C885 C887 1.387 . S
H886 C893 0.950 . S
C887 C885 1.387 . S
C887 C889 1.390 . S
C887 H891 0.950 . S
H888 C884 0.950 . S
C889 C887 1.390 . S
C889 C890 1.387 . S
C889 H892 0.950 . S
C890 C889 1.387 . S
C890 C893 1.387 . S
H891 C887 0.950 . S
H892 C889 0.950 . S
C893 C884 1.390 . S
C893 H886 0.950 . S
C893 C890 1.387 . S
C894 C895 1.387 . S
C894 H898 0.950 . S
C894 C903 1.390 . S
C895 C894 1.387 . S
C895 C897 1.387 . S
H896 C903 0.950 . S
C897 C895 1.387 . S
C897 C899 1.390 . S
C897 H901 0.950 . S
H898 C894 0.950 . S
C899 C897 1.390 . S
C899 C900 1.387 . S
C899 H902 0.950 . S
C900 C899 1.387 . S
C900 C903 1.387 . S
H901 C897 0.950 . S
H902 C899 0.950 . S
C903 C894 1.390 . S
C903 H896 0.950 . S
C903 C900 1.387 . S
C904 C905 1.387 . S
C904 H908 0.950 . S
C904 C913 1.390 . S
C905 C904 1.387 . S
C905 C907 1.387 . S
H906 C913 0.950 . S
C907 C905 1.387 . S
C907 C909 1.390 . S
C907 H911 0.950 . S
H908 C904 0.950 . S
C909 C907 1.390 . S
C909 C910 1.387 . S
C909 H912 0.950 . S
C910 C909 1.387 . S
C910 C913 1.387 . S
H911 C907 0.950 . S
H912 C909 0.950 . S
C913 C904 1.390 . S
C913 H906 0.950 . S
C913 C910 1.387 . S
C914 C915 1.387 . S
C914 H918 0.950 . S
C914 C923 1.390 . S
C915 C914 1.387 . S
C915 C917 1.387 . S
H916 C923 0.950 . S
C917 C915 1.387 . S
C917 C919 1.390 . S
C917 H921 0.950 . S
H918 C914 0.950 . S
C919 C917 1.390 . S
C919 C920 1.387 . S
C919 H922 0.950 . S
C920 C919 1.387 . S
C920 C923 1.387 . S
H921 C917 0.950 . S
H922 C919 0.950 . S
C923 C914 1.390 . S
C923 H916 0.950 . S
C923 C920 1.387 . S
C924 C925 1.387 . S
C924 H928 0.950 . S
C924 C933 1.390 . S
C925 C924 1.387 . S
C925 C927 1.387 . S
H926 C933 0.950 . S
C927 C925 1.387 . S
C927 C929 1.390 . S
C927 H931 0.950 . S
H928 C924 0.950 . S
C929 C927 1.390 . S
C929 C930 1.387 . S
C929 H932 0.950 . S
C930 C929 1.387 . S
C930 C933 1.387 . S
H931 C927 0.950 . S
H932 C929 0.950 . S
C933 C924 1.390 . S
C933 H926 0.950 . S
C933 C930 1.387 . S
C934 C935 1.387 . S
C934 H938 0.950 . S
C934 C943 1.390 . S
C935 C934 1.387 . S
C935 C937 1.387 . S
H936 C943 0.950 . S
C937 C935 1.387 . S
C937 C939 1.390 . S
C937 H941 0.950 . S
H938 C934 0.950 . S
C939 C937 1.390 . S
C939 C940 1.387 . S
C939 H942 0.950 . S
C940 C939 1.387 . S
C940 C943 1.387 . S
H941 C937 0.950 . S
H942 C939 0.950 . S
C943 C934 1.390 . S
C943 H936 0.950 . S
C943 C940 1.387 . S
C944 C945 1.387 . S
C944 H948 0.950 . S
C944 C953 1.390 . S
C945 C944 1.387 . S
C945 C947 1.387 . S
H946 C953 0.950 . S
C947 C945 1.387 . S
C947 C949 1.390 . S
C947 H951 0.950 . S
H948 C944 0.950 . S
C949 C947 1.390 . S
C949 C950 1.387 . S
C949 H952 0.950 . S
C950 C949 1.387 . S
C950 C953 1.387 . S
H951 C947 0.950 . S
H952 C949 0.950 . S
C953 C944 1.390 . S
C953 H946 0.950 . S
C953 C950 1.387 . S
C954 C955 1.387 . S
C954 H958 0.950 . S
C954 C963 1.390 . S
C955 C954 1.387 . S
C955 C957 1.387 . S
H956 C963 0.950 . S
C957 C955 1.387 . S
C957 C959 1.390 . S
C957 H961 0.950 . S
H958 C954 0.950 . S
C959 C957 1.390 . S
C959 C960 1.387 . S
C959 H962 0.950 . S
C960 C959 1.387 . S
C960 C963 1.387 . S
H961 C957 0.950 . S
H962 C959 0.950 . S
C963 C954 1.390 . S
C963 H956 0.950 . S
C963 C960 1.387 . S
C964 C965 1.387 . S
C964 H968 0.950 . S
C964 C973 1.390 . S
C965 C964 1.387 . S
C965 C967 1.387 . S
H966 C973 0.950 . S
C967 C965 1.387 . S
C967 C969 1.390 . S
C967 H971 0.950 . S
H968 C964 0.950 . S
C969 C967 1.390 . S
C969 C970 1.387 . S
C969 H972 0.950 . S
C970 C969 1.387 . S
C970 C973 1.387 . S
H971 C967 0.950 . S
H972 C969 0.950 . S
C973 C964 1.390 . S
C973 H966 0.950 . S
C973 C970 1.387 . S
C974 C975 1.387 . S
C974 H978 0.950 . S
C974 C983 1.390 . S
C975 C974 1.387 . S
C975 C977 1.387 . S
H976 C983 0.950 . S
C977 C975 1.387 . S
C977 C979 1.390 . S
C977 H981 0.950 . S
H978 C974 0.950 . S
C979 C977 1.390 . S
C979 C980 1.387 . S
C979 H982 0.950 . S
C980 C979 1.387 . S
C980 C983 1.387 . S
H981 C977 0.950 . S
H982 C979 0.950 . S
C983 C974 1.390 . S
C983 H976 0.950 . S
C983 C980 1.387 . S
C984 C985 1.387 . S
C984 H988 0.950 . S
C984 C993 1.390 . S
C985 C984 1.387 . S
C985 C987 1.387 . S
H986 C993 0.950 . S
C987 C985 1.387 . S
C987 C989 1.390 . S
C987 H991 0.950 . S
H988 C984 0.950 . S
C989 C987 1.390 . S
C989 C990 1.387 . S
C989 H992 0.950 . S
C990 C989 1.387 . S
C990 C993 1.387 . S
H991 C987 0.950 . S
H992 C989 0.950 . S
C993 C984 1.390 . S
C993 H986 0.950 . S
C993 C990 1.387 . S
C994 C995 1.387 . S
C994 H998 0.950 . S
C994 C1003 1.390 . S
C995 C994 1.387 . S
C995 C997 1.387 . S
H996 C1003 0.950 . S
C997 C995 1.387 . S
C997 C999 1.390 . S
C997 H1001 0.950 . S
H998 C994 0.950 . S
C999 C997 1.390 . S
C999 C1000 1.387 . S
C999 H1002 0.950 . S
C1000 C999 1.387 . S
C1000 C1003 1.387 . S
H1001 C997 0.950 . S
H1002 C999 0.950 . S
C1003 C994 1.390 . S
C1003 H996 0.950 . S
C1003 C1000 1.387 . S
C1004 C1005 1.387 . S
C1004 H1008 0.950 . S
C1004 C1013 1.390 . S
C1005 C1004 1.387 . S
C1005 C1007 1.387 . S
H1006 C1013 0.950 . S
C1007 C1005 1.387 . S
C1007 C1009 1.390 . S
C1007 H1011 0.950 . S
H1008 C1004 0.950 . S
C1009 C1007 1.390 . S
C1009 C1010 1.387 . S
C1009 H1012 0.950 . S
C1010 C1009 1.387 . S
C1010 C1013 1.387 . S
H1011 C1007 0.950 . S
H1012 C1009 0.950 . S
C1013 C1004 1.390 . S
C1013 H1006 0.950 . S
C1013 C1010 1.387 . S
C1014 C1015 1.387 . S
C1014 H1018 0.950 . S
C1014 C1023 1.390 . S
C1015 C1014 1.387 . S
C1015 C1017 1.387 . S
H1016 C1023 0.950 . S
C1017 C1015 1.387 . S
C1017 C1019 1.390 . S
C1017 H1021 0.950 . S
H1018 C1014 0.950 . S
C1019 C1017 1.390 . S
C1019 C1020 1.387 . S
C1019 H1022 0.950 . S
C1020 C1019 1.387 . S
C1020 C1023 1.387 . S
H1021 C1017 0.950 . S
H1022 C1019 0.950 . S
C1023 C1014 1.390 . S
C1023 H1016 0.950 . S
C1023 C1020 1.387 . S
C1024 C1025 1.387 . S
C1024 H1028 0.950 . S
C1024 C1033 1.390 . S
C1025 C1024 1.387 . S
C1025 C1027 1.387 . S
H1026 C1033 0.950 . S
C1027 C1025 1.387 . S
C1027 C1029 1.390 . S
C1027 H1031 0.950 . S
H1028 C1024 0.950 . S
C1029 C1027 1.390 . S
C1029 C1030 1.387 . S
C1029 H1032 0.950 . S
C1030 C1029 1.387 . S
C1030 C1033 1.387 . S
H1031 C1027 0.950 . S
H1032 C1029 0.950 . S
C1033 C1024 1.390 . S
C1033 H1026 0.950 . S
C1033 C1030 1.387 . S
C1034 C1035 1.387 . S
C1034 H1038 0.950 . S
C1034 C1043 1.390 . S
C1035 C1034 1.387 . S
C1035 C1037 1.387 . S
H1036 C1043 0.950 . S
C1037 C1035 1.387 . S
C1037 C1039 1.390 . S
C1037 H1041 0.950 . S
H1038 C1034 0.950 . S
C1039 C1037 1.390 . S
C1039 C1040 1.387 . S
C1039 H1042 0.950 . S
C1040 C1039 1.387 . S
C1040 C1043 1.387 . S
H1041 C1037 0.950 . S
H1042 C1039 0.950 . S
C1043 C1034 1.390 . S
C1043 H1036 0.950 . S
C1043 C1040 1.387 . S
C1044 C1045 1.387 . S
C1044 H1048 0.950 . S
C1044 C1053 1.390 . S
C1045 C1044 1.387 . S
C1045 C1047 1.387 . S
H1046 C1053 0.950 . S
C1047 C1045 1.387 . S
C1047 C1049 1.390 . S
C1047 H1051 0.950 . S
H1048 C1044 0.950 . S
C1049 C1047 1.390 . S
C1049 C1050 1.387 . S
C1049 H1052 0.950 . S
C1050 C1049 1.387 . S
C1050 C1053 1.387 . S
H1051 C1047 0.950 . S
H1052 C1049 0.950 . S
C1053 C1044 1.390 . S
C1053 H1046 0.950 . S
C1053 C1050 1.387 . S
C1054 C1055 1.387 . S
C1054 H1058 0.950 . S
C1054 C1063 1.390 . S
C1055 C1054 1.387 . S
C1055 C1057 1.387 . S
H1056 C1063 0.950 . S
C1057 C1055 1.387 . S
C1057 C1059 1.390 . S
C1057 H1061 0.950 . S
H1058 C1054 0.950 . S
C1059 C1057 1.390 . S
C1059 C1060 1.387 . S
C1059 H1062 0.950 . S
C1060 C1059 1.387 . S
C1060 C1063 1.387 . S
H1061 C1057 0.950 . S
H1062 C1059 0.950 . S
C1063 C1054 1.390 . S
C1063 H1056 0.950 . S
C1063 C1060 1.387 . S
C1064 C1065 1.387 . S
C1064 H1068 0.950 . S
C1064 C1073 1.390 . S
C1065 C1064 1.387 . S
C1065 C1067 1.387 . S
H1066 C1073 0.950 . S
C1067 C1065 1.387 . S
C1067 C1069 1.390 . S
C1067 H1071 0.950 . S
H1068 C1064 0.950 . S
C1069 C1067 1.390 . S
C1069 C1070 1.387 . S
C1069 H1072 0.950 . S
C1070 C1069 1.387 . S
C1070 C1073 1.387 . S
H1071 C1067 0.950 . S
H1072 C1069 0.950 . S
C1073 C1064 1.390 . S
C1073 H1066 0.950 . S
C1073 C1070 1.387 . S
C1074 C1075 1.387 . S
C1074 H1078 0.950 . S
C1074 C1083 1.390 . S
C1075 C1074 1.387 . S
C1075 C1077 1.387 . S
H1076 C1083 0.950 . S
C1077 C1075 1.387 . S
C1077 C1079 1.390 . S
C1077 H1081 0.950 . S
H1078 C1074 0.950 . S
C1079 C1077 1.390 . S
C1079 C1080 1.387 . S
C1079 H1082 0.950 . S
C1080 C1079 1.387 . S
C1080 C1083 1.387 . S
H1081 C1077 0.950 . S
H1082 C1079 0.950 . S
C1083 C1074 1.390 . S
C1083 H1076 0.950 . S
C1083 C1080 1.387 . S
C1084 C1085 1.387 . S
C1084 H1088 0.950 . S
C1084 C1093 1.390 . S
C1085 C1084 1.387 . S
C1085 C1087 1.387 . S
H1086 C1093 0.950 . S
C1087 C1085 1.387 . S
C1087 C1089 1.390 . S
C1087 H1091 0.950 . S
H1088 C1084 0.950 . S
C1089 C1087 1.390 . S
C1089 C1090 1.387 . S
C1089 H1092 0.950 . S
C1090 C1089 1.387 . S
C1090 C1093 1.387 . S
H1091 C1087 0.950 . S
H1092 C1089 0.950 . S
C1093 C1084 1.390 . S
C1093 H1086 0.950 . S
C1093 C1090 1.387 . S
C1094 C1095 1.387 . S
C1094 H1098 0.950 . S
C1094 C1103 1.390 . S
C1095 C1094 1.387 . S
C1095 C1097 1.387 . S
H1096 C1103 0.950 . S
C1097 C1095 1.387 . S
C1097 C1099 1.390 . S
C1097 H1101 0.950 . S
H1098 C1094 0.950 . S
C1099 C1097 1.390 . S
C1099 C1100 1.387 . S
C1099 H1102 0.950 . S
C1100 C1099 1.387 . S
C1100 C1103 1.387 . S
H1101 C1097 0.950 . S
H1102 C1099 0.950 . S
C1103 C1094 1.390 . S
C1103 H1096 0.950 . S
C1103 C1100 1.387 . S
C1104 C1105 1.387 . S
C1104 H1108 0.950 . S
C1104 C1113 1.390 . S
C1105 C1104 1.387 . S
C1105 C1107 1.387 . S
H1106 C1113 0.950 . S
C1107 C1105 1.387 . S
C1107 C1109 1.390 . S
C1107 H1111 0.950 . S
H1108 C1104 0.950 . S
C1109 C1107 1.390 . S
C1109 C1110 1.387 . S
C1109 H1112 0.950 . S
C1110 C1109 1.387 . S
C1110 C1113 1.387 . S
H1111 C1107 0.950 . S
H1112 C1109 0.950 . S
C1113 C1104 1.390 . S
C1113 H1106 0.950 . S
C1113 C1110 1.387 . S
C1114 C1115 1.387 . S
C1114 H1118 0.950 . S
C1114 C1123 1.390 . S
C1115 C1114 1.387 . S
C1115 C1117 1.387 . S
H1116 C1123 0.950 . S
C1117 C1115 1.387 . S
C1117 C1119 1.390 . S
C1117 H1121 0.950 . S
H1118 C1114 0.950 . S
C1119 C1117 1.390 . S
C1119 C1120 1.387 . S
C1119 H1122 0.950 . S
C1120 C1119 1.387 . S
C1120 C1123 1.387 . S
H1121 C1117 0.950 . S
H1122 C1119 0.950 . S
C1123 C1114 1.390 . S
C1123 H1116 0.950 . S
C1123 C1120 1.387 . S
C1124 C1125 1.387 . S
C1124 H1128 0.950 . S
C1124 C1133 1.390 . S
C1125 C1124 1.387 . S
C1125 C1127 1.387 . S
H1126 C1133 0.950 . S
C1127 C1125 1.387 . S
C1127 C1129 1.390 . S
C1127 H1131 0.950 . S
H1128 C1124 0.950 . S
C1129 C1127 1.390 . S
C1129 C1130 1.387 . S
C1129 H1132 0.950 . S
C1130 C1129 1.387 . S
C1130 C1133 1.387 . S
H1131 C1127 0.950 . S
H1132 C1129 0.950 . S
C1133 C1124 1.390 . S
C1133 H1126 0.950 . S
C1133 C1130 1.387 . S
C1134 C1135 1.387 . S
C1134 H1138 0.950 . S
C1134 C1143 1.390 . S
C1135 C1134 1.387 . S
C1135 C1137 1.387 . S
H1136 C1143 0.950 . S
C1137 C1135 1.387 . S
C1137 C1139 1.390 . S
C1137 H1141 0.950 . S
H1138 C1134 0.950 . S
C1139 C1137 1.390 . S
C1139 C1140 1.387 . S
C1139 H1142 0.950 . S
C1140 C1139 1.387 . S
C1140 C1143 1.387 . S
H1141 C1137 0.950 . S
H1142 C1139 0.950 . S
C1143 C1134 1.390 . S
C1143 H1136 0.950 . S
C1143 C1140 1.387 . S
C1144 C1145 1.387 . S
C1144 H1148 0.950 . S
C1144 C1153 1.390 . S
C1145 C1144 1.387 . S
C1145 C1147 1.387 . S
H1146 C1153 0.950 . S
C1147 C1145 1.387 . S
C1147 C1149 1.390 . S
C1147 H1151 0.950 . S
H1148 C1144 0.950 . S
C1149 C1147 1.390 . S
C1149 C1150 1.387 . S
C1149 H1152 0.950 . S
C1150 C1149 1.387 . S
C1150 C1153 1.387 . S
H1151 C1147 0.950 . S
H1152 C1149 0.950 . S
C1153 C1144 1.390 . S
C1153 H1146 0.950 . S
C1153 C1150 1.387 . S
C1154 C1155 1.387 . S
C1154 H1158 0.950 . S
C1154 C1163 1.390 . S
C1155 C1154 1.387 . S
C1155 C1157 1.387 . S
H1156 C1163 0.950 . S
C1157 C1155 1.387 . S
C1157 C1159 1.390 . S
C1157 H1161 0.950 . S
H1158 C1154 0.950 . S
C1159 C1157 1.390 . S
C1159 C1160 1.387 . S
C1159 H1162 0.950 . S
C1160 C1159 1.387 . S
C1160 C1163 1.387 . S
H1161 C1157 0.950 . S
H1162 C1159 0.950 . S
C1163 C1154 1.390 . S
C1163 H1156 0.950 . S
C1163 C1160 1.387 . S
C1164 C1165 1.387 . S
C1164 H1168 0.950 . S
C1164 C1173 1.390 . S
C1165 C1164 1.387 . S
C1165 C1167 1.387 . S
H1166 C1173 0.950 . S
C1167 C1165 1.387 . S
C1167 C1169 1.390 . S
C1167 H1171 0.950 . S
H1168 C1164 0.950 . S
C1169 C1167 1.390 . S
C1169 C1170 1.387 . S
C1169 H1172 0.950 . S
C1170 C1169 1.387 . S
C1170 C1173 1.387 . S
H1171 C1167 0.950 . S
H1172 C1169 0.950 . S
C1173 C1164 1.390 . S
C1173 H1166 0.950 . S
C1173 C1170 1.387 . S
C1174 C1175 1.387 . S
C1174 H1178 0.950 . S
C1174 C1183 1.390 . S
C1175 C1174 1.387 . S
C1175 C1177 1.387 . S
H1176 C1183 0.950 . S
C1177 C1175 1.387 . S
C1177 C1179 1.390 . S
C1177 H1181 0.950 . S
H1178 C1174 0.950 . S
C1179 C1177 1.390 . S
C1179 C1180 1.387 . S
C1179 H1182 0.950 . S
C1180 C1179 1.387 . S
C1180 C1183 1.387 . S
H1181 C1177 0.950 . S
H1182 C1179 0.950 . S
C1183 C1174 1.390 . S
C1183 H1176 0.950 . S
C1183 C1180 1.387 . S
C1184 C1185 1.387 . S
C1184 H1188 0.950 . S
C1184 C1193 1.390 . S
C1185 C1184 1.387 . S
C1185 C1187 1.387 . S
H1186 C1193 0.950 . S
C1187 C1185 1.387 . S
C1187 C1189 1.390 . S
C1187 H1191 0.950 . S
H1188 C1184 0.950 . S
C1189 C1187 1.390 . S
C1189 C1190 1.387 . S
C1189 H1192 0.950 . S
C1190 C1189 1.387 . S
C1190 C1193 1.387 . S
H1191 C1187 0.950 . S
H1192 C1189 0.950 . S
C1193 C1184 1.390 . S
C1193 H1186 0.950 . S
C1193 C1190 1.387 . S
C1194 C1195 1.387 . S
C1194 H1198 0.950 . S
C1194 C1203 1.390 . S
C1195 C1194 1.387 . S
C1195 C1197 1.387 . S
H1196 C1203 0.950 . S
C1197 C1195 1.387 . S
C1197 C1199 1.390 . S
C1197 H1201 0.950 . S
H1198 C1194 0.950 . S
C1199 C1197 1.390 . S
C1199 C1200 1.387 . S
C1199 H1202 0.950 . S
C1200 C1199 1.387 . S
C1200 C1203 1.387 . S
H1201 C1197 0.950 . S
H1202 C1199 0.950 . S
C1203 C1194 1.390 . S
C1203 H1196 0.950 . S
C1203 C1200 1.387 . S
C1204 C1205 1.387 . S
C1204 H1208 0.950 . S
C1204 C1213 1.390 . S
C1205 C1204 1.387 . S
C1205 C1207 1.387 . S
H1206 C1213 0.950 . S
C1207 C1205 1.387 . S
C1207 C1209 1.390 . S
C1207 H1211 0.950 . S
H1208 C1204 0.950 . S
C1209 C1207 1.390 . S
C1209 C1210 1.387 . S
C1209 H1212 0.950 . S
C1210 C1209 1.387 . S
C1210 C1213 1.387 . S
H1211 C1207 0.950 . S
H1212 C1209 0.950 . S
C1213 C1204 1.390 . S
C1213 H1206 0.950 . S
C1213 C1210 1.387 . S
C1214 C1215 1.387 . S
C1214 H1218 0.950 . S
C1214 C1223 1.390 . S
C1215 C1214 1.387 . S
C1215 C1217 1.387 . S
H1216 C1223 0.950 . S
C1217 C1215 1.387 . S
C1217 C1219 1.390 . S
C1217 H1221 0.950 . S
H1218 C1214 0.950 . S
C1219 C1217 1.390 . S
C1219 C1220 1.387 . S
C1219 H1222 0.950 . S
C1220 C1219 1.387 . S
C1220 C1223 1.387 . S
H1221 C1217 0.950 . S
H1222 C1219 0.950 . S
C1223 C1214 1.390 . S
C1223 H1216 0.950 . S
C1223 C1220 1.387 . S
C1224 C1225 1.387 . S
C1224 H1228 0.950 . S
C1224 C1233 1.390 . S
C1225 C1224 1.387 . S
C1225 C1227 1.387 . S
H1226 C1233 0.950 . S
C1227 C1225 1.387 . S
C1227 C1229 1.390 . S
C1227 H1231 0.950 . S
H1228 C1224 0.950 . S
C1229 C1227 1.390 . S
C1229 C1230 1.387 . S
C1229 H1232 0.950 . S
C1230 C1229 1.387 . S
C1230 C1233 1.387 . S
H1231 C1227 0.950 . S
H1232 C1229 0.950 . S
C1233 C1224 1.390 . S
C1233 H1226 0.950 . S
C1233 C1230 1.387 . S
C1234 C1235 1.387 . S
C1234 H1238 0.950 . S
C1234 C1243 1.390 . S
C1235 C1234 1.387 . S
C1235 C1237 1.387 . S
H1236 C1243 0.950 . S
C1237 C1235 1.387 . S
C1237 C1239 1.390 . S
C1237 H1241 0.950 . S
H1238 C1234 0.950 . S
C1239 C1237 1.390 . S
C1239 C1240 1.387 . S
C1239 H1242 0.950 . S
C1240 C1239 1.387 . S
C1240 C1243 1.387 . S
H1241 C1237 0.950 . S
H1242 C1239 0.950 . S
C1243 C1234 1.390 . S
C1243 H1236 0.950 . S
C1243 C1240 1.387 . S
C1244 C1245 1.387 . S
C1244 H1248 0.950 . S
C1244 C1253 1.390 . S
C1245 C1244 1.387 . S
C1245 C1247 1.387 . S
H1246 C1253 0.950 . S
C1247 C1245 1.387 . S
C1247 C1249 1.390 . S
C1247 H1251 0.950 . S
H1248 C1244 0.950 . S
C1249 C1247 1.390 . S
C1249 C1250 1.387 . S
C1249 H1252 0.950 . S
C1250 C1249 1.387 . S
C1250 C1253 1.387 . S
H1251 C1247 0.950 . S
H1252 C1249 0.950 . S
C1253 C1244 1.390 . S
C1253 H1246 0.950 . S
C1253 C1250 1.387 . S
C1254 C1255 1.387 . S
C1254 H1258 0.950 . S
C1254 C1263 1.390 . S
C1255 C1254 1.387 . S
C1255 C1257 1.387 . S
H1256 C1263 0.950 . S
C1257 C1255 1.387 . S
C1257 C1259 1.390 . S
C1257 H1261 0.950 . S
H1258 C1254 0.950 . S
C1259 C1257 1.390 . S
C1259 C1260 1.387 . S
C1259 H1262 0.950 . S
C1260 C1259 1.387 . S
C1260 C1263 1.387 . S
H1261 C1257 0.950 . S
H1262 C1259 0.950 . S
C1263 C1254 1.390 . S
C1263 H1256 0.950 . S
C1263 C1260 1.387 . S
C1264 C1265 1.387 . S
C1264 H1268 0.950 . S
C1264 C1273 1.390 . S
C1265 C1264 1.387 . S
C1265 C1267 1.387 . S
H1266 C1273 0.950 . S
C1267 C1265 1.387 . S
C1267 C1269 1.390 . S
C1267 H1271 0.950 . S
H1268 C1264 0.950 . S
C1269 C1267 1.390 . S
C1269 C1270 1.387 . S
C1269 H1272 0.950 . S
C1270 C1269 1.387 . S
C1270 C1273 1.387 . S
H1271 C1267 0.950 . S
H1272 C1269 0.950 . S
C1273 C1264 1.390 . S
C1273 H1266 0.950 . S
C1273 C1270 1.387 . S
C1274 C1275 1.387 . S
C1274 H1278 0.950 . S
C1274 C1283 1.390 . S
C1275 C1274 1.387 . S
C1275 C1277 1.387 . S
H1276 C1283 0.950 . S
C1277 C1275 1.387 . S
C1277 C1279 1.390 . S
C1277 H1281 0.950 . S
H1278 C1274 0.950 . S
C1279 C1277 1.390 . S
C1279 C1280 1.387 . S
C1279 H1282 0.950 . S
C1280 C1279 1.387 . S
C1280 C1283 1.387 . S
H1281 C1277 0.950 . S
H1282 C1279 0.950 . S
C1283 C1274 1.390 . S
C1283 H1276 0.950 . S
C1283 C1280 1.387 . S
C1284 C1285 1.387 . S
C1284 H1288 0.950 . S
C1284 C1293 1.390 . S
C1285 C1284 1.387 . S
C1285 C1287 1.387 . S
H1286 C1293 0.950 . S
C1287 C1285 1.387 . S
C1287 C1289 1.390 . S
C1287 H1291 0.950 . S
H1288 C1284 0.950 . S
C1289 C1287 1.390 . S
C1289 C1290 1.387 . S
C1289 H1292 0.950 . S
C1290 C1289 1.387 . S
C1290 C1293 1.387 . S
H1291 C1287 0.950 . S
H1292 C1289 0.950 . S
C1293 C1284 1.390 . S
C1293 H1286 0.950 . S
C1293 C1290 1.387 . S
C1294 C1295 1.387 . S
C1294 H1298 0.950 . S
C1294 C1303 1.390 . S
C1295 C1294 1.387 . S
C1295 C1297 1.387 . S
H1296 C1303 0.950 . S
C1297 C1295 1.387 . S
C1297 C1299 1.390 . S
C1297 H1301 0.950 . S
H1298 C1294 0.950 . S
C1299 C1297 1.390 . S
C1299 C1300 1.387 . S
C1299 H1302 0.950 . S
C1300 C1299 1.387 . S
C1300 C1303 1.387 . S
H1301 C1297 0.950 . S
H1302 C1299 0.950 . S
C1303 C1294 1.390 . S
C1303 H1296 0.950 . S
C1303 C1300 1.387 . S
C1304 C1305 1.387 . S
C1304 H1308 0.950 . S
C1304 C1313 1.390 . S
C1305 C1304 1.387 . S
C1305 C1307 1.387 . S
H1306 C1313 0.950 . S
C1307 C1305 1.387 . S
C1307 C1309 1.390 . S
C1307 H1311 0.950 . S
H1308 C1304 0.950 . S
C1309 C1307 1.390 . S
C1309 C1310 1.387 . S
C1309 H1312 0.950 . S
C1310 C1309 1.387 . S
C1310 C1313 1.387 . S
H1311 C1307 0.950 . S
H1312 C1309 0.950 . S
C1313 C1304 1.390 . S
C1313 H1306 0.950 . S
C1313 C1310 1.387 . S
C1314 C1315 1.387 . S
C1314 H1318 0.950 . S
C1314 C1323 1.390 . S
C1315 C1314 1.387 . S
C1315 C1317 1.387 . S
H1316 C1323 0.950 . S
C1317 C1315 1.387 . S
C1317 C1319 1.390 . S
C1317 H1321 0.950 . S
H1318 C1314 0.950 . S
C1319 C1317 1.390 . S
C1319 C1320 1.387 . S
C1319 H1322 0.950 . S
C1320 C1319 1.387 . S
C1320 C1323 1.387 . S
H1321 C1317 0.950 . S
H1322 C1319 0.950 . S
C1323 C1314 1.390 . S
C1323 H1316 0.950 . S
C1323 C1320 1.387 . S
C1324 C1325 1.387 . S
C1324 H1328 0.950 . S
C1324 C1333 1.390 . S
C1325 C1324 1.387 . S
C1325 C1327 1.387 . S
H1326 C1333 0.950 . S
C1327 C1325 1.387 . S
C1327 C1329 1.390 . S
C1327 H1331 0.950 . S
H1328 C1324 0.950 . S
C1329 C1327 1.390 . S
C1329 C1330 1.387 . S
C1329 H1332 0.950 . S
C1330 C1329 1.387 . S
C1330 C1333 1.387 . S
H1331 C1327 0.950 . S
H1332 C1329 0.950 . S
C1333 C1324 1.390 . S
C1333 H1326 0.950 . S
C1333 C1330 1.387 . S
C1334 C1335 1.387 . S
C1334 H1338 0.950 . S
C1334 C1343 1.390 . S
C1335 C1334 1.387 . S
C1335 C1337 1.387 . S
H1336 C1343 0.950 . S
C1337 C1335 1.387 . S
C1337 C1339 1.390 . S
C1337 H1341 0.950 . S
H1338 C1334 0.950 . S
C1339 C1337 1.390 . S
C1339 C1340 1.387 . S
C1339 H1342 0.950 . S
C1340 C1339 1.387 . S
C1340 C1343 1.387 . S
H1341 C1337 0.950 . S
H1342 C1339 0.950 . S
C1343 C1334 1.390 . S
C1343 H1336 0.950 . S
C1343 C1340 1.387 . S
C870 C689 1.670 . S
C865 C74 1.517 . S
C880 C694 0.924 . S
C875 C142 1.080 . S
C890 C695 1.688 . S
C885 C231 1.536 . S
C895 C322 1.221 . S
C900 C699 1.301 . S
C905 C406 1.080 . S
C910 C702 0.921 . S
C920 C703 1.688 . S
C915 C494 1.538 . S
C925 C562 1.219 . S
C930 C680 1.301 . S
C935 C651 1.521 . S
C940 C696 1.670 . S
C950 C734 1.297 . S
C945 C58 1.294 . S
C955 C151 1.610 . S
C960 C760 1.623 . S
C970 C712 2.469 . S
C965 C224 2.386 . S
C980 C767 1.516 . S
C975 C315 1.498 . S
C985 C399 1.499 . S
C990 C721 1.528 . S
C1000 C763 1.307 . S
C995 C478 1.287 . S
C1005 C571 1.540 . S
C1010 C727 1.618 . S
C1015 C644 2.376 . S
C1020 C758 2.472 . S
C1025 C67 2.376 . S
C1030 C766 2.471 . S
C1035 C392 1.611 . S
C1040 C753 1.622 . S
C1050 C731 2.466 . S
C1045 C487 2.384 . S
C1060 C759 1.515 . S
C1055 C578 1.496 . S
C1065 C658 1.293 . S
C1070 C726 1.301 . S
C1075 C238 1.288 . S
C1080 C744 1.307 . S
C1090 C735 1.618 . S
C1085 C308 1.539 . S
C1095 C158 1.500 . S
C1100 C728 1.529 . S
C1105 C662 1.494 . S
C1110 C790 1.544 . S
C1115 C394 1.076 . S
C1120 C785 0.579 . S
C1130 C799 1.524 . S
C1125 C483 1.511 . S
C1140 C776 1.272 . S
C1135 C574 1.203 . S
C1145 C154 1.077 . S
C1150 C792 0.573 . S
C1160 C791 1.523 . S
C1155 C242 1.509 . S
C1165 C310 1.203 . S
C1170 C795 1.272 . S
C1175 C63 1.499 . S
C1180 C798 1.544 . S
C1185 C646 1.299 . S
C1190 C824 1.361 . S
C1200 C840 1.618 . S
C1195 C403 1.621 . S
C1205 C476 2.392 . S
C1210 C822 2.555 . S
C1215 C567 1.492 . S
C1220 C855 1.459 . S
C1230 C831 1.448 . S
C1225 C147 1.475 . S
C1235 C226 1.306 . S
C1240 C849 1.294 . S
C1250 C827 1.581 . S
C1245 C319 1.520 . S
C1260 C862 2.508 . S
C1255 C56 2.400 . S
C1270 C854 2.510 . S
C1265 C655 2.403 . S
C1275 C140 1.621 . S
C1280 C859 1.618 . S
C1285 C235 2.392 . S
C1290 C830 2.555 . S
C1300 C863 1.456 . S
C1295 C326 1.493 . S
C1305 C70 1.299 . S
C1310 C817 1.361 . S
C1315 C490 1.304 . S
C1320 C856 1.295 . S
C1330 C808 1.581 . S
C1325 C560 1.520 . S
C1340 C823 1.452 . S
C1335 C410 1.476 . S
