# Generated by pormake.
# Topology myd, (4,6)-cn, num edge types: 1
# Building blocks:
#     Node 0, Type 0, BuildingBlock: KOZSID_clean_sbu_0, # of connection points: 4
#     Node 1, Type 0, BuildingBlock: KOZSID_clean_sbu_0, # of connection points: 4
#     Node 2, Type 0, BuildingBlock: KOZSID_clean_sbu_0, # of connection points: 4
#     Node 3, Type 0, BuildingBlock: KOZSID_clean_sbu_0, # of connection points: 4
#     Node 4, Type 0, BuildingBlock: KOZSID_clean_sbu_0, # of connection points: 4
#     Node 5, Type 0, BuildingBlock: KOZSID_clean_sbu_0, # of connection points: 4
#     Node 6, Type 0, BuildingBlock: KOZSID_clean_sbu_0, # of connection points: 4
#     Node 7, Type 0, BuildingBlock: KOZSID_clean_sbu_0, # of connection points: 4
#     Node 8, Type 0, BuildingBlock: KOZSID_clean_sbu_0, # of connection points: 4
#     Node 9, Type 0, BuildingBlock: KOZSID_clean_sbu_0, # of connection points: 4
#     Node 10, Type 0, BuildingBlock: KOZSID_clean_sbu_0, # of connection points: 4
#     Node 11, Type 0, BuildingBlock: KOZSID_clean_sbu_0, # of connection points: 4
#     Node 12, Type 1, BuildingBlock: JUFBIX_clean_sbu_0, # of connection points: 6
#     Node 13, Type 1, BuildingBlock: JUFBIX_clean_sbu_0, # of connection points: 6
#     Node 14, Type 1, BuildingBlock: JUFBIX_clean_sbu_0, # of connection points: 6
#     Node 15, Type 1, BuildingBlock: JUFBIX_clean_sbu_0, # of connection points: 6
#     Node 16, Type 1, BuildingBlock: JUFBIX_clean_sbu_0, # of connection points: 6
#     Node 17, Type 1, BuildingBlock: JUFBIX_clean_sbu_0, # of connection points: 6
#     Node 18, Type 1, BuildingBlock: JUFBIX_clean_sbu_0, # of connection points: 6
#     Node 19, Type 1, BuildingBlock: JUFBIX_clean_sbu_0, # of connection points: 6
#     Edge 20, Type (0, 1), BuildingBlock: XUDNAN_clean_linker_2, # of connection points: 2
#     Edge 21, Type (0, 1), BuildingBlock: XUDNAN_clean_linker_2, # of connection points: 2
#     Edge 22, Type (0, 1), BuildingBlock: XUDNAN_clean_linker_2, # of connection points: 2
#     Edge 23, Type (0, 1), BuildingBlock: XUDNAN_clean_linker_2, # of connection points: 2
#     Edge 24, Type (0, 1), BuildingBlock: XUDNAN_clean_linker_2, # of connection points: 2
#     Edge 25, Type (0, 1), BuildingBlock: XUDNAN_clean_linker_2, # of connection points: 2
#     Edge 26, Type (0, 1), BuildingBlock: XUDNAN_clean_linker_2, # of connection points: 2
#     Edge 27, Type (0, 1), BuildingBlock: XUDNAN_clean_linker_2, # of connection points: 2
#     Edge 28, Type (0, 1), BuildingBlock: XUDNAN_clean_linker_2, # of connection points: 2
#     Edge 29, Type (0, 1), BuildingBlock: XUDNAN_clean_linker_2, # of connection points: 2
#     Edge 30, Type (0, 1), BuildingBlock: XUDNAN_clean_linker_2, # of connection points: 2
#     Edge 31, Type (0, 1), BuildingBlock: XUDNAN_clean_linker_2, # of connection points: 2
#     Edge 32, Type (0, 1), BuildingBlock: XUDNAN_clean_linker_2, # of connection points: 2
#     Edge 33, Type (0, 1), BuildingBlock: XUDNAN_clean_linker_2, # of connection points: 2
#     Edge 34, Type (0, 1), BuildingBlock: XUDNAN_clean_linker_2, # of connection points: 2
#     Edge 35, Type (0, 1), BuildingBlock: XUDNAN_clean_linker_2, # of connection points: 2
#     Edge 36, Type (0, 1), BuildingBlock: XUDNAN_clean_linker_2, # of connection points: 2
#     Edge 37, Type (0, 1), BuildingBlock: XUDNAN_clean_linker_2, # of connection points: 2
#     Edge 38, Type (0, 1), BuildingBlock: XUDNAN_clean_linker_2, # of connection points: 2
#     Edge 39, Type (0, 1), BuildingBlock: XUDNAN_clean_linker_2, # of connection points: 2
#     Edge 40, Type (0, 1), BuildingBlock: XUDNAN_clean_linker_2, # of connection points: 2
#     Edge 41, Type (0, 1), BuildingBlock: XUDNAN_clean_linker_2, # of connection points: 2
#     Edge 42, Type (0, 1), BuildingBlock: XUDNAN_clean_linker_2, # of connection points: 2
#     Edge 43, Type (0, 1), BuildingBlock: XUDNAN_clean_linker_2, # of connection points: 2
#     Edge 44, Type (0, 1), BuildingBlock: XUDNAN_clean_linker_2, # of connection points: 2
#     Edge 45, Type (0, 1), BuildingBlock: XUDNAN_clean_linker_2, # of connection points: 2
#     Edge 46, Type (0, 1), BuildingBlock: XUDNAN_clean_linker_2, # of connection points: 2
#     Edge 47, Type (0, 1), BuildingBlock: XUDNAN_clean_linker_2, # of connection points: 2
#     Edge 48, Type (0, 1), BuildingBlock: XUDNAN_clean_linker_2, # of connection points: 2
#     Edge 49, Type (0, 1), BuildingBlock: XUDNAN_clean_linker_2, # of connection points: 2
#     Edge 50, Type (0, 1), BuildingBlock: XUDNAN_clean_linker_2, # of connection points: 2
#     Edge 51, Type (0, 1), BuildingBlock: XUDNAN_clean_linker_2, # of connection points: 2
#     Edge 52, Type (0, 1), BuildingBlock: XUDNAN_clean_linker_2, # of connection points: 2
#     Edge 53, Type (0, 1), BuildingBlock: XUDNAN_clean_linker_2, # of connection points: 2
#     Edge 54, Type (0, 1), BuildingBlock: XUDNAN_clean_linker_2, # of connection points: 2
#     Edge 55, Type (0, 1), BuildingBlock: XUDNAN_clean_linker_2, # of connection points: 2
#     Edge 56, Type (0, 1), BuildingBlock: XUDNAN_clean_linker_2, # of connection points: 2
#     Edge 57, Type (0, 1), BuildingBlock: XUDNAN_clean_linker_2, # of connection points: 2
#     Edge 58, Type (0, 1), BuildingBlock: XUDNAN_clean_linker_2, # of connection points: 2
#     Edge 59, Type (0, 1), BuildingBlock: XUDNAN_clean_linker_2, # of connection points: 2
#     Edge 60, Type (0, 1), BuildingBlock: XUDNAN_clean_linker_2, # of connection points: 2
#     Edge 61, Type (0, 1), BuildingBlock: XUDNAN_clean_linker_2, # of connection points: 2
#     Edge 62, Type (0, 1), BuildingBlock: XUDNAN_clean_linker_2, # of connection points: 2
#     Edge 63, Type (0, 1), BuildingBlock: XUDNAN_clean_linker_2, # of connection points: 2
#     Edge 64, Type (0, 1), BuildingBlock: XUDNAN_clean_linker_2, # of connection points: 2
#     Edge 65, Type (0, 1), BuildingBlock: XUDNAN_clean_linker_2, # of connection points: 2
#     Edge 66, Type (0, 1), BuildingBlock: XUDNAN_clean_linker_2, # of connection points: 2
#     Edge 67, Type (0, 1), BuildingBlock: XUDNAN_clean_linker_2, # of connection points: 2
# Relax obj value: 0.225
# Max RMSD: 0.222
# Mean RMSD: 0.148
data_MOF--net-myd--node1-KOZSID_clean_sbu_0--node2-JUFBIX_clean_sbu_0--edge1-XUDNAN_clean_linker_2
_symmetry_space_group_name_H-M    P1
_symmetry_Int_Tables_number       1
_symmetry_cell_setting            triclinic
loop_
_symmetry_equiv_pos_as_xyz
'x, y, z'
_cell_length_a     49.452405
_cell_length_b     52.571032
_cell_length_c     51.811035
_cell_angle_alpha  92.021971
_cell_angle_beta   87.547623
_cell_angle_gamma 93.019513
loop_
_atom_site_label
_atom_site_type_symbol
_atom_site_fract_x
_atom_site_fract_y
_atom_site_fract_z
_atom_type_partial_charge
C0 C 0.99641 0.26024 0.35551 0.0
C1 C 0.97102 0.26228 0.36763 0.0
C2 C 0.95549 0.24116 0.35974 0.0
C3 C 0.97209 0.22744 0.34316 0.0
N4 N 0.99706 0.23865 0.3403 0.0
Co5 Co 0.02667 0.22646 0.31676 0.0
N6 N 1.00117 0.20551 0.29527 0.0
C7 C 0.97573 0.19782 0.30275 0.0
C8 C 0.96303 0.18276 0.28423 0.0
C9 C 0.98179 0.18064 0.26402 0.0
C10 C 1.00498 0.19461 0.27133 0.0
N11 N 0.05663 0.2145 0.29344 0.0
C12 C 0.05592 0.20283 0.26966 0.0
C13 C 0.08183 0.19726 0.26057 0.0
C14 C 0.09915 0.20535 0.27956 0.0
C15 C 0.08298 0.21547 0.29912 0.0
N16 N 0.05182 0.24763 0.33832 0.0
C17 C 0.07862 0.24498 0.33949 0.0
C18 C 0.09086 0.26342 0.3552 0.0
C19 C 0.07045 0.27859 0.36427 0.0
C20 C 0.04684 0.2686 0.3535 0.0
N21 N 0.03024 0.19677 0.33848 0.0
C22 C 0.0278 0.15226 0.36733 0.0
C23 C 0.03171 0.15109 0.34048 0.0
C24 C 0.03301 0.17333 0.32656 0.0
C25 C 0.02661 0.17638 0.37977 0.0
C26 C 0.02789 0.19848 0.36493 0.0
N27 N 0.02276 0.25542 0.29487 0.0
C28 C 0.04214 0.29059 0.27055 0.0
C29 C 0.01619 0.2979 0.26535 0.0
C30 C 0.99368 0.28334 0.27468 0.0
C31 C 0.99739 0.26203 0.2891 0.0
C32 C 0.045 0.26934 0.28557 0.0
H33 H 0.97965 0.2511 0.29593 0.0
H34 H 0.06513 0.26439 0.28997 0.0
H35 H 0.03509 0.17123 0.30588 0.0
H36 H 0.02598 0.21682 0.37473 0.0
C37 C 0.96351 0.208 0.32558 0.0
C38 C 0.0198 0.27854 0.35899 0.0
C39 C 0.03098 0.19485 0.25636 0.0
C40 C 0.09196 0.22919 0.32119 0.0
H41 H 0.96417 0.27757 0.38037 0.0
H42 H 0.93412 0.23726 0.3642 0.0
H43 H 0.94242 0.17472 0.28504 0.0
H44 H 0.97895 0.16965 0.2462 0.0
H45 H 0.08759 0.188 0.24233 0.0
H46 H 0.121 0.20456 0.27885 0.0
H47 H 0.11228 0.26647 0.35842 0.0
H48 H 0.0727 0.29523 0.37706 0.0
H49 H 0.03283 0.13288 0.33013 0.0
H50 H 0.02351 0.17807 0.40056 0.0
H51 H 0.05998 0.3016 0.2637 0.0
H52 H 0.97331 0.28846 0.27091 0.0
C53 C 0.99885 0.69033 0.13376 0.0
C54 C 0.97197 0.68496 0.12791 0.0
C55 C 0.95679 0.70002 0.14412 0.0
C56 C 0.97516 0.71362 0.15891 0.0
N57 N 1.00122 0.70837 0.15299 0.0
Co58 Co 0.03435 0.7234 0.17004 0.0
N59 N 1.01176 0.74306 0.19599 0.0
C60 C 0.98438 0.743 0.19797 0.0
C61 C 0.97457 0.75716 0.21863 0.0
C62 C 0.99701 0.76684 0.23065 0.0
C63 C 0.01935 0.75822 0.21635 0.0
N64 N 0.06757 0.73872 0.18666 0.0
C65 C 0.0699 0.75518 0.20723 0.0
C66 C 0.09685 0.76195 0.21182 0.0
C67 C 0.11209 0.74904 0.19372 0.0
C68 C 0.0937 0.73534 0.17905 0.0
N69 N 0.05686 0.7031 0.14447 0.0
C70 C 0.08423 0.70309 0.14233 0.0
C71 C 0.09382 0.68644 0.1236 0.0
C72 C 0.07124 0.67479 0.11336 0.0
C73 C 0.04913 0.68509 0.12654 0.0
N74 N 0.03569 0.75284 0.14648 0.0
C75 C 0.04061 0.80011 0.12152 0.0
C76 C 0.06226 0.78401 0.12132 0.0
C77 C 0.05933 0.76065 0.1336 0.0
C78 C 0.0159 0.79122 0.1329 0.0
C79 C 0.01384 0.76767 0.14489 0.0
N80 N 0.03319 0.69473 0.19428 0.0
C81 C 0.05726 0.66882 0.22239 0.0
C82 C 0.03339 0.66241 0.23672 0.0
C83 C 1.00906 0.67058 0.22786 0.0
C84 C 1.0094 0.68649 0.20664 0.0
C85 C 0.05667 0.68465 0.20129 0.0
H86 H 0.99032 0.69274 0.20123 0.0
H87 H 0.07563 0.68931 0.19153 0.0
H88 H 0.07678 0.74964 0.13302 0.0
H89 H 0.99448 0.76219 0.15327 0.0
C90 C 0.96841 0.72941 0.18013 0.0
C91 C 0.02124 0.67674 0.12163 0.0
C92 C 0.0473 0.76491 0.22287 0.0
C93 C 0.10035 0.71848 0.15865 0.0
H94 H 0.96404 0.67108 0.11389 0.0
H95 H 0.9349 0.70029 0.14564 0.0
H96 H 0.95361 0.75994 0.22439 0.0
H97 H 0.99682 0.77881 0.24807 0.0
H98 H 0.10472 0.77488 0.22674 0.0
H99 H 0.13398 0.74946 0.1916 0.0
H100 H 0.11473 0.68289 0.11832 0.0
H101 H 0.07101 0.66016 0.09812 0.0
H102 H 0.08182 0.78976 0.11259 0.0
H103 H 0.99819 0.80249 0.13282 0.0
H104 H 0.07653 0.66225 0.22788 0.0
H105 H 0.98996 0.6659 0.23803 0.0
C106 C 0.33944 0.9692 0.2617 0.0
C107 C 0.34516 0.94376 0.26261 0.0
C108 C 0.33766 0.93255 0.2394 0.0
C109 C 0.32786 0.95178 0.22565 0.0
N110 N 0.329 0.97427 0.23876 0.0
Co111 Co 0.31489 1.00655 0.22768 0.0
N112 N 0.2908 0.98854 0.2025 0.0
C113 C 0.29359 0.96449 0.19321 0.0
C114 C 0.27532 0.9573 0.1748 0.0
C115 C 0.26043 0.97823 0.17198 0.0
C116 C 0.2704 0.99718 0.18896 0.0
N117 N 0.30072 0.03912 0.21725 0.0
C118 C 0.27884 0.04355 0.20341 0.0
C119 C 0.27618 0.06958 0.20132 0.0
C120 C 0.29773 0.08167 0.21324 0.0
C121 C 0.31217 0.06251 0.22228 0.0
N122 N 0.3393 0.02417 0.25275 0.0
C123 C 0.34758 0.04892 0.25301 0.0
C124 C 0.36301 0.05577 0.27384 0.0
C125 C 0.36423 0.034 0.28757 0.0
C126 C 0.34948 0.015 0.27426 0.0
N127 N 0.34363 0.00941 0.20005 0.0
C128 C 0.38346 0.01208 0.15913 0.0
C129 C 0.38964 1.00403 0.18378 0.0
C130 C 0.36958 1.00298 0.20392 0.0
C131 C 0.35686 0.01904 0.15586 0.0
C132 C 0.33746 0.0174 0.17623 0.0
N133 N 0.28624 1.00354 0.2549 0.0
C134 C 0.26315 0.02076 0.29299 0.0
C135 C 0.24914 0.99725 0.29706 0.0
C136 C 0.25357 0.97721 0.27905 0.0
C137 C 0.27209 0.98075 0.25819 0.0
C138 C 0.28144 0.02354 0.27178 0.0
H139 H 0.27552 0.96475 0.24512 0.0
H140 H 0.29216 0.04174 0.26937 0.0
H141 H 0.37497 0.99674 0.22258 0.0
H142 H 0.31734 0.02262 0.17244 0.0
C143 C 0.31167 0.94852 0.20409 0.0
C144 C 0.34509 0.9885 0.28223 0.0
C145 C 0.26257 0.02389 0.189 0.0
C146 C 0.33454 0.06584 0.23804 0.0
H147 H 0.35347 0.93431 0.27849 0.0
H148 H 0.33766 0.91248 0.23398 0.0
H149 H 0.27297 0.93898 0.16472 0.0
H150 H 0.24466 0.97957 0.15833 0.0
H151 H 0.26073 0.0789 0.19153 0.0
H152 H 0.30206 0.10201 0.2154 0.0
H153 H 0.37062 0.07473 0.27955 0.0
H154 H 0.3741 0.03257 0.30565 0.0
H155 H 0.40973 0.99822 0.18753 0.0
H156 H 0.35086 0.02608 0.13769 0.0
H157 H 0.26006 0.03694 0.30611 0.0
H158 H 0.24344 0.95863 0.28144 0.0
C159 C 0.67633 0.45728 0.2625 0.0
C160 C 0.67058 0.43158 0.25708 0.0
C161 C 0.68572 0.41849 0.27304 0.0
C162 C 0.69994 0.43684 0.2871 0.0
N163 N 0.6943 0.46088 0.28155 0.0
Co164 Co 0.71276 0.49332 0.29487 0.0
N165 N 0.73962 0.47421 0.31353 0.0
C166 C 0.74 0.44863 0.31547 0.0
C167 C 0.76147 0.44099 0.32858 0.0
C168 C 0.77574 0.46296 0.33534 0.0
C169 C 0.76197 0.4829 0.3261 0.0
N170 N 0.7314 0.52582 0.30758 0.0
C171 C 0.75421 0.52967 0.32109 0.0
C172 C 0.75999 0.55543 0.32637 0.0
C173 C 0.74053 0.56832 0.31527 0.0
C174 C 0.72392 0.54981 0.30406 0.0
N175 N 0.68592 0.5124 0.27631 0.0
C176 C 0.68302 0.53784 0.27706 0.0
C177 C 0.66341 0.5453 0.26142 0.0
C178 C 0.65367 0.52335 0.24948 0.0
C179 C 0.6681 0.50378 0.2585 0.0
N180 N 0.68806 0.49316 0.32696 0.0
C181 C 0.65595 0.49351 0.3742 0.0
C182 C 0.66073 0.51551 0.35986 0.0
C183 C 0.67657 0.51492 0.33669 0.0
C184 C 0.66717 0.47122 0.36399 0.0
C185 C 0.68275 0.47144 0.34066 0.0
N186 N 0.73728 0.49341 0.26324 0.0
C187 C 0.75754 0.5145 0.22564 0.0
C188 C 0.77123 0.49271 0.21765 0.0
C189 C 0.76753 0.47135 0.23303 0.0
C190 C 0.75054 0.47203 0.25538 0.0
C191 C 0.74102 0.51453 0.24842 0.0
H192 H 0.74825 0.45495 0.26596 0.0
H193 H 0.73136 0.5318 0.25378 0.0
H194 H 0.67923 0.53246 0.32717 0.0
H195 H 0.69044 0.45371 0.33437 0.0
C196 C 0.72131 0.43223 0.30282 0.0
C197 C 0.66585 0.47771 0.24803 0.0
C198 C 0.77126 0.50968 0.32896 0.0
C199 C 0.70142 0.55438 0.28982 0.0
H200 H 0.65767 0.42309 0.24245 0.0
H201 H 0.68739 0.39805 0.27322 0.0
H202 H 0.76665 0.42169 0.33206 0.0
H203 H 0.79447 0.46401 0.34545 0.0
H204 H 0.77665 0.56406 0.33702 0.0
H205 H 0.73881 0.58876 0.31521 0.0
H206 H 0.65793 0.56452 0.25801 0.0
H207 H 0.63854 0.52198 0.23493 0.0
H208 H 0.65213 0.53328 0.3663 0.0
H209 H 0.6645 0.45356 0.37415 0.0
H210 H 0.75989 0.53164 0.21458 0.0
H211 H 0.77734 0.45389 0.22761 0.0
C212 C 0.32248 0.40213 0.99315 0.0
C213 C 0.32999 0.41416 0.97039 0.0
C214 C 0.31187 0.40514 0.95232 0.0
C215 C 0.29427 0.3882 0.96504 0.0
N216 N 0.30022 0.38635 0.98993 0.0
Co217 Co 0.28237 0.36274 0.01487 0.0
N218 N 0.26837 0.33974 0.98707 0.0
C219 C 0.26564 0.34607 0.96239 0.0
C220 C 0.25552 0.32598 0.94742 0.0
C221 C 0.25144 0.30602 0.96384 0.0
C222 C 0.25918 0.31509 0.98807 0.0
N223 N 0.26518 0.3393 0.04032 0.0
C224 C 0.25634 0.31468 0.03708 0.0
C225 C 0.24456 0.30559 0.06005 0.0
C226 C 0.24613 0.32537 0.07804 0.0
C227 C 0.25863 0.34542 0.06516 0.0
N228 N 0.29647 0.38613 0.0424 0.0
C229 C 0.28683 0.38762 0.06703 0.0
C230 C 0.30255 0.40395 0.08211 0.0
C231 C 0.32333 0.41305 0.06594 0.0
C232 C 0.31898 0.40201 0.04161 0.0
N233 N 0.24813 0.38092 0.01487 0.0
C234 C 0.19759 0.40394 0.01399 0.0
C235 C 0.22223 0.41876 0.01341 0.0
C236 C 0.24728 0.4069 0.01416 0.0
C237 C 0.19909 0.37753 0.01479 0.0
C238 C 0.22416 0.36654 0.01495 0.0
N239 N 0.31544 0.34361 0.01456 0.0
C240 C 0.34635 0.31929 0.03718 0.0
C241 C 0.35743 0.30958 0.0137 0.0
C242 C 0.34783 0.31818 0.99069 0.0
C243 C 0.32713 0.33539 0.99155 0.0
C244 C 0.32534 0.33615 0.0372 0.0
H245 H 0.31997 0.34139 0.97349 0.0
H246 H 0.31646 0.34249 0.05553 0.0
H247 H 0.2659 0.41863 0.01403 0.0
H248 H 0.22387 0.34609 0.01491 0.0
C249 C 0.27727 0.36928 0.95329 0.0
C250 C 0.33593 0.40664 0.01787 0.0
C251 C 0.25571 0.30068 0.012 0.0
C252 C 0.2684 0.36858 0.07645 0.0
H253 H 0.34701 0.42763 0.96713 0.0
H254 H 0.31271 0.4091 0.93194 0.0
H255 H 0.2525 0.32554 0.92684 0.0
H256 H 0.24358 0.28704 0.95855 0.0
H257 H 0.23525 0.28683 0.06336 0.0
H258 H 0.2396 0.32493 0.09823 0.0
H259 H 0.30057 0.40718 0.10284 0.0
H260 H 0.34004 0.4256 0.07192 0.0
H261 H 0.22215 0.43932 0.01275 0.0
H262 H 0.18086 0.36515 0.01473 0.0
H263 H 0.35318 0.3132 0.05545 0.0
H264 H 0.35617 0.31156 0.97214 0.0
C265 C 0.22972 0.6551 0.475 0.0
C266 C 0.23095 0.64325 0.45064 0.0
C267 C 0.25453 0.65231 0.43852 0.0
C268 C 0.26629 0.66926 0.45599 0.0
N269 N 0.25156 0.6715 0.47832 0.0
Co270 Co 0.26074 0.6946 0.50829 0.0
N271 N 0.28687 0.71579 0.48694 0.0
C272 C 0.2976 0.70885 0.46356 0.0
C273 C 0.31593 0.72679 0.45364 0.0
C274 C 0.31715 0.74608 0.47207 0.0
C275 C 0.29938 0.73882 0.49232 0.0
N276 N 0.26955 0.71745 0.53845 0.0
C277 C 0.28276 0.74068 0.5394 0.0
C278 C 0.2838 0.75021 0.56473 0.0
C279 C 0.27166 0.73191 0.58012 0.0
C280 C 0.26364 0.7124 0.56344 0.0
N281 N 0.23459 0.67316 0.5294 0.0
C282 C 0.23327 0.67235 0.55535 0.0
C283 C 0.21297 0.65583 0.56455 0.0
C284 C 0.20071 0.64561 0.54305 0.0
C285 C 0.21424 0.65656 0.52186 0.0
N286 N 0.29081 0.67294 0.5165 0.0
C287 C 0.33539 0.64314 0.52681 0.0
C288 C 0.31031 0.63182 0.51907 0.0
C289 C 0.28839 0.64692 0.5143 0.0
C290 C 0.33719 0.66985 0.5292 0.0
C291 C 0.31507 0.68418 0.52383 0.0
N292 N 0.23144 0.71683 0.50008 0.0
C293 C 0.19561 0.74465 0.51384 0.0
C294 C 0.19261 0.75191 0.48835 0.0
C295 C 0.20934 0.7409 0.46891 0.0
C296 C 0.22858 0.72367 0.47514 0.0
C297 C 0.21484 0.72694 0.51923 0.0
H298 H 0.24143 0.71614 0.45971 0.0
H299 H 0.21643 0.72164 0.53899 0.0
H300 H 0.26954 0.63751 0.50861 0.0
H301 H 0.31789 0.70455 0.52565 0.0
C302 C 0.28788 0.68672 0.45046 0.0
C303 C 0.2083 0.64961 0.49492 0.0
C304 C 0.29784 0.75259 0.51749 0.0
C305 C 0.24763 0.69074 0.57019 0.0
H306 H 0.21631 0.62965 0.44236 0.0
H307 H 0.26152 0.64801 0.41884 0.0
H308 H 0.3269 0.72607 0.43512 0.0
H309 H 0.33027 0.76318 0.47099 0.0
H310 H 0.29307 0.76821 0.57144 0.0
H311 H 0.2686 0.73295 0.60094 0.0
H312 H 0.20693 0.65252 0.58453 0.0
H313 H 0.18374 0.63174 0.54296 0.0
H314 H 0.30748 0.61138 0.51636 0.0
H315 H 0.35548 0.67992 0.53556 0.0
H316 H 0.18292 0.7523 0.52948 0.0
H317 H 0.20796 0.74593 0.44893 0.0
C318 C 0.80072 0.87107 0.47541 0.0
C319 C 0.81016 0.87415 0.45004 0.0
C320 C 0.79094 0.86286 0.43463 0.0
C321 C 0.771 0.85324 0.45129 0.0
N322 N 0.7759 0.85844 0.47647 0.0
Co323 Co 0.75509 0.84385 0.50724 0.0
N324 N 0.73211 0.82046 0.48489 0.0
C325 C 0.7325 0.81944 0.45877 0.0
C326 C 0.71413 0.80172 0.44876 0.0
C327 C 0.70111 0.79092 0.46975 0.0
C328 C 0.71225 0.8028 0.49147 0.0
N329 N 0.73519 0.82921 0.53825 0.0
C330 C 0.71518 0.81067 0.53986 0.0
C331 C 0.70642 0.80687 0.56535 0.0
C332 C 0.72153 0.8235 0.58034 0.0
C333 C 0.7385 0.83654 0.56327 0.0
N334 N 0.77818 0.8673 0.52938 0.0
C335 C 0.77535 0.87147 0.5552 0.0
C336 C 0.7951 0.88787 0.56507 0.0
C337 C 0.81207 0.89383 0.54443 0.0
C338 C 0.80175 0.88049 0.52316 0.0
N339 N 0.72657 0.8699 0.50593 0.0
C340 C 0.67589 0.89358 0.50486 0.0
C341 C 0.68911 0.89124 0.52801 0.0
C342 C 0.71425 0.87982 0.52807 0.0
C343 C 0.69007 0.88604 0.48208 0.0
C344 C 0.7152 0.87487 0.48305 0.0
N345 N 0.78225 0.81728 0.50842 0.0
C346 C 0.80958 0.79009 0.53239 0.0
C347 C 0.81792 0.77699 0.50964 0.0
C348 C 0.80856 0.78488 0.48632 0.0
C349 C 0.79076 0.80467 0.48616 0.0
C350 C 0.79216 0.81031 0.53132 0.0
H351 H 0.78378 0.8092 0.46777 0.0
H352 H 0.78664 0.81994 0.54919 0.0
H353 H 0.72288 0.87866 0.54641 0.0
H354 H 0.72447 0.8696 0.46492 0.0
C355 C 0.75075 0.835 0.44423 0.0
C356 C 0.81643 0.87875 0.49811 0.0
C357 C 0.70333 0.7967 0.51789 0.0
C358 C 0.7571 0.85633 0.57003 0.0
H359 H 0.82947 0.88235 0.44312 0.0
H360 H 0.79248 0.86006 0.41383 0.0
H361 H 0.71068 0.79715 0.42859 0.0
H362 H 0.68518 0.77602 0.46912 0.0
H363 H 0.69045 0.79371 0.57241 0.0
H364 H 0.72002 0.82607 0.60117 0.0
H365 H 0.79795 0.89334 0.58515 0.0
H366 H 0.83078 0.90545 0.54516 0.0
H367 H 0.68001 0.8979 0.54622 0.0
H368 H 0.68146 0.88768 0.4634 0.0
H369 H 0.81656 0.78485 0.55091 0.0
H370 H 0.81426 0.77524 0.46822 0.0
C371 C 0.49954 0.78236 0.8702 0.0
C372 C 0.4755 0.78788 0.88345 0.0
C373 C 0.45746 0.76765 0.87862 0.0
C374 C 0.47144 0.75093 0.86274 0.0
N375 N 0.49715 0.75937 0.85749 0.0
Co376 Co 0.52393 0.7421 0.83431 0.0
N377 N 0.49518 0.72131 0.81646 0.0
C378 C 0.46931 0.71768 0.82535 0.0
C379 C 0.45378 0.70273 0.80886 0.0
C380 C 0.47106 0.69618 0.78859 0.0
C381 C 0.49641 0.70729 0.79393 0.0
N382 N 0.5511 0.72487 0.81146 0.0
C383 C 0.54789 0.70982 0.78984 0.0
C384 C 0.57258 0.70058 0.78104 0.0
C385 C 0.59162 0.70994 0.79787 0.0
C386 C 0.57768 0.72431 0.81605 0.0
N387 N 0.55221 0.76346 0.85206 0.0
C388 C 0.57862 0.75874 0.85242 0.0
C389 C 0.59341 0.7777 0.86533 0.0
C390 C 0.57509 0.79542 0.87343 0.0
C391 C 0.5501 0.78628 0.86496 0.0
N392 N 0.5263 0.71485 0.85923 0.0
C393 C 0.53208 0.67419 0.89257 0.0
C394 C 0.52685 0.66979 0.86641 0.0
C395 C 0.52458 0.69005 0.85025 0.0
C396 C 0.53362 0.69979 0.90183 0.0
C397 C 0.53041 0.71979 0.88492 0.0
N398 N 0.5217 0.76846 0.80906 0.0
C399 C 0.54344 0.79502 0.77664 0.0
C400 C 0.5182 0.80215 0.76895 0.0
C401 C 0.49481 0.79286 0.78247 0.0
C402 C 0.497 0.77604 0.8024 0.0
C403 C 0.54476 0.7783 0.79682 0.0
H404 H 0.47863 0.76862 0.81194 0.0
H405 H 0.56442 0.77285 0.80212 0.0
H406 H 0.52164 0.6853 0.83023 0.0
H407 H 0.53163 0.73921 0.89249 0.0
C408 C 0.4597 0.73111 0.84749 0.0
C409 C 0.52448 0.79892 0.87034 0.0
C410 C 0.52163 0.70119 0.77918 0.0
C411 C 0.58921 0.73979 0.83578 0.0
H412 H 0.47127 0.80493 0.89491 0.0
H413 H 0.43619 0.7662 0.88451 0.0
H414 H 0.43234 0.69758 0.81105 0.0
H415 H 0.46573 0.68399 0.77212 0.0
H416 H 0.57638 0.6878 0.76461 0.0
H417 H 0.61311 0.70686 0.79677 0.0
H418 H 0.61514 0.77925 0.86729 0.0
H419 H 0.57961 0.81311 0.88406 0.0
H420 H 0.52436 0.65068 0.85809 0.0
H421 H 0.5377 0.7045 0.92183 0.0
H422 H 0.56204 0.80213 0.76699 0.0
H423 H 0.47486 0.79777 0.77707 0.0
C424 C 0.54267 0.26634 0.66009 0.0
C425 C 0.56594 0.26828 0.64413 0.0
C426 C 0.57902 0.24604 0.64622 0.0
C427 C 0.56336 0.23184 0.66352 0.0
N428 N 0.54133 0.2439 0.67239 0.0
Co429 Co 0.5148 0.23164 0.6995 0.0
N430 N 0.54031 0.20768 0.71241 0.0
C431 C 0.56213 0.19901 0.69914 0.0
C432 C 0.57567 0.18214 0.71287 0.0
C433 C 0.56129 0.17997 0.73607 0.0
C434 C 0.53974 0.19573 0.7352 0.0
N435 N 0.48811 0.2197 0.72665 0.0
C436 C 0.49196 0.20694 0.74836 0.0
C437 C 0.46751 0.20189 0.76184 0.0
C438 C 0.44774 0.21161 0.74778 0.0
C439 C 0.46115 0.22205 0.7266 0.0
N440 N 0.48925 0.25532 0.68642 0.0
C441 C 0.46213 0.25368 0.69006 0.0
C442 C 0.44982 0.27295 0.67859 0.0
C443 C 0.47056 0.28753 0.66713 0.0
C444 C 0.49446 0.27637 0.67239 0.0
N445 N 0.5012 0.20484 0.67576 0.0
C446 C 0.48877 0.16444 0.64105 0.0
C447 C 0.49337 0.18934 0.63238 0.0
C448 C 0.4992 0.20932 0.6501 0.0
C449 C 0.48895 0.16061 0.66766 0.0
C450 C 0.49551 0.18088 0.68455 0.0
N451 N 0.52879 0.25814 0.72296 0.0
C452 C 0.52162 0.29297 0.75309 0.0
C453 C 0.54971 0.29744 0.75475 0.0
C454 C 0.56704 0.28176 0.7403 0.0
C455 C 0.55618 0.26217 0.72466 0.0
C456 C 0.51157 0.27319 0.73704 0.0
H457 H 0.57003 0.25043 0.71371 0.0
H458 H 0.48992 0.27008 0.73593 0.0
H459 H 0.50308 0.22825 0.64294 0.0
H460 H 0.49679 0.17689 0.70469 0.0
C461 C 0.57157 0.21046 0.67612 0.0
C462 C 0.52157 0.28531 0.66272 0.0
C463 C 0.51801 0.19748 0.75532 0.0
C464 C 0.44996 0.23735 0.70854 0.0
H465 H 0.57317 0.28413 0.63257 0.0
H466 H 0.59854 0.24156 0.63746 0.0
H467 H 0.59429 0.17316 0.70712 0.0
H468 H 0.56596 0.16802 0.75171 0.0
H469 H 0.46426 0.19193 0.77972 0.0
H470 H 0.42627 0.21167 0.75282 0.0
H471 H 0.4285 0.27675 0.67955 0.0
H472 H 0.46836 0.30447 0.65628 0.0
H473 H 0.49341 0.19334 0.61202 0.0
H474 H 0.48453 0.14197 0.67553 0.0
H475 H 0.50751 0.30437 0.76438 0.0
H476 H 0.58886 0.28469 0.74089 0.0
C477 C 0.85732 0.48035 0.77351 0.0
C478 C 0.86329 0.45574 0.77918 0.0
C479 C 0.84871 0.43978 0.76297 0.0
C480 C 0.83471 0.45551 0.7484 0.0
N481 N 0.84005 0.48058 0.75379 0.0
Co482 Co 0.82148 0.50989 0.7397 0.0
N483 N 0.79545 0.48649 0.72047 0.0
C484 C 0.79616 0.46082 0.71796 0.0
C485 C 0.77656 0.44987 0.70262 0.0
C486 C 0.76238 0.46969 0.695 0.0
C487 C 0.77396 0.49172 0.7064 0.0
N488 N 0.80224 0.53925 0.72654 0.0
C489 C 0.77917 0.5396 0.71313 0.0
C490 C 0.77194 0.56439 0.70968 0.0
C491 C 0.79121 0.58016 0.72091 0.0
C492 C 0.80891 0.56427 0.73084 0.0
N493 N 0.84784 0.53317 0.75873 0.0
C494 C 0.85045 0.55882 0.75759 0.0
C495 C 0.86915 0.56975 0.77397 0.0
C496 C 0.87861 0.54994 0.78675 0.0
C497 C 0.86508 0.52798 0.77739 0.0
N498 N 0.84665 0.51023 0.70794 0.0
C499 C 0.878 0.51013 0.66018 0.0
C500 C 0.87148 0.53292 0.67332 0.0
C501 C 0.85602 0.53254 0.69681 0.0
C502 C 0.86898 0.48747 0.67197 0.0
C503 C 0.85394 0.48796 0.69554 0.0
N504 N 0.79659 0.50945 0.77089 0.0
C505 C 0.77702 0.53055 0.80909 0.0
C506 C 0.7641 0.50767 0.81721 0.0
C507 C 0.76749 0.48584 0.80139 0.0
C508 C 0.7836 0.48714 0.77856 0.0
C509 C 0.7929 0.53105 0.78598 0.0
H510 H 0.78562 0.46975 0.76751 0.0
H511 H 0.80223 0.54905 0.78071 0.0
H512 H 0.85186 0.55064 0.70543 0.0
H513 H 0.84825 0.46989 0.70305 0.0
C514 C 0.81435 0.44743 0.73157 0.0
C515 C 0.86767 0.50288 0.78805 0.0
C516 C 0.76338 0.51701 0.70369 0.0
C517 C 0.83157 0.57219 0.74488 0.0
H518 H 0.87617 0.44994 0.79406 0.0
H519 H 0.84744 0.41916 0.76273 0.0
H520 H 0.77275 0.42982 0.69788 0.0
H521 H 0.74524 0.46805 0.68262 0.0
H522 H 0.75445 0.5706 0.70031 0.0
H523 H 0.79195 0.60079 0.72208 0.0
H524 H 0.87393 0.58986 0.77755 0.0
H525 H 0.89288 0.55159 0.80205 0.0
H526 H 0.87835 0.55116 0.6657 0.0
H527 H 0.87293 0.46911 0.66289 0.0
H528 H 0.7747 0.5481 0.82036 0.0
H529 H 0.75817 0.46759 0.8068 0.0
C530 C 0.18027 0.02795 0.81781 0.0
C531 C 0.16836 0.05105 0.82286 0.0
C532 C 0.17748 0.06692 0.80374 0.0
C533 C 0.1942 0.0527 0.78794 0.0
N534 N 0.19599 0.02849 0.7955 0.0
Co535 Co 0.21884 1.00182 0.77791 0.0
N536 N 0.23325 0.02566 0.75037 0.0
C537 C 0.22695 0.05021 0.74829 0.0
C538 C 0.23882 0.06165 0.72699 0.0
C539 C 0.25325 0.04321 0.71439 0.0
C540 C 0.24926 0.02141 0.72869 0.0
N541 N 0.24208 0.9753 0.76057 0.0
C542 C 0.25758 0.97573 0.73814 0.0
C543 C 0.269 0.95245 0.73279 0.0
C544 C 0.26048 0.93684 0.7523 0.0
C545 C 0.24426 0.95126 0.76839 0.0
N546 N 0.20406 0.97784 0.80515 0.0
C547 C 0.2101 0.95318 0.8069 0.0
C548 C 0.19878 0.94176 0.82839 0.0
C549 C 0.18473 0.9602 0.84134 0.0
C550 C 0.18797 0.98197 0.82682 0.0
N551 N 0.18885 0.99059 0.75512 0.0
C552 C 0.15585 0.97609 0.71365 0.0
C553 C 0.1677 0.95772 0.7277 0.0
C554 C 0.18387 0.96535 0.74842 0.0
C555 C 0.15849 1.00147 0.72241 0.0
C556 C 0.1747 0.0082 0.74317 0.0
N557 N 0.24893 0.01315 0.80055 0.0
C558 C 0.28096 1.00391 0.83255 0.0
C559 C 0.28757 0.02985 0.8368 0.0
C560 C 0.27527 0.04719 0.82184 0.0
C561 C 0.2563 0.03851 0.80393 0.0
C562 C 0.26187 0.99604 0.8144 0.0
H563 H 0.24765 0.05274 0.79331 0.0
H564 H 0.25761 0.97605 0.81224 0.0
H565 H 0.19304 0.95062 0.75801 0.0
H566 H 0.17635 0.02792 0.74843 0.0
C567 C 0.20888 0.06164 0.7661 0.0
C568 C 0.1762 1.00627 0.83501 0.0
C569 C 0.26088 0.99711 0.72057 0.0
C570 C 0.22884 0.94209 0.7896 0.0
H571 H 0.15465 0.05607 0.83884 0.0
H572 H 0.17272 0.0866 0.80176 0.0
H573 H 0.23678 0.08096 0.72104 0.0
H574 H 0.26508 0.04547 0.69648 0.0
H575 H 0.28152 0.94695 0.7161 0.0
H576 H 0.26473 0.91699 0.754 0.0
H577 H 0.20141 0.9226 0.83453 0.0
H578 H 0.17409 0.95794 0.85984 0.0
H579 H 0.16576 0.93773 0.72191 0.0
H580 H 0.14882 0.01627 0.71271 0.0
H581 H 0.28996 0.98967 0.84359 0.0
H582 H 0.28027 0.06745 0.82384 0.0
C583 C 0.74813 0.1741 0.96527 0.0
C584 C 0.75515 0.16163 0.94198 0.0
C585 C 0.77783 0.17438 0.93181 0.0
C586 C 0.78442 0.19293 0.95001 0.0
N587 N 0.7675 0.19249 0.97099 0.0
Co588 Co 0.77606 0.20928 1.00475 0.0
N589 N 0.80085 0.23531 0.9881 0.0
C590 C 0.81231 0.23285 0.96414 0.0
C591 C 0.83015 0.25275 0.95799 0.0
C592 C 0.83038 0.26849 0.97961 0.0
C593 C 0.81259 0.25724 0.99795 0.0
N594 N 0.7844 0.22581 0.03869 0.0
C595 C 0.79648 0.24896 0.04437 0.0
C596 C 0.79741 0.25311 0.07098 0.0
C597 C 0.78677 0.23135 0.08214 0.0
C598 C 0.77952 0.2153 0.06188 0.0
N599 N 0.75173 0.18273 0.02117 0.0
C600 C 0.75298 0.17536 0.04565 0.0
C601 C 0.73676 0.154 0.05074 0.0
C602 C 0.72445 0.14764 0.02801 0.0
C603 C 0.73312 0.16611 0.01052 0.0
N604 N 0.80717 0.18734 1.00745 0.0
C605 C 0.85249 0.15688 0.01044 0.0
C606 C 0.82754 0.14659 1.00162 0.0
C607 C 0.80525 0.16197 1.00049 0.0
C608 C 0.85394 0.18284 0.01779 0.0
C609 C 0.83133 0.19759 0.01607 0.0
N610 N 0.74554 0.23162 1.00228 0.0
C611 C 0.70851 0.2533 0.0235 0.0
C612 C 0.70732 0.26986 1.00285 0.0
C613 C 0.72456 0.26539 0.98105 0.0
C614 C 0.7433 0.24611 0.98108 0.0
C615 C 0.72772 0.23462 0.02292 0.0
H616 H 0.75675 0.2436 0.96432 0.0
H617 H 0.7288 0.2232 0.03969 0.0
H618 H 0.78648 0.15327 0.99382 0.0
H619 H 0.83359 0.2174 0.02184 0.0
C620 C 0.80508 0.21204 0.94777 0.0
C621 C 0.72541 0.16625 0.98334 0.0
C622 C 0.81112 0.26549 0.02546 0.0
C623 C 0.76624 0.1912 0.06389 0.0
H624 H 0.74617 0.14415 0.93379 0.0
H625 H 0.7886 0.17015 0.91367 0.0
H626 H 0.84192 0.25534 0.94009 0.0
H627 H 0.84336 0.28554 0.9819 0.0
H628 H 0.80596 0.26972 0.08124 0.0
H629 H 0.78452 0.22774 0.10258 0.0
H630 H 0.73377 0.14448 0.0689 0.0
H631 H 0.71092 0.13111 0.0247 0.0
H632 H 0.82514 0.12679 0.99532 0.0
H633 H 0.87231 0.19184 0.02527 0.0
H634 H 0.69512 0.2551 0.04047 0.0
H635 H 0.72453 0.27738 0.9645 0.0
Co636 Co 0.06691 0.05385 0.05808 0.0
C637 C 0.06181 0.09671 0.09207 0.0
Co638 Co 0.08418 0.09007 0.04234 0.0
C639 C 0.06163 0.9997 0.06938 0.0
C640 C 0.02841 0.02047 0.08522 0.0
N641 N 0.05197 0.02335 0.07132 0.0
N642 N 0.04504 0.98217 0.08159 0.0
C643 C 0.02412 0.99533 0.09154 0.0
H644 H 0.08063 0.99553 0.05938 0.0
H645 H 0.01508 0.03569 0.09029 0.0
C646 C 0.09031 0.04883 1.00739 0.0
N647 N 0.099 0.12009 0.02861 0.0
C648 C 0.12096 0.13449 0.03594 0.0
C649 C 0.091 0.13108 1.00725 0.0
N650 N 0.12693 0.15395 0.01998 0.0
C651 C 0.10801 0.15192 1.002 0.0
C652 C 0.12078 0.06334 0.06978 0.0
O653 O 0.07774 0.03614 0.02527 0.0
O654 O 0.09478 0.07261 0.01119 0.0
O655 O 0.11845 0.08317 0.05672 0.0
O656 O 0.1006 0.04752 0.0722 0.0
O657 O 0.07388 0.10783 0.07315 0.0
H658 H 0.07441 0.12394 0.99565 0.0
H659 H 0.13257 0.13062 0.05246 0.0
O660 O 0.05669 0.07262 0.09029 0.0
O661 O 0.03278 0.06047 0.04452 0.0
O662 O 0.04917 0.09651 0.02898 0.0
C663 C 0.02901 0.08084 0.03295 0.0
H664 H 1.0066 0.98734 0.10223 0.0
H665 H 0.10717 0.16402 0.9856 0.0
Co666 Co 0.96736 0.45286 0.07523 0.0
C667 C 0.97551 0.50341 0.05712 0.0
Co668 Co 0.9504 0.46081 0.03721 0.0
C669 C 0.98616 0.42829 0.12074 0.0
C670 C 0.98771 0.46898 0.12453 0.0
N671 N 0.98233 0.4495 0.10749 0.0
N672 N 0.99331 0.43395 0.14526 0.0
C673 C 0.99449 0.45953 0.14756 0.0
H674 H 0.98202 0.40908 0.11323 0.0
H675 H 0.98525 0.48886 0.12121 0.0
C676 C 0.94059 0.4107 0.05513 0.0
N677 N 0.93314 0.46396 1.00544 0.0
C678 C 0.93989 0.47418 0.98207 0.0
C679 C 0.90745 0.45451 1.00289 0.0
N680 N 0.91921 0.47146 0.9654 0.0
C681 C 0.89901 0.45891 0.97874 0.0
C682 C 1.0043 0.44484 0.03393 0.0
O683 O 0.95398 0.41809 0.07467 0.0
O684 O 0.93809 0.42601 0.03709 0.0
O685 O 0.98532 0.45181 0.0199 0.0
O686 O 0.99985 0.44356 0.05821 0.0
O687 O 0.96234 0.49537 0.03768 0.0
H688 H 0.8954 0.44479 0.01779 0.0
H689 H 0.95942 0.48359 0.97751 0.0
O690 O 0.97996 0.48803 0.07473 0.0
O691 O 0.93507 0.46203 0.09259 0.0
O692 O 0.91665 0.46998 0.05631 0.0
C693 C 0.91479 0.46881 0.08093 0.0
H694 H 0.99875 0.47062 0.16506 0.0
H695 H 0.87947 0.45274 0.97148 0.0
Co696 Co 0.06498 0.94689 0.46621 0.0
C697 C 0.10272 0.95241 0.4251 0.0
Co698 Co 0.05005 0.93131 0.4292 0.0
C699 C 0.07939 0.95106 0.52028 0.0
C700 C 0.08675 0.98579 0.50021 0.0
N701 N 0.07699 0.96151 0.49706 0.0
N702 N 0.09037 0.9679 0.53776 0.0
C703 C 0.0948 0.98981 0.52508 0.0
H704 H 0.07385 0.9313 0.52402 0.0
H705 H 0.08831 0.99968 0.48524 0.0
C706 C 1.01132 0.92604 0.46906 0.0
N707 N 0.03869 0.91712 0.39839 0.0
C708 C 0.05167 0.89947 0.38389 0.0
C709 C 0.01601 0.92094 0.3858 0.0
N710 N 0.03796 0.89185 0.36289 0.0
C711 C 0.01554 0.9054 0.36382 0.0
C712 C 0.07695 0.89605 0.4579 0.0
O713 O 0.03012 0.93615 0.48285 0.0
O714 O 0.01604 0.92218 0.44504 0.0
O715 O 0.06371 0.89927 0.43785 0.0
O716 O 0.07997 0.91472 0.47404 0.0
O717 O 0.08384 0.94072 0.41294 0.0
H718 H 1.00059 0.93377 0.39245 0.0
H719 H 0.07082 0.8922 0.38875 0.0
O720 O 0.09901 0.95729 0.44919 0.0
O721 O 0.05056 0.97921 0.45767 0.0
O722 O 0.03684 0.96306 0.42069 0.0
C723 C 0.0395 0.98208 0.4363 0.0
H724 H 0.10327 1.00761 0.53311 0.0
H725 H 0.99954 0.90351 0.35016 0.0
Co726 Co 0.97745 0.57439 0.4501 0.0
C727 C 0.03083 0.56206 0.46037 0.0
Co728 Co 0.98882 0.53522 0.43582 0.0
C729 C 0.94487 0.61573 0.47235 0.0
C730 C 0.98565 0.628 0.46174 0.0
N731 N 0.96883 0.60699 0.46298 0.0
N732 N 0.94611 0.64136 0.47656 0.0
C733 C 0.97181 0.64904 0.46993 0.0
H734 H 0.92657 0.6037 0.47492 0.0
H735 H 1.00649 0.62816 0.45444 0.0
C736 C 0.93668 0.5488 0.42398 0.0
N737 N 0.99622 0.50218 0.42032 0.0
C738 C 1.00239 0.47866 0.42822 0.0
C739 C 0.99287 0.49827 0.3947 0.0
N740 N 1.00345 0.46087 0.40828 0.0
C741 C 0.99736 0.47357 0.3874 0.0
C742 C 0.96458 0.53584 0.48565 0.0
O743 O 0.94297 0.56989 0.43545 0.0
O744 O 0.95335 0.53118 0.42267 0.0
O745 O 0.97538 0.52094 0.46843 0.0
O746 O 0.96348 0.55944 0.48113 0.0
O747 O 0.02471 0.54062 0.44896 0.0
H748 H 0.98627 0.51228 0.38189 0.0
H749 H 1.00555 0.47458 0.44816 0.0
O750 O 1.01275 0.57844 0.46381 0.0
O751 O 0.99137 0.58902 0.41915 0.0
O752 O 1.0019 0.55119 0.40399 0.0
C753 C 1.00102 0.57505 0.40097 0.0
H754 H 0.97995 0.66856 0.47067 0.0
H755 H 0.99497 0.46533 0.36814 0.0
Co756 Co 0.44443 0.9458 0.57055 0.0
C757 C 0.45467 0.99633 0.55999 0.0
Co758 Co 0.42888 0.95592 0.53277 0.0
C759 C 0.46558 0.91673 0.61118 0.0
C760 C 0.45062 0.95247 0.62481 0.0
N761 N 0.45417 0.93771 0.60323 0.0
N762 N 0.46909 0.91781 0.63693 0.0
C763 C 0.4597 0.9403 0.64552 0.0
H764 H 0.47073 0.90082 0.5984 0.0
H765 H 0.4419 0.97094 0.62546 0.0
C766 C 0.41745 0.90565 0.54361 0.0
N767 N 0.42038 0.96559 0.499 0.0
C768 C 0.40143 0.95837 0.48142 0.0
C769 C 0.43743 0.98208 0.4861 0.0
N770 N 0.40641 0.96976 0.4583 0.0
C771 C 0.42895 0.98478 0.46164 0.0
C772 C 0.48369 0.93875 0.53285 0.0
O773 O 0.42971 0.91201 0.56421 0.0
O774 O 0.41515 0.92207 0.52645 0.0
O775 O 0.46544 0.94681 0.51876 0.0
O776 O 0.47821 0.9364 0.55677 0.0
O777 O 0.44208 0.98965 0.5399 0.0
H778 H 0.45567 0.99118 0.49369 0.0
H779 H 0.38499 0.94439 0.48515 0.0
O780 O 0.45881 0.97972 0.57636 0.0
O781 O 0.41079 0.95522 0.58483 0.0
O782 O 0.39309 0.96495 0.5486 0.0
C783 C 0.39096 0.9632 0.57331 0.0
H784 H 0.45965 0.94759 0.66532 0.0
H785 H 0.43888 0.99695 0.4473 0.0
Co786 Co 0.54329 0.53638 0.59502 0.0
C787 C 0.54155 0.57933 0.63042 0.0
Co788 Co 0.56373 0.57238 0.58165 0.0
C789 C 0.5337 0.48264 0.6048 0.0
C790 C 0.50384 0.5049 0.62464 0.0
N791 N 0.52547 0.50678 0.60792 0.0
N792 N 0.51829 0.46585 0.61906 0.0
C793 C 0.49946 0.47984 0.63159 0.0
H794 H 0.5514 0.47762 0.5931 0.0
H795 H 0.49241 0.52082 0.63187 0.0
C796 C 0.56662 0.53064 0.54563 0.0
N797 N 0.58418 0.60016 0.56844 0.0
C798 C 0.58215 0.6258 0.56953 0.0
C799 C 0.60836 0.59655 0.55607 0.0
N800 N 0.60436 0.63791 0.55849 0.0
C801 C 0.62062 0.61947 0.54991 0.0
C802 C 0.59654 0.54097 0.60936 0.0
O803 O 0.55301 0.51793 0.56272 0.0
O804 O 0.57241 0.55397 0.55056 0.0
O805 O 0.5966 0.56168 0.59733 0.0
O806 O 0.57512 0.52665 0.60984 0.0
O807 O 0.55502 0.59077 0.61245 0.0
H808 H 0.6171 0.57828 0.55239 0.0
H809 H 0.56543 0.63536 0.57906 0.0
O810 O 0.53431 0.55574 0.62695 0.0
O811 O 0.51087 0.54661 0.58057 0.0
O812 O 0.53007 0.58273 0.56707 0.0
C813 C 0.50884 0.56779 0.56967 0.0
H814 H 0.48369 0.4725 0.64486 0.0
H815 H 0.64029 0.62242 0.54017 0.0
Co816 Co 0.58598 0.47342 0.99746 0.0
C817 C 0.62456 0.4774 0.95618 0.0
Co818 Co 0.57207 0.45662 0.96068 0.0
C819 C 0.59759 0.47489 0.05184 0.0
C820 C 0.61276 0.50855 0.03287 0.0
N821 N 0.59851 0.48631 0.02882 0.0
N822 N 0.61098 0.48901 0.07001 0.0
C823 C 0.62047 0.51026 0.0581 0.0
H824 H 0.58816 0.45613 0.0549 0.0
H825 H 0.61777 0.52239 0.01822 0.0
C826 C 0.53225 0.45257 1.00001 0.0
N827 N 0.56009 0.44408 0.92964 0.0
C828 C 0.5743 0.43037 0.91196 0.0
C829 C 0.53589 0.44674 0.91933 0.0
N830 N 0.56 0.42414 0.89091 0.0
C831 C 0.53573 0.4344 0.89549 0.0
C832 C 0.59761 0.42169 0.98915 0.0
O833 O 0.55028 0.46434 0.01357 0.0
O834 O 0.53817 0.44682 0.97657 0.0
O835 O 0.58599 0.42376 0.96791 0.0
O836 O 0.5988 0.44089 1.00477 0.0
O837 O 0.60522 0.46612 0.94451 0.0
H838 H 0.51941 0.45679 0.92865 0.0
H839 H 0.59486 0.4252 0.91459 0.0
O840 O 0.62123 0.48272 0.98031 0.0
O841 O 0.57346 0.50578 0.99018 0.0
O842 O 0.55909 0.4897 0.95335 0.0
C843 C 0.56221 0.50877 0.96902 0.0
H844 H 0.63225 0.5259 0.06695 0.0
H845 H 0.51876 0.43257 0.88294 0.0
Co846 Co 0.4888 0.09173 0.96615 0.0
C847 C 0.54382 0.08034 0.96463 0.0
Co848 Co 0.49846 0.05547 0.94429 0.0
C849 C 0.46835 0.14247 0.98101 0.0
C850 C 0.49137 0.12607 0.00968 0.0
N851 N 0.48201 0.12151 0.98582 0.0
N852 N 0.46911 0.15991 1.00097 0.0
C853 C 0.48351 0.14938 0.01898 0.0
H854 H 0.45849 0.14504 0.96311 0.0
H855 H 0.50329 0.1132 0.01974 0.0
C856 C 0.44424 0.06803 0.94374 0.0
N857 N 0.50453 0.02471 0.92447 0.0
C858 C 0.51113 1.001 0.93112 0.0
C859 C 0.49921 0.02178 0.8992 0.0
N860 N 0.51018 0.98357 0.91092 0.0
C861 C 0.50268 0.997 0.89093 0.0
C862 C 0.48317 0.04844 0.99626 0.0
O863 O 0.45171 0.0877 0.95722 0.0
O864 O 0.46141 0.05162 0.93704 0.0
O865 O 0.49129 0.03636 0.97577 0.0
O866 O 0.4809 0.07232 0.99581 0.0
O867 O 0.53602 0.06058 0.95134 0.0
H868 H 0.492 0.03648 0.88755 0.0
H869 H 0.51586 0.99654 0.95058 0.0
O870 O 0.52632 0.09538 0.97407 0.0
O871 O 0.49674 0.11089 0.93657 0.0
O872 O 0.5051 0.076 0.91358 0.0
C873 C 0.50356 0.10022 0.91506 0.0
H874 H 0.48788 0.15777 0.03781 0.0
H875 H 0.49872 0.9894 0.87172 0.0
H876 H 0.0582 0.13039 0.40382 0.0
H877 H 0.98539 0.11872 0.36035 0.0
H878 H 0.97828 0.07532 0.37683 0.0
H879 H 0.08171 0.06924 0.39195 0.0
H880 H 0.09486 0.06549 0.42343 0.0
H881 H 0.09269 0.09687 0.4111 0.0
H882 H 0.06394 0.11031 0.45176 0.0
H883 H 0.06616 0.07895 0.4643 0.0
H884 H 0.03348 0.09173 0.46062 0.0
H885 H 0.98201 0.03176 0.39287 0.0
H886 H 0.99511 0.99099 0.40966 0.0
H887 H 0.0646 0.02974 0.44473 0.0
C888 C 0.04035 0.1189 0.39852 0.0
C889 C 0.02209 0.12801 0.38107 0.0
C890 C 0.99941 0.11218 0.37388 0.0
C891 C 0.99523 0.08749 0.38314 0.0
C892 C 0.01386 0.07875 0.39973 0.0
C893 C 0.03585 0.09397 0.40765 0.0
C894 C 0.05367 0.07905 0.42429 0.0
C895 C 0.08243 0.07758 0.41195 0.0
C896 C 0.05435 0.09071 0.45188 0.0
C897 C 0.03863 0.05301 0.42387 0.0
C898 C 0.01568 0.05339 0.4096 0.0
C899 C 0.9996 0.03134 0.40455 0.0
C900 C 1.00722 0.00824 0.41411 0.0
C901 C 0.03054 1.00726 0.42888 0.0
C902 C 0.04623 0.03006 0.43412 0.0
H903 H 0.03005 0.32575 0.33823 0.0
H904 H 1.00371 0.28979 0.4095 0.0
H905 H 0.99867 0.33235 0.43096 0.0
H906 H 0.06865 0.37925 0.36794 0.0
H907 H 0.05918 0.40163 0.34479 0.0
H908 H 0.06113 0.3684 0.33551 0.0
H909 H 1.01174 0.36722 0.32105 0.0
H910 H 1.00942 0.40037 0.33032 0.0
H911 H 0.98519 0.37702 0.34359 0.0
H912 H 0.99547 0.38032 0.4444 0.0
H913 H 0.99324 0.42746 0.44751 0.0
H914 H 0.02301 0.43155 0.36776 0.0
C915 C 0.02325 0.3269 0.35837 0.0
C916 C 0.01684 0.3044 0.37208 0.0
C917 C 1.00825 0.30673 0.39848 0.0
C918 C 1.00549 0.33088 0.41086 0.0
C919 C 1.01164 0.35276 0.39674 0.0
C920 C 0.02042 0.35091 0.37103 0.0
C921 C 0.02538 0.37721 0.35998 0.0
C922 C 0.05537 0.38189 0.35156 0.0
C923 C 1.00681 0.38066 0.33741 0.0
C924 C 0.01772 0.39418 0.38327 0.0
C925 C 1.00999 0.37985 0.40441 0.0
C926 C 1.00161 0.39162 0.4279 0.0
C927 C 1.00057 0.41852 0.42961 0.0
C928 C 1.00774 0.43356 0.40795 0.0
C929 C 0.01696 0.4209 0.38471 0.0
H930 H 0.01947 0.84467 0.14105 0.0
H931 H 0.06973 0.81478 0.07748 0.0
H932 H 0.07696 0.85812 0.0607 0.0
H933 H 0.98695 0.89084 0.10437 0.0
H934 H 0.98652 0.91437 0.13053 0.0
H935 H 0.98535 0.88097 0.1374 0.0
H936 H 0.0276 0.8885 0.16511 0.0
H937 H 0.02897 0.92189 0.15823 0.0
H938 H 0.05815 0.90336 0.15098 0.0
H939 H 0.07895 0.9053 0.05097 0.0
H940 H 0.07451 0.95174 0.0486 0.0
H941 H 0.02296 0.95059 0.11853 0.0
C942 C 0.03171 0.84711 0.1234 0.0
C943 C 0.04401 0.82614 0.11063 0.0
C944 C 0.06031 0.83046 0.08784 0.0
C945 C 0.06445 0.85504 0.07807 0.0
C946 C 0.05219 0.87526 0.09126 0.0
C947 C 0.03608 0.87152 0.11339 0.0
C948 C 0.02533 0.89644 0.12403 0.0
C949 C 0.99419 0.8956 0.12407 0.0
C950 C 0.03564 0.90292 0.1512 0.0
C951 C 0.0378 0.91479 0.10437 0.0
C952 C 0.05329 0.90224 0.08566 0.0
C953 C 0.06686 0.91529 0.06556 0.0
C954 C 0.06436 0.94177 0.06446 0.0
C955 C 0.04834 0.95504 0.08331 0.0
C956 C 0.03506 0.94116 0.10357 0.0
H957 H 0.02614 0.62818 0.1362 0.0
H958 H 1.00359 0.67244 0.07234 0.0
H959 H 0.9922 0.63252 0.04714 0.0
H960 H 0.05585 0.57632 0.09718 0.0
H961 H 0.04313 0.55226 0.11917 0.0
H962 H 0.0511 0.58425 0.13115 0.0
H963 H 1.00239 0.58657 0.15138 0.0
H964 H 0.99428 0.55464 0.13946 0.0
H965 H 0.97384 0.58031 0.13118 0.0
H966 H 0.98056 0.58767 0.03041 0.0
H967 H 0.96949 0.54161 0.02332 0.0
H968 H 1.00061 0.52708 0.09821 0.0
C969 C 0.0191 0.62931 0.11678 0.0
C970 C 0.01563 0.65307 0.106 0.0
C971 C 1.00627 0.65419 0.0807 0.0
C972 C 0.99986 0.6317 0.06633 0.0
C973 C 1.00318 0.60842 0.0776 0.0
C974 C 1.0127 0.60709 0.10222 0.0
C975 C 0.01341 0.5798 0.11035 0.0
C976 C 0.04261 0.57275 0.11471 0.0
C977 C 0.99487 0.57506 0.13451 0.0
C978 C 1.00231 0.56594 0.08668 0.0
C979 C 0.99668 0.58272 0.06793 0.0
C980 C 0.98514 0.57434 0.04485 0.0
C981 C 0.97892 0.54814 0.04101 0.0
C982 C 0.9842 0.53069 0.06018 0.0
C983 C 0.99642 0.53982 0.08309 0.0
H984 H 0.37598 1.00508 0.10638 0.0
H985 H 0.43861 0.02367 0.16129 0.0
H986 H 0.47221 0.02893 0.1251 0.0
H987 H 0.4179 0.97216 0.05717 0.0
H988 H 0.40154 0.98557 0.03074 0.0
H989 H 0.38294 0.98024 0.06091 0.0
H990 H 0.37117 0.02772 0.0641 0.0
H991 H 0.38947 0.03309 0.03386 0.0
H992 H 0.39813 0.05213 0.06222 0.0
H993 H 0.49847 0.03632 0.08262 0.0
H994 H 0.51412 0.04692 0.03803 0.0
H995 H 0.43453 0.02492 0.01072 0.0
C996 C 0.39672 0.01024 0.11101 0.0
C997 C 0.40435 0.01382 0.13709 0.0
C998 C 0.43201 0.02025 0.14177 0.0
C999 C 0.45135 0.02343 0.12122 0.0
C1000 C 0.44295 0.02012 0.09589 0.0
C1001 C 0.41624 0.01373 0.09073 0.0
C1002 C 0.41199 0.01314 0.06183 0.0
C1003 C 0.40306 0.98617 0.05209 0.0
C1004 C 0.39149 0.03268 0.05512 0.0
C1005 C 0.44036 0.02073 0.05148 0.0
C1006 C 0.45803 0.02434 0.07144 0.0
C1007 C 0.48492 0.03303 0.06685 0.0
C1008 C 0.49375 0.0388 0.04144 0.0
C1009 C 0.47587 0.03575 0.02083 0.0
C1010 C 0.44893 0.0263 0.02594 0.0
H1011 H 0.68691 0.49535 0.20242 0.0
H1012 H 0.61875 0.45092 0.23572 0.0
H1013 H 0.59833 0.44665 0.19276 0.0
H1014 H 0.64849 0.53094 0.16252 0.0
H1015 H 0.67341 0.53228 0.13611 0.0
H1016 H 0.68396 0.52929 0.16863 0.0
H1017 H 0.70874 0.48851 0.15481 0.0
H1018 H 0.69848 0.49142 0.12213 0.0
H1019 H 0.69035 0.46235 0.13889 0.0
H1020 H 0.58448 0.44926 0.14638 0.0
H1021 H 0.57759 0.45951 0.10096 0.0
H1022 H 0.65423 0.50362 0.09873 0.0
C1023 C 0.66795 0.48429 0.20044 0.0
C1024 C 0.65464 0.47286 0.22204 0.0
C1025 C 0.62952 0.45915 0.21912 0.0
C1026 C 0.61777 0.45677 0.19488 0.0
C1027 C 0.63132 0.46846 0.17391 0.0
C1028 C 0.65586 0.48198 0.1765 0.0
C1029 C 0.66545 0.49418 0.15148 0.0
C1030 C 0.66796 0.5234 0.1549 0.0
C1031 C 0.69235 0.48347 0.14122 0.0
C1032 C 0.64234 0.48569 0.13441 0.0
C1033 C 0.62297 0.47066 0.14759 0.0
C1034 C 0.5996 0.4609 0.13585 0.0
C1035 C 0.59588 0.46674 0.11002 0.0
C1036 C 0.61529 0.48243 0.09628 0.0
C1037 C 0.63885 0.49184 0.10875 0.0
H1038 H 0.39284 0.98733 0.30747 0.0
H1039 H 0.30612 0.97365 0.31836 0.0
H1040 H 0.31194 0.96424 0.36443 0.0
H1041 H 0.41286 0.93843 0.35049 0.0
H1042 H 0.4412 0.95785 0.36213 0.0
H1043 H 0.42996 0.96169 0.32994 0.0
H1044 H 0.42432 0.00977 0.3402 0.0
H1045 H 0.43553 1.00608 0.37238 0.0
H1046 H 0.40329 0.01937 0.36774 0.0
H1047 H 0.32805 0.95858 0.41098 0.0
H1048 H 0.35232 0.95831 0.45204 0.0
H1049 H 0.42817 0.97515 0.4095 0.0
C1050 C 0.37514 0.98211 0.31956 0.0
C1051 C 0.34902 0.98123 0.30946 0.0
C1052 C 0.32631 0.97433 0.32578 0.0
C1053 C 0.32946 0.96899 0.35196 0.0
C1054 C 0.35553 0.97043 0.36154 0.0
C1055 C 0.37796 0.97674 0.34568 0.0
C1056 C 0.40368 0.97799 0.36066 0.0
C1057 C 0.42307 0.95778 0.35018 0.0
C1058 C 0.41751 1.0049 0.36022 0.0
C1059 C 0.39233 0.97179 0.38751 0.0
C1060 C 0.36456 0.96729 0.38778 0.0
C1061 C 0.34983 0.96194 0.41083 0.0
C1062 C 0.36378 0.96167 0.4341 0.0
C1063 C 0.39218 0.9669 0.43428 0.0
C1064 C 0.40644 0.97146 0.41038 0.0
H1065 H 0.65289 0.53257 0.4115 0.0
H1066 H 0.62171 0.45526 0.39478 0.0
H1067 H 0.59592 0.45555 0.43664 0.0
H1068 H 0.65982 0.52656 0.47937 0.0
H1069 H 0.6491 0.55816 0.48767 0.0
H1070 H 0.66536 0.55162 0.45656 0.0
H1071 H 0.62438 0.56837 0.43397 0.0
H1072 H 0.60807 0.57504 0.46503 0.0
H1073 H 0.59081 0.55487 0.44145 0.0
H1074 H 0.57324 0.46458 0.48184 0.0
H1075 H 0.5558 0.48206 0.52421 0.0
H1076 H 0.60069 0.5536 0.50951 0.0
C1077 C 0.64044 0.51573 0.41634 0.0
C1078 C 0.63966 0.49384 0.39951 0.0
C1079 C 0.62327 0.47218 0.40725 0.0
C1080 C 0.6083 0.4722 0.43104 0.0
C1081 C 0.60965 0.49406 0.4471 0.0
C1082 C 0.62526 0.51546 0.43992 0.0
C1083 C 0.62321 0.53666 0.46042 0.0
C1084 C 0.65103 0.54365 0.47166 0.0
C1085 C 0.61088 0.56012 0.44956 0.0
C1086 C 0.60405 0.52392 0.48025 0.0
C1087 C 0.59644 0.49931 0.47242 0.0
C1088 C 0.57905 0.4839 0.48803 0.0
C1089 C 0.56922 0.49396 0.51211 0.0
C1090 C 0.57665 0.51926 0.52034 0.0
C1091 C 0.59435 0.53422 0.50397 0.0
H1092 H 0.15225 0.39275 0.04492 0.0
H1093 H 0.1805 0.43981 0.98128 0.0
H1094 H 0.13376 0.45402 0.97732 0.0
H1095 H 0.08816 0.37224 0.02053 0.0
H1096 H 0.0704 0.37353 0.05163 0.0
H1097 H 0.10598 0.36759 0.04949 0.0
H1098 H 0.11612 0.40608 0.08083 0.0
H1099 H 0.08053 0.41187 0.08337 0.0
H1100 H 0.10468 0.43694 0.07359 0.0
H1101 H 0.08162 0.46128 0.97947 0.0
H1102 H 0.03261 0.46494 0.9912 0.0
H1103 H 0.04009 0.41395 0.05412 0.0
C1104 C 0.14869 0.40617 0.03021 0.0
C1105 C 0.17021 0.41509 0.01336 0.0
C1106 C 0.16454 0.43284 0.99457 0.0
C1107 C 0.13792 0.44083 0.99204 0.0
C1108 C 0.11706 0.43116 1.00863 0.0
C1109 C 0.12241 0.41453 0.02765 0.0
C1110 C 0.09688 0.40728 0.04358 0.0
C1111 C 0.08996 0.37845 0.04115 0.0
C1112 C 0.09973 0.41608 0.07202 0.0
C1113 C 0.07619 0.42227 0.0306 0.0
C1114 C 0.08796 0.43577 0.01027 0.0
C1115 C 0.07238 0.4508 0.99545 0.0
C1116 C 0.04443 0.45261 1.00206 0.0
C1117 C 0.03231 0.43969 0.02351 0.0
C1118 C 0.04857 0.42407 0.03756 0.0
H1119 H 0.15451 0.66047 0.49574 0.0
H1120 H 0.2083 0.59857 0.48237 0.0
H1121 H 0.16889 0.56883 0.47364 0.0
H1122 H 0.0999 0.62345 0.52798 0.0
H1123 H 0.07346 0.6399 0.51371 0.0
H1124 H 0.10586 0.65614 0.51896 0.0
H1125 H 0.11069 0.66674 0.47048 0.0
H1126 H 0.07825 0.65066 0.46513 0.0
H1127 H 0.10782 0.6413 0.44633 0.0
H1128 H 0.12307 0.54598 0.4652 0.0
H1129 H 0.07528 0.53227 0.45767 0.0
H1130 H 0.05133 0.60898 0.47762 0.0
C1131 C 0.15788 0.64065 0.49088 0.0
C1132 C 0.18444 0.63184 0.48923 0.0
C1133 C 0.18813 0.60573 0.48323 0.0
C1134 C 0.16586 0.58871 0.47839 0.0
C1135 C 0.13988 0.598 0.47989 0.0
C1136 C 0.13581 0.62338 0.48605 0.0
C1137 C 0.10588 0.62855 0.48626 0.0
C1138 C 0.09568 0.63754 0.51334 0.0
C1139 C 0.10034 0.64796 0.46583 0.0
C1140 C 0.09376 0.60222 0.47911 0.0
C1141 C 0.11366 0.58482 0.47554 0.0
C1142 C 0.10733 0.55946 0.46812 0.0
C1143 C 0.08007 0.5518 0.46394 0.0
C1144 C 0.05933 0.56937 0.46724 0.0
C1145 C 0.06649 0.59486 0.47521 0.0
H1146 H 0.8492 0.91329 0.46945 0.0
H1147 H 0.85243 0.85418 0.52532 0.0
H1148 H 0.90213 0.8621 0.52682 0.0
H1149 H 0.91066 0.89527 0.43327 0.0
H1150 H 0.92071 0.92766 0.42552 0.0
H1151 H 0.88534 0.91833 0.43032 0.0
H1152 H 0.88059 0.9544 0.46535 0.0
H1153 H 0.91607 0.96354 0.46097 0.0
H1154 H 0.90219 0.95563 0.49258 0.0
H1155 H 0.95198 0.87793 0.52327 0.0
H1156 H 0.99798 0.89524 0.50982 0.0
H1157 H 0.96284 0.93958 0.45212 0.0
C1158 C 0.8604 0.90147 0.48143 0.0
C1159 C 0.84684 0.88275 0.49697 0.0
C1160 C 0.86234 0.86855 0.5132 0.0
C1161 C 0.89059 0.87298 0.51423 0.0
C1162 C 0.90334 0.89145 0.49858 0.0
C1163 C 0.88879 0.90506 0.48205 0.0
C1164 C 0.90757 0.92269 0.46604 0.0
C1165 C 0.90598 0.91555 0.43707 0.0
C1166 C 0.90122 0.95072 0.47157 0.0
C1167 C 0.93489 0.91694 0.47617 0.0
C1168 C 0.93201 0.8993 0.49537 0.0
C1169 C 0.95444 0.89161 0.50811 0.0
C1170 C 0.98047 0.90166 0.50054 0.0
C1171 C 0.9839 0.91875 0.48005 0.0
C1172 C 0.96074 0.92656 0.46791 0.0
H1173 H 0.39139 0.65624 0.52362 0.0
H1174 H 0.33407 0.59408 0.54479 0.0
H1175 H 0.37195 0.56842 0.55511 0.0
H1176 H 0.44503 0.61791 0.49644 0.0
H1177 H 0.47201 0.638 0.50973 0.0
H1178 H 0.44059 0.65147 0.50232 0.0
H1179 H 0.43522 0.66922 0.54937 0.0
H1180 H 0.46667 0.6559 0.55689 0.0
H1181 H 0.43613 0.64783 0.57573 0.0
H1182 H 0.41569 0.54917 0.56398 0.0
H1183 H 0.46191 0.53834 0.57298 0.0
H1184 H 0.49246 0.61327 0.54915 0.0
C1185 C 0.38653 0.63733 0.53058 0.0
C1186 C 0.3591 0.62742 0.53291 0.0
C1187 C 0.35445 0.60228 0.54192 0.0
C1188 C 0.376 0.58747 0.54813 0.0
C1189 C 0.40248 0.59786 0.54562 0.0
C1190 C 0.4079 0.62228 0.53725 0.0
C1191 C 0.43834 0.62908 0.53728 0.0
C1192 C 0.44966 0.63443 0.5098 0.0
C1193 C 0.44444 0.65186 0.55593 0.0
C1194 C 0.44913 0.60467 0.54707 0.0
C1195 C 0.42795 0.58692 0.5515 0.0
C1196 C 0.43238 0.56296 0.5606 0.0
C1197 C 0.45894 0.55699 0.56564 0.0
C1198 C 0.48125 0.57483 0.56184 0.0
C1199 C 0.4761 0.59905 0.55218 0.0
H1200 H 0.55243 0.62724 0.87855 0.0
H1201 H 0.52014 0.67007 0.94522 0.0
H1202 H 0.52444 0.63268 0.97201 0.0
H1203 H 0.51531 0.56857 0.89308 0.0
H1204 H 0.54218 0.54894 0.88104 0.0
H1205 H 0.5385 0.57965 0.86762 0.0
H1206 H 0.5881 0.59302 0.87812 0.0
H1207 H 0.59198 0.56234 0.8915 0.0
H1208 H 0.59886 0.59098 0.91076 0.0
H1209 H 0.53304 0.59007 0.99175 0.0
H1210 H 0.54336 0.54604 1.00203 0.0
H1211 H 0.56453 0.53003 0.92127 0.0
C1212 C 0.54576 0.62895 0.89866 0.0
C1213 C 0.53573 0.652 0.90949 0.0
C1214 C 0.52826 0.65304 0.93626 0.0
C1215 C 0.5304 0.63173 0.95167 0.0
C1216 C 0.53973 0.60928 0.94008 0.0
C1217 C 0.5471 0.60776 0.91411 0.0
C1218 C 0.55564 0.58124 0.90599 0.0
C1219 C 0.53678 0.56888 0.88573 0.0
C1220 C 0.58541 0.58195 0.89601 0.0
C1221 C 0.552 0.56796 0.93148 0.0
C1222 C 0.54314 0.58453 0.95101 0.0
C1223 C 0.53966 0.57692 0.97651 0.0
C1224 C 0.54555 0.55188 0.98218 0.0
C1225 C 0.55428 0.53451 0.96239 0.0
C1226 C 0.55728 0.54269 0.93669 0.0
H1227 H 0.52297 0.84384 0.84467 0.0
H1228 H 0.52483 0.81422 0.92141 0.0
H1229 H 0.52253 0.85812 0.94045 0.0
H1230 H 0.5641 0.90224 0.85751 0.0
H1231 H 0.54481 0.92126 0.83744 0.0
H1232 H 0.54721 0.88768 0.83014 0.0
H1233 H 0.49489 0.88185 0.83181 0.0
H1234 H 0.4923 0.91538 0.83918 0.0
H1235 H 0.47592 0.8923 0.86037 0.0
H1236 H 0.51868 0.90612 0.95106 0.0
H1237 H 0.51384 0.95267 0.95223 0.0
H1238 H 0.51569 0.95098 0.86827 0.0
C1239 C 0.52309 0.84671 0.86547 0.0
C1240 C 0.52417 0.82566 0.88162 0.0
C1241 C 0.52411 0.83011 0.90874 0.0
C1242 C 0.52278 0.85499 0.91969 0.0
C1243 C 0.52158 0.87542 0.90328 0.0
C1244 C 0.52182 0.87151 0.87671 0.0
C1245 C 0.52004 0.89663 0.86336 0.0
C1246 C 0.54556 0.90228 0.8461 0.0
C1247 C 0.49425 0.89653 0.84776 0.0
C1248 C 0.51859 0.91528 0.88648 0.0
C1249 C 0.51952 0.90274 0.90936 0.0
C1250 C 0.51806 0.91606 0.93318 0.0
C1251 C 0.5154 0.94272 0.93365 0.0
C1252 C 0.5142 0.95615 0.91044 0.0
C1253 C 0.51613 0.94186 0.88659 0.0
H1254 H 0.51414 0.33148 0.68747 0.0
H1255 H 0.53425 0.2974 0.61222 0.0
H1256 H 0.53799 0.34013 0.59352 0.0
H1257 H 0.47108 0.37698 0.66342 0.0
H1258 H 0.48024 0.40186 0.68674 0.0
H1259 H 0.48189 0.36894 0.69477 0.0
H1260 H 0.53226 0.37685 0.70577 0.0
H1261 H 0.53079 0.40984 0.69786 0.0
H1262 H 0.55595 0.39045 0.682 0.0
H1263 H 0.53935 0.38684 0.58294 0.0
H1264 H 0.53456 0.43331 0.5805 0.0
H1265 H 0.50959 0.43697 0.6617 0.0
C1266 C 0.51983 0.33315 0.66716 0.0
C1267 C 0.52525 0.31122 0.65154 0.0
C1268 C 0.53148 0.31401 0.62483 0.0
C1269 C 0.53332 0.33821 0.61398 0.0
C1270 C 0.52817 0.35948 0.62995 0.0
C1271 C 0.52122 0.35717 0.65592 0.0
C1272 C 0.51481 0.38285 0.66842 0.0
C1273 C 0.48524 0.38264 0.67895 0.0
C1274 C 0.53464 0.39044 0.68977 0.0
C1275 C 0.51925 0.39998 0.64543 0.0
C1276 C 0.52727 0.38615 0.6235 0.0
C1277 C 0.533 0.39782 0.59998 0.0
C1278 C 0.53033 0.42424 0.59878 0.0
C1279 C 0.52159 0.43878 0.62082 0.0
C1280 C 0.516 0.42634 0.64444 0.0
H1281 H 0.50561 0.11589 0.64537 0.0
H1282 H 0.46217 0.16265 0.59522 0.0
H1283 H 0.45388 0.12524 0.56602 0.0
H1284 H 0.53464 0.07311 0.59589 0.0
H1285 H 0.52917 0.04563 0.61567 0.0
H1286 H 0.53519 0.07679 0.6306 0.0
H1287 H 0.49034 0.07106 0.65806 0.0
H1288 H 0.48427 0.03991 0.64333 0.0
H1289 H 0.45913 0.0634 0.64208 0.0
H1290 H 0.44752 0.08227 0.54405 0.0
H1291 H 0.44041 0.03661 0.53261 0.0
H1292 H 0.48482 0.01756 0.59924 0.0
C1293 C 0.49427 0.11842 0.62832 0.0
C1294 C 0.48455 0.14236 0.62269 0.0
C1295 C 0.47026 0.1447 0.59982 0.0
C1296 C 0.46538 0.12352 0.58312 0.0
C1297 C 0.47483 0.10017 0.58963 0.0
C1298 C 0.48881 0.09748 0.61177 0.0
C1299 C 0.49457 0.06993 0.61572 0.0
C1300 C 0.52522 0.06615 0.61438 0.0
C1301 C 0.48127 0.06053 0.64131 0.0
C1302 C 0.48101 0.05739 0.59263 0.0
C1303 C 0.47026 0.07522 0.57753 0.0
C1304 C 0.45599 0.06815 0.55562 0.0
C1305 C 0.45209 0.04215 0.5493 0.0
C1306 C 0.46204 0.02353 0.56509 0.0
C1307 C 0.47708 0.03134 0.58676 0.0
H1308 H 0.87928 0.54514 0.62079 0.0
H1309 H 0.91357 0.47441 0.641 0.0
H1310 H 0.93762 0.4723 0.59852 0.0
H1311 H 0.87077 0.5299 0.55364 0.0
H1312 H 0.88081 0.56145 0.54313 0.0
H1313 H 0.86549 0.55719 0.57496 0.0
H1314 H 0.90681 0.58134 0.59525 0.0
H1315 H 0.92213 0.58582 0.56346 0.0
H1316 H 0.94038 0.57073 0.58759 0.0
H1317 H 0.95762 0.47726 0.55252 0.0
H1318 H 0.97428 0.49102 0.50911 0.0
H1319 H 0.92967 0.55971 0.52013 0.0
C1320 C 0.89204 0.5293 0.61658 0.0
C1321 C 0.89389 0.50975 0.63459 0.0
C1322 C 0.91086 0.48935 0.62765 0.0
C1323 C 0.92491 0.48803 0.60347 0.0
C1324 C 0.9223 0.5074 0.5862 0.0
C1325 C 0.90654 0.52782 0.59259 0.0
C1326 C 0.90774 0.54651 0.57079 0.0
C1327 C 0.87952 0.54889 0.55999 0.0
C1328 C 0.92 0.57264 0.57982 0.0
C1329 C 0.92657 0.5334 0.55119 0.0
C1330 C 0.93457 0.51072 0.56029 0.0
C1331 C 0.95158 0.49509 0.54531 0.0
C1332 C 0.96089 0.50299 0.52059 0.0
C1333 C 0.95349 0.52649 0.51112 0.0
C1334 C 0.93595 0.54171 0.52676 0.0
H1335 H 0.16393 1.00063 0.66848 0.0
H1336 H 0.11895 0.93634 0.70267 0.0
H1337 H 0.0976 0.92616 0.66077 0.0
H1338 H 0.11181 0.02052 0.62968 0.0
H1339 H 0.13473 0.02922 0.60308 0.0
H1340 H 0.14644 0.03076 0.63555 0.0
H1341 H 0.18505 1.00105 0.62156 0.0
H1342 H 0.17347 0.99943 0.58903 0.0
H1343 H 0.17681 0.97054 0.60609 0.0
H1344 H 0.08014 0.92439 0.61467 0.0
H1345 H 0.06903 0.93064 0.56929 0.0
H1346 H 0.12723 0.99535 0.56636 0.0
C1347 C 0.14939 0.98452 0.66726 0.0
C1348 C 0.1428 0.96945 0.68887 0.0
C1349 C 0.12423 0.94814 0.6863 0.0
C1350 C 0.112 0.94227 0.66263 0.0
C1351 C 0.11885 0.95775 0.64173 0.0
C1352 C 0.13727 0.97834 0.64389 0.0
C1353 C 0.14146 0.99201 0.61877 0.0
C1354 C 0.1331 0.01976 0.62197 0.0
C1355 C 0.17094 0.99066 0.60824 0.0
C1356 C 0.1222 0.97618 0.6021 0.0
C1357 C 0.10932 0.95647 0.61553 0.0
C1358 C 0.09026 0.9397 0.60397 0.0
C1359 C 0.08417 0.94334 0.57811 0.0
C1360 C 0.09709 0.96359 0.56408 0.0
C1361 C 0.11653 0.97995 0.57641 0.0
H1362 H 0.8436 0.49541 0.83595 0.0
H1363 H 0.92215 0.50392 0.79624 0.0
H1364 H 0.9446 0.4986 0.8376 0.0
H1365 H 0.86217 0.52951 0.89538 0.0
H1366 H 0.84137 0.5086 0.91574 0.0
H1367 H 0.83195 0.51355 0.88316 0.0
H1368 H 0.83096 0.46489 0.8734 0.0
H1369 H 0.84034 0.45974 0.90593 0.0
H1370 H 0.86051 0.44749 0.87895 0.0
H1371 H 0.95824 0.49095 0.88425 0.0
H1372 H 0.96143 0.4812 0.9305 0.0
H1373 H 0.87369 0.47943 0.93922 0.0
C1374 C 0.86553 0.49626 0.8361 0.0
C1375 C 0.88124 0.50016 0.81304 0.0
C1376 C 0.90985 0.50105 0.81381 0.0
C1377 C 0.92272 0.49806 0.8372 0.0
C1378 C 0.90667 0.49427 0.85974 0.0
C1379 C 0.87866 0.49343 0.8593 0.0
C1380 C 0.86594 0.48881 0.88598 0.0
C1381 C 0.84939 0.51147 0.89563 0.0
C1382 C 0.84841 0.46374 0.88606 0.0
C1383 C 0.89107 0.4869 0.9015 0.0
C1384 C 0.91443 0.49013 0.88616 0.0
C1385 C 0.94 0.48852 0.8964 0.0
C1386 C 0.94167 0.4831 0.9228 0.0
C1387 C 0.91792 0.47926 0.9388 0.0
C1388 C 0.89239 0.48172 0.92777 0.0
H1389 H 0.18432 0.03983 0.87689 0.0
H1390 H 0.12964 0.97854 0.84975 0.0
H1391 H 0.10308 0.98087 0.89134 0.0
H1392 H 0.18356 0.02414 0.94399 0.0
H1393 H 0.18316 0.05675 0.9559 0.0
H1394 H 0.19858 0.04939 0.92458 0.0
H1395 H 0.16756 0.08025 0.90353 0.0
H1396 H 0.15221 0.08787 0.93482 0.0
H1397 H 0.13134 0.07631 0.90879 0.0
H1398 H 0.08327 0.98907 0.9377 0.0
H1399 H 0.06893 1.00608 0.98123 0.0
H1400 H 0.13371 0.06475 0.97617 0.0
C1401 C 0.16672 0.02693 0.8797 0.0
C1402 C 0.15945 0.0086 0.86011 0.0
C1403 C 0.136 0.99236 0.86456 0.0
C1404 C 0.12075 0.99358 0.88817 0.0
C1405 C 0.12866 0.01162 0.90719 0.0
C1406 C 0.15083 0.02835 0.90296 0.0
C1407 C 0.15417 0.04694 0.9259 0.0
C1408 C 0.18149 0.04413 0.93832 0.0
C1409 C 0.15113 0.07447 0.91777 0.0
C1410 C 0.13062 0.03799 0.94377 0.0
C1411 C 0.11634 0.01733 0.93286 0.0
C1412 C 0.09422 1.00541 0.94624 0.0
C1413 C 0.08626 0.01509 0.97106 0.0
C1414 C 0.09999 0.03685 0.98219 0.0
C1415 C 0.12257 0.04822 0.96821 0.0
H1416 H 0.63329 0.88804 0.54148 0.0
H1417 H 0.65365 0.92133 0.46715 0.0
H1418 H 0.60684 0.93479 0.46511 0.0
H1419 H 0.56566 0.86532 0.52816 0.0
H1420 H 0.55193 0.87322 0.56006 0.0
H1421 H 0.587 0.86578 0.55555 0.0
H1422 H 0.60168 0.90901 0.57759 0.0
H1423 H 0.56664 0.91644 0.58235 0.0
H1424 H 0.5901 0.93809 0.56548 0.0
H1425 H 0.55629 0.94433 0.47095 0.0
H1426 H 0.50875 0.95126 0.48578 0.0
H1427 H 0.52233 0.91351 0.55686 0.0
C1428 C 0.62819 0.89845 0.52486 0.0
C1429 C 0.64763 0.90327 0.50438 0.0
C1430 C 0.63941 0.91672 0.48294 0.0
C1431 C 0.61272 0.92466 0.48163 0.0
C1432 C 0.59413 0.91929 0.50197 0.0
C1433 C 0.60165 0.9067 0.52332 0.0
C1434 C 0.57798 0.90364 0.54285 0.0
C1435 C 0.57019 0.87531 0.54688 0.0
C1436 C 0.58449 0.91763 0.56859 0.0
C1437 C 0.55601 0.91647 0.52922 0.0
C1438 C 0.56557 0.92524 0.50556 0.0
C1439 C 0.54871 0.93757 0.48951 0.0
C1440 C 0.52163 0.94134 0.49803 0.0
C1441 C 0.51158 0.93302 0.5225 0.0
C1442 C 0.5292 0.92024 0.53806 0.0
H1443 H 0.67687 0.15831 0.01311 0.0
H1444 H 0.70556 0.15603 0.93295 0.0
H1445 H 0.66592 0.12958 0.92152 0.0
H1446 H 0.6445 0.0963 0.01729 0.0
H1447 H 0.61504 0.10673 0.03556 0.0
H1448 H 0.64711 0.12435 0.03825 0.0
H1449 H 0.62531 0.16553 0.02535 0.0
H1450 H 0.5931 0.14813 0.02293 0.0
H1451 H 0.60736 0.16552 0.99578 0.0
H1452 H 0.6253 0.09844 0.91942 0.0
H1453 H 0.57985 0.07687 0.92401 0.0
H1454 H 0.57271 0.10493 1.00361 0.0
C1455 C 0.6758 0.15123 0.99333 0.0
C1456 C 0.69768 0.15559 0.97493 0.0
C1457 C 0.69236 0.14951 0.94858 0.0
C1458 C 0.66902 0.13499 0.94157 0.0
C1459 C 0.6498 0.12823 0.96079 0.0
C1460 C 0.65214 0.13734 0.9859 0.0
C1461 C 0.62685 0.1299 1.00223 0.0
C1462 C 0.6338 0.11333 0.02466 0.0
C1463 C 0.61229 0.15369 0.01215 0.0
C1464 C 0.61033 0.11456 0.98244 0.0
C1465 C 0.62428 0.11348 0.95878 0.0
C1466 C 0.61397 0.09948 0.93773 0.0
C1467 C 0.58829 0.08699 0.94063 0.0
C1468 C 0.57284 0.08905 0.96419 0.0
C1469 C 0.58415 0.10291 0.98542 0.0
H1470 H 0.38214 0.38673 0.99583 0.0
H1471 H 0.3543 0.45272 0.03958 0.0
H1472 H 0.40173 0.46923 0.04371 0.0
H1473 H 0.44448 0.37928 0.02784 0.0
H1474 H 0.46381 0.37174 0.99854 0.0
H1475 H 0.42784 0.36412 1.00064 0.0
H1476 H 0.42148 0.39001 0.95991 0.0
H1477 H 0.45745 0.39745 0.95751 0.0
H1478 H 0.43417 0.42277 0.95909 0.0
H1479 H 0.4531 0.47782 0.04439 0.0
H1480 H 0.50266 0.48182 0.03464 0.0
H1481 H 0.49677 0.41299 0.9862 0.0
C1482 C 0.38611 0.40461 1.00636 0.0
C1483 C 0.36454 0.41775 0.01862 0.0
C1484 C 0.37051 0.44154 0.03139 0.0
C1485 C 0.39743 0.4512 0.03361 0.0
C1486 C 0.41833 0.43731 0.02221 0.0
C1487 C 0.4129 0.41485 1.00822 0.0
C1488 C 0.43885 0.40469 0.99604 0.0
C1489 C 0.44404 0.3784 1.00639 0.0
C1490 C 0.43793 0.40368 0.96638 0.0
C1491 C 0.45971 0.42486 1.00541 0.0
C1492 C 0.44754 0.44325 0.02092 0.0
C1493 C 0.46278 0.46358 0.03213 0.0
C1494 C 0.49099 0.4656 0.0267 0.0
C1495 C 0.50368 0.44772 0.00977 0.0
C1496 C 0.48771 0.42693 0.99932 0.0
H1497 H 0.90766 0.17075 1.00458 0.0
H1498 H 0.85237 0.10597 0.02183 0.0
H1499 H 0.89127 0.07934 0.02598 0.0
H1500 H 0.95936 0.1359 0.96878 0.0
H1501 H 0.98718 0.15476 0.98221 0.0
H1502 H 0.95503 0.16867 0.97882 0.0
H1503 H 0.95307 0.18121 0.02762 0.0
H1504 H 0.98527 0.16749 0.03111 0.0
H1505 H 0.95626 0.15703 0.05098 0.0
H1506 H 0.93611 0.05975 0.03002 0.0
H1507 H 0.98343 0.04916 0.03539 0.0
H1508 H 1.01048 0.12663 0.01723 0.0
C1509 C 0.90356 0.15101 0.00933 0.0
C1510 C 0.8765 0.14063 0.01257 0.0
C1511 C 0.87256 0.1145 0.01855 0.0
C1512 C 0.89465 0.09915 0.02115 0.0
C1513 C 0.92085 0.11002 0.01788 0.0
C1514 C 0.92544 0.13538 0.01223 0.0
C1515 C 0.9557 0.14254 0.01077 0.0
C1516 C 0.96485 0.15097 0.98352 0.0
C1517 C 0.963 0.1633 0.03135 0.0
C1518 C 0.96736 0.11729 0.01673 0.0
C1519 C 0.94683 0.09877 0.02057 0.0
C1520 C 0.95233 0.07409 0.02694 0.0
C1521 C 0.97939 0.06825 0.02992 0.0
C1522 C 1.0009 0.08695 0.02661 0.0
C1523 C 0.99466 0.11176 0.01958 0.0
H1524 H 0.04743 0.14694 0.24092 0.0
H1525 H 0.01741 0.21593 0.21193 0.0
H1526 H 0.01989 0.19722 0.16736 0.0
H1527 H 0.09475 0.13446 0.18792 0.0
H1528 H 0.08868 0.10034 0.18761 0.0
H1529 H 0.08385 0.11879 0.21725 0.0
H1530 H 0.03461 0.0998 0.22225 0.0
H1531 H 0.03926 0.08134 0.19255 0.0
H1532 H 1.01178 0.10254 0.1964 0.0
H1533 H 0.02792 0.17227 0.12603 0.0
H1534 H 0.04 0.14246 0.09013 0.0
H1535 H 0.06343 0.08795 0.14489 0.0
C1536 C 0.04137 0.15797 0.22508 0.0
C1537 C 0.03241 0.18298 0.22969 0.0
C1538 C 0.02443 0.19686 0.20869 0.0
C1539 C 0.02575 0.18634 0.18337 0.0
C1540 C 0.03485 0.16176 0.17936 0.0
C1541 C 0.04243 0.14764 0.1996 0.0
C1542 C 0.05178 0.12174 0.18976 0.0
C1543 C 0.08153 0.11866 0.19601 0.0
C1544 C 0.03325 0.10007 0.2009 0.0
C1545 C 0.04857 0.12361 0.16079 0.0
C1546 C 0.0388 0.14694 0.15536 0.0
C1547 C 0.03531 0.15388 0.13009 0.0
C1548 C 0.04226 0.13678 0.1098 0.0
C1549 C 0.05238 0.11275 0.11464 0.0
C1550 C 0.05522 0.10594 0.14059 0.0
H1551 H 0.03114 0.30824 0.21502 0.0
H1552 H 0.99147 0.33966 0.2843 0.0
H1553 H 0.98231 0.3784 0.26107 0.0
H1554 H 0.06159 0.36799 0.19078 0.0
H1555 H 0.05539 0.35953 0.15746 0.0
H1556 H 0.06044 0.335 0.17994 0.0
H1557 H 0.01447 0.31263 0.16816 0.0
H1558 H 1.0092 0.33715 0.14575 0.0
H1559 H 0.98413 0.33026 0.17117 0.0
H1560 H 0.97689 0.413 0.23066 0.0
H1561 H 0.97422 0.44159 0.19428 0.0
H1562 H 0.01531 0.38742 0.14341 0.0
C1563 C 0.02086 0.32351 0.22524 0.0
C1564 C 1.01222 0.32133 0.25144 0.0
C1565 C 0.99834 0.34126 0.26426 0.0
C1566 C 0.99306 0.36323 0.25123 0.0
C1567 C 1.00152 0.36476 0.22531 0.0
C1568 C 0.015 0.34545 0.21235 0.0
C1569 C 0.02069 0.35154 0.18415 0.0
C1570 C 0.05135 0.35364 0.17771 0.0
C1571 C 1.00625 0.33171 0.16625 0.0
C1572 C 1.00829 0.37728 0.18333 0.0
C1573 C 0.99757 0.38455 0.20738 0.0
C1574 C 0.98526 0.40757 0.21174 0.0
C1575 C 0.98396 0.42373 0.191 0.0
C1576 C 0.99471 0.41676 0.16612 0.0
C1577 C 1.00684 0.3931 0.16222 0.0
H1578 H 0.03543 0.81471 0.22899 0.0
H1579 H 0.07021 0.75307 0.26742 0.0
H1580 H 0.07556 0.78078 0.30678 0.0
H1581 H 0.07512 0.86821 0.25966 0.0
H1582 H 0.04647 0.88811 0.2623 0.0
H1583 H 0.04921 0.86473 0.23616 0.0
H1584 H 1.00179 0.84494 0.24954 0.0
H1585 H 0.99894 0.86808 0.27581 0.0
H1586 H 0.99539 0.83454 0.28212 0.0
H1587 H 0.07371 0.81376 0.34248 0.0
H1588 H 0.06344 0.84928 0.37308 0.0
H1589 H 0.02756 0.88873 0.31195 0.0
C1590 C 0.04465 0.80736 0.2456 0.0
C1591 C 0.05266 0.78206 0.24546 0.0
C1592 C 0.06425 0.77261 0.26741 0.0
C1593 C 0.06735 0.78816 0.28969 0.0
C1594 C 0.05859 0.81293 0.28952 0.0
C1595 C 0.04743 0.82247 0.26808 0.0
C1596 C 0.03724 0.84879 0.27369 0.0
C1597 C 0.05296 0.86863 0.25696 0.0
C1598 C 1.00652 0.84909 0.27009 0.0
C1599 C 0.04392 0.85238 0.30182 0.0
C1600 C 0.05663 0.83166 0.31043 0.0
C1601 C 0.06405 0.83022 0.33592 0.0
C1602 C 0.05821 0.8505 0.35311 0.0
C1603 C 0.04482 0.87173 0.34477 0.0
C1604 C 0.03772 0.87267 0.31877 0.0
H1605 H 0.99851 0.62396 0.25648 0.0
H1606 H 0.06995 0.67186 0.27426 0.0
H1607 H 0.07098 0.65255 0.31679 0.0
H1608 H 0.96681 0.62703 0.31948 0.0
H1609 H 0.95379 0.59435 0.31895 0.0
H1610 H 0.95928 0.61087 0.28916 0.0
H1611 H 0.99011 0.57549 0.27117 0.0
H1612 H 0.98471 0.55887 0.30094 0.0
H1613 H 0.01868 0.56742 0.28917 0.0
H1614 H 0.06223 0.63117 0.3588 0.0
H1615 H 0.04525 0.6072 0.39699 0.0
H1616 H 0.98099 0.57111 0.35222 0.0
C1617 C 0.01446 0.63024 0.26927 0.0
C1618 C 0.03432 0.64932 0.2618 0.0
C1619 C 0.05483 0.65697 0.27919 0.0
C1620 C 0.05551 0.64621 0.30352 0.0
C1621 C 0.03567 0.62758 0.31029 0.0
C1622 C 0.01562 0.61945 0.29365 0.0
C1623 C 0.99647 0.5994 0.30608 0.0
C1624 C 0.96737 0.60846 0.30857 0.0
C1625 C 0.99757 0.57377 0.29094 0.0
C1626 C 1.00862 0.59792 0.33241 0.0
C1627 C 0.03119 0.61444 0.33439 0.0
C1628 C 0.0449 0.61783 0.35733 0.0
C1629 C 0.03518 0.60416 0.37888 0.0
C1630 C 1.01228 0.58701 0.37725 0.0
C1631 C 0.99898 0.58366 0.35367 0.0
H1632 H 0.20779 0.01327 0.18321 0.0
H1633 H 0.27843 0.05169 0.14698 0.0
H1634 H 0.25022 0.06596 0.11248 0.0
H1635 H 0.17825 0.9906 0.12296 0.0
H1636 H 0.14384 0.99452 0.13473 0.0
H1637 H 0.16946 0.9879 0.15692 0.0
H1638 H 0.15807 0.02838 0.18437 0.0
H1639 H 0.13243 0.03511 0.16228 0.0
H1640 H 0.15908 0.05877 0.16917 0.0
H1641 H 0.2136 0.07795 0.08302 0.0
H1642 H 0.17218 0.08372 0.05905 0.0
H1643 H 0.12602 0.03465 0.1123 0.0
C1644 C 0.2172 0.02473 0.168 0.0
C1645 C 0.24515 0.03193 0.16806 0.0
C1646 C 0.25692 0.0465 0.14758 0.0
C1647 C 0.24108 0.05459 0.12787 0.0
C1648 C 0.21351 0.04751 0.12851 0.0
C1649 C 0.20171 0.03261 0.14785 0.0
C1650 C 0.17177 0.02707 0.14357 0.0
C1651 C 0.16547 0.99831 0.13929 0.0
C1652 C 0.15431 0.03799 0.16619 0.0
C1653 C 0.16854 0.04137 0.11901 0.0
C1654 C 0.1928 0.05322 0.11075 0.0
C1655 C 0.19456 0.06848 0.08915 0.0
C1656 C 0.17094 0.07169 0.07565 0.0
C1657 C 0.14594 0.05938 0.08352 0.0
C1658 C 0.14492 0.04395 0.10547 0.0
H1659 H 0.82153 0.47273 0.21086 0.0
H1660 H 0.76182 0.51121 0.16984 0.0
H1661 H 0.79127 0.50922 0.12995 0.0
H1662 H 0.8803 0.50385 0.18021 0.0
H1663 H 0.89991 0.47587 0.17956 0.0
H1664 H 0.8739 0.48028 0.20447 0.0
H1665 H 0.85107 0.43638 0.19171 0.0
H1666 H 0.87701 0.43189 0.16674 0.0
H1667 H 0.84182 0.42998 0.15874 0.0
H1668 H 0.82803 0.50168 0.09353 0.0
H1669 H 0.86869 0.49152 0.06594 0.0
H1670 H 0.90381 0.45909 0.13186 0.0
C1671 C 0.81452 0.48063 0.19347 0.0
C1672 C 0.78923 0.49209 0.19358 0.0
C1673 C 0.78116 0.50254 0.1704 0.0
C1674 C 0.79772 0.50135 0.14756 0.0
C1675 C 0.8225 0.48982 0.14813 0.0
C1676 C 0.83088 0.47982 0.17063 0.0
C1677 C 0.85853 0.46885 0.1665 0.0
C1678 C 0.87939 0.48307 0.1837 0.0
C1679 C 0.857 0.44007 0.1712 0.0
C1680 C 0.86446 0.47412 0.13819 0.0
C1681 C 0.84348 0.48608 0.12773 0.0
C1682 C 0.84458 0.49242 0.10166 0.0
C1683 C 0.86774 0.48654 0.08607 0.0
C1684 C 0.88963 0.47464 0.09661 0.0
C1685 C 0.88764 0.46837 0.12306 0.0
H1686 H 0.19967 0.9707 0.29935 0.0
H1687 H 0.25625 0.01491 0.34702 0.0
H1688 H 0.22548 0.008 0.3853 0.0
H1689 H 0.13885 0.99258 0.33069 0.0
H1690 H 0.12063 0.96207 0.32781 0.0
H1691 H 0.14716 0.97065 0.30435 0.0
H1692 H 0.17148 0.92965 0.31365 0.0
H1693 H 0.14504 0.92099 0.33718 0.0
H1694 H 0.17986 0.9236 0.34632 0.0
H1695 H 0.18798 0.99589 0.41869 0.0
H1696 H 0.14686 0.98047 0.44366 0.0
H1697 H 0.11579 0.94381 0.37381 0.0
C1698 C 0.20574 0.9788 0.31785 0.0
C1699 C 0.23041 0.99342 0.3201 0.0
C1700 C 0.2373 1.00396 0.34468 0.0
C1701 C 0.22003 0.99998 0.36659 0.0
C1702 C 0.1959 0.9854 0.36367 0.0
C1703 C 0.18877 0.97502 0.33987 0.0
C1704 C 0.16167 0.96026 0.34176 0.0
C1705 C 0.14085 0.97211 0.32517 0.0
C1706 C 0.16471 0.93195 0.33429 0.0
C1707 C 0.15461 0.96395 0.37033 0.0
C1708 C 0.17458 0.97845 0.38272 0.0
C1709 C 0.17226 0.98448 0.40916 0.0
C1710 C 0.14886 0.97561 0.42321 0.0
C1711 C 0.12808 0.96088 0.41077 0.0
C1712 C 0.13126 0.95496 0.38399 0.0
H1713 H 0.78939 0.50249 0.37752 0.0
H1714 H 0.81369 0.53368 0.30325 0.0
H1715 H 0.85798 0.54859 0.32034 0.0
H1716 H 0.82182 0.55071 0.41766 0.0
H1717 H 0.83264 0.52892 0.44077 0.0
H1718 H 0.80263 0.52111 0.42299 0.0
H1719 H 0.82246 0.47863 0.40636 0.0
H1720 H 0.85241 0.48617 0.42432 0.0
H1721 H 0.85541 0.47916 0.39004 0.0
H1722 H 0.89857 0.56129 0.34571 0.0
H1723 H 0.93533 0.56733 0.3766 0.0
H1724 H 0.88648 0.52517 0.43365 0.0
C1725 C 0.80423 0.51221 0.36487 0.0
C1726 C 0.79838 0.51695 0.33908 0.0
C1727 C 0.81801 0.52992 0.32305 0.0
C1728 C 0.84309 0.53847 0.3326 0.0
C1729 C 0.84825 0.5336 0.35814 0.0
C1730 C 0.8296 0.52044 0.37396 0.0
C1731 C 0.8407 0.51698 0.40038 0.0
C1732 C 0.82341 0.53023 0.42171 0.0
C1733 C 0.84288 0.48855 0.40557 0.0
C1734 C 0.86845 0.5304 0.39699 0.0
C1735 C 0.87219 0.5401 0.37253 0.0
C1736 C 0.89594 0.55368 0.36484 0.0
C1737 C 0.9166 0.5571 0.38247 0.0
C1738 C 0.91345 0.54678 0.40728 0.0
C1739 C 0.88913 0.53331 0.41473 0.0
H1740 H 0.20449 0.28764 0.99769 0.0
H1741 H 0.276 0.25653 0.02707 0.0
H1742 H 0.25092 0.21466 0.03202 0.0
H1743 H 0.15696 0.25682 0.03939 0.0
H1744 H 0.13139 0.25122 0.01578 0.0
H1745 H 0.15554 0.27789 0.01283 0.0
H1746 H 0.17007 0.26205 0.96661 0.0
H1747 H 0.14566 0.2355 0.96924 0.0
H1748 H 0.18078 0.22995 0.96147 0.0
H1749 H 0.21658 0.17726 0.03643 0.0
H1750 H 0.17699 0.14643 0.03711 0.0
H1751 H 0.12853 0.20256 1.00422 0.0
C1752 C 0.21503 0.27173 1.0044 0.0
C1753 C 0.24226 0.27484 0.0114 0.0
C1754 C 0.25527 0.25409 0.02111 0.0
C1755 C 0.24116 0.23042 0.02408 0.0
C1756 C 0.21414 0.228 0.01722 0.0
C1757 C 0.20134 0.24805 1.00731 0.0
C1758 C 0.17202 0.24088 1.00211 0.0
C1759 C 0.15286 0.2577 0.01851 0.0
C1760 C 0.16684 0.24216 0.97313 0.0
C1761 C 0.17016 0.21371 0.01089 0.0
C1762 C 0.19458 0.20661 0.01963 0.0
C1763 C 0.19743 0.18258 0.02944 0.0
C1764 C 0.17479 0.16528 0.02996 0.0
C1765 C 0.14974 0.1721 0.02064 0.0
C1766 C 0.14752 0.19669 0.01112 0.0
H1767 H 0.18071 0.79854 0.51231 0.0
H1768 H 0.15746 0.74687 0.44901 0.0
H1769 H 0.12433 0.77704 0.43618 0.0
H1770 H 0.1131 0.82196 0.52804 0.0
H1771 H 0.12552 0.85427 0.5347 0.0
H1772 H 0.1466 0.82815 0.53999 0.0
H1773 H 0.18445 0.84838 0.51006 0.0
H1774 H 0.1635 0.87455 0.50471 0.0
H1775 H 0.17685 0.85604 0.47759 0.0
H1776 H 0.09454 0.81297 0.42917 0.0
H1777 H 0.071 0.85288 0.42744 0.0
H1778 H 0.11312 0.88291 0.49471 0.0
C1779 C 0.16839 0.79347 0.49596 0.0
C1780 C 0.1718 0.77018 0.48168 0.0
C1781 C 0.1555 0.76455 0.46015 0.0
C1782 C 0.13647 0.78156 0.45277 0.0
C1783 C 0.13382 0.80437 0.467 0.0
C1784 C 0.14934 0.81047 0.48811 0.0
C1785 C 0.1431 0.83686 0.49928 0.0
C1786 C 0.13138 0.8352 0.52716 0.0
C1787 C 0.16849 0.85503 0.49782 0.0
C1788 C 0.12179 0.84463 0.48107 0.0
C1789 C 0.1167 0.82543 0.46274 0.0
C1790 C 0.0983 0.82808 0.4435 0.0
C1791 C 0.08496 0.85094 0.44271 0.0
C1792 C 0.08995 0.87124 0.46097 0.0
C1793 C 0.10856 0.8678 0.48058 0.0
H1794 H 0.86355 0.76779 0.47919 0.0
H1795 H 0.81155 0.73553 0.54044 0.0
H1796 H 0.83828 0.69688 0.53853 0.0
H1797 H 0.87316 0.7103 0.44216 0.0
H1798 H 0.90825 0.71804 0.43351 0.0
H1799 H 0.88525 0.74315 0.44001 0.0
H1800 H 0.9166 0.76309 0.47494 0.0
H1801 H 0.93979 0.73814 0.46842 0.0
H1802 H 0.92618 0.74381 0.50082 0.0
H1803 H 0.86954 0.6602 0.52763 0.0
H1804 H 0.90526 0.63121 0.51207 0.0
H1805 H 0.93789 0.68858 0.45966 0.0
C1806 C 0.85788 0.75263 0.49228 0.0
C1807 C 0.8354 0.75468 0.50996 0.0
C1808 C 0.8288 0.73449 0.52691 0.0
C1809 C 0.84377 0.71239 0.52583 0.0
C1810 C 0.86559 0.71084 0.50792 0.0
C1811 C 0.87286 0.73064 0.49174 0.0
C1812 C 0.89745 0.72454 0.47457 0.0
C1813 C 0.89061 0.72397 0.44587 0.0
C1814 C 0.92142 0.74352 0.48002 0.0
C1815 C 0.90277 0.69811 0.48339 0.0
C1816 C 0.88404 0.69037 0.50245 0.0
C1817 C 0.88443 0.66623 0.51288 0.0
C1818 C 0.90467 0.64982 0.50386 0.0
C1819 C 0.9245 0.65769 0.48485 0.0
C1820 C 0.9233 0.68216 0.4745 0.0
H1821 H 0.30217 0.80201 0.50137 0.0
H1822 H 0.34223 0.74771 0.54563 0.0
H1823 H 0.37818 0.78053 0.55588 0.0
H1824 H 0.36435 0.83282 0.47408 0.0
H1825 H 0.35108 0.86414 0.47548 0.0
H1826 H 0.32851 0.83636 0.4715 0.0
H1827 H 0.29983 0.85068 0.51194 0.0
H1828 H 0.32225 0.87851 0.51599 0.0
H1829 H 0.31609 0.85698 0.54216 0.0
H1830 H 0.40804 0.8197 0.56352 0.0
H1831 H 0.43138 0.8624 0.56628 0.0
H1832 H 0.37387 0.89081 0.51472 0.0
C1833 C 0.31857 0.79719 0.51319 0.0
C1834 C 0.31934 0.77262 0.52315 0.0
C1835 C 0.3412 0.76665 0.53825 0.0
C1836 C 0.36171 0.78509 0.54405 0.0
C1837 C 0.3603 0.80926 0.5342 0.0
C1838 C 0.33947 0.81532 0.51889 0.0
C1839 C 0.34295 0.84274 0.51071 0.0
C1840 C 0.34697 0.84409 0.48119 0.0
C1841 C 0.31885 0.85813 0.52081 0.0
C1842 C 0.36869 0.85122 0.52417 0.0
C1843 C 0.3783 0.83161 0.53767 0.0
C1844 C 0.40094 0.83514 0.55276 0.0
C1845 C 0.41404 0.85943 0.55424 0.0
C1846 C 0.40463 0.87977 0.54048 0.0
C1847 C 0.38183 0.87547 0.52504 0.0
H1848 H 0.53765 0.70191 0.72748 0.0
H1849 H 0.50562 0.65149 0.78699 0.0
H1850 H 0.50564 0.61508 0.75537 0.0
H1851 H 0.50142 0.6718 0.67389 0.0
H1852 H 0.52961 0.67595 0.65094 0.0
H1853 H 0.52584 0.69819 0.67795 0.0
H1854 H 0.57419 0.68966 0.69175 0.0
H1855 H 0.57809 0.6674 0.66478 0.0
H1856 H 0.58283 0.65744 0.69715 0.0
H1857 H 0.50947 0.58388 0.717 0.0
H1858 H 0.51867 0.56029 0.67562 0.0
H1859 H 0.54983 0.63068 0.64139 0.0
C1860 C 0.53038 0.68322 0.73367 0.0
C1861 C 0.52101 0.67957 0.75951 0.0
C1862 C 0.51227 0.65475 0.76714 0.0
C1863 C 0.51232 0.63396 0.74933 0.0
C1864 C 0.52151 0.63816 0.72394 0.0
C1865 C 0.53054 0.66215 0.71614 0.0
C1866 C 0.54037 0.66128 0.68798 0.0
C1867 C 0.52329 0.67778 0.67173 0.0
C1868 C 0.57067 0.66942 0.68527 0.0
C1869 C 0.53545 0.63312 0.68117 0.0
C1870 C 0.52442 0.62012 0.70213 0.0
C1871 C 0.51812 0.5939 0.70047 0.0
C1872 C 0.52339 0.58063 0.67685 0.0
C1873 C 0.53501 0.5935 0.65517 0.0
C1874 C 0.54097 0.62016 0.65753 0.0
H1875 H 0.48561 0.8422 0.76458 0.0
H1876 H 0.54568 0.79819 0.7221 0.0
H1877 H 0.5402 0.82346 0.68348 0.0
H1878 H 0.44135 0.84692 0.71283 0.0
H1879 H 0.43253 0.87902 0.72158 0.0
H1880 H 0.4421 0.85818 0.74608 0.0
H1881 H 0.47987 0.8913 0.75997 0.0
H1882 H 0.47034 0.91231 0.73556 0.0
H1883 H 0.5048 0.90282 0.73618 0.0
H1884 H 0.52637 0.85237 0.64883 0.0
H1885 H 0.50702 0.88417 0.62174 0.0
H1886 H 0.45598 0.90861 0.68717 0.0
C1887 C 0.49763 0.83791 0.74716 0.0
C1888 C 0.51609 0.81828 0.74631 0.0
C1889 C 0.53167 0.81339 0.72324 0.0
C1890 C 0.52857 0.82751 0.70118 0.0
C1891 C 0.50993 0.84653 0.70258 0.0
C1892 C 0.49488 0.85185 0.72505 0.0
C1893 C 0.47606 0.87309 0.7215 0.0
C1894 C 0.44625 0.86373 0.72574 0.0
C1895 C 0.48321 0.89625 0.73936 0.0
C1896 C 0.48268 0.87875 0.69345 0.0
C1897 C 0.50221 0.86323 0.68282 0.0
C1898 C 0.51114 0.8647 0.65699 0.0
C1899 C 0.49992 0.88267 0.64171 0.0
C1900 C 0.4801 0.89894 0.65238 0.0
C1901 C 0.47141 0.89677 0.67857 0.0
H1902 H 0.53193 0.34551 0.76305 0.0
H1903 H 0.592 0.29462 0.78656 0.0
H1904 H 0.60729 0.32659 0.81932 0.0
H1905 H 0.5718 0.40747 0.77794 0.0
H1906 H 0.54151 0.42239 0.78982 0.0
H1907 H 0.53972 0.39836 0.76415 0.0
H1908 H 0.50321 0.37249 0.7911 0.0
H1909 H 0.50501 0.39622 0.81683 0.0
H1910 H 0.51058 0.36345 0.82321 0.0
H1911 H 0.61001 0.35927 0.85422 0.0
H1912 H 0.59991 0.39025 0.8892 0.0
H1913 H 0.53813 0.42071 0.84358 0.0
C1914 C 0.54869 0.34136 0.77475 0.0
C1915 C 0.56087 0.3177 0.77224 0.0
C1916 C 0.58271 0.31285 0.78786 0.0
C1917 C 0.59156 0.33089 0.8065 0.0
C1918 C 0.57851 0.35371 0.80908 0.0
C1919 C 0.55767 0.35912 0.79351 0.0
C1920 C 0.5446 0.38342 0.80249 0.0
C1921 C 0.54973 0.40414 0.7824 0.0
C1922 C 0.51406 0.37858 0.80879 0.0
C1923 C 0.56011 0.38983 0.82658 0.0
C1924 C 0.58004 0.37285 0.82962 0.0
C1925 C 0.59501 0.37316 0.85175 0.0
C1926 C 0.58907 0.39093 0.87159 0.0
C1927 C 0.56817 0.40808 0.86923 0.0
C1928 C 0.55413 0.40788 0.84607 0.0
H1929 H 0.50097 0.14909 0.76972 0.0
H1930 H 0.5405 0.21947 0.79796 0.0
H1931 H 0.54324 0.20116 0.84117 0.0
H1932 H 0.46053 0.13632 0.827 0.0
H1933 H 0.46359 0.10228 0.82494 0.0
H1934 H 0.46594 0.12037 0.79597 0.0
H1935 H 0.51273 0.10236 0.78395 0.0
H1936 H 0.51053 0.0842 0.8129 0.0
H1937 H 0.53932 0.10593 0.80674 0.0
H1938 H 0.53883 0.17659 0.88165 0.0
H1939 H 0.52905 0.14692 0.91703 0.0
H1940 H 0.49374 0.09101 0.86302 0.0
C1941 C 0.51041 0.16043 0.78505 0.0
C1942 C 0.52059 0.18566 0.78075 0.0
C1943 C 0.53269 0.20012 0.80105 0.0
C1944 C 0.53431 0.18986 0.82556 0.0
C1945 C 0.52387 0.16501 0.82937 0.0
C1946 C 0.51229 0.15038 0.80967 0.0
C1947 C 0.50203 0.12443 0.81921 0.0
C1948 C 0.47119 0.12064 0.81663 0.0
C1949 C 0.51706 0.10296 0.80484 0.0
C1950 C 0.5094 0.12685 0.84741 0.0
C1951 C 0.52192 0.15049 0.85276 0.0
C1952 C 0.52934 0.15793 0.87763 0.0
C1953 C 0.52362 0.14095 0.89762 0.0
C1954 C 0.51085 0.11658 0.89277 0.0
C1955 C 0.50397 0.10932 0.8672 0.0
H1956 H 0.74906 0.54235 0.66034 0.0
H1957 H 0.71559 0.4961 0.72281 0.0
H1958 H 0.67021 0.49659 0.70469 0.0
H1959 H 0.69069 0.58259 0.65899 0.0
H1960 H 0.69301 0.58542 0.62438 0.0
H1961 H 0.72308 0.58102 0.64183 0.0
H1962 H 0.73306 0.54137 0.61262 0.0
H1963 H 0.7029 0.54552 0.59523 0.0
H1964 H 0.70763 0.51565 0.61005 0.0
H1965 H 0.62932 0.49997 0.67899 0.0
H1966 H 0.59354 0.50984 0.65005 0.0
H1967 H 0.65126 0.55762 0.60553 0.0
C1968 C 0.73206 0.53264 0.67034 0.0
C1969 C 0.73583 0.51914 0.69305 0.0
C1970 C 0.71316 0.50645 0.70541 0.0
C1971 C 0.68733 0.50662 0.69524 0.0
C1972 C 0.68429 0.51995 0.67284 0.0
C1973 C 0.70586 0.53312 0.66072 0.0
C1974 C 0.69657 0.54658 0.63732 0.0
C1975 C 0.70111 0.57563 0.64084 0.0
C1976 C 0.7109 0.53668 0.61233 0.0
C1977 C 0.66648 0.53866 0.63807 0.0
C1978 C 0.66009 0.52303 0.65859 0.0
C1979 C 0.63403 0.51238 0.66301 0.0
C1980 C 0.61382 0.51804 0.64628 0.0
C1981 C 0.61943 0.53457 0.62543 0.0
C1982 C 0.64624 0.54504 0.62133 0.0
H1983 H 0.31506 0.98882 0.71073 0.0
H1984 H 0.24072 0.99856 0.67193 0.0
H1985 H 0.26511 0.9925 0.62936 0.0
H1986 H 0.36077 0.02072 0.66418 0.0
H1987 H 0.38717 0.9988 0.66732 0.0
H1988 H 0.36381 1.00493 0.69418 0.0
H1989 H 0.35113 0.95657 0.69649 0.0
H1990 H 0.37448 0.95034 0.66968 0.0
H1991 H 0.33944 0.93931 0.66807 0.0
H1992 H 0.29941 0.98418 0.58985 0.0
H1993 H 0.33838 0.97399 0.55975 0.0
H1994 H 0.38872 0.96924 0.62578 0.0
C1995 C 0.30395 0.98975 0.69325 0.0
C1996 C 0.27594 0.99414 0.69469 0.0
C1997 C 0.26218 0.99527 0.67132 0.0
C1998 C 0.27591 0.99181 0.64703 0.0
C1999 C 0.30356 0.98722 0.64626 0.0
C2000 C 0.31732 0.9862 0.66892 0.0
C2001 C 0.34671 0.98043 0.66321 0.0
C2002 C 0.36573 1.00254 0.67279 0.0
C2003 C 0.35332 0.95516 0.67506 0.0
C2004 C 0.34748 0.97821 0.6339 0.0
C2005 C 0.32257 0.98228 0.62421 0.0
C2006 C 0.31896 0.98099 0.59743 0.0
C2007 C 0.34123 0.97523 0.58037 0.0
C2008 C 0.36682 0.97064 0.59009 0.0
C2009 C 0.3696 0.97243 0.61732 0.0
H2010 H 0.71568 0.48057 0.82592 0.0
H2011 H 0.77379 0.53202 0.86429 0.0
H2012 H 0.74551 0.52953 0.90485 0.0
H2013 H 0.65617 0.50483 0.85683 0.0
H2014 H 0.63867 0.47396 0.85882 0.0
H2015 H 0.66376 0.47989 0.83325 0.0
H2016 H 0.6898 0.44132 0.84692 0.0
H2017 H 0.66477 0.43537 0.87257 0.0
H2018 H 0.70006 0.43995 0.8798 0.0
H2019 H 0.70947 0.52098 0.94197 0.0
H2020 H 0.6694 0.50829 0.97023 0.0
H2021 H 0.63677 0.46224 0.90655 0.0
C2022 C 0.7227 0.49114 0.84287 0.0
C2023 C 0.74707 0.50647 0.84179 0.0
C2024 C 0.75507 0.52036 0.86445 0.0
C2025 C 0.73922 0.51891 0.88767 0.0
C2026 C 0.71533 0.50351 0.88803 0.0
C2027 C 0.70718 0.48993 0.8661 0.0
C2028 C 0.68058 0.47504 0.87114 0.0
C2029 C 0.6585 0.48398 0.854 0.0
C2030 C 0.68402 0.44621 0.86739 0.0
C2031 C 0.67491 0.48236 0.89929 0.0
C2032 C 0.69508 0.49872 0.90891 0.0
C2033 C 0.69363 0.50811 0.93455 0.0
C2034 C 0.67085 0.50077 0.95052 0.0
C2035 C 0.64985 0.48428 0.94074 0.0
C2036 C 0.65232 0.47491 0.91482 0.0
H2037 H 0.33499 0.00853 0.84816 0.0
H2038 H 0.28456 0.07151 0.87017 0.0
H2039 H 0.31775 0.08697 0.90219 0.0
H2040 H 0.35714 0.99731 0.91291 0.0
H2041 H 0.39077 0.98977 0.90136 0.0
H2042 H 0.36243 0.98319 0.88099 0.0
H2043 H 0.38668 0.0101 0.84502 0.0
H2044 H 0.41507 0.01667 0.86524 0.0
H2045 H 0.39798 0.04261 0.85242 0.0
H2046 H 0.35796 0.09666 0.93049 0.0
H2047 H 0.40198 0.09993 0.95178 0.0
H2048 H 0.42455 0.0297 0.91186 0.0
C2049 C 0.33064 0.02533 0.85999 0.0
C2050 C 0.30714 0.0388 0.8566 0.0
C2051 C 0.30259 0.06103 0.87216 0.0
C2052 C 0.32121 0.06985 0.89056 0.0
C2053 C 0.34421 0.05615 0.89331 0.0
C2054 C 0.34892 0.03433 0.87846 0.0
C2055 C 0.37562 0.02357 0.88443 0.0
C2056 C 0.37122 0.99688 0.89559 0.0
C2057 C 0.39497 0.02323 0.86035 0.0
C2058 C 0.3854 0.04292 0.90468 0.0
C2059 C 0.36702 0.06153 0.9097 0.0
C2060 C 0.37239 0.08203 0.9269 0.0
C2061 C 0.3974 0.08372 0.93894 0.0
C2062 C 0.41666 0.06502 0.93365 0.0
C2063 C 0.41022 0.04421 0.9166 0.0
H2064 H 0.71203 0.75133 0.53837 0.0
H2065 H 0.64893 0.79513 0.50921 0.0
H2066 H 0.6147 0.76041 0.52025 0.0
H2067 H 0.68712 0.69039 0.51572 0.0
H2068 H 0.69694 0.67431 0.54374 0.0
H2069 H 0.71545 0.70293 0.53384 0.0
H2070 H 0.70667 0.72336 0.57954 0.0
H2071 H 0.68774 0.69489 0.58946 0.0
H2072 H 0.67236 0.72525 0.59241 0.0
H2073 H 0.58782 0.71932 0.53367 0.0
H2074 H 0.57203 0.67523 0.54513 0.0
H2075 H 0.65313 0.66057 0.56691 0.0
C2076 C 0.69098 0.75347 0.53428 0.0
C2077 C 0.68291 0.77557 0.52285 0.0
C2078 C 0.6553 0.77806 0.51781 0.0
C2079 C 0.63581 0.75858 0.52419 0.0
C2080 C 0.64438 0.73701 0.53582 0.0
C2081 C 0.67138 0.73443 0.54072 0.0
C2082 C 0.67574 0.70934 0.55274 0.0
C2083 C 0.69493 0.6933 0.53547 0.0
C2084 C 0.68624 0.71347 0.58017 0.0
C2085 C 0.6471 0.69784 0.55337 0.0
C2086 C 0.62911 0.71403 0.5438 0.0
C2087 C 0.60172 0.70661 0.54141 0.0
C2088 C 0.59284 0.6817 0.54813 0.0
C2089 C 0.61141 0.66468 0.55686 0.0
C2090 C 0.63855 0.67327 0.56026 0.0
H2091 H 0.67985 0.29335 0.96445 0.0
H2092 H 0.69529 0.2988 0.04649 0.0
H2093 H 0.66686 0.33557 0.05156 0.0
H2094 H 0.68282 0.36134 0.95547 0.0
H2095 H 0.65625 0.36028 0.93265 0.0
H2096 H 0.67674 0.33321 0.9352 0.0
H2097 H 0.63343 0.30439 0.94364 0.0
H2098 H 0.61284 0.33143 0.94123 0.0
H2099 H 0.60995 0.31269 0.96979 0.0
H2100 H 0.6382 0.37251 0.04839 0.0
H2101 H 0.61206 0.40861 0.03672 0.0
H2102 H 0.61467 0.38159 0.95651 0.0
C2103 C 0.67727 0.30222 0.9835 0.0
C2104 C 0.68963 0.29244 1.00516 0.0
C2105 C 0.68557 0.305 0.02965 0.0
C2106 C 0.66954 0.3262 0.03275 0.0
C2107 C 0.65757 0.3351 0.01122 0.0
C2108 C 0.66126 0.32369 0.987 0.0
C2109 C 0.64661 0.33793 0.96703 0.0
C2110 C 0.66681 0.34884 0.94636 0.0
C2111 C 0.62439 0.32057 0.9547 0.0
C2112 C 0.63437 0.35914 0.98386 0.0
C2113 C 0.64096 0.35693 0.0093 0.0
C2114 C 0.63281 0.37439 0.02854 0.0
C2115 C 0.6179 0.3949 0.02168 0.0
C2116 C 0.61105 0.39804 0.99572 0.0
C2117 C 0.61919 0.37961 0.97659 0.0
H2118 H 0.35931 0.26441 0.98504 0.0
H2119 H 0.40308 0.31112 0.04174 0.0
H2120 H 0.43754 0.2788 0.04244 0.0
H2121 H 0.36997 0.20471 0.01251 0.0
H2122 H 0.37386 0.18746 0.98199 0.0
H2123 H 0.35353 0.21494 0.98455 0.0
H2124 H 0.3825 0.23563 0.94731 0.0
H2125 H 0.40297 0.20821 0.94466 0.0
H2126 H 0.41874 0.23957 0.94978 0.0
H2127 H 0.46669 0.24152 0.03771 0.0
H2128 H 0.48772 0.20055 0.02994 0.0
H2129 H 0.42462 0.17618 0.97739 0.0
C2130 C 0.37638 0.26795 0.99732 0.0
C2131 C 0.3786 0.29038 0.01328 0.0
C2132 C 0.40092 0.29408 0.02946 0.0
C2133 C 0.42066 0.27589 0.02987 0.0
C2134 C 0.41779 0.25396 0.01407 0.0
C2135 C 0.39618 0.2498 0.99816 0.0
C2136 C 0.39733 0.22394 0.9841 0.0
C2137 C 0.37218 0.20675 0.99122 0.0
C2138 C 0.40058 0.22703 0.95472 0.0
C2139 C 0.42279 0.2141 0.99483 0.0
C2140 C 0.43434 0.23194 0.01185 0.0
C2141 C 0.45775 0.22738 0.02451 0.0
C2142 C 0.46945 0.20385 0.02008 0.0
C2143 C 0.45772 0.18479 1.00331 0.0
C2144 C 0.43423 0.19028 0.99019 0.0
H2145 H 0.81643 0.31655 0.01594 0.0
H2146 H 0.85434 0.25674 0.05444 0.0
H2147 H 0.89107 0.28748 0.06794 0.0
H2148 H 0.87843 0.34437 0.98983 0.0
H2149 H 0.86778 0.37665 0.9928 0.0
H2150 H 0.84302 0.35063 0.98862 0.0
H2151 H 0.81687 0.36534 0.03048 0.0
H2152 H 0.84146 0.39151 0.03469 0.0
H2153 H 0.83447 0.3694 0.06023 0.0
H2154 H 0.92381 0.32542 0.07741 0.0
H2155 H 0.95131 0.36637 0.07887 0.0
H2156 H 0.89418 0.3994 0.03012 0.0
C2157 C 0.83226 0.31013 0.02757 0.0
C2158 C 0.83222 0.28454 0.03481 0.0
C2159 C 0.85367 0.2765 0.04936 0.0
C2160 C 0.87467 0.29377 0.05698 0.0
C2161 C 0.87426 0.3189 0.04939 0.0
C2162 C 0.85375 0.32697 0.03475 0.0
C2163 C 0.85907 0.35443 0.02744 0.0
C2164 C 0.86227 0.35664 0.99792 0.0
C2165 C 0.83663 0.37115 0.0389 0.0
C2166 C 0.88567 0.36055 0.04028 0.0
C2167 C 0.89399 0.33999 0.05319 0.0
C2168 C 0.91761 0.34158 0.06716 0.0
C2169 C 0.93311 0.36483 0.06789 0.0
C2170 C 0.92514 0.38586 0.05426 0.0
C2171 C 0.90113 0.38351 0.04031 0.0
loop_
_geom_bond_atom_site_label_1
_geom_bond_atom_site_label_2
_geom_bond_distance
_geom_bond_site_symmetry_2
_ccdc_geom_bond_type
C0 C1 1.443 . S
C0 N4 1.376 . S
C0 C38 1.389 1_655 S
C1 C0 1.443 . S
C1 C2 1.340 . S
C1 H41 0.951 . S
C2 C1 1.340 . S
C2 C3 1.439 . S
C2 H42 0.950 . S
C3 C2 1.439 . S
C3 N4 1.374 . S
C3 C37 1.395 . S
N4 C0 1.376 . S
N4 C3 1.374 . S
N4 Co5 2.008 1_655 S
Co5 N4 2.008 1_455 S
Co5 N6 1.995 . S
Co5 N11 2.008 . S
Co5 N16 1.995 . S
Co5 N21 2.282 . S
Co5 N27 2.282 . S
N6 Co5 1.995 . S
N6 C7 1.376 1_455 S
N6 C10 1.383 . S
C7 N6 1.376 1_655 S
C7 C8 1.446 . S
C7 C37 1.391 . S
C8 C7 1.446 . S
C8 C9 1.339 . S
C8 H43 0.949 . S
C9 C8 1.339 . S
C9 C10 1.439 1_655 S
C9 H44 0.950 . S
C10 N6 1.383 . S
C10 C9 1.439 1_455 S
C10 C39 1.392 . S
N11 Co5 2.008 . S
N11 C12 1.376 . S
N11 C15 1.374 . S
C12 N11 1.376 . S
C12 C13 1.443 . S
C12 C39 1.389 . S
C13 C12 1.443 . S
C13 C14 1.340 . S
C13 H45 0.951 . S
C14 C13 1.340 . S
C14 C15 1.439 . S
C14 H46 0.950 . S
C15 N11 1.374 . S
C15 C14 1.439 . S
C15 C40 1.395 . S
N16 Co5 1.995 . S
N16 C17 1.376 . S
N16 C20 1.383 . S
C17 N16 1.376 . S
C17 C18 1.446 . S
C17 C40 1.391 . S
C18 C17 1.446 . S
C18 C19 1.339 . S
C18 H47 0.949 . S
C19 C18 1.339 . S
C19 C20 1.439 . S
C19 H48 0.950 . S
C20 N16 1.383 . S
C20 C19 1.439 . S
C20 C38 1.392 . S
N21 Co5 2.282 . S
N21 C24 1.332 . S
N21 C26 1.332 . S
C22 C23 1.386 . S
C22 C25 1.388 . S
C23 C22 1.386 . S
C23 C24 1.382 . S
C23 H49 0.950 . S
C24 N21 1.332 . S
C24 C23 1.382 . S
C24 H35 0.952 . S
C25 C22 1.388 . S
C25 C26 1.382 . S
C25 H50 0.950 . S
C26 N21 1.332 . S
C26 C25 1.382 . S
C26 H36 0.948 1_455 S
N27 Co5 2.282 . S
N27 C31 1.332 . S
N27 C32 1.332 . S
C28 C29 1.388 . S
C28 C32 1.382 . S
C28 H51 0.950 . S
C29 C28 1.388 . S
C29 C30 1.386 1_455 S
C30 C29 1.386 1_655 S
C30 C31 1.382 1_655 S
C30 H52 0.950 . S
C31 N27 1.332 . S
C31 C30 1.382 1_455 S
C31 H33 0.952 1_455 S
C32 N27 1.332 . S
C32 C28 1.382 . S
C32 H34 0.948 . S
H33 C31 0.952 1_655 S
H34 C32 0.948 . S
H35 C24 0.952 . S
H36 C26 0.948 1_655 S
C37 C3 1.395 . S
C37 C7 1.391 . S
C38 C0 1.389 1_455 S
C38 C20 1.392 . S
C39 C10 1.392 . S
C39 C12 1.389 . S
C40 C15 1.395 . S
C40 C17 1.391 . S
H41 C1 0.951 . S
H42 C2 0.950 . S
H43 C8 0.949 . S
H44 C9 0.950 . S
H45 C13 0.951 . S
H46 C14 0.950 . S
H47 C18 0.949 . S
H48 C19 0.950 . S
H49 C23 0.950 . S
H50 C25 0.950 . S
H51 C28 0.950 . S
H52 C30 0.950 . S
C53 C54 1.443 . S
C53 N57 1.376 . S
C53 C91 1.388 . S
C54 C53 1.443 . S
C54 C55 1.340 . S
C54 H94 0.951 . S
C55 C54 1.340 . S
C55 C56 1.439 . S
C55 H95 0.950 . S
C56 C55 1.439 . S
C56 N57 1.374 . S
C56 C90 1.395 . S
N57 C53 1.376 . S
N57 C56 1.374 . S
N57 Co58 2.008 1_655 S
Co58 N57 2.008 1_455 S
Co58 N59 1.995 1_455 S
Co58 N64 2.008 . S
Co58 N69 1.995 . S
Co58 N74 2.282 . S
Co58 N80 2.282 . S
N59 Co58 1.995 1_655 S
N59 C60 1.376 . S
N59 C63 1.383 . S
C60 N59 1.376 . S
C60 C61 1.446 . S
C60 C90 1.391 . S
C61 C60 1.446 . S
C61 C62 1.339 . S
C61 H96 0.949 . S
C62 C61 1.339 . S
C62 C63 1.439 . S
C62 H97 0.950 . S
C63 N59 1.383 . S
C63 C62 1.439 . S
C63 C92 1.392 1_655 S
N64 Co58 2.008 . S
N64 C65 1.376 . S
N64 C68 1.374 . S
C65 N64 1.376 . S
C65 C66 1.443 . S
C65 C92 1.389 . S
C66 C65 1.443 . S
C66 C67 1.340 . S
C66 H98 0.951 . S
C67 C66 1.340 . S
C67 C68 1.439 . S
C67 H99 0.950 . S
C68 N64 1.374 . S
C68 C67 1.439 . S
C68 C93 1.395 . S
N69 Co58 1.995 . S
N69 C70 1.376 . S
N69 C73 1.383 . S
C70 N69 1.376 . S
C70 C71 1.446 . S
C70 C93 1.391 . S
C71 C70 1.446 . S
C71 C72 1.339 . S
C71 H100 0.949 . S
C72 C71 1.339 . S
C72 C73 1.439 . S
C72 H101 0.950 . S
C73 N69 1.383 . S
C73 C72 1.439 . S
C73 C91 1.392 1_455 S
N74 Co58 2.282 . S
N74 C77 1.332 . S
N74 C79 1.332 1_455 S
C75 C76 1.386 . S
C75 C78 1.388 . S
C76 C75 1.386 . S
C76 C77 1.382 . S
C76 H102 0.950 . S
C77 N74 1.332 . S
C77 C76 1.382 . S
C77 H88 0.952 . S
C78 C75 1.388 . S
C78 C79 1.382 1_455 S
C78 H103 0.950 1_455 S
C79 N74 1.332 1_655 S
C79 C78 1.382 1_655 S
C79 H89 0.948 . S
N80 Co58 2.282 . S
N80 C84 1.332 1_455 S
N80 C85 1.332 . S
C81 C82 1.388 1_455 S
C81 C85 1.382 . S
C81 H104 0.950 . S
C82 C81 1.388 1_655 S
C82 C83 1.386 . S
C83 C82 1.386 . S
C83 C84 1.382 . S
C83 H105 0.950 . S
C84 N80 1.332 1_655 S
C84 C83 1.382 . S
C84 H86 0.952 . S
C85 N80 1.332 . S
C85 C81 1.382 . S
C85 H87 0.948 . S
H86 C84 0.952 . S
H87 C85 0.948 . S
H88 C77 0.952 . S
H89 C79 0.948 . S
C90 C56 1.395 . S
C90 C60 1.391 . S
C91 C53 1.388 . S
C91 C73 1.392 1_655 S
C92 C63 1.392 1_455 S
C92 C65 1.389 . S
C93 C68 1.395 . S
C93 C70 1.391 . S
H94 C54 0.951 . S
H95 C55 0.950 . S
H96 C61 0.949 . S
H97 C62 0.950 . S
H98 C66 0.951 . S
H99 C67 0.950 . S
H100 C71 0.949 . S
H101 C72 0.950 . S
H102 C76 0.950 . S
H103 C78 0.950 1_655 S
H104 C81 0.950 . S
H105 C83 0.950 . S
C106 C107 1.443 . S
C106 N110 1.376 . S
C106 C144 1.389 . S
C107 C106 1.443 . S
C107 C108 1.340 . S
C107 H147 0.951 . S
C108 C107 1.340 . S
C108 C109 1.439 . S
C108 H148 0.950 . S
C109 C108 1.439 . S
C109 N110 1.374 . S
C109 C143 1.395 . S
N110 C106 1.376 . S
N110 C109 1.374 . S
N110 Co111 2.008 1_565 S
Co111 N110 2.008 1_545 S
Co111 N112 1.995 1_545 S
Co111 N117 2.008 . S
Co111 N122 1.995 . S
Co111 N127 2.282 . S
Co111 N133 2.282 . S
N112 Co111 1.995 1_565 S
N112 C113 1.376 . S
N112 C116 1.375 1_565 S
C113 N112 1.376 . S
C113 C114 1.446 . S
C113 C143 1.391 . S
C114 C113 1.446 . S
C114 C115 1.339 . S
C114 H149 0.949 . S
C115 C114 1.339 . S
C115 C116 1.425 1_565 S
C115 H150 0.950 . S
C116 N112 1.375 1_545 S
C116 C115 1.425 1_545 S
C116 C145 1.411 . S
N117 Co111 2.008 . S
N117 C118 1.376 . S
N117 C121 1.374 . S
C118 N117 1.376 . S
C118 C119 1.443 . S
C118 C145 1.389 . S
C119 C118 1.443 . S
C119 C120 1.340 . S
C119 H151 0.951 . S
C120 C119 1.340 . S
C120 C121 1.439 . S
C120 H152 0.950 . S
C121 N117 1.374 . S
C121 C120 1.439 . S
C121 C146 1.395 . S
N122 Co111 1.995 . S
N122 C123 1.376 . S
N122 C126 1.383 . S
C123 N122 1.376 . S
C123 C124 1.446 . S
C123 C146 1.391 . S
C124 C123 1.446 . S
C124 C125 1.339 . S
C124 H153 0.949 . S
C125 C124 1.339 . S
C125 C126 1.439 . S
C125 H154 0.950 . S
C126 N122 1.383 . S
C126 C125 1.439 . S
C126 C144 1.392 1_545 S
N127 Co111 2.282 . S
N127 C130 1.332 . S
N127 C132 1.332 . S
C128 C129 1.386 . S
C128 C131 1.388 . S
C129 C128 1.386 . S
C129 C130 1.382 . S
C129 H155 0.950 . S
C130 N127 1.332 . S
C130 C129 1.382 . S
C130 H141 0.952 . S
C131 C128 1.388 . S
C131 C132 1.382 . S
C131 H156 0.950 1_545 S
C132 N127 1.332 . S
C132 C131 1.382 . S
C132 H142 0.948 1_545 S
N133 Co111 2.282 . S
N133 C137 1.332 1_545 S
N133 C138 1.332 . S
C134 C135 1.388 1_545 S
C134 C138 1.382 . S
C134 H157 0.950 . S
C135 C134 1.388 1_565 S
C135 C136 1.386 . S
C136 C135 1.386 . S
C136 C137 1.382 . S
C136 H158 0.950 . S
C137 N133 1.332 1_565 S
C137 C136 1.382 . S
C137 H139 0.952 . S
C138 N133 1.332 . S
C138 C134 1.382 . S
C138 H140 0.948 . S
H139 C137 0.952 . S
H140 C138 0.948 . S
H141 C130 0.952 . S
H142 C132 0.948 1_565 S
C143 C109 1.395 . S
C143 C113 1.391 . S
C144 C106 1.389 . S
C144 C126 1.392 1_565 S
C145 C116 1.411 . S
C145 C118 1.389 . S
C146 C121 1.395 . S
C146 C123 1.391 . S
H147 C107 0.951 . S
H148 C108 0.950 . S
H149 C114 0.949 . S
H150 C115 0.950 . S
H151 C119 0.951 . S
H152 C120 0.950 . S
H153 C124 0.949 . S
H154 C125 0.950 . S
H155 C129 0.950 . S
H156 C131 0.950 1_565 S
H157 C134 0.950 . S
H158 C136 0.950 . S
C159 C160 1.443 . S
C159 N163 1.376 . S
C159 C197 1.389 . S
C160 C159 1.443 . S
C160 C161 1.340 . S
C160 H200 0.951 . S
C161 C160 1.340 . S
C161 C162 1.439 . S
C161 H201 0.950 . S
C162 C161 1.439 . S
C162 N163 1.374 . S
C162 C196 1.395 . S
N163 C159 1.376 . S
N163 C162 1.374 . S
N163 Co164 2.008 . S
Co164 N163 2.008 . S
Co164 N165 1.995 . S
Co164 N170 2.008 . S
Co164 N175 1.995 . S
Co164 N180 2.282 . S
Co164 N186 2.282 . S
N165 Co164 1.995 . S
N165 C166 1.376 . S
N165 C169 1.383 . S
C166 N165 1.376 . S
C166 C167 1.446 . S
C166 C196 1.391 . S
C167 C166 1.446 . S
C167 C168 1.339 . S
C167 H202 0.949 . S
C168 C167 1.339 . S
C168 C169 1.439 . S
C168 H203 0.950 . S
C169 N165 1.383 . S
C169 C168 1.439 . S
C169 C198 1.392 . S
N170 Co164 2.008 . S
N170 C171 1.376 . S
N170 C174 1.374 . S
C171 N170 1.376 . S
C171 C172 1.443 . S
C171 C198 1.389 . S
C172 C171 1.443 . S
C172 C173 1.340 . S
C172 H204 0.951 . S
C173 C172 1.340 . S
C173 C174 1.439 . S
C173 H205 0.950 . S
C174 N170 1.374 . S
C174 C173 1.439 . S
C174 C199 1.395 . S
N175 Co164 1.995 . S
N175 C176 1.376 . S
N175 C179 1.383 . S
C176 N175 1.376 . S
C176 C177 1.446 . S
C176 C199 1.391 . S
C177 C176 1.446 . S
C177 C178 1.339 . S
C177 H206 0.949 . S
C178 C177 1.339 . S
C178 C179 1.439 . S
C178 H207 0.950 . S
C179 N175 1.383 . S
C179 C178 1.439 . S
C179 C197 1.392 . S
N180 Co164 2.282 . S
N180 C183 1.332 . S
N180 C185 1.332 . S
C181 C182 1.386 . S
C181 C184 1.388 . S
C182 C181 1.386 . S
C182 C183 1.382 . S
C182 H208 0.950 . S
C183 N180 1.332 . S
C183 C182 1.382 . S
C183 H194 0.952 . S
C184 C181 1.388 . S
C184 C185 1.382 . S
C184 H209 0.950 . S
C185 N180 1.332 . S
C185 C184 1.382 . S
C185 H195 0.948 . S
N186 Co164 2.282 . S
N186 C190 1.332 . S
N186 C191 1.332 . S
C187 C188 1.388 . S
C187 C191 1.382 . S
C187 H210 0.950 . S
C188 C187 1.388 . S
C188 C189 1.386 . S
C189 C188 1.386 . S
C189 C190 1.382 . S
C189 H211 0.950 . S
C190 N186 1.332 . S
C190 C189 1.382 . S
C190 H192 0.952 . S
C191 N186 1.332 . S
C191 C187 1.382 . S
C191 H193 0.948 . S
H192 C190 0.952 . S
H193 C191 0.948 . S
H194 C183 0.952 . S
H195 C185 0.948 . S
C196 C162 1.395 . S
C196 C166 1.391 . S
C197 C159 1.389 . S
C197 C179 1.392 . S
C198 C169 1.392 . S
C198 C171 1.389 . S
C199 C174 1.395 . S
C199 C176 1.391 . S
H200 C160 0.951 . S
H201 C161 0.950 . S
H202 C167 0.949 . S
H203 C168 0.950 . S
H204 C172 0.951 . S
H205 C173 0.950 . S
H206 C177 0.949 . S
H207 C178 0.950 . S
H208 C182 0.950 . S
H209 C184 0.950 . S
H210 C187 0.950 . S
H211 C189 0.950 . S
C212 C213 1.443 . S
C212 N216 1.376 . S
C212 C250 1.389 1_556 S
C213 C212 1.443 . S
C213 C214 1.340 . S
C213 H253 0.951 . S
C214 C213 1.340 . S
C214 C215 1.439 . S
C214 H254 0.950 . S
C215 C214 1.439 . S
C215 N216 1.374 . S
C215 C249 1.395 . S
N216 C212 1.376 . S
N216 C215 1.374 . S
N216 Co217 2.008 1_556 S
Co217 N216 2.008 1_554 S
Co217 N218 1.995 1_554 S
Co217 N223 2.008 . S
Co217 N228 1.995 . S
Co217 N233 2.282 . S
Co217 N239 2.282 . S
N218 Co217 1.995 1_556 S
N218 C219 1.376 . S
N218 C222 1.384 1_556 S
C219 N218 1.376 . S
C219 C220 1.446 . S
C219 C249 1.391 . S
C220 C219 1.446 . S
C220 C221 1.339 . S
C220 H255 0.949 . S
C221 C220 1.339 . S
C221 C222 1.440 1_556 S
C221 H256 0.950 . S
C222 N218 1.384 1_554 S
C222 C221 1.440 1_554 S
C222 C251 1.390 . S
N223 Co217 2.008 . S
N223 C224 1.376 . S
N223 C227 1.374 . S
C224 N223 1.376 . S
C224 C225 1.443 . S
C224 C251 1.389 . S
C225 C224 1.443 . S
C225 C226 1.340 . S
C225 H257 0.951 . S
C226 C225 1.340 . S
C226 C227 1.439 . S
C226 H258 0.950 . S
C227 N223 1.374 . S
C227 C226 1.439 . S
C227 C252 1.395 . S
N228 Co217 1.995 . S
N228 C229 1.376 . S
N228 C232 1.383 . S
C229 N228 1.376 . S
C229 C230 1.446 . S
C229 C252 1.391 . S
C230 C229 1.446 . S
C230 C231 1.339 . S
C230 H259 0.949 . S
C231 C230 1.339 . S
C231 C232 1.439 . S
C231 H260 0.950 . S
C232 N228 1.383 . S
C232 C231 1.439 . S
C232 C250 1.392 . S
N233 Co217 2.282 . S
N233 C236 1.332 . S
N233 C238 1.332 . S
C234 C235 1.386 . S
C234 C237 1.388 . S
C235 C234 1.386 . S
C235 C236 1.382 . S
C235 H261 0.950 . S
C236 N233 1.332 . S
C236 C235 1.382 . S
C236 H247 0.952 . S
C237 C234 1.388 . S
C237 C238 1.382 . S
C237 H262 0.950 1_554 S
C238 N233 1.332 . S
C238 C237 1.382 . S
C238 H248 0.948 1_554 S
N239 Co217 2.282 . S
N239 C243 1.332 1_554 S
N239 C244 1.332 . S
C240 C241 1.388 1_554 S
C240 C244 1.382 . S
C240 H263 0.950 . S
C241 C240 1.388 1_556 S
C241 C242 1.386 . S
C242 C241 1.386 . S
C242 C243 1.382 . S
C242 H264 0.950 . S
C243 N239 1.332 1_556 S
C243 C242 1.382 . S
C243 H245 0.952 . S
C244 N239 1.332 . S
C244 C240 1.382 . S
C244 H246 0.948 . S
H245 C243 0.952 . S
H246 C244 0.948 . S
H247 C236 0.952 . S
H248 C238 0.948 1_556 S
C249 C215 1.395 . S
C249 C219 1.391 . S
C250 C212 1.389 1_554 S
C250 C232 1.392 . S
C251 C222 1.390 . S
C251 C224 1.389 . S
C252 C227 1.395 . S
C252 C229 1.391 . S
H253 C213 0.951 . S
H254 C214 0.950 . S
H255 C220 0.949 . S
H256 C221 0.950 . S
H257 C225 0.951 . S
H258 C226 0.950 . S
H259 C230 0.949 . S
H260 C231 0.950 . S
H261 C235 0.950 . S
H262 C237 0.950 1_556 S
H263 C240 0.950 . S
H264 C242 0.950 . S
C265 C266 1.443 . S
C265 N269 1.376 . S
C265 C303 1.389 . S
C266 C265 1.443 . S
C266 C267 1.340 . S
C266 H306 0.951 . S
C267 C266 1.340 . S
C267 C268 1.439 . S
C267 H307 0.950 . S
C268 C267 1.439 . S
C268 N269 1.374 . S
C268 C302 1.395 . S
N269 C265 1.376 . S
N269 C268 1.374 . S
N269 Co270 2.008 . S
Co270 N269 2.008 . S
Co270 N271 1.995 . S
Co270 N276 2.008 . S
Co270 N281 1.995 . S
Co270 N286 2.282 . S
Co270 N292 2.282 . S
N271 Co270 1.995 . S
N271 C272 1.376 . S
N271 C275 1.383 . S
C272 N271 1.376 . S
C272 C273 1.446 . S
C272 C302 1.391 . S
C273 C272 1.446 . S
C273 C274 1.339 . S
C273 H308 0.949 . S
C274 C273 1.339 . S
C274 C275 1.439 . S
C274 H309 0.950 . S
C275 N271 1.383 . S
C275 C274 1.439 . S
C275 C304 1.392 . S
N276 Co270 2.008 . S
N276 C277 1.376 . S
N276 C280 1.374 . S
C277 N276 1.376 . S
C277 C278 1.443 . S
C277 C304 1.389 . S
C278 C277 1.443 . S
C278 C279 1.340 . S
C278 H310 0.951 . S
C279 C278 1.340 . S
C279 C280 1.439 . S
C279 H311 0.950 . S
C280 N276 1.374 . S
C280 C279 1.439 . S
C280 C305 1.395 . S
N281 Co270 1.995 . S
N281 C282 1.376 . S
N281 C285 1.383 . S
C282 N281 1.376 . S
C282 C283 1.446 . S
C282 C305 1.391 . S
C283 C282 1.446 . S
C283 C284 1.339 . S
C283 H312 0.949 . S
C284 C283 1.339 . S
C284 C285 1.439 . S
C284 H313 0.950 . S
C285 N281 1.383 . S
C285 C284 1.439 . S
C285 C303 1.392 . S
N286 Co270 2.282 . S
N286 C289 1.332 . S
N286 C291 1.332 . S
C287 C288 1.386 . S
C287 C290 1.388 . S
C288 C287 1.386 . S
C288 C289 1.382 . S
C288 H314 0.950 . S
C289 N286 1.332 . S
C289 C288 1.382 . S
C289 H300 0.952 . S
C290 C287 1.388 . S
C290 C291 1.382 . S
C290 H315 0.950 . S
C291 N286 1.332 . S
C291 C290 1.382 . S
C291 H301 0.948 . S
N292 Co270 2.282 . S
N292 C296 1.332 . S
N292 C297 1.332 . S
C293 C294 1.388 . S
C293 C297 1.382 . S
C293 H316 0.950 . S
C294 C293 1.388 . S
C294 C295 1.386 . S
C295 C294 1.386 . S
C295 C296 1.382 . S
C295 H317 0.950 . S
C296 N292 1.332 . S
C296 C295 1.382 . S
C296 H298 0.952 . S
C297 N292 1.332 . S
C297 C293 1.382 . S
C297 H299 0.948 . S
H298 C296 0.952 . S
H299 C297 0.948 . S
H300 C289 0.952 . S
H301 C291 0.948 . S
C302 C268 1.395 . S
C302 C272 1.391 . S
C303 C265 1.389 . S
C303 C285 1.392 . S
C304 C275 1.392 . S
C304 C277 1.389 . S
C305 C280 1.395 . S
C305 C282 1.391 . S
H306 C266 0.951 . S
H307 C267 0.950 . S
H308 C273 0.949 . S
H309 C274 0.950 . S
H310 C278 0.951 . S
H311 C279 0.950 . S
H312 C283 0.949 . S
H313 C284 0.950 . S
H314 C288 0.950 . S
H315 C290 0.950 . S
H316 C293 0.950 . S
H317 C295 0.950 . S
C318 C319 1.443 . S
C318 N322 1.376 . S
C318 C356 1.389 . S
C319 C318 1.443 . S
C319 C320 1.340 . S
C319 H359 0.951 . S
C320 C319 1.340 . S
C320 C321 1.439 . S
C320 H360 0.950 . S
C321 C320 1.439 . S
C321 N322 1.374 . S
C321 C355 1.395 . S
N322 C318 1.376 . S
N322 C321 1.374 . S
N322 Co323 2.008 . S
Co323 N322 2.008 . S
Co323 N324 1.995 . S
Co323 N329 2.008 . S
Co323 N334 1.995 . S
Co323 N339 2.282 . S
Co323 N345 2.282 . S
N324 Co323 1.995 . S
N324 C325 1.376 . S
N324 C328 1.383 . S
C325 N324 1.376 . S
C325 C326 1.446 . S
C325 C355 1.391 . S
C326 C325 1.446 . S
C326 C327 1.339 . S
C326 H361 0.949 . S
C327 C326 1.339 . S
C327 C328 1.439 . S
C327 H362 0.950 . S
C328 N324 1.383 . S
C328 C327 1.439 . S
C328 C357 1.392 . S
N329 Co323 2.008 . S
N329 C330 1.376 . S
N329 C333 1.374 . S
C330 N329 1.376 . S
C330 C331 1.443 . S
C330 C357 1.389 . S
C331 C330 1.443 . S
C331 C332 1.340 . S
C331 H363 0.951 . S
C332 C331 1.340 . S
C332 C333 1.439 . S
C332 H364 0.950 . S
C333 N329 1.374 . S
C333 C332 1.439 . S
C333 C358 1.395 . S
N334 Co323 1.995 . S
N334 C335 1.376 . S
N334 C338 1.383 . S
C335 N334 1.376 . S
C335 C336 1.446 . S
C335 C358 1.391 . S
C336 C335 1.446 . S
C336 C337 1.339 . S
C336 H365 0.949 . S
C337 C336 1.339 . S
C337 C338 1.439 . S
C337 H366 0.950 . S
C338 N334 1.383 . S
C338 C337 1.439 . S
C338 C356 1.392 . S
N339 Co323 2.282 . S
N339 C342 1.332 . S
N339 C344 1.332 . S
C340 C341 1.386 . S
C340 C343 1.388 . S
C341 C340 1.386 . S
C341 C342 1.382 . S
C341 H367 0.950 . S
C342 N339 1.332 . S
C342 C341 1.382 . S
C342 H353 0.952 . S
C343 C340 1.388 . S
C343 C344 1.382 . S
C343 H368 0.950 . S
C344 N339 1.332 . S
C344 C343 1.382 . S
C344 H354 0.948 . S
N345 Co323 2.282 . S
N345 C349 1.332 . S
N345 C350 1.332 . S
C346 C347 1.388 . S
C346 C350 1.382 . S
C346 H369 0.950 . S
C347 C346 1.388 . S
C347 C348 1.386 . S
C348 C347 1.386 . S
C348 C349 1.382 . S
C348 H370 0.950 . S
C349 N345 1.332 . S
C349 C348 1.382 . S
C349 H351 0.952 . S
C350 N345 1.332 . S
C350 C346 1.382 . S
C350 H352 0.948 . S
H351 C349 0.952 . S
H352 C350 0.948 . S
H353 C342 0.952 . S
H354 C344 0.948 . S
C355 C321 1.395 . S
C355 C325 1.391 . S
C356 C318 1.389 . S
C356 C338 1.392 . S
C357 C328 1.392 . S
C357 C330 1.389 . S
C358 C333 1.395 . S
C358 C335 1.391 . S
H359 C319 0.951 . S
H360 C320 0.950 . S
H361 C326 0.949 . S
H362 C327 0.950 . S
H363 C331 0.951 . S
H364 C332 0.950 . S
H365 C336 0.949 . S
H366 C337 0.950 . S
H367 C341 0.950 . S
H368 C343 0.950 . S
H369 C346 0.950 . S
H370 C348 0.950 . S
C371 C372 1.443 . S
C371 N375 1.376 . S
C371 C409 1.389 . S
C372 C371 1.443 . S
C372 C373 1.340 . S
C372 H412 0.951 . S
C373 C372 1.340 . S
C373 C374 1.439 . S
C373 H413 0.950 . S
C374 C373 1.439 . S
C374 N375 1.374 . S
C374 C408 1.395 . S
N375 C371 1.376 . S
N375 C374 1.374 . S
N375 Co376 2.008 . S
Co376 N375 2.008 . S
Co376 N377 1.995 . S
Co376 N382 2.008 . S
Co376 N387 1.995 . S
Co376 N392 2.282 . S
Co376 N398 2.282 . S
N377 Co376 1.995 . S
N377 C378 1.376 . S
N377 C381 1.383 . S
C378 N377 1.376 . S
C378 C379 1.446 . S
C378 C408 1.391 . S
C379 C378 1.446 . S
C379 C380 1.339 . S
C379 H414 0.949 . S
C380 C379 1.339 . S
C380 C381 1.439 . S
C380 H415 0.950 . S
C381 N377 1.383 . S
C381 C380 1.439 . S
C381 C410 1.392 . S
N382 Co376 2.008 . S
N382 C383 1.376 . S
N382 C386 1.374 . S
C383 N382 1.376 . S
C383 C384 1.443 . S
C383 C410 1.389 . S
C384 C383 1.443 . S
C384 C385 1.340 . S
C384 H416 0.951 . S
C385 C384 1.340 . S
C385 C386 1.439 . S
C385 H417 0.950 . S
C386 N382 1.374 . S
C386 C385 1.439 . S
C386 C411 1.395 . S
N387 Co376 1.995 . S
N387 C388 1.376 . S
N387 C391 1.383 . S
C388 N387 1.376 . S
C388 C389 1.446 . S
C388 C411 1.391 . S
C389 C388 1.446 . S
C389 C390 1.339 . S
C389 H418 0.949 . S
C390 C389 1.339 . S
C390 C391 1.439 . S
C390 H419 0.950 . S
C391 N387 1.383 . S
C391 C390 1.439 . S
C391 C409 1.392 . S
N392 Co376 2.282 . S
N392 C395 1.332 . S
N392 C397 1.332 . S
C393 C394 1.386 . S
C393 C396 1.388 . S
C394 C393 1.386 . S
C394 C395 1.382 . S
C394 H420 0.950 . S
C395 N392 1.332 . S
C395 C394 1.382 . S
C395 H406 0.952 . S
C396 C393 1.388 . S
C396 C397 1.382 . S
C396 H421 0.950 . S
C397 N392 1.332 . S
C397 C396 1.382 . S
C397 H407 0.948 . S
N398 Co376 2.282 . S
N398 C402 1.332 . S
N398 C403 1.332 . S
C399 C400 1.388 . S
C399 C403 1.382 . S
C399 H422 0.950 . S
C400 C399 1.388 . S
C400 C401 1.386 . S
C401 C400 1.386 . S
C401 C402 1.382 . S
C401 H423 0.950 . S
C402 N398 1.332 . S
C402 C401 1.382 . S
C402 H404 0.952 . S
C403 N398 1.332 . S
C403 C399 1.382 . S
C403 H405 0.948 . S
H404 C402 0.952 . S
H405 C403 0.948 . S
H406 C395 0.952 . S
H407 C397 0.948 . S
C408 C374 1.395 . S
C408 C378 1.391 . S
C409 C371 1.389 . S
C409 C391 1.392 . S
C410 C381 1.392 . S
C410 C383 1.389 . S
C411 C386 1.395 . S
C411 C388 1.391 . S
H412 C372 0.951 . S
H413 C373 0.950 . S
H414 C379 0.949 . S
H415 C380 0.950 . S
H416 C384 0.951 . S
H417 C385 0.950 . S
H418 C389 0.949 . S
H419 C390 0.950 . S
H420 C394 0.950 . S
H421 C396 0.950 . S
H422 C399 0.950 . S
H423 C401 0.950 . S
C424 C425 1.443 . S
C424 N428 1.376 . S
C424 C462 1.389 . S
C425 C424 1.443 . S
C425 C426 1.340 . S
C425 H465 0.951 . S
C426 C425 1.340 . S
C426 C427 1.439 . S
C426 H466 0.950 . S
C427 C426 1.439 . S
C427 N428 1.374 . S
C427 C461 1.395 . S
N428 C424 1.376 . S
N428 C427 1.374 . S
N428 Co429 2.008 . S
Co429 N428 2.008 . S
Co429 N430 1.995 . S
Co429 N435 2.008 . S
Co429 N440 1.995 . S
Co429 N445 2.282 . S
Co429 N451 2.282 . S
N430 Co429 1.995 . S
N430 C431 1.376 . S
N430 C434 1.383 . S
C431 N430 1.376 . S
C431 C432 1.446 . S
C431 C461 1.391 . S
C432 C431 1.446 . S
C432 C433 1.339 . S
C432 H467 0.949 . S
C433 C432 1.339 . S
C433 C434 1.439 . S
C433 H468 0.950 . S
C434 N430 1.383 . S
C434 C433 1.439 . S
C434 C463 1.392 . S
N435 Co429 2.008 . S
N435 C436 1.376 . S
N435 C439 1.374 . S
C436 N435 1.376 . S
C436 C437 1.443 . S
C436 C463 1.389 . S
C437 C436 1.443 . S
C437 C438 1.340 . S
C437 H469 0.951 . S
C438 C437 1.340 . S
C438 C439 1.439 . S
C438 H470 0.950 . S
C439 N435 1.374 . S
C439 C438 1.439 . S
C439 C464 1.395 . S
N440 Co429 1.995 . S
N440 C441 1.376 . S
N440 C444 1.383 . S
C441 N440 1.376 . S
C441 C442 1.446 . S
C441 C464 1.391 . S
C442 C441 1.446 . S
C442 C443 1.339 . S
C442 H471 0.949 . S
C443 C442 1.339 . S
C443 C444 1.439 . S
C443 H472 0.950 . S
C444 N440 1.383 . S
C444 C443 1.439 . S
C444 C462 1.392 . S
N445 Co429 2.282 . S
N445 C448 1.332 . S
N445 C450 1.332 . S
C446 C447 1.386 . S
C446 C449 1.388 . S
C447 C446 1.386 . S
C447 C448 1.382 . S
C447 H473 0.950 . S
C448 N445 1.332 . S
C448 C447 1.382 . S
C448 H459 0.952 . S
C449 C446 1.388 . S
C449 C450 1.382 . S
C449 H474 0.950 . S
C450 N445 1.332 . S
C450 C449 1.382 . S
C450 H460 0.948 . S
N451 Co429 2.282 . S
N451 C455 1.332 . S
N451 C456 1.332 . S
C452 C453 1.388 . S
C452 C456 1.382 . S
C452 H475 0.950 . S
C453 C452 1.388 . S
C453 C454 1.386 . S
C454 C453 1.386 . S
C454 C455 1.382 . S
C454 H476 0.950 . S
C455 N451 1.332 . S
C455 C454 1.382 . S
C455 H457 0.952 . S
C456 N451 1.332 . S
C456 C452 1.382 . S
C456 H458 0.948 . S
H457 C455 0.952 . S
H458 C456 0.948 . S
H459 C448 0.952 . S
H460 C450 0.948 . S
C461 C427 1.395 . S
C461 C431 1.391 . S
C462 C424 1.389 . S
C462 C444 1.392 . S
C463 C434 1.392 . S
C463 C436 1.389 . S
C464 C439 1.395 . S
C464 C441 1.391 . S
H465 C425 0.951 . S
H466 C426 0.950 . S
H467 C432 0.949 . S
H468 C433 0.950 . S
H469 C437 0.951 . S
H470 C438 0.950 . S
H471 C442 0.949 . S
H472 C443 0.950 . S
H473 C447 0.950 . S
H474 C449 0.950 . S
H475 C452 0.950 . S
H476 C454 0.950 . S
C477 C478 1.443 . S
C477 N481 1.376 . S
C477 C515 1.389 . S
C478 C477 1.443 . S
C478 C479 1.340 . S
C478 H518 0.951 . S
C479 C478 1.340 . S
C479 C480 1.439 . S
C479 H519 0.950 . S
C480 C479 1.439 . S
C480 N481 1.374 . S
C480 C514 1.395 . S
N481 C477 1.376 . S
N481 C480 1.374 . S
N481 Co482 2.008 . S
Co482 N481 2.008 . S
Co482 N483 1.995 . S
Co482 N488 2.008 . S
Co482 N493 1.995 . S
Co482 N498 2.282 . S
Co482 N504 2.282 . S
N483 Co482 1.995 . S
N483 C484 1.376 . S
N483 C487 1.383 . S
C484 N483 1.376 . S
C484 C485 1.446 . S
C484 C514 1.391 . S
C485 C484 1.446 . S
C485 C486 1.339 . S
C485 H520 0.949 . S
C486 C485 1.339 . S
C486 C487 1.439 . S
C486 H521 0.950 . S
C487 N483 1.383 . S
C487 C486 1.439 . S
C487 C516 1.392 . S
N488 Co482 2.008 . S
N488 C489 1.376 . S
N488 C492 1.374 . S
C489 N488 1.376 . S
C489 C490 1.443 . S
C489 C516 1.389 . S
C490 C489 1.443 . S
C490 C491 1.340 . S
C490 H522 0.951 . S
C491 C490 1.340 . S
C491 C492 1.439 . S
C491 H523 0.950 . S
C492 N488 1.374 . S
C492 C491 1.439 . S
C492 C517 1.395 . S
N493 Co482 1.995 . S
N493 C494 1.376 . S
N493 C497 1.383 . S
C494 N493 1.376 . S
C494 C495 1.446 . S
C494 C517 1.391 . S
C495 C494 1.446 . S
C495 C496 1.339 . S
C495 H524 0.949 . S
C496 C495 1.339 . S
C496 C497 1.439 . S
C496 H525 0.950 . S
C497 N493 1.383 . S
C497 C496 1.439 . S
C497 C515 1.392 . S
N498 Co482 2.282 . S
N498 C501 1.332 . S
N498 C503 1.332 . S
C499 C500 1.386 . S
C499 C502 1.388 . S
C500 C499 1.386 . S
C500 C501 1.382 . S
C500 H526 0.950 . S
C501 N498 1.332 . S
C501 C500 1.382 . S
C501 H512 0.952 . S
C502 C499 1.388 . S
C502 C503 1.382 . S
C502 H527 0.950 . S
C503 N498 1.332 . S
C503 C502 1.382 . S
C503 H513 0.948 . S
N504 Co482 2.282 . S
N504 C508 1.332 . S
N504 C509 1.332 . S
C505 C506 1.388 . S
C505 C509 1.382 . S
C505 H528 0.950 . S
C506 C505 1.388 . S
C506 C507 1.386 . S
C507 C506 1.386 . S
C507 C508 1.382 . S
C507 H529 0.950 . S
C508 N504 1.332 . S
C508 C507 1.382 . S
C508 H510 0.952 . S
C509 N504 1.332 . S
C509 C505 1.382 . S
C509 H511 0.948 . S
H510 C508 0.952 . S
H511 C509 0.948 . S
H512 C501 0.952 . S
H513 C503 0.948 . S
C514 C480 1.395 . S
C514 C484 1.391 . S
C515 C477 1.389 . S
C515 C497 1.392 . S
C516 C487 1.392 . S
C516 C489 1.389 . S
C517 C492 1.395 . S
C517 C494 1.391 . S
H518 C478 0.951 . S
H519 C479 0.950 . S
H520 C485 0.949 . S
H521 C486 0.950 . S
H522 C490 0.951 . S
H523 C491 0.950 . S
H524 C495 0.949 . S
H525 C496 0.950 . S
H526 C500 0.950 . S
H527 C502 0.950 . S
H528 C505 0.950 . S
H529 C507 0.950 . S
C530 C531 1.443 . S
C530 N534 1.376 . S
C530 C568 1.389 . S
C531 C530 1.443 . S
C531 C532 1.340 . S
C531 H571 0.951 . S
C532 C531 1.340 . S
C532 C533 1.439 . S
C532 H572 0.950 . S
C533 C532 1.439 . S
C533 N534 1.374 . S
C533 C567 1.395 . S
N534 C530 1.376 . S
N534 C533 1.374 . S
N534 Co535 2.008 . S
Co535 N534 2.008 . S
Co535 N536 1.995 . S
Co535 N541 2.008 1_545 S
Co535 N546 1.995 1_545 S
Co535 N551 2.282 . S
Co535 N557 2.282 . S
N536 Co535 1.995 . S
N536 C537 1.376 . S
N536 C540 1.383 . S
C537 N536 1.376 . S
C537 C538 1.446 . S
C537 C567 1.391 . S
C538 C537 1.446 . S
C538 C539 1.339 . S
C538 H573 0.949 . S
C539 C538 1.339 . S
C539 C540 1.439 . S
C539 H574 0.950 . S
C540 N536 1.383 . S
C540 C539 1.439 . S
C540 C569 1.392 1_545 S
N541 Co535 2.008 1_565 S
N541 C542 1.376 . S
N541 C545 1.374 . S
C542 N541 1.376 . S
C542 C543 1.443 . S
C542 C569 1.389 . S
C543 C542 1.443 . S
C543 C544 1.340 . S
C543 H575 0.951 . S
C544 C543 1.340 . S
C544 C545 1.439 . S
C544 H576 0.950 . S
C545 N541 1.374 . S
C545 C544 1.439 . S
C545 C570 1.395 . S
N546 Co535 1.995 1_565 S
N546 C547 1.376 . S
N546 C550 1.383 . S
C547 N546 1.376 . S
C547 C548 1.446 . S
C547 C570 1.391 . S
C548 C547 1.446 . S
C548 C549 1.339 . S
C548 H577 0.949 . S
C549 C548 1.339 . S
C549 C550 1.439 . S
C549 H578 0.950 . S
C550 N546 1.383 . S
C550 C549 1.439 . S
C550 C568 1.392 1_565 S
N551 Co535 2.282 . S
N551 C554 1.332 1_545 S
N551 C556 1.332 . S
C552 C553 1.386 . S
C552 C555 1.388 1_565 S
C553 C552 1.386 . S
C553 C554 1.382 . S
C553 H579 0.950 . S
C554 N551 1.332 1_565 S
C554 C553 1.382 . S
C554 H565 0.952 . S
C555 C552 1.388 1_545 S
C555 C556 1.382 . S
C555 H580 0.950 . S
C556 N551 1.332 . S
C556 C555 1.382 . S
C556 H566 0.948 . S
N557 Co535 2.282 . S
N557 C561 1.332 . S
N557 C562 1.337 . S
C558 C559 1.388 . S
C558 C562 1.383 . S
C558 H581 0.950 1_545 S
C559 C558 1.388 . S
C559 C560 1.386 . S
C560 C559 1.386 . S
C560 C561 1.382 . S
C560 H582 0.950 . S
C561 N557 1.332 . S
C561 C560 1.382 . S
C561 H563 0.952 . S
C562 N557 1.337 . S
C562 C558 1.383 . S
C562 H564 0.942 1_545 S
H563 C561 0.952 . S
H564 C562 0.942 1_565 S
H565 C554 0.952 . S
H566 C556 0.948 . S
C567 C533 1.395 . S
C567 C537 1.391 . S
C568 C530 1.389 . S
C568 C550 1.392 1_545 S
C569 C540 1.392 1_565 S
C569 C542 1.389 . S
C570 C545 1.395 . S
C570 C547 1.391 . S
H571 C531 0.951 . S
H572 C532 0.950 . S
H573 C538 0.949 . S
H574 C539 0.950 . S
H575 C543 0.951 . S
H576 C544 0.950 . S
H577 C548 0.949 . S
H578 C549 0.950 . S
H579 C553 0.950 . S
H580 C555 0.950 . S
H581 C558 0.950 1_565 S
H582 C560 0.950 . S
C583 C584 1.443 . S
C583 N587 1.376 . S
C583 C621 1.407 . S
C584 C583 1.443 . S
C584 C585 1.340 . S
C584 H624 0.951 . S
C585 C584 1.340 . S
C585 C586 1.439 . S
C585 H625 0.950 . S
C586 C585 1.439 . S
C586 N587 1.374 . S
C586 C620 1.395 . S
N587 C583 1.376 . S
N587 C586 1.374 . S
N587 Co588 2.008 1_556 S
Co588 N587 2.008 1_554 S
Co588 N589 1.995 1_554 S
Co588 N594 2.008 . S
Co588 N599 1.995 . S
Co588 N604 2.282 . S
Co588 N610 2.282 . S
N589 Co588 1.995 1_556 S
N589 C590 1.376 . S
N589 C593 1.377 1_556 S
C590 N589 1.376 . S
C590 C591 1.446 . S
C590 C620 1.391 . S
C591 C590 1.446 . S
C591 C592 1.339 . S
C591 H626 0.949 . S
C592 C591 1.339 . S
C592 C593 1.426 1_556 S
C592 H627 0.950 . S
C593 N589 1.377 1_554 S
C593 C592 1.426 1_554 S
C593 C622 1.408 . S
N594 Co588 2.008 . S
N594 C595 1.376 . S
N594 C598 1.374 . S
C595 N594 1.376 . S
C595 C596 1.443 . S
C595 C622 1.389 . S
C596 C595 1.443 . S
C596 C597 1.340 . S
C596 H628 0.951 . S
C597 C596 1.340 . S
C597 C598 1.439 . S
C597 H629 0.950 . S
C598 N594 1.374 . S
C598 C597 1.439 . S
C598 C623 1.395 . S
N599 Co588 1.995 . S
N599 C600 1.376 . S
N599 C603 1.383 . S
C600 N599 1.376 . S
C600 C601 1.446 . S
C600 C623 1.391 . S
C601 C600 1.446 . S
C601 C602 1.339 . S
C601 H630 0.949 . S
C602 C601 1.339 . S
C602 C603 1.439 . S
C602 H631 0.950 . S
C603 N599 1.383 . S
C603 C602 1.439 . S
C603 C621 1.369 1_554 S
N604 Co588 2.282 . S
N604 C607 1.332 . S
N604 C609 1.326 1_554 S
C605 C606 1.386 . S
C605 C608 1.388 . S
C606 C605 1.386 . S
C606 C607 1.382 . S
C606 H632 0.950 . S
C607 N604 1.332 . S
C607 C606 1.382 . S
C607 H618 0.952 . S
C608 C605 1.388 . S
C608 C609 1.380 1_554 S
C608 H633 0.950 1_554 S
C609 N604 1.326 1_556 S
C609 C608 1.380 1_556 S
C609 H619 0.957 . S
N610 Co588 2.282 . S
N610 C614 1.332 1_554 S
N610 C615 1.332 . S
C611 C612 1.388 1_554 S
C611 C615 1.382 . S
C611 H634 0.950 . S
C612 C611 1.388 1_556 S
C612 C613 1.386 . S
C613 C612 1.386 . S
C613 C614 1.382 . S
C613 H635 0.950 . S
C614 N610 1.332 1_556 S
C614 C613 1.382 . S
C614 H616 0.952 . S
C615 N610 1.332 . S
C615 C611 1.382 . S
C615 H617 0.948 . S
H616 C614 0.952 . S
H617 C615 0.948 . S
H618 C607 0.952 . S
H619 C609 0.957 . S
C620 C586 1.395 . S
C620 C590 1.391 . S
C621 C583 1.407 . S
C621 C603 1.369 1_556 S
C622 C593 1.408 . S
C622 C595 1.389 . S
C623 C598 1.395 . S
C623 C600 1.391 . S
H624 C584 0.951 . S
H625 C585 0.950 . S
H626 C591 0.949 . S
H627 C592 0.950 . S
H628 C596 0.951 . S
H629 C597 0.950 . S
H630 C601 0.949 . S
H631 C602 0.950 . S
H632 C606 0.950 . S
H633 C608 0.950 1_556 S
H634 C611 0.950 . S
H635 C613 0.950 . S
Co636 N641 2.057 . S
Co636 O653 2.021 . S
Co636 O656 2.062 . S
Co636 O660 2.117 . S
Co636 O661 2.020 . S
C637 O657 1.259 . S
C637 O660 1.258 . S
Co638 N647 2.057 . S
Co638 O654 2.117 . S
Co638 O655 2.020 . S
Co638 O657 2.021 . S
Co638 O662 2.062 . S
C639 N641 1.316 1_565 S
C639 N642 1.347 . S
C639 H644 0.931 . S
C640 N641 1.375 . S
C640 C643 1.350 1_545 S
C640 H645 0.930 . S
N641 Co636 2.057 . S
N641 C639 1.316 1_545 S
N641 C640 1.375 . S
N642 C639 1.347 . S
N642 C643 1.373 . S
C643 C640 1.350 1_565 S
C643 N642 1.373 . S
C643 H664 0.931 . S
H644 C639 0.931 . S
H645 C640 0.930 . S
C646 O653 1.259 . S
C646 O654 1.258 . S
N647 Co638 2.057 . S
N647 C648 1.316 . S
N647 C649 1.375 . S
C648 N647 1.316 . S
C648 N650 1.347 . S
C648 H659 0.931 . S
C649 N647 1.375 . S
C649 C651 1.349 1_554 S
C649 H658 0.930 1_554 S
N650 C648 1.347 . S
N650 C651 1.368 1_554 S
C651 C649 1.349 1_556 S
C651 N650 1.368 1_556 S
C651 H665 0.936 . S
C652 O655 1.256 . S
C652 O656 1.255 . S
O653 Co636 2.021 . S
O653 C646 1.259 . S
O654 Co638 2.117 . S
O654 C646 1.258 . S
O655 Co638 2.020 . S
O655 C652 1.256 . S
O656 Co636 2.062 . S
O656 C652 1.255 . S
O657 C637 1.259 . S
O657 Co638 2.021 . S
H658 C649 0.930 1_556 S
H659 C648 0.931 . S
O660 Co636 2.117 . S
O660 C637 1.258 . S
O661 Co636 2.020 . S
O661 C663 1.256 . S
O662 Co638 2.062 . S
O662 C663 1.255 . S
C663 O661 1.256 . S
C663 O662 1.255 . S
H664 C643 0.931 . S
H665 C651 0.936 . S
Co666 N671 2.057 . S
Co666 O683 2.021 . S
Co666 O686 2.062 . S
Co666 O690 2.117 . S
Co666 O691 2.020 . S
C667 O687 1.259 . S
C667 O690 1.258 . S
Co668 N677 2.057 1_554 S
Co668 O684 2.117 . S
Co668 O685 2.020 . S
Co668 O687 2.021 . S
Co668 O692 2.062 . S
C669 N671 1.316 . S
C669 N672 1.347 . S
C669 H674 0.931 . S
C670 N671 1.375 . S
C670 C673 1.350 . S
C670 H675 0.930 . S
N671 Co666 2.057 . S
N671 C669 1.316 . S
N671 C670 1.375 . S
N672 C669 1.347 . S
N672 C673 1.373 . S
C673 C670 1.350 . S
C673 N672 1.373 . S
C673 H694 0.931 1_655 S
H674 C669 0.931 . S
H675 C670 0.930 . S
C676 O683 1.259 . S
C676 O684 1.258 . S
N677 Co668 2.057 1_556 S
N677 C678 1.316 . S
N677 C679 1.375 . S
C678 N677 1.316 . S
C678 N680 1.347 . S
C678 H689 0.931 . S
C679 N677 1.375 . S
C679 C681 1.350 . S
C679 H688 0.930 . S
N680 C678 1.347 . S
N680 C681 1.373 . S
C681 C679 1.350 . S
C681 N680 1.373 . S
C681 H695 0.931 . S
C682 O685 1.256 . S
C682 O686 1.255 . S
O683 Co666 2.021 . S
O683 C676 1.259 . S
O684 Co668 2.117 . S
O684 C676 1.258 . S
O685 Co668 2.020 . S
O685 C682 1.256 . S
O686 Co666 2.062 . S
O686 C682 1.255 . S
O687 C667 1.259 . S
O687 Co668 2.021 . S
H688 C679 0.930 . S
H689 C678 0.931 . S
O690 Co666 2.117 . S
O690 C667 1.258 . S
O691 Co666 2.020 . S
O691 C693 1.256 . S
O692 Co668 2.062 . S
O692 C693 1.255 . S
C693 O691 1.256 . S
C693 O692 1.255 . S
H694 C673 0.931 1_455 S
H695 C681 0.931 . S
Co696 N701 2.057 . S
Co696 O713 2.021 . S
Co696 O716 2.062 . S
Co696 O720 2.117 . S
Co696 O721 2.020 . S
C697 O717 1.259 . S
C697 O720 1.258 . S
Co698 N707 2.057 . S
Co698 O714 2.117 . S
Co698 O715 2.020 . S
Co698 O717 2.021 . S
Co698 O722 2.062 . S
C699 N701 1.316 . S
C699 N702 1.347 . S
C699 H704 0.931 . S
C700 N701 1.375 . S
C700 C703 1.350 . S
C700 H705 0.930 . S
N701 Co696 2.057 . S
N701 C699 1.316 . S
N701 C700 1.375 . S
N702 C699 1.347 . S
N702 C703 1.373 . S
C703 C700 1.350 . S
C703 N702 1.373 . S
C703 H724 0.931 . S
H704 C699 0.931 . S
H705 C700 0.930 . S
C706 O713 1.259 . S
C706 O714 1.258 . S
N707 Co698 2.057 . S
N707 C708 1.316 . S
N707 C709 1.375 1_455 S
C708 N707 1.316 . S
C708 N710 1.347 . S
C708 H719 0.931 . S
C709 N707 1.375 1_655 S
C709 C711 1.350 . S
C709 H718 0.930 . S
N710 C708 1.347 . S
N710 C711 1.373 1_455 S
C711 C709 1.350 . S
C711 N710 1.373 1_655 S
C711 H725 0.931 . S
C712 O715 1.256 . S
C712 O716 1.255 . S
O713 Co696 2.021 . S
O713 C706 1.259 . S
O714 Co698 2.117 . S
O714 C706 1.258 . S
O715 Co698 2.020 . S
O715 C712 1.256 . S
O716 Co696 2.062 . S
O716 C712 1.255 . S
O717 C697 1.259 . S
O717 Co698 2.021 . S
H718 C709 0.930 . S
H719 C708 0.931 . S
O720 Co696 2.117 . S
O720 C697 1.258 . S
O721 Co696 2.020 . S
O721 C723 1.256 . S
O722 Co698 2.062 . S
O722 C723 1.255 . S
C723 O721 1.256 . S
C723 O722 1.255 . S
H724 C703 0.931 . S
H725 C711 0.931 . S
Co726 N731 2.057 . S
Co726 O743 2.021 . S
Co726 O746 2.062 . S
Co726 O750 2.117 . S
Co726 O751 2.020 . S
C727 O747 1.259 . S
C727 O750 1.258 1_455 S
Co728 N737 2.057 . S
Co728 O744 2.117 . S
Co728 O745 2.020 . S
Co728 O747 2.021 1_655 S
Co728 O752 2.062 . S
C729 N731 1.316 . S
C729 N732 1.347 . S
C729 H734 0.931 . S
C730 N731 1.375 . S
C730 C733 1.350 . S
C730 H735 0.930 . S
N731 Co726 2.057 . S
N731 C729 1.316 . S
N731 C730 1.375 . S
N732 C729 1.347 . S
N732 C733 1.373 . S
C733 C730 1.350 . S
C733 N732 1.373 . S
C733 H754 0.931 . S
H734 C729 0.931 . S
H735 C730 0.930 . S
C736 O743 1.259 . S
C736 O744 1.258 . S
N737 Co728 2.057 . S
N737 C738 1.316 . S
N737 C739 1.375 . S
C738 N737 1.316 . S
C738 N740 1.347 . S
C738 H749 0.931 1_655 S
C739 N737 1.375 . S
C739 C741 1.350 . S
C739 H748 0.930 . S
N740 C738 1.347 . S
N740 C741 1.373 . S
C741 C739 1.350 . S
C741 N740 1.373 . S
C741 H755 0.931 . S
C742 O745 1.256 . S
C742 O746 1.255 . S
O743 Co726 2.021 . S
O743 C736 1.259 . S
O744 Co728 2.117 . S
O744 C736 1.258 . S
O745 Co728 2.020 . S
O745 C742 1.256 . S
O746 Co726 2.062 . S
O746 C742 1.255 . S
O747 C727 1.259 . S
O747 Co728 2.021 1_455 S
H748 C739 0.930 . S
H749 C738 0.931 1_455 S
O750 Co726 2.117 . S
O750 C727 1.258 1_655 S
O751 Co726 2.020 . S
O751 C753 1.256 . S
O752 Co728 2.062 . S
O752 C753 1.255 . S
C753 O751 1.256 . S
C753 O752 1.255 . S
H754 C733 0.931 . S
H755 C741 0.931 . S
Co756 N761 2.057 . S
Co756 O773 2.021 . S
Co756 O776 2.062 . S
Co756 O780 2.117 . S
Co756 O781 2.020 . S
C757 O777 1.259 . S
C757 O780 1.258 . S
Co758 N767 2.057 . S
Co758 O774 2.117 . S
Co758 O775 2.020 . S
Co758 O777 2.021 . S
Co758 O782 2.062 . S
C759 N761 1.316 . S
C759 N762 1.347 . S
C759 H764 0.931 . S
C760 N761 1.375 . S
C760 C763 1.350 . S
C760 H765 0.930 . S
N761 Co756 2.057 . S
N761 C759 1.316 . S
N761 C760 1.375 . S
N762 C759 1.347 . S
N762 C763 1.373 . S
C763 C760 1.350 . S
C763 N762 1.373 . S
C763 H784 0.931 . S
H764 C759 0.931 . S
H765 C760 0.930 . S
C766 O773 1.259 . S
C766 O774 1.258 . S
N767 Co758 2.057 . S
N767 C768 1.316 . S
N767 C769 1.375 . S
C768 N767 1.316 . S
C768 N770 1.347 . S
C768 H779 0.931 . S
C769 N767 1.375 . S
C769 C771 1.350 . S
C769 H778 0.930 . S
N770 C768 1.347 . S
N770 C771 1.373 . S
C771 C769 1.350 . S
C771 N770 1.373 . S
C771 H785 0.931 . S
C772 O775 1.256 . S
C772 O776 1.255 . S
O773 Co756 2.021 . S
O773 C766 1.259 . S
O774 Co758 2.117 . S
O774 C766 1.258 . S
O775 Co758 2.020 . S
O775 C772 1.256 . S
O776 Co756 2.062 . S
O776 C772 1.255 . S
O777 C757 1.259 . S
O777 Co758 2.021 . S
H778 C769 0.930 . S
H779 C768 0.931 . S
O780 Co756 2.117 . S
O780 C757 1.258 . S
O781 Co756 2.020 . S
O781 C783 1.256 . S
O782 Co758 2.062 . S
O782 C783 1.255 . S
C783 O781 1.256 . S
C783 O782 1.255 . S
H784 C763 0.931 . S
H785 C771 0.931 . S
Co786 N791 2.057 . S
Co786 O803 2.021 . S
Co786 O806 2.062 . S
Co786 O810 2.117 . S
Co786 O811 2.020 . S
C787 O807 1.259 . S
C787 O810 1.258 . S
Co788 N797 2.057 . S
Co788 O804 2.117 . S
Co788 O805 2.020 . S
Co788 O807 2.021 . S
Co788 O812 2.062 . S
C789 N791 1.316 . S
C789 N792 1.347 . S
C789 H794 0.931 . S
C790 N791 1.375 . S
C790 C793 1.350 . S
C790 H795 0.930 . S
N791 Co786 2.057 . S
N791 C789 1.316 . S
N791 C790 1.375 . S
N792 C789 1.347 . S
N792 C793 1.373 . S
C793 C790 1.350 . S
C793 N792 1.373 . S
C793 H814 0.931 . S
H794 C789 0.931 . S
H795 C790 0.930 . S
C796 O803 1.259 . S
C796 O804 1.258 . S
N797 Co788 2.057 . S
N797 C798 1.316 . S
N797 C799 1.375 . S
C798 N797 1.316 . S
C798 N800 1.347 . S
C798 H809 0.931 . S
C799 N797 1.375 . S
C799 C801 1.350 . S
C799 H808 0.930 . S
N800 C798 1.347 . S
N800 C801 1.373 . S
C801 C799 1.350 . S
C801 N800 1.373 . S
C801 H815 0.931 . S
C802 O805 1.256 . S
C802 O806 1.255 . S
O803 Co786 2.021 . S
O803 C796 1.259 . S
O804 Co788 2.117 . S
O804 C796 1.258 . S
O805 Co788 2.020 . S
O805 C802 1.256 . S
O806 Co786 2.062 . S
O806 C802 1.255 . S
O807 C787 1.259 . S
O807 Co788 2.021 . S
H808 C799 0.930 . S
H809 C798 0.931 . S
O810 Co786 2.117 . S
O810 C787 1.258 . S
O811 Co786 2.020 . S
O811 C813 1.256 . S
O812 Co788 2.062 . S
O812 C813 1.255 . S
C813 O811 1.256 . S
C813 O812 1.255 . S
H814 C793 0.931 . S
H815 C801 0.931 . S
Co816 N821 2.057 1_556 S
Co816 O833 2.021 . S
Co816 O836 2.062 . S
Co816 O840 2.117 . S
Co816 O841 2.020 . S
C817 O837 1.259 . S
C817 O840 1.258 . S
Co818 N827 2.057 . S
Co818 O834 2.117 . S
Co818 O835 2.020 . S
Co818 O837 2.021 . S
Co818 O842 2.062 . S
C819 N821 1.316 . S
C819 N822 1.347 . S
C819 H824 0.931 . S
C820 N821 1.375 . S
C820 C823 1.350 . S
C820 H825 0.930 1_554 S
N821 Co816 2.057 1_554 S
N821 C819 1.316 . S
N821 C820 1.375 . S
N822 C819 1.347 . S
N822 C823 1.373 . S
C823 C820 1.350 . S
C823 N822 1.373 . S
C823 H844 0.931 . S
H824 C819 0.931 . S
H825 C820 0.930 1_556 S
C826 O833 1.259 . S
C826 O834 1.258 . S
N827 Co818 2.057 . S
N827 C828 1.316 . S
N827 C829 1.375 . S
C828 N827 1.316 . S
C828 N830 1.347 . S
C828 H839 0.931 . S
C829 N827 1.375 . S
C829 C831 1.350 . S
C829 H838 0.930 . S
N830 C828 1.347 . S
N830 C831 1.373 . S
C831 C829 1.350 . S
C831 N830 1.373 . S
C831 H845 0.931 . S
C832 O835 1.256 . S
C832 O836 1.255 . S
O833 Co816 2.021 . S
O833 C826 1.259 . S
O834 Co818 2.117 . S
O834 C826 1.258 . S
O835 Co818 2.020 . S
O835 C832 1.256 . S
O836 Co816 2.062 . S
O836 C832 1.255 . S
O837 C817 1.259 . S
O837 Co818 2.021 . S
H838 C829 0.930 . S
H839 C828 0.931 . S
O840 Co816 2.117 . S
O840 C817 1.258 . S
O841 Co816 2.020 . S
O841 C843 1.256 . S
O842 Co818 2.062 . S
O842 C843 1.255 . S
C843 O841 1.256 . S
C843 O842 1.255 . S
H844 C823 0.931 . S
H845 C831 0.931 . S
Co846 N851 2.057 . S
Co846 O863 2.021 . S
Co846 O866 2.062 . S
Co846 O870 2.117 . S
Co846 O871 2.020 . S
C847 O867 1.259 . S
C847 O870 1.258 . S
Co848 N857 2.057 . S
Co848 O864 2.117 . S
Co848 O865 2.020 . S
Co848 O867 2.021 . S
Co848 O872 2.062 . S
C849 N851 1.316 . S
C849 N852 1.347 . S
C849 H854 0.931 . S
C850 N851 1.375 . S
C850 C853 1.350 . S
C850 H855 0.930 . S
N851 Co846 2.057 . S
N851 C849 1.316 . S
N851 C850 1.375 . S
N852 C849 1.347 . S
N852 C853 1.373 . S
C853 C850 1.350 . S
C853 N852 1.373 . S
C853 H874 0.931 . S
H854 C849 0.931 . S
H855 C850 0.930 . S
C856 O863 1.259 . S
C856 O864 1.258 . S
N857 Co848 2.057 . S
N857 C858 1.316 1_545 S
N857 C859 1.375 1_545 S
C858 N857 1.316 1_565 S
C858 N860 1.347 . S
C858 H869 0.923 1_565 S
C859 N857 1.375 1_565 S
C859 C861 1.350 . S
C859 H868 0.930 . S
N860 C858 1.347 . S
N860 C861 1.373 . S
C861 C859 1.350 . S
C861 N860 1.373 . S
C861 H875 0.931 . S
C862 O865 1.256 . S
C862 O866 1.255 . S
O863 Co846 2.021 . S
O863 C856 1.259 . S
O864 Co848 2.117 . S
O864 C856 1.258 . S
O865 Co848 2.020 . S
O865 C862 1.256 . S
O866 Co846 2.062 . S
O866 C862 1.255 . S
O867 C847 1.259 . S
O867 Co848 2.021 . S
H868 C859 0.930 . S
H869 C858 0.923 1_545 S
O870 Co846 2.117 . S
O870 C847 1.258 . S
O871 Co846 2.020 . S
O871 C873 1.256 . S
O872 Co848 2.062 . S
O872 C873 1.255 . S
C873 O871 1.256 . S
C873 O872 1.255 . S
H874 C853 0.931 . S
H875 C861 0.931 . S
H876 C888 0.930 . S
H877 C890 0.930 . S
H878 C891 0.930 . S
H879 C895 0.959 1_455 S
H880 C895 0.959 . S
H881 C895 0.961 . S
H882 C896 0.960 . S
H883 C896 0.961 . S
H884 C896 0.959 . S
H885 C899 0.929 . S
H886 C900 0.931 . S
H887 C902 0.930 1_655 S
C888 H876 0.930 . S
C888 C889 1.399 . S
C888 C893 1.399 . S
C889 C888 1.399 . S
C889 C890 1.376 . S
C890 H877 0.930 . S
C890 C889 1.376 . S
C890 C891 1.388 . S
C891 H878 0.930 . S
C891 C890 1.388 . S
C891 C892 1.390 . S
C892 C891 1.390 . S
C892 C893 1.394 . S
C892 C898 1.465 . S
C893 C888 1.399 . S
C893 C892 1.394 . S
C893 C894 1.516 . S
C894 C893 1.516 . S
C894 C895 1.502 1_455 S
C894 C896 1.561 1_455 S
C894 C897 1.526 . S
C895 H879 0.959 1_655 S
C895 H880 0.959 . S
C895 H881 0.961 . S
C895 C894 1.502 1_655 S
C896 H882 0.960 . S
C896 H883 0.961 . S
C896 H884 0.959 . S
C896 C894 1.561 1_655 S
C897 C894 1.526 . S
C897 C898 1.396 . S
C897 C902 1.390 . S
C898 C892 1.465 . S
C898 C897 1.396 . S
C898 C899 1.399 . S
C899 H885 0.929 . S
C899 C898 1.399 . S
C899 C900 1.385 1_545 S
C900 H886 0.931 . S
C900 C899 1.385 1_565 S
C900 C901 1.389 . S
C901 C900 1.389 . S
C901 C902 1.387 1_565 S
C902 H887 0.930 1_455 S
C902 C897 1.390 . S
C902 C901 1.387 1_545 S
H903 C915 0.930 . S
H904 C917 0.930 1_655 S
H905 C918 0.930 . S
H906 C922 0.959 . S
H907 C922 0.959 . S
H908 C922 0.961 . S
H909 C923 0.960 . S
H910 C923 0.961 . S
H911 C923 0.959 . S
H912 C926 0.929 . S
H913 C927 0.931 . S
H914 C929 0.930 . S
C915 H903 0.930 . S
C915 C916 1.399 . S
C915 C920 1.399 . S
C916 C915 1.399 . S
C916 C917 1.376 . S
C917 H904 0.930 1_455 S
C917 C916 1.376 . S
C917 C918 1.388 1_455 S
C918 H905 0.930 . S
C918 C917 1.388 1_655 S
C918 C919 1.390 1_655 S
C919 C918 1.390 1_455 S
C919 C920 1.394 . S
C919 C925 1.465 . S
C920 C915 1.399 . S
C920 C919 1.394 . S
C920 C921 1.516 . S
C921 C920 1.516 . S
C921 C922 1.502 . S
C921 C923 1.561 1_455 S
C921 C924 1.526 . S
C922 H906 0.959 . S
C922 H907 0.959 . S
C922 H908 0.961 . S
C922 C921 1.502 . S
C923 H909 0.960 . S
C923 H910 0.961 . S
C923 H911 0.959 . S
C923 C921 1.561 1_655 S
C924 C921 1.526 . S
C924 C925 1.396 . S
C924 C929 1.390 . S
C925 C919 1.465 . S
C925 C924 1.396 . S
C925 C926 1.399 1_455 S
C926 H912 0.929 . S
C926 C925 1.399 1_655 S
C926 C927 1.385 . S
C927 H913 0.931 . S
C927 C926 1.385 . S
C927 C928 1.389 1_655 S
C928 C927 1.389 1_455 S
C928 C929 1.387 . S
C929 H914 0.930 . S
C929 C924 1.390 . S
C929 C928 1.387 . S
H930 C942 0.930 . S
H931 C944 0.930 . S
H932 C945 0.930 . S
H933 C949 0.977 . S
H934 C949 0.961 . S
H935 C949 0.961 . S
H936 C950 0.960 . S
H937 C950 0.961 . S
H938 C950 0.959 . S
H939 C953 0.929 . S
H940 C954 0.931 . S
H941 C956 0.930 . S
C942 H930 0.930 . S
C942 C943 1.399 . S
C942 C947 1.399 . S
C943 C942 1.399 . S
C943 C944 1.376 . S
C944 H931 0.930 . S
C944 C943 1.376 . S
C944 C945 1.388 . S
C945 H932 0.930 . S
C945 C944 1.388 . S
C945 C946 1.390 . S
C946 C945 1.390 . S
C946 C947 1.394 . S
C946 C952 1.465 . S
C947 C942 1.399 . S
C947 C946 1.394 . S
C947 C948 1.516 . S
C948 C947 1.516 . S
C948 C949 1.483 1_455 S
C948 C950 1.561 . S
C948 C951 1.526 . S
C949 H933 0.977 . S
C949 H934 0.961 . S
C949 H935 0.961 . S
C949 C948 1.483 1_655 S
C950 H936 0.960 . S
C950 H937 0.961 . S
C950 H938 0.959 . S
C950 C948 1.561 . S
C951 C948 1.526 . S
C951 C952 1.396 . S
C951 C956 1.390 . S
C952 C946 1.465 . S
C952 C951 1.396 . S
C952 C953 1.399 . S
C953 H939 0.929 . S
C953 C952 1.399 . S
C953 C954 1.385 . S
C954 H940 0.931 . S
C954 C953 1.385 . S
C954 C955 1.389 . S
C955 C954 1.389 . S
C955 C956 1.387 . S
C956 H941 0.930 . S
C956 C951 1.390 . S
C956 C955 1.387 . S
H957 C969 0.920 1_455 S
H958 C971 0.930 . S
H959 C972 0.930 . S
H960 C976 0.959 . S
H961 C976 0.959 . S
H962 C976 0.961 . S
H963 C977 0.960 . S
H964 C977 0.961 . S
H965 C977 0.959 . S
H966 C980 0.929 . S
H967 C981 0.931 . S
H968 C983 0.930 . S
C969 H957 0.920 1_655 S
C969 C970 1.399 . S
C969 C974 1.399 . S
C970 C969 1.399 . S
C970 C971 1.376 . S
C971 H958 0.930 . S
C971 C970 1.376 . S
C971 C972 1.388 . S
C972 H959 0.930 . S
C972 C971 1.388 . S
C972 C973 1.390 . S
C973 C972 1.390 . S
C973 C974 1.394 . S
C973 C979 1.465 . S
C974 C969 1.399 . S
C974 C973 1.394 . S
C974 C975 1.516 . S
C975 C974 1.516 . S
C975 C976 1.502 1_655 S
C975 C977 1.561 . S
C975 C978 1.526 . S
C976 H960 0.959 . S
C976 H961 0.959 . S
C976 H962 0.961 . S
C976 C975 1.502 1_455 S
C977 H963 0.960 . S
C977 H964 0.961 . S
C977 H965 0.959 . S
C977 C975 1.561 . S
C978 C975 1.526 . S
C978 C979 1.396 . S
C978 C983 1.390 . S
C979 C973 1.465 . S
C979 C978 1.396 . S
C979 C980 1.399 . S
C980 H966 0.929 . S
C980 C979 1.399 . S
C980 C981 1.385 . S
C981 H967 0.931 . S
C981 C980 1.385 . S
C981 C982 1.389 . S
C982 C981 1.389 . S
C982 C983 1.387 . S
C983 H968 0.930 . S
C983 C978 1.390 . S
C983 C982 1.387 . S
H984 C996 0.930 . S
H985 C998 0.930 . S
H986 C999 0.930 . S
H987 C1003 0.959 1_545 S
H988 C1003 0.959 . S
H989 C1003 0.961 . S
H990 C1004 0.960 . S
H991 C1004 0.961 . S
H992 C1004 0.959 . S
H993 C1007 0.929 . S
H994 C1008 0.931 . S
H995 C1010 0.930 . S
C996 H984 0.930 . S
C996 C997 1.399 . S
C996 C1001 1.399 . S
C997 C996 1.399 . S
C997 C998 1.376 . S
C998 H985 0.930 . S
C998 C997 1.376 . S
C998 C999 1.388 . S
C999 H986 0.930 . S
C999 C998 1.388 . S
C999 C1000 1.390 . S
C1000 C999 1.390 . S
C1000 C1001 1.394 . S
C1000 C1006 1.465 . S
C1001 C996 1.399 . S
C1001 C1000 1.394 . S
C1001 C1002 1.516 . S
C1002 C1001 1.516 . S
C1002 C1003 1.502 1_545 S
C1002 C1004 1.561 1_545 S
C1002 C1005 1.526 . S
C1003 H987 0.959 1_565 S
C1003 H988 0.959 . S
C1003 H989 0.961 . S
C1003 C1002 1.502 1_565 S
C1004 H990 0.960 . S
C1004 H991 0.961 . S
C1004 H992 0.959 . S
C1004 C1002 1.561 1_565 S
C1005 C1002 1.526 . S
C1005 C1006 1.396 . S
C1005 C1010 1.390 . S
C1006 C1000 1.465 . S
C1006 C1005 1.396 . S
C1006 C1007 1.399 . S
C1007 H993 0.929 . S
C1007 C1006 1.399 . S
C1007 C1008 1.385 . S
C1008 H994 0.931 . S
C1008 C1007 1.385 . S
C1008 C1009 1.389 . S
C1009 C1008 1.389 . S
C1009 C1010 1.387 . S
C1010 H995 0.930 . S
C1010 C1005 1.390 . S
C1010 C1009 1.387 . S
H1011 C1023 0.930 . S
H1012 C1025 0.930 . S
H1013 C1026 0.930 . S
H1014 C1030 0.959 . S
H1015 C1030 0.959 . S
H1016 C1030 0.961 . S
H1017 C1031 0.960 . S
H1018 C1031 0.961 . S
H1019 C1031 0.959 . S
H1020 C1034 0.929 . S
H1021 C1035 0.931 . S
H1022 C1037 0.930 . S
C1023 H1011 0.930 . S
C1023 C1024 1.399 . S
C1023 C1028 1.399 . S
C1024 C1023 1.399 . S
C1024 C1025 1.376 . S
C1025 H1012 0.930 . S
C1025 C1024 1.376 . S
C1025 C1026 1.388 . S
C1026 H1013 0.930 . S
C1026 C1025 1.388 . S
C1026 C1027 1.390 . S
C1027 C1026 1.390 . S
C1027 C1028 1.394 . S
C1027 C1033 1.465 . S
C1028 C1023 1.399 . S
C1028 C1027 1.394 . S
C1028 C1029 1.516 . S
C1029 C1028 1.516 . S
C1029 C1030 1.502 . S
C1029 C1031 1.561 . S
C1029 C1032 1.526 . S
C1030 H1014 0.959 . S
C1030 H1015 0.959 . S
C1030 H1016 0.961 . S
C1030 C1029 1.502 . S
C1031 H1017 0.960 . S
C1031 H1018 0.961 . S
C1031 H1019 0.959 . S
C1031 C1029 1.561 . S
C1032 C1029 1.526 . S
C1032 C1033 1.396 . S
C1032 C1037 1.390 . S
C1033 C1027 1.465 . S
C1033 C1032 1.396 . S
C1033 C1034 1.399 . S
C1034 H1020 0.929 . S
C1034 C1033 1.399 . S
C1034 C1035 1.385 . S
C1035 H1021 0.931 . S
C1035 C1034 1.385 . S
C1035 C1036 1.389 . S
C1036 C1035 1.389 . S
C1036 C1037 1.387 . S
C1037 H1022 0.930 . S
C1037 C1032 1.390 . S
C1037 C1036 1.387 . S
H1038 C1050 0.930 . S
H1039 C1052 0.930 . S
H1040 C1053 0.930 . S
H1041 C1057 0.959 . S
H1042 C1057 0.959 . S
H1043 C1057 0.961 . S
H1044 C1058 0.960 . S
H1045 C1058 0.961 . S
H1046 C1058 0.959 . S
H1047 C1061 0.929 . S
H1048 C1062 0.931 . S
H1049 C1064 0.930 . S
C1050 H1038 0.930 . S
C1050 C1051 1.399 1_545 S
C1050 C1055 1.399 . S
C1051 C1050 1.399 1_565 S
C1051 C1052 1.376 . S
C1052 H1039 0.930 . S
C1052 C1051 1.376 . S
C1052 C1053 1.388 . S
C1053 H1040 0.930 . S
C1053 C1052 1.388 . S
C1053 C1054 1.390 . S
C1054 C1053 1.390 . S
C1054 C1055 1.394 1_565 S
C1054 C1060 1.465 . S
C1055 C1050 1.399 . S
C1055 C1054 1.394 1_545 S
C1055 C1056 1.516 . S
C1056 C1055 1.516 . S
C1056 C1057 1.502 . S
C1056 C1058 1.561 . S
C1056 C1059 1.526 . S
C1057 H1041 0.959 . S
C1057 H1042 0.959 . S
C1057 H1043 0.961 . S
C1057 C1056 1.502 . S
C1058 H1044 0.960 . S
C1058 H1045 0.961 . S
C1058 H1046 0.959 . S
C1058 C1056 1.561 . S
C1059 C1056 1.526 . S
C1059 C1060 1.396 1_545 S
C1059 C1064 1.390 . S
C1060 C1054 1.465 . S
C1060 C1059 1.396 1_565 S
C1060 C1061 1.399 . S
C1061 H1047 0.929 . S
C1061 C1060 1.399 . S
C1061 C1062 1.385 . S
C1062 H1048 0.931 . S
C1062 C1061 1.385 . S
C1062 C1063 1.389 . S
C1063 C1062 1.389 . S
C1063 C1064 1.387 1_565 S
C1064 H1049 0.930 . S
C1064 C1059 1.390 . S
C1064 C1063 1.387 1_545 S
H1065 C1077 0.930 . S
H1066 C1079 0.930 . S
H1067 C1080 0.930 . S
H1068 C1084 0.959 . S
H1069 C1084 0.959 . S
H1070 C1084 0.961 . S
H1071 C1085 0.960 . S
H1072 C1085 0.961 . S
H1073 C1085 0.959 . S
H1074 C1088 0.929 . S
H1075 C1089 0.931 . S
H1076 C1091 0.930 . S
C1077 H1065 0.930 . S
C1077 C1078 1.399 . S
C1077 C1082 1.399 . S
C1078 C1077 1.399 . S
C1078 C1079 1.376 . S
C1079 H1066 0.930 . S
C1079 C1078 1.376 . S
C1079 C1080 1.388 . S
C1080 H1067 0.930 . S
C1080 C1079 1.388 . S
C1080 C1081 1.390 . S
C1081 C1080 1.390 . S
C1081 C1082 1.394 . S
C1081 C1087 1.465 . S
C1082 C1077 1.399 . S
C1082 C1081 1.394 . S
C1082 C1083 1.516 . S
C1083 C1082 1.516 . S
C1083 C1084 1.502 . S
C1083 C1085 1.561 . S
C1083 C1086 1.526 . S
C1084 H1068 0.959 . S
C1084 H1069 0.959 . S
C1084 H1070 0.961 . S
C1084 C1083 1.502 . S
C1085 H1071 0.960 . S
C1085 H1072 0.961 . S
C1085 H1073 0.959 . S
C1085 C1083 1.561 . S
C1086 C1083 1.526 . S
C1086 C1087 1.396 . S
C1086 C1091 1.390 . S
C1087 C1081 1.465 . S
C1087 C1086 1.396 . S
C1087 C1088 1.399 . S
C1088 H1074 0.929 . S
C1088 C1087 1.399 . S
C1088 C1089 1.385 . S
C1089 H1075 0.931 . S
C1089 C1088 1.385 . S
C1089 C1090 1.389 . S
C1090 C1089 1.389 . S
C1090 C1091 1.387 . S
C1091 H1076 0.930 . S
C1091 C1086 1.390 . S
C1091 C1090 1.387 . S
H1092 C1104 0.930 . S
H1093 C1106 0.930 . S
H1094 C1107 0.930 . S
H1095 C1111 0.959 . S
H1096 C1111 0.959 . S
H1097 C1111 0.961 . S
H1098 C1112 0.960 . S
H1099 C1112 0.974 . S
H1100 C1112 0.959 . S
H1101 C1115 0.929 . S
H1102 C1116 0.931 . S
H1103 C1118 0.930 1_556 S
C1104 H1092 0.930 . S
C1104 C1105 1.399 . S
C1104 C1109 1.399 . S
C1105 C1104 1.399 . S
C1105 C1106 1.376 . S
C1106 H1093 0.930 . S
C1106 C1105 1.376 . S
C1106 C1107 1.388 . S
C1107 H1094 0.930 . S
C1107 C1106 1.388 . S
C1107 C1108 1.390 . S
C1108 C1107 1.390 . S
C1108 C1109 1.394 . S
C1108 C1114 1.465 . S
C1109 C1104 1.399 . S
C1109 C1108 1.394 . S
C1109 C1110 1.516 . S
C1110 C1109 1.516 . S
C1110 C1111 1.502 1_554 S
C1110 C1112 1.561 . S
C1110 C1113 1.526 . S
C1111 H1095 0.959 . S
C1111 H1096 0.959 . S
C1111 H1097 0.961 . S
C1111 C1110 1.502 1_556 S
C1112 H1098 0.960 . S
C1112 H1099 0.974 . S
C1112 H1100 0.959 . S
C1112 C1110 1.561 . S
C1113 C1110 1.526 . S
C1113 C1114 1.396 . S
C1113 C1118 1.390 . S
C1114 C1108 1.465 . S
C1114 C1113 1.396 . S
C1114 C1115 1.399 . S
C1115 H1101 0.929 . S
C1115 C1114 1.399 . S
C1115 C1116 1.385 . S
C1116 H1102 0.931 . S
C1116 C1115 1.385 . S
C1116 C1117 1.389 . S
C1117 C1116 1.389 . S
C1117 C1118 1.387 . S
C1118 H1103 0.930 1_554 S
C1118 C1113 1.390 . S
C1118 C1117 1.387 . S
H1119 C1131 0.930 . S
H1120 C1133 0.930 . S
H1121 C1134 0.930 . S
H1122 C1138 0.959 . S
H1123 C1138 0.959 . S
H1124 C1138 0.961 . S
H1125 C1139 0.960 . S
H1126 C1139 0.961 . S
H1127 C1139 0.959 . S
H1128 C1142 0.929 . S
H1129 C1143 0.931 . S
H1130 C1145 0.930 . S
C1131 H1119 0.930 . S
C1131 C1132 1.399 . S
C1131 C1136 1.399 . S
C1132 C1131 1.399 . S
C1132 C1133 1.376 . S
C1133 H1120 0.930 . S
C1133 C1132 1.376 . S
C1133 C1134 1.388 . S
C1134 H1121 0.930 . S
C1134 C1133 1.388 . S
C1134 C1135 1.390 . S
C1135 C1134 1.390 . S
C1135 C1136 1.394 . S
C1135 C1141 1.465 . S
C1136 C1131 1.399 . S
C1136 C1135 1.394 . S
C1136 C1137 1.516 . S
C1137 C1136 1.516 . S
C1137 C1138 1.502 . S
C1137 C1139 1.561 . S
C1137 C1140 1.526 . S
C1138 H1122 0.959 . S
C1138 H1123 0.959 . S
C1138 H1124 0.961 . S
C1138 C1137 1.502 . S
C1139 H1125 0.960 . S
C1139 H1126 0.961 . S
C1139 H1127 0.959 . S
C1139 C1137 1.561 . S
C1140 C1137 1.526 . S
C1140 C1141 1.396 . S
C1140 C1145 1.390 . S
C1141 C1135 1.465 . S
C1141 C1140 1.396 . S
C1141 C1142 1.399 . S
C1142 H1128 0.929 . S
C1142 C1141 1.399 . S
C1142 C1143 1.385 . S
C1143 H1129 0.931 . S
C1143 C1142 1.385 . S
C1143 C1144 1.389 . S
C1144 C1143 1.389 . S
C1144 C1145 1.387 . S
C1145 H1130 0.930 . S
C1145 C1140 1.390 . S
C1145 C1144 1.387 . S
H1146 C1158 0.930 . S
H1147 C1160 0.930 . S
H1148 C1161 0.930 . S
H1149 C1165 0.959 . S
H1150 C1165 0.959 . S
H1151 C1165 0.961 . S
H1152 C1166 0.960 . S
H1153 C1166 0.961 . S
H1154 C1166 0.959 . S
H1155 C1169 0.929 . S
H1156 C1170 0.931 . S
H1157 C1172 0.930 . S
C1158 H1146 0.930 . S
C1158 C1159 1.399 . S
C1158 C1163 1.399 . S
C1159 C1158 1.399 . S
C1159 C1160 1.376 . S
C1160 H1147 0.930 . S
C1160 C1159 1.376 . S
C1160 C1161 1.388 . S
C1161 H1148 0.930 . S
C1161 C1160 1.388 . S
C1161 C1162 1.390 . S
C1162 C1161 1.390 . S
C1162 C1163 1.394 . S
C1162 C1168 1.465 . S
C1163 C1158 1.399 . S
C1163 C1162 1.394 . S
C1163 C1164 1.516 . S
C1164 C1163 1.516 . S
C1164 C1165 1.502 . S
C1164 C1166 1.561 . S
C1164 C1167 1.526 . S
C1165 H1149 0.959 . S
C1165 H1150 0.959 . S
C1165 H1151 0.961 . S
C1165 C1164 1.502 . S
C1166 H1152 0.960 . S
C1166 H1153 0.961 . S
C1166 H1154 0.959 . S
C1166 C1164 1.561 . S
C1167 C1164 1.526 . S
C1167 C1168 1.396 . S
C1167 C1172 1.390 . S
C1168 C1162 1.465 . S
C1168 C1167 1.396 . S
C1168 C1169 1.399 . S
C1169 H1155 0.929 . S
C1169 C1168 1.399 . S
C1169 C1170 1.385 . S
C1170 H1156 0.931 . S
C1170 C1169 1.385 . S
C1170 C1171 1.389 . S
C1171 C1170 1.389 . S
C1171 C1172 1.387 . S
C1172 H1157 0.930 . S
C1172 C1167 1.390 . S
C1172 C1171 1.387 . S
H1173 C1185 0.930 . S
H1174 C1187 0.930 . S
H1175 C1188 0.930 . S
H1176 C1192 0.959 . S
H1177 C1192 0.959 . S
H1178 C1192 0.961 . S
H1179 C1193 0.960 . S
H1180 C1193 0.961 . S
H1181 C1193 0.959 . S
H1182 C1196 0.929 . S
H1183 C1197 0.931 . S
H1184 C1199 0.930 . S
C1185 H1173 0.930 . S
C1185 C1186 1.399 . S
C1185 C1190 1.399 . S
C1186 C1185 1.399 . S
C1186 C1187 1.376 . S
C1187 H1174 0.930 . S
C1187 C1186 1.376 . S
C1187 C1188 1.388 . S
C1188 H1175 0.930 . S
C1188 C1187 1.388 . S
C1188 C1189 1.390 . S
C1189 C1188 1.390 . S
C1189 C1190 1.394 . S
C1189 C1195 1.465 . S
C1190 C1185 1.399 . S
C1190 C1189 1.394 . S
C1190 C1191 1.516 . S
C1191 C1190 1.516 . S
C1191 C1192 1.502 . S
C1191 C1193 1.561 . S
C1191 C1194 1.526 . S
C1192 H1176 0.959 . S
C1192 H1177 0.959 . S
C1192 H1178 0.961 . S
C1192 C1191 1.502 . S
C1193 H1179 0.960 . S
C1193 H1180 0.961 . S
C1193 H1181 0.959 . S
C1193 C1191 1.561 . S
C1194 C1191 1.526 . S
C1194 C1195 1.396 . S
C1194 C1199 1.390 . S
C1195 C1189 1.465 . S
C1195 C1194 1.396 . S
C1195 C1196 1.399 . S
C1196 H1182 0.929 . S
C1196 C1195 1.399 . S
C1196 C1197 1.385 . S
C1197 H1183 0.931 . S
C1197 C1196 1.385 . S
C1197 C1198 1.389 . S
C1198 C1197 1.389 . S
C1198 C1199 1.387 . S
C1199 H1184 0.930 . S
C1199 C1194 1.390 . S
C1199 C1198 1.387 . S
H1200 C1212 0.930 . S
H1201 C1214 0.930 . S
H1202 C1215 0.930 . S
H1203 C1219 0.959 . S
H1204 C1219 0.959 . S
H1205 C1219 0.961 . S
H1206 C1220 0.960 . S
H1207 C1220 0.961 . S
H1208 C1220 0.959 . S
H1209 C1223 0.929 . S
H1210 C1224 0.931 . S
H1211 C1226 0.930 . S
C1212 H1200 0.930 . S
C1212 C1213 1.399 . S
C1212 C1217 1.399 . S
C1213 C1212 1.399 . S
C1213 C1214 1.376 . S
C1214 H1201 0.930 . S
C1214 C1213 1.376 . S
C1214 C1215 1.388 . S
C1215 H1202 0.930 . S
C1215 C1214 1.388 . S
C1215 C1216 1.390 . S
C1216 C1215 1.390 . S
C1216 C1217 1.394 . S
C1216 C1222 1.465 . S
C1217 C1212 1.399 . S
C1217 C1216 1.394 . S
C1217 C1218 1.516 . S
C1218 C1217 1.516 . S
C1218 C1219 1.502 . S
C1218 C1220 1.561 . S
C1218 C1221 1.526 . S
C1219 H1203 0.959 . S
C1219 H1204 0.959 . S
C1219 H1205 0.961 . S
C1219 C1218 1.502 . S
C1220 H1206 0.960 . S
C1220 H1207 0.961 . S
C1220 H1208 0.959 . S
C1220 C1218 1.561 . S
C1221 C1218 1.526 . S
C1221 C1222 1.396 . S
C1221 C1226 1.390 . S
C1222 C1216 1.465 . S
C1222 C1221 1.396 . S
C1222 C1223 1.399 . S
C1223 H1209 0.929 . S
C1223 C1222 1.399 . S
C1223 C1224 1.385 . S
C1224 H1210 0.931 . S
C1224 C1223 1.385 . S
C1224 C1225 1.389 . S
C1225 C1224 1.389 . S
C1225 C1226 1.387 . S
C1226 H1211 0.930 . S
C1226 C1221 1.390 . S
C1226 C1225 1.387 . S
H1227 C1239 0.930 . S
H1228 C1241 0.930 . S
H1229 C1242 0.930 . S
H1230 C1246 0.959 . S
H1231 C1246 0.959 . S
H1232 C1246 0.961 . S
H1233 C1247 0.960 . S
H1234 C1247 0.961 . S
H1235 C1247 0.959 . S
H1236 C1250 0.929 . S
H1237 C1251 0.931 . S
H1238 C1253 0.930 . S
C1239 H1227 0.930 . S
C1239 C1240 1.399 . S
C1239 C1244 1.399 . S
C1240 C1239 1.399 . S
C1240 C1241 1.376 . S
C1241 H1228 0.930 . S
C1241 C1240 1.376 . S
C1241 C1242 1.388 . S
C1242 H1229 0.930 . S
C1242 C1241 1.388 . S
C1242 C1243 1.390 . S
C1243 C1242 1.390 . S
C1243 C1244 1.394 . S
C1243 C1249 1.465 . S
C1244 C1239 1.399 . S
C1244 C1243 1.394 . S
C1244 C1245 1.516 . S
C1245 C1244 1.516 . S
C1245 C1246 1.502 . S
C1245 C1247 1.561 . S
C1245 C1248 1.526 . S
C1246 H1230 0.959 . S
C1246 H1231 0.959 . S
C1246 H1232 0.961 . S
C1246 C1245 1.502 . S
C1247 H1233 0.960 . S
C1247 H1234 0.961 . S
C1247 H1235 0.959 . S
C1247 C1245 1.561 . S
C1248 C1245 1.526 . S
C1248 C1249 1.396 . S
C1248 C1253 1.390 . S
C1249 C1243 1.465 . S
C1249 C1248 1.396 . S
C1249 C1250 1.399 . S
C1250 H1236 0.929 . S
C1250 C1249 1.399 . S
C1250 C1251 1.385 . S
C1251 H1237 0.931 . S
C1251 C1250 1.385 . S
C1251 C1252 1.389 . S
C1252 C1251 1.389 . S
C1252 C1253 1.387 . S
C1253 H1238 0.930 . S
C1253 C1248 1.390 . S
C1253 C1252 1.387 . S
H1254 C1266 0.930 . S
H1255 C1268 0.930 . S
H1256 C1269 0.930 . S
H1257 C1273 0.959 . S
H1258 C1273 0.959 . S
H1259 C1273 0.961 . S
H1260 C1274 0.960 . S
H1261 C1274 0.961 . S
H1262 C1274 0.959 . S
H1263 C1277 0.929 . S
H1264 C1278 0.931 . S
H1265 C1280 0.930 . S
C1266 H1254 0.930 . S
C1266 C1267 1.399 . S
C1266 C1271 1.399 . S
C1267 C1266 1.399 . S
C1267 C1268 1.376 . S
C1268 H1255 0.930 . S
C1268 C1267 1.376 . S
C1268 C1269 1.388 . S
C1269 H1256 0.930 . S
C1269 C1268 1.388 . S
C1269 C1270 1.390 . S
C1270 C1269 1.390 . S
C1270 C1271 1.394 . S
C1270 C1276 1.465 . S
C1271 C1266 1.399 . S
C1271 C1270 1.394 . S
C1271 C1272 1.516 . S
C1272 C1271 1.516 . S
C1272 C1273 1.502 . S
C1272 C1274 1.561 . S
C1272 C1275 1.526 . S
C1273 H1257 0.959 . S
C1273 H1258 0.959 . S
C1273 H1259 0.961 . S
C1273 C1272 1.502 . S
C1274 H1260 0.960 . S
C1274 H1261 0.961 . S
C1274 H1262 0.959 . S
C1274 C1272 1.561 . S
C1275 C1272 1.526 . S
C1275 C1276 1.396 . S
C1275 C1280 1.390 . S
C1276 C1270 1.465 . S
C1276 C1275 1.396 . S
C1276 C1277 1.399 . S
C1277 H1263 0.929 . S
C1277 C1276 1.399 . S
C1277 C1278 1.385 . S
C1278 H1264 0.931 . S
C1278 C1277 1.385 . S
C1278 C1279 1.389 . S
C1279 C1278 1.389 . S
C1279 C1280 1.387 . S
C1280 H1265 0.930 . S
C1280 C1275 1.390 . S
C1280 C1279 1.387 . S
H1281 C1293 0.930 . S
H1282 C1295 0.930 . S
H1283 C1296 0.930 . S
H1284 C1300 0.959 . S
H1285 C1300 0.959 . S
H1286 C1300 0.961 . S
H1287 C1301 0.960 . S
H1288 C1301 0.961 . S
H1289 C1301 0.959 . S
H1290 C1304 0.929 . S
H1291 C1305 0.931 . S
H1292 C1307 0.930 . S
C1293 H1281 0.930 . S
C1293 C1294 1.399 . S
C1293 C1298 1.399 . S
C1294 C1293 1.399 . S
C1294 C1295 1.376 . S
C1295 H1282 0.930 . S
C1295 C1294 1.376 . S
C1295 C1296 1.388 . S
C1296 H1283 0.930 . S
C1296 C1295 1.388 . S
C1296 C1297 1.390 . S
C1297 C1296 1.390 . S
C1297 C1298 1.394 . S
C1297 C1303 1.465 . S
C1298 C1293 1.399 . S
C1298 C1297 1.394 . S
C1298 C1299 1.516 . S
C1299 C1298 1.516 . S
C1299 C1300 1.502 . S
C1299 C1301 1.561 . S
C1299 C1302 1.526 . S
C1300 H1284 0.959 . S
C1300 H1285 0.959 . S
C1300 H1286 0.961 . S
C1300 C1299 1.502 . S
C1301 H1287 0.960 . S
C1301 H1288 0.961 . S
C1301 H1289 0.959 . S
C1301 C1299 1.561 . S
C1302 C1299 1.526 . S
C1302 C1303 1.396 . S
C1302 C1307 1.390 . S
C1303 C1297 1.465 . S
C1303 C1302 1.396 . S
C1303 C1304 1.399 . S
C1304 H1290 0.929 . S
C1304 C1303 1.399 . S
C1304 C1305 1.385 . S
C1305 H1291 0.931 . S
C1305 C1304 1.385 . S
C1305 C1306 1.395 . S
C1306 C1305 1.395 . S
C1306 C1307 1.390 . S
C1307 H1292 0.930 . S
C1307 C1302 1.390 . S
C1307 C1306 1.390 . S
H1308 C1320 0.930 . S
H1309 C1322 0.930 . S
H1310 C1323 0.930 . S
H1311 C1327 0.959 . S
H1312 C1327 0.959 . S
H1313 C1327 0.961 . S
H1314 C1328 0.960 . S
H1315 C1328 0.961 . S
H1316 C1328 0.959 . S
H1317 C1331 0.929 . S
H1318 C1332 0.931 . S
H1319 C1334 0.930 . S
C1320 H1308 0.930 . S
C1320 C1321 1.399 . S
C1320 C1325 1.399 . S
C1321 C1320 1.399 . S
C1321 C1322 1.376 . S
C1322 H1309 0.930 . S
C1322 C1321 1.376 . S
C1322 C1323 1.388 . S
C1323 H1310 0.930 . S
C1323 C1322 1.388 . S
C1323 C1324 1.390 . S
C1324 C1323 1.390 . S
C1324 C1325 1.394 . S
C1324 C1330 1.465 . S
C1325 C1320 1.399 . S
C1325 C1324 1.394 . S
C1325 C1326 1.516 . S
C1326 C1325 1.516 . S
C1326 C1327 1.502 . S
C1326 C1328 1.561 . S
C1326 C1329 1.526 . S
C1327 H1311 0.959 . S
C1327 H1312 0.959 . S
C1327 H1313 0.961 . S
C1327 C1326 1.502 . S
C1328 H1314 0.960 . S
C1328 H1315 0.961 . S
C1328 H1316 0.959 . S
C1328 C1326 1.561 . S
C1329 C1326 1.526 . S
C1329 C1330 1.396 . S
C1329 C1334 1.390 . S
C1330 C1324 1.465 . S
C1330 C1329 1.396 . S
C1330 C1331 1.399 . S
C1331 H1317 0.929 . S
C1331 C1330 1.399 . S
C1331 C1332 1.385 . S
C1332 H1318 0.931 . S
C1332 C1331 1.385 . S
C1332 C1333 1.389 . S
C1333 C1332 1.389 . S
C1333 C1334 1.387 . S
C1334 H1319 0.930 . S
C1334 C1329 1.390 . S
C1334 C1333 1.387 . S
H1335 C1347 0.930 . S
H1336 C1349 0.930 . S
H1337 C1350 0.930 . S
H1338 C1354 0.959 . S
H1339 C1354 0.959 . S
H1340 C1354 0.961 . S
H1341 C1355 0.960 . S
H1342 C1355 0.961 . S
H1343 C1355 0.959 . S
H1344 C1358 0.929 . S
H1345 C1359 0.931 . S
H1346 C1361 0.930 1_545 S
C1347 H1335 0.930 . S
C1347 C1348 1.399 1_545 S
C1347 C1352 1.399 1_545 S
C1348 C1347 1.399 1_565 S
C1348 C1349 1.376 . S
C1349 H1336 0.930 . S
C1349 C1348 1.376 . S
C1349 C1350 1.388 . S
C1350 H1337 0.930 . S
C1350 C1349 1.388 . S
C1350 C1351 1.390 . S
C1351 C1350 1.390 . S
C1351 C1352 1.394 . S
C1351 C1357 1.465 . S
C1352 C1347 1.399 1_565 S
C1352 C1351 1.394 . S
C1352 C1353 1.516 1_565 S
C1353 C1352 1.516 1_545 S
C1353 C1354 1.502 . S
C1353 C1355 1.561 . S
C1353 C1356 1.526 1_545 S
C1354 H1338 0.959 . S
C1354 H1339 0.959 . S
C1354 H1340 0.961 . S
C1354 C1353 1.502 . S
C1355 H1341 0.960 . S
C1355 H1342 0.961 . S
C1355 H1343 0.959 . S
C1355 C1353 1.561 . S
C1356 C1353 1.526 1_565 S
C1356 C1357 1.396 . S
C1356 C1361 1.390 . S
C1357 C1351 1.465 . S
C1357 C1356 1.396 . S
C1357 C1358 1.399 . S
C1358 H1344 0.929 . S
C1358 C1357 1.399 . S
C1358 C1359 1.385 . S
C1359 H1345 0.931 . S
C1359 C1358 1.385 . S
C1359 C1360 1.389 . S
C1360 C1359 1.389 . S
C1360 C1361 1.387 . S
C1361 H1346 0.930 1_565 S
C1361 C1356 1.390 . S
C1361 C1360 1.387 . S
H1362 C1374 0.930 . S
H1363 C1376 0.930 . S
H1364 C1377 0.930 . S
H1365 C1381 0.959 . S
H1366 C1381 0.959 . S
H1367 C1381 0.961 . S
H1368 C1382 0.960 . S
H1369 C1382 0.961 . S
H1370 C1382 0.959 . S
H1371 C1385 0.929 . S
H1372 C1386 0.931 . S
H1373 C1388 0.930 . S
C1374 H1362 0.930 . S
C1374 C1375 1.399 . S
C1374 C1379 1.399 . S
C1375 C1374 1.399 . S
C1375 C1376 1.376 . S
C1376 H1363 0.930 . S
C1376 C1375 1.376 . S
C1376 C1377 1.388 . S
C1377 H1364 0.930 . S
C1377 C1376 1.388 . S
C1377 C1378 1.390 . S
C1378 C1377 1.390 . S
C1378 C1379 1.394 . S
C1378 C1384 1.465 . S
C1379 C1374 1.399 . S
C1379 C1378 1.394 . S
C1379 C1380 1.516 . S
C1380 C1379 1.516 . S
C1380 C1381 1.502 . S
C1380 C1382 1.561 . S
C1380 C1383 1.526 . S
C1381 H1365 0.959 . S
C1381 H1366 0.959 . S
C1381 H1367 0.961 . S
C1381 C1380 1.502 . S
C1382 H1368 0.960 . S
C1382 H1369 0.961 . S
C1382 H1370 0.959 . S
C1382 C1380 1.561 . S
C1383 C1380 1.526 . S
C1383 C1384 1.396 . S
C1383 C1388 1.390 . S
C1384 C1378 1.465 . S
C1384 C1383 1.396 . S
C1384 C1385 1.399 . S
C1385 H1371 0.929 . S
C1385 C1384 1.399 . S
C1385 C1386 1.385 . S
C1386 H1372 0.931 . S
C1386 C1385 1.385 . S
C1386 C1387 1.389 . S
C1387 C1386 1.389 . S
C1387 C1388 1.387 . S
C1388 H1373 0.930 . S
C1388 C1383 1.390 . S
C1388 C1387 1.387 . S
H1389 C1401 0.930 . S
H1390 C1403 0.930 . S
H1391 C1404 0.930 . S
H1392 C1408 0.959 . S
H1393 C1408 0.959 . S
H1394 C1408 0.961 . S
H1395 C1409 0.960 . S
H1396 C1409 0.961 . S
H1397 C1409 0.959 . S
H1398 C1412 0.929 . S
H1399 C1413 0.931 . S
H1400 C1415 0.930 . S
C1401 H1389 0.930 . S
C1401 C1402 1.399 . S
C1401 C1406 1.399 . S
C1402 C1401 1.399 . S
C1402 C1403 1.376 . S
C1403 H1390 0.930 . S
C1403 C1402 1.376 . S
C1403 C1404 1.388 . S
C1404 H1391 0.930 . S
C1404 C1403 1.388 . S
C1404 C1405 1.390 . S
C1405 C1404 1.390 . S
C1405 C1406 1.394 . S
C1405 C1411 1.465 . S
C1406 C1401 1.399 . S
C1406 C1405 1.394 . S
C1406 C1407 1.516 . S
C1407 C1406 1.516 . S
C1407 C1408 1.502 . S
C1407 C1409 1.561 . S
C1407 C1410 1.526 . S
C1408 H1392 0.959 . S
C1408 H1393 0.959 . S
C1408 H1394 0.961 . S
C1408 C1407 1.502 . S
C1409 H1395 0.960 . S
C1409 H1396 0.961 . S
C1409 H1397 0.959 . S
C1409 C1407 1.561 . S
C1410 C1407 1.526 . S
C1410 C1411 1.396 . S
C1410 C1415 1.390 . S
C1411 C1405 1.465 . S
C1411 C1410 1.396 . S
C1411 C1412 1.399 . S
C1412 H1398 0.929 . S
C1412 C1411 1.399 . S
C1412 C1413 1.385 . S
C1413 H1399 0.931 . S
C1413 C1412 1.385 . S
C1413 C1414 1.389 . S
C1414 C1413 1.389 . S
C1414 C1415 1.387 . S
C1415 H1400 0.930 . S
C1415 C1410 1.390 . S
C1415 C1414 1.387 . S
H1416 C1428 0.930 . S
H1417 C1430 0.930 . S
H1418 C1431 0.930 . S
H1419 C1435 0.959 . S
H1420 C1435 0.959 . S
H1421 C1435 0.961 . S
H1422 C1436 0.960 . S
H1423 C1436 0.961 . S
H1424 C1436 0.959 . S
H1425 C1439 0.929 . S
H1426 C1440 0.931 . S
H1427 C1442 0.930 . S
C1428 H1416 0.930 . S
C1428 C1429 1.399 . S
C1428 C1433 1.399 . S
C1429 C1428 1.399 . S
C1429 C1430 1.376 . S
C1430 H1417 0.930 . S
C1430 C1429 1.376 . S
C1430 C1431 1.388 . S
C1431 H1418 0.930 . S
C1431 C1430 1.388 . S
C1431 C1432 1.390 . S
C1432 C1431 1.390 . S
C1432 C1433 1.394 . S
C1432 C1438 1.465 . S
C1433 C1428 1.399 . S
C1433 C1432 1.394 . S
C1433 C1434 1.516 . S
C1434 C1433 1.516 . S
C1434 C1435 1.502 . S
C1434 C1436 1.561 . S
C1434 C1437 1.526 . S
C1435 H1419 0.959 . S
C1435 H1420 0.959 . S
C1435 H1421 0.961 . S
C1435 C1434 1.502 . S
C1436 H1422 0.960 . S
C1436 H1423 0.961 . S
C1436 H1424 0.959 . S
C1436 C1434 1.561 . S
C1437 C1434 1.526 . S
C1437 C1438 1.396 . S
C1437 C1442 1.390 . S
C1438 C1432 1.465 . S
C1438 C1437 1.396 . S
C1438 C1439 1.399 . S
C1439 H1425 0.929 . S
C1439 C1438 1.399 . S
C1439 C1440 1.385 . S
C1440 H1426 0.931 . S
C1440 C1439 1.385 . S
C1440 C1441 1.389 . S
C1441 C1440 1.389 . S
C1441 C1442 1.387 . S
C1442 H1427 0.930 . S
C1442 C1437 1.390 . S
C1442 C1441 1.387 . S
H1443 C1455 0.930 . S
H1444 C1457 0.930 . S
H1445 C1458 0.930 . S
H1446 C1462 0.959 . S
H1447 C1462 0.959 . S
H1448 C1462 0.961 . S
H1449 C1463 0.960 . S
H1450 C1463 0.961 . S
H1451 C1463 0.959 . S
H1452 C1466 0.929 . S
H1453 C1467 0.931 . S
H1454 C1469 0.904 1_554 S
C1455 H1443 0.930 . S
C1455 C1456 1.399 1_554 S
C1455 C1460 1.399 1_554 S
C1456 C1455 1.399 1_556 S
C1456 C1457 1.376 . S
C1457 H1444 0.930 . S
C1457 C1456 1.376 . S
C1457 C1458 1.388 . S
C1458 H1445 0.930 . S
C1458 C1457 1.388 . S
C1458 C1459 1.390 . S
C1459 C1458 1.390 . S
C1459 C1460 1.394 . S
C1459 C1465 1.465 . S
C1460 C1455 1.399 1_556 S
C1460 C1459 1.394 . S
C1460 C1461 1.516 1_556 S
C1461 C1460 1.516 1_554 S
C1461 C1462 1.502 . S
C1461 C1463 1.561 . S
C1461 C1464 1.526 1_554 S
C1462 H1446 0.959 . S
C1462 H1447 0.959 . S
C1462 H1448 0.961 . S
C1462 C1461 1.502 . S
C1463 H1449 0.960 . S
C1463 H1450 0.961 . S
C1463 H1451 0.959 . S
C1463 C1461 1.561 . S
C1464 C1461 1.526 1_556 S
C1464 C1465 1.396 . S
C1464 C1469 1.390 . S
C1465 C1459 1.465 . S
C1465 C1464 1.396 . S
C1465 C1466 1.399 . S
C1466 H1452 0.929 . S
C1466 C1465 1.399 . S
C1466 C1467 1.385 . S
C1467 H1453 0.931 . S
C1467 C1466 1.385 . S
C1467 C1468 1.389 . S
C1468 C1467 1.389 . S
C1468 C1469 1.387 . S
C1469 H1454 0.904 1_556 S
C1469 C1464 1.390 . S
C1469 C1468 1.387 . S
H1470 C1482 0.930 . S
H1471 C1484 0.930 . S
H1472 C1485 0.930 . S
H1473 C1489 0.959 . S
H1474 C1489 0.959 . S
H1475 C1489 0.961 . S
H1476 C1490 0.960 . S
H1477 C1490 0.961 . S
H1478 C1490 0.959 . S
H1479 C1493 0.929 . S
H1480 C1494 0.931 . S
H1481 C1496 0.930 . S
C1482 H1470 0.930 . S
C1482 C1483 1.399 1_554 S
C1482 C1487 1.399 . S
C1483 C1482 1.399 1_556 S
C1483 C1484 1.376 . S
C1484 H1471 0.930 . S
C1484 C1483 1.376 . S
C1484 C1485 1.388 . S
C1485 H1472 0.930 . S
C1485 C1484 1.388 . S
C1485 C1486 1.390 . S
C1486 C1485 1.390 . S
C1486 C1487 1.394 1_556 S
C1486 C1492 1.465 . S
C1487 C1482 1.399 . S
C1487 C1486 1.394 1_554 S
C1487 C1488 1.516 . S
C1488 C1487 1.516 . S
C1488 C1489 1.502 . S
C1488 C1490 1.561 . S
C1488 C1491 1.526 . S
C1489 H1473 0.959 . S
C1489 H1474 0.959 . S
C1489 H1475 0.961 . S
C1489 C1488 1.502 . S
C1490 H1476 0.960 . S
C1490 H1477 0.961 . S
C1490 H1478 0.959 . S
C1490 C1488 1.561 . S
C1491 C1488 1.526 . S
C1491 C1492 1.396 1_554 S
C1491 C1496 1.390 . S
C1492 C1486 1.465 . S
C1492 C1491 1.396 1_556 S
C1492 C1493 1.399 . S
C1493 H1479 0.929 . S
C1493 C1492 1.399 . S
C1493 C1494 1.385 . S
C1494 H1480 0.931 . S
C1494 C1493 1.385 . S
C1494 C1495 1.389 . S
C1495 C1494 1.389 . S
C1495 C1496 1.387 1_556 S
C1496 H1481 0.930 . S
C1496 C1491 1.390 . S
C1496 C1495 1.387 1_554 S
H1497 C1509 0.930 1_556 S
H1498 C1511 0.930 . S
H1499 C1512 0.930 . S
H1500 C1516 0.966 . S
H1501 C1516 0.959 . S
H1502 C1516 0.961 . S
H1503 C1517 0.960 . S
H1504 C1517 0.961 . S
H1505 C1517 0.959 . S
H1506 C1520 0.929 . S
H1507 C1521 0.931 1_455 S
H1508 C1523 0.930 1_556 S
C1509 H1497 0.930 1_554 S
C1509 C1510 1.399 . S
C1509 C1514 1.399 . S
C1510 C1509 1.399 . S
C1510 C1511 1.376 . S
C1511 H1498 0.930 . S
C1511 C1510 1.376 . S
C1511 C1512 1.388 . S
C1512 H1499 0.930 . S
C1512 C1511 1.388 . S
C1512 C1513 1.390 . S
C1513 C1512 1.390 . S
C1513 C1514 1.394 . S
C1513 C1519 1.465 . S
C1514 C1509 1.399 . S
C1514 C1513 1.394 . S
C1514 C1515 1.516 1_554 S
C1515 C1514 1.516 1_556 S
C1515 C1516 1.502 . S
C1515 C1517 1.561 . S
C1515 C1518 1.526 1_556 S
C1516 H1500 0.966 . S
C1516 H1501 0.959 . S
C1516 H1502 0.961 . S
C1516 C1515 1.502 . S
C1517 H1503 0.960 . S
C1517 H1504 0.961 . S
C1517 H1505 0.959 . S
C1517 C1515 1.561 . S
C1518 C1515 1.526 1_554 S
C1518 C1519 1.396 . S
C1518 C1523 1.390 . S
C1519 C1513 1.465 . S
C1519 C1518 1.396 . S
C1519 C1520 1.399 . S
C1520 H1506 0.929 . S
C1520 C1519 1.399 . S
C1520 C1521 1.385 . S
C1521 H1507 0.931 1_655 S
C1521 C1520 1.385 . S
C1521 C1522 1.389 . S
C1522 C1521 1.389 . S
C1522 C1523 1.387 . S
C1523 H1508 0.930 1_554 S
C1523 C1518 1.390 . S
C1523 C1522 1.387 . S
H1524 C1536 0.930 . S
H1525 C1538 0.930 . S
H1526 C1539 0.930 . S
H1527 C1543 0.959 . S
H1528 C1543 0.959 . S
H1529 C1543 0.961 . S
H1530 C1544 0.960 . S
H1531 C1544 0.961 . S
H1532 C1544 0.959 . S
H1533 C1547 0.929 . S
H1534 C1548 0.931 . S
H1535 C1550 0.930 . S
C1536 H1524 0.930 . S
C1536 C1537 1.399 . S
C1536 C1541 1.399 . S
C1537 C1536 1.399 . S
C1537 C1538 1.376 . S
C1538 H1525 0.930 . S
C1538 C1537 1.376 . S
C1538 C1539 1.388 . S
C1539 H1526 0.930 . S
C1539 C1538 1.388 . S
C1539 C1540 1.390 . S
C1540 C1539 1.390 . S
C1540 C1541 1.394 . S
C1540 C1546 1.465 . S
C1541 C1536 1.399 . S
C1541 C1540 1.394 . S
C1541 C1542 1.516 . S
C1542 C1541 1.516 . S
C1542 C1543 1.502 . S
C1542 C1544 1.561 . S
C1542 C1545 1.526 . S
C1543 H1527 0.959 . S
C1543 H1528 0.959 . S
C1543 H1529 0.961 . S
C1543 C1542 1.502 . S
C1544 H1530 0.960 . S
C1544 H1531 0.961 . S
C1544 H1532 0.959 . S
C1544 C1542 1.561 . S
C1545 C1542 1.526 . S
C1545 C1546 1.396 . S
C1545 C1550 1.390 . S
C1546 C1540 1.465 . S
C1546 C1545 1.396 . S
C1546 C1547 1.399 . S
C1547 H1533 0.929 . S
C1547 C1546 1.399 . S
C1547 C1548 1.385 . S
C1548 H1534 0.931 . S
C1548 C1547 1.385 . S
C1548 C1549 1.389 . S
C1549 C1548 1.389 . S
C1549 C1550 1.387 . S
C1550 H1535 0.930 . S
C1550 C1545 1.390 . S
C1550 C1549 1.387 . S
H1551 C1563 0.930 . S
H1552 C1565 0.930 . S
H1553 C1566 0.930 . S
H1554 C1570 0.959 . S
H1555 C1570 0.959 . S
H1556 C1570 0.961 . S
H1557 C1571 0.960 . S
H1558 C1571 0.961 . S
H1559 C1571 0.959 1_655 S
H1560 C1574 0.929 . S
H1561 C1575 0.931 . S
H1562 C1577 0.930 . S
C1563 H1551 0.930 . S
C1563 C1564 1.399 . S
C1563 C1568 1.399 . S
C1564 C1563 1.399 . S
C1564 C1565 1.376 1_455 S
C1565 H1552 0.930 . S
C1565 C1564 1.376 1_655 S
C1565 C1566 1.388 . S
C1566 H1553 0.930 . S
C1566 C1565 1.388 . S
C1566 C1567 1.390 . S
C1567 C1566 1.390 . S
C1567 C1568 1.394 1_655 S
C1567 C1573 1.465 . S
C1568 C1563 1.399 . S
C1568 C1567 1.394 1_455 S
C1568 C1569 1.516 . S
C1569 C1568 1.516 . S
C1569 C1570 1.502 . S
C1569 C1571 1.561 . S
C1569 C1572 1.526 . S
C1570 H1554 0.959 . S
C1570 H1555 0.959 . S
C1570 H1556 0.961 . S
C1570 C1569 1.502 . S
C1571 H1557 0.960 . S
C1571 H1558 0.961 . S
C1571 H1559 0.959 1_455 S
C1571 C1569 1.561 . S
C1572 C1569 1.526 . S
C1572 C1573 1.396 1_455 S
C1572 C1577 1.390 . S
C1573 C1567 1.465 . S
C1573 C1572 1.396 1_655 S
C1573 C1574 1.399 . S
C1574 H1560 0.929 . S
C1574 C1573 1.399 . S
C1574 C1575 1.385 . S
C1575 H1561 0.931 . S
C1575 C1574 1.385 . S
C1575 C1576 1.389 . S
C1576 C1575 1.389 . S
C1576 C1577 1.387 1_655 S
C1577 H1562 0.930 . S
C1577 C1572 1.390 . S
C1577 C1576 1.387 1_455 S
H1578 C1590 0.930 . S
H1579 C1592 0.930 1_655 S
H1580 C1593 0.930 . S
H1581 C1597 0.959 . S
H1582 C1597 0.959 . S
H1583 C1597 0.961 . S
H1584 C1598 0.960 . S
H1585 C1598 0.961 . S
H1586 C1598 0.959 . S
H1587 C1601 0.929 . S
H1588 C1602 0.931 . S
H1589 C1604 0.930 . S
C1590 H1578 0.930 . S
C1590 C1591 1.399 . S
C1590 C1595 1.399 . S
C1591 C1590 1.399 . S
C1591 C1592 1.377 . S
C1592 H1579 0.930 1_455 S
C1592 C1591 1.377 . S
C1592 C1593 1.388 1_455 S
C1593 H1580 0.930 . S
C1593 C1592 1.388 1_655 S
C1593 C1594 1.390 1_655 S
C1594 C1593 1.390 1_455 S
C1594 C1595 1.394 . S
C1594 C1600 1.465 . S
C1595 C1590 1.399 . S
C1595 C1594 1.394 . S
C1595 C1596 1.516 . S
C1596 C1595 1.516 . S
C1596 C1597 1.502 . S
C1596 C1598 1.561 . S
C1596 C1599 1.526 . S
C1597 H1581 0.959 . S
C1597 H1582 0.959 . S
C1597 H1583 0.961 . S
C1597 C1596 1.502 . S
C1598 H1584 0.960 . S
C1598 H1585 0.961 . S
C1598 H1586 0.959 . S
C1598 C1596 1.561 . S
C1599 C1596 1.526 . S
C1599 C1600 1.396 . S
C1599 C1604 1.390 . S
C1600 C1594 1.465 . S
C1600 C1599 1.396 . S
C1600 C1601 1.399 1_455 S
C1601 H1587 0.929 . S
C1601 C1600 1.399 1_655 S
C1601 C1602 1.385 . S
C1602 H1588 0.931 . S
C1602 C1601 1.385 . S
C1602 C1603 1.389 1_655 S
C1603 C1602 1.389 1_455 S
C1603 C1604 1.387 . S
C1604 H1589 0.930 . S
C1604 C1599 1.390 . S
C1604 C1603 1.387 . S
H1605 C1617 0.930 . S
H1606 C1619 0.930 . S
H1607 C1620 0.930 . S
H1608 C1624 0.959 . S
H1609 C1624 0.959 . S
H1610 C1624 0.961 . S
H1611 C1625 0.960 . S
H1612 C1625 0.961 . S
H1613 C1625 0.959 1_455 S
H1614 C1628 0.943 . S
H1615 C1629 0.929 . S
H1616 C1631 0.930 . S
C1617 H1605 0.930 . S
C1617 C1618 1.399 . S
C1617 C1622 1.399 . S
C1618 C1617 1.399 . S
C1618 C1619 1.376 1_655 S
C1619 H1606 0.930 . S
C1619 C1618 1.376 1_455 S
C1619 C1620 1.388 . S
C1620 H1607 0.930 . S
C1620 C1619 1.388 . S
C1620 C1621 1.390 1_455 S
C1621 C1620 1.390 1_655 S
C1621 C1622 1.394 . S
C1621 C1627 1.465 . S
C1622 C1617 1.399 . S
C1622 C1621 1.394 . S
C1622 C1623 1.516 . S
C1623 C1622 1.516 . S
C1623 C1624 1.502 . S
C1623 C1625 1.561 . S
C1623 C1626 1.526 . S
C1624 H1608 0.959 . S
C1624 H1609 0.959 . S
C1624 H1610 0.961 . S
C1624 C1623 1.502 . S
C1625 H1611 0.960 . S
C1625 H1612 0.961 . S
C1625 H1613 0.959 1_655 S
C1625 C1623 1.561 . S
C1626 C1623 1.526 . S
C1626 C1627 1.396 . S
C1626 C1631 1.390 . S
C1627 C1621 1.465 . S
C1627 C1626 1.396 . S
C1627 C1628 1.390 1_655 S
C1628 H1614 0.943 . S
C1628 C1627 1.390 1_455 S
C1628 C1629 1.381 1_455 S
C1629 H1615 0.929 . S
C1629 C1628 1.381 1_655 S
C1629 C1630 1.389 . S
C1630 C1629 1.389 . S
C1630 C1631 1.387 . S
C1631 H1616 0.930 . S
C1631 C1626 1.390 . S
C1631 C1630 1.387 . S
H1632 C1644 0.930 . S
H1633 C1646 0.930 1_565 S
H1634 C1647 0.930 1_565 S
H1635 C1651 0.959 . S
H1636 C1651 0.959 . S
H1637 C1651 0.961 . S
H1638 C1652 0.960 . S
H1639 C1652 0.961 . S
H1640 C1652 0.959 . S
H1641 C1655 0.929 1_565 S
H1642 C1656 0.931 . S
H1643 C1658 0.930 . S
C1644 H1632 0.930 . S
C1644 C1645 1.399 . S
C1644 C1649 1.399 . S
C1645 C1644 1.399 . S
C1645 C1646 1.376 . S
C1646 H1633 0.930 1_545 S
C1646 C1645 1.376 . S
C1646 C1647 1.388 . S
C1647 H1634 0.930 1_545 S
C1647 C1646 1.388 . S
C1647 C1648 1.390 . S
C1648 C1647 1.390 . S
C1648 C1649 1.394 . S
C1648 C1654 1.465 . S
C1649 C1644 1.399 . S
C1649 C1648 1.394 . S
C1649 C1650 1.516 . S
C1650 C1649 1.516 . S
C1650 C1651 1.502 . S
C1650 C1652 1.561 . S
C1650 C1653 1.526 . S
C1651 H1635 0.959 . S
C1651 H1636 0.959 . S
C1651 H1637 0.961 . S
C1651 C1650 1.502 . S
C1652 H1638 0.960 . S
C1652 H1639 0.961 . S
C1652 H1640 0.959 . S
C1652 C1650 1.561 . S
C1653 C1650 1.526 . S
C1653 C1654 1.396 . S
C1653 C1658 1.390 . S
C1654 C1648 1.465 . S
C1654 C1653 1.396 . S
C1654 C1655 1.399 . S
C1655 H1641 0.929 1_545 S
C1655 C1654 1.399 . S
C1655 C1656 1.385 . S
C1656 H1642 0.931 . S
C1656 C1655 1.385 . S
C1656 C1657 1.389 . S
C1657 C1656 1.389 . S
C1657 C1658 1.387 . S
C1658 H1643 0.930 . S
C1658 C1653 1.390 . S
C1658 C1657 1.387 . S
H1659 C1671 0.930 . S
H1660 C1673 0.930 . S
H1661 C1674 0.930 . S
H1662 C1678 0.959 . S
H1663 C1678 0.959 . S
H1664 C1678 0.961 . S
H1665 C1679 0.960 . S
H1666 C1679 0.961 . S
H1667 C1679 0.959 . S
H1668 C1682 0.929 . S
H1669 C1683 0.931 . S
H1670 C1685 0.930 . S
C1671 H1659 0.930 . S
C1671 C1672 1.399 . S
C1671 C1676 1.399 . S
C1672 C1671 1.399 . S
C1672 C1673 1.376 . S
C1673 H1660 0.930 . S
C1673 C1672 1.376 . S
C1673 C1674 1.388 . S
C1674 H1661 0.930 . S
C1674 C1673 1.388 . S
C1674 C1675 1.390 . S
C1675 C1674 1.390 . S
C1675 C1676 1.394 . S
C1675 C1681 1.465 . S
C1676 C1671 1.399 . S
C1676 C1675 1.394 . S
C1676 C1677 1.516 . S
C1677 C1676 1.516 . S
C1677 C1678 1.502 . S
C1677 C1679 1.561 . S
C1677 C1680 1.526 . S
C1678 H1662 0.959 . S
C1678 H1663 0.959 . S
C1678 H1664 0.961 . S
C1678 C1677 1.502 . S
C1679 H1665 0.960 . S
C1679 H1666 0.961 . S
C1679 H1667 0.959 . S
C1679 C1677 1.561 . S
C1680 C1677 1.526 . S
C1680 C1681 1.396 . S
C1680 C1685 1.390 . S
C1681 C1675 1.465 . S
C1681 C1680 1.396 . S
C1681 C1682 1.399 . S
C1682 H1668 0.929 . S
C1682 C1681 1.399 . S
C1682 C1683 1.385 . S
C1683 H1669 0.931 . S
C1683 C1682 1.385 . S
C1683 C1684 1.389 . S
C1684 C1683 1.389 . S
C1684 C1685 1.387 . S
C1685 H1670 0.930 . S
C1685 C1680 1.390 . S
C1685 C1684 1.387 . S
H1686 C1698 0.930 . S
H1687 C1700 0.930 . S
H1688 C1701 0.930 . S
H1689 C1705 0.959 . S
H1690 C1705 0.959 . S
H1691 C1705 0.961 . S
H1692 C1706 0.960 . S
H1693 C1706 0.961 . S
H1694 C1706 0.959 . S
H1695 C1709 0.929 . S
H1696 C1710 0.931 . S
H1697 C1712 0.930 . S
C1698 H1686 0.930 . S
C1698 C1699 1.399 . S
C1698 C1703 1.399 . S
C1699 C1698 1.399 . S
C1699 C1700 1.376 . S
C1700 H1687 0.930 . S
C1700 C1699 1.376 . S
C1700 C1701 1.388 . S
C1701 H1688 0.930 . S
C1701 C1700 1.388 . S
C1701 C1702 1.390 . S
C1702 C1701 1.390 . S
C1702 C1703 1.394 . S
C1702 C1708 1.465 . S
C1703 C1698 1.399 . S
C1703 C1702 1.394 . S
C1703 C1704 1.516 . S
C1704 C1703 1.516 . S
C1704 C1705 1.502 . S
C1704 C1706 1.561 . S
C1704 C1707 1.526 . S
C1705 H1689 0.959 . S
C1705 H1690 0.959 . S
C1705 H1691 0.961 . S
C1705 C1704 1.502 . S
C1706 H1692 0.960 . S
C1706 H1693 0.961 . S
C1706 H1694 0.959 . S
C1706 C1704 1.561 . S
C1707 C1704 1.526 . S
C1707 C1708 1.396 . S
C1707 C1712 1.390 . S
C1708 C1702 1.465 . S
C1708 C1707 1.396 . S
C1708 C1709 1.399 . S
C1709 H1695 0.929 . S
C1709 C1708 1.399 . S
C1709 C1710 1.385 . S
C1710 H1696 0.931 . S
C1710 C1709 1.385 . S
C1710 C1711 1.389 . S
C1711 C1710 1.389 . S
C1711 C1712 1.387 . S
C1712 H1697 0.930 . S
C1712 C1707 1.390 . S
C1712 C1711 1.387 . S
H1713 C1725 0.930 . S
H1714 C1727 0.930 . S
H1715 C1728 0.930 . S
H1716 C1732 0.959 . S
H1717 C1732 0.959 . S
H1718 C1732 0.961 . S
H1719 C1733 0.960 . S
H1720 C1733 0.961 . S
H1721 C1733 0.959 . S
H1722 C1736 0.929 . S
H1723 C1737 0.931 . S
H1724 C1739 0.930 . S
C1725 H1713 0.930 . S
C1725 C1726 1.399 . S
C1725 C1730 1.399 . S
C1726 C1725 1.399 . S
C1726 C1727 1.376 . S
C1727 H1714 0.930 . S
C1727 C1726 1.376 . S
C1727 C1728 1.388 . S
C1728 H1715 0.930 . S
C1728 C1727 1.388 . S
C1728 C1729 1.390 . S
C1729 C1728 1.390 . S
C1729 C1730 1.394 . S
C1729 C1735 1.465 . S
C1730 C1725 1.399 . S
C1730 C1729 1.394 . S
C1730 C1731 1.516 . S
C1731 C1730 1.516 . S
C1731 C1732 1.502 . S
C1731 C1733 1.561 . S
C1731 C1734 1.526 . S
C1732 H1716 0.959 . S
C1732 H1717 0.959 . S
C1732 H1718 0.961 . S
C1732 C1731 1.502 . S
C1733 H1719 0.960 . S
C1733 H1720 0.961 . S
C1733 H1721 0.959 . S
C1733 C1731 1.561 . S
C1734 C1731 1.526 . S
C1734 C1735 1.396 . S
C1734 C1739 1.390 . S
C1735 C1729 1.465 . S
C1735 C1734 1.396 . S
C1735 C1736 1.399 . S
C1736 H1722 0.929 . S
C1736 C1735 1.399 . S
C1736 C1737 1.385 . S
C1737 H1723 0.931 . S
C1737 C1736 1.385 . S
C1737 C1738 1.389 . S
C1738 C1737 1.389 . S
C1738 C1739 1.387 . S
C1739 H1724 0.930 . S
C1739 C1734 1.390 . S
C1739 C1738 1.387 . S
H1740 C1752 0.930 . S
H1741 C1754 0.930 . S
H1742 C1755 0.930 . S
H1743 C1759 0.959 . S
H1744 C1759 0.959 . S
H1745 C1759 0.961 . S
H1746 C1760 0.960 . S
H1747 C1760 0.961 . S
H1748 C1760 0.959 . S
H1749 C1763 0.929 . S
H1750 C1764 0.931 . S
H1751 C1766 0.930 . S
C1752 H1740 0.930 . S
C1752 C1753 1.399 . S
C1752 C1757 1.399 . S
C1753 C1752 1.399 . S
C1753 C1754 1.376 . S
C1754 H1741 0.930 . S
C1754 C1753 1.376 . S
C1754 C1755 1.388 . S
C1755 H1742 0.930 . S
C1755 C1754 1.388 . S
C1755 C1756 1.390 . S
C1756 C1755 1.390 . S
C1756 C1757 1.394 . S
C1756 C1762 1.465 . S
C1757 C1752 1.399 . S
C1757 C1756 1.394 . S
C1757 C1758 1.516 . S
C1758 C1757 1.516 . S
C1758 C1759 1.502 . S
C1758 C1760 1.561 1_554 S
C1758 C1761 1.526 . S
C1759 H1743 0.959 . S
C1759 H1744 0.959 . S
C1759 H1745 0.961 . S
C1759 C1758 1.502 . S
C1760 H1746 0.960 . S
C1760 H1747 0.961 . S
C1760 H1748 0.959 . S
C1760 C1758 1.561 1_556 S
C1761 C1758 1.526 . S
C1761 C1762 1.396 . S
C1761 C1766 1.390 . S
C1762 C1756 1.465 . S
C1762 C1761 1.396 . S
C1762 C1763 1.399 . S
C1763 H1749 0.929 . S
C1763 C1762 1.399 . S
C1763 C1764 1.385 . S
C1764 H1750 0.931 . S
C1764 C1763 1.385 . S
C1764 C1765 1.389 . S
C1765 C1764 1.389 . S
C1765 C1766 1.387 . S
C1766 H1751 0.930 . S
C1766 C1761 1.390 . S
C1766 C1765 1.387 . S
H1767 C1779 0.930 . S
H1768 C1781 0.930 . S
H1769 C1782 0.930 . S
H1770 C1786 0.959 . S
H1771 C1786 0.959 . S
H1772 C1786 0.961 . S
H1773 C1787 0.960 . S
H1774 C1787 0.961 . S
H1775 C1787 0.959 . S
H1776 C1790 0.929 . S
H1777 C1791 0.931 . S
H1778 C1793 0.930 . S
C1779 H1767 0.930 . S
C1779 C1780 1.399 . S
C1779 C1784 1.399 . S
C1780 C1779 1.399 . S
C1780 C1781 1.376 . S
C1781 H1768 0.930 . S
C1781 C1780 1.376 . S
C1781 C1782 1.388 . S
C1782 H1769 0.930 . S
C1782 C1781 1.388 . S
C1782 C1783 1.390 . S
C1783 C1782 1.390 . S
C1783 C1784 1.394 . S
C1783 C1789 1.465 . S
C1784 C1779 1.399 . S
C1784 C1783 1.394 . S
C1784 C1785 1.516 . S
C1785 C1784 1.516 . S
C1785 C1786 1.502 . S
C1785 C1787 1.561 . S
C1785 C1788 1.526 . S
C1786 H1770 0.959 . S
C1786 H1771 0.959 . S
C1786 H1772 0.961 . S
C1786 C1785 1.502 . S
C1787 H1773 0.960 . S
C1787 H1774 0.961 . S
C1787 H1775 0.959 . S
C1787 C1785 1.561 . S
C1788 C1785 1.526 . S
C1788 C1789 1.396 . S
C1788 C1793 1.390 . S
C1789 C1783 1.465 . S
C1789 C1788 1.396 . S
C1789 C1790 1.399 . S
C1790 H1776 0.929 . S
C1790 C1789 1.399 . S
C1790 C1791 1.385 . S
C1791 H1777 0.931 . S
C1791 C1790 1.385 . S
C1791 C1792 1.389 . S
C1792 C1791 1.389 . S
C1792 C1793 1.387 . S
C1793 H1778 0.930 . S
C1793 C1788 1.390 . S
C1793 C1792 1.387 . S
H1794 C1806 0.930 . S
H1795 C1808 0.930 . S
H1796 C1809 0.930 . S
H1797 C1813 0.959 . S
H1798 C1813 0.959 . S
H1799 C1813 0.961 . S
H1800 C1814 0.960 . S
H1801 C1814 0.961 . S
H1802 C1814 0.959 . S
H1803 C1817 0.929 . S
H1804 C1818 0.931 . S
H1805 C1820 0.930 . S
C1806 H1794 0.930 . S
C1806 C1807 1.399 . S
C1806 C1811 1.399 . S
C1807 C1806 1.399 . S
C1807 C1808 1.376 . S
C1808 H1795 0.930 . S
C1808 C1807 1.376 . S
C1808 C1809 1.388 . S
C1809 H1796 0.930 . S
C1809 C1808 1.388 . S
C1809 C1810 1.390 . S
C1810 C1809 1.390 . S
C1810 C1811 1.394 . S
C1810 C1816 1.465 . S
C1811 C1806 1.399 . S
C1811 C1810 1.394 . S
C1811 C1812 1.516 . S
C1812 C1811 1.516 . S
C1812 C1813 1.502 . S
C1812 C1814 1.561 . S
C1812 C1815 1.526 . S
C1813 H1797 0.959 . S
C1813 H1798 0.959 . S
C1813 H1799 0.961 . S
C1813 C1812 1.502 . S
C1814 H1800 0.960 . S
C1814 H1801 0.961 . S
C1814 H1802 0.959 . S
C1814 C1812 1.561 . S
C1815 C1812 1.526 . S
C1815 C1816 1.396 . S
C1815 C1820 1.390 . S
C1816 C1810 1.465 . S
C1816 C1815 1.396 . S
C1816 C1817 1.399 . S
C1817 H1803 0.929 . S
C1817 C1816 1.399 . S
C1817 C1818 1.385 . S
C1818 H1804 0.931 . S
C1818 C1817 1.385 . S
C1818 C1819 1.389 . S
C1819 C1818 1.389 . S
C1819 C1820 1.387 . S
C1820 H1805 0.930 . S
C1820 C1815 1.390 . S
C1820 C1819 1.387 . S
H1821 C1833 0.930 . S
H1822 C1835 0.930 . S
H1823 C1836 0.930 . S
H1824 C1840 0.959 . S
H1825 C1840 0.959 . S
H1826 C1840 0.961 . S
H1827 C1841 0.960 . S
H1828 C1841 0.961 . S
H1829 C1841 0.959 . S
H1830 C1844 0.929 . S
H1831 C1845 0.931 . S
H1832 C1847 0.930 . S
C1833 H1821 0.930 . S
C1833 C1834 1.399 . S
C1833 C1838 1.399 . S
C1834 C1833 1.399 . S
C1834 C1835 1.376 . S
C1835 H1822 0.930 . S
C1835 C1834 1.376 . S
C1835 C1836 1.388 . S
C1836 H1823 0.930 . S
C1836 C1835 1.388 . S
C1836 C1837 1.390 . S
C1837 C1836 1.390 . S
C1837 C1838 1.394 . S
C1837 C1843 1.465 . S
C1838 C1833 1.399 . S
C1838 C1837 1.394 . S
C1838 C1839 1.516 . S
C1839 C1838 1.516 . S
C1839 C1840 1.502 . S
C1839 C1841 1.561 . S
C1839 C1842 1.526 . S
C1840 H1824 0.959 . S
C1840 H1825 0.959 . S
C1840 H1826 0.961 . S
C1840 C1839 1.502 . S
C1841 H1827 0.960 . S
C1841 H1828 0.961 . S
C1841 H1829 0.959 . S
C1841 C1839 1.561 . S
C1842 C1839 1.526 . S
C1842 C1843 1.396 . S
C1842 C1847 1.390 . S
C1843 C1837 1.465 . S
C1843 C1842 1.396 . S
C1843 C1844 1.399 . S
C1844 H1830 0.929 . S
C1844 C1843 1.399 . S
C1844 C1845 1.385 . S
C1845 H1831 0.931 . S
C1845 C1844 1.385 . S
C1845 C1846 1.389 . S
C1846 C1845 1.389 . S
C1846 C1847 1.387 . S
C1847 H1832 0.930 . S
C1847 C1842 1.390 . S
C1847 C1846 1.387 . S
H1848 C1860 0.930 . S
H1849 C1862 0.930 . S
H1850 C1863 0.930 . S
H1851 C1867 0.959 . S
H1852 C1867 0.959 . S
H1853 C1867 0.961 . S
H1854 C1868 0.960 . S
H1855 C1868 0.961 . S
H1856 C1868 0.959 . S
H1857 C1871 0.929 . S
H1858 C1872 0.931 . S
H1859 C1874 0.930 . S
C1860 H1848 0.930 . S
C1860 C1861 1.399 . S
C1860 C1865 1.399 . S
C1861 C1860 1.399 . S
C1861 C1862 1.376 . S
C1862 H1849 0.930 . S
C1862 C1861 1.376 . S
C1862 C1863 1.388 . S
C1863 H1850 0.930 . S
C1863 C1862 1.388 . S
C1863 C1864 1.390 . S
C1864 C1863 1.390 . S
C1864 C1865 1.394 . S
C1864 C1870 1.465 . S
C1865 C1860 1.399 . S
C1865 C1864 1.394 . S
C1865 C1866 1.516 . S
C1866 C1865 1.516 . S
C1866 C1867 1.502 . S
C1866 C1868 1.561 . S
C1866 C1869 1.526 . S
C1867 H1851 0.959 . S
C1867 H1852 0.959 . S
C1867 H1853 0.961 . S
C1867 C1866 1.502 . S
C1868 H1854 0.960 . S
C1868 H1855 0.961 . S
C1868 H1856 0.959 . S
C1868 C1866 1.561 . S
C1869 C1866 1.526 . S
C1869 C1870 1.396 . S
C1869 C1874 1.390 . S
C1870 C1864 1.465 . S
C1870 C1869 1.396 . S
C1870 C1871 1.399 . S
C1871 H1857 0.929 . S
C1871 C1870 1.399 . S
C1871 C1872 1.385 . S
C1872 H1858 0.931 . S
C1872 C1871 1.385 . S
C1872 C1873 1.389 . S
C1873 C1872 1.389 . S
C1873 C1874 1.387 . S
C1874 H1859 0.930 . S
C1874 C1869 1.390 . S
C1874 C1873 1.387 . S
H1875 C1887 0.930 . S
H1876 C1889 0.930 . S
H1877 C1890 0.930 . S
H1878 C1894 0.959 . S
H1879 C1894 0.959 . S
H1880 C1894 0.961 . S
H1881 C1895 0.960 . S
H1882 C1895 0.961 . S
H1883 C1895 0.959 . S
H1884 C1898 0.929 . S
H1885 C1899 0.931 . S
H1886 C1901 0.930 . S
C1887 H1875 0.930 . S
C1887 C1888 1.399 . S
C1887 C1892 1.399 . S
C1888 C1887 1.399 . S
C1888 C1889 1.376 . S
C1889 H1876 0.930 . S
C1889 C1888 1.376 . S
C1889 C1890 1.388 . S
C1890 H1877 0.930 . S
C1890 C1889 1.388 . S
C1890 C1891 1.390 . S
C1891 C1890 1.390 . S
C1891 C1892 1.394 . S
C1891 C1897 1.465 . S
C1892 C1887 1.399 . S
C1892 C1891 1.394 . S
C1892 C1893 1.516 . S
C1893 C1892 1.516 . S
C1893 C1894 1.502 . S
C1893 C1895 1.561 . S
C1893 C1896 1.526 . S
C1894 H1878 0.959 . S
C1894 H1879 0.959 . S
C1894 H1880 0.961 . S
C1894 C1893 1.502 . S
C1895 H1881 0.960 . S
C1895 H1882 0.961 . S
C1895 H1883 0.959 . S
C1895 C1893 1.561 . S
C1896 C1893 1.526 . S
C1896 C1897 1.396 . S
C1896 C1901 1.390 . S
C1897 C1891 1.465 . S
C1897 C1896 1.396 . S
C1897 C1898 1.399 . S
C1898 H1884 0.929 . S
C1898 C1897 1.399 . S
C1898 C1899 1.385 . S
C1899 H1885 0.931 . S
C1899 C1898 1.385 . S
C1899 C1900 1.389 . S
C1900 C1899 1.389 . S
C1900 C1901 1.387 . S
C1901 H1886 0.930 . S
C1901 C1896 1.390 . S
C1901 C1900 1.387 . S
H1902 C1914 0.930 . S
H1903 C1916 0.930 . S
H1904 C1917 0.930 . S
H1905 C1921 0.959 . S
H1906 C1921 0.959 . S
H1907 C1921 0.961 . S
H1908 C1922 0.960 . S
H1909 C1922 0.961 . S
H1910 C1922 0.959 . S
H1911 C1925 0.929 . S
H1912 C1926 0.931 . S
H1913 C1928 0.930 . S
C1914 H1902 0.930 . S
C1914 C1915 1.399 . S
C1914 C1919 1.399 . S
C1915 C1914 1.399 . S
C1915 C1916 1.376 . S
C1916 H1903 0.930 . S
C1916 C1915 1.376 . S
C1916 C1917 1.388 . S
C1917 H1904 0.930 . S
C1917 C1916 1.388 . S
C1917 C1918 1.390 . S
C1918 C1917 1.390 . S
C1918 C1919 1.394 . S
C1918 C1924 1.465 . S
C1919 C1914 1.399 . S
C1919 C1918 1.394 . S
C1919 C1920 1.516 . S
C1920 C1919 1.516 . S
C1920 C1921 1.502 . S
C1920 C1922 1.561 . S
C1920 C1923 1.526 . S
C1921 H1905 0.959 . S
C1921 H1906 0.959 . S
C1921 H1907 0.961 . S
C1921 C1920 1.502 . S
C1922 H1908 0.960 . S
C1922 H1909 0.961 . S
C1922 H1910 0.959 . S
C1922 C1920 1.561 . S
C1923 C1920 1.526 . S
C1923 C1924 1.396 . S
C1923 C1928 1.390 . S
C1924 C1918 1.465 . S
C1924 C1923 1.396 . S
C1924 C1925 1.399 . S
C1925 H1911 0.929 . S
C1925 C1924 1.399 . S
C1925 C1926 1.385 . S
C1926 H1912 0.931 . S
C1926 C1925 1.385 . S
C1926 C1927 1.389 . S
C1927 C1926 1.389 . S
C1927 C1928 1.387 . S
C1928 H1913 0.930 . S
C1928 C1923 1.390 . S
C1928 C1927 1.387 . S
H1929 C1941 0.930 . S
H1930 C1943 0.930 . S
H1931 C1944 0.930 . S
H1932 C1948 0.959 . S
H1933 C1948 0.959 . S
H1934 C1948 0.961 . S
H1935 C1949 0.960 . S
H1936 C1949 0.961 . S
H1937 C1949 0.959 . S
H1938 C1952 0.929 . S
H1939 C1953 0.931 . S
H1940 C1955 0.930 . S
C1941 H1929 0.930 . S
C1941 C1942 1.399 . S
C1941 C1946 1.399 . S
C1942 C1941 1.399 . S
C1942 C1943 1.376 . S
C1943 H1930 0.930 . S
C1943 C1942 1.376 . S
C1943 C1944 1.388 . S
C1944 H1931 0.930 . S
C1944 C1943 1.388 . S
C1944 C1945 1.390 . S
C1945 C1944 1.390 . S
C1945 C1946 1.394 . S
C1945 C1951 1.465 . S
C1946 C1941 1.399 . S
C1946 C1945 1.394 . S
C1946 C1947 1.516 . S
C1947 C1946 1.516 . S
C1947 C1948 1.502 . S
C1947 C1949 1.561 . S
C1947 C1950 1.526 . S
C1948 H1932 0.959 . S
C1948 H1933 0.959 . S
C1948 H1934 0.961 . S
C1948 C1947 1.502 . S
C1949 H1935 0.960 . S
C1949 H1936 0.961 . S
C1949 H1937 0.959 . S
C1949 C1947 1.561 . S
C1950 C1947 1.526 . S
C1950 C1951 1.396 . S
C1950 C1955 1.390 . S
C1951 C1945 1.465 . S
C1951 C1950 1.396 . S
C1951 C1952 1.399 . S
C1952 H1938 0.929 . S
C1952 C1951 1.399 . S
C1952 C1953 1.385 . S
C1953 H1939 0.931 . S
C1953 C1952 1.385 . S
C1953 C1954 1.389 . S
C1954 C1953 1.389 . S
C1954 C1955 1.387 . S
C1955 H1940 0.930 . S
C1955 C1950 1.390 . S
C1955 C1954 1.387 . S
H1956 C1968 0.930 . S
H1957 C1970 0.930 . S
H1958 C1971 0.930 . S
H1959 C1975 0.959 . S
H1960 C1975 0.959 . S
H1961 C1975 0.961 . S
H1962 C1976 0.960 . S
H1963 C1976 0.961 . S
H1964 C1976 0.959 . S
H1965 C1979 0.929 . S
H1966 C1980 0.931 . S
H1967 C1982 0.930 . S
C1968 H1956 0.930 . S
C1968 C1969 1.399 . S
C1968 C1973 1.399 . S
C1969 C1968 1.399 . S
C1969 C1970 1.376 . S
C1970 H1957 0.930 . S
C1970 C1969 1.376 . S
C1970 C1971 1.388 . S
C1971 H1958 0.930 . S
C1971 C1970 1.388 . S
C1971 C1972 1.390 . S
C1972 C1971 1.390 . S
C1972 C1973 1.394 . S
C1972 C1978 1.465 . S
C1973 C1968 1.399 . S
C1973 C1972 1.394 . S
C1973 C1974 1.516 . S
C1974 C1973 1.516 . S
C1974 C1975 1.502 . S
C1974 C1976 1.561 . S
C1974 C1977 1.526 . S
C1975 H1959 0.959 . S
C1975 H1960 0.959 . S
C1975 H1961 0.961 . S
C1975 C1974 1.502 . S
C1976 H1962 0.960 . S
C1976 H1963 0.961 . S
C1976 H1964 0.959 . S
C1976 C1974 1.561 . S
C1977 C1974 1.526 . S
C1977 C1978 1.396 . S
C1977 C1982 1.390 . S
C1978 C1972 1.465 . S
C1978 C1977 1.396 . S
C1978 C1979 1.399 . S
C1979 H1965 0.929 . S
C1979 C1978 1.399 . S
C1979 C1980 1.385 . S
C1980 H1966 0.931 . S
C1980 C1979 1.385 . S
C1980 C1981 1.389 . S
C1981 C1980 1.389 . S
C1981 C1982 1.387 . S
C1982 H1967 0.930 . S
C1982 C1977 1.390 . S
C1982 C1981 1.387 . S
H1983 C1995 0.930 . S
H1984 C1997 0.930 . S
H1985 C1998 0.930 . S
H1986 C2002 0.959 . S
H1987 C2002 0.959 . S
H1988 C2002 0.961 . S
H1989 C2003 0.960 . S
H1990 C2003 0.961 . S
H1991 C2003 0.959 . S
H1992 C2006 0.929 1_545 S
H1993 C2007 0.931 . S
H1994 C2009 0.930 . S
C1995 H1983 0.930 . S
C1995 C1996 1.399 . S
C1995 C2000 1.399 . S
C1996 C1995 1.399 . S
C1996 C1997 1.376 1_565 S
C1997 H1984 0.930 . S
C1997 C1996 1.376 1_545 S
C1997 C1998 1.388 . S
C1998 H1985 0.930 . S
C1998 C1997 1.388 . S
C1998 C1999 1.390 1_545 S
C1999 C1998 1.390 1_565 S
C1999 C2000 1.394 . S
C1999 C2005 1.465 . S
C2000 C1995 1.399 . S
C2000 C1999 1.394 . S
C2000 C2001 1.516 . S
C2001 C2000 1.516 . S
C2001 C2002 1.502 . S
C2001 C2003 1.561 . S
C2001 C2004 1.526 . S
C2002 H1986 0.959 . S
C2002 H1987 0.959 . S
C2002 H1988 0.961 . S
C2002 C2001 1.502 . S
C2003 H1989 0.960 . S
C2003 H1990 0.961 . S
C2003 H1991 0.959 . S
C2003 C2001 1.561 . S
C2004 C2001 1.526 . S
C2004 C2005 1.396 . S
C2004 C2009 1.390 . S
C2005 C1999 1.465 . S
C2005 C2004 1.396 . S
C2005 C2006 1.399 . S
C2006 H1992 0.929 1_565 S
C2006 C2005 1.399 . S
C2006 C2007 1.385 . S
C2007 H1993 0.931 . S
C2007 C2006 1.385 . S
C2007 C2008 1.389 . S
C2008 C2007 1.389 . S
C2008 C2009 1.387 . S
C2009 H1994 0.930 . S
C2009 C2004 1.390 . S
C2009 C2008 1.387 . S
H2010 C2022 0.930 . S
H2011 C2024 0.930 . S
H2012 C2025 0.930 . S
H2013 C2029 0.959 . S
H2014 C2029 0.959 . S
H2015 C2029 0.961 . S
H2016 C2030 0.960 . S
H2017 C2030 0.961 . S
H2018 C2030 0.959 . S
H2019 C2033 0.929 . S
H2020 C2034 0.931 . S
H2021 C2036 0.930 . S
C2022 H2010 0.930 . S
C2022 C2023 1.399 . S
C2022 C2027 1.399 . S
C2023 C2022 1.399 . S
C2023 C2024 1.376 . S
C2024 H2011 0.930 . S
C2024 C2023 1.376 . S
C2024 C2025 1.388 . S
C2025 H2012 0.930 . S
C2025 C2024 1.388 . S
C2025 C2026 1.390 . S
C2026 C2025 1.390 . S
C2026 C2027 1.394 . S
C2026 C2032 1.465 . S
C2027 C2022 1.399 . S
C2027 C2026 1.394 . S
C2027 C2028 1.516 . S
C2028 C2027 1.516 . S
C2028 C2029 1.502 . S
C2028 C2030 1.561 . S
C2028 C2031 1.526 . S
C2029 H2013 0.959 . S
C2029 H2014 0.959 . S
C2029 H2015 0.961 . S
C2029 C2028 1.502 . S
C2030 H2016 0.960 . S
C2030 H2017 0.961 . S
C2030 H2018 0.959 . S
C2030 C2028 1.561 . S
C2031 C2028 1.526 . S
C2031 C2032 1.396 . S
C2031 C2036 1.390 . S
C2032 C2026 1.465 . S
C2032 C2031 1.396 . S
C2032 C2033 1.399 . S
C2033 H2019 0.929 . S
C2033 C2032 1.399 . S
C2033 C2034 1.385 . S
C2034 H2020 0.931 . S
C2034 C2033 1.385 . S
C2034 C2035 1.389 . S
C2035 C2034 1.389 . S
C2035 C2036 1.387 . S
C2036 H2021 0.930 . S
C2036 C2031 1.390 . S
C2036 C2035 1.387 . S
H2037 C2049 0.930 . S
H2038 C2051 0.930 . S
H2039 C2052 0.930 . S
H2040 C2056 0.926 1_545 S
H2041 C2056 0.986 . S
H2042 C2056 0.982 . S
H2043 C2057 0.960 . S
H2044 C2057 0.961 . S
H2045 C2057 0.959 . S
H2046 C2060 0.929 . S
H2047 C2061 0.931 . S
H2048 C2063 0.930 . S
C2049 H2037 0.930 . S
C2049 C2050 1.399 . S
C2049 C2054 1.399 . S
C2050 C2049 1.399 . S
C2050 C2051 1.376 . S
C2051 H2038 0.930 . S
C2051 C2050 1.376 . S
C2051 C2052 1.388 . S
C2052 H2039 0.930 . S
C2052 C2051 1.388 . S
C2052 C2053 1.390 . S
C2053 C2052 1.390 . S
C2053 C2054 1.394 . S
C2053 C2059 1.465 . S
C2054 C2049 1.399 . S
C2054 C2053 1.394 . S
C2054 C2055 1.516 . S
C2055 C2054 1.516 . S
C2055 C2056 1.487 1_545 S
C2055 C2057 1.561 1_545 S
C2055 C2058 1.526 . S
C2056 H2040 0.926 1_565 S
C2056 H2041 0.986 . S
C2056 H2042 0.982 . S
C2056 C2055 1.487 1_565 S
C2057 H2043 0.960 . S
C2057 H2044 0.961 . S
C2057 H2045 0.959 . S
C2057 C2055 1.561 1_565 S
C2058 C2055 1.526 . S
C2058 C2059 1.396 . S
C2058 C2063 1.390 . S
C2059 C2053 1.465 . S
C2059 C2058 1.396 . S
C2059 C2060 1.399 . S
C2060 H2046 0.929 . S
C2060 C2059 1.399 . S
C2060 C2061 1.385 . S
C2061 H2047 0.931 . S
C2061 C2060 1.385 . S
C2061 C2062 1.389 . S
C2062 C2061 1.389 . S
C2062 C2063 1.387 . S
C2063 H2048 0.930 . S
C2063 C2058 1.390 . S
C2063 C2062 1.387 . S
H2064 C2076 0.930 . S
H2065 C2078 0.930 . S
H2066 C2079 0.930 . S
H2067 C2083 0.959 . S
H2068 C2083 0.959 . S
H2069 C2083 0.961 . S
H2070 C2084 0.960 . S
H2071 C2084 0.961 . S
H2072 C2084 0.959 . S
H2073 C2087 0.929 . S
H2074 C2088 0.931 . S
H2075 C2090 0.930 . S
C2076 H2064 0.930 . S
C2076 C2077 1.399 . S
C2076 C2081 1.399 . S
C2077 C2076 1.399 . S
C2077 C2078 1.376 . S
C2078 H2065 0.930 . S
C2078 C2077 1.376 . S
C2078 C2079 1.388 . S
C2079 H2066 0.930 . S
C2079 C2078 1.388 . S
C2079 C2080 1.390 . S
C2080 C2079 1.390 . S
C2080 C2081 1.394 . S
C2080 C2086 1.465 . S
C2081 C2076 1.399 . S
C2081 C2080 1.394 . S
C2081 C2082 1.516 . S
C2082 C2081 1.516 . S
C2082 C2083 1.502 . S
C2082 C2084 1.561 . S
C2082 C2085 1.526 . S
C2083 H2067 0.959 . S
C2083 H2068 0.959 . S
C2083 H2069 0.961 . S
C2083 C2082 1.502 . S
C2084 H2070 0.960 . S
C2084 H2071 0.961 . S
C2084 H2072 0.959 . S
C2084 C2082 1.561 . S
C2085 C2082 1.526 . S
C2085 C2086 1.396 . S
C2085 C2090 1.390 . S
C2086 C2080 1.465 . S
C2086 C2085 1.396 . S
C2086 C2087 1.399 . S
C2087 H2073 0.929 . S
C2087 C2086 1.399 . S
C2087 C2088 1.385 . S
C2088 H2074 0.931 . S
C2088 C2087 1.385 . S
C2088 C2089 1.389 . S
C2089 C2088 1.389 . S
C2089 C2090 1.387 . S
C2090 H2075 0.930 . S
C2090 C2085 1.390 . S
C2090 C2089 1.387 . S
H2091 C2103 0.930 . S
H2092 C2105 0.930 . S
H2093 C2106 0.930 . S
H2094 C2110 0.959 . S
H2095 C2110 0.959 . S
H2096 C2110 0.961 . S
H2097 C2111 0.960 . S
H2098 C2111 0.961 . S
H2099 C2111 0.959 . S
H2100 C2114 0.929 . S
H2101 C2115 0.931 . S
H2102 C2117 0.930 . S
C2103 H2091 0.930 . S
C2103 C2104 1.399 . S
C2103 C2108 1.399 . S
C2104 C2103 1.399 . S
C2104 C2105 1.376 1_556 S
C2105 H2092 0.930 . S
C2105 C2104 1.376 1_554 S
C2105 C2106 1.388 . S
C2106 H2093 0.930 . S
C2106 C2105 1.388 . S
C2106 C2107 1.394 . S
C2107 C2106 1.394 . S
C2107 C2108 1.389 1_554 S
C2107 C2113 1.464 1_554 S
C2108 C2103 1.399 . S
C2108 C2107 1.389 1_556 S
C2108 C2109 1.516 . S
C2109 C2108 1.516 . S
C2109 C2110 1.502 . S
C2109 C2111 1.561 . S
C2109 C2112 1.526 . S
C2110 H2094 0.959 . S
C2110 H2095 0.959 . S
C2110 H2096 0.961 . S
C2110 C2109 1.502 . S
C2111 H2097 0.960 . S
C2111 H2098 0.961 . S
C2111 H2099 0.959 . S
C2111 C2109 1.561 . S
C2112 C2109 1.526 . S
C2112 C2113 1.396 . S
C2112 C2117 1.390 . S
C2113 C2107 1.464 1_556 S
C2113 C2112 1.396 . S
C2113 C2114 1.399 1_556 S
C2114 H2100 0.929 . S
C2114 C2113 1.399 1_554 S
C2114 C2115 1.385 . S
C2115 H2101 0.931 . S
C2115 C2114 1.385 . S
C2115 C2116 1.389 1_554 S
C2116 C2115 1.389 1_556 S
C2116 C2117 1.387 . S
C2117 H2102 0.930 . S
C2117 C2112 1.390 . S
C2117 C2116 1.387 . S
H2118 C2130 0.930 . S
H2119 C2132 0.930 . S
H2120 C2133 0.930 . S
H2121 C2137 0.959 . S
H2122 C2137 0.959 . S
H2123 C2137 0.961 . S
H2124 C2138 0.960 . S
H2125 C2138 0.961 . S
H2126 C2138 0.959 . S
H2127 C2141 0.929 . S
H2128 C2142 0.931 1_554 S
H2129 C2144 0.930 . S
C2130 H2118 0.930 . S
C2130 C2131 1.399 . S
C2130 C2135 1.399 . S
C2131 C2130 1.399 . S
C2131 C2132 1.376 1_556 S
C2132 H2119 0.930 . S
C2132 C2131 1.376 1_554 S
C2132 C2133 1.388 . S
C2133 H2120 0.930 . S
C2133 C2132 1.388 . S
C2133 C2134 1.390 1_554 S
C2134 C2133 1.390 1_556 S
C2134 C2135 1.394 . S
C2134 C2140 1.465 . S
C2135 C2130 1.399 . S
C2135 C2134 1.394 . S
C2135 C2136 1.516 . S
C2136 C2135 1.516 . S
C2136 C2137 1.502 . S
C2136 C2138 1.561 . S
C2136 C2139 1.526 . S
C2137 H2121 0.959 . S
C2137 H2122 0.959 . S
C2137 H2123 0.961 . S
C2137 C2136 1.502 . S
C2138 H2124 0.960 . S
C2138 H2125 0.961 . S
C2138 H2126 0.959 . S
C2138 C2136 1.561 . S
C2139 C2136 1.526 . S
C2139 C2140 1.396 . S
C2139 C2144 1.390 . S
C2140 C2134 1.465 . S
C2140 C2139 1.396 . S
C2140 C2141 1.399 1_556 S
C2141 H2127 0.929 . S
C2141 C2140 1.399 1_554 S
C2141 C2142 1.385 1_554 S
C2142 H2128 0.931 1_556 S
C2142 C2141 1.385 1_556 S
C2142 C2143 1.389 . S
C2143 C2142 1.389 . S
C2143 C2144 1.387 . S
C2144 H2129 0.930 . S
C2144 C2139 1.390 . S
C2144 C2143 1.387 . S
H2145 C2157 0.930 . S
H2146 C2159 0.930 1_556 S
H2147 C2160 0.930 1_556 S
H2148 C2164 0.959 . S
H2149 C2164 0.959 . S
H2150 C2164 0.961 . S
H2151 C2165 0.960 . S
H2152 C2165 0.961 . S
H2153 C2165 0.959 . S
H2154 C2168 0.929 1_556 S
H2155 C2169 0.931 1_556 S
H2156 C2171 0.930 . S
C2157 H2145 0.930 . S
C2157 C2158 1.399 . S
C2157 C2162 1.399 . S
C2158 C2157 1.399 . S
C2158 C2159 1.376 . S
C2159 H2146 0.930 1_554 S
C2159 C2158 1.376 . S
C2159 C2160 1.388 . S
C2160 H2147 0.930 1_554 S
C2160 C2159 1.388 . S
C2160 C2161 1.390 . S
C2161 C2160 1.390 . S
C2161 C2162 1.394 . S
C2161 C2167 1.465 . S
C2162 C2157 1.399 . S
C2162 C2161 1.394 . S
C2162 C2163 1.516 . S
C2163 C2162 1.516 . S
C2163 C2164 1.502 . S
C2163 C2165 1.561 . S
C2163 C2166 1.526 . S
C2164 H2148 0.959 . S
C2164 H2149 0.959 . S
C2164 H2150 0.961 . S
C2164 C2163 1.502 . S
C2165 H2151 0.960 . S
C2165 H2152 0.961 . S
C2165 H2153 0.959 . S
C2165 C2163 1.561 . S
C2166 C2163 1.526 . S
C2166 C2167 1.396 . S
C2166 C2171 1.390 . S
C2167 C2161 1.465 . S
C2167 C2166 1.396 . S
C2167 C2168 1.399 . S
C2168 H2154 0.929 1_554 S
C2168 C2167 1.399 . S
C2168 C2169 1.385 . S
C2169 H2155 0.931 1_554 S
C2169 C2168 1.385 . S
C2169 C2170 1.389 . S
C2170 C2169 1.389 . S
C2170 C2171 1.387 . S
C2171 H2156 0.930 . S
C2171 C2166 1.390 . S
C2171 C2170 1.387 . S
C889 C22 1.691 . S
C901 C723 1.633 . S
C928 N740 1.766 1_455 S
C916 C38 1.934 . S
C955 N642 1.711 . S
C943 C75 1.695 . S
C970 C91 1.355 . S
C982 C667 1.314 . S
C997 C128 1.815 . S
C1009 C862 1.800 1_554 S
C1024 C197 1.495 . S
C1036 N822 1.501 . S
C1063 N770 1.676 . S
C1051 C144 1.845 . S
C1078 C181 1.718 . S
C1090 C796 1.725 . S
C1117 C682 1.713 1_455 S
C1105 C234 1.763 . S
C1144 C727 1.900 . S
C1132 C303 1.898 . S
C1159 C356 1.806 . S
C1171 C706 1.861 1_655 S
C1186 C287 1.941 . S
C1198 C813 1.909 . S
C1225 C843 1.619 . S
C1213 C393 1.591 . S
C1252 N860 1.774 . S
C1240 C409 1.981 . S
C1267 C462 1.824 . S
C1279 N792 1.843 . S
C1306 C757 1.260 1_545 S
C1294 C446 1.289 . S
C1321 C499 1.774 . S
C1333 C742 1.786 . S
C1348 C552 1.421 . S
C1360 N702 1.421 . S
C1387 N680 1.617 . S
C1375 C515 1.741 . S
C1402 C568 1.965 . S
C1414 C646 1.960 1_556 S
C1441 C772 1.841 . S
C1429 C340 1.813 . S
C1468 C847 1.831 . S
C1456 C621 1.841 . S
C1483 C250 1.715 1_556 S
C1495 C826 1.710 . S
C1510 C605 1.879 . S
C1522 C663 1.837 1_655 S
C1549 C637 1.367 . S
C1537 C39 1.309 . S
C1564 C29 0.759 . S
C1576 N672 0.710 . S
C1603 N710 1.175 . S
C1591 C92 1.255 . S
C1630 C753 1.673 . S
C1618 C82 1.582 . S
C1645 C145 1.627 . S
C1657 C652 1.641 . S
C1672 C188 1.402 . S
C1684 C693 1.390 . S
C1711 C697 1.134 . S
C1699 C135 1.136 . S
C1726 C198 1.550 . S
C1738 C736 1.536 . S
C1753 C251 1.025 . S
C1765 N650 0.989 . S
C1792 C712 1.635 . S
C1780 C294 1.602 . S
C1807 C347 1.098 . S
C1819 N732 1.091 . S
C1834 C304 1.569 . S
C1846 C766 1.587 . S
C1873 C787 1.346 . S
C1861 C410 1.382 . S
C1888 C400 0.784 . S
C1900 N762 0.760 . S
C1915 C453 0.925 . S
C1927 N830 0.901 . S
C1942 C463 1.911 . S
C1954 C873 1.965 . S
C1969 C516 1.604 . S
C1981 C802 1.600 . S
C2008 C783 1.767 . S
C1996 C569 1.781 . S
C2023 C506 1.031 . S
C2035 C817 1.036 . S
C2062 C856 1.335 . S
C2050 C559 1.329 . S
C2089 N800 0.987 . S
C2077 C357 1.005 . S
C2116 C832 1.635 . S
C2104 C612 1.614 . S
C2143 N852 1.039 . S
C2131 C241 1.089 . S
C2158 C622 1.479 . S
C2170 C676 1.493 . S
