# Generated by pormake.
# Topology pth, (4,4)-cn, num edge types: 1
# Building blocks:
#     Node 0, Type 0, BuildingBlock: GALJAG_clean_sbu_0, # of connection points: 4
#     Node 1, Type 0, BuildingBlock: GALJAG_clean_sbu_0, # of connection points: 4
#     Node 2, Type 0, BuildingBlock: GALJAG_clean_sbu_0, # of connection points: 4
#     Node 3, Type 1, BuildingBlock: NAWXER_clean_sbu_0, # of connection points: 4
#     Node 4, Type 1, BuildingBlock: NAWXER_clean_sbu_0, # of connection points: 4
#     Node 5, Type 1, BuildingBlock: NAWXER_clean_sbu_0, # of connection points: 4
#     Edge 6, Type (0, 1), BuildingBlock: XUDNAN_clean_linker_2, # of connection points: 2
#     Edge 7, Type (0, 1), BuildingBlock: XUDNAN_clean_linker_2, # of connection points: 2
#     Edge 8, Type (0, 1), BuildingBlock: XUDNAN_clean_linker_2, # of connection points: 2
#     Edge 9, Type (0, 1), BuildingBlock: XUDNAN_clean_linker_2, # of connection points: 2
#     Edge 10, Type (0, 1), BuildingBlock: XUDNAN_clean_linker_2, # of connection points: 2
#     Edge 11, Type (0, 1), BuildingBlock: XUDNAN_clean_linker_2, # of connection points: 2
#     Edge 12, Type (0, 1), BuildingBlock: XUDNAN_clean_linker_2, # of connection points: 2
#     Edge 13, Type (0, 1), BuildingBlock: XUDNAN_clean_linker_2, # of connection points: 2
#     Edge 14, Type (0, 1), BuildingBlock: XUDNAN_clean_linker_2, # of connection points: 2
#     Edge 15, Type (0, 1), BuildingBlock: XUDNAN_clean_linker_2, # of connection points: 2
#     Edge 16, Type (0, 1), BuildingBlock: XUDNAN_clean_linker_2, # of connection points: 2
#     Edge 17, Type (0, 1), BuildingBlock: XUDNAN_clean_linker_2, # of connection points: 2
# Relax obj value: 0.017
# Max RMSD: 0.060
# Mean RMSD: 0.053
data_MOF--net-pth--node1-GALJAG_clean_sbu_0--node2-NAWXER_clean_sbu_0--edge1-XUDNAN_clean_linker_2
_symmetry_space_group_name_H-M    P1
_symmetry_Int_Tables_number       1
_symmetry_cell_setting            triclinic
loop_
_symmetry_equiv_pos_as_xyz
'x, y, z'
_cell_length_a     23.249159
_cell_length_b     23.22818
_cell_length_c     55.35217
_cell_angle_alpha  90.178663
_cell_angle_beta   90.282645
_cell_angle_gamma 120.07706
loop_
_atom_site_label
_atom_site_type_symbol
_atom_site_fract_x
_atom_site_fract_y
_atom_site_fract_z
_atom_type_partial_charge
In0 In 1.00228 0.01528 0.07954 0.0
O1 O 0.95403 0.06214 0.10247 0.0
O2 O 0.0564 0.12149 0.09407 0.0
C3 C 0.89515 0.93529 0.05133 0.0
C4 C 0.10492 0.08008 0.04879 0.0
C5 C 0.01304 0.94212 0.11554 0.0
O6 O 0.93871 0.92054 0.05697 0.0
O7 O 0.90559 0.99002 0.05985 0.0
O8 O 0.044 0.95262 0.09593 0.0
O9 O 0.97654 0.96776 0.1168 0.0
C10 C 1.00646 0.11798 0.10434 0.0
O11 O 0.10618 0.04515 0.06599 0.0
O12 O 0.05144 0.08134 0.04682 0.0
In13 In 0.01966 0.02419 0.41213 0.0
O14 O 1.00868 0.07542 0.37863 0.0
O15 O 0.09004 0.13309 0.40222 0.0
C16 C 0.11869 0.02631 0.43858 0.0
C17 C 0.92885 0.03863 0.43798 0.0
C18 C 0.98152 0.91021 0.38685 0.0
O19 O 0.12834 0.06459 0.42105 0.0
O20 O 0.05823 0.98663 0.44323 0.0
O21 O 0.95043 0.91217 0.40514 0.0
O22 O 0.03096 0.9654 0.38129 0.0
C23 C 0.05901 0.13131 0.38323 0.0
O24 O 0.91786 0.01399 0.41701 0.0
O25 O 0.98529 0.05427 0.44648 0.0
In26 In 0.01615 0.99003 0.74419 0.0
O27 O 0.98271 0.88815 0.76043 0.0
O28 O 0.93615 0.94088 0.77324 0.0
C29 C 0.12228 1.00066 0.72025 0.0
C30 C 0.92234 0.96768 0.71044 0.0
C31 C 0.08179 0.09847 0.77315 0.0
O32 O 0.09363 0.95996 0.7371 0.0
O33 O 0.0963 0.03536 0.7148 0.0
O34 O 0.08657 0.04705 0.77526 0.0
O35 O 0.04237 0.09502 0.75669 0.0
C36 C 0.94009 0.88868 0.77427 0.0
O37 O 0.94889 0.01916 0.72364 0.0
O38 O 0.94436 0.92854 0.71382 0.0
C39 C 0.96181 0.55825 0.28265 0.0
C40 C 0.98854 0.44079 0.21352 0.0
O41 O 0.02185 0.58085 0.27577 0.0
Zn42 Zn 0.07745 0.56117 0.2499 0.0
O43 O 0.91512 0.50588 0.27275 0.0
Zn44 Zn 0.97092 0.49426 0.24901 0.0
O45 O 0.02479 0.46218 0.27083 0.0
O46 O 0.13153 0.53703 0.26988 0.0
O47 O 0.93383 0.42517 0.22382 0.0
O48 O 0.04279 0.48942 0.22177 0.0
O49 O 0.11667 0.6438 0.23164 0.0
O50 O 1.00678 0.5852 0.22933 0.0
C51 C 0.08469 0.48165 0.27743 0.0
C52 C 0.06187 0.63747 0.22418 0.0
C53 C 0.57817 0.95864 0.60426 0.0
C54 C 0.43708 0.99516 0.54733 0.0
O55 O 0.52905 0.91372 0.59233 0.0
Zn56 Zn 0.50314 0.97226 0.57642 0.0
O57 O 0.59328 0.01955 0.60218 0.0
Zn58 Zn 0.56179 0.07836 0.58294 0.0
O59 O 0.53381 0.11732 0.60837 0.0
O60 O 0.47146 1.00782 0.60594 0.0
O61 O 0.48462 0.04825 0.55676 0.0
O62 O 0.42711 0.93856 0.5541 0.0
O63 O 0.58498 0.02616 0.55265 0.0
O64 O 0.64013 0.13252 0.56338 0.0
C65 C 0.48593 0.06301 0.61615 0.0
C66 C 0.63307 0.08552 0.54953 0.0
C67 C 0.45365 0.40295 0.94228 0.0
C68 C 0.60688 0.55133 0.8817 0.0
O69 O 0.43854 0.44663 0.93554 0.0
Zn70 Zn 0.47828 0.53017 0.91093 0.0
O71 O 0.5046 0.40414 0.93352 0.0
Zn72 Zn 0.52994 0.47768 0.91209 0.0
O73 O 0.56725 0.56194 0.93646 0.0
O74 O 0.50245 0.60519 0.93194 0.0
O75 O 0.60475 0.50105 0.89157 0.0
O76 O 0.56313 0.56734 0.88722 0.0
O77 O 0.40499 0.50529 0.88887 0.0
O78 O 0.44703 0.43883 0.887 0.0
C79 C 0.55205 0.60627 0.94212 0.0
C80 C 0.4037 0.45417 0.88 0.0
H81 H 0.91795 0.11824 0.13725 0.0
H82 H 0.1025 0.24745 0.10018 0.0
H83 H 0.11032 0.34465 0.12132 0.0
H84 H 0.85422 0.2347 0.13893 0.0
H85 H 0.82097 0.21095 0.16893 0.0
H86 H 0.82601 0.15138 0.1494 0.0
H87 H 0.89443 0.13153 0.182 0.0
H88 H 0.88927 0.19066 0.20164 0.0
H89 H 0.9693 0.20143 0.19393 0.0
H90 H 0.10227 0.42633 0.14733 0.0
H91 H 0.08325 0.48872 0.17917 0.0
H92 H 0.9047 0.30862 0.2009 0.0
C93 C 0.95948 0.16717 0.13341 0.0
C94 C 1.00948 0.17552 0.11697 0.0
C95 C 0.0637 0.24001 0.11269 0.0
C96 C 0.06836 0.29555 0.1245 0.0
C97 C 0.01856 0.28579 0.14064 0.0
C98 C 0.96535 0.22334 0.14531 0.0
C99 C 0.92143 0.22667 0.16486 0.0
C100 C 0.85151 0.20462 0.15493 0.0
C101 C 0.91847 0.18512 0.18691 0.0
C102 C 0.959 0.30061 0.17067 0.0
C103 C 0.01436 0.33355 0.15618 0.0
C104 C 0.05888 0.40129 0.15868 0.0
C105 C 0.04763 0.43624 0.17687 0.0
C106 C 0.9924 0.40358 0.19246 0.0
C107 C 0.94665 0.33506 0.18897 0.0
H108 H 0.93379 0.07924 0.48519 0.0
H109 H 0.81421 0.02571 0.41964 0.0
H110 H 0.73295 0.04707 0.44022 0.0
H111 H 0.79846 1.00081 0.52549 0.0
H112 H 0.83588 0.06335 0.54884 0.0
H113 H 0.88768 0.04955 0.52836 0.0
H114 H 0.94809 0.17426 0.51679 0.0
H115 H 0.89577 0.1882 0.53706 0.0
H116 H 0.90038 0.21052 0.50568 0.0
H117 H 0.66096 0.06582 0.46806 0.0
H118 H 0.59836 0.07348 0.50267 0.0
H119 H 0.76302 0.11599 0.55057 0.0
C120 C 0.89078 0.07264 0.47515 0.0
C121 C 0.88039 0.05103 0.45079 0.0
C122 C 0.82317 0.04219 0.43831 0.0
C123 C 0.77695 0.05466 0.44979 0.0
C124 C 0.78859 0.07603 0.47376 0.0
C125 C 0.84376 0.08457 0.48641 0.0
C126 C 0.84169 0.10336 0.51255 0.0
C127 C 0.84085 0.05115 0.52982 0.0
C128 C 0.89996 0.17325 0.51835 0.0
C129 C 0.77596 0.10245 0.51271 0.0
C130 C 0.74677 0.08748 0.49 0.0
C131 C 0.68379 0.07885 0.48582 0.0
C132 C 0.64878 0.08363 0.50549 0.0
C133 C 0.67699 0.09734 0.52893 0.0
C134 C 0.74179 0.10814 0.53257 0.0
H135 H 0.83449 0.87143 0.80166 0.0
H136 H 0.94835 0.77705 0.78192 0.0
H137 H 0.87524 0.68023 0.80709 0.0
H138 H 0.80317 0.81496 0.86348 0.0
H139 H 0.71998 0.80203 0.86354 0.0
H140 H 0.78208 0.86442 0.84432 0.0
H141 H 0.70553 0.80958 0.80707 0.0
H142 H 0.64331 0.74686 0.82616 0.0
H143 H 0.67463 0.72274 0.80067 0.0
H144 H 0.78999 0.59381 0.83442 0.0
H145 H 0.69807 0.52348 0.8619 0.0
H146 H 0.63815 0.67301 0.86312 0.0
C147 C 0.84421 0.83052 0.80274 0.0
C148 C 0.89719 0.83177 0.78991 0.0
C149 C 0.90806 0.77712 0.79164 0.0
C150 C 0.86681 0.72192 0.80587 0.0
C151 C 0.81476 0.72202 0.81818 0.0
C152 C 0.80326 0.77483 0.81677 0.0
C153 C 0.74338 0.76203 0.83156 0.0
C154 C 0.76337 0.81394 0.85194 0.0
C155 C 0.68847 0.76018 0.8154 0.0
C156 C 0.72305 0.69382 0.84152 0.0
C157 C 0.76498 0.67173 0.83364 0.0
C158 C 0.75671 0.6105 0.84067 0.0
C159 C 0.70435 0.5709 0.85629 0.0
C160 C 0.6607 0.59253 0.8646 0.0
C161 C 0.67028 0.65477 0.85696 0.0
H162 H 0.08669 0.87892 0.11719 0.0
H163 H 0.95194 0.91728 0.15913 0.0
H164 H 0.95861 0.85121 0.19261 0.0
H165 H 0.02111 0.7112 0.13517 0.0
H166 H 0.10019 0.71452 0.13663 0.0
H167 H 0.08876 0.76862 0.11643 0.0
H168 H 0.18955 0.87099 0.13614 0.0
H169 H 0.20114 0.81714 0.15649 0.0
H170 H 0.19079 0.88375 0.16833 0.0
H171 H 0.9727 0.7759 0.22017 0.0
H172 H 0.99256 0.69301 0.24047 0.0
H173 H 0.12075 0.70363 0.18196 0.0
C174 C 0.05912 0.87384 0.13352 0.0
C175 C 0.01883 0.90333 0.13559 0.0
C176 C 0.98313 0.89522 0.15715 0.0
C177 C 0.98678 0.85798 0.17631 0.0
C178 C 0.02665 0.8294 0.17371 0.0
C179 C 0.0623 0.83677 0.15293 0.0
C180 C 0.09902 0.79814 0.15457 0.0
C181 C 0.07586 0.74496 0.13451 0.0
C182 C 0.17462 0.84534 0.15384 0.0
C183 C 0.07712 0.76678 0.1793 0.0
C184 C 0.03573 0.7861 0.19 0.0
C185 C 1.0057 0.76107 0.21216 0.0
C186 C 0.0172 0.71409 0.22352 0.0
C187 C 0.05872 0.69296 0.21285 0.0
C188 C 0.09006 0.72037 0.19066 0.0
H189 H 0.1142 0.94156 0.47453 0.0
H190 H 0.24971 0.11586 0.4333 0.0
H191 H 0.34461 0.12138 0.45522 0.0
H192 H 0.20252 0.99489 0.5309 0.0
H193 H 0.1871 0.91359 0.53947 0.0
H194 H 0.12897 0.92144 0.5201 0.0
H195 H 0.14025 0.84617 0.4881 0.0
H196 H 0.19872 0.83835 0.50734 0.0
H197 H 0.22141 0.86829 0.4769 0.0
H198 H 0.42395 0.11255 0.48211 0.0
H199 H 0.48555 0.08986 0.51329 0.0
H200 H 0.30206 0.91877 0.53721 0.0
C201 C 0.16391 0.98071 0.47013 0.0
C202 C 0.17459 0.02836 0.4522 0.0
C203 C 0.24029 0.07881 0.44692 0.0
C204 C 0.29459 0.08231 0.45923 0.0
C205 C 0.28257 0.03472 0.4767 0.0
C206 C 0.21911 0.98475 0.48222 0.0
C207 C 0.22079 0.94082 0.5022 0.0
C208 C 0.18259 0.94284 0.52449 0.0
C209 C 0.19368 0.86915 0.49308 0.0
C210 C 0.29504 0.97478 0.50725 0.0
C211 C 0.32937 0.02872 0.49219 0.0
C212 C 0.39783 0.07016 0.49388 0.0
C213 C 0.43231 0.05693 0.51168 0.0
C214 C 0.39856 1.00244 0.52752 0.0
C215 C 0.32909 0.96006 0.52504 0.0
H216 H 0.18341 0.12207 0.80389 0.0
H217 H 0.07169 0.21119 0.7758 0.0
H218 H 0.14193 0.31287 0.80008 0.0
H219 H 0.2082 0.18897 0.86423 0.0
H220 H 0.29123 0.20202 0.86682 0.0
H221 H 0.23087 0.13631 0.84774 0.0
H222 H 0.31091 0.18461 0.81142 0.0
H223 H 0.37138 0.25064 0.83036 0.0
H224 H 0.34256 0.27014 0.80298 0.0
H225 H 0.22509 0.40483 0.82792 0.0
H226 H 0.31468 0.47947 0.8562 0.0
H227 H 0.37305 0.32996 0.86452 0.0
C228 C 0.17333 0.16276 0.80296 0.0
C229 C 0.12186 0.15869 0.78809 0.0
C230 C 0.11078 0.21329 0.78715 0.0
C231 C 0.15042 0.27116 0.80086 0.0
C232 C 0.2011 0.27366 0.81524 0.0
C233 C 0.21266 0.22087 0.81629 0.0
C234 C 0.27097 0.23626 0.83269 0.0
C235 C 0.24898 0.18803 0.85414 0.0
C236 C 0.32728 0.23537 0.81851 0.0
C237 C 0.29048 0.30596 0.8408 0.0
C238 C 0.24953 0.32671 0.83066 0.0
C239 C 0.25755 0.38911 0.83589 0.0
C240 C 0.30856 0.43116 0.85197 0.0
C241 C 0.35116 0.41078 0.86248 0.0
C242 C 0.34183 0.34738 0.85665 0.0
H243 H 0.87339 0.04874 0.69757 0.0
H244 H 0.84736 0.85276 0.68459 0.0
H245 H 0.75305 0.82631 0.65704 0.0
H246 H 0.70043 1.00009 0.69725 0.0
H247 H 0.71337 0.07399 0.68195 0.0
H248 H 0.77817 0.07691 0.70079 0.0
H249 H 0.86023 0.12191 0.66492 0.0
H250 H 0.79582 0.1196 0.64605 0.0
H251 H 0.8382 0.07617 0.6368 0.0
H252 H 0.65994 0.82145 0.63091 0.0
H253 H 0.58168 0.84171 0.60678 0.0
H254 H 0.67137 0.04122 0.63694 0.0
C255 C 0.84793 1.00028 0.68891 0.0
C256 C 0.86764 0.95279 0.69323 0.0
C257 C 0.83316 0.88999 0.68149 0.0
C258 C 0.77938 0.87441 0.66589 0.0
C259 C 0.76088 0.92226 0.66214 0.0
C260 C 0.79451 0.98409 0.67321 0.0
C261 C 0.76597 0.02736 0.66582 0.0
C262 C 0.73781 0.04563 0.68776 0.0
C263 C 0.81816 0.08994 0.65261 0.0
C264 C 0.71111 0.98036 0.64884 0.0
C265 C 0.70844 0.91977 0.64701 0.0
C266 C 0.66167 0.86879 0.6322 0.0
C267 C 0.61726 0.88059 0.61864 0.0
C268 C 0.62042 0.94302 0.6199 0.0
C269 C 0.66763 0.99295 0.63545 0.0
H270 H 0.86603 0.81851 0.02852 0.0
H271 H 0.79243 0.95531 0.03938 0.0
H272 H 0.69495 0.88443 0.01356 0.0
H273 H 0.81752 0.78229 0.96625 0.0
H274 H 0.79475 0.696 0.96828 0.0
H275 H 0.85779 0.75661 0.98812 0.0
H276 H 0.79168 0.6881 0.02524 0.0
H277 H 0.72835 0.62733 1.00551 0.0
H278 H 0.7063 0.66709 0.02878 0.0
H279 H 0.60624 0.79949 0.9861 0.0
H280 H 0.53378 0.70766 0.95835 0.0
H281 H 0.66552 0.6265 0.96528 0.0
C282 C 0.82926 0.83338 0.02554 0.0
C283 C 0.83668 0.89233 0.03599 0.0
C284 C 0.7877 0.91032 0.03156 0.0
C285 C 0.73212 0.87035 0.01695 0.0
C286 C 0.72628 0.81259 1.00689 0.0
C287 C 0.77355 0.79416 0.01094 0.0
C288 C 0.7561 0.73034 0.99759 0.0
C289 C 0.80973 0.74204 0.97895 0.0
C290 C 0.74493 0.67494 0.01534 0.0
C291 C 0.69172 0.71586 0.98536 0.0
C292 C 0.6753 0.76379 0.99101 0.0
C293 C 0.6185 0.76154 0.98159 0.0
C294 C 0.57761 0.70914 0.96585 0.0
C295 C 0.59375 0.6597 0.95965 0.0
C296 C 0.65149 0.66322 0.96972 0.0
H297 H 0.05371 0.89298 0.35199 0.0
H298 H 0.86864 0.78756 0.39126 0.0
H299 H 0.84042 0.68426 0.36858 0.0
H300 H 0.99234 0.81085 0.29458 0.0
H301 H 0.06757 0.80977 0.2879 0.0
H302 H 0.07086 0.87488 0.30664 0.0
H303 H 0.12909 0.84557 0.34058 0.0
H304 H 0.1259 0.78036 0.32196 0.0
H305 H 0.09021 0.76157 0.35173 0.0
H306 H 0.83327 0.59169 0.34039 0.0
H307 H 0.85101 0.52004 0.31139 0.0
H308 H 0.04293 0.68858 0.29308 0.0
C309 C 1.00699 0.84833 0.35575 0.0
C310 C 0.96317 0.8483 0.37327 0.0
C311 C 0.90287 0.78862 0.37784 0.0
C312 C 0.88643 0.7298 0.36503 0.0
C313 C 0.93107 0.73155 0.34787 0.0
C314 C 0.99026 0.78945 0.34337 0.0
C315 C 0.03102 0.77858 0.3247 0.0
C316 C 0.041 0.82103 0.30212 0.0
C317 C 0.098 0.79232 0.33539 0.0
C318 C 0.98586 0.70548 0.31938 0.0
C319 C 0.92804 0.67888 0.33263 0.0
C320 C 0.87863 0.61209 0.33006 0.0
C321 C 0.889 0.57176 0.31358 0.0
C322 C 0.94867 0.59838 0.30024 0.0
C323 C 0.99721 0.66614 0.30329 0.0
H324 H 0.19096 0.07988 0.68163 0.0
H325 H 0.19053 0.93844 0.73284 0.0
H326 H 0.29183 0.95009 0.71428 0.0
H327 H 0.24117 0.02206 0.63105 0.0
H328 H 0.29286 0.10324 0.61822 0.0
H329 H 0.22309 0.08785 0.63666 0.0
H330 H 0.30135 0.18628 0.66462 0.0
H331 H 0.37155 0.20155 0.64636 0.0
H332 H 0.37245 0.18748 0.67833 0.0
H333 H 0.38669 0.96938 0.68884 0.0
H334 H 0.46822 0.99238 0.65656 0.0
H335 H 0.41147 0.1237 0.6219 0.0
C336 C 0.2126 0.05184 0.68902 0.0
C337 C 0.18293 0.0083 0.70871 0.0
C338 C 0.21232 0.97202 0.71777 0.0
C339 C 0.27012 0.97859 0.70744 0.0
C340 C 0.29818 0.02182 0.6881 0.0
C341 C 0.2705 0.05774 0.67887 0.0
C342 C 0.30876 0.09766 0.65701 0.0
C343 C 0.26379 0.0764 0.6344 0.0
C344 C 0.34041 0.1727 0.66188 0.0
C345 C 0.36132 0.07737 0.65515 0.0
C346 C 0.35443 0.03401 0.67346 0.0
C347 C 0.39347 1.00419 0.67468 0.0
C348 C 0.43967 0.01762 0.65635 0.0
C349 C 0.44691 0.06093 0.63725 0.0
C350 C 0.40827 0.09227 0.63685 0.0
H351 H 0.12398 0.17966 0.01784 0.0
H352 H 0.21754 0.0713 0.04511 0.0
H353 H 0.31704 0.1416 0.02058 0.0
H354 H 0.1888 0.20481 0.95703 0.0
H355 H 0.20068 0.28749 0.95488 0.0
H356 H 0.13602 0.22663 0.97375 0.0
H357 H 0.18466 0.30705 0.0104 0.0
H358 H 0.24969 0.36798 0.99168 0.0
H359 H 0.27052 0.33969 0.01887 0.0
H360 H 0.40662 0.22452 0.99322 0.0
H361 H 0.48011 0.31463 0.96555 0.0
H362 H 0.32909 0.3711 0.95746 0.0
C363 C 0.16512 0.17024 0.01844 0.0
C364 C 0.16298 0.11976 0.03322 0.0
C365 C 0.21815 0.10961 0.03383 0.0
C366 C 0.27482 0.14927 0.01998 0.0
C367 C 0.27563 0.19912 1.00577 0.0
C368 C 0.22227 0.2098 1.00495 0.0
C369 C 0.23648 0.26796 0.98883 0.0
C370 C 0.18759 0.24535 0.96735 0.0
C371 C 0.23527 0.32398 1.00332 0.0
C372 C 0.30615 0.28832 0.98068 0.0
C373 C 0.32775 0.24783 0.99055 0.0
C374 C 0.39027 0.25661 0.98542 0.0
C375 C 0.43165 0.30794 0.96969 0.0
C376 C 0.41054 0.35016 0.95942 0.0
C377 C 0.34697 0.3401 0.96515 0.0
H378 H 0.98313 0.14843 0.34943 0.0
H379 H 0.17816 0.24824 0.38331 0.0
H380 H 0.20892 0.3485 0.35877 0.0
H381 H 0.03294 0.21788 0.28967 0.0
H382 H 0.96048 0.22594 0.28512 0.0
H383 H 0.95596 0.16137 0.30433 0.0
H384 H 0.9139 0.20427 0.3395 0.0
H385 H 0.91837 0.26898 0.32042 0.0
H386 H 0.96228 0.29007 0.34892 0.0
H387 H 0.21712 0.43894 0.33039 0.0
H388 H 0.19984 0.51224 0.3024 0.0
H389 H 0.99785 0.35271 0.28899 0.0
C390 C 0.03259 0.1911 0.35148 0.0
C391 C 0.07852 0.1905 0.36808 0.0
C392 C 0.14232 0.24771 0.3706 0.0
C393 C 0.16024 0.30477 0.35672 0.0
C394 C 0.11353 0.30391 0.34059 0.0
C395 C 0.05087 0.24857 0.33806 0.0
C396 C 1.00848 0.26115 0.32048 0.0
C397 C 0.98831 0.21378 0.2986 0.0
C398 C 0.94715 0.25582 0.33309 0.0
C399 C 0.05701 0.33211 0.31342 0.0
C400 C 0.11754 0.35602 0.32502 0.0
C401 C 0.16984 0.42066 0.32123 0.0
C402 C 0.15966 0.46192 0.30529 0.0
C403 C 0.09748 0.43843 0.29358 0.0
C404 C 0.04594 0.37251 0.29772 0.0
loop_
_geom_bond_atom_site_label_1
_geom_bond_atom_site_label_2
_geom_bond_distance
_geom_bond_site_symmetry_2
_ccdc_geom_bond_type
In0 O1 2.294 1_455 S
In0 O2 2.326 . S
In0 O6 2.266 1_445 S
In0 O7 2.326 1_445 S
In0 O8 2.266 1_545 S
In0 O9 2.326 1_445 S
In0 O11 2.294 . S
In0 O12 2.326 . S
O1 In0 2.294 1_655 S
O1 C10 1.240 1_655 S
O2 In0 2.326 . S
O2 C10 1.252 . S
C3 O6 1.252 . S
C3 O7 1.260 . S
C4 O11 1.240 . S
C4 O12 1.252 . S
C5 O8 1.252 1_655 S
C5 O9 1.260 . S
O6 In0 2.266 1_665 S
O6 C3 1.252 . S
O7 In0 2.326 1_665 S
O7 C3 1.260 . S
O8 In0 2.266 1_565 S
O8 C5 1.252 1_455 S
O9 In0 2.326 1_665 S
O9 C5 1.260 . S
C10 O1 1.240 1_455 S
C10 O2 1.252 . S
O11 In0 2.294 . S
O11 C4 1.240 . S
O12 In0 2.326 . S
O12 C4 1.252 . S
In13 O14 2.294 . S
In13 O15 2.326 1_455 S
In13 O19 2.266 . S
In13 O20 2.326 1_545 S
In13 O21 2.266 1_445 S
In13 O22 2.326 1_545 S
In13 O24 2.294 1_445 S
In13 O25 2.326 1_455 S
O14 In13 2.294 . S
O14 C23 1.240 1_455 S
O15 In13 2.326 1_655 S
O15 C23 1.252 . S
C16 O19 1.252 1_565 S
C16 O20 1.260 . S
C17 O24 1.240 1_545 S
C17 O25 1.252 . S
C18 O21 1.252 1_455 S
C18 O22 1.260 . S
O19 In13 2.266 . S
O19 C16 1.252 1_545 S
O20 In13 2.326 1_565 S
O20 C16 1.260 . S
O21 In13 2.266 1_665 S
O21 C18 1.252 1_655 S
O22 In13 2.326 1_565 S
O22 C18 1.260 . S
C23 O14 1.240 1_655 S
C23 O15 1.252 . S
O24 In13 2.294 1_665 S
O24 C17 1.240 1_565 S
O25 In13 2.326 1_655 S
O25 C17 1.252 . S
In26 O27 2.294 1_445 S
In26 O28 2.326 1_445 S
In26 O32 2.266 1_545 S
In26 O33 2.326 . S
In26 O34 2.266 . S
In26 O35 2.326 . S
In26 O37 2.294 1_455 S
In26 O38 2.326 1_445 S
O27 In26 2.294 1_665 S
O27 C36 1.240 . S
O28 In26 2.326 1_665 S
O28 C36 1.252 . S
C29 O32 1.252 1_545 S
C29 O33 1.260 . S
C30 O37 1.240 1_565 S
C30 O38 1.252 . S
C31 O34 1.252 . S
C31 O35 1.260 . S
O32 In26 2.266 1_565 S
O32 C29 1.252 1_565 S
O33 In26 2.326 . S
O33 C29 1.260 . S
O34 In26 2.266 . S
O34 C31 1.252 . S
O35 In26 2.326 . S
O35 C31 1.260 . S
C36 O27 1.240 . S
C36 O28 1.252 . S
O37 In26 2.294 1_655 S
O37 C30 1.240 1_545 S
O38 In26 2.326 1_665 S
O38 C30 1.252 . S
C39 O41 1.247 . S
C39 O43 1.258 1_455 S
C40 O47 1.247 1_455 S
C40 O48 1.258 . S
O41 C39 1.247 . S
O41 Zn42 2.028 . S
Zn42 O41 2.028 . S
Zn42 O46 2.035 . S
Zn42 O48 2.035 . S
Zn42 O49 2.028 . S
O43 C39 1.258 1_655 S
O43 Zn44 2.035 . S
Zn44 O43 2.035 . S
Zn44 O45 2.028 . S
Zn44 O47 2.028 . S
Zn44 O50 2.035 . S
O45 Zn44 2.028 . S
O45 C51 1.247 1_655 S
O46 Zn42 2.035 . S
O46 C51 1.258 . S
O47 C40 1.247 1_655 S
O47 Zn44 2.028 . S
O48 C40 1.258 . S
O48 Zn42 2.035 . S
O49 Zn42 2.028 . S
O49 C52 1.247 . S
O50 Zn44 2.035 . S
O50 C52 1.258 1_655 S
C51 O45 1.247 1_455 S
C51 O46 1.258 . S
C52 O49 1.247 . S
C52 O50 1.258 1_455 S
C53 O55 1.247 1_545 S
C53 O57 1.258 . S
C54 O61 1.247 . S
C54 O62 1.258 1_545 S
O55 C53 1.247 1_565 S
O55 Zn56 2.028 . S
Zn56 O55 2.028 . S
Zn56 O60 2.035 . S
Zn56 O62 2.035 . S
Zn56 O63 2.028 . S
O57 C53 1.258 . S
O57 Zn58 2.035 . S
Zn58 O57 2.035 . S
Zn58 O59 2.028 . S
Zn58 O61 2.028 . S
Zn58 O64 2.035 . S
O59 Zn58 2.028 . S
O59 C65 1.247 . S
O60 Zn56 2.035 . S
O60 C65 1.258 1_565 S
O61 C54 1.247 . S
O61 Zn58 2.028 . S
O62 C54 1.258 1_565 S
O62 Zn56 2.035 . S
O63 Zn56 2.028 . S
O63 C66 1.247 1_565 S
O64 Zn58 2.035 . S
O64 C66 1.258 . S
C65 O59 1.247 . S
C65 O60 1.258 1_545 S
C66 O63 1.247 1_545 S
C66 O64 1.258 . S
C67 O69 1.247 . S
C67 O71 1.258 . S
C68 O75 1.247 . S
C68 O76 1.258 . S
O69 C67 1.247 . S
O69 Zn70 2.028 . S
Zn70 O69 2.028 . S
Zn70 O74 2.035 . S
Zn70 O76 2.035 . S
Zn70 O77 2.028 . S
O71 C67 1.258 . S
O71 Zn72 2.035 . S
Zn72 O71 2.035 . S
Zn72 O73 2.028 . S
Zn72 O75 2.028 . S
Zn72 O78 2.035 . S
O73 Zn72 2.028 . S
O73 C79 1.247 . S
O74 Zn70 2.035 . S
O74 C79 1.258 . S
O75 C68 1.247 . S
O75 Zn72 2.028 . S
O76 C68 1.258 . S
O76 Zn70 2.035 . S
O77 Zn70 2.028 . S
O77 C80 1.247 . S
O78 Zn72 2.035 . S
O78 C80 1.258 . S
C79 O73 1.247 . S
C79 O74 1.258 . S
C80 O77 1.247 . S
C80 O78 1.258 . S
H81 C93 0.930 . S
H82 C95 0.930 . S
H83 C96 0.930 . S
H84 C100 0.959 . S
H85 C100 0.959 . S
H86 C100 0.961 . S
H87 C101 0.960 . S
H88 C101 0.961 . S
H89 C101 0.959 1_455 S
H90 C104 0.929 . S
H91 C105 0.931 . S
H92 C107 0.930 . S
C93 H81 0.930 . S
C93 C94 1.399 1_655 S
C93 C98 1.399 . S
C94 C93 1.399 1_455 S
C94 C95 1.376 . S
C95 H82 0.930 . S
C95 C94 1.376 . S
C95 C96 1.388 . S
C96 H83 0.930 . S
C96 C95 1.388 . S
C96 C97 1.390 . S
C97 C96 1.390 . S
C97 C98 1.394 1_455 S
C97 C103 1.465 . S
C98 C93 1.399 . S
C98 C97 1.394 1_655 S
C98 C99 1.516 . S
C99 C98 1.516 . S
C99 C100 1.502 . S
C99 C101 1.561 . S
C99 C102 1.526 . S
C100 H84 0.959 . S
C100 H85 0.959 . S
C100 H86 0.961 . S
C100 C99 1.502 . S
C101 H87 0.960 . S
C101 H88 0.961 . S
C101 H89 0.959 1_655 S
C101 C99 1.561 . S
C102 C99 1.526 . S
C102 C103 1.396 1_655 S
C102 C107 1.390 . S
C103 C97 1.465 . S
C103 C102 1.396 1_455 S
C103 C104 1.399 . S
C104 H90 0.929 . S
C104 C103 1.399 . S
C104 C105 1.385 . S
C105 H91 0.931 . S
C105 C104 1.385 . S
C105 C106 1.389 . S
C106 C105 1.389 . S
C106 C107 1.387 1_455 S
C107 H92 0.930 . S
C107 C102 1.390 . S
C107 C106 1.387 1_655 S
H108 C120 0.930 . S
H109 C122 0.930 . S
H110 C123 0.930 . S
H111 C127 0.959 . S
H112 C127 0.959 . S
H113 C127 0.961 . S
H114 C128 0.960 . S
H115 C128 0.961 . S
H116 C128 0.959 . S
H117 C131 0.929 . S
H118 C132 0.931 . S
H119 C134 0.930 . S
C120 H108 0.930 . S
C120 C121 1.399 . S
C120 C125 1.399 . S
C121 C120 1.399 . S
C121 C122 1.376 1_545 S
C122 H109 0.930 . S
C122 C121 1.376 1_565 S
C122 C123 1.388 . S
C123 H110 0.930 . S
C123 C122 1.388 . S
C123 C124 1.390 . S
C124 C123 1.390 . S
C124 C125 1.394 1_565 S
C124 C130 1.465 . S
C125 C120 1.399 . S
C125 C124 1.394 1_545 S
C125 C126 1.516 . S
C126 C125 1.516 . S
C126 C127 1.502 . S
C126 C128 1.561 . S
C126 C129 1.526 . S
C127 H111 0.959 . S
C127 H112 0.959 . S
C127 H113 0.961 . S
C127 C126 1.502 . S
C128 H114 0.960 . S
C128 H115 0.961 . S
C128 H116 0.959 . S
C128 C126 1.561 . S
C129 C126 1.526 . S
C129 C130 1.396 1_545 S
C129 C134 1.390 . S
C130 C124 1.465 . S
C130 C129 1.396 1_565 S
C130 C131 1.399 . S
C131 H117 0.929 . S
C131 C130 1.399 . S
C131 C132 1.385 . S
C132 H118 0.931 . S
C132 C131 1.385 . S
C132 C133 1.389 . S
C133 C132 1.389 . S
C133 C134 1.387 1_565 S
C134 H119 0.930 . S
C134 C129 1.390 . S
C134 C133 1.387 1_545 S
H135 C147 0.930 . S
H136 C149 0.930 . S
H137 C150 0.930 . S
H138 C154 0.959 . S
H139 C154 0.959 . S
H140 C154 0.961 . S
H141 C155 0.960 . S
H142 C155 0.961 . S
H143 C155 0.959 . S
H144 C158 0.929 . S
H145 C159 0.931 . S
H146 C161 0.930 . S
C147 H135 0.930 . S
C147 C148 1.399 . S
C147 C152 1.399 . S
C148 C147 1.399 . S
C148 C149 1.376 . S
C149 H136 0.930 . S
C149 C148 1.376 . S
C149 C150 1.388 . S
C150 H137 0.930 . S
C150 C149 1.388 . S
C150 C151 1.390 . S
C151 C150 1.390 . S
C151 C152 1.394 . S
C151 C157 1.465 . S
C152 C147 1.399 . S
C152 C151 1.394 . S
C152 C153 1.516 . S
C153 C152 1.516 . S
C153 C154 1.502 . S
C153 C155 1.561 . S
C153 C156 1.526 . S
C154 H138 0.959 . S
C154 H139 0.959 . S
C154 H140 0.961 . S
C154 C153 1.502 . S
C155 H141 0.960 . S
C155 H142 0.961 . S
C155 H143 0.959 . S
C155 C153 1.561 . S
C156 C153 1.526 . S
C156 C157 1.396 . S
C156 C161 1.390 . S
C157 C151 1.465 . S
C157 C156 1.396 . S
C157 C158 1.399 . S
C158 H144 0.929 . S
C158 C157 1.399 . S
C158 C159 1.385 . S
C159 H145 0.931 . S
C159 C158 1.385 . S
C159 C160 1.389 . S
C160 C159 1.389 . S
C160 C161 1.387 . S
C161 H146 0.930 . S
C161 C156 1.390 . S
C161 C160 1.387 . S
H162 C174 0.930 . S
H163 C176 0.930 . S
H164 C177 0.930 . S
H165 C181 0.959 . S
H166 C181 0.959 . S
H167 C181 0.961 . S
H168 C182 0.960 . S
H169 C182 0.961 . S
H170 C182 0.959 . S
H171 C185 0.929 . S
H172 C186 0.931 . S
H173 C188 0.930 . S
C174 H162 0.930 . S
C174 C175 1.399 1_455 S
C174 C179 1.399 . S
C175 C174 1.399 1_655 S
C175 C176 1.376 . S
C176 H163 0.930 . S
C176 C175 1.376 . S
C176 C177 1.388 . S
C177 H164 0.930 . S
C177 C176 1.388 . S
C177 C178 1.390 . S
C178 C177 1.390 . S
C178 C179 1.394 1_655 S
C178 C184 1.465 . S
C179 C174 1.399 . S
C179 C178 1.394 1_455 S
C179 C180 1.516 . S
C180 C179 1.516 . S
C180 C181 1.502 . S
C180 C182 1.561 . S
C180 C183 1.526 . S
C181 H165 0.959 . S
C181 H166 0.959 . S
C181 H167 0.961 . S
C181 C180 1.502 . S
C182 H168 0.960 . S
C182 H169 0.961 . S
C182 H170 0.959 . S
C182 C180 1.561 . S
C183 C180 1.526 . S
C183 C184 1.396 1_455 S
C183 C188 1.390 . S
C184 C178 1.465 . S
C184 C183 1.396 1_655 S
C184 C185 1.399 . S
C185 H171 0.929 . S
C185 C184 1.399 . S
C185 C186 1.385 . S
C186 H172 0.931 . S
C186 C185 1.385 . S
C186 C187 1.403 . S
C187 C186 1.403 . S
C187 C188 1.381 1_655 S
C188 H173 0.930 . S
C188 C183 1.390 . S
C188 C187 1.381 1_455 S
H189 C201 0.930 . S
H190 C203 0.930 . S
H191 C204 0.930 . S
H192 C208 0.959 . S
H193 C208 0.959 . S
H194 C208 0.961 . S
H195 C209 0.960 . S
H196 C209 0.961 . S
H197 C209 0.959 . S
H198 C212 0.929 . S
H199 C213 0.931 . S
H200 C215 0.930 . S
C201 H189 0.930 . S
C201 C202 1.399 1_565 S
C201 C206 1.399 . S
C202 C201 1.399 1_545 S
C202 C203 1.376 . S
C203 H190 0.930 . S
C203 C202 1.376 . S
C203 C204 1.388 . S
C204 H191 0.930 . S
C204 C203 1.388 . S
C204 C205 1.390 . S
C205 C204 1.390 . S
C205 C206 1.394 1_545 S
C205 C211 1.465 . S
C206 C201 1.399 . S
C206 C205 1.394 1_565 S
C206 C207 1.516 . S
C207 C206 1.516 . S
C207 C208 1.502 . S
C207 C209 1.561 . S
C207 C210 1.526 . S
C208 H192 0.959 . S
C208 H193 0.959 . S
C208 H194 0.961 . S
C208 C207 1.502 . S
C209 H195 0.960 . S
C209 H196 0.961 . S
C209 H197 0.959 . S
C209 C207 1.561 . S
C210 C207 1.526 . S
C210 C211 1.396 1_565 S
C210 C215 1.390 . S
C211 C205 1.465 . S
C211 C210 1.396 1_545 S
C211 C212 1.399 . S
C212 H198 0.929 . S
C212 C211 1.399 . S
C212 C213 1.385 . S
C213 H199 0.931 . S
C213 C212 1.385 . S
C213 C214 1.389 . S
C214 C213 1.389 . S
C214 C215 1.387 1_545 S
C215 H200 0.930 . S
C215 C210 1.390 . S
C215 C214 1.387 1_565 S
H216 C228 0.930 . S
H217 C230 0.930 . S
H218 C231 0.930 . S
H219 C235 0.959 . S
H220 C235 0.959 . S
H221 C235 0.961 . S
H222 C236 0.960 . S
H223 C236 0.961 . S
H224 C236 0.959 . S
H225 C239 0.929 . S
H226 C240 0.931 . S
H227 C242 0.930 . S
C228 H216 0.930 . S
C228 C229 1.399 . S
C228 C233 1.399 . S
C229 C228 1.399 . S
C229 C230 1.376 . S
C230 H217 0.930 . S
C230 C229 1.376 . S
C230 C231 1.388 . S
C231 H218 0.930 . S
C231 C230 1.388 . S
C231 C232 1.390 . S
C232 C231 1.390 . S
C232 C233 1.394 . S
C232 C238 1.465 . S
C233 C228 1.399 . S
C233 C232 1.394 . S
C233 C234 1.516 . S
C234 C233 1.516 . S
C234 C235 1.502 . S
C234 C236 1.561 . S
C234 C237 1.526 . S
C235 H219 0.959 . S
C235 H220 0.959 . S
C235 H221 0.961 . S
C235 C234 1.502 . S
C236 H222 0.960 . S
C236 H223 0.961 . S
C236 H224 0.959 . S
C236 C234 1.561 . S
C237 C234 1.526 . S
C237 C238 1.396 . S
C237 C242 1.390 . S
C238 C232 1.465 . S
C238 C237 1.396 . S
C238 C239 1.399 . S
C239 H225 0.929 . S
C239 C238 1.399 . S
C239 C240 1.385 . S
C240 H226 0.931 . S
C240 C239 1.385 . S
C240 C241 1.389 . S
C241 C240 1.389 . S
C241 C242 1.387 . S
C242 H227 0.930 . S
C242 C237 1.390 . S
C242 C241 1.387 . S
H243 C255 0.930 . S
H244 C257 0.930 . S
H245 C258 0.930 . S
H246 C262 0.959 . S
H247 C262 0.959 . S
H248 C262 0.961 . S
H249 C263 0.960 . S
H250 C263 0.961 . S
H251 C263 0.959 . S
H252 C266 0.929 . S
H253 C267 0.931 . S
H254 C269 0.930 . S
C255 H243 0.930 . S
C255 C256 1.399 1_545 S
C255 C260 1.399 . S
C256 C255 1.399 1_565 S
C256 C257 1.376 . S
C257 H244 0.930 . S
C257 C256 1.376 . S
C257 C258 1.388 . S
C258 H245 0.930 . S
C258 C257 1.388 . S
C258 C259 1.390 . S
C259 C258 1.390 . S
C259 C260 1.394 1_565 S
C259 C265 1.465 . S
C260 C255 1.399 . S
C260 C259 1.394 1_545 S
C260 C261 1.516 . S
C261 C260 1.516 . S
C261 C262 1.502 . S
C261 C263 1.561 . S
C261 C264 1.526 . S
C262 H246 0.959 . S
C262 H247 0.959 . S
C262 H248 0.961 . S
C262 C261 1.502 . S
C263 H249 0.960 . S
C263 H250 0.961 . S
C263 H251 0.959 . S
C263 C261 1.561 . S
C264 C261 1.526 . S
C264 C265 1.396 1_545 S
C264 C269 1.390 . S
C265 C259 1.465 . S
C265 C264 1.396 1_565 S
C265 C266 1.399 . S
C266 H252 0.929 . S
C266 C265 1.399 . S
C266 C267 1.385 . S
C267 H253 0.931 . S
C267 C266 1.385 . S
C267 C268 1.389 . S
C268 C267 1.389 . S
C268 C269 1.387 1_565 S
C269 H254 0.930 . S
C269 C264 1.390 . S
C269 C268 1.387 1_545 S
H270 C282 0.930 . S
H271 C284 0.930 1_556 S
H272 C285 0.930 . S
H273 C289 0.959 . S
H274 C289 0.959 . S
H275 C289 0.961 . S
H276 C290 0.960 . S
H277 C290 0.961 . S
H278 C290 0.959 . S
H279 C293 0.929 . S
H280 C294 0.931 . S
H281 C296 0.930 . S
C282 H270 0.930 . S
C282 C283 1.399 . S
C282 C287 1.399 . S
C283 C282 1.399 . S
C283 C284 1.376 . S
C284 H271 0.930 1_554 S
C284 C283 1.376 . S
C284 C285 1.388 1_554 S
C285 H272 0.930 . S
C285 C284 1.388 1_556 S
C285 C286 1.390 . S
C286 C285 1.390 . S
C286 C287 1.394 1_556 S
C286 C292 1.465 . S
C287 C282 1.399 . S
C287 C286 1.394 1_554 S
C287 C288 1.516 . S
C288 C287 1.516 . S
C288 C289 1.502 . S
C288 C290 1.561 . S
C288 C291 1.526 1_554 S
C289 H273 0.959 . S
C289 H274 0.959 . S
C289 H275 0.961 . S
C289 C288 1.502 . S
C290 H276 0.960 . S
C290 H277 0.961 . S
C290 H278 0.959 . S
C290 C288 1.561 . S
C291 C288 1.526 1_556 S
C291 C292 1.396 . S
C291 C296 1.390 . S
C292 C286 1.465 . S
C292 C291 1.396 . S
C292 C293 1.399 . S
C293 H279 0.929 . S
C293 C292 1.399 . S
C293 C294 1.385 . S
C294 H280 0.931 . S
C294 C293 1.385 . S
C294 C295 1.389 . S
C295 C294 1.389 . S
C295 C296 1.387 . S
C296 H281 0.930 . S
C296 C291 1.390 . S
C296 C295 1.387 . S
H297 C309 0.930 . S
H298 C311 0.930 . S
H299 C312 0.930 . S
H300 C316 0.959 . S
H301 C316 0.959 1_455 S
H302 C316 0.961 1_455 S
H303 C317 0.960 . S
H304 C317 0.961 . S
H305 C317 0.959 . S
H306 C320 0.929 . S
H307 C321 0.931 . S
H308 C323 0.930 . S
C309 H297 0.930 . S
C309 C310 1.399 . S
C309 C314 1.399 . S
C310 C309 1.399 . S
C310 C311 1.376 1_455 S
C311 H298 0.930 . S
C311 C310 1.376 1_655 S
C311 C312 1.388 . S
C312 H299 0.930 . S
C312 C311 1.388 . S
C312 C313 1.390 1_655 S
C313 C312 1.390 1_455 S
C313 C314 1.394 . S
C313 C319 1.465 . S
C314 C309 1.399 . S
C314 C313 1.394 . S
C314 C315 1.516 . S
C315 C314 1.516 . S
C315 C316 1.502 1_455 S
C315 C317 1.561 . S
C315 C318 1.526 . S
C316 H300 0.959 . S
C316 H301 0.959 1_655 S
C316 H302 0.961 1_655 S
C316 C315 1.502 1_655 S
C317 H303 0.960 . S
C317 H304 0.961 . S
C317 H305 0.959 . S
C317 C315 1.561 . S
C318 C315 1.526 . S
C318 C319 1.396 . S
C318 C323 1.390 . S
C319 C313 1.465 . S
C319 C318 1.396 . S
C319 C320 1.399 1_455 S
C320 H306 0.929 . S
C320 C319 1.399 1_655 S
C320 C321 1.385 . S
C321 H307 0.931 . S
C321 C320 1.385 . S
C321 C322 1.389 1_655 S
C322 C321 1.389 1_455 S
C322 C323 1.387 . S
C323 H308 0.930 . S
C323 C318 1.390 . S
C323 C322 1.387 . S
H324 C336 0.930 . S
H325 C338 0.930 . S
H326 C339 0.930 . S
H327 C343 0.959 . S
H328 C343 0.959 . S
H329 C343 0.961 . S
H330 C344 0.960 . S
H331 C344 0.961 . S
H332 C344 0.959 . S
H333 C347 0.929 . S
H334 C348 0.931 . S
H335 C350 0.930 . S
C336 H324 0.930 . S
C336 C337 1.399 . S
C336 C341 1.399 . S
C337 C336 1.399 . S
C337 C338 1.376 1_545 S
C338 H325 0.930 . S
C338 C337 1.376 1_565 S
C338 C339 1.388 . S
C339 H326 0.930 . S
C339 C338 1.388 . S
C339 C340 1.390 . S
C340 C339 1.390 . S
C340 C341 1.394 1_565 S
C340 C346 1.465 . S
C341 C336 1.399 . S
C341 C340 1.394 1_545 S
C341 C342 1.516 . S
C342 C341 1.516 . S
C342 C343 1.502 . S
C342 C344 1.561 . S
C342 C345 1.526 . S
C343 H327 0.959 . S
C343 H328 0.959 . S
C343 H329 0.961 . S
C343 C342 1.502 . S
C344 H330 0.960 . S
C344 H331 0.961 . S
C344 H332 0.959 . S
C344 C342 1.561 . S
C345 C342 1.526 . S
C345 C346 1.396 1_545 S
C345 C350 1.390 . S
C346 C340 1.465 . S
C346 C345 1.396 1_565 S
C346 C347 1.399 . S
C347 H333 0.929 . S
C347 C346 1.399 . S
C347 C348 1.385 . S
C348 H334 0.931 . S
C348 C347 1.385 . S
C348 C349 1.389 . S
C349 C348 1.389 . S
C349 C350 1.387 1_565 S
C350 H335 0.930 . S
C350 C345 1.390 . S
C350 C349 1.387 1_545 S
H351 C363 0.930 . S
H352 C365 0.930 . S
H353 C366 0.930 . S
H354 C370 0.957 . S
H355 C370 0.959 . S
H356 C370 0.961 . S
H357 C371 0.960 . S
H358 C371 0.961 . S
H359 C371 0.959 . S
H360 C374 0.929 . S
H361 C375 0.931 . S
H362 C377 0.930 . S
C363 H351 0.930 . S
C363 C364 1.399 . S
C363 C368 1.399 . S
C364 C363 1.399 . S
C364 C365 1.376 . S
C365 H352 0.930 . S
C365 C364 1.376 . S
C365 C366 1.388 1_554 S
C366 H353 0.930 . S
C366 C365 1.388 1_556 S
C366 C367 1.390 . S
C367 C366 1.390 . S
C367 C368 1.394 1_556 S
C367 C373 1.465 . S
C368 C363 1.399 . S
C368 C367 1.394 1_554 S
C368 C369 1.516 . S
C369 C368 1.516 . S
C369 C370 1.502 . S
C369 C371 1.561 . S
C369 C372 1.526 1_554 S
C370 H354 0.957 . S
C370 H355 0.959 . S
C370 H356 0.961 . S
C370 C369 1.502 . S
C371 H357 0.960 . S
C371 H358 0.961 . S
C371 H359 0.959 . S
C371 C369 1.561 . S
C372 C369 1.526 1_556 S
C372 C373 1.396 . S
C372 C377 1.390 . S
C373 C367 1.465 . S
C373 C372 1.396 . S
C373 C374 1.399 . S
C374 H360 0.929 . S
C374 C373 1.399 . S
C374 C375 1.385 . S
C375 H361 0.931 . S
C375 C374 1.385 . S
C375 C376 1.389 . S
C376 C375 1.389 . S
C376 C377 1.387 . S
C377 H362 0.930 . S
C377 C372 1.390 . S
C377 C376 1.387 . S
H378 C390 0.930 . S
H379 C392 0.930 . S
H380 C393 0.930 . S
H381 C397 0.959 . S
H382 C397 0.959 . S
H383 C397 0.961 . S
H384 C398 0.960 . S
H385 C398 0.961 . S
H386 C398 0.959 . S
H387 C401 0.929 . S
H388 C402 0.931 . S
H389 C404 0.930 . S
C390 H378 0.930 . S
C390 C391 1.399 1_655 S
C390 C395 1.399 . S
C391 C390 1.399 1_455 S
C391 C392 1.376 . S
C392 H379 0.930 . S
C392 C391 1.376 . S
C392 C393 1.388 . S
C393 H380 0.930 . S
C393 C392 1.388 . S
C393 C394 1.390 . S
C394 C393 1.390 . S
C394 C395 1.394 1_455 S
C394 C400 1.465 . S
C395 C390 1.399 . S
C395 C394 1.394 1_655 S
C395 C396 1.516 . S
C396 C395 1.516 . S
C396 C397 1.502 . S
C396 C398 1.561 1_655 S
C396 C399 1.526 . S
C397 H381 0.959 . S
C397 H382 0.959 . S
C397 H383 0.961 . S
C397 C396 1.502 . S
C398 H384 0.960 . S
C398 H385 0.961 . S
C398 H386 0.959 . S
C398 C396 1.561 1_455 S
C399 C396 1.526 . S
C399 C400 1.396 1_655 S
C399 C404 1.390 . S
C400 C394 1.465 . S
C400 C399 1.396 1_455 S
C400 C401 1.399 . S
C401 H387 0.929 . S
C401 C400 1.399 . S
C401 C402 1.385 . S
C402 H388 0.931 . S
C402 C401 1.385 . S
C402 C403 1.389 . S
C403 C402 1.389 . S
C403 C404 1.387 1_455 S
C404 H389 0.930 . S
C404 C399 1.390 . S
C404 C403 1.387 1_655 S
C106 C40 1.488 . S
C94 C10 1.491 . S
C121 C17 1.490 . S
C133 C66 1.489 1_565 S
C148 C36 1.491 . S
C160 C68 1.487 . S
C175 C5 1.489 . S
C187 C52 1.487 1_655 S
C214 C54 1.491 . S
C202 C16 1.494 1_545 S
C229 C31 1.488 . S
C241 C80 1.495 . S
C268 C53 1.491 1_565 S
C256 C30 1.490 . S
C283 C3 1.488 . S
C295 C79 1.495 . S
C322 C39 1.489 . S
C310 C18 1.495 . S
C349 C65 1.491 1_565 S
C337 C29 1.494 . S
C376 C67 1.494 . S
C364 C4 1.489 . S
C391 C23 1.489 1_455 S
C403 C51 1.493 . S
