# Generated by pormake.
# Topology ocu, (6,8)-cn, num edge types: 1
# Building blocks:
#     Node 0, Type 0, BuildingBlock: CUKXOW_clean_sbu_0, # of connection points: 6
#     Node 1, Type 0, BuildingBlock: CUKXOW_clean_sbu_0, # of connection points: 6
#     Node 2, Type 0, BuildingBlock: CUKXOW_clean_sbu_0, # of connection points: 6
#     Node 3, Type 0, BuildingBlock: CUKXOW_clean_sbu_0, # of connection points: 6
#     Node 4, Type 0, BuildingBlock: CUKXOW_clean_sbu_0, # of connection points: 6
#     Node 5, Type 0, BuildingBlock: CUKXOW_clean_sbu_0, # of connection points: 6
#     Node 6, Type 0, BuildingBlock: CUKXOW_clean_sbu_0, # of connection points: 6
#     Node 7, Type 0, BuildingBlock: CUKXOW_clean_sbu_0, # of connection points: 6
#     Node 8, Type 1, BuildingBlock: GIZVER_clean_sbu_0, # of connection points: 8
#     Node 9, Type 1, BuildingBlock: GIZVER_clean_sbu_0, # of connection points: 8
#     Node 10, Type 1, BuildingBlock: GIZVER_clean_sbu_0, # of connection points: 8
#     Node 11, Type 1, BuildingBlock: GIZVER_clean_sbu_0, # of connection points: 8
#     Node 12, Type 1, BuildingBlock: GIZVER_clean_sbu_0, # of connection points: 8
#     Node 13, Type 1, BuildingBlock: GIZVER_clean_sbu_0, # of connection points: 8
#     Edge 14, Type (0, 1), BuildingBlock: UVAHIK_clean_linker_0, # of connection points: 2
#     Edge 15, Type (0, 1), BuildingBlock: UVAHIK_clean_linker_0, # of connection points: 2
#     Edge 16, Type (0, 1), BuildingBlock: UVAHIK_clean_linker_0, # of connection points: 2
#     Edge 17, Type (0, 1), BuildingBlock: UVAHIK_clean_linker_0, # of connection points: 2
#     Edge 18, Type (0, 1), BuildingBlock: UVAHIK_clean_linker_0, # of connection points: 2
#     Edge 19, Type (0, 1), BuildingBlock: UVAHIK_clean_linker_0, # of connection points: 2
#     Edge 20, Type (0, 1), BuildingBlock: UVAHIK_clean_linker_0, # of connection points: 2
#     Edge 21, Type (0, 1), BuildingBlock: UVAHIK_clean_linker_0, # of connection points: 2
#     Edge 22, Type (0, 1), BuildingBlock: UVAHIK_clean_linker_0, # of connection points: 2
#     Edge 23, Type (0, 1), BuildingBlock: UVAHIK_clean_linker_0, # of connection points: 2
#     Edge 24, Type (0, 1), BuildingBlock: UVAHIK_clean_linker_0, # of connection points: 2
#     Edge 25, Type (0, 1), BuildingBlock: UVAHIK_clean_linker_0, # of connection points: 2
#     Edge 26, Type (0, 1), BuildingBlock: UVAHIK_clean_linker_0, # of connection points: 2
#     Edge 27, Type (0, 1), BuildingBlock: UVAHIK_clean_linker_0, # of connection points: 2
#     Edge 28, Type (0, 1), BuildingBlock: UVAHIK_clean_linker_0, # of connection points: 2
#     Edge 29, Type (0, 1), BuildingBlock: UVAHIK_clean_linker_0, # of connection points: 2
#     Edge 30, Type (0, 1), BuildingBlock: UVAHIK_clean_linker_0, # of connection points: 2
#     Edge 31, Type (0, 1), BuildingBlock: UVAHIK_clean_linker_0, # of connection points: 2
#     Edge 32, Type (0, 1), BuildingBlock: UVAHIK_clean_linker_0, # of connection points: 2
#     Edge 33, Type (0, 1), BuildingBlock: UVAHIK_clean_linker_0, # of connection points: 2
#     Edge 34, Type (0, 1), BuildingBlock: UVAHIK_clean_linker_0, # of connection points: 2
#     Edge 35, Type (0, 1), BuildingBlock: UVAHIK_clean_linker_0, # of connection points: 2
#     Edge 36, Type (0, 1), BuildingBlock: UVAHIK_clean_linker_0, # of connection points: 2
#     Edge 37, Type (0, 1), BuildingBlock: UVAHIK_clean_linker_0, # of connection points: 2
#     Edge 38, Type (0, 1), BuildingBlock: UVAHIK_clean_linker_0, # of connection points: 2
#     Edge 39, Type (0, 1), BuildingBlock: UVAHIK_clean_linker_0, # of connection points: 2
#     Edge 40, Type (0, 1), BuildingBlock: UVAHIK_clean_linker_0, # of connection points: 2
#     Edge 41, Type (0, 1), BuildingBlock: UVAHIK_clean_linker_0, # of connection points: 2
#     Edge 42, Type (0, 1), BuildingBlock: UVAHIK_clean_linker_0, # of connection points: 2
#     Edge 43, Type (0, 1), BuildingBlock: UVAHIK_clean_linker_0, # of connection points: 2
#     Edge 44, Type (0, 1), BuildingBlock: UVAHIK_clean_linker_0, # of connection points: 2
#     Edge 45, Type (0, 1), BuildingBlock: UVAHIK_clean_linker_0, # of connection points: 2
#     Edge 46, Type (0, 1), BuildingBlock: UVAHIK_clean_linker_0, # of connection points: 2
#     Edge 47, Type (0, 1), BuildingBlock: UVAHIK_clean_linker_0, # of connection points: 2
#     Edge 48, Type (0, 1), BuildingBlock: UVAHIK_clean_linker_0, # of connection points: 2
#     Edge 49, Type (0, 1), BuildingBlock: UVAHIK_clean_linker_0, # of connection points: 2
#     Edge 50, Type (0, 1), BuildingBlock: UVAHIK_clean_linker_0, # of connection points: 2
#     Edge 51, Type (0, 1), BuildingBlock: UVAHIK_clean_linker_0, # of connection points: 2
#     Edge 52, Type (0, 1), BuildingBlock: UVAHIK_clean_linker_0, # of connection points: 2
#     Edge 53, Type (0, 1), BuildingBlock: UVAHIK_clean_linker_0, # of connection points: 2
#     Edge 54, Type (0, 1), BuildingBlock: UVAHIK_clean_linker_0, # of connection points: 2
#     Edge 55, Type (0, 1), BuildingBlock: UVAHIK_clean_linker_0, # of connection points: 2
#     Edge 56, Type (0, 1), BuildingBlock: UVAHIK_clean_linker_0, # of connection points: 2
#     Edge 57, Type (0, 1), BuildingBlock: UVAHIK_clean_linker_0, # of connection points: 2
#     Edge 58, Type (0, 1), BuildingBlock: UVAHIK_clean_linker_0, # of connection points: 2
#     Edge 59, Type (0, 1), BuildingBlock: UVAHIK_clean_linker_0, # of connection points: 2
#     Edge 60, Type (0, 1), BuildingBlock: UVAHIK_clean_linker_0, # of connection points: 2
#     Edge 61, Type (0, 1), BuildingBlock: UVAHIK_clean_linker_0, # of connection points: 2
# Relax obj value: 0.135
# Max RMSD: 0.287
# Mean RMSD: 0.177
data_MOF--net-ocu--node1-CUKXOW_clean_sbu_0--node2-GIZVER_clean_sbu_0--edge1-UVAHIK_clean_linker_0
_symmetry_space_group_name_H-M    P1
_symmetry_Int_Tables_number       1
_symmetry_cell_setting            triclinic
loop_
_symmetry_equiv_pos_as_xyz
'x, y, z'
_cell_length_a     50.296283
_cell_length_b     54.485428
_cell_length_c     38.471008
_cell_angle_alpha  91.370609
_cell_angle_beta   92.691832
_cell_angle_gamma 98.309055
loop_
_atom_site_label
_atom_site_type_symbol
_atom_site_fract_x
_atom_site_fract_y
_atom_site_fract_z
_atom_type_partial_charge
Tb0 Tb 0.26862 0.23574 0.22155 0.0
C1 C 0.29997 0.29097 0.22267 0.0
Tb2 Tb 0.25788 0.27503 0.28057 0.0
O3 O 0.24011 0.24775 0.18137 0.0
O4 O 0.24549 0.26399 0.22945 0.0
O5 O 0.30005 0.26722 0.21333 0.0
C6 C 0.23249 0.30782 0.31191 0.0
O7 O 0.28317 0.29824 0.24533 0.0
C8 C 0.29353 0.24648 0.30265 0.0
C9 C 0.22835 0.21909 0.28097 0.0
O10 O 0.25843 0.31029 0.30924 0.0
O11 O 0.22116 0.2871 0.29699 0.0
O12 O 0.28566 0.26398 0.3216 0.0
O13 O 0.28164 0.24691 0.27316 0.0
O14 O 0.22781 0.24278 0.29007 0.0
O15 O 0.24507 0.21206 0.25801 0.0
C16 C 0.28687 0.20205 0.18198 0.0
O17 O 0.26196 0.20151 0.1898 0.0
O18 O 0.30163 0.22116 0.19735 0.0
C19 C 0.23298 0.26522 0.20081 0.0
Tb20 Tb 0.74538 0.24734 0.27947 0.0
C21 C 0.74058 0.21921 0.20768 0.0
Tb22 Tb 0.78228 0.26752 0.2264 0.0
O23 O 0.71122 0.25627 0.24738 0.0
O24 O 0.74813 0.27925 0.24797 0.0
O25 O 0.73653 0.217 0.24131 0.0
C26 C 0.80201 0.29285 0.1727 0.0
O27 O 0.75604 0.23861 0.1955 0.0
C28 C 0.80394 0.23924 0.27105 0.0
C29 C 0.78957 0.2932 0.3001 0.0
O30 O 0.81224 0.27469 0.18687 0.0
O31 O 0.78056 0.29616 0.18835 0.0
O32 O 0.81733 0.2578 0.25581 0.0
O33 O 0.77995 0.23578 0.25837 0.0
O34 O 0.7936 0.29608 0.26662 0.0
O35 O 0.77298 0.27432 0.31144 0.0
C36 C 0.71937 0.22832 0.33356 0.0
O37 O 0.71319 0.24662 0.31555 0.0
O38 O 0.74043 0.22077 0.32122 0.0
C39 C 0.7245 0.27569 0.2342 0.0
Tb40 Tb 0.75903 0.77047 0.23755 0.0
C41 C 0.7226 0.71978 0.24916 0.0
Tb42 Tb 0.77338 0.73679 0.29985 0.0
O43 O 0.77771 0.75158 0.19599 0.0
O44 O 0.77941 0.73954 0.24589 0.0
O45 O 0.72372 0.74264 0.23765 0.0
C46 C 0.7938 0.70489 0.3409 0.0
O47 O 0.74178 0.71248 0.26974 0.0
C48 C 0.74487 0.77223 0.32044 0.0
C49 C 0.81076 0.78687 0.28589 0.0
O50 O 0.76832 0.70503 0.3338 0.0
O51 O 0.80775 0.72234 0.32423 0.0
O52 O 0.75297 0.75573 0.3406 0.0
O53 O 0.75329 0.76755 0.29109 0.0
O54 O 0.80926 0.76423 0.29845 0.0
O55 O 0.79143 0.79425 0.26585 0.0
C56 C 0.73828 0.80282 0.19849 0.0
O57 O 0.76355 0.80029 0.20045 0.0
O58 O 0.72491 0.78754 0.21896 0.0
C59 C 0.7866 0.73518 0.21559 0.0
Tb60 Tb 0.27259 0.77208 0.2449 0.0
C61 C 0.30791 0.77839 0.31649 0.0
Tb62 Tb 0.25977 0.73701 0.29934 0.0
O63 O 0.23522 0.78722 0.25203 0.0
O64 O 0.2559 0.77518 0.29465 0.0
O65 O 0.30604 0.78393 0.28311 0.0
C66 C 0.23224 0.70918 0.34576 0.0
O67 O 0.29045 0.76118 0.33003 0.0
C68 C 0.29709 0.72434 0.2589 0.0
C69 C 0.22461 0.73167 0.2286 0.0
O70 O 0.24497 0.7009 0.32051 0.0
O71 O 0.23572 0.73317 0.34545 0.0
O72 O 0.29633 0.72051 0.29211 0.0
O73 O 0.27648 0.73387 0.24946 0.0
O74 O 0.22472 0.729 0.26271 0.0
O75 O 0.2446 0.74546 0.21411 0.0
C76 C 0.29382 0.80227 0.19669 0.0
O77 O 0.30416 0.78348 0.20859 0.0
O78 O 0.27174 0.80391 0.21185 0.0
C79 C 0.23494 0.78404 0.28523 0.0
Tb80 Tb 0.24782 0.74864 0.78573 0.0
C81 C 0.23452 0.7216 0.71094 0.0
Tb82 Tb 0.2824 0.7638 0.72291 0.0
O83 O 0.21421 0.76969 0.77406 0.0
O84 O 0.2455 0.77005 0.74164 0.0
O85 O 0.23356 0.72004 0.74533 0.0
C86 C 0.31003 0.78773 0.67357 0.0
O87 O 0.24986 0.73963 0.69573 0.0
C88 C 0.29689 0.72797 0.7615 0.0
C89 C 0.29315 0.79482 0.79544 0.0
O90 O 0.31693 0.76904 0.69017 0.0
O91 O 0.28744 0.79286 0.68462 0.0
O92 O 0.29938 0.72902 0.72808 0.0
O93 O 0.28783 0.74715 0.77173 0.0
O94 O 0.29747 0.79317 0.76163 0.0
O95 O 0.27586 0.77852 0.81131 0.0
C96 C 0.23132 0.719 0.8366 0.0
O97 O 0.2259 0.7415 0.83315 0.0
O98 O 0.24606 0.71349 0.81164 0.0
C99 C 0.22367 0.77845 0.74519 0.0
Tb100 Tb 0.2562 0.27881 0.71115 0.0
C101 C 0.21641 0.23267 0.73576 0.0
Tb102 Tb 0.27163 0.24831 0.77619 0.0
O103 O 0.27745 0.25958 0.67193 0.0
O104 O 0.27768 0.24908 0.72227 0.0
O105 O 0.21904 0.25459 0.72086 0.0
C106 C 0.29075 0.21836 0.82092 0.0
O107 O 0.2358 0.22495 0.75524 0.0
C108 C 0.24261 0.28342 0.79475 0.0
C109 C 0.31002 0.29545 0.75481 0.0
O110 O 0.27513 0.21101 0.79365 0.0
O111 O 0.29634 0.24235 0.82212 0.0
O112 O 0.25153 0.26789 0.81574 0.0
O113 O 0.25005 0.27799 0.76504 0.0
O114 O 0.30858 0.27262 0.76664 0.0
O115 O 0.28997 0.30318 0.7364 0.0
C116 C 0.23438 0.30809 0.66714 0.0
O117 O 0.25582 0.3149 0.68723 0.0
O118 O 0.22517 0.28507 0.67228 0.0
C119 C 0.28621 0.24401 0.69307 0.0
Tb120 Tb 0.77679 0.27282 0.72533 0.0
C121 C 0.79893 0.28646 0.80261 0.0
Tb122 Tb 0.75158 0.24148 0.78629 0.0
O123 O 0.75453 0.30494 0.7317 0.0
O124 O 0.74812 0.27478 0.76236 0.0
O125 O 0.80226 0.29006 0.76896 0.0
C126 C 0.72895 0.22384 0.84316 0.0
O127 O 0.78027 0.2695 0.81478 0.0
C128 C 0.78116 0.21861 0.74494 0.0
C129 C 0.72512 0.23273 0.71092 0.0
O130 O 0.7535 0.22237 0.83525 0.0
O131 O 0.71712 0.23528 0.81896 0.0
O132 O 0.76181 0.2074 0.76242 0.0
O133 O 0.78482 0.24139 0.75397 0.0
O134 O 0.72061 0.23283 0.74472 0.0
O135 O 0.74717 0.24491 0.69803 0.0
C136 C 0.81182 0.28597 0.67698 0.0
O137 O 0.78741 0.29124 0.67666 0.0
O138 O 0.81626 0.27352 0.70435 0.0
C139 C 0.74119 0.29578 0.75782 0.0
Tb140 Tb 0.76866 0.74029 0.72988 0.0
C141 C 0.79956 0.79605 0.72916 0.0
Tb142 Tb 0.76113 0.77933 0.79101 0.0
O143 O 0.73762 0.75078 0.69258 0.0
O144 O 0.74652 0.76899 0.7399 0.0
O145 O 0.79737 0.77271 0.71682 0.0
C146 C 0.74473 0.81399 0.83072 0.0
O147 O 0.78569 0.80291 0.75553 0.0
C148 C 0.79633 0.74901 0.80894 0.0
C149 C 0.72901 0.72426 0.79034 0.0
O150 O 0.76947 0.81339 0.82299 0.0
O151 O 0.72911 0.79534 0.81547 0.0
O152 O 0.78997 0.76631 0.82941 0.0
O153 O 0.7832 0.75061 0.78076 0.0
O154 O 0.72969 0.74799 0.80049 0.0
O155 O 0.74483 0.71696 0.76641 0.0
C156 C 0.79308 0.70849 0.69496 0.0
O157 O 0.76735 0.70559 0.69954 0.0
O158 O 0.80476 0.72896 0.71024 0.0
C159 C 0.73193 0.76885 0.71243 0.0
Co160 Co 0.05165 0.96207 0.49516 0.0
Co161 Co 0.05195 0.97901 0.55757 0.0
Co162 Co 0.01468 0.01018 0.50973 0.0
O163 O 0.0492 0.99477 0.5156 0.0
H164 H 0.06508 1.00662 0.51245 0.0
O165 O 0.97984 0.02524 0.50444 0.0
Co166 Co 0.97727 0.05788 0.52449 0.0
Co167 Co 0.97574 0.04018 0.46242 0.0
H168 H 0.96414 0.01333 0.50828 0.0
O169 O 0.08511 0.97622 0.57783 0.0
O170 O 0.05922 0.94794 0.54221 0.0
O171 O 0.02027 0.97394 0.58442 0.0
O172 O 0.99332 0.98699 0.54326 0.0
O173 O 0.02816 0.0347 0.54801 0.0
O174 O 0.97299 0.08676 0.5443 0.0
O175 O 0.94122 0.05374 0.53314 0.0
O176 O 0.01449 0.06616 0.52038 0.0
O177 O 0.03586 0.03331 0.47556 0.0
O178 O 1.00712 0.04564 0.43589 0.0
O179 O 0.96916 0.07148 0.4774 0.0
O180 O 0.9421 0.04327 0.44302 0.0
C181 C 0.08063 0.94375 0.47336 0.0
C182 C 0.99987 0.96257 0.47476 0.0
C183 C 0.99691 0.97565 0.57165 0.0
C184 C 0.08034 0.95402 0.56369 0.0
C185 C 0.94822 0.07631 0.54624 0.0
C186 C 0.02888 0.05801 0.54436 0.0
C187 C 0.03098 0.04461 0.44742 0.0
C188 C 0.94769 0.06561 0.45654 0.0
O189 O 0.05578 0.9334 0.47468 0.0
O190 O 0.08788 0.966 0.48747 0.0
O191 O 1.00132 0.98593 0.47143 0.0
O192 O 1.01416 0.95378 0.49827 0.0
Co193 Co 0.55247 0.96474 0.01174 0.0
Co194 Co 0.54241 0.98448 0.07239 0.0
Co195 Co 0.51432 0.0094 0.00682 0.0
O196 O 0.54549 0.99614 0.0275 0.0
H197 H 0.56143 0.00838 0.02763 0.0
O198 O 0.48342 0.02271 0.98584 0.0
Co199 Co 0.47786 0.05554 0.99612 0.0
Co200 Co 0.48792 0.03057 0.93902 0.0
H201 H 0.46703 0.0111 0.98724 0.0
O202 O 0.57295 0.97934 0.10069 0.0
O203 O 0.55039 0.95368 0.0597 0.0
O204 O 0.50649 0.98004 0.08796 0.0
O205 O 0.48755 0.99115 0.03803 0.0
O206 O 0.52243 0.0375 0.0414 0.0
O207 O 0.46848 0.08509 1.0049 0.0
O208 O 0.44203 0.04896 0.99022 0.0
O209 O 0.51524 0.06658 1.00489 0.0
O210 O 0.54122 0.02764 0.97615 0.0
O211 O 0.52382 0.03364 0.92332 0.0
O212 O 0.48183 0.06269 0.94664 0.0
O213 O 0.45847 0.03479 0.90886 0.0
C214 C 0.58656 0.95026 1.00304 0.0
C215 C 0.50083 0.95961 0.98126 0.0
C216 C 0.48592 0.98198 0.06831 0.0
C217 C 0.56975 0.95836 0.08324 0.0
C218 C 0.44458 0.07241 0.99917 0.0
C219 C 0.52878 0.05924 0.03034 0.0
C220 C 0.54378 0.03467 0.94498 0.0
C221 C 0.46283 0.05703 0.92271 0.0
O222 O 0.56303 0.9369 0.99745 0.0
O223 O 0.58835 0.97287 0.01567 0.0
O224 O 0.5058 0.9818 0.9716 0.0
O225 O 0.51559 0.95206 1.00503 0.0
Co226 Co 0.05013 0.459 0.9906 0.0
Co227 Co 0.05381 0.47656 0.05215 0.0
Co228 Co 0.015 0.50826 1.00503 0.0
O229 O 0.04878 0.49191 0.01049 0.0
H230 H 0.0647 0.50335 1.00595 0.0
O231 O 0.98102 0.52439 0.99994 0.0
Co232 Co 0.97997 0.55771 0.01826 0.0
Co233 Co 0.97521 0.53826 0.95755 0.0
H234 H 0.96523 0.51309 1.00536 0.0
O235 O 0.08762 0.4745 0.0714 0.0
O236 O 0.06148 0.44569 0.03673 0.0
O237 O 0.02309 0.47199 0.0803 0.0
O238 O 0.99699 0.49167 0.04545 0.0
O239 O 0.03295 0.53628 0.03578 0.0
O240 O 0.97666 0.58724 0.03737 0.0
O241 O 0.94508 0.55356 0.032 0.0
O242 O 0.01655 0.56651 0.00806 0.0
O243 O 0.03307 0.52496 0.96451 0.0
O244 O 1.00534 0.5422 0.92867 0.0
O245 O 0.96823 0.56962 0.97154 0.0
O246 O 0.94116 0.54006 0.93913 0.0
C247 C 0.07799 0.4414 0.96484 0.0
C248 C 0.99416 0.45793 0.9842 0.0
C249 C 1.00062 0.47887 0.07216 0.0
C250 C 0.08268 0.4521 0.05789 0.0
C251 C 0.95253 0.57652 0.04331 0.0
C252 C 0.0347 0.55896 0.02746 0.0
C253 C 0.02841 0.53669 0.93703 0.0
C254 C 0.94656 0.56278 0.95138 0.0
O255 O 0.05393 0.43012 0.96987 0.0
O256 O 0.08505 0.46403 0.97763 0.0
O257 O 0.9969 0.48028 0.97436 0.0
O258 O 1.01343 0.4493 1.00001 0.0
Co259 Co 0.54955 0.45881 0.98387 0.0
Co260 Co 0.55208 0.47443 0.04693 0.0
Co261 Co 0.51341 0.50702 1.00437 0.0
O262 O 0.54779 0.4911 1.00641 0.0
H263 H 0.5636 0.50296 1.00301 0.0
O264 O 0.47891 0.52269 1.00241 0.0
Co265 Co 0.4766 0.55507 0.02399 0.0
Co266 Co 0.4749 0.53896 0.9617 0.0
H267 H 0.46312 0.51074 1.00572 0.0
O268 O 0.58574 0.47145 0.06488 0.0
O269 O 0.55843 0.44364 0.02987 0.0
O270 O 0.52154 0.46818 0.07483 0.0
O271 O 0.49276 0.48294 0.03777 0.0
O272 O 0.52817 0.53039 0.04321 0.0
O273 O 0.47262 0.58373 0.045 0.0
O274 O 0.44061 0.55092 0.03384 0.0
O275 O 0.51417 0.56346 0.01952 0.0
O276 O 0.53426 0.53111 0.97106 0.0
O277 O 0.50543 0.54561 0.93399 0.0
O278 O 0.46711 0.5695 0.97738 0.0
O279 O 0.44173 0.5402 0.94219 0.0
C280 C 0.57795 0.44069 0.95971 0.0
C281 C 0.4971 0.46043 0.96637 0.0
C282 C 0.49768 0.47024 0.06451 0.0
C283 C 0.58008 0.44933 0.0506 0.0
C284 C 0.44783 0.57342 0.0472 0.0
C285 C 0.52964 0.55392 0.041 0.0
C286 C 0.52932 0.54382 0.94436 0.0
C287 C 0.44652 0.56279 0.95508 0.0
O288 O 0.55309 0.43052 0.96173 0.0
O289 O 0.58558 0.46272 0.97441 0.0
O290 O 0.49859 0.48398 0.96518 0.0
O291 O 0.51198 0.4506 0.98817 0.0
Co292 Co 0.06481 0.48381 0.47429 0.0
Co293 Co 0.02496 0.49006 0.42937 0.0
Co294 Co 1.01126 0.50448 0.50687 0.0
O295 O 0.02676 0.48162 0.47594 0.0
H296 H 0.01818 0.46473 0.47788 0.0
O297 O 0.99601 0.52736 0.53794 0.0
Co298 Co 0.95822 0.52654 0.53809 0.0
Co299 Co 0.99608 0.5185 0.58445 0.0
H300 H 1.00519 0.54415 0.53649 0.0
O301 O 0.02824 0.46699 0.39365 0.0
O302 O 0.06154 0.49101 0.42456 0.0
O303 O 0.01691 0.52257 0.42012 0.0
O304 O 0.01917 0.53406 0.47627 0.0
O305 O 0.97592 0.49381 0.48171 0.0
O306 O 0.92356 0.52939 0.5387 0.0
O307 O 0.95958 0.55926 0.54575 0.0
O308 O 0.9518 0.49194 0.52818 0.0
O309 O 1.00358 0.47488 0.53729 0.0
O310 O 1.00112 0.48506 0.59342 0.0
O311 O 0.95996 0.52013 0.58813 0.0
O312 O 0.99424 0.5423 0.61974 0.0
C313 C 0.09054 0.45868 0.46835 0.0
C314 C 0.06608 0.52583 0.5161 0.0
C315 C 0.01931 0.53929 0.44403 0.0
C316 C 0.05374 0.47435 0.40016 0.0
C317 C 0.93359 0.55279 0.54213 0.0
C318 C 0.95627 0.48344 0.49829 0.0
C319 C 1.00127 0.46895 0.56906 0.0
C320 C 0.96861 0.53682 0.61219 0.0
O321 O 0.09957 0.48225 0.4722 0.0
O322 O 0.06465 0.45127 0.4653 0.0
O323 O 0.04641 0.51507 0.5322 0.0
O324 O 0.07043 0.5183 0.48566 0.0
Co325 Co 0.5682 0.97443 0.52051 0.0
Co326 Co 0.54994 0.97437 0.45887 0.0
Co327 Co 0.51455 0.00794 0.5067 0.0
O328 O 0.53293 0.97741 0.49983 0.0
H329 H 0.52063 0.96247 0.50324 0.0
O330 O 0.49618 0.03846 0.51293 0.0
Co331 Co 0.46021 0.04093 0.49356 0.0
Co332 Co 0.48069 0.04248 0.55455 0.0
H333 H 0.50845 0.05337 0.50879 0.0
O334 O 0.5504 0.94369 0.43804 0.0
O335 O 0.58282 0.96512 0.47414 0.0
O336 O 0.55435 1.00388 0.43214 0.0
O337 O 0.52961 0.0252 0.4651 0.0
O338 O 0.48304 0.99091 0.47833 0.0
O339 O 0.42867 0.04596 0.47368 0.0
O340 O 0.46648 0.07344 0.48171 0.0
O341 O 0.44894 1.00638 0.50153 0.0
O342 O 0.49944 0.99063 0.54854 0.0
O343 O 0.47683 0.01363 0.58214 0.0
O344 O 0.44723 0.05095 0.54054 0.0
O345 O 0.48059 0.07363 0.57393 0.0
C346 C 0.58574 0.94696 0.5451 0.0
C347 C 0.57039 0.02708 0.52717 0.0
C348 C 0.5443 0.02339 0.43925 0.0
C349 C 0.57467 0.94633 0.45225 0.0
C350 C 0.44151 0.06814 0.4696 0.0
C351 C 0.45904 0.98823 0.48846 0.0
C352 C 0.48562 0.99348 0.57501 0.0
C353 C 0.45593 0.07042 0.561 0.0
O354 O 0.59891 0.96912 0.54211 0.0
O355 O 0.56133 0.94173 0.53101 0.0
O356 O 0.54592 0.02521 0.53532 0.0
O357 O 0.58003 0.00883 0.51374 0.0
C358 C 0.1849 0.20506 0.30955 0.0
C359 C 0.20951 0.19962 0.29768 0.0
C360 C 0.16697 0.18684 0.32498 0.0
C361 C 0.1613 0.13096 0.37557 0.0
H362 H 0.08863 0.11657 0.33497 0.0
C363 C 0.08025 0.05622 0.43318 0.0
C364 C 0.05318 0.06004 0.42964 0.0
C365 C 0.10046 0.07164 0.41637 0.0
C366 C 0.1086 0.12055 0.34735 0.0
H367 H 0.23475 0.17073 0.29368 0.0
H368 H 0.20373 0.13911 0.32185 0.0
H369 H 0.12122 0.14697 0.30872 0.0
H370 H 0.02662 0.08397 0.40668 0.0
H371 H 0.06116 0.11098 0.37948 0.0
H372 H 0.14851 0.10552 0.41528 0.0
C373 C 0.19823 0.15745 0.31859 0.0
C374 C 0.12741 0.13792 0.33189 0.0
C375 C 0.2159 0.17553 0.30228 0.0
C376 C 0.04706 0.07992 0.4095 0.0
C377 C 0.06711 0.0955 0.39346 0.0
C378 C 0.14225 0.11393 0.39164 0.0
C379 C 0.17343 0.16284 0.32984 0.0
C380 C 0.15394 0.1435 0.34588 0.0
C381 C 0.09421 0.0916 0.39611 0.0
C382 C 0.11539 0.10861 0.37806 0.0
H383 H 0.17926 0.22336 0.30642 0.0
H384 H 0.14805 0.19158 0.33344 0.0
H385 H 0.18161 0.13491 0.38702 0.0
H386 H 0.08578 0.0412 0.4486 0.0
H387 H 0.12091 0.06769 0.41905 0.0
C388 C 0.80377 0.19846 0.30151 0.0
C389 C 0.81681 0.22222 0.29414 0.0
C390 C 0.81707 0.18227 0.32176 0.0
C391 C 0.88668 0.17293 0.35462 0.0
H392 H 0.84764 0.12421 0.4123 0.0
C393 C 0.94156 0.11029 0.44609 0.0
C394 C 0.93126 0.08483 0.44422 0.0
C395 C 0.9271 0.1278 0.43054 0.0
C396 C 0.85887 0.13766 0.39623 0.0
H397 H 0.85365 0.24791 0.30348 0.0
H398 H 0.87635 0.2204 0.33944 0.0
H399 H 0.82346 0.15292 0.38014 0.0
H400 H 0.89696 0.05815 0.42583 0.0
H401 H 0.87172 0.08854 0.39953 0.0
H402 H 0.92211 0.15777 0.37115 0.0
C403 C 0.85625 0.21364 0.32878 0.0
C404 C 0.84494 0.15412 0.37752 0.0
C405 C 0.8431 0.22963 0.30829 0.0
C406 C 0.90563 0.07756 0.42774 0.0
C407 C 0.89104 0.09505 0.41272 0.0
C408 C 0.90062 0.15667 0.37364 0.0
C409 C 0.8437 0.1895 0.33551 0.0
C410 C 0.85855 0.17201 0.35617 0.0
C411 C 0.90174 0.12039 0.41326 0.0
C412 C 0.88694 0.13866 0.39457 0.0
H413 H 0.78352 0.19216 0.29096 0.0
H414 H 0.80662 0.16385 0.32584 0.0
H415 H 0.89805 0.18588 0.33805 0.0
H416 H 0.96122 0.11661 0.4585 0.0
H417 H 0.93588 0.14718 0.43183 0.0
C418 C 0.85476 0.79892 0.31915 0.0
C419 C 0.83456 0.80516 0.29598 0.0
C420 C 0.87597 0.81692 0.33114 0.0
C421 C 0.88936 0.88333 0.3487 0.0
H422 H 0.96235 0.87074 0.36901 0.0
C423 C 0.9682 0.95506 0.42245 0.0
C424 C 0.98299 0.94559 0.44962 0.0
C425 C 0.95256 0.93901 0.3983 0.0
C426 C 0.94202 0.87446 0.36349 0.0
H427 H 0.82165 0.83479 0.26547 0.0
H428 H 0.85874 0.86612 0.28647 0.0
H429 H 0.9309 0.84021 0.33445 0.0
H430 H 0.99313 0.91195 0.4727 0.0
H431 H 0.96537 0.88395 0.43088 0.0
H432 H 0.90006 0.91709 0.37868 0.0
C433 C 0.85791 0.8474 0.29568 0.0
C434 C 0.9241 0.85706 0.34372 0.0
C435 C 0.8367 0.82943 0.28368 0.0
C436 C 0.98195 0.9198 0.45206 0.0
C437 C 0.96629 0.90377 0.42791 0.0
C438 C 0.90724 0.90068 0.36847 0.0
C439 C 0.87736 0.84144 0.32015 0.0
C440 C 0.89745 0.86112 0.33681 0.0
C441 C 0.95138 0.91323 0.40089 0.0
C442 C 0.93354 0.89615 0.3767 0.0
H443 H 0.8538 0.78037 0.32897 0.0
H444 H 0.89057 0.81187 0.35028 0.0
H445 H 0.86881 0.88676 0.34421 0.0
H446 H 0.96871 0.97486 0.41976 0.0
H447 H 0.9414 0.94678 0.37755 0.0
C448 C 0.1952 0.80556 0.29542 0.0
C449 C 0.21952 0.79858 0.30821 0.0
C450 C 0.18172 0.82148 0.31496 0.0
C451 C 0.17949 0.85153 0.40399 0.0
H452 H 0.139 0.89493 0.35164 0.0
C453 C 0.127 0.93144 0.46588 0.0
C454 C 0.09962 0.92979 0.45523 0.0
C455 C 0.14366 0.91645 0.44943 0.0
C456 C 0.15024 0.88296 0.36669 0.0
H457 H 0.24859 0.80254 0.35204 0.0
H458 H 0.22562 0.83102 0.38583 0.0
H459 H 0.16371 0.86676 0.32088 0.0
H460 H 0.06856 0.91149 0.41857 0.0
H461 H 0.09756 0.88631 0.38946 0.0
H462 H 0.16619 0.86857 0.44991 0.0
C463 C 0.21647 0.82379 0.36095 0.0
C464 C 0.16426 0.86649 0.34902 0.0
C465 C 0.22975 0.80743 0.34154 0.0
C466 C 0.08953 0.91327 0.42746 0.0
C467 C 0.10618 0.89884 0.41065 0.0
C468 C 0.16574 0.86839 0.42173 0.0
C469 C 0.19241 0.83145 0.34772 0.0
C470 C 0.17869 0.85004 0.36724 0.0
C471 C 0.13341 0.90004 0.42147 0.0
C472 C 0.15053 0.88399 0.40324 0.0
H473 H 0.18669 0.7989 0.26995 0.0
H474 H 0.16288 0.82604 0.30407 0.0
H475 H 0.19008 0.8392 0.41921 0.0
H476 H 0.1353 0.94379 0.48741 0.0
H477 H 0.16459 0.91782 0.45834 0.0
C478 C 0.21889 0.80178 0.68915 0.0
C479 C 0.21081 0.79594 0.72286 0.0
C480 C 0.20575 0.81814 0.66889 0.0
C481 C 0.16367 0.86861 0.67845 0.0
H482 H 0.14443 0.85682 0.58008 0.0
C483 C 0.12005 0.94276 0.59867 0.0
C484 C 0.09749 0.93522 0.57579 0.0
C485 C 0.13494 0.92546 0.61336 0.0
C486 C 0.14956 0.86034 0.60757 0.0
H487 H 0.18225 0.80239 0.76129 0.0
H488 H 0.15969 0.83063 0.72653 0.0
H489 H 0.1684 0.82739 0.61194 0.0
H490 H 0.07396 0.90321 0.54917 0.0
H491 H 0.10007 0.8728 0.57505 0.0
H492 H 0.14472 0.9012 0.67458 0.0
C493 C 0.17631 0.82298 0.71563 0.0
C494 C 0.16357 0.84358 0.62578 0.0
C495 C 0.18922 0.80662 0.73559 0.0
C496 C 0.09107 0.90976 0.5668 0.0
C497 C 0.10613 0.89231 0.58158 0.0
C498 C 0.14994 0.88535 0.66032 0.0
C499 C 0.18439 0.82917 0.68204 0.0
C500 C 0.17064 0.84739 0.66162 0.0
C501 C 0.12792 0.8999 0.60578 0.0
C502 C 0.1426 0.88155 0.6246 0.0
H503 H 0.23511 0.79354 0.67832 0.0
H504 H 0.21259 0.82246 0.64317 0.0
H505 H 0.16894 0.87241 0.70587 0.0
H506 H 0.12601 0.96217 0.60598 0.0
H507 H 0.15192 0.93219 0.63112 0.0
C508 C 0.16891 0.22414 0.71201 0.0
C509 C 0.19126 0.21552 0.72818 0.0
C510 C 0.14683 0.2074 0.69928 0.0
C511 C 0.11524 0.14152 0.6959 0.0
H512 H 0.09917 0.15558 0.59944 0.0
C513 C 0.06263 0.0679 0.59453 0.0
C514 C 0.04459 0.07578 0.56966 0.0
C515 C 0.07758 0.08503 0.61811 0.0
C516 C 0.10298 0.15154 0.6265 0.0
H517 H 0.20708 0.18283 0.74641 0.0
H518 H 0.16871 0.15357 0.72344 0.0
H519 H 0.12902 0.1858 0.63541 0.0
H520 H 0.02742 0.10762 0.55071 0.0
H521 H 0.05294 0.1372 0.59213 0.0
H522 H 0.08947 0.10686 0.68643 0.0
C523 C 0.16816 0.17325 0.72089 0.0
C524 C 0.12006 0.16891 0.64717 0.0
C525 C 0.19021 0.19002 0.73386 0.0
C526 C 0.04133 0.10095 0.56931 0.0
C527 C 0.05603 0.11795 0.59301 0.0
C528 C 0.09798 0.12408 0.67515 0.0
C529 C 0.1468 0.18175 0.70223 0.0
C530 C 0.12654 0.16404 0.68197 0.0
C531 C 0.0746 0.11028 0.61729 0.0
C532 C 0.09186 0.12889 0.64016 0.0
H533 H 0.1689 0.24373 0.70785 0.0
H534 H 0.13032 0.21447 0.68565 0.0
H535 H 0.11989 0.13735 0.7227 0.0
H536 H 0.06552 0.04861 0.59544 0.0
H537 H 0.09198 0.07863 0.6363 0.0
C538 C 0.7864 0.18175 0.70733 0.0
C539 C 0.79719 0.20549 0.7209 0.0
C540 C 0.80147 0.16809 0.68647 0.0
C541 C 0.86194 0.17357 0.63294 0.0
H542 H 0.8567 0.10275 0.64649 0.0
C543 C 0.93761 0.11523 0.57528 0.0
C544 C 0.92885 0.09062 0.56327 0.0
C545 C 0.92047 0.12897 0.59249 0.0
C546 C 0.85816 0.12242 0.64189 0.0
H547 H 0.83267 0.23325 0.72362 0.0
H548 H 0.85903 0.20963 0.68679 0.0
H549 H 0.82965 0.12737 0.68021 0.0
H550 H 0.89465 0.0614 0.55984 0.0
H551 H 0.86444 0.08552 0.58978 0.0
H552 H 0.89052 0.16865 0.59474 0.0
C553 C 0.83862 0.20168 0.69178 0.0
C554 C 0.84261 0.13663 0.66136 0.0
C555 C 0.82346 0.21537 0.71278 0.0
C556 C 0.90214 0.08024 0.56872 0.0
C557 C 0.88488 0.09408 0.58611 0.0
C558 C 0.87745 0.15936 0.61344 0.0
C559 C 0.82794 0.17768 0.67859 0.0
C560 C 0.84434 0.16248 0.65735 0.0
C561 C 0.89384 0.11868 0.59835 0.0
C562 C 0.876 0.13356 0.61778 0.0
H563 H 0.76618 0.17361 0.71301 0.0
H564 H 0.79226 0.14996 0.67642 0.0
H565 H 0.86355 0.19327 0.62856 0.0
H566 H 0.95801 0.12399 0.57177 0.0
H567 H 0.92843 0.14759 0.60191 0.0
C568 C 0.82432 0.81301 0.67726 0.0
C569 C 0.81837 0.81553 0.71241 0.0
C570 C 0.84193 0.83137 0.66148 0.0
C571 C 0.87899 0.89702 0.67652 0.0
H572 H 0.91816 0.87868 0.59787 0.0
C573 C 0.97418 0.95688 0.62384 0.0
C574 C 0.97347 0.96102 0.58784 0.0
C575 C 0.95375 0.94065 0.63857 0.0
C576 C 0.90722 0.88413 0.61968 0.0
H577 H 0.82687 0.83929 0.75866 0.0
H578 H 0.85862 0.87038 0.7322 0.0
H579 H 0.88693 0.84725 0.62467 0.0
H580 H 0.95058 0.95115 0.53914 0.0
H581 H 0.91536 0.92216 0.56476 0.0
H582 H 0.90084 0.93373 0.67233 0.0
C583 C 0.84892 0.85487 0.71595 0.0
C584 C 0.88901 0.86608 0.63509 0.0
C585 C 0.83075 0.83682 0.73143 0.0
C586 C 0.95158 0.9487 0.56701 0.0
C587 C 0.93153 0.93192 0.58162 0.0
C588 C 0.89774 0.9149 0.66163 0.0
C589 C 0.85484 0.85263 0.68056 0.0
C590 C 0.87441 0.87212 0.66383 0.0
C591 C 0.93247 0.92755 0.61756 0.0
C592 C 0.91202 0.90871 0.63295 0.0
H593 H 0.81495 0.79699 0.66167 0.0
H594 H 0.84506 0.82885 0.63409 0.0
H595 H 0.86796 0.90299 0.69786 0.0
H596 H 0.99081 0.96592 0.6406 0.0
H597 H 0.95512 0.93763 0.66628 0.0
C598 C 0.32157 0.19291 0.14186 0.0
C599 C 0.296 0.18637 0.15478 0.0
C600 C 0.32947 0.17968 0.1137 0.0
C601 C 0.32113 0.11921 0.07297 0.0
H602 H 0.36191 0.15416 1.00143 0.0
C603 C 0.39458 0.07129 0.99711 0.0
C604 C 0.42056 0.08481 1.00181 0.0
C605 C 0.37201 0.08277 1.00287 0.0
C606 C 0.35025 0.14409 0.02091 0.0
H607 H 0.25868 0.16084 0.149 0.0
H608 H 0.27304 0.13694 0.10016 0.0
H609 H 0.33527 0.17664 0.03915 0.0
H610 H 0.44322 0.12131 0.01343 0.0
H611 H 0.40412 0.14117 0.02379 0.0
H612 H 0.33785 0.08717 0.05689 0.0
C613 C 0.28667 0.15259 0.11156 0.0
C614 C 0.33507 0.15692 0.04243 0.0
C615 C 0.27859 0.1661 0.13952 0.0
C616 C 0.42349 0.1103 0.0101 0.0
C617 C 0.401 0.12178 0.01552 0.0
C618 C 0.33649 0.1064 0.05163 0.0
C619 C 0.31207 0.1595 0.09818 0.0
C620 C 0.32164 0.14486 0.06985 0.0
C621 C 0.3751 0.10797 0.01309 0.0
C622 C 0.35246 0.11911 0.02683 0.0
H623 H 0.33529 0.20856 0.15308 0.0
H624 H 0.34942 0.18501 0.10436 0.0
H625 H 0.31089 0.10951 0.09391 0.0
H626 H 0.3917 0.05167 0.99016 0.0
H627 H 0.35224 0.07176 1.00057 0.0
C628 C 0.84187 0.3087 0.1394 0.0
C629 C 0.81651 0.31164 0.15117 0.0
C630 C 0.85848 0.32902 0.12692 0.0
C631 C 0.87983 0.37899 0.08849 0.0
H632 H 0.90547 0.4231 0.16774 0.0
C633 C 0.95082 0.46924 0.07387 0.0
C634 C 0.97641 0.46757 0.08936 0.0
C635 C 0.92837 0.45318 0.08309 0.0
C636 C 0.89823 0.41103 0.14547 0.0
H637 H 0.78761 0.33731 0.15667 0.0
H638 H 0.81707 0.37291 0.13573 0.0
H639 H 0.87044 0.38746 0.17499 0.0
H640 H 0.99786 0.44981 0.1296 0.0
H641 H 0.95811 0.42218 0.14647 0.0
H642 H 0.9076 0.40251 0.05893 0.0
C643 C 0.82389 0.35493 0.13592 0.0
C644 C 0.87831 0.39083 0.14952 0.0
C645 C 0.80712 0.33458 0.14774 0.0
C646 C 0.9785 0.45144 0.11703 0.0
C647 C 0.95583 0.43564 0.12667 0.0
C648 C 0.89933 0.39949 0.08425 0.0
C649 C 0.84993 0.3524 0.12659 0.0
C650 C 0.8693 0.37459 0.12116 0.0
C651 C 0.93098 0.43566 0.10853 0.0
C652 C 0.90884 0.41543 0.11282 0.0
H653 H 0.84949 0.29118 0.1419 0.0
H654 H 0.87864 0.32688 0.11986 0.0
H655 H 0.87313 0.36649 0.06647 0.0
H656 H 0.94834 0.48155 0.05265 0.0
H657 H 0.90923 0.45354 0.06908 0.0
C658 C 0.74078 0.83166 0.14882 0.0
C659 C 0.72581 0.81833 0.17397 0.0
C660 C 0.72792 0.84507 0.12425 0.0
C661 C 0.69532 0.8853 0.09719 0.0
H662 H 0.62087 0.85861 0.0743 0.0
C663 C 0.61533 0.94861 0.10148 0.0
C664 C 0.58951 0.94103 0.08636 0.0
C665 C 0.63501 0.93307 0.09938 0.0
C666 C 0.64163 0.86674 0.07915 0.0
H667 H 0.68619 0.80862 0.19384 0.0
H668 H 0.66399 0.83224 0.15203 0.0
H669 H 0.6521 0.83103 0.0895 0.0
H670 H 0.56359 0.911 0.05836 0.0
H671 H 0.59783 0.88515 0.05199 0.0
H672 H 0.68517 0.92101 0.08572 0.0
C673 C 0.68537 0.83191 0.15026 0.0
C674 C 0.6596 0.85065 0.08826 0.0
C675 C 0.69812 0.81867 0.17458 0.0
C676 C 0.58343 0.91743 0.07016 0.0
C677 C 0.60324 0.90238 0.06682 0.0
C678 C 0.67753 0.90144 0.0866 0.0
C679 C 0.70002 0.84502 0.12461 0.0
C680 C 0.68577 0.86006 0.10078 0.0
C681 C 0.62943 0.90987 0.08135 0.0
C682 C 0.64987 0.8926 0.08081 0.0
H683 H 0.76225 0.8315 0.14795 0.0
H684 H 0.73965 0.85528 0.10498 0.0
H685 H 0.71571 0.89296 0.10579 0.0
H686 H 0.62052 0.96672 0.11426 0.0
H687 H 0.65444 0.93934 0.11232 0.0
C688 C 0.19945 0.72251 0.17107 0.0
C689 C 0.20302 0.71719 0.20637 0.0
C690 C 0.18017 0.70756 0.14959 0.0
C691 C 0.12076 0.65837 0.1527 0.0
H692 H 0.1398 0.64138 0.05946 0.0
C693 C 0.06902 0.57233 0.07549 0.0
C694 C 0.05627 0.57733 0.04374 0.0
C695 C 0.08722 0.59071 0.09301 0.0
C696 C 0.13427 0.64617 0.08537 0.0
H697 H 0.18916 0.69224 0.24701 0.0
H698 H 0.15637 0.66578 0.20955 0.0
H699 H 0.17019 0.67203 0.09533 0.0
H700 H 0.05372 0.6048 1.00425 0.0
H701 H 0.08632 0.63685 0.03477 0.0
H702 H 0.08549 0.63156 0.14316 0.0
C703 C 0.16775 0.68185 0.19846 0.0
C704 C 0.15148 0.6638 0.10584 0.0
C705 C 0.18671 0.69696 0.21996 0.0
C706 C 0.06311 0.60058 0.02889 0.0
C707 C 0.08175 0.61883 0.04616 0.0
C708 C 0.10388 0.64048 0.13251 0.0
C709 C 0.16435 0.68684 0.16295 0.0
C710 C 0.14509 0.66983 0.13996 0.0
C711 C 0.09335 0.61417 0.07874 0.0
C712 C 0.11069 0.63404 0.09894 0.0
H713 H 0.21167 0.73811 0.15996 0.0
H714 H 0.17777 0.71217 0.12251 0.0
H715 H 0.11486 0.66301 0.17848 0.0
H716 H 0.06414 0.55457 0.08751 0.0
H717 H 0.0962 0.58676 0.11804 0.0
C718 C 0.30604 0.81871 0.85194 0.0
C719 C 0.31067 0.81425 0.81671 0.0
C720 C 0.32436 0.83541 0.87257 0.0
C721 C 0.39537 0.85846 0.88029 0.0
H722 H 0.37799 0.91441 0.93454 0.0
C723 C 0.47382 0.91751 0.97243 0.0
C724 C 0.47692 0.94309 0.96645 0.0
C725 C 0.45162 0.90173 0.95772 0.0
C726 C 0.38301 0.89877 0.91959 0.0
H727 H 0.3377 0.82456 0.77529 0.0
H728 H 0.36961 0.85318 0.81141 0.0
H729 H 0.34203 0.88713 0.90112 0.0
H730 H 0.45859 0.97234 0.94167 0.0
H731 H 0.41966 0.94462 0.91613 0.0
H732 H 0.43622 0.86995 0.89838 0.0
C733 C 0.35185 0.84377 0.82298 0.0
C734 C 0.36251 0.88318 0.9007 0.0
C735 C 0.33346 0.82744 0.80231 0.0
C736 C 0.4569 0.95266 0.94645 0.0
C737 C 0.4345 0.93689 0.93211 0.0
C738 C 0.41571 0.87374 0.89952 0.0
C739 C 0.34772 0.84757 0.85836 0.0
C740 C 0.36867 0.86317 0.88046 0.0
C741 C 0.43192 0.91123 0.93716 0.0
C742 C 0.4098 0.89422 0.91896 0.0
H743 H 0.28862 0.80892 0.86377 0.0
H744 H 0.32082 0.8381 0.89986 0.0
H745 H 0.40052 0.84301 0.86504 0.0
H746 H 0.4888 0.9096 0.98791 0.0
H747 H 0.44996 0.882 0.96217 0.0
C748 C 0.2276 0.30879 0.84243 0.0
C749 C 0.22776 0.30366 0.80643 0.0
C750 C 0.21313 0.32665 0.85559 0.0
C751 C 0.15491 0.35882 0.83675 0.0
H752 H 0.18455 0.39955 0.91742 0.0
C753 C 0.0875 0.40445 0.92959 0.0
C754 C 0.09664 0.42822 0.94452 0.0
C755 C 0.10427 0.39185 0.90981 0.0
C756 C 0.17596 0.38859 0.89469 0.0
H757 H 0.2127 0.31354 0.75584 0.0
H758 H 0.18673 0.34496 0.77903 0.0
H759 H 0.2127 0.37401 0.88715 0.0
H760 H 0.131 0.45723 0.9501 0.0
H761 H 0.16044 0.43517 0.91565 0.0
H762 H 0.11805 0.37323 0.84458 0.0
C763 C 0.19812 0.33501 0.79704 0.0
C764 C 0.19209 0.37371 0.87743 0.0
C765 C 0.21307 0.31714 0.78369 0.0
C766 C 0.12324 0.43897 0.93914 0.0
C767 C 0.14016 0.42624 0.91941 0.0
C768 C 0.1387 0.37362 0.85416 0.0
C769 C 0.19801 0.34 0.83328 0.0
C770 C 0.18169 0.3582 0.84862 0.0
C771 C 0.13087 0.40249 0.90431 0.0
C772 C 0.14883 0.3884 0.88382 0.0
H773 H 0.23863 0.29877 0.86079 0.0
H774 H 0.21326 0.32951 0.88356 0.0
H775 H 0.14612 0.3471 0.81482 0.0
H776 H 0.06721 0.39543 0.9331 0.0
H777 H 0.09644 0.37347 0.89931 0.0
C778 C 0.7288 0.19491 0.89222 0.0
C779 C 0.71508 0.21003 0.87092 0.0
C780 C 0.71447 0.17745 0.91289 0.0
C781 C 0.6454 0.15408 0.94057 0.0
H782 H 0.66558 0.08957 0.91843 0.0
C783 C 0.57001 0.06738 0.91127 0.0
C784 C 0.5695 0.04964 0.9372 0.0
C785 C 0.59176 0.08629 0.91032 0.0
C786 C 0.66004 0.10748 0.92534 0.0
H787 H 0.67626 0.22074 0.85692 0.0
H788 H 0.65118 0.1901 0.89224 0.0
H789 H 0.69695 0.1271 0.90899 0.0
H790 H 0.59242 0.03645 0.98042 0.0
H791 H 0.63089 0.06937 0.97783 0.0
H792 H 0.60754 0.13421 0.95405 0.0
C793 C 0.67291 0.19167 0.89351 0.0
C794 C 0.67799 0.12899 0.92026 0.0
C795 C 0.68724 0.20915 0.873 0.0
C796 C 0.59224 0.04989 0.96014 0.0
C797 C 0.61415 0.0687 0.95887 0.0
C798 C 0.62737 0.1326 0.94517 0.0
C799 C 0.68624 0.17485 0.91241 0.0
C800 C 0.67038 0.15254 0.9264 0.0
C801 C 0.61346 0.08747 0.93483 0.0
C802 C 0.63427 0.10932 0.93633 0.0
H803 H 0.75037 0.19549 0.89128 0.0
H804 H 0.72533 0.16506 0.92769 0.0
H805 H 0.63917 0.17191 0.94618 0.0
H806 H 0.55282 0.06781 0.89336 0.0
H807 H 0.59117 0.10062 0.89136 0.0
C808 C 0.82974 0.73453 0.85043 0.0
C809 C 0.81339 0.73011 0.81968 0.0
C810 C 0.84433 0.71646 0.8634 0.0
C811 C 0.86846 0.65637 0.84102 0.0
H812 H 0.87625 0.65292 0.94153 0.0
C813 C 0.91133 0.57545 0.90955 0.0
C814 C 0.93011 0.5816 0.93788 0.0
C815 C 0.89707 0.5933 0.89498 0.0
C816 C 0.87452 0.65375 0.91342 0.0
H817 H 0.79981 0.70323 0.77799 0.0
H818 H 0.82487 0.67115 0.801 0.0
H819 H 0.85148 0.68372 0.91577 0.0
H820 H 0.94797 0.61151 0.97351 0.0
H821 H 0.92275 0.64263 0.94838 0.0
H822 H 0.89109 0.62588 0.83897 0.0
C823 C 0.82685 0.68888 0.8149 0.0
C824 C 0.86033 0.67154 0.8985 0.0
C825 C 0.8124 0.70724 0.80163 0.0
C826 C 0.93374 0.60607 0.95173 0.0
C827 C 0.91919 0.62391 0.93735 0.0
C828 C 0.88245 0.63838 0.856 0.0
C829 C 0.84274 0.69309 0.84637 0.0
C830 C 0.85725 0.67336 0.86203 0.0
C831 C 0.90088 0.61783 0.90849 0.0
C832 C 0.88582 0.63692 0.89244 0.0
H833 H 0.8311 0.75204 0.86482 0.0
H834 H 0.85685 0.7209 0.88701 0.0
H835 H 0.86692 0.65723 0.81292 0.0
H836 H 0.90792 0.55685 0.89808 0.0
H837 H 0.88289 0.58782 0.87315 0.0
C838 C 0.20059 0.27963 0.15739 0.0
C839 C 0.21592 0.28393 0.18899 0.0
C840 C 0.18587 0.29755 0.14401 0.0
C841 C 0.15964 0.35679 0.16691 0.0
H842 H 0.15319 0.36153 0.0665 0.0
C843 C 0.11727 0.43861 0.10005 0.0
C844 C 0.09901 0.43301 0.07105 0.0
C845 C 0.13138 0.4205 0.11429 0.0
C846 C 0.15453 0.36034 0.09458 0.0
H847 H 0.22773 0.31057 0.23148 0.0
H848 H 0.2025 0.34225 0.20793 0.0
H849 H 0.17795 0.33062 0.09205 0.0
H850 H 0.08198 0.40379 0.03389 0.0
H851 H 0.10693 0.37224 0.05845 0.0
H852 H 0.13668 0.38703 0.16919 0.0
C853 C 0.20131 0.32473 0.19365 0.0
C854 C 0.16873 0.34246 0.10939 0.0
C855 C 0.21587 0.30657 0.20726 0.0
C856 C 0.0958 0.40883 0.05621 0.0
C857 C 0.1102 0.39073 0.07027 0.0
C858 C 0.14567 0.37486 0.15206 0.0
C859 C 0.18628 0.32063 0.16151 0.0
C860 C 0.17143 0.34022 0.14584 0.0
C861 C 0.12796 0.39623 0.09981 0.0
C862 C 0.14282 0.37686 0.11565 0.0
H863 H 0.20009 0.26233 0.14273 0.0
H864 H 0.17411 0.29316 0.11979 0.0
H865 H 0.16077 0.3556 0.19497 0.0
H866 H 0.1204 0.45697 0.11231 0.0
H867 H 0.14514 0.42561 0.13664 0.0
C868 C 0.22615 0.67704 0.86112 0.0
C869 C 0.21756 0.70035 0.859 0.0
C870 C 0.20966 0.65717 0.87478 0.0
C871 C 0.14543 0.6399 0.91894 0.0
H872 H 0.13947 0.5808 0.85891 0.0
C873 C 0.04968 0.57015 0.90001 0.0
C874 C 0.05185 0.54873 0.91899 0.0
C875 C 0.07274 0.58598 0.89202 0.0
C876 C 0.14119 0.59713 0.87596 0.0
H877 H 0.18627 0.72195 0.87183 0.0
H878 H 0.15708 0.68724 0.89486 0.0
H879 H 0.17601 0.61485 0.85201 0.0
H880 H 0.07982 0.52564 0.94086 0.0
H881 H 0.12021 0.55327 0.92586 0.0
H882 H 0.10954 0.62249 0.94136 0.0
C883 C 0.17665 0.68418 0.88659 0.0
C884 C 0.16218 0.61654 0.87236 0.0
C885 C 0.19333 0.70412 0.87333 0.0
C886 C 0.07752 0.5421 0.92642 0.0
C887 C 0.1006 0.55784 0.91796 0.0
C888 C 0.12428 0.62065 0.92215 0.0
C889 C 0.18415 0.66025 0.88609 0.0
C890 C 0.16423 0.63836 0.89337 0.0
C891 C 0.09822 0.58036 0.9022 0.0
C892 C 0.12181 0.59943 0.90026 0.0
H893 H 0.24495 0.67381 0.85044 0.0
H894 H 0.21635 0.63915 0.8749 0.0
H895 H 0.14667 0.6562 0.93593 0.0
H896 H 0.03027 0.57582 0.8939 0.0
H897 H 0.07069 0.60331 0.87964 0.0
C898 C 0.29595 0.17637 0.84158 0.0
C899 C 0.30124 0.20222 0.84634 0.0
C900 C 0.30918 0.1613 0.86311 0.0
C901 C 0.37518 0.16591 0.89959 0.0
H902 H 0.35299 0.09899 0.92959 0.0
C903 C 0.45208 0.09992 0.92547 0.0
C904 C 0.44423 0.07488 0.91555 0.0
C905 C 0.4333 0.11626 0.92533 0.0
C906 C 0.35945 0.11761 0.92111 0.0
H907 H 0.32189 0.23266 0.87918 0.0
H908 H 0.34541 0.20626 0.91646 0.0
H909 H 0.31922 0.12648 0.91916 0.0
H910 H 0.41108 0.04748 0.89575 0.0
H911 H 0.37841 0.07645 0.89341 0.0
H912 H 0.41478 0.15685 0.89836 0.0
C913 C 0.33117 0.19769 0.89615 0.0
C914 C 0.3402 0.13336 0.91564 0.0
C915 C 0.31794 0.21274 0.87468 0.0
C916 C 0.41763 0.06674 0.90344 0.0
C917 C 0.39883 0.08321 0.90286 0.0
C918 C 0.39425 0.15013 0.90442 0.0
C919 C 0.32786 0.17199 0.88945 0.0
C920 C 0.34789 0.15735 0.90377 0.0
C921 C 0.40636 0.10803 0.91454 0.0
C922 C 0.3865 0.12555 0.9141 0.0
H923 H 0.28281 0.16792 0.8201 0.0
H924 H 0.30651 0.14151 0.85726 0.0
H925 H 0.38156 0.18421 0.88986 0.0
H926 H 0.47252 0.10665 0.93498 0.0
H927 H 0.43978 0.13514 0.93483 0.0
C928 C 0.82734 0.32692 0.81817 0.0
C929 C 0.81588 0.30322 0.828 0.0
C930 C 0.84229 0.34335 0.84248 0.0
C931 C 0.88584 0.3461 0.9192 0.0
H932 H 0.87283 0.41442 0.92725 0.0
C933 C 0.96223 0.41932 0.99365 0.0
C934 C 0.96867 0.44142 0.9758 0.0
C935 C 0.93921 0.40268 0.98355 0.0
C936 C 0.87678 0.39543 0.92526 0.0
H937 H 0.81127 0.278 0.87083 0.0
H938 H 0.83837 0.30667 0.9132 0.0
H939 H 0.84103 0.38411 0.89297 0.0
H940 H 0.95544 0.46413 0.93475 0.0
H941 H 0.91605 0.43483 0.91622 0.0
H942 H 0.92246 0.35754 0.94931 0.0
C943 C 0.83532 0.3125 0.88676 0.0
C944 C 0.85853 0.37812 0.9058 0.0
C945 C 0.81989 0.29617 0.86256 0.0
C946 C 0.95104 0.44717 0.94889 0.0
C947 C 0.92827 0.43043 0.93849 0.0
C948 C 0.90435 0.36349 0.93824 0.0
C949 C 0.84643 0.33627 0.87691 0.0
C950 C 0.86334 0.35351 0.90182 0.0
C951 C 0.92239 0.40771 0.95516 0.0
C952 C 0.90046 0.38854 0.94055 0.0
H953 H 0.82439 0.33295 0.79181 0.0
H954 H 0.85099 0.36152 0.83423 0.0
H955 H 0.88998 0.32721 0.91631 0.0
H956 H 0.97519 0.41468 0.01504 0.0
H957 H 0.93494 0.38562 0.99745 0.0
C958 C 0.75431 0.85144 0.87042 0.0
C959 C 0.73629 0.83101 0.85671 0.0
C960 C 0.74661 0.86665 0.89679 0.0
C961 C 0.69803 0.86706 0.96499 0.0
H962 H 0.69548 0.93577 0.94285 0.0
C963 C 0.60852 0.91433 0.98498 0.0
C964 C 0.611 0.93908 0.99715 0.0
C965 C 0.63128 0.90327 0.97982 0.0
C966 C 0.69684 0.9169 0.95016 0.0
H967 H 0.69636 0.81027 0.8595 0.0
H968 H 0.68293 0.83669 0.90552 0.0
H969 H 0.72304 0.91141 0.90926 0.0
H970 H 0.6393 0.97165 0.01374 0.0
H971 H 0.67946 0.95234 1.00298 0.0
H972 H 0.67019 0.87198 1.00406 0.0
C973 C 0.70303 0.84087 0.8962 0.0
C974 C 0.71252 0.90295 0.93088 0.0
C975 C 0.71056 0.82596 0.8696 0.0
C976 C 0.63681 0.95257 1.00415 0.0
C977 C 0.65973 0.94155 0.99831 0.0
C978 C 0.68247 0.88099 0.9843 0.0
C979 C 0.721 0.86125 0.91014 0.0
C980 C 0.7118 0.87755 0.93677 0.0
C981 C 0.65705 0.9168 0.98607 0.0
C982 C 0.6804 0.9055 0.97544 0.0
H983 H 0.77434 0.85559 0.86086 0.0
H984 H 0.76065 0.88243 0.90695 0.0
H985 H 0.69762 0.84758 0.97034 0.0
H986 H 0.58897 0.90339 0.97944 0.0
H987 H 0.62867 0.88431 0.96964 0.0
C988 C 0.81429 0.69947 0.22324 0.0
C989 C 0.80198 0.71577 0.20206 0.0
C990 C 0.82989 0.68264 0.20838 0.0
C991 C 0.86822 0.67504 0.12899 0.0
H992 H 0.86659 0.60637 0.15391 0.0
C993 C 0.94328 0.61576 0.07311 0.0
C994 C 0.9343 0.59085 0.06275 0.0
C995 C 0.92707 0.62965 0.09178 0.0
C996 C 0.86717 0.62548 0.14647 0.0
H997 H 0.79566 0.72634 0.14862 0.0
H998 H 0.82208 0.69749 0.12331 0.0
H999 H 0.8387 0.63273 0.18426 0.0
H1000 H 0.90083 0.56111 0.06454 0.0
H1001 H 0.87222 0.58556 0.09702 0.0
H1002 H 0.89607 0.66803 0.09096 0.0
C1003 C 0.82042 0.69778 0.15128 0.0
C1004 C 0.8514 0.64068 0.16421 0.0
C1005 C 0.80503 0.71433 0.16593 0.0
C1006 C 0.90845 0.58023 0.07192 0.0
C1007 C 0.89212 0.59422 0.09082 0.0
C1008 C 0.88395 0.65999 0.1115 0.0
C1009 C 0.83356 0.68194 0.17214 0.0
C1010 C 0.8515 0.66567 0.15545 0.0
C1011 C 0.90114 0.61926 0.10085 0.0
C1012 C 0.88373 0.63493 0.1198 0.0
H1013 H 0.81231 0.70005 0.25115 0.0
H1014 H 0.83968 0.67071 0.22532 0.0
H1015 H 0.8692 0.6942 0.12166 0.0
H1016 H 0.96307 0.6247 0.06687 0.0
H1017 H 0.93509 0.64863 0.09942 0.0
C1018 C 0.29558 0.84294 0.16862 0.0
C1019 C 0.30672 0.82104 0.17376 0.0
C1020 C 0.30952 0.86244 0.15104 0.0
C1021 C 0.35576 0.90445 0.14367 0.0
H1022 H 0.39416 0.89713 0.05984 0.0
C1023 C 0.45543 0.96327 0.11313 0.0
C1024 C 0.45932 0.97022 0.07862 0.0
C1025 C 0.43166 0.94863 0.12159 0.0
C1026 C 0.38319 0.89957 0.08295 0.0
H1027 H 0.34014 0.80153 0.16295 0.0
H1028 H 0.36453 0.83566 0.13171 0.0
H1029 H 0.36145 0.86271 0.07786 0.0
H1030 H 0.44077 0.96842 0.02623 0.0
H1031 H 0.39946 0.94252 0.04113 0.0
H1032 H 0.37848 0.94085 0.14971 0.0
C1033 C 0.34505 0.83773 0.14134 0.0
C1034 C 0.3647 0.87986 0.09334 0.0
C1035 C 0.33122 0.81829 0.1593 0.0
C1036 C 0.43839 0.96341 0.05312 0.0
C1037 C 0.41479 0.9485 0.06151 0.0
C1038 C 0.37451 0.92404 0.13353 0.0
C1039 C 0.33465 0.8602 0.13797 0.0
C1040 C 0.35128 0.88197 0.12417 0.0
C1041 C 0.41154 0.94049 0.09562 0.0
C1042 C 0.38879 0.92154 0.10351 0.0
H1043 H 0.27662 0.84543 0.17946 0.0
H1044 H 0.30106 0.87954 0.14853 0.0
H1045 H 0.3458 0.90644 0.16773 0.0
H1046 H 0.47114 0.96832 0.13332 0.0
H1047 H 0.42968 0.94251 0.14806 0.0
C1048 C 0.72261 0.20503 0.14756 0.0
C1049 C 0.72604 0.2001 0.18306 0.0
C1050 C 0.70582 0.18823 0.12528 0.0
C1051 C 0.67015 0.12378 0.11709 0.0
H1052 H 0.61533 0.15315 0.06539 0.0
C1053 C 0.56748 0.06837 0.07416 0.0
C1054 C 0.55446 0.07414 0.04297 0.0
C1055 C 0.59168 0.0825 0.08623 0.0
C1056 C 0.63076 0.14459 0.07901 0.0
H1057 H 0.71583 0.17307 0.2226 0.0
H1058 H 0.68671 0.14382 0.1838 0.0
H1059 H 0.65301 0.17986 0.09489 0.0
H1060 H 0.55728 0.09851 0.99905 0.0
H1061 H 0.59973 0.12295 0.01993 0.0
H1062 H 0.64763 0.0885 0.10182 0.0
C1063 C 0.69696 0.16062 0.17312 0.0
C1064 C 0.65238 0.15993 0.09594 0.0
C1065 C 0.71351 0.17748 0.19542 0.0
C1066 C 0.56653 0.09391 0.02359 0.0
C1067 C 0.59088 0.10791 0.03551 0.0
C1068 C 0.64862 0.10841 0.09999 0.0
C1069 C 0.69241 0.16608 0.13803 0.0
C1070 C 0.67191 0.14971 0.11591 0.0
C1071 C 0.60358 0.10257 0.06722 0.0
C1072 C 0.62826 0.11865 0.08155 0.0
H1073 H 0.73198 0.22232 0.13725 0.0
H1074 H 0.70283 0.19282 0.09827 0.0
H1075 H 0.68514 0.11538 0.13189 0.0
H1076 H 0.55874 0.05319 0.08959 0.0
H1077 H 0.60066 0.07808 0.11102 0.0
C1078 C 0.68564 0.71055 0.81969 0.0
C1079 C 0.70982 0.70486 0.80675 0.0
C1080 C 0.66726 0.69213 0.83413 0.0
C1081 C 0.66015 0.63348 0.87936 0.0
H1082 H 0.58709 0.62272 0.8397 0.0
C1083 C 0.57855 0.5561 0.93017 0.0
C1084 C 0.55149 0.56007 0.92758 0.0
C1085 C 0.59878 0.57244 0.91475 0.0
C1086 C 0.60716 0.62564 0.85188 0.0
H1087 H 0.73385 0.67527 0.79995 0.0
H1088 H 0.70217 0.64337 0.82635 0.0
H1089 H 0.62004 0.65424 0.81632 0.0
H1090 H 0.52501 0.5852 0.90777 0.0
H1091 H 0.55958 0.61373 0.88312 0.0
H1092 H 0.6472 0.60578 0.91605 0.0
C1093 C 0.6973 0.66205 0.82473 0.0
C1094 C 0.62619 0.64372 0.83805 0.0
C1095 C 0.71537 0.68032 0.80943 0.0
C1096 C 0.54543 0.58101 0.90975 0.0
C1097 C 0.56552 0.5975 0.89518 0.0
C1098 C 0.64091 0.61575 0.89387 0.0
C1099 C 0.67286 0.66764 0.83692 0.0
C1100 C 0.6529 0.64798 0.85164 0.0
C1101 C 0.59262 0.59353 0.89694 0.0
C1102 C 0.6139 0.61161 0.8806 0.0
H1103 H 0.68064 0.72918 0.81802 0.0
H1104 H 0.64866 0.69706 0.84336 0.0
H1105 H 0.6806 0.63634 0.89046 0.0
H1106 H 0.58405 0.54027 0.94382 0.0
H1107 H 0.61919 0.56832 0.91664 0.0
C1108 C 0.31541 0.71667 0.8202 0.0
C1109 C 0.31005 0.7111 0.78443 0.0
C1110 C 0.33003 0.7018 0.84095 0.0
C1111 C 0.37618 0.6536 0.83265 0.0
H1112 H 0.36416 0.64413 0.93057 0.0
C1113 C 0.41564 0.57535 0.90789 0.0
C1114 C 0.43053 0.58137 0.93966 0.0
C1115 C 0.40157 0.59253 0.89148 0.0
C1116 C 0.36794 0.64683 0.90334 0.0
H1117 H 0.31477 0.68492 0.74283 0.0
H1118 H 0.33903 0.65851 0.77885 0.0
H1119 H 0.33746 0.67039 0.89696 0.0
H1120 H 0.44145 0.61035 0.97948 0.0
H1121 H 0.41598 0.64044 0.95091 0.0
H1122 H 0.40587 0.62929 0.83879 0.0
C1123 C 0.33303 0.67484 0.79096 0.0
C1124 C 0.35264 0.66196 0.88394 0.0
C1125 C 0.31879 0.68986 0.77021 0.0
C1126 C 0.43032 0.60508 0.95501 0.0
C1127 C 0.41567 0.62227 0.93872 0.0
C1128 C 0.39109 0.63828 0.85184 0.0
C1129 C 0.33945 0.68078 0.82658 0.0
C1130 C 0.35627 0.66536 0.84808 0.0
C1131 C 0.40148 0.61626 0.90642 0.0
C1132 C 0.38701 0.63444 0.88732 0.0
H1133 H 0.30901 0.73296 0.83196 0.0
H1134 H 0.33457 0.70729 0.86805 0.0
H1135 H 0.38043 0.65621 0.80556 0.0
H1136 H 0.41523 0.55739 0.89503 0.0
H1137 H 0.39066 0.58717 0.86687 0.0
C1138 C 0.35523 0.30578 0.78561 0.0
C1139 C 0.33406 0.31344 0.76544 0.0
C1140 C 0.3759 0.32319 0.80053 0.0
C1141 C 0.3862 0.3875 0.83254 0.0
H1142 H 0.45986 0.37581 0.84973 0.0
C1143 C 0.46359 0.45537 0.91572 0.0
C1144 C 0.47964 0.44462 0.94025 0.0
C1145 C 0.44769 0.44062 0.89029 0.0
C1146 C 0.43932 0.37924 0.84523 0.0
H1147 H 0.3191 0.34527 0.74292 0.0
H1148 H 0.35543 0.37568 0.76877 0.0
H1149 H 0.42973 0.34805 0.80966 0.0
H1150 H 0.49156 0.40994 0.95734 0.0
H1151 H 0.46345 0.38416 0.91319 0.0
H1152 H 0.39551 0.41827 0.86869 0.0
C1153 C 0.3557 0.3562 0.77353 0.0
C1154 C 0.42212 0.36342 0.82224 0.0
C1155 C 0.33498 0.33876 0.75858 0.0
C1156 C 0.47941 0.4188 0.93884 0.0
C1157 C 0.46352 0.40405 0.91335 0.0
C1158 C 0.40339 0.40331 0.85546 0.0
C1159 C 0.37589 0.34864 0.79555 0.0
C1160 C 0.39523 0.36713 0.81615 0.0
C1161 C 0.44749 0.41482 0.88883 0.0
C1162 C 0.42997 0.39909 0.86251 0.0
H1163 H 0.35529 0.28641 0.79126 0.0
H1164 H 0.39103 0.31675 0.81757 0.0
H1165 H 0.36548 0.39061 0.82892 0.0
H1166 H 0.46336 0.47522 0.91599 0.0
H1167 H 0.43572 0.44947 0.87156 0.0
C1168 C 0.71792 0.30251 0.81373 0.0
C1169 C 0.72425 0.30956 0.7798 0.0
C1170 C 0.7032 0.31687 0.83448 0.0
C1171 C 0.6554 0.36274 0.82775 0.0
H1172 H 0.67602 0.37932 0.92483 0.0
C1173 C 0.58558 0.40644 0.91832 0.0
C1174 C 0.59656 0.4267 0.9405 0.0
C1175 C 0.60206 0.39272 0.89988 0.0
C1176 C 0.6701 0.37498 0.8977 0.0
H1177 H 0.72006 0.33721 0.74121 0.0
H1178 H 0.69413 0.36177 0.77676 0.0
H1179 H 0.7024 0.35361 0.89086 0.0
H1180 H 0.63397 0.448 0.96089 0.0
H1181 H 0.66306 0.42363 0.92877 0.0
H1182 H 0.62308 0.38381 0.83441 0.0
C1183 C 0.70042 0.34521 0.78753 0.0
C1184 C 0.68505 0.36001 0.8783 0.0
C1185 C 0.71537 0.33113 0.76711 0.0
C1186 C 0.62478 0.43265 0.94394 0.0
C1187 C 0.64143 0.41856 0.9257 0.0
C1188 C 0.64031 0.37735 0.84718 0.0
C1189 C 0.69413 0.33841 0.82157 0.0
C1190 C 0.67796 0.35374 0.84297 0.0
C1191 C 0.63023 0.39852 0.90314 0.0
C1192 C 0.64736 0.38371 0.88245 0.0
H1193 H 0.72478 0.28621 0.82446 0.0
H1194 H 0.69865 0.31097 0.86049 0.0
H1195 H 0.64915 0.35822 0.80075 0.0
H1196 H 0.56399 0.40117 0.91487 0.0
H1197 H 0.59264 0.3773 0.8832 0.0
C1198 C 0.6862 0.28543 0.19538 0.0
C1199 C 0.7119 0.29301 0.21136 0.0
C1200 C 0.67332 0.30172 0.17507 0.0
C1201 C 0.67223 0.36873 0.16172 0.0
H1202 H 0.62992 0.34591 0.07721 0.0
C1203 C 0.62273 0.43776 0.07766 0.0
C1204 C 0.59686 0.43019 0.0621 0.0
C1205 C 0.63762 0.42063 0.09288 0.0
C1206 C 0.64135 0.35261 0.10095 0.0
H1207 H 0.74431 0.32377 0.21828 0.0
H1208 H 0.72189 0.35231 0.18279 0.0
H1209 H 0.65435 0.31726 0.10922 0.0
H1210 H 0.56686 0.39819 0.04934 0.0
H1211 H 0.5926 0.36819 0.0765 0.0
H1212 H 0.65888 0.40383 0.15417 0.0
C1213 C 0.71159 0.33371 0.18607 0.0
C1214 C 0.65549 0.33612 0.11933 0.0
C1215 C 0.72458 0.31729 0.20621 0.0
C1216 C 0.58674 0.4047 0.06094 0.0
C1217 C 0.6016 0.38748 0.07657 0.0
C1218 C 0.65799 0.38514 0.14353 0.0
C1219 C 0.68566 0.3262 0.17034 0.0
C1220 C 0.67116 0.34393 0.15002 0.0
C1221 C 0.62708 0.39526 0.0935 0.0
C1222 C 0.64233 0.37743 0.11274 0.0
H1223 H 0.67584 0.26685 0.19882 0.0
H1224 H 0.65332 0.29526 0.16382 0.0
H1225 H 0.6836 0.37538 0.18554 0.0
H1226 H 0.6314 0.45718 0.0787 0.0
H1227 H 0.6574 0.42744 0.10452 0.0
C1228 C 0.70112 0.67583 0.23651 0.0
C1229 C 0.69983 0.7014 0.23565 0.0
C1230 C 0.68123 0.65888 0.21882 0.0
C1231 C 0.63449 0.65693 0.14325 0.0
H1232 H 0.60205 0.59355 0.17674 0.0
C1233 C 0.54843 0.59597 0.06573 0.0
C1234 C 0.54905 0.57029 0.06419 0.0
C1235 C 0.56633 0.61139 0.08827 0.0
C1236 C 0.61119 0.61109 0.16694 0.0
H1237 H 0.67562 0.72911 0.21809 0.0
H1238 H 0.64105 0.6996 0.18761 0.0
H1239 H 0.63372 0.6214 0.2151 0.0
H1240 H 0.56904 0.54061 0.08492 0.0
H1241 H 0.60068 0.56769 0.1238 0.0
H1242 H 0.61249 0.6467 0.09504 0.0
C1243 C 0.65768 0.69269 0.2012 0.0
C1244 C 0.62921 0.627 0.18891 0.0
C1245 C 0.67747 0.70956 0.21875 0.0
C1246 C 0.568 0.56034 0.08558 0.0
C1247 C 0.58601 0.57581 0.10803 0.0
C1248 C 0.61665 0.64105 0.12131 0.0
C1249 C 0.65982 0.66731 0.20011 0.0
C1250 C 0.64083 0.65014 0.17729 0.0
C1251 C 0.58536 0.60149 0.10958 0.0
C1252 C 0.60466 0.61804 0.13296 0.0
H1253 H 0.71811 0.669 0.24935 0.0
H1254 H 0.68331 0.63937 0.21833 0.0
H1255 H 0.64364 0.67445 0.13337 0.0
H1256 H 0.53392 0.60419 0.04981 0.0
H1257 H 0.56507 0.63107 0.08927 0.0
C1258 C 0.32986 0.6943 0.24873 0.0
C1259 C 0.31222 0.7099 0.23505 0.0
C1260 C 0.34266 0.67921 0.22675 0.0
C1261 C 0.36228 0.67128 0.13523 0.0
H1262 H 0.37102 0.60498 0.16369 0.0
C1263 C 0.43568 0.61384 0.06952 0.0
C1264 C 0.42875 0.58794 0.06463 0.0
C1265 C 0.41949 0.62794 0.08794 0.0
C1266 C 0.36856 0.62333 0.15508 0.0
H1267 H 0.29472 0.72209 0.18715 0.0
H1268 H 0.31719 0.69596 0.14872 0.0
H1269 H 0.3472 0.63103 0.20017 0.0
H1270 H 0.39868 0.55676 0.07514 0.0
H1271 H 0.37029 0.58143 0.10771 0.0
H1272 H 0.38368 0.66362 0.0902 0.0
C1273 C 0.32118 0.69538 0.17656 0.0
C1274 C 0.35514 0.63847 0.1763 0.0
C1275 C 0.30821 0.71038 0.19862 0.0
C1276 C 0.40467 0.57662 0.07827 0.0
C1277 C 0.38851 0.59079 0.0972 0.0
C1278 C 0.37588 0.65622 0.11416 0.0
C1279 C 0.33842 0.67931 0.19028 0.0
C1280 C 0.35196 0.6628 0.1669 0.0
C1281 C 0.39578 0.6167 0.1025 0.0
C1282 C 0.37949 0.63207 0.12386 0.0
H1283 H 0.33352 0.69345 0.27661 0.0
H1284 H 0.35609 0.66754 0.23845 0.0
H1285 H 0.36046 0.68986 0.12703 0.0
H1286 H 0.45398 0.62336 0.05938 0.0
H1287 H 0.42608 0.64768 0.09164 0.0
C1288 C 0.3137 0.33493 0.20377 0.0
C1289 C 0.31913 0.31038 0.20625 0.0
C1290 C 0.33132 0.353 0.18745 0.0
C1291 C 0.39099 0.35983 0.13001 0.0
H1292 H 0.39675 0.42927 0.1583 0.0
C1293 C 0.48105 0.4335 0.09986 0.0
C1294 C 0.47533 0.45434 0.08139 0.0
C1295 C 0.46056 0.41707 0.11378 0.0
C1296 C 0.39515 0.40997 0.1499 0.0
H1297 H 0.3479 0.2859 0.19405 0.0
H1298 H 0.37917 0.31732 0.1675 0.0
H1299 H 0.36491 0.39847 0.18587 0.0
H1300 H 0.44311 0.47423 0.0639 0.0
H1301 H 0.40714 0.4458 0.08976 0.0
H1302 H 0.42242 0.37145 0.09547 0.0
C1303 C 0.36079 0.32269 0.17673 0.0
C1304 C 0.37675 0.39216 0.16561 0.0
C1305 C 0.34288 0.30452 0.19238 0.0
C1306 C 0.44832 0.4585 0.07801 0.0
C1307 C 0.42774 0.44224 0.09282 0.0
C1308 C 0.40972 0.37754 0.11495 0.0
C1309 C 0.35529 0.34728 0.17362 0.0
C1310 C 0.37443 0.36666 0.15616 0.0
C1311 C 0.43365 0.42111 0.11042 0.0
C1312 C 0.41216 0.4028 0.12479 0.0
H1313 H 0.29546 0.3401 0.21382 0.0
H1314 H 0.32577 0.37137 0.18526 0.0
H1315 H 0.38957 0.34073 0.12089 0.0
H1316 H 0.50145 0.42938 0.10285 0.0
H1317 H 0.46579 0.40107 0.12729 0.0
C1318 C 0.83519 0.69739 0.67314 0.0
C1319 C 0.80781 0.69045 0.67859 0.0
C1320 C 0.85084 0.67965 0.66329 0.0
C1321 C 0.85178 0.61711 0.62861 0.0
H1322 H 0.91427 0.61966 0.69254 0.0
C1323 C 0.92195 0.54271 0.62511 0.0
C1324 C 0.94957 0.55182 0.62673 0.0
C1325 C 0.90331 0.55837 0.6328 0.0
C1326 C 0.89706 0.61882 0.67431 0.0
H1327 H 0.77463 0.66019 0.6756 0.0
H1328 H 0.80234 0.62878 0.65836 0.0
H1329 H 0.88375 0.65006 0.69891 0.0
H1330 H 0.97956 0.58398 0.6389 0.0
H1331 H 0.94707 0.61143 0.65211 0.0
H1332 H 0.86538 0.58604 0.60368 0.0
C1333 C 0.81154 0.64798 0.66172 0.0
C1334 C 0.87963 0.63619 0.67794 0.0
C1335 C 0.79578 0.66585 0.6716 0.0
C1336 C 0.95839 0.57644 0.63787 0.0
C1337 C 0.93975 0.59215 0.64534 0.0
C1338 C 0.86939 0.59974 0.62481 0.0
C1339 C 0.83937 0.65469 0.65885 0.0
C1340 C 0.85706 0.63566 0.6549 0.0
C1341 C 0.91202 0.58339 0.6422 0.0
C1342 C 0.89236 0.60064 0.64743 0.0
H1343 H 0.84481 0.71636 0.67793 0.0
H1344 H 0.87219 0.68527 0.66055 0.0
H1345 H 0.83446 0.61642 0.61058 0.0
H1346 H 0.91469 0.52372 0.61662 0.0
H1347 H 0.88208 0.55103 0.63072 0.0
C1348 C 0.35335 0.79789 0.64496 0.0
C1349 C 0.32794 0.80392 0.65214 0.0
C1350 C 0.3726 0.81553 0.63116 0.0
C1351 C 0.3828 0.87854 0.59418 0.0
H1352 H 0.45178 0.88469 0.64584 0.0
C1353 C 0.45128 0.9705 0.6113 0.0
C1354 C 0.47494 0.97093 0.59316 0.0
C1355 C 0.43622 0.94794 0.61887 0.0
C1356 C 0.43267 0.88298 0.63111 0.0
H1357 H 0.30178 0.83212 0.64829 0.0
H1358 H 0.33537 0.86309 0.62496 0.0
H1359 H 0.41847 0.84789 0.65226 0.0
H1360 H 0.50309 0.94822 0.57261 0.0
H1361 H 0.47685 0.90873 0.58685 0.0
H1362 H 0.39664 0.91432 0.57461 0.0
C1363 C 0.34054 0.84476 0.62941 0.0
C1364 C 0.4137 0.86189 0.63442 0.0
C1365 C 0.32129 0.82708 0.64294 0.0
C1366 C 0.48482 0.94848 0.58637 0.0
C1367 C 0.46987 0.9259 0.5944 0.0
C1368 C 0.40158 0.89972 0.59131 0.0
C1369 C 0.36671 0.83948 0.62457 0.0
C1370 C 0.3883 0.85974 0.61662 0.0
C1371 C 0.44488 0.92557 0.60907 0.0
C1372 C 0.42632 0.90228 0.6104 0.0
H1373 H 0.35882 0.78001 0.65165 0.0
H1374 H 0.39241 0.81077 0.62703 0.0
H1375 H 0.36367 0.87721 0.57958 0.0
H1376 H 0.44313 0.98741 0.61699 0.0
H1377 H 0.41705 0.94791 0.6306 0.0
C1378 C 0.19883 0.31405 0.62236 0.0
C1379 C 0.22315 0.32325 0.64064 0.0
C1380 C 0.18837 0.32787 0.59635 0.0
C1381 C 0.19173 0.39193 0.56655 0.0
H1382 H 0.15111 0.35948 0.48573 0.0
C1383 C 0.13748 0.44898 0.47326 0.0
C1384 C 0.10968 0.44056 0.47046 0.0
C1385 C 0.15538 0.43321 0.48464 0.0
C1386 C 0.16255 0.36877 0.50805 0.0
H1387 H 0.2559 0.35381 0.64603 0.0
H1388 H 0.2379 0.37792 0.60008 0.0
H1389 H 0.17502 0.3351 0.52586 0.0
H1390 H 0.07918 0.40825 0.47295 0.0
H1391 H 0.11046 0.38074 0.49304 0.0
H1392 H 0.17888 0.42545 0.54925 0.0
C1393 C 0.22662 0.36022 0.60618 0.0
C1394 C 0.17609 0.35484 0.53116 0.0
C1395 C 0.23696 0.34645 0.63245 0.0
C1396 C 0.10047 0.41535 0.47527 0.0
C1397 C 0.11842 0.39955 0.48665 0.0
C1398 C 0.17842 0.40585 0.54334 0.0
C1399 C 0.20215 0.3511 0.58786 0.0
C1400 C 0.1903 0.36617 0.56116 0.0
C1401 C 0.14582 0.40875 0.49329 0.0
C1402 C 0.16321 0.39435 0.51427 0.0
H1403 H 0.18778 0.29619 0.62826 0.0
H1404 H 0.16922 0.32049 0.58337 0.0
H1405 H 0.20208 0.40124 0.58958 0.0
H1406 H 0.14528 0.4682 0.46897 0.0
H1407 H 0.17651 0.44061 0.48875 0.0
C1408 C 0.68778 0.19729 0.7011 0.0
C1409 C 0.70659 0.21564 0.68729 0.0
C1410 C 0.67337 0.17856 0.67951 0.0
C1411 C 0.64979 0.16013 0.59024 0.0
H1412 H 0.65304 0.09347 0.62187 0.0
C1413 C 0.6161 0.0505 0.54335 0.0
C1414 C 0.58838 0.05038 0.5367 0.0
C1415 C 0.63232 0.07199 0.55667 0.0
C1416 C 0.65222 0.11195 0.61248 0.0
H1417 H 0.72379 0.22951 0.63958 0.0
H1418 H 0.69808 0.19689 0.60177 0.0
H1419 H 0.67639 0.12903 0.65618 0.0
H1420 H 0.55629 0.07306 0.53617 0.0
H1421 H 0.58468 0.11058 0.55908 0.0
H1422 H 0.625 0.14291 0.54689 0.0
C1423 C 0.69479 0.197 0.6294 0.0
C1424 C 0.6653 0.13228 0.63231 0.0
C1425 C 0.7095 0.21563 0.65108 0.0
C1426 C 0.57754 0.07253 0.54149 0.0
C1427 C 0.59382 0.09407 0.55431 0.0
C1428 C 0.63634 0.13973 0.57059 0.0
C1429 C 0.6772 0.17791 0.64361 0.0
C1430 C 0.66397 0.15656 0.62161 0.0
C1431 C 0.62119 0.09381 0.56299 0.0
C1432 C 0.63729 0.11546 0.5817 0.0
H1433 H 0.685 0.19668 0.72883 0.0
H1434 H 0.65962 0.16421 0.69102 0.0
H1435 H 0.64852 0.17868 0.58145 0.0
H1436 H 0.62502 0.03373 0.53979 0.0
H1437 H 0.65345 0.0714 0.56289 0.0
C1438 C 0.79942 0.31113 0.36084 0.0
C1439 C 0.80557 0.31073 0.32556 0.0
C1440 C 0.81575 0.32684 0.385 0.0
C1441 C 0.88443 0.35974 0.39882 0.0
H1442 H 0.85376 0.40625 0.45722 0.0
C1443 C 0.94503 0.45082 0.4511 0.0
C1444 C 0.94015 0.46026 0.48411 0.0
C1445 C 0.92939 0.42934 0.43716 0.0
C1446 C 0.86263 0.39303 0.44168 0.0
H1447 H 0.8336 0.3265 0.28797 0.0
H1448 H 0.86197 0.35366 0.33003 0.0
H1449 H 0.82403 0.3744 0.4226 0.0
H1450 H 0.91575 0.45397 0.52903 0.0
H1451 H 0.88845 0.41626 0.50455 0.0
H1452 H 0.92297 0.37855 0.41718 0.0
C1453 C 0.84463 0.3418 0.33904 0.0
C1454 C 0.8456 0.37486 0.42183 0.0
C1455 C 0.8282 0.32641 0.3149 0.0
C1456 C 0.91978 0.44733 0.50331 0.0
C1457 C 0.90412 0.42576 0.48933 0.0
C1458 C 0.90142 0.37775 0.41878 0.0
C1459 C 0.83869 0.34206 0.37431 0.0
C1460 C 0.85639 0.35863 0.39937 0.0
C1461 C 0.90858 0.41671 0.45593 0.0
C1462 C 0.89071 0.39513 0.43949 0.0
H1463 H 0.78212 0.29923 0.36982 0.0
H1464 H 0.81076 0.32678 0.41209 0.0
H1465 H 0.89321 0.3471 0.38217 0.0
H1466 H 0.96064 0.46025 0.43571 0.0
H1467 H 0.93309 0.42306 0.41113 0.0
C1468 C 0.72078 0.80981 0.30932 0.0
C1469 C 0.72854 0.79173 0.33166 0.0
C1470 C 0.70546 0.82781 0.32144 0.0
C1471 C 0.6851 0.85678 0.40459 0.0
H1472 H 0.62868 0.87773 0.34548 0.0
C1473 C 0.62099 0.93229 0.45112 0.0
C1474 C 0.5936 0.92926 0.43992 0.0
C1475 C 0.63851 0.91675 0.43766 0.0
C1476 C 0.64421 0.87202 0.36259 0.0
H1477 H 0.7261 0.77859 0.38428 0.0
H1478 H 0.69959 0.80927 0.40503 0.0
H1479 H 0.65662 0.84876 0.32237 0.0
H1480 H 0.5634 0.90674 0.40601 0.0
H1481 H 0.5934 0.87986 0.38333 0.0
H1482 H 0.67226 0.87948 0.44509 0.0
C1483 C 0.7055 0.81009 0.37833 0.0
C1484 C 0.66059 0.85554 0.34906 0.0
C1485 C 0.72063 0.79222 0.36626 0.0
C1486 C 0.58431 0.90996 0.4153 0.0
C1487 C 0.60172 0.89453 0.4019 0.0
C1488 C 0.66876 0.87328 0.41811 0.0
C1489 C 0.69763 0.82832 0.35631 0.0
C1490 C 0.68113 0.84732 0.36993 0.0
C1491 C 0.62922 0.89769 0.41251 0.0
C1492 C 0.64775 0.881 0.39753 0.0
H1493 H 0.72666 0.81016 0.28263 0.0
H1494 H 0.70009 0.84156 0.30358 0.0
H1495 H 0.70091 0.8514 0.42155 0.0
H1496 H 0.62901 0.94688 0.46998 0.0
H1497 H 0.6595 0.92004 0.44652 0.0
C1498 C 0.19781 0.70513 0.39067 0.0
C1499 C 0.21112 0.69418 0.36442 0.0
C1500 C 0.1744 0.69231 0.40363 0.0
C1501 C 0.11585 0.65276 0.37519 0.0
H1502 H 0.10893 0.62327 0.46559 0.0
C1503 C 0.03672 0.57022 0.4007 0.0
C1504 C 0.02963 0.56506 0.43495 0.0
C1505 C 0.05438 0.59152 0.39388 0.0
C1506 C 0.11014 0.63197 0.44059 0.0
H1507 H 0.21127 0.66105 0.33212 0.0
H1508 H 0.17004 0.63887 0.35436 0.0
H1509 H 0.15094 0.64895 0.45234 0.0
H1510 H 0.03246 0.58003 0.48805 0.0
H1511 H 0.0625 0.61763 0.47584 0.0
H1512 H 0.0753 0.63599 0.36306 0.0
C1513 C 0.17787 0.65723 0.36499 0.0
C1514 C 0.13432 0.64645 0.43301 0.0
C1515 C 0.20147 0.66983 0.35251 0.0
C1516 C 0.03783 0.58322 0.46141 0.0
C1517 C 0.05534 0.60468 0.45451 0.0
C1518 C 0.09152 0.63869 0.38291 0.0
C1519 C 0.1639 0.66862 0.39002 0.0
C1520 C 0.13752 0.65624 0.39991 0.0
C1521 C 0.06504 0.60835 0.42105 0.0
C1522 C 0.08865 0.62737 0.41528 0.0
H1523 H 0.20484 0.72395 0.40011 0.0
H1524 H 0.16382 0.70131 0.423 0.0
H1525 H 0.11798 0.66044 0.34957 0.0
H1526 H 0.03063 0.55679 0.37958 0.0
H1527 H 0.06134 0.59358 0.36776 0.0
C1528 C 0.31819 0.22936 0.35193 0.0
C1529 C 0.31033 0.22812 0.3163 0.0
C1530 C 0.33286 0.21189 0.3665 0.0
C1531 C 0.37846 0.16674 0.3484 0.0
H1532 H 0.35383 0.13866 0.43497 0.0
C1533 C 0.44149 0.10867 0.43852 0.0
C1534 C 0.42734 0.08691 0.45158 0.0
C1535 C 0.42773 0.12559 0.4204 0.0
C1536 C 0.36099 0.14622 0.41076 0.0
H1537 H 0.31222 0.20763 0.26779 0.0
H1538 H 0.33858 0.17705 0.29331 0.0
H1539 H 0.32884 0.16794 0.40544 0.0
H1540 H 0.3875 0.0662 0.45605 0.0
H1541 H 0.36373 0.09571 0.42528 0.0
H1542 H 0.41088 0.1451 0.35415 0.0
C1543 C 0.33316 0.19167 0.30992 0.0
C1544 C 0.34671 0.16314 0.39389 0.0
C1545 C 0.31804 0.20912 0.2953 0.0
C1546 C 0.39913 0.0827 0.4464 0.0
C1547 C 0.38543 0.09971 0.42881 0.0
C1548 C 0.39304 0.15002 0.36562 0.0
C1549 C 0.34042 0.19269 0.34587 0.0
C1550 C 0.35524 0.17371 0.36254 0.0
C1551 C 0.39948 0.12136 0.41544 0.0
C1552 C 0.38445 0.13951 0.39704 0.0
H1553 H 0.31267 0.24376 0.36889 0.0
H1554 H 0.33837 0.21348 0.39411 0.0
H1555 H 0.38569 0.17464 0.32443 0.0
H1556 H 0.4632 0.11248 0.4419 0.0
H1557 H 0.43919 0.14217 0.41071 0.0
C1558 C 0.69424 0.77987 0.67437 0.0
C1559 C 0.71336 0.78652 0.70206 0.0
C1560 C 0.67857 0.79707 0.66105 0.0
C1561 C 0.68079 0.86339 0.64864 0.0
H1562 H 0.60428 0.84712 0.62566 0.0
C1563 C 0.62076 0.9361 0.58823 0.0
C1564 C 0.59881 0.92822 0.56463 0.0
C1565 C 0.63349 0.91895 0.60687 0.0
C1566 C 0.62571 0.85195 0.63132 0.0
H1567 H 0.7308 0.81633 0.73796 0.0
H1568 H 0.70375 0.84681 0.71405 0.0
H1569 H 0.62815 0.81726 0.6558 0.0
H1570 H 0.57315 0.89593 0.542 0.0
H1571 H 0.59603 0.86581 0.57336 0.0
H1572 H 0.67894 0.89746 0.62292 0.0
C1573 C 0.70074 0.82811 0.70291 0.0
C1574 C 0.63935 0.83483 0.64894 0.0
C1575 C 0.71608 0.81066 0.71677 0.0
C1576 C 0.58991 0.90264 0.56012 0.0
C1577 C 0.603 0.88536 0.57838 0.0
C1578 C 0.66728 0.88033 0.63052 0.0
C1579 C 0.682 0.82156 0.67461 0.0
C1580 C 0.66707 0.84033 0.65781 0.0
C1581 C 0.62508 0.89324 0.60208 0.0
C1582 C 0.63947 0.87495 0.62152 0.0
H1583 H 0.69177 0.76142 0.66242 0.0
H1584 H 0.66452 0.79144 0.63913 0.0
H1585 H 0.70223 0.86804 0.6545 0.0
H1586 H 0.62798 0.95568 0.59272 0.0
H1587 H 0.64983 0.92604 0.62537 0.0
C1588 C 0.67354 0.21637 0.35368 0.0
C1589 C 0.70087 0.21375 0.35601 0.0
C1590 C 0.65448 0.19813 0.36638 0.0
C1591 C 0.64876 0.13131 0.38276 0.0
H1592 H 0.57648 0.14003 0.40576 0.0
C1593 C 0.56971 0.04632 0.39265 0.0
C1594 C 0.55386 0.04651 0.42167 0.0
C1595 C 0.58414 0.0684 0.38179 0.0
C1596 C 0.59663 0.13722 0.39964 0.0
H1597 H 0.73035 0.19218 0.37723 0.0
H1598 H 0.69721 0.16109 0.4018 0.0
H1599 H 0.61048 0.17617 0.40209 0.0
H1600 H 0.53868 0.0703 0.45998 0.0
H1601 H 0.5646 0.10809 0.44241 0.0
H1602 H 0.63556 0.09241 0.3826 0.0
C1603 C 0.69024 0.17638 0.38838 0.0
C1604 C 0.61611 0.15801 0.39721 0.0
C1605 C 0.70926 0.19431 0.3748 0.0
C1606 C 0.55082 0.06938 0.43759 0.0
C1607 C 0.56567 0.09126 0.42732 0.0
C1608 C 0.62951 0.11055 0.38604 0.0
C1609 C 0.66255 0.17727 0.38235 0.0
C1610 C 0.64239 0.15532 0.3885 0.0
C1611 C 0.58342 0.09091 0.40029 0.0
C1612 C 0.60315 0.1132 0.39432 0.0
H1613 H 0.66663 0.2313 0.3393 0.0
H1614 H 0.63344 0.19954 0.3611 0.0
H1615 H 0.66853 0.12839 0.37511 0.0
H1616 H 0.57211 0.02902 0.37952 0.0
H1617 H 0.59689 0.06761 0.36001 0.0
C1618 C 0.78811 0.67129 0.38396 0.0
C1619 C 0.80498 0.68966 0.36731 0.0
C1620 C 0.79855 0.65793 0.41062 0.0
C1621 C 0.85558 0.66025 0.47487 0.0
H1622 H 0.84053 0.58848 0.46813 0.0
C1623 C 0.926 0.59638 0.53224 0.0
C1624 C 0.91555 0.57179 0.53923 0.0
C1625 C 0.90888 0.61286 0.5208 0.0
C1626 C 0.84444 0.6085 0.47116 0.0
H1627 H 0.84581 0.70861 0.36517 0.0
H1628 H 0.86409 0.68521 0.41167 0.0
H1629 H 0.81749 0.61288 0.42782 0.0
H1630 H 0.87886 0.54613 0.54446 0.0
H1631 H 0.84892 0.57509 0.5254 0.0
H1632 H 0.88297 0.65587 0.5178 0.0
C1633 C 0.8428 0.68128 0.4044 0.0
C1634 C 0.8313 0.62248 0.44782 0.0
C1635 C 0.83242 0.69445 0.37756 0.0
C1636 C 0.88753 0.56482 0.5384 0.0
C1637 C 0.87039 0.58136 0.52731 0.0
C1638 C 0.86857 0.64627 0.49847 0.0
C1639 C 0.82595 0.66294 0.42125 0.0
C1640 C 0.83732 0.64844 0.44881 0.0
C1641 C 0.88096 0.60511 0.51653 0.0
C1642 C 0.86375 0.6202 0.49622 0.0
H1643 H 0.76684 0.66738 0.3766 0.0
H1644 H 0.78513 0.64391 0.42322 0.0
H1645 H 0.86022 0.6803 0.47653 0.0
H1646 H 0.94752 0.60236 0.53293 0.0
H1647 H 0.9178 0.63097 0.5127 0.0
C1648 C 0.34682 0.81237 0.32631 0.0
C1649 C 0.32747 0.7945 0.34002 0.0
C1650 C 0.36244 0.83021 0.34817 0.0
C1651 C 0.35998 0.8635 0.43138 0.0
H1652 H 0.43457 0.88747 0.41508 0.0
C1653 C 0.45519 0.94232 0.48304 0.0
C1654 C 0.44255 0.96366 0.48284 0.0
C1655 C 0.44092 0.91928 0.47269 0.0
C1656 C 0.41386 0.88081 0.42042 0.0
H1657 H 0.31021 0.78066 0.38773 0.0
H1658 H 0.33766 0.81182 0.42588 0.0
H1659 H 0.41184 0.85072 0.38322 0.0
H1660 H 0.40458 0.97745 0.4742 0.0
H1661 H 0.37953 0.93707 0.45508 0.0
H1662 H 0.36202 0.89388 0.46838 0.0
C1663 C 0.34049 0.81212 0.39815 0.0
C1664 C 0.40077 0.85989 0.40185 0.0
C1665 C 0.32497 0.79415 0.37629 0.0
C1666 C 0.41482 0.96127 0.47442 0.0
C1667 C 0.4005 0.93815 0.46362 0.0
C1668 C 0.37309 0.88453 0.44996 0.0
C1669 C 0.35899 0.83065 0.38422 0.0
C1670 C 0.37358 0.85124 0.40667 0.0
C1671 C 0.4137 0.91709 0.46146 0.0
C1672 C 0.40009 0.8936 0.44433 0.0
H1673 H 0.34927 0.81317 0.29851 0.0
H1674 H 0.37638 0.84436 0.33659 0.0
H1675 H 0.33892 0.85738 0.43543 0.0
H1676 H 0.47639 0.9435 0.49025 0.0
H1677 H 0.45148 0.90331 0.47227 0.0
C1678 C 0.18935 0.32094 0.32648 0.0
C1679 C 0.21739 0.3266 0.32566 0.0
C1680 C 0.17407 0.33936 0.33461 0.0
C1681 C 0.1735 0.39969 0.37542 0.0
H1682 H 0.11515 0.40308 0.30673 0.0
C1683 C 0.10123 0.47186 0.38676 0.0
C1684 C 0.0739 0.46164 0.38359 0.0
C1685 C 0.12091 0.45793 0.37681 0.0
C1686 C 0.13132 0.40232 0.32612 0.0
H1687 H 0.25181 0.3553 0.33465 0.0
H1688 H 0.22473 0.38788 0.34923 0.0
H1689 H 0.14606 0.37317 0.2982 0.0
H1690 H 0.04554 0.42953 0.36563 0.0
H1691 H 0.07986 0.40524 0.34804 0.0
H1692 H 0.15815 0.42833 0.40394 0.0
C1693 C 0.21476 0.36915 0.34341 0.0
C1694 C 0.14895 0.38527 0.32126 0.0
C1695 C 0.23015 0.35062 0.33509 0.0
C1696 C 0.06645 0.43791 0.36821 0.0
C1697 C 0.08611 0.42401 0.35817 0.0
C1698 C 0.1557 0.41674 0.38041 0.0
C1699 C 0.18657 0.36373 0.34209 0.0
C1700 C 0.16979 0.38346 0.34621 0.0
C1701 C 0.11351 0.43368 0.36319 0.0
C1702 C 0.13415 0.41782 0.35609 0.0
H1703 H 0.17909 0.30246 0.31964 0.0
H1704 H 0.15236 0.33471 0.33412 0.0
H1705 H 0.18943 0.39849 0.39499 0.0
H1706 H 0.10749 0.49024 0.3983 0.0
H1707 H 0.14189 0.46591 0.3805 0.0
C1708 C 0.3096 0.20595 0.70416 0.0
C1709 C 0.30376 0.22532 0.68281 0.0
C1710 C 0.32549 0.18833 0.69219 0.0
C1711 C 0.37677 0.18042 0.62727 0.0
H1712 H 0.35708 0.10964 0.6377 0.0
C1713 C 0.44824 0.11038 0.59062 0.0
C1714 C 0.43741 0.08787 0.57311 0.0
C1715 C 0.43157 0.1264 0.60422 0.0
C1716 C 0.36281 0.12934 0.63439 0.0
H1717 H 0.31021 0.24121 0.63224 0.0
H1718 H 0.3378 0.21126 0.61198 0.0
H1719 H 0.32945 0.13869 0.66264 0.0
H1720 H 0.40002 0.0649 0.55618 0.0
H1721 H 0.37077 0.09292 0.58021 0.0
H1722 H 0.40996 0.17134 0.59905 0.0
C1723 C 0.33034 0.20946 0.63789 0.0
C1724 C 0.34711 0.14604 0.64908 0.0
C1725 C 0.31433 0.22667 0.64956 0.0
C1726 C 0.40917 0.08204 0.56938 0.0
C1727 C 0.39238 0.09804 0.58346 0.0
C1728 C 0.39256 0.16384 0.61302 0.0
C1729 C 0.33625 0.18996 0.65886 0.0
C1730 C 0.35372 0.17187 0.64547 0.0
C1731 C 0.40336 0.12051 0.60114 0.0
C1732 C 0.38586 0.138 0.61615 0.0
H1733 H 0.3017 0.20426 0.72983 0.0
H1734 H 0.32967 0.17365 0.70918 0.0
H1735 H 0.38273 0.20011 0.62407 0.0
H1736 H 0.46982 0.11566 0.59414 0.0
H1737 H 0.44093 0.1433 0.61785 0.0
C1738 C 0.85779 0.28697 0.65587 0.0
C1739 C 0.83292 0.2958 0.65379 0.0
C1740 C 0.87969 0.29914 0.63911 0.0
C1741 C 0.90056 0.34914 0.57735 0.0
H1742 H 0.96341 0.3628 0.64104 0.0
C1743 C 0.98702 0.43529 0.61029 0.0
C1744 C 0.99308 0.44248 0.5764 0.0
C1745 C 0.97282 0.4119 0.61588 0.0
C1746 C 0.94612 0.35902 0.62284 0.0
H1747 H 0.81066 0.32302 0.6308 0.0
H1748 H 0.84905 0.34475 0.60206 0.0
H1749 H 0.92608 0.33174 0.65522 0.0
H1750 H 0.99137 0.42973 0.52223 0.0
H1751 H 0.96682 0.38889 0.53219 0.0
H1752 H 0.91986 0.37774 0.54622 0.0
C1753 C 0.85167 0.32823 0.61615 0.0
C1754 C 0.9248 0.34101 0.63073 0.0
C1755 C 0.82968 0.31589 0.63272 0.0
C1756 C 0.98686 0.42492 0.54869 0.0
C1757 C 0.9726 0.40154 0.5543 0.0
C1758 C 0.92187 0.36722 0.5695 0.0
C1759 C 0.87716 0.32052 0.62024 0.0
C1760 C 0.90142 0.33641 0.60862 0.0
C1761 C 0.96445 0.3952 0.58772 0.0
C1762 C 0.9445 0.3729 0.59274 0.0
H1763 H 0.86065 0.27129 0.67171 0.0
H1764 H 0.89888 0.29242 0.64214 0.0
H1765 H 0.88298 0.3458 0.55958 0.0
H1766 H 0.99161 0.44829 0.63224 0.0
H1767 H 0.96673 0.40765 0.64195 0.0
C1768 C 0.21036 0.70722 0.65419 0.0
C1769 C 0.21764 0.70243 0.68879 0.0
C1770 C 0.19374 0.68924 0.63358 0.0
C1771 C 0.14549 0.63149 0.64114 0.0
H1772 H 0.15486 0.62401 0.54218 0.0
C1773 C 0.10876 0.55581 0.52199 0.0
C1774 C 0.08236 0.54834 0.53181 0.0
C1775 C 0.12469 0.5762 0.53882 0.0
C1776 C 0.15211 0.6257 0.56984 0.0
H1777 H 0.21406 0.67485 0.72864 0.0
H1778 H 0.18602 0.64318 0.69246 0.0
H1779 H 0.18498 0.65532 0.57678 0.0
H1780 H 0.05123 0.55725 0.56506 0.0
H1781 H 0.07841 0.59334 0.59315 0.0
H1782 H 0.11374 0.60109 0.63486 0.0
C1783 C 0.19225 0.66108 0.68146 0.0
C1784 C 0.16917 0.64391 0.58962 0.0
C1785 C 0.20848 0.67918 0.70219 0.0
C1786 C 0.0717 0.5623 0.55742 0.0
C1787 C 0.08738 0.58293 0.57368 0.0
C1788 C 0.12878 0.6131 0.62155 0.0
C1789 C 0.18437 0.66596 0.64702 0.0
C1790 C 0.16612 0.64694 0.62558 0.0
C1791 C 0.11432 0.58974 0.56533 0.0
C1792 C 0.13182 0.60994 0.58565 0.0
H1793 H 0.21702 0.72507 0.64324 0.0
H1794 H 0.18781 0.6938 0.60737 0.0
H1795 H 0.14214 0.63356 0.66859 0.0
H1796 H 0.11742 0.54537 0.50223 0.0
H1797 H 0.1454 0.58073 0.53187 0.0
loop_
_geom_bond_atom_site_label_1
_geom_bond_atom_site_label_2
_geom_bond_distance
_geom_bond_site_symmetry_2
_ccdc_geom_bond_type
Tb0 O3 2.453 . S
Tb0 O4 2.596 . S
Tb0 O5 2.374 . S
Tb0 O13 2.343 . S
Tb0 O15 2.353 . S
Tb0 O17 2.427 . S
Tb0 O18 2.513 . S
C1 O5 1.251 . S
C1 O7 1.263 . S
Tb2 O4 2.343 . S
Tb2 O7 2.353 . S
Tb2 O10 2.427 . S
Tb2 O11 2.513 . S
Tb2 O12 2.453 . S
Tb2 O13 2.596 . S
Tb2 O14 2.374 . S
O3 Tb0 2.453 . S
O3 C19 1.245 . S
O4 Tb0 2.596 . S
O4 Tb2 2.343 . S
O4 C19 1.259 . S
O5 Tb0 2.374 . S
O5 C1 1.251 . S
C6 O10 1.275 . S
C6 O11 1.246 . S
O7 C1 1.263 . S
O7 Tb2 2.353 . S
C8 O12 1.245 . S
C8 O13 1.259 . S
C9 O14 1.250 . S
C9 O15 1.263 . S
O10 Tb2 2.427 . S
O10 C6 1.275 . S
O11 Tb2 2.513 . S
O11 C6 1.246 . S
O12 Tb2 2.453 . S
O12 C8 1.245 . S
O13 Tb0 2.343 . S
O13 Tb2 2.596 . S
O13 C8 1.259 . S
O14 Tb2 2.374 . S
O14 C9 1.250 . S
O15 Tb0 2.353 . S
O15 C9 1.263 . S
C16 O17 1.275 . S
C16 O18 1.246 . S
O17 Tb0 2.427 . S
O17 C16 1.275 . S
O18 Tb0 2.513 . S
O18 C16 1.246 . S
C19 O3 1.245 . S
C19 O4 1.259 . S
Tb20 O23 2.453 . S
Tb20 O24 2.596 . S
Tb20 O25 2.374 . S
Tb20 O33 2.343 . S
Tb20 O35 2.353 . S
Tb20 O37 2.427 . S
Tb20 O38 2.513 . S
C21 O25 1.251 . S
C21 O27 1.263 . S
Tb22 O24 2.343 . S
Tb22 O27 2.353 . S
Tb22 O30 2.427 . S
Tb22 O31 2.513 . S
Tb22 O32 2.453 . S
Tb22 O33 2.596 . S
Tb22 O34 2.374 . S
O23 Tb20 2.453 . S
O23 C39 1.245 . S
O24 Tb20 2.596 . S
O24 Tb22 2.343 . S
O24 C39 1.259 . S
O25 Tb20 2.374 . S
O25 C21 1.251 . S
C26 O30 1.275 . S
C26 O31 1.246 . S
O27 C21 1.263 . S
O27 Tb22 2.353 . S
C28 O32 1.245 . S
C28 O33 1.259 . S
C29 O34 1.250 . S
C29 O35 1.263 . S
O30 Tb22 2.427 . S
O30 C26 1.275 . S
O31 Tb22 2.513 . S
O31 C26 1.246 . S
O32 Tb22 2.453 . S
O32 C28 1.245 . S
O33 Tb20 2.343 . S
O33 Tb22 2.596 . S
O33 C28 1.259 . S
O34 Tb22 2.374 . S
O34 C29 1.250 . S
O35 Tb20 2.353 . S
O35 C29 1.263 . S
C36 O37 1.275 . S
C36 O38 1.246 . S
O37 Tb20 2.427 . S
O37 C36 1.275 . S
O38 Tb20 2.513 . S
O38 C36 1.246 . S
C39 O23 1.245 . S
C39 O24 1.259 . S
Tb40 O43 2.453 . S
Tb40 O44 2.596 . S
Tb40 O45 2.374 . S
Tb40 O53 2.343 . S
Tb40 O55 2.353 . S
Tb40 O57 2.427 . S
Tb40 O58 2.513 . S
C41 O45 1.251 . S
C41 O47 1.263 . S
Tb42 O44 2.343 . S
Tb42 O47 2.353 . S
Tb42 O50 2.427 . S
Tb42 O51 2.513 . S
Tb42 O52 2.453 . S
Tb42 O53 2.596 . S
Tb42 O54 2.374 . S
O43 Tb40 2.453 . S
O43 C59 1.245 . S
O44 Tb40 2.596 . S
O44 Tb42 2.343 . S
O44 C59 1.259 . S
O45 Tb40 2.374 . S
O45 C41 1.251 . S
C46 O50 1.275 . S
C46 O51 1.246 . S
O47 C41 1.263 . S
O47 Tb42 2.353 . S
C48 O52 1.245 . S
C48 O53 1.259 . S
C49 O54 1.250 . S
C49 O55 1.263 . S
O50 Tb42 2.427 . S
O50 C46 1.275 . S
O51 Tb42 2.513 . S
O51 C46 1.246 . S
O52 Tb42 2.453 . S
O52 C48 1.245 . S
O53 Tb40 2.343 . S
O53 Tb42 2.596 . S
O53 C48 1.259 . S
O54 Tb42 2.374 . S
O54 C49 1.250 . S
O55 Tb40 2.353 . S
O55 C49 1.263 . S
C56 O57 1.275 . S
C56 O58 1.246 . S
O57 Tb40 2.427 . S
O57 C56 1.275 . S
O58 Tb40 2.513 . S
O58 C56 1.246 . S
C59 O43 1.245 . S
C59 O44 1.259 . S
Tb60 O63 2.453 . S
Tb60 O64 2.596 . S
Tb60 O65 2.374 . S
Tb60 O73 2.343 . S
Tb60 O75 2.353 . S
Tb60 O77 2.427 . S
Tb60 O78 2.513 . S
C61 O65 1.251 . S
C61 O67 1.263 . S
Tb62 O64 2.343 . S
Tb62 O67 2.353 . S
Tb62 O70 2.427 . S
Tb62 O71 2.513 . S
Tb62 O72 2.453 . S
Tb62 O73 2.596 . S
Tb62 O74 2.374 . S
O63 Tb60 2.453 . S
O63 C79 1.245 . S
O64 Tb60 2.596 . S
O64 Tb62 2.343 . S
O64 C79 1.259 . S
O65 Tb60 2.374 . S
O65 C61 1.251 . S
C66 O70 1.275 . S
C66 O71 1.246 . S
O67 C61 1.263 . S
O67 Tb62 2.353 . S
C68 O72 1.245 . S
C68 O73 1.259 . S
C69 O74 1.250 . S
C69 O75 1.263 . S
O70 Tb62 2.427 . S
O70 C66 1.275 . S
O71 Tb62 2.513 . S
O71 C66 1.246 . S
O72 Tb62 2.453 . S
O72 C68 1.245 . S
O73 Tb60 2.343 . S
O73 Tb62 2.596 . S
O73 C68 1.259 . S
O74 Tb62 2.374 . S
O74 C69 1.250 . S
O75 Tb60 2.353 . S
O75 C69 1.263 . S
C76 O77 1.275 . S
C76 O78 1.246 . S
O77 Tb60 2.427 . S
O77 C76 1.275 . S
O78 Tb60 2.513 . S
O78 C76 1.246 . S
C79 O63 1.245 . S
C79 O64 1.259 . S
Tb80 O83 2.453 . S
Tb80 O84 2.596 . S
Tb80 O85 2.374 . S
Tb80 O93 2.343 . S
Tb80 O95 2.353 . S
Tb80 O97 2.427 . S
Tb80 O98 2.513 . S
C81 O85 1.251 . S
C81 O87 1.263 . S
Tb82 O84 2.343 . S
Tb82 O87 2.353 . S
Tb82 O90 2.427 . S
Tb82 O91 2.513 . S
Tb82 O92 2.453 . S
Tb82 O93 2.596 . S
Tb82 O94 2.374 . S
O83 Tb80 2.453 . S
O83 C99 1.245 . S
O84 Tb80 2.596 . S
O84 Tb82 2.343 . S
O84 C99 1.259 . S
O85 Tb80 2.374 . S
O85 C81 1.251 . S
C86 O90 1.275 . S
C86 O91 1.246 . S
O87 C81 1.263 . S
O87 Tb82 2.353 . S
C88 O92 1.245 . S
C88 O93 1.259 . S
C89 O94 1.250 . S
C89 O95 1.263 . S
O90 Tb82 2.427 . S
O90 C86 1.275 . S
O91 Tb82 2.513 . S
O91 C86 1.246 . S
O92 Tb82 2.453 . S
O92 C88 1.245 . S
O93 Tb80 2.343 . S
O93 Tb82 2.596 . S
O93 C88 1.259 . S
O94 Tb82 2.374 . S
O94 C89 1.250 . S
O95 Tb80 2.353 . S
O95 C89 1.263 . S
C96 O97 1.275 . S
C96 O98 1.246 . S
O97 Tb80 2.427 . S
O97 C96 1.275 . S
O98 Tb80 2.513 . S
O98 C96 1.246 . S
C99 O83 1.245 . S
C99 O84 1.259 . S
Tb100 O103 2.453 . S
Tb100 O104 2.596 . S
Tb100 O105 2.374 . S
Tb100 O113 2.343 . S
Tb100 O115 2.353 . S
Tb100 O117 2.427 . S
Tb100 O118 2.513 . S
C101 O105 1.251 . S
C101 O107 1.263 . S
Tb102 O104 2.343 . S
Tb102 O107 2.353 . S
Tb102 O110 2.427 . S
Tb102 O111 2.513 . S
Tb102 O112 2.453 . S
Tb102 O113 2.596 . S
Tb102 O114 2.374 . S
O103 Tb100 2.453 . S
O103 C119 1.245 . S
O104 Tb100 2.596 . S
O104 Tb102 2.343 . S
O104 C119 1.259 . S
O105 Tb100 2.374 . S
O105 C101 1.251 . S
C106 O110 1.275 . S
C106 O111 1.246 . S
O107 C101 1.263 . S
O107 Tb102 2.353 . S
C108 O112 1.245 . S
C108 O113 1.259 . S
C109 O114 1.250 . S
C109 O115 1.263 . S
O110 Tb102 2.427 . S
O110 C106 1.275 . S
O111 Tb102 2.513 . S
O111 C106 1.246 . S
O112 Tb102 2.453 . S
O112 C108 1.245 . S
O113 Tb100 2.343 . S
O113 Tb102 2.596 . S
O113 C108 1.259 . S
O114 Tb102 2.374 . S
O114 C109 1.250 . S
O115 Tb100 2.353 . S
O115 C109 1.263 . S
C116 O117 1.275 . S
C116 O118 1.246 . S
O117 Tb100 2.427 . S
O117 C116 1.275 . S
O118 Tb100 2.513 . S
O118 C116 1.246 . S
C119 O103 1.245 . S
C119 O104 1.259 . S
Tb120 O123 2.453 . S
Tb120 O124 2.596 . S
Tb120 O125 2.374 . S
Tb120 O133 2.343 . S
Tb120 O135 2.353 . S
Tb120 O137 2.427 . S
Tb120 O138 2.513 . S
C121 O125 1.251 . S
C121 O127 1.263 . S
Tb122 O124 2.343 . S
Tb122 O127 2.353 . S
Tb122 O130 2.427 . S
Tb122 O131 2.513 . S
Tb122 O132 2.453 . S
Tb122 O133 2.596 . S
Tb122 O134 2.374 . S
O123 Tb120 2.453 . S
O123 C139 1.245 . S
O124 Tb120 2.596 . S
O124 Tb122 2.343 . S
O124 C139 1.259 . S
O125 Tb120 2.374 . S
O125 C121 1.251 . S
C126 O130 1.275 . S
C126 O131 1.246 . S
O127 C121 1.263 . S
O127 Tb122 2.353 . S
C128 O132 1.245 . S
C128 O133 1.259 . S
C129 O134 1.250 . S
C129 O135 1.263 . S
O130 Tb122 2.427 . S
O130 C126 1.275 . S
O131 Tb122 2.513 . S
O131 C126 1.246 . S
O132 Tb122 2.453 . S
O132 C128 1.245 . S
O133 Tb120 2.343 . S
O133 Tb122 2.596 . S
O133 C128 1.259 . S
O134 Tb122 2.374 . S
O134 C129 1.250 . S
O135 Tb120 2.353 . S
O135 C129 1.263 . S
C136 O137 1.275 . S
C136 O138 1.246 . S
O137 Tb120 2.427 . S
O137 C136 1.275 . S
O138 Tb120 2.513 . S
O138 C136 1.246 . S
C139 O123 1.245 . S
C139 O124 1.259 . S
Tb140 O143 2.453 . S
Tb140 O144 2.596 . S
Tb140 O145 2.374 . S
Tb140 O153 2.343 . S
Tb140 O155 2.353 . S
Tb140 O157 2.427 . S
Tb140 O158 2.513 . S
C141 O145 1.251 . S
C141 O147 1.263 . S
Tb142 O144 2.343 . S
Tb142 O147 2.353 . S
Tb142 O150 2.427 . S
Tb142 O151 2.513 . S
Tb142 O152 2.453 . S
Tb142 O153 2.596 . S
Tb142 O154 2.374 . S
O143 Tb140 2.453 . S
O143 C159 1.245 . S
O144 Tb140 2.596 . S
O144 Tb142 2.343 . S
O144 C159 1.259 . S
O145 Tb140 2.374 . S
O145 C141 1.251 . S
C146 O150 1.275 . S
C146 O151 1.246 . S
O147 C141 1.263 . S
O147 Tb142 2.353 . S
C148 O152 1.245 . S
C148 O153 1.259 . S
C149 O154 1.250 . S
C149 O155 1.263 . S
O150 Tb142 2.427 . S
O150 C146 1.275 . S
O151 Tb142 2.513 . S
O151 C146 1.246 . S
O152 Tb142 2.453 . S
O152 C148 1.245 . S
O153 Tb140 2.343 . S
O153 Tb142 2.596 . S
O153 C148 1.259 . S
O154 Tb142 2.374 . S
O154 C149 1.250 . S
O155 Tb140 2.353 . S
O155 C149 1.263 . S
C156 O157 1.275 . S
C156 O158 1.246 . S
O157 Tb140 2.427 . S
O157 C156 1.275 . S
O158 Tb140 2.513 . S
O158 C156 1.246 . S
C159 O143 1.245 . S
C159 O144 1.259 . S
Co160 O163 2.042 . S
Co160 O170 2.264 . S
Co160 O189 2.286 . S
Co160 O190 2.069 . S
Co160 O192 2.015 1_455 S
Co161 O163 2.122 . S
Co161 O169 2.073 . S
Co161 O170 2.327 . S
Co161 O171 1.976 1_455 S
Co162 O163 2.080 1_545 S
Co162 O165 2.094 1_455 S
Co162 O172 2.108 1_445 S
Co162 O173 2.148 . S
Co162 O177 2.114 . S
Co162 O191 2.139 1_445 S
O163 Co160 2.042 . S
O163 Co161 2.122 . S
O163 Co162 2.080 1_565 S
O163 H164 0.980 . S
H164 O163 0.980 . S
O165 Co162 2.094 1_655 S
O165 Co166 2.042 . S
O165 Co167 2.122 . S
O165 H168 0.980 . S
Co166 O165 2.042 . S
Co166 O174 2.286 . S
Co166 O175 2.069 . S
Co166 O176 2.015 1_655 S
Co166 O179 2.264 . S
Co167 O165 2.122 . S
Co167 O178 1.976 1_655 S
Co167 O179 2.327 . S
Co167 O180 2.073 . S
H168 O165 0.980 . S
O169 Co161 2.073 . S
O169 C184 1.245 . S
O170 Co160 2.264 . S
O170 Co161 2.327 . S
O170 C184 1.257 . S
O171 Co161 1.976 1_655 S
O171 C183 1.251 . S
O172 Co162 2.108 1_665 S
O172 C183 1.274 . S
O173 Co162 2.148 . S
O173 C186 1.246 . S
O174 Co166 2.286 . S
O174 C185 1.259 . S
O175 Co166 2.069 . S
O175 C185 1.289 . S
O176 Co166 2.015 1_455 S
O176 C186 1.257 . S
O177 Co162 2.114 . S
O177 C187 1.274 . S
O178 Co167 1.976 1_455 S
O178 C187 1.251 . S
O179 Co166 2.264 . S
O179 Co167 2.327 . S
O179 C188 1.257 . S
O180 Co167 2.073 . S
O180 C188 1.245 . S
C181 O189 1.259 . S
C181 O190 1.289 . S
C182 O191 1.246 . S
C182 O192 1.257 . S
C183 O171 1.251 . S
C183 O172 1.274 . S
C184 O169 1.245 . S
C184 O170 1.257 . S
C185 O174 1.259 . S
C185 O175 1.289 . S
C186 O173 1.246 . S
C186 O176 1.257 . S
C187 O177 1.274 . S
C187 O178 1.251 . S
C188 O179 1.257 . S
C188 O180 1.245 . S
O189 Co160 2.286 . S
O189 C181 1.259 . S
O190 Co160 2.069 . S
O190 C181 1.289 . S
O191 Co162 2.139 1_665 S
O191 C182 1.246 . S
O192 Co160 2.015 1_655 S
O192 C182 1.257 . S
Co193 O196 2.042 1_556 S
Co193 O203 2.264 1_556 S
Co193 O222 2.286 . S
Co193 O223 2.069 . S
Co193 O225 2.015 . S
Co194 O196 2.122 . S
Co194 O202 2.073 . S
Co194 O203 2.327 . S
Co194 O204 1.976 . S
Co195 O196 2.080 1_545 S
Co195 O198 2.094 1_554 S
Co195 O205 2.109 1_545 S
Co195 O206 2.148 . S
Co195 O210 2.114 1_554 S
Co195 O224 2.139 1_544 S
O196 Co193 2.042 1_554 S
O196 Co194 2.122 . S
O196 Co195 2.080 1_565 S
O196 H197 0.980 . S
H197 O196 0.980 . S
O198 Co195 2.094 1_556 S
O198 Co199 2.042 1_556 S
O198 Co200 2.122 . S
O198 H201 0.980 . S
Co199 O198 2.042 1_554 S
Co199 O207 2.286 . S
Co199 O208 2.069 . S
Co199 O209 2.015 . S
Co199 O212 2.264 1_554 S
Co200 O198 2.122 . S
Co200 O211 1.976 . S
Co200 O212 2.327 . S
Co200 O213 2.073 . S
H201 O198 0.980 . S
O202 Co194 2.073 . S
O202 C217 1.245 . S
O203 Co193 2.264 1_554 S
O203 Co194 2.327 . S
O203 C217 1.257 . S
O204 Co194 1.976 . S
O204 C216 1.251 . S
O205 Co195 2.109 1_565 S
O205 C216 1.274 . S
O206 Co195 2.148 . S
O206 C219 1.246 . S
O207 Co199 2.286 . S
O207 C218 1.259 . S
O208 Co199 2.069 . S
O208 C218 1.289 . S
O209 Co199 2.015 . S
O209 C219 1.257 . S
O210 Co195 2.114 1_556 S
O210 C220 1.274 . S
O211 Co200 1.976 . S
O211 C220 1.251 . S
O212 Co199 2.264 1_556 S
O212 Co200 2.327 . S
O212 C221 1.257 . S
O213 Co200 2.073 . S
O213 C221 1.245 . S
C214 O222 1.259 . S
C214 O223 1.289 . S
C215 O224 1.246 . S
C215 O225 1.257 . S
C216 O204 1.251 . S
C216 O205 1.274 . S
C217 O202 1.245 . S
C217 O203 1.257 . S
C218 O207 1.259 . S
C218 O208 1.289 . S
C219 O206 1.246 . S
C219 O209 1.257 . S
C220 O210 1.274 . S
C220 O211 1.251 . S
C221 O212 1.257 . S
C221 O213 1.245 . S
O222 Co193 2.286 . S
O222 C214 1.259 . S
O223 Co193 2.069 . S
O223 C214 1.289 . S
O224 Co195 2.139 1_566 S
O224 C215 1.246 . S
O225 Co193 2.015 . S
O225 C215 1.257 . S
Co226 O229 2.042 1_556 S
Co226 O236 2.264 1_556 S
Co226 O255 2.286 . S
Co226 O256 2.069 . S
Co226 O258 2.015 1_455 S
Co227 O229 2.122 . S
Co227 O235 2.073 . S
Co227 O236 2.327 . S
Co227 O237 1.976 1_455 S
Co228 O229 2.087 . S
Co228 O231 2.087 1_454 S
Co228 O238 2.111 1_455 S
Co228 O239 2.144 . S
Co228 O243 2.111 1_554 S
Co228 O257 2.143 1_454 S
O229 Co226 2.042 1_554 S
O229 Co227 2.122 . S
O229 Co228 2.087 . S
O229 H230 0.980 . S
H230 O229 0.980 . S
O231 Co228 2.087 1_656 S
O231 Co232 2.042 1_556 S
O231 Co233 2.122 . S
O231 H234 0.980 . S
Co232 O231 2.042 1_554 S
Co232 O240 2.286 . S
Co232 O241 2.069 . S
Co232 O242 2.015 1_655 S
Co232 O245 2.264 1_554 S
Co233 O231 2.122 . S
Co233 O244 1.976 1_655 S
Co233 O245 2.327 . S
Co233 O246 2.073 . S
H234 O231 0.980 . S
O235 Co227 2.073 . S
O235 C250 1.245 . S
O236 Co226 2.264 1_554 S
O236 Co227 2.327 . S
O236 C250 1.257 . S
O237 Co227 1.976 1_655 S
O237 C249 1.251 . S
O238 Co228 2.111 1_655 S
O238 C249 1.274 . S
O239 Co228 2.144 . S
O239 C252 1.246 . S
O240 Co232 2.286 . S
O240 C251 1.259 . S
O241 Co232 2.069 . S
O241 C251 1.289 . S
O242 Co232 2.015 1_455 S
O242 C252 1.257 . S
O243 Co228 2.111 1_556 S
O243 C253 1.274 . S
O244 Co233 1.976 1_455 S
O244 C253 1.251 . S
O245 Co232 2.264 1_556 S
O245 Co233 2.327 . S
O245 C254 1.257 . S
O246 Co233 2.073 . S
O246 C254 1.245 . S
C247 O255 1.259 . S
C247 O256 1.289 . S
C248 O257 1.246 . S
C248 O258 1.257 . S
C249 O237 1.251 . S
C249 O238 1.274 . S
C250 O235 1.245 . S
C250 O236 1.257 . S
C251 O240 1.259 . S
C251 O241 1.289 . S
C252 O239 1.246 . S
C252 O242 1.257 . S
C253 O243 1.274 . S
C253 O244 1.251 . S
C254 O245 1.257 . S
C254 O246 1.245 . S
O255 Co226 2.286 . S
O255 C247 1.259 . S
O256 Co226 2.069 . S
O256 C247 1.289 . S
O257 Co228 2.143 1_656 S
O257 C248 1.246 . S
O258 Co226 2.015 1_655 S
O258 C248 1.257 . S
Co259 O262 2.042 1_556 S
Co259 O269 2.264 1_556 S
Co259 O288 2.286 . S
Co259 O289 2.069 . S
Co259 O291 2.015 . S
Co260 O262 2.122 . S
Co260 O268 2.073 . S
Co260 O269 2.327 . S
Co260 O270 1.976 . S
Co261 O262 2.087 . S
Co261 O264 2.087 1_554 S
Co261 O271 2.111 . S
Co261 O272 2.143 . S
Co261 O276 2.111 1_554 S
Co261 O290 2.143 1_554 S
O262 Co259 2.042 1_554 S
O262 Co260 2.122 . S
O262 Co261 2.087 . S
O262 H263 0.980 . S
H263 O262 0.980 . S
O264 Co261 2.087 1_556 S
O264 Co265 2.042 1_556 S
O264 Co266 2.122 . S
O264 H267 0.980 . S
Co265 O264 2.042 1_554 S
Co265 O273 2.286 . S
Co265 O274 2.069 . S
Co265 O275 2.015 . S
Co265 O278 2.264 1_554 S
Co266 O264 2.122 . S
Co266 O277 1.976 . S
Co266 O278 2.327 . S
Co266 O279 2.073 . S
H267 O264 0.980 . S
O268 Co260 2.073 . S
O268 C283 1.245 . S
O269 Co259 2.264 1_554 S
O269 Co260 2.327 . S
O269 C283 1.257 . S
O270 Co260 1.976 . S
O270 C282 1.251 . S
O271 Co261 2.111 . S
O271 C282 1.274 . S
O272 Co261 2.143 . S
O272 C285 1.246 . S
O273 Co265 2.286 . S
O273 C284 1.259 . S
O274 Co265 2.069 . S
O274 C284 1.289 . S
O275 Co265 2.015 . S
O275 C285 1.257 . S
O276 Co261 2.111 1_556 S
O276 C286 1.274 . S
O277 Co266 1.976 . S
O277 C286 1.251 . S
O278 Co265 2.264 1_556 S
O278 Co266 2.327 . S
O278 C287 1.257 . S
O279 Co266 2.073 . S
O279 C287 1.245 . S
C280 O288 1.259 . S
C280 O289 1.289 . S
C281 O290 1.246 . S
C281 O291 1.257 . S
C282 O270 1.251 . S
C282 O271 1.274 . S
C283 O268 1.245 . S
C283 O269 1.257 . S
C284 O273 1.259 . S
C284 O274 1.289 . S
C285 O272 1.246 . S
C285 O275 1.257 . S
C286 O276 1.274 . S
C286 O277 1.251 . S
C287 O278 1.257 . S
C287 O279 1.245 . S
O288 Co259 2.286 . S
O288 C280 1.259 . S
O289 Co259 2.069 . S
O289 C280 1.289 . S
O290 Co261 2.143 1_556 S
O290 C281 1.246 . S
O291 Co259 2.015 . S
O291 C281 1.257 . S
Co292 O295 2.042 . S
Co292 O302 2.264 . S
Co292 O321 2.286 . S
Co292 O322 2.069 . S
Co292 O324 2.015 . S
Co293 O295 2.122 . S
Co293 O301 2.073 . S
Co293 O302 2.327 . S
Co293 O303 1.976 . S
Co294 O295 2.087 . S
Co294 O297 2.087 1_455 S
Co294 O304 2.111 . S
Co294 O305 2.143 1_455 S
Co294 O309 2.111 1_455 S
Co294 O323 2.144 . S
O295 Co292 2.042 . S
O295 Co293 2.122 . S
O295 Co294 2.087 . S
O295 H296 0.980 . S
H296 O295 0.980 . S
O297 Co294 2.087 1_655 S
O297 Co298 2.042 . S
O297 Co299 2.122 . S
O297 H300 0.980 . S
Co298 O297 2.042 . S
Co298 O306 2.286 . S
Co298 O307 2.069 . S
Co298 O308 2.015 . S
Co298 O311 2.264 . S
Co299 O297 2.122 . S
Co299 O310 1.976 . S
Co299 O311 2.327 . S
Co299 O312 2.073 . S
H300 O297 0.980 . S
O301 Co293 2.073 . S
O301 C316 1.245 . S
O302 Co292 2.264 . S
O302 Co293 2.327 . S
O302 C316 1.257 . S
O303 Co293 1.976 . S
O303 C315 1.251 . S
O304 Co294 2.111 . S
O304 C315 1.274 . S
O305 Co294 2.143 1_655 S
O305 C318 1.246 . S
O306 Co298 2.286 . S
O306 C317 1.259 . S
O307 Co298 2.069 . S
O307 C317 1.289 . S
O308 Co298 2.015 . S
O308 C318 1.257 . S
O309 Co294 2.111 1_655 S
O309 C319 1.274 . S
O310 Co299 1.976 . S
O310 C319 1.251 . S
O311 Co298 2.264 . S
O311 Co299 2.327 . S
O311 C320 1.257 . S
O312 Co299 2.073 . S
O312 C320 1.245 . S
C313 O321 1.259 . S
C313 O322 1.289 . S
C314 O323 1.246 . S
C314 O324 1.257 . S
C315 O303 1.251 . S
C315 O304 1.274 . S
C316 O301 1.245 . S
C316 O302 1.257 . S
C317 O306 1.259 . S
C317 O307 1.289 . S
C318 O305 1.246 . S
C318 O308 1.257 . S
C319 O309 1.274 . S
C319 O310 1.251 . S
C320 O311 1.257 . S
C320 O312 1.245 . S
O321 Co292 2.286 . S
O321 C313 1.259 . S
O322 Co292 2.069 . S
O322 C313 1.289 . S
O323 Co294 2.144 . S
O323 C314 1.246 . S
O324 Co292 2.015 . S
O324 C314 1.257 . S
Co325 O328 2.042 . S
Co325 O335 2.264 . S
Co325 O354 2.286 . S
Co325 O355 2.069 . S
Co325 O357 2.015 1_565 S
Co326 O328 2.122 . S
Co326 O334 2.073 . S
Co326 O335 2.327 . S
Co326 O336 1.976 1_565 S
Co327 O328 2.080 1_545 S
Co327 O330 2.094 . S
Co327 O337 2.116 . S
Co327 O338 2.140 1_545 S
Co327 O342 2.106 1_545 S
Co327 O356 2.147 . S
O328 Co325 2.042 . S
O328 Co326 2.122 . S
O328 Co327 2.080 1_565 S
O328 H329 0.980 . S
H329 O328 0.980 . S
O330 Co327 2.094 . S
O330 Co331 2.042 . S
O330 Co332 2.122 . S
O330 H333 0.980 . S
Co331 O330 2.042 . S
Co331 O339 2.286 . S
Co331 O340 2.069 . S
Co331 O341 2.015 1_545 S
Co331 O344 2.264 . S
Co332 O330 2.122 . S
Co332 O343 1.976 1_545 S
Co332 O344 2.327 . S
Co332 O345 2.073 . S
H333 O330 0.980 . S
O334 Co326 2.073 . S
O334 C349 1.245 . S
O335 Co325 2.264 . S
O335 Co326 2.327 . S
O335 C349 1.257 . S
O336 Co326 1.976 1_545 S
O336 C348 1.251 . S
O337 Co327 2.116 . S
O337 C348 1.274 . S
O338 Co327 2.140 1_565 S
O338 C351 1.246 . S
O339 Co331 2.286 . S
O339 C350 1.259 . S
O340 Co331 2.069 . S
O340 C350 1.289 . S
O341 Co331 2.015 1_565 S
O341 C351 1.257 . S
O342 Co327 2.106 1_565 S
O342 C352 1.274 . S
O343 Co332 1.976 1_565 S
O343 C352 1.251 . S
O344 Co331 2.264 . S
O344 Co332 2.327 . S
O344 C353 1.257 . S
O345 Co332 2.073 . S
O345 C353 1.245 . S
C346 O354 1.259 . S
C346 O355 1.289 . S
C347 O356 1.246 . S
C347 O357 1.257 . S
C348 O336 1.251 . S
C348 O337 1.274 . S
C349 O334 1.245 . S
C349 O335 1.257 . S
C350 O339 1.259 . S
C350 O340 1.289 . S
C351 O338 1.246 . S
C351 O341 1.257 . S
C352 O342 1.274 . S
C352 O343 1.251 . S
C353 O344 1.257 . S
C353 O345 1.245 . S
O354 Co325 2.286 . S
O354 C346 1.259 . S
O355 Co325 2.069 . S
O355 C346 1.289 . S
O356 Co327 2.147 . S
O356 C347 1.246 . S
O357 Co325 2.015 1_545 S
O357 C347 1.257 . S
C358 C359 1.349 . S
C358 C360 1.327 . S
C358 H383 0.950 . S
C359 C358 1.349 . S
C359 C375 1.349 . S
C360 C358 1.327 . S
C360 C379 1.429 . S
C360 H384 0.950 . S
C361 C378 1.574 . S
C361 C380 1.368 . S
C361 H385 0.949 . S
H362 C366 0.949 . S
C363 C364 1.349 . S
C363 C365 1.327 . S
C363 H386 0.950 . S
C364 C363 1.349 . S
C364 C376 1.349 . S
C365 C363 1.327 . S
C365 C381 1.429 . S
C365 H387 0.950 . S
C366 H362 0.949 . S
C366 C374 1.574 . S
C366 C382 1.368 . S
H367 C375 0.950 . S
H368 C373 0.950 . S
H369 C374 0.949 . S
H370 C376 0.950 . S
H371 C377 0.950 . S
H372 C378 0.949 . S
C373 H368 0.950 . S
C373 C375 1.327 . S
C373 C379 1.429 . S
C374 C366 1.574 . S
C374 H369 0.949 . S
C374 C380 1.368 . S
C375 C359 1.349 . S
C375 H367 0.950 . S
C375 C373 1.327 . S
C376 C364 1.349 . S
C376 H370 0.950 . S
C376 C377 1.327 . S
C377 H371 0.950 . S
C377 C376 1.327 . S
C377 C381 1.429 . S
C378 C361 1.574 . S
C378 H372 0.949 . S
C378 C382 1.368 . S
C379 C360 1.429 . S
C379 C373 1.429 . S
C379 C380 1.523 . S
C380 C361 1.368 . S
C380 C374 1.368 . S
C380 C379 1.523 . S
C381 C365 1.429 . S
C381 C377 1.429 . S
C381 C382 1.523 . S
C382 C366 1.368 . S
C382 C378 1.368 . S
C382 C381 1.523 . S
H383 C358 0.950 . S
H384 C360 0.950 . S
H385 C361 0.949 . S
H386 C363 0.950 . S
H387 C365 0.950 . S
C388 C389 1.349 . S
C388 C390 1.327 . S
C388 H413 0.950 . S
C389 C388 1.349 . S
C389 C405 1.349 . S
C390 C388 1.327 . S
C390 C409 1.429 . S
C390 H414 0.950 . S
C391 C408 1.574 . S
C391 C410 1.368 . S
C391 H415 0.949 . S
H392 C396 0.949 . S
C393 C394 1.349 . S
C393 C395 1.327 . S
C393 H416 0.950 . S
C394 C393 1.349 . S
C394 C406 1.349 . S
C395 C393 1.327 . S
C395 C411 1.429 . S
C395 H417 0.950 . S
C396 H392 0.949 . S
C396 C404 1.574 . S
C396 C412 1.368 . S
H397 C405 0.950 . S
H398 C403 0.950 . S
H399 C404 0.949 . S
H400 C406 0.950 . S
H401 C407 0.950 . S
H402 C408 0.949 . S
C403 H398 0.950 . S
C403 C405 1.327 . S
C403 C409 1.429 . S
C404 C396 1.574 . S
C404 H399 0.949 . S
C404 C410 1.368 . S
C405 C389 1.349 . S
C405 H397 0.950 . S
C405 C403 1.327 . S
C406 C394 1.349 . S
C406 H400 0.950 . S
C406 C407 1.327 . S
C407 H401 0.950 . S
C407 C406 1.327 . S
C407 C411 1.429 . S
C408 C391 1.574 . S
C408 H402 0.949 . S
C408 C412 1.368 . S
C409 C390 1.429 . S
C409 C403 1.429 . S
C409 C410 1.523 . S
C410 C391 1.368 . S
C410 C404 1.368 . S
C410 C409 1.523 . S
C411 C395 1.429 . S
C411 C407 1.429 . S
C411 C412 1.523 . S
C412 C396 1.368 . S
C412 C408 1.368 . S
C412 C411 1.523 . S
H413 C388 0.950 . S
H414 C390 0.950 . S
H415 C391 0.949 . S
H416 C393 0.950 . S
H417 C395 0.950 . S
C418 C419 1.349 . S
C418 C420 1.327 . S
C418 H443 0.950 . S
C419 C418 1.349 . S
C419 C435 1.349 . S
C420 C418 1.327 . S
C420 C439 1.429 . S
C420 H444 0.950 . S
C421 C438 1.574 . S
C421 C440 1.368 . S
C421 H445 0.949 . S
H422 C426 0.949 . S
C423 C424 1.349 . S
C423 C425 1.327 . S
C423 H446 0.950 . S
C424 C423 1.349 . S
C424 C436 1.349 . S
C425 C423 1.327 . S
C425 C441 1.429 . S
C425 H447 0.950 . S
C426 H422 0.949 . S
C426 C434 1.574 . S
C426 C442 1.368 . S
H427 C435 0.950 . S
H428 C433 0.950 . S
H429 C434 0.949 . S
H430 C436 0.950 . S
H431 C437 0.950 . S
H432 C438 0.949 . S
C433 H428 0.950 . S
C433 C435 1.327 . S
C433 C439 1.429 . S
C434 C426 1.574 . S
C434 H429 0.949 . S
C434 C440 1.368 . S
C435 C419 1.349 . S
C435 H427 0.950 . S
C435 C433 1.327 . S
C436 C424 1.349 . S
C436 H430 0.950 . S
C436 C437 1.327 . S
C437 H431 0.950 . S
C437 C436 1.327 . S
C437 C441 1.429 . S
C438 C421 1.574 . S
C438 H432 0.949 . S
C438 C442 1.368 . S
C439 C420 1.429 . S
C439 C433 1.429 . S
C439 C440 1.523 . S
C440 C421 1.368 . S
C440 C434 1.368 . S
C440 C439 1.523 . S
C441 C425 1.429 . S
C441 C437 1.429 . S
C441 C442 1.523 . S
C442 C426 1.368 . S
C442 C438 1.368 . S
C442 C441 1.523 . S
H443 C418 0.950 . S
H444 C420 0.950 . S
H445 C421 0.949 . S
H446 C423 0.950 . S
H447 C425 0.950 . S
C448 C449 1.349 . S
C448 C450 1.327 . S
C448 H473 0.950 . S
C449 C448 1.349 . S
C449 C465 1.349 . S
C450 C448 1.327 . S
C450 C469 1.429 . S
C450 H474 0.950 . S
C451 C468 1.574 . S
C451 C470 1.368 . S
C451 H475 0.949 . S
H452 C456 0.949 . S
C453 C454 1.349 . S
C453 C455 1.327 . S
C453 H476 0.950 . S
C454 C453 1.349 . S
C454 C466 1.349 . S
C455 C453 1.327 . S
C455 C471 1.429 . S
C455 H477 0.950 . S
C456 H452 0.949 . S
C456 C464 1.574 . S
C456 C472 1.368 . S
H457 C465 0.950 . S
H458 C463 0.950 . S
H459 C464 0.949 . S
H460 C466 0.950 . S
H461 C467 0.950 . S
H462 C468 0.949 . S
C463 H458 0.950 . S
C463 C465 1.327 . S
C463 C469 1.429 . S
C464 C456 1.574 . S
C464 H459 0.949 . S
C464 C470 1.368 . S
C465 C449 1.349 . S
C465 H457 0.950 . S
C465 C463 1.327 . S
C466 C454 1.349 . S
C466 H460 0.950 . S
C466 C467 1.327 . S
C467 H461 0.950 . S
C467 C466 1.327 . S
C467 C471 1.429 . S
C468 C451 1.574 . S
C468 H462 0.949 . S
C468 C472 1.368 . S
C469 C450 1.429 . S
C469 C463 1.429 . S
C469 C470 1.523 . S
C470 C451 1.368 . S
C470 C464 1.368 . S
C470 C469 1.523 . S
C471 C455 1.429 . S
C471 C467 1.429 . S
C471 C472 1.523 . S
C472 C456 1.368 . S
C472 C468 1.368 . S
C472 C471 1.523 . S
H473 C448 0.950 . S
H474 C450 0.950 . S
H475 C451 0.949 . S
H476 C453 0.950 . S
H477 C455 0.950 . S
C478 C479 1.349 . S
C478 C480 1.327 . S
C478 H503 0.950 . S
C479 C478 1.349 . S
C479 C495 1.349 . S
C480 C478 1.327 . S
C480 C499 1.429 . S
C480 H504 0.950 . S
C481 C498 1.574 . S
C481 C500 1.368 . S
C481 H505 0.949 . S
H482 C486 0.949 . S
C483 C484 1.349 . S
C483 C485 1.327 . S
C483 H506 0.950 . S
C484 C483 1.349 . S
C484 C496 1.349 . S
C485 C483 1.327 . S
C485 C501 1.429 . S
C485 H507 0.950 . S
C486 H482 0.949 . S
C486 C494 1.574 . S
C486 C502 1.368 . S
H487 C495 0.950 . S
H488 C493 0.950 . S
H489 C494 0.949 . S
H490 C496 0.950 . S
H491 C497 0.950 . S
H492 C498 0.949 . S
C493 H488 0.950 . S
C493 C495 1.327 . S
C493 C499 1.429 . S
C494 C486 1.574 . S
C494 H489 0.949 . S
C494 C500 1.368 . S
C495 C479 1.349 . S
C495 H487 0.950 . S
C495 C493 1.327 . S
C496 C484 1.349 . S
C496 H490 0.950 . S
C496 C497 1.327 . S
C497 H491 0.950 . S
C497 C496 1.327 . S
C497 C501 1.429 . S
C498 C481 1.574 . S
C498 H492 0.949 . S
C498 C502 1.368 . S
C499 C480 1.429 . S
C499 C493 1.429 . S
C499 C500 1.523 . S
C500 C481 1.368 . S
C500 C494 1.368 . S
C500 C499 1.523 . S
C501 C485 1.429 . S
C501 C497 1.429 . S
C501 C502 1.523 . S
C502 C486 1.368 . S
C502 C498 1.368 . S
C502 C501 1.523 . S
H503 C478 0.950 . S
H504 C480 0.950 . S
H505 C481 0.949 . S
H506 C483 0.950 . S
H507 C485 0.950 . S
C508 C509 1.349 . S
C508 C510 1.327 . S
C508 H533 0.950 . S
C509 C508 1.349 . S
C509 C525 1.349 . S
C510 C508 1.327 . S
C510 C529 1.429 . S
C510 H534 0.950 . S
C511 C528 1.574 . S
C511 C530 1.368 . S
C511 H535 0.949 . S
H512 C516 0.949 . S
C513 C514 1.349 . S
C513 C515 1.327 . S
C513 H536 0.950 . S
C514 C513 1.349 . S
C514 C526 1.349 . S
C515 C513 1.327 . S
C515 C531 1.429 . S
C515 H537 0.950 . S
C516 H512 0.949 . S
C516 C524 1.574 . S
C516 C532 1.368 . S
H517 C525 0.950 . S
H518 C523 0.950 . S
H519 C524 0.949 . S
H520 C526 0.950 . S
H521 C527 0.950 . S
H522 C528 0.949 . S
C523 H518 0.950 . S
C523 C525 1.327 . S
C523 C529 1.429 . S
C524 C516 1.574 . S
C524 H519 0.949 . S
C524 C530 1.368 . S
C525 C509 1.349 . S
C525 H517 0.950 . S
C525 C523 1.327 . S
C526 C514 1.349 . S
C526 H520 0.950 . S
C526 C527 1.327 . S
C527 H521 0.950 . S
C527 C526 1.327 . S
C527 C531 1.429 . S
C528 C511 1.574 . S
C528 H522 0.949 . S
C528 C532 1.368 . S
C529 C510 1.429 . S
C529 C523 1.429 . S
C529 C530 1.523 . S
C530 C511 1.368 . S
C530 C524 1.368 . S
C530 C529 1.523 . S
C531 C515 1.429 . S
C531 C527 1.429 . S
C531 C532 1.523 . S
C532 C516 1.368 . S
C532 C528 1.368 . S
C532 C531 1.523 . S
H533 C508 0.950 . S
H534 C510 0.950 . S
H535 C511 0.949 . S
H536 C513 0.950 . S
H537 C515 0.950 . S
C538 C539 1.349 . S
C538 C540 1.327 . S
C538 H563 0.950 . S
C539 C538 1.349 . S
C539 C555 1.349 . S
C540 C538 1.327 . S
C540 C559 1.429 . S
C540 H564 0.950 . S
C541 C558 1.574 . S
C541 C560 1.368 . S
C541 H565 0.949 . S
H542 C546 0.949 . S
C543 C544 1.349 . S
C543 C545 1.327 . S
C543 H566 0.950 . S
C544 C543 1.349 . S
C544 C556 1.349 . S
C545 C543 1.327 . S
C545 C561 1.429 . S
C545 H567 0.950 . S
C546 H542 0.949 . S
C546 C554 1.574 . S
C546 C562 1.368 . S
H547 C555 0.950 . S
H548 C553 0.950 . S
H549 C554 0.949 . S
H550 C556 0.950 . S
H551 C557 0.950 . S
H552 C558 0.949 . S
C553 H548 0.950 . S
C553 C555 1.327 . S
C553 C559 1.429 . S
C554 C546 1.574 . S
C554 H549 0.949 . S
C554 C560 1.368 . S
C555 C539 1.349 . S
C555 H547 0.950 . S
C555 C553 1.327 . S
C556 C544 1.349 . S
C556 H550 0.950 . S
C556 C557 1.327 . S
C557 H551 0.950 . S
C557 C556 1.327 . S
C557 C561 1.429 . S
C558 C541 1.574 . S
C558 H552 0.949 . S
C558 C562 1.368 . S
C559 C540 1.429 . S
C559 C553 1.429 . S
C559 C560 1.523 . S
C560 C541 1.368 . S
C560 C554 1.368 . S
C560 C559 1.523 . S
C561 C545 1.429 . S
C561 C557 1.429 . S
C561 C562 1.523 . S
C562 C546 1.368 . S
C562 C558 1.368 . S
C562 C561 1.523 . S
H563 C538 0.950 . S
H564 C540 0.950 . S
H565 C541 0.949 . S
H566 C543 0.950 . S
H567 C545 0.950 . S
C568 C569 1.349 . S
C568 C570 1.327 . S
C568 H593 0.950 . S
C569 C568 1.349 . S
C569 C585 1.349 . S
C570 C568 1.327 . S
C570 C589 1.429 . S
C570 H594 0.950 . S
C571 C588 1.574 . S
C571 C590 1.368 . S
C571 H595 0.949 . S
H572 C576 0.949 . S
C573 C574 1.349 . S
C573 C575 1.327 . S
C573 H596 0.950 . S
C574 C573 1.349 . S
C574 C586 1.349 . S
C575 C573 1.327 . S
C575 C591 1.429 . S
C575 H597 0.950 . S
C576 H572 0.949 . S
C576 C584 1.574 . S
C576 C592 1.368 . S
H577 C585 0.950 . S
H578 C583 0.950 . S
H579 C584 0.949 . S
H580 C586 0.950 . S
H581 C587 0.950 . S
H582 C588 0.949 . S
C583 H578 0.950 . S
C583 C585 1.327 . S
C583 C589 1.429 . S
C584 C576 1.574 . S
C584 H579 0.949 . S
C584 C590 1.368 . S
C585 C569 1.349 . S
C585 H577 0.950 . S
C585 C583 1.327 . S
C586 C574 1.349 . S
C586 H580 0.950 . S
C586 C587 1.327 . S
C587 H581 0.950 . S
C587 C586 1.327 . S
C587 C591 1.429 . S
C588 C571 1.574 . S
C588 H582 0.949 . S
C588 C592 1.368 . S
C589 C570 1.429 . S
C589 C583 1.429 . S
C589 C590 1.523 . S
C590 C571 1.368 . S
C590 C584 1.368 . S
C590 C589 1.523 . S
C591 C575 1.429 . S
C591 C587 1.429 . S
C591 C592 1.523 . S
C592 C576 1.368 . S
C592 C588 1.368 . S
C592 C591 1.523 . S
H593 C568 0.950 . S
H594 C570 0.950 . S
H595 C571 0.949 . S
H596 C573 0.950 . S
H597 C575 0.950 . S
C598 C599 1.349 . S
C598 C600 1.327 . S
C598 H623 0.950 . S
C599 C598 1.349 . S
C599 C615 1.349 . S
C600 C598 1.327 . S
C600 C619 1.429 . S
C600 H624 0.950 . S
C601 C618 1.574 . S
C601 C620 1.368 . S
C601 H625 0.949 . S
H602 C606 0.949 . S
C603 C604 1.349 . S
C603 C605 1.327 . S
C603 H626 0.950 . S
C604 C603 1.349 . S
C604 C616 1.349 . S
C605 C603 1.327 . S
C605 C621 1.429 . S
C605 H627 0.950 . S
C606 H602 0.949 . S
C606 C614 1.574 . S
C606 C622 1.368 . S
H607 C615 0.950 . S
H608 C613 0.950 . S
H609 C614 0.949 . S
H610 C616 0.950 . S
H611 C617 0.950 . S
H612 C618 0.949 . S
C613 H608 0.950 . S
C613 C615 1.327 . S
C613 C619 1.429 . S
C614 C606 1.574 . S
C614 H609 0.949 . S
C614 C620 1.368 . S
C615 C599 1.349 . S
C615 H607 0.950 . S
C615 C613 1.327 . S
C616 C604 1.349 . S
C616 H610 0.950 . S
C616 C617 1.327 . S
C617 H611 0.950 . S
C617 C616 1.327 . S
C617 C621 1.429 . S
C618 C601 1.574 . S
C618 H612 0.949 . S
C618 C622 1.368 . S
C619 C600 1.429 . S
C619 C613 1.429 . S
C619 C620 1.523 . S
C620 C601 1.368 . S
C620 C614 1.368 . S
C620 C619 1.523 . S
C621 C605 1.429 . S
C621 C617 1.429 . S
C621 C622 1.523 . S
C622 C606 1.368 . S
C622 C618 1.368 . S
C622 C621 1.523 . S
H623 C598 0.950 . S
H624 C600 0.950 . S
H625 C601 0.949 . S
H626 C603 0.950 . S
H627 C605 0.950 . S
C628 C629 1.349 . S
C628 C630 1.327 . S
C628 H653 0.950 . S
C629 C628 1.349 . S
C629 C645 1.349 . S
C630 C628 1.327 . S
C630 C649 1.429 . S
C630 H654 0.950 . S
C631 C648 1.574 . S
C631 C650 1.368 . S
C631 H655 0.949 . S
H632 C636 0.949 . S
C633 C634 1.349 . S
C633 C635 1.327 . S
C633 H656 0.950 . S
C634 C633 1.349 . S
C634 C646 1.349 . S
C635 C633 1.327 . S
C635 C651 1.429 . S
C635 H657 0.950 . S
C636 H632 0.949 . S
C636 C644 1.574 . S
C636 C652 1.368 . S
H637 C645 0.950 . S
H638 C643 0.950 . S
H639 C644 0.949 . S
H640 C646 0.950 . S
H641 C647 0.950 . S
H642 C648 0.949 . S
C643 H638 0.950 . S
C643 C645 1.327 . S
C643 C649 1.429 . S
C644 C636 1.574 . S
C644 H639 0.949 . S
C644 C650 1.368 . S
C645 C629 1.349 . S
C645 H637 0.950 . S
C645 C643 1.327 . S
C646 C634 1.349 . S
C646 H640 0.950 . S
C646 C647 1.327 . S
C647 H641 0.950 . S
C647 C646 1.327 . S
C647 C651 1.429 . S
C648 C631 1.574 . S
C648 H642 0.949 . S
C648 C652 1.368 . S
C649 C630 1.429 . S
C649 C643 1.429 . S
C649 C650 1.523 . S
C650 C631 1.368 . S
C650 C644 1.368 . S
C650 C649 1.523 . S
C651 C635 1.429 . S
C651 C647 1.429 . S
C651 C652 1.523 . S
C652 C636 1.368 . S
C652 C648 1.368 . S
C652 C651 1.523 . S
H653 C628 0.950 . S
H654 C630 0.950 . S
H655 C631 0.949 . S
H656 C633 0.950 . S
H657 C635 0.950 . S
C658 C659 1.349 . S
C658 C660 1.327 . S
C658 H683 0.950 . S
C659 C658 1.349 . S
C659 C675 1.349 . S
C660 C658 1.327 . S
C660 C679 1.429 . S
C660 H684 0.950 . S
C661 C678 1.574 . S
C661 C680 1.368 . S
C661 H685 0.949 . S
H662 C666 0.949 . S
C663 C664 1.349 . S
C663 C665 1.327 . S
C663 H686 0.950 . S
C664 C663 1.349 . S
C664 C676 1.349 . S
C665 C663 1.327 . S
C665 C681 1.429 . S
C665 H687 0.950 . S
C666 H662 0.949 . S
C666 C674 1.574 . S
C666 C682 1.368 . S
H667 C675 0.950 . S
H668 C673 0.950 . S
H669 C674 0.949 . S
H670 C676 0.950 . S
H671 C677 0.950 . S
H672 C678 0.949 . S
C673 H668 0.950 . S
C673 C675 1.327 . S
C673 C679 1.429 . S
C674 C666 1.574 . S
C674 H669 0.949 . S
C674 C680 1.368 . S
C675 C659 1.349 . S
C675 H667 0.950 . S
C675 C673 1.327 . S
C676 C664 1.349 . S
C676 H670 0.950 . S
C676 C677 1.327 . S
C677 H671 0.950 . S
C677 C676 1.327 . S
C677 C681 1.429 . S
C678 C661 1.574 . S
C678 H672 0.949 . S
C678 C682 1.368 . S
C679 C660 1.429 . S
C679 C673 1.429 . S
C679 C680 1.523 . S
C680 C661 1.368 . S
C680 C674 1.368 . S
C680 C679 1.523 . S
C681 C665 1.429 . S
C681 C677 1.429 . S
C681 C682 1.523 . S
C682 C666 1.368 . S
C682 C678 1.368 . S
C682 C681 1.523 . S
H683 C658 0.950 . S
H684 C660 0.950 . S
H685 C661 0.949 . S
H686 C663 0.950 . S
H687 C665 0.950 . S
C688 C689 1.349 . S
C688 C690 1.327 . S
C688 H713 0.950 . S
C689 C688 1.349 . S
C689 C705 1.349 . S
C690 C688 1.327 . S
C690 C709 1.429 . S
C690 H714 0.950 . S
C691 C708 1.574 . S
C691 C710 1.368 . S
C691 H715 0.949 . S
H692 C696 0.949 . S
C693 C694 1.349 . S
C693 C695 1.327 . S
C693 H716 0.950 . S
C694 C693 1.349 . S
C694 C706 1.349 . S
C695 C693 1.327 . S
C695 C711 1.429 . S
C695 H717 0.950 . S
C696 H692 0.949 . S
C696 C704 1.574 . S
C696 C712 1.368 . S
H697 C705 0.950 . S
H698 C703 0.950 . S
H699 C704 0.949 . S
H700 C706 0.950 . S
H701 C707 0.950 . S
H702 C708 0.949 . S
C703 H698 0.950 . S
C703 C705 1.327 . S
C703 C709 1.429 . S
C704 C696 1.574 . S
C704 H699 0.949 . S
C704 C710 1.368 . S
C705 C689 1.349 . S
C705 H697 0.950 . S
C705 C703 1.327 . S
C706 C694 1.349 . S
C706 H700 0.950 . S
C706 C707 1.327 . S
C707 H701 0.950 . S
C707 C706 1.327 . S
C707 C711 1.429 . S
C708 C691 1.574 . S
C708 H702 0.949 . S
C708 C712 1.368 . S
C709 C690 1.429 . S
C709 C703 1.429 . S
C709 C710 1.523 . S
C710 C691 1.368 . S
C710 C704 1.368 . S
C710 C709 1.523 . S
C711 C695 1.429 . S
C711 C707 1.429 . S
C711 C712 1.523 . S
C712 C696 1.368 . S
C712 C708 1.368 . S
C712 C711 1.523 . S
H713 C688 0.950 . S
H714 C690 0.950 . S
H715 C691 0.949 . S
H716 C693 0.950 . S
H717 C695 0.950 . S
C718 C719 1.349 . S
C718 C720 1.327 . S
C718 H743 0.950 . S
C719 C718 1.349 . S
C719 C735 1.349 . S
C720 C718 1.327 . S
C720 C739 1.429 . S
C720 H744 0.950 . S
C721 C738 1.574 . S
C721 C740 1.368 . S
C721 H745 0.949 . S
H722 C726 0.949 . S
C723 C724 1.349 . S
C723 C725 1.327 . S
C723 H746 0.950 . S
C724 C723 1.349 . S
C724 C736 1.349 . S
C725 C723 1.327 . S
C725 C741 1.429 . S
C725 H747 0.950 . S
C726 H722 0.949 . S
C726 C734 1.574 . S
C726 C742 1.368 . S
H727 C735 0.950 . S
H728 C733 0.950 . S
H729 C734 0.949 . S
H730 C736 0.950 . S
H731 C737 0.950 . S
H732 C738 0.949 . S
C733 H728 0.950 . S
C733 C735 1.327 . S
C733 C739 1.429 . S
C734 C726 1.574 . S
C734 H729 0.949 . S
C734 C740 1.368 . S
C735 C719 1.349 . S
C735 H727 0.950 . S
C735 C733 1.327 . S
C736 C724 1.349 . S
C736 H730 0.950 . S
C736 C737 1.327 . S
C737 H731 0.950 . S
C737 C736 1.327 . S
C737 C741 1.429 . S
C738 C721 1.574 . S
C738 H732 0.949 . S
C738 C742 1.368 . S
C739 C720 1.429 . S
C739 C733 1.429 . S
C739 C740 1.523 . S
C740 C721 1.368 . S
C740 C734 1.368 . S
C740 C739 1.523 . S
C741 C725 1.429 . S
C741 C737 1.429 . S
C741 C742 1.523 . S
C742 C726 1.368 . S
C742 C738 1.368 . S
C742 C741 1.523 . S
H743 C718 0.950 . S
H744 C720 0.950 . S
H745 C721 0.949 . S
H746 C723 0.950 . S
H747 C725 0.950 . S
C748 C749 1.349 . S
C748 C750 1.327 . S
C748 H773 0.950 . S
C749 C748 1.349 . S
C749 C765 1.349 . S
C750 C748 1.327 . S
C750 C769 1.429 . S
C750 H774 0.950 . S
C751 C768 1.574 . S
C751 C770 1.368 . S
C751 H775 0.949 . S
H752 C756 0.949 . S
C753 C754 1.349 . S
C753 C755 1.327 . S
C753 H776 0.950 . S
C754 C753 1.349 . S
C754 C766 1.349 . S
C755 C753 1.327 . S
C755 C771 1.429 . S
C755 H777 0.950 . S
C756 H752 0.949 . S
C756 C764 1.574 . S
C756 C772 1.368 . S
H757 C765 0.950 . S
H758 C763 0.950 . S
H759 C764 0.949 . S
H760 C766 0.950 . S
H761 C767 0.950 . S
H762 C768 0.949 . S
C763 H758 0.950 . S
C763 C765 1.327 . S
C763 C769 1.429 . S
C764 C756 1.574 . S
C764 H759 0.949 . S
C764 C770 1.368 . S
C765 C749 1.349 . S
C765 H757 0.950 . S
C765 C763 1.327 . S
C766 C754 1.349 . S
C766 H760 0.950 . S
C766 C767 1.327 . S
C767 H761 0.950 . S
C767 C766 1.327 . S
C767 C771 1.429 . S
C768 C751 1.574 . S
C768 H762 0.949 . S
C768 C772 1.368 . S
C769 C750 1.429 . S
C769 C763 1.429 . S
C769 C770 1.523 . S
C770 C751 1.368 . S
C770 C764 1.368 . S
C770 C769 1.523 . S
C771 C755 1.429 . S
C771 C767 1.429 . S
C771 C772 1.523 . S
C772 C756 1.368 . S
C772 C768 1.368 . S
C772 C771 1.523 . S
H773 C748 0.950 . S
H774 C750 0.950 . S
H775 C751 0.949 . S
H776 C753 0.950 . S
H777 C755 0.950 . S
C778 C779 1.349 . S
C778 C780 1.327 . S
C778 H803 0.950 . S
C779 C778 1.349 . S
C779 C795 1.349 . S
C780 C778 1.327 . S
C780 C799 1.429 . S
C780 H804 0.950 . S
C781 C798 1.574 . S
C781 C800 1.368 . S
C781 H805 0.949 . S
H782 C786 0.949 . S
C783 C784 1.349 . S
C783 C785 1.327 . S
C783 H806 0.950 . S
C784 C783 1.349 . S
C784 C796 1.349 . S
C785 C783 1.327 . S
C785 C801 1.429 . S
C785 H807 0.950 . S
C786 H782 0.949 . S
C786 C794 1.574 . S
C786 C802 1.368 . S
H787 C795 0.950 . S
H788 C793 0.950 . S
H789 C794 0.949 . S
H790 C796 0.950 . S
H791 C797 0.950 . S
H792 C798 0.949 . S
C793 H788 0.950 . S
C793 C795 1.327 . S
C793 C799 1.429 . S
C794 C786 1.574 . S
C794 H789 0.949 . S
C794 C800 1.368 . S
C795 C779 1.349 . S
C795 H787 0.950 . S
C795 C793 1.327 . S
C796 C784 1.349 . S
C796 H790 0.950 . S
C796 C797 1.327 . S
C797 H791 0.950 . S
C797 C796 1.327 . S
C797 C801 1.429 . S
C798 C781 1.574 . S
C798 H792 0.949 . S
C798 C802 1.368 . S
C799 C780 1.429 . S
C799 C793 1.429 . S
C799 C800 1.523 . S
C800 C781 1.368 . S
C800 C794 1.368 . S
C800 C799 1.523 . S
C801 C785 1.429 . S
C801 C797 1.429 . S
C801 C802 1.523 . S
C802 C786 1.368 . S
C802 C798 1.368 . S
C802 C801 1.523 . S
H803 C778 0.950 . S
H804 C780 0.950 . S
H805 C781 0.949 . S
H806 C783 0.950 . S
H807 C785 0.950 . S
C808 C809 1.349 . S
C808 C810 1.327 . S
C808 H833 0.950 . S
C809 C808 1.349 . S
C809 C825 1.349 . S
C810 C808 1.327 . S
C810 C829 1.429 . S
C810 H834 0.950 . S
C811 C828 1.574 . S
C811 C830 1.368 . S
C811 H835 0.949 . S
H812 C816 0.949 . S
C813 C814 1.349 . S
C813 C815 1.327 . S
C813 H836 0.950 . S
C814 C813 1.349 . S
C814 C826 1.349 . S
C815 C813 1.327 . S
C815 C831 1.429 . S
C815 H837 0.950 . S
C816 H812 0.949 . S
C816 C824 1.574 . S
C816 C832 1.368 . S
H817 C825 0.950 . S
H818 C823 0.950 . S
H819 C824 0.949 . S
H820 C826 0.950 . S
H821 C827 0.950 . S
H822 C828 0.949 . S
C823 H818 0.950 . S
C823 C825 1.327 . S
C823 C829 1.429 . S
C824 C816 1.574 . S
C824 H819 0.949 . S
C824 C830 1.368 . S
C825 C809 1.349 . S
C825 H817 0.950 . S
C825 C823 1.327 . S
C826 C814 1.349 . S
C826 H820 0.950 . S
C826 C827 1.327 . S
C827 H821 0.950 . S
C827 C826 1.327 . S
C827 C831 1.429 . S
C828 C811 1.574 . S
C828 H822 0.949 . S
C828 C832 1.368 . S
C829 C810 1.429 . S
C829 C823 1.429 . S
C829 C830 1.523 . S
C830 C811 1.368 . S
C830 C824 1.368 . S
C830 C829 1.523 . S
C831 C815 1.429 . S
C831 C827 1.429 . S
C831 C832 1.523 . S
C832 C816 1.368 . S
C832 C828 1.368 . S
C832 C831 1.523 . S
H833 C808 0.950 . S
H834 C810 0.950 . S
H835 C811 0.949 . S
H836 C813 0.950 . S
H837 C815 0.950 . S
C838 C839 1.349 . S
C838 C840 1.327 . S
C838 H863 0.950 . S
C839 C838 1.349 . S
C839 C855 1.349 . S
C840 C838 1.327 . S
C840 C859 1.429 . S
C840 H864 0.950 . S
C841 C858 1.574 . S
C841 C860 1.368 . S
C841 H865 0.949 . S
H842 C846 0.949 . S
C843 C844 1.349 . S
C843 C845 1.327 . S
C843 H866 0.950 . S
C844 C843 1.349 . S
C844 C856 1.349 . S
C845 C843 1.327 . S
C845 C861 1.429 . S
C845 H867 0.950 . S
C846 H842 0.949 . S
C846 C854 1.574 . S
C846 C862 1.368 . S
H847 C855 0.950 . S
H848 C853 0.950 . S
H849 C854 0.949 . S
H850 C856 0.950 . S
H851 C857 0.950 . S
H852 C858 0.949 . S
C853 H848 0.950 . S
C853 C855 1.327 . S
C853 C859 1.429 . S
C854 C846 1.574 . S
C854 H849 0.949 . S
C854 C860 1.368 . S
C855 C839 1.349 . S
C855 H847 0.950 . S
C855 C853 1.327 . S
C856 C844 1.349 . S
C856 H850 0.950 . S
C856 C857 1.327 . S
C857 H851 0.950 . S
C857 C856 1.327 . S
C857 C861 1.429 . S
C858 C841 1.574 . S
C858 H852 0.949 . S
C858 C862 1.368 . S
C859 C840 1.429 . S
C859 C853 1.429 . S
C859 C860 1.523 . S
C860 C841 1.368 . S
C860 C854 1.368 . S
C860 C859 1.523 . S
C861 C845 1.429 . S
C861 C857 1.429 . S
C861 C862 1.523 . S
C862 C846 1.368 . S
C862 C858 1.368 . S
C862 C861 1.523 . S
H863 C838 0.950 . S
H864 C840 0.950 . S
H865 C841 0.949 . S
H866 C843 0.950 . S
H867 C845 0.950 . S
C868 C869 1.349 . S
C868 C870 1.327 . S
C868 H893 0.950 . S
C869 C868 1.349 . S
C869 C885 1.349 . S
C870 C868 1.327 . S
C870 C889 1.429 . S
C870 H894 0.950 . S
C871 C888 1.574 . S
C871 C890 1.368 . S
C871 H895 0.949 . S
H872 C876 0.949 . S
C873 C874 1.349 . S
C873 C875 1.327 . S
C873 H896 0.950 . S
C874 C873 1.349 . S
C874 C886 1.349 . S
C875 C873 1.327 . S
C875 C891 1.429 . S
C875 H897 0.950 . S
C876 H872 0.949 . S
C876 C884 1.574 . S
C876 C892 1.368 . S
H877 C885 0.950 . S
H878 C883 0.950 . S
H879 C884 0.949 . S
H880 C886 0.950 . S
H881 C887 0.950 . S
H882 C888 0.949 . S
C883 H878 0.950 . S
C883 C885 1.327 . S
C883 C889 1.429 . S
C884 C876 1.574 . S
C884 H879 0.949 . S
C884 C890 1.368 . S
C885 C869 1.349 . S
C885 H877 0.950 . S
C885 C883 1.327 . S
C886 C874 1.349 . S
C886 H880 0.950 . S
C886 C887 1.327 . S
C887 H881 0.950 . S
C887 C886 1.327 . S
C887 C891 1.429 . S
C888 C871 1.574 . S
C888 H882 0.949 . S
C888 C892 1.368 . S
C889 C870 1.429 . S
C889 C883 1.429 . S
C889 C890 1.523 . S
C890 C871 1.368 . S
C890 C884 1.368 . S
C890 C889 1.523 . S
C891 C875 1.429 . S
C891 C887 1.429 . S
C891 C892 1.523 . S
C892 C876 1.368 . S
C892 C888 1.368 . S
C892 C891 1.523 . S
H893 C868 0.950 . S
H894 C870 0.950 . S
H895 C871 0.949 . S
H896 C873 0.950 . S
H897 C875 0.950 . S
C898 C899 1.349 . S
C898 C900 1.327 . S
C898 H923 0.950 . S
C899 C898 1.349 . S
C899 C915 1.349 . S
C900 C898 1.327 . S
C900 C919 1.429 . S
C900 H924 0.950 . S
C901 C918 1.574 . S
C901 C920 1.368 . S
C901 H925 0.949 . S
H902 C906 0.949 . S
C903 C904 1.349 . S
C903 C905 1.327 . S
C903 H926 0.950 . S
C904 C903 1.349 . S
C904 C916 1.349 . S
C905 C903 1.327 . S
C905 C921 1.429 . S
C905 H927 0.950 . S
C906 H902 0.949 . S
C906 C914 1.574 . S
C906 C922 1.368 . S
H907 C915 0.950 . S
H908 C913 0.950 . S
H909 C914 0.949 . S
H910 C916 0.950 . S
H911 C917 0.950 . S
H912 C918 0.949 . S
C913 H908 0.950 . S
C913 C915 1.327 . S
C913 C919 1.429 . S
C914 C906 1.574 . S
C914 H909 0.949 . S
C914 C920 1.368 . S
C915 C899 1.349 . S
C915 H907 0.950 . S
C915 C913 1.327 . S
C916 C904 1.349 . S
C916 H910 0.950 . S
C916 C917 1.327 . S
C917 H911 0.950 . S
C917 C916 1.327 . S
C917 C921 1.429 . S
C918 C901 1.574 . S
C918 H912 0.949 . S
C918 C922 1.368 . S
C919 C900 1.429 . S
C919 C913 1.429 . S
C919 C920 1.523 . S
C920 C901 1.368 . S
C920 C914 1.368 . S
C920 C919 1.523 . S
C921 C905 1.429 . S
C921 C917 1.429 . S
C921 C922 1.523 . S
C922 C906 1.368 . S
C922 C918 1.368 . S
C922 C921 1.523 . S
H923 C898 0.950 . S
H924 C900 0.950 . S
H925 C901 0.949 . S
H926 C903 0.950 . S
H927 C905 0.950 . S
C928 C929 1.349 . S
C928 C930 1.327 . S
C928 H953 0.950 . S
C929 C928 1.349 . S
C929 C945 1.349 . S
C930 C928 1.327 . S
C930 C949 1.429 . S
C930 H954 0.950 . S
C931 C948 1.574 . S
C931 C950 1.368 . S
C931 H955 0.949 . S
H932 C936 0.949 . S
C933 C934 1.349 . S
C933 C935 1.327 . S
C933 H956 0.950 . S
C934 C933 1.349 . S
C934 C946 1.349 . S
C935 C933 1.327 . S
C935 C951 1.429 . S
C935 H957 0.950 . S
C936 H932 0.949 . S
C936 C944 1.574 . S
C936 C952 1.368 . S
H937 C945 0.950 . S
H938 C943 0.950 . S
H939 C944 0.949 . S
H940 C946 0.950 . S
H941 C947 0.950 . S
H942 C948 0.949 . S
C943 H938 0.950 . S
C943 C945 1.327 . S
C943 C949 1.429 . S
C944 C936 1.574 . S
C944 H939 0.949 . S
C944 C950 1.368 . S
C945 C929 1.349 . S
C945 H937 0.950 . S
C945 C943 1.327 . S
C946 C934 1.349 . S
C946 H940 0.950 . S
C946 C947 1.327 . S
C947 H941 0.950 . S
C947 C946 1.327 . S
C947 C951 1.429 . S
C948 C931 1.574 . S
C948 H942 0.949 . S
C948 C952 1.368 . S
C949 C930 1.429 . S
C949 C943 1.429 . S
C949 C950 1.523 . S
C950 C931 1.368 . S
C950 C944 1.368 . S
C950 C949 1.523 . S
C951 C935 1.429 . S
C951 C947 1.429 . S
C951 C952 1.523 . S
C952 C936 1.368 . S
C952 C948 1.368 . S
C952 C951 1.523 . S
H953 C928 0.950 . S
H954 C930 0.950 . S
H955 C931 0.949 . S
H956 C933 0.950 . S
H957 C935 0.950 . S
C958 C959 1.349 . S
C958 C960 1.327 . S
C958 H983 0.950 . S
C959 C958 1.349 . S
C959 C975 1.349 . S
C960 C958 1.327 . S
C960 C979 1.429 . S
C960 H984 0.950 . S
C961 C978 1.574 . S
C961 C980 1.368 . S
C961 H985 0.949 . S
H962 C966 0.949 . S
C963 C964 1.349 . S
C963 C965 1.327 . S
C963 H986 0.950 . S
C964 C963 1.349 . S
C964 C976 1.349 . S
C965 C963 1.327 . S
C965 C981 1.429 . S
C965 H987 0.950 . S
C966 H962 0.949 . S
C966 C974 1.574 . S
C966 C982 1.368 . S
H967 C975 0.950 . S
H968 C973 0.950 . S
H969 C974 0.949 . S
H970 C976 0.950 . S
H971 C977 0.950 . S
H972 C978 0.949 . S
C973 H968 0.950 . S
C973 C975 1.327 . S
C973 C979 1.429 . S
C974 C966 1.574 . S
C974 H969 0.949 . S
C974 C980 1.368 . S
C975 C959 1.349 . S
C975 H967 0.950 . S
C975 C973 1.327 . S
C976 C964 1.349 . S
C976 H970 0.950 . S
C976 C977 1.327 . S
C977 H971 0.950 . S
C977 C976 1.327 . S
C977 C981 1.429 . S
C978 C961 1.574 . S
C978 H972 0.949 . S
C978 C982 1.368 . S
C979 C960 1.429 . S
C979 C973 1.429 . S
C979 C980 1.523 . S
C980 C961 1.368 . S
C980 C974 1.368 . S
C980 C979 1.523 . S
C981 C965 1.429 . S
C981 C977 1.429 . S
C981 C982 1.523 . S
C982 C966 1.368 . S
C982 C978 1.368 . S
C982 C981 1.523 . S
H983 C958 0.950 . S
H984 C960 0.950 . S
H985 C961 0.949 . S
H986 C963 0.950 . S
H987 C965 0.950 . S
C988 C989 1.349 . S
C988 C990 1.327 . S
C988 H1013 0.950 . S
C989 C988 1.349 . S
C989 C1005 1.349 . S
C990 C988 1.327 . S
C990 C1009 1.429 . S
C990 H1014 0.950 . S
C991 C1008 1.574 . S
C991 C1010 1.368 . S
C991 H1015 0.949 . S
H992 C996 0.949 . S
C993 C994 1.349 . S
C993 C995 1.327 . S
C993 H1016 0.950 . S
C994 C993 1.349 . S
C994 C1006 1.349 . S
C995 C993 1.327 . S
C995 C1011 1.429 . S
C995 H1017 0.950 . S
C996 H992 0.949 . S
C996 C1004 1.574 . S
C996 C1012 1.368 . S
H997 C1005 0.950 . S
H998 C1003 0.950 . S
H999 C1004 0.949 . S
H1000 C1006 0.950 . S
H1001 C1007 0.950 . S
H1002 C1008 0.949 . S
C1003 H998 0.950 . S
C1003 C1005 1.327 . S
C1003 C1009 1.429 . S
C1004 C996 1.574 . S
C1004 H999 0.949 . S
C1004 C1010 1.368 . S
C1005 C989 1.349 . S
C1005 H997 0.950 . S
C1005 C1003 1.327 . S
C1006 C994 1.349 . S
C1006 H1000 0.950 . S
C1006 C1007 1.327 . S
C1007 H1001 0.950 . S
C1007 C1006 1.327 . S
C1007 C1011 1.429 . S
C1008 C991 1.574 . S
C1008 H1002 0.949 . S
C1008 C1012 1.368 . S
C1009 C990 1.429 . S
C1009 C1003 1.429 . S
C1009 C1010 1.523 . S
C1010 C991 1.368 . S
C1010 C1004 1.368 . S
C1010 C1009 1.523 . S
C1011 C995 1.429 . S
C1011 C1007 1.429 . S
C1011 C1012 1.523 . S
C1012 C996 1.368 . S
C1012 C1008 1.368 . S
C1012 C1011 1.523 . S
H1013 C988 0.950 . S
H1014 C990 0.950 . S
H1015 C991 0.949 . S
H1016 C993 0.950 . S
H1017 C995 0.950 . S
C1018 C1019 1.349 . S
C1018 C1020 1.327 . S
C1018 H1043 0.950 . S
C1019 C1018 1.349 . S
C1019 C1035 1.349 . S
C1020 C1018 1.327 . S
C1020 C1039 1.429 . S
C1020 H1044 0.950 . S
C1021 C1038 1.574 . S
C1021 C1040 1.368 . S
C1021 H1045 0.949 . S
H1022 C1026 0.949 . S
C1023 C1024 1.349 . S
C1023 C1025 1.327 . S
C1023 H1046 0.950 . S
C1024 C1023 1.349 . S
C1024 C1036 1.349 . S
C1025 C1023 1.327 . S
C1025 C1041 1.429 . S
C1025 H1047 0.950 . S
C1026 H1022 0.949 . S
C1026 C1034 1.574 . S
C1026 C1042 1.368 . S
H1027 C1035 0.950 . S
H1028 C1033 0.950 . S
H1029 C1034 0.949 . S
H1030 C1036 0.950 1_556 S
H1031 C1037 0.950 . S
H1032 C1038 0.949 . S
C1033 H1028 0.950 . S
C1033 C1035 1.327 . S
C1033 C1039 1.429 . S
C1034 C1026 1.574 . S
C1034 H1029 0.949 . S
C1034 C1040 1.368 . S
C1035 C1019 1.349 . S
C1035 H1027 0.950 . S
C1035 C1033 1.327 . S
C1036 C1024 1.349 . S
C1036 H1030 0.950 1_554 S
C1036 C1037 1.327 . S
C1037 H1031 0.950 . S
C1037 C1036 1.327 . S
C1037 C1041 1.429 . S
C1038 C1021 1.574 . S
C1038 H1032 0.949 . S
C1038 C1042 1.368 . S
C1039 C1020 1.429 . S
C1039 C1033 1.429 . S
C1039 C1040 1.523 . S
C1040 C1021 1.368 . S
C1040 C1034 1.368 . S
C1040 C1039 1.523 . S
C1041 C1025 1.429 . S
C1041 C1037 1.429 . S
C1041 C1042 1.523 . S
C1042 C1026 1.368 . S
C1042 C1038 1.368 . S
C1042 C1041 1.523 . S
H1043 C1018 0.950 . S
H1044 C1020 0.950 . S
H1045 C1021 0.949 . S
H1046 C1023 0.950 . S
H1047 C1025 0.950 . S
C1048 C1049 1.349 . S
C1048 C1050 1.327 . S
C1048 H1073 0.950 . S
C1049 C1048 1.349 . S
C1049 C1065 1.349 . S
C1050 C1048 1.327 . S
C1050 C1069 1.429 . S
C1050 H1074 0.950 . S
C1051 C1068 1.574 . S
C1051 C1070 1.368 . S
C1051 H1075 0.949 . S
H1052 C1056 0.949 . S
C1053 C1054 1.349 . S
C1053 C1055 1.327 . S
C1053 H1076 0.950 . S
C1054 C1053 1.349 . S
C1054 C1066 1.349 . S
C1055 C1053 1.327 . S
C1055 C1071 1.429 . S
C1055 H1077 0.950 . S
C1056 H1052 0.949 . S
C1056 C1064 1.574 . S
C1056 C1072 1.368 . S
H1057 C1065 0.950 . S
H1058 C1063 0.950 . S
H1059 C1064 0.949 . S
H1060 C1066 0.950 . S
H1061 C1067 0.950 . S
H1062 C1068 0.949 . S
C1063 H1058 0.950 . S
C1063 C1065 1.327 . S
C1063 C1069 1.429 . S
C1064 C1056 1.574 . S
C1064 H1059 0.949 . S
C1064 C1070 1.368 . S
C1065 C1049 1.349 . S
C1065 H1057 0.950 . S
C1065 C1063 1.327 . S
C1066 C1054 1.349 . S
C1066 H1060 0.950 . S
C1066 C1067 1.327 . S
C1067 H1061 0.950 . S
C1067 C1066 1.327 . S
C1067 C1071 1.429 . S
C1068 C1051 1.574 . S
C1068 H1062 0.949 . S
C1068 C1072 1.368 . S
C1069 C1050 1.429 . S
C1069 C1063 1.429 . S
C1069 C1070 1.523 . S
C1070 C1051 1.368 . S
C1070 C1064 1.368 . S
C1070 C1069 1.523 . S
C1071 C1055 1.429 . S
C1071 C1067 1.429 . S
C1071 C1072 1.523 . S
C1072 C1056 1.368 . S
C1072 C1068 1.368 . S
C1072 C1071 1.523 . S
H1073 C1048 0.950 . S
H1074 C1050 0.950 . S
H1075 C1051 0.949 . S
H1076 C1053 0.950 . S
H1077 C1055 0.950 . S
C1078 C1079 1.349 . S
C1078 C1080 1.327 . S
C1078 H1103 0.950 . S
C1079 C1078 1.349 . S
C1079 C1095 1.349 . S
C1080 C1078 1.327 . S
C1080 C1099 1.429 . S
C1080 H1104 0.950 . S
C1081 C1098 1.574 . S
C1081 C1100 1.368 . S
C1081 H1105 0.949 . S
H1082 C1086 0.949 . S
C1083 C1084 1.349 . S
C1083 C1085 1.327 . S
C1083 H1106 0.950 . S
C1084 C1083 1.349 . S
C1084 C1096 1.349 . S
C1085 C1083 1.327 . S
C1085 C1101 1.429 . S
C1085 H1107 0.950 . S
C1086 H1082 0.949 . S
C1086 C1094 1.574 . S
C1086 C1102 1.368 . S
H1087 C1095 0.950 . S
H1088 C1093 0.950 . S
H1089 C1094 0.949 . S
H1090 C1096 0.950 . S
H1091 C1097 0.950 . S
H1092 C1098 0.949 . S
C1093 H1088 0.950 . S
C1093 C1095 1.327 . S
C1093 C1099 1.429 . S
C1094 C1086 1.574 . S
C1094 H1089 0.949 . S
C1094 C1100 1.368 . S
C1095 C1079 1.349 . S
C1095 H1087 0.950 . S
C1095 C1093 1.327 . S
C1096 C1084 1.349 . S
C1096 H1090 0.950 . S
C1096 C1097 1.327 . S
C1097 H1091 0.950 . S
C1097 C1096 1.327 . S
C1097 C1101 1.429 . S
C1098 C1081 1.574 . S
C1098 H1092 0.949 . S
C1098 C1102 1.368 . S
C1099 C1080 1.429 . S
C1099 C1093 1.429 . S
C1099 C1100 1.523 . S
C1100 C1081 1.368 . S
C1100 C1094 1.368 . S
C1100 C1099 1.523 . S
C1101 C1085 1.429 . S
C1101 C1097 1.429 . S
C1101 C1102 1.523 . S
C1102 C1086 1.368 . S
C1102 C1098 1.368 . S
C1102 C1101 1.523 . S
H1103 C1078 0.950 . S
H1104 C1080 0.950 . S
H1105 C1081 0.949 . S
H1106 C1083 0.950 . S
H1107 C1085 0.950 . S
C1108 C1109 1.349 . S
C1108 C1110 1.327 . S
C1108 H1133 0.950 . S
C1109 C1108 1.349 . S
C1109 C1125 1.349 . S
C1110 C1108 1.327 . S
C1110 C1129 1.429 . S
C1110 H1134 0.950 . S
C1111 C1128 1.574 . S
C1111 C1130 1.368 . S
C1111 H1135 0.949 . S
H1112 C1116 0.949 . S
C1113 C1114 1.349 . S
C1113 C1115 1.327 . S
C1113 H1136 0.950 . S
C1114 C1113 1.349 . S
C1114 C1126 1.349 . S
C1115 C1113 1.327 . S
C1115 C1131 1.429 . S
C1115 H1137 0.950 . S
C1116 H1112 0.949 . S
C1116 C1124 1.574 . S
C1116 C1132 1.368 . S
H1117 C1125 0.950 . S
H1118 C1123 0.950 . S
H1119 C1124 0.949 . S
H1120 C1126 0.950 . S
H1121 C1127 0.950 . S
H1122 C1128 0.949 . S
C1123 H1118 0.950 . S
C1123 C1125 1.327 . S
C1123 C1129 1.429 . S
C1124 C1116 1.574 . S
C1124 H1119 0.949 . S
C1124 C1130 1.368 . S
C1125 C1109 1.349 . S
C1125 H1117 0.950 . S
C1125 C1123 1.327 . S
C1126 C1114 1.349 . S
C1126 H1120 0.950 . S
C1126 C1127 1.327 . S
C1127 H1121 0.950 . S
C1127 C1126 1.327 . S
C1127 C1131 1.429 . S
C1128 C1111 1.574 . S
C1128 H1122 0.949 . S
C1128 C1132 1.368 . S
C1129 C1110 1.429 . S
C1129 C1123 1.429 . S
C1129 C1130 1.523 . S
C1130 C1111 1.368 . S
C1130 C1124 1.368 . S
C1130 C1129 1.523 . S
C1131 C1115 1.429 . S
C1131 C1127 1.429 . S
C1131 C1132 1.523 . S
C1132 C1116 1.368 . S
C1132 C1128 1.368 . S
C1132 C1131 1.523 . S
H1133 C1108 0.950 . S
H1134 C1110 0.950 . S
H1135 C1111 0.949 . S
H1136 C1113 0.950 . S
H1137 C1115 0.950 . S
C1138 C1139 1.349 . S
C1138 C1140 1.327 . S
C1138 H1163 0.950 . S
C1139 C1138 1.349 . S
C1139 C1155 1.349 . S
C1140 C1138 1.327 . S
C1140 C1159 1.429 . S
C1140 H1164 0.950 . S
C1141 C1158 1.574 . S
C1141 C1160 1.368 . S
C1141 H1165 0.949 . S
H1142 C1146 0.949 . S
C1143 C1144 1.349 . S
C1143 C1145 1.327 . S
C1143 H1166 0.950 . S
C1144 C1143 1.349 . S
C1144 C1156 1.349 . S
C1145 C1143 1.327 . S
C1145 C1161 1.429 . S
C1145 H1167 0.950 . S
C1146 H1142 0.949 . S
C1146 C1154 1.574 . S
C1146 C1162 1.368 . S
H1147 C1155 0.950 . S
H1148 C1153 0.950 . S
H1149 C1154 0.949 . S
H1150 C1156 0.950 . S
H1151 C1157 0.950 . S
H1152 C1158 0.949 . S
C1153 H1148 0.950 . S
C1153 C1155 1.327 . S
C1153 C1159 1.429 . S
C1154 C1146 1.574 . S
C1154 H1149 0.949 . S
C1154 C1160 1.368 . S
C1155 C1139 1.349 . S
C1155 H1147 0.950 . S
C1155 C1153 1.327 . S
C1156 C1144 1.349 . S
C1156 H1150 0.950 . S
C1156 C1157 1.327 . S
C1157 H1151 0.950 . S
C1157 C1156 1.327 . S
C1157 C1161 1.429 . S
C1158 C1141 1.574 . S
C1158 H1152 0.949 . S
C1158 C1162 1.368 . S
C1159 C1140 1.429 . S
C1159 C1153 1.429 . S
C1159 C1160 1.523 . S
C1160 C1141 1.368 . S
C1160 C1154 1.368 . S
C1160 C1159 1.523 . S
C1161 C1145 1.429 . S
C1161 C1157 1.429 . S
C1161 C1162 1.523 . S
C1162 C1146 1.368 . S
C1162 C1158 1.368 . S
C1162 C1161 1.523 . S
H1163 C1138 0.950 . S
H1164 C1140 0.950 . S
H1165 C1141 0.949 . S
H1166 C1143 0.950 . S
H1167 C1145 0.950 . S
C1168 C1169 1.349 . S
C1168 C1170 1.327 . S
C1168 H1193 0.950 . S
C1169 C1168 1.349 . S
C1169 C1185 1.349 . S
C1170 C1168 1.327 . S
C1170 C1189 1.429 . S
C1170 H1194 0.950 . S
C1171 C1188 1.574 . S
C1171 C1190 1.368 . S
C1171 H1195 0.949 . S
H1172 C1176 0.949 . S
C1173 C1174 1.349 . S
C1173 C1175 1.327 . S
C1173 H1196 0.950 . S
C1174 C1173 1.349 . S
C1174 C1186 1.349 . S
C1175 C1173 1.327 . S
C1175 C1191 1.429 . S
C1175 H1197 0.950 . S
C1176 H1172 0.949 . S
C1176 C1184 1.574 . S
C1176 C1192 1.368 . S
H1177 C1185 0.950 . S
H1178 C1183 0.950 . S
H1179 C1184 0.949 . S
H1180 C1186 0.950 . S
H1181 C1187 0.950 . S
H1182 C1188 0.949 . S
C1183 H1178 0.950 . S
C1183 C1185 1.327 . S
C1183 C1189 1.429 . S
C1184 C1176 1.574 . S
C1184 H1179 0.949 . S
C1184 C1190 1.368 . S
C1185 C1169 1.349 . S
C1185 H1177 0.950 . S
C1185 C1183 1.327 . S
C1186 C1174 1.349 . S
C1186 H1180 0.950 . S
C1186 C1187 1.327 . S
C1187 H1181 0.950 . S
C1187 C1186 1.327 . S
C1187 C1191 1.429 . S
C1188 C1171 1.574 . S
C1188 H1182 0.949 . S
C1188 C1192 1.368 . S
C1189 C1170 1.429 . S
C1189 C1183 1.429 . S
C1189 C1190 1.523 . S
C1190 C1171 1.368 . S
C1190 C1184 1.368 . S
C1190 C1189 1.523 . S
C1191 C1175 1.429 . S
C1191 C1187 1.429 . S
C1191 C1192 1.523 . S
C1192 C1176 1.368 . S
C1192 C1188 1.368 . S
C1192 C1191 1.523 . S
H1193 C1168 0.950 . S
H1194 C1170 0.950 . S
H1195 C1171 0.949 . S
H1196 C1173 0.950 . S
H1197 C1175 0.950 . S
C1198 C1199 1.349 . S
C1198 C1200 1.327 . S
C1198 H1223 0.950 . S
C1199 C1198 1.349 . S
C1199 C1215 1.349 . S
C1200 C1198 1.327 . S
C1200 C1219 1.429 . S
C1200 H1224 0.950 . S
C1201 C1218 1.574 . S
C1201 C1220 1.368 . S
C1201 H1225 0.949 . S
H1202 C1206 0.949 . S
C1203 C1204 1.349 . S
C1203 C1205 1.327 . S
C1203 H1226 0.950 . S
C1204 C1203 1.349 . S
C1204 C1216 1.349 . S
C1205 C1203 1.327 . S
C1205 C1221 1.429 . S
C1205 H1227 0.950 . S
C1206 H1202 0.949 . S
C1206 C1214 1.574 . S
C1206 C1222 1.368 . S
H1207 C1215 0.950 . S
H1208 C1213 0.950 . S
H1209 C1214 0.949 . S
H1210 C1216 0.950 . S
H1211 C1217 0.950 . S
H1212 C1218 0.949 . S
C1213 H1208 0.950 . S
C1213 C1215 1.327 . S
C1213 C1219 1.429 . S
C1214 C1206 1.574 . S
C1214 H1209 0.949 . S
C1214 C1220 1.368 . S
C1215 C1199 1.349 . S
C1215 H1207 0.950 . S
C1215 C1213 1.327 . S
C1216 C1204 1.349 . S
C1216 H1210 0.950 . S
C1216 C1217 1.327 . S
C1217 H1211 0.950 . S
C1217 C1216 1.327 . S
C1217 C1221 1.429 . S
C1218 C1201 1.574 . S
C1218 H1212 0.949 . S
C1218 C1222 1.368 . S
C1219 C1200 1.429 . S
C1219 C1213 1.429 . S
C1219 C1220 1.523 . S
C1220 C1201 1.368 . S
C1220 C1214 1.368 . S
C1220 C1219 1.523 . S
C1221 C1205 1.429 . S
C1221 C1217 1.429 . S
C1221 C1222 1.523 . S
C1222 C1206 1.368 . S
C1222 C1218 1.368 . S
C1222 C1221 1.523 . S
H1223 C1198 0.950 . S
H1224 C1200 0.950 . S
H1225 C1201 0.949 . S
H1226 C1203 0.950 . S
H1227 C1205 0.950 . S
C1228 C1229 1.349 . S
C1228 C1230 1.327 . S
C1228 H1253 0.950 . S
C1229 C1228 1.349 . S
C1229 C1245 1.349 . S
C1230 C1228 1.327 . S
C1230 C1249 1.429 . S
C1230 H1254 0.950 . S
C1231 C1248 1.574 . S
C1231 C1250 1.368 . S
C1231 H1255 0.949 . S
H1232 C1236 0.949 . S
C1233 C1234 1.349 . S
C1233 C1235 1.327 . S
C1233 H1256 0.950 . S
C1234 C1233 1.349 . S
C1234 C1246 1.349 . S
C1235 C1233 1.327 . S
C1235 C1251 1.429 . S
C1235 H1257 0.950 . S
C1236 H1232 0.949 . S
C1236 C1244 1.574 . S
C1236 C1252 1.368 . S
H1237 C1245 0.950 . S
H1238 C1243 0.950 . S
H1239 C1244 0.949 . S
H1240 C1246 0.950 . S
H1241 C1247 0.950 . S
H1242 C1248 0.949 . S
C1243 H1238 0.950 . S
C1243 C1245 1.327 . S
C1243 C1249 1.429 . S
C1244 C1236 1.574 . S
C1244 H1239 0.949 . S
C1244 C1250 1.368 . S
C1245 C1229 1.349 . S
C1245 H1237 0.950 . S
C1245 C1243 1.327 . S
C1246 C1234 1.349 . S
C1246 H1240 0.950 . S
C1246 C1247 1.327 . S
C1247 H1241 0.950 . S
C1247 C1246 1.327 . S
C1247 C1251 1.429 . S
C1248 C1231 1.574 . S
C1248 H1242 0.949 . S
C1248 C1252 1.368 . S
C1249 C1230 1.429 . S
C1249 C1243 1.429 . S
C1249 C1250 1.523 . S
C1250 C1231 1.368 . S
C1250 C1244 1.368 . S
C1250 C1249 1.523 . S
C1251 C1235 1.429 . S
C1251 C1247 1.429 . S
C1251 C1252 1.523 . S
C1252 C1236 1.368 . S
C1252 C1248 1.368 . S
C1252 C1251 1.523 . S
H1253 C1228 0.950 . S
H1254 C1230 0.950 . S
H1255 C1231 0.949 . S
H1256 C1233 0.950 . S
H1257 C1235 0.950 . S
C1258 C1259 1.349 . S
C1258 C1260 1.327 . S
C1258 H1283 0.950 . S
C1259 C1258 1.349 . S
C1259 C1275 1.349 . S
C1260 C1258 1.327 . S
C1260 C1279 1.429 . S
C1260 H1284 0.950 . S
C1261 C1278 1.574 . S
C1261 C1280 1.368 . S
C1261 H1285 0.949 . S
H1262 C1266 0.949 . S
C1263 C1264 1.349 . S
C1263 C1265 1.327 . S
C1263 H1286 0.950 . S
C1264 C1263 1.349 . S
C1264 C1276 1.349 . S
C1265 C1263 1.327 . S
C1265 C1281 1.429 . S
C1265 H1287 0.950 . S
C1266 H1262 0.949 . S
C1266 C1274 1.574 . S
C1266 C1282 1.368 . S
H1267 C1275 0.950 . S
H1268 C1273 0.950 . S
H1269 C1274 0.949 . S
H1270 C1276 0.950 . S
H1271 C1277 0.950 . S
H1272 C1278 0.949 . S
C1273 H1268 0.950 . S
C1273 C1275 1.327 . S
C1273 C1279 1.429 . S
C1274 C1266 1.574 . S
C1274 H1269 0.949 . S
C1274 C1280 1.368 . S
C1275 C1259 1.349 . S
C1275 H1267 0.950 . S
C1275 C1273 1.327 . S
C1276 C1264 1.349 . S
C1276 H1270 0.950 . S
C1276 C1277 1.327 . S
C1277 H1271 0.950 . S
C1277 C1276 1.327 . S
C1277 C1281 1.429 . S
C1278 C1261 1.574 . S
C1278 H1272 0.949 . S
C1278 C1282 1.368 . S
C1279 C1260 1.429 . S
C1279 C1273 1.429 . S
C1279 C1280 1.523 . S
C1280 C1261 1.368 . S
C1280 C1274 1.368 . S
C1280 C1279 1.523 . S
C1281 C1265 1.429 . S
C1281 C1277 1.429 . S
C1281 C1282 1.523 . S
C1282 C1266 1.368 . S
C1282 C1278 1.368 . S
C1282 C1281 1.523 . S
H1283 C1258 0.950 . S
H1284 C1260 0.950 . S
H1285 C1261 0.949 . S
H1286 C1263 0.950 . S
H1287 C1265 0.950 . S
C1288 C1289 1.349 . S
C1288 C1290 1.327 . S
C1288 H1313 0.950 . S
C1289 C1288 1.349 . S
C1289 C1305 1.349 . S
C1290 C1288 1.327 . S
C1290 C1309 1.429 . S
C1290 H1314 0.950 . S
C1291 C1308 1.574 . S
C1291 C1310 1.368 . S
C1291 H1315 0.949 . S
H1292 C1296 0.949 . S
C1293 C1294 1.349 . S
C1293 C1295 1.327 . S
C1293 H1316 0.950 . S
C1294 C1293 1.349 . S
C1294 C1306 1.349 . S
C1295 C1293 1.327 . S
C1295 C1311 1.429 . S
C1295 H1317 0.950 . S
C1296 H1292 0.949 . S
C1296 C1304 1.574 . S
C1296 C1312 1.368 . S
H1297 C1305 0.950 . S
H1298 C1303 0.950 . S
H1299 C1304 0.949 . S
H1300 C1306 0.950 . S
H1301 C1307 0.950 . S
H1302 C1308 0.949 . S
C1303 H1298 0.950 . S
C1303 C1305 1.327 . S
C1303 C1309 1.429 . S
C1304 C1296 1.574 . S
C1304 H1299 0.949 . S
C1304 C1310 1.368 . S
C1305 C1289 1.349 . S
C1305 H1297 0.950 . S
C1305 C1303 1.327 . S
C1306 C1294 1.349 . S
C1306 H1300 0.950 . S
C1306 C1307 1.327 . S
C1307 H1301 0.950 . S
C1307 C1306 1.327 . S
C1307 C1311 1.429 . S
C1308 C1291 1.574 . S
C1308 H1302 0.949 . S
C1308 C1312 1.368 . S
C1309 C1290 1.429 . S
C1309 C1303 1.429 . S
C1309 C1310 1.523 . S
C1310 C1291 1.368 . S
C1310 C1304 1.368 . S
C1310 C1309 1.523 . S
C1311 C1295 1.429 . S
C1311 C1307 1.429 . S
C1311 C1312 1.523 . S
C1312 C1296 1.368 . S
C1312 C1308 1.368 . S
C1312 C1311 1.523 . S
H1313 C1288 0.950 . S
H1314 C1290 0.950 . S
H1315 C1291 0.949 . S
H1316 C1293 0.950 . S
H1317 C1295 0.950 . S
C1318 C1319 1.349 . S
C1318 C1320 1.327 . S
C1318 H1343 0.950 . S
C1319 C1318 1.349 . S
C1319 C1335 1.349 . S
C1320 C1318 1.327 . S
C1320 C1339 1.429 . S
C1320 H1344 0.950 . S
C1321 C1338 1.574 . S
C1321 C1340 1.368 . S
C1321 H1345 0.949 . S
H1322 C1326 0.949 . S
C1323 C1324 1.349 . S
C1323 C1325 1.327 . S
C1323 H1346 0.950 . S
C1324 C1323 1.349 . S
C1324 C1336 1.349 . S
C1325 C1323 1.327 . S
C1325 C1341 1.429 . S
C1325 H1347 0.950 . S
C1326 H1322 0.949 . S
C1326 C1334 1.574 . S
C1326 C1342 1.368 . S
H1327 C1335 0.950 . S
H1328 C1333 0.950 . S
H1329 C1334 0.949 . S
H1330 C1336 0.950 . S
H1331 C1337 0.950 . S
H1332 C1338 0.949 . S
C1333 H1328 0.950 . S
C1333 C1335 1.327 . S
C1333 C1339 1.429 . S
C1334 C1326 1.574 . S
C1334 H1329 0.949 . S
C1334 C1340 1.368 . S
C1335 C1319 1.349 . S
C1335 H1327 0.950 . S
C1335 C1333 1.327 . S
C1336 C1324 1.349 . S
C1336 H1330 0.950 . S
C1336 C1337 1.327 . S
C1337 H1331 0.950 . S
C1337 C1336 1.327 . S
C1337 C1341 1.429 . S
C1338 C1321 1.574 . S
C1338 H1332 0.949 . S
C1338 C1342 1.368 . S
C1339 C1320 1.429 . S
C1339 C1333 1.429 . S
C1339 C1340 1.523 . S
C1340 C1321 1.368 . S
C1340 C1334 1.368 . S
C1340 C1339 1.523 . S
C1341 C1325 1.429 . S
C1341 C1337 1.429 . S
C1341 C1342 1.523 . S
C1342 C1326 1.368 . S
C1342 C1338 1.368 . S
C1342 C1341 1.523 . S
H1343 C1318 0.950 . S
H1344 C1320 0.950 . S
H1345 C1321 0.949 . S
H1346 C1323 0.950 . S
H1347 C1325 0.950 . S
C1348 C1349 1.349 . S
C1348 C1350 1.327 . S
C1348 H1373 0.950 . S
C1349 C1348 1.349 . S
C1349 C1365 1.349 . S
C1350 C1348 1.327 . S
C1350 C1369 1.429 . S
C1350 H1374 0.950 . S
C1351 C1368 1.574 . S
C1351 C1370 1.368 . S
C1351 H1375 0.949 . S
H1352 C1356 0.949 . S
C1353 C1354 1.349 . S
C1353 C1355 1.327 . S
C1353 H1376 0.950 . S
C1354 C1353 1.349 . S
C1354 C1366 1.349 . S
C1355 C1353 1.327 . S
C1355 C1371 1.429 . S
C1355 H1377 0.950 . S
C1356 H1352 0.949 . S
C1356 C1364 1.574 . S
C1356 C1372 1.368 . S
H1357 C1365 0.950 . S
H1358 C1363 0.950 . S
H1359 C1364 0.949 . S
H1360 C1366 0.950 . S
H1361 C1367 0.950 . S
H1362 C1368 0.949 . S
C1363 H1358 0.950 . S
C1363 C1365 1.327 . S
C1363 C1369 1.429 . S
C1364 C1356 1.574 . S
C1364 H1359 0.949 . S
C1364 C1370 1.368 . S
C1365 C1349 1.349 . S
C1365 H1357 0.950 . S
C1365 C1363 1.327 . S
C1366 C1354 1.349 . S
C1366 H1360 0.950 . S
C1366 C1367 1.327 . S
C1367 H1361 0.950 . S
C1367 C1366 1.327 . S
C1367 C1371 1.429 . S
C1368 C1351 1.574 . S
C1368 H1362 0.949 . S
C1368 C1372 1.368 . S
C1369 C1350 1.429 . S
C1369 C1363 1.429 . S
C1369 C1370 1.523 . S
C1370 C1351 1.368 . S
C1370 C1364 1.368 . S
C1370 C1369 1.523 . S
C1371 C1355 1.429 . S
C1371 C1367 1.429 . S
C1371 C1372 1.523 . S
C1372 C1356 1.368 . S
C1372 C1368 1.368 . S
C1372 C1371 1.523 . S
H1373 C1348 0.950 . S
H1374 C1350 0.950 . S
H1375 C1351 0.949 . S
H1376 C1353 0.950 . S
H1377 C1355 0.950 . S
C1378 C1379 1.349 . S
C1378 C1380 1.327 . S
C1378 H1403 0.950 . S
C1379 C1378 1.349 . S
C1379 C1395 1.349 . S
C1380 C1378 1.327 . S
C1380 C1399 1.429 . S
C1380 H1404 0.950 . S
C1381 C1398 1.574 . S
C1381 C1400 1.368 . S
C1381 H1405 0.949 . S
H1382 C1386 0.949 . S
C1383 C1384 1.349 . S
C1383 C1385 1.327 . S
C1383 H1406 0.950 . S
C1384 C1383 1.349 . S
C1384 C1396 1.349 . S
C1385 C1383 1.327 . S
C1385 C1401 1.429 . S
C1385 H1407 0.950 . S
C1386 H1382 0.949 . S
C1386 C1394 1.574 . S
C1386 C1402 1.368 . S
H1387 C1395 0.950 . S
H1388 C1393 0.950 . S
H1389 C1394 0.949 . S
H1390 C1396 0.950 . S
H1391 C1397 0.950 . S
H1392 C1398 0.949 . S
C1393 H1388 0.950 . S
C1393 C1395 1.327 . S
C1393 C1399 1.429 . S
C1394 C1386 1.574 . S
C1394 H1389 0.949 . S
C1394 C1400 1.368 . S
C1395 C1379 1.349 . S
C1395 H1387 0.950 . S
C1395 C1393 1.327 . S
C1396 C1384 1.349 . S
C1396 H1390 0.950 . S
C1396 C1397 1.327 . S
C1397 H1391 0.950 . S
C1397 C1396 1.327 . S
C1397 C1401 1.429 . S
C1398 C1381 1.574 . S
C1398 H1392 0.949 . S
C1398 C1402 1.368 . S
C1399 C1380 1.429 . S
C1399 C1393 1.429 . S
C1399 C1400 1.523 . S
C1400 C1381 1.368 . S
C1400 C1394 1.368 . S
C1400 C1399 1.523 . S
C1401 C1385 1.429 . S
C1401 C1397 1.429 . S
C1401 C1402 1.523 . S
C1402 C1386 1.368 . S
C1402 C1398 1.368 . S
C1402 C1401 1.523 . S
H1403 C1378 0.950 . S
H1404 C1380 0.950 . S
H1405 C1381 0.949 . S
H1406 C1383 0.950 . S
H1407 C1385 0.950 . S
C1408 C1409 1.349 . S
C1408 C1410 1.327 . S
C1408 H1433 0.950 . S
C1409 C1408 1.349 . S
C1409 C1425 1.349 . S
C1410 C1408 1.327 . S
C1410 C1429 1.429 . S
C1410 H1434 0.950 . S
C1411 C1428 1.574 . S
C1411 C1430 1.368 . S
C1411 H1435 0.949 . S
H1412 C1416 0.949 . S
C1413 C1414 1.349 . S
C1413 C1415 1.327 . S
C1413 H1436 0.950 . S
C1414 C1413 1.349 . S
C1414 C1426 1.349 . S
C1415 C1413 1.327 . S
C1415 C1431 1.429 . S
C1415 H1437 0.950 . S
C1416 H1412 0.949 . S
C1416 C1424 1.574 . S
C1416 C1432 1.368 . S
H1417 C1425 0.950 . S
H1418 C1423 0.950 . S
H1419 C1424 0.949 . S
H1420 C1426 0.950 . S
H1421 C1427 0.950 . S
H1422 C1428 0.949 . S
C1423 H1418 0.950 . S
C1423 C1425 1.327 . S
C1423 C1429 1.429 . S
C1424 C1416 1.574 . S
C1424 H1419 0.949 . S
C1424 C1430 1.368 . S
C1425 C1409 1.349 . S
C1425 H1417 0.950 . S
C1425 C1423 1.327 . S
C1426 C1414 1.349 . S
C1426 H1420 0.950 . S
C1426 C1427 1.327 . S
C1427 H1421 0.950 . S
C1427 C1426 1.327 . S
C1427 C1431 1.429 . S
C1428 C1411 1.574 . S
C1428 H1422 0.949 . S
C1428 C1432 1.368 . S
C1429 C1410 1.429 . S
C1429 C1423 1.429 . S
C1429 C1430 1.523 . S
C1430 C1411 1.368 . S
C1430 C1424 1.368 . S
C1430 C1429 1.523 . S
C1431 C1415 1.429 . S
C1431 C1427 1.429 . S
C1431 C1432 1.523 . S
C1432 C1416 1.368 . S
C1432 C1428 1.368 . S
C1432 C1431 1.523 . S
H1433 C1408 0.950 . S
H1434 C1410 0.950 . S
H1435 C1411 0.949 . S
H1436 C1413 0.950 . S
H1437 C1415 0.950 . S
C1438 C1439 1.349 . S
C1438 C1440 1.327 . S
C1438 H1463 0.950 . S
C1439 C1438 1.349 . S
C1439 C1455 1.349 . S
C1440 C1438 1.327 . S
C1440 C1459 1.429 . S
C1440 H1464 0.950 . S
C1441 C1458 1.574 . S
C1441 C1460 1.368 . S
C1441 H1465 0.949 . S
H1442 C1446 0.949 . S
C1443 C1444 1.349 . S
C1443 C1445 1.327 . S
C1443 H1466 0.950 . S
C1444 C1443 1.349 . S
C1444 C1456 1.349 . S
C1445 C1443 1.327 . S
C1445 C1461 1.429 . S
C1445 H1467 0.950 . S
C1446 H1442 0.949 . S
C1446 C1454 1.574 . S
C1446 C1462 1.368 . S
H1447 C1455 0.950 . S
H1448 C1453 0.950 . S
H1449 C1454 0.949 . S
H1450 C1456 0.950 . S
H1451 C1457 0.950 . S
H1452 C1458 0.949 . S
C1453 H1448 0.950 . S
C1453 C1455 1.327 . S
C1453 C1459 1.429 . S
C1454 C1446 1.574 . S
C1454 H1449 0.949 . S
C1454 C1460 1.368 . S
C1455 C1439 1.349 . S
C1455 H1447 0.950 . S
C1455 C1453 1.327 . S
C1456 C1444 1.349 . S
C1456 H1450 0.950 . S
C1456 C1457 1.327 . S
C1457 H1451 0.950 . S
C1457 C1456 1.327 . S
C1457 C1461 1.429 . S
C1458 C1441 1.574 . S
C1458 H1452 0.949 . S
C1458 C1462 1.368 . S
C1459 C1440 1.429 . S
C1459 C1453 1.429 . S
C1459 C1460 1.523 . S
C1460 C1441 1.368 . S
C1460 C1454 1.368 . S
C1460 C1459 1.523 . S
C1461 C1445 1.429 . S
C1461 C1457 1.429 . S
C1461 C1462 1.523 . S
C1462 C1446 1.368 . S
C1462 C1458 1.368 . S
C1462 C1461 1.523 . S
H1463 C1438 0.950 . S
H1464 C1440 0.950 . S
H1465 C1441 0.949 . S
H1466 C1443 0.950 . S
H1467 C1445 0.950 . S
C1468 C1469 1.349 . S
C1468 C1470 1.327 . S
C1468 H1493 0.950 . S
C1469 C1468 1.349 . S
C1469 C1485 1.349 . S
C1470 C1468 1.327 . S
C1470 C1489 1.429 . S
C1470 H1494 0.950 . S
C1471 C1488 1.574 . S
C1471 C1490 1.368 . S
C1471 H1495 0.949 . S
H1472 C1476 0.949 . S
C1473 C1474 1.349 . S
C1473 C1475 1.327 . S
C1473 H1496 0.950 . S
C1474 C1473 1.349 . S
C1474 C1486 1.349 . S
C1475 C1473 1.327 . S
C1475 C1491 1.429 . S
C1475 H1497 0.950 . S
C1476 H1472 0.949 . S
C1476 C1484 1.574 . S
C1476 C1492 1.368 . S
H1477 C1485 0.950 . S
H1478 C1483 0.950 . S
H1479 C1484 0.949 . S
H1480 C1486 0.950 . S
H1481 C1487 0.950 . S
H1482 C1488 0.949 . S
C1483 H1478 0.950 . S
C1483 C1485 1.327 . S
C1483 C1489 1.429 . S
C1484 C1476 1.574 . S
C1484 H1479 0.949 . S
C1484 C1490 1.368 . S
C1485 C1469 1.349 . S
C1485 H1477 0.950 . S
C1485 C1483 1.327 . S
C1486 C1474 1.349 . S
C1486 H1480 0.950 . S
C1486 C1487 1.327 . S
C1487 H1481 0.950 . S
C1487 C1486 1.327 . S
C1487 C1491 1.429 . S
C1488 C1471 1.574 . S
C1488 H1482 0.949 . S
C1488 C1492 1.368 . S
C1489 C1470 1.429 . S
C1489 C1483 1.429 . S
C1489 C1490 1.523 . S
C1490 C1471 1.368 . S
C1490 C1484 1.368 . S
C1490 C1489 1.523 . S
C1491 C1475 1.429 . S
C1491 C1487 1.429 . S
C1491 C1492 1.523 . S
C1492 C1476 1.368 . S
C1492 C1488 1.368 . S
C1492 C1491 1.523 . S
H1493 C1468 0.950 . S
H1494 C1470 0.950 . S
H1495 C1471 0.949 . S
H1496 C1473 0.950 . S
H1497 C1475 0.950 . S
C1498 C1499 1.349 . S
C1498 C1500 1.327 . S
C1498 H1523 0.950 . S
C1499 C1498 1.349 . S
C1499 C1515 1.349 . S
C1500 C1498 1.327 . S
C1500 C1519 1.429 . S
C1500 H1524 0.950 . S
C1501 C1518 1.574 . S
C1501 C1520 1.368 . S
C1501 H1525 0.949 . S
H1502 C1506 0.949 . S
C1503 C1504 1.349 . S
C1503 C1505 1.327 . S
C1503 H1526 0.950 . S
C1504 C1503 1.349 . S
C1504 C1516 1.349 . S
C1505 C1503 1.327 . S
C1505 C1521 1.429 . S
C1505 H1527 0.950 . S
C1506 H1502 0.949 . S
C1506 C1514 1.574 . S
C1506 C1522 1.368 . S
H1507 C1515 0.950 . S
H1508 C1513 0.950 . S
H1509 C1514 0.949 . S
H1510 C1516 0.950 . S
H1511 C1517 0.950 . S
H1512 C1518 0.949 . S
C1513 H1508 0.950 . S
C1513 C1515 1.327 . S
C1513 C1519 1.429 . S
C1514 C1506 1.574 . S
C1514 H1509 0.949 . S
C1514 C1520 1.368 . S
C1515 C1499 1.349 . S
C1515 H1507 0.950 . S
C1515 C1513 1.327 . S
C1516 C1504 1.349 . S
C1516 H1510 0.950 . S
C1516 C1517 1.327 . S
C1517 H1511 0.950 . S
C1517 C1516 1.327 . S
C1517 C1521 1.429 . S
C1518 C1501 1.574 . S
C1518 H1512 0.949 . S
C1518 C1522 1.368 . S
C1519 C1500 1.429 . S
C1519 C1513 1.429 . S
C1519 C1520 1.523 . S
C1520 C1501 1.368 . S
C1520 C1514 1.368 . S
C1520 C1519 1.523 . S
C1521 C1505 1.429 . S
C1521 C1517 1.429 . S
C1521 C1522 1.523 . S
C1522 C1506 1.368 . S
C1522 C1518 1.368 . S
C1522 C1521 1.523 . S
H1523 C1498 0.950 . S
H1524 C1500 0.950 . S
H1525 C1501 0.949 . S
H1526 C1503 0.950 . S
H1527 C1505 0.950 . S
C1528 C1529 1.349 . S
C1528 C1530 1.327 . S
C1528 H1553 0.950 . S
C1529 C1528 1.349 . S
C1529 C1545 1.349 . S
C1530 C1528 1.327 . S
C1530 C1549 1.429 . S
C1530 H1554 0.950 . S
C1531 C1548 1.574 . S
C1531 C1550 1.368 . S
C1531 H1555 0.949 . S
H1532 C1536 0.949 . S
C1533 C1534 1.349 . S
C1533 C1535 1.327 . S
C1533 H1556 0.950 . S
C1534 C1533 1.349 . S
C1534 C1546 1.349 . S
C1535 C1533 1.327 . S
C1535 C1551 1.429 . S
C1535 H1557 0.950 . S
C1536 H1532 0.949 . S
C1536 C1544 1.574 . S
C1536 C1552 1.368 . S
H1537 C1545 0.950 . S
H1538 C1543 0.950 . S
H1539 C1544 0.949 . S
H1540 C1546 0.950 . S
H1541 C1547 0.950 . S
H1542 C1548 0.949 . S
C1543 H1538 0.950 . S
C1543 C1545 1.327 . S
C1543 C1549 1.429 . S
C1544 C1536 1.574 . S
C1544 H1539 0.949 . S
C1544 C1550 1.368 . S
C1545 C1529 1.349 . S
C1545 H1537 0.950 . S
C1545 C1543 1.327 . S
C1546 C1534 1.349 . S
C1546 H1540 0.950 . S
C1546 C1547 1.327 . S
C1547 H1541 0.950 . S
C1547 C1546 1.327 . S
C1547 C1551 1.429 . S
C1548 C1531 1.574 . S
C1548 H1542 0.949 . S
C1548 C1552 1.368 . S
C1549 C1530 1.429 . S
C1549 C1543 1.429 . S
C1549 C1550 1.523 . S
C1550 C1531 1.368 . S
C1550 C1544 1.368 . S
C1550 C1549 1.523 . S
C1551 C1535 1.429 . S
C1551 C1547 1.429 . S
C1551 C1552 1.523 . S
C1552 C1536 1.368 . S
C1552 C1548 1.368 . S
C1552 C1551 1.523 . S
H1553 C1528 0.950 . S
H1554 C1530 0.950 . S
H1555 C1531 0.949 . S
H1556 C1533 0.950 . S
H1557 C1535 0.950 . S
C1558 C1559 1.349 . S
C1558 C1560 1.327 . S
C1558 H1583 0.950 . S
C1559 C1558 1.349 . S
C1559 C1575 1.349 . S
C1560 C1558 1.327 . S
C1560 C1579 1.429 . S
C1560 H1584 0.950 . S
C1561 C1578 1.574 . S
C1561 C1580 1.368 . S
C1561 H1585 0.949 . S
H1562 C1566 0.949 . S
C1563 C1564 1.349 . S
C1563 C1565 1.327 . S
C1563 H1586 0.950 . S
C1564 C1563 1.349 . S
C1564 C1576 1.349 . S
C1565 C1563 1.327 . S
C1565 C1581 1.429 . S
C1565 H1587 0.950 . S
C1566 H1562 0.949 . S
C1566 C1574 1.574 . S
C1566 C1582 1.368 . S
H1567 C1575 0.950 . S
H1568 C1573 0.950 . S
H1569 C1574 0.949 . S
H1570 C1576 0.950 . S
H1571 C1577 0.950 . S
H1572 C1578 0.949 . S
C1573 H1568 0.950 . S
C1573 C1575 1.327 . S
C1573 C1579 1.429 . S
C1574 C1566 1.574 . S
C1574 H1569 0.949 . S
C1574 C1580 1.368 . S
C1575 C1559 1.349 . S
C1575 H1567 0.950 . S
C1575 C1573 1.327 . S
C1576 C1564 1.349 . S
C1576 H1570 0.950 . S
C1576 C1577 1.327 . S
C1577 H1571 0.950 . S
C1577 C1576 1.327 . S
C1577 C1581 1.429 . S
C1578 C1561 1.574 . S
C1578 H1572 0.949 . S
C1578 C1582 1.368 . S
C1579 C1560 1.429 . S
C1579 C1573 1.429 . S
C1579 C1580 1.523 . S
C1580 C1561 1.368 . S
C1580 C1574 1.368 . S
C1580 C1579 1.523 . S
C1581 C1565 1.429 . S
C1581 C1577 1.429 . S
C1581 C1582 1.523 . S
C1582 C1566 1.368 . S
C1582 C1578 1.368 . S
C1582 C1581 1.523 . S
H1583 C1558 0.950 . S
H1584 C1560 0.950 . S
H1585 C1561 0.949 . S
H1586 C1563 0.950 . S
H1587 C1565 0.950 . S
C1588 C1589 1.349 . S
C1588 C1590 1.327 . S
C1588 H1613 0.950 . S
C1589 C1588 1.349 . S
C1589 C1605 1.349 . S
C1590 C1588 1.327 . S
C1590 C1609 1.429 . S
C1590 H1614 0.950 . S
C1591 C1608 1.574 . S
C1591 C1610 1.368 . S
C1591 H1615 0.949 . S
H1592 C1596 0.949 . S
C1593 C1594 1.349 . S
C1593 C1595 1.327 . S
C1593 H1616 0.950 . S
C1594 C1593 1.349 . S
C1594 C1606 1.349 . S
C1595 C1593 1.327 . S
C1595 C1611 1.429 . S
C1595 H1617 0.950 . S
C1596 H1592 0.949 . S
C1596 C1604 1.574 . S
C1596 C1612 1.368 . S
H1597 C1605 0.950 . S
H1598 C1603 0.950 . S
H1599 C1604 0.949 . S
H1600 C1606 0.950 . S
H1601 C1607 0.950 . S
H1602 C1608 0.949 . S
C1603 H1598 0.950 . S
C1603 C1605 1.327 . S
C1603 C1609 1.429 . S
C1604 C1596 1.574 . S
C1604 H1599 0.949 . S
C1604 C1610 1.368 . S
C1605 C1589 1.349 . S
C1605 H1597 0.950 . S
C1605 C1603 1.327 . S
C1606 C1594 1.349 . S
C1606 H1600 0.950 . S
C1606 C1607 1.327 . S
C1607 H1601 0.950 . S
C1607 C1606 1.327 . S
C1607 C1611 1.429 . S
C1608 C1591 1.574 . S
C1608 H1602 0.949 . S
C1608 C1612 1.368 . S
C1609 C1590 1.429 . S
C1609 C1603 1.429 . S
C1609 C1610 1.523 . S
C1610 C1591 1.368 . S
C1610 C1604 1.368 . S
C1610 C1609 1.523 . S
C1611 C1595 1.429 . S
C1611 C1607 1.429 . S
C1611 C1612 1.523 . S
C1612 C1596 1.368 . S
C1612 C1608 1.368 . S
C1612 C1611 1.523 . S
H1613 C1588 0.950 . S
H1614 C1590 0.950 . S
H1615 C1591 0.949 . S
H1616 C1593 0.950 . S
H1617 C1595 0.950 . S
C1618 C1619 1.349 . S
C1618 C1620 1.327 . S
C1618 H1643 0.950 . S
C1619 C1618 1.349 . S
C1619 C1635 1.349 . S
C1620 C1618 1.327 . S
C1620 C1639 1.429 . S
C1620 H1644 0.950 . S
C1621 C1638 1.574 . S
C1621 C1640 1.368 . S
C1621 H1645 0.949 . S
H1622 C1626 0.949 . S
C1623 C1624 1.349 . S
C1623 C1625 1.327 . S
C1623 H1646 0.950 . S
C1624 C1623 1.349 . S
C1624 C1636 1.349 . S
C1625 C1623 1.327 . S
C1625 C1641 1.429 . S
C1625 H1647 0.950 . S
C1626 H1622 0.949 . S
C1626 C1634 1.574 . S
C1626 C1642 1.368 . S
H1627 C1635 0.950 . S
H1628 C1633 0.950 . S
H1629 C1634 0.949 . S
H1630 C1636 0.950 . S
H1631 C1637 0.950 . S
H1632 C1638 0.949 . S
C1633 H1628 0.950 . S
C1633 C1635 1.327 . S
C1633 C1639 1.429 . S
C1634 C1626 1.574 . S
C1634 H1629 0.949 . S
C1634 C1640 1.368 . S
C1635 C1619 1.349 . S
C1635 H1627 0.950 . S
C1635 C1633 1.327 . S
C1636 C1624 1.349 . S
C1636 H1630 0.950 . S
C1636 C1637 1.327 . S
C1637 H1631 0.950 . S
C1637 C1636 1.327 . S
C1637 C1641 1.429 . S
C1638 C1621 1.574 . S
C1638 H1632 0.949 . S
C1638 C1642 1.368 . S
C1639 C1620 1.429 . S
C1639 C1633 1.429 . S
C1639 C1640 1.523 . S
C1640 C1621 1.368 . S
C1640 C1634 1.368 . S
C1640 C1639 1.523 . S
C1641 C1625 1.429 . S
C1641 C1637 1.429 . S
C1641 C1642 1.523 . S
C1642 C1626 1.368 . S
C1642 C1638 1.368 . S
C1642 C1641 1.523 . S
H1643 C1618 0.950 . S
H1644 C1620 0.950 . S
H1645 C1621 0.949 . S
H1646 C1623 0.950 . S
H1647 C1625 0.950 . S
C1648 C1649 1.349 . S
C1648 C1650 1.327 . S
C1648 H1673 0.950 . S
C1649 C1648 1.349 . S
C1649 C1665 1.349 . S
C1650 C1648 1.327 . S
C1650 C1669 1.429 . S
C1650 H1674 0.950 . S
C1651 C1668 1.574 . S
C1651 C1670 1.368 . S
C1651 H1675 0.949 . S
H1652 C1656 0.949 . S
C1653 C1654 1.349 . S
C1653 C1655 1.327 . S
C1653 H1676 0.950 . S
C1654 C1653 1.349 . S
C1654 C1666 1.349 . S
C1655 C1653 1.327 . S
C1655 C1671 1.429 . S
C1655 H1677 0.950 . S
C1656 H1652 0.949 . S
C1656 C1664 1.574 . S
C1656 C1672 1.368 . S
H1657 C1665 0.950 . S
H1658 C1663 0.950 . S
H1659 C1664 0.949 . S
H1660 C1666 0.950 . S
H1661 C1667 0.950 . S
H1662 C1668 0.949 . S
C1663 H1658 0.950 . S
C1663 C1665 1.327 . S
C1663 C1669 1.429 . S
C1664 C1656 1.574 . S
C1664 H1659 0.949 . S
C1664 C1670 1.368 . S
C1665 C1649 1.349 . S
C1665 H1657 0.950 . S
C1665 C1663 1.327 . S
C1666 C1654 1.349 . S
C1666 H1660 0.950 . S
C1666 C1667 1.327 . S
C1667 H1661 0.950 . S
C1667 C1666 1.327 . S
C1667 C1671 1.429 . S
C1668 C1651 1.574 . S
C1668 H1662 0.949 . S
C1668 C1672 1.368 . S
C1669 C1650 1.429 . S
C1669 C1663 1.429 . S
C1669 C1670 1.523 . S
C1670 C1651 1.368 . S
C1670 C1664 1.368 . S
C1670 C1669 1.523 . S
C1671 C1655 1.429 . S
C1671 C1667 1.429 . S
C1671 C1672 1.523 . S
C1672 C1656 1.368 . S
C1672 C1668 1.368 . S
C1672 C1671 1.523 . S
H1673 C1648 0.950 . S
H1674 C1650 0.950 . S
H1675 C1651 0.949 . S
H1676 C1653 0.950 . S
H1677 C1655 0.950 . S
C1678 C1679 1.349 . S
C1678 C1680 1.327 . S
C1678 H1703 0.950 . S
C1679 C1678 1.349 . S
C1679 C1695 1.349 . S
C1680 C1678 1.327 . S
C1680 C1699 1.429 . S
C1680 H1704 0.950 . S
C1681 C1698 1.574 . S
C1681 C1700 1.368 . S
C1681 H1705 0.949 . S
H1682 C1686 0.949 . S
C1683 C1684 1.349 . S
C1683 C1685 1.327 . S
C1683 H1706 0.950 . S
C1684 C1683 1.349 . S
C1684 C1696 1.349 . S
C1685 C1683 1.327 . S
C1685 C1701 1.429 . S
C1685 H1707 0.950 . S
C1686 H1682 0.949 . S
C1686 C1694 1.574 . S
C1686 C1702 1.368 . S
H1687 C1695 0.950 . S
H1688 C1693 0.950 . S
H1689 C1694 0.949 . S
H1690 C1696 0.950 . S
H1691 C1697 0.950 . S
H1692 C1698 0.949 . S
C1693 H1688 0.950 . S
C1693 C1695 1.327 . S
C1693 C1699 1.429 . S
C1694 C1686 1.574 . S
C1694 H1689 0.949 . S
C1694 C1700 1.368 . S
C1695 C1679 1.349 . S
C1695 H1687 0.950 . S
C1695 C1693 1.327 . S
C1696 C1684 1.349 . S
C1696 H1690 0.950 . S
C1696 C1697 1.327 . S
C1697 H1691 0.950 . S
C1697 C1696 1.327 . S
C1697 C1701 1.429 . S
C1698 C1681 1.574 . S
C1698 H1692 0.949 . S
C1698 C1702 1.368 . S
C1699 C1680 1.429 . S
C1699 C1693 1.429 . S
C1699 C1700 1.523 . S
C1700 C1681 1.368 . S
C1700 C1694 1.368 . S
C1700 C1699 1.523 . S
C1701 C1685 1.429 . S
C1701 C1697 1.429 . S
C1701 C1702 1.523 . S
C1702 C1686 1.368 . S
C1702 C1698 1.368 . S
C1702 C1701 1.523 . S
H1703 C1678 0.950 . S
H1704 C1680 0.950 . S
H1705 C1681 0.949 . S
H1706 C1683 0.950 . S
H1707 C1685 0.950 . S
C1708 C1709 1.349 . S
C1708 C1710 1.327 . S
C1708 H1733 0.950 . S
C1709 C1708 1.349 . S
C1709 C1725 1.349 . S
C1710 C1708 1.327 . S
C1710 C1729 1.429 . S
C1710 H1734 0.950 . S
C1711 C1728 1.574 . S
C1711 C1730 1.368 . S
C1711 H1735 0.949 . S
H1712 C1716 0.949 . S
C1713 C1714 1.349 . S
C1713 C1715 1.327 . S
C1713 H1736 0.950 . S
C1714 C1713 1.349 . S
C1714 C1726 1.349 . S
C1715 C1713 1.327 . S
C1715 C1731 1.429 . S
C1715 H1737 0.950 . S
C1716 H1712 0.949 . S
C1716 C1724 1.574 . S
C1716 C1732 1.368 . S
H1717 C1725 0.950 . S
H1718 C1723 0.950 . S
H1719 C1724 0.949 . S
H1720 C1726 0.950 . S
H1721 C1727 0.950 . S
H1722 C1728 0.949 . S
C1723 H1718 0.950 . S
C1723 C1725 1.327 . S
C1723 C1729 1.429 . S
C1724 C1716 1.574 . S
C1724 H1719 0.949 . S
C1724 C1730 1.368 . S
C1725 C1709 1.349 . S
C1725 H1717 0.950 . S
C1725 C1723 1.327 . S
C1726 C1714 1.349 . S
C1726 H1720 0.950 . S
C1726 C1727 1.327 . S
C1727 H1721 0.950 . S
C1727 C1726 1.327 . S
C1727 C1731 1.429 . S
C1728 C1711 1.574 . S
C1728 H1722 0.949 . S
C1728 C1732 1.368 . S
C1729 C1710 1.429 . S
C1729 C1723 1.429 . S
C1729 C1730 1.523 . S
C1730 C1711 1.368 . S
C1730 C1724 1.368 . S
C1730 C1729 1.523 . S
C1731 C1715 1.429 . S
C1731 C1727 1.429 . S
C1731 C1732 1.523 . S
C1732 C1716 1.368 . S
C1732 C1728 1.368 . S
C1732 C1731 1.523 . S
H1733 C1708 0.950 . S
H1734 C1710 0.950 . S
H1735 C1711 0.949 . S
H1736 C1713 0.950 . S
H1737 C1715 0.950 . S
C1738 C1739 1.349 . S
C1738 C1740 1.327 . S
C1738 H1763 0.950 . S
C1739 C1738 1.349 . S
C1739 C1755 1.349 . S
C1740 C1738 1.327 . S
C1740 C1759 1.429 . S
C1740 H1764 0.950 . S
C1741 C1758 1.574 . S
C1741 C1760 1.368 . S
C1741 H1765 0.949 . S
H1742 C1746 0.949 . S
C1743 C1744 1.349 . S
C1743 C1745 1.327 . S
C1743 H1766 0.950 . S
C1744 C1743 1.349 . S
C1744 C1756 1.349 . S
C1745 C1743 1.327 . S
C1745 C1761 1.429 . S
C1745 H1767 0.950 . S
C1746 H1742 0.949 . S
C1746 C1754 1.574 . S
C1746 C1762 1.368 . S
H1747 C1755 0.950 . S
H1748 C1753 0.950 . S
H1749 C1754 0.949 . S
H1750 C1756 0.950 . S
H1751 C1757 0.950 . S
H1752 C1758 0.949 . S
C1753 H1748 0.950 . S
C1753 C1755 1.327 . S
C1753 C1759 1.429 . S
C1754 C1746 1.574 . S
C1754 H1749 0.949 . S
C1754 C1760 1.368 . S
C1755 C1739 1.349 . S
C1755 H1747 0.950 . S
C1755 C1753 1.327 . S
C1756 C1744 1.349 . S
C1756 H1750 0.950 . S
C1756 C1757 1.327 . S
C1757 H1751 0.950 . S
C1757 C1756 1.327 . S
C1757 C1761 1.429 . S
C1758 C1741 1.574 . S
C1758 H1752 0.949 . S
C1758 C1762 1.368 . S
C1759 C1740 1.429 . S
C1759 C1753 1.429 . S
C1759 C1760 1.523 . S
C1760 C1741 1.368 . S
C1760 C1754 1.368 . S
C1760 C1759 1.523 . S
C1761 C1745 1.429 . S
C1761 C1757 1.429 . S
C1761 C1762 1.523 . S
C1762 C1746 1.368 . S
C1762 C1758 1.368 . S
C1762 C1761 1.523 . S
H1763 C1738 0.950 . S
H1764 C1740 0.950 . S
H1765 C1741 0.949 . S
H1766 C1743 0.950 . S
H1767 C1745 0.950 . S
C1768 C1769 1.349 . S
C1768 C1770 1.327 . S
C1768 H1793 0.950 . S
C1769 C1768 1.349 . S
C1769 C1785 1.349 . S
C1770 C1768 1.327 . S
C1770 C1789 1.429 . S
C1770 H1794 0.950 . S
C1771 C1788 1.574 . S
C1771 C1790 1.368 . S
C1771 H1795 0.949 . S
H1772 C1776 0.949 . S
C1773 C1774 1.349 . S
C1773 C1775 1.327 . S
C1773 H1796 0.950 . S
C1774 C1773 1.349 . S
C1774 C1786 1.349 . S
C1775 C1773 1.327 . S
C1775 C1791 1.429 . S
C1775 H1797 0.950 . S
C1776 H1772 0.949 . S
C1776 C1784 1.574 . S
C1776 C1792 1.368 . S
H1777 C1785 0.950 . S
H1778 C1783 0.950 . S
H1779 C1784 0.949 . S
H1780 C1786 0.950 . S
H1781 C1787 0.950 . S
H1782 C1788 0.949 . S
C1783 H1778 0.950 . S
C1783 C1785 1.327 . S
C1783 C1789 1.429 . S
C1784 C1776 1.574 . S
C1784 H1779 0.949 . S
C1784 C1790 1.368 . S
C1785 C1769 1.349 . S
C1785 H1777 0.950 . S
C1785 C1783 1.327 . S
C1786 C1774 1.349 . S
C1786 H1780 0.950 . S
C1786 C1787 1.327 . S
C1787 H1781 0.950 . S
C1787 C1786 1.327 . S
C1787 C1791 1.429 . S
C1788 C1771 1.574 . S
C1788 H1782 0.949 . S
C1788 C1792 1.368 . S
C1789 C1770 1.429 . S
C1789 C1783 1.429 . S
C1789 C1790 1.523 . S
C1790 C1771 1.368 . S
C1790 C1784 1.368 . S
C1790 C1789 1.523 . S
C1791 C1775 1.429 . S
C1791 C1787 1.429 . S
C1791 C1792 1.523 . S
C1792 C1776 1.368 . S
C1792 C1788 1.368 . S
C1792 C1791 1.523 . S
H1793 C1768 0.950 . S
H1794 C1770 0.950 . S
H1795 C1771 0.949 . S
H1796 C1773 0.950 . S
H1797 C1775 0.950 . S
C364 C187 1.523 . S
C359 C9 1.617 . S
C394 C188 2.340 . S
C389 C28 2.337 . S
C424 C182 1.021 . S
C419 C49 1.028 . S
C449 C79 1.671 . S
C454 C181 1.727 . S
C479 C99 2.337 . S
C484 C184 2.340 . S
C514 C186 1.021 . S
C509 C101 1.028 . S
C539 C128 1.671 . S
C544 C185 1.727 . S
C569 C141 1.617 . S
C574 C183 1.523 . S
C604 C218 1.311 . S
C599 C16 1.290 . S
C629 C26 1.139 . S
C634 C249 1.165 . S
C664 C217 1.140 . S
C659 C56 1.172 . S
C694 C252 0.935 . S
C689 C69 0.931 . S
C719 C89 1.192 . S
C724 C215 1.198 . S
C754 C247 2.084 . S
C749 C108 2.042 . S
C779 C126 0.946 . S
C784 C220 0.960 . S
C809 C148 1.971 . S
C814 C254 1.928 . S
C839 C19 1.971 . S
C844 C250 1.926 . S
C869 C96 1.139 . S
C874 C253 1.167 . S
C904 C221 1.140 . S
C899 C106 1.174 . S
C934 C248 0.935 . S
C929 C121 0.936 . S
C959 C146 1.291 . S
C964 C214 1.313 . S
C989 C59 2.040 . S
C994 C251 2.082 . S
C1024 C216 0.960 . S
C1019 C76 0.943 . S
C1049 C21 1.192 . S
C1054 C219 1.195 . S
C1079 C149 1.573 . S
C1084 C286 1.484 . S
C1109 C88 1.829 . S
C1114 C287 1.800 . S
C1144 C281 0.987 . S
C1139 C109 0.998 . S
C1174 C280 2.222 . S
C1169 C139 2.131 . S
C1199 C39 1.829 . S
C1204 C283 1.798 . S
C1234 C285 0.987 . S
C1229 C41 0.995 . S
C1259 C68 2.129 . S
C1264 C284 2.221 . S
C1289 C1 1.573 . S
C1294 C282 1.482 . S
C1319 C156 1.402 . S
C1324 C320 1.357 . S
C1354 C352 0.931 . S
C1349 C86 0.921 . S
C1379 C116 1.089 . S
C1384 C313 1.101 . S
C1409 C129 1.210 . S
C1414 C347 1.223 . S
C1444 C318 0.985 . S
C1439 C29 0.963 . S
C1469 C48 2.217 . S
C1474 C349 2.174 . S
C1504 C315 1.233 . S
C1499 C66 1.176 . S
C1534 C350 1.924 . S
C1529 C8 1.893 . S
C1564 C346 1.924 . S
C1559 C159 1.893 . S
C1589 C36 0.921 . S
C1594 C348 0.931 . S
C1619 C46 1.089 . S
C1624 C317 1.101 . S
C1654 C351 1.223 . S
C1649 C61 1.210 . S
C1679 C6 1.402 . S
C1684 C316 1.357 . S
C1709 C119 2.217 . S
C1714 C353 2.174 . S
C1744 C319 1.233 . S
C1739 C136 1.176 . S
C1774 C314 0.985 . S
C1769 C81 0.963 . S
