# Generated by pormake.
# Topology iac, (4,6)-cn, num edge types: 1
# Building blocks:
#     Node 0, Type 0, BuildingBlock: QUQFOY_clean_sbu_3, # of connection points: 4
#     Node 1, Type 0, BuildingBlock: QUQFOY_clean_sbu_3, # of connection points: 4
#     Node 2, Type 0, BuildingBlock: QUQFOY_clean_sbu_3, # of connection points: 4
#     Node 3, Type 0, BuildingBlock: QUQFOY_clean_sbu_3, # of connection points: 4
#     Node 4, Type 0, BuildingBlock: QUQFOY_clean_sbu_3, # of connection points: 4
#     Node 5, Type 0, BuildingBlock: QUQFOY_clean_sbu_3, # of connection points: 4
#     Node 6, Type 0, BuildingBlock: QUQFOY_clean_sbu_3, # of connection points: 4
#     Node 7, Type 0, BuildingBlock: QUQFOY_clean_sbu_3, # of connection points: 4
#     Node 8, Type 0, BuildingBlock: QUQFOY_clean_sbu_3, # of connection points: 4
#     Node 9, Type 0, BuildingBlock: QUQFOY_clean_sbu_3, # of connection points: 4
#     Node 10, Type 0, BuildingBlock: QUQFOY_clean_sbu_3, # of connection points: 4
#     Node 11, Type 0, BuildingBlock: QUQFOY_clean_sbu_3, # of connection points: 4
#     Node 12, Type 0, BuildingBlock: QUQFOY_clean_sbu_3, # of connection points: 4
#     Node 13, Type 0, BuildingBlock: QUQFOY_clean_sbu_3, # of connection points: 4
#     Node 14, Type 0, BuildingBlock: QUQFOY_clean_sbu_3, # of connection points: 4
#     Node 15, Type 0, BuildingBlock: QUQFOY_clean_sbu_3, # of connection points: 4
#     Node 16, Type 0, BuildingBlock: QUQFOY_clean_sbu_3, # of connection points: 4
#     Node 17, Type 0, BuildingBlock: QUQFOY_clean_sbu_3, # of connection points: 4
#     Node 18, Type 0, BuildingBlock: QUQFOY_clean_sbu_3, # of connection points: 4
#     Node 19, Type 0, BuildingBlock: QUQFOY_clean_sbu_3, # of connection points: 4
#     Node 20, Type 0, BuildingBlock: QUQFOY_clean_sbu_3, # of connection points: 4
#     Node 21, Type 0, BuildingBlock: QUQFOY_clean_sbu_3, # of connection points: 4
#     Node 22, Type 0, BuildingBlock: QUQFOY_clean_sbu_3, # of connection points: 4
#     Node 23, Type 0, BuildingBlock: QUQFOY_clean_sbu_3, # of connection points: 4
#     Node 24, Type 1, BuildingBlock: FUNLAD_clean_sbu_0, # of connection points: 6
#     Node 25, Type 1, BuildingBlock: FUNLAD_clean_sbu_0, # of connection points: 6
#     Node 26, Type 1, BuildingBlock: FUNLAD_clean_sbu_0, # of connection points: 6
#     Node 27, Type 1, BuildingBlock: FUNLAD_clean_sbu_0, # of connection points: 6
#     Node 28, Type 1, BuildingBlock: FUNLAD_clean_sbu_0, # of connection points: 6
#     Node 29, Type 1, BuildingBlock: FUNLAD_clean_sbu_0, # of connection points: 6
#     Node 30, Type 1, BuildingBlock: FUNLAD_clean_sbu_0, # of connection points: 6
#     Node 31, Type 1, BuildingBlock: FUNLAD_clean_sbu_0, # of connection points: 6
#     Node 32, Type 1, BuildingBlock: FUNLAD_clean_sbu_0, # of connection points: 6
#     Node 33, Type 1, BuildingBlock: FUNLAD_clean_sbu_0, # of connection points: 6
#     Node 34, Type 1, BuildingBlock: FUNLAD_clean_sbu_0, # of connection points: 6
#     Node 35, Type 1, BuildingBlock: FUNLAD_clean_sbu_0, # of connection points: 6
#     Node 36, Type 1, BuildingBlock: FUNLAD_clean_sbu_0, # of connection points: 6
#     Node 37, Type 1, BuildingBlock: FUNLAD_clean_sbu_0, # of connection points: 6
#     Node 38, Type 1, BuildingBlock: FUNLAD_clean_sbu_0, # of connection points: 6
#     Node 39, Type 1, BuildingBlock: FUNLAD_clean_sbu_0, # of connection points: 6
#     Edge 40, Type (0, 1), BuildingBlock: XUDNAN_clean_linker_2, # of connection points: 2
#     Edge 41, Type (0, 1), BuildingBlock: XUDNAN_clean_linker_2, # of connection points: 2
#     Edge 42, Type (0, 1), BuildingBlock: XUDNAN_clean_linker_2, # of connection points: 2
#     Edge 43, Type (0, 1), BuildingBlock: XUDNAN_clean_linker_2, # of connection points: 2
#     Edge 44, Type (0, 1), BuildingBlock: XUDNAN_clean_linker_2, # of connection points: 2
#     Edge 45, Type (0, 1), BuildingBlock: XUDNAN_clean_linker_2, # of connection points: 2
#     Edge 46, Type (0, 1), BuildingBlock: XUDNAN_clean_linker_2, # of connection points: 2
#     Edge 47, Type (0, 1), BuildingBlock: XUDNAN_clean_linker_2, # of connection points: 2
#     Edge 48, Type (0, 1), BuildingBlock: XUDNAN_clean_linker_2, # of connection points: 2
#     Edge 49, Type (0, 1), BuildingBlock: XUDNAN_clean_linker_2, # of connection points: 2
#     Edge 50, Type (0, 1), BuildingBlock: XUDNAN_clean_linker_2, # of connection points: 2
#     Edge 51, Type (0, 1), BuildingBlock: XUDNAN_clean_linker_2, # of connection points: 2
#     Edge 52, Type (0, 1), BuildingBlock: XUDNAN_clean_linker_2, # of connection points: 2
#     Edge 53, Type (0, 1), BuildingBlock: XUDNAN_clean_linker_2, # of connection points: 2
#     Edge 54, Type (0, 1), BuildingBlock: XUDNAN_clean_linker_2, # of connection points: 2
#     Edge 55, Type (0, 1), BuildingBlock: XUDNAN_clean_linker_2, # of connection points: 2
#     Edge 56, Type (0, 1), BuildingBlock: XUDNAN_clean_linker_2, # of connection points: 2
#     Edge 57, Type (0, 1), BuildingBlock: XUDNAN_clean_linker_2, # of connection points: 2
#     Edge 58, Type (0, 1), BuildingBlock: XUDNAN_clean_linker_2, # of connection points: 2
#     Edge 59, Type (0, 1), BuildingBlock: XUDNAN_clean_linker_2, # of connection points: 2
#     Edge 60, Type (0, 1), BuildingBlock: XUDNAN_clean_linker_2, # of connection points: 2
#     Edge 61, Type (0, 1), BuildingBlock: XUDNAN_clean_linker_2, # of connection points: 2
#     Edge 62, Type (0, 1), BuildingBlock: XUDNAN_clean_linker_2, # of connection points: 2
#     Edge 63, Type (0, 1), BuildingBlock: XUDNAN_clean_linker_2, # of connection points: 2
#     Edge 64, Type (0, 1), BuildingBlock: XUDNAN_clean_linker_2, # of connection points: 2
#     Edge 65, Type (0, 1), BuildingBlock: XUDNAN_clean_linker_2, # of connection points: 2
#     Edge 66, Type (0, 1), BuildingBlock: XUDNAN_clean_linker_2, # of connection points: 2
#     Edge 67, Type (0, 1), BuildingBlock: XUDNAN_clean_linker_2, # of connection points: 2
#     Edge 68, Type (0, 1), BuildingBlock: XUDNAN_clean_linker_2, # of connection points: 2
#     Edge 69, Type (0, 1), BuildingBlock: XUDNAN_clean_linker_2, # of connection points: 2
#     Edge 70, Type (0, 1), BuildingBlock: XUDNAN_clean_linker_2, # of connection points: 2
#     Edge 71, Type (0, 1), BuildingBlock: XUDNAN_clean_linker_2, # of connection points: 2
#     Edge 72, Type (0, 1), BuildingBlock: XUDNAN_clean_linker_2, # of connection points: 2
#     Edge 73, Type (0, 1), BuildingBlock: XUDNAN_clean_linker_2, # of connection points: 2
#     Edge 74, Type (0, 1), BuildingBlock: XUDNAN_clean_linker_2, # of connection points: 2
#     Edge 75, Type (0, 1), BuildingBlock: XUDNAN_clean_linker_2, # of connection points: 2
#     Edge 76, Type (0, 1), BuildingBlock: XUDNAN_clean_linker_2, # of connection points: 2
#     Edge 77, Type (0, 1), BuildingBlock: XUDNAN_clean_linker_2, # of connection points: 2
#     Edge 78, Type (0, 1), BuildingBlock: XUDNAN_clean_linker_2, # of connection points: 2
#     Edge 79, Type (0, 1), BuildingBlock: XUDNAN_clean_linker_2, # of connection points: 2
#     Edge 80, Type (0, 1), BuildingBlock: XUDNAN_clean_linker_2, # of connection points: 2
#     Edge 81, Type (0, 1), BuildingBlock: XUDNAN_clean_linker_2, # of connection points: 2
#     Edge 82, Type (0, 1), BuildingBlock: XUDNAN_clean_linker_2, # of connection points: 2
#     Edge 83, Type (0, 1), BuildingBlock: XUDNAN_clean_linker_2, # of connection points: 2
#     Edge 84, Type (0, 1), BuildingBlock: XUDNAN_clean_linker_2, # of connection points: 2
#     Edge 85, Type (0, 1), BuildingBlock: XUDNAN_clean_linker_2, # of connection points: 2
#     Edge 86, Type (0, 1), BuildingBlock: XUDNAN_clean_linker_2, # of connection points: 2
#     Edge 87, Type (0, 1), BuildingBlock: XUDNAN_clean_linker_2, # of connection points: 2
#     Edge 88, Type (0, 1), BuildingBlock: XUDNAN_clean_linker_2, # of connection points: 2
#     Edge 89, Type (0, 1), BuildingBlock: XUDNAN_clean_linker_2, # of connection points: 2
#     Edge 90, Type (0, 1), BuildingBlock: XUDNAN_clean_linker_2, # of connection points: 2
#     Edge 91, Type (0, 1), BuildingBlock: XUDNAN_clean_linker_2, # of connection points: 2
#     Edge 92, Type (0, 1), BuildingBlock: XUDNAN_clean_linker_2, # of connection points: 2
#     Edge 93, Type (0, 1), BuildingBlock: XUDNAN_clean_linker_2, # of connection points: 2
#     Edge 94, Type (0, 1), BuildingBlock: XUDNAN_clean_linker_2, # of connection points: 2
#     Edge 95, Type (0, 1), BuildingBlock: XUDNAN_clean_linker_2, # of connection points: 2
#     Edge 96, Type (0, 1), BuildingBlock: XUDNAN_clean_linker_2, # of connection points: 2
#     Edge 97, Type (0, 1), BuildingBlock: XUDNAN_clean_linker_2, # of connection points: 2
#     Edge 98, Type (0, 1), BuildingBlock: XUDNAN_clean_linker_2, # of connection points: 2
#     Edge 99, Type (0, 1), BuildingBlock: XUDNAN_clean_linker_2, # of connection points: 2
#     Edge 100, Type (0, 1), BuildingBlock: XUDNAN_clean_linker_2, # of connection points: 2
#     Edge 101, Type (0, 1), BuildingBlock: XUDNAN_clean_linker_2, # of connection points: 2
#     Edge 102, Type (0, 1), BuildingBlock: XUDNAN_clean_linker_2, # of connection points: 2
#     Edge 103, Type (0, 1), BuildingBlock: XUDNAN_clean_linker_2, # of connection points: 2
#     Edge 104, Type (0, 1), BuildingBlock: XUDNAN_clean_linker_2, # of connection points: 2
#     Edge 105, Type (0, 1), BuildingBlock: XUDNAN_clean_linker_2, # of connection points: 2
#     Edge 106, Type (0, 1), BuildingBlock: XUDNAN_clean_linker_2, # of connection points: 2
#     Edge 107, Type (0, 1), BuildingBlock: XUDNAN_clean_linker_2, # of connection points: 2
#     Edge 108, Type (0, 1), BuildingBlock: XUDNAN_clean_linker_2, # of connection points: 2
#     Edge 109, Type (0, 1), BuildingBlock: XUDNAN_clean_linker_2, # of connection points: 2
#     Edge 110, Type (0, 1), BuildingBlock: XUDNAN_clean_linker_2, # of connection points: 2
#     Edge 111, Type (0, 1), BuildingBlock: XUDNAN_clean_linker_2, # of connection points: 2
#     Edge 112, Type (0, 1), BuildingBlock: XUDNAN_clean_linker_2, # of connection points: 2
#     Edge 113, Type (0, 1), BuildingBlock: XUDNAN_clean_linker_2, # of connection points: 2
#     Edge 114, Type (0, 1), BuildingBlock: XUDNAN_clean_linker_2, # of connection points: 2
#     Edge 115, Type (0, 1), BuildingBlock: XUDNAN_clean_linker_2, # of connection points: 2
#     Edge 116, Type (0, 1), BuildingBlock: XUDNAN_clean_linker_2, # of connection points: 2
#     Edge 117, Type (0, 1), BuildingBlock: XUDNAN_clean_linker_2, # of connection points: 2
#     Edge 118, Type (0, 1), BuildingBlock: XUDNAN_clean_linker_2, # of connection points: 2
#     Edge 119, Type (0, 1), BuildingBlock: XUDNAN_clean_linker_2, # of connection points: 2
#     Edge 120, Type (0, 1), BuildingBlock: XUDNAN_clean_linker_2, # of connection points: 2
#     Edge 121, Type (0, 1), BuildingBlock: XUDNAN_clean_linker_2, # of connection points: 2
#     Edge 122, Type (0, 1), BuildingBlock: XUDNAN_clean_linker_2, # of connection points: 2
#     Edge 123, Type (0, 1), BuildingBlock: XUDNAN_clean_linker_2, # of connection points: 2
#     Edge 124, Type (0, 1), BuildingBlock: XUDNAN_clean_linker_2, # of connection points: 2
#     Edge 125, Type (0, 1), BuildingBlock: XUDNAN_clean_linker_2, # of connection points: 2
#     Edge 126, Type (0, 1), BuildingBlock: XUDNAN_clean_linker_2, # of connection points: 2
#     Edge 127, Type (0, 1), BuildingBlock: XUDNAN_clean_linker_2, # of connection points: 2
#     Edge 128, Type (0, 1), BuildingBlock: XUDNAN_clean_linker_2, # of connection points: 2
#     Edge 129, Type (0, 1), BuildingBlock: XUDNAN_clean_linker_2, # of connection points: 2
#     Edge 130, Type (0, 1), BuildingBlock: XUDNAN_clean_linker_2, # of connection points: 2
#     Edge 131, Type (0, 1), BuildingBlock: XUDNAN_clean_linker_2, # of connection points: 2
#     Edge 132, Type (0, 1), BuildingBlock: XUDNAN_clean_linker_2, # of connection points: 2
#     Edge 133, Type (0, 1), BuildingBlock: XUDNAN_clean_linker_2, # of connection points: 2
#     Edge 134, Type (0, 1), BuildingBlock: XUDNAN_clean_linker_2, # of connection points: 2
#     Edge 135, Type (0, 1), BuildingBlock: XUDNAN_clean_linker_2, # of connection points: 2
# Relax obj value: 0.324
# Max RMSD: 0.274
# Mean RMSD: 0.129
data_MOF--net-iac--node1-QUQFOY_clean_sbu_3--node2-FUNLAD_clean_sbu_0--edge1-XUDNAN_clean_linker_2
_symmetry_space_group_name_H-M    P1
_symmetry_Int_Tables_number       1
_symmetry_cell_setting            triclinic
loop_
_symmetry_equiv_pos_as_xyz
'x, y, z'
_cell_length_a     55.454869
_cell_length_b     54.335549
_cell_length_c     60.015134
_cell_angle_alpha  90.822037
_cell_angle_beta   92.054968
_cell_angle_gamma 90.556036
loop_
_atom_site_label
_atom_site_type_symbol
_atom_site_fract_x
_atom_site_fract_y
_atom_site_fract_z
_atom_type_partial_charge
C0 C 0.02774 0.19476 0.20408 0.0
O1 O 0.03457 0.17278 0.20085 0.0
Cd2 Cd 0.06584 0.1636 0.17519 0.0
O3 O 0.03468 0.21206 0.19172 0.0
Cd4 Cd 0.05799 0.21444 0.15823 0.0
C5 C 0.03367 0.16899 0.12788 0.0
O6 O 0.09255 0.19864 0.17857 0.0
O7 O 0.09873 0.20784 0.14441 0.0
O8 O 0.05579 0.25882 0.16542 0.0
C9 C 0.10743 0.20394 0.16383 0.0
O10 O 0.04875 0.15523 0.13795 0.0
C11 C 0.0554 0.26426 0.14489 0.0
O12 O 0.03068 0.19097 0.13425 0.0
O13 O 0.05591 0.24657 0.13094 0.0
C14 C 0.98093 0.77142 0.35811 0.0
O15 O -0.00658 0.78265 0.34406 0.0
Cd16 Cd 0.03593 0.78911 0.34979 0.0
O17 O 0.99112 0.76228 0.3755 0.0
Cd18 Cd 0.03255 0.75693 0.39343 0.0
C19 C 0.03675 0.81851 0.40187 0.0
O20 O 0.0532 0.75029 0.35864 0.0
O21 O 0.07671 0.75799 0.3873 0.0
O22 O 0.01866 0.7149 0.39636 0.0
C23 C 0.07451 0.75154 0.36692 0.0
O24 O 0.03971 0.81831 0.38091 0.0
C25 C 0.02653 0.71084 0.41603 0.0
O26 O 0.0321 0.79854 0.41194 0.0
O27 O 0.03677 0.72893 0.4264 0.0
C28 C 0.52416 0.68313 0.71026 0.0
O29 O 0.53813 0.66479 0.7099 0.0
Cd30 Cd 0.57192 0.6637 0.68601 0.0
O31 O 0.52707 0.70112 0.69725 0.0
Cd32 Cd 0.5527 0.71387 0.6675 0.0
C33 C 0.54152 0.66573 0.63577 0.0
O34 O 0.59041 0.70341 0.68543 0.0
O35 O 0.59119 0.70906 0.64984 0.0
O36 O 0.54886 0.75823 0.67602 0.0
C37 C 0.60268 0.70647 0.66823 0.0
O38 O 0.55719 0.65491 0.64807 0.0
C39 C 0.54487 0.76371 0.6557 0.0
O40 O 0.53317 0.68647 0.64129 0.0
O41 O 0.54334 0.74605 0.64169 0.0
C42 C 0.47995 0.26879 0.85896 0.0
O43 O 0.4918 0.28316 0.8468 0.0
Cd44 Cd 0.53368 0.29295 0.85416 0.0
O45 O 0.49049 0.25763 0.87512 0.0
Cd46 Cd 0.53261 0.25262 0.8918 0.0
C47 C 0.53161 0.31308 0.90862 0.0
O48 O 0.55216 0.25313 0.85602 0.0
O49 O 0.57686 0.25354 0.88449 0.0
O50 O 0.51979 0.21004 0.89411 0.0
C51 C 0.57378 0.25209 0.86345 0.0
O52 O 0.53478 0.31865 0.88838 0.0
C53 C 0.52739 0.20627 0.91396 0.0
O54 O 0.52952 0.29062 0.91418 0.0
O55 O 0.53782 0.22433 0.92413 0.0
C56 C 0.10514 0.04051 0.28442 0.0
O57 O 0.09621 0.05177 0.26769 0.0
Cd58 Cd 0.10623 0.04558 0.22944 0.0
O59 O 0.1209 0.02381 0.28206 0.0
Cd60 Cd 0.14351 0.00535 0.25117 0.0
C61 C 0.16525 0.0621 0.23902 0.0
O62 O 0.11069 0.00242 0.22307 0.0
O63 O 0.14642 -0.00455 0.2119 0.0
O64 O 0.14622 0.96594 0.27054 0.0
C65 C 0.12407 -0.00326 0.20714 0.0
O66 O 0.14506 0.06694 0.2294 0.0
C67 C 0.16833 0.96297 0.26634 0.0
O68 O 0.16878 0.04204 0.24925 0.0
O69 O 0.17884 0.98011 0.25619 0.0
C70 C 0.30985 0.94619 0.54226 0.0
O71 O 0.29197 0.95938 0.53652 0.0
Cd72 Cd 0.25331 0.94295 0.52676 0.0
O73 O 0.3069 0.92354 0.54695 0.0
Cd74 Cd 0.27277 0.89373 0.55208 0.0
C75 C 0.27372 0.89167 0.49664 0.0
O76 O 0.24063 0.92184 0.5582 0.0
O77 O 0.22884 0.88612 0.54653 0.0
O78 O 0.2863 0.89136 0.59019 0.0
C79 C 0.22316 0.90745 0.55322 0.0
O80 O 0.26404 0.91282 0.49809 0.0
C81 C 0.28447 0.86816 0.59177 0.0
O82 O 0.27964 0.87964 0.51406 0.0
O83 O 0.27871 0.85607 0.574 0.0
C84 C 0.43993 -0.00424 0.76891 0.0
O85 O 0.44811 0.97985 0.75547 0.0
Cd86 Cd 0.43449 0.9732 0.71727 0.0
O87 O 0.42211 0.00927 0.76334 0.0
Cd88 Cd 0.39347 0.01282 0.73118 0.0
C89 C 0.37975 0.95083 0.72895 0.0
O90 O 0.42526 0.01417 0.70524 0.0
O91 O 0.38958 0.01957 0.69061 0.0
O92 O 0.38355 0.05504 0.74047 0.0
C93 C 0.41215 0.01851 0.6881 0.0
O94 O 0.40008 0.9456 0.72106 0.0
C95 C 0.36135 0.05055 0.7434 0.0
O96 O 0.37455 0.97291 0.73386 0.0
O97 O 0.35416 0.02841 0.741 0.0
C98 C 0.33945 0.0983 0.03155 0.0
O99 O 0.33244 0.08467 0.0471 0.0
Cd100 Cd 0.29082 0.08254 0.05643 0.0
O101 O 0.32456 0.11087 0.02028 0.0
Cd102 Cd 0.28256 0.11815 0.02158 0.0
C103 C 0.29004 0.14167 0.0726 0.0
O104 O 0.26705 0.07631 0.02192 0.0
O105 O 0.24156 0.10583 0.02659 0.0
O106 O 0.28778 0.11807 0.9823 0.0
C107 C 0.24551 0.08397 0.01998 0.0
O108 O 0.2879 0.11962 0.07909 0.0
C109 C 0.27773 0.13868 0.97942 0.0
O110 O 0.28934 0.14639 0.05199 0.0
O111 O 0.27027 0.14997 -0.00349 0.0
C112 C 0.81691 0.43322 0.03144 0.0
O113 O 0.8024 0.44475 0.01858 0.0
Cd114 Cd 0.76026 0.4335 0.0138 0.0
O115 O 0.80932 0.41582 0.04343 0.0
Cd116 Cd 0.77191 0.3933 0.05071 0.0
C117 C 0.7724 0.37545 -0.00353 0.0
O118 O 0.74485 0.4286 0.05046 0.0
O119 O 0.72829 0.3924 0.05138 0.0
O120 O 0.78871 0.38566 0.08829 0.0
C121 C 0.72597 0.41554 0.05228 0.0
O122 O 0.76259 0.39571 0.99107 0.0
C123 C 0.7809 0.36357 0.08851 0.0
O124 O 0.77853 0.37104 0.01658 0.0
O125 O 0.7693 0.35557 0.07126 0.0
C126 C 0.93292 0.49395 0.28004 0.0
O127 O 0.9441 0.47943 0.26733 0.0
Cd128 Cd 0.93467 0.47293 0.2284 0.0
O129 O 0.91549 0.50685 0.27243 0.0
Cd130 Cd 0.89347 0.51168 0.23616 0.0
C131 C 0.87809 0.45122 0.23584 0.0
O132 O 0.92892 0.51317 0.21284 0.0
O133 O 0.8938 0.51279 0.19595 0.0
O134 O 0.88373 0.5534 0.24881 0.0
C135 C 0.91644 0.51502 0.19484 0.0
O136 O 0.8992 0.44614 0.22965 0.0
C137 C 0.86248 0.55266 0.24012 0.0
O138 O 0.87219 0.4733 0.23997 0.0
O139 O 0.85561 0.53278 0.23045 0.0
C140 C 0.81148 0.56164 0.52695 0.0
O141 O 0.79538 0.5458 0.52152 0.0
Cd142 Cd 0.76151 0.57588 0.526 0.0
O143 O 0.80444 0.58153 0.53522 0.0
Cd144 Cd 0.80211 0.61684 0.5124 0.0
C145 C 0.78515 0.6232 0.56325 0.0
O146 O 0.76631 0.60254 0.49393 0.0
O147 O 0.76682 0.64138 0.50258 0.0
O148 O 0.82912 0.60955 0.4824 0.0
C149 C 0.75553 0.62304 0.49376 0.0
O150 O 0.7699 0.60577 0.55863 0.0
C151 C 0.83706 0.63163 0.48278 0.0
O152 O 0.80027 0.63054 0.54927 0.0
O153 O 0.83197 0.64495 0.49958 0.0
C154 C 0.62294 0.52106 0.7892 0.0
O155 O 0.60884 0.53261 0.776 0.0
Cd156 Cd 0.61386 0.53407 0.73646 0.0
O157 O 0.64138 0.51013 0.78196 0.0
Cd158 Cd 0.66112 0.50474 0.74605 0.0
C159 C 0.66731 0.56502 0.73747 0.0
O160 O 0.62472 0.49345 0.72468 0.0
O161 O 0.65528 0.50315 0.70536 0.0
O162 O 0.67638 0.46588 0.76079 0.0
C163 C 0.6341 0.49431 0.70579 0.0
O164 O 0.64557 0.56461 0.72991 0.0
C165 C 0.69624 0.46727 0.751 0.0
O166 O 0.67673 0.5464 0.74679 0.0
O167 O 0.70016 0.48651 0.73993 0.0
C168 C 0.95281 0.82864 0.84994 0.0
O169 O 0.97104 0.84095 0.84404 0.0
Cd170 Cd 0.00967 0.83516 0.86311 0.0
O171 O 0.95472 0.81274 0.86519 0.0
Cd172 Cd 0.98006 0.79227 0.89192 0.0
C173 C -0.00307 0.84428 0.91858 0.0
O174 O 0.01177 0.79144 0.86621 0.0
O175 O 0.02106 0.77692 0.89854 0.0
O176 O 0.95632 0.75401 0.88744 0.0
C177 C 0.02763 0.78235 0.87921 0.0
O178 O 0.00846 0.85066 0.90154 0.0
C179 C 0.95538 0.75105 0.90837 0.0
O180 O 0.98359 0.82517 0.91823 0.0
O181 O 0.9647 0.76781 0.92095 0.0
C182 C 0.98258 0.24995 0.69273 0.0
O183 O 0.00019 0.24012 0.70324 0.0
Cd184 Cd 0.04019 0.23343 0.6925 0.0
O185 O 0.98562 0.25987 0.67376 0.0
Cd186 Cd 0.02205 0.26721 0.64888 0.0
C187 C 0.02584 0.2049 0.64091 0.0
O188 O 0.05341 0.27076 0.67808 0.0
O189 O 0.06696 0.26733 0.64526 0.0
O190 O 0.01002 0.31013 0.64748 0.0
C191 C 0.07162 0.26967 0.666 0.0
O192 O 0.03386 0.20528 0.66108 0.0
C193 C 0.01149 0.31289 0.6266 0.0
O194 O 0.01901 0.22473 0.63137 0.0
O195 O 0.01681 0.29381 0.61531 0.0
C196 C 0.44747 0.34012 0.36199 0.0
O197 O 0.4644 0.35532 0.35849 0.0
Cd198 Cd 0.50534 0.34591 0.37065 0.0
O199 O 0.45192 0.31947 0.3708 0.0
Cd200 Cd 0.4848 0.29542 0.38594 0.0
C201 C 0.50075 0.33468 0.42616 0.0
O202 O 0.51407 0.3051 0.35763 0.0
O203 O 0.52755 0.28685 0.38733 0.0
O204 O 0.47036 0.25457 0.3727 0.0
C205 C 0.53126 0.29427 0.36782 0.0
O206 O 0.51032 0.34747 0.41115 0.0
C207 C 0.46864 0.24644 0.39235 0.0
O208 O 0.48775 0.316 0.42119 0.0
O209 O 0.47315 0.2615 0.40831 0.0
C210 C 0.47608 0.75574 0.18671 0.0
O211 O 0.48971 0.74357 0.19985 0.0
Cd212 Cd 0.53105 0.73345 0.19337 0.0
O213 O 0.48406 0.76369 0.16839 0.0
Cd214 Cd 0.52298 0.76316 0.14759 0.0
C215 C 0.52666 0.70069 0.14313 0.0
O216 O 0.55099 0.76899 0.17993 0.0
O217 O 0.56689 0.75713 0.14951 0.0
O218 O 0.52017 0.8068 0.13686 0.0
C219 C 0.56996 0.7639 0.1697 0.0
O220 O 0.5316 0.70191 0.16403 0.0
C221 C 0.51923 0.80267 0.11598 0.0
O222 O 0.52064 0.72001 0.13248 0.0
O223 O 0.51965 0.78023 0.10977 0.0
C224 C 0.94264 0.98442 0.82766 0.0
O225 O 0.94855 0.96737 0.81433 0.0
Cd226 Cd 0.93531 0.96383 0.77603 0.0
O227 O 0.929 0.00189 0.8213 0.0
Cd228 Cd 0.90602 0.01422 0.78726 0.0
C229 C 0.87494 0.96104 0.78759 0.0
O230 O 0.93388 0.0028 0.75823 0.0
O231 O 0.89659 0.00818 0.7479 0.0
O232 O 0.91148 0.05885 0.78647 0.0
C233 C 0.91799 0.00362 0.74246 0.0
O234 O 0.89401 0.95072 0.78108 0.0
C235 C 0.88994 0.06358 0.79152 0.0
O236 O 0.87419 0.98399 0.79185 0.0
O237 O 0.87637 0.04544 0.79575 0.0
C238 C 0.81267 0.08162 0.49347 0.0
O239 O 0.79977 0.06749 0.50491 0.0
Cd240 Cd 0.75882 0.07555 0.51454 0.0
O241 O 0.80391 0.10109 0.48497 0.0
Cd242 Cd 0.76509 0.12278 0.48238 0.0
C243 C 0.76582 0.13379 0.53741 0.0
O244 O 0.73652 0.0886 0.48228 0.0
O245 O 0.72287 0.12436 0.4908 0.0
O246 O 0.76785 0.13435 0.44342 0.0
C247 C 0.71882 0.10155 0.488 0.0
O248 O 0.75977 0.11133 0.54001 0.0
C249 C 0.76567 0.15727 0.44741 0.0
O250 O 0.77132 0.14178 0.51842 0.0
O251 O 0.76378 0.16393 0.4676 0.0
C252 C 0.60219 0.00647 0.3329 0.0
O253 O 0.59087 0.02471 0.32483 0.0
Cd254 Cd 0.59957 0.0422 0.28946 0.0
O255 O 0.61995 -0.00302 0.32314 0.0
Cd256 Cd 0.64462 4e-05 0.28964 0.0
C257 C 0.65965 0.06082 0.29669 0.0
O258 O 0.60758 0.00533 0.26937 0.0
O259 O 0.63758 -0.00076 0.24845 0.0
O260 O 0.65072 0.9594 0.30426 0.0
C261 C 0.61547 0.00456 0.24992 0.0
O262 O 0.63729 0.0659 0.29479 0.0
C263 C 0.67161 0.95656 0.29678 0.0
O264 O 0.66703 0.03872 0.29589 0.0
O265 O 0.67992 0.97375 0.28504 0.0
C266 C 0.78011 0.93451 0.00561 0.0
O267 O 0.76599 0.95117 -0.00134 0.0
Cd268 Cd 0.72664 0.92902 -0.00142 0.0
O269 O 0.77116 0.91361 0.00912 0.0
Cd270 Cd 0.75465 0.87475 0.01567 0.0
C271 C 0.73158 0.87743 0.96322 0.0
O272 O 0.72936 0.90284 0.03149 0.0
O273 O 0.7149 0.86575 0.03081 0.0
O274 O 0.78711 0.87089 0.04308 0.0
C275 C 0.71236 0.88831 0.03593 0.0
O276 O 0.72238 0.89847 0.96722 0.0
C277 C 0.78721 0.84753 0.04251 0.0
O278 O 0.74527 0.86675 0.97749 0.0
O279 O 0.77312 0.83684 0.02817 0.0
C280 C 0.30935 0.57818 8e-05 0.0
O281 O 0.29711 0.56637 0.01399 0.0
Cd282 Cd 0.25662 0.57612 0.0238 0.0
O283 O 0.3004 0.59651 0.98979 0.0
Cd284 Cd 0.2635 0.62134 0.98531 0.0
C285 C 0.26687 0.63659 0.04077 0.0
O286 O 0.23772 0.58675 0.98933 0.0
O287 O 0.21866 0.62031 0.9832 0.0
O288 O 0.27664 0.62307 0.94743 0.0
C289 C 0.21773 0.59776 0.98828 0.0
O290 O 0.26135 0.61442 0.04521 0.0
C291 C 0.27355 0.64607 0.94541 0.0
O292 O 0.2699 0.64365 0.02089 0.0
O293 O 0.26511 0.65765 0.96193 0.0
C294 C 0.1173 0.50945 0.83388 0.0
O295 O 0.10116 0.52123 0.82304 0.0
Cd296 Cd 0.10048 0.53167 0.78438 0.0
O297 O 0.13583 0.50095 0.82455 0.0
Cd298 Cd 0.15283 0.49877 0.78668 0.0
C299 C 0.1562 0.56122 0.78537 0.0
O300 O 0.11465 0.49586 0.76678 0.0
O301 O 0.1452 0.4965 0.74593 0.0
O302 O 0.16809 0.45813 0.7952 0.0
C303 C 0.12248 0.49714 0.74729 0.0
O304 O 0.13323 0.56187 0.78389 0.0
C305 C 0.18947 0.46295 0.78947 0.0
O306 O 0.16759 0.54109 0.78723 0.0
O307 O 0.19372 0.48453 0.78266 0.0
C308 C 0.26871 0.41848 0.5068 0.0
O309 O 0.25078 0.43264 0.50411 0.0
Cd310 Cd 0.2121 0.41917 0.51591 0.0
O311 O 0.26661 0.39805 0.51669 0.0
Cd312 Cd 0.24101 0.36963 0.53668 0.0
C313 C 0.20542 0.36178 0.48983 0.0
O314 O 0.2232 0.40399 0.55213 0.0
O315 O 0.20532 0.37047 0.56085 0.0
O316 O 0.27537 0.36636 0.56197 0.0
C317 C 0.20643 0.3938 0.56231 0.0
O318 O 0.20028 0.38461 0.49052 0.0
C319 C 0.27724 0.34318 0.56048 0.0
O320 O 0.21974 0.35225 0.50426 0.0
O321 O 0.26164 0.33175 0.54807 0.0
C322 C 0.44127 0.51674 0.32673 0.0
O323 O 0.45471 0.50334 0.31503 0.0
Cd324 Cd 0.44133 0.48433 0.2802 0.0
O325 O 0.42003 0.52189 0.31974 0.0
Cd326 Cd 0.39235 0.514 0.28789 0.0
C327 C 0.3915 0.45431 0.29939 0.0
O328 O 0.41914 0.51219 0.25743 0.0
O329 O 0.3844 0.49426 0.25174 0.0
O330 O 0.37961 0.55557 0.28143 0.0
C331 C 0.40456 0.50063 0.24415 0.0
O332 O 0.41173 0.45304 0.29001 0.0
C333 C 0.35816 0.55224 0.28752 0.0
O334 O 0.38132 0.47481 0.30292 0.0
O335 O 0.35249 0.53096 0.29424 0.0
C336 C 0.98903 0.001 0.98533 0.0
N337 N 0.97126 0.00339 0.05253 0.0
C338 C 0.95035 0.01358 0.04492 0.0
C339 C 0.92865 0.00714 0.05418 0.0
C340 C 0.92837 0.98966 0.07122 0.0
C341 C 0.95049 0.98141 0.08035 0.0
C342 C 0.97193 0.98861 0.07066 0.0
Zn343 Zn 0.00052 0.00771 0.03367 0.0
C344 C 0.02705 0.96296 0.02736 0.0
N345 N 0.06088 0.01881 0.99371 0.0
C346 C 0.05981 0.03236 0.97479 0.0
C347 C 0.08097 0.00602 -0.00031 0.0
C348 C 0.10123 0.00699 0.98678 0.0
C349 C 0.10112 0.02169 0.96774 0.0
C350 C 0.07997 0.03425 0.96156 0.0
Zn351 Zn 0.03192 0.01559 0.01324 0.0
O352 O 0.97929 -0.00213 0.00396 0.0
C353 C 0.00486 0.06021 0.0189 0.0
O354 O 0.01059 0.00874 0.98492 0.0
H355 H 0.08153 -0.00453 0.01483 0.0
H356 H 0.9502 0.02522 0.03046 0.0
H357 H 0.04351 0.04214 0.97024 0.0
O358 O -0.00802 0.04497 0.02917 0.0
O359 O 0.02442 0.05308 0.01066 0.0
H360 H 0.98888 0.98097 0.07658 0.0
O361 O 0.05354 0.02226 0.04192 0.0
O362 O 0.02224 0.01675 0.06272 0.0
O363 O 0.03883 0.97802 0.01591 0.0
O364 O 0.00907 0.97059 0.03782 0.0
C365 C 0.04466 0.02124 0.06109 0.0
H366 H 0.91213 0.01375 0.04628 0.0
H367 H 0.95105 0.968 0.09354 0.0
H368 H 0.1174 -0.00233 0.99258 0.0
H369 H 0.07939 0.04614 0.94721 0.0
C370 C 0.31619 0.76964 0.2522 0.0
N371 N 0.25118 0.74837 0.22203 0.0
C372 C 0.25764 0.76373 0.2055 0.0
C373 C 0.25769 0.75522 0.18348 0.0
C374 C 0.25064 0.73089 0.17852 0.0
C375 C 0.24158 0.71627 0.19541 0.0
C376 C 0.24204 0.72545 0.21731 0.0
Zn377 Zn 0.26349 0.7571 0.25371 0.0
C378 C 0.28401 0.71236 0.27652 0.0
N379 N 0.29357 0.77409 0.31839 0.0
C380 C 0.30992 0.79295 0.31924 0.0
C381 C 0.28326 0.76599 0.33723 0.0
C382 C 0.28737 0.7787 0.35748 0.0
C383 C 0.30229 0.79977 0.35822 0.0
C384 C 0.31478 0.80589 0.33911 0.0
Zn385 Zn 0.27991 0.76384 0.28743 0.0
O386 O 0.29696 0.76708 0.24031 0.0
C387 C 0.2575 0.80846 0.26672 0.0
O388 O 0.31514 0.76832 0.27328 0.0
H389 H 0.27035 0.75094 0.33625 0.0
H390 H 0.26499 0.7818 0.20962 0.0
H391 H 0.31772 0.79943 0.30414 0.0
O392 O 0.25092 0.79382 0.2509 0.0
O393 O 0.2712 0.80084 0.28246 0.0
H394 H 0.23718 0.7135 0.23073 0.0
O395 O 0.24462 0.75858 0.30032 0.0
O396 O 0.23009 0.74721 0.26719 0.0
O397 O 0.28723 0.72708 0.29296 0.0
O398 O 0.2759 0.72019 0.25786 0.0
C399 C 0.22699 0.75077 0.28789 0.0
H400 H 0.26497 0.76684 0.17077 0.0
H401 H 0.23628 0.69729 0.19208 0.0
H402 H 0.27735 0.77335 0.37182 0.0
H403 H 0.3268 0.82172 0.33907 0.0
C404 C 0.50702 0.02562 0.55517 0.0
N405 N 0.53668 0.95665 0.54385 0.0
C406 C 0.54862 0.96075 0.56379 0.0
C407 C 0.55174 0.94171 0.57889 0.0
C408 C 0.54245 0.91819 0.57347 0.0
C409 C 0.53107 0.91422 0.55239 0.0
C410 C 0.52833 0.93383 0.53776 0.0
Zn411 Zn 0.52831 0.98639 0.52496 0.0
C412 C 0.47737 0.98717 0.50975 0.0
N413 N 0.51068 0.05152 0.49034 0.0
C414 C 0.51604 0.07505 0.49692 0.0
C415 C 0.49915 0.04648 0.47037 0.0
C416 C 0.49241 0.0654 0.45618 0.0
C417 C 0.49773 0.08988 0.46239 0.0
C418 C 0.50973 0.09464 0.4831 0.0
Zn419 Zn 0.5195 0.02202 0.50939 0.0
O420 O 0.51668 0.00453 0.55412 0.0
C421 C 0.56935 0.02299 0.5262 0.0
O422 O 0.50552 0.03865 0.5378 0.0
H423 H 0.4951 0.02766 0.46538 0.0
H424 H 0.55501 0.97907 0.56835 0.0
H425 H 0.52529 0.0786 0.51284 0.0
O426 O 0.56417 0.00074 0.53042 0.0
O427 O 0.55354 0.03685 0.51737 0.0
H428 H 0.51873 0.93107 0.5219 0.0
O429 O 0.53384 0.00514 0.4811 0.0
O430 O 0.53964 0.9685 0.4952 0.0
O431 O 0.48512 0.00733 0.50227 0.0
O432 O 0.49208 0.97295 0.51978 0.0
C433 C 0.54081 0.9831 0.47891 0.0
H434 H 0.56094 0.94548 0.59482 0.0
H435 H 0.52344 0.89641 0.54762 0.0
H436 H 0.48284 0.06086 0.44059 0.0
H437 H 0.51447 0.11324 0.48844 0.0
C438 C 0.27786 0.20601 0.76243 0.0
N439 N 0.24083 0.24619 0.80867 0.0
C440 C 0.22332 0.22851 0.80682 0.0
C441 C 0.21464 0.21784 0.82587 0.0
C442 C 0.225 0.22484 0.84669 0.0
C443 C 0.23986 0.24596 0.84817 0.0
C444 C 0.24761 0.25649 0.82869 0.0
Zn445 Zn 0.26151 0.25211 0.78243 0.0
C446 C 0.31387 0.25711 0.79521 0.0
N447 N 0.30375 0.26447 0.72645 0.0
C448 C 0.29856 0.25029 0.70805 0.0
C449 C 0.32249 0.28083 0.72713 0.0
C450 C 0.33604 0.28438 0.70825 0.0
C451 C 0.33009 0.27102 0.68856 0.0
C452 C 0.31154 0.25325 0.68888 0.0
Zn453 Zn 0.28293 0.25978 0.75311 0.0
O454 O 0.26582 0.21368 0.77863 0.0
C455 C 0.2306 0.2541 0.74059 0.0
O456 O 0.28651 0.22144 0.74914 0.0
H457 H 0.32649 0.29163 0.74211 0.0
H458 H 0.21799 0.22075 0.79069 0.0
H459 H 0.28376 0.23718 0.70798 0.0
O460 O 0.23038 0.25033 0.76136 0.0
O461 O 0.25049 0.25923 0.73173 0.0
H462 H 0.26115 0.27096 0.82964 0.0
O463 O 0.27949 0.29819 0.75771 0.0
O464 O 0.25731 0.29024 0.78638 0.0
O465 O 0.31462 0.2603 0.77431 0.0
O466 O 0.29351 0.25349 0.80374 0.0
C467 C 0.26705 0.30575 0.77377 0.0
H468 H 0.20252 0.20211 0.82414 0.0
H469 H 0.24813 0.25226 0.86387 0.0
H470 H 0.35025 0.29822 0.70873 0.0
H471 H 0.30589 0.24286 0.67403 0.0
C472 C 0.0734 -0.00175 0.52918 0.0
N473 N 0.04477 0.04365 0.47996 0.0
C474 C 0.06614 0.05621 0.47976 0.0
C475 C 0.07507 0.06423 0.45953 0.0
C476 C 0.06177 0.05907 0.43968 0.0
C477 C 0.03928 0.04738 0.44055 0.0
C478 C 0.03106 0.0398 0.46095 0.0
Zn479 Zn 0.03365 0.02527 0.50715 0.0
C480 C 0.02279 0.97142 0.49171 0.0
N481 N 0.0078 0.98122 0.55919 0.0
C482 C 0.01836 0.98664 0.57948 0.0
C483 C 0.98738 0.9672 0.55723 0.0
C484 C 0.97558 0.95995 0.57629 0.0
C485 C 0.9846 0.96773 0.59749 0.0
C486 C 0.00695 0.98023 0.59891 0.0
Zn487 Zn 0.01979 -0.00017 0.53242 0.0
O488 O 0.06883 0.01442 0.51462 0.0
C489 C 0.03119 0.05363 0.54786 0.0
O490 O 0.05629 0.98938 0.54027 0.0
H491 H 0.97935 0.96304 0.54091 0.0
H492 H 0.07681 0.05885 0.49506 0.0
H493 H 0.03469 -0.00231 0.58065 0.0
O494 O 0.03785 0.05712 0.52809 0.0
O495 O 0.02371 0.03234 0.55313 0.0
H496 H 0.01431 0.02951 0.46134 0.0
O497 O 0.98329 0.01055 0.52379 0.0
O498 O -0.00151 0.03603 0.49992 0.0
O499 O 0.01624 0.96779 0.51148 0.0
O500 O 0.02953 0.99295 0.48643 0.0
C501 C 0.98032 0.02725 0.50933 0.0
H502 H 0.09264 0.07307 0.45925 0.0
H503 H 0.02872 0.04305 0.42543 0.0
H504 H 0.95879 0.94969 0.57432 0.0
H505 H 0.0147 0.98687 0.6147 0.0
C506 C 0.25695 0.77622 0.72731 0.0
N507 N 0.31409 0.7333 0.75011 0.0
C508 C 0.31473 0.7155 0.73394 0.0
C509 C 0.33666 0.7043 0.72918 0.0
C510 C 0.35773 0.71191 0.74113 0.0
C511 C 0.35637 0.73019 0.75763 0.0
C512 C 0.33436 0.7406 0.76189 0.0
Zn513 Zn 0.28375 0.74915 0.76092 0.0
C514 C 0.29448 0.80258 0.7743 0.0
N515 N 0.22557 0.78507 0.78986 0.0
C516 C 0.20329 0.78127 0.78016 0.0
C517 C 0.22857 0.79596 0.81033 0.0
C518 C 0.20863 0.8012 0.82287 0.0
C519 C 0.18552 0.79531 0.81411 0.0
C520 C 0.18278 0.78641 0.79209 0.0
Zn521 Zn 0.25466 0.76902 0.77691 0.0
O522 O 0.27282 0.75955 0.72861 0.0
C523 C 0.24256 0.71647 0.76454 0.0
O524 O 0.24611 0.78286 0.74473 0.0
H525 H 0.24648 0.79882 0.81768 0.0
H526 H 0.29828 0.70979 0.72502 0.0
H527 H 0.20144 0.77252 0.76388 0.0
O528 O 0.26408 0.71515 0.75802 0.0
O529 O 0.23449 0.73707 0.77089 0.0
H530 H 0.33349 0.7542 0.77513 0.0
O531 O 0.2641 0.75528 0.80893 0.0
O532 O 0.2949 0.73856 0.7932 0.0
O533 O 0.2743 0.80074 0.78329 0.0
O534 O 0.30274 0.78404 0.76403 0.0
C535 C 0.28299 0.74241 0.81047 0.0
H536 H 0.33724 0.69016 0.71632 0.0
H537 H 0.37222 0.73618 0.76741 0.0
H538 H 0.21128 0.80825 0.83977 0.0
H539 H 0.16515 0.78153 0.7849 0.0
C540 C 0.52379 0.95588 0.02965 0.0
N541 N 0.53291 0.02638 0.05973 0.0
C542 C 0.51756 0.01782 0.07509 0.0
C543 C 0.52116 0.02415 0.09757 0.0
C544 C 0.54093 0.03914 0.10423 0.0
C545 C 0.55542 0.04916 0.08788 0.0
C546 C 0.55099 0.04258 0.06554 0.0
Zn547 Zn 0.53106 0.01164 0.02833 0.0
C548 C 0.57814 -0.00458 0.01455 0.0
N549 N 0.52615 0.9794 0.96361 0.0
C550 C 0.50592 0.96677 0.95651 0.0
C551 C 0.54173 0.98887 0.9489 0.0
C552 C 0.53553 0.98884 0.92621 0.0
C553 C 0.51338 0.97856 0.91875 0.0
C554 C 0.49917 0.96604 0.93386 0.0
Zn555 Zn 0.52838 0.99321 -0.00468 0.0
O556 O 0.52807 0.97482 0.04204 0.0
C557 C 0.48182 0.01059 0.01015 0.0
O558 O 0.52205 0.95846 0.00865 0.0
H559 H 0.55765 -0.00109 0.95494 0.0
H560 H 0.50334 0.00491 0.0701 0.0
H561 H 0.49373 0.95955 0.96853 0.0
O562 O 0.49473 0.01485 0.02759 0.0
O563 O 0.49113 0.0008 0.99324 0.0
H564 H 0.56285 0.04929 0.05302 0.0
O565 O 0.53403 0.02794 0.98205 0.0
O566 O 0.53323 0.04808 0.01384 0.0
O567 O 0.56579 0.98655 -0.002 0.0
O568 O 0.56791 0.00834 0.02907 0.0
C569 C 0.53379 0.04826 0.99265 0.0
H570 H 0.50975 0.01588 0.10975 0.0
H571 H 0.57078 0.06087 0.09246 0.0
H572 H 0.54686 -0.00136 0.9149 0.0
H573 H 0.48188 0.95806 0.92857 0.0
C574 C 0.26628 0.20788 0.26909 0.0
N575 N 0.31633 0.25161 0.23744 0.0
C576 C 0.33248 0.23292 0.23738 0.0
C577 C 0.34573 0.22819 0.21858 0.0
C578 C 0.34095 0.24165 0.19912 0.0
C579 C 0.32667 0.26282 0.20069 0.0
C580 C 0.31469 0.26762 0.22026 0.0
Zn581 Zn 0.29253 0.25438 0.26239 0.0
C582 C 0.24506 0.26948 0.24724 0.0
N583 N 0.246 0.26119 0.31642 0.0
C584 C 0.24778 0.24729 0.33506 0.0
C585 C 0.22985 0.27983 0.31471 0.0
C586 C 0.2155 0.28586 0.33249 0.0
C587 C 0.2181 0.27301 0.35253 0.0
C588 C 0.23395 0.25294 0.35345 0.0
Zn589 Zn 0.26945 0.2573 0.29117 0.0
O590 O 0.27958 0.21876 0.25545 0.0
C591 C 0.3186 0.2449 0.30502 0.0
O592 O 0.26038 0.2191 0.28687 0.0
H593 H 0.22882 0.29088 0.29989 0.0
H594 H 0.33399 0.22051 0.25125 0.0
H595 H 0.26075 0.23256 0.33605 0.0
O596 O 0.31814 0.24052 0.28428 0.0
O597 O 0.29899 0.2506 0.31407 0.0
H598 H 0.3026 0.28307 0.22098 0.0
O599 O 0.27856 0.29485 0.29506 0.0
O600 O 0.30548 0.29004 0.26956 0.0
O601 O 0.24143 0.26516 0.26762 0.0
O602 O 0.26625 0.26804 0.24024 0.0
C603 C 0.29593 0.3034 0.28425 0.0
H604 H 0.35747 0.21238 0.21851 0.0
H605 H 0.32258 0.27411 0.18637 0.0
H606 H 0.20325 0.30119 0.33089 0.0
H607 H 0.23673 0.24265 0.36863 0.0
C608 C 0.56728 0.49082 0.03669 0.0
N609 N 0.54525 0.53204 0.9814 0.0
C610 C 0.56854 0.54022 0.98213 0.0
C611 C 0.58075 0.54322 0.96239 0.0
C612 C 0.56856 0.53838 0.9419 0.0
C613 C 0.54396 0.53234 0.94158 0.0
C614 C 0.53264 0.52894 0.96166 0.0
Zn615 Zn 0.53075 0.51754 0.0091 0.0
C616 C 0.51491 0.4644 -0.00063 0.0
N617 N 0.50055 0.48302 0.06461 0.0
C618 C 0.51434 0.48314 0.0838 0.0
C619 C 0.47769 0.47365 0.06383 0.0
C620 C 0.46725 0.46564 0.08328 0.0
C621 C 0.48069 0.46689 0.10358 0.0
C622 C 0.50492 0.47461 0.10341 0.0
Zn623 Zn 0.51444 0.49869 0.03737 0.0
O624 O 0.56569 0.50504 0.0201 0.0
C625 C 0.53076 0.55086 0.0485 0.0
O626 O 0.54832 0.48501 0.04657 0.0
H627 H 0.46716 0.4734 0.04831 0.0
H628 H 0.57822 0.54264 -0.00202 0.0
H629 H 0.53243 0.49073 0.08419 0.0
O630 O 0.53616 0.5516 0.02804 0.0
O631 O 0.52201 0.53114 0.05614 0.0
H632 H 0.51432 0.52193 0.96138 0.0
O633 O 0.48037 0.51242 0.02776 0.0
O634 O 0.49575 0.5297 -0.00135 0.0
O635 O 0.50736 0.46638 0.019 0.0
O636 O 0.52527 0.48287 0.99084 0.0
C637 C 0.47756 0.52492 0.01017 0.0
H638 H 0.59981 0.54784 0.96312 0.0
H639 H 0.53417 0.52814 0.92601 0.0
H640 H 0.44846 0.45999 0.08259 0.0
H641 H 0.51616 0.47532 0.11855 0.0
C642 C 0.77473 0.25788 0.21805 0.0
N643 N 0.82456 0.23291 0.26606 0.0
C644 C 0.83314 0.21772 0.25006 0.0
C645 C 0.85774 0.21259 0.24977 0.0
C646 C 0.87355 0.22307 0.26621 0.0
C647 C 0.86391 0.23757 0.28318 0.0
C648 C 0.83931 0.24244 0.28268 0.0
Zn649 Zn 0.78992 0.24468 0.26424 0.0
C650 C 0.78921 0.30016 0.26676 0.0
N651 N 0.71885 0.27339 0.26233 0.0
C652 C 0.7008 0.25963 0.25229 0.0
C653 C 0.71398 0.29215 0.27672 0.0
C654 C 0.6905 0.29589 0.28339 0.0
C655 C 0.67217 0.27981 0.27554 0.0
C656 C 0.67711 0.26233 0.25897 0.0
Zn657 Zn 0.75342 0.26091 0.26252 0.0
O658 O 0.79153 0.2482 0.22977 0.0
C659 C 0.75361 0.20541 0.26223 0.0
O660 O 0.755 0.26343 0.22704 0.0
H661 H 0.72852 0.30259 0.28488 0.0
H662 H 0.82106 0.21041 0.23699 0.0
H663 H 0.70504 0.24491 0.24081 0.0
O664 O 0.77642 0.20776 0.26182 0.0
O665 O 0.74055 0.22443 0.26108 0.0
H666 H 0.83217 0.25463 0.29516 0.0
O667 O 0.75254 0.2587 0.29813 0.0
O668 O 0.78812 0.24152 0.29839 0.0
O669 O 0.76663 0.2967 0.26479 0.0
O670 O 0.80311 0.28171 0.26741 0.0
C671 C 0.76991 0.2486 0.30875 0.0
H672 H 0.86441 0.20155 0.23619 0.0
H673 H 0.87536 0.24572 0.29636 0.0
H674 H 0.68726 0.30927 0.29648 0.0
H675 H 0.66327 0.24952 0.25278 0.0
C676 C 0.01904 0.46832 0.5438 0.0
N677 N 0.03679 0.54114 0.56309 0.0
C678 C 0.02071 0.53717 0.57927 0.0
C679 C 0.02673 0.54319 0.60141 0.0
C680 C 0.04962 0.5532 0.60701 0.0
C681 C 0.06497 0.55928 0.58973 0.0
C682 C 0.05814 0.55304 0.56771 0.0
Zn683 Zn 0.03069 0.52283 0.53347 0.0
C684 C 0.07526 0.49795 0.51944 0.0
N685 N 0.01702 0.47933 0.47493 0.0
C686 C -0.00453 0.4672 0.47246 0.0
C687 C 0.02986 0.48566 0.45694 0.0
C688 C 0.01963 0.48268 0.43548 0.0
C689 C -0.00386 0.47314 0.43276 0.0
C690 C 0.98448 0.4641 0.45131 0.0
Zn691 Zn 0.02442 0.4975 0.5044 0.0
O692 O 0.0229 0.48988 0.55188 0.0
C693 C 0.98007 0.52277 0.51886 0.0
O694 O 0.01866 0.46513 0.52278 0.0
H695 H 0.04682 0.49552 0.45932 0.0
H696 H 0.00396 0.52746 0.57531 0.0
H697 H 0.98551 0.46249 0.487 0.0
O698 O -0.00522 0.53278 0.53294 0.0
O699 O 0.98731 0.50643 0.50546 0.0
H700 H 0.07064 0.55606 0.55457 0.0
O701 O 0.02995 0.53067 0.4862 0.0
O702 O 0.0379 0.55502 0.51502 0.0
O703 O 0.06153 0.48865 0.50402 0.0
O704 O 0.06674 0.51297 0.5334 0.0
C705 C 0.03485 0.5521 0.49405 0.0
H706 H 0.01442 0.5379 0.61415 0.0
H707 H 0.08267 0.56726 0.59335 0.0
H708 H 0.02891 0.49008 0.42143 0.0
H709 H 0.96621 0.45688 0.44968 0.0
C710 C 0.78131 0.70937 0.26163 0.0
N711 N 0.749 0.73061 0.31991 0.0
C712 C 0.74282 0.70632 0.31981 0.0
C713 C 0.74823 0.69216 0.33855 0.0
C714 C 0.76008 0.70332 0.35725 0.0
C715 C 0.76225 0.72912 0.358 0.0
C716 C 0.75645 0.7425 0.33904 0.0
Zn717 Zn 0.76024 0.74614 0.29143 0.0
C718 C 0.81305 0.76002 0.29866 0.0
N719 N 0.78882 0.7787 0.23414 0.0
C720 C 0.8087 0.76831 0.22544 0.0
C721 C 0.77614 0.79628 0.223 0.0
C722 C 0.78256 0.80298 0.20161 0.0
C723 C 0.80188 0.7911 0.19168 0.0
C724 C 0.81543 0.77409 0.20399 0.0
Zn725 Zn 0.77598 0.76395 0.26236 0.0
O726 O 0.77213 0.7116 0.28054 0.0
C727 C 0.72321 0.7495 0.25559 0.0
O728 O 0.78417 0.72824 0.24978 0.0
H729 H 0.76033 0.80418 0.23022 0.0
H730 H 0.73663 0.69729 0.30444 0.0
H731 H 0.81862 0.75451 0.23466 0.0
O732 O 0.72637 0.74 0.27471 0.0
O733 O 0.74052 0.76102 0.24687 0.0
H734 H 0.76142 0.76177 0.33877 0.0
O735 O 0.76735 0.79905 0.27492 0.0
O736 O 0.74879 0.78115 0.30214 0.0
O737 O 0.81128 0.76685 0.27849 0.0
O738 O 0.79441 0.75177 0.30778 0.0
C739 C 0.75483 0.80064 0.2922 0.0
H740 H 0.74538 0.67243 0.33755 0.0
H741 H 0.7712 0.73875 0.37192 0.0
H742 H 0.77165 0.81609 0.19241 0.0
H743 H 0.83048 0.76469 0.19676 0.0
C744 C 0.81903 0.26032 0.7527 0.0
N745 N 0.7539 0.24151 0.7189 0.0
C746 C 0.762 0.25529 0.70194 0.0
C747 C 0.7567 0.24829 0.6799 0.0
C748 C 0.7428 0.22695 0.67525 0.0
C749 C 0.7334 0.21395 0.69312 0.0
C750 C 0.73931 0.22154 0.71496 0.0
Zn751 Zn 0.76593 0.24996 0.75038 0.0
C752 C 0.78521 0.20593 0.7735 0.0
N753 N 0.79076 0.26678 0.81649 0.0
C754 C 0.80553 0.2866 0.82062 0.0
C755 C 0.78175 0.25344 0.83336 0.0
C756 C 0.78612 0.26091 0.85544 0.0
C757 C 0.80022 0.28198 0.86005 0.0
C758 C 0.81066 0.29451 0.84253 0.0
Zn759 Zn 0.77899 0.25842 0.78488 0.0
O760 O 0.80178 0.25578 0.73869 0.0
C761 C 0.76229 0.30291 0.76026 0.0
O762 O 0.8145 0.26287 0.77323 0.0
H763 H 0.77017 0.23767 0.82967 0.0
H764 H 0.77349 0.27116 0.70549 0.0
H765 H 0.81239 0.29694 0.80691 0.0
O766 O 0.75789 0.28677 0.74517 0.0
O767 O 0.77115 0.29642 0.77909 0.0
H768 H 0.73298 0.21096 0.72875 0.0
O769 O 0.7434 0.25335 0.79636 0.0
O770 O 0.73019 0.24408 0.76245 0.0
O771 O 0.78738 0.22083 0.78996 0.0
O772 O 0.77532 0.21307 0.75535 0.0
C773 C 0.72601 0.2473 0.78301 0.0
H774 H 0.76462 0.25871 0.66672 0.0
H775 H 0.72233 0.1976 0.69026 0.0
H776 H 0.77771 0.25102 0.8687 0.0
H777 H 0.82138 0.31106 0.84567 0.0
C778 C 0.76807 0.71257 0.75588 0.0
N779 N 0.81479 0.75938 0.72356 0.0
C780 C 0.82665 0.73791 0.72033 0.0
C781 C 0.83032 0.72945 0.69875 0.0
C782 C 0.82117 0.74314 0.68077 0.0
C783 C 0.81344 0.76727 0.68465 0.0
C784 C 0.81054 0.77523 0.70656 0.0
Zn785 Zn 0.79312 0.76104 0.75001 0.0
C786 C 0.74515 0.7742 0.73818 0.0
N787 N 0.74869 0.76068 0.80567 0.0
C788 C 0.74723 0.74287 0.82129 0.0
C789 C 0.73389 0.78047 0.80578 0.0
C790 C 0.71783 0.78378 0.82271 0.0
C791 C 0.71722 0.76683 0.84008 0.0
C792 C 0.73149 0.74562 0.83883 0.0
Zn793 Zn 0.77213 0.75933 0.78056 0.0
O794 O 0.78119 0.72436 0.74272 0.0
C795 C 0.82032 0.7445 0.79165 0.0
O796 O 0.7624 0.72259 0.77415 0.0
H797 H 0.73519 0.79438 0.79318 0.0
H798 H 0.82987 0.72561 0.73409 0.0
H799 H 0.7589 0.72707 0.8206 0.0
O800 O 0.82075 0.74828 0.77084 0.0
O801 O 0.80101 0.74838 0.80189 0.0
H802 H 0.80148 0.79242 0.70963 0.0
O803 O 0.78165 0.7966 0.78673 0.0
O804 O 0.80345 0.79766 0.75683 0.0
O805 O 0.74379 0.76972 0.75877 0.0
O806 O 0.76539 0.77335 0.72929 0.0
C807 C 0.79494 0.80835 0.77372 0.0
H808 H 0.8365 0.71077 0.69635 0.0
H809 H 0.80655 0.7784 0.67106 0.0
H810 H 0.70765 0.80068 0.82317 0.0
H811 H 0.7316 0.73219 0.852 0.0
C812 C 0.49716 0.50321 0.48173 0.0
N813 N 0.46953 0.50503 0.54505 0.0
C814 C 0.45123 0.51782 0.53518 0.0
C815 C 0.42742 0.51075 0.53832 0.0
C816 C 0.42281 0.49023 0.5515 0.0
C817 C 0.44179 0.48022 0.56441 0.0
C818 C 0.46533 0.48792 0.5608 0.0
Zn819 Zn 0.50214 0.50566 0.53108 0.0
C820 C 0.52157 0.45507 0.52569 0.0
N821 N 0.57012 0.50597 0.50118 0.0
C822 C 0.57216 0.52067 0.48315 0.0
C823 C 0.58992 0.49822 0.51303 0.0
C824 C 0.61238 0.5088 0.50934 0.0
C825 C 0.61412 0.52688 0.49303 0.0
C826 C 0.59433 0.53123 0.47858 0.0
Zn827 Zn 0.53752 0.50462 0.51533 0.0
O828 O 0.48514 0.50445 0.49928 0.0
C829 C 0.51879 0.55516 0.52101 0.0
O830 O 0.51999 0.50184 0.4834 0.0
H831 H 0.5879 0.4862 0.52705 0.0
H832 H 0.45506 0.53153 0.52287 0.0
H833 H 0.55622 0.52679 0.47405 0.0
O834 O 0.50156 0.54399 0.53001 0.0
O835 O 0.53627 0.54302 0.51367 0.0
H836 H 0.48023 0.47824 0.56866 0.0
O837 O 0.55454 0.50735 0.54779 0.0
O838 O 0.51898 0.50683 0.56259 0.0
O839 O 0.53896 0.46673 0.5174 0.0
O840 O 0.50323 0.46678 0.53193 0.0
C841 C 0.54178 0.50699 0.56492 0.0
H842 H 0.41323 0.51899 0.52815 0.0
H843 H 0.43878 0.46459 0.575 0.0
H844 H 0.62751 0.505 0.52065 0.0
H845 H 0.59516 0.54518 0.4659 0.0
C846 C 0.0005 0.5173 0.05471 0.0
N847 N 0.04753 0.46117 0.03907 0.0
C848 C 0.0577 0.46493 0.05982 0.0
C849 C 0.06269 0.44506 0.07356 0.0
C850 C 0.05664 0.4211 0.0661 0.0
C851 C 0.04797 0.41763 0.04396 0.0
C852 C 0.04367 0.43806 0.03061 0.0
Zn853 Zn 0.03237 0.49055 0.02351 0.0
C854 C 0.98395 0.47759 0.00385 0.0
N855 N -0.00204 0.552 0.99376 0.0
C856 C -0.00526 0.57266 0.00628 0.0
C857 C 0.9895 0.55031 0.97223 0.0
C858 C 0.97773 0.57018 0.96234 0.0
C859 C 0.97416 0.59181 0.97488 0.0
C860 C 0.98251 0.59264 -0.00271 0.0
Zn861 Zn 0.01441 0.52276 0.00828 0.0
O862 O 0.01457 0.49907 0.05356 0.0
C863 C 0.06249 0.53546 0.02908 0.0
O864 O -0.00278 0.53067 0.03781 0.0
H865 H -0.00799 0.53357 0.96266 0.0
H866 H 0.06048 0.48343 0.06634 0.0
H867 H 0.00159 0.57367 0.02337 0.0
O868 O 0.0615 0.51278 0.03369 0.0
O869 O 0.04481 0.54525 0.01854 0.0
H870 H 0.03563 0.43549 0.01404 0.0
O871 O 0.03233 0.5149 0.97903 0.0
O872 O 0.05063 0.48276 0.9934 0.0
O873 O 0.98418 0.50012 -0.00155 0.0
O874 O 0.00257 0.46862 0.01341 0.0
C875 C 0.04736 0.49756 0.97735 0.0
H876 H 0.07003 0.44858 0.09028 0.0
H877 H 0.04297 0.39954 0.03746 0.0
H878 H 0.97202 0.5687 0.94493 0.0
H879 H 0.97976 0.60859 0.00787 0.0
H880 H 0.05664 0.1574 0.09086 0.0
H881 H 0.98565 0.16302 0.11786 0.0
H882 H 0.96738 0.14675 0.08227 0.0
H883 H 0.03576 0.16976 0.02923 0.0
H884 H 0.05785 0.14832 0.01963 0.0
H885 H 0.06433 0.16702 0.04423 0.0
H886 H 0.07345 0.12788 0.06725 0.0
H887 H 0.06783 0.10955 0.04269 0.0
H888 H 0.05119 0.10346 0.06734 0.0
H889 H 0.9589 0.11962 0.05018 0.0
H890 H 0.96184 0.08164 0.02784 0.0
H891 H 0.03724 0.09725 0.01768 0.0
C892 C 0.0372 0.15573 0.08885 0.0
C893 C 0.02239 0.16097 0.10673 0.0
C894 C -0.0029 0.15886 0.10407 0.0
C895 C 0.98664 0.15004 0.08386 0.0
C896 C 0.00179 0.14437 0.06644 0.0
C897 C 0.02658 0.14751 0.06867 0.0
C898 C 0.03931 0.13638 0.0492 0.0
C899 C 0.04993 0.15658 0.03471 0.0
C900 C 0.05903 0.11823 0.05711 0.0
C901 C 0.0182 0.12353 0.03718 0.0
C902 C -0.0035 0.12933 0.04675 0.0
C903 C 0.97553 0.11556 0.04203 0.0
C904 C 0.97732 0.09396 0.02927 0.0
C905 C -7e-05 0.08655 0.02151 0.0
C906 C 0.01977 0.10283 0.02334 0.0
H907 H 0.12176 0.76655 0.37496 0.0
H908 H 0.07469 0.72733 0.32694 0.0
H909 H 0.10901 0.72116 0.30249 0.0
H910 H 0.15544 0.79848 0.33433 0.0
H911 H 0.18382 0.7971 0.34984 0.0
H912 H 0.15595 0.79722 0.36435 0.0
H913 H 0.16804 0.75673 0.38385 0.0
H914 H 0.19594 0.75652 0.36938 0.0
H915 H 0.17582 0.73028 0.36722 0.0
H916 H 0.14779 0.72057 0.28252 0.0
H917 H 0.18854 0.72615 0.26803 0.0
H918 H 0.2108 0.76612 0.3286 0.0
C919 C 0.11878 0.75642 0.35942 0.0
C920 C 0.09556 0.74732 0.35288 0.0
C921 C 0.0923 0.7345 0.33226 0.0
C922 C 0.1117 0.73083 0.31828 0.0
C923 C 0.13428 0.74023 0.32507 0.0
C924 C 0.13795 0.75284 0.3451 0.0
C925 C 0.16383 0.7621 0.34783 0.0
C926 C 0.16481 0.7904 0.34916 0.0
C927 C 0.17666 0.75071 0.36828 0.0
C928 C 0.1741 0.7526 0.32628 0.0
C929 C 0.15672 0.74004 0.31342 0.0
C930 C 0.1616 0.73026 0.29248 0.0
C931 C 0.1848 0.73357 0.28438 0.0
C932 C 0.20291 0.74649 0.29719 0.0
C933 C 0.19744 0.75593 0.3185 0.0
H934 H 0.55182 0.7798 0.61383 0.0
H935 H 0.53613 0.80546 0.6805 0.0
H936 H 0.53507 0.84841 0.66703 0.0
H937 H 0.59132 0.83085 0.60117 0.0
H938 H 0.58156 0.83121 0.57221 0.0
H939 H 0.58116 0.80279 0.58729 0.0
H940 H 0.53574 0.79684 0.57665 0.0
H941 H 0.536 0.82519 0.56153 0.0
H942 H 0.51483 0.82084 0.58328 0.0
H943 H 0.53433 0.88826 0.64554 0.0
H944 H 0.53439 0.9218 0.61819 0.0
H945 H 0.55253 0.86949 0.56624 0.0
C946 C 0.54801 0.79442 0.62561 0.0
C947 C 0.54375 0.78938 0.64814 0.0
C948 C 0.53931 0.80901 0.66314 0.0
C949 C 0.53873 0.83339 0.65564 0.0
C950 C 0.54302 0.83769 0.63324 0.0
C951 C 0.54776 0.81872 0.61852 0.0
C952 C 0.55207 0.82808 0.59537 0.0
C953 C 0.57807 0.82293 0.58862 0.0
C954 C 0.53354 0.81709 0.57821 0.0
C955 C 0.54819 0.85528 0.59912 0.0
C956 C 0.5432 0.86052 0.62109 0.0
C957 C 0.53847 0.88439 0.62836 0.0
C958 C 0.53868 0.90332 0.61273 0.0
C959 C 0.54357 0.89826 0.59009 0.0
C960 C 0.54856 0.87391 0.58336 0.0
H961 H 0.45607 0.27145 0.81845 0.0
H962 H 0.44472 0.25722 0.88822 0.0
H963 H 0.40079 0.25239 0.87985 0.0
H964 H 0.40342 0.30577 0.80661 0.0
H965 H 0.39776 0.29229 0.77928 0.0
H966 H 0.42812 0.29426 0.79087 0.0
H967 H 0.43285 0.24719 0.78533 0.0
H968 H 0.40251 0.24509 0.77364 0.0
H969 H 0.4113 0.22652 0.79715 0.0
H970 H 0.35736 0.25089 0.8635 0.0
H971 H 0.31928 0.25059 0.8406 0.0
H972 H 0.36001 0.26424 0.78153 0.0
C973 C 0.44434 0.26732 0.83198 0.0
C974 C 0.45376 0.26489 0.85402 0.0
C975 C 0.43787 0.25911 0.8712 0.0
C976 C 0.4129 0.2564 0.8666 0.0
C977 C 0.40417 0.25907 0.84466 0.0
C978 C 0.41952 0.26407 0.8276 0.0
C979 C 0.40584 0.26551 0.80537 0.0
C980 C 0.40897 0.29098 0.79493 0.0
C981 C 0.41359 0.24485 0.78944 0.0
C982 C 0.38026 0.2614 0.8126 0.0
C983 C 0.37958 0.25759 0.83529 0.0
C984 C 0.35777 0.2537 0.8457 0.0
C985 C 0.33621 0.2536 0.83255 0.0
C986 C 0.33657 0.25738 0.80923 0.0
C987 C 0.359 0.26128 0.79928 0.0
H988 H 0.02006 0.83155 0.44382 0.0
H989 H 0.05616 0.86077 0.38663 0.0
H990 H 0.05551 0.90216 0.40331 0.0
H991 H 0.98102 0.88292 0.45177 0.0
H992 H 0.98298 0.88272 0.48181 0.0
H993 H 0.98681 0.85456 0.46615 0.0
H994 H 0.02842 0.8481 0.48605 0.0
H995 H 0.02457 0.87609 0.50194 0.0
H996 H 0.05096 0.87221 0.48561 0.0
H997 H 0.04929 0.94053 0.4242 0.0
H998 H 0.04132 0.97417 0.45049 0.0
H999 H 0.01012 0.9219 0.49577 0.0
C1000 C 0.02809 0.84662 0.43499 0.0
C1001 C 0.03803 0.84277 0.41377 0.0
C1002 C 0.04823 0.8631 0.40275 0.0
C1003 C 0.04797 0.88679 0.41209 0.0
C1004 C 0.03753 0.89011 0.43261 0.0
C1005 C 0.02803 0.87068 0.44417 0.0
C1006 C 0.01783 0.87984 0.46599 0.0
C1007 C 0.99054 0.8747 0.46645 0.0
C1008 C 0.03125 0.86838 0.48609 0.0
C1009 C 0.02312 0.90734 0.46471 0.0
C1010 C 0.03433 0.91268 0.44515 0.0
C1011 C 0.04069 0.93661 0.43968 0.0
C1012 C 0.03595 0.95565 0.45476 0.0
C1013 C 0.02511 0.95082 0.47532 0.0
C1014 C 0.01842 0.92625 0.48023 0.0
H1015 H 0.49688 0.72193 0.72152 0.0
H1016 H 0.50094 0.6425 0.72629 0.0
H1017 H 0.45825 0.64095 0.73692 0.0
H1018 H 0.4521 0.7326 0.76608 0.0
H1019 H 0.43789 0.75641 0.7498 0.0
H1020 H 0.46981 0.75123 0.74803 0.0
H1021 H 0.46396 0.74617 0.70519 0.0
H1022 H 0.43195 0.75021 0.7068 0.0
H1023 H 0.4435 0.72282 0.69387 0.0
H1024 H 0.41314 0.64782 0.74017 0.0
H1025 H 0.37118 0.6634 0.74142 0.0
H1026 H 0.39779 0.73763 0.73198 0.0
C1027 C 0.48907 0.70428 0.72561 0.0
C1028 C 0.50202 0.68234 0.72296 0.0
C1029 C 0.49127 0.65955 0.72837 0.0
C1030 C 0.46701 0.65849 0.73425 0.0
C1031 C 0.45412 0.68039 0.73486 0.0
C1032 C 0.46502 0.70292 0.73122 0.0
C1033 C 0.44702 0.72353 0.73045 0.0
C1034 C 0.452 0.74202 0.74975 0.0
C1035 C 0.4466 0.73642 0.70773 0.0
C1036 C 0.42414 0.70904 0.73352 0.0
C1037 C 0.42843 0.68422 0.73621 0.0
C1038 C 0.40962 0.66726 0.73842 0.0
C1039 C 0.38591 0.67614 0.73876 0.0
C1040 C 0.38153 0.70162 0.73679 0.0
C1041 C 0.40082 0.71805 0.73365 0.0
H1042 H 0.54343 0.19032 0.95581 0.0
H1043 H 0.50451 0.16648 0.89502 0.0
H1044 H 0.50058 0.12493 0.90995 0.0
H1045 H 0.57698 0.1357 0.96399 0.0
H1046 H 0.57496 0.13524 0.9939 0.0
H1047 H 0.57358 0.16406 0.97948 0.0
H1048 H 0.53274 0.17357 -0.00291 0.0
H1049 H 0.53404 0.14479 0.01164 0.0
H1050 H 0.50819 0.15167 0.99383 0.0
H1051 H 0.50324 0.08587 0.92904 0.0
H1052 H 0.51083 0.05021 0.95257 0.0
H1053 H 0.547 0.09726 0.00281 0.0
C1054 C 0.53387 0.17638 0.94579 0.0
C1055 C 0.52434 0.18173 0.92415 0.0
C1056 C 0.51203 0.16294 0.91155 0.0
C1057 C 0.50963 0.13922 0.91991 0.0
C1058 C 0.51947 0.13444 0.94103 0.0
C1059 C 0.53118 0.15238 0.95399 0.0
C1060 C 0.54056 0.14165 0.97595 0.0
C1061 C 0.56816 0.14433 0.97847 0.0
C1062 C 0.52814 0.15364 -0.0042 0.0
C1063 C 0.53289 0.1148 0.97286 0.0
C1064 C 0.52066 0.11135 0.95255 0.0
C1065 C 0.51261 0.08831 0.94506 0.0
C1066 C 0.51723 0.06811 0.95855 0.0
C1067 C 0.52972 0.07085 0.97951 0.0
C1068 C 0.53737 0.09463 0.98693 0.0
H1069 H 0.1251 0.20808 0.20618 0.0
H1070 H 0.14315 0.22311 0.13787 0.0
H1071 H 0.17918 0.24696 0.15182 0.0
H1072 H 0.13894 0.26773 0.22722 0.0
H1073 H 0.1503 0.25703 0.25385 0.0
H1074 H 0.12742 0.23951 0.2384 0.0
H1075 H 0.15434 0.20063 0.23904 0.0
H1076 H 0.17671 0.21771 0.2554 0.0
H1077 H 0.18484 0.20287 0.22974 0.0
H1078 H 0.21404 0.26808 0.17439 0.0
H1079 H 0.24534 0.28101 0.20273 0.0
H1080 H 0.19903 0.25692 0.25511 0.0
C1081 C 0.13672 0.21602 0.194 0.0
C1082 C 0.13136 0.21374 0.17095 0.0
C1083 C 0.14706 0.22454 0.15566 0.0
C1084 C 0.16734 0.23834 0.16343 0.0
C1085 C 0.17119 0.24139 0.18643 0.0
C1086 C 0.15629 0.23035 0.20139 0.0
C1087 C 0.16364 0.23652 0.22521 0.0
C1088 C 0.1439 0.25107 0.23684 0.0
C1089 C 0.17029 0.21305 0.23809 0.0
C1090 C 0.18547 0.2524 0.22153 0.0
C1091 C 0.18973 0.25504 0.1991 0.0
C1092 C 0.21065 0.26647 0.19196 0.0
C1093 C 0.22823 0.2739 0.20816 0.0
C1094 C 0.22453 0.26995 0.23109 0.0
C1095 C 0.20225 0.26056 0.23776 0.0
H1096 H 0.07888 0.00911 0.19075 0.0
H1097 H 0.15002 0.98701 0.1705 0.0
H1098 H 0.13786 0.99381 0.13124 0.0
H1099 H 0.04541 0.9807 0.1438 0.0
H1100 H 0.02387 0.00527 0.14172 0.0
H1101 H 0.03813 -0.00165 0.16829 0.0
H1102 H 0.05272 0.04369 0.17227 0.0
H1103 H 0.03892 0.05062 0.14549 0.0
H1104 H 0.07059 0.05685 0.15085 0.0
H1105 H 0.11933 0.0053 0.09482 0.0
H1106 H 0.09309 0.01387 0.06202 0.0
H1107 H 0.03305 0.02683 0.10511 0.0
C1108 C 0.09177 0.00541 0.17801 0.0
C1109 C 0.11546 -0.00226 0.18366 0.0
C1110 C 0.13183 0.99307 0.16656 0.0
C1111 C 0.12515 -0.003 0.14422 0.0
C1112 C 0.102 0.00543 0.13928 0.0
C1113 C 0.08536 0.00912 0.15556 0.0
C1114 C 0.06149 0.01777 0.14551 0.0
C1115 C 0.04102 -0.00058 0.1501 0.0
C1116 C 0.05559 0.04377 0.15404 0.0
C1117 C 0.06728 0.01794 0.12102 0.0
C1118 C 0.09092 0.01129 0.11794 0.0
C1119 C 0.10072 0.01038 0.09695 0.0
C1120 C 0.08569 0.01548 0.07844 0.0
C1121 C 0.06099 0.02093 0.08102 0.0
C1122 C 0.05184 0.0227 0.10265 0.0
H1123 H 0.28531 0.8441 0.48453 0.0
H1124 H 0.27447 0.91734 0.45804 0.0
H1125 H 0.2838 0.90203 0.42064 0.0
H1126 H 0.33456 0.8267 0.44876 0.0
H1127 H 0.32413 0.79533 0.44511 0.0
H1128 H 0.31806 0.81212 0.47039 0.0
H1129 H 0.27227 0.80336 0.46411 0.0
H1130 H 0.2782 0.78646 0.43891 0.0
H1131 H 0.25752 0.81184 0.43812 0.0
H1132 H 0.29286 0.87926 0.3862 0.0
H1133 H 0.29847 0.8495 0.35572 0.0
H1134 H 0.30314 0.79026 0.40348 0.0
C1135 C 0.28508 0.85692 0.47087 0.0
C1136 C 0.27921 0.88194 0.47426 0.0
C1137 C 0.27883 0.89808 0.45591 0.0
C1138 C 0.28425 0.88961 0.43458 0.0
C1139 C 0.28994 0.86491 0.4318 0.0
C1140 C 0.29024 0.8487 0.44932 0.0
C1141 C 0.29568 0.82278 0.44135 0.0
C1142 C 0.31953 0.8137 0.45204 0.0
C1143 C 0.27466 0.80507 0.44589 0.0
C1144 C 0.29797 0.82697 0.41658 0.0
C1145 C 0.29494 0.85152 0.41159 0.0
C1146 C 0.29554 0.86002 0.38988 0.0
C1147 C 0.29895 0.84294 0.37269 0.0
C1148 C 0.30162 0.81754 0.37721 0.0
C1149 C 0.30131 0.80954 0.39953 0.0
H1150 H 0.45044 -0.00439 0.67084 0.0
H1151 H 0.3987 0.05339 0.65787 0.0
H1152 H 0.42026 0.06472 0.62389 0.0
H1153 H 0.50329 0.0254 0.65234 0.0
H1154 H 0.51498 -0.00172 0.63904 0.0
H1155 H 0.49594 0.99529 0.66256 0.0
H1156 H 0.46644 0.96686 0.6393 0.0
H1157 H 0.48574 0.96933 0.61594 0.0
H1158 H 0.45433 0.97725 0.61284 0.0
H1159 H 0.44815 0.06976 0.59164 0.0
H1160 H 0.47592 0.06411 0.56069 0.0
H1161 H 0.50825 0.00205 0.59491 0.0
C1162 C 0.44369 0.01063 0.66079 0.0
C1163 C 0.42316 0.02381 0.66684 0.0
C1164 C 0.41443 0.04308 0.65327 0.0
C1165 C 0.42667 0.04975 0.63414 0.0
C1166 C 0.44724 0.03663 0.62881 0.0
C1167 C 0.45531 0.01711 0.64148 0.0
C1168 C 0.4767 0.00475 0.63137 0.0
C1169 C 0.49904 0.00603 0.64728 0.0
C1170 C 0.47042 0.97797 0.62445 0.0
C1171 C 0.4798 0.02071 0.61126 0.0
C1172 C 0.46278 0.0391 0.61008 0.0
C1173 C 0.46157 0.05545 0.59239 0.0
C1174 C 0.47753 0.05221 0.57498 0.0
C1175 C 0.49424 0.03265 0.5754 0.0
C1176 C 0.49581 0.01729 0.59415 0.0
H1177 H 0.26422 0.18495 0.9684 0.0
H1178 H 0.28005 0.11312 0.94016 0.0
H1179 H 0.26525 0.12689 0.90318 0.0
H1180 H 0.21047 0.19514 0.93937 0.0
H1181 H 0.21556 0.22743 0.9346 0.0
H1182 H 0.22954 0.21306 0.95854 0.0
H1183 H 0.27198 0.22695 0.94665 0.0
H1184 H 0.25813 0.24229 0.92314 0.0
H1185 H 0.28132 0.21989 0.91884 0.0
H1186 H 0.24603 0.14723 0.8705 0.0
H1187 H 0.23067 0.17528 0.84191 0.0
H1188 H 0.22579 0.23355 0.89193 0.0
C1189 C 0.26486 0.17225 0.95436 0.0
C1190 C 0.27287 0.14796 0.95703 0.0
C1191 C 0.27384 0.13185 0.93834 0.0
C1192 C 0.26536 0.13942 0.91736 0.0
C1193 C 0.25635 0.16314 0.91554 0.0
C1194 C 0.25667 0.17954 0.93335 0.0
C1195 C 0.24615 0.20404 0.92689 0.0
C1196 C 0.22412 0.21026 0.94067 0.0
C1197 C 0.26555 0.22449 0.929 0.0
C1198 C 0.239 0.19855 0.90282 0.0
C1199 C 0.2451 0.17488 0.89664 0.0
C1200 C 0.2411 0.1658 0.87509 0.0
C1201 C 0.23189 0.18184 0.85904 0.0
C1202 C 0.22681 0.20668 0.8647 0.0
C1203 C 0.22942 0.2147 0.88711 0.0
H1204 H 0.10201 0.01198 0.32136 0.0
H1205 H 0.094 0.08684 0.29833 0.0
H1206 H 0.08566 0.10075 0.33669 0.0
H1207 H 0.05295 0.01499 0.35875 0.0
H1208 H 0.06737 -0.00452 0.37917 0.0
H1209 H 0.07407 0.99199 0.35018 0.0
H1210 H 0.11962 -0.00189 0.36028 0.0
H1211 H 0.11299 0.00196 0.38928 0.0
H1212 H 0.12967 0.02548 0.37537 0.0
H1213 H 0.07812 0.1064 0.37777 0.0
H1214 H 0.06703 0.10221 0.41732 0.0
H1215 H 0.07823 0.02358 0.41264 0.0
C1216 C 0.09858 0.03129 0.32446 0.0
C1217 C 0.09874 0.04838 0.30702 0.0
C1218 C 0.09381 0.07346 0.31153 0.0
C1219 C 0.08927 0.08155 0.33326 0.0
C1220 C 0.08941 0.06426 0.35017 0.0
C1221 C 0.09352 0.03958 0.34593 0.0
C1222 C 0.09091 0.02444 0.36666 0.0
C1223 C 0.07009 0.00563 0.3635 0.0
C1224 C 0.11472 0.01176 0.37328 0.0
C1225 C 0.08491 0.04447 0.38326 0.0
C1226 C 0.08438 0.06738 0.37355 0.0
C1227 C 0.07856 0.08857 0.38558 0.0
C1228 C 0.07246 0.08612 0.40797 0.0
C1229 C 0.07213 0.06266 0.41778 0.0
C1230 C 0.07877 0.04173 0.40541 0.0
H1231 H 0.2767 0.81938 0.60223 0.0
H1232 H 0.29347 0.8914 0.63157 0.0
H1233 H 0.28629 0.87533 0.66878 0.0
H1234 H 0.22979 0.80351 0.63684 0.0
H1235 H 0.23763 0.7716 0.64002 0.0
H1236 H 0.2457 0.78771 0.6153 0.0
H1237 H 0.29064 0.77677 0.62222 0.0
H1238 H 0.28265 0.76 0.6466 0.0
H1239 H 0.30524 0.78408 0.64886 0.0
H1240 H 0.27167 0.85406 0.70152 0.0
H1241 H 0.26043 0.82531 0.73071 0.0
H1242 H 0.25701 0.76531 0.6821 0.0
C1243 C 0.27945 0.83157 0.61655 0.0
C1244 C 0.28537 0.85673 0.61395 0.0
C1245 C 0.28878 0.87212 0.63309 0.0
C1246 C 0.28461 0.86322 0.65432 0.0
C1247 C 0.2775 0.83877 0.65621 0.0
C1248 C 0.27576 0.82285 0.63806 0.0
C1249 C 0.26808 0.79728 0.64509 0.0
C1250 C 0.24386 0.78958 0.63363 0.0
C1251 C 0.28784 0.77842 0.64042 0.0
C1252 C 0.26544 0.80158 0.66993 0.0
C1253 C 0.27045 0.82585 0.67574 0.0
C1254 C 0.26802 0.83492 0.69731 0.0
C1255 C 0.26126 0.81851 0.71369 0.0
C1256 C 0.25761 0.79321 0.70854 0.0
C1257 C 0.25949 0.78463 0.68634 0.0
H1258 H 0.458 0.95901 0.79493 0.0
H1259 H 0.44545 0.03767 0.7941 0.0
H1260 H 0.46338 0.04165 0.83235 0.0
H1261 H 0.44214 0.95161 0.85252 0.0
H1262 H 0.46418 0.92805 0.85786 0.0
H1263 H 0.45112 0.93155 0.83018 0.0
H1264 H 0.49383 0.93632 0.81458 0.0
H1265 H 0.50706 0.93287 0.84218 0.0
H1266 H 0.51408 0.95969 0.82621 0.0
H1267 H 0.4841 0.0373 0.86967 0.0
H1268 H 0.50326 0.02453 0.9054 0.0
H1269 H 0.49953 0.94821 0.88337 0.0
C1270 C 0.45924 0.97707 0.80279 0.0
C1271 C 0.45072 -0.00188 0.79159 0.0
C1272 C 0.45202 0.02139 0.80247 0.0
C1273 C 0.46217 0.0238 0.82411 0.0
C1274 C 0.47044 0.00268 0.83472 0.0
C1275 C 0.46876 0.97971 0.82458 0.0
C1276 C 0.47801 0.95984 0.84005 0.0
C1277 C 0.45765 0.9417 0.84547 0.0
C1278 C 0.49953 0.9464 0.83016 0.0
C1279 C 0.48576 0.97532 0.86028 0.0
C1280 C 0.48133 0.0 0.85675 0.0
C1281 C 0.48755 0.01804 0.87268 0.0
C1282 C 0.49853 0.01066 0.8928 0.0
C1283 C 0.50294 0.98549 0.89686 0.0
C1284 C 0.49634 0.96756 0.8805 0.0
H1285 H 0.30115 0.13626 0.11683 0.0
H1286 H 0.29839 0.19054 0.0644 0.0
H1287 H 0.3188 0.22083 0.08991 0.0
H1288 H 0.28868 0.17678 0.16128 0.0
H1289 H 0.30851 0.1612 0.18079 0.0
H1290 H 0.2947 0.14445 0.15762 0.0
H1291 H 0.33735 0.13091 0.14597 0.0
H1292 H 0.35124 0.14864 0.16866 0.0
H1293 H 0.35984 0.15399 0.14044 0.0
H1294 H 0.33878 0.2454 0.12175 0.0
H1295 H 0.34911 0.26402 0.15869 0.0
H1296 H 0.33859 0.19268 0.18892 0.0
C1297 C 0.30461 0.15456 0.11069 0.0
C1298 C 0.29821 0.16101 0.08864 0.0
C1299 C 0.30311 0.18519 0.0813 0.0
C1300 C 0.315 0.20241 0.09555 0.0
C1301 C 0.32198 0.19505 0.11693 0.0
C1302 C 0.31659 0.17181 0.12453 0.0
C1303 C 0.3245 0.16882 0.14861 0.0
C1304 C 0.30281 0.16247 0.16291 0.0
C1305 C 0.34442 0.14944 0.15105 0.0
C1306 C 0.33433 0.19437 0.15368 0.0
C1307 C 0.33335 0.20911 0.13513 0.0
C1308 C 0.3397 0.234 0.13639 0.0
C1309 C 0.34553 0.24442 0.15746 0.0
C1310 C 0.34438 0.23 0.17692 0.0
C1311 C 0.3402 0.20437 0.17461 0.0
H1312 H 0.20435 0.10297 0.00179 0.0
H1313 H 0.2469 0.03647 0.00377 0.0
H1314 H 0.21727 0.0161 0.97762 0.0
H1315 H 0.15036 0.07702 0.00554 0.0
H1316 H 0.13441 0.09764 0.98704 0.0
H1317 H 0.16175 0.10771 0.00114 0.0
H1318 H 0.17932 0.11823 0.96281 0.0
H1319 H 0.15197 0.10724 0.94866 0.0
H1320 H 0.18068 0.09468 0.94145 0.0
H1321 H 0.17976 0.00074 0.95852 0.0
H1322 H 0.13649 0.9904 0.9544 0.0
H1323 H 0.11888 0.06725 0.96256 0.0
C1324 C 0.20762 0.0842 -0.0035 0.0
C1325 C 0.22771 0.07118 0.00498 0.0
C1326 C 0.23147 0.04672 -0.00242 0.0
C1327 C 0.21496 0.03517 0.98243 0.0
C1328 C 0.19517 0.04855 0.97446 0.0
C1329 C 0.19153 0.07261 0.98126 0.0
C1330 C 0.16719 0.08185 0.97325 0.0
C1331 C 0.15258 0.09157 0.99291 0.0
C1332 C 0.16997 0.10167 0.95548 0.0
C1333 C 0.1565 0.05839 0.96304 0.0
C1334 C 0.17334 0.03968 0.96285 0.0
C1335 C 0.16661 0.01532 0.95802 0.0
C1336 C 0.14197 0.00958 0.95557 0.0
C1337 C 0.12454 0.02811 0.95833 0.0
C1338 C 0.13196 0.05293 0.9599 0.0
H1339 H 0.70551 0.4525 0.02807 0.0
H1340 H 0.69301 0.4024 0.0821 0.0
H1341 H 0.65214 0.41937 0.0861 0.0
H1342 H 0.67062 0.5048 0.04803 0.0
H1343 H 0.65834 0.51182 0.02066 0.0
H1344 H 0.68762 0.49789 0.0237 0.0
H1345 H 0.67348 0.46225 -0.00294 0.0
H1346 H 0.64421 0.47607 0.99391 0.0
H1347 H 0.64679 0.44477 0.00318 0.0
H1348 H 0.61276 0.44019 0.08338 0.0
H1349 H 0.57523 0.46106 0.07222 0.0
H1350 H 0.61176 0.49609 0.018 0.0
C1351 C 0.69424 0.44556 0.04099 0.0
C1352 C 0.70227 0.42655 0.05509 0.0
C1353 C 0.68701 0.41715 0.07134 0.0
C1354 C 0.66391 0.42672 0.07377 0.0
C1355 C 0.65632 0.44533 0.0595 0.0
C1356 C 0.67084 0.45446 0.04322 0.0
C1357 C 0.65731 0.47265 0.02862 0.0
C1358 C 0.66918 0.49831 0.03037 0.0
C1359 C 0.65533 0.46337 0.00426 0.0
C1360 C 0.63295 0.4723 0.03928 0.0
C1361 C 0.63296 0.45663 0.05722 0.0
C1362 C 0.61249 0.45256 0.06941 0.0
C1363 C 0.59124 0.4645 0.06288 0.0
C1364 C 0.59053 0.48016 0.04417 0.0
C1365 C 0.61178 0.48433 0.03242 0.0
H1366 H 0.88751 0.40209 0.24052 0.0
H1367 H 0.8297 0.45545 0.24168 0.0
H1368 H 0.80134 0.42284 0.25238 0.0
H1369 H 0.85225 0.35141 0.21779 0.0
H1370 H 0.86758 0.32881 0.23465 0.0
H1371 H 0.88321 0.35647 0.22708 0.0
H1372 H 0.8931 0.36596 0.2689 0.0
H1373 H 0.87713 0.33851 0.2766 0.0
H1374 H 0.86889 0.36795 0.28808 0.0
H1375 H 0.77931 0.38486 0.26261 0.0
H1376 H 0.76409 0.34295 0.26917 0.0
H1377 H 0.83632 0.31429 0.26202 0.0
C1378 C 0.86884 0.40687 0.24279 0.0
C1379 C 0.86078 0.43128 0.24022 0.0
C1380 C 0.83626 0.43685 0.24359 0.0
C1381 C 0.82004 0.41851 0.24976 0.0
C1382 C 0.82869 0.39477 0.25263 0.0
C1383 C 0.85244 0.38884 0.24914 0.0
C1384 C 0.85699 0.36181 0.25315 0.0
C1385 C 0.8655 0.34887 0.2319 0.0
C1386 C 0.8751 0.35837 0.27286 0.0
C1387 C 0.83191 0.35339 0.25892 0.0
C1388 C 0.81595 0.37278 0.25876 0.0
C1389 C 0.79161 0.36952 0.26286 0.0
C1390 C 0.78317 0.34565 0.26659 0.0
C1391 C 0.79904 0.32539 0.26608 0.0
C1392 C 0.82382 0.32945 0.26271 0.0
H1393 H 0.83673 0.52069 0.513 0.0
H1394 H 0.84345 0.59925 0.52696 0.0
H1395 H 0.88624 0.59796 0.51976 0.0
H1396 H 0.88792 0.50496 0.54178 0.0
H1397 H 0.89807 0.48116 0.5232 0.0
H1398 H 0.86651 0.48829 0.52381 0.0
H1399 H 0.86543 0.49632 0.48139 0.0
H1400 H 0.89702 0.4889 0.48053 0.0
H1401 H 0.88644 0.51799 0.47018 0.0
H1402 H 0.92796 0.58838 0.51901 0.0
H1403 H 0.96827 0.57032 0.52273 0.0
H1404 H 0.93764 0.49764 0.50892 0.0
C1405 C 0.84718 0.53765 0.51377 0.0
C1406 C 0.83663 0.56009 0.52017 0.0
C1407 C 0.85094 0.58184 0.5218 0.0
C1408 C 0.87536 0.5814 0.51761 0.0
C1409 C 0.88545 0.55903 0.51202 0.0
C1410 C 0.87199 0.53748 0.50991 0.0
C1411 C 0.88831 0.51554 0.50665 0.0
C1412 C 0.885 0.49637 0.52496 0.0
C1413 C 0.88405 0.50401 0.48329 0.0
C1414 C 0.91287 0.52811 0.50888 0.0
C1415 C 0.91056 0.55327 0.5115 0.0
C1416 C 0.93017 0.5688 0.5164 0.0
C1417 C 0.95291 0.55836 0.51878 0.0
C1418 C 0.95581 0.53272 0.51612 0.0
C1419 C 0.9357 0.51738 0.5107 0.0
H1420 H 0.16819 0.09975 0.2687 0.0
H1421 H 0.20384 0.0672 0.21259 0.0
H1422 H 0.23513 0.10027 0.21524 0.0
H1423 H 0.17758 0.16185 0.25443 0.0
H1424 H 0.18289 0.17311 0.2826 0.0
H1425 H 0.16397 0.14641 0.27725 0.0
H1426 H 0.19044 0.12046 0.30402 0.0
H1427 H 0.20936 0.14701 0.31016 0.0
H1428 H 0.22249 0.11887 0.30024 0.0
H1429 H 0.26137 0.13766 0.22345 0.0
H1430 H 0.2808 0.17666 0.2362 0.0
H1431 H 0.22817 0.18416 0.28767 0.0
C1432 C 0.18272 0.09965 0.2571 0.0
C1433 C 0.18392 0.08123 0.24047 0.0
C1434 C 0.20291 0.08134 0.22543 0.0
C1435 C 0.22066 0.09995 0.22686 0.0
C1436 C 0.21906 0.11798 0.24355 0.0
C1437 C 0.20061 0.11791 0.25844 0.0
C1438 C 0.20267 0.1396 0.27451 0.0
C1439 C 0.18047 0.15624 0.27205 0.0
C1440 C 0.20647 0.13096 0.29866 0.0
C1441 C 0.2251 0.15206 0.26627 0.0
C1442 C 0.2343 0.13929 0.24843 0.0
C1443 C 0.25447 0.14768 0.23754 0.0
C1444 C 0.26539 0.16983 0.24494 0.0
C1445 C 0.25616 0.18331 0.2631 0.0
C1446 C 0.2359 0.17408 0.27401 0.0
H1447 H 0.35333 0.92177 0.54205 0.0
H1448 H 0.32179 0.99457 0.53808 0.0
H1449 H 0.36105 0.01186 0.52829 0.0
H1450 H 0.413 0.9427 0.56567 0.0
H1451 H 0.4291 0.92009 0.5499 0.0
H1452 H 0.39885 0.91355 0.55828 0.0
H1453 H 0.38613 0.90426 0.51702 0.0
H1454 H 0.41618 0.91139 0.50846 0.0
H1455 H 0.39073 0.92742 0.49635 0.0
H1456 H 0.4012 0.02054 0.51432 0.0
H1457 H 0.44361 0.02247 0.50448 0.0
H1458 H 0.45149 0.94489 0.51968 0.0
C1459 C 0.35484 0.94143 0.53967 0.0
C1460 C 0.33439 0.95678 0.54065 0.0
C1461 C 0.3371 0.98239 0.53724 0.0
C1462 C 0.35931 0.99241 0.53159 0.0
C1463 C 0.37875 0.97664 0.52965 0.0
C1464 C 0.37705 0.95184 0.53413 0.0
C1465 C 0.40094 0.93916 0.53055 0.0
C1466 C 0.41107 0.92824 0.55241 0.0
C1467 C 0.39833 0.91939 0.51199 0.0
C1468 C 0.41618 0.96075 0.52325 0.0
C1469 C 0.40272 0.98201 0.52249 0.0
C1470 C 0.4121 0.00414 0.5152 0.0
C1471 C 0.43623 0.00492 0.5094 0.0
C1472 C 0.451 0.98382 0.51138 0.0
C1473 C 0.44068 0.9613 0.51804 0.0
H1474 H 0.85614 0.58608 0.27384 0.0
H1475 H 0.83413 0.56798 0.20547 0.0
H1476 H 0.81001 0.60601 0.20346 0.0
H1477 H 0.79713 0.61046 0.2888 0.0
H1478 H 0.81029 0.63387 0.30717 0.0
H1479 H 0.82568 0.60517 0.30318 0.0
H1480 H 0.86373 0.62906 0.29139 0.0
H1481 H 0.84841 0.65776 0.29525 0.0
H1482 H 0.86125 0.65053 0.26881 0.0
H1483 H 0.79203 0.64811 0.20779 0.0
H1484 H 0.77663 0.68869 0.21995 0.0
H1485 H 0.8063 0.67663 0.28666 0.0
C1486 C 0.84609 0.59015 0.25854 0.0
C1487 C 0.847 0.57441 0.23974 0.0
C1488 C 0.8335 0.57995 0.22003 0.0
C1489 C 0.81985 0.60147 0.21872 0.0
C1490 C 0.81945 0.61681 0.23749 0.0
C1491 C 0.83174 0.61114 0.2572 0.0
C1492 C 0.82774 0.63038 0.27512 0.0
C1493 C 0.81441 0.6193 0.29472 0.0
C1494 C 0.85171 0.64266 0.2831 0.0
C1495 C 0.81188 0.64808 0.26221 0.0
C1496 C 0.80751 0.64009 0.24046 0.0
C1497 C 0.79486 0.65433 0.22491 0.0
C1498 C 0.78629 0.6773 0.23187 0.0
C1499 C 0.79 0.68533 0.25424 0.0
C1500 C 0.8028 0.6705 0.26958 0.0
H1501 H 0.71181 0.43678 0.78451 0.0
H1502 H 0.71494 0.4492 0.71347 0.0
H1503 H 0.73562 0.40958 0.70863 0.0
H1504 H 0.77312 0.40585 0.78844 0.0
H1505 H 0.76333 0.38526 0.80967 0.0
H1506 H 0.75114 0.41585 0.80795 0.0
H1507 H 0.70789 0.39736 0.80526 0.0
H1508 H 0.71989 0.36679 0.80675 0.0
H1509 H 0.70013 0.37503 0.78359 0.0
H1510 H 0.74926 0.36656 0.71053 0.0
H1511 H 0.76017 0.32394 0.71956 0.0
H1512 H 0.75225 0.34012 0.78995 0.0
C1513 C 0.71751 0.43134 0.7681 0.0
C1514 C 0.71201 0.44588 0.74934 0.0
C1515 C 0.71941 0.43835 0.72803 0.0
C1516 C 0.73107 0.4159 0.72513 0.0
C1517 C 0.73588 0.40168 0.74384 0.0
C1518 C 0.73 0.40933 0.76502 0.0
C1519 C 0.73686 0.39015 0.78217 0.0
C1520 C 0.75733 0.39986 0.79799 0.0
C1521 C 0.71487 0.38184 0.79519 0.0
C1522 C 0.7457 0.36981 0.76707 0.0
C1523 C 0.74519 0.37703 0.74506 0.0
C1524 C 0.75041 0.36087 0.72774 0.0
C1525 C 0.75641 0.33667 0.73303 0.0
C1526 C 0.75726 0.32889 0.75546 0.0
C1527 C 0.75218 0.34578 0.77272 0.0
H1528 H 0.03253 0.87789 0.92898 0.0
H1529 H 0.97194 0.83918 0.95674 0.0
H1530 H 0.98195 0.85793 0.99357 0.0
H1531 H 0.07373 0.87611 0.97929 0.0
H1532 H 0.0848 0.90686 0.97466 0.0
H1533 H 0.07535 0.88743 0.95128 0.0
H1534 H 0.04497 0.92051 0.93734 0.0
H1535 H 0.05534 0.94018 0.95997 0.0
H1536 H 0.02366 0.93279 0.95646 0.0
H1537 H -0.00623 0.88562 0.02486 0.0
H1538 H 0.00195 0.92461 0.04518 0.0
H1539 H 0.05821 0.94201 -0.00057 0.0
C1540 C 0.0215 0.87316 0.94286 0.0
C1541 C 0.00157 0.85704 0.94006 0.0
C1542 C 0.98742 0.85146 0.95856 0.0
C1543 C -0.00684 0.86171 0.97961 0.0
C1544 C 0.01331 0.87714 0.98193 0.0
C1545 C 0.02713 0.883 0.96398 0.0
C1546 C 0.04568 0.90266 0.97003 0.0
C1547 C 0.07141 0.89264 0.96875 0.0
C1548 C 0.04217 0.92536 0.9551 0.0
C1549 C 0.03925 0.90798 0.99389 0.0
C1550 C 0.02088 0.89266 0.00065 0.0
C1551 C 0.00855 0.89734 0.02009 0.0
C1552 C 0.01339 0.9195 0.03163 0.0
C1553 C 0.03029 0.93647 0.02346 0.0
C1554 C 0.04516 0.92932 0.00599 0.0
H1555 H 0.93959 0.27485 0.68172 0.0
H1556 H 0.97074 0.22133 0.72733 0.0
H1557 H 0.93278 0.21883 0.74656 0.0
H1558 H 0.90459 0.30639 0.72282 0.0
H1559 H 0.87868 0.31138 0.70452 0.0
H1560 H 0.90827 0.30911 0.69323 0.0
H1561 H 0.89313 0.27383 0.66669 0.0
H1562 H 0.86347 0.27612 0.67782 0.0
H1563 H 0.87889 0.24707 0.6781 0.0
H1564 H 0.89334 0.22321 0.76279 0.0
H1565 H 0.85181 0.23198 0.77343 0.0
H1566 H 0.84297 0.28081 0.71721 0.0
C1567 C 0.9383 0.26252 0.69564 0.0
C1568 C 0.95848 0.24851 0.70303 0.0
C1569 C 0.95591 0.23258 0.72137 0.0
C1570 C 0.93429 0.23092 0.73248 0.0
C1571 C 0.91505 0.24519 0.72518 0.0
C1572 C 0.91654 0.26054 0.7071 0.0
C1573 C 0.89272 0.27388 0.70316 0.0
C1574 C 0.89628 0.30185 0.70611 0.0
C1575 C 0.88139 0.26732 0.68007 0.0
C1576 C 0.87783 0.26341 0.72177 0.0
C1577 C 0.89139 0.24716 0.73435 0.0
C1578 C 0.88244 0.2358 0.75303 0.0
C1579 C 0.85891 0.24104 0.75905 0.0
C1580 C 0.84431 0.25714 0.74626 0.0
C1581 C 0.85381 0.26839 0.72724 0.0
H1582 H 0.45997 0.22603 0.43231 0.0
H1583 H 0.47161 0.20751 0.363 0.0
H1584 H 0.4765 0.16382 0.37305 0.0
H1585 H 0.50418 0.19078 0.4544 0.0
H1586 H 0.48867 0.18109 0.47871 0.0
H1587 H 0.48096 0.20971 0.46577 0.0
H1588 H 0.43625 0.19581 0.46092 0.0
H1589 H 0.44364 0.1673 0.47442 0.0
H1590 H 0.4289 0.16685 0.44715 0.0
H1591 H 0.48754 0.12422 0.39167 0.0
H1592 H 0.49971 0.09066 0.41677 0.0
H1593 H 0.48012 0.13518 0.47387 0.0
C1594 C 0.46266 0.21266 0.4191 0.0
C1595 C 0.46537 0.22007 0.39689 0.0
C1596 C 0.46922 0.20213 0.38009 0.0
C1597 C 0.47212 0.17731 0.38567 0.0
C1598 C 0.47075 0.17085 0.40801 0.0
C1599 C 0.4656 0.18795 0.42439 0.0
C1600 C 0.46732 0.17691 0.44739 0.0
C1601 C 0.48642 0.19043 0.46243 0.0
C1602 C 0.44255 0.17669 0.4581 0.0
C1603 C 0.47522 0.15118 0.4415 0.0
C1604 C 0.47691 0.14796 0.41872 0.0
C1605 C 0.48564 0.1263 0.40948 0.0
C1606 C 0.4925 0.10734 0.42389 0.0
C1607 C 0.49063 0.11016 0.4473 0.0
C1608 C 0.48182 0.13242 0.45609 0.0
H1609 H 0.60449 0.79486 0.18884 0.0
H1610 H 0.58525 0.71798 0.1785 0.0
H1611 H 0.62195 0.7058 0.20019 0.0
H1612 H 0.66855 0.78707 0.18262 0.0
H1613 H 0.67719 0.80985 0.20361 0.0
H1614 H 0.64893 0.81255 0.18814 0.0
H1615 H 0.62626 0.81412 0.22514 0.0
H1616 H 0.65448 0.81136 0.24069 0.0
H1617 H 0.63032 0.78967 0.24488 0.0
H1618 H 0.65969 0.70212 0.22451 0.0
H1619 H 0.69838 0.70703 0.24621 0.0
H1620 H 0.69536 0.78601 0.23777 0.0
C1621 C 0.60812 0.77551 0.19123 0.0
C1622 C 0.59219 0.75726 0.18221 0.0
C1623 C 0.5974 0.73211 0.18538 0.0
C1624 C 0.6181 0.72507 0.19771 0.0
C1625 C 0.63354 0.74344 0.20648 0.0
C1626 C 0.62902 0.76815 0.20316 0.0
C1627 C 0.64909 0.78412 0.21366 0.0
C1628 C 0.66168 0.79929 0.19595 0.0
C1629 C 0.63946 0.8008 0.23219 0.0
C1630 C 0.66562 0.76455 0.22326 0.0
C1631 C 0.65606 0.74123 0.21932 0.0
C1632 C 0.66748 0.72026 0.22748 0.0
C1633 C 0.68934 0.72319 0.23982 0.0
C1634 C 0.69979 0.74682 0.24337 0.0
C1635 C 0.6878 0.76773 0.23496 0.0
H1636 H 0.02712 0.19333 0.59538 0.0
H1637 H 0.02113 0.16088 0.66072 0.0
H1638 H 0.0221 0.11957 0.64385 0.0
H1639 H 0.99018 0.14604 0.56475 0.0
H1640 H 0.00876 0.1461 0.54073 0.0
H1641 H 0.00624 0.17364 0.55754 0.0
H1642 H 0.05277 0.17552 0.56305 0.0
H1643 H 0.05539 0.14785 0.54645 0.0
H1644 H 0.06847 0.14935 0.57437 0.0
H1645 H 0.02504 0.08188 0.62106 0.0
H1646 H 0.02826 0.04909 0.59271 0.0
H1647 H 0.03317 0.10413 0.54122 0.0
C1648 C 0.02564 0.1775 0.60601 0.0
C1649 C 0.0241 0.18046 0.62943 0.0
C1650 C 0.02249 0.15922 0.6428 0.0
C1651 C 0.023 0.13558 0.63338 0.0
C1652 C 0.02514 0.13322 0.61046 0.0
C1653 C 0.02628 0.15346 0.59682 0.0
C1654 C 0.02907 0.14528 0.57268 0.0
C1655 C 0.00726 0.15324 0.55806 0.0
C1656 C 0.05284 0.15509 0.56361 0.0
C1657 C 0.02957 0.11742 0.57508 0.0
C1658 C 0.02715 0.11103 0.59708 0.0
C1659 C 0.02688 0.0866 0.60374 0.0
C1660 C 0.02876 0.06808 0.58747 0.0
C1661 C 0.03103 0.07395 0.5647 0.0
C1662 C 0.03168 0.09904 0.5585 0.0
H1663 H 0.55175 0.32023 0.33456 0.0
H1664 H 0.5618 0.25663 0.37669 0.0
H1665 H 0.5982 0.24555 0.35644 0.0
H1666 H 0.5705 0.29378 0.28395 0.0
H1667 H 0.58666 0.32062 0.27499 0.0
H1668 H 0.56151 0.32404 0.29292 0.0
H1669 H 0.58852 0.3484 0.32182 0.0
H1670 H 0.61368 0.34542 0.30383 0.0
H1671 H 0.61628 0.33506 0.33221 0.0
H1672 H 0.63105 0.2395 0.33004 0.0
H1673 H 0.66311 0.24234 0.30265 0.0
H1674 H 0.63417 0.3116 0.2794 0.0
C1675 C 0.56174 0.30406 0.33953 0.0
C1676 C 0.55397 0.28908 0.35695 0.0
C1677 C 0.56755 0.26828 0.36334 0.0
C1678 C 0.58813 0.26179 0.35188 0.0
C1679 C 0.59504 0.27661 0.33444 0.0
C1680 C 0.58267 0.29764 0.32862 0.0
C1681 C 0.59454 0.31079 0.30973 0.0
C1682 C 0.57727 0.31239 0.28918 0.0
C1683 C 0.60381 0.33643 0.31736 0.0
C1684 C 0.61518 0.29349 0.3055 0.0
C1685 C 0.61488 0.27376 0.31981 0.0
C1686 C 0.63161 0.25491 0.31883 0.0
C1687 C 0.64953 0.25653 0.30313 0.0
C1688 C 0.6507 0.27699 0.2889 0.0
C1689 C 0.63332 0.29568 0.29 0.0
H1690 H 0.5226 0.8527 0.12436 0.0
H1691 H 0.51384 0.79862 0.07063 0.0
H1692 H 0.51311 0.83201 0.0432 0.0
H1693 H 0.48399 0.89936 0.09948 0.0
H1694 H 0.5029 0.92473 0.10925 0.0
H1695 H 0.50206 0.89669 0.12488 0.0
H1696 H 0.54845 0.89317 0.1229 0.0
H1697 H 0.54943 0.9212 0.10728 0.0
H1698 H 0.56218 0.89344 0.09612 0.0
H1699 H 0.51386 0.87078 0.02155 0.0
H1700 H 0.51674 0.91259 0.00669 0.0
H1701 H 0.52562 0.94235 0.0741 0.0
C1702 C 0.52038 0.8479 0.10683 0.0
C1703 C 0.51819 0.82298 0.09966 0.0
C1704 C 0.5155 0.81751 0.07655 0.0
C1705 C 0.51505 0.83637 0.06083 0.0
C1706 C 0.51735 0.86067 0.06843 0.0
C1707 C 0.52 0.86654 0.09085 0.0
C1708 C 0.52261 0.89422 0.09444 0.0
C1709 C 0.50164 0.90434 0.1078 0.0
C1710 C 0.54713 0.90089 0.10586 0.0
C1711 C 0.52119 0.90292 0.07049 0.0
C1712 C 0.51803 0.8832 0.05583 0.0
C1713 C 0.51631 0.88637 0.03286 0.0
C1714 C 0.51797 0.91027 0.02459 0.0
C1715 C 0.52142 0.93088 0.03917 0.0
C1716 C 0.52297 0.92705 0.06249 0.0
H1717 H 0.90626 0.82656 0.86184 0.0
H1718 H 0.95258 0.82054 0.80545 0.0
H1719 H 0.92587 0.78815 0.78887 0.0
H1720 H 0.89633 0.76389 0.86682 0.0
H1721 H 0.8653 0.76567 0.87461 0.0
H1722 H 0.88581 0.79089 0.88113 0.0
H1723 H 0.85865 0.82213 0.85935 0.0
H1724 H 0.83722 0.79722 0.85554 0.0
H1725 H 0.84747 0.81356 0.83176 0.0
H1726 H 0.89954 0.75119 0.78267 0.0
H1727 H 0.86211 0.7276 0.77512 0.0
H1728 H 0.83174 0.75887 0.83464 0.0
C1729 C 0.90985 0.81955 0.84531 0.0
C1730 C 0.93162 0.8255 0.83508 0.0
C1731 C 0.93597 0.81607 0.81354 0.0
C1732 C 0.92138 0.79706 0.8044 0.0
C1733 C 0.90229 0.78867 0.8168 0.0
C1734 C 0.89555 0.80054 0.83606 0.0
C1735 C 0.87392 0.78817 0.84592 0.0
C1736 C 0.88077 0.77646 0.86845 0.0
C1737 C 0.85308 0.80636 0.84828 0.0
C1738 C 0.8685 0.76855 0.82823 0.0
C1739 C 0.88616 0.76813 0.81252 0.0
C1740 C 0.88525 0.75181 0.79447 0.0
C1741 C 0.86404 0.7382 0.79054 0.0
C1742 C 0.84375 0.74274 0.80363 0.0
C1743 C 0.8469 0.75554 0.82415 0.0
H1744 H 0.969 0.01581 0.8549 0.0
H1745 H 0.92804 0.94751 0.85383 0.0
H1746 H 0.93298 0.94513 0.89497 0.0
H1747 H 0.01244 -0.00371 0.89841 0.0
H1748 H 0.01553 0.02683 0.91034 0.0
H1749 H 0.00842 0.0228 0.881 0.0
H1750 H 0.97051 0.04986 0.88521 0.0
H1751 H 0.97729 0.05355 0.91464 0.0
H1752 H 0.94832 0.04142 0.90505 0.0
H1753 H 0.94082 0.95185 0.9368 0.0
H1754 H 0.95636 0.9637 0.97489 0.0
H1755 H -0.00605 0.026 0.9474 0.0
C1756 C 0.96133 0.00029 0.86341 0.0
C1757 C 0.94818 0.98184 0.85152 0.0
C1758 C 0.93836 0.96167 0.86291 0.0
C1759 C 0.94091 0.96029 0.8862 0.0
C1760 C 0.95371 0.97902 0.89763 0.0
C1761 C 0.96427 -0.0017 0.88654 0.0
C1762 C 0.97812 0.01539 0.9025 0.0
C1763 C 0.00523 0.01531 0.89778 0.0
C1764 C 0.96794 0.0416 0.9018 0.0
C1765 C 0.97319 0.00313 0.92432 0.0
C1766 C 0.95894 0.98229 0.92133 0.0
C1767 C 0.9521 0.96808 0.93933 0.0
C1768 C 0.96076 0.97502 0.96086 0.0
C1769 C 0.97626 -0.00429 0.96391 0.0
C1770 C 0.9821 0.01007 0.94546 0.0
H1771 H 0.76232 0.12443 0.58204 0.0
H1772 H 0.76224 0.18361 0.53412 0.0
H1773 H 0.75232 0.21323 0.56373 0.0
H1774 H 0.71355 0.14621 0.61444 0.0
H1775 H 0.72728 0.13761 0.64084 0.0
H1776 H 0.73394 0.12059 0.61585 0.0
H1777 H 0.77975 0.1288 0.62299 0.0
H1778 H 0.77323 0.1453 0.64825 0.0
H1779 H 0.7905 0.16 0.62721 0.0
H1780 H 0.7412 0.23626 0.59806 0.0
H1781 H 0.73629 0.25239 0.63626 0.0
H1782 H 0.74582 0.17869 0.66205 0.0
C1783 C 0.76036 0.14364 0.57783 0.0
C1784 C 0.76297 0.15169 0.55578 0.0
C1785 C 0.76045 0.17701 0.55093 0.0
C1786 C 0.75456 0.19397 0.56757 0.0
C1787 C 0.75148 0.18535 0.589 0.0
C1788 C 0.75479 0.16091 0.59429 0.0
C1789 C 0.75173 0.15674 0.6189 0.0
C1790 C 0.73035 0.13925 0.62272 0.0
C1791 C 0.7752 0.14716 0.62999 0.0
C1792 C 0.74638 0.1827 0.62658 0.0
C1793 C 0.74588 0.19883 0.609 0.0
C1794 C 0.74171 0.22386 0.61202 0.0
C1795 C 0.739 0.23285 0.63376 0.0
C1796 C 0.74084 0.21686 0.65218 0.0
C1797 C 0.7439 0.19137 0.64836 0.0
H1798 H 0.61132 0.02355 0.37489 0.0
H1799 H 0.57486 0.96509 0.33689 0.0
H1800 H 0.55912 0.94805 0.37179 0.0
H1801 H 0.6276 0.98483 0.42188 0.0
H1802 H 0.62289 0.00696 0.44358 0.0
H1803 H 0.63328 0.017 0.41702 0.0
H1804 H 0.59858 0.04596 0.4089 0.0
H1805 H 0.58743 0.0405 0.43611 0.0
H1806 H 0.56787 0.03567 0.41186 0.0
H1807 H 0.54371 0.94069 0.41093 0.0
H1808 H 0.52942 0.94484 0.44964 0.0
H1809 H 0.57727 0.00748 0.46107 0.0
C1810 C 0.60029 0.00698 0.37408 0.0
C1811 C 0.59415 -0.00447 0.35353 0.0
C1812 C 0.57969 0.97393 0.35274 0.0
C1813 C 0.5708 0.96412 0.37242 0.0
C1814 C 0.57699 0.97598 0.39262 0.0
C1815 C 0.5916 -0.00317 0.3935 0.0
C1816 C 0.59489 0.00683 0.41696 0.0
C1817 C 0.62122 0.0038 0.42533 0.0
C1818 C 0.58672 0.03382 0.41855 0.0
C1819 C 0.57828 0.9897 0.42894 0.0
C1820 C 0.56863 0.97149 0.41489 0.0
C1821 C 0.55151 0.9546 0.42217 0.0
C1822 C 0.54356 0.95697 0.44413 0.0
C1823 C 0.55251 0.97632 0.45816 0.0
C1824 C 0.57049 0.99233 0.45064 0.0
H1825 H 0.80826 0.86627 0.08076 0.0
H1826 H 0.79134 0.7976 0.04561 0.0
H1827 H 0.8002 0.77481 0.0801 0.0
H1828 H 0.85513 0.84044 0.12276 0.0
H1829 H 0.84419 0.86032 0.14438 0.0
H1830 H 0.84368 0.87043 0.11587 0.0
H1831 H 0.79799 0.87888 0.11816 0.0
H1832 H 0.79809 0.86821 0.14633 0.0
H1833 H 0.77786 0.85425 0.12551 0.0
H1834 H 0.80248 0.76052 0.11907 0.0
H1835 H 0.79954 0.75547 0.15974 0.0
H1836 H 0.81234 0.83365 0.17004 0.0
C1837 C 0.80758 0.84635 0.08005 0.0
C1838 C 0.79925 0.83365 0.06053 0.0
C1839 C 0.79791 0.80764 0.06036 0.0
C1840 C 0.80291 0.79455 0.07989 0.0
C1841 C 0.80943 0.80777 0.0993 0.0
C1842 C 0.81217 0.8331 0.09947 0.0
C1843 C 0.81569 0.84326 0.12303 0.0
C1844 C 0.84119 0.85426 0.12672 0.0
C1845 C 0.79624 0.86225 0.12856 0.0
C1846 C 0.81279 0.81992 0.13612 0.0
C1847 C 0.80997 0.79957 0.1221 0.0
C1848 C 0.80534 0.77618 0.13022 0.0
C1849 C 0.80364 0.77349 0.15327 0.0
C1850 C 0.80604 0.79416 0.1678 0.0
C1851 C 0.81078 0.8176 0.15916 0.0
H1852 H 0.96106 0.98782 0.72625 0.0
H1853 H 0.88645 0.00214 0.70653 0.0
H1854 H 0.89445 0.98903 0.66805 0.0
H1855 H 0.98669 0.01059 0.67779 0.0
H1856 H 0.00995 0.98772 0.67655 0.0
H1857 H -0.00216 -0.00381 0.70295 0.0
H1858 H 0.98711 0.95049 0.70983 0.0
H1859 H -0.00098 0.94191 0.6833 0.0
H1860 H 0.96845 0.93366 0.68953 0.0
H1861 H 0.91097 0.97788 0.63144 0.0
H1862 H 0.93539 0.97188 0.5986 0.0
H1863 H -0.00085 0.96235 0.6418 0.0
C1864 C 0.94637 0.988 0.71386 0.0
C1865 C 0.92312 -0.00406 0.7194 0.0
C1866 C 0.90441 -0.00392 0.7027 0.0
C1867 C 0.90872 0.98852 0.68081 0.0
C1868 C 0.93179 0.98072 0.67591 0.0
C1869 C 0.95034 0.98043 0.6919 0.0
C1870 C 0.97382 0.97264 0.68186 0.0
C1871 C -0.00679 0.993 0.68496 0.0
C1872 C 0.98261 0.94822 0.69172 0.0
C1873 C 0.9657 0.96944 0.65759 0.0
C1874 C 0.94132 0.97385 0.65462 0.0
C1875 C 0.93 0.9739 0.63356 0.0
C1876 C 0.94409 0.9702 0.61493 0.0
C1877 C 0.96933 0.96645 0.61741 0.0
C1878 C 0.97999 0.96525 0.63918 0.0
H1879 H 0.77997 0.15084 0.40472 0.0
H1880 H 0.74934 0.20453 0.44954 0.0
H1881 H 0.7467 0.23449 0.41892 0.0
H1882 H 0.81678 0.19356 0.37589 0.0
H1883 H 0.81226 0.17813 0.34926 0.0
H1884 H 0.81101 0.16085 0.37457 0.0
H1885 H 0.76823 0.14469 0.36249 0.0
H1886 H 0.76936 0.16198 0.33717 0.0
H1887 H 0.74482 0.1664 0.35563 0.0
H1888 H 0.7454 0.25778 0.38226 0.0
H1889 H 0.74946 0.27336 0.34373 0.0
H1890 H 0.78376 0.20514 0.32499 0.0
C1891 C 0.77268 0.16888 0.40809 0.0
C1892 C 0.76475 0.17537 0.42939 0.0
C1893 C 0.75555 0.19924 0.43326 0.0
C1894 C 0.7539 0.21633 0.41599 0.0
C1895 C 0.76179 0.20931 0.39509 0.0
C1896 C 0.77124 0.18622 0.39119 0.0
C1897 C 0.77912 0.18335 0.36749 0.0
C1898 C 0.80641 0.17871 0.36678 0.0
C1899 C 0.76451 0.1629 0.35497 0.0
C1900 C 0.77274 0.20842 0.35872 0.0
C1901 C 0.76237 0.22309 0.37465 0.0
C1902 C 0.75384 0.2466 0.36974 0.0
C1903 C 0.75617 0.25529 0.34794 0.0
C1904 C 0.76744 0.24063 0.33178 0.0
C1905 C 0.77573 0.21699 0.33731 0.0
H1906 H 0.628 0.00531 0.20623 0.0
H1907 H 0.56938 0.02194 0.24987 0.0
H1908 H 0.54484 0.03643 0.2176 0.0
H1909 H 0.61987 0.05698 0.16944 0.0
H1910 H 0.62673 0.03943 0.14479 0.0
H1911 H 0.64003 0.03121 0.17144 0.0
H1912 H 0.62287 0.98684 0.16654 0.0
H1913 H 0.60981 0.99484 0.13977 0.0
H1914 H 0.59099 0.98231 0.16078 0.0
H1915 H 0.52582 0.04682 0.18011 0.0
H1916 H 0.51372 0.05102 0.14016 0.0
H1917 H 0.58524 0.02876 0.12172 0.0
C1918 C 0.61004 0.01208 0.20902 0.0
C1919 C 0.60059 0.01252 0.23052 0.0
C1920 C 0.57696 0.02139 0.23349 0.0
C1921 C 0.56292 0.02979 0.2153 0.0
C1922 C 0.57283 0.02925 0.1943 0.0
C1923 C 0.59582 0.02054 0.19108 0.0
C1924 C 0.60189 0.02086 0.16674 0.0
C1925 C 0.62341 0.03816 0.16289 0.0
C1926 C 0.60666 0.99466 0.15795 0.0
C1927 C 0.57868 0.03097 0.15674 0.0
C1928 C 0.56211 0.03574 0.17286 0.0
C1929 C 0.53876 0.04348 0.16735 0.0
C1930 C 0.53203 0.04584 0.14471 0.0
C1931 C 0.54871 0.04065 0.12801 0.0
C1932 C 0.5724 0.0336 0.1342 0.0
H1933 H 0.75392 0.83753 0.94667 0.0
H1934 H 0.69159 0.88397 0.93517 0.0
H1935 H 0.67583 0.85432 0.90621 0.0
H1936 H 0.76197 0.81976 0.89087 0.0
H1937 H 0.77157 0.78928 0.89839 0.0
H1938 H 0.77627 0.81444 0.9178 0.0
H1939 H 0.75317 0.78938 0.947 0.0
H1940 H 0.74729 0.76475 0.92706 0.0
H1941 H 0.72259 0.77934 0.94064 0.0
H1942 H 0.6682 0.81988 0.87756 0.0
H1943 H 0.67382 0.78951 0.84719 0.0
H1944 H 0.73981 0.76515 0.88042 0.0
C1945 C 0.73693 0.8416 0.93809 0.0
C1946 C 0.72388 0.86292 0.94326 0.0
C1947 C 0.70194 0.86773 0.93137 0.0
C1948 C 0.69267 0.8508 0.91522 0.0
C1949 C 0.7055 0.82923 0.91146 0.0
C1950 C 0.72737 0.82492 0.92235 0.0
C1951 C 0.73867 0.80138 0.91454 0.0
C1952 C 0.76356 0.80653 0.90481 0.0
C1953 C 0.74052 0.78261 0.93344 0.0
C1954 C 0.7202 0.79336 0.89679 0.0
C1955 C 0.70088 0.80931 0.89552 0.0
C1956 C 0.68308 0.80716 0.87859 0.0
C1957 C 0.68629 0.78972 0.8615 0.0
C1958 C 0.70737 0.77516 0.86143 0.0
C1959 C 0.7233 0.77563 0.88023 0.0
H1960 H 0.79765 0.9777 0.0248 0.0
H1961 H 0.81647 0.90218 0.00928 0.0
H1962 H 0.85269 0.90601 0.03403 0.0
H1963 H 0.85768 0.00194 0.02515 0.0
H1964 H 0.85286 0.02338 0.04772 0.0
H1965 H 0.82788 0.01355 0.02977 0.0
H1966 H 0.80552 -0.00018 0.06487 0.0
H1967 H 0.83118 0.00844 0.0827 0.0
H1968 H 0.81921 0.9775 0.08317 0.0
H1969 H 0.88687 0.9177 0.0589 0.0
H1970 H 0.92299 0.93993 0.07292 0.0
H1971 H 0.88262 0.00788 0.07434 0.0
C1972 C 0.8097 0.9622 0.02631 0.0
C1973 C 0.80434 0.93964 0.01522 0.0
C1974 C 0.82035 0.91963 0.0177 0.0
C1975 C 0.84068 0.92147 0.03203 0.0
C1976 C 0.84474 0.94343 0.0438 0.0
C1977 C 0.83017 0.96369 0.04065 0.0
C1978 C 0.84005 0.98579 0.05375 0.0
C1979 C 0.84492 0.00742 0.03816 0.0
C1980 C 0.82297 0.99332 0.07222 0.0
C1981 C 0.86322 0.97514 0.06355 0.0
C1982 C 0.86495 0.95036 0.05837 0.0
C1983 C 0.88572 0.93703 0.06331 0.0
C1984 C 0.90616 0.94983 0.0716 0.0
C1985 C 0.90568 0.97576 0.07436 0.0
C1986 C 0.88339 0.98807 0.07231 0.0
H1987 H 0.33717 0.54594 0.02417 0.0
H1988 H 0.33874 0.59488 0.96765 0.0
H1989 H 0.38157 0.58487 0.96269 0.0
H1990 H 0.39475 0.56198 0.04668 0.0
H1991 H 0.40204 0.53137 0.05574 0.0
H1992 H 0.37105 0.54082 0.05369 0.0
H1993 H 0.36072 0.5037 0.02733 0.0
H1994 H 0.3917 0.49406 0.02937 0.0
H1995 H 0.37748 0.49935 0.00241 0.0
H1996 H 0.4249 0.57106 0.96514 0.0
H1997 H 0.46532 0.55483 0.97512 0.0
H1998 H 0.43506 0.51559 0.03031 0.0
C1999 C 0.34639 0.55431 0.01055 0.0
C2000 C 0.33457 0.57114 -0.00373 0.0
C2001 C 0.34742 0.58193 0.97882 0.0
C2002 C 0.37173 0.57631 0.97582 0.0
C2003 C 0.38292 0.55991 0.99041 0.0
C2004 C 0.37065 0.54905 0.00741 0.0
C2005 C 0.38708 0.533 0.0215 0.0
C2006 C 0.38883 0.54236 0.04583 0.0
C2007 C 0.37875 0.50592 0.02005 0.0
C2008 C 0.4106 0.53679 0.00997 0.0
C2009 C 0.40784 0.5522 0.99196 0.0
C2010 C 0.42726 0.55885 0.97912 0.0
C2011 C 0.45013 0.54957 0.98493 0.0
C2012 C 0.45335 0.53397 0.0035 0.0
C2013 C 0.43322 0.52745 0.016 0.0
H2014 H 0.19087 0.57765 0.75754 0.0
H2015 H 0.15081 0.59714 0.81585 0.0
H2016 H 0.17075 0.63794 0.81749 0.0
H2017 H 0.24727 0.61177 0.77283 0.0
H2018 H 0.25166 0.62187 0.74477 0.0
H2019 H 0.23641 0.59306 0.74944 0.0
H2020 H 0.1998 0.60759 0.7253 0.0
H2021 H 0.21482 0.63652 0.72073 0.0
H2022 H 0.1853 0.63607 0.73236 0.0
H2023 H 0.1913 0.67662 0.81143 0.0
H2024 H 0.21331 0.71276 0.79894 0.0
H2025 H 0.24116 0.67013 0.74383 0.0
C2026 C 0.1868 0.59047 0.77083 0.0
C2027 C 0.16957 0.58452 0.78673 0.0
C2028 C 0.16402 0.60163 0.80363 0.0
C2029 C 0.17528 0.62471 0.80471 0.0
C2030 C 0.19177 0.63037 0.78855 0.0
C2031 C 0.19764 0.61389 0.77192 0.0
C2032 C 0.21465 0.62568 0.75575 0.0
C2033 C 0.23895 0.61229 0.75571 0.0
C2034 C 0.20294 0.62651 0.73214 0.0
C2035 C 0.21733 0.65132 0.76599 0.0
C2036 C 0.20383 0.65338 0.78486 0.0
C2037 C 0.20207 0.67528 0.79679 0.0
C2038 C 0.21449 0.69578 0.78936 0.0
C2039 C 0.22876 0.6943 0.77026 0.0
C2040 C 0.23039 0.6717 0.75847 0.0
H2041 H 0.16226 0.38651 0.54302 0.0
H2042 H 0.20448 0.43571 0.58674 0.0
H2043 H 0.1755 0.46904 0.57916 0.0
H2044 H 0.1525 0.42757 0.50226 0.0
H2045 H 0.12205 0.41851 0.49409 0.0
H2046 H 0.14223 0.39648 0.50658 0.0
H2047 H 0.1125 0.38779 0.538 0.0
H2048 H 0.09158 0.40868 0.52485 0.0
H2049 H 0.10071 0.41319 0.55375 0.0
H2050 H 0.14605 0.49826 0.56237 0.0
H2051 H 0.11232 0.51983 0.54347 0.0
H2052 H 0.09081 0.452 0.50885 0.0
C2053 C 0.16444 0.40381 0.55209 0.0
C2054 C 0.18507 0.40855 0.56591 0.0
C2055 C 0.1883 0.43175 0.5766 0.0
C2056 C 0.17217 0.45083 0.57211 0.0
C2057 C 0.1531 0.44622 0.55686 0.0
C2058 C 0.14871 0.42313 0.54748 0.0
C2059 C 0.12823 0.42364 0.53013 0.0
C2060 C 0.13678 0.4161 0.5069 0.0
C2061 C 0.107 0.40737 0.53711 0.0
C2062 C 0.12201 0.45064 0.53107 0.0
C2063 C 0.13664 0.46334 0.54651 0.0
C2064 C 0.13427 0.48848 0.55044 0.0
C2065 C 0.11528 0.50062 0.53943 0.0
C2066 C 0.09906 0.48753 0.52472 0.0
C2067 C 0.10317 0.46252 0.51974 0.0
H2068 H 0.8696 0.92318 0.81533 0.0
H2069 H 0.83342 0.96365 0.76261 0.0
H2070 H 0.80277 0.9304 0.75808 0.0
H2071 H 0.86774 0.86956 0.79178 0.0
H2072 H 0.8618 0.85052 0.81529 0.0
H2073 H 0.87606 0.87996 0.81971 0.0
H2074 H 0.84285 0.89382 0.8461 0.0
H2075 H 0.82863 0.86396 0.84262 0.0
H2076 H 0.81157 0.8914 0.83702 0.0
H2077 H 0.78492 0.88906 0.75171 0.0
H2078 H 0.77672 0.84431 0.7478 0.0
H2079 H 0.82197 0.83106 0.8064 0.0
C2080 C 0.85438 0.92548 0.80375 0.0
C2081 C 0.85339 0.94577 0.78949 0.0
C2082 C 0.83395 0.94828 0.77393 0.0
C2083 C 0.81655 0.92951 0.77127 0.0
C2084 C 0.81873 0.90886 0.78473 0.0
C2085 C 0.83671 0.9071 0.80124 0.0
C2086 C 0.83719 0.88174 0.81135 0.0
C2087 C 0.86215 0.86976 0.80939 0.0
C2088 C 0.82959 0.8828 0.83572 0.0
C2089 C 0.8182 0.86887 0.79657 0.0
C2090 C 0.80751 0.88491 0.78155 0.0
C2091 C 0.79234 0.87653 0.76395 0.0
C2092 C 0.78799 0.85119 0.76169 0.0
C2093 C 0.79861 0.83475 0.77705 0.0
C2094 C 0.81339 0.84363 0.79492 0.0
H2095 H 0.68981 0.06419 0.47192 0.0
H2096 H 0.70201 0.11377 0.5285 0.0
H2097 H 0.6678 0.09466 0.54742 0.0
H2098 H 0.62829 0.07153 0.47279 0.0
H2099 H 0.61819 0.04119 0.46489 0.0
H2100 H 0.64637 0.05278 0.45497 0.0
H2101 H 0.67202 0.01861 0.47134 0.0
H2102 H 0.64507 0.00313 0.47992 0.0
H2103 H 0.66918 0.00997 0.50003 0.0
H2104 H 0.63003 0.07267 0.55853 0.0
H2105 H 0.59027 0.05131 0.5596 0.0
H2106 H 0.60298 0.0164 0.49592 0.0
C2107 C 0.68548 0.07062 0.48846 0.0
C2108 C 0.69841 0.0902 0.4989 0.0
C2109 C 0.69203 0.09877 0.52026 0.0
C2110 C 0.67286 0.08789 0.53121 0.0
C2111 C 0.66022 0.06864 0.52043 0.0
C2112 C 0.66612 0.06028 0.49942 0.0
C2113 C 0.64768 0.04192 0.49013 0.0
C2114 C 0.63442 0.05244 0.46944 0.0
C2115 C 0.65918 0.01693 0.48505 0.0
C2116 C 0.63109 0.0404 0.50947 0.0
C2117 C 0.63844 0.0561 0.52677 0.0
C2118 C 0.62438 0.05988 0.54533 0.0
C2119 C 0.60196 0.04769 0.54588 0.0
C2120 C 0.59425 0.03185 0.52812 0.0
C2121 C 0.60911 0.02781 0.51 0.0
H2122 H 0.18849 0.4185 0.80999 0.0
H2123 H 0.23206 0.46406 0.76798 0.0
H2124 H 0.26037 0.42974 0.7633 0.0
H2125 H 0.24058 0.38373 0.83625 0.0
H2126 H 0.22287 0.35576 0.83665 0.0
H2127 H 0.20846 0.38516 0.83967 0.0
H2128 H 0.17923 0.37409 0.80629 0.0
H2129 H 0.1936 0.34485 0.80305 0.0
H2130 H 0.19142 0.36552 0.77985 0.0
H2131 H 0.27954 0.38868 0.75788 0.0
H2132 H 0.28956 0.34461 0.75413 0.0
H2133 H 0.23444 0.32655 0.80097 0.0
C2134 C 0.20433 0.42143 0.80027 0.0
C2135 C 0.2081 0.44383 0.78929 0.0
C2136 C 0.22893 0.44703 0.77662 0.0
C2137 C 0.24512 0.42767 0.7739 0.0
C2138 C 0.24045 0.40549 0.78436 0.0
C2139 C 0.2208 0.40244 0.79765 0.0
C2140 C 0.21876 0.37626 0.80563 0.0
C2141 C 0.22293 0.37517 0.83106 0.0
C2142 C 0.19432 0.36451 0.79824 0.0
C2143 C 0.23941 0.36473 0.7936 0.0
C2144 C 0.25195 0.38192 0.78169 0.0
C2145 C 0.27026 0.37513 0.76756 0.0
C2146 C 0.27572 0.35008 0.76542 0.0
C2147 C 0.26286 0.33223 0.77733 0.0
C2148 C 0.24485 0.33981 0.7919 0.0
H2149 H 0.35624 0.58968 0.25818 0.0
H2150 H 0.32161 0.56043 0.31592 0.0
H2151 H 0.29571 0.59727 0.3174 0.0
H2152 H 0.35922 0.65049 0.27475 0.0
H2153 H 0.3524 0.66323 0.24771 0.0
H2154 H 0.36629 0.63355 0.24981 0.0
H2155 H 0.33156 0.61407 0.22522 0.0
H2156 H 0.31761 0.64379 0.22286 0.0
H2157 H 0.30076 0.61803 0.23309 0.0
H2158 H 0.27902 0.6399 0.31621 0.0
H2159 H 0.26878 0.68352 0.30969 0.0
H2160 H 0.31124 0.68316 0.25049 0.0
C2161 C 0.34289 0.59089 0.27088 0.0
C2162 C 0.34088 0.57249 0.28704 0.0
C2163 C 0.32324 0.57443 0.30338 0.0
C2164 C 0.30852 0.59523 0.30433 0.0
C2165 C 0.31134 0.6134 0.28842 0.0
C2166 C 0.32769 0.61115 0.27169 0.0
C2167 C 0.32777 0.63359 0.25706 0.0
C2168 C 0.35291 0.64594 0.25737 0.0
C2169 C 0.31889 0.62697 0.23314 0.0
C2170 C 0.30972 0.64934 0.26881 0.0
C2171 C 0.30047 0.63737 0.28688 0.0
C2172 C 0.28555 0.64921 0.30175 0.0
C2173 C 0.27997 0.67392 0.29803 0.0
C2174 C 0.28899 0.68622 0.27943 0.0
C2175 C 0.30369 0.67375 0.26447 0.0
H2176 H 0.57001 0.63776 0.6103 0.0
H2177 H 0.49994 0.67243 0.6109 0.0
H2178 H 0.49069 0.65636 0.57277 0.0
H2179 H 0.58012 0.64556 0.54879 0.0
H2180 H 0.59441 0.61594 0.54721 0.0
H2181 H 0.59728 0.63421 0.5725 0.0
H2182 H 0.5803 0.59805 0.59528 0.0
H2183 H 0.57836 0.57971 0.57029 0.0
H2184 H 0.55189 0.58404 0.58642 0.0
H2185 H 0.48532 0.62862 0.54051 0.0
H2186 H 0.48378 0.59001 0.51842 0.0
H2187 H 0.55936 0.57814 0.53455 0.0
C2188 C 0.55284 0.64219 0.60225 0.0
C2189 C 0.53554 0.65598 0.61341 0.0
C2190 C 0.51335 0.66171 0.60248 0.0
C2191 C 0.50812 0.65299 0.58077 0.0
C2192 C 0.52559 0.63929 0.57015 0.0
C2193 C 0.54761 0.63411 0.5805 0.0
C2194 C 0.562 0.61632 0.56694 0.0
C2195 C 0.58479 0.62877 0.55834 0.0
C2196 C 0.56847 0.59319 0.58052 0.0
C2197 C 0.54382 0.61072 0.54813 0.0
C2198 C 0.52306 0.62454 0.55001 0.0
C2199 C 0.5017 0.6184 0.53813 0.0
C2200 C 0.50093 0.59652 0.52556 0.0
C2201 C 0.52156 0.5816 0.52474 0.0
C2202 C 0.54368 0.5899 0.53439 0.0
H2203 H 0.62293 0.25457 0.87345 0.0
H2204 H 0.57061 0.24426 0.81847 0.0
H2205 H 0.60367 0.24034 0.79233 0.0
H2206 H 0.66485 0.29133 0.84362 0.0
H2207 H 0.69135 0.27808 0.85673 0.0
H2208 H 0.66361 0.27923 0.87138 0.0
H2209 H 0.66529 0.23212 0.87698 0.0
H2210 H 0.69301 0.23086 0.86225 0.0
H2211 H 0.66759 0.21193 0.85306 0.0
H2212 H 0.64235 0.23791 0.77185 0.0
H2213 H 0.68395 0.23885 0.75842 0.0
H2214 H 0.71148 0.25139 0.82632 0.0
C2215 C 0.61846 0.25139 0.85593 0.0
C2216 C 0.5941 0.24968 0.84806 0.0
C2217 C 0.58906 0.24565 0.82496 0.0
C2218 C 0.60774 0.24333 0.80994 0.0
C2219 C 0.63151 0.24513 0.81818 0.0
C2220 C 0.63696 0.24916 0.84061 0.0
C2221 C 0.66409 0.251 0.84495 0.0
C2222 C 0.67139 0.27642 0.85474 0.0
C2223 C 0.67301 0.23023 0.86021 0.0
C2224 C 0.67293 0.2476 0.82145 0.0
C2225 C 0.65384 0.24404 0.80629 0.0
C2226 C 0.65746 0.24065 0.78357 0.0
C2227 C 0.68118 0.24118 0.77609 0.0
C2228 C 0.70107 0.2452 0.79125 0.0
C2229 C 0.69673 0.24825 0.81426 0.0
H2230 H 0.06506 0.28105 0.10352 0.0
H2231 H 0.04436 0.30527 0.16932 0.0
H2232 H 0.04312 0.34827 0.15637 0.0
H2233 H 0.10412 0.33262 0.09322 0.0
H2234 H 0.0958 0.33379 0.06395 0.0
H2235 H 0.09472 0.30493 0.07829 0.0
H2236 H 0.04983 0.29914 0.06564 0.0
H2237 H 0.05078 0.32795 0.05123 0.0
H2238 H 0.02852 0.32289 0.07188 0.0
H2239 H 0.04289 0.38805 0.13598 0.0
H2240 H 0.04463 0.42249 0.10997 0.0
H2241 H 0.06812 0.37254 0.05803 0.0
C2242 C 0.06021 0.29539 0.1152 0.0
C2243 C 0.0547 0.28992 0.1374 0.0
C2244 C 0.04866 0.30916 0.15225 0.0
C2245 C 0.04789 0.33357 0.14505 0.0
C2246 C 0.05347 0.33833 0.12305 0.0
C2247 C 0.05964 0.31982 0.10838 0.0
C2248 C 0.06516 0.3299 0.08571 0.0
C2249 C 0.09152 0.32502 0.07997 0.0
C2250 C 0.04751 0.31934 0.06755 0.0
C2251 C 0.06094 0.357 0.08989 0.0
C2252 C 0.05414 0.36143 0.1115 0.0
C2253 C 0.04854 0.3849 0.11912 0.0
C2254 C 0.04985 0.4044 0.10422 0.0
C2255 C 0.05693 0.40038 0.08198 0.0
C2256 C 0.06264 0.3763 0.07486 0.0
H2257 H 0.95264 0.79235 0.32498 0.0
H2258 H 0.94933 0.74318 0.38122 0.0
H2259 H 0.90583 0.73634 0.37287 0.0
H2260 H 0.89275 0.81926 0.33183 0.0
H2261 H 0.88677 0.82149 0.30222 0.0
H2262 H 0.91733 0.82363 0.3134 0.0
H2263 H 0.92954 0.78784 0.28729 0.0
H2264 H 0.89903 0.7855 0.27612 0.0
H2265 H 0.91343 0.75889 0.28802 0.0
H2266 H 0.86305 0.73368 0.35766 0.0
H2267 H 0.82414 0.73499 0.33662 0.0
H2268 H 0.8551 0.78532 0.28963 0.0
C2269 C 0.94277 0.78026 0.33566 0.0
C2270 C 0.9545 0.76829 0.35379 0.0
C2271 C 0.94081 0.75265 0.36732 0.0
C2272 C 0.91607 0.74864 0.36269 0.0
C2273 C 0.90517 0.76053 0.34458 0.0
C2274 C 0.91803 0.77613 0.33133 0.0
C2275 C 0.90206 0.78627 0.3126 0.0
C2276 C 0.89959 0.81433 0.31517 0.0
C2277 C 0.91159 0.77918 0.28965 0.0
C2278 C 0.87841 0.77321 0.31687 0.0
C2279 C 0.88053 0.75878 0.33563 0.0
C2280 C 0.86118 0.74499 0.34301 0.0
C2281 C 0.83911 0.74589 0.33091 0.0
C2282 C 0.83652 0.76025 0.31142 0.0
C2283 C 0.85651 0.77411 0.30438 0.0
H2284 H 0.54251 0.36263 0.90549 0.0
H2285 H 0.51279 0.30861 0.94986 0.0
H2286 H 0.50402 0.34169 0.9768 0.0
H2287 H 0.57105 0.401 0.94944 0.0
H2288 H 0.56477 0.42938 0.93527 0.0
H2289 H 0.5688 0.40142 0.91941 0.0
H2290 H 0.52706 0.40749 0.8996 0.0
H2291 H 0.52278 0.43531 0.9156 0.0
H2292 H 0.50069 0.41079 0.91606 0.0
H2293 H 0.49686 0.38039 -0.00176 0.0
H2294 H 0.49568 0.42189 0.01497 0.0
H2295 H 0.53137 0.45146 0.95774 0.0
C2296 C 0.53428 0.35774 0.92093 0.0
C2297 C 0.52829 0.33294 0.92549 0.0
C2298 C 0.51765 0.32738 0.94597 0.0
C2299 C 0.51246 0.34608 0.96135 0.0
C2300 C 0.51823 0.3703 0.95619 0.0
C2301 C 0.52924 0.3762 0.93666 0.0
C2302 C 0.53406 0.40373 0.93555 0.0
C2303 C 0.56129 0.4092 0.93488 0.0
C2304 C 0.52032 0.41499 0.91551 0.0
C2305 C 0.52386 0.41236 0.95744 0.0
C2306 C 0.51466 0.39273 0.96893 0.0
C2307 C 0.50414 0.39589 0.98947 0.0
C2308 C 0.5035 0.41963 -0.0012 0.0
C2309 C 0.5135 0.44005 0.98775 0.0
C2310 C 0.52354 0.43631 0.96661 0.0
H2311 H 0.99089 0.16552 0.21718 0.0
H2312 H 0.0244 0.23729 0.22802 0.0
H2313 H 0.99081 0.24978 0.2514 0.0
H2314 H 0.93476 0.18695 0.20764 0.0
H2315 H 0.91849 0.16255 0.22076 0.0
H2316 H 0.94766 0.15671 0.20986 0.0
H2317 H 0.96327 0.1416 0.24845 0.0
H2318 H 0.93394 0.14704 0.25947 0.0
H2319 H 0.9604 0.16111 0.27274 0.0
H2320 H 0.95105 0.25712 0.26711 0.0
H2321 H 0.90773 0.25903 0.2742 0.0
H2322 H 0.89914 0.18255 0.25317 0.0
C2323 C 0.99158 0.18345 0.22531 0.0
C2324 C 0.01021 0.20038 0.22112 0.0
C2325 C 0.01024 0.22406 0.23122 0.0
C2326 C 0.99134 0.23124 0.2446 0.0
C2327 C 0.97259 0.21452 0.24763 0.0
C2328 C 0.97259 0.19104 0.23839 0.0
C2329 C 0.94866 0.17803 0.24126 0.0
C2330 C 0.93671 0.17065 0.21853 0.0
C2331 C 0.95176 0.15562 0.25639 0.0
C2332 C 0.93487 0.19825 0.25261 0.0
C2333 C 0.94916 0.21894 0.25655 0.0
C2334 C 0.93983 0.24081 0.26476 0.0
C2335 C 0.91517 0.24168 0.2688 0.0
C2336 C 0.90005 0.22083 0.26451 0.0
C2337 C 0.91023 0.19873 0.25673 0.0
H2338 H 0.04162 0.69435 0.458 0.0
H2339 H 0.00818 0.67 0.39478 0.0
H2340 H 0.00804 0.62739 0.40774 0.0
H2341 H 0.07988 0.64209 0.46624 0.0
H2342 H 0.07594 0.64034 0.49586 0.0
H2343 H 0.07335 0.66951 0.4821 0.0
H2344 H 0.03067 0.6752 0.49738 0.0
H2345 H 0.03325 0.64618 0.51137 0.0
H2346 H 0.00807 0.65152 0.49228 0.0
H2347 H 0.0132 0.58733 0.42603 0.0
H2348 H 0.01924 0.55195 0.45055 0.0
H2349 H 0.04765 0.60089 0.50329 0.0
C2350 C 0.0341 0.68006 0.44699 0.0
C2351 C 0.025 0.68564 0.42529 0.0
C2352 C 0.0153 0.66635 0.41144 0.0
C2353 C 0.01519 0.64197 0.41861 0.0
C2354 C 0.02466 0.63701 0.43982 0.0
C2355 C 0.03361 0.65543 0.45401 0.0
C2356 C 0.0423 0.64473 0.47615 0.0
C2357 C 0.06948 0.64945 0.48032 0.0
C2358 C 0.0277 0.65502 0.49543 0.0
C2359 C 0.03692 0.6175 0.472 0.0
C2360 C 0.02697 0.61358 0.4508 0.0
C2361 C 0.02084 0.59013 0.44273 0.0
C2362 C 0.02449 0.5701 0.45681 0.0
C2363 C 0.03395 0.57352 0.47891 0.0
C2364 C 0.04042 0.59762 0.4865 0.0
H2365 H 0.63125 0.6969 0.70395 0.0
H2366 H 0.63144 0.7297 0.63853 0.0
H2367 H 0.66997 0.75101 0.64877 0.0
H2368 H 0.64384 0.7479 0.7318 0.0
H2369 H 0.66283 0.73542 0.75378 0.0
H2370 H 0.64037 0.71621 0.73977 0.0
H2371 H 0.6725 0.68437 0.72857 0.0
H2372 H 0.69505 0.70266 0.74369 0.0
H2373 H 0.69906 0.69468 0.71484 0.0
H2374 H 0.70566 0.77318 0.66869 0.0
H2375 H 0.7369 0.79055 0.69535 0.0
H2376 H 0.70604 0.74838 0.74839 0.0
C2377 C 0.63992 0.70774 0.69145 0.0
C2378 C 0.62848 0.71197 0.67065 0.0
C2379 C 0.64015 0.72625 0.65461 0.0
C2380 C 0.66191 0.73852 0.66032 0.0
C2381 C 0.67144 0.73602 0.68197 0.0
C2382 C 0.66102 0.72052 0.6971 0.0
C2383 C 0.6723 0.72351 0.72016 0.0
C2384 C 0.65372 0.73123 0.73736 0.0
C2385 C 0.68551 0.69992 0.72722 0.0
C2386 C 0.68978 0.74405 0.71595 0.0
C2387 C 0.68979 0.75057 0.6938 0.0
C2388 C 0.70575 0.76825 0.6861 0.0
C2389 C 0.72308 0.77834 0.70134 0.0
C2390 C 0.72346 0.77116 0.72393 0.0
C2391 C 0.70581 0.75481 0.73137 0.0
H2392 H 0.64156 0.51292 0.66434 0.0
H2393 H 0.59294 0.46703 0.70125 0.0
H2394 H 0.56522 0.46396 0.66825 0.0
H2395 H 0.59646 0.5474 0.63758 0.0
H2396 H 0.61111 0.55005 0.61138 0.0
H2397 H 0.6289 0.54638 0.63679 0.0
H2398 H 0.64924 0.50793 0.62018 0.0
H2399 H 0.63182 0.51167 0.59455 0.0
H2400 H 0.63076 0.48286 0.60904 0.0
H2401 H 0.54086 0.46976 0.63381 0.0
H2402 H 0.52216 0.4808 0.59761 0.0
H2403 H 0.58644 0.52238 0.58182 0.0
C2404 C 0.62535 0.50174 0.66525 0.0
C2405 C 0.6193 0.49015 0.68525 0.0
C2406 C 0.59779 0.47607 0.68605 0.0
C2407 C 0.58199 0.4742 0.66741 0.0
C2408 C 0.58802 0.48655 0.64819 0.0
C2409 C 0.60926 0.49984 0.6468 0.0
C2410 C 0.61051 0.51263 0.62455 0.0
C2411 C 0.61182 0.54078 0.62778 0.0
C2412 C 0.63184 0.50319 0.61129 0.0
C2413 C 0.58653 0.50457 0.6138 0.0
C2414 C 0.57388 0.48966 0.62787 0.0
C2415 C 0.55066 0.48114 0.62248 0.0
C2416 C 0.54012 0.48774 0.602 0.0
C2417 C 0.55289 0.50246 0.58704 0.0
C2418 C 0.57642 0.51096 0.59296 0.0
H2419 H 0.74655 0.3601 0.95899 0.0
H2420 H 0.8155 0.35288 -0.00544 0.0
H2421 H 0.8303 0.32695 0.96387 0.0
H2422 H 0.7449 0.29617 0.9372 0.0
H2423 H 0.73026 0.30471 0.91119 0.0
H2424 H 0.72497 0.32218 0.93626 0.0
H2425 H 0.73839 0.36206 0.9168 0.0
H2426 H 0.74382 0.34469 0.89176 0.0
H2427 H 0.76762 0.3634 0.90461 0.0
H2428 H 0.8388 0.30533 0.92761 0.0
H2429 H 0.83859 0.28556 0.88998 0.0
H2430 H 0.76316 0.30376 0.87993 0.0
C2431 C 0.76464 0.35278 0.96033 0.0
C2432 C 0.77995 0.35834 0.97897 0.0
C2433 C 0.80349 0.34851 0.98038 0.0
C2434 C 0.81207 0.33389 0.96304 0.0
C2435 C 0.79663 0.32884 0.94472 0.0
C2436 C 0.77324 0.33754 0.94346 0.0
C2437 C 0.76023 0.32909 0.92209 0.0
C2438 C 0.73883 0.31202 0.92699 0.0
C2439 C 0.75205 0.35113 0.90799 0.0
C2440 C 0.7802 0.31507 0.91124 0.0
C2441 C 0.80111 0.31519 0.92447 0.0
C2442 C 0.82241 0.30467 0.91726 0.0
C2443 C 0.8222 0.29359 0.89598 0.0
C2444 C 0.80077 0.29296 0.88254 0.0
C2445 C 0.77959 0.30372 0.89026 0.0
H2446 H 0.95761 0.49557 0.17858 0.0
H2447 H 0.89943 0.54602 0.1633 0.0
H2448 H 0.91685 0.55459 0.12685 0.0
H2449 H 0.0058 0.52767 0.15023 0.0
H2450 H 0.01855 0.49967 0.13955 0.0
H2451 H 0.00311 0.49947 0.16546 0.0
H2452 H 0.97462 0.46472 0.14991 0.0
H2453 H 0.98999 0.46482 0.124 0.0
H2454 H 0.95782 0.46918 0.12403 0.0
H2455 H 0.93952 0.55684 0.09216 0.0
H2456 H 0.96411 0.55008 0.05935 0.0
H2457 H 0.00627 0.4958 0.09575 0.0
C2458 C 0.94888 0.50871 0.16764 0.0
C2459 C 0.92746 0.52045 0.17364 0.0
C2460 C 0.91595 0.537 0.15884 0.0
C2461 C 0.92576 0.54205 0.13824 0.0
C2462 C 0.94681 0.53003 0.13264 0.0
C2463 C 0.95811 0.51347 0.14673 0.0
C2464 C 0.97919 0.50135 0.1357 0.0
C2465 C 0.00307 0.50742 0.1485 0.0
C2466 C 0.97515 0.47337 0.13326 0.0
C2467 C 0.97793 0.51373 0.11324 0.0
C2468 C 0.95931 0.53043 0.11201 0.0
C2469 C 0.95419 0.54386 0.09289 0.0
C2470 C 0.96829 0.53987 0.07435 0.0
C2471 C 0.98707 0.52237 0.075 0.0
C2472 C -0.00795 0.50931 0.09479 0.0
H2473 H 0.82763 0.67873 0.47274 0.0
H2474 H 0.85307 0.61043 0.44426 0.0
H2475 H 0.83897 0.62378 0.4069 0.0
H2476 H 0.77457 0.6732 0.44792 0.0
H2477 H 0.76846 0.70528 0.44332 0.0
H2478 H 0.78861 0.69653 0.46583 0.0
H2479 H 0.82321 0.72332 0.45099 0.0
H2480 H 0.8028 0.73353 0.42905 0.0
H2481 H 0.83128 0.72015 0.42226 0.0
H2482 H 0.81376 0.64009 0.37468 0.0
H2483 H 0.78448 0.66037 0.34941 0.0
H2484 H 0.76914 0.71327 0.40189 0.0
C2485 C 0.83171 0.66723 0.4585 0.0
C2486 C 0.84142 0.64353 0.46137 0.0
C2487 C 0.84586 0.62877 0.44236 0.0
C2488 C 0.8376 0.63611 0.42111 0.0
C2489 C 0.82496 0.65812 0.41936 0.0
C2490 C 0.82239 0.67368 0.43755 0.0
C2491 C 0.80406 0.69352 0.43267 0.0
C2492 C 0.78269 0.69201 0.44836 0.0
C2493 C 0.81606 0.71915 0.43379 0.0
C2494 C 0.79629 0.68641 0.40909 0.0
C2495 C 0.8088 0.66627 0.40152 0.0
C2496 C 0.80409 0.65605 0.38038 0.0
C2497 C 0.78696 0.66744 0.3663 0.0
C2498 C 0.77435 0.68854 0.37358 0.0
C2499 C 0.7787 0.69751 0.39557 0.0
H2500 H 0.59334 0.55138 0.81264 0.0
H2501 H 0.64171 0.4894 0.82001 0.0
H2502 H 0.63452 0.48879 0.86032 0.0
H2503 H 0.61152 0.58138 0.86515 0.0
H2504 H 0.58159 0.59197 0.87066 0.0
H2505 H 0.59066 0.58792 0.84232 0.0
H2506 H 0.55417 0.55864 0.83402 0.0
H2507 H 0.54486 0.56281 0.86223 0.0
H2508 H 0.5499 0.53225 0.85138 0.0
H2509 H 0.62244 0.49486 0.89956 0.0
H2510 H 0.60369 0.5054 0.93516 0.0
H2511 H 0.56258 0.56285 0.90246 0.0
C2512 C 0.60237 0.53764 0.82273 0.0
C2513 C 0.61816 0.52048 0.81322 0.0
C2514 C 0.62972 0.50286 0.82698 0.0
C2515 C 0.62576 0.50237 0.84988 0.0
C2516 C 0.61037 0.51975 0.85877 0.0
C2517 C 0.59877 0.53701 0.84566 0.0
C2518 C 0.58299 0.5535 0.85942 0.0
C2519 C 0.59225 0.58028 0.85938 0.0
C2520 C 0.55641 0.55166 0.85128 0.0
C2521 C 0.58692 0.54224 0.88218 0.0
C2522 C 0.60316 0.52312 0.88148 0.0
C2523 C 0.60981 0.50988 0.90038 0.0
C2524 C 0.59925 0.51608 0.9205 0.0
C2525 C 0.58204 0.53508 0.92142 0.0
C2526 C 0.57591 0.54843 0.90209 0.0
H2527 H 0.74926 0.33076 0.10535 0.0
H2528 H 0.82153 0.36107 0.11523 0.0
H2529 H 0.8289 0.33297 0.14684 0.0
H2530 H 0.73741 0.32776 0.16317 0.0
H2531 H 0.71958 0.29987 0.16059 0.0
H2532 H 0.72104 0.32039 0.1374 0.0
H2533 H 0.73548 0.28449 0.11254 0.0
H2534 H 0.73436 0.2639 0.13576 0.0
H2535 H 0.76192 0.26752 0.12107 0.0
H2536 H 0.82865 0.3013 0.17632 0.0
H2537 H 0.81876 0.2744 0.20726 0.0
H2538 H 0.74476 0.26798 0.18146 0.0
C2539 C 0.76669 0.33124 0.1141 0.0
C2540 C 0.78503 0.34767 0.10782 0.0
C2541 C 0.80739 0.34844 0.11986 0.0
C2542 C 0.81176 0.33244 0.13764 0.0
C2543 C 0.79338 0.31623 0.14331 0.0
C2544 C 0.77108 0.31593 0.13229 0.0
C2545 C 0.75365 0.29855 0.14321 0.0
C2546 C 0.73163 0.31248 0.1516 0.0
C2547 C 0.7459 0.27736 0.12719 0.0
C2548 C 0.76955 0.2894 0.16236 0.0
C2549 C 0.7926 0.29925 0.16155 0.0
C2550 C 0.81068 0.2935 0.17717 0.0
C2551 C 0.80488 0.27798 0.19459 0.0
C2552 C 0.78099 0.26896 0.19668 0.0
C2553 C 0.76318 0.27444 0.18013 0.0
H2554 H 0.95757 0.45938 0.30417 0.0
H2555 H 0.9222 0.52996 0.3104 0.0
H2556 H 0.93218 0.53063 0.35089 0.0
H2557 H 0.93778 0.43563 0.35744 0.0
H2558 H 0.96549 0.41936 0.36286 0.0
H2559 H 0.9547 0.42396 0.33456 0.0
H2560 H -0.00466 0.44479 0.32544 0.0
H2561 H 0.00631 0.44015 0.35363 0.0
H2562 H 0.00627 0.47065 0.34219 0.0
H2563 H 0.9475 0.52448 0.39013 0.0
H2564 H 0.9682 0.51248 0.42548 0.0
H2565 H -0.00664 0.44582 0.39384 0.0
C2566 C 0.95198 0.47503 0.31403 0.0
C2567 C 0.93927 0.49473 0.30415 0.0
C2568 C 0.93197 0.51469 0.31766 0.0
C2569 C 0.93748 0.51518 0.34065 0.0
C2570 C 0.94997 0.49541 0.34986 0.0
C2571 C 0.95706 0.47566 0.337 0.0
C2572 C 0.97057 0.45691 0.35095 0.0
C2573 C 0.95628 0.43252 0.35148 0.0
C2574 C -0.00386 0.45291 0.34255 0.0
C2575 C 0.9711 0.46979 0.37349 0.0
C2576 C 0.95866 0.49175 0.37256 0.0
C2577 C 0.95708 0.50725 0.39111 0.0
C2578 C 0.96883 0.50032 0.41104 0.0
C2579 C 0.98209 0.47825 0.41215 0.0
C2580 C 0.98309 0.46266 0.39328 0.0
H2581 H 0.82395 0.63717 0.5888 0.0
H2582 H 0.74593 0.6412 0.58401 0.0
H2583 H 0.74703 0.67411 0.6131 0.0
H2584 H 0.83035 0.65007 0.65016 0.0
H2585 H 0.85783 0.66738 0.64675 0.0
H2586 H 0.85008 0.64215 0.62797 0.0
H2587 H 0.85406 0.67168 0.59475 0.0
H2588 H 0.86078 0.69721 0.61344 0.0
H2589 H 0.83584 0.69896 0.59344 0.0
H2590 H 0.75735 0.71026 0.63829 0.0
H2591 H 0.77508 0.74118 0.66462 0.0
H2592 H 0.84654 0.71276 0.65343 0.0
C2593 C 0.80707 0.64441 0.59452 0.0
C2594 C 0.78483 0.63678 0.58445 0.0
C2595 C 0.76305 0.64667 0.59193 0.0
C2596 C 0.76358 0.66552 0.60817 0.0
C2597 C 0.78599 0.67373 0.6168 0.0
C2598 C 0.8073 0.66293 0.61079 0.0
C2599 C 0.82904 0.6755 0.62206 0.0
C2600 C 0.84261 0.65772 0.63767 0.0
C2601 C 0.84591 0.68648 0.60489 0.0
C2602 C 0.8167 0.69546 0.63501 0.0
C2603 C 0.79191 0.6943 0.63154 0.0
C2604 C 0.7767 0.7112 0.6413 0.0
C2605 C 0.787 0.72896 0.65591 0.0
C2606 C 0.81222 0.72949 0.66074 0.0
C2607 C 0.82727 0.71289 0.64975 0.0
H2608 H 0.72809 0.6035 0.45992 0.0
H2609 H 0.72509 0.63923 0.52464 0.0
H2610 H 0.68433 0.62211 0.52915 0.0
H2611 H 0.65747 0.60658 0.44651 0.0
H2612 H 0.65898 0.5772 0.43233 0.0
H2613 H 0.68367 0.59893 0.43099 0.0
H2614 H 0.71256 0.56517 0.44538 0.0
H2615 H 0.68807 0.54373 0.44802 0.0
H2616 H 0.7075 0.55123 0.47194 0.0
H2617 H 0.65236 0.59105 0.53205 0.0
H2618 H 0.62425 0.55562 0.52912 0.0
H2619 H 0.64582 0.54109 0.46151 0.0
C2620 C 0.718 0.60904 0.47425 0.0
C2621 C 0.72928 0.62273 0.49183 0.0
C2622 C 0.71632 0.62919 0.51082 0.0
C2623 C 0.69325 0.61938 0.51358 0.0
C2624 C 0.68336 0.60397 0.4968 0.0
C2625 C 0.69475 0.59977 0.47697 0.0
C2626 C 0.68167 0.58011 0.46288 0.0
C2627 C 0.66973 0.59138 0.44194 0.0
C2628 C 0.69846 0.55882 0.45673 0.0
C2629 C 0.66292 0.57201 0.47895 0.0
C2630 C 0.664 0.58625 0.49827 0.0
C2631 C 0.65066 0.58038 0.5167 0.0
C2632 C 0.63518 0.55997 0.51506 0.0
C2633 C 0.63318 0.54575 0.49513 0.0
C2634 C 0.64711 0.55185 0.47684 0.0
H2635 H 0.18263 0.91627 0.57696 0.0
H2636 H 0.21333 0.92349 0.51194 0.0
H2637 H 0.17877 0.94872 0.49945 0.0
H2638 H 0.119 0.91139 0.55486 0.0
H2639 H 0.1074 0.92801 0.5783 0.0
H2640 H 0.13415 0.90971 0.58187 0.0
H2641 H 0.15726 0.94797 0.59806 0.0
H2642 H 0.13074 0.96651 0.5941 0.0
H2643 H 0.15859 0.97557 0.58181 0.0
H2644 H 0.14425 0.97662 0.49549 0.0
H2645 H 0.10635 -0.00054 0.49698 0.0
H2646 H 0.09481 0.97151 0.56328 0.0
C2647 C 0.18162 0.92275 0.55998 0.0
C2648 C 0.20042 0.91817 0.5453 0.0
C2649 C 0.19893 0.92695 0.52327 0.0
C2650 C 0.17949 0.94133 0.51611 0.0
C2651 C 0.16154 0.94626 0.53111 0.0
C2652 C 0.16193 0.93668 0.55233 0.0
C2653 C 0.13985 0.94452 0.56478 0.0
C2654 C 0.12417 0.92207 0.57027 0.0
C2655 C 0.14705 0.95954 0.58594 0.0
C2656 C 0.12741 0.96046 0.54738 0.0
C2657 C 0.14053 0.96141 0.52826 0.0
C2658 C 0.13355 0.97572 0.51019 0.0
C2659 C 0.11208 0.98881 0.51132 0.0
C2660 C 0.09757 0.98716 0.53022 0.0
C2661 C 0.10549 0.97299 0.5486 0.0
H2662 H 0.38769 0.90089 0.72914 0.0
H2663 H 0.33389 0.95616 0.74308 0.0
H2664 H 0.30781 0.92425 0.75848 0.0
H2665 H 0.3453 0.85186 0.71277 0.0
H2666 H 0.36343 0.82822 0.72558 0.0
H2667 H 0.37766 0.85545 0.71517 0.0
H2668 H 0.39823 0.8633 0.75415 0.0
H2669 H 0.38359 0.83639 0.76479 0.0
H2670 H 0.37988 0.86591 0.77824 0.0
H2671 H 0.28872 0.88759 0.77433 0.0
H2672 H 0.2742 0.84652 0.78427 0.0
H2673 H 0.33935 0.81414 0.75899 0.0
C2674 C 0.37027 0.90622 0.7351 0.0
C2675 C 0.3629 0.93105 0.73501 0.0
C2676 C 0.34 0.93728 0.74307 0.0
C2677 C 0.32509 0.91933 0.75197 0.0
C2678 C 0.33328 0.89524 0.75258 0.0
C2679 C 0.35507 0.8885 0.74401 0.0
C2680 C 0.35931 0.86115 0.74652 0.0
C2681 C 0.36154 0.84842 0.72364 0.0
C2682 C 0.38157 0.85642 0.76184 0.0
C2683 C 0.33629 0.85361 0.75754 0.0
C2684 C 0.32182 0.87371 0.76126 0.0
C2685 C 0.29978 0.87164 0.7714 0.0
C2686 C 0.29179 0.84821 0.77713 0.0
C2687 C 0.30564 0.82711 0.77233 0.0
C2688 C 0.32843 0.82994 0.76287 0.0
H2689 H 0.37916 0.09012 0.05746 0.0
H2690 H 0.35464 0.10232 0.98925 0.0
H2691 H 0.39244 0.08525 0.97575 0.0
H2692 H 0.44944 0.09621 0.04499 0.0
H2693 H 0.45526 0.07294 0.06554 0.0
H2694 H 0.43195 0.09527 0.06971 0.0
H2695 H 0.402 0.05926 0.07506 0.0
H2696 H 0.42446 0.03679 0.06943 0.0
H2697 H 0.39673 0.03694 0.05281 0.0
H2698 H 0.42497 0.05515 0.96971 0.0
H2699 H 0.45627 0.023 0.97193 0.0
H2700 H 0.45686 0.02857 0.04419 0.0
C2701 C 0.38248 0.09035 0.03979 0.0
C2702 C 0.36419 0.09683 0.02434 0.0
C2703 C 0.36866 0.09721 0.0013 0.0
C2704 C 0.39008 0.08761 0.99347 0.0
C2705 C 0.4068 0.07858 0.00905 0.0
C2706 C 0.40383 0.08102 0.03185 0.0
C2707 C 0.42229 0.06646 0.045 0.0
C2708 C 0.44083 0.08375 0.057 0.0
C2709 C 0.41064 0.04882 0.0615 0.0
C2710 C 0.43351 0.05274 0.02614 0.0
C2711 C 0.42522 0.06062 0.00552 0.0
C2712 C 0.43219 0.04936 0.98576 0.0
C2713 C 0.4494 0.03067 0.98717 0.0
C2714 C 0.45885 0.02338 0.00825 0.0
C2715 C 0.44996 0.03386 0.02785 0.0
H2716 H 0.68433 0.59486 0.77101 0.0
H2717 H 0.68339 0.58456 0.69929 0.0
H2718 H 0.7114 0.62018 0.69616 0.0
H2719 H 0.68421 0.66185 0.76932 0.0
H2720 H 0.70297 0.66527 0.79434 0.0
H2721 H 0.68329 0.63887 0.79065 0.0
H2722 H 0.71985 0.61011 0.79693 0.0
H2723 H 0.73971 0.6364 0.80036 0.0
H2724 H 0.7456 0.61311 0.77962 0.0
H2725 H 0.74094 0.65573 0.70142 0.0
H2726 H 0.76516 0.69216 0.71384 0.0
H2727 H 0.74468 0.68008 0.782 0.0
C2728 C 0.69 0.6003 0.75469 0.0
C2729 C 0.68204 0.58723 0.73536 0.0
C2730 C 0.68943 0.59466 0.71419 0.0
C2731 C 0.70537 0.61468 0.71231 0.0
C2732 C 0.71327 0.62709 0.73177 0.0
C2733 C 0.70542 0.62051 0.7525 0.0
C2734 C 0.71561 0.63754 0.77069 0.0
C2735 C 0.69531 0.65173 0.7819 0.0
C2736 C 0.73111 0.62344 0.78791 0.0
C2737 C 0.73088 0.65439 0.75706 0.0
C2738 C 0.72948 0.64799 0.73468 0.0
C2739 C 0.74212 0.66097 0.7189 0.0
C2740 C 0.75596 0.6815 0.72613 0.0
C2741 C 0.75683 0.68888 0.74889 0.0
C2742 C 0.74442 0.67484 0.76451 0.0
H2743 H 0.84093 0.4681 0.00729 0.0
H2744 H 0.85264 0.40711 0.05237 0.0
H2745 H 0.89612 0.4091 0.04599 0.0
H2746 H 0.88565 0.45142 0.96806 0.0
H2747 H 0.89561 0.48256 0.96347 0.0
H2748 H 0.86498 0.47655 0.97107 0.0
H2749 H 0.87016 0.50631 0.00508 0.0
H2750 H 0.90053 0.51293 -0.0028 0.0
H2751 H 0.89501 0.50211 0.02482 0.0
H2752 H 0.93762 0.41571 0.0334 0.0
H2753 H 0.97649 0.43291 0.02254 0.0
H2754 H 0.93908 0.49142 0.98729 0.0
C2755 C 0.85266 0.45532 0.01598 0.0
C2756 C 0.84326 0.43726 0.03015 0.0
C2757 C 0.85929 0.42102 0.04134 0.0
C2758 C 0.88405 0.42183 0.03767 0.0
C2759 C 0.89257 0.43912 0.02293 0.0
C2760 C 0.87756 0.45603 0.01272 0.0
C2761 C 0.89176 0.47358 -0.00138 0.0
C2762 C 0.88403 0.47086 0.97383 0.0
C2763 C 0.88922 0.50031 0.00694 0.0
C2764 C 0.91713 0.46412 0.00291 0.0
C2765 C 0.91698 0.44377 0.01645 0.0
C2766 C 0.93805 0.43174 0.02292 0.0
C2767 C 0.96007 0.4416 0.01649 0.0
C2768 C 0.9609 0.46369 0.00422 0.0
C2769 C 0.93906 0.47449 -0.0034 0.0
H2770 H 0.36352 0.09736 0.72879 0.0
H2771 H 0.32097 0.04819 0.76829 0.0
H2772 H 0.29286 0.08224 0.77622 0.0
H2773 H 0.35842 0.15117 0.76147 0.0
H2774 H 0.35576 0.17141 0.73799 0.0
H2775 H 0.37191 0.14301 0.73553 0.0
H2776 H 0.34432 0.1302 0.7014 0.0
H2777 H 0.32797 0.15854 0.70385 0.0
H2778 H 0.31205 0.12948 0.70407 0.0
H2779 H 0.2715 0.12318 0.78199 0.0
H2780 H 0.25767 0.16642 0.78335 0.0
H2781 H 0.31277 0.18663 0.73721 0.0
C2782 C 0.34831 0.09381 0.73916 0.0
C2783 C 0.34446 0.07042 0.74821 0.0
C2784 C 0.32416 0.06616 0.76132 0.0
C2785 C 0.30814 0.08532 0.76586 0.0
C2786 C 0.31247 0.1083 0.75665 0.0
C2787 C 0.3319 0.11244 0.74331 0.0
C2788 C 0.33254 0.13854 0.73512 0.0
C2789 C 0.35604 0.15181 0.74301 0.0
C2790 C 0.329 0.13922 0.7096 0.0
C2791 C 0.31093 0.14879 0.74654 0.0
C2792 C 0.29951 0.13117 0.7589 0.0
C2793 C 0.28006 0.13701 0.77206 0.0
C2794 C 0.27234 0.16157 0.77274 0.0
C2795 C 0.28399 0.17978 0.76019 0.0
C2796 C 0.30321 0.17307 0.74668 0.0
H2797 H 0.20146 0.94041 0.24107 0.0
H2798 H 0.16264 0.93318 0.30213 0.0
H2799 H 0.18306 0.89357 0.30944 0.0
H2800 H 0.19572 0.87713 0.22502 0.0
H2801 H 0.2249 0.87555 0.21281 0.0
H2802 H 0.20902 0.90429 0.21342 0.0
H2803 H 0.24583 0.92526 0.23397 0.0
H2804 H 0.26183 0.89657 0.23338 0.0
H2805 H 0.25774 0.91238 0.25956 0.0
H2806 H 0.20811 0.85565 0.31032 0.0
H2807 H 0.23276 0.81907 0.303 0.0
H2808 H 0.25205 0.84856 0.2392 0.0
C2809 C 0.19757 0.93062 0.25615 0.0
C2810 C 0.18088 0.93988 0.27131 0.0
C2811 C 0.17557 0.92635 0.29049 0.0
C2812 C 0.18711 0.90396 0.29476 0.0
C2813 C 0.20342 0.89526 0.2794 0.0
C2814 C 0.20839 0.90796 0.26031 0.0
C2815 C 0.22523 0.89365 0.24567 0.0
C2816 C 0.21298 0.88728 0.22288 0.0
C2817 C 0.24907 0.90781 0.243 0.0
C2818 C 0.22901 0.87088 0.25954 0.0
C2819 C 0.21661 0.87247 0.27912 0.0
C2820 C 0.21779 0.85414 0.29502 0.0
C2821 C 0.23189 0.83355 0.29076 0.0
C2822 C 0.2442 0.83122 0.27058 0.0
C2823 C 0.24269 0.85002 0.25469 0.0
H2824 H 0.54122 0.35491 0.44481 0.0
H2825 H 0.46929 0.3302 0.45977 0.0
H2826 H 0.47399 0.34881 0.49741 0.0
H2827 H 0.56731 0.35373 0.50726 0.0
H2828 H 0.58493 0.38089 0.50178 0.0
H2829 H 0.57991 0.3577 0.48026 0.0
H2830 H 0.56266 0.39079 0.4536 0.0
H2831 H 0.56786 0.41376 0.47477 0.0
H2832 H 0.53795 0.40951 0.46241 0.0
H2833 H 0.47981 0.38128 0.52513 0.0
H2834 H 0.48591 0.42373 0.53895 0.0
H2835 H 0.55617 0.42581 0.50975 0.0
C2836 C 0.52693 0.3527 0.45647 0.0
C2837 C 0.50489 0.34158 0.44962 0.0
C2838 C 0.48637 0.33874 0.46492 0.0
C2839 C 0.48901 0.34902 0.48639 0.0
C2840 C 0.51055 0.36134 0.49237 0.0
C2841 C 0.52952 0.36262 0.47797 0.0
C2842 C 0.54866 0.38083 0.48624 0.0
C2843 C 0.57155 0.36747 0.49438 0.0
C2844 C 0.55454 0.39983 0.46821 0.0
C2845 C 0.53585 0.39226 0.50558 0.0
C2846 C 0.5144 0.38002 0.50957 0.0
C2847 C 0.49691 0.3905 0.52282 0.0
C2848 C 0.50044 0.41473 0.53053 0.0
C2849 C 0.52131 0.42803 0.52491 0.0
C2850 C 0.54005 0.41589 0.51418 0.0
H2851 H 0.45181 0.73752 0.22229 0.0
H2852 H 0.44336 0.78628 0.16591 0.0
H2853 H 0.4022 0.79625 0.17743 0.0
H2854 H 0.39006 0.71431 0.21962 0.0
H2855 H 0.38828 0.71231 0.24946 0.0
H2856 H 0.41691 0.70885 0.23658 0.0
H2857 H 0.43491 0.74405 0.26176 0.0
H2858 H 0.40628 0.74779 0.27458 0.0
H2859 H 0.42057 0.77369 0.26181 0.0
H2860 H 0.36151 0.80019 0.19462 0.0
H2861 H 0.32434 0.79768 0.2161 0.0
H2862 H 0.35969 0.74782 0.26226 0.0
C2863 C 0.44135 0.75032 0.21232 0.0
C2864 C 0.45096 0.76117 0.19317 0.0
C2865 C 0.43648 0.77768 0.18059 0.0
C2866 C 0.41307 0.7835 0.18704 0.0
C2867 C 0.40428 0.77264 0.2061 0.0
C2868 C 0.41793 0.75629 0.2185 0.0
C2869 C 0.40409 0.74686 0.23809 0.0
C2870 C 0.39957 0.71893 0.2358 0.0
C2871 C 0.41725 0.75351 0.26038 0.0
C2872 C 0.38074 0.76096 0.23513 0.0
C2873 C 0.38112 0.77546 0.21638 0.0
C2874 C 0.36113 0.7891 0.20944 0.0
C2875 C 0.34013 0.78762 0.22176 0.0
C2876 C 0.33936 0.77298 0.24106 0.0
C2877 C 0.36005 0.75971 0.24794 0.0
H2878 H 0.97087 0.73317 0.94775 0.0
H2879 H 0.92522 0.71518 0.88953 0.0
H2880 H 0.91994 0.67273 0.90347 0.0
H2881 H 0.00316 0.68065 0.94468 0.0
H2882 H 0.00829 0.67743 0.97432 0.0
H2883 H 0.00342 0.70737 0.96285 0.0
H2884 H 0.96776 0.71431 0.9889 0.0
H2885 H 0.97266 0.68436 0.00066 0.0
H2886 H 0.94336 0.69213 0.98896 0.0
H2887 H 0.92395 0.63101 0.92196 0.0
H2888 H 0.93845 0.59395 0.94145 0.0
H2889 H 0.98565 0.64005 0.98408 0.0
C2890 C 0.95891 0.72065 0.93836 0.0
C2891 C 0.94803 0.72747 0.91784 0.0
C2892 C 0.93341 0.71028 0.9055 0.0
C2893 C 0.93031 0.68622 0.91331 0.0
C2894 C 0.94223 0.67978 0.93325 0.0
C2895 C 0.95633 0.69659 0.94551 0.0
C2896 C 0.97058 0.68454 0.96418 0.0
C2897 C -0.00204 0.68768 0.96131 0.0
C2898 C 0.96312 0.69442 0.98703 0.0
C2899 C 0.96257 0.65817 0.96044 0.0
C2900 C 0.94587 0.65574 0.94288 0.0
C2901 C 0.93691 0.63276 0.93582 0.0
C2902 C 0.94549 0.61179 0.94685 0.0
C2903 C 0.96325 0.61392 0.96441 0.0
C2904 C 0.9716 0.63757 0.97125 0.0
H2905 H 0.11479 0.29547 0.66709 0.0
H2906 H 0.08169 0.22671 0.6862 0.0
H2907 H 0.11985 0.2142 0.70473 0.0
H2908 H 0.17517 0.26961 0.65688 0.0
H2909 H 0.19112 0.29633 0.66811 0.0
H2910 H 0.16159 0.29955 0.65498 0.0
H2911 H 0.14656 0.3209 0.69071 0.0
H2912 H 0.17602 0.31777 0.70388 0.0
H2913 H 0.14988 0.30551 0.71705 0.0
H2914 H 0.15965 0.21067 0.72417 0.0
H2915 H 0.19994 0.2156 0.74256 0.0
H2916 H 0.20957 0.2854 0.70976 0.0
C2917 C 0.11582 0.2777 0.67498 0.0
C2918 C 0.09524 0.26217 0.67559 0.0
C2919 C 0.09706 0.23909 0.68605 0.0
C2920 C 0.11876 0.23172 0.69642 0.0
C2921 C 0.13862 0.24755 0.696 0.0
C2922 C 0.13753 0.26999 0.68544 0.0
C2923 C 0.16148 0.28377 0.68835 0.0
C2924 C 0.17302 0.28753 0.66573 0.0
C2925 C 0.15828 0.30845 0.70073 0.0
C2926 C 0.1759 0.2658 0.70257 0.0
C2927 C 0.16226 0.24503 0.70668 0.0
C2928 C 0.17069 0.2266 0.72074 0.0
C2929 C 0.19356 0.22957 0.73112 0.0
C2930 C 0.20792 0.25062 0.72723 0.0
C2931 C 0.19916 0.26882 0.71249 0.0
H2932 H 0.51712 0.68825 0.09829 0.0
H2933 H 0.54261 0.65805 0.16147 0.0
H2934 H 0.54887 0.61817 0.14317 0.0
H2935 H 0.48484 0.63342 0.07894 0.0
H2936 H 0.49255 0.63662 0.0502 0.0
H2937 H 0.49055 0.66352 0.0679 0.0
H2938 H 0.53417 0.67596 0.05846 0.0
H2939 H 0.53633 0.64896 0.04087 0.0
H2940 H 0.55833 0.6545 0.06327 0.0
H2941 H 0.55127 0.58125 0.11932 0.0
H2942 H 0.54821 0.54825 0.0908 0.0
H2943 H 0.5221 0.60061 0.04189 0.0
C2944 C 0.52401 0.67324 0.10824 0.0
C2945 C 0.52934 0.67651 0.13142 0.0
C2946 C 0.53829 0.65626 0.14377 0.0
C2947 C 0.54205 0.63342 0.1335 0.0
C2948 C 0.53679 0.63085 0.11076 0.0
C2949 C 0.52785 0.65004 0.09819 0.0
C2950 C 0.52307 0.64168 0.07407 0.0
C2951 C 0.49615 0.64395 0.06739 0.0
C2952 C 0.53892 0.65614 0.05824 0.0
C2953 C 0.53057 0.61482 0.07524 0.0
C2954 C 0.53848 0.60917 0.09664 0.0
C2955 C 0.5453 0.58546 0.10245 0.0
C2956 C 0.54351 0.56684 0.08613 0.0
C2957 C 0.53518 0.57192 0.06412 0.0
C2958 C 0.52902 0.59635 0.05847 0.0
H2959 H 0.04785 0.80486 0.84411 0.0
H2960 H 0.06487 0.76006 0.9018 0.0
H2961 H 0.10803 0.76135 0.89282 0.0
H2962 H 0.08848 0.77801 0.8075 0.0
H2963 H 0.09659 0.80652 0.79458 0.0
H2964 H 0.06737 0.80302 0.80628 0.0
H2965 H 0.07542 0.84192 0.83103 0.0
H2966 H 0.10478 0.84551 0.81947 0.0
H2967 H 0.10198 0.8435 0.84922 0.0
H2968 H 0.14866 0.76643 0.87697 0.0
H2969 H 0.18419 0.77296 0.8541 0.0
H2970 H 0.14052 0.81453 0.80681 0.0
C2971 C 0.06065 0.79528 0.85484 0.0
C2972 C 0.05315 0.78229 0.8736 0.0
C2973 C 0.07037 0.77013 0.88735 0.0
C2974 C 0.09486 0.77085 0.88245 0.0
C2975 C 0.10167 0.78402 0.86391 0.0
C2976 C 0.08509 0.79599 0.85031 0.0
C2977 C 0.09701 0.80834 0.8311 0.0
C2978 C 0.08676 0.79836 0.80854 0.0
C2979 C 0.09466 0.83649 0.83282 0.0
C2980 C 0.1228 0.80054 0.83547 0.0
C2981 C 0.12516 0.78696 0.85474 0.0
C2982 C 0.14713 0.77726 0.862 0.0
C2983 C 0.16719 0.78119 0.84901 0.0
C2984 C 0.16498 0.79448 0.82892 0.0
C2985 C 0.14259 0.80448 0.82221 0.0
H2986 H 0.02067 0.32751 0.58352 0.0
H2987 H -0.00344 0.35465 0.6473 0.0
H2988 H -0.00485 0.39671 0.6327 0.0
H2989 H 0.05899 0.37909 0.5725 0.0
H2990 H 0.05192 0.37945 0.54297 0.0
H2991 H 0.0502 0.351 0.55791 0.0
H2992 H 0.00579 0.3449 0.54384 0.0
H2993 H 0.00745 0.3733 0.5288 0.0
H2994 H 0.98426 0.36887 0.54868 0.0
H2995 H -0.00125 0.43618 0.61246 0.0
H2996 H 0.00472 0.47055 0.58674 0.0
H2997 H 0.02523 0.4187 0.53525 0.0
C2998 C 0.01475 0.34226 0.59428 0.0
C2999 C 0.00864 0.33766 0.61659 0.0
C3000 C 0.00128 0.35758 0.63018 0.0
C3001 C 0.00045 0.38161 0.62205 0.0
C3002 C 0.00695 0.3856 0.6002 0.0
C3003 C 0.01379 0.36653 0.58638 0.0
C3004 C 0.02031 0.37617 0.56367 0.0
C3005 C 0.04693 0.37112 0.559 0.0
C3006 C 0.00344 0.36515 0.54515 0.0
C3007 C 0.01599 0.40355 0.56696 0.0
C3008 C 0.00849 0.40854 0.58824 0.0
C3009 C 0.00435 0.4325 0.59566 0.0
C3010 C 0.00785 0.45192 0.58094 0.0
C3011 C 0.01517 0.44734 0.55891 0.0
C3012 C 0.01923 0.42276 0.55186 0.0
H3013 H 0.40287 0.33466 0.37882 0.0
H3014 H 0.44094 0.34595 0.31802 0.0
H3015 H 0.41116 0.31988 0.29749 0.0
H3016 H 0.39112 0.27732 0.37318 0.0
H3017 H 0.3606 0.27502 0.38235 0.0
H3018 H 0.37974 0.3001 0.39214 0.0
H3019 H 0.34957 0.33242 0.37743 0.0
H3020 H 0.32926 0.30766 0.36887 0.0
H3021 H 0.33813 0.33027 0.34901 0.0
H3022 H 0.38997 0.28097 0.28899 0.0
H3023 H 0.36125 0.24689 0.28395 0.0
H3024 H 0.32923 0.26614 0.34691 0.0
C3025 C 0.40355 0.3335 0.36083 0.0
C3026 C 0.42423 0.34185 0.34995 0.0
C3027 C 0.42513 0.33973 0.32654 0.0
C3028 C 0.4085 0.32457 0.31481 0.0
C3029 C 0.39018 0.31362 0.32658 0.0
C3030 C 0.38632 0.31935 0.34866 0.0
C3031 C 0.36611 0.30353 0.35752 0.0
C3032 C 0.37494 0.2881 0.37748 0.0
C3033 C 0.34447 0.31941 0.36356 0.0
C3034 C 0.36032 0.28723 0.33733 0.0
C3035 C 0.37522 0.29282 0.32012 0.0
C3036 C 0.37685 0.27757 0.30154 0.0
C3037 C 0.36069 0.25787 0.29914 0.0
C3038 C 0.3418 0.25485 0.31432 0.0
C3039 C 0.34276 0.26857 0.33453 0.0
H3040 H 0.48386 0.50573 0.34915 0.0
H3041 H 0.4143 0.54018 0.35757 0.0
H3042 H 0.42174 0.54115 0.39818 0.0
H3043 H 0.48176 0.46675 0.39329 0.0
H3044 H 0.513 0.46955 0.40241 0.0
H3045 H 0.50437 0.4746 0.37367 0.0
H3046 H 0.52409 0.51803 0.37553 0.0
H3047 H 0.5334 0.51286 0.40414 0.0
H3048 H 0.51579 0.53952 0.39704 0.0
H3049 H 0.43329 0.53218 0.4375 0.0
H3050 H 0.45198 0.52105 0.47377 0.0
H3051 H 0.51493 0.4941 0.44034 0.0
C3052 C 0.47054 0.5142 0.35947 0.0
C3053 C 0.44842 0.52269 0.35015 0.0
C3054 C 0.43137 0.53349 0.36427 0.0
C3055 C 0.43537 0.53406 0.3874 0.0
C3056 C 0.4567 0.52422 0.39612 0.0
C3057 C 0.47435 0.51517 0.38264 0.0
C3058 C 0.49522 0.5048 0.3964 0.0
C3059 C 0.49877 0.4773 0.39112 0.0
C3060 C 0.5185 0.5197 0.39308 0.0
C3061 C 0.48607 0.50866 0.41964 0.0
C3062 C 0.46378 0.5198 0.41905 0.0
C3063 C 0.45099 0.52394 0.43825 0.0
C3064 C 0.46165 0.51729 0.45874 0.0
C3065 C 0.48497 0.50684 0.45984 0.0
C3066 C 0.49717 0.50223 0.43999 0.0
H3067 H 0.23179 0.66262 0.06043 0.0
H3068 H 0.30853 0.6485 0.06339 0.0
H3069 H 0.31302 0.67389 0.09797 0.0
H3070 H 0.23615 0.72701 0.08328 0.0
H3071 H 0.20885 0.72353 0.0984 0.0
H3072 H 0.21236 0.70681 0.07257 0.0
H3073 H 0.20377 0.66597 0.09262 0.0
H3074 H 0.20052 0.68243 0.11854 0.0
H3075 H 0.22205 0.65789 0.11683 0.0
H3076 H 0.30855 0.69765 0.1334 0.0
H3077 H 0.29562 0.71873 0.16769 0.0
H3078 H 0.22144 0.71684 0.1424 0.0
C3079 C 0.24956 0.66552 0.06815 0.0
C3080 C 0.26994 0.65418 0.05933 0.0
C3081 C 0.2929 0.65758 0.06989 0.0
C3082 C 0.29556 0.67188 0.08947 0.0
C3083 C 0.27504 0.68263 0.09804 0.0
C3084 C 0.2525 0.67981 0.08765 0.0
C3085 C 0.23319 0.69212 0.10101 0.0
C3086 C 0.22198 0.71365 0.08804 0.0
C3087 C 0.21375 0.67348 0.10765 0.0
C3088 C 0.2482 0.70132 0.12107 0.0
C3089 C 0.27237 0.69603 0.11876 0.0
C3090 C 0.28976 0.70216 0.13527 0.0
C3091 C 0.28229 0.71407 0.15463 0.0
C3092 C 0.25767 0.71942 0.15739 0.0
C3093 C 0.24039 0.713 0.14046 0.0
H3094 H 0.09877 0.47181 0.85784 0.0
H3095 H 0.13021 0.54496 0.86367 0.0
H3096 H 0.12135 0.54641 0.90372 0.0
H3097 H 0.05037 0.4823 0.88907 0.0
H3098 H 0.04941 0.45313 0.90299 0.0
H3099 H 0.06289 0.45526 0.8763 0.0
H3100 H 0.10267 0.43734 0.89274 0.0
H3101 H 0.08923 0.43491 0.91955 0.0
H3102 H 0.11715 0.45171 0.91701 0.0
H3103 H 0.10304 0.54336 0.94 0.0
H3104 H 0.07674 0.53586 0.97145 0.0
H3105 H 0.05672 0.46423 0.9435 0.0
C3106 C 0.10455 0.48764 0.8679 0.0
C3107 C 0.11555 0.50811 0.8581 0.0
C3108 C 0.12218 0.529 0.87123 0.0
C3109 C 0.11727 0.52992 0.89392 0.0
C3110 C 0.10583 0.50971 0.90314 0.0
C3111 C 0.09974 0.48881 0.89067 0.0
C3112 C 0.08509 0.47093 0.90409 0.0
C3113 C 0.06048 0.46509 0.89242 0.0
C3114 C 0.09939 0.44732 0.90862 0.0
C3115 C 0.08236 0.48586 0.92539 0.0
C3116 C 0.09505 0.50789 0.92459 0.0
C3117 C 0.09358 0.52594 0.94114 0.0
C3118 C 0.07849 0.52159 0.95881 0.0
C3119 C 0.06501 0.49943 0.95981 0.0
C3120 C 0.06732 0.48105 0.94322 0.0
H3121 H 0.30183 0.36087 0.59708 0.0
H3122 H 0.29356 0.29612 0.55447 0.0
H3123 H 0.32051 0.2732 0.58024 0.0
H3124 H 0.36539 0.34736 0.62238 0.0
H3125 H 0.35617 0.35836 0.64921 0.0
H3126 H 0.34413 0.37215 0.62407 0.0
H3127 H 0.30055 0.36322 0.63641 0.0
H3128 H 0.31255 0.34999 0.66149 0.0
H3129 H 0.29219 0.33218 0.64338 0.0
H3130 H 0.33944 0.25499 0.61372 0.0
H3131 H 0.34212 0.24185 0.65282 0.0
H3132 H 0.3364 0.31777 0.67477 0.0
C3133 C 0.30656 0.34216 0.59273 0.0
C3134 C 0.29586 0.33025 0.57379 0.0
C3135 C 0.30171 0.30556 0.56891 0.0
C3136 C 0.31725 0.29253 0.58332 0.0
C3137 C 0.32673 0.30449 0.60251 0.0
C3138 C 0.32151 0.32884 0.60723 0.0
C3139 C 0.32889 0.33588 0.63101 0.0
C3140 C 0.3499 0.35454 0.63169 0.0
C3141 C 0.30726 0.34585 0.6438 0.0
C3142 C 0.33706 0.31115 0.63953 0.0
C3143 C 0.3369 0.29357 0.62258 0.0
C3144 C 0.34013 0.26867 0.62702 0.0
C3145 C 0.34156 0.26134 0.6493 0.0
C3146 C 0.33912 0.27881 0.66678 0.0
C3147 C 0.33879 0.30408 0.66179 0.0
H3148 H 0.44392 0.51515 0.22208 0.0
H3149 H 0.38358 0.46363 0.21831 0.0
H3150 H 0.39891 0.44589 0.18339 0.0
H3151 H 0.44405 0.5275 0.16457 0.0
H3152 H 0.47643 0.53035 0.16395 0.0
H3153 H 0.46127 0.53734 0.18921 0.0
H3154 H 0.48823 0.50585 0.21024 0.0
H3155 H 0.50317 0.49846 0.18487 0.0
H3156 H 0.48901 0.47441 0.2003 0.0
H3157 H 0.4206 0.43482 0.14812 0.0
H3158 H 0.44445 0.43409 0.11403 0.0
H3159 H 0.48893 0.49423 0.14146 0.0
C3160 C 0.434 0.50004 0.21399 0.0
C3161 C 0.41269 0.49068 0.22284 0.0
C3162 C 0.39997 0.4711 0.21168 0.0
C3163 C 0.40864 0.46078 0.19199 0.0
C3164 C 0.42992 0.47034 0.1838 0.0
C3165 C 0.44226 0.48969 0.19438 0.0
C3166 C 0.46372 0.49785 0.18154 0.0
C3167 C 0.46119 0.52484 0.17439 0.0
C3168 C 0.48743 0.49389 0.19505 0.0
C3169 C 0.46135 0.48032 0.16185 0.0
C3170 C 0.44203 0.46431 0.16351 0.0
C3171 C 0.43584 0.44721 0.14667 0.0
C3172 C 0.44939 0.44701 0.12735 0.0
C3173 C 0.46868 0.464 0.12506 0.0
C3174 C 0.47484 0.48046 0.14281 0.0
H3175 H 0.25823 0.69111 0.93095 0.0
H3176 H 0.30334 0.62939 0.91357 0.0
H3177 H 0.31447 0.65032 0.87916 0.0
H3178 H 0.23442 0.70057 0.87664 0.0
H3179 H 0.23365 0.73365 0.87912 0.0
H3180 H 0.23139 0.71512 0.90357 0.0
H3181 H 0.26802 0.7386 0.92202 0.0
H3182 H 0.27051 0.75707 0.89747 0.0
H3183 H 0.29609 0.73988 0.90782 0.0
H3184 H 0.31974 0.67688 0.84644 0.0
H3185 H 0.31479 0.7048 0.81478 0.0
H3186 H 0.26435 0.74846 0.85204 0.0
C3187 C 0.2707 0.6822 0.92002 0.0
C3188 C 0.28011 0.65877 0.92495 0.0
C3189 C 0.29598 0.64738 0.91008 0.0
C3190 C 0.30255 0.6592 0.89061 0.0
C3191 C 0.29299 0.6823 0.88623 0.0
C3192 C 0.27717 0.69358 0.90033 0.0
C3193 C 0.26784 0.71743 0.89067 0.0
C3194 C 0.24019 0.71663 0.88729 0.0
C3195 C 0.27611 0.73955 0.90537 0.0
C3196 C 0.2803 0.71735 0.86864 0.0
C3197 C 0.29523 0.69726 0.86674 0.0
C3198 C 0.30822 0.69276 0.84774 0.0
C3199 C 0.30532 0.70881 0.82987 0.0
C3200 C 0.28914 0.72881 0.83095 0.0
C3201 C 0.27692 0.73341 0.8508 0.0
H3202 H 0.1343 0.50048 0.7036 0.0
H3203 H 0.07662 0.5153 0.74879 0.0
H3204 H 0.05373 0.5361 0.71858 0.0
H3205 H 0.13103 0.55671 0.67313 0.0
H3206 H 0.13638 0.54226 0.64656 0.0
H3207 H 0.14864 0.52904 0.67183 0.0
H3208 H 0.12737 0.48739 0.66199 0.0
H3209 H 0.11564 0.5003 0.63644 0.0
H3210 H 0.09533 0.48676 0.65571 0.0
H3211 H 0.03731 0.55563 0.68347 0.0
H3212 H 0.02566 0.56632 0.64468 0.0
H3213 H 0.09361 0.53751 0.6225 0.0
C3214 C 0.1168 0.508 0.70712 0.0
C3215 C 0.10735 0.50652 0.72859 0.0
C3216 C 0.08427 0.51632 0.73248 0.0
C3217 C 0.07122 0.52836 0.71548 0.0
C3218 C 0.08142 0.5302 0.69468 0.0
C3219 C 0.10345 0.51984 0.69032 0.0
C3220 C 0.10975 0.52303 0.66621 0.0
C3221 C 0.13282 0.5387 0.66433 0.0
C3222 C 0.11215 0.49788 0.6544 0.0
C3223 C 0.08772 0.53666 0.65762 0.0
C3224 C 0.07175 0.54097 0.67437 0.0
C3225 C 0.04966 0.55234 0.67021 0.0
C3226 C 0.04321 0.55838 0.64816 0.0
C3227 C 0.05871 0.55278 0.63056 0.0
C3228 C 0.08158 0.54257 0.63558 0.0
H3229 H 0.2039 0.37404 0.44618 0.0
H3230 H 0.18945 0.31432 0.49094 0.0
H3231 H 0.18291 0.28593 0.45868 0.0
H3232 H 0.16404 0.3521 0.39665 0.0
H3233 H 0.18653 0.36148 0.37747 0.0
H3234 H 0.18321 0.37839 0.40323 0.0
H3235 H 0.22853 0.37198 0.41327 0.0
H3236 H 0.23196 0.35498 0.38775 0.0
H3237 H 0.24027 0.34116 0.41401 0.0
H3238 H 0.18553 0.26273 0.42271 0.0
H3239 H 0.19821 0.24651 0.3863 0.0
H3240 H 0.21369 0.32102 0.36556 0.0
C3241 C 0.1982 0.35526 0.44903 0.0
C3242 C 0.19668 0.34634 0.47086 0.0
C3243 C 0.19036 0.32143 0.47421 0.0
C3244 C 0.18653 0.30525 0.45601 0.0
C3245 C 0.1893 0.31427 0.43461 0.0
C3246 C 0.19493 0.33876 0.43103 0.0
C3247 C 0.20117 0.34293 0.40703 0.0
C3248 C 0.18262 0.35972 0.39541 0.0
C3249 C 0.22701 0.35336 0.40544 0.0
C3250 C 0.1992 0.31685 0.39792 0.0
C3251 C 0.19175 0.30066 0.41389 0.0
C3252 C 0.19092 0.27529 0.40992 0.0
C3253 C 0.19835 0.26622 0.38928 0.0
C3254 C 0.20678 0.28247 0.37297 0.0
C3255 C 0.20664 0.30812 0.37732 0.0
H3256 H 0.28535 0.46515 0.51468 0.0
H3257 H 0.30745 0.39187 0.49509 0.0
H3258 H 0.34984 0.40302 0.50444 0.0
H3259 H 0.34193 0.499 0.4973 0.0
H3260 H 0.34082 0.51939 0.52119 0.0
H3261 H 0.31325 0.5073 0.50832 0.0
H3262 H 0.30135 0.49078 0.54671 0.0
H3263 H 0.32934 0.50173 0.5595 0.0
H3264 H 0.32107 0.46967 0.5612 0.0
H3265 H 0.38753 0.41877 0.52258 0.0
H3266 H 0.42144 0.44183 0.54049 0.0
H3267 H 0.37547 0.50531 0.5488 0.0
C3268 C 0.29929 0.45197 0.51116 0.0
C3269 C 0.29332 0.42774 0.504 0.0
C3270 C 0.31184 0.41059 0.50037 0.0
C3271 C 0.33589 0.41669 0.50582 0.0
C3272 C 0.34097 0.44005 0.5147 0.0
C3273 C 0.32341 0.45774 0.51671 0.0
C3274 C 0.33349 0.48071 0.52846 0.0
C3275 C 0.33231 0.50291 0.51288 0.0
C3276 C 0.32053 0.48601 0.55025 0.0
C3277 C 0.35925 0.47287 0.53317 0.0
C3278 C 0.36304 0.44927 0.52524 0.0
C3279 C 0.38495 0.43743 0.52852 0.0
C3280 C 0.40397 0.45054 0.53911 0.0
C3281 C 0.40098 0.4753 0.54616 0.0
C3282 C 0.37816 0.48639 0.54361 0.0
H3283 H 0.83634 0.03808 0.50116 0.0
H3284 H 0.84779 0.11405 0.4822 0.0
H3285 H 0.89164 0.10737 0.48286 0.0
H3286 H 0.88513 0.03304 0.53887 0.0
H3287 H 0.89346 0.00224 0.53087 0.0
H3288 H 0.86269 0.01198 0.52698 0.0
H3289 H 0.86345 0.00045 0.485 0.0
H3290 H 0.89419 0.99039 0.48878 0.0
H3291 H 0.88668 0.01321 0.46823 0.0
H3292 H 0.93368 0.09387 0.48797 0.0
H3293 H 0.97245 0.07377 0.496 0.0
H3294 H 0.93482 0.00619 0.51206 0.0
C3295 C 0.84808 0.05319 0.49685 0.0
C3296 C 0.83865 0.07659 0.49161 0.0
C3297 C 0.85457 0.09592 0.48606 0.0
C3298 C 0.87951 0.09232 0.48644 0.0
C3299 C 0.88824 0.06921 0.49206 0.0
C3300 C 0.87309 0.04984 0.49688 0.0
C3301 C 0.88738 0.02701 0.5028 0.0
C3302 C 0.88183 0.01806 0.52628 0.0
C3303 C 0.88264 0.00655 0.48516 0.0
C3304 C 0.91293 0.03705 0.50179 0.0
C3305 C 0.91286 0.06131 0.49511 0.0
C3306 C 0.93402 0.07481 0.49296 0.0
C3307 C 0.95594 0.06319 0.49756 0.0
C3308 C 0.9566 0.0384 0.50455 0.0
C3309 C 0.93479 0.02517 0.5068 0.0
H3310 H 0.69661 0.07036 0.2692 0.0
H3311 H 0.6608 0.09787 0.32735 0.0
H3312 H 0.68634 0.13539 0.32753 0.0
H3313 H 0.75808 0.09977 0.28193 0.0
H3314 H 0.76189 0.10699 0.25304 0.0
H3315 H 0.74496 0.07994 0.26032 0.0
H3316 H 0.70851 0.09508 0.23628 0.0
H3317 H 0.72516 0.12224 0.22915 0.0
H3318 H 0.6963 0.12511 0.24179 0.0
H3319 H 0.71053 0.17149 0.31868 0.0
H3320 H 0.73145 0.20555 0.30077 0.0
H3321 H 0.75153 0.15667 0.24691 0.0
C3322 C 0.69492 0.08395 0.28241 0.0
C3323 C 0.67723 0.08121 0.29859 0.0
C3324 C 0.67455 0.09966 0.31509 0.0
C3325 C 0.68903 0.12091 0.31533 0.0
C3326 C 0.70584 0.12351 0.29878 0.0
C3327 C 0.70893 0.1056 0.28257 0.0
C3328 C 0.72583 0.1146 0.26493 0.0
C3329 C 0.74907 0.09942 0.26508 0.0
C3330 C 0.71318 0.11424 0.24167 0.0
C3331 C 0.73086 0.14073 0.27325 0.0
C3332 C 0.71951 0.14512 0.29308 0.0
C3333 C 0.71976 0.1682 0.30335 0.0
C3334 C 0.73154 0.18744 0.29297 0.0
C3335 C 0.74295 0.18363 0.27249 0.0
C3336 C 0.7431 0.15988 0.26267 0.0
H3337 H 0.6792 0.89565 0.00344 0.0
H3338 H 0.69544 0.9074 0.07391 0.0
H3339 H 0.66378 0.93912 0.07528 0.0
H3340 H 0.67348 0.95718 0.99139 0.0
H3341 H 0.64946 0.95378 0.97051 0.0
H3342 H 0.67023 0.92898 0.97534 0.0
H3343 H 0.63511 0.89886 0.98318 0.0
H3344 H 0.61417 0.9232 0.97722 0.0
H3345 H 0.61323 0.90736 0.00337 0.0
H3346 H 0.6352 0.97288 0.06777 0.0
H3347 H 0.60329 0.00046 0.0542 0.0
H3348 H 0.60631 0.96724 0.98804 0.0
C3349 C 0.67499 0.90395 0.01936 0.0
C3350 C 0.68883 0.8988 0.03879 0.0
C3351 C 0.68421 0.9108 0.05915 0.0
C3352 C 0.66665 0.92903 0.05994 0.0
C3353 C 0.65439 0.93496 0.04012 0.0
C3354 C 0.65784 0.9224 0.02031 0.0
C3355 C 0.64347 0.93346 0.00113 0.0
C3356 C 0.66017 0.94396 0.98357 0.0
C3357 C 0.62541 0.9146 0.99063 0.0
C3358 C 0.63095 0.95382 0.0134 0.0
C3359 C 0.638 0.95473 0.03572 0.0
C3360 C 0.62922 0.97217 0.05041 0.0
C3361 C 0.61129 0.98794 0.04243 0.0
C3362 C 0.60208 0.98562 0.02013 0.0
C3363 C 0.61295 0.96928 0.00517 0.0
H3364 H 0.38646 0.41559 0.27098 0.0
H3365 H 0.3646 0.44324 0.3352 0.0
H3366 H 0.33726 0.40717 0.33857 0.0
H3367 H 0.32708 0.39653 0.25315 0.0
H3368 H 0.33703 0.37025 0.23743 0.0
H3369 H 0.35637 0.39693 0.24107 0.0
H3370 H 0.39031 0.3698 0.25776 0.0
H3371 H 0.37124 0.34289 0.25428 0.0
H3372 H 0.38432 0.35088 0.28135 0.0
H3373 H 0.31072 0.36937 0.33357 0.0
H3374 H 0.28901 0.33108 0.32195 0.0
H3375 H 0.32751 0.32984 0.26021 0.0
C3376 C 0.37638 0.41364 0.28601 0.0
C3377 C 0.37782 0.43168 0.30308 0.0
C3378 C 0.36378 0.42926 0.32213 0.0
C3379 C 0.34822 0.40897 0.32411 0.0
C3380 C 0.34666 0.3918 0.30662 0.0
C3381 C 0.36035 0.39398 0.28793 0.0
C3382 C 0.35416 0.37408 0.27078 0.0
C3383 C 0.343 0.38512 0.24935 0.0
C3384 C 0.37633 0.35848 0.26575 0.0
C3385 C 0.33558 0.35971 0.28314 0.0
C3386 C 0.33115 0.37042 0.30359 0.0
C3387 C 0.3141 0.36076 0.31763 0.0
C3388 C 0.30175 0.33915 0.31082 0.0
C3389 C 0.30663 0.32757 0.29019 0.0
C3390 C 0.32351 0.33823 0.27612 0.0
H3391 H 0.17044 0.61128 0.98144 0.0
H3392 H 0.21626 0.56012 0.01771 0.0
H3393 H 0.1814 0.54546 0.03801 0.0
H3394 H 0.12721 0.62446 0.02512 0.0
H3395 H 0.10139 0.62342 0.006 0.0
H3396 H 0.13041 0.63311 -0.00352 0.0
H3397 H 0.12816 0.59946 0.96535 0.0
H3398 H 0.09902 0.58999 0.9745 0.0
H3399 H 0.12292 0.56788 0.97278 0.0
H3400 H 0.14228 0.53528 0.0536 0.0
H3401 H 0.09996 0.52229 0.05665 0.0
H3402 H 0.07804 0.57693 0.00809 0.0
C3403 C 0.17309 0.59718 0.99384 0.0
C3404 C 0.19619 0.58735 -0.00151 0.0
C3405 C 0.19889 0.56834 0.01423 0.0
C3406 C 0.1792 0.56002 0.02601 0.0
C3407 C 0.1568 0.5705 0.02152 0.0
C3408 C 0.15342 0.58809 0.00532 0.0
C3409 C 0.12682 0.5934 0.00136 0.0
C3410 C 0.12114 0.62019 0.00762 0.0
C3411 C 0.11876 0.58732 0.97706 0.0
C3412 C 0.11586 0.57562 0.01749 0.0
C3413 C 0.1336 0.56328 0.02949 0.0
C3414 C 0.12818 0.54483 0.04439 0.0
C3415 C 0.10407 0.53763 0.04603 0.0
C3416 C 0.08577 0.54852 0.03249 0.0
C3417 C 0.09161 0.56857 0.01889 0.0
H3418 H 0.70714 0.93576 0.27244 0.0
H3419 H 0.66696 0.92711 0.33258 0.0
H3420 H 0.68865 0.88866 0.34072 0.0
H3421 H 0.70355 0.87398 0.25639 0.0
H3422 H 0.7331 0.8726 0.24492 0.0
H3423 H 0.71732 0.90134 0.24562 0.0
H3424 H 0.75367 0.92166 0.2675 0.0
H3425 H 0.76951 0.89286 0.26691 0.0
H3426 H 0.76468 0.90824 0.29316 0.0
H3427 H 0.71131 0.84954 0.34047 0.0
H3428 H 0.73166 0.81093 0.33063 0.0
H3429 H 0.75652 0.84429 0.27016 0.0
C3430 C 0.70336 0.92601 0.28756 0.0
C3431 C 0.68557 0.93437 0.30198 0.0
C3432 C 0.68056 0.92091 0.32133 0.0
C3433 C 0.69291 0.8992 0.32618 0.0
C3434 C 0.7101 0.89117 0.31145 0.0
C3435 C 0.71527 0.90407 0.29247 0.0
C3436 C 0.73248 0.88999 0.27811 0.0
C3437 C 0.72091 0.88413 0.2549 0.0
C3438 C 0.75651 0.90403 0.27633 0.0
C3439 C 0.73565 0.86694 0.29172 0.0
C3440 C 0.72292 0.86819 0.31107 0.0
C3441 C 0.72163 0.84843 0.32552 0.0
C3442 C 0.73318 0.82657 0.31976 0.0
C3443 C 0.74568 0.82465 0.29965 0.0
C3444 C 0.74739 0.84532 0.28579 0.0
H3445 H 0.85493 0.08585 0.81582 0.0
H3446 H 0.90134 0.09621 0.75996 0.0
H3447 H 0.87878 0.13341 0.74941 0.0
H3448 H 0.80078 0.10416 0.79115 0.0
H3449 H 0.78988 0.1214 0.81455 0.0
H3450 H 0.81051 0.09645 0.81917 0.0
H3451 H 0.84025 0.12557 0.84121 0.0
H3452 H 0.81942 0.15051 0.83717 0.0
H3453 H 0.85011 0.1537 0.82864 0.0
H3454 H 0.84771 0.16459 0.74136 0.0
H3455 H 0.81554 0.19544 0.74108 0.0
H3456 H 0.79174 0.16925 0.80472 0.0
C3457 C 0.86067 0.09641 0.80175 0.0
C3458 C 0.8798 0.08828 0.78864 0.0
C3459 C 0.88689 0.10235 0.77031 0.0
C3460 C 0.87406 0.12335 0.76408 0.0
C3461 C 0.85471 0.13038 0.7768 0.0
C3462 C 0.84857 0.11799 0.79576 0.0
C3463 C 0.82724 0.13 0.80663 0.0
C3464 C 0.80584 0.11192 0.80794 0.0
C3465 C 0.83471 0.14058 0.82978 0.0
C3466 C 0.82174 0.15034 0.79022 0.0
C3467 C 0.83766 0.14987 0.773 0.0
C3468 C 0.83541 0.1655 0.75494 0.0
C3469 C 0.81686 0.18269 0.75479 0.0
C3470 C 0.80111 0.18449 0.77278 0.0
C3471 C 0.80353 0.1681 0.79075 0.0
loop_
_geom_bond_atom_site_label_1
_geom_bond_atom_site_label_2
_geom_bond_distance
_geom_bond_site_symmetry_2
_ccdc_geom_bond_type
C0 O1 1.306 . S
C0 O3 1.160 . S
O1 C0 1.306 . S
O1 Cd2 2.228 . S
Cd2 O1 2.228 . S
Cd2 O6 2.273 . S
Cd2 O10 2.277 . S
O3 C0 1.160 . S
O3 Cd4 2.203 . S
Cd4 O3 2.203 . S
Cd4 O6 2.411 . S
Cd4 O7 2.333 . S
Cd4 O8 2.352 . S
Cd4 O12 2.277 . S
Cd4 O13 2.356 . S
C5 O10 1.209 . S
C5 O12 1.226 . S
O6 Cd2 2.273 . S
O6 Cd4 2.411 . S
O6 C9 1.320 . S
O7 Cd4 2.333 . S
O7 C9 1.214 . S
O8 Cd4 2.352 . S
O8 C11 1.258 . S
C9 O6 1.320 . S
C9 O7 1.214 . S
O10 Cd2 2.277 . S
O10 C5 1.209 . S
C11 O8 1.258 . S
C11 O13 1.282 . S
O12 Cd4 2.277 . S
O12 C5 1.226 . S
O13 Cd4 2.356 . S
O13 C11 1.282 . S
C14 O15 1.286 1_655 S
C14 O17 1.160 . S
O15 C14 1.286 1_455 S
O15 Cd16 2.257 . S
Cd16 O15 2.257 . S
Cd16 O20 2.273 . S
Cd16 O24 2.277 . S
O17 C14 1.160 . S
O17 Cd18 2.203 1_655 S
Cd18 O17 2.203 1_455 S
Cd18 O20 2.411 . S
Cd18 O21 2.333 . S
Cd18 O22 2.352 . S
Cd18 O26 2.277 . S
Cd18 O27 2.356 . S
C19 O24 1.209 . S
C19 O26 1.226 . S
O20 Cd16 2.273 . S
O20 Cd18 2.411 . S
O20 C23 1.320 . S
O21 Cd18 2.333 . S
O21 C23 1.214 . S
O22 Cd18 2.352 . S
O22 C25 1.258 . S
C23 O20 1.320 . S
C23 O21 1.214 . S
O24 Cd16 2.277 . S
O24 C19 1.209 . S
C25 O22 1.258 . S
C25 O27 1.282 . S
O26 Cd18 2.277 . S
O26 C19 1.226 . S
O27 Cd18 2.356 . S
O27 C25 1.282 . S
C28 O29 1.306 . S
C28 O31 1.160 . S
O29 C28 1.306 . S
O29 Cd30 2.228 . S
Cd30 O29 2.228 . S
Cd30 O34 2.273 . S
Cd30 O38 2.277 . S
O31 C28 1.160 . S
O31 Cd32 2.203 . S
Cd32 O31 2.203 . S
Cd32 O34 2.411 . S
Cd32 O35 2.333 . S
Cd32 O36 2.352 . S
Cd32 O40 2.277 . S
Cd32 O41 2.356 . S
C33 O38 1.209 . S
C33 O40 1.226 . S
O34 Cd30 2.273 . S
O34 Cd32 2.411 . S
O34 C37 1.320 . S
O35 Cd32 2.333 . S
O35 C37 1.214 . S
O36 Cd32 2.352 . S
O36 C39 1.258 . S
C37 O34 1.320 . S
C37 O35 1.214 . S
O38 Cd30 2.277 . S
O38 C33 1.209 . S
C39 O36 1.258 . S
C39 O41 1.282 . S
O40 Cd32 2.277 . S
O40 C33 1.226 . S
O41 Cd32 2.356 . S
O41 C39 1.282 . S
C42 O43 1.306 . S
C42 O45 1.160 . S
O43 C42 1.306 . S
O43 Cd44 2.228 . S
Cd44 O43 2.228 . S
Cd44 O48 2.273 . S
Cd44 O52 2.277 . S
O45 C42 1.160 . S
O45 Cd46 2.203 . S
Cd46 O45 2.203 . S
Cd46 O48 2.411 . S
Cd46 O49 2.333 . S
Cd46 O50 2.352 . S
Cd46 O54 2.277 . S
Cd46 O55 2.356 . S
C47 O52 1.209 . S
C47 O54 1.226 . S
O48 Cd44 2.273 . S
O48 Cd46 2.411 . S
O48 C51 1.320 . S
O49 Cd46 2.333 . S
O49 C51 1.214 . S
O50 Cd46 2.352 . S
O50 C53 1.258 . S
C51 O48 1.320 . S
C51 O49 1.214 . S
O52 Cd44 2.277 . S
O52 C47 1.209 . S
C53 O50 1.258 . S
C53 O55 1.282 . S
O54 Cd46 2.277 . S
O54 C47 1.226 . S
O55 Cd46 2.356 . S
O55 C53 1.282 . S
C56 O57 1.306 . S
C56 O59 1.160 . S
O57 C56 1.306 . S
O57 Cd58 2.228 . S
Cd58 O57 2.228 . S
Cd58 O62 2.273 . S
Cd58 O66 2.277 . S
O59 C56 1.160 . S
O59 Cd60 2.203 . S
Cd60 O59 2.203 . S
Cd60 O62 2.411 . S
Cd60 O63 2.333 . S
Cd60 O64 2.352 1_545 S
Cd60 O68 2.277 . S
Cd60 O69 2.356 1_545 S
C61 O66 1.209 . S
C61 O68 1.226 . S
O62 Cd58 2.273 . S
O62 Cd60 2.411 . S
O62 C65 1.320 . S
O63 Cd60 2.333 . S
O63 C65 1.214 . S
O64 Cd60 2.352 1_565 S
O64 C67 1.258 . S
C65 O62 1.320 . S
C65 O63 1.214 . S
O66 Cd58 2.277 . S
O66 C61 1.209 . S
C67 O64 1.258 . S
C67 O69 1.282 . S
O68 Cd60 2.277 . S
O68 C61 1.226 . S
O69 Cd60 2.356 1_565 S
O69 C67 1.282 . S
C70 O71 1.306 . S
C70 O73 1.160 . S
O71 C70 1.306 . S
O71 Cd72 2.228 . S
Cd72 O71 2.228 . S
Cd72 O76 2.273 . S
Cd72 O80 2.277 . S
O73 C70 1.160 . S
O73 Cd74 2.203 . S
Cd74 O73 2.203 . S
Cd74 O76 2.411 . S
Cd74 O77 2.333 . S
Cd74 O78 2.352 . S
Cd74 O82 2.277 . S
Cd74 O83 2.356 . S
C75 O80 1.209 . S
C75 O82 1.226 . S
O76 Cd72 2.273 . S
O76 Cd74 2.411 . S
O76 C79 1.320 . S
O77 Cd74 2.333 . S
O77 C79 1.214 . S
O78 Cd74 2.352 . S
O78 C81 1.258 . S
C79 O76 1.320 . S
C79 O77 1.214 . S
O80 Cd72 2.277 . S
O80 C75 1.209 . S
C81 O78 1.258 . S
C81 O83 1.282 . S
O82 Cd74 2.277 . S
O82 C75 1.226 . S
O83 Cd74 2.356 . S
O83 C81 1.282 . S
C84 O85 1.306 1_545 S
C84 O87 1.160 . S
O85 C84 1.306 1_565 S
O85 Cd86 2.228 . S
Cd86 O85 2.228 . S
Cd86 O90 2.273 1_565 S
Cd86 O94 2.277 . S
O87 C84 1.160 . S
O87 Cd88 2.203 . S
Cd88 O87 2.203 . S
Cd88 O90 2.411 . S
Cd88 O91 2.333 . S
Cd88 O92 2.352 . S
Cd88 O96 2.277 1_545 S
Cd88 O97 2.356 . S
C89 O94 1.209 . S
C89 O96 1.226 . S
O90 Cd86 2.273 1_545 S
O90 Cd88 2.411 . S
O90 C93 1.320 . S
O91 Cd88 2.333 . S
O91 C93 1.214 . S
O92 Cd88 2.352 . S
O92 C95 1.258 . S
C93 O90 1.320 . S
C93 O91 1.214 . S
O94 Cd86 2.277 . S
O94 C89 1.209 . S
C95 O92 1.258 . S
C95 O97 1.282 . S
O96 Cd88 2.277 1_565 S
O96 C89 1.226 . S
O97 Cd88 2.356 . S
O97 C95 1.282 . S
C98 O99 1.306 . S
C98 O101 1.160 . S
O99 C98 1.306 . S
O99 Cd100 2.228 . S
Cd100 O99 2.228 . S
Cd100 O104 2.273 . S
Cd100 O108 2.277 . S
O101 C98 1.160 . S
O101 Cd102 2.203 . S
Cd102 O101 2.203 . S
Cd102 O104 2.411 . S
Cd102 O105 2.333 . S
Cd102 O106 2.352 1_554 S
Cd102 O110 2.277 . S
Cd102 O111 2.356 1_554 S
C103 O108 1.209 . S
C103 O110 1.226 . S
O104 Cd100 2.273 . S
O104 Cd102 2.411 . S
O104 C107 1.320 . S
O105 Cd102 2.333 . S
O105 C107 1.214 . S
O106 Cd102 2.352 1_556 S
O106 C109 1.258 . S
C107 O104 1.320 . S
C107 O105 1.214 . S
O108 Cd100 2.277 . S
O108 C103 1.209 . S
C109 O106 1.258 . S
C109 O111 1.282 . S
O110 Cd102 2.277 . S
O110 C103 1.226 . S
O111 Cd102 2.356 1_556 S
O111 C109 1.282 . S
C112 O113 1.306 . S
C112 O115 1.160 . S
O113 C112 1.306 . S
O113 Cd114 2.228 . S
Cd114 O113 2.228 . S
Cd114 O118 2.273 . S
Cd114 O122 2.277 . S
O115 C112 1.160 . S
O115 Cd116 2.203 . S
Cd116 O115 2.203 . S
Cd116 O118 2.411 . S
Cd116 O119 2.333 . S
Cd116 O120 2.352 . S
Cd116 O124 2.277 . S
Cd116 O125 2.356 . S
C117 O122 1.209 . S
C117 O124 1.226 . S
O118 Cd114 2.273 . S
O118 Cd116 2.411 . S
O118 C121 1.320 . S
O119 Cd116 2.333 . S
O119 C121 1.214 . S
O120 Cd116 2.352 . S
O120 C123 1.258 . S
C121 O118 1.320 . S
C121 O119 1.214 . S
O122 Cd114 2.277 . S
O122 C117 1.209 . S
C123 O120 1.258 . S
C123 O125 1.282 . S
O124 Cd116 2.277 . S
O124 C117 1.226 . S
O125 Cd116 2.356 . S
O125 C123 1.282 . S
C126 O127 1.306 . S
C126 O129 1.160 . S
O127 C126 1.306 . S
O127 Cd128 2.228 . S
Cd128 O127 2.228 . S
Cd128 O132 2.273 . S
Cd128 O136 2.277 . S
O129 C126 1.160 . S
O129 Cd130 2.203 . S
Cd130 O129 2.203 . S
Cd130 O132 2.411 . S
Cd130 O133 2.333 . S
Cd130 O134 2.352 . S
Cd130 O138 2.277 . S
Cd130 O139 2.356 . S
C131 O136 1.209 . S
C131 O138 1.226 . S
O132 Cd128 2.273 . S
O132 Cd130 2.411 . S
O132 C135 1.320 . S
O133 Cd130 2.333 . S
O133 C135 1.214 . S
O134 Cd130 2.352 . S
O134 C137 1.258 . S
C135 O132 1.320 . S
C135 O133 1.214 . S
O136 Cd128 2.277 . S
O136 C131 1.209 . S
C137 O134 1.258 . S
C137 O139 1.282 . S
O138 Cd130 2.277 . S
O138 C131 1.226 . S
O139 Cd130 2.356 . S
O139 C137 1.282 . S
C140 O141 1.306 . S
C140 O143 1.160 . S
O141 C140 1.306 . S
O141 Cd142 2.228 . S
Cd142 O141 2.228 . S
Cd142 O146 2.273 . S
Cd142 O150 2.277 . S
O143 C140 1.160 . S
O143 Cd144 2.203 . S
Cd144 O143 2.203 . S
Cd144 O146 2.411 . S
Cd144 O147 2.333 . S
Cd144 O148 2.352 . S
Cd144 O152 2.277 . S
Cd144 O153 2.356 . S
C145 O150 1.209 . S
C145 O152 1.226 . S
O146 Cd142 2.273 . S
O146 Cd144 2.411 . S
O146 C149 1.320 . S
O147 Cd144 2.333 . S
O147 C149 1.214 . S
O148 Cd144 2.352 . S
O148 C151 1.258 . S
C149 O146 1.320 . S
C149 O147 1.214 . S
O150 Cd142 2.277 . S
O150 C145 1.209 . S
C151 O148 1.258 . S
C151 O153 1.282 . S
O152 Cd144 2.277 . S
O152 C145 1.226 . S
O153 Cd144 2.356 . S
O153 C151 1.282 . S
C154 O155 1.306 . S
C154 O157 1.160 . S
O155 C154 1.306 . S
O155 Cd156 2.228 . S
Cd156 O155 2.228 . S
Cd156 O160 2.273 . S
Cd156 O164 2.277 . S
O157 C154 1.160 . S
O157 Cd158 2.203 . S
Cd158 O157 2.203 . S
Cd158 O160 2.411 . S
Cd158 O161 2.333 . S
Cd158 O162 2.352 . S
Cd158 O166 2.277 . S
Cd158 O167 2.356 . S
C159 O164 1.209 . S
C159 O166 1.226 . S
O160 Cd156 2.273 . S
O160 Cd158 2.411 . S
O160 C163 1.320 . S
O161 Cd158 2.333 . S
O161 C163 1.214 . S
O162 Cd158 2.352 . S
O162 C165 1.258 . S
C163 O160 1.320 . S
C163 O161 1.214 . S
O164 Cd156 2.277 . S
O164 C159 1.209 . S
C165 O162 1.258 . S
C165 O167 1.282 . S
O166 Cd158 2.277 . S
O166 C159 1.226 . S
O167 Cd158 2.356 . S
O167 C165 1.282 . S
C168 O169 1.306 . S
C168 O171 1.160 . S
O169 C168 1.306 . S
O169 Cd170 2.228 1_655 S
Cd170 O169 2.228 1_455 S
Cd170 O174 2.273 . S
Cd170 O178 2.277 . S
O171 C168 1.160 . S
O171 Cd172 2.203 1_655 S
Cd172 O171 2.203 1_455 S
Cd172 O174 2.411 . S
Cd172 O175 2.333 . S
Cd172 O176 2.350 1_455 S
Cd172 O180 2.277 1_455 S
Cd172 O181 2.356 . S
C173 O178 1.215 . S
C173 O180 1.224 1_455 S
O174 Cd170 2.273 . S
O174 Cd172 2.411 . S
O174 C177 1.320 . S
O175 Cd172 2.333 . S
O175 C177 1.214 . S
O176 Cd172 2.350 1_655 S
O176 C179 1.255 1_655 S
C177 O174 1.320 . S
C177 O175 1.214 . S
O178 Cd170 2.277 . S
O178 C173 1.215 . S
C179 O176 1.255 1_455 S
C179 O181 1.282 . S
O180 Cd172 2.277 1_655 S
O180 C173 1.224 1_655 S
O181 Cd172 2.356 . S
O181 C179 1.282 . S
C182 O183 1.306 1_655 S
C182 O185 1.160 . S
O183 C182 1.306 1_455 S
O183 Cd184 2.228 . S
Cd184 O183 2.228 . S
Cd184 O188 2.273 . S
Cd184 O192 2.277 . S
O185 C182 1.160 . S
O185 Cd186 2.203 1_655 S
Cd186 O185 2.203 1_455 S
Cd186 O188 2.411 . S
Cd186 O189 2.333 . S
Cd186 O190 2.352 . S
Cd186 O194 2.277 . S
Cd186 O195 2.356 . S
C187 O192 1.209 . S
C187 O194 1.226 . S
O188 Cd184 2.273 . S
O188 Cd186 2.411 . S
O188 C191 1.320 . S
O189 Cd186 2.333 . S
O189 C191 1.214 . S
O190 Cd186 2.352 . S
O190 C193 1.258 . S
C191 O188 1.320 . S
C191 O189 1.214 . S
O192 Cd184 2.277 . S
O192 C187 1.209 . S
C193 O190 1.258 . S
C193 O195 1.282 . S
O194 Cd186 2.277 . S
O194 C187 1.226 . S
O195 Cd186 2.356 . S
O195 C193 1.282 . S
C196 O197 1.306 . S
C196 O199 1.160 . S
O197 C196 1.306 . S
O197 Cd198 2.228 . S
Cd198 O197 2.228 . S
Cd198 O202 2.273 . S
Cd198 O206 2.277 . S
O199 C196 1.160 . S
O199 Cd200 2.203 . S
Cd200 O199 2.203 . S
Cd200 O202 2.411 . S
Cd200 O203 2.333 . S
Cd200 O204 2.352 . S
Cd200 O208 2.277 . S
Cd200 O209 2.356 . S
C201 O206 1.209 . S
C201 O208 1.226 . S
O202 Cd198 2.273 . S
O202 Cd200 2.411 . S
O202 C205 1.320 . S
O203 Cd200 2.333 . S
O203 C205 1.214 . S
O204 Cd200 2.352 . S
O204 C207 1.258 . S
C205 O202 1.320 . S
C205 O203 1.214 . S
O206 Cd198 2.277 . S
O206 C201 1.209 . S
C207 O204 1.258 . S
C207 O209 1.282 . S
O208 Cd200 2.277 . S
O208 C201 1.226 . S
O209 Cd200 2.356 . S
O209 C207 1.282 . S
C210 O211 1.306 . S
C210 O213 1.160 . S
O211 C210 1.306 . S
O211 Cd212 2.228 . S
Cd212 O211 2.228 . S
Cd212 O216 2.273 . S
Cd212 O220 2.277 . S
O213 C210 1.160 . S
O213 Cd214 2.203 . S
Cd214 O213 2.203 . S
Cd214 O216 2.411 . S
Cd214 O217 2.333 . S
Cd214 O218 2.352 . S
Cd214 O222 2.277 . S
Cd214 O223 2.356 . S
C215 O220 1.209 . S
C215 O222 1.226 . S
O216 Cd212 2.273 . S
O216 Cd214 2.411 . S
O216 C219 1.320 . S
O217 Cd214 2.333 . S
O217 C219 1.214 . S
O218 Cd214 2.352 . S
O218 C221 1.258 . S
C219 O216 1.320 . S
C219 O217 1.214 . S
O220 Cd212 2.277 . S
O220 C215 1.209 . S
C221 O218 1.258 . S
C221 O223 1.282 . S
O222 Cd214 2.277 . S
O222 C215 1.226 . S
O223 Cd214 2.356 . S
O223 C221 1.282 . S
C224 O225 1.306 1_545 S
C224 O227 1.160 . S
O225 C224 1.306 1_565 S
O225 Cd226 2.228 . S
Cd226 O225 2.228 . S
Cd226 O230 2.273 1_565 S
Cd226 O234 2.277 . S
O227 C224 1.160 . S
O227 Cd228 2.203 . S
Cd228 O227 2.203 . S
Cd228 O230 2.411 . S
Cd228 O231 2.333 . S
Cd228 O232 2.352 . S
Cd228 O236 2.277 1_545 S
Cd228 O237 2.356 . S
C229 O234 1.209 . S
C229 O236 1.226 . S
O230 Cd226 2.273 1_545 S
O230 Cd228 2.411 . S
O230 C233 1.320 . S
O231 Cd228 2.333 . S
O231 C233 1.214 . S
O232 Cd228 2.352 . S
O232 C235 1.258 . S
C233 O230 1.320 . S
C233 O231 1.214 . S
O234 Cd226 2.277 . S
O234 C229 1.209 . S
C235 O232 1.258 . S
C235 O237 1.282 . S
O236 Cd228 2.277 1_565 S
O236 C229 1.226 . S
O237 Cd228 2.356 . S
O237 C235 1.282 . S
C238 O239 1.306 . S
C238 O241 1.160 . S
O239 C238 1.306 . S
O239 Cd240 2.228 . S
Cd240 O239 2.228 . S
Cd240 O244 2.273 . S
Cd240 O248 2.277 . S
O241 C238 1.160 . S
O241 Cd242 2.203 . S
Cd242 O241 2.203 . S
Cd242 O244 2.411 . S
Cd242 O245 2.333 . S
Cd242 O246 2.352 . S
Cd242 O250 2.277 . S
Cd242 O251 2.356 . S
C243 O248 1.209 . S
C243 O250 1.226 . S
O244 Cd240 2.273 . S
O244 Cd242 2.411 . S
O244 C247 1.320 . S
O245 Cd242 2.333 . S
O245 C247 1.214 . S
O246 Cd242 2.352 . S
O246 C249 1.258 . S
C247 O244 1.320 . S
C247 O245 1.214 . S
O248 Cd240 2.277 . S
O248 C243 1.209 . S
C249 O246 1.258 . S
C249 O251 1.282 . S
O250 Cd242 2.277 . S
O250 C243 1.226 . S
O251 Cd242 2.356 . S
O251 C249 1.282 . S
C252 O253 1.306 . S
C252 O255 1.160 . S
O253 C252 1.306 . S
O253 Cd254 2.228 . S
Cd254 O253 2.228 . S
Cd254 O258 2.273 . S
Cd254 O262 2.277 . S
O255 C252 1.160 . S
O255 Cd256 2.203 . S
Cd256 O255 2.203 . S
Cd256 O258 2.411 . S
Cd256 O259 2.333 . S
Cd256 O260 2.352 1_545 S
Cd256 O264 2.277 . S
Cd256 O265 2.356 1_545 S
C257 O262 1.209 . S
C257 O264 1.226 . S
O258 Cd254 2.273 . S
O258 Cd256 2.411 . S
O258 C261 1.320 . S
O259 Cd256 2.333 . S
O259 C261 1.214 . S
O260 Cd256 2.352 1_565 S
O260 C263 1.258 . S
C261 O258 1.320 . S
C261 O259 1.214 . S
O262 Cd254 2.277 . S
O262 C257 1.209 . S
C263 O260 1.258 . S
C263 O265 1.282 . S
O264 Cd256 2.277 . S
O264 C257 1.226 . S
O265 Cd256 2.356 1_565 S
O265 C263 1.282 . S
C266 O267 1.306 . S
C266 O269 1.160 . S
O267 C266 1.306 . S
O267 Cd268 2.228 1_554 S
Cd268 O267 2.228 1_556 S
Cd268 O272 2.273 1_556 S
Cd268 O276 2.277 . S
O269 C266 1.160 . S
O269 Cd270 2.203 . S
Cd270 O269 2.203 . S
Cd270 O272 2.411 . S
Cd270 O273 2.333 . S
Cd270 O274 2.352 . S
Cd270 O278 2.248 1_554 S
Cd270 O279 2.356 . S
C271 O276 1.209 . S
C271 O278 1.256 . S
O272 Cd268 2.273 1_554 S
O272 Cd270 2.411 . S
O272 C275 1.320 . S
O273 Cd270 2.333 . S
O273 C275 1.214 . S
O274 Cd270 2.352 . S
O274 C277 1.258 . S
C275 O272 1.320 . S
C275 O273 1.214 . S
O276 Cd268 2.277 . S
O276 C271 1.209 . S
C277 O274 1.258 . S
C277 O279 1.282 . S
O278 Cd270 2.248 1_556 S
O278 C271 1.256 . S
O279 Cd270 2.356 . S
O279 C277 1.282 . S
C280 O281 1.306 . S
C280 O283 1.160 1_554 S
O281 C280 1.306 . S
O281 Cd282 2.228 . S
Cd282 O281 2.228 . S
Cd282 O286 2.273 . S
Cd282 O290 2.277 . S
O283 C280 1.160 1_556 S
O283 Cd284 2.203 . S
Cd284 O283 2.203 . S
Cd284 O286 2.411 1_556 S
Cd284 O287 2.333 . S
Cd284 O288 2.352 . S
Cd284 O292 2.277 1_556 S
Cd284 O293 2.356 . S
C285 O290 1.209 . S
C285 O292 1.226 . S
O286 Cd282 2.273 . S
O286 Cd284 2.411 1_554 S
O286 C289 1.320 1_554 S
O287 Cd284 2.333 . S
O287 C289 1.214 . S
O288 Cd284 2.352 . S
O288 C291 1.258 . S
C289 O286 1.320 1_556 S
C289 O287 1.214 . S
O290 Cd282 2.277 . S
O290 C285 1.209 . S
C291 O288 1.258 . S
C291 O293 1.282 . S
O292 Cd284 2.277 1_554 S
O292 C285 1.226 . S
O293 Cd284 2.356 . S
O293 C291 1.282 . S
C294 O295 1.306 . S
C294 O297 1.160 . S
O295 C294 1.306 . S
O295 Cd296 2.228 . S
Cd296 O295 2.228 . S
Cd296 O300 2.273 . S
Cd296 O304 2.277 . S
O297 C294 1.160 . S
O297 Cd298 2.203 . S
Cd298 O297 2.203 . S
Cd298 O300 2.411 . S
Cd298 O301 2.333 . S
Cd298 O302 2.352 . S
Cd298 O306 2.277 . S
Cd298 O307 2.356 . S
C299 O304 1.209 . S
C299 O306 1.226 . S
O300 Cd296 2.273 . S
O300 Cd298 2.411 . S
O300 C303 1.320 . S
O301 Cd298 2.333 . S
O301 C303 1.214 . S
O302 Cd298 2.352 . S
O302 C305 1.258 . S
C303 O300 1.320 . S
C303 O301 1.214 . S
O304 Cd296 2.277 . S
O304 C299 1.209 . S
C305 O302 1.258 . S
C305 O307 1.282 . S
O306 Cd298 2.277 . S
O306 C299 1.226 . S
O307 Cd298 2.356 . S
O307 C305 1.282 . S
C308 O309 1.306 . S
C308 O311 1.160 . S
O309 C308 1.306 . S
O309 Cd310 2.228 . S
Cd310 O309 2.228 . S
Cd310 O314 2.273 . S
Cd310 O318 2.277 . S
O311 C308 1.160 . S
O311 Cd312 2.203 . S
Cd312 O311 2.203 . S
Cd312 O314 2.411 . S
Cd312 O315 2.333 . S
Cd312 O316 2.352 . S
Cd312 O320 2.277 . S
Cd312 O321 2.356 . S
C313 O318 1.209 . S
C313 O320 1.226 . S
O314 Cd310 2.273 . S
O314 Cd312 2.411 . S
O314 C317 1.320 . S
O315 Cd312 2.333 . S
O315 C317 1.214 . S
O316 Cd312 2.352 . S
O316 C319 1.258 . S
C317 O314 1.320 . S
C317 O315 1.214 . S
O318 Cd310 2.277 . S
O318 C313 1.209 . S
C319 O316 1.258 . S
C319 O321 1.282 . S
O320 Cd312 2.277 . S
O320 C313 1.226 . S
O321 Cd312 2.356 . S
O321 C319 1.282 . S
C322 O323 1.306 . S
C322 O325 1.160 . S
O323 C322 1.306 . S
O323 Cd324 2.228 . S
Cd324 O323 2.228 . S
Cd324 O328 2.273 . S
Cd324 O332 2.277 . S
O325 C322 1.160 . S
O325 Cd326 2.203 . S
Cd326 O325 2.203 . S
Cd326 O328 2.411 . S
Cd326 O329 2.333 . S
Cd326 O330 2.352 . S
Cd326 O334 2.277 . S
Cd326 O335 2.356 . S
C327 O332 1.209 . S
C327 O334 1.226 . S
O328 Cd324 2.273 . S
O328 Cd326 2.411 . S
O328 C331 1.320 . S
O329 Cd326 2.333 . S
O329 C331 1.214 . S
O330 Cd326 2.352 . S
O330 C333 1.258 . S
C331 O328 1.320 . S
C331 O329 1.214 . S
O332 Cd324 2.277 . S
O332 C327 1.209 . S
C333 O330 1.258 . S
C333 O335 1.282 . S
O334 Cd326 2.277 . S
O334 C327 1.226 . S
O335 Cd326 2.356 . S
O335 C333 1.282 . S
C336 O352 1.270 1_556 S
C336 O354 1.254 . S
N337 C338 1.333 1_565 S
N337 C342 1.307 . S
N337 Zn343 2.020 1_665 S
C338 N337 1.333 1_545 S
C338 C339 1.384 . S
C338 H356 0.952 . S
C339 C338 1.384 . S
C339 C340 1.373 1_545 S
C339 H366 0.962 . S
C340 C339 1.373 1_565 S
C340 C341 1.357 . S
C341 C340 1.357 . S
C341 C342 1.370 . S
C341 H367 0.950 . S
C342 N337 1.307 . S
C342 C341 1.370 . S
C342 H360 0.948 . S
Zn343 N337 2.020 1_445 S
Zn343 O352 2.041 . S
Zn343 O358 2.034 . S
Zn343 O362 2.025 1_545 S
Zn343 O364 2.024 1_545 S
C344 O363 1.246 . S
C344 O364 1.249 . S
N345 C346 1.307 1_554 S
N345 C347 1.333 . S
N345 Zn351 2.020 . S
C346 N345 1.307 1_556 S
C346 C350 1.370 . S
C346 H357 0.948 . S
C347 N345 1.333 . S
C347 C348 1.379 . S
C347 H355 0.952 . S
C348 C347 1.379 . S
C348 C349 1.426 . S
C348 H368 0.949 . S
C349 C348 1.426 . S
C349 C350 1.338 1_554 S
C350 C346 1.370 . S
C350 C349 1.338 1_556 S
C350 H369 0.950 . S
Zn351 N345 2.020 . S
Zn351 O354 2.025 1_554 S
Zn351 O359 2.024 . S
Zn351 O361 2.039 . S
Zn351 O363 2.034 1_545 S
O352 C336 1.270 1_554 S
O352 Zn343 2.041 . S
C353 O358 1.246 . S
C353 O359 1.249 . S
O354 C336 1.254 . S
O354 Zn351 2.025 1_556 S
H355 C347 0.952 . S
H356 C338 0.952 . S
H357 C346 0.948 . S
O358 Zn343 2.034 . S
O358 C353 1.246 . S
O359 Zn351 2.024 . S
O359 C353 1.249 . S
H360 C342 0.948 . S
O361 Zn351 2.039 . S
O361 C365 1.237 1_545 S
O362 Zn343 2.025 1_565 S
O362 C365 1.261 . S
O363 C344 1.246 . S
O363 Zn351 2.034 1_565 S
O364 Zn343 2.024 1_565 S
O364 C344 1.249 . S
C365 O361 1.237 1_565 S
C365 O362 1.261 . S
H366 C339 0.962 . S
H367 C341 0.950 . S
H368 C348 0.949 . S
H369 C350 0.950 . S
C370 O386 1.251 . S
C370 O388 1.254 . S
N371 C372 1.333 . S
N371 C376 1.307 . S
N371 Zn377 2.020 . S
C372 N371 1.333 . S
C372 C373 1.379 . S
C372 H390 0.952 . S
C373 C372 1.379 . S
C373 C374 1.390 . S
C373 H400 0.949 . S
C374 C373 1.390 . S
C374 C375 1.357 . S
C375 C374 1.357 . S
C375 C376 1.370 . S
C375 H401 0.950 . S
C376 N371 1.307 . S
C376 C375 1.370 . S
C376 H394 0.948 . S
Zn377 N371 2.020 . S
Zn377 O386 2.039 . S
Zn377 O392 2.034 . S
Zn377 O396 2.025 . S
Zn377 O398 2.024 . S
C378 O397 1.246 . S
C378 O398 1.249 . S
N379 C380 1.307 . S
N379 C381 1.333 . S
N379 Zn385 2.020 . S
C380 N379 1.307 . S
C380 C384 1.370 . S
C380 H391 0.948 . S
C381 N379 1.333 . S
C381 C382 1.379 . S
C381 H389 0.952 . S
C382 C381 1.379 . S
C382 C383 1.390 . S
C382 H402 0.949 . S
C383 C382 1.390 . S
C383 C384 1.357 . S
C384 C380 1.370 . S
C384 C383 1.357 . S
C384 H403 0.950 . S
Zn385 N379 2.020 . S
Zn385 O388 2.025 . S
Zn385 O393 2.024 . S
Zn385 O395 2.039 . S
Zn385 O397 2.034 . S
O386 C370 1.251 . S
O386 Zn377 2.039 . S
C387 O392 1.246 . S
C387 O393 1.249 . S
O388 C370 1.254 . S
O388 Zn385 2.025 . S
H389 C381 0.952 . S
H390 C372 0.952 . S
H391 C380 0.948 . S
O392 Zn377 2.034 . S
O392 C387 1.246 . S
O393 Zn385 2.024 . S
O393 C387 1.249 . S
H394 C376 0.948 . S
O395 Zn385 2.039 . S
O395 C399 1.251 . S
O396 Zn377 2.025 . S
O396 C399 1.254 . S
O397 C378 1.246 . S
O397 Zn385 2.034 . S
O398 Zn377 2.024 . S
O398 C378 1.249 . S
C399 O395 1.251 . S
C399 O396 1.254 . S
H400 C373 0.949 . S
H401 C375 0.950 . S
H402 C382 0.949 . S
H403 C384 0.950 . S
C404 O420 1.251 . S
C404 O422 1.254 . S
N405 C406 1.333 . S
N405 C410 1.307 . S
N405 Zn411 2.020 . S
C406 N405 1.333 . S
C406 C407 1.379 . S
C406 H424 0.952 . S
C407 C406 1.379 . S
C407 C408 1.390 . S
C407 H434 0.949 . S
C408 C407 1.390 . S
C408 C409 1.357 . S
C409 C408 1.357 . S
C409 C410 1.370 . S
C409 H435 0.950 . S
C410 N405 1.307 . S
C410 C409 1.370 . S
C410 H428 0.948 . S
Zn411 N405 2.020 . S
Zn411 O420 2.039 1_565 S
Zn411 O426 2.034 1_565 S
Zn411 O430 2.025 . S
Zn411 O432 2.024 . S
C412 O431 1.246 1_565 S
C412 O432 1.249 . S
N413 C414 1.307 . S
N413 C415 1.333 . S
N413 Zn419 2.020 . S
C414 N413 1.307 . S
C414 C418 1.370 . S
C414 H425 0.948 . S
C415 N413 1.333 . S
C415 C416 1.379 . S
C415 H423 0.952 . S
C416 C415 1.379 . S
C416 C417 1.390 . S
C416 H436 0.949 . S
C417 C416 1.390 . S
C417 C418 1.357 . S
C418 C414 1.370 . S
C418 C417 1.357 . S
C418 H437 0.950 . S
Zn419 N413 2.020 . S
Zn419 O422 2.025 . S
Zn419 O427 2.024 . S
Zn419 O429 2.039 . S
Zn419 O431 2.034 . S
O420 C404 1.251 . S
O420 Zn411 2.039 1_545 S
C421 O426 1.246 . S
C421 O427 1.249 . S
O422 C404 1.254 . S
O422 Zn419 2.025 . S
H423 C415 0.952 . S
H424 C406 0.952 . S
H425 C414 0.948 . S
O426 Zn411 2.034 1_545 S
O426 C421 1.246 . S
O427 Zn419 2.024 . S
O427 C421 1.249 . S
H428 C410 0.948 . S
O429 Zn419 2.039 . S
O429 C433 1.251 . S
O430 Zn411 2.025 . S
O430 C433 1.254 1_565 S
O431 C412 1.246 1_545 S
O431 Zn419 2.034 . S
O432 Zn411 2.024 . S
O432 C412 1.249 . S
C433 O429 1.251 . S
C433 O430 1.254 1_545 S
H434 C407 0.949 . S
H435 C409 0.950 . S
H436 C416 0.949 . S
H437 C418 0.950 . S
C438 O454 1.251 . S
C438 O456 1.254 . S
N439 C440 1.333 . S
N439 C444 1.307 . S
N439 Zn445 2.020 . S
C440 N439 1.333 . S
C440 C441 1.379 . S
C440 H458 0.952 . S
C441 C440 1.379 . S
C441 C442 1.390 . S
C441 H468 0.949 . S
C442 C441 1.390 . S
C442 C443 1.357 . S
C443 C442 1.357 . S
C443 C444 1.370 . S
C443 H469 0.950 . S
C444 N439 1.307 . S
C444 C443 1.370 . S
C444 H462 0.948 . S
Zn445 N439 2.020 . S
Zn445 O454 2.039 . S
Zn445 O460 2.034 . S
Zn445 O464 2.025 . S
Zn445 O466 2.024 . S
C446 O465 1.246 . S
C446 O466 1.249 . S
N447 C448 1.307 . S
N447 C449 1.333 . S
N447 Zn453 2.020 . S
C448 N447 1.307 . S
C448 C452 1.370 . S
C448 H459 0.948 . S
C449 N447 1.333 . S
C449 C450 1.379 . S
C449 H457 0.952 . S
C450 C449 1.379 . S
C450 C451 1.390 . S
C450 H470 0.949 . S
C451 C450 1.390 . S
C451 C452 1.357 . S
C452 C448 1.370 . S
C452 C451 1.357 . S
C452 H471 0.950 . S
Zn453 N447 2.020 . S
Zn453 O456 2.025 . S
Zn453 O461 2.024 . S
Zn453 O463 2.039 . S
Zn453 O465 2.034 . S
O454 C438 1.251 . S
O454 Zn445 2.039 . S
C455 O460 1.246 . S
C455 O461 1.249 . S
O456 C438 1.254 . S
O456 Zn453 2.025 . S
H457 C449 0.952 . S
H458 C440 0.952 . S
H459 C448 0.948 . S
O460 Zn445 2.034 . S
O460 C455 1.246 . S
O461 Zn453 2.024 . S
O461 C455 1.249 . S
H462 C444 0.948 . S
O463 Zn453 2.039 . S
O463 C467 1.251 . S
O464 Zn445 2.025 . S
O464 C467 1.254 . S
O465 C446 1.246 . S
O465 Zn453 2.034 . S
O466 Zn445 2.024 . S
O466 C446 1.249 . S
C467 O463 1.251 . S
C467 O464 1.254 . S
H468 C441 0.949 . S
H469 C443 0.950 . S
H470 C450 0.949 . S
H471 C452 0.950 . S
C472 O488 1.251 1_565 S
C472 O490 1.254 . S
N473 C474 1.333 . S
N473 C478 1.307 . S
N473 Zn479 2.020 . S
C474 N473 1.333 . S
C474 C475 1.379 . S
C474 H492 0.952 . S
C475 C474 1.379 . S
C475 C476 1.390 . S
C475 H502 0.949 . S
C476 C475 1.390 . S
C476 C477 1.357 . S
C477 C476 1.357 . S
C477 C478 1.370 . S
C477 H503 0.950 . S
C478 N473 1.307 . S
C478 C477 1.370 . S
C478 H496 0.948 . S
Zn479 N473 2.020 . S
Zn479 O488 2.039 . S
Zn479 O494 2.034 . S
Zn479 O498 2.025 . S
Zn479 O500 2.024 1_545 S
C480 O499 1.246 . S
C480 O500 1.249 . S
N481 C482 1.307 . S
N481 C483 1.333 1_455 S
N481 Zn487 2.020 1_565 S
C482 N481 1.307 . S
C482 C486 1.370 . S
C482 H493 0.947 1_565 S
C483 N481 1.333 1_655 S
C483 C484 1.379 . S
C483 H491 0.952 . S
C484 C483 1.379 . S
C484 C485 1.390 . S
C484 H504 0.949 . S
C485 C484 1.390 . S
C485 C486 1.357 1_655 S
C486 C482 1.370 . S
C486 C485 1.357 1_455 S
C486 H505 0.950 . S
Zn487 N481 2.020 1_545 S
Zn487 O490 2.025 1_545 S
Zn487 O495 2.024 . S
Zn487 O497 2.039 1_455 S
Zn487 O499 2.034 1_545 S
O488 C472 1.251 1_545 S
O488 Zn479 2.039 . S
C489 O494 1.246 . S
C489 O495 1.249 . S
O490 C472 1.254 . S
O490 Zn487 2.025 1_565 S
H491 C483 0.952 . S
H492 C474 0.952 . S
H493 C482 0.947 1_545 S
O494 Zn479 2.034 . S
O494 C489 1.246 . S
O495 Zn487 2.024 . S
O495 C489 1.249 . S
H496 C478 0.948 . S
O497 Zn487 2.039 1_655 S
O497 C501 1.251 . S
O498 Zn479 2.025 . S
O498 C501 1.254 1_455 S
O499 C480 1.246 . S
O499 Zn487 2.034 1_565 S
O500 Zn479 2.024 1_565 S
O500 C480 1.249 . S
C501 O497 1.251 . S
C501 O498 1.254 1_655 S
H502 C475 0.949 . S
H503 C477 0.950 . S
H504 C484 0.949 . S
H505 C486 0.950 . S
C506 O522 1.251 . S
C506 O524 1.254 . S
N507 C508 1.333 . S
N507 C512 1.307 . S
N507 Zn513 2.020 . S
C508 N507 1.333 . S
C508 C509 1.379 . S
C508 H526 0.952 . S
C509 C508 1.379 . S
C509 C510 1.390 . S
C509 H536 0.949 . S
C510 C509 1.390 . S
C510 C511 1.357 . S
C511 C510 1.357 . S
C511 C512 1.370 . S
C511 H537 0.950 . S
C512 N507 1.307 . S
C512 C511 1.370 . S
C512 H530 0.948 . S
Zn513 N507 2.020 . S
Zn513 O522 2.039 . S
Zn513 O528 2.034 . S
Zn513 O532 2.025 . S
Zn513 O534 2.024 . S
C514 O533 1.246 . S
C514 O534 1.249 . S
N515 C516 1.307 . S
N515 C517 1.333 . S
N515 Zn521 2.020 . S
C516 N515 1.307 . S
C516 C520 1.370 . S
C516 H527 0.948 . S
C517 N515 1.333 . S
C517 C518 1.379 . S
C517 H525 0.952 . S
C518 C517 1.379 . S
C518 C519 1.390 . S
C518 H538 0.949 . S
C519 C518 1.390 . S
C519 C520 1.357 . S
C520 C516 1.370 . S
C520 C519 1.357 . S
C520 H539 0.950 . S
Zn521 N515 2.020 . S
Zn521 O524 2.025 . S
Zn521 O529 2.024 . S
Zn521 O531 2.039 . S
Zn521 O533 2.034 . S
O522 C506 1.251 . S
O522 Zn513 2.039 . S
C523 O528 1.246 . S
C523 O529 1.249 . S
O524 C506 1.254 . S
O524 Zn521 2.025 . S
H525 C517 0.952 . S
H526 C508 0.952 . S
H527 C516 0.948 . S
O528 Zn513 2.034 . S
O528 C523 1.246 . S
O529 Zn521 2.024 . S
O529 C523 1.249 . S
H530 C512 0.948 . S
O531 Zn521 2.039 . S
O531 C535 1.251 . S
O532 Zn513 2.025 . S
O532 C535 1.254 . S
O533 C514 1.246 . S
O533 Zn521 2.034 . S
O534 Zn513 2.024 . S
O534 C514 1.249 . S
C535 O531 1.251 . S
C535 O532 1.254 . S
H536 C509 0.949 . S
H537 C511 0.950 . S
H538 C518 0.949 . S
H539 C520 0.950 . S
C540 O556 1.251 . S
C540 O558 1.254 . S
N541 C542 1.333 . S
N541 C546 1.307 . S
N541 Zn547 2.020 . S
C542 N541 1.333 . S
C542 C543 1.379 . S
C542 H560 0.952 . S
C543 C542 1.379 . S
C543 C544 1.390 . S
C543 H570 0.949 . S
C544 C543 1.390 . S
C544 C545 1.357 . S
C545 C544 1.357 . S
C545 C546 1.370 . S
C545 H571 0.950 . S
C546 N541 1.307 . S
C546 C545 1.370 . S
C546 H564 0.948 . S
Zn547 N541 2.020 . S
Zn547 O556 2.039 1_545 S
Zn547 O562 2.034 . S
Zn547 O566 2.025 . S
Zn547 O568 2.024 . S
C548 O567 1.246 . S
C548 O568 1.249 1_565 S
N549 C550 1.307 . S
N549 C551 1.333 1_565 S
N549 Zn555 2.020 1_566 S
C550 N549 1.307 . S
C550 C554 1.370 . S
C550 H561 0.948 . S
C551 N549 1.333 1_545 S
C551 C552 1.374 1_545 S
C551 H559 0.952 . S
C552 C551 1.374 1_565 S
C552 C553 1.414 . S
C552 H572 0.932 1_565 S
C553 C552 1.414 . S
C553 C554 1.357 . S
C554 C550 1.370 . S
C554 C553 1.357 . S
C554 H573 0.950 . S
Zn555 N549 2.020 1_544 S
Zn555 O558 2.025 1_545 S
Zn555 O563 2.024 . S
Zn555 O565 2.039 1_554 S
Zn555 O567 2.034 1_545 S
O556 C540 1.251 . S
O556 Zn547 2.039 1_565 S
C557 O562 1.246 . S
C557 O563 1.249 . S
O558 C540 1.254 . S
O558 Zn555 2.025 1_565 S
H559 C551 0.952 . S
H560 C542 0.952 . S
H561 C550 0.948 . S
O562 Zn547 2.034 . S
O562 C557 1.246 . S
O563 Zn555 2.024 . S
O563 C557 1.249 . S
H564 C546 0.948 . S
O565 Zn555 2.039 1_556 S
O565 C569 1.251 1_556 S
O566 Zn547 2.025 . S
O566 C569 1.254 . S
O567 C548 1.246 . S
O567 Zn555 2.034 1_565 S
O568 Zn547 2.024 . S
O568 C548 1.249 1_545 S
C569 O565 1.251 1_554 S
C569 O566 1.254 . S
H570 C543 0.949 . S
H571 C545 0.950 . S
H572 C552 0.932 1_545 S
H573 C554 0.950 . S
C574 O590 1.251 . S
C574 O592 1.254 . S
N575 C576 1.333 . S
N575 C580 1.307 . S
N575 Zn581 2.020 . S
C576 N575 1.333 . S
C576 C577 1.379 . S
C576 H594 0.952 . S
C577 C576 1.379 . S
C577 C578 1.390 . S
C577 H604 0.949 . S
C578 C577 1.390 . S
C578 C579 1.357 . S
C579 C578 1.357 . S
C579 C580 1.370 . S
C579 H605 0.950 . S
C580 N575 1.307 . S
C580 C579 1.370 . S
C580 H598 0.948 . S
Zn581 N575 2.020 . S
Zn581 O590 2.039 . S
Zn581 O596 2.034 . S
Zn581 O600 2.025 . S
Zn581 O602 2.024 . S
C582 O601 1.246 . S
C582 O602 1.249 . S
N583 C584 1.307 . S
N583 C585 1.333 . S
N583 Zn589 2.020 . S
C584 N583 1.307 . S
C584 C588 1.370 . S
C584 H595 0.948 . S
C585 N583 1.333 . S
C585 C586 1.379 . S
C585 H593 0.952 . S
C586 C585 1.379 . S
C586 C587 1.390 . S
C586 H606 0.949 . S
C587 C586 1.390 . S
C587 C588 1.357 . S
C588 C584 1.370 . S
C588 C587 1.357 . S
C588 H607 0.950 . S
Zn589 N583 2.020 . S
Zn589 O592 2.025 . S
Zn589 O597 2.024 . S
Zn589 O599 2.039 . S
Zn589 O601 2.034 . S
O590 C574 1.251 . S
O590 Zn581 2.039 . S
C591 O596 1.246 . S
C591 O597 1.249 . S
O592 C574 1.254 . S
O592 Zn589 2.025 . S
H593 C585 0.952 . S
H594 C576 0.952 . S
H595 C584 0.948 . S
O596 Zn581 2.034 . S
O596 C591 1.246 . S
O597 Zn589 2.024 . S
O597 C591 1.249 . S
H598 C580 0.948 . S
O599 Zn589 2.039 . S
O599 C603 1.251 . S
O600 Zn581 2.025 . S
O600 C603 1.254 . S
O601 C582 1.246 . S
O601 Zn589 2.034 . S
O602 Zn581 2.024 . S
O602 C582 1.249 . S
C603 O599 1.251 . S
C603 O600 1.254 . S
H604 C577 0.949 . S
H605 C579 0.950 . S
H606 C586 0.949 . S
H607 C588 0.950 . S
C608 O624 1.251 . S
C608 O626 1.254 . S
N609 C610 1.333 . S
N609 C614 1.307 . S
N609 Zn615 2.020 1_556 S
C610 N609 1.333 . S
C610 C611 1.379 . S
C610 H628 0.952 . S
C611 C610 1.379 . S
C611 C612 1.390 . S
C611 H638 0.949 . S
C612 C611 1.390 . S
C612 C613 1.357 . S
C613 C612 1.357 . S
C613 C614 1.370 . S
C613 H639 0.950 . S
C614 N609 1.307 . S
C614 C613 1.370 . S
C614 H632 0.948 . S
Zn615 N609 2.020 1_554 S
Zn615 O624 2.039 . S
Zn615 O630 2.034 . S
Zn615 O634 2.025 . S
Zn615 O636 2.024 1_554 S
C616 O635 1.246 . S
C616 O636 1.249 1_554 S
N617 C618 1.307 . S
N617 C619 1.333 . S
N617 Zn623 2.020 . S
C618 N617 1.307 . S
C618 C622 1.370 . S
C618 H629 0.948 . S
C619 N617 1.333 . S
C619 C620 1.379 . S
C619 H627 0.952 . S
C620 C619 1.379 . S
C620 C621 1.390 . S
C620 H640 0.949 . S
C621 C620 1.390 . S
C621 C622 1.357 . S
C622 C618 1.370 . S
C622 C621 1.357 . S
C622 H641 0.950 . S
Zn623 N617 2.020 . S
Zn623 O626 2.025 . S
Zn623 O631 2.024 . S
Zn623 O633 2.039 . S
Zn623 O635 2.034 . S
O624 C608 1.251 . S
O624 Zn615 2.039 . S
C625 O630 1.246 . S
C625 O631 1.249 . S
O626 C608 1.254 . S
O626 Zn623 2.025 . S
H627 C619 0.952 . S
H628 C610 0.952 . S
H629 C618 0.948 . S
O630 Zn615 2.034 . S
O630 C625 1.246 . S
O631 Zn623 2.024 . S
O631 C625 1.249 . S
H632 C614 0.948 . S
O633 Zn623 2.039 . S
O633 C637 1.251 . S
O634 Zn615 2.025 . S
O634 C637 1.254 . S
O635 C616 1.246 . S
O635 Zn623 2.034 . S
O636 Zn615 2.024 1_556 S
O636 C616 1.249 1_556 S
C637 O633 1.251 . S
C637 O634 1.254 . S
H638 C611 0.949 . S
H639 C613 0.950 . S
H640 C620 0.949 . S
H641 C622 0.950 . S
C642 O658 1.251 . S
C642 O660 1.254 . S
N643 C644 1.333 . S
N643 C648 1.307 . S
N643 Zn649 2.020 . S
C644 N643 1.333 . S
C644 C645 1.379 . S
C644 H662 0.952 . S
C645 C644 1.379 . S
C645 C646 1.390 . S
C645 H672 0.949 . S
C646 C645 1.390 . S
C646 C647 1.357 . S
C647 C646 1.357 . S
C647 C648 1.370 . S
C647 H673 0.950 . S
C648 N643 1.307 . S
C648 C647 1.370 . S
C648 H666 0.948 . S
Zn649 N643 2.020 . S
Zn649 O658 2.039 . S
Zn649 O664 2.034 . S
Zn649 O668 2.025 . S
Zn649 O670 2.024 . S
C650 O669 1.246 . S
C650 O670 1.249 . S
N651 C652 1.307 . S
N651 C653 1.333 . S
N651 Zn657 2.020 . S
C652 N651 1.307 . S
C652 C656 1.370 . S
C652 H663 0.948 . S
C653 N651 1.333 . S
C653 C654 1.379 . S
C653 H661 0.952 . S
C654 C653 1.379 . S
C654 C655 1.390 . S
C654 H674 0.949 . S
C655 C654 1.390 . S
C655 C656 1.357 . S
C656 C652 1.370 . S
C656 C655 1.357 . S
C656 H675 0.950 . S
Zn657 N651 2.020 . S
Zn657 O660 2.025 . S
Zn657 O665 2.024 . S
Zn657 O667 2.039 . S
Zn657 O669 2.034 . S
O658 C642 1.251 . S
O658 Zn649 2.039 . S
C659 O664 1.246 . S
C659 O665 1.249 . S
O660 C642 1.254 . S
O660 Zn657 2.025 . S
H661 C653 0.952 . S
H662 C644 0.952 . S
H663 C652 0.948 . S
O664 Zn649 2.034 . S
O664 C659 1.246 . S
O665 Zn657 2.024 . S
O665 C659 1.249 . S
H666 C648 0.948 . S
O667 Zn657 2.039 . S
O667 C671 1.251 . S
O668 Zn649 2.025 . S
O668 C671 1.254 . S
O669 C650 1.246 . S
O669 Zn657 2.034 . S
O670 Zn649 2.024 . S
O670 C650 1.249 . S
C671 O667 1.251 . S
C671 O668 1.254 . S
H672 C645 0.949 . S
H673 C647 0.950 . S
H674 C654 0.949 . S
H675 C656 0.950 . S
C676 O692 1.251 . S
C676 O694 1.254 . S
N677 C678 1.333 . S
N677 C682 1.307 . S
N677 Zn683 2.020 . S
C678 N677 1.333 . S
C678 C679 1.379 . S
C678 H696 0.952 . S
C679 C678 1.379 . S
C679 C680 1.390 . S
C679 H706 0.949 . S
C680 C679 1.390 . S
C680 C681 1.357 . S
C681 C680 1.357 . S
C681 C682 1.370 . S
C681 H707 0.950 . S
C682 N677 1.307 . S
C682 C681 1.370 . S
C682 H700 0.948 . S
Zn683 N677 2.020 . S
Zn683 O692 2.039 . S
Zn683 O698 2.034 . S
Zn683 O702 2.025 . S
Zn683 O704 2.024 . S
C684 O703 1.246 . S
C684 O704 1.249 . S
N685 C686 1.307 1_455 S
N685 C687 1.333 . S
N685 Zn691 2.020 . S
C686 N685 1.307 1_655 S
C686 C690 1.370 . S
C686 H697 0.948 . S
C687 N685 1.333 . S
C687 C688 1.379 . S
C687 H695 0.952 . S
C688 C687 1.379 . S
C688 C689 1.390 1_455 S
C688 H708 0.949 . S
C689 C688 1.390 1_655 S
C689 C690 1.357 . S
C690 C686 1.370 . S
C690 C689 1.357 . S
C690 H709 0.950 . S
Zn691 N685 2.020 . S
Zn691 O694 2.025 . S
Zn691 O699 2.024 1_455 S
Zn691 O701 2.039 . S
Zn691 O703 2.034 . S
O692 C676 1.251 . S
O692 Zn683 2.039 . S
C693 O698 1.246 1_655 S
C693 O699 1.249 . S
O694 C676 1.254 . S
O694 Zn691 2.025 . S
H695 C687 0.952 . S
H696 C678 0.952 . S
H697 C686 0.948 . S
O698 Zn683 2.034 . S
O698 C693 1.246 1_455 S
O699 Zn691 2.024 1_655 S
O699 C693 1.249 . S
H700 C682 0.948 . S
O701 Zn691 2.039 . S
O701 C705 1.251 . S
O702 Zn683 2.025 . S
O702 C705 1.254 . S
O703 C684 1.246 . S
O703 Zn691 2.034 . S
O704 Zn683 2.024 . S
O704 C684 1.249 . S
C705 O701 1.251 . S
C705 O702 1.254 . S
H706 C679 0.949 . S
H707 C681 0.950 . S
H708 C688 0.949 . S
H709 C690 0.950 . S
C710 O726 1.251 . S
C710 O728 1.254 . S
N711 C712 1.333 . S
N711 C716 1.307 . S
N711 Zn717 2.020 . S
C712 N711 1.333 . S
C712 C713 1.379 . S
C712 H730 0.952 . S
C713 C712 1.379 . S
C713 C714 1.390 . S
C713 H740 0.949 . S
C714 C713 1.390 . S
C714 C715 1.357 . S
C715 C714 1.357 . S
C715 C716 1.370 . S
C715 H741 0.950 . S
C716 N711 1.307 . S
C716 C715 1.370 . S
C716 H734 0.948 . S
Zn717 N711 2.020 . S
Zn717 O726 2.039 . S
Zn717 O732 2.034 . S
Zn717 O736 2.025 . S
Zn717 O738 2.024 . S
C718 O737 1.246 . S
C718 O738 1.249 . S
N719 C720 1.307 . S
N719 C721 1.333 . S
N719 Zn725 2.020 . S
C720 N719 1.307 . S
C720 C724 1.370 . S
C720 H731 0.948 . S
C721 N719 1.333 . S
C721 C722 1.379 . S
C721 H729 0.952 . S
C722 C721 1.379 . S
C722 C723 1.390 . S
C722 H742 0.949 . S
C723 C722 1.390 . S
C723 C724 1.357 . S
C724 C720 1.370 . S
C724 C723 1.357 . S
C724 H743 0.950 . S
Zn725 N719 2.020 . S
Zn725 O728 2.025 . S
Zn725 O733 2.024 . S
Zn725 O735 2.039 . S
Zn725 O737 2.034 . S
O726 C710 1.251 . S
O726 Zn717 2.039 . S
C727 O732 1.246 . S
C727 O733 1.249 . S
O728 C710 1.254 . S
O728 Zn725 2.025 . S
H729 C721 0.952 . S
H730 C712 0.952 . S
H731 C720 0.948 . S
O732 Zn717 2.034 . S
O732 C727 1.246 . S
O733 Zn725 2.024 . S
O733 C727 1.249 . S
H734 C716 0.948 . S
O735 Zn725 2.039 . S
O735 C739 1.251 . S
O736 Zn717 2.025 . S
O736 C739 1.254 . S
O737 C718 1.246 . S
O737 Zn725 2.034 . S
O738 Zn717 2.024 . S
O738 C718 1.249 . S
C739 O735 1.251 . S
C739 O736 1.254 . S
H740 C713 0.949 . S
H741 C715 0.950 . S
H742 C722 0.949 . S
H743 C724 0.950 . S
C744 O760 1.251 . S
C744 O762 1.254 . S
N745 C746 1.333 . S
N745 C750 1.307 . S
N745 Zn751 2.020 . S
C746 N745 1.333 . S
C746 C747 1.379 . S
C746 H764 0.952 . S
C747 C746 1.379 . S
C747 C748 1.390 . S
C747 H774 0.949 . S
C748 C747 1.390 . S
C748 C749 1.357 . S
C749 C748 1.357 . S
C749 C750 1.370 . S
C749 H775 0.950 . S
C750 N745 1.307 . S
C750 C749 1.370 . S
C750 H768 0.948 . S
Zn751 N745 2.020 . S
Zn751 O760 2.039 . S
Zn751 O766 2.034 . S
Zn751 O770 2.025 . S
Zn751 O772 2.024 . S
C752 O771 1.246 . S
C752 O772 1.249 . S
N753 C754 1.307 . S
N753 C755 1.333 . S
N753 Zn759 2.020 . S
C754 N753 1.307 . S
C754 C758 1.370 . S
C754 H765 0.948 . S
C755 N753 1.333 . S
C755 C756 1.379 . S
C755 H763 0.952 . S
C756 C755 1.379 . S
C756 C757 1.390 . S
C756 H776 0.949 . S
C757 C756 1.390 . S
C757 C758 1.357 . S
C758 C754 1.370 . S
C758 C757 1.357 . S
C758 H777 0.950 . S
Zn759 N753 2.020 . S
Zn759 O762 2.025 . S
Zn759 O767 2.024 . S
Zn759 O769 2.039 . S
Zn759 O771 2.034 . S
O760 C744 1.251 . S
O760 Zn751 2.039 . S
C761 O766 1.246 . S
C761 O767 1.249 . S
O762 C744 1.254 . S
O762 Zn759 2.025 . S
H763 C755 0.952 . S
H764 C746 0.952 . S
H765 C754 0.948 . S
O766 Zn751 2.034 . S
O766 C761 1.246 . S
O767 Zn759 2.024 . S
O767 C761 1.249 . S
H768 C750 0.948 . S
O769 Zn759 2.039 . S
O769 C773 1.251 . S
O770 Zn751 2.025 . S
O770 C773 1.254 . S
O771 C752 1.246 . S
O771 Zn759 2.034 . S
O772 Zn751 2.024 . S
O772 C752 1.249 . S
C773 O769 1.251 . S
C773 O770 1.254 . S
H774 C747 0.949 . S
H775 C749 0.950 . S
H776 C756 0.949 . S
H777 C758 0.950 . S
C778 O794 1.251 . S
C778 O796 1.254 . S
N779 C780 1.333 . S
N779 C784 1.307 . S
N779 Zn785 2.020 . S
C780 N779 1.333 . S
C780 C781 1.379 . S
C780 H798 0.952 . S
C781 C780 1.379 . S
C781 C782 1.390 . S
C781 H808 0.949 . S
C782 C781 1.390 . S
C782 C783 1.357 . S
C783 C782 1.357 . S
C783 C784 1.370 . S
C783 H809 0.950 . S
C784 N779 1.307 . S
C784 C783 1.370 . S
C784 H802 0.948 . S
Zn785 N779 2.020 . S
Zn785 O794 2.039 . S
Zn785 O800 2.034 . S
Zn785 O804 2.025 . S
Zn785 O806 2.024 . S
C786 O805 1.246 . S
C786 O806 1.249 . S
N787 C788 1.307 . S
N787 C789 1.333 . S
N787 Zn793 2.020 . S
C788 N787 1.307 . S
C788 C792 1.370 . S
C788 H799 0.948 . S
C789 N787 1.333 . S
C789 C790 1.379 . S
C789 H797 0.952 . S
C790 C789 1.379 . S
C790 C791 1.390 . S
C790 H810 0.949 . S
C791 C790 1.390 . S
C791 C792 1.357 . S
C792 C788 1.370 . S
C792 C791 1.357 . S
C792 H811 0.950 . S
Zn793 N787 2.020 . S
Zn793 O796 2.025 . S
Zn793 O801 2.024 . S
Zn793 O803 2.039 . S
Zn793 O805 2.034 . S
O794 C778 1.251 . S
O794 Zn785 2.039 . S
C795 O800 1.246 . S
C795 O801 1.249 . S
O796 C778 1.254 . S
O796 Zn793 2.025 . S
H797 C789 0.952 . S
H798 C780 0.952 . S
H799 C788 0.948 . S
O800 Zn785 2.034 . S
O800 C795 1.246 . S
O801 Zn793 2.024 . S
O801 C795 1.249 . S
H802 C784 0.948 . S
O803 Zn793 2.039 . S
O803 C807 1.251 . S
O804 Zn785 2.025 . S
O804 C807 1.254 . S
O805 C786 1.246 . S
O805 Zn793 2.034 . S
O806 Zn785 2.024 . S
O806 C786 1.249 . S
C807 O803 1.251 . S
C807 O804 1.254 . S
H808 C781 0.949 . S
H809 C783 0.950 . S
H810 C790 0.949 . S
H811 C792 0.950 . S
C812 O828 1.251 . S
C812 O830 1.254 . S
N813 C814 1.333 . S
N813 C818 1.307 . S
N813 Zn819 2.020 . S
C814 N813 1.333 . S
C814 C815 1.379 . S
C814 H832 0.952 . S
C815 C814 1.379 . S
C815 C816 1.390 . S
C815 H842 0.949 . S
C816 C815 1.390 . S
C816 C817 1.357 . S
C817 C816 1.357 . S
C817 C818 1.370 . S
C817 H843 0.950 . S
C818 N813 1.307 . S
C818 C817 1.370 . S
C818 H836 0.948 . S
Zn819 N813 2.020 . S
Zn819 O828 2.039 . S
Zn819 O834 2.034 . S
Zn819 O838 2.025 . S
Zn819 O840 2.024 . S
C820 O839 1.246 . S
C820 O840 1.249 . S
N821 C822 1.307 . S
N821 C823 1.333 . S
N821 Zn827 2.020 . S
C822 N821 1.307 . S
C822 C826 1.370 . S
C822 H833 0.948 . S
C823 N821 1.333 . S
C823 C824 1.379 . S
C823 H831 0.952 . S
C824 C823 1.379 . S
C824 C825 1.390 . S
C824 H844 0.949 . S
C825 C824 1.390 . S
C825 C826 1.357 . S
C826 C822 1.370 . S
C826 C825 1.357 . S
C826 H845 0.950 . S
Zn827 N821 2.020 . S
Zn827 O830 2.025 . S
Zn827 O835 2.024 . S
Zn827 O837 2.039 . S
Zn827 O839 2.034 . S
O828 C812 1.251 . S
O828 Zn819 2.039 . S
C829 O834 1.246 . S
C829 O835 1.249 . S
O830 C812 1.254 . S
O830 Zn827 2.025 . S
H831 C823 0.952 . S
H832 C814 0.952 . S
H833 C822 0.948 . S
O834 Zn819 2.034 . S
O834 C829 1.246 . S
O835 Zn827 2.024 . S
O835 C829 1.249 . S
H836 C818 0.948 . S
O837 Zn827 2.039 . S
O837 C841 1.251 . S
O838 Zn819 2.025 . S
O838 C841 1.254 . S
O839 C820 1.246 . S
O839 Zn827 2.034 . S
O840 Zn819 2.024 . S
O840 C820 1.249 . S
C841 O837 1.251 . S
C841 O838 1.254 . S
H842 C815 0.949 . S
H843 C817 0.950 . S
H844 C824 0.949 . S
H845 C826 0.950 . S
C846 O862 1.251 . S
C846 O864 1.254 . S
N847 C848 1.333 . S
N847 C852 1.307 . S
N847 Zn853 2.020 . S
C848 N847 1.333 . S
C848 C849 1.379 . S
C848 H866 0.952 . S
C849 C848 1.379 . S
C849 C850 1.390 . S
C849 H876 0.949 . S
C850 C849 1.390 . S
C850 C851 1.357 . S
C851 C850 1.357 . S
C851 C852 1.370 . S
C851 H877 0.950 . S
C852 N847 1.307 . S
C852 C851 1.370 . S
C852 H870 0.948 . S
Zn853 N847 2.020 . S
Zn853 O862 2.039 . S
Zn853 O868 2.034 . S
Zn853 O872 2.063 . S
Zn853 O874 2.024 . S
C854 O873 1.246 . S
C854 O874 1.249 1_655 S
N855 C856 1.307 . S
N855 C857 1.333 1_554 S
N855 Zn861 2.020 . S
C856 N855 1.307 . S
C856 C860 1.370 . S
C856 H867 0.948 . S
C857 N855 1.333 1_556 S
C857 C858 1.394 . S
C857 H865 0.952 . S
C858 C857 1.394 . S
C858 C859 1.383 1_455 S
C858 H878 0.942 1_455 S
C859 C858 1.383 1_655 S
C859 C860 1.346 1_656 S
C860 C856 1.370 . S
C860 C859 1.346 1_454 S
C860 H879 0.950 . S
Zn861 N855 2.020 . S
Zn861 O864 2.025 . S
Zn861 O869 2.024 . S
Zn861 O871 2.039 1_554 S
Zn861 O873 2.034 1_455 S
O862 C846 1.251 . S
O862 Zn853 2.039 . S
C863 O868 1.246 . S
C863 O869 1.249 . S
O864 C846 1.254 . S
O864 Zn861 2.025 . S
H865 C857 0.952 . S
H866 C848 0.952 . S
H867 C856 0.948 . S
O868 Zn853 2.034 . S
O868 C863 1.246 . S
O869 Zn861 2.024 . S
O869 C863 1.249 . S
H870 C852 0.948 . S
O871 Zn861 2.039 1_556 S
O871 C875 1.251 . S
O872 Zn853 2.063 . S
O872 C875 1.227 1_554 S
O873 C854 1.246 . S
O873 Zn861 2.034 1_655 S
O874 Zn853 2.024 . S
O874 C854 1.249 1_455 S
C875 O871 1.251 . S
C875 O872 1.227 1_556 S
H876 C849 0.949 . S
H877 C851 0.950 . S
H878 C858 0.942 1_655 S
H879 C860 0.950 . S
H880 C892 0.930 . S
H881 C894 0.930 . S
H882 C895 0.930 . S
H883 C899 0.959 . S
H884 C899 0.959 . S
H885 C899 0.961 . S
H886 C900 0.960 . S
H887 C900 0.961 . S
H888 C900 0.959 . S
H889 C903 0.929 . S
H890 C904 0.931 . S
H891 C906 0.930 . S
C892 H880 0.930 . S
C892 C893 1.399 . S
C892 C897 1.399 . S
C893 C892 1.399 . S
C893 C894 1.376 . S
C894 H881 0.930 . S
C894 C893 1.376 . S
C894 C895 1.388 . S
C895 H882 0.930 . S
C895 C894 1.388 . S
C895 C896 1.390 . S
C896 C895 1.390 . S
C896 C897 1.394 . S
C896 C902 1.465 . S
C897 C892 1.399 . S
C897 C896 1.394 . S
C897 C898 1.516 . S
C898 C897 1.516 . S
C898 C899 1.502 . S
C898 C900 1.561 . S
C898 C901 1.526 . S
C899 H883 0.959 . S
C899 H884 0.959 . S
C899 H885 0.961 . S
C899 C898 1.502 . S
C900 H886 0.960 . S
C900 H887 0.961 . S
C900 H888 0.959 . S
C900 C898 1.561 . S
C901 C898 1.526 . S
C901 C902 1.396 . S
C901 C906 1.390 . S
C902 C896 1.465 . S
C902 C901 1.396 . S
C902 C903 1.399 . S
C903 H889 0.929 . S
C903 C902 1.399 . S
C903 C904 1.385 . S
C904 H890 0.931 . S
C904 C903 1.385 . S
C904 C905 1.389 . S
C905 C904 1.389 . S
C905 C906 1.387 . S
C906 H891 0.930 . S
C906 C901 1.390 . S
C906 C905 1.387 . S
H907 C919 0.930 . S
H908 C921 0.930 . S
H909 C922 0.930 . S
H910 C926 0.959 . S
H911 C926 0.959 . S
H912 C926 0.961 . S
H913 C927 0.960 . S
H914 C927 0.961 . S
H915 C927 0.959 . S
H916 C930 0.929 . S
H917 C931 0.931 . S
H918 C933 0.930 . S
C919 H907 0.930 . S
C919 C920 1.399 . S
C919 C924 1.399 . S
C920 C919 1.399 . S
C920 C921 1.376 . S
C921 H908 0.930 . S
C921 C920 1.376 . S
C921 C922 1.388 . S
C922 H909 0.930 . S
C922 C921 1.388 . S
C922 C923 1.390 . S
C923 C922 1.390 . S
C923 C924 1.394 . S
C923 C929 1.465 . S
C924 C919 1.399 . S
C924 C923 1.394 . S
C924 C925 1.516 . S
C925 C924 1.516 . S
C925 C926 1.502 . S
C925 C927 1.561 . S
C925 C928 1.526 . S
C926 H910 0.959 . S
C926 H911 0.959 . S
C926 H912 0.961 . S
C926 C925 1.502 . S
C927 H913 0.960 . S
C927 H914 0.961 . S
C927 H915 0.959 . S
C927 C925 1.561 . S
C928 C925 1.526 . S
C928 C929 1.396 . S
C928 C933 1.390 . S
C929 C923 1.465 . S
C929 C928 1.396 . S
C929 C930 1.399 . S
C930 H916 0.929 . S
C930 C929 1.399 . S
C930 C931 1.385 . S
C931 H917 0.931 . S
C931 C930 1.385 . S
C931 C932 1.389 . S
C932 C931 1.389 . S
C932 C933 1.387 . S
C933 H918 0.930 . S
C933 C928 1.390 . S
C933 C932 1.387 . S
H934 C946 0.930 . S
H935 C948 0.930 . S
H936 C949 0.930 . S
H937 C953 0.959 . S
H938 C953 0.959 . S
H939 C953 0.961 . S
H940 C954 0.960 . S
H941 C954 0.961 . S
H942 C954 0.959 . S
H943 C957 0.929 . S
H944 C958 0.931 . S
H945 C960 0.930 . S
C946 H934 0.930 . S
C946 C947 1.399 . S
C946 C951 1.399 . S
C947 C946 1.399 . S
C947 C948 1.376 . S
C948 H935 0.930 . S
C948 C947 1.376 . S
C948 C949 1.388 . S
C949 H936 0.930 . S
C949 C948 1.388 . S
C949 C950 1.390 . S
C950 C949 1.390 . S
C950 C951 1.394 . S
C950 C956 1.465 . S
C951 C946 1.399 . S
C951 C950 1.394 . S
C951 C952 1.516 . S
C952 C951 1.516 . S
C952 C953 1.502 . S
C952 C954 1.561 . S
C952 C955 1.526 . S
C953 H937 0.959 . S
C953 H938 0.959 . S
C953 H939 0.961 . S
C953 C952 1.502 . S
C954 H940 0.960 . S
C954 H941 0.961 . S
C954 H942 0.959 . S
C954 C952 1.561 . S
C955 C952 1.526 . S
C955 C956 1.396 . S
C955 C960 1.390 . S
C956 C950 1.465 . S
C956 C955 1.396 . S
C956 C957 1.399 . S
C957 H943 0.929 . S
C957 C956 1.399 . S
C957 C958 1.385 . S
C958 H944 0.931 . S
C958 C957 1.385 . S
C958 C959 1.389 . S
C959 C958 1.389 . S
C959 C960 1.387 . S
C960 H945 0.930 . S
C960 C955 1.390 . S
C960 C959 1.387 . S
H961 C973 0.930 . S
H962 C975 0.930 . S
H963 C976 0.930 . S
H964 C980 0.959 . S
H965 C980 0.959 . S
H966 C980 0.961 . S
H967 C981 0.960 . S
H968 C981 0.961 . S
H969 C981 0.959 . S
H970 C984 0.929 . S
H971 C985 0.931 . S
H972 C987 0.930 . S
C973 H961 0.930 . S
C973 C974 1.399 . S
C973 C978 1.399 . S
C974 C973 1.399 . S
C974 C975 1.376 . S
C975 H962 0.930 . S
C975 C974 1.376 . S
C975 C976 1.388 . S
C976 H963 0.930 . S
C976 C975 1.388 . S
C976 C977 1.390 . S
C977 C976 1.390 . S
C977 C978 1.394 . S
C977 C983 1.465 . S
C978 C973 1.399 . S
C978 C977 1.394 . S
C978 C979 1.516 . S
C979 C978 1.516 . S
C979 C980 1.502 . S
C979 C981 1.561 . S
C979 C982 1.526 . S
C980 H964 0.959 . S
C980 H965 0.959 . S
C980 H966 0.961 . S
C980 C979 1.502 . S
C981 H967 0.960 . S
C981 H968 0.961 . S
C981 H969 0.959 . S
C981 C979 1.561 . S
C982 C979 1.526 . S
C982 C983 1.396 . S
C982 C987 1.390 . S
C983 C977 1.465 . S
C983 C982 1.396 . S
C983 C984 1.399 . S
C984 H970 0.929 . S
C984 C983 1.399 . S
C984 C985 1.385 . S
C985 H971 0.931 . S
C985 C984 1.385 . S
C985 C986 1.389 . S
C986 C985 1.389 . S
C986 C987 1.387 . S
C987 H972 0.930 . S
C987 C982 1.390 . S
C987 C986 1.387 . S
H988 C1000 0.930 . S
H989 C1002 0.930 . S
H990 C1003 0.930 . S
H991 C1007 0.959 . S
H992 C1007 0.959 . S
H993 C1007 0.961 . S
H994 C1008 0.960 . S
H995 C1008 0.961 . S
H996 C1008 0.959 . S
H997 C1011 0.929 . S
H998 C1012 0.931 . S
H999 C1014 0.930 1_655 S
C1000 H988 0.930 . S
C1000 C1001 1.399 . S
C1000 C1005 1.399 . S
C1001 C1000 1.399 . S
C1001 C1002 1.376 . S
C1002 H989 0.930 . S
C1002 C1001 1.376 . S
C1002 C1003 1.388 . S
C1003 H990 0.930 . S
C1003 C1002 1.388 . S
C1003 C1004 1.390 . S
C1004 C1003 1.390 . S
C1004 C1005 1.394 . S
C1004 C1010 1.465 . S
C1005 C1000 1.399 . S
C1005 C1004 1.394 . S
C1005 C1006 1.516 . S
C1006 C1005 1.516 . S
C1006 C1007 1.502 1_455 S
C1006 C1008 1.561 . S
C1006 C1009 1.526 . S
C1007 H991 0.959 . S
C1007 H992 0.959 . S
C1007 H993 0.961 . S
C1007 C1006 1.502 1_655 S
C1008 H994 0.960 . S
C1008 H995 0.961 . S
C1008 H996 0.959 . S
C1008 C1006 1.561 . S
C1009 C1006 1.526 . S
C1009 C1010 1.396 . S
C1009 C1014 1.390 . S
C1010 C1004 1.465 . S
C1010 C1009 1.396 . S
C1010 C1011 1.399 . S
C1011 H997 0.929 . S
C1011 C1010 1.399 . S
C1011 C1012 1.385 . S
C1012 H998 0.931 . S
C1012 C1011 1.385 . S
C1012 C1013 1.389 . S
C1013 C1012 1.389 . S
C1013 C1014 1.387 . S
C1014 H999 0.930 1_455 S
C1014 C1009 1.390 . S
C1014 C1013 1.387 . S
H1015 C1027 0.930 . S
H1016 C1029 0.930 . S
H1017 C1030 0.930 . S
H1018 C1034 0.959 . S
H1019 C1034 0.959 . S
H1020 C1034 0.961 . S
H1021 C1035 0.960 . S
H1022 C1035 0.961 . S
H1023 C1035 0.959 . S
H1024 C1038 0.929 . S
H1025 C1039 0.931 . S
H1026 C1041 0.930 . S
C1027 H1015 0.930 . S
C1027 C1028 1.399 . S
C1027 C1032 1.399 . S
C1028 C1027 1.399 . S
C1028 C1029 1.376 . S
C1029 H1016 0.930 . S
C1029 C1028 1.376 . S
C1029 C1030 1.388 . S
C1030 H1017 0.930 . S
C1030 C1029 1.388 . S
C1030 C1031 1.390 . S
C1031 C1030 1.390 . S
C1031 C1032 1.394 . S
C1031 C1037 1.465 . S
C1032 C1027 1.399 . S
C1032 C1031 1.394 . S
C1032 C1033 1.516 . S
C1033 C1032 1.516 . S
C1033 C1034 1.502 . S
C1033 C1035 1.561 . S
C1033 C1036 1.526 . S
C1034 H1018 0.959 . S
C1034 H1019 0.959 . S
C1034 H1020 0.961 . S
C1034 C1033 1.502 . S
C1035 H1021 0.960 . S
C1035 H1022 0.961 . S
C1035 H1023 0.959 . S
C1035 C1033 1.561 . S
C1036 C1033 1.526 . S
C1036 C1037 1.396 . S
C1036 C1041 1.390 . S
C1037 C1031 1.465 . S
C1037 C1036 1.396 . S
C1037 C1038 1.399 . S
C1038 H1024 0.929 . S
C1038 C1037 1.399 . S
C1038 C1039 1.385 . S
C1039 H1025 0.931 . S
C1039 C1038 1.385 . S
C1039 C1040 1.389 . S
C1040 C1039 1.389 . S
C1040 C1041 1.387 . S
C1041 H1026 0.930 . S
C1041 C1036 1.390 . S
C1041 C1040 1.387 . S
H1042 C1054 0.930 . S
H1043 C1056 0.930 . S
H1044 C1057 0.930 . S
H1045 C1061 0.965 . S
H1046 C1061 0.949 1_554 S
H1047 C1061 0.959 . S
H1048 C1062 0.960 . S
H1049 C1062 0.961 . S
H1050 C1062 0.959 1_556 S
H1051 C1065 0.929 . S
H1052 C1066 0.931 . S
H1053 C1068 0.930 . S
C1054 H1042 0.930 . S
C1054 C1055 1.399 . S
C1054 C1059 1.399 . S
C1055 C1054 1.399 . S
C1055 C1056 1.376 . S
C1056 H1043 0.930 . S
C1056 C1055 1.376 . S
C1056 C1057 1.388 . S
C1057 H1044 0.930 . S
C1057 C1056 1.388 . S
C1057 C1058 1.390 . S
C1058 C1057 1.390 . S
C1058 C1059 1.394 . S
C1058 C1064 1.465 . S
C1059 C1054 1.399 . S
C1059 C1058 1.394 . S
C1059 C1060 1.516 . S
C1060 C1059 1.516 . S
C1060 C1061 1.506 . S
C1060 C1062 1.561 1_556 S
C1060 C1063 1.526 . S
C1061 H1045 0.965 . S
C1061 H1046 0.949 1_556 S
C1061 H1047 0.959 . S
C1061 C1060 1.506 . S
C1062 H1048 0.960 . S
C1062 H1049 0.961 . S
C1062 H1050 0.959 1_554 S
C1062 C1060 1.561 1_554 S
C1063 C1060 1.526 . S
C1063 C1064 1.396 . S
C1063 C1068 1.390 1_556 S
C1064 C1058 1.465 . S
C1064 C1063 1.396 . S
C1064 C1065 1.399 . S
C1065 H1051 0.929 . S
C1065 C1064 1.399 . S
C1065 C1066 1.385 . S
C1066 H1052 0.931 . S
C1066 C1065 1.385 . S
C1066 C1067 1.389 . S
C1067 C1066 1.389 . S
C1067 C1068 1.387 1_556 S
C1068 H1053 0.930 . S
C1068 C1063 1.390 1_554 S
C1068 C1067 1.387 1_554 S
H1069 C1081 0.930 . S
H1070 C1083 0.930 . S
H1071 C1084 0.930 . S
H1072 C1088 0.959 . S
H1073 C1088 0.959 . S
H1074 C1088 0.961 . S
H1075 C1089 0.960 . S
H1076 C1089 0.961 . S
H1077 C1089 0.959 . S
H1078 C1092 0.929 . S
H1079 C1093 0.931 . S
H1080 C1095 0.930 . S
C1081 H1069 0.930 . S
C1081 C1082 1.399 . S
C1081 C1086 1.399 . S
C1082 C1081 1.399 . S
C1082 C1083 1.376 . S
C1083 H1070 0.930 . S
C1083 C1082 1.376 . S
C1083 C1084 1.388 . S
C1084 H1071 0.930 . S
C1084 C1083 1.388 . S
C1084 C1085 1.390 . S
C1085 C1084 1.390 . S
C1085 C1086 1.394 . S
C1085 C1091 1.465 . S
C1086 C1081 1.399 . S
C1086 C1085 1.394 . S
C1086 C1087 1.516 . S
C1087 C1086 1.516 . S
C1087 C1088 1.502 . S
C1087 C1089 1.561 . S
C1087 C1090 1.526 . S
C1088 H1072 0.959 . S
C1088 H1073 0.959 . S
C1088 H1074 0.961 . S
C1088 C1087 1.502 . S
C1089 H1075 0.960 . S
C1089 H1076 0.961 . S
C1089 H1077 0.959 . S
C1089 C1087 1.561 . S
C1090 C1087 1.526 . S
C1090 C1091 1.396 . S
C1090 C1095 1.390 . S
C1091 C1085 1.465 . S
C1091 C1090 1.396 . S
C1091 C1092 1.399 . S
C1092 H1078 0.929 . S
C1092 C1091 1.399 . S
C1092 C1093 1.385 . S
C1093 H1079 0.931 . S
C1093 C1092 1.385 . S
C1093 C1094 1.389 . S
C1094 C1093 1.389 . S
C1094 C1095 1.387 . S
C1095 H1080 0.930 . S
C1095 C1090 1.390 . S
C1095 C1094 1.387 . S
H1096 C1108 0.930 . S
H1097 C1110 0.930 . S
H1098 C1111 0.930 . S
H1099 C1115 0.959 . S
H1100 C1115 0.959 . S
H1101 C1115 0.961 . S
H1102 C1116 0.960 . S
H1103 C1116 0.961 . S
H1104 C1116 0.959 . S
H1105 C1119 0.929 . S
H1106 C1120 0.931 . S
H1107 C1122 0.930 . S
C1108 H1096 0.930 . S
C1108 C1109 1.399 . S
C1108 C1113 1.399 . S
C1109 C1108 1.399 . S
C1109 C1110 1.376 1_545 S
C1110 H1097 0.930 . S
C1110 C1109 1.376 1_565 S
C1110 C1111 1.388 . S
C1111 H1098 0.930 . S
C1111 C1110 1.388 . S
C1111 C1112 1.390 . S
C1112 C1111 1.390 . S
C1112 C1113 1.394 1_565 S
C1112 C1118 1.465 . S
C1113 C1108 1.399 . S
C1113 C1112 1.394 1_545 S
C1113 C1114 1.516 . S
C1114 C1113 1.516 . S
C1114 C1115 1.502 . S
C1114 C1116 1.561 . S
C1114 C1117 1.526 . S
C1115 H1099 0.959 . S
C1115 H1100 0.959 . S
C1115 H1101 0.961 . S
C1115 C1114 1.502 . S
C1116 H1102 0.960 . S
C1116 H1103 0.961 . S
C1116 H1104 0.959 . S
C1116 C1114 1.561 . S
C1117 C1114 1.526 . S
C1117 C1118 1.396 1_545 S
C1117 C1122 1.390 . S
C1118 C1112 1.465 . S
C1118 C1117 1.396 1_565 S
C1118 C1119 1.399 . S
C1119 H1105 0.929 . S
C1119 C1118 1.399 . S
C1119 C1120 1.385 . S
C1120 H1106 0.931 . S
C1120 C1119 1.385 . S
C1120 C1121 1.389 . S
C1121 C1120 1.389 . S
C1121 C1122 1.387 1_565 S
C1122 H1107 0.930 . S
C1122 C1117 1.390 . S
C1122 C1121 1.387 1_545 S
H1123 C1135 0.930 . S
H1124 C1137 0.930 . S
H1125 C1138 0.930 . S
H1126 C1142 0.959 . S
H1127 C1142 0.959 . S
H1128 C1142 0.961 . S
H1129 C1143 0.960 . S
H1130 C1143 0.961 . S
H1131 C1143 0.959 . S
H1132 C1146 0.929 . S
H1133 C1147 0.931 . S
H1134 C1149 0.930 . S
C1135 H1123 0.930 . S
C1135 C1136 1.399 . S
C1135 C1140 1.399 . S
C1136 C1135 1.399 . S
C1136 C1137 1.376 . S
C1137 H1124 0.930 . S
C1137 C1136 1.376 . S
C1137 C1138 1.388 . S
C1138 H1125 0.930 . S
C1138 C1137 1.388 . S
C1138 C1139 1.390 . S
C1139 C1138 1.390 . S
C1139 C1140 1.394 . S
C1139 C1145 1.465 . S
C1140 C1135 1.399 . S
C1140 C1139 1.394 . S
C1140 C1141 1.516 . S
C1141 C1140 1.516 . S
C1141 C1142 1.502 . S
C1141 C1143 1.561 . S
C1141 C1144 1.526 . S
C1142 H1126 0.959 . S
C1142 H1127 0.959 . S
C1142 H1128 0.961 . S
C1142 C1141 1.502 . S
C1143 H1129 0.960 . S
C1143 H1130 0.961 . S
C1143 H1131 0.959 . S
C1143 C1141 1.561 . S
C1144 C1141 1.526 . S
C1144 C1145 1.396 . S
C1144 C1149 1.390 . S
C1145 C1139 1.465 . S
C1145 C1144 1.396 . S
C1145 C1146 1.399 . S
C1146 H1132 0.929 . S
C1146 C1145 1.399 . S
C1146 C1147 1.385 . S
C1147 H1133 0.931 . S
C1147 C1146 1.385 . S
C1147 C1148 1.389 . S
C1148 C1147 1.389 . S
C1148 C1149 1.387 . S
C1149 H1134 0.930 . S
C1149 C1144 1.390 . S
C1149 C1148 1.387 . S
H1150 C1162 0.930 . S
H1151 C1164 0.930 . S
H1152 C1165 0.930 . S
H1153 C1169 0.959 . S
H1154 C1169 0.959 . S
H1155 C1169 0.961 . S
H1156 C1170 0.960 . S
H1157 C1170 0.961 . S
H1158 C1170 0.959 . S
H1159 C1173 0.929 . S
H1160 C1174 0.931 . S
H1161 C1176 0.930 1_565 S
C1162 H1150 0.930 . S
C1162 C1163 1.399 1_565 S
C1162 C1167 1.399 1_565 S
C1163 C1162 1.399 1_545 S
C1163 C1164 1.376 . S
C1164 H1151 0.930 . S
C1164 C1163 1.376 . S
C1164 C1165 1.388 . S
C1165 H1152 0.930 . S
C1165 C1164 1.388 . S
C1165 C1166 1.390 . S
C1166 C1165 1.390 . S
C1166 C1167 1.394 . S
C1166 C1172 1.465 . S
C1167 C1162 1.399 1_545 S
C1167 C1166 1.394 . S
C1167 C1168 1.516 1_545 S
C1168 C1167 1.516 1_565 S
C1168 C1169 1.502 . S
C1168 C1170 1.561 . S
C1168 C1171 1.526 1_565 S
C1169 H1153 0.959 . S
C1169 H1154 0.959 . S
C1169 H1155 0.961 . S
C1169 C1168 1.502 . S
C1170 H1156 0.960 . S
C1170 H1157 0.961 . S
C1170 H1158 0.959 . S
C1170 C1168 1.561 . S
C1171 C1168 1.526 1_545 S
C1171 C1172 1.396 . S
C1171 C1176 1.390 . S
C1172 C1166 1.465 . S
C1172 C1171 1.396 . S
C1172 C1173 1.399 . S
C1173 H1159 0.929 . S
C1173 C1172 1.399 . S
C1173 C1174 1.385 . S
C1174 H1160 0.931 . S
C1174 C1173 1.385 . S
C1174 C1175 1.389 . S
C1175 C1174 1.389 . S
C1175 C1176 1.387 . S
C1176 H1161 0.930 1_545 S
C1176 C1171 1.390 . S
C1176 C1175 1.387 . S
H1177 C1189 0.930 . S
H1178 C1191 0.930 . S
H1179 C1192 0.930 . S
H1180 C1196 0.959 . S
H1181 C1196 0.959 . S
H1182 C1196 0.961 . S
H1183 C1197 0.960 . S
H1184 C1197 0.961 . S
H1185 C1197 0.959 . S
H1186 C1200 0.929 . S
H1187 C1201 0.931 . S
H1188 C1203 0.930 . S
C1189 H1177 0.930 . S
C1189 C1190 1.399 . S
C1189 C1194 1.399 . S
C1190 C1189 1.399 . S
C1190 C1191 1.376 . S
C1191 H1178 0.930 . S
C1191 C1190 1.376 . S
C1191 C1192 1.388 . S
C1192 H1179 0.930 . S
C1192 C1191 1.388 . S
C1192 C1193 1.390 . S
C1193 C1192 1.390 . S
C1193 C1194 1.394 . S
C1193 C1199 1.465 . S
C1194 C1189 1.399 . S
C1194 C1193 1.394 . S
C1194 C1195 1.516 . S
C1195 C1194 1.516 . S
C1195 C1196 1.502 . S
C1195 C1197 1.561 . S
C1195 C1198 1.526 . S
C1196 H1180 0.959 . S
C1196 H1181 0.959 . S
C1196 H1182 0.961 . S
C1196 C1195 1.502 . S
C1197 H1183 0.960 . S
C1197 H1184 0.961 . S
C1197 H1185 0.959 . S
C1197 C1195 1.561 . S
C1198 C1195 1.526 . S
C1198 C1199 1.396 . S
C1198 C1203 1.390 . S
C1199 C1193 1.465 . S
C1199 C1198 1.396 . S
C1199 C1200 1.399 . S
C1200 H1186 0.929 . S
C1200 C1199 1.399 . S
C1200 C1201 1.385 . S
C1201 H1187 0.931 . S
C1201 C1200 1.385 . S
C1201 C1202 1.389 . S
C1202 C1201 1.389 . S
C1202 C1203 1.387 . S
C1203 H1188 0.930 . S
C1203 C1198 1.390 . S
C1203 C1202 1.387 . S
H1204 C1216 0.930 1_565 S
H1205 C1218 0.930 . S
H1206 C1219 0.930 . S
H1207 C1223 0.959 1_545 S
H1208 C1223 0.959 . S
H1209 C1223 0.961 . S
H1210 C1224 0.960 . S
H1211 C1224 0.961 . S
H1212 C1224 0.959 . S
H1213 C1227 0.929 . S
H1214 C1228 0.931 . S
H1215 C1230 0.930 . S
C1216 H1204 0.930 1_545 S
C1216 C1217 1.399 . S
C1216 C1221 1.399 . S
C1217 C1216 1.399 . S
C1217 C1218 1.376 . S
C1218 H1205 0.930 . S
C1218 C1217 1.376 . S
C1218 C1219 1.388 . S
C1219 H1206 0.930 . S
C1219 C1218 1.388 . S
C1219 C1220 1.390 . S
C1220 C1219 1.390 . S
C1220 C1221 1.394 . S
C1220 C1226 1.465 . S
C1221 C1216 1.399 . S
C1221 C1220 1.394 . S
C1221 C1222 1.516 . S
C1222 C1221 1.516 . S
C1222 C1223 1.502 1_545 S
C1222 C1224 1.561 1_545 S
C1222 C1225 1.526 . S
C1223 H1207 0.959 1_565 S
C1223 H1208 0.959 . S
C1223 H1209 0.961 . S
C1223 C1222 1.502 1_565 S
C1224 H1210 0.960 . S
C1224 H1211 0.961 . S
C1224 H1212 0.959 . S
C1224 C1222 1.561 1_565 S
C1225 C1222 1.526 . S
C1225 C1226 1.396 . S
C1225 C1230 1.390 . S
C1226 C1220 1.465 . S
C1226 C1225 1.396 . S
C1226 C1227 1.399 . S
C1227 H1213 0.929 . S
C1227 C1226 1.399 . S
C1227 C1228 1.385 . S
C1228 H1214 0.931 . S
C1228 C1227 1.385 . S
C1228 C1229 1.389 . S
C1229 C1228 1.389 . S
C1229 C1230 1.387 . S
C1230 H1215 0.930 . S
C1230 C1225 1.390 . S
C1230 C1229 1.387 . S
H1231 C1243 0.930 . S
H1232 C1245 0.930 . S
H1233 C1246 0.930 . S
H1234 C1250 0.959 . S
H1235 C1250 0.959 . S
H1236 C1250 0.961 . S
H1237 C1251 0.960 . S
H1238 C1251 0.961 . S
H1239 C1251 0.959 . S
H1240 C1254 0.929 . S
H1241 C1255 0.931 . S
H1242 C1257 0.930 . S
C1243 H1231 0.930 . S
C1243 C1244 1.399 . S
C1243 C1248 1.399 . S
C1244 C1243 1.399 . S
C1244 C1245 1.376 . S
C1245 H1232 0.930 . S
C1245 C1244 1.376 . S
C1245 C1246 1.388 . S
C1246 H1233 0.930 . S
C1246 C1245 1.388 . S
C1246 C1247 1.390 . S
C1247 C1246 1.390 . S
C1247 C1248 1.394 . S
C1247 C1253 1.465 . S
C1248 C1243 1.399 . S
C1248 C1247 1.394 . S
C1248 C1249 1.516 . S
C1249 C1248 1.516 . S
C1249 C1250 1.502 . S
C1249 C1251 1.561 . S
C1249 C1252 1.526 . S
C1250 H1234 0.959 . S
C1250 H1235 0.959 . S
C1250 H1236 0.961 . S
C1250 C1249 1.502 . S
C1251 H1237 0.960 . S
C1251 H1238 0.961 . S
C1251 H1239 0.959 . S
C1251 C1249 1.561 . S
C1252 C1249 1.526 . S
C1252 C1253 1.396 . S
C1252 C1257 1.390 . S
C1253 C1247 1.465 . S
C1253 C1252 1.396 . S
C1253 C1254 1.399 . S
C1254 H1240 0.929 . S
C1254 C1253 1.399 . S
C1254 C1255 1.385 . S
C1255 H1241 0.931 . S
C1255 C1254 1.385 . S
C1255 C1256 1.389 . S
C1256 C1255 1.389 . S
C1256 C1257 1.387 . S
C1257 H1242 0.930 . S
C1257 C1252 1.390 . S
C1257 C1256 1.387 . S
H1258 C1270 0.930 . S
H1259 C1272 0.930 . S
H1260 C1273 0.930 . S
H1261 C1277 0.959 . S
H1262 C1277 0.959 . S
H1263 C1277 0.961 . S
H1264 C1278 0.960 . S
H1265 C1278 0.961 . S
H1266 C1278 0.959 . S
H1267 C1281 0.929 . S
H1268 C1282 0.931 . S
H1269 C1284 0.930 . S
C1270 H1258 0.930 . S
C1270 C1271 1.399 1_565 S
C1270 C1275 1.399 . S
C1271 C1270 1.399 1_545 S
C1271 C1272 1.376 . S
C1272 H1259 0.930 . S
C1272 C1271 1.376 . S
C1272 C1273 1.388 . S
C1273 H1260 0.930 . S
C1273 C1272 1.388 . S
C1273 C1274 1.390 . S
C1274 C1273 1.390 . S
C1274 C1275 1.394 1_545 S
C1274 C1280 1.465 . S
C1275 C1270 1.399 . S
C1275 C1274 1.394 1_565 S
C1275 C1276 1.516 . S
C1276 C1275 1.516 . S
C1276 C1277 1.502 . S
C1276 C1278 1.561 . S
C1276 C1279 1.526 . S
C1277 H1261 0.959 . S
C1277 H1262 0.959 . S
C1277 H1263 0.961 . S
C1277 C1276 1.502 . S
C1278 H1264 0.960 . S
C1278 H1265 0.961 . S
C1278 H1266 0.959 . S
C1278 C1276 1.561 . S
C1279 C1276 1.526 . S
C1279 C1280 1.396 1_565 S
C1279 C1284 1.390 . S
C1280 C1274 1.465 . S
C1280 C1279 1.396 1_545 S
C1280 C1281 1.399 . S
C1281 H1267 0.929 . S
C1281 C1280 1.399 . S
C1281 C1282 1.385 . S
C1282 H1268 0.931 . S
C1282 C1281 1.385 . S
C1282 C1283 1.389 1_545 S
C1283 C1282 1.389 1_565 S
C1283 C1284 1.387 . S
C1284 H1269 0.930 . S
C1284 C1279 1.390 . S
C1284 C1283 1.387 . S
H1285 C1297 0.930 . S
H1286 C1299 0.930 . S
H1287 C1300 0.930 . S
H1288 C1304 0.959 . S
H1289 C1304 0.959 . S
H1290 C1304 0.961 . S
H1291 C1305 0.960 . S
H1292 C1305 0.961 . S
H1293 C1305 0.959 . S
H1294 C1308 0.929 . S
H1295 C1309 0.931 . S
H1296 C1311 0.930 . S
C1297 H1285 0.930 . S
C1297 C1298 1.399 . S
C1297 C1302 1.399 . S
C1298 C1297 1.399 . S
C1298 C1299 1.376 . S
C1299 H1286 0.930 . S
C1299 C1298 1.376 . S
C1299 C1300 1.388 . S
C1300 H1287 0.930 . S
C1300 C1299 1.388 . S
C1300 C1301 1.390 . S
C1301 C1300 1.390 . S
C1301 C1302 1.394 . S
C1301 C1307 1.465 . S
C1302 C1297 1.399 . S
C1302 C1301 1.394 . S
C1302 C1303 1.516 . S
C1303 C1302 1.516 . S
C1303 C1304 1.502 . S
C1303 C1305 1.561 . S
C1303 C1306 1.526 . S
C1304 H1288 0.959 . S
C1304 H1289 0.959 . S
C1304 H1290 0.961 . S
C1304 C1303 1.502 . S
C1305 H1291 0.960 . S
C1305 H1292 0.961 . S
C1305 H1293 0.959 . S
C1305 C1303 1.561 . S
C1306 C1303 1.526 . S
C1306 C1307 1.396 . S
C1306 C1311 1.390 . S
C1307 C1301 1.465 . S
C1307 C1306 1.396 . S
C1307 C1308 1.399 . S
C1308 H1294 0.929 . S
C1308 C1307 1.399 . S
C1308 C1309 1.385 . S
C1309 H1295 0.931 . S
C1309 C1308 1.385 . S
C1309 C1310 1.389 . S
C1310 C1309 1.389 . S
C1310 C1311 1.387 . S
C1311 H1296 0.930 . S
C1311 C1306 1.390 . S
C1311 C1310 1.387 . S
H1312 C1324 0.930 . S
H1313 C1326 0.930 . S
H1314 C1327 0.930 . S
H1315 C1331 0.959 1_554 S
H1316 C1331 0.959 . S
H1317 C1331 0.961 . S
H1318 C1332 0.960 . S
H1319 C1332 0.961 . S
H1320 C1332 0.959 . S
H1321 C1335 0.929 . S
H1322 C1336 0.931 . S
H1323 C1338 0.930 . S
C1324 H1312 0.930 . S
C1324 C1325 1.399 . S
C1324 C1329 1.399 . S
C1325 C1324 1.399 . S
C1325 C1326 1.376 . S
C1326 H1313 0.930 . S
C1326 C1325 1.376 . S
C1326 C1327 1.388 . S
C1327 H1314 0.930 . S
C1327 C1326 1.388 . S
C1327 C1328 1.390 . S
C1328 C1327 1.390 . S
C1328 C1329 1.394 . S
C1328 C1334 1.465 . S
C1329 C1324 1.399 . S
C1329 C1328 1.394 . S
C1329 C1330 1.516 1_554 S
C1330 C1329 1.516 1_556 S
C1330 C1331 1.502 . S
C1330 C1332 1.561 . S
C1330 C1333 1.526 . S
C1331 H1315 0.959 1_556 S
C1331 H1316 0.959 . S
C1331 H1317 0.961 . S
C1331 C1330 1.502 . S
C1332 H1318 0.960 . S
C1332 H1319 0.961 . S
C1332 H1320 0.959 . S
C1332 C1330 1.561 . S
C1333 C1330 1.526 . S
C1333 C1334 1.396 1_556 S
C1333 C1338 1.390 . S
C1334 C1328 1.465 . S
C1334 C1333 1.396 1_554 S
C1334 C1335 1.399 . S
C1335 H1321 0.929 . S
C1335 C1334 1.399 . S
C1335 C1336 1.385 . S
C1336 H1322 0.931 . S
C1336 C1335 1.385 . S
C1336 C1337 1.407 . S
C1337 C1336 1.407 . S
C1337 C1338 1.376 1_554 S
C1338 H1323 0.930 . S
C1338 C1333 1.390 . S
C1338 C1337 1.376 1_556 S
H1339 C1351 0.930 . S
H1340 C1353 0.930 . S
H1341 C1354 0.930 . S
H1342 C1358 0.959 . S
H1343 C1358 0.959 1_556 S
H1344 C1358 0.961 1_556 S
H1345 C1359 0.970 . S
H1346 C1359 0.975 . S
H1347 C1359 0.949 1_554 S
H1348 C1362 0.929 . S
H1349 C1363 0.931 . S
H1350 C1365 0.930 . S
C1351 H1339 0.930 . S
C1351 C1352 1.399 . S
C1351 C1356 1.399 . S
C1352 C1351 1.399 . S
C1352 C1353 1.376 . S
C1353 H1340 0.930 . S
C1353 C1352 1.376 . S
C1353 C1354 1.388 . S
C1354 H1341 0.930 . S
C1354 C1353 1.388 . S
C1354 C1355 1.390 . S
C1355 C1354 1.390 . S
C1355 C1356 1.394 . S
C1355 C1361 1.465 . S
C1356 C1351 1.399 . S
C1356 C1355 1.394 . S
C1356 C1357 1.516 . S
C1357 C1356 1.516 . S
C1357 C1358 1.502 . S
C1357 C1359 1.547 1_554 S
C1357 C1360 1.526 . S
C1358 H1342 0.959 . S
C1358 H1343 0.959 1_554 S
C1358 H1344 0.961 1_554 S
C1358 C1357 1.502 . S
C1359 H1345 0.970 . S
C1359 H1346 0.975 . S
C1359 H1347 0.949 1_556 S
C1359 C1357 1.547 1_556 S
C1360 C1357 1.526 . S
C1360 C1361 1.396 . S
C1360 C1365 1.390 . S
C1361 C1355 1.465 . S
C1361 C1360 1.396 . S
C1361 C1362 1.399 . S
C1362 H1348 0.929 . S
C1362 C1361 1.399 . S
C1362 C1363 1.385 . S
C1363 H1349 0.931 . S
C1363 C1362 1.385 . S
C1363 C1364 1.389 . S
C1364 C1363 1.389 . S
C1364 C1365 1.387 . S
C1365 H1350 0.930 . S
C1365 C1360 1.390 . S
C1365 C1364 1.387 . S
H1366 C1378 0.930 . S
H1367 C1380 0.930 . S
H1368 C1381 0.930 . S
H1369 C1385 0.959 . S
H1370 C1385 0.959 . S
H1371 C1385 0.961 . S
H1372 C1386 0.960 . S
H1373 C1386 0.961 . S
H1374 C1386 0.959 . S
H1375 C1389 0.929 . S
H1376 C1390 0.931 . S
H1377 C1392 0.930 . S
C1378 H1366 0.930 . S
C1378 C1379 1.399 . S
C1378 C1383 1.399 . S
C1379 C1378 1.399 . S
C1379 C1380 1.376 . S
C1380 H1367 0.930 . S
C1380 C1379 1.376 . S
C1380 C1381 1.388 . S
C1381 H1368 0.930 . S
C1381 C1380 1.388 . S
C1381 C1382 1.390 . S
C1382 C1381 1.390 . S
C1382 C1383 1.394 . S
C1382 C1388 1.465 . S
C1383 C1378 1.399 . S
C1383 C1382 1.394 . S
C1383 C1384 1.516 . S
C1384 C1383 1.516 . S
C1384 C1385 1.502 . S
C1384 C1386 1.561 . S
C1384 C1387 1.526 . S
C1385 H1369 0.959 . S
C1385 H1370 0.959 . S
C1385 H1371 0.961 . S
C1385 C1384 1.502 . S
C1386 H1372 0.960 . S
C1386 H1373 0.961 . S
C1386 H1374 0.959 . S
C1386 C1384 1.561 . S
C1387 C1384 1.526 . S
C1387 C1388 1.396 . S
C1387 C1392 1.390 . S
C1388 C1382 1.465 . S
C1388 C1387 1.396 . S
C1388 C1389 1.399 . S
C1389 H1375 0.929 . S
C1389 C1388 1.399 . S
C1389 C1390 1.385 . S
C1390 H1376 0.931 . S
C1390 C1389 1.385 . S
C1390 C1391 1.389 . S
C1391 C1390 1.389 . S
C1391 C1392 1.387 . S
C1392 H1377 0.930 . S
C1392 C1387 1.390 . S
C1392 C1391 1.387 . S
H1393 C1405 0.930 . S
H1394 C1407 0.930 . S
H1395 C1408 0.930 . S
H1396 C1412 0.959 . S
H1397 C1412 0.959 . S
H1398 C1412 0.961 . S
H1399 C1413 0.960 . S
H1400 C1413 0.961 . S
H1401 C1413 0.959 . S
H1402 C1416 0.929 . S
H1403 C1417 0.931 1_455 S
H1404 C1419 0.930 . S
C1405 H1393 0.930 . S
C1405 C1406 1.399 . S
C1405 C1410 1.399 . S
C1406 C1405 1.399 . S
C1406 C1407 1.376 . S
C1407 H1394 0.930 . S
C1407 C1406 1.376 . S
C1407 C1408 1.388 . S
C1408 H1395 0.930 . S
C1408 C1407 1.388 . S
C1408 C1409 1.390 . S
C1409 C1408 1.390 . S
C1409 C1410 1.394 . S
C1409 C1415 1.465 . S
C1410 C1405 1.399 . S
C1410 C1409 1.394 . S
C1410 C1411 1.516 . S
C1411 C1410 1.516 . S
C1411 C1412 1.502 . S
C1411 C1413 1.561 . S
C1411 C1414 1.526 . S
C1412 H1396 0.959 . S
C1412 H1397 0.959 . S
C1412 H1398 0.961 . S
C1412 C1411 1.502 . S
C1413 H1399 0.960 . S
C1413 H1400 0.961 . S
C1413 H1401 0.959 . S
C1413 C1411 1.561 . S
C1414 C1411 1.526 . S
C1414 C1415 1.396 . S
C1414 C1419 1.390 . S
C1415 C1409 1.465 . S
C1415 C1414 1.396 . S
C1415 C1416 1.399 . S
C1416 H1402 0.929 . S
C1416 C1415 1.399 . S
C1416 C1417 1.385 . S
C1417 H1403 0.931 1_655 S
C1417 C1416 1.385 . S
C1417 C1418 1.389 . S
C1418 C1417 1.389 . S
C1418 C1419 1.387 . S
C1419 H1404 0.930 . S
C1419 C1414 1.390 . S
C1419 C1418 1.387 . S
H1420 C1432 0.930 . S
H1421 C1434 0.930 . S
H1422 C1435 0.930 . S
H1423 C1439 0.959 . S
H1424 C1439 0.959 . S
H1425 C1439 0.961 . S
H1426 C1440 0.960 . S
H1427 C1440 0.961 . S
H1428 C1440 0.959 . S
H1429 C1443 0.929 . S
H1430 C1444 0.931 . S
H1431 C1446 0.930 . S
C1432 H1420 0.930 . S
C1432 C1433 1.399 . S
C1432 C1437 1.399 . S
C1433 C1432 1.399 . S
C1433 C1434 1.376 . S
C1434 H1421 0.930 . S
C1434 C1433 1.376 . S
C1434 C1435 1.388 . S
C1435 H1422 0.930 . S
C1435 C1434 1.388 . S
C1435 C1436 1.390 . S
C1436 C1435 1.390 . S
C1436 C1437 1.394 . S
C1436 C1442 1.465 . S
C1437 C1432 1.399 . S
C1437 C1436 1.394 . S
C1437 C1438 1.516 . S
C1438 C1437 1.516 . S
C1438 C1439 1.502 . S
C1438 C1440 1.561 . S
C1438 C1441 1.526 . S
C1439 H1423 0.959 . S
C1439 H1424 0.959 . S
C1439 H1425 0.961 . S
C1439 C1438 1.502 . S
C1440 H1426 0.960 . S
C1440 H1427 0.961 . S
C1440 H1428 0.959 . S
C1440 C1438 1.561 . S
C1441 C1438 1.526 . S
C1441 C1442 1.396 . S
C1441 C1446 1.390 . S
C1442 C1436 1.465 . S
C1442 C1441 1.396 . S
C1442 C1443 1.399 . S
C1443 H1429 0.929 . S
C1443 C1442 1.399 . S
C1443 C1444 1.385 . S
C1444 H1430 0.931 . S
C1444 C1443 1.385 . S
C1444 C1445 1.389 . S
C1445 C1444 1.389 . S
C1445 C1446 1.387 . S
C1446 H1431 0.930 . S
C1446 C1441 1.390 . S
C1446 C1445 1.387 . S
H1447 C1459 0.930 . S
H1448 C1461 0.930 . S
H1449 C1462 0.930 . S
H1450 C1466 0.959 . S
H1451 C1466 0.959 . S
H1452 C1466 0.961 . S
H1453 C1467 0.960 . S
H1454 C1467 0.961 . S
H1455 C1467 0.959 . S
H1456 C1470 0.913 1_545 S
H1457 C1471 0.931 . S
H1458 C1473 0.930 . S
C1459 H1447 0.930 . S
C1459 C1460 1.399 . S
C1459 C1464 1.399 . S
C1460 C1459 1.399 . S
C1460 C1461 1.376 . S
C1461 H1448 0.930 . S
C1461 C1460 1.376 . S
C1461 C1462 1.388 . S
C1462 H1449 0.930 . S
C1462 C1461 1.388 . S
C1462 C1463 1.390 . S
C1463 C1462 1.390 . S
C1463 C1464 1.394 . S
C1463 C1469 1.465 . S
C1464 C1459 1.399 . S
C1464 C1463 1.394 . S
C1464 C1465 1.516 . S
C1465 C1464 1.516 . S
C1465 C1466 1.502 . S
C1465 C1467 1.561 . S
C1465 C1468 1.526 . S
C1466 H1450 0.959 . S
C1466 H1451 0.959 . S
C1466 H1452 0.961 . S
C1466 C1465 1.502 . S
C1467 H1453 0.960 . S
C1467 H1454 0.961 . S
C1467 H1455 0.959 . S
C1467 C1465 1.561 . S
C1468 C1465 1.526 . S
C1468 C1469 1.396 . S
C1468 C1473 1.390 . S
C1469 C1463 1.465 . S
C1469 C1468 1.396 . S
C1469 C1470 1.421 . S
C1470 H1456 0.913 1_565 S
C1470 C1469 1.421 . S
C1470 C1471 1.380 1_565 S
C1471 H1457 0.931 . S
C1471 C1470 1.380 1_545 S
C1471 C1472 1.389 1_545 S
C1472 C1471 1.389 1_565 S
C1472 C1473 1.387 . S
C1473 H1458 0.930 . S
C1473 C1468 1.390 . S
C1473 C1472 1.387 . S
H1474 C1486 0.930 . S
H1475 C1488 0.930 . S
H1476 C1489 0.930 . S
H1477 C1493 0.959 . S
H1478 C1493 0.959 . S
H1479 C1493 0.961 . S
H1480 C1494 0.960 . S
H1481 C1494 0.961 . S
H1482 C1494 0.959 . S
H1483 C1497 0.929 . S
H1484 C1498 0.931 . S
H1485 C1500 0.930 . S
C1486 H1474 0.930 . S
C1486 C1487 1.399 . S
C1486 C1491 1.399 . S
C1487 C1486 1.399 . S
C1487 C1488 1.376 . S
C1488 H1475 0.930 . S
C1488 C1487 1.376 . S
C1488 C1489 1.388 . S
C1489 H1476 0.930 . S
C1489 C1488 1.388 . S
C1489 C1490 1.390 . S
C1490 C1489 1.390 . S
C1490 C1491 1.394 . S
C1490 C1496 1.465 . S
C1491 C1486 1.399 . S
C1491 C1490 1.394 . S
C1491 C1492 1.516 . S
C1492 C1491 1.516 . S
C1492 C1493 1.502 . S
C1492 C1494 1.561 . S
C1492 C1495 1.526 . S
C1493 H1477 0.959 . S
C1493 H1478 0.959 . S
C1493 H1479 0.961 . S
C1493 C1492 1.502 . S
C1494 H1480 0.960 . S
C1494 H1481 0.961 . S
C1494 H1482 0.959 . S
C1494 C1492 1.561 . S
C1495 C1492 1.526 . S
C1495 C1496 1.396 . S
C1495 C1500 1.390 . S
C1496 C1490 1.465 . S
C1496 C1495 1.396 . S
C1496 C1497 1.399 . S
C1497 H1483 0.929 . S
C1497 C1496 1.399 . S
C1497 C1498 1.385 . S
C1498 H1484 0.931 . S
C1498 C1497 1.385 . S
C1498 C1499 1.389 . S
C1499 C1498 1.389 . S
C1499 C1500 1.387 . S
C1500 H1485 0.930 . S
C1500 C1495 1.390 . S
C1500 C1499 1.387 . S
H1501 C1513 0.930 . S
H1502 C1515 0.930 . S
H1503 C1516 0.930 . S
H1504 C1520 0.959 . S
H1505 C1520 0.959 . S
H1506 C1520 0.961 . S
H1507 C1521 0.960 . S
H1508 C1521 0.961 . S
H1509 C1521 0.959 . S
H1510 C1524 0.929 . S
H1511 C1525 0.931 . S
H1512 C1527 0.930 . S
C1513 H1501 0.930 . S
C1513 C1514 1.399 . S
C1513 C1518 1.399 . S
C1514 C1513 1.399 . S
C1514 C1515 1.376 . S
C1515 H1502 0.930 . S
C1515 C1514 1.376 . S
C1515 C1516 1.388 . S
C1516 H1503 0.930 . S
C1516 C1515 1.388 . S
C1516 C1517 1.390 . S
C1517 C1516 1.390 . S
C1517 C1518 1.394 . S
C1517 C1523 1.465 . S
C1518 C1513 1.399 . S
C1518 C1517 1.394 . S
C1518 C1519 1.516 . S
C1519 C1518 1.516 . S
C1519 C1520 1.502 . S
C1519 C1521 1.561 . S
C1519 C1522 1.526 . S
C1520 H1504 0.959 . S
C1520 H1505 0.959 . S
C1520 H1506 0.961 . S
C1520 C1519 1.502 . S
C1521 H1507 0.960 . S
C1521 H1508 0.961 . S
C1521 H1509 0.959 . S
C1521 C1519 1.561 . S
C1522 C1519 1.526 . S
C1522 C1523 1.396 . S
C1522 C1527 1.390 . S
C1523 C1517 1.465 . S
C1523 C1522 1.396 . S
C1523 C1524 1.399 . S
C1524 H1510 0.929 . S
C1524 C1523 1.399 . S
C1524 C1525 1.385 . S
C1525 H1511 0.931 . S
C1525 C1524 1.385 . S
C1525 C1526 1.389 . S
C1526 C1525 1.389 . S
C1526 C1527 1.387 . S
C1527 H1512 0.930 . S
C1527 C1522 1.390 . S
C1527 C1526 1.387 . S
H1528 C1540 0.930 . S
H1529 C1542 0.930 . S
H1530 C1543 0.930 . S
H1531 C1547 0.959 . S
H1532 C1547 0.959 . S
H1533 C1547 0.961 . S
H1534 C1548 0.960 . S
H1535 C1548 0.961 . S
H1536 C1548 0.959 . S
H1537 C1551 0.920 1_654 S
H1538 C1552 0.931 . S
H1539 C1554 0.930 . S
C1540 H1528 0.930 . S
C1540 C1541 1.411 . S
C1540 C1545 1.399 . S
C1541 C1540 1.411 . S
C1541 C1542 1.367 1_455 S
C1542 H1529 0.930 . S
C1542 C1541 1.367 1_655 S
C1542 C1543 1.388 . S
C1543 H1530 0.930 . S
C1543 C1542 1.388 . S
C1543 C1544 1.390 1_655 S
C1544 C1543 1.390 1_455 S
C1544 C1545 1.394 . S
C1544 C1550 1.465 . S
C1545 C1540 1.399 . S
C1545 C1544 1.394 . S
C1545 C1546 1.516 . S
C1546 C1545 1.516 . S
C1546 C1547 1.502 . S
C1546 C1548 1.561 . S
C1546 C1549 1.526 . S
C1547 H1531 0.959 . S
C1547 H1532 0.959 . S
C1547 H1533 0.961 . S
C1547 C1546 1.502 . S
C1548 H1534 0.960 . S
C1548 H1535 0.961 . S
C1548 H1536 0.959 . S
C1548 C1546 1.561 . S
C1549 C1546 1.526 . S
C1549 C1550 1.396 . S
C1549 C1554 1.390 . S
C1550 C1544 1.465 . S
C1550 C1549 1.396 . S
C1550 C1551 1.399 . S
C1551 H1537 0.920 1_456 S
C1551 C1550 1.399 . S
C1551 C1552 1.385 1_556 S
C1552 H1538 0.931 . S
C1552 C1551 1.385 1_554 S
C1552 C1553 1.388 1_554 S
C1553 C1552 1.388 1_556 S
C1553 C1554 1.389 . S
C1554 H1539 0.930 . S
C1554 C1549 1.390 . S
C1554 C1553 1.389 . S
H1555 C1567 0.930 . S
H1556 C1569 0.930 . S
H1557 C1570 0.930 . S
H1558 C1574 0.959 . S
H1559 C1574 0.959 . S
H1560 C1574 0.961 . S
H1561 C1575 0.960 . S
H1562 C1575 0.961 . S
H1563 C1575 0.959 . S
H1564 C1578 0.929 . S
H1565 C1579 0.931 . S
H1566 C1581 0.930 . S
C1567 H1555 0.930 . S
C1567 C1568 1.399 . S
C1567 C1572 1.399 . S
C1568 C1567 1.399 . S
C1568 C1569 1.376 . S
C1569 H1556 0.930 . S
C1569 C1568 1.376 . S
C1569 C1570 1.388 . S
C1570 H1557 0.930 . S
C1570 C1569 1.388 . S
C1570 C1571 1.390 . S
C1571 C1570 1.390 . S
C1571 C1572 1.394 . S
C1571 C1577 1.465 . S
C1572 C1567 1.399 . S
C1572 C1571 1.394 . S
C1572 C1573 1.516 . S
C1573 C1572 1.516 . S
C1573 C1574 1.502 . S
C1573 C1575 1.561 . S
C1573 C1576 1.526 . S
C1574 H1558 0.959 . S
C1574 H1559 0.959 . S
C1574 H1560 0.961 . S
C1574 C1573 1.502 . S
C1575 H1561 0.960 . S
C1575 H1562 0.961 . S
C1575 H1563 0.959 . S
C1575 C1573 1.561 . S
C1576 C1573 1.526 . S
C1576 C1577 1.396 . S
C1576 C1581 1.390 . S
C1577 C1571 1.465 . S
C1577 C1576 1.396 . S
C1577 C1578 1.399 . S
C1578 H1564 0.929 . S
C1578 C1577 1.399 . S
C1578 C1579 1.385 . S
C1579 H1565 0.931 . S
C1579 C1578 1.385 . S
C1579 C1580 1.389 . S
C1580 C1579 1.389 . S
C1580 C1581 1.387 . S
C1581 H1566 0.930 . S
C1581 C1576 1.390 . S
C1581 C1580 1.387 . S
H1582 C1594 0.930 . S
H1583 C1596 0.930 . S
H1584 C1597 0.930 . S
H1585 C1601 0.959 . S
H1586 C1601 0.959 . S
H1587 C1601 0.961 . S
H1588 C1602 0.960 . S
H1589 C1602 0.961 . S
H1590 C1602 0.959 . S
H1591 C1605 0.929 . S
H1592 C1606 0.931 . S
H1593 C1608 0.930 . S
C1594 H1582 0.930 . S
C1594 C1595 1.399 . S
C1594 C1599 1.399 . S
C1595 C1594 1.399 . S
C1595 C1596 1.376 . S
C1596 H1583 0.930 . S
C1596 C1595 1.376 . S
C1596 C1597 1.388 . S
C1597 H1584 0.930 . S
C1597 C1596 1.388 . S
C1597 C1598 1.390 . S
C1598 C1597 1.390 . S
C1598 C1599 1.394 . S
C1598 C1604 1.465 . S
C1599 C1594 1.399 . S
C1599 C1598 1.394 . S
C1599 C1600 1.516 . S
C1600 C1599 1.516 . S
C1600 C1601 1.502 . S
C1600 C1602 1.561 . S
C1600 C1603 1.526 . S
C1601 H1585 0.959 . S
C1601 H1586 0.959 . S
C1601 H1587 0.961 . S
C1601 C1600 1.502 . S
C1602 H1588 0.960 . S
C1602 H1589 0.961 . S
C1602 H1590 0.959 . S
C1602 C1600 1.561 . S
C1603 C1600 1.526 . S
C1603 C1604 1.396 . S
C1603 C1608 1.390 . S
C1604 C1598 1.465 . S
C1604 C1603 1.396 . S
C1604 C1605 1.399 . S
C1605 H1591 0.929 . S
C1605 C1604 1.399 . S
C1605 C1606 1.385 . S
C1606 H1592 0.931 . S
C1606 C1605 1.385 . S
C1606 C1607 1.389 . S
C1607 C1606 1.389 . S
C1607 C1608 1.387 . S
C1608 H1593 0.930 . S
C1608 C1603 1.390 . S
C1608 C1607 1.387 . S
H1609 C1621 0.930 . S
H1610 C1623 0.930 . S
H1611 C1624 0.930 . S
H1612 C1628 0.959 . S
H1613 C1628 0.959 . S
H1614 C1628 0.961 . S
H1615 C1629 0.960 . S
H1616 C1629 0.961 . S
H1617 C1629 0.959 . S
H1618 C1632 0.929 . S
H1619 C1633 0.931 . S
H1620 C1635 0.930 . S
C1621 H1609 0.930 . S
C1621 C1622 1.399 . S
C1621 C1626 1.399 . S
C1622 C1621 1.399 . S
C1622 C1623 1.376 . S
C1623 H1610 0.930 . S
C1623 C1622 1.376 . S
C1623 C1624 1.388 . S
C1624 H1611 0.930 . S
C1624 C1623 1.388 . S
C1624 C1625 1.390 . S
C1625 C1624 1.390 . S
C1625 C1626 1.394 . S
C1625 C1631 1.465 . S
C1626 C1621 1.399 . S
C1626 C1625 1.394 . S
C1626 C1627 1.516 . S
C1627 C1626 1.516 . S
C1627 C1628 1.502 . S
C1627 C1629 1.561 . S
C1627 C1630 1.526 . S
C1628 H1612 0.959 . S
C1628 H1613 0.959 . S
C1628 H1614 0.961 . S
C1628 C1627 1.502 . S
C1629 H1615 0.960 . S
C1629 H1616 0.961 . S
C1629 H1617 0.959 . S
C1629 C1627 1.561 . S
C1630 C1627 1.526 . S
C1630 C1631 1.396 . S
C1630 C1635 1.390 . S
C1631 C1625 1.465 . S
C1631 C1630 1.396 . S
C1631 C1632 1.399 . S
C1632 H1618 0.929 . S
C1632 C1631 1.399 . S
C1632 C1633 1.385 . S
C1633 H1619 0.931 . S
C1633 C1632 1.385 . S
C1633 C1634 1.389 . S
C1634 C1633 1.389 . S
C1634 C1635 1.387 . S
C1635 H1620 0.930 . S
C1635 C1630 1.390 . S
C1635 C1634 1.387 . S
H1636 C1648 0.930 . S
H1637 C1650 0.930 . S
H1638 C1651 0.930 . S
H1639 C1655 0.959 . S
H1640 C1655 0.959 . S
H1641 C1655 0.961 . S
H1642 C1656 0.960 . S
H1643 C1656 0.961 . S
H1644 C1656 0.959 . S
H1645 C1659 0.929 . S
H1646 C1660 0.931 . S
H1647 C1662 0.930 . S
C1648 H1636 0.930 . S
C1648 C1649 1.399 . S
C1648 C1653 1.399 . S
C1649 C1648 1.399 . S
C1649 C1650 1.376 . S
C1650 H1637 0.930 . S
C1650 C1649 1.376 . S
C1650 C1651 1.388 . S
C1651 H1638 0.930 . S
C1651 C1650 1.388 . S
C1651 C1652 1.390 . S
C1652 C1651 1.390 . S
C1652 C1653 1.394 . S
C1652 C1658 1.465 . S
C1653 C1648 1.399 . S
C1653 C1652 1.394 . S
C1653 C1654 1.516 . S
C1654 C1653 1.516 . S
C1654 C1655 1.502 . S
C1654 C1656 1.561 . S
C1654 C1657 1.526 . S
C1655 H1639 0.959 . S
C1655 H1640 0.959 . S
C1655 H1641 0.961 . S
C1655 C1654 1.502 . S
C1656 H1642 0.960 . S
C1656 H1643 0.961 . S
C1656 H1644 0.959 . S
C1656 C1654 1.561 . S
C1657 C1654 1.526 . S
C1657 C1658 1.396 . S
C1657 C1662 1.390 . S
C1658 C1652 1.465 . S
C1658 C1657 1.396 . S
C1658 C1659 1.399 . S
C1659 H1645 0.929 . S
C1659 C1658 1.399 . S
C1659 C1660 1.385 . S
C1660 H1646 0.931 . S
C1660 C1659 1.385 . S
C1660 C1661 1.389 . S
C1661 C1660 1.389 . S
C1661 C1662 1.387 . S
C1662 H1647 0.930 . S
C1662 C1657 1.390 . S
C1662 C1661 1.387 . S
H1663 C1675 0.930 . S
H1664 C1677 0.930 . S
H1665 C1678 0.930 . S
H1666 C1682 0.959 . S
H1667 C1682 0.959 . S
H1668 C1682 0.961 . S
H1669 C1683 0.960 . S
H1670 C1683 0.961 . S
H1671 C1683 0.959 . S
H1672 C1686 0.929 . S
H1673 C1687 0.931 . S
H1674 C1689 0.930 . S
C1675 H1663 0.930 . S
C1675 C1676 1.399 . S
C1675 C1680 1.399 . S
C1676 C1675 1.399 . S
C1676 C1677 1.376 . S
C1677 H1664 0.930 . S
C1677 C1676 1.376 . S
C1677 C1678 1.388 . S
C1678 H1665 0.930 . S
C1678 C1677 1.388 . S
C1678 C1679 1.390 . S
C1679 C1678 1.390 . S
C1679 C1680 1.394 . S
C1679 C1685 1.465 . S
C1680 C1675 1.399 . S
C1680 C1679 1.394 . S
C1680 C1681 1.516 . S
C1681 C1680 1.516 . S
C1681 C1682 1.502 . S
C1681 C1683 1.561 . S
C1681 C1684 1.526 . S
C1682 H1666 0.959 . S
C1682 H1667 0.959 . S
C1682 H1668 0.961 . S
C1682 C1681 1.502 . S
C1683 H1669 0.960 . S
C1683 H1670 0.961 . S
C1683 H1671 0.959 . S
C1683 C1681 1.561 . S
C1684 C1681 1.526 . S
C1684 C1685 1.396 . S
C1684 C1689 1.390 . S
C1685 C1679 1.465 . S
C1685 C1684 1.396 . S
C1685 C1686 1.399 . S
C1686 H1672 0.929 . S
C1686 C1685 1.399 . S
C1686 C1687 1.385 . S
C1687 H1673 0.931 . S
C1687 C1686 1.385 . S
C1687 C1688 1.389 . S
C1688 C1687 1.389 . S
C1688 C1689 1.387 . S
C1689 H1674 0.930 . S
C1689 C1684 1.390 . S
C1689 C1688 1.387 . S
H1690 C1702 0.930 . S
H1691 C1704 0.930 . S
H1692 C1705 0.930 . S
H1693 C1709 0.959 . S
H1694 C1709 0.959 . S
H1695 C1709 0.961 . S
H1696 C1710 0.960 . S
H1697 C1710 0.961 . S
H1698 C1710 0.959 . S
H1699 C1713 0.929 . S
H1700 C1714 0.931 . S
H1701 C1716 0.930 . S
C1702 H1690 0.930 . S
C1702 C1703 1.399 . S
C1702 C1707 1.399 . S
C1703 C1702 1.399 . S
C1703 C1704 1.376 . S
C1704 H1691 0.930 . S
C1704 C1703 1.376 . S
C1704 C1705 1.388 . S
C1705 H1692 0.930 . S
C1705 C1704 1.388 . S
C1705 C1706 1.390 . S
C1706 C1705 1.390 . S
C1706 C1707 1.394 . S
C1706 C1712 1.465 . S
C1707 C1702 1.399 . S
C1707 C1706 1.394 . S
C1707 C1708 1.516 . S
C1708 C1707 1.516 . S
C1708 C1709 1.502 . S
C1708 C1710 1.561 . S
C1708 C1711 1.526 . S
C1709 H1693 0.959 . S
C1709 H1694 0.959 . S
C1709 H1695 0.961 . S
C1709 C1708 1.502 . S
C1710 H1696 0.960 . S
C1710 H1697 0.961 . S
C1710 H1698 0.959 . S
C1710 C1708 1.561 . S
C1711 C1708 1.526 . S
C1711 C1712 1.396 . S
C1711 C1716 1.390 . S
C1712 C1706 1.465 . S
C1712 C1711 1.396 . S
C1712 C1713 1.399 . S
C1713 H1699 0.929 . S
C1713 C1712 1.399 . S
C1713 C1714 1.385 . S
C1714 H1700 0.931 . S
C1714 C1713 1.385 . S
C1714 C1715 1.389 . S
C1715 C1714 1.389 . S
C1715 C1716 1.387 . S
C1716 H1701 0.930 . S
C1716 C1711 1.390 . S
C1716 C1715 1.387 . S
H1717 C1729 0.930 . S
H1718 C1731 0.930 . S
H1719 C1732 0.930 . S
H1720 C1736 0.959 . S
H1721 C1736 0.959 . S
H1722 C1736 0.961 . S
H1723 C1737 0.960 . S
H1724 C1737 0.961 . S
H1725 C1737 0.959 . S
H1726 C1740 0.929 . S
H1727 C1741 0.931 . S
H1728 C1743 0.930 . S
C1729 H1717 0.930 . S
C1729 C1730 1.399 . S
C1729 C1734 1.399 . S
C1730 C1729 1.399 . S
C1730 C1731 1.376 . S
C1731 H1718 0.930 . S
C1731 C1730 1.376 . S
C1731 C1732 1.388 . S
C1732 H1719 0.930 . S
C1732 C1731 1.388 . S
C1732 C1733 1.390 . S
C1733 C1732 1.390 . S
C1733 C1734 1.394 . S
C1733 C1739 1.465 . S
C1734 C1729 1.399 . S
C1734 C1733 1.394 . S
C1734 C1735 1.516 . S
C1735 C1734 1.516 . S
C1735 C1736 1.502 . S
C1735 C1737 1.561 . S
C1735 C1738 1.526 . S
C1736 H1720 0.959 . S
C1736 H1721 0.959 . S
C1736 H1722 0.961 . S
C1736 C1735 1.502 . S
C1737 H1723 0.960 . S
C1737 H1724 0.961 . S
C1737 H1725 0.959 . S
C1737 C1735 1.561 . S
C1738 C1735 1.526 . S
C1738 C1739 1.396 . S
C1738 C1743 1.390 . S
C1739 C1733 1.465 . S
C1739 C1738 1.396 . S
C1739 C1740 1.399 . S
C1740 H1726 0.929 . S
C1740 C1739 1.399 . S
C1740 C1741 1.385 . S
C1741 H1727 0.931 . S
C1741 C1740 1.385 . S
C1741 C1742 1.389 . S
C1742 C1741 1.389 . S
C1742 C1743 1.387 . S
C1743 H1728 0.930 . S
C1743 C1738 1.390 . S
C1743 C1742 1.387 . S
H1744 C1756 0.930 . S
H1745 C1758 0.930 . S
H1746 C1759 0.930 . S
H1747 C1763 0.959 . S
H1748 C1763 0.959 . S
H1749 C1763 0.961 . S
H1750 C1764 0.960 . S
H1751 C1764 0.961 . S
H1752 C1764 0.959 . S
H1753 C1767 0.920 1_565 S
H1754 C1768 0.918 1_565 S
H1755 C1770 0.930 . S
C1756 H1744 0.930 . S
C1756 C1757 1.399 . S
C1756 C1761 1.399 . S
C1757 C1756 1.399 . S
C1757 C1758 1.376 1_545 S
C1758 H1745 0.930 . S
C1758 C1757 1.376 1_565 S
C1758 C1759 1.388 . S
C1759 H1746 0.930 . S
C1759 C1758 1.388 . S
C1759 C1760 1.390 1_565 S
C1760 C1759 1.390 1_545 S
C1760 C1761 1.394 . S
C1760 C1766 1.465 . S
C1761 C1756 1.399 . S
C1761 C1760 1.394 . S
C1761 C1762 1.516 . S
C1762 C1761 1.516 . S
C1762 C1763 1.502 1_655 S
C1762 C1764 1.561 . S
C1762 C1765 1.526 . S
C1763 H1747 0.959 . S
C1763 H1748 0.959 . S
C1763 H1749 0.961 . S
C1763 C1762 1.502 1_455 S
C1764 H1750 0.960 . S
C1764 H1751 0.961 . S
C1764 H1752 0.959 . S
C1764 C1762 1.561 . S
C1765 C1762 1.526 . S
C1765 C1766 1.396 . S
C1765 C1770 1.390 1_655 S
C1766 C1760 1.465 . S
C1766 C1765 1.396 . S
C1766 C1767 1.405 . S
C1767 H1753 0.920 1_545 S
C1767 C1766 1.405 . S
C1767 C1768 1.388 . S
C1768 H1754 0.918 1_545 S
C1768 C1767 1.388 . S
C1768 C1769 1.389 1_655 S
C1769 C1768 1.389 1_455 S
C1769 C1770 1.387 . S
C1770 H1755 0.930 . S
C1770 C1765 1.390 1_455 S
C1770 C1769 1.387 . S
H1771 C1783 0.930 . S
H1772 C1785 0.930 . S
H1773 C1786 0.930 . S
H1774 C1790 0.959 . S
H1775 C1790 0.959 . S
H1776 C1790 0.961 . S
H1777 C1791 0.960 . S
H1778 C1791 0.961 . S
H1779 C1791 0.959 . S
H1780 C1794 0.929 . S
H1781 C1795 0.931 . S
H1782 C1797 0.930 . S
C1783 H1771 0.930 . S
C1783 C1784 1.399 . S
C1783 C1788 1.399 . S
C1784 C1783 1.399 . S
C1784 C1785 1.376 . S
C1785 H1772 0.930 . S
C1785 C1784 1.376 . S
C1785 C1786 1.388 . S
C1786 H1773 0.930 . S
C1786 C1785 1.388 . S
C1786 C1787 1.390 . S
C1787 C1786 1.390 . S
C1787 C1788 1.394 . S
C1787 C1793 1.465 . S
C1788 C1783 1.399 . S
C1788 C1787 1.394 . S
C1788 C1789 1.516 . S
C1789 C1788 1.516 . S
C1789 C1790 1.502 . S
C1789 C1791 1.561 . S
C1789 C1792 1.526 . S
C1790 H1774 0.959 . S
C1790 H1775 0.959 . S
C1790 H1776 0.961 . S
C1790 C1789 1.502 . S
C1791 H1777 0.960 . S
C1791 H1778 0.961 . S
C1791 H1779 0.959 . S
C1791 C1789 1.561 . S
C1792 C1789 1.526 . S
C1792 C1793 1.396 . S
C1792 C1797 1.390 . S
C1793 C1787 1.465 . S
C1793 C1792 1.396 . S
C1793 C1794 1.399 . S
C1794 H1780 0.929 . S
C1794 C1793 1.399 . S
C1794 C1795 1.385 . S
C1795 H1781 0.931 . S
C1795 C1794 1.385 . S
C1795 C1796 1.389 . S
C1796 C1795 1.389 . S
C1796 C1797 1.387 . S
C1797 H1782 0.930 . S
C1797 C1792 1.390 . S
C1797 C1796 1.387 . S
H1798 C1810 0.930 . S
H1799 C1812 0.930 . S
H1800 C1813 0.930 . S
H1801 C1817 0.959 . S
H1802 C1817 0.959 . S
H1803 C1817 0.961 . S
H1804 C1818 0.960 . S
H1805 C1818 0.961 . S
H1806 C1818 0.959 . S
H1807 C1821 0.929 . S
H1808 C1822 0.931 . S
H1809 C1824 0.930 . S
C1810 H1798 0.930 . S
C1810 C1811 1.399 . S
C1810 C1815 1.399 . S
C1811 C1810 1.399 . S
C1811 C1812 1.376 1_545 S
C1812 H1799 0.930 . S
C1812 C1811 1.376 1_565 S
C1812 C1813 1.388 . S
C1813 H1800 0.930 . S
C1813 C1812 1.388 . S
C1813 C1814 1.390 1_565 S
C1814 C1813 1.390 1_545 S
C1814 C1815 1.394 . S
C1814 C1820 1.465 1_545 S
C1815 C1810 1.399 . S
C1815 C1814 1.394 . S
C1815 C1816 1.516 . S
C1816 C1815 1.516 . S
C1816 C1817 1.502 . S
C1816 C1818 1.561 . S
C1816 C1819 1.526 . S
C1817 H1801 0.959 . S
C1817 H1802 0.959 . S
C1817 H1803 0.961 . S
C1817 C1816 1.502 . S
C1818 H1804 0.960 . S
C1818 H1805 0.961 . S
C1818 H1806 0.959 . S
C1818 C1816 1.561 . S
C1819 C1816 1.526 . S
C1819 C1820 1.396 1_545 S
C1819 C1824 1.390 . S
C1820 C1814 1.465 1_565 S
C1820 C1819 1.396 1_565 S
C1820 C1821 1.399 . S
C1821 H1807 0.929 . S
C1821 C1820 1.399 . S
C1821 C1822 1.385 . S
C1822 H1808 0.931 . S
C1822 C1821 1.385 . S
C1822 C1823 1.409 . S
C1823 C1822 1.409 . S
C1823 C1824 1.367 1_565 S
C1824 H1809 0.930 . S
C1824 C1819 1.390 . S
C1824 C1823 1.367 1_545 S
H1825 C1837 0.930 . S
H1826 C1839 0.930 . S
H1827 C1840 0.930 . S
H1828 C1844 0.959 . S
H1829 C1844 0.959 . S
H1830 C1844 0.961 . S
H1831 C1845 0.960 . S
H1832 C1845 0.961 . S
H1833 C1845 0.959 . S
H1834 C1848 0.929 . S
H1835 C1849 0.931 . S
H1836 C1851 0.930 . S
C1837 H1825 0.930 . S
C1837 C1838 1.399 . S
C1837 C1842 1.399 . S
C1838 C1837 1.399 . S
C1838 C1839 1.376 . S
C1839 H1826 0.930 . S
C1839 C1838 1.376 . S
C1839 C1840 1.388 . S
C1840 H1827 0.930 . S
C1840 C1839 1.388 . S
C1840 C1841 1.390 . S
C1841 C1840 1.390 . S
C1841 C1842 1.394 . S
C1841 C1847 1.465 . S
C1842 C1837 1.399 . S
C1842 C1841 1.394 . S
C1842 C1843 1.516 . S
C1843 C1842 1.516 . S
C1843 C1844 1.502 . S
C1843 C1845 1.561 . S
C1843 C1846 1.526 . S
C1844 H1828 0.959 . S
C1844 H1829 0.959 . S
C1844 H1830 0.961 . S
C1844 C1843 1.502 . S
C1845 H1831 0.960 . S
C1845 H1832 0.961 . S
C1845 H1833 0.959 . S
C1845 C1843 1.561 . S
C1846 C1843 1.526 . S
C1846 C1847 1.396 . S
C1846 C1851 1.390 . S
C1847 C1841 1.465 . S
C1847 C1846 1.396 . S
C1847 C1848 1.399 . S
C1848 H1834 0.929 . S
C1848 C1847 1.399 . S
C1848 C1849 1.385 . S
C1849 H1835 0.931 . S
C1849 C1848 1.385 . S
C1849 C1850 1.389 . S
C1850 C1849 1.389 . S
C1850 C1851 1.387 . S
C1851 H1836 0.930 . S
C1851 C1846 1.390 . S
C1851 C1850 1.387 . S
H1852 C1864 0.930 . S
H1853 C1866 0.930 . S
H1854 C1867 0.930 . S
H1855 C1871 0.959 1_545 S
H1856 C1871 0.959 . S
H1857 C1871 0.961 . S
H1858 C1872 0.960 . S
H1859 C1872 0.961 1_455 S
H1860 C1872 0.959 . S
H1861 C1875 0.929 . S
H1862 C1876 0.931 . S
H1863 C1878 0.930 1_455 S
C1864 H1852 0.930 . S
C1864 C1865 1.399 1_565 S
C1864 C1869 1.399 . S
C1865 C1864 1.399 1_545 S
C1865 C1866 1.376 . S
C1866 H1853 0.930 . S
C1866 C1865 1.376 . S
C1866 C1867 1.388 . S
C1867 H1854 0.930 . S
C1867 C1866 1.388 . S
C1867 C1868 1.390 1_545 S
C1868 C1867 1.390 1_565 S
C1868 C1869 1.394 . S
C1868 C1874 1.465 . S
C1869 C1864 1.399 . S
C1869 C1868 1.394 . S
C1869 C1870 1.516 . S
C1870 C1869 1.516 . S
C1870 C1871 1.502 1_655 S
C1870 C1872 1.561 . S
C1870 C1873 1.526 . S
C1871 H1855 0.959 1_565 S
C1871 H1856 0.959 . S
C1871 H1857 0.961 . S
C1871 C1870 1.502 1_455 S
C1872 H1858 0.960 . S
C1872 H1859 0.961 1_655 S
C1872 H1860 0.959 . S
C1872 C1870 1.561 . S
C1873 C1870 1.526 . S
C1873 C1874 1.396 . S
C1873 C1878 1.390 . S
C1874 C1868 1.465 . S
C1874 C1873 1.396 . S
C1874 C1875 1.399 . S
C1875 H1861 0.929 . S
C1875 C1874 1.399 . S
C1875 C1876 1.385 . S
C1876 H1862 0.931 . S
C1876 C1875 1.385 . S
C1876 C1877 1.389 . S
C1877 C1876 1.389 . S
C1877 C1878 1.387 . S
C1878 H1863 0.930 1_655 S
C1878 C1873 1.390 . S
C1878 C1877 1.387 . S
H1879 C1891 0.930 . S
H1880 C1893 0.930 . S
H1881 C1894 0.930 . S
H1882 C1898 0.959 . S
H1883 C1898 0.959 . S
H1884 C1898 0.961 . S
H1885 C1899 0.960 . S
H1886 C1899 0.961 . S
H1887 C1899 0.959 . S
H1888 C1902 0.929 . S
H1889 C1903 0.931 . S
H1890 C1905 0.930 . S
C1891 H1879 0.930 . S
C1891 C1892 1.399 . S
C1891 C1896 1.399 . S
C1892 C1891 1.399 . S
C1892 C1893 1.376 . S
C1893 H1880 0.930 . S
C1893 C1892 1.376 . S
C1893 C1894 1.388 . S
C1894 H1881 0.930 . S
C1894 C1893 1.388 . S
C1894 C1895 1.390 . S
C1895 C1894 1.390 . S
C1895 C1896 1.394 . S
C1895 C1901 1.465 . S
C1896 C1891 1.399 . S
C1896 C1895 1.394 . S
C1896 C1897 1.516 . S
C1897 C1896 1.516 . S
C1897 C1898 1.502 . S
C1897 C1899 1.561 . S
C1897 C1900 1.526 . S
C1898 H1882 0.959 . S
C1898 H1883 0.959 . S
C1898 H1884 0.961 . S
C1898 C1897 1.502 . S
C1899 H1885 0.960 . S
C1899 H1886 0.961 . S
C1899 H1887 0.959 . S
C1899 C1897 1.561 . S
C1900 C1897 1.526 . S
C1900 C1901 1.396 . S
C1900 C1905 1.390 . S
C1901 C1895 1.465 . S
C1901 C1900 1.396 . S
C1901 C1902 1.399 . S
C1902 H1888 0.929 . S
C1902 C1901 1.399 . S
C1902 C1903 1.385 . S
C1903 H1889 0.931 . S
C1903 C1902 1.385 . S
C1903 C1904 1.389 . S
C1904 C1903 1.389 . S
C1904 C1905 1.387 . S
C1905 H1890 0.930 . S
C1905 C1900 1.390 . S
C1905 C1904 1.387 . S
H1906 C1918 0.930 1_565 S
H1907 C1920 0.930 . S
H1908 C1921 0.930 . S
H1909 C1925 0.959 . S
H1910 C1925 0.959 1_565 S
H1911 C1925 0.961 1_565 S
H1912 C1926 0.960 . S
H1913 C1926 0.961 . S
H1914 C1926 0.959 . S
H1915 C1929 0.929 . S
H1916 C1930 0.931 . S
H1917 C1932 0.930 . S
C1918 H1906 0.930 1_545 S
C1918 C1919 1.399 . S
C1918 C1923 1.399 . S
C1919 C1918 1.399 . S
C1919 C1920 1.376 . S
C1920 H1907 0.930 . S
C1920 C1919 1.376 . S
C1920 C1921 1.388 . S
C1921 H1908 0.930 . S
C1921 C1920 1.388 . S
C1921 C1922 1.390 . S
C1922 C1921 1.390 . S
C1922 C1923 1.394 . S
C1922 C1928 1.465 . S
C1923 C1918 1.399 . S
C1923 C1922 1.394 . S
C1923 C1924 1.516 . S
C1924 C1923 1.516 . S
C1924 C1925 1.502 . S
C1924 C1926 1.561 1_545 S
C1924 C1927 1.526 . S
C1925 H1909 0.959 . S
C1925 H1910 0.959 1_545 S
C1925 H1911 0.961 1_545 S
C1925 C1924 1.502 . S
C1926 H1912 0.960 . S
C1926 H1913 0.961 . S
C1926 H1914 0.959 . S
C1926 C1924 1.561 1_565 S
C1927 C1924 1.526 . S
C1927 C1928 1.396 . S
C1927 C1932 1.390 . S
C1928 C1922 1.465 . S
C1928 C1927 1.396 . S
C1928 C1929 1.399 . S
C1929 H1915 0.929 . S
C1929 C1928 1.399 . S
C1929 C1930 1.385 . S
C1930 H1916 0.931 . S
C1930 C1929 1.385 . S
C1930 C1931 1.389 . S
C1931 C1930 1.389 . S
C1931 C1932 1.387 . S
C1932 H1917 0.930 . S
C1932 C1927 1.390 . S
C1932 C1931 1.387 . S
H1933 C1945 0.930 . S
H1934 C1947 0.930 . S
H1935 C1948 0.930 . S
H1936 C1952 0.959 . S
H1937 C1952 0.959 . S
H1938 C1952 0.961 . S
H1939 C1953 0.960 . S
H1940 C1953 0.961 . S
H1941 C1953 0.959 . S
H1942 C1956 0.929 . S
H1943 C1957 0.931 . S
H1944 C1959 0.930 . S
C1945 H1933 0.930 . S
C1945 C1946 1.399 . S
C1945 C1950 1.399 . S
C1946 C1945 1.399 . S
C1946 C1947 1.376 . S
C1947 H1934 0.930 . S
C1947 C1946 1.376 . S
C1947 C1948 1.388 . S
C1948 H1935 0.930 . S
C1948 C1947 1.388 . S
C1948 C1949 1.390 . S
C1949 C1948 1.390 . S
C1949 C1950 1.394 . S
C1949 C1955 1.465 . S
C1950 C1945 1.399 . S
C1950 C1949 1.394 . S
C1950 C1951 1.516 . S
C1951 C1950 1.516 . S
C1951 C1952 1.502 . S
C1951 C1953 1.561 . S
C1951 C1954 1.526 . S
C1952 H1936 0.959 . S
C1952 H1937 0.959 . S
C1952 H1938 0.961 . S
C1952 C1951 1.502 . S
C1953 H1939 0.960 . S
C1953 H1940 0.961 . S
C1953 H1941 0.959 . S
C1953 C1951 1.561 . S
C1954 C1951 1.526 . S
C1954 C1955 1.396 . S
C1954 C1959 1.390 . S
C1955 C1949 1.465 . S
C1955 C1954 1.396 . S
C1955 C1956 1.399 . S
C1956 H1942 0.929 . S
C1956 C1955 1.399 . S
C1956 C1957 1.385 . S
C1957 H1943 0.931 . S
C1957 C1956 1.385 . S
C1957 C1958 1.389 . S
C1958 C1957 1.389 . S
C1958 C1959 1.387 . S
C1959 H1944 0.930 . S
C1959 C1954 1.390 . S
C1959 C1958 1.387 . S
H1960 C1972 0.930 . S
H1961 C1974 0.930 1_556 S
H1962 C1975 0.930 1_556 S
H1963 C1979 0.956 1_545 S
H1964 C1979 0.959 . S
H1965 C1979 0.961 . S
H1966 C1980 0.960 . S
H1967 C1980 0.961 . S
H1968 C1980 0.959 . S
H1969 C1983 0.929 . S
H1970 C1984 0.931 . S
H1971 C1986 0.930 . S
C1972 H1960 0.930 . S
C1972 C1973 1.399 . S
C1972 C1977 1.399 . S
C1973 C1972 1.399 . S
C1973 C1974 1.376 . S
C1974 H1961 0.930 1_554 S
C1974 C1973 1.376 . S
C1974 C1975 1.388 . S
C1975 H1962 0.930 1_554 S
C1975 C1974 1.388 . S
C1975 C1976 1.390 . S
C1976 C1975 1.390 . S
C1976 C1977 1.394 . S
C1976 C1982 1.465 . S
C1977 C1972 1.399 . S
C1977 C1976 1.394 . S
C1977 C1978 1.516 . S
C1978 C1977 1.516 . S
C1978 C1979 1.502 . S
C1978 C1980 1.561 . S
C1978 C1981 1.526 . S
C1979 H1963 0.956 1_565 S
C1979 H1964 0.959 . S
C1979 H1965 0.961 . S
C1979 C1978 1.502 . S
C1980 H1966 0.960 . S
C1980 H1967 0.961 . S
C1980 H1968 0.959 . S
C1980 C1978 1.561 . S
C1981 C1978 1.526 . S
C1981 C1982 1.396 . S
C1981 C1986 1.390 . S
C1982 C1976 1.465 . S
C1982 C1981 1.396 . S
C1982 C1983 1.399 . S
C1983 H1969 0.929 . S
C1983 C1982 1.399 . S
C1983 C1984 1.385 . S
C1984 H1970 0.931 . S
C1984 C1983 1.385 . S
C1984 C1985 1.389 . S
C1985 C1984 1.389 . S
C1985 C1986 1.387 . S
C1986 H1971 0.930 . S
C1986 C1981 1.390 . S
C1986 C1985 1.387 . S
H1987 C1999 0.930 . S
H1988 C2001 0.930 . S
H1989 C2002 0.930 . S
H1990 C2006 0.959 . S
H1991 C2006 0.959 . S
H1992 C2006 0.961 . S
H1993 C2007 0.960 . S
H1994 C2007 0.961 . S
H1995 C2007 0.959 . S
H1996 C2010 0.929 . S
H1997 C2011 0.931 . S
H1998 C2013 0.930 . S
C1999 H1987 0.930 . S
C1999 C2000 1.399 . S
C1999 C2004 1.399 . S
C2000 C1999 1.399 . S
C2000 C2001 1.376 1_554 S
C2001 H1988 0.930 . S
C2001 C2000 1.376 1_556 S
C2001 C2002 1.388 . S
C2002 H1989 0.930 . S
C2002 C2001 1.388 . S
C2002 C2003 1.390 . S
C2003 C2002 1.390 . S
C2003 C2004 1.394 1_556 S
C2003 C2009 1.465 . S
C2004 C1999 1.399 . S
C2004 C2003 1.394 1_554 S
C2004 C2005 1.516 . S
C2005 C2004 1.516 . S
C2005 C2006 1.502 . S
C2005 C2007 1.561 . S
C2005 C2008 1.526 . S
C2006 H1990 0.959 . S
C2006 H1991 0.959 . S
C2006 H1992 0.961 . S
C2006 C2005 1.502 . S
C2007 H1993 0.960 . S
C2007 H1994 0.961 . S
C2007 H1995 0.959 . S
C2007 C2005 1.561 . S
C2008 C2005 1.526 . S
C2008 C2009 1.396 1_554 S
C2008 C2013 1.390 . S
C2009 C2003 1.465 . S
C2009 C2008 1.396 1_556 S
C2009 C2010 1.399 . S
C2010 H1996 0.929 . S
C2010 C2009 1.399 . S
C2010 C2011 1.385 . S
C2011 H1997 0.931 . S
C2011 C2010 1.385 . S
C2011 C2012 1.389 1_556 S
C2012 C2011 1.389 1_554 S
C2012 C2013 1.387 . S
C2013 H1998 0.930 . S
C2013 C2008 1.390 . S
C2013 C2012 1.387 . S
H2014 C2026 0.930 . S
H2015 C2028 0.930 . S
H2016 C2029 0.930 . S
H2017 C2033 0.959 . S
H2018 C2033 0.959 . S
H2019 C2033 0.961 . S
H2020 C2034 0.960 . S
H2021 C2034 0.961 . S
H2022 C2034 0.959 . S
H2023 C2037 0.929 . S
H2024 C2038 0.931 . S
H2025 C2040 0.930 . S
C2026 H2014 0.930 . S
C2026 C2027 1.399 . S
C2026 C2031 1.399 . S
C2027 C2026 1.399 . S
C2027 C2028 1.376 . S
C2028 H2015 0.930 . S
C2028 C2027 1.376 . S
C2028 C2029 1.388 . S
C2029 H2016 0.930 . S
C2029 C2028 1.388 . S
C2029 C2030 1.390 . S
C2030 C2029 1.390 . S
C2030 C2031 1.394 . S
C2030 C2036 1.465 . S
C2031 C2026 1.399 . S
C2031 C2030 1.394 . S
C2031 C2032 1.516 . S
C2032 C2031 1.516 . S
C2032 C2033 1.502 . S
C2032 C2034 1.561 . S
C2032 C2035 1.526 . S
C2033 H2017 0.959 . S
C2033 H2018 0.959 . S
C2033 H2019 0.961 . S
C2033 C2032 1.502 . S
C2034 H2020 0.960 . S
C2034 H2021 0.961 . S
C2034 H2022 0.959 . S
C2034 C2032 1.561 . S
C2035 C2032 1.526 . S
C2035 C2036 1.396 . S
C2035 C2040 1.390 . S
C2036 C2030 1.465 . S
C2036 C2035 1.396 . S
C2036 C2037 1.399 . S
C2037 H2023 0.929 . S
C2037 C2036 1.399 . S
C2037 C2038 1.385 . S
C2038 H2024 0.931 . S
C2038 C2037 1.385 . S
C2038 C2039 1.389 . S
C2039 C2038 1.389 . S
C2039 C2040 1.387 . S
C2040 H2025 0.930 . S
C2040 C2035 1.390 . S
C2040 C2039 1.387 . S
H2041 C2053 0.930 . S
H2042 C2055 0.930 . S
H2043 C2056 0.930 . S
H2044 C2060 0.959 . S
H2045 C2060 0.959 . S
H2046 C2060 0.961 . S
H2047 C2061 0.960 . S
H2048 C2061 0.961 . S
H2049 C2061 0.959 . S
H2050 C2064 0.929 . S
H2051 C2065 0.931 . S
H2052 C2067 0.930 . S
C2053 H2041 0.930 . S
C2053 C2054 1.399 . S
C2053 C2058 1.399 . S
C2054 C2053 1.399 . S
C2054 C2055 1.376 . S
C2055 H2042 0.930 . S
C2055 C2054 1.376 . S
C2055 C2056 1.388 . S
C2056 H2043 0.930 . S
C2056 C2055 1.388 . S
C2056 C2057 1.390 . S
C2057 C2056 1.390 . S
C2057 C2058 1.394 . S
C2057 C2063 1.465 . S
C2058 C2053 1.399 . S
C2058 C2057 1.394 . S
C2058 C2059 1.516 . S
C2059 C2058 1.516 . S
C2059 C2060 1.502 . S
C2059 C2061 1.561 . S
C2059 C2062 1.526 . S
C2060 H2044 0.959 . S
C2060 H2045 0.959 . S
C2060 H2046 0.961 . S
C2060 C2059 1.502 . S
C2061 H2047 0.960 . S
C2061 H2048 0.961 . S
C2061 H2049 0.959 . S
C2061 C2059 1.561 . S
C2062 C2059 1.526 . S
C2062 C2063 1.396 . S
C2062 C2067 1.390 . S
C2063 C2057 1.465 . S
C2063 C2062 1.396 . S
C2063 C2064 1.399 . S
C2064 H2050 0.929 . S
C2064 C2063 1.399 . S
C2064 C2065 1.385 . S
C2065 H2051 0.931 . S
C2065 C2064 1.385 . S
C2065 C2066 1.389 . S
C2066 C2065 1.389 . S
C2066 C2067 1.387 . S
C2067 H2052 0.930 . S
C2067 C2062 1.390 . S
C2067 C2066 1.387 . S
H2068 C2080 0.930 . S
H2069 C2082 0.930 . S
H2070 C2083 0.930 . S
H2071 C2087 0.959 . S
H2072 C2087 0.959 . S
H2073 C2087 0.961 . S
H2074 C2088 0.960 . S
H2075 C2088 0.961 . S
H2076 C2088 0.959 . S
H2077 C2091 0.929 . S
H2078 C2092 0.931 . S
H2079 C2094 0.930 . S
C2080 H2068 0.930 . S
C2080 C2081 1.399 . S
C2080 C2085 1.399 . S
C2081 C2080 1.399 . S
C2081 C2082 1.376 . S
C2082 H2069 0.930 . S
C2082 C2081 1.376 . S
C2082 C2083 1.388 . S
C2083 H2070 0.930 . S
C2083 C2082 1.388 . S
C2083 C2084 1.390 . S
C2084 C2083 1.390 . S
C2084 C2085 1.394 . S
C2084 C2090 1.465 . S
C2085 C2080 1.399 . S
C2085 C2084 1.394 . S
C2085 C2086 1.516 . S
C2086 C2085 1.516 . S
C2086 C2087 1.502 . S
C2086 C2088 1.561 . S
C2086 C2089 1.526 . S
C2087 H2071 0.959 . S
C2087 H2072 0.959 . S
C2087 H2073 0.961 . S
C2087 C2086 1.502 . S
C2088 H2074 0.960 . S
C2088 H2075 0.961 . S
C2088 H2076 0.959 . S
C2088 C2086 1.561 . S
C2089 C2086 1.526 . S
C2089 C2090 1.396 . S
C2089 C2094 1.390 . S
C2090 C2084 1.465 . S
C2090 C2089 1.396 . S
C2090 C2091 1.399 . S
C2091 H2077 0.929 . S
C2091 C2090 1.399 . S
C2091 C2092 1.385 . S
C2092 H2078 0.931 . S
C2092 C2091 1.385 . S
C2092 C2093 1.389 . S
C2093 C2092 1.389 . S
C2093 C2094 1.387 . S
C2094 H2079 0.930 . S
C2094 C2089 1.390 . S
C2094 C2093 1.387 . S
H2095 C2107 0.930 . S
H2096 C2109 0.930 . S
H2097 C2110 0.930 . S
H2098 C2114 0.959 . S
H2099 C2114 0.959 . S
H2100 C2114 0.961 . S
H2101 C2115 0.960 . S
H2102 C2115 0.961 . S
H2103 C2115 0.959 . S
H2104 C2118 0.929 . S
H2105 C2119 0.931 . S
H2106 C2121 0.930 . S
C2107 H2095 0.930 . S
C2107 C2108 1.399 . S
C2107 C2112 1.399 . S
C2108 C2107 1.399 . S
C2108 C2109 1.376 . S
C2109 H2096 0.930 . S
C2109 C2108 1.376 . S
C2109 C2110 1.388 . S
C2110 H2097 0.930 . S
C2110 C2109 1.388 . S
C2110 C2111 1.390 . S
C2111 C2110 1.390 . S
C2111 C2112 1.394 . S
C2111 C2117 1.465 . S
C2112 C2107 1.399 . S
C2112 C2111 1.394 . S
C2112 C2113 1.516 . S
C2113 C2112 1.516 . S
C2113 C2114 1.502 . S
C2113 C2115 1.561 . S
C2113 C2116 1.526 . S
C2114 H2098 0.959 . S
C2114 H2099 0.959 . S
C2114 H2100 0.961 . S
C2114 C2113 1.502 . S
C2115 H2101 0.960 . S
C2115 H2102 0.961 . S
C2115 H2103 0.959 . S
C2115 C2113 1.561 . S
C2116 C2113 1.526 . S
C2116 C2117 1.396 . S
C2116 C2121 1.390 . S
C2117 C2111 1.465 . S
C2117 C2116 1.396 . S
C2117 C2118 1.399 . S
C2118 H2104 0.929 . S
C2118 C2117 1.399 . S
C2118 C2119 1.385 . S
C2119 H2105 0.931 . S
C2119 C2118 1.385 . S
C2119 C2120 1.389 . S
C2120 C2119 1.389 . S
C2120 C2121 1.387 . S
C2121 H2106 0.930 . S
C2121 C2116 1.390 . S
C2121 C2120 1.387 . S
H2122 C2134 0.930 . S
H2123 C2136 0.930 . S
H2124 C2137 0.930 . S
H2125 C2141 0.959 . S
H2126 C2141 0.959 . S
H2127 C2141 0.961 . S
H2128 C2142 0.960 . S
H2129 C2142 0.961 . S
H2130 C2142 0.959 . S
H2131 C2145 0.929 . S
H2132 C2146 0.931 . S
H2133 C2148 0.930 . S
C2134 H2122 0.930 . S
C2134 C2135 1.399 . S
C2134 C2139 1.399 . S
C2135 C2134 1.399 . S
C2135 C2136 1.376 . S
C2136 H2123 0.930 . S
C2136 C2135 1.376 . S
C2136 C2137 1.388 . S
C2137 H2124 0.930 . S
C2137 C2136 1.388 . S
C2137 C2138 1.390 . S
C2138 C2137 1.390 . S
C2138 C2139 1.394 . S
C2138 C2144 1.465 . S
C2139 C2134 1.399 . S
C2139 C2138 1.394 . S
C2139 C2140 1.516 . S
C2140 C2139 1.516 . S
C2140 C2141 1.502 . S
C2140 C2142 1.561 . S
C2140 C2143 1.526 . S
C2141 H2125 0.959 . S
C2141 H2126 0.959 . S
C2141 H2127 0.961 . S
C2141 C2140 1.502 . S
C2142 H2128 0.960 . S
C2142 H2129 0.961 . S
C2142 H2130 0.959 . S
C2142 C2140 1.561 . S
C2143 C2140 1.526 . S
C2143 C2144 1.396 . S
C2143 C2148 1.390 . S
C2144 C2138 1.465 . S
C2144 C2143 1.396 . S
C2144 C2145 1.399 . S
C2145 H2131 0.929 . S
C2145 C2144 1.399 . S
C2145 C2146 1.385 . S
C2146 H2132 0.931 . S
C2146 C2145 1.385 . S
C2146 C2147 1.389 . S
C2147 C2146 1.389 . S
C2147 C2148 1.387 . S
C2148 H2133 0.930 . S
C2148 C2143 1.390 . S
C2148 C2147 1.387 . S
H2149 C2161 0.930 . S
H2150 C2163 0.930 . S
H2151 C2164 0.930 . S
H2152 C2168 0.959 . S
H2153 C2168 0.959 . S
H2154 C2168 0.961 . S
H2155 C2169 0.960 . S
H2156 C2169 0.961 . S
H2157 C2169 0.959 . S
H2158 C2172 0.929 . S
H2159 C2173 0.931 . S
H2160 C2175 0.930 . S
C2161 H2149 0.930 . S
C2161 C2162 1.399 . S
C2161 C2166 1.399 . S
C2162 C2161 1.399 . S
C2162 C2163 1.376 . S
C2163 H2150 0.930 . S
C2163 C2162 1.376 . S
C2163 C2164 1.388 . S
C2164 H2151 0.930 . S
C2164 C2163 1.388 . S
C2164 C2165 1.390 . S
C2165 C2164 1.390 . S
C2165 C2166 1.394 . S
C2165 C2171 1.465 . S
C2166 C2161 1.399 . S
C2166 C2165 1.394 . S
C2166 C2167 1.516 . S
C2167 C2166 1.516 . S
C2167 C2168 1.502 . S
C2167 C2169 1.561 . S
C2167 C2170 1.526 . S
C2168 H2152 0.959 . S
C2168 H2153 0.959 . S
C2168 H2154 0.961 . S
C2168 C2167 1.502 . S
C2169 H2155 0.960 . S
C2169 H2156 0.961 . S
C2169 H2157 0.959 . S
C2169 C2167 1.561 . S
C2170 C2167 1.526 . S
C2170 C2171 1.396 . S
C2170 C2175 1.390 . S
C2171 C2165 1.465 . S
C2171 C2170 1.396 . S
C2171 C2172 1.399 . S
C2172 H2158 0.929 . S
C2172 C2171 1.399 . S
C2172 C2173 1.385 . S
C2173 H2159 0.931 . S
C2173 C2172 1.385 . S
C2173 C2174 1.389 . S
C2174 C2173 1.389 . S
C2174 C2175 1.387 . S
C2175 H2160 0.930 . S
C2175 C2170 1.390 . S
C2175 C2174 1.387 . S
H2176 C2188 0.930 . S
H2177 C2190 0.930 . S
H2178 C2191 0.930 . S
H2179 C2195 0.959 . S
H2180 C2195 0.959 . S
H2181 C2195 0.961 . S
H2182 C2196 0.960 . S
H2183 C2196 0.961 . S
H2184 C2196 0.959 . S
H2185 C2199 0.929 . S
H2186 C2200 0.931 . S
H2187 C2202 0.930 . S
C2188 H2176 0.930 . S
C2188 C2189 1.399 . S
C2188 C2193 1.399 . S
C2189 C2188 1.399 . S
C2189 C2190 1.376 . S
C2190 H2177 0.930 . S
C2190 C2189 1.376 . S
C2190 C2191 1.388 . S
C2191 H2178 0.930 . S
C2191 C2190 1.388 . S
C2191 C2192 1.390 . S
C2192 C2191 1.390 . S
C2192 C2193 1.394 . S
C2192 C2198 1.465 . S
C2193 C2188 1.399 . S
C2193 C2192 1.394 . S
C2193 C2194 1.516 . S
C2194 C2193 1.516 . S
C2194 C2195 1.502 . S
C2194 C2196 1.561 . S
C2194 C2197 1.526 . S
C2195 H2179 0.959 . S
C2195 H2180 0.959 . S
C2195 H2181 0.961 . S
C2195 C2194 1.502 . S
C2196 H2182 0.960 . S
C2196 H2183 0.961 . S
C2196 H2184 0.959 . S
C2196 C2194 1.561 . S
C2197 C2194 1.526 . S
C2197 C2198 1.396 . S
C2197 C2202 1.390 . S
C2198 C2192 1.465 . S
C2198 C2197 1.396 . S
C2198 C2199 1.399 . S
C2199 H2185 0.929 . S
C2199 C2198 1.399 . S
C2199 C2200 1.385 . S
C2200 H2186 0.931 . S
C2200 C2199 1.385 . S
C2200 C2201 1.389 . S
C2201 C2200 1.389 . S
C2201 C2202 1.387 . S
C2202 H2187 0.930 . S
C2202 C2197 1.390 . S
C2202 C2201 1.387 . S
H2203 C2215 0.930 . S
H2204 C2217 0.930 . S
H2205 C2218 0.930 . S
H2206 C2222 0.959 . S
H2207 C2222 0.959 . S
H2208 C2222 0.961 . S
H2209 C2223 0.960 . S
H2210 C2223 0.961 . S
H2211 C2223 0.959 . S
H2212 C2226 0.929 . S
H2213 C2227 0.931 . S
H2214 C2229 0.930 . S
C2215 H2203 0.930 . S
C2215 C2216 1.399 . S
C2215 C2220 1.399 . S
C2216 C2215 1.399 . S
C2216 C2217 1.376 . S
C2217 H2204 0.930 . S
C2217 C2216 1.376 . S
C2217 C2218 1.388 . S
C2218 H2205 0.930 . S
C2218 C2217 1.388 . S
C2218 C2219 1.390 . S
C2219 C2218 1.390 . S
C2219 C2220 1.394 . S
C2219 C2225 1.465 . S
C2220 C2215 1.399 . S
C2220 C2219 1.394 . S
C2220 C2221 1.516 . S
C2221 C2220 1.516 . S
C2221 C2222 1.502 . S
C2221 C2223 1.561 . S
C2221 C2224 1.526 . S
C2222 H2206 0.959 . S
C2222 H2207 0.959 . S
C2222 H2208 0.961 . S
C2222 C2221 1.502 . S
C2223 H2209 0.960 . S
C2223 H2210 0.961 . S
C2223 H2211 0.959 . S
C2223 C2221 1.561 . S
C2224 C2221 1.526 . S
C2224 C2225 1.396 . S
C2224 C2229 1.390 . S
C2225 C2219 1.465 . S
C2225 C2224 1.396 . S
C2225 C2226 1.399 . S
C2226 H2212 0.929 . S
C2226 C2225 1.399 . S
C2226 C2227 1.385 . S
C2227 H2213 0.931 . S
C2227 C2226 1.385 . S
C2227 C2228 1.389 . S
C2228 C2227 1.389 . S
C2228 C2229 1.387 . S
C2229 H2214 0.930 . S
C2229 C2224 1.390 . S
C2229 C2228 1.387 . S
H2230 C2242 0.930 . S
H2231 C2244 0.930 . S
H2232 C2245 0.930 . S
H2233 C2249 0.959 . S
H2234 C2249 0.959 . S
H2235 C2249 0.961 . S
H2236 C2250 0.960 . S
H2237 C2250 0.961 . S
H2238 C2250 0.959 . S
H2239 C2253 0.929 . S
H2240 C2254 0.931 . S
H2241 C2256 0.930 . S
C2242 H2230 0.930 . S
C2242 C2243 1.399 . S
C2242 C2247 1.399 . S
C2243 C2242 1.399 . S
C2243 C2244 1.376 . S
C2244 H2231 0.930 . S
C2244 C2243 1.376 . S
C2244 C2245 1.388 . S
C2245 H2232 0.930 . S
C2245 C2244 1.388 . S
C2245 C2246 1.390 . S
C2246 C2245 1.390 . S
C2246 C2247 1.394 . S
C2246 C2252 1.465 . S
C2247 C2242 1.399 . S
C2247 C2246 1.394 . S
C2247 C2248 1.516 . S
C2248 C2247 1.516 . S
C2248 C2249 1.502 . S
C2248 C2250 1.561 . S
C2248 C2251 1.526 . S
C2249 H2233 0.959 . S
C2249 H2234 0.959 . S
C2249 H2235 0.961 . S
C2249 C2248 1.502 . S
C2250 H2236 0.960 . S
C2250 H2237 0.961 . S
C2250 H2238 0.959 . S
C2250 C2248 1.561 . S
C2251 C2248 1.526 . S
C2251 C2252 1.396 . S
C2251 C2256 1.390 . S
C2252 C2246 1.465 . S
C2252 C2251 1.396 . S
C2252 C2253 1.399 . S
C2253 H2239 0.929 . S
C2253 C2252 1.399 . S
C2253 C2254 1.385 . S
C2254 H2240 0.931 . S
C2254 C2253 1.385 . S
C2254 C2255 1.389 . S
C2255 C2254 1.389 . S
C2255 C2256 1.387 . S
C2256 H2241 0.930 . S
C2256 C2251 1.390 . S
C2256 C2255 1.387 . S
H2257 C2269 0.930 . S
H2258 C2271 0.930 . S
H2259 C2272 0.930 . S
H2260 C2276 0.959 . S
H2261 C2276 0.959 . S
H2262 C2276 0.961 . S
H2263 C2277 0.960 . S
H2264 C2277 0.961 . S
H2265 C2277 0.959 . S
H2266 C2280 0.929 . S
H2267 C2281 0.931 . S
H2268 C2283 0.930 . S
C2269 H2257 0.930 . S
C2269 C2270 1.399 . S
C2269 C2274 1.399 . S
C2270 C2269 1.399 . S
C2270 C2271 1.376 . S
C2271 H2258 0.930 . S
C2271 C2270 1.376 . S
C2271 C2272 1.388 . S
C2272 H2259 0.930 . S
C2272 C2271 1.388 . S
C2272 C2273 1.390 . S
C2273 C2272 1.390 . S
C2273 C2274 1.394 . S
C2273 C2279 1.465 . S
C2274 C2269 1.399 . S
C2274 C2273 1.394 . S
C2274 C2275 1.516 . S
C2275 C2274 1.516 . S
C2275 C2276 1.502 . S
C2275 C2277 1.561 . S
C2275 C2278 1.526 . S
C2276 H2260 0.959 . S
C2276 H2261 0.959 . S
C2276 H2262 0.961 . S
C2276 C2275 1.502 . S
C2277 H2263 0.960 . S
C2277 H2264 0.961 . S
C2277 H2265 0.959 . S
C2277 C2275 1.561 . S
C2278 C2275 1.526 . S
C2278 C2279 1.396 . S
C2278 C2283 1.390 . S
C2279 C2273 1.465 . S
C2279 C2278 1.396 . S
C2279 C2280 1.399 . S
C2280 H2266 0.929 . S
C2280 C2279 1.399 . S
C2280 C2281 1.385 . S
C2281 H2267 0.931 . S
C2281 C2280 1.385 . S
C2281 C2282 1.389 . S
C2282 C2281 1.389 . S
C2282 C2283 1.387 . S
C2283 H2268 0.930 . S
C2283 C2278 1.390 . S
C2283 C2282 1.387 . S
H2284 C2296 0.930 . S
H2285 C2298 0.930 . S
H2286 C2299 0.930 . S
H2287 C2303 0.959 . S
H2288 C2303 0.959 . S
H2289 C2303 0.961 . S
H2290 C2304 0.960 . S
H2291 C2304 0.961 . S
H2292 C2304 0.959 . S
H2293 C2307 0.929 . S
H2294 C2308 0.931 . S
H2295 C2310 0.930 . S
C2296 H2284 0.930 . S
C2296 C2297 1.399 . S
C2296 C2301 1.399 . S
C2297 C2296 1.399 . S
C2297 C2298 1.376 . S
C2298 H2285 0.930 . S
C2298 C2297 1.376 . S
C2298 C2299 1.388 . S
C2299 H2286 0.930 . S
C2299 C2298 1.388 . S
C2299 C2300 1.390 . S
C2300 C2299 1.390 . S
C2300 C2301 1.394 . S
C2300 C2306 1.465 . S
C2301 C2296 1.399 . S
C2301 C2300 1.394 . S
C2301 C2302 1.516 . S
C2302 C2301 1.516 . S
C2302 C2303 1.502 . S
C2302 C2304 1.561 . S
C2302 C2305 1.526 . S
C2303 H2287 0.959 . S
C2303 H2288 0.959 . S
C2303 H2289 0.961 . S
C2303 C2302 1.502 . S
C2304 H2290 0.960 . S
C2304 H2291 0.961 . S
C2304 H2292 0.959 . S
C2304 C2302 1.561 . S
C2305 C2302 1.526 . S
C2305 C2306 1.396 . S
C2305 C2310 1.390 . S
C2306 C2300 1.465 . S
C2306 C2305 1.396 . S
C2306 C2307 1.399 . S
C2307 H2293 0.929 . S
C2307 C2306 1.399 . S
C2307 C2308 1.385 1_556 S
C2308 H2294 0.931 . S
C2308 C2307 1.385 1_554 S
C2308 C2309 1.390 1_554 S
C2309 C2308 1.390 1_556 S
C2309 C2310 1.386 . S
C2310 H2295 0.930 . S
C2310 C2305 1.390 . S
C2310 C2309 1.386 . S
H2311 C2323 0.930 . S
H2312 C2325 0.930 . S
H2313 C2326 0.930 . S
H2314 C2330 0.959 . S
H2315 C2330 0.959 . S
H2316 C2330 0.961 . S
H2317 C2331 0.960 . S
H2318 C2331 0.961 . S
H2319 C2331 0.959 . S
H2320 C2334 0.929 . S
H2321 C2335 0.931 . S
H2322 C2337 0.930 . S
C2323 H2311 0.930 . S
C2323 C2324 1.399 1_655 S
C2323 C2328 1.399 . S
C2324 C2323 1.399 1_455 S
C2324 C2325 1.376 . S
C2325 H2312 0.930 . S
C2325 C2324 1.376 . S
C2325 C2326 1.388 1_455 S
C2326 H2313 0.930 . S
C2326 C2325 1.388 1_655 S
C2326 C2327 1.390 . S
C2327 C2326 1.390 . S
C2327 C2328 1.394 . S
C2327 C2333 1.465 . S
C2328 C2323 1.399 . S
C2328 C2327 1.394 . S
C2328 C2329 1.516 . S
C2329 C2328 1.516 . S
C2329 C2330 1.502 . S
C2329 C2331 1.561 . S
C2329 C2332 1.526 . S
C2330 H2314 0.959 . S
C2330 H2315 0.959 . S
C2330 H2316 0.961 . S
C2330 C2329 1.502 . S
C2331 H2317 0.960 . S
C2331 H2318 0.961 . S
C2331 H2319 0.959 . S
C2331 C2329 1.561 . S
C2332 C2329 1.526 . S
C2332 C2333 1.396 . S
C2332 C2337 1.390 . S
C2333 C2327 1.465 . S
C2333 C2332 1.396 . S
C2333 C2334 1.399 . S
C2334 H2320 0.929 . S
C2334 C2333 1.399 . S
C2334 C2335 1.385 . S
C2335 H2321 0.931 . S
C2335 C2334 1.385 . S
C2335 C2336 1.389 . S
C2336 C2335 1.389 . S
C2336 C2337 1.387 . S
C2337 H2322 0.930 . S
C2337 C2332 1.390 . S
C2337 C2336 1.387 . S
H2338 C2350 0.930 . S
H2339 C2352 0.930 . S
H2340 C2353 0.930 . S
H2341 C2357 0.959 . S
H2342 C2357 0.959 . S
H2343 C2357 0.961 . S
H2344 C2358 0.960 . S
H2345 C2358 0.961 . S
H2346 C2358 0.959 . S
H2347 C2361 0.929 . S
H2348 C2362 0.931 . S
H2349 C2364 0.930 . S
C2350 H2338 0.930 . S
C2350 C2351 1.399 . S
C2350 C2355 1.399 . S
C2351 C2350 1.399 . S
C2351 C2352 1.376 . S
C2352 H2339 0.930 . S
C2352 C2351 1.376 . S
C2352 C2353 1.388 . S
C2353 H2340 0.930 . S
C2353 C2352 1.388 . S
C2353 C2354 1.390 . S
C2354 C2353 1.390 . S
C2354 C2355 1.394 . S
C2354 C2360 1.465 . S
C2355 C2350 1.399 . S
C2355 C2354 1.394 . S
C2355 C2356 1.516 . S
C2356 C2355 1.516 . S
C2356 C2357 1.502 . S
C2356 C2358 1.561 . S
C2356 C2359 1.526 . S
C2357 H2341 0.959 . S
C2357 H2342 0.959 . S
C2357 H2343 0.961 . S
C2357 C2356 1.502 . S
C2358 H2344 0.960 . S
C2358 H2345 0.961 . S
C2358 H2346 0.959 . S
C2358 C2356 1.561 . S
C2359 C2356 1.526 . S
C2359 C2360 1.396 . S
C2359 C2364 1.390 . S
C2360 C2354 1.465 . S
C2360 C2359 1.396 . S
C2360 C2361 1.399 . S
C2361 H2347 0.929 . S
C2361 C2360 1.399 . S
C2361 C2362 1.385 . S
C2362 H2348 0.931 . S
C2362 C2361 1.385 . S
C2362 C2363 1.389 . S
C2363 C2362 1.389 . S
C2363 C2364 1.387 . S
C2364 H2349 0.930 . S
C2364 C2359 1.390 . S
C2364 C2363 1.387 . S
H2365 C2377 0.930 . S
H2366 C2379 0.930 . S
H2367 C2380 0.930 . S
H2368 C2384 0.959 . S
H2369 C2384 0.959 . S
H2370 C2384 0.961 . S
H2371 C2385 0.960 . S
H2372 C2385 0.961 . S
H2373 C2385 0.959 . S
H2374 C2388 0.929 . S
H2375 C2389 0.931 . S
H2376 C2391 0.930 . S
C2377 H2365 0.930 . S
C2377 C2378 1.399 . S
C2377 C2382 1.399 . S
C2378 C2377 1.399 . S
C2378 C2379 1.376 . S
C2379 H2366 0.930 . S
C2379 C2378 1.376 . S
C2379 C2380 1.388 . S
C2380 H2367 0.930 . S
C2380 C2379 1.388 . S
C2380 C2381 1.390 . S
C2381 C2380 1.390 . S
C2381 C2382 1.394 . S
C2381 C2387 1.465 . S
C2382 C2377 1.399 . S
C2382 C2381 1.394 . S
C2382 C2383 1.516 . S
C2383 C2382 1.516 . S
C2383 C2384 1.502 . S
C2383 C2385 1.561 . S
C2383 C2386 1.526 . S
C2384 H2368 0.959 . S
C2384 H2369 0.959 . S
C2384 H2370 0.961 . S
C2384 C2383 1.502 . S
C2385 H2371 0.960 . S
C2385 H2372 0.961 . S
C2385 H2373 0.959 . S
C2385 C2383 1.561 . S
C2386 C2383 1.526 . S
C2386 C2387 1.396 . S
C2386 C2391 1.390 . S
C2387 C2381 1.465 . S
C2387 C2386 1.396 . S
C2387 C2388 1.399 . S
C2388 H2374 0.929 . S
C2388 C2387 1.399 . S
C2388 C2389 1.385 . S
C2389 H2375 0.931 . S
C2389 C2388 1.385 . S
C2389 C2390 1.389 . S
C2390 C2389 1.389 . S
C2390 C2391 1.387 . S
C2391 H2376 0.930 . S
C2391 C2386 1.390 . S
C2391 C2390 1.387 . S
H2392 C2404 0.930 . S
H2393 C2406 0.930 . S
H2394 C2407 0.930 . S
H2395 C2411 0.959 . S
H2396 C2411 0.959 . S
H2397 C2411 0.961 . S
H2398 C2412 0.960 . S
H2399 C2412 0.961 . S
H2400 C2412 0.959 . S
H2401 C2415 0.929 . S
H2402 C2416 0.931 . S
H2403 C2418 0.930 . S
C2404 H2392 0.930 . S
C2404 C2405 1.399 . S
C2404 C2409 1.399 . S
C2405 C2404 1.399 . S
C2405 C2406 1.376 . S
C2406 H2393 0.930 . S
C2406 C2405 1.376 . S
C2406 C2407 1.388 . S
C2407 H2394 0.930 . S
C2407 C2406 1.388 . S
C2407 C2408 1.390 . S
C2408 C2407 1.390 . S
C2408 C2409 1.394 . S
C2408 C2414 1.465 . S
C2409 C2404 1.399 . S
C2409 C2408 1.394 . S
C2409 C2410 1.516 . S
C2410 C2409 1.516 . S
C2410 C2411 1.502 . S
C2410 C2412 1.561 . S
C2410 C2413 1.526 . S
C2411 H2395 0.959 . S
C2411 H2396 0.959 . S
C2411 H2397 0.961 . S
C2411 C2410 1.502 . S
C2412 H2398 0.960 . S
C2412 H2399 0.961 . S
C2412 H2400 0.959 . S
C2412 C2410 1.561 . S
C2413 C2410 1.526 . S
C2413 C2414 1.396 . S
C2413 C2418 1.390 . S
C2414 C2408 1.465 . S
C2414 C2413 1.396 . S
C2414 C2415 1.399 . S
C2415 H2401 0.929 . S
C2415 C2414 1.399 . S
C2415 C2416 1.385 . S
C2416 H2402 0.931 . S
C2416 C2415 1.385 . S
C2416 C2417 1.389 . S
C2417 C2416 1.389 . S
C2417 C2418 1.387 . S
C2418 H2403 0.930 . S
C2418 C2413 1.390 . S
C2418 C2417 1.387 . S
H2419 C2431 0.930 . S
H2420 C2433 0.930 . S
H2421 C2434 0.930 . S
H2422 C2438 0.959 . S
H2423 C2438 0.959 . S
H2424 C2438 0.961 . S
H2425 C2439 0.960 . S
H2426 C2439 0.961 . S
H2427 C2439 0.959 . S
H2428 C2442 0.929 . S
H2429 C2443 0.931 . S
H2430 C2445 0.930 . S
C2431 H2419 0.930 . S
C2431 C2432 1.399 . S
C2431 C2436 1.399 . S
C2432 C2431 1.399 . S
C2432 C2433 1.376 . S
C2433 H2420 0.930 . S
C2433 C2432 1.376 . S
C2433 C2434 1.388 . S
C2434 H2421 0.930 . S
C2434 C2433 1.388 . S
C2434 C2435 1.390 . S
C2435 C2434 1.390 . S
C2435 C2436 1.394 . S
C2435 C2441 1.465 . S
C2436 C2431 1.399 . S
C2436 C2435 1.394 . S
C2436 C2437 1.516 . S
C2437 C2436 1.516 . S
C2437 C2438 1.502 . S
C2437 C2439 1.561 . S
C2437 C2440 1.526 . S
C2438 H2422 0.959 . S
C2438 H2423 0.959 . S
C2438 H2424 0.961 . S
C2438 C2437 1.502 . S
C2439 H2425 0.960 . S
C2439 H2426 0.961 . S
C2439 H2427 0.959 . S
C2439 C2437 1.561 . S
C2440 C2437 1.526 . S
C2440 C2441 1.396 . S
C2440 C2445 1.390 . S
C2441 C2435 1.465 . S
C2441 C2440 1.396 . S
C2441 C2442 1.399 . S
C2442 H2428 0.929 . S
C2442 C2441 1.399 . S
C2442 C2443 1.385 . S
C2443 H2429 0.931 . S
C2443 C2442 1.385 . S
C2443 C2444 1.389 . S
C2444 C2443 1.389 . S
C2444 C2445 1.387 . S
C2445 H2430 0.930 . S
C2445 C2440 1.390 . S
C2445 C2444 1.387 . S
H2446 C2458 0.930 . S
H2447 C2460 0.930 . S
H2448 C2461 0.930 . S
H2449 C2465 0.959 . S
H2450 C2465 0.959 . S
H2451 C2465 0.961 . S
H2452 C2466 0.960 . S
H2453 C2466 0.961 . S
H2454 C2466 0.959 . S
H2455 C2469 0.929 . S
H2456 C2470 0.931 . S
H2457 C2472 0.930 . S
C2458 H2446 0.930 . S
C2458 C2459 1.399 . S
C2458 C2463 1.399 . S
C2459 C2458 1.399 . S
C2459 C2460 1.376 . S
C2460 H2447 0.930 . S
C2460 C2459 1.376 . S
C2460 C2461 1.388 . S
C2461 H2448 0.930 . S
C2461 C2460 1.388 . S
C2461 C2462 1.390 . S
C2462 C2461 1.390 . S
C2462 C2463 1.394 . S
C2462 C2468 1.465 . S
C2463 C2458 1.399 . S
C2463 C2462 1.394 . S
C2463 C2464 1.516 . S
C2464 C2463 1.516 . S
C2464 C2465 1.502 1_655 S
C2464 C2466 1.561 . S
C2464 C2467 1.526 . S
C2465 H2449 0.959 . S
C2465 H2450 0.959 . S
C2465 H2451 0.961 . S
C2465 C2464 1.502 1_455 S
C2466 H2452 0.960 . S
C2466 H2453 0.961 . S
C2466 H2454 0.959 . S
C2466 C2464 1.561 . S
C2467 C2464 1.526 . S
C2467 C2468 1.396 . S
C2467 C2472 1.390 1_655 S
C2468 C2462 1.465 . S
C2468 C2467 1.396 . S
C2468 C2469 1.399 . S
C2469 H2455 0.929 . S
C2469 C2468 1.399 . S
C2469 C2470 1.385 . S
C2470 H2456 0.931 . S
C2470 C2469 1.385 . S
C2470 C2471 1.368 1_655 S
C2471 C2470 1.368 1_455 S
C2471 C2472 1.388 . S
C2472 H2457 0.930 . S
C2472 C2467 1.390 1_455 S
C2472 C2471 1.388 . S
H2473 C2485 0.930 . S
H2474 C2487 0.930 . S
H2475 C2488 0.930 . S
H2476 C2492 0.959 . S
H2477 C2492 0.959 . S
H2478 C2492 0.961 . S
H2479 C2493 0.960 . S
H2480 C2493 0.961 . S
H2481 C2493 0.959 . S
H2482 C2496 0.929 . S
H2483 C2497 0.931 . S
H2484 C2499 0.930 . S
C2485 H2473 0.930 . S
C2485 C2486 1.399 . S
C2485 C2490 1.399 . S
C2486 C2485 1.399 . S
C2486 C2487 1.376 . S
C2487 H2474 0.930 . S
C2487 C2486 1.376 . S
C2487 C2488 1.388 . S
C2488 H2475 0.930 . S
C2488 C2487 1.388 . S
C2488 C2489 1.390 . S
C2489 C2488 1.390 . S
C2489 C2490 1.394 . S
C2489 C2495 1.465 . S
C2490 C2485 1.399 . S
C2490 C2489 1.394 . S
C2490 C2491 1.516 . S
C2491 C2490 1.516 . S
C2491 C2492 1.502 . S
C2491 C2493 1.561 . S
C2491 C2494 1.526 . S
C2492 H2476 0.959 . S
C2492 H2477 0.959 . S
C2492 H2478 0.961 . S
C2492 C2491 1.502 . S
C2493 H2479 0.960 . S
C2493 H2480 0.961 . S
C2493 H2481 0.959 . S
C2493 C2491 1.561 . S
C2494 C2491 1.526 . S
C2494 C2495 1.396 . S
C2494 C2499 1.390 . S
C2495 C2489 1.465 . S
C2495 C2494 1.396 . S
C2495 C2496 1.399 . S
C2496 H2482 0.929 . S
C2496 C2495 1.399 . S
C2496 C2497 1.385 . S
C2497 H2483 0.931 . S
C2497 C2496 1.385 . S
C2497 C2498 1.389 . S
C2498 C2497 1.389 . S
C2498 C2499 1.387 . S
C2499 H2484 0.930 . S
C2499 C2494 1.390 . S
C2499 C2498 1.387 . S
H2500 C2512 0.930 . S
H2501 C2514 0.930 . S
H2502 C2515 0.930 . S
H2503 C2519 0.959 . S
H2504 C2519 0.959 . S
H2505 C2519 0.961 . S
H2506 C2520 0.960 . S
H2507 C2520 0.961 . S
H2508 C2520 0.959 . S
H2509 C2523 0.929 . S
H2510 C2524 0.931 . S
H2511 C2526 0.930 . S
C2512 H2500 0.930 . S
C2512 C2513 1.399 . S
C2512 C2517 1.399 . S
C2513 C2512 1.399 . S
C2513 C2514 1.376 . S
C2514 H2501 0.930 . S
C2514 C2513 1.376 . S
C2514 C2515 1.388 . S
C2515 H2502 0.930 . S
C2515 C2514 1.388 . S
C2515 C2516 1.390 . S
C2516 C2515 1.390 . S
C2516 C2517 1.394 . S
C2516 C2522 1.465 . S
C2517 C2512 1.399 . S
C2517 C2516 1.394 . S
C2517 C2518 1.516 . S
C2518 C2517 1.516 . S
C2518 C2519 1.502 . S
C2518 C2520 1.561 . S
C2518 C2521 1.526 . S
C2519 H2503 0.959 . S
C2519 H2504 0.959 . S
C2519 H2505 0.961 . S
C2519 C2518 1.502 . S
C2520 H2506 0.960 . S
C2520 H2507 0.961 . S
C2520 H2508 0.959 . S
C2520 C2518 1.561 . S
C2521 C2518 1.526 . S
C2521 C2522 1.396 . S
C2521 C2526 1.390 . S
C2522 C2516 1.465 . S
C2522 C2521 1.396 . S
C2522 C2523 1.399 . S
C2523 H2509 0.929 . S
C2523 C2522 1.399 . S
C2523 C2524 1.385 . S
C2524 H2510 0.931 . S
C2524 C2523 1.385 . S
C2524 C2525 1.389 . S
C2525 C2524 1.389 . S
C2525 C2526 1.387 . S
C2526 H2511 0.930 . S
C2526 C2521 1.390 . S
C2526 C2525 1.387 . S
H2527 C2539 0.930 . S
H2528 C2541 0.930 . S
H2529 C2542 0.930 . S
H2530 C2546 0.959 . S
H2531 C2546 0.959 . S
H2532 C2546 0.961 . S
H2533 C2547 0.960 . S
H2534 C2547 0.961 . S
H2535 C2547 0.959 . S
H2536 C2550 0.929 . S
H2537 C2551 0.931 . S
H2538 C2553 0.930 . S
C2539 H2527 0.930 . S
C2539 C2540 1.399 . S
C2539 C2544 1.399 . S
C2540 C2539 1.399 . S
C2540 C2541 1.376 . S
C2541 H2528 0.930 . S
C2541 C2540 1.376 . S
C2541 C2542 1.388 . S
C2542 H2529 0.930 . S
C2542 C2541 1.388 . S
C2542 C2543 1.390 . S
C2543 C2542 1.390 . S
C2543 C2544 1.394 . S
C2543 C2549 1.465 . S
C2544 C2539 1.399 . S
C2544 C2543 1.394 . S
C2544 C2545 1.516 . S
C2545 C2544 1.516 . S
C2545 C2546 1.502 . S
C2545 C2547 1.561 . S
C2545 C2548 1.526 . S
C2546 H2530 0.959 . S
C2546 H2531 0.959 . S
C2546 H2532 0.961 . S
C2546 C2545 1.502 . S
C2547 H2533 0.960 . S
C2547 H2534 0.961 . S
C2547 H2535 0.959 . S
C2547 C2545 1.561 . S
C2548 C2545 1.526 . S
C2548 C2549 1.396 . S
C2548 C2553 1.390 . S
C2549 C2543 1.465 . S
C2549 C2548 1.396 . S
C2549 C2550 1.399 . S
C2550 H2536 0.929 . S
C2550 C2549 1.399 . S
C2550 C2551 1.385 . S
C2551 H2537 0.931 . S
C2551 C2550 1.385 . S
C2551 C2552 1.389 . S
C2552 C2551 1.389 . S
C2552 C2553 1.387 . S
C2553 H2538 0.930 . S
C2553 C2548 1.390 . S
C2553 C2552 1.387 . S
H2554 C2566 0.930 . S
H2555 C2568 0.930 . S
H2556 C2569 0.930 . S
H2557 C2573 0.959 . S
H2558 C2573 0.959 . S
H2559 C2573 0.961 . S
H2560 C2574 0.960 . S
H2561 C2574 0.961 . S
H2562 C2574 0.959 . S
H2563 C2577 0.929 . S
H2564 C2578 0.931 1_455 S
H2565 C2580 0.930 . S
C2566 H2554 0.930 . S
C2566 C2567 1.399 . S
C2566 C2571 1.399 . S
C2567 C2566 1.399 . S
C2567 C2568 1.376 . S
C2568 H2555 0.930 . S
C2568 C2567 1.376 . S
C2568 C2569 1.388 . S
C2569 H2556 0.930 . S
C2569 C2568 1.388 . S
C2569 C2570 1.390 . S
C2570 C2569 1.390 . S
C2570 C2571 1.394 . S
C2570 C2576 1.465 . S
C2571 C2566 1.399 . S
C2571 C2570 1.394 . S
C2571 C2572 1.516 . S
C2572 C2571 1.516 . S
C2572 C2573 1.502 . S
C2572 C2574 1.561 . S
C2572 C2575 1.526 . S
C2573 H2557 0.959 . S
C2573 H2558 0.959 . S
C2573 H2559 0.961 . S
C2573 C2572 1.502 . S
C2574 H2560 0.960 . S
C2574 H2561 0.961 . S
C2574 H2562 0.959 . S
C2574 C2572 1.561 . S
C2575 C2572 1.526 . S
C2575 C2576 1.396 . S
C2575 C2580 1.390 . S
C2576 C2570 1.465 . S
C2576 C2575 1.396 . S
C2576 C2577 1.399 . S
C2577 H2563 0.929 . S
C2577 C2576 1.399 . S
C2577 C2578 1.385 . S
C2578 H2564 0.931 1_655 S
C2578 C2577 1.385 . S
C2578 C2579 1.389 . S
C2579 C2578 1.389 . S
C2579 C2580 1.387 . S
C2580 H2565 0.930 . S
C2580 C2575 1.390 . S
C2580 C2579 1.387 . S
H2581 C2593 0.930 . S
H2582 C2595 0.930 . S
H2583 C2596 0.930 . S
H2584 C2600 0.959 . S
H2585 C2600 0.959 . S
H2586 C2600 0.961 . S
H2587 C2601 0.960 . S
H2588 C2601 0.961 . S
H2589 C2601 0.959 . S
H2590 C2604 0.929 . S
H2591 C2605 0.931 . S
H2592 C2607 0.930 . S
C2593 H2581 0.930 . S
C2593 C2594 1.399 . S
C2593 C2598 1.399 . S
C2594 C2593 1.399 . S
C2594 C2595 1.376 . S
C2595 H2582 0.930 . S
C2595 C2594 1.376 . S
C2595 C2596 1.388 . S
C2596 H2583 0.930 . S
C2596 C2595 1.388 . S
C2596 C2597 1.390 . S
C2597 C2596 1.390 . S
C2597 C2598 1.394 . S
C2597 C2603 1.465 . S
C2598 C2593 1.399 . S
C2598 C2597 1.394 . S
C2598 C2599 1.516 . S
C2599 C2598 1.516 . S
C2599 C2600 1.502 . S
C2599 C2601 1.561 . S
C2599 C2602 1.526 . S
C2600 H2584 0.959 . S
C2600 H2585 0.959 . S
C2600 H2586 0.961 . S
C2600 C2599 1.502 . S
C2601 H2587 0.960 . S
C2601 H2588 0.961 . S
C2601 H2589 0.959 . S
C2601 C2599 1.561 . S
C2602 C2599 1.526 . S
C2602 C2603 1.396 . S
C2602 C2607 1.390 . S
C2603 C2597 1.465 . S
C2603 C2602 1.396 . S
C2603 C2604 1.399 . S
C2604 H2590 0.929 . S
C2604 C2603 1.399 . S
C2604 C2605 1.385 . S
C2605 H2591 0.931 . S
C2605 C2604 1.385 . S
C2605 C2606 1.389 . S
C2606 C2605 1.389 . S
C2606 C2607 1.387 . S
C2607 H2592 0.930 . S
C2607 C2602 1.390 . S
C2607 C2606 1.387 . S
H2608 C2620 0.930 . S
H2609 C2622 0.930 . S
H2610 C2623 0.930 . S
H2611 C2627 0.959 . S
H2612 C2627 0.959 . S
H2613 C2627 0.961 . S
H2614 C2628 0.960 . S
H2615 C2628 0.961 . S
H2616 C2628 0.959 . S
H2617 C2631 0.929 . S
H2618 C2632 0.931 . S
H2619 C2634 0.930 . S
C2620 H2608 0.930 . S
C2620 C2621 1.399 . S
C2620 C2625 1.399 . S
C2621 C2620 1.399 . S
C2621 C2622 1.376 . S
C2622 H2609 0.930 . S
C2622 C2621 1.376 . S
C2622 C2623 1.388 . S
C2623 H2610 0.930 . S
C2623 C2622 1.388 . S
C2623 C2624 1.390 . S
C2624 C2623 1.390 . S
C2624 C2625 1.394 . S
C2624 C2630 1.465 . S
C2625 C2620 1.399 . S
C2625 C2624 1.394 . S
C2625 C2626 1.516 . S
C2626 C2625 1.516 . S
C2626 C2627 1.502 . S
C2626 C2628 1.561 . S
C2626 C2629 1.526 . S
C2627 H2611 0.959 . S
C2627 H2612 0.959 . S
C2627 H2613 0.961 . S
C2627 C2626 1.502 . S
C2628 H2614 0.960 . S
C2628 H2615 0.961 . S
C2628 H2616 0.959 . S
C2628 C2626 1.561 . S
C2629 C2626 1.526 . S
C2629 C2630 1.396 . S
C2629 C2634 1.390 . S
C2630 C2624 1.465 . S
C2630 C2629 1.396 . S
C2630 C2631 1.399 . S
C2631 H2617 0.929 . S
C2631 C2630 1.399 . S
C2631 C2632 1.385 . S
C2632 H2618 0.931 . S
C2632 C2631 1.385 . S
C2632 C2633 1.389 . S
C2633 C2632 1.389 . S
C2633 C2634 1.387 . S
C2634 H2619 0.930 . S
C2634 C2629 1.390 . S
C2634 C2633 1.387 . S
H2635 C2647 0.930 . S
H2636 C2649 0.930 . S
H2637 C2650 0.930 . S
H2638 C2654 0.959 . S
H2639 C2654 0.959 . S
H2640 C2654 0.961 . S
H2641 C2655 0.960 . S
H2642 C2655 0.961 . S
H2643 C2655 0.959 . S
H2644 C2658 0.929 . S
H2645 C2659 0.931 1_545 S
H2646 C2661 0.930 . S
C2647 H2635 0.930 . S
C2647 C2648 1.399 . S
C2647 C2652 1.399 . S
C2648 C2647 1.399 . S
C2648 C2649 1.376 . S
C2649 H2636 0.930 . S
C2649 C2648 1.376 . S
C2649 C2650 1.388 . S
C2650 H2637 0.930 . S
C2650 C2649 1.388 . S
C2650 C2651 1.390 . S
C2651 C2650 1.390 . S
C2651 C2652 1.394 . S
C2651 C2657 1.465 . S
C2652 C2647 1.399 . S
C2652 C2651 1.394 . S
C2652 C2653 1.516 . S
C2653 C2652 1.516 . S
C2653 C2654 1.502 . S
C2653 C2655 1.561 . S
C2653 C2656 1.526 . S
C2654 H2638 0.959 . S
C2654 H2639 0.959 . S
C2654 H2640 0.961 . S
C2654 C2653 1.502 . S
C2655 H2641 0.960 . S
C2655 H2642 0.961 . S
C2655 H2643 0.959 . S
C2655 C2653 1.561 . S
C2656 C2653 1.526 . S
C2656 C2657 1.396 . S
C2656 C2661 1.390 . S
C2657 C2651 1.465 . S
C2657 C2656 1.396 . S
C2657 C2658 1.399 . S
C2658 H2644 0.929 . S
C2658 C2657 1.399 . S
C2658 C2659 1.385 . S
C2659 H2645 0.931 1_565 S
C2659 C2658 1.385 . S
C2659 C2660 1.389 . S
C2660 C2659 1.389 . S
C2660 C2661 1.387 . S
C2661 H2646 0.930 . S
C2661 C2656 1.390 . S
C2661 C2660 1.387 . S
H2662 C2674 0.930 . S
H2663 C2676 0.930 . S
H2664 C2677 0.930 . S
H2665 C2681 0.959 . S
H2666 C2681 0.959 . S
H2667 C2681 0.961 . S
H2668 C2682 0.960 . S
H2669 C2682 0.961 . S
H2670 C2682 0.959 . S
H2671 C2685 0.929 . S
H2672 C2686 0.931 . S
H2673 C2688 0.930 . S
C2674 H2662 0.930 . S
C2674 C2675 1.399 . S
C2674 C2679 1.399 . S
C2675 C2674 1.399 . S
C2675 C2676 1.376 . S
C2676 H2663 0.930 . S
C2676 C2675 1.376 . S
C2676 C2677 1.388 . S
C2677 H2664 0.930 . S
C2677 C2676 1.388 . S
C2677 C2678 1.390 . S
C2678 C2677 1.390 . S
C2678 C2679 1.394 . S
C2678 C2684 1.465 . S
C2679 C2674 1.399 . S
C2679 C2678 1.394 . S
C2679 C2680 1.516 . S
C2680 C2679 1.516 . S
C2680 C2681 1.502 . S
C2680 C2682 1.561 . S
C2680 C2683 1.526 . S
C2681 H2665 0.959 . S
C2681 H2666 0.959 . S
C2681 H2667 0.961 . S
C2681 C2680 1.502 . S
C2682 H2668 0.960 . S
C2682 H2669 0.961 . S
C2682 H2670 0.959 . S
C2682 C2680 1.561 . S
C2683 C2680 1.526 . S
C2683 C2684 1.396 . S
C2683 C2688 1.390 . S
C2684 C2678 1.465 . S
C2684 C2683 1.396 . S
C2684 C2685 1.399 . S
C2685 H2671 0.929 . S
C2685 C2684 1.399 . S
C2685 C2686 1.385 . S
C2686 H2672 0.931 . S
C2686 C2685 1.385 . S
C2686 C2687 1.389 . S
C2687 C2686 1.389 . S
C2687 C2688 1.387 . S
C2688 H2673 0.930 . S
C2688 C2683 1.390 . S
C2688 C2687 1.387 . S
H2689 C2701 0.930 . S
H2690 C2703 0.930 1_556 S
H2691 C2704 0.930 1_556 S
H2692 C2708 0.959 . S
H2693 C2708 0.959 . S
H2694 C2708 0.961 . S
H2695 C2709 0.960 . S
H2696 C2709 0.961 . S
H2697 C2709 0.959 . S
H2698 C2712 0.929 1_556 S
H2699 C2713 0.931 . S
H2700 C2715 0.930 . S
C2701 H2689 0.930 . S
C2701 C2702 1.399 . S
C2701 C2706 1.399 . S
C2702 C2701 1.399 . S
C2702 C2703 1.376 . S
C2703 H2690 0.930 1_554 S
C2703 C2702 1.376 . S
C2703 C2704 1.388 . S
C2704 H2691 0.930 1_554 S
C2704 C2703 1.388 . S
C2704 C2705 1.390 . S
C2705 C2704 1.390 . S
C2705 C2706 1.394 . S
C2705 C2711 1.465 . S
C2706 C2701 1.399 . S
C2706 C2705 1.394 . S
C2706 C2707 1.516 . S
C2707 C2706 1.516 . S
C2707 C2708 1.502 . S
C2707 C2709 1.561 . S
C2707 C2710 1.526 . S
C2708 H2692 0.959 . S
C2708 H2693 0.959 . S
C2708 H2694 0.961 . S
C2708 C2707 1.502 . S
C2709 H2695 0.960 . S
C2709 H2696 0.961 . S
C2709 H2697 0.959 . S
C2709 C2707 1.561 . S
C2710 C2707 1.526 . S
C2710 C2711 1.396 . S
C2710 C2715 1.390 . S
C2711 C2705 1.465 . S
C2711 C2710 1.396 . S
C2711 C2712 1.399 . S
C2712 H2698 0.929 1_554 S
C2712 C2711 1.399 . S
C2712 C2713 1.385 . S
C2713 H2699 0.931 . S
C2713 C2712 1.385 . S
C2713 C2714 1.389 . S
C2714 C2713 1.389 . S
C2714 C2715 1.387 . S
C2715 H2700 0.930 . S
C2715 C2710 1.390 . S
C2715 C2714 1.387 . S
H2716 C2728 0.930 . S
H2717 C2730 0.930 . S
H2718 C2731 0.930 . S
H2719 C2735 0.959 . S
H2720 C2735 0.959 . S
H2721 C2735 0.961 . S
H2722 C2736 0.960 . S
H2723 C2736 0.961 . S
H2724 C2736 0.959 . S
H2725 C2739 0.929 . S
H2726 C2740 0.931 . S
H2727 C2742 0.930 . S
C2728 H2716 0.930 . S
C2728 C2729 1.399 . S
C2728 C2733 1.399 . S
C2729 C2728 1.399 . S
C2729 C2730 1.376 . S
C2730 H2717 0.930 . S
C2730 C2729 1.376 . S
C2730 C2731 1.388 . S
C2731 H2718 0.930 . S
C2731 C2730 1.388 . S
C2731 C2732 1.390 . S
C2732 C2731 1.390 . S
C2732 C2733 1.394 . S
C2732 C2738 1.465 . S
C2733 C2728 1.399 . S
C2733 C2732 1.394 . S
C2733 C2734 1.516 . S
C2734 C2733 1.516 . S
C2734 C2735 1.502 . S
C2734 C2736 1.561 . S
C2734 C2737 1.526 . S
C2735 H2719 0.959 . S
C2735 H2720 0.959 . S
C2735 H2721 0.961 . S
C2735 C2734 1.502 . S
C2736 H2722 0.960 . S
C2736 H2723 0.961 . S
C2736 H2724 0.959 . S
C2736 C2734 1.561 . S
C2737 C2734 1.526 . S
C2737 C2738 1.396 . S
C2737 C2742 1.390 . S
C2738 C2732 1.465 . S
C2738 C2737 1.396 . S
C2738 C2739 1.399 . S
C2739 H2725 0.929 . S
C2739 C2738 1.399 . S
C2739 C2740 1.385 . S
C2740 H2726 0.931 . S
C2740 C2739 1.385 . S
C2740 C2741 1.389 . S
C2741 C2740 1.389 . S
C2741 C2742 1.387 . S
C2742 H2727 0.930 . S
C2742 C2737 1.390 . S
C2742 C2741 1.387 . S
H2743 C2755 0.930 . S
H2744 C2757 0.930 . S
H2745 C2758 0.930 . S
H2746 C2762 0.959 1_554 S
H2747 C2762 0.959 . S
H2748 C2762 0.961 . S
H2749 C2763 0.960 . S
H2750 C2763 0.961 . S
H2751 C2763 0.972 . S
H2752 C2766 0.929 . S
H2753 C2767 0.931 . S
H2754 C2769 0.930 1_556 S
C2755 H2743 0.930 . S
C2755 C2756 1.399 . S
C2755 C2760 1.399 . S
C2756 C2755 1.399 . S
C2756 C2757 1.376 . S
C2757 H2744 0.930 . S
C2757 C2756 1.376 . S
C2757 C2758 1.388 . S
C2758 H2745 0.930 . S
C2758 C2757 1.388 . S
C2758 C2759 1.390 . S
C2759 C2758 1.390 . S
C2759 C2760 1.394 . S
C2759 C2765 1.465 . S
C2760 C2755 1.399 . S
C2760 C2759 1.394 . S
C2760 C2761 1.516 . S
C2761 C2760 1.516 . S
C2761 C2762 1.502 1_554 S
C2761 C2763 1.561 1_554 S
C2761 C2764 1.526 . S
C2762 H2746 0.959 1_556 S
C2762 H2747 0.959 . S
C2762 H2748 0.961 . S
C2762 C2761 1.502 1_556 S
C2763 H2749 0.960 . S
C2763 H2750 0.961 . S
C2763 H2751 0.972 . S
C2763 C2761 1.561 1_556 S
C2764 C2761 1.526 . S
C2764 C2765 1.396 . S
C2764 C2769 1.390 . S
C2765 C2759 1.465 . S
C2765 C2764 1.396 . S
C2765 C2766 1.399 . S
C2766 H2752 0.929 . S
C2766 C2765 1.399 . S
C2766 C2767 1.385 . S
C2767 H2753 0.931 . S
C2767 C2766 1.385 . S
C2767 C2768 1.389 . S
C2768 C2767 1.389 . S
C2768 C2769 1.387 . S
C2769 H2754 0.930 1_554 S
C2769 C2764 1.390 . S
C2769 C2768 1.387 . S
H2770 C2782 0.930 . S
H2771 C2784 0.930 . S
H2772 C2785 0.930 . S
H2773 C2789 0.959 . S
H2774 C2789 0.959 . S
H2775 C2789 0.961 . S
H2776 C2790 0.960 . S
H2777 C2790 0.961 . S
H2778 C2790 0.959 . S
H2779 C2793 0.929 . S
H2780 C2794 0.931 . S
H2781 C2796 0.930 . S
C2782 H2770 0.930 . S
C2782 C2783 1.399 . S
C2782 C2787 1.399 . S
C2783 C2782 1.399 . S
C2783 C2784 1.376 . S
C2784 H2771 0.930 . S
C2784 C2783 1.376 . S
C2784 C2785 1.388 . S
C2785 H2772 0.930 . S
C2785 C2784 1.388 . S
C2785 C2786 1.390 . S
C2786 C2785 1.390 . S
C2786 C2787 1.394 . S
C2786 C2792 1.465 . S
C2787 C2782 1.399 . S
C2787 C2786 1.394 . S
C2787 C2788 1.516 . S
C2788 C2787 1.516 . S
C2788 C2789 1.502 . S
C2788 C2790 1.561 . S
C2788 C2791 1.526 . S
C2789 H2773 0.959 . S
C2789 H2774 0.959 . S
C2789 H2775 0.961 . S
C2789 C2788 1.502 . S
C2790 H2776 0.960 . S
C2790 H2777 0.961 . S
C2790 H2778 0.959 . S
C2790 C2788 1.561 . S
C2791 C2788 1.526 . S
C2791 C2792 1.396 . S
C2791 C2796 1.390 . S
C2792 C2786 1.465 . S
C2792 C2791 1.396 . S
C2792 C2793 1.399 . S
C2793 H2779 0.929 . S
C2793 C2792 1.399 . S
C2793 C2794 1.385 . S
C2794 H2780 0.931 . S
C2794 C2793 1.385 . S
C2794 C2795 1.389 . S
C2795 C2794 1.389 . S
C2795 C2796 1.387 . S
C2796 H2781 0.930 . S
C2796 C2791 1.390 . S
C2796 C2795 1.387 . S
H2797 C2809 0.930 . S
H2798 C2811 0.930 . S
H2799 C2812 0.930 . S
H2800 C2816 0.959 . S
H2801 C2816 0.959 . S
H2802 C2816 0.961 . S
H2803 C2817 0.960 . S
H2804 C2817 0.961 . S
H2805 C2817 0.959 . S
H2806 C2820 0.929 . S
H2807 C2821 0.931 . S
H2808 C2823 0.930 . S
C2809 H2797 0.930 . S
C2809 C2810 1.399 . S
C2809 C2814 1.399 . S
C2810 C2809 1.399 . S
C2810 C2811 1.376 . S
C2811 H2798 0.930 . S
C2811 C2810 1.376 . S
C2811 C2812 1.388 . S
C2812 H2799 0.930 . S
C2812 C2811 1.388 . S
C2812 C2813 1.390 . S
C2813 C2812 1.390 . S
C2813 C2814 1.394 . S
C2813 C2819 1.465 . S
C2814 C2809 1.399 . S
C2814 C2813 1.394 . S
C2814 C2815 1.516 . S
C2815 C2814 1.516 . S
C2815 C2816 1.502 . S
C2815 C2817 1.561 . S
C2815 C2818 1.526 . S
C2816 H2800 0.959 . S
C2816 H2801 0.959 . S
C2816 H2802 0.961 . S
C2816 C2815 1.502 . S
C2817 H2803 0.960 . S
C2817 H2804 0.961 . S
C2817 H2805 0.959 . S
C2817 C2815 1.561 . S
C2818 C2815 1.526 . S
C2818 C2819 1.396 . S
C2818 C2823 1.390 . S
C2819 C2813 1.465 . S
C2819 C2818 1.396 . S
C2819 C2820 1.399 . S
C2820 H2806 0.929 . S
C2820 C2819 1.399 . S
C2820 C2821 1.385 . S
C2821 H2807 0.931 . S
C2821 C2820 1.385 . S
C2821 C2822 1.389 . S
C2822 C2821 1.389 . S
C2822 C2823 1.387 . S
C2823 H2808 0.930 . S
C2823 C2818 1.390 . S
C2823 C2822 1.387 . S
H2824 C2836 0.930 . S
H2825 C2838 0.930 . S
H2826 C2839 0.930 . S
H2827 C2843 0.959 . S
H2828 C2843 0.959 . S
H2829 C2843 0.961 . S
H2830 C2844 0.960 . S
H2831 C2844 0.961 . S
H2832 C2844 0.959 . S
H2833 C2847 0.929 . S
H2834 C2848 0.931 . S
H2835 C2850 0.930 . S
C2836 H2824 0.930 . S
C2836 C2837 1.399 . S
C2836 C2841 1.399 . S
C2837 C2836 1.399 . S
C2837 C2838 1.376 . S
C2838 H2825 0.930 . S
C2838 C2837 1.376 . S
C2838 C2839 1.388 . S
C2839 H2826 0.930 . S
C2839 C2838 1.388 . S
C2839 C2840 1.390 . S
C2840 C2839 1.390 . S
C2840 C2841 1.394 . S
C2840 C2846 1.465 . S
C2841 C2836 1.399 . S
C2841 C2840 1.394 . S
C2841 C2842 1.516 . S
C2842 C2841 1.516 . S
C2842 C2843 1.502 . S
C2842 C2844 1.561 . S
C2842 C2845 1.526 . S
C2843 H2827 0.959 . S
C2843 H2828 0.959 . S
C2843 H2829 0.961 . S
C2843 C2842 1.502 . S
C2844 H2830 0.960 . S
C2844 H2831 0.961 . S
C2844 H2832 0.959 . S
C2844 C2842 1.561 . S
C2845 C2842 1.526 . S
C2845 C2846 1.396 . S
C2845 C2850 1.390 . S
C2846 C2840 1.465 . S
C2846 C2845 1.396 . S
C2846 C2847 1.399 . S
C2847 H2833 0.929 . S
C2847 C2846 1.399 . S
C2847 C2848 1.385 . S
C2848 H2834 0.931 . S
C2848 C2847 1.385 . S
C2848 C2849 1.389 . S
C2849 C2848 1.389 . S
C2849 C2850 1.387 . S
C2850 H2835 0.930 . S
C2850 C2845 1.390 . S
C2850 C2849 1.387 . S
H2851 C2863 0.930 . S
H2852 C2865 0.930 . S
H2853 C2866 0.930 . S
H2854 C2870 0.959 . S
H2855 C2870 0.959 . S
H2856 C2870 0.961 . S
H2857 C2871 0.960 . S
H2858 C2871 0.961 . S
H2859 C2871 0.959 . S
H2860 C2874 0.929 . S
H2861 C2875 0.931 . S
H2862 C2877 0.930 . S
C2863 H2851 0.930 . S
C2863 C2864 1.399 . S
C2863 C2868 1.399 . S
C2864 C2863 1.399 . S
C2864 C2865 1.376 . S
C2865 H2852 0.930 . S
C2865 C2864 1.376 . S
C2865 C2866 1.388 . S
C2866 H2853 0.930 . S
C2866 C2865 1.388 . S
C2866 C2867 1.390 . S
C2867 C2866 1.390 . S
C2867 C2868 1.394 . S
C2867 C2873 1.465 . S
C2868 C2863 1.399 . S
C2868 C2867 1.394 . S
C2868 C2869 1.516 . S
C2869 C2868 1.516 . S
C2869 C2870 1.502 . S
C2869 C2871 1.561 . S
C2869 C2872 1.526 . S
C2870 H2854 0.959 . S
C2870 H2855 0.959 . S
C2870 H2856 0.961 . S
C2870 C2869 1.502 . S
C2871 H2857 0.960 . S
C2871 H2858 0.961 . S
C2871 H2859 0.959 . S
C2871 C2869 1.561 . S
C2872 C2869 1.526 . S
C2872 C2873 1.396 . S
C2872 C2877 1.390 . S
C2873 C2867 1.465 . S
C2873 C2872 1.396 . S
C2873 C2874 1.399 . S
C2874 H2860 0.929 . S
C2874 C2873 1.399 . S
C2874 C2875 1.385 . S
C2875 H2861 0.931 . S
C2875 C2874 1.385 . S
C2875 C2876 1.389 . S
C2876 C2875 1.389 . S
C2876 C2877 1.387 . S
C2877 H2862 0.930 . S
C2877 C2872 1.390 . S
C2877 C2876 1.387 . S
H2878 C2890 0.930 . S
H2879 C2892 0.930 . S
H2880 C2893 0.930 . S
H2881 C2897 0.959 . S
H2882 C2897 0.968 . S
H2883 C2897 0.961 . S
H2884 C2898 0.960 . S
H2885 C2898 0.961 1_554 S
H2886 C2898 0.959 . S
H2887 C2901 0.929 . S
H2888 C2902 0.931 . S
H2889 C2904 0.939 1_554 S
C2890 H2878 0.930 . S
C2890 C2891 1.396 1_455 S
C2890 C2895 1.399 . S
C2891 C2890 1.396 1_655 S
C2891 C2892 1.383 . S
C2892 H2879 0.930 . S
C2892 C2891 1.383 . S
C2892 C2893 1.388 . S
C2893 H2880 0.930 . S
C2893 C2892 1.388 . S
C2893 C2894 1.390 . S
C2894 C2893 1.390 . S
C2894 C2895 1.394 1_655 S
C2894 C2900 1.465 . S
C2895 C2890 1.399 . S
C2895 C2894 1.394 1_455 S
C2895 C2896 1.516 . S
C2896 C2895 1.516 . S
C2896 C2897 1.502 . S
C2896 C2898 1.561 1_455 S
C2896 C2899 1.521 1_455 S
C2897 H2881 0.959 . S
C2897 H2882 0.968 . S
C2897 H2883 0.961 . S
C2897 C2896 1.502 . S
C2898 H2884 0.960 . S
C2898 H2885 0.961 1_556 S
C2898 H2886 0.959 . S
C2898 C2896 1.561 1_655 S
C2899 C2896 1.521 1_655 S
C2899 C2900 1.404 . S
C2899 C2904 1.389 1_655 S
C2900 C2894 1.465 . S
C2900 C2899 1.404 . S
C2900 C2901 1.399 . S
C2901 H2887 0.929 . S
C2901 C2900 1.399 . S
C2901 C2902 1.385 . S
C2902 H2888 0.931 . S
C2902 C2901 1.385 . S
C2902 C2903 1.389 . S
C2903 C2902 1.389 . S
C2903 C2904 1.380 1_655 S
C2904 H2889 0.939 1_556 S
C2904 C2899 1.389 1_455 S
C2904 C2903 1.380 1_455 S
H2905 C2917 0.930 . S
H2906 C2919 0.930 . S
H2907 C2920 0.930 . S
H2908 C2924 0.959 . S
H2909 C2924 0.959 . S
H2910 C2924 0.961 . S
H2911 C2925 0.960 . S
H2912 C2925 0.961 . S
H2913 C2925 0.959 . S
H2914 C2928 0.929 . S
H2915 C2929 0.931 . S
H2916 C2931 0.930 . S
C2917 H2905 0.930 . S
C2917 C2918 1.399 . S
C2917 C2922 1.399 . S
C2918 C2917 1.399 . S
C2918 C2919 1.376 . S
C2919 H2906 0.930 . S
C2919 C2918 1.376 . S
C2919 C2920 1.388 . S
C2920 H2907 0.930 . S
C2920 C2919 1.388 . S
C2920 C2921 1.390 . S
C2921 C2920 1.390 . S
C2921 C2922 1.394 . S
C2921 C2927 1.465 . S
C2922 C2917 1.399 . S
C2922 C2921 1.394 . S
C2922 C2923 1.516 . S
C2923 C2922 1.516 . S
C2923 C2924 1.502 . S
C2923 C2925 1.561 . S
C2923 C2926 1.526 . S
C2924 H2908 0.959 . S
C2924 H2909 0.959 . S
C2924 H2910 0.961 . S
C2924 C2923 1.502 . S
C2925 H2911 0.960 . S
C2925 H2912 0.961 . S
C2925 H2913 0.959 . S
C2925 C2923 1.561 . S
C2926 C2923 1.526 . S
C2926 C2927 1.396 . S
C2926 C2931 1.390 . S
C2927 C2921 1.465 . S
C2927 C2926 1.396 . S
C2927 C2928 1.399 . S
C2928 H2914 0.929 . S
C2928 C2927 1.399 . S
C2928 C2929 1.385 . S
C2929 H2915 0.931 . S
C2929 C2928 1.385 . S
C2929 C2930 1.389 . S
C2930 C2929 1.389 . S
C2930 C2931 1.387 . S
C2931 H2916 0.930 . S
C2931 C2926 1.390 . S
C2931 C2930 1.387 . S
H2932 C2944 0.930 . S
H2933 C2946 0.930 . S
H2934 C2947 0.930 . S
H2935 C2951 0.959 . S
H2936 C2951 0.959 . S
H2937 C2951 0.961 . S
H2938 C2952 0.960 . S
H2939 C2952 0.961 . S
H2940 C2952 0.959 . S
H2941 C2955 0.929 . S
H2942 C2956 0.931 . S
H2943 C2958 0.930 . S
C2944 H2932 0.930 . S
C2944 C2945 1.399 . S
C2944 C2949 1.399 . S
C2945 C2944 1.399 . S
C2945 C2946 1.376 . S
C2946 H2933 0.930 . S
C2946 C2945 1.376 . S
C2946 C2947 1.388 . S
C2947 H2934 0.930 . S
C2947 C2946 1.388 . S
C2947 C2948 1.390 . S
C2948 C2947 1.390 . S
C2948 C2949 1.394 . S
C2948 C2954 1.465 . S
C2949 C2944 1.399 . S
C2949 C2948 1.394 . S
C2949 C2950 1.516 . S
C2950 C2949 1.516 . S
C2950 C2951 1.502 . S
C2950 C2952 1.561 . S
C2950 C2953 1.526 . S
C2951 H2935 0.959 . S
C2951 H2936 0.959 . S
C2951 H2937 0.961 . S
C2951 C2950 1.502 . S
C2952 H2938 0.960 . S
C2952 H2939 0.961 . S
C2952 H2940 0.959 . S
C2952 C2950 1.561 . S
C2953 C2950 1.526 . S
C2953 C2954 1.396 . S
C2953 C2958 1.390 . S
C2954 C2948 1.465 . S
C2954 C2953 1.396 . S
C2954 C2955 1.399 . S
C2955 H2941 0.929 . S
C2955 C2954 1.399 . S
C2955 C2956 1.385 . S
C2956 H2942 0.931 . S
C2956 C2955 1.385 . S
C2956 C2957 1.389 . S
C2957 C2956 1.389 . S
C2957 C2958 1.387 . S
C2958 H2943 0.930 . S
C2958 C2953 1.390 . S
C2958 C2957 1.387 . S
H2959 C2971 0.930 . S
H2960 C2973 0.930 . S
H2961 C2974 0.930 . S
H2962 C2978 0.959 . S
H2963 C2978 0.959 . S
H2964 C2978 0.961 . S
H2965 C2979 0.960 . S
H2966 C2979 0.961 . S
H2967 C2979 0.959 . S
H2968 C2982 0.929 . S
H2969 C2983 0.931 . S
H2970 C2985 0.930 . S
C2971 H2959 0.930 . S
C2971 C2972 1.399 . S
C2971 C2976 1.399 . S
C2972 C2971 1.399 . S
C2972 C2973 1.376 . S
C2973 H2960 0.930 . S
C2973 C2972 1.376 . S
C2973 C2974 1.388 . S
C2974 H2961 0.930 . S
C2974 C2973 1.388 . S
C2974 C2975 1.390 . S
C2975 C2974 1.390 . S
C2975 C2976 1.394 . S
C2975 C2981 1.465 . S
C2976 C2971 1.399 . S
C2976 C2975 1.394 . S
C2976 C2977 1.516 . S
C2977 C2976 1.516 . S
C2977 C2978 1.502 . S
C2977 C2979 1.561 . S
C2977 C2980 1.526 . S
C2978 H2962 0.959 . S
C2978 H2963 0.959 . S
C2978 H2964 0.961 . S
C2978 C2977 1.502 . S
C2979 H2965 0.960 . S
C2979 H2966 0.961 . S
C2979 H2967 0.959 . S
C2979 C2977 1.561 . S
C2980 C2977 1.526 . S
C2980 C2981 1.396 . S
C2980 C2985 1.390 . S
C2981 C2975 1.465 . S
C2981 C2980 1.396 . S
C2981 C2982 1.399 . S
C2982 H2968 0.929 . S
C2982 C2981 1.399 . S
C2982 C2983 1.385 . S
C2983 H2969 0.931 . S
C2983 C2982 1.385 . S
C2983 C2984 1.389 . S
C2984 C2983 1.389 . S
C2984 C2985 1.387 . S
C2985 H2970 0.930 . S
C2985 C2980 1.390 . S
C2985 C2984 1.387 . S
H2986 C2998 0.930 . S
H2987 C3000 0.930 . S
H2988 C3001 0.930 . S
H2989 C3005 0.959 . S
H2990 C3005 0.959 . S
H2991 C3005 0.961 . S
H2992 C3006 0.960 . S
H2993 C3006 0.961 . S
H2994 C3006 0.959 . S
H2995 C3009 0.926 1_655 S
H2996 C3010 0.931 . S
H2997 C3012 0.930 . S
C2998 H2986 0.930 . S
C2998 C2999 1.399 . S
C2998 C3003 1.399 . S
C2999 C2998 1.399 . S
C2999 C3000 1.376 . S
C3000 H2987 0.930 . S
C3000 C2999 1.376 . S
C3000 C3001 1.388 . S
C3001 H2988 0.930 . S
C3001 C3000 1.388 . S
C3001 C3002 1.390 . S
C3002 C3001 1.390 . S
C3002 C3003 1.394 . S
C3002 C3008 1.465 . S
C3003 C2998 1.399 . S
C3003 C3002 1.394 . S
C3003 C3004 1.516 . S
C3004 C3003 1.516 . S
C3004 C3005 1.502 . S
C3004 C3006 1.561 . S
C3004 C3007 1.526 . S
C3005 H2989 0.959 . S
C3005 H2990 0.959 . S
C3005 H2991 0.961 . S
C3005 C3004 1.502 . S
C3006 H2992 0.960 . S
C3006 H2993 0.961 . S
C3006 H2994 0.959 . S
C3006 C3004 1.561 . S
C3007 C3004 1.526 . S
C3007 C3008 1.396 . S
C3007 C3012 1.390 . S
C3008 C3002 1.465 . S
C3008 C3007 1.396 . S
C3008 C3009 1.399 . S
C3009 H2995 0.926 1_455 S
C3009 C3008 1.399 . S
C3009 C3010 1.385 . S
C3010 H2996 0.931 . S
C3010 C3009 1.385 . S
C3010 C3011 1.389 . S
C3011 C3010 1.389 . S
C3011 C3012 1.387 . S
C3012 H2997 0.930 . S
C3012 C3007 1.390 . S
C3012 C3011 1.387 . S
H3013 C3025 0.930 . S
H3014 C3027 0.930 . S
H3015 C3028 0.930 . S
H3016 C3032 0.959 . S
H3017 C3032 0.959 . S
H3018 C3032 0.961 . S
H3019 C3033 0.960 . S
H3020 C3033 0.961 . S
H3021 C3033 0.959 . S
H3022 C3036 0.929 . S
H3023 C3037 0.931 . S
H3024 C3039 0.930 . S
C3025 H3013 0.930 . S
C3025 C3026 1.399 . S
C3025 C3030 1.399 . S
C3026 C3025 1.399 . S
C3026 C3027 1.376 . S
C3027 H3014 0.930 . S
C3027 C3026 1.376 . S
C3027 C3028 1.388 . S
C3028 H3015 0.930 . S
C3028 C3027 1.388 . S
C3028 C3029 1.390 . S
C3029 C3028 1.390 . S
C3029 C3030 1.394 . S
C3029 C3035 1.465 . S
C3030 C3025 1.399 . S
C3030 C3029 1.394 . S
C3030 C3031 1.516 . S
C3031 C3030 1.516 . S
C3031 C3032 1.502 . S
C3031 C3033 1.561 . S
C3031 C3034 1.526 . S
C3032 H3016 0.959 . S
C3032 H3017 0.959 . S
C3032 H3018 0.961 . S
C3032 C3031 1.502 . S
C3033 H3019 0.960 . S
C3033 H3020 0.961 . S
C3033 H3021 0.959 . S
C3033 C3031 1.561 . S
C3034 C3031 1.526 . S
C3034 C3035 1.396 . S
C3034 C3039 1.390 . S
C3035 C3029 1.465 . S
C3035 C3034 1.396 . S
C3035 C3036 1.399 . S
C3036 H3022 0.929 . S
C3036 C3035 1.399 . S
C3036 C3037 1.385 . S
C3037 H3023 0.931 . S
C3037 C3036 1.385 . S
C3037 C3038 1.389 . S
C3038 C3037 1.389 . S
C3038 C3039 1.387 . S
C3039 H3024 0.930 . S
C3039 C3034 1.390 . S
C3039 C3038 1.387 . S
H3040 C3052 0.930 . S
H3041 C3054 0.930 . S
H3042 C3055 0.930 . S
H3043 C3059 0.959 . S
H3044 C3059 0.959 . S
H3045 C3059 0.961 . S
H3046 C3060 0.960 . S
H3047 C3060 0.961 . S
H3048 C3060 0.959 . S
H3049 C3063 0.929 . S
H3050 C3064 0.931 . S
H3051 C3066 0.930 . S
C3052 H3040 0.930 . S
C3052 C3053 1.399 . S
C3052 C3057 1.399 . S
C3053 C3052 1.399 . S
C3053 C3054 1.376 . S
C3054 H3041 0.930 . S
C3054 C3053 1.376 . S
C3054 C3055 1.388 . S
C3055 H3042 0.930 . S
C3055 C3054 1.388 . S
C3055 C3056 1.390 . S
C3056 C3055 1.390 . S
C3056 C3057 1.394 . S
C3056 C3062 1.465 . S
C3057 C3052 1.399 . S
C3057 C3056 1.394 . S
C3057 C3058 1.516 . S
C3058 C3057 1.516 . S
C3058 C3059 1.502 . S
C3058 C3060 1.561 . S
C3058 C3061 1.526 . S
C3059 H3043 0.959 . S
C3059 H3044 0.959 . S
C3059 H3045 0.961 . S
C3059 C3058 1.502 . S
C3060 H3046 0.960 . S
C3060 H3047 0.961 . S
C3060 H3048 0.959 . S
C3060 C3058 1.561 . S
C3061 C3058 1.526 . S
C3061 C3062 1.396 . S
C3061 C3066 1.390 . S
C3062 C3056 1.465 . S
C3062 C3061 1.396 . S
C3062 C3063 1.399 . S
C3063 H3049 0.929 . S
C3063 C3062 1.399 . S
C3063 C3064 1.385 . S
C3064 H3050 0.931 . S
C3064 C3063 1.385 . S
C3064 C3065 1.389 . S
C3065 C3064 1.389 . S
C3065 C3066 1.387 . S
C3066 H3051 0.930 . S
C3066 C3061 1.390 . S
C3066 C3065 1.387 . S
H3067 C3079 0.930 . S
H3068 C3081 0.930 . S
H3069 C3082 0.930 . S
H3070 C3086 0.959 . S
H3071 C3086 0.959 . S
H3072 C3086 0.961 . S
H3073 C3087 0.960 . S
H3074 C3087 0.961 . S
H3075 C3087 0.959 . S
H3076 C3090 0.929 . S
H3077 C3091 0.931 . S
H3078 C3093 0.930 . S
C3079 H3067 0.930 . S
C3079 C3080 1.399 . S
C3079 C3084 1.399 . S
C3080 C3079 1.399 . S
C3080 C3081 1.376 . S
C3081 H3068 0.930 . S
C3081 C3080 1.376 . S
C3081 C3082 1.388 . S
C3082 H3069 0.930 . S
C3082 C3081 1.388 . S
C3082 C3083 1.390 . S
C3083 C3082 1.390 . S
C3083 C3084 1.394 . S
C3083 C3089 1.465 . S
C3084 C3079 1.399 . S
C3084 C3083 1.394 . S
C3084 C3085 1.516 . S
C3085 C3084 1.516 . S
C3085 C3086 1.502 . S
C3085 C3087 1.561 . S
C3085 C3088 1.526 . S
C3086 H3070 0.959 . S
C3086 H3071 0.959 . S
C3086 H3072 0.961 . S
C3086 C3085 1.502 . S
C3087 H3073 0.960 . S
C3087 H3074 0.961 . S
C3087 H3075 0.959 . S
C3087 C3085 1.561 . S
C3088 C3085 1.526 . S
C3088 C3089 1.396 . S
C3088 C3093 1.390 . S
C3089 C3083 1.465 . S
C3089 C3088 1.396 . S
C3089 C3090 1.399 . S
C3090 H3076 0.929 . S
C3090 C3089 1.399 . S
C3090 C3091 1.385 . S
C3091 H3077 0.931 . S
C3091 C3090 1.385 . S
C3091 C3092 1.389 . S
C3092 C3091 1.389 . S
C3092 C3093 1.387 . S
C3093 H3078 0.930 . S
C3093 C3088 1.390 . S
C3093 C3092 1.387 . S
H3094 C3106 0.930 . S
H3095 C3108 0.930 . S
H3096 C3109 0.930 . S
H3097 C3113 0.959 . S
H3098 C3113 0.959 . S
H3099 C3113 0.961 . S
H3100 C3114 0.960 . S
H3101 C3114 0.961 . S
H3102 C3114 0.959 . S
H3103 C3117 0.929 . S
H3104 C3118 0.931 . S
H3105 C3120 0.930 . S
C3106 H3094 0.930 . S
C3106 C3107 1.399 . S
C3106 C3111 1.399 . S
C3107 C3106 1.399 . S
C3107 C3108 1.376 . S
C3108 H3095 0.930 . S
C3108 C3107 1.376 . S
C3108 C3109 1.388 . S
C3109 H3096 0.930 . S
C3109 C3108 1.388 . S
C3109 C3110 1.390 . S
C3110 C3109 1.390 . S
C3110 C3111 1.394 . S
C3110 C3116 1.465 . S
C3111 C3106 1.399 . S
C3111 C3110 1.394 . S
C3111 C3112 1.516 . S
C3112 C3111 1.516 . S
C3112 C3113 1.502 . S
C3112 C3114 1.561 . S
C3112 C3115 1.526 . S
C3113 H3097 0.959 . S
C3113 H3098 0.959 . S
C3113 H3099 0.961 . S
C3113 C3112 1.502 . S
C3114 H3100 0.960 . S
C3114 H3101 0.961 . S
C3114 H3102 0.959 . S
C3114 C3112 1.561 . S
C3115 C3112 1.526 . S
C3115 C3116 1.396 . S
C3115 C3120 1.390 . S
C3116 C3110 1.465 . S
C3116 C3115 1.396 . S
C3116 C3117 1.399 . S
C3117 H3103 0.929 . S
C3117 C3116 1.399 . S
C3117 C3118 1.385 . S
C3118 H3104 0.931 . S
C3118 C3117 1.385 . S
C3118 C3119 1.389 . S
C3119 C3118 1.389 . S
C3119 C3120 1.387 . S
C3120 H3105 0.930 . S
C3120 C3115 1.390 . S
C3120 C3119 1.387 . S
H3121 C3133 0.930 . S
H3122 C3135 0.930 . S
H3123 C3136 0.930 . S
H3124 C3140 0.959 . S
H3125 C3140 0.959 . S
H3126 C3140 0.961 . S
H3127 C3141 0.960 . S
H3128 C3141 0.961 . S
H3129 C3141 0.959 . S
H3130 C3144 0.929 . S
H3131 C3145 0.931 . S
H3132 C3147 0.930 . S
C3133 H3121 0.930 . S
C3133 C3134 1.399 . S
C3133 C3138 1.399 . S
C3134 C3133 1.399 . S
C3134 C3135 1.376 . S
C3135 H3122 0.930 . S
C3135 C3134 1.376 . S
C3135 C3136 1.388 . S
C3136 H3123 0.930 . S
C3136 C3135 1.388 . S
C3136 C3137 1.390 . S
C3137 C3136 1.390 . S
C3137 C3138 1.394 . S
C3137 C3143 1.465 . S
C3138 C3133 1.399 . S
C3138 C3137 1.394 . S
C3138 C3139 1.516 . S
C3139 C3138 1.516 . S
C3139 C3140 1.502 . S
C3139 C3141 1.561 . S
C3139 C3142 1.526 . S
C3140 H3124 0.959 . S
C3140 H3125 0.959 . S
C3140 H3126 0.961 . S
C3140 C3139 1.502 . S
C3141 H3127 0.960 . S
C3141 H3128 0.961 . S
C3141 H3129 0.959 . S
C3141 C3139 1.561 . S
C3142 C3139 1.526 . S
C3142 C3143 1.396 . S
C3142 C3147 1.390 . S
C3143 C3137 1.465 . S
C3143 C3142 1.396 . S
C3143 C3144 1.399 . S
C3144 H3130 0.929 . S
C3144 C3143 1.399 . S
C3144 C3145 1.385 . S
C3145 H3131 0.931 . S
C3145 C3144 1.385 . S
C3145 C3146 1.389 . S
C3146 C3145 1.389 . S
C3146 C3147 1.387 . S
C3147 H3132 0.930 . S
C3147 C3142 1.390 . S
C3147 C3146 1.387 . S
H3148 C3160 0.930 . S
H3149 C3162 0.930 . S
H3150 C3163 0.930 . S
H3151 C3167 0.959 . S
H3152 C3167 0.959 . S
H3153 C3167 0.961 . S
H3154 C3168 0.960 . S
H3155 C3168 0.961 . S
H3156 C3168 0.959 . S
H3157 C3171 0.929 . S
H3158 C3172 0.931 . S
H3159 C3174 0.930 . S
C3160 H3148 0.930 . S
C3160 C3161 1.399 . S
C3160 C3165 1.399 . S
C3161 C3160 1.399 . S
C3161 C3162 1.376 . S
C3162 H3149 0.930 . S
C3162 C3161 1.376 . S
C3162 C3163 1.388 . S
C3163 H3150 0.930 . S
C3163 C3162 1.388 . S
C3163 C3164 1.390 . S
C3164 C3163 1.390 . S
C3164 C3165 1.394 . S
C3164 C3170 1.465 . S
C3165 C3160 1.399 . S
C3165 C3164 1.394 . S
C3165 C3166 1.516 . S
C3166 C3165 1.516 . S
C3166 C3167 1.502 . S
C3166 C3168 1.561 . S
C3166 C3169 1.526 . S
C3167 H3151 0.959 . S
C3167 H3152 0.959 . S
C3167 H3153 0.961 . S
C3167 C3166 1.502 . S
C3168 H3154 0.960 . S
C3168 H3155 0.961 . S
C3168 H3156 0.959 . S
C3168 C3166 1.561 . S
C3169 C3166 1.526 . S
C3169 C3170 1.396 . S
C3169 C3174 1.390 . S
C3170 C3164 1.465 . S
C3170 C3169 1.396 . S
C3170 C3171 1.399 . S
C3171 H3157 0.929 . S
C3171 C3170 1.399 . S
C3171 C3172 1.385 . S
C3172 H3158 0.931 . S
C3172 C3171 1.385 . S
C3172 C3173 1.389 . S
C3173 C3172 1.389 . S
C3173 C3174 1.387 . S
C3174 H3159 0.930 . S
C3174 C3169 1.390 . S
C3174 C3173 1.387 . S
H3175 C3187 0.930 . S
H3176 C3189 0.930 . S
H3177 C3190 0.930 . S
H3178 C3194 0.959 . S
H3179 C3194 0.959 . S
H3180 C3194 0.961 . S
H3181 C3195 0.960 . S
H3182 C3195 0.961 . S
H3183 C3195 0.959 . S
H3184 C3198 0.929 . S
H3185 C3199 0.931 . S
H3186 C3201 0.930 . S
C3187 H3175 0.930 . S
C3187 C3188 1.399 . S
C3187 C3192 1.399 . S
C3188 C3187 1.399 . S
C3188 C3189 1.376 . S
C3189 H3176 0.930 . S
C3189 C3188 1.376 . S
C3189 C3190 1.388 . S
C3190 H3177 0.930 . S
C3190 C3189 1.388 . S
C3190 C3191 1.390 . S
C3191 C3190 1.390 . S
C3191 C3192 1.394 . S
C3191 C3197 1.465 . S
C3192 C3187 1.399 . S
C3192 C3191 1.394 . S
C3192 C3193 1.516 . S
C3193 C3192 1.516 . S
C3193 C3194 1.502 . S
C3193 C3195 1.561 . S
C3193 C3196 1.526 . S
C3194 H3178 0.959 . S
C3194 H3179 0.959 . S
C3194 H3180 0.961 . S
C3194 C3193 1.502 . S
C3195 H3181 0.960 . S
C3195 H3182 0.961 . S
C3195 H3183 0.959 . S
C3195 C3193 1.561 . S
C3196 C3193 1.526 . S
C3196 C3197 1.396 . S
C3196 C3201 1.390 . S
C3197 C3191 1.465 . S
C3197 C3196 1.396 . S
C3197 C3198 1.399 . S
C3198 H3184 0.929 . S
C3198 C3197 1.399 . S
C3198 C3199 1.385 . S
C3199 H3185 0.931 . S
C3199 C3198 1.385 . S
C3199 C3200 1.389 . S
C3200 C3199 1.389 . S
C3200 C3201 1.387 . S
C3201 H3186 0.930 . S
C3201 C3196 1.390 . S
C3201 C3200 1.387 . S
H3202 C3214 0.930 . S
H3203 C3216 0.930 . S
H3204 C3217 0.930 . S
H3205 C3221 0.959 . S
H3206 C3221 0.959 . S
H3207 C3221 0.961 . S
H3208 C3222 0.960 . S
H3209 C3222 0.961 . S
H3210 C3222 0.959 . S
H3211 C3225 0.929 . S
H3212 C3226 0.931 . S
H3213 C3228 0.930 . S
C3214 H3202 0.930 . S
C3214 C3215 1.399 . S
C3214 C3219 1.399 . S
C3215 C3214 1.399 . S
C3215 C3216 1.376 . S
C3216 H3203 0.930 . S
C3216 C3215 1.376 . S
C3216 C3217 1.388 . S
C3217 H3204 0.930 . S
C3217 C3216 1.388 . S
C3217 C3218 1.390 . S
C3218 C3217 1.390 . S
C3218 C3219 1.394 . S
C3218 C3224 1.465 . S
C3219 C3214 1.399 . S
C3219 C3218 1.394 . S
C3219 C3220 1.516 . S
C3220 C3219 1.516 . S
C3220 C3221 1.502 . S
C3220 C3222 1.561 . S
C3220 C3223 1.526 . S
C3221 H3205 0.959 . S
C3221 H3206 0.959 . S
C3221 H3207 0.961 . S
C3221 C3220 1.502 . S
C3222 H3208 0.960 . S
C3222 H3209 0.961 . S
C3222 H3210 0.959 . S
C3222 C3220 1.561 . S
C3223 C3220 1.526 . S
C3223 C3224 1.396 . S
C3223 C3228 1.390 . S
C3224 C3218 1.465 . S
C3224 C3223 1.396 . S
C3224 C3225 1.399 . S
C3225 H3211 0.929 . S
C3225 C3224 1.399 . S
C3225 C3226 1.385 . S
C3226 H3212 0.931 . S
C3226 C3225 1.385 . S
C3226 C3227 1.389 . S
C3227 C3226 1.389 . S
C3227 C3228 1.387 . S
C3228 H3213 0.930 . S
C3228 C3223 1.390 . S
C3228 C3227 1.387 . S
H3229 C3241 0.930 . S
H3230 C3243 0.930 . S
H3231 C3244 0.930 . S
H3232 C3248 0.959 . S
H3233 C3248 0.959 . S
H3234 C3248 0.961 . S
H3235 C3249 0.960 . S
H3236 C3249 0.961 . S
H3237 C3249 0.959 . S
H3238 C3252 0.929 . S
H3239 C3253 0.931 . S
H3240 C3255 0.930 . S
C3241 H3229 0.930 . S
C3241 C3242 1.399 . S
C3241 C3246 1.399 . S
C3242 C3241 1.399 . S
C3242 C3243 1.376 . S
C3243 H3230 0.930 . S
C3243 C3242 1.376 . S
C3243 C3244 1.388 . S
C3244 H3231 0.930 . S
C3244 C3243 1.388 . S
C3244 C3245 1.390 . S
C3245 C3244 1.390 . S
C3245 C3246 1.394 . S
C3245 C3251 1.465 . S
C3246 C3241 1.399 . S
C3246 C3245 1.394 . S
C3246 C3247 1.516 . S
C3247 C3246 1.516 . S
C3247 C3248 1.502 . S
C3247 C3249 1.561 . S
C3247 C3250 1.526 . S
C3248 H3232 0.959 . S
C3248 H3233 0.959 . S
C3248 H3234 0.961 . S
C3248 C3247 1.502 . S
C3249 H3235 0.960 . S
C3249 H3236 0.961 . S
C3249 H3237 0.959 . S
C3249 C3247 1.561 . S
C3250 C3247 1.526 . S
C3250 C3251 1.396 . S
C3250 C3255 1.390 . S
C3251 C3245 1.465 . S
C3251 C3250 1.396 . S
C3251 C3252 1.399 . S
C3252 H3238 0.929 . S
C3252 C3251 1.399 . S
C3252 C3253 1.385 . S
C3253 H3239 0.931 . S
C3253 C3252 1.385 . S
C3253 C3254 1.389 . S
C3254 C3253 1.389 . S
C3254 C3255 1.387 . S
C3255 H3240 0.930 . S
C3255 C3250 1.390 . S
C3255 C3254 1.387 . S
H3256 C3268 0.930 . S
H3257 C3270 0.930 . S
H3258 C3271 0.930 . S
H3259 C3275 0.959 . S
H3260 C3275 0.959 . S
H3261 C3275 0.961 . S
H3262 C3276 0.960 . S
H3263 C3276 0.961 . S
H3264 C3276 0.959 . S
H3265 C3279 0.929 . S
H3266 C3280 0.931 . S
H3267 C3282 0.930 . S
C3268 H3256 0.930 . S
C3268 C3269 1.399 . S
C3268 C3273 1.399 . S
C3269 C3268 1.399 . S
C3269 C3270 1.376 . S
C3270 H3257 0.930 . S
C3270 C3269 1.376 . S
C3270 C3271 1.388 . S
C3271 H3258 0.930 . S
C3271 C3270 1.388 . S
C3271 C3272 1.390 . S
C3272 C3271 1.390 . S
C3272 C3273 1.394 . S
C3272 C3278 1.465 . S
C3273 C3268 1.399 . S
C3273 C3272 1.394 . S
C3273 C3274 1.516 . S
C3274 C3273 1.516 . S
C3274 C3275 1.502 . S
C3274 C3276 1.561 . S
C3274 C3277 1.526 . S
C3275 H3259 0.959 . S
C3275 H3260 0.959 . S
C3275 H3261 0.961 . S
C3275 C3274 1.502 . S
C3276 H3262 0.960 . S
C3276 H3263 0.961 . S
C3276 H3264 0.959 . S
C3276 C3274 1.561 . S
C3277 C3274 1.526 . S
C3277 C3278 1.396 . S
C3277 C3282 1.390 . S
C3278 C3272 1.465 . S
C3278 C3277 1.396 . S
C3278 C3279 1.399 . S
C3279 H3265 0.929 . S
C3279 C3278 1.399 . S
C3279 C3280 1.385 . S
C3280 H3266 0.931 . S
C3280 C3279 1.385 . S
C3280 C3281 1.389 . S
C3281 C3280 1.389 . S
C3281 C3282 1.387 . S
C3282 H3267 0.930 . S
C3282 C3277 1.390 . S
C3282 C3281 1.387 . S
H3283 C3295 0.930 . S
H3284 C3297 0.930 . S
H3285 C3298 0.930 . S
H3286 C3302 0.959 . S
H3287 C3302 0.959 . S
H3288 C3302 0.961 . S
H3289 C3303 0.960 . S
H3290 C3303 0.961 . S
H3291 C3303 0.959 . S
H3292 C3306 0.929 . S
H3293 C3307 0.931 . S
H3294 C3309 0.930 . S
C3295 H3283 0.930 . S
C3295 C3296 1.399 . S
C3295 C3300 1.399 . S
C3296 C3295 1.399 . S
C3296 C3297 1.376 . S
C3297 H3284 0.930 . S
C3297 C3296 1.376 . S
C3297 C3298 1.388 . S
C3298 H3285 0.930 . S
C3298 C3297 1.388 . S
C3298 C3299 1.390 . S
C3299 C3298 1.390 . S
C3299 C3300 1.394 . S
C3299 C3305 1.465 . S
C3300 C3295 1.399 . S
C3300 C3299 1.394 . S
C3300 C3301 1.516 . S
C3301 C3300 1.516 . S
C3301 C3302 1.502 . S
C3301 C3303 1.561 . S
C3301 C3304 1.526 . S
C3302 H3286 0.959 . S
C3302 H3287 0.959 . S
C3302 H3288 0.961 . S
C3302 C3301 1.502 . S
C3303 H3289 0.960 . S
C3303 H3290 0.961 . S
C3303 H3291 0.959 . S
C3303 C3301 1.561 . S
C3304 C3301 1.526 . S
C3304 C3305 1.396 . S
C3304 C3309 1.390 . S
C3305 C3299 1.465 . S
C3305 C3304 1.396 . S
C3305 C3306 1.399 . S
C3306 H3292 0.929 . S
C3306 C3305 1.399 . S
C3306 C3307 1.385 . S
C3307 H3293 0.931 . S
C3307 C3306 1.385 . S
C3307 C3308 1.389 . S
C3308 C3307 1.389 . S
C3308 C3309 1.387 . S
C3309 H3294 0.930 . S
C3309 C3304 1.390 . S
C3309 C3308 1.387 . S
H3310 C3322 0.930 . S
H3311 C3324 0.930 . S
H3312 C3325 0.930 . S
H3313 C3329 0.959 . S
H3314 C3329 0.959 . S
H3315 C3329 0.961 . S
H3316 C3330 0.960 . S
H3317 C3330 0.961 . S
H3318 C3330 0.959 . S
H3319 C3333 0.929 . S
H3320 C3334 0.931 . S
H3321 C3336 0.930 . S
C3322 H3310 0.930 . S
C3322 C3323 1.399 . S
C3322 C3327 1.399 . S
C3323 C3322 1.399 . S
C3323 C3324 1.376 . S
C3324 H3311 0.930 . S
C3324 C3323 1.376 . S
C3324 C3325 1.388 . S
C3325 H3312 0.930 . S
C3325 C3324 1.388 . S
C3325 C3326 1.390 . S
C3326 C3325 1.390 . S
C3326 C3327 1.394 . S
C3326 C3332 1.465 . S
C3327 C3322 1.399 . S
C3327 C3326 1.394 . S
C3327 C3328 1.516 . S
C3328 C3327 1.516 . S
C3328 C3329 1.502 . S
C3328 C3330 1.561 . S
C3328 C3331 1.526 . S
C3329 H3313 0.959 . S
C3329 H3314 0.959 . S
C3329 H3315 0.961 . S
C3329 C3328 1.502 . S
C3330 H3316 0.960 . S
C3330 H3317 0.961 . S
C3330 H3318 0.959 . S
C3330 C3328 1.561 . S
C3331 C3328 1.526 . S
C3331 C3332 1.396 . S
C3331 C3336 1.390 . S
C3332 C3326 1.465 . S
C3332 C3331 1.396 . S
C3332 C3333 1.399 . S
C3333 H3319 0.929 . S
C3333 C3332 1.399 . S
C3333 C3334 1.385 . S
C3334 H3320 0.931 . S
C3334 C3333 1.385 . S
C3334 C3335 1.389 . S
C3335 C3334 1.389 . S
C3335 C3336 1.387 . S
C3336 H3321 0.930 . S
C3336 C3331 1.390 . S
C3336 C3335 1.387 . S
H3337 C3349 0.930 1_556 S
H3338 C3351 0.930 . S
H3339 C3352 0.930 . S
H3340 C3356 0.959 1_544 S
H3341 C3356 0.958 1_545 S
H3342 C3356 0.961 . S
H3343 C3357 0.960 . S
H3344 C3357 0.961 . S
H3345 C3357 0.959 . S
H3346 C3360 0.929 . S
H3347 C3361 0.931 . S
H3348 C3363 0.930 1_556 S
C3349 H3337 0.930 1_554 S
C3349 C3350 1.399 . S
C3349 C3354 1.399 . S
C3350 C3349 1.399 . S
C3350 C3351 1.376 . S
C3351 H3338 0.930 . S
C3351 C3350 1.376 . S
C3351 C3352 1.388 . S
C3352 H3339 0.930 . S
C3352 C3351 1.388 . S
C3352 C3353 1.390 . S
C3353 C3352 1.390 . S
C3353 C3354 1.394 . S
C3353 C3359 1.465 . S
C3354 C3349 1.399 . S
C3354 C3353 1.394 . S
C3354 C3355 1.516 1_554 S
C3355 C3354 1.516 1_556 S
C3355 C3356 1.502 . S
C3355 C3357 1.561 . S
C3355 C3358 1.526 1_556 S
C3356 H3340 0.959 1_566 S
C3356 H3341 0.958 1_565 S
C3356 H3342 0.961 . S
C3356 C3355 1.502 . S
C3357 H3343 0.960 . S
C3357 H3344 0.961 . S
C3357 H3345 0.959 . S
C3357 C3355 1.561 . S
C3358 C3355 1.526 1_554 S
C3358 C3359 1.396 . S
C3358 C3363 1.390 . S
C3359 C3353 1.465 . S
C3359 C3358 1.396 . S
C3359 C3360 1.399 . S
C3360 H3346 0.929 . S
C3360 C3359 1.399 . S
C3360 C3361 1.385 . S
C3361 H3347 0.931 . S
C3361 C3360 1.385 . S
C3361 C3362 1.389 . S
C3362 C3361 1.389 . S
C3362 C3363 1.387 . S
C3363 H3348 0.930 1_554 S
C3363 C3358 1.390 . S
C3363 C3362 1.387 . S
H3364 C3376 0.930 . S
H3365 C3378 0.930 . S
H3366 C3379 0.930 . S
H3367 C3383 0.959 . S
H3368 C3383 0.959 . S
H3369 C3383 0.961 . S
H3370 C3384 0.960 . S
H3371 C3384 0.961 . S
H3372 C3384 0.959 . S
H3373 C3387 0.929 . S
H3374 C3388 0.931 . S
H3375 C3390 0.930 . S
C3376 H3364 0.930 . S
C3376 C3377 1.399 . S
C3376 C3381 1.399 . S
C3377 C3376 1.399 . S
C3377 C3378 1.376 . S
C3378 H3365 0.930 . S
C3378 C3377 1.376 . S
C3378 C3379 1.388 . S
C3379 H3366 0.930 . S
C3379 C3378 1.388 . S
C3379 C3380 1.390 . S
C3380 C3379 1.390 . S
C3380 C3381 1.394 . S
C3380 C3386 1.465 . S
C3381 C3376 1.399 . S
C3381 C3380 1.394 . S
C3381 C3382 1.516 . S
C3382 C3381 1.516 . S
C3382 C3383 1.502 . S
C3382 C3384 1.561 . S
C3382 C3385 1.526 . S
C3383 H3367 0.959 . S
C3383 H3368 0.959 . S
C3383 H3369 0.961 . S
C3383 C3382 1.502 . S
C3384 H3370 0.960 . S
C3384 H3371 0.961 . S
C3384 H3372 0.959 . S
C3384 C3382 1.561 . S
C3385 C3382 1.526 . S
C3385 C3386 1.396 . S
C3385 C3390 1.390 . S
C3386 C3380 1.465 . S
C3386 C3385 1.396 . S
C3386 C3387 1.399 . S
C3387 H3373 0.929 . S
C3387 C3386 1.399 . S
C3387 C3388 1.385 . S
C3388 H3374 0.931 . S
C3388 C3387 1.385 . S
C3388 C3389 1.389 . S
C3389 C3388 1.389 . S
C3389 C3390 1.387 . S
C3390 H3375 0.930 . S
C3390 C3385 1.390 . S
C3390 C3389 1.387 . S
H3391 C3403 0.930 . S
H3392 C3405 0.930 . S
H3393 C3406 0.930 . S
H3394 C3410 0.959 . S
H3395 C3410 0.959 1_556 S
H3396 C3410 0.961 1_556 S
H3397 C3411 0.960 . S
H3398 C3411 0.961 . S
H3399 C3411 0.959 . S
H3400 C3414 0.929 . S
H3401 C3415 0.931 . S
H3402 C3417 0.930 . S
C3403 H3391 0.930 . S
C3403 C3404 1.399 1_556 S
C3403 C3408 1.399 1_556 S
C3404 C3403 1.399 1_554 S
C3404 C3405 1.376 . S
C3405 H3392 0.930 . S
C3405 C3404 1.376 . S
C3405 C3406 1.388 . S
C3406 H3393 0.930 . S
C3406 C3405 1.388 . S
C3406 C3407 1.390 . S
C3407 C3406 1.390 . S
C3407 C3408 1.394 . S
C3407 C3413 1.465 . S
C3408 C3403 1.399 1_554 S
C3408 C3407 1.394 . S
C3408 C3409 1.510 1_554 S
C3409 C3408 1.510 1_556 S
C3409 C3410 1.499 1_556 S
C3409 C3411 1.595 . S
C3409 C3412 1.502 1_556 S
C3410 H3394 0.959 . S
C3410 H3395 0.959 1_554 S
C3410 H3396 0.961 1_554 S
C3410 C3409 1.499 1_554 S
C3411 H3397 0.960 . S
C3411 H3398 0.961 . S
C3411 H3399 0.959 . S
C3411 C3409 1.595 . S
C3412 C3409 1.502 1_554 S
C3412 C3413 1.396 . S
C3412 C3417 1.390 . S
C3413 C3407 1.465 . S
C3413 C3412 1.396 . S
C3413 C3414 1.399 . S
C3414 H3400 0.929 . S
C3414 C3413 1.399 . S
C3414 C3415 1.385 . S
C3415 H3401 0.931 . S
C3415 C3414 1.385 . S
C3415 C3416 1.389 . S
C3416 C3415 1.389 . S
C3416 C3417 1.387 . S
C3417 H3402 0.930 . S
C3417 C3412 1.390 . S
C3417 C3416 1.387 . S
H3418 C3430 0.930 . S
H3419 C3432 0.930 . S
H3420 C3433 0.930 . S
H3421 C3437 0.959 . S
H3422 C3437 0.959 . S
H3423 C3437 0.961 . S
H3424 C3438 0.960 . S
H3425 C3438 0.961 . S
H3426 C3438 0.959 . S
H3427 C3441 0.929 . S
H3428 C3442 0.931 . S
H3429 C3444 0.930 . S
C3430 H3418 0.930 . S
C3430 C3431 1.399 . S
C3430 C3435 1.399 . S
C3431 C3430 1.399 . S
C3431 C3432 1.376 . S
C3432 H3419 0.930 . S
C3432 C3431 1.376 . S
C3432 C3433 1.388 . S
C3433 H3420 0.930 . S
C3433 C3432 1.388 . S
C3433 C3434 1.390 . S
C3434 C3433 1.390 . S
C3434 C3435 1.394 . S
C3434 C3440 1.465 . S
C3435 C3430 1.399 . S
C3435 C3434 1.394 . S
C3435 C3436 1.516 . S
C3436 C3435 1.516 . S
C3436 C3437 1.502 . S
C3436 C3438 1.561 . S
C3436 C3439 1.526 . S
C3437 H3421 0.959 . S
C3437 H3422 0.959 . S
C3437 H3423 0.961 . S
C3437 C3436 1.502 . S
C3438 H3424 0.960 . S
C3438 H3425 0.961 . S
C3438 H3426 0.959 . S
C3438 C3436 1.561 . S
C3439 C3436 1.526 . S
C3439 C3440 1.396 . S
C3439 C3444 1.390 . S
C3440 C3434 1.465 . S
C3440 C3439 1.396 . S
C3440 C3441 1.399 . S
C3441 H3427 0.929 . S
C3441 C3440 1.399 . S
C3441 C3442 1.385 . S
C3442 H3428 0.931 . S
C3442 C3441 1.385 . S
C3442 C3443 1.389 . S
C3443 C3442 1.389 . S
C3443 C3444 1.387 . S
C3444 H3429 0.930 . S
C3444 C3439 1.390 . S
C3444 C3443 1.387 . S
H3445 C3457 0.930 . S
H3446 C3459 0.930 . S
H3447 C3460 0.930 . S
H3448 C3464 0.959 . S
H3449 C3464 0.959 . S
H3450 C3464 0.961 . S
H3451 C3465 0.960 . S
H3452 C3465 0.961 . S
H3453 C3465 0.959 . S
H3454 C3468 0.929 . S
H3455 C3469 0.931 . S
H3456 C3471 0.930 . S
C3457 H3445 0.930 . S
C3457 C3458 1.399 . S
C3457 C3462 1.399 . S
C3458 C3457 1.399 . S
C3458 C3459 1.376 . S
C3459 H3446 0.930 . S
C3459 C3458 1.376 . S
C3459 C3460 1.388 . S
C3460 H3447 0.930 . S
C3460 C3459 1.388 . S
C3460 C3461 1.390 . S
C3461 C3460 1.390 . S
C3461 C3462 1.394 . S
C3461 C3467 1.465 . S
C3462 C3457 1.399 . S
C3462 C3461 1.394 . S
C3462 C3463 1.516 . S
C3463 C3462 1.516 . S
C3463 C3464 1.502 . S
C3463 C3465 1.561 . S
C3463 C3466 1.526 . S
C3464 H3448 0.959 . S
C3464 H3449 0.959 . S
C3464 H3450 0.961 . S
C3464 C3463 1.502 . S
C3465 H3451 0.960 . S
C3465 H3452 0.961 . S
C3465 H3453 0.959 . S
C3465 C3463 1.561 . S
C3466 C3463 1.526 . S
C3466 C3467 1.396 . S
C3466 C3471 1.390 . S
C3467 C3461 1.465 . S
C3467 C3466 1.396 . S
C3467 C3468 1.399 . S
C3468 H3454 0.929 . S
C3468 C3467 1.399 . S
C3468 C3469 1.385 . S
C3469 H3455 0.931 . S
C3469 C3468 1.385 . S
C3469 C3470 1.389 . S
C3470 C3469 1.389 . S
C3470 C3471 1.387 . S
C3471 H3456 0.930 . S
C3471 C3466 1.390 . S
C3471 C3470 1.387 . S
C905 C353 1.031 . S
C893 C5 1.097 . S
C920 C23 1.887 . S
C932 C399 1.896 . S
C947 C39 0.886 . S
C959 C408 0.832 . S
C986 C446 1.648 . S
C974 C42 1.681 . S
C1001 C19 1.678 . S
C1013 C480 1.624 . S
C1040 C510 0.869 . S
C1028 C28 0.839 . S
C1067 C569 1.591 1_556 S
C1055 C53 1.631 . S
C1082 C9 0.971 . S
C1094 C582 0.969 . S
C1109 C65 1.438 . S
C1121 C365 1.465 . S
C1136 C75 1.219 . S
C1148 C383 1.162 . S
C1175 C404 1.751 . S
C1163 C93 1.751 . S
C1202 C442 0.755 . S
C1190 C109 0.867 . S
C1217 C56 1.263 . S
C1229 C476 1.300 . S
C1256 C506 1.532 . S
C1244 C81 1.586 . S
C1283 C553 1.238 . S
C1271 C84 1.281 . S
C1310 C578 0.738 . S
C1298 C103 0.673 . S
C1337 C349 0.658 . S
C1325 C107 0.715 . S
C1364 C608 1.618 . S
C1352 C121 1.601 . S
C1379 C131 1.483 . S
C1391 C650 1.456 . S
C1418 C693 0.572 . S
C1406 C140 0.600 . S
C1433 C61 1.420 . S
C1445 C574 1.387 . S
C1472 C412 1.443 . S
C1460 C70 1.440 . S
C1487 C137 1.349 . S
C1499 C710 1.350 . S
C1526 C761 1.540 . S
C1514 C165 1.542 . S
C1541 C173 1.039 . S
C1553 C344 1.015 1_556 S
C1580 C744 1.821 . S
C1568 C182 1.842 . S
C1595 C207 0.889 . S
C1607 C417 0.828 . S
C1622 C219 1.656 . S
C1634 C727 1.634 . S
C1661 C489 1.586 . S
C1649 C187 1.638 . S
C1688 C655 0.804 . S
C1676 C205 0.816 . S
C1715 C540 1.590 . S
C1703 C221 1.566 . S
C1742 C795 0.920 . S
C1730 C168 0.980 . S
C1769 C336 1.372 . S
C1757 C224 1.429 . S
C1784 C243 1.183 . S
C1796 C748 1.164 . S
C1823 C433 1.701 1_565 S
C1811 C252 1.682 . S
C1838 C277 0.821 . S
C1850 C723 0.699 . S
C1865 C233 1.277 . S
C1877 C485 1.272 . S
C1892 C249 1.537 . S
C1904 C671 1.537 . S
C1931 C544 1.276 . S
C1919 C261 1.269 . S
C1946 C271 0.692 . S
C1958 C791 0.677 . S
C1973 C266 0.655 . S
C1985 C340 0.586 . S
C2000 C280 1.576 . S
C2012 C637 1.573 . S
C2027 C299 1.447 . S
C2039 C523 1.384 . S
C2054 C317 0.523 . S
C2066 C684 0.487 . S
C2093 C807 1.395 . S
C2081 C229 1.364 . S
C2120 C421 1.449 . S
C2108 C247 1.431 . S
C2147 C467 1.305 . S
C2135 C305 1.311 . S
C2174 C378 1.527 . S
C2162 C333 1.513 . S
C2189 C33 1.026 . S
C2201 C829 1.098 . S
C2228 C773 1.893 . S
C2216 C51 1.897 . S
C2255 C850 0.840 . S
C2243 C11 0.897 . S
C2270 C14 1.670 . S
C2282 C718 1.662 . S
C2297 C47 1.662 . S
C2309 C616 1.667 1_556 S
C2336 C646 0.812 . S
C2324 C0 0.841 . S
C2363 C705 1.589 . S
C2351 C25 1.630 . S
C2390 C786 0.999 . S
C2378 C37 0.943 . S
C2417 C841 1.464 . S
C2405 C163 1.436 . S
C2432 C117 1.190 1_556 S
C2444 C757 1.212 . S
C2459 C135 1.758 . S
C2471 C846 1.755 . S
C2498 C714 0.742 . S
C2486 C151 0.870 . S
C2525 C612 1.237 . S
C2513 C154 1.294 . S
C2540 C123 1.582 . S
C2552 C642 1.531 . S
C2579 C689 1.241 . S
C2567 C126 1.278 . S
C2594 C145 0.682 . S
C2606 C782 0.643 . S
C2633 C825 0.646 . S
C2621 C149 0.721 . S
C2660 C472 1.608 . S
C2648 C79 1.620 . S
C2687 C514 1.449 . S
C2675 C89 1.488 . S
C2702 C98 0.581 . S
C2714 C557 0.511 . S
C2741 C778 1.378 . S
C2729 C159 1.425 . S
C2756 C112 1.461 . S
C2768 C854 1.423 . S
C2795 C438 1.331 . S
C2783 C95 1.329 . S
C2822 C387 1.518 . S
C2810 C67 1.531 . S
C2837 C201 1.031 . S
C2849 C820 1.027 . S
C2876 C370 1.847 . S
C2864 C210 1.840 . S
C2903 C859 0.880 . S
C2891 C179 0.883 1_655 S
C2918 C191 1.656 . S
C2930 C455 1.642 . S
C2945 C215 1.632 . S
C2957 C625 1.596 . S
C2972 C177 0.815 . S
C2984 C519 0.796 . S
C2999 C193 1.591 . S
C3011 C676 1.574 . S
C3026 C196 0.983 . S
C3038 C591 0.908 . S
C3065 C812 1.396 . S
C3053 C322 1.426 . S
C3080 C285 1.190 . S
C3092 C374 1.125 . S
C3119 C875 1.658 . S
C3107 C294 1.704 . S
C3134 C319 0.780 . S
C3146 C451 0.750 . S
C3161 C331 1.286 . S
C3173 C621 1.304 . S
C3200 C535 1.507 . S
C3188 C291 1.567 . S
C3215 C303 1.272 . S
C3227 C680 1.272 . S
C3254 C587 0.689 . S
C3242 C313 0.654 . S
C3281 C816 0.589 . S
C3269 C308 0.653 . S
C3308 C501 1.559 . S
C3296 C238 1.562 . S
C3323 C257 1.441 . S
C3335 C659 1.383 . S
C3362 C548 0.487 . S
C3350 C275 0.504 . S
C3389 C603 1.336 . S
C3377 C327 1.403 . S
C3404 C289 1.450 1_554 S
C3416 C863 1.449 . S
C3443 C739 1.330 . S
C3431 C263 1.321 . S
C3470 C752 1.505 . S
C3458 C235 1.520 . S
