# Generated by pormake.
# Topology tsx, (6,3)-cn, num edge types: 1
# Building blocks:
#     Node 0, Type 0, BuildingBlock: VOLQOD_clean_sbu_1, # of connection points: 6
#     Node 1, Type 0, BuildingBlock: VOLQOD_clean_sbu_1, # of connection points: 6
#     Node 2, Type 1, BuildingBlock: OLANEW_clean_sbu_2, # of connection points: 3
#     Node 3, Type 1, BuildingBlock: OLANEW_clean_sbu_2, # of connection points: 3
#     Node 4, Type 1, BuildingBlock: OLANEW_clean_sbu_2, # of connection points: 3
#     Node 5, Type 1, BuildingBlock: OLANEW_clean_sbu_2, # of connection points: 3
#     Edge 6, Type (0, 1), BuildingBlock: TEMPAE_clean_linker_10, # of connection points: 2
#     Edge 7, Type (0, 1), BuildingBlock: TEMPAE_clean_linker_10, # of connection points: 2
#     Edge 8, Type (0, 1), BuildingBlock: TEMPAE_clean_linker_10, # of connection points: 2
#     Edge 9, Type (0, 1), BuildingBlock: TEMPAE_clean_linker_10, # of connection points: 2
#     Edge 10, Type (0, 1), BuildingBlock: TEMPAE_clean_linker_10, # of connection points: 2
#     Edge 11, Type (0, 1), BuildingBlock: TEMPAE_clean_linker_10, # of connection points: 2
#     Edge 12, Type (0, 1), BuildingBlock: TEMPAE_clean_linker_10, # of connection points: 2
#     Edge 13, Type (0, 1), BuildingBlock: TEMPAE_clean_linker_10, # of connection points: 2
#     Edge 14, Type (0, 1), BuildingBlock: TEMPAE_clean_linker_10, # of connection points: 2
#     Edge 15, Type (0, 1), BuildingBlock: TEMPAE_clean_linker_10, # of connection points: 2
#     Edge 16, Type (0, 1), BuildingBlock: TEMPAE_clean_linker_10, # of connection points: 2
#     Edge 17, Type (0, 1), BuildingBlock: TEMPAE_clean_linker_10, # of connection points: 2
# Relax obj value: 0.029
# Max RMSD: 0.075
# Mean RMSD: 0.070
data_MOF--net-tsx--node1-VOLQOD_clean_sbu_1--node2-OLANEW_clean_sbu_2--edge1-TEMPAE_clean_linker_10
_symmetry_space_group_name_H-M    P1
_symmetry_Int_Tables_number       1
_symmetry_cell_setting            triclinic
loop_
_symmetry_equiv_pos_as_xyz
'x, y, z'
_cell_length_a     22.855283
_cell_length_b     23.674728
_cell_length_c     39.139606
_cell_angle_alpha  95.709698
_cell_angle_beta   89.955087
_cell_angle_gamma 90.239516
loop_
_atom_site_label
_atom_site_type_symbol
_atom_site_fract_x
_atom_site_fract_y
_atom_site_fract_z
_atom_type_partial_charge
O0 O 0.04924 0.00534 0.08412 0.0
Zn1 Zn 0.07034 0.00345 0.03444 0.0
O2 O 0.00126 0.00664 0.00562 0.0
Zn3 Zn 0.99512 0.93667 0.97396 0.0
Zn4 Zn 0.9322 0.01578 0.03546 0.0
Zn5 Zn 0.00861 0.07189 0.97907 0.0
O6 O 0.99834 0.9539 0.92408 0.0
O7 O 0.01584 0.0467 0.92874 0.0
O8 O 0.11416 0.93143 0.02297 0.0
O9 O 0.06329 0.88414 0.98098 0.0
O10 O 0.92021 0.89389 0.9828 0.0
O11 O 0.87994 0.94723 0.02648 0.0
O12 O 0.88522 0.08498 0.02586 0.0
O13 O 0.12515 0.06864 0.02925 0.0
O14 O 0.9372 0.12137 0.98528 0.0
O15 O 0.08039 0.11905 0.99231 0.0
C16 C 0.00203 0.01314 0.10111 0.0
C17 C 0.00934 0.99955 0.91045 0.0
C18 C 0.87969 0.90296 0.0051 0.0
C19 C 0.10667 0.88798 0.00157 0.0
C20 C 0.89238 0.12207 0.0047 0.0
C21 C 0.12333 0.11152 0.01205 0.0
O22 O 0.95355 0.02035 0.08607 0.0
O23 O 0.5561 0.52031 0.58141 0.0
Zn24 Zn 0.57398 0.52047 0.53139 0.0
O25 O 0.50329 0.52227 0.50393 0.0
Zn26 Zn 0.49771 0.45241 0.47221 0.0
Zn27 Zn 0.43598 0.52862 0.53511 0.0
Zn28 Zn 0.50671 0.58836 0.47768 0.0
O29 O 0.49651 0.47043 0.42252 0.0
O30 O 0.51093 0.56371 0.42711 0.0
O31 O 0.62088 0.45107 0.51775 0.0
O32 O 0.56855 0.40236 0.47709 0.0
O33 O 0.42568 0.40661 0.48256 0.0
O34 O 0.3863 0.45815 0.52724 0.0
O35 O 0.38531 0.59569 0.5264 0.0
O36 O 0.62536 0.58766 0.52593 0.0
O37 O 0.43365 0.63549 0.48564 0.0
O38 O 0.57836 0.63726 0.48944 0.0
C39 C 0.50979 0.52739 0.59932 0.0
C40 C 0.50476 0.5165 0.40882 0.0
C41 C 0.3865 0.41398 0.50579 0.0
C42 C 0.61378 0.40774 0.49621 0.0
C43 C 0.38967 0.63368 0.50559 0.0
C44 C 0.62207 0.63048 0.5088 0.0
O45 O 0.46034 0.53408 0.58525 0.0
O46 O 0.97233 0.95193 0.3697 0.0
Cd47 Cd 0.95838 0.9435 0.43129 0.0
O48 O 0.03485 0.02295 0.37713 0.0
Cd49 Cd 0.01686 0.0355 0.43191 0.0
O50 O 0.95446 0.09033 0.46087 0.0
C51 C 0.95044 0.13873 0.44968 0.0
O52 O 0.98612 0.15095 0.42507 0.0
C53 C 0.00669 0.98694 0.35715 0.0
C54 C 0.0461 0.87854 0.45777 0.0
O55 O 1.00025 0.85518 0.44369 0.0
O56 O 0.05028 0.93276 0.45962 0.0
O57 O 0.02526 0.01962 0.63567 0.0
Cd58 Cd 0.03062 0.01761 0.57282 0.0
O59 O 0.08707 0.94896 0.63734 0.0
Cd60 Cd 0.07665 0.92591 0.58226 0.0
O61 O 0.00966 0.8858 0.54811 0.0
C62 C 0.95769 0.89831 0.55759 0.0
O63 O 0.95012 0.93521 0.58458 0.0
C64 C 0.05575 0.98767 0.65295 0.0
C65 C 0.10583 0.10046 0.55158 0.0
O66 O 0.05067 0.10941 0.55437 0.0
O67 O 0.12532 0.05236 0.55878 0.0
O68 O 0.50104 0.47283 0.8695 0.0
Cd69 Cd 0.49061 0.46735 0.93147 0.0
O70 O 0.55424 0.55083 0.87506 0.0
Cd71 Cd 0.53882 0.56555 0.93016 0.0
O72 O 0.48046 0.62175 0.96142 0.0
C73 C 0.4321 0.60397 0.97238 0.0
O74 O 0.42054 0.54932 0.96834 0.0
C75 C 0.53016 0.51075 0.85597 0.0
C76 C 0.57264 0.39479 0.95644 0.0
O77 O 0.52374 0.37584 0.94393 0.0
O78 O 0.58263 0.44825 0.95735 0.0
O79 O 0.50322 0.52733 0.13302 0.0
Cd80 Cd 0.50491 0.52238 0.06996 0.0
O81 O 0.57526 0.46647 0.13529 0.0
Cd82 Cd 0.56478 0.43869 0.0808 0.0
O83 O 0.49908 0.38961 0.05001 0.0
C84 C 0.44818 0.39421 0.0631 0.0
O85 O 0.44091 0.42859 0.09126 0.0
C86 C 0.53927 0.50124 0.15058 0.0
C87 C 0.5836 0.60072 0.04682 0.0
O88 O 0.52908 0.61249 0.05021 0.0
O89 O 0.6007 0.55183 0.05408 0.0
C90 C 0.17289 0.19981 0.99562 0.0
C91 C 0.17206 0.15333 0.01529 0.0
C92 C 0.21815 0.24031 0.99927 0.0
C93 C 0.26345 0.23432 0.02327 0.0
C94 C 0.26352 0.18693 0.04265 0.0
C95 C 0.21796 0.14703 0.03839 0.0
C96 C 0.2168 0.29017 0.97806 0.0
C97 C 0.31094 0.17913 0.06862 0.0
C98 C 0.40782 0.31457 0.02264 0.0
C99 C 0.39923 0.35734 0.04963 0.0
C100 C 0.36305 0.2755 0.01263 0.0
C101 C 0.30868 0.27937 0.03009 0.0
C102 C 0.29896 0.32409 0.05621 0.0
C103 C 0.34426 0.36254 0.06558 0.0
C104 C 0.3748 0.22868 0.98442 0.0
C105 C 0.24159 0.3298 0.07543 0.0
H106 H 0.13787 0.20492 0.97754 0.0
H107 H 0.21796 0.11124 0.05364 0.0
H108 H 0.21053 0.33001 0.99511 0.0
H109 H 0.25913 0.29401 0.96458 0.0
H110 H 0.18107 0.28643 0.95872 0.0
H111 H 0.30615 0.1386 0.08044 0.0
H112 H 0.35461 0.17994 0.0563 0.0
H113 H 0.30972 0.2147 0.08934 0.0
H114 H 0.45008 0.31048 0.01004 0.0
H115 H 0.33701 0.39574 0.08627 0.0
H116 H 0.33881 0.22594 0.96532 0.0
H117 H 0.37654 0.18734 0.99547 0.0
H118 H 0.41679 0.23508 0.97098 0.0
H119 H 0.20453 0.32982 0.05716 0.0
H120 H 0.23962 0.36921 0.09334 0.0
H121 H 0.23539 0.29287 0.09046 0.0
C122 C 0.18589 0.83626 0.02917 0.0
C123 C 0.15036 0.84192 1.00048 0.0
C124 C 0.23024 0.79539 0.02806 0.0
C125 C 0.24004 0.76007 0.9973 0.0
C126 C 0.2034 0.76459 0.9685 0.0
C127 C 0.15856 0.80516 0.97056 0.0
C128 C 0.26758 0.79104 0.0595 0.0
C129 C 0.21301 0.72809 0.93511 0.0
C130 C 0.39249 0.70261 0.9785 0.0
C131 C 0.38543 0.64504 0.98333 0.0
C132 C 0.34577 0.74067 0.98363 0.0
C133 C 0.2909 0.72095 0.99445 0.0
C134 C 0.28434 0.66363 0.00121 0.0
C135 C 0.33162 0.62621 0.99535 0.0
C136 C 0.35448 0.80147 0.97601 0.0
C137 C 0.22685 0.64142 0.01354 0.0
H138 H 0.17928 0.86414 0.05254 0.0
H139 H 0.13132 0.80947 0.94831 0.0
H140 H 0.26942 0.74638 0.06573 0.0
H141 H 0.31303 0.80446 0.05435 0.0
H142 H 0.25089 0.81795 0.08228 0.0
H143 H 0.17928 0.73524 0.91559 0.0
H144 H 0.25668 0.73746 0.92456 0.0
H145 H 0.21249 0.68254 0.93953 0.0
H146 H 0.43391 0.71761 0.96927 0.0
H147 H 0.32593 0.58187 0.99935 0.0
H148 H 0.34227 0.83096 0.99867 0.0
H149 H 0.32547 0.8107 0.95455 0.0
H150 H 0.40041 0.81049 0.96889 0.0
H151 H 0.21086 0.66901 0.03617 0.0
H152 H 0.23044 0.59725 0.02058 0.0
H153 H 0.19342 0.64224 0.99307 0.0
C154 C 0.8232 0.81665 0.98105 0.0
C155 C 0.83295 0.85986 0.0077 0.0
C156 C 0.78083 0.77423 0.98426 0.0
C157 C 0.74826 0.77444 0.01508 0.0
C158 C 0.75739 0.81834 0.04185 0.0
C159 C 0.79918 0.86069 0.03773 0.0
C160 C 0.77154 0.7287 0.95491 0.0
C161 C 0.72422 0.81971 0.07532 0.0
C162 C 0.60658 0.69114 0.02123 0.0
C163 C 0.62596 0.64312 0.03616 0.0
C164 C 0.64621 0.73319 0.01286 0.0
C165 C 0.70646 0.72754 0.02021 0.0
C166 C 0.72637 0.67851 0.03459 0.0
C167 C 0.68595 0.63668 0.04209 0.0
C168 C 0.6234 0.78429 0.99695 0.0
C169 C 0.7901 0.6712 0.04326 0.0
H170 H 0.84881 0.81586 0.95769 0.0
H171 H 0.80653 0.89366 0.05856 0.0
H172 H 0.78439 0.68685 0.96292 0.0
H173 H 0.72452 0.72585 0.94787 0.0
H174 H 0.79734 0.73676 0.93181 0.0
H175 H 0.73566 0.85737 0.09335 0.0
H176 H 0.67643 0.82009 0.07045 0.0
H177 H 0.73387 0.78086 0.08796 0.0
H178 H 0.5603 0.69609 0.01627 0.0
H179 H 0.70122 0.59971 0.05368 0.0
H180 H 0.64888 0.79108 0.97355 0.0
H181 H 0.62892 0.82284 0.01524 0.0
H182 H 0.57638 0.77983 0.98998 0.0
H183 H 0.81771 0.67483 0.02027 0.0
H184 H 0.79882 0.6296 0.05308 0.0
H185 H 0.80387 0.70546 0.06308 0.0
C186 C 0.8452 0.19523 0.97205 0.0
C187 C 0.84639 0.1652 0.0012 0.0
C188 C 0.80019 0.23363 0.96706 0.0
C189 C 0.75561 0.24306 0.99208 0.0
C190 C 0.75735 0.21417 0.02206 0.0
C191 C 0.80246 0.17519 0.02613 0.0
C192 C 0.79955 0.26304 0.93453 0.0
C193 C 0.71114 0.22389 0.04957 0.0
C194 C 0.6667 0.37714 0.98637 0.0
C195 C 0.61718 0.35577 0.96819 0.0
C196 C 0.71107 0.34069 0.99562 0.0
C197 C 0.70616 0.2816 0.98601 0.0
C198 C 0.65549 0.25967 0.96851 0.0
C199 C 0.61143 0.29697 0.96004 0.0
C200 C 0.76393 0.36559 0.01482 0.0
C201 C 0.6488 0.19699 0.95753 0.0
H202 H 0.87873 0.18764 0.95255 0.0
H203 H 0.80322 0.15245 0.04883 0.0
H204 H 0.75912 0.25139 0.91975 0.0
H205 H 0.79916 0.30975 0.94088 0.0
H206 H 0.83794 0.25171 0.91785 0.0
H207 H 0.72068 0.20077 0.07227 0.0
H208 H 0.70759 0.26986 0.0581 0.0
H209 H 0.66789 0.20965 0.03904 0.0
H210 H 0.67117 0.4225 0.99305 0.0
H211 H 0.57325 0.28012 0.94605 0.0
H212 H 0.80321 0.36005 0.99817 0.0
H213 H 0.77224 0.34293 0.03781 0.0
H214 H 0.75867 0.41156 0.0231 0.0
H215 H 0.68349 0.18318 0.93871 0.0
H216 H 0.60552 0.18643 0.94559 0.0
H217 H 0.65425 0.17218 0.97989 0.0
C218 C 0.67478 0.71462 0.48867 0.0
C219 C 0.67062 0.67247 0.5114 0.0
C220 C 0.72125 0.75396 0.49104 0.0
C221 C 0.76406 0.75138 0.51697 0.0
C222 C 0.76022 0.70874 0.53979 0.0
C223 C 0.7138 0.66979 0.53665 0.0
C224 C 0.72429 0.79854 0.46608 0.0
C225 C 0.80466 0.70482 0.56803 0.0
C226 C 0.91453 0.81977 0.51749 0.0
C227 C 0.90681 0.86626 0.54221 0.0
C228 C 0.86731 0.78392 0.50705 0.0
C229 C 0.81137 0.79477 0.52185 0.0
C230 C 0.80264 0.84386 0.54497 0.0
C231 C 0.85039 0.87908 0.55475 0.0
C232 C 0.8782 0.73249 0.4819 0.0
C233 C 0.74374 0.85705 0.56134 0.0
H234 H 0.64188 0.71675 0.46891 0.0
H235 H 0.71105 0.63748 0.55437 0.0
H236 H 0.71966 0.84136 0.4801 0.0
H237 H 0.76758 0.79726 0.45318 0.0
H238 H 0.68958 0.79278 0.44617 0.0
H239 H 0.7961 0.66837 0.58316 0.0
H240 H 0.84928 0.70036 0.55696 0.0
H241 H 0.80414 0.74443 0.58577 0.0
H242 H 0.95789 0.80981 0.50746 0.0
H243 H 0.84383 0.91533 0.57354 0.0
H244 H 0.8431 0.72759 0.46226 0.0
H245 H 0.87774 0.69382 0.49575 0.0
H246 H 0.9211 0.73496 0.46874 0.0
H247 H 0.70878 0.85434 0.54161 0.0
H248 H 0.74264 0.89995 0.5757 0.0
H249 H 0.73345 0.82522 0.57948 0.0
C250 C 0.70828 0.3683 0.51534 0.0
C251 C 0.66032 0.36409 0.49279 0.0
C252 C 0.75488 0.32993 0.51117 0.0
C253 C 0.75366 0.28632 0.48374 0.0
C254 C 0.70459 0.28056 0.46157 0.0
C255 C 0.65841 0.31949 0.46638 0.0
C256 C 0.80635 0.33731 0.53542 0.0
C257 C 0.7018 0.23449 0.43202 0.0
C258 C 0.89818 0.23046 0.44721 0.0
C259 C 0.90244 0.17807 0.46088 0.0
C260 C 0.85029 0.26627 0.45482 0.0
C261 C 0.80557 0.2494 0.47671 0.0
C262 C 0.81031 0.19733 0.4914 0.0
C263 C 0.85878 0.16221 0.48331 0.0
C264 C 0.84699 0.32167 0.4388 0.0
C265 C 0.7636 0.17821 0.51505 0.0
H266 H 0.71006 0.4023 0.53602 0.0
H267 H 0.62153 0.31577 0.4489 0.0
H268 H 0.81618 0.29673 0.54611 0.0
H269 H 0.84578 0.34935 0.52121 0.0
H270 H 0.79849 0.37052 0.55703 0.0
H271 H 0.65894 0.23333 0.41859 0.0
H272 H 0.73675 0.24152 0.41318 0.0
H273 H 0.70967 0.19241 0.44131 0.0
H274 H 0.9318 0.24317 0.42996 0.0
H275 H 0.86178 0.12178 0.49397 0.0
H276 H 0.84288 0.35762 0.4591 0.0
H277 H 0.8075 0.32188 0.42234 0.0
H278 H 0.88605 0.32909 0.42291 0.0
H279 H 0.7565 0.21121 0.53681 0.0
H280 H 0.77502 0.13771 0.52549 0.0
H281 H 0.72154 0.17234 0.50099 0.0
C282 C 0.33351 0.32468 0.48327 0.0
C283 C 0.34206 0.36904 0.50938 0.0
C284 C 0.29346 0.28061 0.4874 0.0
C285 C 0.26198 0.28042 0.51858 0.0
C286 C 0.26989 0.32542 0.54481 0.0
C287 C 0.30942 0.36931 0.5398 0.0
C288 C 0.28545 0.23383 0.45862 0.0
C289 C 0.23774 0.32646 0.57861 0.0
C290 C 0.12426 0.1918 0.52606 0.0
C291 C 0.14605 0.14488 0.54118 0.0
C292 C 0.1618 0.23529 0.51736 0.0
C293 C 0.22237 0.23224 0.52452 0.0
C294 C 0.2447 0.18449 0.53925 0.0
C295 C 0.20634 0.14117 0.54712 0.0
C296 C 0.13647 0.28502 0.50113 0.0
C297 C 0.30887 0.17997 0.54771 0.0
H298 H 0.35828 0.32427 0.45962 0.0
H299 H 0.31585 0.40317 0.56022 0.0
H300 H 0.30014 0.19287 0.46711 0.0
H301 H 0.23843 0.22901 0.45185 0.0
H302 H 0.31042 0.24199 0.43524 0.0
H303 H 0.24807 0.36499 0.59618 0.0
H304 H 0.18983 0.3248 0.57414 0.0
H305 H 0.24949 0.28848 0.59159 0.0
H306 H 0.07776 0.19465 0.5211 0.0
H307 H 0.22344 0.10507 0.55885 0.0
H308 H 0.16085 0.29195 0.47737 0.0
H309 H 0.14113 0.32421 0.51898 0.0
H310 H 0.08941 0.27877 0.49466 0.0
H311 H 0.33581 0.18381 0.52447 0.0
H312 H 0.31956 0.13921 0.55804 0.0
H313 H 0.32161 0.21538 0.56703 0.0
C314 C 0.29653 0.68005 0.52775 0.0
C315 C 0.3409 0.67422 0.50282 0.0
C316 C 0.24811 0.71535 0.52398 0.0
C317 C 0.24349 0.74479 0.49433 0.0
C318 C 0.28872 0.74002 0.46948 0.0
C319 C 0.33699 0.70519 0.47415 0.0
C320 C 0.20128 0.72017 0.55133 0.0
C321 C 0.28521 0.77026 0.43733 0.0
C322 C 0.09448 0.78483 0.46154 0.0
C323 C 0.09402 0.84378 0.47006 0.0
C324 C 0.14215 0.75189 0.47018 0.0
C325 C 0.19021 0.7784 0.48823 0.0
C326 C 0.18874 0.8375 0.49834 0.0
C327 C 0.14081 0.86956 0.48895 0.0
C328 C 0.1421 0.68905 0.45876 0.0
C329 C 0.2386 0.86716 0.51815 0.0
H330 H 0.29932 0.65659 0.5501 0.0
H331 H 0.37086 0.70087 0.45467 0.0
H332 H 0.19263 0.76547 0.55987 0.0
H333 H 0.15982 0.70145 0.54062 0.0
H334 H 0.21354 0.69815 0.57404 0.0
H335 H 0.32478 0.7634 0.42096 0.0
H336 H 0.2464 0.75495 0.42204 0.0
H337 H 0.27969 0.81653 0.44415 0.0
H338 H 0.05838 0.76456 0.44707 0.0
H339 H 0.14045 0.91502 0.49598 0.0
H340 H 0.15015 0.66448 0.48097 0.0
H341 H 0.17807 0.6791 0.44009 0.0
H342 H 0.10014 0.67446 0.4465 0.0
H343 H 0.24959 0.84464 0.54083 0.0
H344 H 0.22821 0.91205 0.527 0.0
H345 H 0.27816 0.86643 0.50168 0.0
C346 C 0.05301 0.98867 0.15415 0.0
C347 C 0.00372 0.01087 0.13884 0.0
C348 C 0.05494 0.98386 0.18955 0.0
C349 C 0.00676 0.00243 0.21035 0.0
C350 C 0.95715 0.02559 0.19522 0.0
C351 C 0.95602 0.02915 0.15958 0.0
C352 C 0.10834 0.95829 0.20463 0.0
C353 C 0.90526 0.04658 0.21668 0.0
C354 C 0.98677 0.94486 0.29694 0.0
C355 C 0.01014 0.98901 0.31946 0.0
C356 C 0.98602 0.94836 0.26132 0.0
C357 C 0.00838 0.99754 0.24797 0.0
C358 C 0.03253 0.042 0.27053 0.0
C359 C 0.03353 0.03701 0.30596 0.0
C360 C 0.96088 0.89963 0.238 0.0
C361 C 0.05631 0.09533 0.25731 0.0
H362 H 0.08995 0.97399 0.13834 0.0
H363 H 0.91787 0.04648 0.148 0.0
H364 H 0.12835 0.98924 0.22441 0.0
H365 H 0.09552 0.92045 0.21753 0.0
H366 H 0.14193 0.94544 0.18487 0.0
H367 H 0.87061 0.06456 0.20112 0.0
H368 H 0.88613 0.01124 0.22966 0.0
H369 H 0.91953 0.07972 0.23705 0.0
H370 H 0.96873 0.9076 0.30715 0.0
H371 H 0.05125 0.07155 0.32318 0.0
H372 H 0.99383 0.88393 0.21853 0.0
H373 H 0.92261 0.91434 0.22394 0.0
H374 H 0.94682 0.8637 0.25234 0.0
H375 H 0.09196 0.08455 0.23857 0.0
H376 H 0.07357 0.12602 0.27824 0.0
H377 H 0.02134 0.11636 0.24361 0.0
C378 C 0.04648 0.04205 0.85857 0.0
C379 C 0.01638 0.99806 0.87269 0.0
C380 C 0.0545 0.04133 0.82298 0.0
C381 C 0.03094 0.99605 0.80082 0.0
C382 C 1.0001 0.95169 0.81485 0.0
C383 C 0.99369 0.95294 0.85066 0.0
C384 C 0.08854 0.08889 0.8091 0.0
C385 C 0.97351 0.90316 0.79202 0.0
C386 C 0.0045 0.02167 0.70769 0.0
C387 C 0.05149 0.99267 0.69096 0.0
C388 C 0.99717 0.0229 0.74339 0.0
C389 C 0.03837 0.99531 0.76295 0.0
C390 C 0.08667 0.96713 0.74633 0.0
C391 C 0.09238 0.96573 0.71051 0.0
C392 C 0.9447 0.05282 0.7601 0.0
C393 C 0.13214 0.93815 0.76637 0.0
H394 H 0.06464 0.07685 0.87541 0.0
H395 H 0.97018 0.91895 0.86136 0.0
H396 H 0.12624 0.07133 0.7937 0.0
H397 H 0.06043 0.11131 0.79177 0.0
H398 H 0.10519 0.12031 0.82983 0.0
H399 H 0.95009 0.87247 0.8069 0.0
H400 H 0.94226 0.91982 0.77383 0.0
H401 H 0.00816 0.88017 0.77648 0.0
H402 H 0.97243 0.04219 0.69277 0.0
H403 H 0.12888 0.94336 0.69779 0.0
H404 H 0.95919 0.08683 0.77986 0.0
H405 H 0.918 0.02237 0.77335 0.0
H406 H 0.91653 0.07199 0.74126 0.0
H407 H 0.15122 0.96887 0.78663 0.0
H408 H 0.16809 0.91971 0.74976 0.0
H409 H 0.11143 0.90367 0.77942 0.0
C410 C 0.56537 0.50678 0.65168 0.0
C411 C 0.51378 0.52559 0.63704 0.0
C412 C 0.56976 0.50306 0.68713 0.0
C413 C 0.52164 0.51914 0.70862 0.0
C414 C 0.46958 0.53861 0.69413 0.0
C415 C 0.46613 0.54129 0.65848 0.0
C416 C 0.62581 0.48157 0.70155 0.0
C417 C 0.41756 0.55672 0.71632 0.0
C418 C 0.51102 0.46444 0.79655 0.0
C419 C 0.53189 0.51108 0.8181 0.0
C420 C 0.5082 0.46617 0.76082 0.0
C421 C 0.52601 0.51596 0.74633 0.0
C422 C 0.54787 0.56286 0.76786 0.0
C423 C 0.5509 0.55972 0.80344 0.0
C424 C 0.48551 0.41497 0.7386 0.0
C425 C 0.56693 0.61683 0.7534 0.0
H426 H 0.60235 0.49415 0.63537 0.0
H427 H 0.42617 0.55595 0.64743 0.0
H428 H 0.64485 0.51445 0.72054 0.0
H429 H 0.61657 0.44367 0.71524 0.0
H430 H 0.65894 0.47006 0.68129 0.0
H431 H 0.38054 0.57141 0.70114 0.0
H432 H 0.40221 0.52082 0.73021 0.0
H433 H 0.43046 0.59161 0.73595 0.0
H434 H 0.49636 0.42667 0.80764 0.0
H435 H 0.56676 0.59612 0.81986 0.0
H436 H 0.51835 0.40083 0.7187 0.0
H437 H 0.4453 0.42633 0.72503 0.0
H438 H 0.47525 0.37887 0.75372 0.0
H439 H 0.602 0.60754 0.73408 0.0
H440 H 0.58333 0.64933 0.7736 0.0
H441 H 0.52963 0.63499 0.74009 0.0
C442 C 0.53301 0.562 0.35611 0.0
C443 C 0.50919 0.51536 0.37091 0.0
C444 C 0.53908 0.56137 0.32039 0.0
C445 C 0.52012 0.5133 0.29881 0.0
C446 C 0.49549 0.46629 0.31351 0.0
C447 C 0.49072 0.4677 0.3494 0.0
C448 C 0.56631 0.612 0.30576 0.0
C449 C 0.47405 0.41455 0.29131 0.0
C450 C 0.48673 0.53188 0.20543 0.0
C451 C 0.53629 0.50782 0.18863 0.0
C452 C 0.48091 0.53394 0.24126 0.0
C453 C 0.52612 0.51221 0.26085 0.0
C454 C 0.57693 0.48922 0.24415 0.0
C455 C 0.58122 0.48691 0.20823 0.0
C456 C 0.42579 0.55825 0.25808 0.0
C457 C 0.62653 0.46651 0.2642 0.0
H458 H 0.54783 0.59888 0.37249 0.0
H459 H 0.4721 0.43159 0.36058 0.0
H460 H 0.60554 0.59855 0.29039 0.0
H461 H 0.535 0.63021 0.28823 0.0
H462 H 0.57942 0.64582 0.32607 0.0
H463 H 0.45495 0.38202 0.30667 0.0
H464 H 0.4404 0.42702 0.2731 0.0
H465 H 0.51072 0.39509 0.27578 0.0
H466 H 0.45159 0.54774 0.19049 0.0
H467 H 0.61971 0.46838 0.19547 0.0
H468 H 0.43681 0.59403 0.27752 0.0
H469 H 0.40335 0.52542 0.27173 0.0
H470 H 0.39485 0.5737 0.23923 0.0
H471 H 0.64235 0.49981 0.28404 0.0
H472 H 0.66394 0.45193 0.2475 0.0
H473 H 0.61084 0.43037 0.27777 0.0
loop_
_geom_bond_atom_site_label_1
_geom_bond_atom_site_label_2
_geom_bond_distance
_geom_bond_site_symmetry_2
_ccdc_geom_bond_type
O0 Zn1 1.953 . S
O0 C16 1.225 1_565 S
Zn1 O0 1.953 . S
Zn1 O2 1.949 1_565 S
Zn1 O8 1.917 . S
Zn1 O13 1.926 1_565 S
O2 Zn1 1.949 1_545 S
O2 Zn3 1.923 1_444 S
O2 Zn4 1.950 1_455 S
O2 Zn5 1.945 1_554 S
Zn3 O2 1.923 1_666 S
Zn3 O6 1.933 . S
Zn3 O9 1.941 1_655 S
Zn3 O10 1.965 . S
Zn4 O2 1.950 1_655 S
Zn4 O11 1.938 1_545 S
Zn4 O12 1.906 . S
Zn4 O22 1.953 . S
Zn5 O2 1.945 1_556 S
Zn5 O7 1.932 . S
Zn5 O14 1.977 1_455 S
Zn5 O15 1.910 . S
O6 Zn3 1.933 . S
O6 C17 1.226 1_665 S
O7 Zn5 1.932 . S
O7 C17 1.307 . S
O8 Zn1 1.917 . S
O8 C19 1.253 1_554 S
O9 Zn3 1.941 1_455 S
O9 C19 1.283 . S
O10 Zn3 1.965 . S
O10 C18 1.303 1_556 S
O11 Zn4 1.938 1_565 S
O11 C18 1.247 . S
O12 Zn4 1.906 . S
O12 C20 1.304 1_554 S
O13 Zn1 1.926 1_545 S
O13 C21 1.311 . S
O14 Zn5 1.977 1_655 S
O14 C20 1.272 . S
O15 Zn5 1.910 . S
O15 C21 1.231 1_556 S
C16 O0 1.225 1_545 S
C16 O22 1.298 1_455 S
C17 O6 1.226 1_445 S
C17 O7 1.307 . S
C18 O10 1.303 1_554 S
C18 O11 1.247 . S
C19 O8 1.253 1_556 S
C19 O9 1.283 . S
C20 O12 1.304 1_556 S
C20 O14 1.272 . S
C21 O13 1.311 . S
C21 O15 1.231 1_554 S
O22 Zn4 1.953 . S
O22 C16 1.298 1_655 S
O23 Zn24 1.953 . S
O23 C39 1.225 . S
Zn24 O23 1.953 . S
Zn24 O25 1.949 . S
Zn24 O31 1.919 . S
Zn24 O36 1.924 . S
O25 Zn24 1.949 . S
O25 Zn26 1.923 . S
O25 Zn27 1.950 . S
O25 Zn28 1.945 . S
Zn26 O25 1.923 . S
Zn26 O29 1.933 . S
Zn26 O32 1.941 . S
Zn26 O33 1.965 . S
Zn27 O25 1.950 . S
Zn27 O34 1.938 . S
Zn27 O35 1.906 . S
Zn27 O45 1.953 . S
Zn28 O25 1.945 . S
Zn28 O30 1.932 . S
Zn28 O37 1.977 . S
Zn28 O38 1.910 . S
O29 Zn26 1.933 . S
O29 C40 1.226 . S
O30 Zn28 1.932 . S
O30 C40 1.307 . S
O31 Zn24 1.919 . S
O31 C42 1.253 . S
O32 Zn26 1.941 . S
O32 C42 1.283 . S
O33 Zn26 1.965 . S
O33 C41 1.303 . S
O34 Zn27 1.938 . S
O34 C41 1.247 . S
O35 Zn27 1.906 . S
O35 C43 1.304 . S
O36 Zn24 1.924 . S
O36 C44 1.311 . S
O37 Zn28 1.977 . S
O37 C43 1.272 . S
O38 Zn28 1.910 . S
O38 C44 1.231 . S
C39 O23 1.225 . S
C39 O45 1.298 . S
C40 O29 1.226 . S
C40 O30 1.307 . S
C41 O33 1.303 . S
C41 O34 1.247 . S
C42 O31 1.253 . S
C42 O32 1.283 . S
C43 O35 1.304 . S
C43 O37 1.272 . S
C44 O36 1.311 . S
C44 O38 1.231 . S
O45 Zn27 1.953 . S
O45 C39 1.298 . S
O46 Cd47 2.300 . S
O46 C53 1.275 1_565 S
Cd47 O46 2.300 . S
Cd47 O55 2.381 . S
Cd47 O56 2.378 . S
O48 Cd49 2.385 . S
O48 C53 1.255 . S
Cd49 O48 2.385 . S
Cd49 O50 2.317 1_455 S
O50 Cd49 2.317 1_655 S
O50 C51 1.232 . S
C51 O50 1.232 . S
C51 O52 1.218 . S
O52 C51 1.218 . S
C53 O46 1.275 1_545 S
C53 O48 1.255 . S
C54 O55 1.258 . S
C54 O56 1.256 . S
O55 Cd47 2.381 . S
O55 C54 1.258 . S
O56 Cd47 2.378 . S
O56 C54 1.256 . S
O57 Cd58 2.300 . S
O57 C64 1.275 1_545 S
Cd58 O57 2.300 . S
Cd58 O66 2.381 . S
Cd58 O67 2.378 . S
O59 Cd60 2.385 . S
O59 C64 1.255 . S
Cd60 O59 2.385 . S
Cd60 O61 2.317 1_455 S
O61 Cd60 2.317 1_655 S
O61 C62 1.232 . S
C62 O61 1.232 . S
C62 O63 1.218 . S
O63 C62 1.218 . S
C64 O57 1.275 1_565 S
C64 O59 1.255 . S
C65 O66 1.258 . S
C65 O67 1.256 . S
O66 Cd58 2.381 . S
O66 C65 1.258 . S
O67 Cd58 2.378 . S
O67 C65 1.256 . S
O68 Cd69 2.300 . S
O68 C75 1.275 . S
Cd69 O68 2.300 . S
Cd69 O77 2.381 . S
Cd69 O78 2.378 . S
O70 Cd71 2.385 . S
O70 C75 1.255 . S
Cd71 O70 2.385 . S
Cd71 O72 2.317 . S
O72 Cd71 2.317 . S
O72 C73 1.232 . S
C73 O72 1.232 . S
C73 O74 1.218 . S
O74 C73 1.218 . S
C75 O68 1.275 . S
C75 O70 1.255 . S
C76 O77 1.258 . S
C76 O78 1.256 . S
O77 Cd69 2.381 . S
O77 C76 1.258 . S
O78 Cd69 2.378 . S
O78 C76 1.256 . S
O79 Cd80 2.300 . S
O79 C86 1.275 . S
Cd80 O79 2.300 . S
Cd80 O88 2.381 . S
Cd80 O89 2.378 . S
O81 Cd82 2.385 . S
O81 C86 1.255 . S
Cd82 O81 2.385 . S
Cd82 O83 2.317 . S
O83 Cd82 2.317 . S
O83 C84 1.232 . S
C84 O83 1.232 . S
C84 O85 1.218 . S
O85 C84 1.218 . S
C86 O79 1.275 . S
C86 O81 1.255 . S
C87 O88 1.258 . S
C87 O89 1.256 . S
O88 Cd80 2.381 . S
O88 C87 1.258 . S
O89 Cd80 2.378 . S
O89 C87 1.256 . S
C90 C91 1.391 . S
C90 C92 1.394 . S
C90 H106 0.931 . S
C91 C90 1.391 . S
C91 C95 1.376 . S
C92 C90 1.394 . S
C92 C93 1.369 . S
C92 C96 1.531 . S
C93 C92 1.369 . S
C93 C94 1.410 . S
C93 C101 1.503 . S
C94 C93 1.410 . S
C94 C95 1.392 . S
C94 C97 1.511 . S
C95 C91 1.376 . S
C95 C94 1.392 . S
C95 H107 0.929 . S
C96 C92 1.531 . S
C96 H108 0.960 . S
C96 H109 0.962 . S
C96 H110 0.960 . S
C97 C94 1.511 . S
C97 H111 0.961 . S
C97 H112 0.961 . S
C97 H113 0.961 . S
C98 C99 1.370 . S
C98 C100 1.363 . S
C98 H114 0.931 . S
C99 C98 1.370 . S
C99 C103 1.408 . S
C100 C98 1.363 . S
C100 C101 1.370 . S
C100 C104 1.522 1_554 S
C101 C93 1.503 . S
C101 C100 1.370 . S
C101 C102 1.403 . S
C102 C101 1.403 . S
C102 C103 1.404 . S
C102 C105 1.539 . S
C103 C99 1.408 . S
C103 C102 1.404 . S
C103 H115 0.930 . S
C104 C100 1.522 1_556 S
C104 H116 0.957 . S
C104 H117 0.960 1_556 S
C104 H118 0.962 . S
C105 C102 1.539 . S
C105 H119 0.958 . S
C105 H120 0.961 . S
C105 H121 0.960 . S
H106 C90 0.931 . S
H107 C95 0.929 . S
H108 C96 0.960 . S
H109 C96 0.962 . S
H110 C96 0.960 . S
H111 C97 0.961 . S
H112 C97 0.961 . S
H113 C97 0.961 . S
H114 C98 0.931 . S
H115 C103 0.930 . S
H116 C104 0.957 . S
H117 C104 0.960 1_554 S
H118 C104 0.962 . S
H119 C105 0.958 . S
H120 C105 0.961 . S
H121 C105 0.960 . S
C122 C123 1.391 1_554 S
C122 C124 1.394 1_554 S
C122 H138 0.931 . S
C123 C122 1.391 1_556 S
C123 C127 1.376 . S
C124 C122 1.394 1_556 S
C124 C125 1.369 . S
C124 C128 1.531 1_556 S
C125 C124 1.369 . S
C125 C126 1.410 . S
C125 C133 1.503 . S
C126 C125 1.410 . S
C126 C127 1.392 . S
C126 C129 1.511 . S
C127 C123 1.376 . S
C127 C126 1.392 . S
C127 H139 0.929 . S
C128 C124 1.531 1_554 S
C128 H140 0.960 . S
C128 H141 0.962 . S
C128 H142 0.960 . S
C129 C126 1.511 . S
C129 H143 0.961 . S
C129 H144 0.961 . S
C129 H145 0.961 . S
C130 C131 1.370 . S
C130 C132 1.363 . S
C130 H146 0.931 . S
C131 C130 1.370 . S
C131 C135 1.408 . S
C132 C130 1.363 . S
C132 C133 1.370 . S
C132 C136 1.524 . S
C133 C125 1.503 . S
C133 C132 1.370 . S
C133 C134 1.403 . S
C134 C133 1.403 . S
C134 C135 1.404 . S
C134 C137 1.539 . S
C135 C131 1.408 . S
C135 C134 1.404 . S
C135 H147 0.930 . S
C136 C132 1.524 . S
C136 H148 0.956 . S
C136 H149 0.961 . S
C136 H150 0.961 . S
C137 C134 1.539 . S
C137 H151 0.958 . S
C137 H152 0.961 . S
C137 H153 0.960 . S
H138 C122 0.931 . S
H139 C127 0.929 . S
H140 C128 0.960 . S
H141 C128 0.962 . S
H142 C128 0.960 . S
H143 C129 0.961 . S
H144 C129 0.961 . S
H145 C129 0.961 . S
H146 C130 0.931 . S
H147 C135 0.930 . S
H148 C136 0.956 . S
H149 C136 0.961 . S
H150 C136 0.961 . S
H151 C137 0.958 . S
H152 C137 0.961 . S
H153 C137 0.960 . S
C154 C155 1.391 1_556 S
C154 C156 1.394 1_556 S
C154 H170 0.931 . S
C155 C154 1.391 1_554 S
C155 C159 1.376 . S
C156 C154 1.394 1_554 S
C156 C157 1.369 . S
C156 C160 1.531 1_554 S
C157 C156 1.369 . S
C157 C158 1.410 . S
C157 C165 1.503 . S
C158 C157 1.410 . S
C158 C159 1.392 . S
C158 C161 1.511 . S
C159 C155 1.376 . S
C159 C158 1.392 . S
C159 H171 0.929 . S
C160 C156 1.531 1_556 S
C160 H172 0.960 . S
C160 H173 0.962 . S
C160 H174 0.960 . S
C161 C158 1.511 . S
C161 H175 0.961 . S
C161 H176 0.961 . S
C161 H177 0.961 . S
C162 C163 1.370 . S
C162 C164 1.363 . S
C162 H178 0.931 . S
C163 C162 1.370 . S
C163 C167 1.408 . S
C164 C162 1.363 . S
C164 C165 1.370 . S
C164 C168 1.524 . S
C165 C157 1.503 . S
C165 C164 1.370 . S
C165 C166 1.403 . S
C166 C165 1.403 . S
C166 C167 1.404 . S
C166 C169 1.539 . S
C167 C163 1.408 . S
C167 C166 1.404 . S
C167 H179 0.930 . S
C168 C164 1.524 . S
C168 H180 0.956 . S
C168 H181 0.961 . S
C168 H182 0.961 . S
C169 C166 1.539 . S
C169 H183 0.958 1_554 S
C169 H184 0.961 . S
C169 H185 0.960 . S
H170 C154 0.931 . S
H171 C159 0.929 . S
H172 C160 0.960 . S
H173 C160 0.962 . S
H174 C160 0.960 . S
H175 C161 0.961 . S
H176 C161 0.961 . S
H177 C161 0.961 . S
H178 C162 0.931 . S
H179 C167 0.930 . S
H180 C168 0.956 . S
H181 C168 0.961 . S
H182 C168 0.961 . S
H183 C169 0.958 1_556 S
H184 C169 0.961 . S
H185 C169 0.960 . S
C186 C187 1.391 . S
C186 C188 1.394 . S
C186 H202 0.931 . S
C187 C186 1.391 . S
C187 C191 1.376 1_556 S
C188 C186 1.394 . S
C188 C189 1.369 . S
C188 C192 1.531 . S
C189 C188 1.369 . S
C189 C190 1.410 1_556 S
C189 C197 1.503 . S
C190 C189 1.410 1_554 S
C190 C191 1.392 . S
C190 C193 1.511 . S
C191 C187 1.376 1_554 S
C191 C190 1.392 . S
C191 H203 0.929 . S
C192 C188 1.531 . S
C192 H204 0.960 . S
C192 H205 0.962 . S
C192 H206 0.960 . S
C193 C190 1.511 . S
C193 H207 0.961 . S
C193 H208 0.961 . S
C193 H209 0.961 . S
C194 C195 1.370 . S
C194 C196 1.363 . S
C194 H210 0.931 . S
C195 C194 1.370 . S
C195 C199 1.408 . S
C196 C194 1.363 . S
C196 C197 1.370 . S
C196 C200 1.524 . S
C197 C189 1.503 . S
C197 C196 1.370 . S
C197 C198 1.403 . S
C198 C197 1.403 . S
C198 C199 1.404 . S
C198 C201 1.539 1_556 S
C199 C195 1.408 . S
C199 C198 1.404 . S
C199 H211 0.930 . S
C200 C196 1.524 . S
C200 H212 0.956 . S
C200 H213 0.961 . S
C200 H214 0.961 . S
C201 C198 1.539 1_554 S
C201 H215 0.958 1_554 S
C201 H216 0.961 . S
C201 H217 0.960 . S
H202 C186 0.931 . S
H203 C191 0.929 . S
H204 C192 0.960 . S
H205 C192 0.962 . S
H206 C192 0.960 . S
H207 C193 0.961 . S
H208 C193 0.961 . S
H209 C193 0.961 . S
H210 C194 0.931 . S
H211 C199 0.930 . S
H212 C200 0.956 . S
H213 C200 0.961 . S
H214 C200 0.961 . S
H215 C201 0.958 1_556 S
H216 C201 0.961 . S
H217 C201 0.960 . S
C218 C219 1.391 . S
C218 C220 1.394 . S
C218 H234 0.931 . S
C219 C218 1.391 . S
C219 C223 1.376 . S
C220 C218 1.394 . S
C220 C221 1.369 . S
C220 C224 1.531 . S
C221 C220 1.369 . S
C221 C222 1.410 . S
C221 C229 1.503 . S
C222 C221 1.410 . S
C222 C223 1.392 . S
C222 C225 1.511 . S
C223 C219 1.376 . S
C223 C222 1.392 . S
C223 H235 0.929 . S
C224 C220 1.531 . S
C224 H236 0.960 . S
C224 H237 0.962 . S
C224 H238 0.960 . S
C225 C222 1.511 . S
C225 H239 0.961 . S
C225 H240 0.961 . S
C225 H241 0.961 . S
C226 C227 1.370 . S
C226 C228 1.363 . S
C226 H242 0.931 . S
C227 C226 1.370 . S
C227 C231 1.408 . S
C228 C226 1.363 . S
C228 C229 1.370 . S
C228 C232 1.524 . S
C229 C221 1.503 . S
C229 C228 1.370 . S
C229 C230 1.403 . S
C230 C229 1.403 . S
C230 C231 1.404 . S
C230 C233 1.539 . S
C231 C227 1.408 . S
C231 C230 1.404 . S
C231 H243 0.930 . S
C232 C228 1.524 . S
C232 H244 0.956 . S
C232 H245 0.961 . S
C232 H246 0.961 . S
C233 C230 1.539 . S
C233 H247 0.958 . S
C233 H248 0.961 . S
C233 H249 0.960 . S
H234 C218 0.931 . S
H235 C223 0.929 . S
H236 C224 0.960 . S
H237 C224 0.962 . S
H238 C224 0.960 . S
H239 C225 0.961 . S
H240 C225 0.961 . S
H241 C225 0.961 . S
H242 C226 0.931 . S
H243 C231 0.930 . S
H244 C232 0.956 . S
H245 C232 0.961 . S
H246 C232 0.961 . S
H247 C233 0.958 . S
H248 C233 0.961 . S
H249 C233 0.960 . S
C250 C251 1.391 . S
C250 C252 1.394 . S
C250 H266 0.931 . S
C251 C250 1.391 . S
C251 C255 1.376 . S
C252 C250 1.394 . S
C252 C253 1.369 . S
C252 C256 1.531 . S
C253 C252 1.369 . S
C253 C254 1.410 . S
C253 C261 1.503 . S
C254 C253 1.410 . S
C254 C255 1.392 . S
C254 C257 1.511 . S
C255 C251 1.376 . S
C255 C254 1.392 . S
C255 H267 0.929 . S
C256 C252 1.531 . S
C256 H268 0.960 . S
C256 H269 0.962 . S
C256 H270 0.960 . S
C257 C254 1.511 . S
C257 H271 0.961 . S
C257 H272 0.961 . S
C257 H273 0.961 . S
C258 C259 1.370 . S
C258 C260 1.363 . S
C258 H274 0.931 . S
C259 C258 1.370 . S
C259 C263 1.408 . S
C260 C258 1.363 . S
C260 C261 1.370 . S
C260 C264 1.524 . S
C261 C253 1.503 . S
C261 C260 1.370 . S
C261 C262 1.403 . S
C262 C261 1.403 . S
C262 C263 1.404 . S
C262 C265 1.539 . S
C263 C259 1.408 . S
C263 C262 1.404 . S
C263 H275 0.930 . S
C264 C260 1.524 . S
C264 H276 0.956 . S
C264 H277 0.961 . S
C264 H278 0.961 . S
C265 C262 1.539 . S
C265 H279 0.958 . S
C265 H280 0.961 . S
C265 H281 0.960 . S
H266 C250 0.931 . S
H267 C255 0.929 . S
H268 C256 0.960 . S
H269 C256 0.962 . S
H270 C256 0.960 . S
H271 C257 0.961 . S
H272 C257 0.961 . S
H273 C257 0.961 . S
H274 C258 0.931 . S
H275 C263 0.930 . S
H276 C264 0.956 . S
H277 C264 0.961 . S
H278 C264 0.961 . S
H279 C265 0.958 . S
H280 C265 0.961 . S
H281 C265 0.960 . S
C282 C283 1.391 . S
C282 C284 1.394 . S
C282 H298 0.931 . S
C283 C282 1.391 . S
C283 C287 1.376 . S
C284 C282 1.394 . S
C284 C285 1.369 . S
C284 C288 1.531 . S
C285 C284 1.369 . S
C285 C286 1.410 . S
C285 C293 1.503 . S
C286 C285 1.410 . S
C286 C287 1.392 . S
C286 C289 1.511 . S
C287 C283 1.376 . S
C287 C286 1.392 . S
C287 H299 0.929 . S
C288 C284 1.531 . S
C288 H300 0.960 . S
C288 H301 0.962 . S
C288 H302 0.960 . S
C289 C286 1.511 . S
C289 H303 0.961 . S
C289 H304 0.961 . S
C289 H305 0.961 . S
C290 C291 1.370 . S
C290 C292 1.363 . S
C290 H306 0.931 . S
C291 C290 1.370 . S
C291 C295 1.408 . S
C292 C290 1.363 . S
C292 C293 1.370 . S
C292 C296 1.524 . S
C293 C285 1.503 . S
C293 C292 1.370 . S
C293 C294 1.403 . S
C294 C293 1.403 . S
C294 C295 1.404 . S
C294 C297 1.539 . S
C295 C291 1.408 . S
C295 C294 1.404 . S
C295 H307 0.930 . S
C296 C292 1.524 . S
C296 H308 0.956 . S
C296 H309 0.961 . S
C296 H310 0.961 . S
C297 C294 1.539 . S
C297 H311 0.958 . S
C297 H312 0.961 . S
C297 H313 0.960 . S
H298 C282 0.931 . S
H299 C287 0.929 . S
H300 C288 0.960 . S
H301 C288 0.962 . S
H302 C288 0.960 . S
H303 C289 0.961 . S
H304 C289 0.961 . S
H305 C289 0.961 . S
H306 C290 0.931 . S
H307 C295 0.930 . S
H308 C296 0.956 . S
H309 C296 0.961 . S
H310 C296 0.961 . S
H311 C297 0.958 . S
H312 C297 0.961 . S
H313 C297 0.960 . S
C314 C315 1.391 . S
C314 C316 1.394 . S
C314 H330 0.931 . S
C315 C314 1.391 . S
C315 C319 1.376 . S
C316 C314 1.394 . S
C316 C317 1.369 . S
C316 C320 1.531 . S
C317 C316 1.369 . S
C317 C318 1.410 . S
C317 C325 1.503 . S
C318 C317 1.410 . S
C318 C319 1.392 . S
C318 C321 1.511 . S
C319 C315 1.376 . S
C319 C318 1.392 . S
C319 H331 0.929 . S
C320 C316 1.531 . S
C320 H332 0.960 . S
C320 H333 0.962 . S
C320 H334 0.960 . S
C321 C318 1.511 . S
C321 H335 0.961 . S
C321 H336 0.961 . S
C321 H337 0.961 . S
C322 C323 1.370 . S
C322 C324 1.363 . S
C322 H338 0.931 . S
C323 C322 1.370 . S
C323 C327 1.408 . S
C324 C322 1.363 . S
C324 C325 1.370 . S
C324 C328 1.524 . S
C325 C317 1.503 . S
C325 C324 1.370 . S
C325 C326 1.403 . S
C326 C325 1.403 . S
C326 C327 1.404 . S
C326 C329 1.539 . S
C327 C323 1.408 . S
C327 C326 1.404 . S
C327 H339 0.930 . S
C328 C324 1.524 . S
C328 H340 0.956 . S
C328 H341 0.961 . S
C328 H342 0.961 . S
C329 C326 1.539 . S
C329 H343 0.958 . S
C329 H344 0.961 . S
C329 H345 0.960 . S
H330 C314 0.931 . S
H331 C319 0.929 . S
H332 C320 0.960 . S
H333 C320 0.962 . S
H334 C320 0.960 . S
H335 C321 0.961 . S
H336 C321 0.961 . S
H337 C321 0.961 . S
H338 C322 0.931 . S
H339 C327 0.930 . S
H340 C328 0.956 . S
H341 C328 0.961 . S
H342 C328 0.961 . S
H343 C329 0.958 . S
H344 C329 0.961 . S
H345 C329 0.960 . S
C346 C347 1.391 . S
C346 C348 1.394 . S
C346 H362 0.931 . S
C347 C346 1.391 . S
C347 C351 1.376 1_445 S
C348 C346 1.394 . S
C348 C349 1.369 1_455 S
C348 C352 1.531 . S
C349 C348 1.369 1_655 S
C349 C350 1.410 1_545 S
C349 C357 1.503 . S
C350 C349 1.410 1_565 S
C350 C351 1.392 . S
C350 C353 1.511 . S
C351 C347 1.376 1_665 S
C351 C350 1.392 . S
C351 H363 0.929 . S
C352 C348 1.531 . S
C352 H364 0.960 . S
C352 H365 0.962 . S
C352 H366 0.960 . S
C353 C350 1.511 . S
C353 H367 0.961 . S
C353 H368 0.961 . S
C353 H369 0.961 . S
C354 C355 1.370 1_465 S
C354 C356 1.363 . S
C354 H370 0.931 . S
C355 C354 1.370 1_645 S
C355 C359 1.408 . S
C356 C354 1.363 . S
C356 C357 1.370 1_465 S
C356 C360 1.524 . S
C357 C349 1.503 . S
C357 C356 1.370 1_645 S
C357 C358 1.403 . S
C358 C357 1.403 . S
C358 C359 1.404 . S
C358 C361 1.539 . S
C359 C355 1.408 . S
C359 C358 1.404 . S
C359 H371 0.930 . S
C360 C356 1.524 . S
C360 H372 0.956 . S
C360 H373 0.961 . S
C360 H374 0.961 . S
C361 C358 1.539 . S
C361 H375 0.958 . S
C361 H376 0.961 . S
C361 H377 0.960 . S
H362 C346 0.931 . S
H363 C351 0.929 . S
H364 C352 0.960 . S
H365 C352 0.962 . S
H366 C352 0.960 . S
H367 C353 0.961 . S
H368 C353 0.961 . S
H369 C353 0.961 . S
H370 C354 0.931 . S
H371 C359 0.930 . S
H372 C360 0.956 . S
H373 C360 0.961 . S
H374 C360 0.961 . S
H375 C361 0.958 . S
H376 C361 0.961 . S
H377 C361 0.960 . S
C378 C379 1.391 . S
C378 C380 1.394 . S
C378 H394 0.931 . S
C379 C378 1.391 . S
C379 C383 1.374 1_465 S
C380 C378 1.394 . S
C380 C381 1.369 . S
C380 C384 1.531 . S
C381 C380 1.369 . S
C381 C382 1.410 1_455 S
C381 C389 1.503 . S
C382 C381 1.410 1_655 S
C382 C383 1.393 1_565 S
C382 C385 1.511 1_565 S
C383 C379 1.374 1_645 S
C383 C382 1.393 1_545 S
C383 H395 0.930 . S
C384 C380 1.531 . S
C384 H396 0.960 . S
C384 H397 0.962 1_565 S
C384 H398 0.960 . S
C385 C382 1.511 1_545 S
C385 H399 0.961 . S
C385 H400 0.961 . S
C385 H401 0.961 1_545 S
C386 C387 1.370 1_545 S
C386 C388 1.363 . S
C386 H402 0.931 . S
C387 C386 1.370 1_565 S
C387 C391 1.408 . S
C388 C386 1.363 . S
C388 C389 1.370 1_545 S
C388 C392 1.524 . S
C389 C381 1.503 . S
C389 C388 1.370 1_565 S
C389 C390 1.403 . S
C390 C389 1.403 . S
C390 C391 1.404 . S
C390 C393 1.539 1_455 S
C391 C387 1.408 . S
C391 C390 1.404 . S
C391 H403 0.930 1_455 S
C392 C388 1.524 . S
C392 H404 0.956 . S
C392 H405 0.961 1_455 S
C392 H406 0.961 . S
C393 C390 1.539 1_655 S
C393 H407 0.958 1_655 S
C393 H408 0.961 . S
C393 H409 0.960 . S
H394 C378 0.931 . S
H395 C383 0.930 . S
H396 C384 0.960 . S
H397 C384 0.962 1_545 S
H398 C384 0.960 . S
H399 C385 0.961 . S
H400 C385 0.961 . S
H401 C385 0.961 1_565 S
H402 C386 0.931 . S
H403 C391 0.930 1_655 S
H404 C392 0.956 . S
H405 C392 0.961 1_655 S
H406 C392 0.961 . S
H407 C393 0.958 1_455 S
H408 C393 0.961 . S
H409 C393 0.960 . S
C410 C411 1.391 . S
C410 C412 1.394 . S
C410 H426 0.931 . S
C411 C410 1.391 . S
C411 C415 1.376 . S
C412 C410 1.394 . S
C412 C413 1.369 . S
C412 C416 1.531 . S
C413 C412 1.369 . S
C413 C414 1.410 . S
C413 C421 1.503 . S
C414 C413 1.410 . S
C414 C415 1.392 . S
C414 C417 1.511 . S
C415 C411 1.376 . S
C415 C414 1.392 . S
C415 H427 0.929 . S
C416 C412 1.531 . S
C416 H428 0.960 . S
C416 H429 0.962 . S
C416 H430 0.960 . S
C417 C414 1.511 . S
C417 H431 0.961 . S
C417 H432 0.961 . S
C417 H433 0.961 . S
C418 C419 1.370 . S
C418 C420 1.363 . S
C418 H434 0.931 . S
C419 C418 1.370 . S
C419 C423 1.408 . S
C420 C418 1.363 . S
C420 C421 1.370 . S
C420 C424 1.524 . S
C421 C413 1.503 . S
C421 C420 1.370 . S
C421 C422 1.403 . S
C422 C421 1.403 . S
C422 C423 1.404 . S
C422 C425 1.539 . S
C423 C419 1.408 . S
C423 C422 1.404 . S
C423 H435 0.930 . S
C424 C420 1.524 . S
C424 H436 0.956 . S
C424 H437 0.961 . S
C424 H438 0.961 . S
C425 C422 1.539 . S
C425 H439 0.958 . S
C425 H440 0.961 . S
C425 H441 0.960 . S
H426 C410 0.931 . S
H427 C415 0.929 . S
H428 C416 0.960 . S
H429 C416 0.962 . S
H430 C416 0.960 . S
H431 C417 0.961 . S
H432 C417 0.961 . S
H433 C417 0.961 . S
H434 C418 0.931 . S
H435 C423 0.930 . S
H436 C424 0.956 . S
H437 C424 0.961 . S
H438 C424 0.961 . S
H439 C425 0.958 . S
H440 C425 0.961 . S
H441 C425 0.960 . S
C442 C443 1.391 . S
C442 C444 1.394 . S
C442 H458 0.931 . S
C443 C442 1.391 . S
C443 C447 1.376 . S
C444 C442 1.394 . S
C444 C445 1.369 . S
C444 C448 1.531 . S
C445 C444 1.369 . S
C445 C446 1.410 . S
C445 C453 1.503 . S
C446 C445 1.410 . S
C446 C447 1.392 . S
C446 C449 1.511 . S
C447 C443 1.376 . S
C447 C446 1.392 . S
C447 H459 0.929 . S
C448 C444 1.531 . S
C448 H460 0.960 . S
C448 H461 0.962 . S
C448 H462 0.960 . S
C449 C446 1.511 . S
C449 H463 0.961 . S
C449 H464 0.961 . S
C449 H465 0.961 . S
C450 C451 1.370 . S
C450 C452 1.363 . S
C450 H466 0.931 . S
C451 C450 1.370 . S
C451 C455 1.408 . S
C452 C450 1.363 . S
C452 C453 1.370 . S
C452 C456 1.524 . S
C453 C445 1.503 . S
C453 C452 1.370 . S
C453 C454 1.403 . S
C454 C453 1.403 . S
C454 C455 1.404 . S
C454 C457 1.539 . S
C455 C451 1.408 . S
C455 C454 1.404 . S
C455 H467 0.930 . S
C456 C452 1.524 . S
C456 H468 0.956 . S
C456 H469 0.961 . S
C456 H470 0.961 . S
C457 C454 1.539 . S
C457 H471 0.958 . S
C457 H472 0.961 . S
C457 H473 0.960 . S
H458 C442 0.931 . S
H459 C447 0.929 . S
H460 C448 0.960 . S
H461 C448 0.962 . S
H462 C448 0.960 . S
H463 C449 0.961 . S
H464 C449 0.961 . S
H465 C449 0.961 . S
H466 C450 0.931 . S
H467 C455 0.930 . S
H468 C456 0.956 . S
H469 C456 0.961 . S
H470 C456 0.961 . S
H471 C457 0.958 . S
H472 C457 0.961 . S
H473 C457 0.960 . S
C99 C84 1.315 . S
C91 C21 1.517 . S
C123 C19 1.480 . S
C131 C73 1.328 . S
C155 C18 1.415 . S
C163 C87 1.402 . S
C187 C20 1.420 . S
C195 C76 1.419 . S
C219 C44 1.514 . S
C227 C62 1.334 . S
C251 C42 1.477 . S
C259 C51 1.328 . S
C291 C65 1.402 . S
C283 C41 1.415 . S
C323 C54 1.402 . S
C315 C43 1.414 . S
C347 C16 1.518 . S
C355 C53 1.472 1_655 S
C379 C17 1.482 1_565 S
C387 C64 1.439 . S
C419 C75 1.465 . S
C411 C39 1.518 . S
C443 C40 1.484 . S
C451 C86 1.421 . S
