# Generated by pormake.
# Topology soc, (4,6)-cn, num edge types: 1
# Building blocks:
#     Node 0, Type 0, BuildingBlock: ESEHIV_clean_sbu_0, # of connection points: 4
#     Node 1, Type 0, BuildingBlock: ESEHIV_clean_sbu_0, # of connection points: 4
#     Node 2, Type 0, BuildingBlock: ESEHIV_clean_sbu_0, # of connection points: 4
#     Node 3, Type 0, BuildingBlock: ESEHIV_clean_sbu_0, # of connection points: 4
#     Node 4, Type 0, BuildingBlock: ESEHIV_clean_sbu_0, # of connection points: 4
#     Node 5, Type 0, BuildingBlock: ESEHIV_clean_sbu_0, # of connection points: 4
#     Node 6, Type 0, BuildingBlock: ESEHIV_clean_sbu_0, # of connection points: 4
#     Node 7, Type 0, BuildingBlock: ESEHIV_clean_sbu_0, # of connection points: 4
#     Node 8, Type 0, BuildingBlock: ESEHIV_clean_sbu_0, # of connection points: 4
#     Node 9, Type 0, BuildingBlock: ESEHIV_clean_sbu_0, # of connection points: 4
#     Node 10, Type 0, BuildingBlock: ESEHIV_clean_sbu_0, # of connection points: 4
#     Node 11, Type 0, BuildingBlock: ESEHIV_clean_sbu_0, # of connection points: 4
#     Node 12, Type 1, BuildingBlock: KUMBUR_clean_sbu_0, # of connection points: 6
#     Node 13, Type 1, BuildingBlock: KUMBUR_clean_sbu_0, # of connection points: 6
#     Node 14, Type 1, BuildingBlock: KUMBUR_clean_sbu_0, # of connection points: 6
#     Node 15, Type 1, BuildingBlock: KUMBUR_clean_sbu_0, # of connection points: 6
#     Node 16, Type 1, BuildingBlock: KUMBUR_clean_sbu_0, # of connection points: 6
#     Node 17, Type 1, BuildingBlock: KUMBUR_clean_sbu_0, # of connection points: 6
#     Node 18, Type 1, BuildingBlock: KUMBUR_clean_sbu_0, # of connection points: 6
#     Node 19, Type 1, BuildingBlock: KUMBUR_clean_sbu_0, # of connection points: 6
#     Edge 20, Type (0, 1), BuildingBlock: OJICUG_clean_linker_0, # of connection points: 2
#     Edge 21, Type (0, 1), BuildingBlock: OJICUG_clean_linker_0, # of connection points: 2
#     Edge 22, Type (0, 1), BuildingBlock: OJICUG_clean_linker_0, # of connection points: 2
#     Edge 23, Type (0, 1), BuildingBlock: OJICUG_clean_linker_0, # of connection points: 2
#     Edge 24, Type (0, 1), BuildingBlock: OJICUG_clean_linker_0, # of connection points: 2
#     Edge 25, Type (0, 1), BuildingBlock: OJICUG_clean_linker_0, # of connection points: 2
#     Edge 26, Type (0, 1), BuildingBlock: OJICUG_clean_linker_0, # of connection points: 2
#     Edge 27, Type (0, 1), BuildingBlock: OJICUG_clean_linker_0, # of connection points: 2
#     Edge 28, Type (0, 1), BuildingBlock: OJICUG_clean_linker_0, # of connection points: 2
#     Edge 29, Type (0, 1), BuildingBlock: OJICUG_clean_linker_0, # of connection points: 2
#     Edge 30, Type (0, 1), BuildingBlock: OJICUG_clean_linker_0, # of connection points: 2
#     Edge 31, Type (0, 1), BuildingBlock: OJICUG_clean_linker_0, # of connection points: 2
#     Edge 32, Type (0, 1), BuildingBlock: OJICUG_clean_linker_0, # of connection points: 2
#     Edge 33, Type (0, 1), BuildingBlock: OJICUG_clean_linker_0, # of connection points: 2
#     Edge 34, Type (0, 1), BuildingBlock: OJICUG_clean_linker_0, # of connection points: 2
#     Edge 35, Type (0, 1), BuildingBlock: OJICUG_clean_linker_0, # of connection points: 2
#     Edge 36, Type (0, 1), BuildingBlock: OJICUG_clean_linker_0, # of connection points: 2
#     Edge 37, Type (0, 1), BuildingBlock: OJICUG_clean_linker_0, # of connection points: 2
#     Edge 38, Type (0, 1), BuildingBlock: OJICUG_clean_linker_0, # of connection points: 2
#     Edge 39, Type (0, 1), BuildingBlock: OJICUG_clean_linker_0, # of connection points: 2
#     Edge 40, Type (0, 1), BuildingBlock: OJICUG_clean_linker_0, # of connection points: 2
#     Edge 41, Type (0, 1), BuildingBlock: OJICUG_clean_linker_0, # of connection points: 2
#     Edge 42, Type (0, 1), BuildingBlock: OJICUG_clean_linker_0, # of connection points: 2
#     Edge 43, Type (0, 1), BuildingBlock: OJICUG_clean_linker_0, # of connection points: 2
#     Edge 44, Type (0, 1), BuildingBlock: OJICUG_clean_linker_0, # of connection points: 2
#     Edge 45, Type (0, 1), BuildingBlock: OJICUG_clean_linker_0, # of connection points: 2
#     Edge 46, Type (0, 1), BuildingBlock: OJICUG_clean_linker_0, # of connection points: 2
#     Edge 47, Type (0, 1), BuildingBlock: OJICUG_clean_linker_0, # of connection points: 2
#     Edge 48, Type (0, 1), BuildingBlock: OJICUG_clean_linker_0, # of connection points: 2
#     Edge 49, Type (0, 1), BuildingBlock: OJICUG_clean_linker_0, # of connection points: 2
#     Edge 50, Type (0, 1), BuildingBlock: OJICUG_clean_linker_0, # of connection points: 2
#     Edge 51, Type (0, 1), BuildingBlock: OJICUG_clean_linker_0, # of connection points: 2
#     Edge 52, Type (0, 1), BuildingBlock: OJICUG_clean_linker_0, # of connection points: 2
#     Edge 53, Type (0, 1), BuildingBlock: OJICUG_clean_linker_0, # of connection points: 2
#     Edge 54, Type (0, 1), BuildingBlock: OJICUG_clean_linker_0, # of connection points: 2
#     Edge 55, Type (0, 1), BuildingBlock: OJICUG_clean_linker_0, # of connection points: 2
#     Edge 56, Type (0, 1), BuildingBlock: OJICUG_clean_linker_0, # of connection points: 2
#     Edge 57, Type (0, 1), BuildingBlock: OJICUG_clean_linker_0, # of connection points: 2
#     Edge 58, Type (0, 1), BuildingBlock: OJICUG_clean_linker_0, # of connection points: 2
#     Edge 59, Type (0, 1), BuildingBlock: OJICUG_clean_linker_0, # of connection points: 2
#     Edge 60, Type (0, 1), BuildingBlock: OJICUG_clean_linker_0, # of connection points: 2
#     Edge 61, Type (0, 1), BuildingBlock: OJICUG_clean_linker_0, # of connection points: 2
#     Edge 62, Type (0, 1), BuildingBlock: OJICUG_clean_linker_0, # of connection points: 2
#     Edge 63, Type (0, 1), BuildingBlock: OJICUG_clean_linker_0, # of connection points: 2
#     Edge 64, Type (0, 1), BuildingBlock: OJICUG_clean_linker_0, # of connection points: 2
#     Edge 65, Type (0, 1), BuildingBlock: OJICUG_clean_linker_0, # of connection points: 2
#     Edge 66, Type (0, 1), BuildingBlock: OJICUG_clean_linker_0, # of connection points: 2
#     Edge 67, Type (0, 1), BuildingBlock: OJICUG_clean_linker_0, # of connection points: 2
# Relax obj value: 0.097
# Max RMSD: 0.264
# Mean RMSD: 0.161
data_MOF--net-soc--node1-ESEHIV_clean_sbu_0--node2-KUMBUR_clean_sbu_0--edge1-OJICUG_clean_linker_0
_symmetry_space_group_name_H-M    P1
_symmetry_Int_Tables_number       1
_symmetry_cell_setting            triclinic
loop_
_symmetry_equiv_pos_as_xyz
'x, y, z'
_cell_length_a     39.252844
_cell_length_b     38.098506
_cell_length_c     30.70724
_cell_angle_alpha  81.52495
_cell_angle_beta   79.713558
_cell_angle_gamma 68.571723
loop_
_atom_site_label
_atom_site_type_symbol
_atom_site_fract_x
_atom_site_fract_y
_atom_site_fract_z
_atom_type_partial_charge
Cu0 Cu 0.06028 0.07266 0.41296 0.0
N1 N 0.07559 0.09691 0.45081 0.0
N2 N 0.10321 0.13092 0.47541 0.0
C3 C 0.09905 0.11636 0.43984 0.0
C4 C 0.08165 0.11995 0.50997 0.0
C5 C 0.06472 0.09912 0.49474 0.0
O6 O 0.10542 0.04348 0.37575 0.0
C7 C 0.99225 0.13057 0.40987 0.0
O8 O 0.99216 0.12068 0.45271 0.0
H9 H 0.11217 0.12034 0.4063 0.0
H10 H 0.04553 0.08669 0.51437 0.0
N11 N 0.04186 0.0369 0.4473 0.0
N12 N 1.01323 0.99467 0.46791 0.0
C13 C 1.01581 0.02439 0.43903 0.0
C14 C 0.05622 0.01441 0.48242 0.0
C15 C 0.03855 0.98858 0.49537 0.0
C16 C 0.10981 0.01163 0.36248 0.0
O17 O 0.081 1.00115 0.36601 0.0
H18 H 0.99994 0.03617 0.4116 0.0
H19 H 0.07907 0.01568 0.49647 0.0
O20 O 1.02016 0.11207 0.38351 0.0
H21 H 0.07848 0.12623 0.54402 0.0
H22 H 0.04515 0.96596 0.52173 0.0
Cu23 Cu 0.09507 0.04821 0.73314 0.0
N24 N 0.07499 0.0249 0.69946 0.0
N25 N 0.0422 0.99234 0.6829 0.0
C26 C 0.04781 0.01047 0.71424 0.0
C27 C 0.06667 0.99583 0.64706 0.0
C28 C 0.08687 0.0156 0.6574 0.0
O29 O 0.05385 0.08545 0.76772 0.0
C30 C 0.15933 0.98617 0.73956 0.0
O31 O 0.16051 0.99483 0.69644 0.0
H32 H 0.03347 0.01201 0.74785 0.0
H33 H 0.10958 0.02142 0.6361 0.0
N34 N 0.12084 0.07746 0.69809 0.0
N35 N 0.1507 0.11892 0.68504 0.0
C36 C 0.13793 0.09573 0.71569 0.0
C37 C 0.12263 0.08944 0.65455 0.0
C38 C 0.1412 0.1148 0.64636 0.0
C39 C 0.03037 0.10938 0.74405 0.0
O40 O 0.03482 0.10558 0.70136 0.0
H41 H 0.1386 0.09379 0.75104 0.0
H42 H 0.1096 0.08218 0.63081 0.0
O43 O 0.13196 1.00684 0.76489 0.0
H44 H 0.07013 0.98455 0.61557 0.0
H45 H 0.14583 0.13012 0.61461 0.0
Cu46 Cu 0.30619 0.10232 0.12695 0.0
N47 N 0.26407 0.0929 0.11869 0.0
N48 N 0.23681 0.05642 0.09893 0.0
C49 C 0.2655 0.05741 0.11639 0.0
C50 C 0.2161 0.09291 0.08961 0.0
C51 C 0.23276 0.11546 0.10237 0.0
O52 O 0.33626 0.05194 0.15414 0.0
C53 C 0.30318 0.15619 0.054 0.0
O54 O 0.2743 0.17345 0.08179 0.0
H55 H 0.28939 0.0326 0.12246 0.0
H56 H 0.22401 0.14591 0.09666 0.0
N57 N 0.29512 0.13946 0.16732 0.0
N58 N 0.30051 0.18139 0.20761 0.0
C59 C 0.31869 0.15116 0.1837 0.0
C60 C 0.26112 0.16285 0.18201 0.0
C61 C 0.26436 0.1888 0.20643 0.0
C62 C 0.32208 0.04164 0.1927 0.0
O63 O 0.29313 0.06699 0.21276 0.0
H64 H 0.34847 0.13878 0.17682 0.0
H65 H 0.23569 0.16192 0.17417 0.0
O66 O 0.32412 0.12286 0.0668 0.0
H67 H 0.19224 0.10248 0.0721 0.0
H68 H 0.24189 0.21171 0.2218 0.0
Cu69 Cu 0.09076 0.3405 0.13414 0.0
N70 N 0.104 0.37136 0.08464 0.0
N71 N 0.13851 0.38325 1.02071 0.0
C72 C 0.1341 0.35725 0.05441 0.0
C73 C 0.10969 0.41526 0.03045 0.0
C74 C 0.08858 0.40789 0.06972 0.0
O75 O 0.13313 0.32993 0.16967 0.0
C76 C 0.06911 0.27909 0.11334 0.0
O77 O 0.06275 0.26948 0.15608 0.0
H78 H 0.15195 0.32787 0.05682 0.0
H79 H 0.06367 0.42768 0.08591 0.0
N80 N 0.04246 0.36184 0.16832 0.0
N81 N 0.98585 0.36582 0.2057 0.0
C82 C 1.01206 0.35173 0.17113 0.0
C83 C 0.03398 0.38431 0.20167 0.0
C84 C 0.99967 0.38639 0.22484 0.0
C85 C 0.1319 0.33111 0.21161 0.0
O86 O 0.10126 0.33217 0.23779 0.0
H87 H 1.00945 0.33329 0.14941 0.0
H88 H 0.05233 0.39683 0.21016 0.0
O89 O 0.08685 0.30179 0.10063 0.0
H90 H 0.10408 0.44225 1.01077 0.0
H91 H 0.9863 0.40114 0.25425 0.0
Cu92 Cu 0.79908 0.03294 1.02056 0.0
N93 N 0.82558 0.05781 0.97827 0.0
N94 N 0.83549 0.10797 0.93709 0.0
C95 C 0.81212 0.09557 0.96767 0.0
C96 C 0.8649 0.0764 0.92772 0.0
C97 C 0.85873 0.04553 0.95318 0.0
O98 O 0.77279 0.0734 0.06146 0.0
C99 C 0.79665 0.98003 0.96854 0.0
O100 O 0.83163 0.96837 0.97394 0.0
H101 H 0.78537 0.1136 0.98222 0.0
H102 H 0.8772 0.01638 0.95355 0.0
N103 N 0.82714 0.99262 0.05759 0.0
N104 N 0.83799 0.95174 0.11831 0.0
C105 C 0.81215 0.97609 0.09406 0.0
C106 C 0.86388 0.97779 0.05845 0.0
C107 C 0.87062 0.95266 0.09596 0.0
C108 C 0.79572 0.08045 0.08096 0.0
O109 O 0.83084 0.05975 0.0731 0.0
H110 H 0.78267 0.98326 0.10377 0.0
H111 H 0.88417 0.98585 0.03459 0.0
O112 O 0.77455 1.01002 0.98658 0.0
H113 H 0.88953 0.07566 0.90488 0.0
H114 H 0.89741 0.93672 0.10635 0.0
Cu115 Cu 0.05011 0.80562 0.03608 0.0
N116 N 1.02059 0.81324 0.99002 0.0
N117 N 0.98053 0.81088 0.9471 0.0
C118 C 0.99356 0.79968 0.98695 0.0
C119 C 0.99978 0.83242 0.9248 0.0
C120 C 1.02406 0.83387 0.95102 0.0
O121 O 1.02653 0.78505 0.0939 0.0
C122 C 0.12048 0.80364 0.98328 0.0
O123 O 0.09939 0.83865 0.97356 0.0
H124 H 0.9841 0.78153 1.01294 0.0
H125 H 0.04286 0.84927 0.94195 0.0
N126 N 0.04796 0.85196 0.05131 0.0
N127 N 0.07418 0.88702 0.07557 0.0
C128 C 0.07063 0.85291 0.07863 0.0
C129 C 0.03546 0.88721 0.03101 0.0
C130 C 0.05208 0.90889 0.04562 0.0
C131 C 0.9927 0.8048 0.10762 0.0
O132 O 0.97612 0.83454 0.08158 0.0
H133 H 0.08814 0.8276 0.09574 0.0
H134 H 1.01894 0.8954 1.00409 0.0
O135 O 0.10536 0.78233 1.01062 0.0
H136 H 0.99621 0.84668 0.89183 0.0
H137 H 0.0507 0.93724 0.03233 0.0
Cu138 Cu 0.5749 0.53615 0.90712 0.0
N139 N 0.58794 0.56338 0.94351 0.0
N140 N 0.60868 0.60427 0.96577 0.0
C141 C 0.60754 0.58669 0.93117 0.0
C142 C 0.58924 0.59142 1.00108 0.0
C143 C 0.57651 0.5663 0.98729 0.0
O144 O 0.61944 0.50099 0.8746 0.0
C145 C 0.5096 0.59422 0.89539 0.0
O146 O 0.50785 0.58874 0.93884 0.0
H147 H 0.61951 0.59169 0.8973 0.0
H148 H 0.55903 0.55217 1.0076 0.0
N149 N 0.55081 0.50605 0.94266 0.0
N150 N 0.51196 0.4742 0.9632 0.0
C151 C 0.52196 0.49925 0.93271 0.0
C152 C 0.55959 0.48459 0.9807 0.0
C153 C 0.53551 0.46503 0.99362 0.0
C154 C 0.64847 0.48574 0.89373 0.0
O155 O 0.64842 0.49604 0.9327 0.0
H156 H 0.50931 0.51173 0.90293 0.0
H157 H 0.58267 0.4823 0.99698 0.0
O158 O 0.53809 0.57348 0.87178 0.0
H159 H 0.58425 0.59987 0.03446 0.0
H160 H 0.53671 0.44403 1.02175 0.0
Cu161 Cu 0.57655 0.58856 0.24647 0.0
N162 N 0.55611 0.56731 0.21074 0.0
N163 N 0.52572 0.53361 0.19119 0.0
C164 C 0.53209 0.54873 0.22481 0.0
C165 C 0.54633 0.54335 0.15465 0.0
C166 C 0.565 0.56395 0.16677 0.0
O167 O 0.53576 0.62836 0.27853 0.0
C168 C 0.6365 0.52337 0.25366 0.0
O169 O 0.63642 0.53183 0.21062 0.0
H170 H 0.52071 0.54512 0.25927 0.0
H171 H 0.58472 0.5745 0.14516 0.0
N172 N 0.60676 0.61392 0.21261 0.0
N173 N 0.65113 0.63954 0.1981 0.0
C174 C 0.63507 0.61827 0.22756 0.0
C175 C 0.60467 0.63319 0.17214 0.0
C176 C 0.63208 0.64887 0.16303 0.0
C177 C 0.51615 0.65409 0.25227 0.0
O178 O 0.52332 0.64928 0.20969 0.0
H179 H 0.64365 0.60583 0.2596 0.0
H180 H 0.58427 0.63641 0.15102 0.0
O181 O 0.61087 0.54541 0.27956 0.0
H182 H 0.54814 0.5358 0.12147 0.0
H183 H 0.63693 0.66649 0.1333 0.0
Cu184 Cu 0.85881 0.58343 0.64952 0.0
N185 N 0.89207 0.5971 0.60431 0.0
N186 N 0.91075 0.62533 0.54003 0.0
C187 C 0.88326 0.61475 0.56433 0.0
C188 C 0.93794 0.61403 0.56589 0.0
C189 C 0.92635 0.59671 0.60547 0.0
O190 O 0.8372 0.62714 0.68692 0.0
C191 C 0.84253 0.54522 0.5912 0.0
O192 O 0.87881 0.53333 0.58436 0.0
H193 H 0.85636 0.62145 0.55428 0.0
H194 H 0.94134 0.5862 0.6337 0.0
N195 N 0.88154 0.53733 0.68294 0.0
N196 N 0.88951 0.47776 0.71278 0.0
C197 C 0.86501 0.51175 0.70001 0.0
C198 C 0.91774 0.51874 0.68549 0.0
C199 C 0.9227 0.48212 0.70374 0.0
C200 C 0.85915 0.63336 0.70864 0.0
O201 O 0.89295 0.6088 0.70785 0.0
H202 H 0.83604 0.51698 0.69959 0.0
H203 H 0.93943 0.52999 0.67236 0.0
O204 O 0.82559 0.57018 0.6189 0.0
H205 H 0.96397 0.61879 0.55733 0.0
H206 H 0.94889 0.45988 0.70816 0.0
Cu207 Cu 0.59821 0.81818 0.62203 0.0
N208 N 0.63997 0.79173 0.57987 0.0
N209 N 0.68741 0.78215 0.52222 0.0
C210 C 0.65818 0.80792 0.54527 0.0
C211 C 0.68717 0.74845 0.54361 0.0
C212 C 0.65845 0.75436 0.57856 0.0
O213 O 0.6211 0.84159 0.6568 0.0
C214 C 0.55466 0.83355 0.55904 0.0
O215 O 0.57421 0.7973 0.55808 0.0
H216 H 0.65033 0.83824 0.53763 0.0
H217 H 0.65165 0.73274 0.60155 0.0
N218 N 0.56788 0.7921 0.66118 0.0
N219 N 0.51716 0.78237 0.70389 0.0
C220 C 0.5302 0.80579 0.67279 0.0
C221 C 0.57874 0.7586 0.68571 0.0
C222 C 0.54812 0.75269 0.71167 0.0
C223 C 0.62268 0.83437 0.6986 0.0
O224 O 0.60271 0.81542 0.7224 0.0
H225 H 0.5127 0.83302 0.65941 0.0
H226 H 0.60717 0.73994 0.68555 0.0
O227 O 0.56207 0.85228 0.58499 0.0
H228 H 0.70624 0.72098 0.53472 0.0
H229 H 0.54882 0.72799 0.73449 0.0
Cu230 Cu 0.27989 0.56654 0.51128 0.0
N231 N 0.30425 0.59979 0.47897 0.0
N232 N 0.31444 0.65093 0.43904 0.0
C233 C 0.28886 0.63616 0.4616 0.0
C234 C 0.34711 0.62249 0.44218 0.0
C235 C 0.34079 0.59134 0.46651 0.0
O236 O 0.23037 0.59779 0.53479 0.0
C237 C 0.29718 0.49895 0.46789 0.0
O238 O 0.32511 0.48635 0.49094 0.0
H239 H 0.25938 0.65132 0.46481 0.0
H240 H 0.36152 0.56424 0.47442 0.0
N241 N 0.30256 0.53564 0.56039 0.0
N242 N 0.31291 0.493 0.62059 0.0
C243 C 0.29135 0.50934 0.58785 0.0
C244 C 0.33236 0.53569 0.57624 0.0
C245 C 0.33867 0.50975 0.61313 0.0
C246 C 0.22081 0.62632 0.55727 0.0
O247 O 0.18547 0.64533 0.5674 0.0
H248 H 0.26746 0.50277 0.58422 0.0
H249 H 0.34814 0.55373 0.56232 0.0
O250 O 0.27507 0.5331 0.47071 0.0
H251 H 0.37391 0.62419 0.42846 0.0
H252 H 0.36086 0.50354 0.63272 0.0
Cu253 Cu 0.53703 0.3037 0.54006 0.0
N254 N 0.58142 0.27789 0.50297 0.0
N255 N 0.63596 0.27517 0.4612 0.0
C256 C 0.61418 0.28328 0.50066 0.0
C257 C 0.6165 0.26389 0.43778 0.0
C258 C 0.58325 0.26547 0.46337 0.0
O259 O 0.5556 0.33653 0.56777 0.0
C260 C 0.48577 0.29925 0.48966 0.0
O261 O 0.50046 0.26432 0.50697 0.0
H262 H 0.62042 0.2966 0.52541 0.0
H263 H 0.56058 0.26161 0.45173 0.0
N264 N 0.51751 0.27458 0.58741 0.0
N265 N 0.47926 0.26098 0.64656 0.0
C266 C 0.48512 0.28784 0.61479 0.0
C267 C 0.53241 0.2379 0.60211 0.0
C268 C 0.50915 0.22955 0.63837 0.0
C269 C 0.56818 0.3249 0.60528 0.0
O270 O 0.55937 0.29751 0.62997 0.0
H271 H 0.46676 0.31703 0.61224 0.0
H272 H 0.55865 0.21869 0.58789 0.0
O273 O 0.49745 0.32427 0.4995 0.0
H274 H 0.62471 0.25729 0.40351 0.0
H275 H 0.51407 0.20227 0.65731 0.0
Tb276 Tb 0.29049 0.31308 0.38403 0.0
C277 C 0.34614 0.33604 0.18747 0.0
C278 C 0.40083 0.27967 0.18037 0.0
C279 C 0.37271 0.31287 0.11486 0.0
C280 C 0.37388 0.30704 0.20658 0.0
C281 C 0.34563 0.33972 0.14119 0.0
C282 C 0.39983 0.28253 0.1345 0.0
C283 C 0.29399 0.39834 0.14969 0.0
N284 N 0.32132 0.36225 0.2137 0.0
C285 C 0.29595 0.39378 0.1953 0.0
C286 C 0.31908 0.37129 0.1225 0.0
Tb287 Tb 0.33143 0.35594 0.28603 0.0
N288 N 0.37523 0.30644 0.25053 0.0
C289 C 0.40327 0.27912 0.27022 0.0
C290 C 0.42871 0.25097 0.20076 0.0
C291 C 0.4299 0.25072 0.2459 0.0
H292 H 0.27737 0.41549 0.21606 0.0
H293 H 0.45157 0.22885 0.26195 0.0
H294 H 0.42058 0.26209 0.11371 0.0
H295 H 0.27379 0.42318 0.13539 0.0
H296 H 0.40492 0.27824 0.30499 0.0
H297 H 0.18074 0.43935 0.44 0.0
H298 H 0.44976 0.2293 0.18182 0.0
H299 H 0.34273 0.23982 0.44507 0.0
H300 H 0.21325 0.38901 0.38967 0.0
H301 H 0.36785 0.22969 0.51623 0.0
H302 H 0.37353 0.31574 0.07916 0.0
H303 H 0.20508 0.43832 0.50941 0.0
H304 H 0.25252 0.4045 0.56143 0.0
H305 H 0.31851 0.37566 0.08699 0.0
H306 H 0.30519 0.34806 0.581 0.0
N307 N 0.25563 0.3594 0.43015 0.0
C308 C 0.22382 0.38772 0.42021 0.0
C309 C 0.2192 0.41584 0.48772 0.0
C310 C 0.25057 0.38565 0.49889 0.0
C311 C 0.20536 0.41647 0.4486 0.0
C312 C 0.26783 0.35722 0.46941 0.0
H313 H 0.34919 0.28259 0.56373 0.0
N314 N 0.31055 0.29782 0.4526 0.0
C315 C 0.34802 0.25688 0.50649 0.0
C316 C 0.2968 0.32547 0.48076 0.0
C317 C 0.3335 0.26256 0.46651 0.0
C318 C 0.33741 0.2868 0.53324 0.0
C319 C 0.31017 0.32111 0.52153 0.0
O320 O 0.28462 0.25975 0.40085 0.0
O321 O 0.31541 0.30828 0.31586 0.0
O322 O 0.28009 0.35302 0.26803 0.0
O323 O 0.24861 0.34083 0.33738 0.0
O324 O 0.32855 0.26017 0.35694 0.0
O325 O 0.23688 0.31069 0.40041 0.0
O326 O 0.33148 0.4108 0.26236 0.0
O327 O 0.30539 0.36139 0.35356 0.0
O328 O 0.34412 0.30975 0.39987 0.0
O329 O 0.37102 0.33693 0.33619 0.0
O330 O 0.28884 0.40788 0.31011 0.0
O331 O 0.38205 0.36549 0.275 0.0
C332 C 0.3323 0.27294 0.3158 0.0
C333 C 0.23098 0.2584 0.44931 0.0
C334 C 0.1926 0.22079 0.4842 0.0
C335 C 0.2096 0.23649 0.4458 0.0
C336 C 0.19787 0.22723 0.52615 0.0
C337 C 0.23518 0.26489 0.49146 0.0
C338 C 0.21885 0.2492 0.52962 0.0
C339 C 0.25043 0.34823 0.2933 0.0
C340 C 0.24875 0.27401 0.4086 0.0
C341 C 0.29495 0.35053 0.54976 0.0
C342 C 0.26492 0.38264 0.53864 0.0
C343 C 0.28609 0.39625 0.35175 0.0
C344 C 0.38751 0.41561 0.2213 0.0
C345 C 0.4117 0.43408 0.22652 0.0
C346 C 0.43118 0.44818 0.18897 0.0
C347 C 0.42562 0.44376 0.14634 0.0
C348 C 0.38298 0.41156 0.1783 0.0
C349 C 0.40185 0.42552 0.14118 0.0
C350 C 0.37145 0.32036 0.37759 0.0
C351 C 0.36717 0.40104 0.26089 0.0
H352 H 0.20581 0.23222 0.41312 0.0
H353 H 0.18604 0.21503 0.55643 0.0
H354 H 0.25103 0.28199 0.49499 0.0
H355 H 0.22251 0.25404 0.56207 0.0
H356 H 0.41561 0.43707 0.25966 0.0
H357 H 0.4393 0.45489 0.11673 0.0
H358 H 0.36475 0.39791 0.17305 0.0
H359 H 0.39785 0.42236 0.10818 0.0
Tb360 Tb 0.81489 0.34781 0.37657 0.0
C361 C 0.72827 0.28822 0.28658 0.0
C362 C 0.72604 0.23401 0.33798 0.0
C363 C 0.67606 0.26674 0.2939 0.0
C364 C 0.74422 0.25941 0.31798 0.0
C365 C 0.69464 0.2913 0.27316 0.0
C366 C 0.69168 0.23824 0.32631 0.0
C367 C 0.70257 0.33927 0.21564 0.0
N368 N 0.74664 0.31184 0.2674 0.0
C369 C 0.73583 0.33492 0.22997 0.0
C370 C 0.68142 0.31795 0.238 0.0
Tb371 Tb 0.80205 0.30028 0.2912 0.0
N372 N 0.77757 0.25606 0.32863 0.0
C373 C 0.7946 0.22687 0.35813 0.0
C374 C 0.74296 0.20496 0.369 0.0
C375 C 0.77746 0.20126 0.37887 0.0
H376 H 0.75299 0.3502 0.21155 0.0
H377 H 0.79088 0.17871 0.40267 0.0
H378 H 0.67726 0.21916 0.34159 0.0
H379 H 0.69361 0.35859 0.18696 0.0
H380 H 0.82097 0.22322 0.36705 0.0
H381 H 0.87791 0.44534 0.28224 0.0
H382 H 0.72976 0.18508 0.38525 0.0
H383 H 0.82824 0.30207 0.47697 0.0
H384 H 0.82933 0.41727 0.30414 0.0
H385 H 0.87687 0.28187 0.52544 0.0
H386 H 0.65 0.26899 0.28438 0.0
H387 H 0.93374 0.42142 0.31999 0.0
H388 H 0.96756 0.37878 0.38084 0.0
H389 H 0.65579 0.32107 0.22662 0.0
H390 H 0.96743 0.33385 0.44718 0.0
N391 N 0.85815 0.37604 0.35233 0.0
C392 C 0.85362 0.40617 0.32073 0.0
C393 C 0.91263 0.40867 0.32953 0.0
C394 C 0.91574 0.37991 0.36427 0.0
C395 C 0.88109 0.42234 0.30826 0.0
C396 C 0.88742 0.36434 0.37546 0.0
H397 H 0.93334 0.29815 0.50193 0.0
N398 N 0.85787 0.32743 0.42474 0.0
C399 C 0.88039 0.29753 0.49359 0.0
C400 C 0.88729 0.33918 0.41291 0.0
C401 C 0.85292 0.30891 0.46581 0.0
C402 C 0.91225 0.30673 0.48016 0.0
C403 C 0.91556 0.32869 0.43996 0.0
O404 O 0.76871 0.37014 0.42425 0.0
O405 O 0.78001 0.32192 0.35582 0.0
O406 O 0.75687 0.35546 0.29469 0.0
O407 O 0.78168 0.38974 0.32864 0.0
O408 O 0.78972 0.31061 0.42075 0.0
O409 O 0.80533 0.40059 0.40057 0.0
O410 O 0.82208 0.29891 0.22328 0.0
O411 O 0.8371 0.32636 0.31125 0.0
O412 O 0.85744 0.29114 0.38161 0.0
O413 O 0.85091 0.26155 0.32294 0.0
O414 O 0.82719 0.33779 0.24684 0.0
O415 O 0.81846 0.24829 0.26178 0.0
C416 C 0.77184 0.30483 0.39278 0.0
C417 C 0.77557 0.40754 0.4757 0.0
C418 C 0.78177 0.4472 0.52844 0.0
C419 C 0.78664 0.43704 0.48448 0.0
C420 C 0.76595 0.42716 0.5632 0.0
C421 C 0.75981 0.38832 0.51155 0.0
C422 C 0.75506 0.39817 0.55474 0.0
C423 C 0.75658 0.38778 0.30629 0.0
C424 C 0.7773 0.39894 0.42928 0.0
C425 C 0.9452 0.34198 0.42713 0.0
C426 C 0.94528 0.36758 0.38935 0.0
C427 C 0.84599 0.34289 0.27422 0.0
C428 C 0.80491 0.25855 0.18598 0.0
C429 C 0.7995 0.22398 0.18353 0.0
C430 C 0.783 0.21931 0.14794 0.0
C431 C 0.77164 0.25009 0.11579 0.0
C432 C 0.79399 0.28787 0.15205 0.0
C433 C 0.77704 0.28385 0.11796 0.0
C434 C 0.86734 0.26187 0.35741 0.0
C435 C 0.8234 0.26443 0.22178 0.0
H436 H 0.79827 0.4525 0.45716 0.0
H437 H 0.76247 0.43346 0.59732 0.0
H438 H 0.75057 0.36592 0.50631 0.0
H439 H 0.74262 0.38344 0.58195 0.0
H440 H 0.80851 0.20083 0.20877 0.0
H441 H 0.75997 0.24774 0.08743 0.0
H442 H 0.79853 0.31431 0.15155 0.0
H443 H 0.76877 0.30685 0.09235 0.0
Tb444 Tb 0.84189 0.76486 0.3006 0.0
C445 C 0.80004 0.85504 0.4408 0.0
C446 C 0.77616 0.92281 0.42335 0.0
C447 C 0.74864 0.89434 0.48953 0.0
C448 C 0.80057 0.88648 0.41268 0.0
C449 C 0.77492 0.85871 0.48045 0.0
C450 C 0.74923 0.9264 0.46094 0.0
C451 C 0.80675 0.79289 0.502 0.0
N452 N 0.82642 0.82131 0.43134 0.0
C453 C 0.83096 0.79073 0.46226 0.0
C454 C 0.77797 0.8268 0.51062 0.0
Tb455 Tb 0.86569 0.82028 0.36579 0.0
N456 N 0.82782 0.88184 0.3777 0.0
C457 C 0.83522 0.91303 0.35599 0.0
C458 C 0.78107 0.95452 0.39765 0.0
C459 C 0.81132 0.9496 0.36448 0.0
H460 H 0.85316 0.76449 0.45676 0.0
H461 H 0.81655 0.97395 0.34582 0.0
H462 H 0.72992 0.954 0.46933 0.0
H463 H 0.81028 0.76833 0.52587 0.0
H464 H 0.85904 0.90956 0.33095 0.0
H465 H 0.98219 0.67072 0.25954 0.0
H466 H 0.76294 0.98289 0.40475 0.0
H467 H 0.77483 0.80879 0.23843 0.0
H468 H 0.9268 0.70359 0.30973 0.0
H469 H 0.76942 0.82548 0.15887 0.0
H470 H 0.72879 0.89761 0.51946 0.0
H471 H 0.98238 0.68249 0.17808 0.0
H472 H 0.94837 0.71658 0.11336 0.0
H473 H 0.75925 0.82841 0.54143 0.0
H474 H 0.89104 0.76014 0.08581 0.0
N475 N 0.89552 0.73383 0.25754 0.0
C476 C 0.92628 0.70897 0.27442 0.0
C477 C 0.95779 0.69679 0.20002 0.0
C478 C 0.92601 0.72178 0.18293 0.0
C479 C 0.95781 0.69014 0.24598 0.0
C480 C 0.89477 0.73959 0.21298 0.0
H481 H 0.82496 0.80289 0.10254 0.0
N482 N 0.83284 0.77916 0.22761 0.0
C483 C 0.79582 0.80782 0.16897 0.0
C484 C 0.86251 0.76353 0.1975 0.0
C485 C 0.79892 0.79843 0.2141 0.0
C486 C 0.82704 0.7949 0.13751 0.0
C487 C 0.86055 0.77109 0.15155 0.0
O488 O 0.79699 0.74808 0.29634 0.0
O489 O 0.82776 0.7902 0.36381 0.0
O490 O 0.89566 0.76056 0.3851 0.0
O491 O 0.86451 0.72851 0.35846 0.0
O492 O 0.78571 0.79854 0.32888 0.0
O493 O 0.85037 0.70679 0.30596 0.0
O494 O 0.89836 0.80406 0.41779 0.0
O495 O 0.88476 0.78498 0.31022 0.0
O496 O 0.83273 0.82052 0.26393 0.0
O497 O 0.83208 0.85927 0.31639 0.0
O498 O 0.90385 0.82863 0.30618 0.0
O499 O 0.90254 0.84861 0.3684 0.0
C500 C 0.79254 0.80403 0.36637 0.0
C501 C 0.81599 0.69225 0.25952 0.0
C502 C 0.78018 0.67079 0.21849 0.0
C503 C 0.78223 0.6897 0.25366 0.0
C504 C 0.81239 0.65497 0.18894 0.0
C505 C 0.84783 0.6755 0.22992 0.0
C506 C 0.84587 0.65738 0.19469 0.0
C507 C 0.88715 0.7301 0.38463 0.0
C508 C 0.81766 0.71248 0.29632 0.0
C509 C 0.89191 0.75446 0.12131 0.0
C510 C 0.92451 0.72961 0.13699 0.0
C511 C 0.90566 0.80114 0.28506 0.0
C512 C 0.90602 0.85674 0.44207 0.0
C513 C 0.92775 0.87977 0.43792 0.0
C514 C 0.92278 0.90397 0.47102 0.0
C515 C 0.895 0.90566 0.50744 0.0
C516 C 0.87927 0.85826 0.47966 0.0
C517 C 0.87358 0.88287 0.51173 0.0
C518 C 0.8271 0.85405 0.27664 0.0
C519 C 0.91092 0.83178 0.40694 0.0
H520 H 0.75762 0.70253 0.27641 0.0
H521 H 0.81198 0.63977 0.162 0.0
H522 H 0.87439 0.67612 0.23397 0.0
H523 H 0.87055 0.6447 0.17205 0.0
H524 H 0.9489 0.87828 0.40952 0.0
H525 H 0.88984 0.92468 0.53275 0.0
H526 H 0.86266 0.84052 0.48451 0.0
H527 H 0.85256 0.88418 0.54018 0.0
Tb528 Tb 0.31034 0.83281 0.26558 0.0
C529 C 0.3247 0.93625 0.38526 0.0
C530 C 0.37563 0.95384 0.34402 0.0
C531 C 0.32878 0.99709 0.39327 0.0
C532 C 0.3569 0.92777 0.35541 0.0
C533 C 0.31076 0.97061 0.40536 0.0
C534 C 0.36108 0.98877 0.36257 0.0
C535 C 0.26402 0.94878 0.45044 0.0
N536 N 0.30775 0.91023 0.3958 0.0
C537 C 0.27887 0.91514 0.42961 0.0
C538 C 0.27971 0.97689 0.43782 0.0
Tb539 Tb 0.33568 0.85561 0.36114 0.0
N540 N 0.37022 0.89371 0.33816 0.0
C541 C 0.40334 0.88315 0.3111 0.0
C542 C 0.40868 0.94382 0.31481 0.0
C543 C 0.42274 0.90819 0.29861 0.0
H544 H 0.26673 0.89336 0.43946 0.0
H545 H 0.44853 0.89999 0.27644 0.0
H546 H 0.37495 1.00925 0.354 0.0
H547 H 0.24056 0.95297 0.47627 0.0
H548 H 0.41457 0.85585 0.29805 0.0
H549 H 0.21303 0.76387 0.34234 0.0
H550 H 0.42383 0.96311 0.30512 0.0
H551 H 0.3746 0.81259 0.17739 0.0
H552 H 0.23689 0.81632 0.32569 0.0
H553 H 0.40689 0.75882 0.13172 0.0
H554 H 0.31832 0.0238 0.40804 0.0
H555 H 0.24618 0.70414 0.3069 0.0
H556 H 0.29792 0.66779 0.25163 0.0
H557 H 0.26821 1.0029 0.45408 0.0
H558 H 0.3506 0.66651 0.19386 0.0
N559 N 0.28431 0.78652 0.28214 0.0
C560 C 0.25187 0.7906 0.30978 0.0
C561 C 0.25694 0.72712 0.29946 0.0
C562 C 0.28869 0.72403 0.2689 0.0
C563 C 0.23811 0.76082 0.31942 0.0
C564 C 0.30159 0.75474 0.26061 0.0
H565 H 0.39107 0.70061 0.14835 0.0
N566 N 0.3414 0.78483 0.22039 0.0
C567 C 0.38579 0.75695 0.15902 0.0
C568 C 0.33107 0.75394 0.22834 0.0
C569 C 0.36737 0.78739 0.18497 0.0
C570 C 0.37682 0.72413 0.16855 0.0
C571 C 0.34875 0.72253 0.20315 0.0
O572 O 0.30403 0.86622 0.20478 0.0
O573 O 0.32497 0.87343 0.29345 0.0
O574 O 0.28294 0.89942 0.34817 0.0
O575 O 0.26083 0.86707 0.30824 0.0
O576 O 0.34733 0.86253 0.23012 0.0
O577 O 0.25887 0.85066 0.24153 0.0
O578 O 0.33247 0.83554 0.42857 0.0
O579 O 0.32142 0.81472 0.33359 0.0
O580 O 0.3649 0.79055 0.27216 0.0
O581 O 0.38456 0.81091 0.32865 0.0
O582 O 0.29813 0.82653 0.39659 0.0
O583 O 0.38407 0.83776 0.39144 0.0
C584 C 0.34451 0.88386 0.26033 0.0
C585 C 0.26153 0.86069 0.16292 0.0
C586 C 0.21498 0.87053 0.1148 0.0
C587 C 0.22442 0.87389 0.15571 0.0
C588 C 0.24322 0.8535 0.0812 0.0
C589 C 0.2893 0.84396 0.12874 0.0
C590 C 0.28008 0.84012 0.08834 0.0
C591 C 0.25575 0.89589 0.33127 0.0
C592 C 0.27059 0.86726 0.20491 0.0
C593 C 0.33716 0.6911 0.21254 0.0
C594 C 0.30719 0.69183 0.24543 0.0
C595 C 0.30156 0.80466 0.36662 0.0
C596 C 0.37104 0.85242 0.46682 0.0
C597 C 0.40584 0.85423 0.46907 0.0
C598 C 0.41199 0.8692 0.50524 0.0
C599 C 0.38184 0.88439 0.53783 0.0
C600 C 0.34172 0.86726 0.50034 0.0
C601 C 0.34701 0.88373 0.53503 0.0
C602 C 0.39024 0.78826 0.29677 0.0
C603 C 0.36607 0.83339 0.43079 0.0
H604 H 0.20293 0.88733 0.18172 0.0
H605 H 0.23679 0.84981 0.04968 0.0
H606 H 0.31814 0.83447 0.13272 0.0
H607 H 0.30162 0.8269 0.06236 0.0
H608 H 0.42828 0.84308 0.44301 0.0
H609 H 0.38526 0.89538 0.56667 0.0
H610 H 0.31471 0.86582 0.50023 0.0
H611 H 0.32424 0.89496 0.5607 0.0
Tb612 Tb 0.32764 0.80613 0.87846 0.0
C613 C 0.23104 0.74996 0.83392 0.0
C614 C 0.24205 0.69069 0.88042 0.0
C615 C 0.17944 0.72972 0.86874 0.0
C616 C 0.25564 0.71741 0.85307 0.0
C617 C 0.19269 0.75603 0.84126 0.0
C618 C 0.20403 0.69718 0.88829 0.0
C619 C 0.18271 0.81323 0.79247 0.0
N620 N 0.24433 0.77585 0.8087 0.0
C621 C 0.22069 0.80599 0.78581 0.0
C622 C 0.16854 0.78846 0.82083 0.0
Tb623 Tb 0.30778 0.75989 0.79851 0.0
N624 N 0.29248 0.71216 0.84565 0.0
C625 C 0.31679 0.67868 0.86251 0.0
C626 C 0.26693 0.65808 0.89937 0.0
C627 C 0.30442 0.65192 0.88998 0.0
H628 H 0.23042 0.82414 0.7606 0.0
H629 H 0.32409 0.62605 0.90329 0.0
H630 H 0.19335 0.67706 0.90939 0.0
H631 H 0.16447 0.83757 0.77481 0.0
H632 H 0.3461 0.67044 0.85469 0.0
H633 H 0.38411 0.89989 0.76547 0.0
H634 H 0.25753 0.6371 0.92056 0.0
H635 H 0.35467 0.75287 0.97012 0.0
H636 H 0.33709 0.87108 0.79728 0.0
H637 H 0.40872 0.73362 1.01074 0.0
H638 H 0.15014 0.73425 0.87499 0.0
H639 H 0.44306 0.8793 0.79659 0.0
H640 H 0.4824 0.83903 0.85443 0.0
H641 H 0.13905 0.79409 0.82582 0.0
H642 H 0.48924 0.79357 0.92103 0.0
N643 N 0.36938 0.83389 0.84531 0.0
C644 C 0.36265 0.86185 0.81117 0.0
C645 C 0.42252 0.86652 0.81067 0.0
C646 C 0.42856 0.83898 0.84684 0.0
C647 C 0.38925 0.87827 0.79306 0.0
C648 C 0.40105 0.82309 0.86368 0.0
H649 H 0.46154 0.75473 0.98014 0.0
N650 N 0.37754 0.78324 0.91633 0.0
C651 C 0.40827 0.75107 0.97952 0.0
C652 C 0.40533 0.79686 0.90041 0.0
C653 C 0.3778 0.76188 0.95642 0.0
C654 C 0.43805 0.76306 0.96212 0.0
C655 C 0.43663 0.78665 0.9224 0.0
O656 O 0.30162 0.8208 0.94273 0.0
O657 O 0.28623 0.78663 0.8611 0.0
O658 O 0.28572 0.82086 0.7779 0.0
O659 O 0.2863 0.84881 0.8403 0.0
O660 O 0.29929 0.77213 0.9242 0.0
O661 O 0.311 0.86312 0.89261 0.0
O662 O 0.29206 0.76918 0.73466 0.0
O663 O 0.34247 0.78939 0.81128 0.0
O664 O 0.37088 0.74956 0.87593 0.0
O665 O 0.3601 0.71993 0.82058 0.0
O666 O 0.35687 0.76536 0.75329 0.0
O667 O 0.31713 0.71236 0.76432 0.0
C668 C 0.2764 0.77178 0.89909 0.0
C669 C 0.30818 0.87346 0.96787 0.0
C670 C 0.29012 0.91979 1.02264 0.0
C671 C 0.28159 0.9049 0.98824 0.0
C672 C 0.32544 0.90313 0.03602 0.0
C673 C 0.34331 0.85801 0.98154 0.0
C674 C 0.35182 0.87257 1.01544 0.0
C675 C 0.27515 0.85039 0.80162 0.0
C676 C 0.29847 0.85623 0.93394 0.0
C677 C 0.46474 0.8014 0.90494 0.0
C678 C 0.46079 0.82738 0.8671 0.0
C679 C 0.36693 0.7846 0.77641 0.0
C680 C 0.3176 0.72023 0.68573 0.0
C681 C 0.3009 0.69959 0.66787 0.0
C682 C 0.31191 0.69004 0.62374 0.0
C683 C 0.34044 0.70068 0.59781 0.0
C684 C 0.34633 0.7303 0.65959 0.0
C685 C 0.35781 0.7203 0.61588 0.0
C686 C 0.37969 0.72063 0.85148 0.0
C687 C 0.30214 0.73315 0.73031 0.0
H688 H 0.25436 0.91736 0.97787 0.0
H689 H 0.33298 0.91432 0.06185 0.0
H690 H 0.36431 0.83461 0.96652 0.0
H691 H 0.37905 0.86015 0.02571 0.0
H692 H 0.27822 0.69235 0.68773 0.0
H693 H 0.34911 0.69397 0.56358 0.0
H694 H 0.35938 0.7464 0.67255 0.0
H695 H 0.37979 0.72839 0.59565 0.0
Tb696 Tb 0.27991 0.30234 0.80137 0.0
C697 C 0.30263 0.35327 0.95882 0.0
C698 C 0.25531 0.41563 0.95742 0.0
C699 C 0.2674 0.37843 0.02794 0.0
C700 C 0.28271 0.38587 0.93486 0.0
C701 C 0.29608 0.34985 1.00567 0.0
C702 C 0.24721 0.41135 1.00389 0.0
C703 C 0.34935 0.29231 1.0054 0.0
N704 N 0.32924 0.32541 0.93638 0.0
C705 C 0.35444 0.29669 0.95896 0.0
C706 C 0.3191 0.31821 0.02879 0.0
Tb707 Tb 0.33179 0.33403 0.86038 0.0
N708 N 0.29031 0.3886 0.88969 0.0
C709 C 0.27272 0.42167 0.86561 0.0
C710 C 0.23672 0.44883 0.93268 0.0
C711 C 0.24583 0.452 0.88668 0.0
H712 H 0.37634 0.27516 0.94097 0.0
H713 H 0.23178 0.47775 0.86726 0.0
H714 H 0.22573 0.43358 1.0216 0.0
H715 H 0.36801 0.26833 1.02303 0.0
H716 H 0.27827 0.42542 0.83008 0.0
H717 H 0.38378 0.17364 0.74291 0.0
H718 H 0.21552 0.47226 0.94878 0.0
H719 H 0.21424 0.37141 0.75272 0.0
H720 H 0.34919 0.21886 0.79823 0.0
H721 H 0.19158 0.38606 0.67995 0.0
H722 H 0.26119 0.37579 0.06383 0.0
H723 H 0.36825 0.18653 0.66625 0.0
H724 H 0.32575 0.22711 0.61225 0.0
H725 H 0.31436 0.31411 0.0647 0.0
H726 H 0.27247 0.28381 0.59598 0.0
N727 N 0.31696 0.25965 0.75234 0.0
C728 C 0.34303 0.22589 0.76451 0.0
C729 C 0.35378 0.20727 0.69003 0.0
C730 C 0.32532 0.24057 0.67853 0.0
C731 C 0.36256 0.19985 0.73328 0.0
C732 C 0.3076 0.26689 0.71054 0.0
H733 H 0.22357 0.34396 0.62001 0.0
N734 N 0.26068 0.32321 0.73313 0.0
C735 C 0.2161 0.36176 0.68527 0.0
C736 C 0.2782 0.2994 0.70083 0.0
C737 C 0.22919 0.35347 0.7264 0.0
C738 C 0.23425 0.33795 0.65153 0.0
C739 C 0.26528 0.306 0.65929 0.0
O740 O 0.22524 0.30574 0.82438 0.0
O741 O 0.27953 0.32759 0.86009 0.0
O742 O 0.31786 0.28869 0.90262 0.0
O743 O 0.3041 0.25611 0.85405 0.0
O744 O 0.23492 0.35217 0.8271 0.0
O745 O 0.26467 0.25467 0.79929 0.0
O746 O 0.38919 0.31599 0.85655 0.0
O747 O 0.33242 0.3087 0.80158 0.0
O748 O 0.28967 0.35002 0.7567 0.0
O749 O 0.31996 0.37311 0.79879 0.0
O750 O 0.37592 0.28314 0.8359 0.0
O751 O 0.35651 0.37427 0.86506 0.0
C752 C 0.24785 0.3532 0.86239 0.0
C753 C 0.20336 0.27421 0.78111 0.0
C754 C 0.18115 0.24246 0.73432 0.0
C755 C 0.20638 0.24125 0.76262 0.0
C756 C 0.15339 0.27721 0.72429 0.0
C757 C 0.17448 0.30819 0.77137 0.0
C758 C 0.15018 0.3097 0.74269 0.0
C759 C 0.31264 0.25837 0.89351 0.0
C760 C 0.2298 0.27349 0.81067 0.0
C761 C 0.28264 0.27969 0.62759 0.0
C762 C 0.31286 0.24731 0.63696 0.0
C763 C 0.36401 0.28313 0.79937 0.0
C764 C 0.41081 0.34615 0.90135 0.0
C765 C 0.41462 0.37889 0.91252 0.0
C766 C 0.43659 0.37638 0.94538 0.0
C767 C 0.453 0.34107 0.96851 0.0
C768 C 0.42992 0.31084 0.92291 0.0
C769 C 0.44971 0.30857 0.95718 0.0
C770 C 0.30404 0.37538 0.76288 0.0
C771 C 0.38925 0.34823 0.86536 0.0
H772 H 0.22812 0.21481 0.77041 0.0
H773 H 0.13312 0.2791 0.70348 0.0
H774 H 0.17062 0.33393 0.78566 0.0
H775 H 0.12832 0.3361 0.73525 0.0
H776 H 0.40162 0.40599 0.89466 0.0
H777 H 0.47041 0.33809 0.99349 0.0
H778 H 0.42997 0.28466 0.91323 0.0
H779 H 0.4637 0.2813 0.97392 0.0
Tb780 Tb 0.8198 0.29318 0.77456 0.0
C781 C 0.85412 0.38593 0.89432 0.0
C782 C 0.90331 0.40537 0.85108 0.0
C783 C 0.86006 0.4449 0.90662 0.0
C784 C 0.88432 0.37949 0.86136 0.0
C785 C 0.84209 0.41833 0.9179 0.0
C786 C 0.89056 0.43846 0.87324 0.0
C787 C 0.797 0.39458 0.96394 0.0
N788 N 0.8372 0.35981 0.90412 0.0
C789 C 0.80984 0.36293 0.93957 0.0
C790 C 0.81289 0.42263 0.95273 0.0
Tb791 Tb 0.86225 0.30845 0.86345 0.0
N792 N 0.89593 0.34719 0.84059 0.0
C793 C 0.92789 0.33779 0.81139 0.0
C794 C 0.93504 0.39676 0.81961 0.0
C795 C 0.9477 0.36255 0.80022 0.0
H796 H 0.79749 0.34127 0.94831 0.0
H797 H 0.97257 0.35535 0.77641 0.0
H798 H 0.90458 0.45885 0.86549 0.0
H799 H 0.77486 0.39733 0.99131 0.0
H800 H 0.93786 0.3115 0.79605 0.0
H801 H 0.72487 0.22782 0.86836 0.0
H802 H 0.95036 0.41595 0.81071 0.0
H803 H 0.87699 0.2727 0.68034 0.0
H804 H 0.75214 0.27791 0.84782 0.0
H805 H 0.89903 0.22192 0.62984 0.0
H806 H 0.85102 0.47016 0.92408 0.0
H807 H 0.74843 0.17088 0.82676 0.0
H808 H 0.79065 0.13645 0.76285 0.0
H809 H 0.80288 0.44712 0.97168 0.0
H810 H 0.83749 0.1352 0.69743 0.0
N811 N 0.79223 0.24873 0.79661 0.0
C812 C 0.76298 0.25303 0.82968 0.0
C813 C 0.76072 0.19265 0.81781 0.0
C814 C 0.78896 0.18965 0.78204 0.0
C815 C 0.74732 0.22476 0.84133 0.0
C816 C 0.80412 0.21868 0.77195 0.0
H817 H 0.87754 0.16729 0.64711 0.0
N818 N 0.84374 0.24686 0.72643 0.0
C819 C 0.87994 0.22031 0.65957 0.0
C820 C 0.83048 0.21789 0.73533 0.0
C821 C 0.86739 0.24906 0.68833 0.0
C822 C 0.86773 0.18953 0.66942 0.0
C823 C 0.84247 0.18817 0.7075 0.0
O824 O 0.80443 0.32988 0.71742 0.0
O825 O 0.84585 0.32654 0.79802 0.0
O826 O 0.81113 0.3569 0.85502 0.0
O827 O 0.77809 0.32985 0.8232 0.0
O828 O 0.85425 0.3226 0.73155 0.0
O829 O 0.76449 0.31047 0.76062 0.0
O830 O 0.86945 0.27733 0.92569 0.0
O831 O 0.83842 0.27337 0.83926 0.0
O832 O 0.87327 0.24703 0.77517 0.0
O833 O 0.9048 0.26645 0.81997 0.0
O834 O 0.82504 0.28169 0.90475 0.0
O835 O 0.91476 0.29046 0.88627 0.0
C836 C 0.86172 0.33745 0.762 0.0
C837 C 0.75837 0.3212 0.68266 0.0
C838 C 0.7088 0.32487 0.64009 0.0
C839 C 0.72025 0.32982 0.67967 0.0
C840 C 0.73625 0.31009 0.60465 0.0
C841 C 0.78441 0.30737 0.64572 0.0
C842 C 0.77348 0.30152 0.6075 0.0
C843 C 0.77987 0.35759 0.84337 0.0
C844 C 0.77118 0.32858 0.7226 0.0
C845 C 0.8284 0.15848 0.71817 0.0
C846 C 0.80176 0.15917 0.75545 0.0
C847 C 0.82184 0.26289 0.875 0.0
C848 C 0.91062 0.2886 0.96599 0.0
C849 C 0.94712 0.27903 0.9765 0.0
C850 C 0.95271 0.28812 1.01747 0.0
C851 C 0.92181 0.30788 0.04636 0.0
C852 C 0.88069 0.30711 0.99711 0.0
C853 C 0.88626 0.31725 0.03624 0.0
C854 C 0.90348 0.24297 0.79238 0.0
C855 C 0.90287 0.27699 0.92508 0.0
H856 H 0.6997 0.34104 0.70749 0.0
H857 H 0.72898 0.30484 0.57443 0.0
H858 H 0.81347 0.30151 0.64586 0.0
H859 H 0.79405 0.29065 0.57957 0.0
H860 H 0.97067 0.26368 0.95393 0.0
H861 H 0.92521 0.31556 0.07751 0.0
H862 H 0.8526 0.31297 0.99207 0.0
H863 H 0.86275 0.33171 0.05944 0.0
Tb864 Tb 0.77661 0.80507 0.87708 0.0
C865 C 0.81897 0.83845 0.67927 0.0
C866 C 0.86563 0.77999 0.65578 0.0
C867 C 0.82786 0.82397 0.60272 0.0
C868 C 0.8466 0.8047 0.68912 0.0
C869 C 0.80979 0.84893 0.63574 0.0
C870 C 0.85552 0.7894 0.61277 0.0
C871 C 0.76873 0.90963 0.65967 0.0
N872 N 0.80314 0.86235 0.71176 0.0
C873 C 0.77912 0.89814 0.70225 0.0
C874 C 0.78389 0.88482 0.62634 0.0
Tb875 Tb 0.82327 0.84159 0.77975 0.0
N876 N 0.85668 0.79755 0.73047 0.0
C877 C 0.88727 0.76719 0.73973 0.0
C878 C 0.89536 0.7475 0.66612 0.0
C879 C 0.90653 0.74136 0.70811 0.0
H880 H 0.76742 0.91754 0.72779 0.0
H881 H 0.93007 0.71681 0.71614 0.0
H882 H 0.86982 0.77084 0.58666 0.0
H883 H 0.74919 0.9377 0.65253 0.0
H884 H 0.89646 0.7621 0.77191 0.0
H885 H 0.66942 0.93602 0.92423 0.0
H886 H 0.9106 0.72769 0.64154 0.0
H887 H 0.82683 0.7318 0.9375 0.0
H888 H 0.70579 0.88726 0.87376 0.0
H889 H 0.83755 0.71486 1.01585 0.0
H890 H 0.8216 0.83174 0.56899 0.0
H891 H 0.68219 0.92847 1.0017 0.0
H892 H 0.71673 0.88728 0.06279 0.0
H893 H 0.77612 0.89394 0.59326 0.0
H894 H 0.76103 0.82632 0.08796 0.0
N895 N 0.7408 0.85266 0.92106 0.0
C896 C 0.71219 0.88339 0.90721 0.0
C897 C 0.69876 0.90708 0.97941 0.0
C898 C 0.72647 0.87451 0.99421 0.0
C899 C 0.69135 0.91133 0.9358 0.0
C900 C 0.74745 0.84767 0.96377 0.0
H901 H 0.80595 0.76138 0.07107 0.0
N902 N 0.79138 0.78841 0.94774 0.0
C903 C 0.81974 0.74301 1.00549 0.0
C904 C 0.77356 0.81418 0.97772 0.0
C905 C 0.81361 0.75274 0.96114 0.0
C906 C 0.8021 0.76955 0.03651 0.0
C907 C 0.77849 0.80561 1.02287 0.0
O908 O 0.7674 0.75313 0.8912 0.0
O909 O 0.80496 0.7952 0.81017 0.0
O910 O 0.7734 0.8386 0.75951 0.0
O911 O 0.73779 0.83651 0.8284 0.0
O912 O 0.81668 0.75065 0.8576 0.0
O913 O 0.72188 0.80582 0.88792 0.0
O914 O 0.83452 0.89235 0.76365 0.0
O915 O 0.79623 0.84992 0.84675 0.0
O916 O 0.82816 0.80409 0.89671 0.0
O917 O 0.86269 0.8073 0.82682 0.0
O918 O 0.78703 0.89682 0.8045 0.0
O919 O 0.87877 0.8388 0.76896 0.0
C920 C 0.82336 0.76011 0.81591 0.0
C921 C 0.71153 0.75525 0.93637 0.0
C922 C 0.67694 0.71396 0.97091 0.0
C923 C 0.6958 0.72813 0.93299 0.0
C924 C 0.67499 0.72681 1.01234 0.0
C925 C 0.7079 0.76851 0.97775 0.0
C926 C 0.69015 0.75405 1.01555 0.0
C927 C 0.74149 0.84063 0.78423 0.0
C928 C 0.73165 0.76924 0.89655 0.0
C929 C 0.7582 0.83251 0.05316 0.0
C930 C 0.73265 0.86713 0.0388 0.0
C931 C 0.78084 0.88546 0.84571 0.0
C932 C 0.89186 0.88786 0.71989 0.0
C933 C 0.91733 0.90497 0.72449 0.0
C934 C 0.93806 0.91686 0.68652 0.0
C935 C 0.93221 0.91204 0.64424 0.0
C936 C 0.88721 0.88305 0.67725 0.0
C937 C 0.90715 0.89513 0.63974 0.0
C938 C 0.85976 0.8022 0.87107 0.0
C939 C 0.87023 0.87523 0.75949 0.0
H940 H 0.69771 0.71873 0.90072 0.0
H941 H 0.66177 0.71581 0.04244 0.0
H942 H 0.71857 0.79012 0.98097 0.0
H943 H 0.68801 0.7641 0.04747 0.0
H944 H 0.92139 0.90843 0.75738 0.0
H945 H 0.94694 0.92164 0.61449 0.0
H946 H 0.86815 0.87009 0.67275 0.0
H947 H 0.90316 0.89133 0.60704 0.0
C948 C 0.15681 0.15144 0.44537 0.0
C949 C 0.12529 0.15392 0.47666 0.0
H950 H 0.20311 0.16981 0.42354 0.0
C951 C 0.11581 0.17907 0.50972 0.0
H952 H 0.16519 0.13209 0.41976 0.0
C953 C 0.13735 0.20086 0.51175 0.0
C954 C 0.16921 0.19808 0.48092 0.0
H955 H 0.0914 0.18234 0.53389 0.0
H956 H 0.1287 0.22025 0.53737 0.0
C957 C 0.17854 0.17317 0.44752 0.0
C958 C 0.95397 0.17218 0.35 0.0
C959 C 0.96071 0.16385 0.39459 0.0
H960 H 0.91883 0.20934 0.30315 0.0
C961 C 0.93622 0.18783 0.42616 0.0
H962 H 0.9721 0.15432 0.32481 0.0
C963 C 0.90622 0.21916 0.41381 0.0
C964 C 0.89927 0.22767 0.36951 0.0
H965 H 0.94022 0.18258 0.46085 0.0
H966 H 0.88804 0.23641 0.43939 0.0
C967 C 0.92333 0.20358 0.33767 0.0
C968 C 0.98185 0.95101 0.50726 0.0
C969 C 0.99039 0.9722 0.46812 0.0
H970 H 0.95494 0.91224 0.53821 0.0
C971 C 0.97704 0.97016 0.42924 0.0
H972 H 0.9913 0.95196 0.53793 0.0
C973 C 0.9556 0.94757 0.42967 0.0
C974 C 0.9469 0.92674 0.46905 0.0
H975 H 0.98347 0.98563 0.39832 0.0
H976 H 0.94536 0.94688 0.39943 0.0
C977 C 0.96058 0.92852 0.50762 0.0
C978 C 0.17931 0.98967 0.35776 0.0
C979 C 0.14758 0.98371 0.35028 0.0
H980 H 0.23794 0.96699 0.35767 0.0
C981 C 0.15203 0.94899 0.33491 0.0
H982 H 0.17708 0.01588 0.36973 0.0
C983 C 0.18703 0.92073 0.32823 0.0
C984 C 0.21856 0.92621 0.33714 0.0
H985 H 0.1283 0.94328 0.3288 0.0
H986 H 0.18921 0.89428 0.31691 0.0
C987 C 0.21427 0.96131 0.35134 0.0
C988 C 0.19394 0.94429 0.80169 0.0
C989 C 0.18931 0.95218 0.75649 0.0
H990 H 0.22506 0.9064 0.85127 0.0
C991 C 0.21423 0.92697 0.72627 0.0
H992 H 0.17544 0.96303 0.82586 0.0
C993 C 0.24245 0.89459 0.74071 0.0
C994 C 0.24702 0.88649 0.78581 0.0
H995 H 0.21169 0.93191 0.69116 0.0
H996 H 0.26057 0.87568 0.71647 0.0
C997 C 0.22263 0.91197 0.81612 0.0
C998 C 0.16375 0.17871 0.66364 0.0
C999 C 0.16511 0.14679 0.69387 0.0
H1000 H 0.16905 0.23337 0.65205 0.0
C1001 C 0.17786 0.14429 0.73472 0.0
H1002 H 0.15461 0.18177 0.63166 0.0
C1003 C 0.18554 0.17436 0.74674 0.0
C1004 C 0.18108 0.20754 0.71801 0.0
H1005 H 0.18055 0.11973 0.75837 0.0
H1006 H 0.19278 0.17244 0.77965 0.0
C1007 C 0.17179 0.2086 0.67551 0.0
C1008 C 1.00036 0.16619 0.78966 0.0
C1009 C 0.99773 0.14097 0.76225 0.0
H1010 H 0.9731 0.2188 0.82003 0.0
C1011 C 0.96406 0.14909 0.74643 0.0
H1012 H 1.02619 0.16098 0.80181 0.0
C1013 C 0.93396 0.18163 0.75687 0.0
C1014 C 0.93651 0.20807 0.78256 0.0
H1015 H 0.96107 0.13029 0.72525 0.0
H1016 H 0.90864 0.18591 0.74436 0.0
C1017 C 0.97007 0.19956 0.79956 0.0
C1018 C 0.98397 0.98116 0.71674 0.0
C1019 C 1.01705 0.97176 0.68689 0.0
H1020 H 0.93291 0.97128 0.74018 0.0
C1021 C 1.02491 0.94221 0.65994 0.0
H1022 H 0.97697 1.00379 0.73793 0.0
C1023 C 0.99992 0.92363 0.66137 0.0
C1024 C 0.96612 0.93402 0.68968 0.0
H1025 H 0.05046 0.93336 0.63746 0.0
H1026 H 1.00693 0.90129 0.6397 0.0
C1027 C 0.95875 0.96246 0.71813 0.0
C1028 C 0.30382 0.24271 0.21903 0.0
C1029 C 0.31535 0.20328 0.22846 0.0
H1030 H 0.30208 0.29517 0.23636 0.0
C1031 C 0.33771 0.1866 0.26224 0.0
H1032 H 0.28681 0.25628 0.1929 0.0
C1033 C 0.34573 0.20933 0.28837 0.0
C1034 C 0.33205 0.2492 0.28089 0.0
H1035 H 0.34685 0.15623 0.2703 0.0
H1036 H 0.36091 0.19577 0.3161 0.0
C1037 C 0.31251 0.2652 0.2444 0.0
C1038 C 0.94821 0.33526 0.2616 0.0
C1039 C 0.95175 0.35818 0.22176 0.0
H1040 H 0.91303 0.31121 0.30876 0.0
C1041 C 0.92067 0.37508 0.1993 0.0
H1042 H 0.97166 0.32179 0.27967 0.0
C1043 C 0.88676 0.37007 0.21669 0.0
C1044 C 0.88276 0.34786 0.25706 0.0
H1045 H 0.92244 0.39288 0.16868 0.0
H1046 H 0.86334 0.38406 0.19865 0.0
C1047 C 0.91444 0.32956 0.27854 0.0
C1048 C 0.85427 0.92572 0.19359 0.0
C1049 C 0.83191 0.93091 0.16051 0.0
H1050 H 0.86942 0.89818 0.25671 0.0
C1051 C 0.80423 0.91458 0.16895 0.0
H1052 H 0.87562 0.93816 0.18822 0.0
C1053 C 0.80054 0.89171 0.20851 0.0
C1054 C 0.82384 0.88544 0.24088 0.0
H1055 H 0.78661 0.91807 0.14406 0.0
H1056 H 0.78024 0.87799 0.21321 0.0
C1057 C 0.85005 0.90358 0.23342 0.0
C1058 C 0.11535 0.87681 0.13115 0.0
C1059 C 0.10494 0.89246 0.08914 0.0
H1060 H 0.15843 0.85758 0.17223 0.0
C1061 C 0.12906 0.90596 0.05781 0.0
H1062 H 0.0972 0.86602 0.15561 0.0
C1063 C 0.16428 0.90086 0.06705 0.0
C1064 C 0.17576 0.88243 0.10788 0.0
H1065 H 0.12186 0.91764 0.02498 0.0
H1066 H 0.18314 0.9097 0.0415 0.0
C1067 C 0.15038 0.87196 0.14054 0.0
C1068 C 0.24625 0.98882 0.10897 0.0
C1069 C 0.2367 0.0232 0.08218 0.0
H1070 H 0.27002 0.92855 0.11085 0.0
C1071 C 0.23637 0.02272 0.03657 0.0
H1072 H 0.24668 0.98861 0.14419 0.0
C1073 C 0.24999 0.98822 1.01728 0.0
C1074 C 0.26398 0.954 0.04351 0.0
H1075 H 0.22944 0.04891 1.01522 0.0
H1076 H 0.25311 0.9886 0.98146 0.0
C1077 C 0.25967 0.95452 0.08985 0.0
C1078 C 0.16236 0.40229 0.94285 0.0
C1079 C 0.1671 0.37733 0.98198 0.0
H1080 H 0.18397 0.41437 0.87496 0.0
C1081 C 0.20005 0.34558 0.98173 0.0
H1082 H 0.1375 0.42688 0.94104 0.0
C1083 C 0.22654 0.33854 0.9436 0.0
C1084 C 0.22166 0.36313 0.90456 0.0
H1085 H 0.2054 0.32569 1.01084 0.0
H1086 H 0.25038 0.31311 0.94421 0.0
C1087 C 0.18908 0.39512 0.90471 0.0
C1088 C 0.84959 0.1554 0.87881 0.0
C1089 C 0.83043 0.1469 0.91987 0.0
H1090 H 0.86184 0.19794 0.83219 0.0
C1091 C 0.80672 0.17727 0.94433 0.0
H1092 H 0.86773 0.13299 0.8587 0.0
C1093 C 0.80303 0.21481 0.92869 0.0
C1094 C 0.82266 0.22323 0.88804 0.0
H1095 H 0.7918 0.17211 0.97635 0.0
H1096 H 0.78532 0.23734 0.94895 0.0
C1097 C 0.84586 0.19297 0.86324 0.0
C1098 C 0.91964 0.80167 0.95736 0.0
C1099 C 0.95218 0.80279 0.93012 0.0
H1100 H 0.86482 0.80067 0.96037 0.0
C1101 C 0.95527 0.79943 0.88441 0.0
H1102 H 0.91628 0.80434 0.99263 0.0
C1103 C 0.92612 0.7971 0.86592 0.0
C1104 C 0.89263 0.79828 0.89245 0.0
H1105 H 0.98014 0.79956 0.86255 0.0
H1106 H 0.92952 0.79574 0.83036 0.0
C1107 C 0.89012 0.7996 0.93872 0.0
C1108 C 0.16041 0.33569 0.27778 0.0
C1109 C 0.16321 0.33479 0.2314 0.0
H1110 H 0.18428 0.34103 0.33303 0.0
C1111 C 0.19487 0.33975 0.20519 0.0
H1112 H 0.13668 0.33223 0.29953 0.0
C1113 C 0.22249 0.34527 0.22475 0.0
C1114 C 0.21955 0.34605 0.27128 0.0
H1115 H 0.19827 0.33956 0.16943 0.0
H1116 H 0.24649 0.34833 0.20329 0.0
C1117 C 0.18788 0.34108 0.29723 0.0
C1118 C 0.18988 0.75999 0.97542 0.0
C1119 C 0.16075 0.79218 0.96131 0.0
H1120 H 0.24877 0.72848 0.96745 0.0
C1121 C 0.17064 0.81667 0.92594 0.0
H1122 H 0.18408 0.74054 1.00261 0.0
C1123 C 0.20745 0.80978 0.90585 0.0
C1124 C 0.23653 0.77775 0.91961 0.0
H1125 H 0.14971 0.84192 0.91354 0.0
H1126 H 0.21317 0.82995 0.8795 0.0
C1127 C 0.22716 0.75319 0.95524 0.0
C1128 C 0.3026 0.21743 1.0137 0.0
C1129 C 0.311 0.17866 1.01149 0.0
H1130 H 0.29502 0.27154 0.98011 0.0
C1131 C 0.32036 0.16505 0.9689 0.0
H1132 H 0.2948 0.22928 0.04554 0.0
C1133 C 0.32063 0.19029 0.92971 0.0
C1134 C 0.31178 0.2294 0.93262 0.0
H1135 H 0.32613 0.13541 0.96586 0.0
H1136 H 0.32776 0.17927 0.89747 0.0
C1137 C 0.30279 0.24201 0.97547 0.0
C1138 C 0.04194 0.29483 0.04059 0.0
C1139 C 0.04625 0.27347 0.08229 0.0
H1140 H 1.00924 0.31574 0.98661 0.0
C1141 C 1.02379 0.25134 0.09703 0.0
H1142 H 0.05849 0.31242 0.02803 0.0
C1143 C 0.99589 0.25303 0.07295 0.0
C1144 C 0.98956 0.27678 0.03327 0.0
H1145 H 1.02608 0.23453 0.12876 0.0
H1146 H 0.97734 0.23787 0.08716 0.0
C1147 C 1.01382 0.29658 1.0165 0.0
C1148 C 0.80327 0.91713 0.94655 0.0
C1149 C 0.78538 0.95666 0.94244 0.0
H1150 H 0.81602 0.86447 0.92079 0.0
C1151 C 0.76277 0.97235 0.90859 0.0
H1152 H 0.82112 0.9039 0.97196 0.0
C1153 C 0.76001 0.94906 0.87832 0.0
C1154 C 0.77924 0.90951 0.8816 0.0
H1155 H 0.74909 1.00272 0.90381 0.0
H1156 H 0.74375 0.96215 0.85142 0.0
C1157 C 0.8003 0.89414 0.91683 0.0
C1158 C 0.93237 0.81603 0.15887 0.0
C1159 C 0.97112 0.79767 0.15239 0.0
H1160 H 0.88198 0.83057 0.20326 0.0
C1161 C 0.98756 0.77701 0.18997 0.0
H1162 H 0.91811 0.83235 0.13136 0.0
C1163 C 0.96598 0.77621 0.23246 0.0
C1164 C 0.92717 0.79502 0.23871 0.0
H1165 H 1.01722 0.76296 0.18708 0.0
H1166 H 0.9799 0.76169 0.26087 0.0
C1167 C 0.91114 0.81505 0.20085 0.0
C1168 C 0.31222 0.99208 0.25253 0.0
C1169 C 0.33236 1.00103 0.21225 0.0
H1170 H 0.29928 0.9495 0.29844 0.0
C1171 C 0.35894 0.97071 0.19011 0.0
H1172 H 0.29134 0.01429 0.27085 0.0
C1173 C 0.36417 0.9328 0.20713 0.0
C1174 C 0.34291 0.92405 0.2466 0.0
H1175 H 0.37484 0.9762 0.15893 0.0
H1176 H 0.38407 0.91018 0.18852 0.0
C1177 C 0.31699 0.95445 0.26894 0.0
C1178 C 0.81243 0.11452 0.13283 0.0
C1179 C 0.78635 0.11375 0.10702 0.0
H1180 H 0.83209 0.14768 0.16569 0.0
C1181 C 0.75553 0.1467 0.10164 0.0
H1182 H 0.83639 0.08954 0.13829 0.0
C1183 C 0.7527 0.18031 0.11841 0.0
C1184 C 0.78086 0.18196 0.14042 0.0
H1185 H 0.73486 0.1472 0.08221 0.0
H1186 H 0.72923 0.20554 0.11212 0.0
C1187 C 0.80983 0.14801 0.1491 0.0
C1188 C 0.60877 0.66171 0.99349 0.0
C1189 C 0.6252 0.63247 0.96524 0.0
H1190 H 0.61131 0.71083 1.0163 0.0
C1191 C 0.65817 0.63087 0.93736 0.0
H1192 H 0.58295 0.66416 1.01466 0.0
C1193 C 0.67495 0.6574 0.93874 0.0
C1194 C 0.65882 0.68633 0.96771 0.0
H1195 H 0.67151 0.60846 0.91546 0.0
H1196 H 0.70098 0.65464 0.91792 0.0
C1197 C 0.62518 0.68841 0.9945 0.0
C1198 C 0.4707 0.66177 0.8942 0.0
C1199 C 0.48033 0.62708 0.87654 0.0
H1200 H 0.43332 0.71783 0.89867 0.0
C1201 C 0.45812 0.62359 0.84733 0.0
H1202 H 0.48734 0.66542 0.91663 0.0
C1203 C 0.42574 0.65405 0.83795 0.0
C1204 C 0.41506 0.68832 0.85783 0.0
H1205 H 0.46474 0.59691 0.8336 0.0
H1206 H 0.4087 0.65032 0.81619 0.0
C1207 C 0.439 0.69183 0.88458 0.0
C1208 C 0.47138 0.43818 0.99773 0.0
C1209 C 0.48639 0.45589 0.95976 0.0
H1210 H 0.44238 0.39995 1.02316 0.0
C1211 C 0.47883 0.45236 0.91786 0.0
H1212 H 0.4759 0.44114 0.03054 0.0
C1213 C 0.45958 0.42896 0.91364 0.0
C1214 C 0.44745 0.4086 0.95122 0.0
H1215 H 0.49 0.46543 0.88784 0.0
H1216 H 0.45686 0.42455 0.88057 0.0
C1217 C 0.45202 0.41479 0.99351 0.0
C1218 C 0.67912 0.4252 0.85547 0.0
C1219 C 0.68175 0.45521 0.87484 0.0
H1220 H 0.70782 0.3703 0.8312 0.0
C1221 C 0.7168 0.45369 0.88126 0.0
H1222 H 0.65241 0.42542 0.85052 0.0
C1223 C 0.74837 0.42269 0.86966 0.0
C1224 C 0.74587 0.39146 0.85274 0.0
H1225 H 0.7198 0.47644 0.89586 0.0
H1226 H 0.77477 0.42322 0.87451 0.0
C1227 C 0.71086 0.39348 0.84481 0.0
C1228 C 0.68793 0.46244 0.23846 0.0
C1229 C 0.66649 0.48874 0.2693 0.0
H1230 H 0.73335 0.41146 0.22548 0.0
C1231 C 0.6756 0.4819 0.31284 0.0
H1232 H 0.68216 0.46662 0.20451 0.0
C1233 C 0.70553 0.44956 0.32485 0.0
C1234 C 0.72642 0.42325 0.29376 0.0
H1235 H 0.65999 0.50165 0.33733 0.0
H1236 H 0.71194 0.44476 0.35858 0.0
C1237 C 0.71728 0.43033 0.25052 0.0
C1238 C 0.69139 0.64884 0.24578 0.0
C1239 C 0.68208 0.64985 0.20328 0.0
H1240 H 0.72947 0.65442 0.28391 0.0
C1241 C 0.70408 0.66027 0.16598 0.0
H1242 H 0.67481 0.64171 0.27539 0.0
C1243 C 0.73518 0.66824 0.17098 0.0
C1244 C 0.74515 0.66594 0.2134 0.0
H1245 H 0.69794 0.66135 0.13274 0.0
H1246 H 0.75168 0.67582 0.14149 0.0
C1247 C 0.72252 0.65672 0.25077 0.0
C1248 C 0.47299 0.71947 0.234 0.0
C1249 C 0.48655 0.68987 0.26679 0.0
H1250 H 0.43337 0.77392 0.21833 0.0
C1251 C 0.47054 0.69509 0.31134 0.0
H1252 H 0.48479 0.71711 0.19941 0.0
C1253 C 0.44045 0.72837 0.32213 0.0
C1254 C 0.42612 0.75688 0.28857 0.0
H1255 H 0.48029 0.67302 0.33745 0.0
H1256 H 0.42727 0.73096 0.35623 0.0
C1257 C 0.44339 0.7523 0.24474 0.0
C1258 C 0.51255 0.48291 0.16324 0.0
C1259 C 0.50331 0.51034 0.19348 0.0
H1260 H 0.49808 0.44112 0.13918 0.0
C1261 C 0.47143 0.51515 0.22489 0.0
H1262 H 0.53735 0.47769 0.13936 0.0
C1263 C 0.44853 0.49415 0.22467 0.0
C1264 C 0.45712 0.46777 0.19314 0.0
H1265 H 0.4635 0.53609 0.24858 0.0
H1266 H 0.4234 0.49963 0.24805 0.0
C1267 C 0.48995 0.46185 0.1632 0.0
C1268 C 0.86891 0.6649 0.769 0.0
C1269 C 0.8485 0.66714 0.73472 0.0
H1270 H 0.87698 0.69224 0.82043 0.0
C1271 C 0.82043 0.70199 0.72503 0.0
H1272 H 0.89079 0.63883 0.77756 0.0
C1273 C 0.81305 0.73345 0.7494 0.0
C1274 C 0.83338 0.73047 0.78417 0.0
H1275 H 0.80444 0.70501 0.69852 0.0
H1276 H 0.7909 0.75959 0.7419 0.0
C1277 C 0.86119 0.69572 0.79352 0.0
C1278 C 0.44791 0.8083 0.70302 0.0
C1279 C 0.4789 0.78687 0.72475 0.0
H1280 H 0.38921 0.82446 0.70226 0.0
C1281 C 0.4715 0.76803 0.76682 0.0
H1282 H 0.45178 0.82299 0.6706 0.0
C1283 C 0.43519 0.76951 0.78545 0.0
C1284 C 0.4043 0.79013 0.76329 0.0
H1285 H 0.49399 0.75143 0.78539 0.0
H1286 H 0.4317 0.75345 0.81678 0.0
C1287 C 0.41166 0.80931 0.72151 0.0
C1288 C 0.32261 0.46177 0.69697 0.0
C1289 C 0.30952 0.46414 0.65636 0.0
H1290 H 0.33089 0.43295 0.76178 0.0
C1291 C 0.294 0.43716 0.65136 0.0
H1292 H 0.33436 0.4821 0.70254 0.0
C1293 C 0.29216 0.40853 0.68561 0.0
C1294 C 0.30531 0.40619 0.72626 0.0
H1295 H 0.28403 0.43761 0.62054 0.0
H1296 H 0.28082 0.38795 0.67983 0.0
C1297 C 0.32045 0.43346 0.73126 0.0
C1298 C 0.6112 0.32116 0.6593 0.0
C1299 C 0.59945 0.33409 0.617 0.0
H1300 H 0.65424 0.30839 0.70001 0.0
C1301 C 0.62163 0.34958 0.5849 0.0
H1302 H 0.5949 0.30919 0.68517 0.0
C1303 C 0.6559 0.34904 0.59359 0.0
C1304 C 0.66902 0.33317 0.63472 0.0
H1305 H 0.61374 0.35989 0.55206 0.0
H1306 H 0.673 0.35955 0.5672 0.0
C1307 C 0.64534 0.3208 0.66806 0.0
C1308 C 0.84322 0.50313 0.53528 0.0
C1309 C 0.82358 0.52572 0.57041 0.0
H1310 H 0.84559 0.46103 0.49443 0.0
C1311 C 0.78804 0.52564 0.5879 0.0
H1312 H 0.87062 0.50263 0.52069 0.0
C1313 C 0.7736 0.50166 0.57258 0.0
C1314 C 0.79429 0.47729 0.53929 0.0
H1315 H 0.77214 0.54263 0.61488 0.0
H1316 H 0.7466 0.50135 0.58784 0.0
C1317 C 0.82877 0.47935 0.51987 0.0
C1318 C 0.70698 0.82337 0.45727 0.0
C1319 C 0.71376 0.78829 0.48354 0.0
H1320 H 0.72578 0.85582 0.40044 0.0
C1321 C 0.74714 0.75883 0.47032 0.0
H1322 H 0.68179 0.84686 0.46523 0.0
C1323 C 0.77243 0.76416 0.43313 0.0
C1324 C 0.76601 0.79934 0.40765 0.0
H1325 H 0.75426 0.73133 0.48888 0.0
H1326 H 0.79738 0.74055 0.42441 0.0
C1327 C 0.73235 0.82859 0.41977 0.0
C1328 C 0.33422 0.69602 0.38138 0.0
C1329 C 0.30899 0.68915 0.41764 0.0
H1330 H 0.35142 0.73707 0.33616 0.0
C1331 C 0.2797 0.72075 0.43398 0.0
H1332 H 0.35691 0.6726 0.36736 0.0
C1333 C 0.27678 0.75789 0.41622 0.0
C1334 C 0.30248 0.76476 0.38076 0.0
H1335 H 0.2598 0.71692 0.46175 0.0
H1336 H 0.25467 0.78146 0.4309 0.0
C1337 C 0.33092 0.73317 0.36312 0.0
C1338 C 0.44232 0.27791 0.45833 0.0
C1339 C 0.45667 0.30673 0.45965 0.0
H1340 H 0.4061 0.25911 0.43099 0.0
C1341 C 0.44374 0.34017 0.43135 0.0
H1342 H 0.45123 0.25157 0.47915 0.0
C1343 C 0.41724 0.34435 0.40304 0.0
C1344 C 0.40279 0.31539 0.40268 0.0
H1345 H 0.45408 0.36296 0.431 0.0
H1346 H 0.40727 0.37064 0.3824 0.0
C1347 C 0.41606 0.28218 0.4306 0.0
C1348 C 0.64767 0.8404 0.76623 0.0
C1349 C 0.65078 0.84177 0.71965 0.0
H1350 H 0.67289 0.8398 0.82286 0.0
C1351 C 0.68293 0.84591 0.69426 0.0
H1352 H 0.62341 0.83719 0.78697 0.0
C1353 C 0.71183 0.84676 0.71502 0.0
C1354 C 0.70922 0.84416 0.76174 0.0
H1355 H 0.6866 0.84663 0.65837 0.0
H1356 H 0.73673 0.84814 0.69431 0.0
C1357 C 0.67625 0.84185 0.78691 0.0
C1358 C 0.7009 0.26717 0.46639 0.0
C1359 C 0.66956 0.28335 0.44436 0.0
H1360 H 0.75774 0.26036 0.46649 0.0
C1361 C 0.67177 0.30733 0.40515 0.0
H1362 H 0.69998 0.24883 0.49674 0.0
C1363 C 0.70453 0.31489 0.38844 0.0
C1364 C 0.73657 0.29705 0.40915 0.0
H1365 H 0.64789 0.32065 0.38777 0.0
H1366 H 0.70484 0.33445 0.35912 0.0
C1367 C 0.73397 0.27372 0.44889 0.0
C1368 C 0.8867 0.64632 0.46781 0.0
C1369 C 0.90914 0.64796 0.49781 0.0
H1370 H 0.86285 0.6702 0.40805 0.0
C1371 C 0.92807 0.67377 0.4871 0.0
H1372 H 0.87226 0.62631 0.4747 0.0
C1373 C 0.92286 0.69891 0.44868 0.0
C1374 C 0.89872 0.69871 0.41997 0.0
H1375 H 0.94544 0.67593 0.50951 0.0
H1376 H 0.93645 0.71965 0.44263 0.0
C1377 C 0.88165 0.67126 0.42929 0.0
C1378 C 0.49158 0.88166 0.54929 0.0
C1379 C 0.52061 0.84835 0.53762 0.0
H1380 H 0.43469 0.9155 0.54666 0.0
C1381 C 0.51496 0.82535 0.50984 0.0
H1382 H 0.49513 0.90009 0.57045 0.0
C1383 C 0.48029 0.83324 0.4976 0.0
C1384 C 0.45022 0.86501 0.51179 0.0
H1385 H 0.53683 0.79961 0.49975 0.0
H1386 H 0.47689 0.81275 0.47942 0.0
C1387 C 0.45676 0.89009 0.53616 0.0
C1388 C 0.31359 0.43415 0.44314 0.0
C1389 C 0.29196 0.47288 0.4397 0.0
H1390 H 0.32823 0.38008 0.41957 0.0
C1391 C 0.26639 0.48575 0.40889 0.0
H1392 H 0.33337 0.42286 0.46664 0.0
C1393 C 0.26354 0.46064 0.38139 0.0
C1394 C 0.28567 0.42198 0.38456 0.0
H1395 H 0.24921 0.51534 0.40528 0.0
H1396 H 0.24439 0.47156 0.35713 0.0
C1397 C 0.31054 0.40927 0.41602 0.0
C1398 C 0.45486 0.24221 0.72375 0.0
C1399 C 0.44911 0.26513 0.68335 0.0
H1400 H 0.43282 0.22981 0.79104 0.0
C1401 C 0.4135 0.2923 0.68029 0.0
H1402 H 0.4817 0.22113 0.72788 0.0
C1403 C 0.38503 0.29691 0.71675 0.0
C1404 C 0.39143 0.2749 0.75765 0.0
H1405 H 0.40767 0.31016 0.64972 0.0
H1406 H 0.3584 0.3185 0.71318 0.0
C1407 C 0.42668 0.24719 0.7602 0.0
C1408 C 0.85249 0.44116 0.75784 0.0
C1409 C 0.88263 0.44264 0.72605 0.0
H1410 H 0.82241 0.40682 0.79476 0.0
C1411 C 0.90571 0.40931 0.70664 0.0
H1412 H 0.83413 0.46647 0.77304 0.0
C1413 C 0.89872 0.37535 0.71854 0.0
C1414 C 0.86946 0.37345 0.75152 0.0
H1415 H 0.92876 0.40975 0.68152 0.0
H1416 H 0.9166 0.3503 0.70244 0.0
C1417 C 0.84606 0.40688 0.77061 0.0
C1418 C 0.24821 0.67624 0.55406 0.0
C1419 C 0.24784 0.63998 0.57044 0.0
H1420 H 0.27013 0.71977 0.55681 0.0
C1421 C 0.26931 0.61976 0.60403 0.0
H1422 H 0.23065 0.69296 0.5295 0.0
C1423 C 0.29089 0.63559 0.62086 0.0
C1424 C 0.29158 0.67171 0.60394 0.0
H1425 H 0.26798 0.59258 0.61876 0.0
H1426 H 0.30651 0.61996 0.6476 0.0
C1427 C 0.27053 0.69162 0.56986 0.0
loop_
_geom_bond_atom_site_label_1
_geom_bond_atom_site_label_2
_geom_bond_distance
_geom_bond_site_symmetry_2
_ccdc_geom_bond_type
Cu0 N1 1.999 . S
Cu0 O6 1.974 . S
Cu0 N11 1.985 . S
Cu0 O20 1.959 1_455 S
N1 Cu0 1.999 . S
N1 C3 1.263 . S
N1 C5 1.389 . S
N2 C3 1.358 . S
N2 C4 1.400 . S
C3 N1 1.263 . S
C3 N2 1.358 . S
C3 H9 0.930 . S
C4 N2 1.400 . S
C4 C5 1.351 . S
C4 H21 0.930 . S
C5 N1 1.389 . S
C5 C4 1.351 . S
C5 H10 0.930 . S
O6 Cu0 1.974 . S
O6 C16 1.282 1_545 S
C7 O8 1.245 1_655 S
C7 O20 1.251 . S
O8 C7 1.245 1_455 S
H9 C3 0.930 . S
H10 C5 0.930 . S
N11 Cu0 1.985 . S
N11 C13 1.335 1_455 S
N11 C14 1.390 1_545 S
N12 C13 1.345 1_565 S
N12 C15 1.336 1_655 S
C13 N11 1.335 1_655 S
C13 N12 1.345 1_545 S
C13 H18 0.930 . S
C14 N11 1.390 1_565 S
C14 C15 1.346 . S
C14 H19 0.930 . S
C15 N12 1.336 1_455 S
C15 C14 1.346 . S
C15 H22 0.929 . S
C16 O6 1.282 1_565 S
C16 O17 1.216 1_565 S
O17 C16 1.216 1_545 S
H18 C13 0.930 . S
H19 C14 0.930 . S
O20 Cu0 1.959 1_655 S
O20 C7 1.251 . S
H21 C4 0.930 . S
H22 C15 0.929 . S
Cu23 N24 1.999 . S
Cu23 O29 1.974 1_455 S
Cu23 N34 1.985 . S
Cu23 O43 1.959 . S
N24 Cu23 1.999 . S
N24 C26 1.263 1_455 S
N24 C28 1.389 1_545 S
N25 C26 1.358 . S
N25 C27 1.400 1_545 S
C26 N24 1.263 1_655 S
C26 N25 1.358 . S
C26 H32 0.930 . S
C27 N25 1.400 1_565 S
C27 C28 1.351 1_655 S
C27 H44 0.930 . S
C28 N24 1.389 1_565 S
C28 C27 1.351 1_455 S
C28 H33 0.930 . S
O29 Cu23 1.974 1_655 S
O29 C39 1.282 . S
C30 O31 1.261 . S
C30 O43 1.251 . S
O31 C30 1.261 . S
H32 C26 0.930 . S
H33 C28 0.930 . S
N34 Cu23 1.985 . S
N34 C36 1.335 . S
N34 C37 1.390 . S
N35 C36 1.345 . S
N35 C38 1.336 . S
C36 N34 1.335 . S
C36 N35 1.345 . S
C36 H41 0.930 . S
C37 N34 1.390 . S
C37 C38 1.346 . S
C37 H42 0.930 . S
C38 N35 1.336 . S
C38 C37 1.346 . S
C38 H45 0.929 . S
C39 O29 1.282 . S
C39 O40 1.216 . S
O40 C39 1.216 . S
H41 C36 0.930 . S
H42 C37 0.930 . S
O43 Cu23 1.959 . S
O43 C30 1.251 . S
H44 C27 0.930 . S
H45 C38 0.929 . S
Cu46 N47 1.999 . S
Cu46 O52 1.974 . S
Cu46 N57 1.985 . S
Cu46 O66 1.959 . S
N47 Cu46 1.999 . S
N47 C49 1.263 . S
N47 C51 1.389 . S
N48 C49 1.358 . S
N48 C50 1.400 . S
C49 N47 1.263 . S
C49 N48 1.358 . S
C49 H55 0.930 . S
C50 N48 1.400 . S
C50 C51 1.351 . S
C50 H67 0.930 1_554 S
C51 N47 1.389 . S
C51 C50 1.351 . S
C51 H56 0.930 . S
O52 Cu46 1.974 . S
O52 C62 1.282 . S
C53 O54 1.261 . S
C53 O66 1.251 . S
O54 C53 1.261 . S
H55 C49 0.930 . S
H56 C51 0.930 . S
N57 Cu46 1.985 . S
N57 C59 1.335 . S
N57 C60 1.390 . S
N58 C59 1.345 . S
N58 C61 1.336 . S
C59 N57 1.335 . S
C59 N58 1.345 . S
C59 H64 0.930 . S
C60 N57 1.390 . S
C60 C61 1.346 . S
C60 H65 0.930 . S
C61 N58 1.336 . S
C61 C60 1.346 . S
C61 H68 0.929 . S
C62 O52 1.282 . S
C62 O63 1.216 . S
O63 C62 1.216 . S
H64 C59 0.930 . S
H65 C60 0.930 . S
O66 Cu46 1.959 . S
O66 C53 1.251 . S
H67 C50 0.930 1_556 S
H68 C61 0.929 . S
Cu69 N70 1.999 . S
Cu69 O75 1.974 . S
Cu69 N80 1.985 . S
Cu69 O89 1.959 . S
N70 Cu69 1.999 . S
N70 C72 1.263 . S
N70 C74 1.389 . S
N71 C72 1.358 . S
N71 C73 1.400 1_554 S
C72 N70 1.263 . S
C72 N71 1.358 . S
C72 H78 0.930 . S
C73 N71 1.400 1_556 S
C73 C74 1.351 1_556 S
C73 H90 0.930 . S
C74 N70 1.389 . S
C74 C73 1.351 1_554 S
C74 H79 0.930 1_554 S
O75 Cu69 1.974 . S
O75 C85 1.282 . S
C76 O77 1.261 . S
C76 O89 1.251 . S
O77 C76 1.261 . S
H78 C72 0.930 . S
H79 C74 0.930 1_556 S
N80 Cu69 1.985 . S
N80 C82 1.335 . S
N80 C83 1.390 . S
N81 C82 1.345 1_655 S
N81 C84 1.336 1_655 S
C82 N80 1.335 . S
C82 N81 1.345 1_455 S
C82 H87 0.930 1_455 S
C83 N80 1.390 . S
C83 C84 1.346 . S
C83 H88 0.930 . S
C84 N81 1.336 1_455 S
C84 C83 1.346 . S
C84 H91 0.929 . S
C85 O75 1.282 . S
C85 O86 1.216 . S
O86 C85 1.216 . S
H87 C82 0.930 1_655 S
H88 C83 0.930 . S
O89 Cu69 1.959 . S
O89 C76 1.251 . S
H90 C73 0.930 . S
H91 C84 0.929 . S
Cu92 N93 1.999 1_554 S
Cu92 O98 1.974 . S
Cu92 N103 1.985 1_545 S
Cu92 O112 1.959 1_544 S
N93 Cu92 1.999 1_556 S
N93 C95 1.263 . S
N93 C97 1.389 . S
N94 C95 1.358 . S
N94 C96 1.400 . S
C95 N93 1.263 . S
C95 N94 1.358 . S
C95 H101 0.930 . S
C96 N94 1.400 . S
C96 C97 1.351 . S
C96 H113 0.930 . S
C97 N93 1.389 . S
C97 C96 1.351 . S
C97 H102 0.930 . S
O98 Cu92 1.974 . S
O98 C108 1.282 . S
C99 O100 1.261 . S
C99 O112 1.251 . S
O100 C99 1.261 . S
H101 C95 0.930 . S
H102 C97 0.930 . S
N103 Cu92 1.985 1_565 S
N103 C105 1.335 . S
N103 C106 1.390 . S
N104 C105 1.345 . S
N104 C107 1.336 . S
C105 N103 1.335 . S
C105 N104 1.345 . S
C105 H110 0.930 . S
C106 N103 1.390 . S
C106 C107 1.346 . S
C106 H111 0.930 . S
C107 N104 1.336 . S
C107 C106 1.346 . S
C107 H114 0.929 . S
C108 O98 1.282 . S
C108 O109 1.216 . S
O109 C108 1.216 . S
H110 C105 0.930 . S
H111 C106 0.930 . S
O112 Cu92 1.959 1_566 S
O112 C99 1.251 . S
H113 C96 0.930 . S
H114 C107 0.929 . S
Cu115 N116 1.999 1_454 S
Cu115 O121 1.974 1_455 S
Cu115 N126 1.985 . S
Cu115 O135 1.959 1_554 S
N116 Cu115 1.999 1_656 S
N116 C118 1.263 . S
N116 C120 1.389 . S
N117 C118 1.358 . S
N117 C119 1.400 . S
C118 N116 1.263 . S
C118 N117 1.358 . S
C118 H124 0.930 . S
C119 N117 1.400 . S
C119 C120 1.351 . S
C119 H136 0.930 . S
C120 N116 1.389 . S
C120 C119 1.351 . S
C120 H125 0.930 1_655 S
O121 Cu115 1.974 1_655 S
O121 C131 1.282 . S
C122 O123 1.261 . S
C122 O135 1.251 . S
O123 C122 1.261 . S
H124 C118 0.930 . S
H125 C120 0.930 1_455 S
N126 Cu115 1.985 . S
N126 C128 1.335 . S
N126 C129 1.390 . S
N127 C128 1.345 . S
N127 C130 1.336 . S
C128 N126 1.335 . S
C128 N127 1.345 . S
C128 H133 0.930 . S
C129 N126 1.390 . S
C129 C130 1.346 . S
C129 H134 0.930 1_455 S
C130 N127 1.336 . S
C130 C129 1.346 . S
C130 H137 0.929 . S
C131 O121 1.282 . S
C131 O132 1.216 . S
O132 C131 1.216 . S
H133 C128 0.930 . S
H134 C129 0.930 1_655 S
O135 Cu115 1.959 1_556 S
O135 C122 1.251 . S
H136 C119 0.930 . S
H137 C130 0.929 . S
Cu138 N139 1.999 . S
Cu138 O144 1.974 . S
Cu138 N149 1.985 . S
Cu138 O158 1.959 . S
N139 Cu138 1.999 . S
N139 C141 1.263 . S
N139 C143 1.389 . S
N140 C141 1.358 . S
N140 C142 1.400 . S
C141 N139 1.263 . S
C141 N140 1.358 . S
C141 H147 0.930 . S
C142 N140 1.400 . S
C142 C143 1.351 . S
C142 H159 0.930 . S
C143 N139 1.389 . S
C143 C142 1.351 . S
C143 H148 0.930 . S
O144 Cu138 1.974 . S
O144 C154 1.282 . S
C145 O146 1.261 . S
C145 O158 1.251 . S
O146 C145 1.261 . S
H147 C141 0.930 . S
H148 C143 0.930 . S
N149 Cu138 1.985 . S
N149 C151 1.335 . S
N149 C152 1.390 . S
N150 C151 1.345 . S
N150 C153 1.336 . S
C151 N149 1.335 . S
C151 N150 1.345 . S
C151 H156 0.930 . S
C152 N149 1.390 . S
C152 C153 1.346 . S
C152 H157 0.930 . S
C153 N150 1.336 . S
C153 C152 1.346 . S
C153 H160 0.929 . S
C154 O144 1.282 . S
C154 O155 1.216 . S
O155 C154 1.216 . S
H156 C151 0.930 . S
H157 C152 0.930 . S
O158 Cu138 1.959 . S
O158 C145 1.251 . S
H159 C142 0.930 . S
H160 C153 0.929 . S
Cu161 N162 1.999 . S
Cu161 O167 1.974 . S
Cu161 N172 1.985 . S
Cu161 O181 1.959 . S
N162 Cu161 1.999 . S
N162 C164 1.263 . S
N162 C166 1.389 . S
N163 C164 1.358 . S
N163 C165 1.400 . S
C164 N162 1.263 . S
C164 N163 1.358 . S
C164 H170 0.930 . S
C165 N163 1.400 . S
C165 C166 1.351 . S
C165 H182 0.930 . S
C166 N162 1.389 . S
C166 C165 1.351 . S
C166 H171 0.930 . S
O167 Cu161 1.974 . S
O167 C177 1.282 . S
C168 O169 1.261 . S
C168 O181 1.251 . S
O169 C168 1.261 . S
H170 C164 0.930 . S
H171 C166 0.930 . S
N172 Cu161 1.985 . S
N172 C174 1.335 . S
N172 C175 1.390 . S
N173 C174 1.345 . S
N173 C176 1.336 . S
C174 N172 1.335 . S
C174 N173 1.345 . S
C174 H179 0.930 . S
C175 N172 1.390 . S
C175 C176 1.346 . S
C175 H180 0.930 . S
C176 N173 1.336 . S
C176 C175 1.346 . S
C176 H183 0.929 . S
C177 O167 1.282 . S
C177 O178 1.216 . S
O178 C177 1.216 . S
H179 C174 0.930 . S
H180 C175 0.930 . S
O181 Cu161 1.959 . S
O181 C168 1.251 . S
H182 C165 0.930 . S
H183 C176 0.929 . S
Cu184 N185 1.999 . S
Cu184 O190 1.974 . S
Cu184 N195 1.985 . S
Cu184 O204 1.959 . S
N185 Cu184 1.999 . S
N185 C187 1.263 . S
N185 C189 1.389 . S
N186 C187 1.358 . S
N186 C188 1.400 . S
C187 N185 1.263 . S
C187 N186 1.358 . S
C187 H193 0.930 . S
C188 N186 1.400 . S
C188 C189 1.351 . S
C188 H205 0.930 . S
C189 N185 1.389 . S
C189 C188 1.351 . S
C189 H194 0.930 . S
O190 Cu184 1.974 . S
O190 C200 1.282 . S
C191 O192 1.261 . S
C191 O204 1.251 . S
O192 C191 1.261 . S
H193 C187 0.930 . S
H194 C189 0.930 . S
N195 Cu184 1.985 . S
N195 C197 1.335 . S
N195 C198 1.390 . S
N196 C197 1.345 . S
N196 C199 1.336 . S
C197 N195 1.335 . S
C197 N196 1.345 . S
C197 H202 0.930 . S
C198 N195 1.390 . S
C198 C199 1.346 . S
C198 H203 0.930 . S
C199 N196 1.336 . S
C199 C198 1.346 . S
C199 H206 0.929 . S
C200 O190 1.282 . S
C200 O201 1.216 . S
O201 C200 1.216 . S
H202 C197 0.930 . S
H203 C198 0.930 . S
O204 Cu184 1.959 . S
O204 C191 1.251 . S
H205 C188 0.930 . S
H206 C199 0.929 . S
Cu207 N208 1.999 . S
Cu207 O213 1.974 . S
Cu207 N218 1.985 . S
Cu207 O227 1.959 . S
N208 Cu207 1.999 . S
N208 C210 1.263 . S
N208 C212 1.389 . S
N209 C210 1.358 . S
N209 C211 1.400 . S
C210 N208 1.263 . S
C210 N209 1.358 . S
C210 H216 0.930 . S
C211 N209 1.400 . S
C211 C212 1.351 . S
C211 H228 0.930 . S
C212 N208 1.389 . S
C212 C211 1.351 . S
C212 H217 0.930 . S
O213 Cu207 1.974 . S
O213 C223 1.282 . S
C214 O215 1.261 . S
C214 O227 1.251 . S
O215 C214 1.261 . S
H216 C210 0.930 . S
H217 C212 0.930 . S
N218 Cu207 1.985 . S
N218 C220 1.335 . S
N218 C221 1.390 . S
N219 C220 1.345 . S
N219 C222 1.336 . S
C220 N218 1.335 . S
C220 N219 1.345 . S
C220 H225 0.930 . S
C221 N218 1.390 . S
C221 C222 1.346 . S
C221 H226 0.930 . S
C222 N219 1.336 . S
C222 C221 1.346 . S
C222 H229 0.929 . S
C223 O213 1.282 . S
C223 O224 1.216 . S
O224 C223 1.216 . S
H225 C220 0.930 . S
H226 C221 0.930 . S
O227 Cu207 1.959 . S
O227 C214 1.251 . S
H228 C211 0.930 . S
H229 C222 0.929 . S
Cu230 N231 1.999 . S
Cu230 O236 1.974 . S
Cu230 N241 1.985 . S
Cu230 O250 1.959 . S
N231 Cu230 1.999 . S
N231 C233 1.263 . S
N231 C235 1.389 . S
N232 C233 1.358 . S
N232 C234 1.400 . S
C233 N231 1.263 . S
C233 N232 1.358 . S
C233 H239 0.930 . S
C234 N232 1.400 . S
C234 C235 1.351 . S
C234 H251 0.930 . S
C235 N231 1.389 . S
C235 C234 1.351 . S
C235 H240 0.930 . S
O236 Cu230 1.974 . S
O236 C246 1.282 . S
C237 O238 1.261 . S
C237 O250 1.251 . S
O238 C237 1.261 . S
H239 C233 0.930 . S
H240 C235 0.930 . S
N241 Cu230 1.985 . S
N241 C243 1.335 . S
N241 C244 1.390 . S
N242 C243 1.345 . S
N242 C245 1.336 . S
C243 N241 1.335 . S
C243 N242 1.345 . S
C243 H248 0.930 . S
C244 N241 1.390 . S
C244 C245 1.346 . S
C244 H249 0.930 . S
C245 N242 1.336 . S
C245 C244 1.346 . S
C245 H252 0.929 . S
C246 O236 1.282 . S
C246 O247 1.216 . S
O247 C246 1.216 . S
H248 C243 0.930 . S
H249 C244 0.930 . S
O250 Cu230 1.959 . S
O250 C237 1.251 . S
H251 C234 0.930 . S
H252 C245 0.929 . S
Cu253 N254 1.999 . S
Cu253 O259 1.974 . S
Cu253 N264 1.985 . S
Cu253 O273 1.959 . S
N254 Cu253 1.999 . S
N254 C256 1.263 . S
N254 C258 1.389 . S
N255 C256 1.358 . S
N255 C257 1.400 . S
C256 N254 1.263 . S
C256 N255 1.358 . S
C256 H262 0.930 . S
C257 N255 1.400 . S
C257 C258 1.351 . S
C257 H274 0.930 . S
C258 N254 1.389 . S
C258 C257 1.351 . S
C258 H263 0.930 . S
O259 Cu253 1.974 . S
O259 C269 1.282 . S
C260 O261 1.261 . S
C260 O273 1.251 . S
O261 C260 1.261 . S
H262 C256 0.930 . S
H263 C258 0.930 . S
N264 Cu253 1.985 . S
N264 C266 1.335 . S
N264 C267 1.390 . S
N265 C266 1.345 . S
N265 C268 1.336 . S
C266 N264 1.335 . S
C266 N265 1.345 . S
C266 H271 0.930 . S
C267 N264 1.390 . S
C267 C268 1.346 . S
C267 H272 0.930 . S
C268 N265 1.336 . S
C268 C267 1.346 . S
C268 H275 0.929 . S
C269 O259 1.282 . S
C269 O270 1.216 . S
O270 C269 1.216 . S
H271 C266 0.930 . S
H272 C267 0.930 . S
O273 Cu253 1.959 . S
O273 C260 1.251 . S
H274 C257 0.930 . S
H275 C268 0.929 . S
Tb276 N307 2.660 . S
Tb276 N314 2.600 . S
Tb276 O320 2.546 . S
Tb276 O321 2.610 . S
Tb276 O323 2.320 . S
Tb276 O324 2.552 . S
Tb276 O325 2.413 . S
Tb276 O327 2.362 . S
Tb276 O328 2.421 . S
Tb276 C340 2.833 . S
C277 C280 1.432 . S
C277 C281 1.414 . S
C277 N284 1.359 . S
C278 C280 1.417 . S
C278 C282 1.432 . S
C278 C290 1.410 . S
C279 C281 1.444 . S
C279 C282 1.317 . S
C279 H302 0.929 . S
C280 C277 1.432 . S
C280 C278 1.417 . S
C280 N288 1.360 . S
C281 C277 1.414 . S
C281 C279 1.444 . S
C281 C286 1.385 . S
C282 C278 1.432 . S
C282 C279 1.317 . S
C282 H294 0.930 . S
C283 C285 1.392 . S
C283 C286 1.370 . S
C283 H295 0.931 . S
N284 C277 1.359 . S
N284 C285 1.327 . S
N284 Tb287 2.600 . S
C285 C283 1.392 . S
C285 N284 1.327 . S
C285 H292 0.930 . S
C286 C281 1.385 . S
C286 C283 1.370 . S
C286 H305 0.930 . S
Tb287 N284 2.600 . S
Tb287 N288 2.660 . S
Tb287 O321 2.362 . S
Tb287 O322 2.421 . S
Tb287 O326 2.546 . S
Tb287 O327 2.610 . S
Tb287 O329 2.320 . S
Tb287 O330 2.552 . S
Tb287 O331 2.413 . S
Tb287 C351 2.833 . S
N288 C280 1.360 . S
N288 Tb287 2.660 . S
N288 C289 1.305 . S
C289 N288 1.305 . S
C289 C291 1.407 . S
C289 H296 0.930 . S
C290 C278 1.410 . S
C290 C291 1.345 . S
C290 H298 0.930 . S
C291 C289 1.407 . S
C291 C290 1.345 . S
C291 H293 0.930 . S
H292 C285 0.930 . S
H293 C291 0.930 . S
H294 C282 0.930 . S
H295 C283 0.931 . S
H296 C289 0.930 . S
H297 C311 0.930 . S
H298 C290 0.930 . S
H299 C317 0.930 . S
H300 C308 0.930 . S
H301 C315 0.931 . S
H302 C279 0.929 . S
H303 C309 0.930 . S
H304 C342 0.930 . S
H305 C286 0.930 . S
H306 C341 0.929 . S
N307 Tb276 2.660 . S
N307 C308 1.305 . S
N307 C312 1.360 . S
C308 H300 0.930 . S
C308 N307 1.305 . S
C308 C311 1.407 . S
C309 H303 0.930 . S
C309 C310 1.410 . S
C309 C311 1.345 . S
C310 C309 1.410 . S
C310 C312 1.417 . S
C310 C342 1.432 . S
C311 H297 0.930 . S
C311 C308 1.407 . S
C311 C309 1.345 . S
C312 N307 1.360 . S
C312 C310 1.417 . S
C312 C316 1.432 . S
H313 C318 0.930 . S
N314 Tb276 2.600 . S
N314 C316 1.359 . S
N314 C317 1.327 . S
C315 H301 0.931 . S
C315 C317 1.392 . S
C315 C318 1.370 . S
C316 C312 1.432 . S
C316 N314 1.359 . S
C316 C319 1.414 . S
C317 H299 0.930 . S
C317 N314 1.327 . S
C317 C315 1.392 . S
C318 H313 0.930 . S
C318 C315 1.370 . S
C318 C319 1.385 . S
C319 C316 1.414 . S
C319 C318 1.385 . S
C319 C341 1.444 . S
O320 Tb276 2.546 . S
O320 C340 1.251 . S
O321 Tb276 2.610 . S
O321 Tb287 2.362 . S
O321 C332 1.283 . S
O322 Tb287 2.421 . S
O322 C339 1.262 . S
O323 Tb276 2.320 . S
O323 C339 1.260 . S
O324 Tb276 2.552 . S
O324 C332 1.243 . S
O325 Tb276 2.413 . S
O325 C340 1.256 . S
O326 Tb287 2.546 . S
O326 C351 1.251 . S
O327 Tb276 2.362 . S
O327 Tb287 2.610 . S
O327 C343 1.283 . S
O328 Tb276 2.421 . S
O328 C350 1.262 . S
O329 Tb287 2.320 . S
O329 C350 1.260 . S
O330 Tb287 2.552 . S
O330 C343 1.243 . S
O331 Tb287 2.413 . S
O331 C351 1.256 . S
C332 O321 1.283 . S
C332 O324 1.243 . S
C333 C335 1.382 . S
C333 C337 1.393 . S
C333 C340 1.500 . S
C334 C335 1.400 . S
C334 C336 1.384 . S
C335 C333 1.382 . S
C335 C334 1.400 . S
C335 H352 0.930 . S
C336 C334 1.384 . S
C336 C338 1.392 . S
C336 H353 0.931 . S
C337 C333 1.393 . S
C337 C338 1.401 . S
C337 H354 0.930 . S
C338 C336 1.392 . S
C338 C337 1.401 . S
C338 H355 0.930 . S
C339 O322 1.262 . S
C339 O323 1.260 . S
C340 Tb276 2.833 . S
C340 O320 1.251 . S
C340 O325 1.256 . S
C340 C333 1.500 . S
C341 H306 0.929 . S
C341 C319 1.444 . S
C341 C342 1.317 . S
C342 H304 0.930 . S
C342 C310 1.432 . S
C342 C341 1.317 . S
C343 O327 1.283 . S
C343 O330 1.243 . S
C344 C345 1.382 . S
C344 C348 1.393 . S
C344 C351 1.500 . S
C345 C344 1.382 . S
C345 C346 1.400 . S
C345 H356 0.930 . S
C346 C345 1.400 . S
C346 C347 1.384 . S
C347 C346 1.384 . S
C347 C349 1.392 . S
C347 H357 0.931 . S
C348 C344 1.393 . S
C348 C349 1.401 . S
C348 H358 0.930 . S
C349 C347 1.392 . S
C349 C348 1.401 . S
C349 H359 0.930 . S
C350 O328 1.262 . S
C350 O329 1.260 . S
C351 Tb287 2.833 . S
C351 O326 1.251 . S
C351 O331 1.256 . S
C351 C344 1.500 . S
H352 C335 0.930 . S
H353 C336 0.931 . S
H354 C337 0.930 . S
H355 C338 0.930 . S
H356 C345 0.930 . S
H357 C347 0.931 . S
H358 C348 0.930 . S
H359 C349 0.930 . S
Tb360 N391 2.660 . S
Tb360 N398 2.600 . S
Tb360 O404 2.546 . S
Tb360 O405 2.610 . S
Tb360 O407 2.320 . S
Tb360 O408 2.552 . S
Tb360 O409 2.413 . S
Tb360 O411 2.362 . S
Tb360 O412 2.421 . S
Tb360 C424 2.833 . S
C361 C364 1.432 . S
C361 C365 1.414 . S
C361 N368 1.359 . S
C362 C364 1.417 . S
C362 C366 1.432 . S
C362 C374 1.410 . S
C363 C365 1.444 . S
C363 C366 1.317 . S
C363 H386 0.929 . S
C364 C361 1.432 . S
C364 C362 1.417 . S
C364 N372 1.360 . S
C365 C361 1.414 . S
C365 C363 1.444 . S
C365 C370 1.385 . S
C366 C362 1.432 . S
C366 C363 1.317 . S
C366 H378 0.930 . S
C367 C369 1.392 . S
C367 C370 1.370 . S
C367 H379 0.931 . S
N368 C361 1.359 . S
N368 C369 1.327 . S
N368 Tb371 2.600 . S
C369 C367 1.392 . S
C369 N368 1.327 . S
C369 H376 0.930 . S
C370 C365 1.385 . S
C370 C367 1.370 . S
C370 H389 0.930 . S
Tb371 N368 2.600 . S
Tb371 N372 2.660 . S
Tb371 O405 2.362 . S
Tb371 O406 2.421 . S
Tb371 O410 2.546 . S
Tb371 O411 2.610 . S
Tb371 O413 2.320 . S
Tb371 O414 2.552 . S
Tb371 O415 2.413 . S
Tb371 C435 2.833 . S
N372 C364 1.360 . S
N372 Tb371 2.660 . S
N372 C373 1.305 . S
C373 N372 1.305 . S
C373 C375 1.407 . S
C373 H380 0.930 . S
C374 C362 1.410 . S
C374 C375 1.345 . S
C374 H382 0.930 . S
C375 C373 1.407 . S
C375 C374 1.345 . S
C375 H377 0.930 . S
H376 C369 0.930 . S
H377 C375 0.930 . S
H378 C366 0.930 . S
H379 C367 0.931 . S
H380 C373 0.930 . S
H381 C395 0.930 . S
H382 C374 0.930 . S
H383 C401 0.930 . S
H384 C392 0.930 . S
H385 C399 0.931 . S
H386 C363 0.929 . S
H387 C393 0.930 . S
H388 C426 0.930 . S
H389 C370 0.930 . S
H390 C425 0.929 . S
N391 Tb360 2.660 . S
N391 C392 1.305 . S
N391 C396 1.360 . S
C392 H384 0.930 . S
C392 N391 1.305 . S
C392 C395 1.407 . S
C393 H387 0.930 . S
C393 C394 1.410 . S
C393 C395 1.345 . S
C394 C393 1.410 . S
C394 C396 1.417 . S
C394 C426 1.432 . S
C395 H381 0.930 . S
C395 C392 1.407 . S
C395 C393 1.345 . S
C396 N391 1.360 . S
C396 C394 1.417 . S
C396 C400 1.432 . S
H397 C402 0.930 . S
N398 Tb360 2.600 . S
N398 C400 1.359 . S
N398 C401 1.327 . S
C399 H385 0.931 . S
C399 C401 1.392 . S
C399 C402 1.370 . S
C400 C396 1.432 . S
C400 N398 1.359 . S
C400 C403 1.414 . S
C401 H383 0.930 . S
C401 N398 1.327 . S
C401 C399 1.392 . S
C402 H397 0.930 . S
C402 C399 1.370 . S
C402 C403 1.385 . S
C403 C400 1.414 . S
C403 C402 1.385 . S
C403 C425 1.444 . S
O404 Tb360 2.546 . S
O404 C424 1.251 . S
O405 Tb360 2.610 . S
O405 Tb371 2.362 . S
O405 C416 1.283 . S
O406 Tb371 2.421 . S
O406 C423 1.262 . S
O407 Tb360 2.320 . S
O407 C423 1.260 . S
O408 Tb360 2.552 . S
O408 C416 1.243 . S
O409 Tb360 2.413 . S
O409 C424 1.256 . S
O410 Tb371 2.546 . S
O410 C435 1.251 . S
O411 Tb360 2.362 . S
O411 Tb371 2.610 . S
O411 C427 1.283 . S
O412 Tb360 2.421 . S
O412 C434 1.262 . S
O413 Tb371 2.320 . S
O413 C434 1.260 . S
O414 Tb371 2.552 . S
O414 C427 1.243 . S
O415 Tb371 2.413 . S
O415 C435 1.256 . S
C416 O405 1.283 . S
C416 O408 1.243 . S
C417 C419 1.382 . S
C417 C421 1.393 . S
C417 C424 1.500 . S
C418 C419 1.400 . S
C418 C420 1.384 . S
C419 C417 1.382 . S
C419 C418 1.400 . S
C419 H436 0.930 . S
C420 C418 1.384 . S
C420 C422 1.392 . S
C420 H437 0.931 . S
C421 C417 1.393 . S
C421 C422 1.401 . S
C421 H438 0.930 . S
C422 C420 1.392 . S
C422 C421 1.401 . S
C422 H439 0.930 . S
C423 O406 1.262 . S
C423 O407 1.260 . S
C424 Tb360 2.833 . S
C424 O404 1.251 . S
C424 O409 1.256 . S
C424 C417 1.500 . S
C425 H390 0.929 . S
C425 C403 1.444 . S
C425 C426 1.317 . S
C426 H388 0.930 . S
C426 C394 1.432 . S
C426 C425 1.317 . S
C427 O411 1.283 . S
C427 O414 1.243 . S
C428 C429 1.382 . S
C428 C432 1.393 . S
C428 C435 1.500 . S
C429 C428 1.382 . S
C429 C430 1.400 . S
C429 H440 0.930 . S
C430 C429 1.400 . S
C430 C431 1.384 . S
C431 C430 1.384 . S
C431 C433 1.392 . S
C431 H441 0.931 . S
C432 C428 1.393 . S
C432 C433 1.401 . S
C432 H442 0.930 . S
C433 C431 1.392 . S
C433 C432 1.401 . S
C433 H443 0.930 . S
C434 O412 1.262 . S
C434 O413 1.260 . S
C435 Tb371 2.833 . S
C435 O410 1.251 . S
C435 O415 1.256 . S
C435 C428 1.500 . S
H436 C419 0.930 . S
H437 C420 0.931 . S
H438 C421 0.930 . S
H439 C422 0.930 . S
H440 C429 0.930 . S
H441 C431 0.931 . S
H442 C432 0.930 . S
H443 C433 0.930 . S
Tb444 N475 2.660 . S
Tb444 N482 2.600 . S
Tb444 O488 2.546 . S
Tb444 O489 2.610 . S
Tb444 O491 2.320 . S
Tb444 O492 2.552 . S
Tb444 O493 2.413 . S
Tb444 O495 2.362 . S
Tb444 O496 2.421 . S
Tb444 C508 2.833 . S
C445 C448 1.432 . S
C445 C449 1.414 . S
C445 N452 1.359 . S
C446 C448 1.417 . S
C446 C450 1.432 . S
C446 C458 1.410 . S
C447 C449 1.444 . S
C447 C450 1.317 . S
C447 H470 0.929 . S
C448 C445 1.432 . S
C448 C446 1.417 . S
C448 N456 1.360 . S
C449 C445 1.414 . S
C449 C447 1.444 . S
C449 C454 1.385 . S
C450 C446 1.432 . S
C450 C447 1.317 . S
C450 H462 0.930 . S
C451 C453 1.392 . S
C451 C454 1.370 . S
C451 H463 0.931 . S
N452 C445 1.359 . S
N452 C453 1.327 . S
N452 Tb455 2.600 . S
C453 C451 1.392 . S
C453 N452 1.327 . S
C453 H460 0.930 . S
C454 C449 1.385 . S
C454 C451 1.370 . S
C454 H473 0.930 . S
Tb455 N452 2.600 . S
Tb455 N456 2.660 . S
Tb455 O489 2.362 . S
Tb455 O490 2.421 . S
Tb455 O494 2.546 . S
Tb455 O495 2.610 . S
Tb455 O497 2.320 . S
Tb455 O498 2.552 . S
Tb455 O499 2.413 . S
Tb455 C519 2.833 . S
N456 C448 1.360 . S
N456 Tb455 2.660 . S
N456 C457 1.305 . S
C457 N456 1.305 . S
C457 C459 1.407 . S
C457 H464 0.930 . S
C458 C446 1.410 . S
C458 C459 1.345 . S
C458 H466 0.930 . S
C459 C457 1.407 . S
C459 C458 1.345 . S
C459 H461 0.930 . S
H460 C453 0.930 . S
H461 C459 0.930 . S
H462 C450 0.930 . S
H463 C451 0.931 . S
H464 C457 0.930 . S
H465 C479 0.930 . S
H466 C458 0.930 . S
H467 C485 0.930 . S
H468 C476 0.930 . S
H469 C483 0.931 . S
H470 C447 0.929 . S
H471 C477 0.930 . S
H472 C510 0.930 . S
H473 C454 0.930 . S
H474 C509 0.929 . S
N475 Tb444 2.660 . S
N475 C476 1.305 . S
N475 C480 1.360 . S
C476 H468 0.930 . S
C476 N475 1.305 . S
C476 C479 1.407 . S
C477 H471 0.930 . S
C477 C478 1.410 . S
C477 C479 1.345 . S
C478 C477 1.410 . S
C478 C480 1.417 . S
C478 C510 1.432 . S
C479 H465 0.930 . S
C479 C476 1.407 . S
C479 C477 1.345 . S
C480 N475 1.360 . S
C480 C478 1.417 . S
C480 C484 1.432 . S
H481 C486 0.930 . S
N482 Tb444 2.600 . S
N482 C484 1.359 . S
N482 C485 1.327 . S
C483 H469 0.931 . S
C483 C485 1.392 . S
C483 C486 1.370 . S
C484 C480 1.432 . S
C484 N482 1.359 . S
C484 C487 1.414 . S
C485 H467 0.930 . S
C485 N482 1.327 . S
C485 C483 1.392 . S
C486 H481 0.930 . S
C486 C483 1.370 . S
C486 C487 1.385 . S
C487 C484 1.414 . S
C487 C486 1.385 . S
C487 C509 1.444 . S
O488 Tb444 2.546 . S
O488 C508 1.251 . S
O489 Tb444 2.610 . S
O489 Tb455 2.362 . S
O489 C500 1.283 . S
O490 Tb455 2.421 . S
O490 C507 1.262 . S
O491 Tb444 2.320 . S
O491 C507 1.260 . S
O492 Tb444 2.552 . S
O492 C500 1.243 . S
O493 Tb444 2.413 . S
O493 C508 1.256 . S
O494 Tb455 2.546 . S
O494 C519 1.251 . S
O495 Tb444 2.362 . S
O495 Tb455 2.610 . S
O495 C511 1.283 . S
O496 Tb444 2.421 . S
O496 C518 1.262 . S
O497 Tb455 2.320 . S
O497 C518 1.260 . S
O498 Tb455 2.552 . S
O498 C511 1.243 . S
O499 Tb455 2.413 . S
O499 C519 1.256 . S
C500 O489 1.283 . S
C500 O492 1.243 . S
C501 C503 1.382 . S
C501 C505 1.393 . S
C501 C508 1.500 . S
C502 C503 1.400 . S
C502 C504 1.384 . S
C503 C501 1.382 . S
C503 C502 1.400 . S
C503 H520 0.930 . S
C504 C502 1.384 . S
C504 C506 1.392 . S
C504 H521 0.931 . S
C505 C501 1.393 . S
C505 C506 1.401 . S
C505 H522 0.930 . S
C506 C504 1.392 . S
C506 C505 1.401 . S
C506 H523 0.930 . S
C507 O490 1.262 . S
C507 O491 1.260 . S
C508 Tb444 2.833 . S
C508 O488 1.251 . S
C508 O493 1.256 . S
C508 C501 1.500 . S
C509 H474 0.929 . S
C509 C487 1.444 . S
C509 C510 1.317 . S
C510 H472 0.930 . S
C510 C478 1.432 . S
C510 C509 1.317 . S
C511 O495 1.283 . S
C511 O498 1.243 . S
C512 C513 1.382 . S
C512 C516 1.393 . S
C512 C519 1.500 . S
C513 C512 1.382 . S
C513 C514 1.400 . S
C513 H524 0.930 . S
C514 C513 1.400 . S
C514 C515 1.384 . S
C515 C514 1.384 . S
C515 C517 1.392 . S
C515 H525 0.931 . S
C516 C512 1.393 . S
C516 C517 1.401 . S
C516 H526 0.930 . S
C517 C515 1.392 . S
C517 C516 1.401 . S
C517 H527 0.930 . S
C518 O496 1.262 . S
C518 O497 1.260 . S
C519 Tb455 2.833 . S
C519 O494 1.251 . S
C519 O499 1.256 . S
C519 C512 1.500 . S
H520 C503 0.930 . S
H521 C504 0.931 . S
H522 C505 0.930 . S
H523 C506 0.930 . S
H524 C513 0.930 . S
H525 C515 0.931 . S
H526 C516 0.930 . S
H527 C517 0.930 . S
Tb528 N559 2.660 . S
Tb528 N566 2.600 . S
Tb528 O572 2.546 . S
Tb528 O573 2.610 . S
Tb528 O575 2.320 . S
Tb528 O576 2.552 . S
Tb528 O577 2.413 . S
Tb528 O579 2.362 . S
Tb528 O580 2.421 . S
Tb528 C592 2.833 . S
C529 C532 1.432 . S
C529 C533 1.414 . S
C529 N536 1.359 . S
C530 C532 1.417 . S
C530 C534 1.432 . S
C530 C542 1.410 . S
C531 C533 1.444 . S
C531 C534 1.317 . S
C531 H554 0.929 1_565 S
C532 C529 1.432 . S
C532 C530 1.417 . S
C532 N540 1.360 . S
C533 C529 1.414 . S
C533 C531 1.444 . S
C533 C538 1.385 . S
C534 C530 1.432 . S
C534 C531 1.317 . S
C534 H546 0.930 . S
C535 C537 1.392 . S
C535 C538 1.370 . S
C535 H547 0.931 . S
N536 C529 1.359 . S
N536 C537 1.327 . S
N536 Tb539 2.600 . S
C537 C535 1.392 . S
C537 N536 1.327 . S
C537 H544 0.930 . S
C538 C533 1.385 . S
C538 C535 1.370 . S
C538 H557 0.930 . S
Tb539 N536 2.600 . S
Tb539 N540 2.660 . S
Tb539 O573 2.362 . S
Tb539 O574 2.421 . S
Tb539 O578 2.546 . S
Tb539 O579 2.610 . S
Tb539 O581 2.320 . S
Tb539 O582 2.552 . S
Tb539 O583 2.413 . S
Tb539 C603 2.833 . S
N540 C532 1.360 . S
N540 Tb539 2.660 . S
N540 C541 1.305 . S
C541 N540 1.305 . S
C541 C543 1.407 . S
C541 H548 0.930 . S
C542 C530 1.410 . S
C542 C543 1.345 . S
C542 H550 0.930 . S
C543 C541 1.407 . S
C543 C542 1.345 . S
C543 H545 0.930 . S
H544 C537 0.930 . S
H545 C543 0.930 . S
H546 C534 0.930 . S
H547 C535 0.931 . S
H548 C541 0.930 . S
H549 C563 0.930 . S
H550 C542 0.930 . S
H551 C569 0.930 . S
H552 C560 0.930 . S
H553 C567 0.931 . S
H554 C531 0.929 1_545 S
H555 C561 0.930 . S
H556 C594 0.930 . S
H557 C538 0.930 . S
H558 C593 0.929 . S
N559 Tb528 2.660 . S
N559 C560 1.305 . S
N559 C564 1.360 . S
C560 H552 0.930 . S
C560 N559 1.305 . S
C560 C563 1.407 . S
C561 H555 0.930 . S
C561 C562 1.410 . S
C561 C563 1.345 . S
C562 C561 1.410 . S
C562 C564 1.417 . S
C562 C594 1.432 . S
C563 H549 0.930 . S
C563 C560 1.407 . S
C563 C561 1.345 . S
C564 N559 1.360 . S
C564 C562 1.417 . S
C564 C568 1.432 . S
H565 C570 0.930 . S
N566 Tb528 2.600 . S
N566 C568 1.359 . S
N566 C569 1.327 . S
C567 H553 0.931 . S
C567 C569 1.392 . S
C567 C570 1.370 . S
C568 C564 1.432 . S
C568 N566 1.359 . S
C568 C571 1.414 . S
C569 H551 0.930 . S
C569 N566 1.327 . S
C569 C567 1.392 . S
C570 H565 0.930 . S
C570 C567 1.370 . S
C570 C571 1.385 . S
C571 C568 1.414 . S
C571 C570 1.385 . S
C571 C593 1.444 . S
O572 Tb528 2.546 . S
O572 C592 1.251 . S
O573 Tb528 2.610 . S
O573 Tb539 2.362 . S
O573 C584 1.283 . S
O574 Tb539 2.421 . S
O574 C591 1.262 . S
O575 Tb528 2.320 . S
O575 C591 1.260 . S
O576 Tb528 2.552 . S
O576 C584 1.243 . S
O577 Tb528 2.413 . S
O577 C592 1.256 . S
O578 Tb539 2.546 . S
O578 C603 1.251 . S
O579 Tb528 2.362 . S
O579 Tb539 2.610 . S
O579 C595 1.283 . S
O580 Tb528 2.421 . S
O580 C602 1.262 . S
O581 Tb539 2.320 . S
O581 C602 1.260 . S
O582 Tb539 2.552 . S
O582 C595 1.243 . S
O583 Tb539 2.413 . S
O583 C603 1.256 . S
C584 O573 1.283 . S
C584 O576 1.243 . S
C585 C587 1.382 . S
C585 C589 1.393 . S
C585 C592 1.500 . S
C586 C587 1.400 . S
C586 C588 1.384 . S
C587 C585 1.382 . S
C587 C586 1.400 . S
C587 H604 0.930 . S
C588 C586 1.384 . S
C588 C590 1.392 . S
C588 H605 0.931 . S
C589 C585 1.393 . S
C589 C590 1.401 . S
C589 H606 0.930 . S
C590 C588 1.392 . S
C590 C589 1.401 . S
C590 H607 0.930 . S
C591 O574 1.262 . S
C591 O575 1.260 . S
C592 Tb528 2.833 . S
C592 O572 1.251 . S
C592 O577 1.256 . S
C592 C585 1.500 . S
C593 H558 0.929 . S
C593 C571 1.444 . S
C593 C594 1.317 . S
C594 H556 0.930 . S
C594 C562 1.432 . S
C594 C593 1.317 . S
C595 O579 1.283 . S
C595 O582 1.243 . S
C596 C597 1.382 . S
C596 C600 1.393 . S
C596 C603 1.500 . S
C597 C596 1.382 . S
C597 C598 1.400 . S
C597 H608 0.930 . S
C598 C597 1.400 . S
C598 C599 1.384 . S
C599 C598 1.384 . S
C599 C601 1.392 . S
C599 H609 0.931 . S
C600 C596 1.393 . S
C600 C601 1.401 . S
C600 H610 0.930 . S
C601 C599 1.392 . S
C601 C600 1.401 . S
C601 H611 0.930 . S
C602 O580 1.262 . S
C602 O581 1.260 . S
C603 Tb539 2.833 . S
C603 O578 1.251 . S
C603 O583 1.256 . S
C603 C596 1.500 . S
H604 C587 0.930 . S
H605 C588 0.931 . S
H606 C589 0.930 . S
H607 C590 0.930 . S
H608 C597 0.930 . S
H609 C599 0.931 . S
H610 C600 0.930 . S
H611 C601 0.930 . S
Tb612 N643 2.660 . S
Tb612 N650 2.600 . S
Tb612 O656 2.546 . S
Tb612 O657 2.610 . S
Tb612 O659 2.320 . S
Tb612 O660 2.552 . S
Tb612 O661 2.413 . S
Tb612 O663 2.362 . S
Tb612 O664 2.421 . S
Tb612 C676 2.833 . S
C613 C616 1.432 . S
C613 C617 1.414 . S
C613 N620 1.359 . S
C614 C616 1.417 . S
C614 C618 1.432 . S
C614 C626 1.410 . S
C615 C617 1.444 . S
C615 C618 1.317 . S
C615 H638 0.929 . S
C616 C613 1.432 . S
C616 C614 1.417 . S
C616 N624 1.360 . S
C617 C613 1.414 . S
C617 C615 1.444 . S
C617 C622 1.385 . S
C618 C614 1.432 . S
C618 C615 1.317 . S
C618 H630 0.930 . S
C619 C621 1.392 . S
C619 C622 1.370 . S
C619 H631 0.931 . S
N620 C613 1.359 . S
N620 C621 1.327 . S
N620 Tb623 2.600 . S
C621 C619 1.392 . S
C621 N620 1.327 . S
C621 H628 0.930 . S
C622 C617 1.385 . S
C622 C619 1.370 . S
C622 H641 0.930 . S
Tb623 N620 2.600 . S
Tb623 N624 2.660 . S
Tb623 O657 2.362 . S
Tb623 O658 2.421 . S
Tb623 O662 2.546 . S
Tb623 O663 2.610 . S
Tb623 O665 2.320 . S
Tb623 O666 2.552 . S
Tb623 O667 2.413 . S
Tb623 C687 2.833 . S
N624 C616 1.360 . S
N624 Tb623 2.660 . S
N624 C625 1.305 . S
C625 N624 1.305 . S
C625 C627 1.407 . S
C625 H632 0.930 . S
C626 C614 1.410 . S
C626 C627 1.345 . S
C626 H634 0.930 . S
C627 C625 1.407 . S
C627 C626 1.345 . S
C627 H629 0.930 . S
H628 C621 0.930 . S
H629 C627 0.930 . S
H630 C618 0.930 . S
H631 C619 0.931 . S
H632 C625 0.930 . S
H633 C647 0.930 . S
H634 C626 0.930 . S
H635 C653 0.930 . S
H636 C644 0.930 . S
H637 C651 0.931 . S
H638 C615 0.929 . S
H639 C645 0.930 . S
H640 C678 0.930 . S
H641 C622 0.930 . S
H642 C677 0.929 . S
N643 Tb612 2.660 . S
N643 C644 1.305 . S
N643 C648 1.360 . S
C644 H636 0.930 . S
C644 N643 1.305 . S
C644 C647 1.407 . S
C645 H639 0.930 . S
C645 C646 1.410 . S
C645 C647 1.345 . S
C646 C645 1.410 . S
C646 C648 1.417 . S
C646 C678 1.432 . S
C647 H633 0.930 . S
C647 C644 1.407 . S
C647 C645 1.345 . S
C648 N643 1.360 . S
C648 C646 1.417 . S
C648 C652 1.432 . S
H649 C654 0.930 . S
N650 Tb612 2.600 . S
N650 C652 1.359 . S
N650 C653 1.327 . S
C651 H637 0.931 . S
C651 C653 1.392 . S
C651 C654 1.370 . S
C652 C648 1.432 . S
C652 N650 1.359 . S
C652 C655 1.414 . S
C653 H635 0.930 . S
C653 N650 1.327 . S
C653 C651 1.392 . S
C654 H649 0.930 . S
C654 C651 1.370 . S
C654 C655 1.385 . S
C655 C652 1.414 . S
C655 C654 1.385 . S
C655 C677 1.444 . S
O656 Tb612 2.546 . S
O656 C676 1.251 . S
O657 Tb612 2.610 . S
O657 Tb623 2.362 . S
O657 C668 1.283 . S
O658 Tb623 2.421 . S
O658 C675 1.262 . S
O659 Tb612 2.320 . S
O659 C675 1.260 . S
O660 Tb612 2.552 . S
O660 C668 1.243 . S
O661 Tb612 2.413 . S
O661 C676 1.256 . S
O662 Tb623 2.546 . S
O662 C687 1.251 . S
O663 Tb612 2.362 . S
O663 Tb623 2.610 . S
O663 C679 1.283 . S
O664 Tb612 2.421 . S
O664 C686 1.262 . S
O665 Tb623 2.320 . S
O665 C686 1.260 . S
O666 Tb623 2.552 . S
O666 C679 1.243 . S
O667 Tb623 2.413 . S
O667 C687 1.256 . S
C668 O657 1.283 . S
C668 O660 1.243 . S
C669 C671 1.382 . S
C669 C673 1.393 . S
C669 C676 1.500 . S
C670 C671 1.400 . S
C670 C672 1.384 1_556 S
C671 C669 1.382 . S
C671 C670 1.400 . S
C671 H688 0.930 . S
C672 C670 1.384 1_554 S
C672 C674 1.392 . S
C672 H689 0.931 . S
C673 C669 1.393 . S
C673 C674 1.401 1_556 S
C673 H690 0.930 . S
C674 C672 1.392 . S
C674 C673 1.401 1_554 S
C674 H691 0.930 . S
C675 O658 1.262 . S
C675 O659 1.260 . S
C676 Tb612 2.833 . S
C676 O656 1.251 . S
C676 O661 1.256 . S
C676 C669 1.500 . S
C677 H642 0.929 . S
C677 C655 1.444 . S
C677 C678 1.317 . S
C678 H640 0.930 . S
C678 C646 1.432 . S
C678 C677 1.317 . S
C679 O663 1.283 . S
C679 O666 1.243 . S
C680 C681 1.382 . S
C680 C684 1.393 . S
C680 C687 1.500 . S
C681 C680 1.382 . S
C681 C682 1.400 . S
C681 H692 0.930 . S
C682 C681 1.400 . S
C682 C683 1.384 . S
C683 C682 1.384 . S
C683 C685 1.392 . S
C683 H693 0.931 . S
C684 C680 1.393 . S
C684 C685 1.401 . S
C684 H694 0.930 . S
C685 C683 1.392 . S
C685 C684 1.401 . S
C685 H695 0.930 . S
C686 O664 1.262 . S
C686 O665 1.260 . S
C687 Tb623 2.833 . S
C687 O662 1.251 . S
C687 O667 1.256 . S
C687 C680 1.500 . S
H688 C671 0.930 . S
H689 C672 0.931 . S
H690 C673 0.930 . S
H691 C674 0.930 . S
H692 C681 0.930 . S
H693 C683 0.931 . S
H694 C684 0.930 . S
H695 C685 0.930 . S
Tb696 N727 2.660 . S
Tb696 N734 2.600 . S
Tb696 O740 2.546 . S
Tb696 O741 2.610 . S
Tb696 O743 2.320 . S
Tb696 O744 2.552 . S
Tb696 O745 2.413 . S
Tb696 O747 2.362 . S
Tb696 O748 2.421 . S
Tb696 C760 2.833 . S
C697 C700 1.432 . S
C697 C701 1.414 1_556 S
C697 N704 1.359 . S
C698 C700 1.417 . S
C698 C702 1.447 . S
C698 C710 1.410 . S
C699 C701 1.444 . S
C699 C702 1.309 1_554 S
C699 H722 0.929 . S
C700 C697 1.432 . S
C700 C698 1.417 . S
C700 N708 1.360 . S
C701 C697 1.414 1_554 S
C701 C699 1.444 . S
C701 C706 1.385 . S
C702 C698 1.447 . S
C702 C699 1.309 1_556 S
C702 H714 0.924 1_556 S
C703 C705 1.392 1_554 S
C703 C706 1.370 . S
C703 H715 0.931 . S
N704 C697 1.359 . S
N704 C705 1.327 . S
N704 Tb707 2.600 . S
C705 C703 1.392 1_556 S
C705 N704 1.327 . S
C705 H712 0.930 . S
C706 C701 1.385 . S
C706 C703 1.370 . S
C706 H725 0.930 . S
Tb707 N704 2.600 . S
Tb707 N708 2.660 . S
Tb707 O741 2.362 . S
Tb707 O742 2.421 . S
Tb707 O746 2.546 . S
Tb707 O747 2.610 . S
Tb707 O749 2.320 . S
Tb707 O750 2.552 . S
Tb707 O751 2.413 . S
Tb707 C771 2.833 . S
N708 C700 1.360 . S
N708 Tb707 2.660 . S
N708 C709 1.305 . S
C709 N708 1.305 . S
C709 C711 1.407 . S
C709 H716 0.930 . S
C710 C698 1.410 . S
C710 C711 1.345 . S
C710 H718 0.930 . S
C711 C709 1.407 . S
C711 C710 1.345 . S
C711 H713 0.930 . S
H712 C705 0.930 . S
H713 C711 0.930 . S
H714 C702 0.924 1_554 S
H715 C703 0.931 . S
H716 C709 0.930 . S
H717 C731 0.930 . S
H718 C710 0.930 . S
H719 C737 0.930 . S
H720 C728 0.930 . S
H721 C735 0.931 . S
H722 C699 0.929 . S
H723 C729 0.930 . S
H724 C762 0.930 . S
H725 C706 0.930 . S
H726 C761 0.929 . S
N727 Tb696 2.660 . S
N727 C728 1.305 . S
N727 C732 1.360 . S
C728 H720 0.930 . S
C728 N727 1.305 . S
C728 C731 1.407 . S
C729 H723 0.930 . S
C729 C730 1.410 . S
C729 C731 1.345 . S
C730 C729 1.410 . S
C730 C732 1.417 . S
C730 C762 1.432 . S
C731 H717 0.930 . S
C731 C728 1.407 . S
C731 C729 1.345 . S
C732 N727 1.360 . S
C732 C730 1.417 . S
C732 C736 1.432 . S
H733 C738 0.930 . S
N734 Tb696 2.600 . S
N734 C736 1.359 . S
N734 C737 1.327 . S
C735 H721 0.931 . S
C735 C737 1.392 . S
C735 C738 1.370 . S
C736 C732 1.432 . S
C736 N734 1.359 . S
C736 C739 1.414 . S
C737 H719 0.930 . S
C737 N734 1.327 . S
C737 C735 1.392 . S
C738 H733 0.930 . S
C738 C735 1.370 . S
C738 C739 1.385 . S
C739 C736 1.414 . S
C739 C738 1.385 . S
C739 C761 1.444 . S
O740 Tb696 2.546 . S
O740 C760 1.251 . S
O741 Tb696 2.610 . S
O741 Tb707 2.362 . S
O741 C752 1.283 . S
O742 Tb707 2.421 . S
O742 C759 1.262 . S
O743 Tb696 2.320 . S
O743 C759 1.260 . S
O744 Tb696 2.552 . S
O744 C752 1.243 . S
O745 Tb696 2.413 . S
O745 C760 1.256 . S
O746 Tb707 2.546 . S
O746 C771 1.251 . S
O747 Tb696 2.362 . S
O747 Tb707 2.610 . S
O747 C763 1.283 . S
O748 Tb696 2.421 . S
O748 C770 1.262 . S
O749 Tb707 2.320 . S
O749 C770 1.260 . S
O750 Tb707 2.552 . S
O750 C763 1.243 . S
O751 Tb707 2.413 . S
O751 C771 1.256 . S
C752 O741 1.283 . S
C752 O744 1.243 . S
C753 C755 1.382 . S
C753 C757 1.393 . S
C753 C760 1.500 . S
C754 C755 1.400 . S
C754 C756 1.384 . S
C755 C753 1.382 . S
C755 C754 1.400 . S
C755 H772 0.930 . S
C756 C754 1.384 . S
C756 C758 1.392 . S
C756 H773 0.931 . S
C757 C753 1.393 . S
C757 C758 1.401 . S
C757 H774 0.930 . S
C758 C756 1.392 . S
C758 C757 1.401 . S
C758 H775 0.930 . S
C759 O742 1.262 . S
C759 O743 1.260 . S
C760 Tb696 2.833 . S
C760 O740 1.251 . S
C760 O745 1.256 . S
C760 C753 1.500 . S
C761 H726 0.929 . S
C761 C739 1.444 . S
C761 C762 1.317 . S
C762 H724 0.930 . S
C762 C730 1.432 . S
C762 C761 1.317 . S
C763 O747 1.283 . S
C763 O750 1.243 . S
C764 C765 1.382 . S
C764 C768 1.393 . S
C764 C771 1.500 . S
C765 C764 1.382 . S
C765 C766 1.400 . S
C765 H776 0.930 . S
C766 C765 1.400 . S
C766 C767 1.384 . S
C767 C766 1.384 . S
C767 C769 1.392 . S
C767 H777 0.931 . S
C768 C764 1.393 . S
C768 C769 1.401 . S
C768 H778 0.930 . S
C769 C767 1.392 . S
C769 C768 1.401 . S
C769 H779 0.930 . S
C770 O748 1.262 . S
C770 O749 1.260 . S
C771 Tb707 2.833 . S
C771 O746 1.251 . S
C771 O751 1.256 . S
C771 C764 1.500 . S
H772 C755 0.930 . S
H773 C756 0.931 . S
H774 C757 0.930 . S
H775 C758 0.930 . S
H776 C765 0.930 . S
H777 C767 0.931 . S
H778 C768 0.930 . S
H779 C769 0.930 . S
Tb780 N811 2.660 . S
Tb780 N818 2.600 . S
Tb780 O824 2.546 . S
Tb780 O825 2.610 . S
Tb780 O827 2.320 . S
Tb780 O828 2.552 . S
Tb780 O829 2.413 . S
Tb780 O831 2.362 . S
Tb780 O832 2.421 . S
Tb780 C844 2.833 . S
C781 C784 1.432 . S
C781 C785 1.414 . S
C781 N788 1.359 . S
C782 C784 1.417 . S
C782 C786 1.432 . S
C782 C794 1.410 . S
C783 C785 1.444 . S
C783 C786 1.317 . S
C783 H806 0.929 . S
C784 C781 1.432 . S
C784 C782 1.417 . S
C784 N792 1.360 . S
C785 C781 1.414 . S
C785 C783 1.444 . S
C785 C790 1.385 . S
C786 C782 1.432 . S
C786 C783 1.317 . S
C786 H798 0.930 . S
C787 C789 1.392 . S
C787 C790 1.370 . S
C787 H799 0.931 . S
N788 C781 1.359 . S
N788 C789 1.327 . S
N788 Tb791 2.600 . S
C789 C787 1.392 . S
C789 N788 1.327 . S
C789 H796 0.930 . S
C790 C785 1.385 . S
C790 C787 1.370 . S
C790 H809 0.930 . S
Tb791 N788 2.600 . S
Tb791 N792 2.660 . S
Tb791 O825 2.362 . S
Tb791 O826 2.421 . S
Tb791 O830 2.546 . S
Tb791 O831 2.610 . S
Tb791 O833 2.320 . S
Tb791 O834 2.552 . S
Tb791 O835 2.413 . S
Tb791 C855 2.833 . S
N792 C784 1.360 . S
N792 Tb791 2.660 . S
N792 C793 1.305 . S
C793 N792 1.305 . S
C793 C795 1.407 . S
C793 H800 0.930 . S
C794 C782 1.410 . S
C794 C795 1.345 . S
C794 H802 0.930 . S
C795 C793 1.407 . S
C795 C794 1.345 . S
C795 H797 0.930 . S
H796 C789 0.930 . S
H797 C795 0.930 . S
H798 C786 0.930 . S
H799 C787 0.931 . S
H800 C793 0.930 . S
H801 C815 0.930 . S
H802 C794 0.930 . S
H803 C821 0.930 . S
H804 C812 0.930 . S
H805 C819 0.931 . S
H806 C783 0.929 . S
H807 C813 0.930 . S
H808 C846 0.930 . S
H809 C790 0.930 . S
H810 C845 0.929 . S
N811 Tb780 2.660 . S
N811 C812 1.305 . S
N811 C816 1.360 . S
C812 H804 0.930 . S
C812 N811 1.305 . S
C812 C815 1.407 . S
C813 H807 0.930 . S
C813 C814 1.410 . S
C813 C815 1.345 . S
C814 C813 1.410 . S
C814 C816 1.417 . S
C814 C846 1.432 . S
C815 H801 0.930 . S
C815 C812 1.407 . S
C815 C813 1.345 . S
C816 N811 1.360 . S
C816 C814 1.417 . S
C816 C820 1.432 . S
H817 C822 0.930 . S
N818 Tb780 2.600 . S
N818 C820 1.359 . S
N818 C821 1.327 . S
C819 H805 0.931 . S
C819 C821 1.392 . S
C819 C822 1.370 . S
C820 C816 1.432 . S
C820 N818 1.359 . S
C820 C823 1.414 . S
C821 H803 0.930 . S
C821 N818 1.327 . S
C821 C819 1.392 . S
C822 H817 0.930 . S
C822 C819 1.370 . S
C822 C823 1.385 . S
C823 C820 1.414 . S
C823 C822 1.385 . S
C823 C845 1.444 . S
O824 Tb780 2.546 . S
O824 C844 1.251 . S
O825 Tb780 2.610 . S
O825 Tb791 2.362 . S
O825 C836 1.283 . S
O826 Tb791 2.421 . S
O826 C843 1.262 . S
O827 Tb780 2.320 . S
O827 C843 1.260 . S
O828 Tb780 2.552 . S
O828 C836 1.243 . S
O829 Tb780 2.413 . S
O829 C844 1.256 . S
O830 Tb791 2.546 . S
O830 C855 1.251 . S
O831 Tb780 2.362 . S
O831 Tb791 2.610 . S
O831 C847 1.283 . S
O832 Tb780 2.421 . S
O832 C854 1.262 . S
O833 Tb791 2.320 . S
O833 C854 1.260 . S
O834 Tb791 2.552 . S
O834 C847 1.243 . S
O835 Tb791 2.413 . S
O835 C855 1.256 . S
C836 O825 1.283 . S
C836 O828 1.243 . S
C837 C839 1.382 . S
C837 C841 1.393 . S
C837 C844 1.500 . S
C838 C839 1.400 . S
C838 C840 1.384 . S
C839 C837 1.382 . S
C839 C838 1.400 . S
C839 H856 0.930 . S
C840 C838 1.384 . S
C840 C842 1.392 . S
C840 H857 0.931 . S
C841 C837 1.393 . S
C841 C842 1.401 . S
C841 H858 0.930 . S
C842 C840 1.392 . S
C842 C841 1.401 . S
C842 H859 0.930 . S
C843 O826 1.262 . S
C843 O827 1.260 . S
C844 Tb780 2.833 . S
C844 O824 1.251 . S
C844 O829 1.256 . S
C844 C837 1.500 . S
C845 H810 0.929 . S
C845 C823 1.444 . S
C845 C846 1.317 . S
C846 H808 0.930 . S
C846 C814 1.432 . S
C846 C845 1.317 . S
C847 O831 1.283 . S
C847 O834 1.243 . S
C848 C849 1.382 . S
C848 C852 1.393 . S
C848 C855 1.500 . S
C849 C848 1.382 . S
C849 C850 1.400 . S
C849 H860 0.930 . S
C850 C849 1.400 . S
C850 C851 1.384 1_556 S
C851 C850 1.384 1_554 S
C851 C853 1.392 . S
C851 H861 0.931 . S
C852 C848 1.393 . S
C852 C853 1.401 1_556 S
C852 H862 0.930 . S
C853 C851 1.392 . S
C853 C852 1.401 1_554 S
C853 H863 0.930 . S
C854 O832 1.262 . S
C854 O833 1.260 . S
C855 Tb791 2.833 . S
C855 O830 1.251 . S
C855 O835 1.256 . S
C855 C848 1.500 . S
H856 C839 0.930 . S
H857 C840 0.931 . S
H858 C841 0.930 . S
H859 C842 0.930 . S
H860 C849 0.930 . S
H861 C851 0.931 . S
H862 C852 0.930 . S
H863 C853 0.930 . S
Tb864 N895 2.660 . S
Tb864 N902 2.600 . S
Tb864 O908 2.546 . S
Tb864 O909 2.610 . S
Tb864 O911 2.320 . S
Tb864 O912 2.552 . S
Tb864 O913 2.413 . S
Tb864 O915 2.362 . S
Tb864 O916 2.421 . S
Tb864 C928 2.833 . S
C865 C868 1.432 . S
C865 C869 1.414 . S
C865 N872 1.359 . S
C866 C868 1.417 . S
C866 C870 1.432 . S
C866 C878 1.410 . S
C867 C869 1.444 . S
C867 C870 1.317 . S
C867 H890 0.929 . S
C868 C865 1.432 . S
C868 C866 1.417 . S
C868 N876 1.360 . S
C869 C865 1.414 . S
C869 C867 1.444 . S
C869 C874 1.385 . S
C870 C866 1.432 . S
C870 C867 1.317 . S
C870 H882 0.930 . S
C871 C873 1.392 . S
C871 C874 1.370 . S
C871 H883 0.931 . S
N872 C865 1.359 . S
N872 C873 1.327 . S
N872 Tb875 2.600 . S
C873 C871 1.392 . S
C873 N872 1.327 . S
C873 H880 0.930 . S
C874 C869 1.385 . S
C874 C871 1.370 . S
C874 H893 0.930 . S
Tb875 N872 2.600 . S
Tb875 N876 2.660 . S
Tb875 O909 2.362 . S
Tb875 O910 2.421 . S
Tb875 O914 2.546 . S
Tb875 O915 2.610 . S
Tb875 O917 2.320 . S
Tb875 O918 2.552 . S
Tb875 O919 2.413 . S
Tb875 C939 2.833 . S
N876 C868 1.360 . S
N876 Tb875 2.660 . S
N876 C877 1.305 . S
C877 N876 1.305 . S
C877 C879 1.407 . S
C877 H884 0.930 . S
C878 C866 1.410 . S
C878 C879 1.345 . S
C878 H886 0.930 . S
C879 C877 1.407 . S
C879 C878 1.345 . S
C879 H881 0.930 . S
H880 C873 0.930 . S
H881 C879 0.930 . S
H882 C870 0.930 . S
H883 C871 0.931 . S
H884 C877 0.930 . S
H885 C899 0.930 . S
H886 C878 0.930 . S
H887 C905 0.930 . S
H888 C896 0.930 . S
H889 C903 0.931 . S
H890 C867 0.929 . S
H891 C897 0.930 . S
H892 C930 0.930 1_554 S
H893 C874 0.930 . S
H894 C929 0.929 . S
N895 Tb864 2.660 . S
N895 C896 1.305 . S
N895 C900 1.360 . S
C896 H888 0.930 . S
C896 N895 1.305 . S
C896 C899 1.407 . S
C897 H891 0.930 . S
C897 C898 1.410 . S
C897 C899 1.345 . S
C898 C897 1.410 . S
C898 C900 1.417 . S
C898 C930 1.432 . S
C899 H885 0.930 . S
C899 C896 1.407 . S
C899 C897 1.345 . S
C900 N895 1.360 . S
C900 C898 1.417 . S
C900 C904 1.432 . S
H901 C906 0.930 . S
N902 Tb864 2.600 . S
N902 C904 1.359 . S
N902 C905 1.327 . S
C903 H889 0.931 . S
C903 C905 1.392 . S
C903 C906 1.370 1_556 S
C904 C900 1.432 . S
C904 N902 1.359 . S
C904 C907 1.414 . S
C905 H887 0.930 . S
C905 N902 1.327 . S
C905 C903 1.392 . S
C906 H901 0.930 . S
C906 C903 1.370 1_554 S
C906 C907 1.385 1_554 S
C907 C904 1.414 . S
C907 C906 1.385 1_556 S
C907 C929 1.444 1_556 S
O908 Tb864 2.546 . S
O908 C928 1.251 . S
O909 Tb864 2.610 . S
O909 Tb875 2.362 . S
O909 C920 1.283 . S
O910 Tb875 2.421 . S
O910 C927 1.262 . S
O911 Tb864 2.320 . S
O911 C927 1.260 . S
O912 Tb864 2.552 . S
O912 C920 1.243 . S
O913 Tb864 2.413 . S
O913 C928 1.256 . S
O914 Tb875 2.546 . S
O914 C939 1.251 . S
O915 Tb864 2.362 . S
O915 Tb875 2.610 . S
O915 C931 1.283 . S
O916 Tb864 2.421 . S
O916 C938 1.262 . S
O917 Tb875 2.320 . S
O917 C938 1.260 . S
O918 Tb875 2.552 . S
O918 C931 1.243 . S
O919 Tb875 2.413 . S
O919 C939 1.256 . S
C920 O909 1.283 . S
C920 O912 1.243 . S
C921 C923 1.382 . S
C921 C925 1.393 . S
C921 C928 1.500 . S
C922 C923 1.400 . S
C922 C924 1.384 . S
C923 C921 1.382 . S
C923 C922 1.400 . S
C923 H940 0.930 . S
C924 C922 1.384 . S
C924 C926 1.392 . S
C924 H941 0.931 . S
C925 C921 1.393 . S
C925 C926 1.401 . S
C925 H942 0.930 . S
C926 C924 1.392 . S
C926 C925 1.401 . S
C926 H943 0.930 . S
C927 O910 1.262 . S
C927 O911 1.260 . S
C928 Tb864 2.833 . S
C928 O908 1.251 . S
C928 O913 1.256 . S
C928 C921 1.500 . S
C929 H894 0.929 . S
C929 C907 1.444 1_554 S
C929 C930 1.317 1_554 S
C930 H892 0.930 1_556 S
C930 C898 1.432 . S
C930 C929 1.317 1_556 S
C931 O915 1.283 . S
C931 O918 1.243 . S
C932 C933 1.382 . S
C932 C936 1.393 . S
C932 C939 1.500 . S
C933 C932 1.382 . S
C933 C934 1.400 . S
C933 H944 0.930 . S
C934 C933 1.400 . S
C934 C935 1.384 . S
C935 C934 1.384 . S
C935 C937 1.392 . S
C935 H945 0.931 . S
C936 C932 1.393 . S
C936 C937 1.401 . S
C936 H946 0.930 . S
C937 C935 1.392 . S
C937 C936 1.401 . S
C937 H947 0.930 . S
C938 O916 1.262 . S
C938 O917 1.260 . S
C939 Tb875 2.833 . S
C939 O914 1.251 . S
C939 O919 1.256 . S
C939 C932 1.500 . S
H940 C923 0.930 . S
H941 C924 0.931 . S
H942 C925 0.930 . S
H943 C926 0.930 . S
H944 C933 0.930 . S
H945 C935 0.931 . S
H946 C936 0.930 . S
H947 C937 0.930 . S
C948 C949 1.387 . S
C948 H952 0.950 . S
C948 C957 1.390 . S
C949 C948 1.387 . S
C949 C951 1.387 . S
H950 C957 0.950 . S
C951 C949 1.387 . S
C951 C953 1.390 . S
C951 H955 0.950 . S
H952 C948 0.950 . S
C953 C951 1.390 . S
C953 C954 1.387 . S
C953 H956 0.950 . S
C954 C953 1.387 . S
C954 C957 1.387 . S
H955 C951 0.950 . S
H956 C953 0.950 . S
C957 C948 1.390 . S
C957 H950 0.950 . S
C957 C954 1.387 . S
C958 C959 1.387 . S
C958 H962 0.950 . S
C958 C967 1.390 . S
C959 C958 1.387 . S
C959 C961 1.387 . S
H960 C967 0.950 . S
C961 C959 1.387 . S
C961 C963 1.390 . S
C961 H965 0.950 . S
H962 C958 0.950 . S
C963 C961 1.390 . S
C963 C964 1.387 . S
C963 H966 0.950 . S
C964 C963 1.387 . S
C964 C967 1.387 . S
H965 C961 0.950 . S
H966 C963 0.950 . S
C967 C958 1.390 . S
C967 H960 0.950 . S
C967 C964 1.387 . S
C968 C969 1.387 . S
C968 H972 0.950 . S
C968 C977 1.390 . S
C969 C968 1.387 . S
C969 C971 1.387 . S
H970 C977 0.950 . S
C971 C969 1.387 . S
C971 C973 1.390 . S
C971 H975 0.950 1_565 S
H972 C968 0.950 . S
C973 C971 1.390 . S
C973 C974 1.387 . S
C973 H976 0.950 . S
C974 C973 1.387 . S
C974 C977 1.387 . S
H975 C971 0.950 1_545 S
H976 C973 0.950 . S
C977 C968 1.390 . S
C977 H970 0.950 . S
C977 C974 1.387 . S
C978 C979 1.387 . S
C978 H982 0.950 . S
C978 C987 1.390 . S
C979 C978 1.387 . S
C979 C981 1.387 . S
H980 C987 0.950 . S
C981 C979 1.387 . S
C981 C983 1.390 . S
C981 H985 0.950 . S
H982 C978 0.950 . S
C983 C981 1.390 . S
C983 C984 1.387 . S
C983 H986 0.950 . S
C984 C983 1.387 . S
C984 C987 1.387 . S
H985 C981 0.950 . S
H986 C983 0.950 . S
C987 C978 1.390 . S
C987 H980 0.950 . S
C987 C984 1.387 . S
C988 C989 1.387 . S
C988 H992 0.950 . S
C988 C997 1.390 . S
C989 C988 1.387 . S
C989 C991 1.387 . S
H990 C997 0.950 . S
C991 C989 1.387 . S
C991 C993 1.390 . S
C991 H995 0.950 . S
H992 C988 0.950 . S
C993 C991 1.390 . S
C993 C994 1.387 . S
C993 H996 0.950 . S
C994 C993 1.387 . S
C994 C997 1.387 . S
H995 C991 0.950 . S
H996 C993 0.950 . S
C997 C988 1.390 . S
C997 H990 0.950 . S
C997 C994 1.387 . S
C998 C999 1.387 . S
C998 H1002 0.950 . S
C998 C1007 1.390 . S
C999 C998 1.387 . S
C999 C1001 1.387 . S
H1000 C1007 0.950 . S
C1001 C999 1.387 . S
C1001 C1003 1.390 . S
C1001 H1005 0.950 . S
H1002 C998 0.950 . S
C1003 C1001 1.390 . S
C1003 C1004 1.387 . S
C1003 H1006 0.950 . S
C1004 C1003 1.387 . S
C1004 C1007 1.387 . S
H1005 C1001 0.950 . S
H1006 C1003 0.950 . S
C1007 C998 1.390 . S
C1007 H1000 0.950 . S
C1007 C1004 1.387 . S
C1008 C1009 1.387 . S
C1008 H1012 0.950 . S
C1008 C1017 1.390 . S
C1009 C1008 1.387 . S
C1009 C1011 1.387 . S
H1010 C1017 0.950 . S
C1011 C1009 1.387 . S
C1011 C1013 1.390 . S
C1011 H1015 0.950 . S
H1012 C1008 0.950 . S
C1013 C1011 1.390 . S
C1013 C1014 1.387 . S
C1013 H1016 0.950 . S
C1014 C1013 1.387 . S
C1014 C1017 1.387 . S
H1015 C1011 0.950 . S
H1016 C1013 0.950 . S
C1017 C1008 1.390 . S
C1017 H1010 0.950 . S
C1017 C1014 1.387 . S
C1018 C1019 1.387 . S
C1018 H1022 0.950 . S
C1018 C1027 1.390 . S
C1019 C1018 1.387 . S
C1019 C1021 1.387 . S
H1020 C1027 0.950 . S
C1021 C1019 1.387 . S
C1021 C1023 1.390 . S
C1021 H1025 0.950 . S
H1022 C1018 0.950 . S
C1023 C1021 1.390 . S
C1023 C1024 1.387 . S
C1023 H1026 0.950 . S
C1024 C1023 1.387 . S
C1024 C1027 1.387 . S
H1025 C1021 0.950 . S
H1026 C1023 0.950 . S
C1027 C1018 1.390 . S
C1027 H1020 0.950 . S
C1027 C1024 1.387 . S
C1028 C1029 1.387 . S
C1028 H1032 0.950 . S
C1028 C1037 1.390 . S
C1029 C1028 1.387 . S
C1029 C1031 1.387 . S
H1030 C1037 0.950 . S
C1031 C1029 1.387 . S
C1031 C1033 1.390 . S
C1031 H1035 0.950 . S
H1032 C1028 0.950 . S
C1033 C1031 1.390 . S
C1033 C1034 1.387 . S
C1033 H1036 0.950 . S
C1034 C1033 1.387 . S
C1034 C1037 1.387 . S
H1035 C1031 0.950 . S
H1036 C1033 0.950 . S
C1037 C1028 1.390 . S
C1037 H1030 0.950 . S
C1037 C1034 1.387 . S
C1038 C1039 1.387 . S
C1038 H1042 0.950 . S
C1038 C1047 1.390 . S
C1039 C1038 1.387 . S
C1039 C1041 1.387 . S
H1040 C1047 0.950 . S
C1041 C1039 1.387 . S
C1041 C1043 1.390 . S
C1041 H1045 0.950 . S
H1042 C1038 0.950 . S
C1043 C1041 1.390 . S
C1043 C1044 1.387 . S
C1043 H1046 0.950 . S
C1044 C1043 1.387 . S
C1044 C1047 1.387 . S
H1045 C1041 0.950 . S
H1046 C1043 0.950 . S
C1047 C1038 1.390 . S
C1047 H1040 0.950 . S
C1047 C1044 1.387 . S
C1048 C1049 1.387 . S
C1048 H1052 0.950 . S
C1048 C1057 1.390 . S
C1049 C1048 1.387 . S
C1049 C1051 1.387 . S
H1050 C1057 0.950 . S
C1051 C1049 1.387 . S
C1051 C1053 1.390 . S
C1051 H1055 0.950 . S
H1052 C1048 0.950 . S
C1053 C1051 1.390 . S
C1053 C1054 1.387 . S
C1053 H1056 0.950 . S
C1054 C1053 1.387 . S
C1054 C1057 1.387 . S
H1055 C1051 0.950 . S
H1056 C1053 0.950 . S
C1057 C1048 1.390 . S
C1057 H1050 0.950 . S
C1057 C1054 1.387 . S
C1058 C1059 1.387 . S
C1058 H1062 0.950 . S
C1058 C1067 1.390 . S
C1059 C1058 1.387 . S
C1059 C1061 1.387 . S
H1060 C1067 0.950 . S
C1061 C1059 1.387 . S
C1061 C1063 1.390 . S
C1061 H1065 0.950 . S
H1062 C1058 0.950 . S
C1063 C1061 1.390 . S
C1063 C1064 1.387 . S
C1063 H1066 0.950 . S
C1064 C1063 1.387 . S
C1064 C1067 1.387 . S
H1065 C1061 0.950 . S
H1066 C1063 0.950 . S
C1067 C1058 1.390 . S
C1067 H1060 0.950 . S
C1067 C1064 1.387 . S
C1068 C1069 1.387 1_565 S
C1068 H1072 0.950 . S
C1068 C1077 1.390 . S
C1069 C1068 1.387 1_545 S
C1069 C1071 1.387 1_554 S
H1070 C1077 0.950 . S
C1071 C1069 1.387 1_556 S
C1071 C1073 1.390 . S
C1071 H1075 0.950 . S
H1072 C1068 0.950 . S
C1073 C1071 1.390 . S
C1073 C1074 1.387 1_545 S
C1073 H1076 0.950 . S
C1074 C1073 1.387 1_565 S
C1074 C1077 1.387 1_556 S
H1075 C1071 0.950 . S
H1076 C1073 0.950 . S
C1077 C1068 1.390 . S
C1077 H1070 0.950 . S
C1077 C1074 1.387 1_554 S
C1078 C1079 1.387 . S
C1078 H1082 0.950 . S
C1078 C1087 1.390 . S
C1079 C1078 1.387 . S
C1079 C1081 1.387 . S
H1080 C1087 0.950 . S
C1081 C1079 1.387 . S
C1081 C1083 1.390 . S
C1081 H1085 0.950 1_556 S
H1082 C1078 0.950 . S
C1083 C1081 1.390 . S
C1083 C1084 1.387 . S
C1083 H1086 0.950 . S
C1084 C1083 1.387 . S
C1084 C1087 1.387 . S
H1085 C1081 0.950 1_554 S
H1086 C1083 0.950 . S
C1087 C1078 1.390 . S
C1087 H1080 0.950 . S
C1087 C1084 1.387 . S
C1088 C1089 1.387 . S
C1088 H1092 0.950 . S
C1088 C1097 1.390 . S
C1089 C1088 1.387 . S
C1089 C1091 1.387 . S
H1090 C1097 0.950 . S
C1091 C1089 1.387 . S
C1091 C1093 1.390 . S
C1091 H1095 0.950 . S
H1092 C1088 0.950 . S
C1093 C1091 1.390 . S
C1093 C1094 1.387 . S
C1093 H1096 0.950 . S
C1094 C1093 1.387 . S
C1094 C1097 1.387 . S
H1095 C1091 0.950 . S
H1096 C1093 0.950 . S
C1097 C1088 1.390 . S
C1097 H1090 0.950 . S
C1097 C1094 1.387 . S
C1098 C1099 1.387 . S
C1098 H1102 0.950 . S
C1098 C1107 1.390 . S
C1099 C1098 1.387 . S
C1099 C1101 1.387 . S
H1100 C1107 0.950 . S
C1101 C1099 1.387 . S
C1101 C1103 1.390 . S
C1101 H1105 0.950 . S
H1102 C1098 0.950 . S
C1103 C1101 1.390 . S
C1103 C1104 1.387 . S
C1103 H1106 0.950 . S
C1104 C1103 1.387 . S
C1104 C1107 1.387 . S
H1105 C1101 0.950 . S
H1106 C1103 0.950 . S
C1107 C1098 1.390 . S
C1107 H1100 0.950 . S
C1107 C1104 1.387 . S
C1108 C1109 1.387 . S
C1108 H1112 0.950 . S
C1108 C1117 1.390 . S
C1109 C1108 1.387 . S
C1109 C1111 1.387 . S
H1110 C1117 0.950 . S
C1111 C1109 1.387 . S
C1111 C1113 1.390 . S
C1111 H1115 0.950 . S
H1112 C1108 0.950 . S
C1113 C1111 1.390 . S
C1113 C1114 1.387 . S
C1113 H1116 0.950 . S
C1114 C1113 1.387 . S
C1114 C1117 1.387 . S
H1115 C1111 0.950 . S
H1116 C1113 0.950 . S
C1117 C1108 1.390 . S
C1117 H1110 0.950 . S
C1117 C1114 1.387 . S
C1118 C1119 1.387 . S
C1118 H1122 0.950 . S
C1118 C1127 1.390 . S
C1119 C1118 1.387 . S
C1119 C1121 1.387 . S
H1120 C1127 0.950 . S
C1121 C1119 1.387 . S
C1121 C1123 1.390 . S
C1121 H1125 0.950 . S
H1122 C1118 0.950 . S
C1123 C1121 1.390 . S
C1123 C1124 1.387 . S
C1123 H1126 0.950 . S
C1124 C1123 1.387 . S
C1124 C1127 1.387 . S
H1125 C1121 0.950 . S
H1126 C1123 0.950 . S
C1127 C1118 1.390 . S
C1127 H1120 0.950 . S
C1127 C1124 1.387 . S
C1128 C1129 1.387 1_556 S
C1128 H1132 0.939 1_556 S
C1128 C1137 1.401 . S
C1129 C1128 1.387 1_554 S
C1129 C1131 1.387 1_554 S
H1130 C1137 0.950 . S
C1131 C1129 1.387 1_556 S
C1131 C1133 1.390 . S
C1131 H1135 0.950 . S
H1132 C1128 0.939 1_554 S
C1133 C1131 1.390 . S
C1133 C1134 1.387 . S
C1133 H1136 0.950 . S
C1134 C1133 1.387 . S
C1134 C1137 1.387 . S
H1135 C1131 0.950 . S
H1136 C1133 0.950 . S
C1137 C1128 1.401 . S
C1137 H1130 0.950 . S
C1137 C1134 1.387 . S
C1138 C1139 1.387 1_556 S
C1138 H1142 0.950 . S
C1138 C1147 1.390 1_455 S
C1139 C1138 1.387 1_554 S
C1139 C1141 1.387 1_455 S
H1140 C1147 0.950 . S
C1141 C1139 1.387 1_655 S
C1141 C1143 1.390 . S
C1141 H1145 0.950 1_655 S
H1142 C1138 0.950 . S
C1143 C1141 1.390 . S
C1143 C1144 1.387 1_554 S
C1143 H1146 0.950 . S
C1144 C1143 1.387 1_556 S
C1144 C1147 1.387 . S
H1145 C1141 0.950 1_455 S
H1146 C1143 0.950 . S
C1147 C1138 1.390 1_655 S
C1147 H1140 0.950 . S
C1147 C1144 1.387 . S
C1148 C1149 1.387 . S
C1148 H1152 0.950 . S
C1148 C1157 1.390 . S
C1149 C1148 1.387 . S
C1149 C1151 1.387 . S
H1150 C1157 0.950 . S
C1151 C1149 1.387 . S
C1151 C1153 1.390 . S
C1151 H1155 0.950 . S
H1152 C1148 0.950 . S
C1153 C1151 1.390 . S
C1153 C1154 1.387 . S
C1153 H1156 0.950 . S
C1154 C1153 1.387 . S
C1154 C1157 1.387 . S
H1155 C1151 0.950 . S
H1156 C1153 0.950 . S
C1157 C1148 1.390 . S
C1157 H1150 0.950 . S
C1157 C1154 1.387 . S
C1158 C1159 1.387 . S
C1158 H1162 0.950 . S
C1158 C1167 1.390 . S
C1159 C1158 1.387 . S
C1159 C1161 1.387 . S
H1160 C1167 0.950 . S
C1161 C1159 1.387 . S
C1161 C1163 1.390 . S
C1161 H1165 0.950 . S
H1162 C1158 0.950 . S
C1163 C1161 1.390 . S
C1163 C1164 1.387 . S
C1163 H1166 0.950 . S
C1164 C1163 1.387 . S
C1164 C1167 1.387 . S
H1165 C1161 0.950 . S
H1166 C1163 0.950 . S
C1167 C1158 1.390 . S
C1167 H1160 0.950 . S
C1167 C1164 1.387 . S
C1168 C1169 1.387 1_565 S
C1168 H1172 0.950 1_565 S
C1168 C1177 1.390 . S
C1169 C1168 1.387 1_545 S
C1169 C1171 1.387 1_545 S
H1170 C1177 0.950 . S
C1171 C1169 1.387 1_565 S
C1171 C1173 1.390 . S
C1171 H1175 0.950 . S
H1172 C1168 0.950 1_545 S
C1173 C1171 1.390 . S
C1173 C1174 1.387 . S
C1173 H1176 0.950 . S
C1174 C1173 1.387 . S
C1174 C1177 1.387 . S
H1175 C1171 0.950 . S
H1176 C1173 0.950 . S
C1177 C1168 1.390 . S
C1177 H1170 0.950 . S
C1177 C1174 1.387 . S
C1178 C1179 1.387 . S
C1178 H1182 0.950 . S
C1178 C1187 1.390 . S
C1179 C1178 1.387 . S
C1179 C1181 1.387 . S
H1180 C1187 0.950 . S
C1181 C1179 1.387 . S
C1181 C1183 1.390 . S
C1181 H1185 0.950 . S
H1182 C1178 0.950 . S
C1183 C1181 1.390 . S
C1183 C1184 1.387 . S
C1183 H1186 0.950 . S
C1184 C1183 1.387 . S
C1184 C1187 1.387 . S
H1185 C1181 0.950 . S
H1186 C1183 0.950 . S
C1187 C1178 1.390 . S
C1187 H1180 0.950 . S
C1187 C1184 1.387 . S
C1188 C1189 1.387 . S
C1188 H1192 0.950 . S
C1188 C1197 1.390 . S
C1189 C1188 1.387 . S
C1189 C1191 1.387 . S
H1190 C1197 0.950 . S
C1191 C1189 1.387 . S
C1191 C1193 1.390 . S
C1191 H1195 0.950 . S
H1192 C1188 0.950 . S
C1193 C1191 1.390 . S
C1193 C1194 1.387 . S
C1193 H1196 0.950 . S
C1194 C1193 1.387 . S
C1194 C1197 1.387 . S
H1195 C1191 0.950 . S
H1196 C1193 0.950 . S
C1197 C1188 1.390 . S
C1197 H1190 0.950 . S
C1197 C1194 1.387 . S
C1198 C1199 1.387 . S
C1198 H1202 0.950 . S
C1198 C1207 1.390 . S
C1199 C1198 1.387 . S
C1199 C1201 1.387 . S
H1200 C1207 0.950 . S
C1201 C1199 1.387 . S
C1201 C1203 1.390 . S
C1201 H1205 0.950 . S
H1202 C1198 0.950 . S
C1203 C1201 1.390 . S
C1203 C1204 1.387 . S
C1203 H1206 0.950 . S
C1204 C1203 1.387 . S
C1204 C1207 1.387 . S
H1205 C1201 0.950 . S
H1206 C1203 0.950 . S
C1207 C1198 1.390 . S
C1207 H1200 0.950 . S
C1207 C1204 1.387 . S
C1208 C1209 1.387 . S
C1208 H1212 0.950 . S
C1208 C1217 1.390 . S
C1209 C1208 1.387 . S
C1209 C1211 1.387 . S
H1210 C1217 0.950 . S
C1211 C1209 1.387 . S
C1211 C1213 1.390 . S
C1211 H1215 0.950 . S
H1212 C1208 0.950 . S
C1213 C1211 1.390 . S
C1213 C1214 1.387 . S
C1213 H1216 0.950 . S
C1214 C1213 1.387 . S
C1214 C1217 1.387 . S
H1215 C1211 0.950 . S
H1216 C1213 0.950 . S
C1217 C1208 1.390 . S
C1217 H1210 0.950 . S
C1217 C1214 1.387 . S
C1218 C1219 1.387 . S
C1218 H1222 0.950 . S
C1218 C1227 1.390 . S
C1219 C1218 1.387 . S
C1219 C1221 1.387 . S
H1220 C1227 0.950 . S
C1221 C1219 1.387 . S
C1221 C1223 1.390 . S
C1221 H1225 0.950 . S
H1222 C1218 0.950 . S
C1223 C1221 1.390 . S
C1223 C1224 1.387 . S
C1223 H1226 0.950 . S
C1224 C1223 1.387 . S
C1224 C1227 1.387 . S
H1225 C1221 0.950 . S
H1226 C1223 0.950 . S
C1227 C1218 1.390 . S
C1227 H1220 0.950 . S
C1227 C1224 1.387 . S
C1228 C1229 1.387 . S
C1228 H1232 0.950 . S
C1228 C1237 1.390 . S
C1229 C1228 1.387 . S
C1229 C1231 1.387 . S
H1230 C1237 0.950 . S
C1231 C1229 1.387 . S
C1231 C1233 1.390 . S
C1231 H1235 0.950 . S
H1232 C1228 0.950 . S
C1233 C1231 1.390 . S
C1233 C1234 1.387 . S
C1233 H1236 0.950 . S
C1234 C1233 1.387 . S
C1234 C1237 1.387 . S
H1235 C1231 0.950 . S
H1236 C1233 0.950 . S
C1237 C1228 1.390 . S
C1237 H1230 0.950 . S
C1237 C1234 1.387 . S
C1238 C1239 1.387 . S
C1238 H1242 0.950 . S
C1238 C1247 1.390 . S
C1239 C1238 1.387 . S
C1239 C1241 1.387 . S
H1240 C1247 0.950 . S
C1241 C1239 1.387 . S
C1241 C1243 1.390 . S
C1241 H1245 0.950 . S
H1242 C1238 0.950 . S
C1243 C1241 1.390 . S
C1243 C1244 1.387 . S
C1243 H1246 0.950 . S
C1244 C1243 1.387 . S
C1244 C1247 1.387 . S
H1245 C1241 0.950 . S
H1246 C1243 0.950 . S
C1247 C1238 1.390 . S
C1247 H1240 0.950 . S
C1247 C1244 1.387 . S
C1248 C1249 1.387 . S
C1248 H1252 0.950 . S
C1248 C1257 1.390 . S
C1249 C1248 1.387 . S
C1249 C1251 1.387 . S
H1250 C1257 0.950 . S
C1251 C1249 1.387 . S
C1251 C1253 1.390 . S
C1251 H1255 0.950 . S
H1252 C1248 0.950 . S
C1253 C1251 1.390 . S
C1253 C1254 1.387 . S
C1253 H1256 0.950 . S
C1254 C1253 1.387 . S
C1254 C1257 1.387 . S
H1255 C1251 0.950 . S
H1256 C1253 0.950 . S
C1257 C1248 1.390 . S
C1257 H1250 0.950 . S
C1257 C1254 1.387 . S
C1258 C1259 1.387 . S
C1258 H1262 0.950 . S
C1258 C1267 1.390 . S
C1259 C1258 1.387 . S
C1259 C1261 1.387 . S
H1260 C1267 0.950 . S
C1261 C1259 1.387 . S
C1261 C1263 1.390 . S
C1261 H1265 0.950 . S
H1262 C1258 0.950 . S
C1263 C1261 1.390 . S
C1263 C1264 1.387 . S
C1263 H1266 0.950 . S
C1264 C1263 1.387 . S
C1264 C1267 1.387 . S
H1265 C1261 0.950 . S
H1266 C1263 0.950 . S
C1267 C1258 1.390 . S
C1267 H1260 0.950 . S
C1267 C1264 1.387 . S
C1268 C1269 1.387 . S
C1268 H1272 0.950 . S
C1268 C1277 1.390 . S
C1269 C1268 1.387 . S
C1269 C1271 1.387 . S
H1270 C1277 0.950 . S
C1271 C1269 1.387 . S
C1271 C1273 1.390 . S
C1271 H1275 0.950 . S
H1272 C1268 0.950 . S
C1273 C1271 1.390 . S
C1273 C1274 1.387 . S
C1273 H1276 0.950 . S
C1274 C1273 1.387 . S
C1274 C1277 1.387 . S
H1275 C1271 0.950 . S
H1276 C1273 0.950 . S
C1277 C1268 1.390 . S
C1277 H1270 0.950 . S
C1277 C1274 1.387 . S
C1278 C1279 1.387 . S
C1278 H1282 0.950 . S
C1278 C1287 1.390 . S
C1279 C1278 1.387 . S
C1279 C1281 1.387 . S
H1280 C1287 0.950 . S
C1281 C1279 1.387 . S
C1281 C1283 1.390 . S
C1281 H1285 0.950 . S
H1282 C1278 0.950 . S
C1283 C1281 1.390 . S
C1283 C1284 1.387 . S
C1283 H1286 0.950 . S
C1284 C1283 1.387 . S
C1284 C1287 1.387 . S
H1285 C1281 0.950 . S
H1286 C1283 0.950 . S
C1287 C1278 1.390 . S
C1287 H1280 0.950 . S
C1287 C1284 1.387 . S
C1288 C1289 1.387 . S
C1288 H1292 0.950 . S
C1288 C1297 1.390 . S
C1289 C1288 1.387 . S
C1289 C1291 1.387 . S
H1290 C1297 0.950 . S
C1291 C1289 1.387 . S
C1291 C1293 1.390 . S
C1291 H1295 0.950 . S
H1292 C1288 0.950 . S
C1293 C1291 1.390 . S
C1293 C1294 1.387 . S
C1293 H1296 0.950 . S
C1294 C1293 1.387 . S
C1294 C1297 1.387 . S
H1295 C1291 0.950 . S
H1296 C1293 0.950 . S
C1297 C1288 1.390 . S
C1297 H1290 0.950 . S
C1297 C1294 1.387 . S
C1298 C1299 1.387 . S
C1298 H1302 0.950 . S
C1298 C1307 1.390 . S
C1299 C1298 1.387 . S
C1299 C1301 1.387 . S
H1300 C1307 0.950 . S
C1301 C1299 1.387 . S
C1301 C1303 1.390 . S
C1301 H1305 0.950 . S
H1302 C1298 0.950 . S
C1303 C1301 1.390 . S
C1303 C1304 1.387 . S
C1303 H1306 0.950 . S
C1304 C1303 1.387 . S
C1304 C1307 1.387 . S
H1305 C1301 0.950 . S
H1306 C1303 0.950 . S
C1307 C1298 1.390 . S
C1307 H1300 0.950 . S
C1307 C1304 1.387 . S
C1308 C1309 1.387 . S
C1308 H1312 0.950 . S
C1308 C1317 1.390 . S
C1309 C1308 1.387 . S
C1309 C1311 1.387 . S
H1310 C1317 0.950 . S
C1311 C1309 1.387 . S
C1311 C1313 1.390 . S
C1311 H1315 0.950 . S
H1312 C1308 0.950 . S
C1313 C1311 1.390 . S
C1313 C1314 1.387 . S
C1313 H1316 0.950 . S
C1314 C1313 1.387 . S
C1314 C1317 1.387 . S
H1315 C1311 0.950 . S
H1316 C1313 0.950 . S
C1317 C1308 1.390 . S
C1317 H1310 0.950 . S
C1317 C1314 1.387 . S
C1318 C1319 1.387 . S
C1318 H1322 0.950 . S
C1318 C1327 1.390 . S
C1319 C1318 1.387 . S
C1319 C1321 1.387 . S
H1320 C1327 0.950 . S
C1321 C1319 1.387 . S
C1321 C1323 1.390 . S
C1321 H1325 0.950 . S
H1322 C1318 0.950 . S
C1323 C1321 1.390 . S
C1323 C1324 1.387 . S
C1323 H1326 0.950 . S
C1324 C1323 1.387 . S
C1324 C1327 1.387 . S
H1325 C1321 0.950 . S
H1326 C1323 0.950 . S
C1327 C1318 1.390 . S
C1327 H1320 0.950 . S
C1327 C1324 1.387 . S
C1328 C1329 1.387 . S
C1328 H1332 0.950 . S
C1328 C1337 1.390 . S
C1329 C1328 1.387 . S
C1329 C1331 1.387 . S
H1330 C1337 0.950 . S
C1331 C1329 1.387 . S
C1331 C1333 1.390 . S
C1331 H1335 0.950 . S
H1332 C1328 0.950 . S
C1333 C1331 1.390 . S
C1333 C1334 1.387 . S
C1333 H1336 0.950 . S
C1334 C1333 1.387 . S
C1334 C1337 1.387 . S
H1335 C1331 0.950 . S
H1336 C1333 0.950 . S
C1337 C1328 1.390 . S
C1337 H1330 0.950 . S
C1337 C1334 1.387 . S
C1338 C1339 1.387 . S
C1338 H1342 0.950 . S
C1338 C1347 1.390 . S
C1339 C1338 1.387 . S
C1339 C1341 1.387 . S
H1340 C1347 0.950 . S
C1341 C1339 1.387 . S
C1341 C1343 1.390 . S
C1341 H1345 0.950 . S
H1342 C1338 0.950 . S
C1343 C1341 1.390 . S
C1343 C1344 1.387 . S
C1343 H1346 0.950 . S
C1344 C1343 1.387 . S
C1344 C1347 1.387 . S
H1345 C1341 0.950 . S
H1346 C1343 0.950 . S
C1347 C1338 1.390 . S
C1347 H1340 0.950 . S
C1347 C1344 1.387 . S
C1348 C1349 1.387 . S
C1348 H1352 0.950 . S
C1348 C1357 1.390 . S
C1349 C1348 1.387 . S
C1349 C1351 1.387 . S
H1350 C1357 0.950 . S
C1351 C1349 1.387 . S
C1351 C1353 1.390 . S
C1351 H1355 0.950 . S
H1352 C1348 0.950 . S
C1353 C1351 1.390 . S
C1353 C1354 1.387 . S
C1353 H1356 0.950 . S
C1354 C1353 1.387 . S
C1354 C1357 1.387 . S
H1355 C1351 0.950 . S
H1356 C1353 0.950 . S
C1357 C1348 1.390 . S
C1357 H1350 0.950 . S
C1357 C1354 1.387 . S
C1358 C1359 1.387 . S
C1358 H1362 0.950 . S
C1358 C1367 1.390 . S
C1359 C1358 1.387 . S
C1359 C1361 1.387 . S
H1360 C1367 0.950 . S
C1361 C1359 1.387 . S
C1361 C1363 1.390 . S
C1361 H1365 0.950 . S
H1362 C1358 0.950 . S
C1363 C1361 1.390 . S
C1363 C1364 1.387 . S
C1363 H1366 0.950 . S
C1364 C1363 1.387 . S
C1364 C1367 1.387 . S
H1365 C1361 0.950 . S
H1366 C1363 0.950 . S
C1367 C1358 1.390 . S
C1367 H1360 0.950 . S
C1367 C1364 1.387 . S
C1368 C1369 1.387 . S
C1368 H1372 0.950 . S
C1368 C1377 1.390 . S
C1369 C1368 1.387 . S
C1369 C1371 1.387 . S
H1370 C1377 0.950 . S
C1371 C1369 1.387 . S
C1371 C1373 1.390 . S
C1371 H1375 0.950 . S
H1372 C1368 0.950 . S
C1373 C1371 1.390 . S
C1373 C1374 1.387 . S
C1373 H1376 0.950 . S
C1374 C1373 1.387 . S
C1374 C1377 1.387 . S
H1375 C1371 0.950 . S
H1376 C1373 0.950 . S
C1377 C1368 1.390 . S
C1377 H1370 0.950 . S
C1377 C1374 1.387 . S
C1378 C1379 1.387 . S
C1378 H1382 0.950 . S
C1378 C1387 1.390 . S
C1379 C1378 1.387 . S
C1379 C1381 1.387 . S
H1380 C1387 0.950 . S
C1381 C1379 1.387 . S
C1381 C1383 1.390 . S
C1381 H1385 0.950 . S
H1382 C1378 0.950 . S
C1383 C1381 1.390 . S
C1383 C1384 1.387 . S
C1383 H1386 0.950 . S
C1384 C1383 1.387 . S
C1384 C1387 1.387 . S
H1385 C1381 0.950 . S
H1386 C1383 0.950 . S
C1387 C1378 1.390 . S
C1387 H1380 0.950 . S
C1387 C1384 1.387 . S
C1388 C1389 1.387 . S
C1388 H1392 0.950 . S
C1388 C1397 1.390 . S
C1389 C1388 1.387 . S
C1389 C1391 1.387 . S
H1390 C1397 0.950 . S
C1391 C1389 1.387 . S
C1391 C1393 1.390 . S
C1391 H1395 0.950 . S
H1392 C1388 0.950 . S
C1393 C1391 1.390 . S
C1393 C1394 1.387 . S
C1393 H1396 0.950 . S
C1394 C1393 1.387 . S
C1394 C1397 1.387 . S
H1395 C1391 0.950 . S
H1396 C1393 0.950 . S
C1397 C1388 1.390 . S
C1397 H1390 0.950 . S
C1397 C1394 1.387 . S
C1398 C1399 1.387 . S
C1398 H1402 0.950 . S
C1398 C1407 1.390 . S
C1399 C1398 1.387 . S
C1399 C1401 1.387 . S
H1400 C1407 0.950 . S
C1401 C1399 1.387 . S
C1401 C1403 1.390 . S
C1401 H1405 0.950 . S
H1402 C1398 0.950 . S
C1403 C1401 1.390 . S
C1403 C1404 1.387 . S
C1403 H1406 0.950 . S
C1404 C1403 1.387 . S
C1404 C1407 1.387 . S
H1405 C1401 0.950 . S
H1406 C1403 0.950 . S
C1407 C1398 1.390 . S
C1407 H1400 0.950 . S
C1407 C1404 1.387 . S
C1408 C1409 1.387 . S
C1408 H1412 0.950 . S
C1408 C1417 1.390 . S
C1409 C1408 1.387 . S
C1409 C1411 1.387 . S
H1410 C1417 0.950 . S
C1411 C1409 1.387 . S
C1411 C1413 1.390 . S
C1411 H1415 0.950 . S
H1412 C1408 0.950 . S
C1413 C1411 1.390 . S
C1413 C1414 1.387 . S
C1413 H1416 0.950 . S
C1414 C1413 1.387 . S
C1414 C1417 1.387 . S
H1415 C1411 0.950 . S
H1416 C1413 0.950 . S
C1417 C1408 1.390 . S
C1417 H1410 0.950 . S
C1417 C1414 1.387 . S
C1418 C1419 1.387 . S
C1418 H1422 0.950 . S
C1418 C1427 1.390 . S
C1419 C1418 1.387 . S
C1419 C1421 1.387 . S
H1420 C1427 0.950 . S
C1421 C1419 1.387 . S
C1421 C1423 1.390 . S
C1421 H1425 0.950 . S
H1422 C1418 0.950 . S
C1423 C1421 1.390 . S
C1423 C1424 1.387 . S
C1423 H1426 0.950 . S
C1424 C1423 1.387 . S
C1424 C1427 1.387 . S
H1425 C1421 0.950 . S
H1426 C1423 0.950 . S
C1427 C1418 1.390 . S
C1427 H1420 0.950 . S
C1427 C1424 1.387 . S
C954 C334 1.165 . S
C949 N2 1.283 . S
C964 C434 2.036 . S
C959 C7 2.042 . S
C974 C514 1.197 . S
C969 N12 1.461 . S
C979 C16 1.826 . S
C984 C591 1.874 . S
C994 C675 2.094 . S
C989 C30 2.101 1_565 S
C1004 C754 1.022 . S
C999 N35 1.332 . S
C1009 C39 2.004 . S
C1014 C854 1.990 . S
C1024 C934 1.129 . S
C1019 N25 1.167 1_565 S
C1034 C332 1.245 . S
C1029 N58 1.291 . S
C1039 N81 2.018 . S
C1044 C427 2.022 . S
C1054 C518 1.391 . S
C1049 N104 1.255 . S
C1059 N127 1.330 . S
C1064 C586 0.968 . S
C1074 C670 0.844 . S
C1069 N48 1.160 . S
C1084 C752 1.485 . S
C1079 N71 1.384 1_556 S
C1089 N94 1.706 . S
C1094 C847 1.744 . S
C1104 C938 1.559 . S
C1099 N117 1.505 . S
C1109 C85 2.295 . S
C1114 C339 2.291 . S
C1119 C122 2.515 . S
C1124 C668 2.506 . S
C1129 C53 2.001 . S
C1134 C759 2.103 . S
C1144 C850 1.240 . S
C1139 C76 1.554 . S
C1154 C931 1.994 . S
C1149 C99 2.112 . S
C1164 C511 2.038 . S
C1159 C131 2.077 . S
C1174 C584 2.228 . S
C1169 C62 2.250 . S
C1179 C108 1.336 . S
C1184 C430 1.071 . S
C1194 C922 1.139 . S
C1189 N140 1.323 . S
C1199 C145 2.032 . S
C1204 C686 2.027 . S
C1214 C766 1.124 . S
C1209 N150 1.316 . S
C1219 C154 1.825 . S
C1224 C843 1.876 . S
C1234 C423 2.098 . S
C1229 C168 2.104 . S
C1239 N173 1.179 . S
C1244 C502 0.971 . S
C1254 C602 1.997 . S
C1249 C177 2.013 . S
C1264 C346 1.096 . S
C1259 N163 1.161 . S
C1274 C920 1.670 . S
C1269 C200 1.713 . S
C1284 C679 2.297 . S
C1279 N219 2.295 . S
C1289 N242 1.519 . S
C1294 C770 1.673 . S
C1304 C838 1.187 . S
C1299 C269 1.608 . S
C1314 C418 1.019 . S
C1309 C191 1.375 . S
C1319 N209 1.653 . S
C1324 C500 1.756 . S
C1329 N232 1.994 . S
C1334 C595 2.034 . S
C1339 C260 2.040 . S
C1344 C350 2.044 . S
C1349 C223 1.977 . S
C1354 C927 1.975 . S
C1359 N255 2.141 . S
C1364 C416 2.120 . S
C1369 N186 1.694 . S
C1374 C507 1.784 . S
C1384 C598 1.023 . S
C1379 C214 1.239 . S
C1394 C343 1.701 . S
C1389 C237 1.804 . S
C1404 C763 1.681 . S
C1399 N265 1.585 . S
C1414 C836 1.852 . S
C1409 N196 1.830 . S
C1424 C682 0.891 . S
C1419 C246 1.027 . S
