# Generated by pormake.
# Topology tsx, (6,3)-cn, num edge types: 1
# Building blocks:
#     Node 0, Type 0, BuildingBlock: JUFBIX_clean_sbu_0, # of connection points: 6
#     Node 1, Type 0, BuildingBlock: JUFBIX_clean_sbu_0, # of connection points: 6
#     Node 2, Type 1, BuildingBlock: OLANEW_clean_sbu_2, # of connection points: 3
#     Node 3, Type 1, BuildingBlock: OLANEW_clean_sbu_2, # of connection points: 3
#     Node 4, Type 1, BuildingBlock: OLANEW_clean_sbu_2, # of connection points: 3
#     Node 5, Type 1, BuildingBlock: OLANEW_clean_sbu_2, # of connection points: 3
#     Edge 6, Type (0, 1), BuildingBlock: FUNLAD_clean_linker_0, # of connection points: 2
#     Edge 7, Type (0, 1), BuildingBlock: FUNLAD_clean_linker_0, # of connection points: 2
#     Edge 8, Type (0, 1), BuildingBlock: FUNLAD_clean_linker_0, # of connection points: 2
#     Edge 9, Type (0, 1), BuildingBlock: FUNLAD_clean_linker_0, # of connection points: 2
#     Edge 10, Type (0, 1), BuildingBlock: FUNLAD_clean_linker_0, # of connection points: 2
#     Edge 11, Type (0, 1), BuildingBlock: FUNLAD_clean_linker_0, # of connection points: 2
#     Edge 12, Type (0, 1), BuildingBlock: FUNLAD_clean_linker_0, # of connection points: 2
#     Edge 13, Type (0, 1), BuildingBlock: FUNLAD_clean_linker_0, # of connection points: 2
#     Edge 14, Type (0, 1), BuildingBlock: FUNLAD_clean_linker_0, # of connection points: 2
#     Edge 15, Type (0, 1), BuildingBlock: FUNLAD_clean_linker_0, # of connection points: 2
#     Edge 16, Type (0, 1), BuildingBlock: FUNLAD_clean_linker_0, # of connection points: 2
#     Edge 17, Type (0, 1), BuildingBlock: FUNLAD_clean_linker_0, # of connection points: 2
# Relax obj value: 0.062
# Max RMSD: 0.103
# Mean RMSD: 0.073
data_MOF--net-tsx--node1-JUFBIX_clean_sbu_0--node2-OLANEW_clean_sbu_2--edge1-FUNLAD_clean_linker_0
_symmetry_space_group_name_H-M    P1
_symmetry_Int_Tables_number       1
_symmetry_cell_setting            triclinic
loop_
_symmetry_equiv_pos_as_xyz
'x, y, z'
_cell_length_a     25.328755
_cell_length_b     29.702121
_cell_length_c     38.944928
_cell_angle_alpha  97.728455
_cell_angle_beta   89.019935
_cell_angle_gamma 98.601566
loop_
_atom_site_label
_atom_site_type_symbol
_atom_site_fract_x
_atom_site_fract_y
_atom_site_fract_z
_atom_type_partial_charge
Co0 Co 0.03789 0.97713 0.0005 0.0
C1 C 0.99594 0.0069 0.94289 0.0
Co2 Co 0.97653 0.0223 0.01261 0.0
C3 C 0.09981 0.90365 0.00135 0.0
C4 C 0.1319 0.95063 0.96647 0.0
N5 N 0.09139 0.94209 0.9887 0.0
N6 N 0.14424 0.88801 0.98811 0.0
C7 C 0.16452 0.91748 0.9661 0.0
H8 H 0.07449 0.88813 0.02057 0.0
H9 H 0.13761 0.97939 0.95177 0.0
C10 C 0.01948 0.99293 0.07026 0.0
N11 N 0.92227 0.0566 0.02553 0.0
C12 C 0.91234 0.09734 0.01729 0.0
C13 C 0.88321 0.04413 0.04785 0.0
N14 N 0.86874 0.11072 0.03391 0.0
C15 C 0.85039 0.07707 0.05297 0.0
C16 C 0.93755 0.92788 0.00062 0.0
O17 O 0.04753 0.97217 0.0479 0.0
O18 O 0.98638 0.01658 0.06018 0.0
O19 O 0.92526 0.968 0.00768 0.0
O20 O 0.98633 0.92323 0.99629 0.0
O21 O 0.96747 0.0279 0.96502 0.0
H22 H 0.87896 0.01298 0.05983 0.0
H23 H 0.93706 0.11704 -3e-05 0.0
O24 O 0.02815 0.9825 0.95317 0.0
O25 O 0.08907 0.03113 0.00461 0.0
O26 O 0.02833 0.07624 0.01701 0.0
C27 C 0.07696 0.07136 0.01158 0.0
H28 H 0.20019 0.91515 0.95067 0.0
H29 H 0.8152 0.07592 0.06917 0.0
Co30 Co 0.53262 0.48012 0.50544 0.0
C31 C 0.49684 0.50019 0.44246 0.0
Co32 Co 0.46986 0.52496 0.51008 0.0
C33 C 0.59538 0.40783 0.51341 0.0
C34 C 0.63164 0.45478 0.47965 0.0
N35 N 0.58815 0.44572 0.49943 0.0
N36 N 0.64195 0.39318 0.50327 0.0
C37 C 0.66474 0.42269 0.482 0.0
H38 H 0.56737 0.39171 0.531 0.0
H39 H 0.63878 0.48294 0.46439 0.0
C40 C 0.5066 0.50481 0.57304 0.0
N41 N 0.41409 0.55933 0.51648 0.0
C42 C 0.40566 0.59743 0.50315 0.0
C43 C 0.37161 0.54979 0.53702 0.0
N44 N 0.35929 0.61166 0.51445 0.0
C45 C 0.33797 0.58168 0.53579 0.0
C46 C 0.43274 0.42997 0.50431 0.0
O47 O 0.53671 0.48165 0.55387 0.0
O48 O 0.47457 0.52617 0.55909 0.0
O49 O 0.41949 0.46994 0.50721 0.0
O50 O 0.48195 0.4258 0.50271 0.0
O51 O 0.46613 0.52352 0.46112 0.0
H52 H 0.36559 0.52145 0.55215 0.0
H53 H 0.43269 0.61402 0.48527 0.0
O54 O 0.52821 0.47882 0.45694 0.0
O55 O 0.58281 0.53486 0.50847 0.0
O56 O 0.52071 0.57943 0.51283 0.0
C57 C 0.56986 0.57492 0.51157 0.0
H58 H 0.70225 0.42075 0.46854 0.0
H59 H 0.30108 0.58314 0.55006 0.0
O60 O 0.05472 0.00055 0.40402 0.0
Cd61 Cd 0.06625 0.00796 0.46683 0.0
O62 O 0.96685 0.99119 0.40529 0.0
Cd63 Cd 0.96028 0.01544 0.4604 0.0
O64 O 0.92624 0.07033 0.49218 0.0
C65 C 0.87639 0.06558 0.49831 0.0
O66 O 0.84697 0.02594 0.48781 0.0
C67 C 0.01011 0.99173 0.3882 0.0
C68 C 0.11811 0.93646 0.48246 0.0
O69 O 0.06702 0.93252 0.48217 0.0
O70 O 0.14476 0.97459 0.47605 0.0
O71 O 0.98219 0.04552 0.61331 0.0
Cd72 Cd 0.97635 0.05121 0.55158 0.0
O73 O 0.03923 0.99622 0.6047 0.0
Cd74 Cd 0.01626 0.97984 0.55016 0.0
O75 O 0.94762 0.93313 0.52672 0.0
C76 C 0.91933 0.9146 0.54979 0.0
O77 O 0.93411 0.92606 0.58237 0.0
C78 C 0.01387 0.02213 0.62542 0.0
C79 C 0.05496 0.12025 0.5334 0.0
O80 O 0.0087 0.12889 0.54352 0.0
O81 O 0.06413 0.07872 0.53166 0.0
O82 O 0.53923 0.47108 0.90552 0.0
Cd83 Cd 0.54237 0.47513 0.96844 0.0
O84 O 0.52792 0.54332 0.90773 0.0
Cd85 Cd 0.50879 0.55306 0.96269 0.0
O86 O 0.45553 0.59044 0.99601 0.0
C87 C 0.40563 0.58073 0.99035 0.0
O88 O 0.38801 0.54568 0.96705 0.0
C89 C 0.53578 0.50568 0.89019 0.0
C90 C 0.61388 0.41807 0.984 0.0
O91 O 0.56375 0.4034 0.98087 0.0
O92 O 0.63014 0.46023 0.98064 0.0
O93 O 0.50363 0.53379 0.1093 0.0
Cd94 Cd 0.50947 0.52878 0.04628 0.0
O95 O 0.55368 0.47979 0.11102 0.0
Cd96 Cd 0.53717 0.45436 0.0566 0.0
O97 O 0.47209 0.40606 0.03073 0.0
C98 C 0.42498 0.41445 0.03752 0.0
O99 O 0.41869 0.45318 0.05672 0.0
C100 C 0.52947 0.51105 0.12672 0.0
C101 C 0.59478 0.59274 0.02928 0.0
O102 O 0.54823 0.6037 0.03551 0.0
O103 O 0.6012 0.55104 0.03076 0.0
C104 C 0.107 0.1567 0.01753 0.0
C105 C 0.11909 0.11165 0.01128 0.0
C106 C 0.1469 0.19435 0.0154 0.0
C107 C 0.19976 0.18758 0.00705 0.0
C108 C 0.21152 0.14254 0.00073 0.0
C109 C 0.17186 0.10507 0.00297 0.0
C110 C 0.24384 0.22602 0.00405 0.0
C111 C 0.24421 0.26914 0.02025 0.0
C112 C 0.29068 0.30656 0.02045 0.0
C113 C 0.28333 0.35153 0.03379 0.0
C114 C 0.32657 0.38706 0.03786 0.0
C115 C 0.37838 0.37844 0.02872 0.0
H116 H 0.35081 0.26442 0.00023 0.0
C117 C 0.38562 0.33396 0.01404 0.0
C118 C 0.34243 0.29836 0.01009 0.0
H119 H 0.42506 0.3261 0.00685 0.0
H120 H 0.06658 0.16288 0.02359 0.0
H121 H 0.13574 0.22841 0.01956 0.0
H122 H 0.25175 0.13622 0.99412 0.0
H123 H 0.18261 0.07085 0.99776 0.0
H124 H 0.27813 0.21728 0.98903 0.0
H125 H 0.2097 0.2774 0.03535 0.0
H126 H 0.24413 0.35906 0.04199 0.0
H127 H 0.31954 0.42099 0.04918 0.0
C128 C 0.22139 0.84787 0.99412 0.0
C129 C 0.16614 0.84866 0.99623 0.0
C130 C 0.24271 0.80925 0.00082 0.0
C131 C 0.20919 0.77045 0.00993 0.0
C132 C 0.15397 0.7713 0.01221 0.0
C133 C 0.13266 0.81016 0.00572 0.0
C134 C 0.23031 0.72738 0.01388 0.0
C135 C 0.28109 0.72701 0.02349 0.0
C136 C 0.30756 0.68516 0.02027 0.0
C137 C 0.35897 0.689 0.03437 0.0
C138 C 0.38974 0.65368 0.02657 0.0
C139 C 0.36973 0.61369 0.00437 0.0
H140 H 0.24711 0.63908 0.98822 0.0
C141 C 0.31691 0.60831 0.99232 0.0
C142 C 0.28618 0.6437 1e-05 0.0
H143 H 0.30021 0.57784 0.97525 0.0
H144 H 0.24825 0.8771 0.98714 0.0
H145 H 0.28527 0.8095 0.99764 0.0
H146 H 0.1272 0.74163 0.01864 0.0
H147 H 0.08985 0.80955 0.00716 0.0
H148 H 0.20331 0.69542 0.00784 0.0
H149 H 0.30579 0.75946 0.03255 0.0
H150 H 0.37651 0.72039 0.05011 0.0
H151 H 0.43018 0.65879 0.03652 0.0
C152 C 0.908 0.84259 0.99517 0.0
C153 C 0.89525 0.88741 0.99799 0.0
C154 C 0.86752 0.80471 0.99394 0.0
C155 C 0.81347 0.81104 0.99543 0.0
C156 C 0.80097 0.85576 0.99729 0.0
C157 C 0.84128 0.8935 -0.00121 0.0
C158 C 0.76869 0.77247 0.99529 0.0
C159 C 0.77298 0.73205 0.00635 0.0
C160 C 0.72618 0.69626 0.01018 0.0
C161 C 0.73433 0.65058 0.01062 0.0
C162 C 0.69159 0.61658 0.01612 0.0
C163 C 0.63984 0.62775 0.02164 0.0
H164 H 0.66619 0.74217 0.01679 0.0
C165 C 0.63163 0.67337 0.02105 0.0
C166 C 0.67421 0.70725 0.01558 0.0
H167 H 0.59235 0.68323 0.0255 0.0
H168 H 0.94925 0.83677 0.99426 0.0
H169 H 0.87883 0.77073 0.99153 0.0
H170 H 0.75974 0.86166 -0.00175 0.0
H171 H 0.83001 0.92753 0.00073 0.0
H172 H 0.72996 0.77898 0.98739 0.0
H173 H 0.8117 0.72502 0.01383 0.0
H174 H 0.77396 0.64119 0.0069 0.0
H175 H 0.69927 0.58175 0.01654 0.0
C176 C 0.84923 0.17297 0.00171 0.0
C177 C 0.84513 0.15156 0.03192 0.0
C178 C 0.82134 0.20968 -0.00115 0.0
C179 C 0.78906 0.22567 0.02629 0.0
C180 C 0.78666 0.20527 0.0568 0.0
C181 C 0.81458 0.16895 0.05969 0.0
C182 C 0.75374 0.26059 0.02327 0.0
C183 C 0.76228 0.29243 0.00148 0.0
C184 C 0.72394 0.32491 -0.00173 0.0
C185 C 0.74281 0.3691 0.99019 0.0
C186 C 0.70722 0.3999 0.98641 0.0
C187 C 0.65193 0.38669 0.98998 0.0
H188 H 0.65247 0.27753 0.00715 0.0
C189 C 0.63305 0.34234 0.99783 0.0
C190 C 0.66861 0.31179 0.00194 0.0
H191 H 0.59068 0.33099 0.00049 0.0
H192 H 0.87206 0.16013 0.97977 0.0
H193 H 0.82333 0.22393 0.97463 0.0
H194 H 0.76228 0.21696 0.07836 0.0
H195 H 0.81147 0.15399 0.08362 0.0
H196 H 0.71953 0.26053 0.04051 0.0
H197 H 0.7989 0.29602 0.98653 0.0
H198 H 0.78518 0.37988 0.98693 0.0
H199 H 0.72296 0.43373 0.98007 0.0
C200 C 0.60067 0.65937 0.51091 0.0
C201 C 0.61213 0.61541 0.51472 0.0
C202 C 0.64117 0.69743 0.51479 0.0
C203 C 0.69361 0.69211 0.52296 0.0
C204 C 0.70483 0.64822 0.52669 0.0
C205 C 0.66478 0.61024 0.52226 0.0
C206 C 0.73677 0.73169 0.53039 0.0
C207 C 0.74068 0.77036 0.51542 0.0
C208 C 0.78496 0.80877 0.52439 0.0
C209 C 0.80852 0.83409 0.49867 0.0
C210 C 0.85217 0.86881 0.50669 0.0
C211 C 0.87218 0.87927 0.54075 0.0
H212 H 0.78579 0.8023 0.57922 0.0
C213 C 0.84711 0.85501 0.56663 0.0
C214 C 0.8041 0.8202 0.55857 0.0
H215 H 0.8611 0.86243 0.59321 0.0
H216 H 0.56044 0.66438 0.50512 0.0
H217 H 0.63102 0.73103 0.51247 0.0
H218 H 0.7448 0.64329 0.53324 0.0
H219 H 0.67496 0.5769 0.5255 0.0
H220 H 0.76814 0.72784 0.54801 0.0
H221 H 0.71291 0.77294 0.49507 0.0
H222 H 0.79404 0.82621 0.4722 0.0
H223 H 0.87036 0.88719 0.48625 0.0
C224 C 0.71836 0.35362 0.51274 0.0
C225 C 0.66294 0.35372 0.51213 0.0
C226 C 0.73914 0.31423 0.51826 0.0
C227 C 0.70488 0.27384 0.52349 0.0
C228 C 0.64946 0.27426 0.52369 0.0
C229 C 0.62866 0.31389 0.51835 0.0
C230 C 0.72546 0.22977 0.52514 0.0
C231 C 0.77573 0.22754 0.53498 0.0
C232 C 0.80042 0.18467 0.52989 0.0
C233 C 0.85624 0.18871 0.52726 0.0
C234 C 0.88117 0.14988 0.51839 0.0
C235 C 0.85083 0.10592 0.51232 0.0
H236 H 0.72731 0.13557 0.52883 0.0
C237 C 0.79522 0.10152 0.51705 0.0
C238 C 0.77022 0.14044 0.5258 0.0
H239 H 0.7707 0.06809 0.51301 0.0
H240 H 0.7458 0.3839 0.50834 0.0
H241 H 0.78197 0.31525 0.51685 0.0
H242 H 0.62212 0.24353 0.52726 0.0
H243 H 0.58578 0.31278 0.51771 0.0
H244 H 0.69878 0.19851 0.51604 0.0
H245 H 0.80172 0.25904 0.54455 0.0
H246 H 0.88063 0.22224 0.53056 0.0
H247 H 0.92404 0.15463 0.51497 0.0
C248 C 0.33703 0.39458 0.50771 0.0
C249 C 0.39112 0.38918 0.50411 0.0
C250 C 0.29765 0.35658 0.5092 0.0
C251 C 0.31134 0.31201 0.50681 0.0
C252 C 0.36543 0.30666 0.50309 0.0
C253 C 0.4049 0.34475 0.50164 0.0
C254 C 0.27097 0.2708 0.5101 0.0
C255 C 0.21817 0.26914 0.50472 0.0
C256 C 0.17718 0.22963 0.51089 0.0
C257 C 0.12457 0.23771 0.51779 0.0
C258 C 0.08489 0.20216 0.5248 0.0
C259 C 0.09676 0.15743 0.5247 0.0
H260 H 0.22843 0.1765 0.50366 0.0
C261 C 0.14902 0.14889 0.51682 0.0
C262 C 0.18887 0.18458 0.50996 0.0
H263 H 0.15933 0.11469 0.5162 0.0
H264 H 0.32504 0.42837 0.51005 0.0
H265 H 0.25691 0.36281 0.5133 0.0
H266 H 0.37729 0.27287 0.5015 0.0
H267 H 0.44623 0.33939 0.49902 0.0
H268 H 0.28567 0.2412 0.51789 0.0
H269 H 0.20346 0.29862 0.49676 0.0
H270 H 0.11426 0.27193 0.51837 0.0
H271 H 0.04494 0.20987 0.53052 0.0
C272 C 0.28106 0.65 0.5071 0.0
C273 C 0.33668 0.65079 0.50637 0.0
C274 C 0.25869 0.68863 0.50163 0.0
C275 C 0.29148 0.72943 0.49563 0.0
C276 C 0.347 0.72968 0.49354 0.0
C277 C 0.36945 0.69081 0.49891 0.0
C278 C 0.26892 0.77174 0.49077 0.0
C279 C 0.22131 0.78072 0.50389 0.0
C280 C 0.19663 0.82175 0.49859 0.0
C281 C 0.14121 0.81978 0.50302 0.0
C282 C 0.11583 0.85708 0.49808 0.0
C283 C 0.14542 0.8976 0.48896 0.0
H284 H 0.26942 0.86624 0.48737 0.0
C285 C 0.20108 0.90013 0.48527 0.0
C286 C 0.22649 0.86264 0.49002 0.0
H287 H 0.22509 0.93098 0.47845 0.0
H288 H 0.25462 0.61929 0.51176 0.0
H289 H 0.21564 0.68599 0.50179 0.0
H290 H 0.37321 0.76037 0.48845 0.0
H291 H 0.41243 0.69251 0.4982 0.0
H292 H 0.29278 0.7961 0.47623 0.0
H293 H 0.19816 0.75643 0.51882 0.0
H294 H 0.11721 0.78894 0.50991 0.0
H295 H 0.07293 0.85403 0.50129 0.0
C296 C 0.99242 0.0116 0.13199 0.0
C297 C 0.02465 0.98936 0.10755 0.0
C298 C 0.99664 0.00802 0.16718 0.0
C299 C 0.03299 0.98179 0.17877 0.0
C300 C 0.06585 0.96023 0.15441 0.0
C301 C 0.06156 0.96373 0.11913 0.0
C302 C 0.0389 0.9778 0.21611 0.0
C303 C 0.99868 0.98127 0.23898 0.0
C304 C 0.00368 0.98006 0.27684 0.0
C305 C 0.95676 0.97292 0.29634 0.0
C306 C 0.95896 0.97524 0.33234 0.0
C307 C 0.00827 0.985 0.34981 0.0
H308 H 0.09035 0.99561 0.28045 0.0
C309 C 0.05542 0.99105 0.33031 0.0
C310 C 0.05322 0.98881 0.29423 0.0
H311 H 0.09407 0.99891 0.34297 0.0
H312 H 0.96391 0.03197 0.12399 0.0
H313 H 0.97198 0.02658 0.18521 0.0
H314 H 0.09463 0.94029 0.16267 0.0
H315 H 0.08715 0.94634 0.10097 0.0
H316 H 0.0769 0.97028 0.22447 0.0
H317 H 0.95947 0.98447 0.22956 0.0
H318 H 0.91804 0.9663 0.28373 0.0
H319 H 0.92181 0.97037 0.3465 0.0
C320 C 0.03069 0.99325 0.88259 0.0
C321 C 0.99423 0.01232 0.90571 0.0
C322 C 0.03154 -0.00012 0.84779 0.0
C323 C 0.99531 0.02528 0.83501 0.0
C324 C 0.95892 0.04443 0.85817 0.0
C325 C 0.95828 0.038 0.89315 0.0
C326 C 0.99552 0.03381 0.79815 0.0
C327 C 0.0166 0.00731 0.77215 0.0
C328 C 0.01752 0.01486 0.73508 0.0
C329 C 0.05063 0.99114 0.71222 0.0
C330 C 0.05086 0.99471 0.67682 0.0
C331 C 0.01774 0.02205 0.66333 0.0
H332 H 0.95817 0.06132 0.73795 0.0
C333 C 0.98544 0.04667 0.68622 0.0
C334 C 0.98513 0.04305 0.72167 0.0
H335 H 0.95914 0.06781 0.67665 0.0
H336 H 0.05952 0.97384 0.89148 0.0
H337 H 0.06168 0.9859 0.83144 0.0
H338 H 0.93086 0.0645 0.84918 0.0
H339 H 0.92992 0.05341 0.91035 0.0
H340 H 0.97711 0.06274 0.79264 0.0
H341 H 0.0341 0.978 0.7779 0.0
H342 H 0.07599 0.96915 0.72171 0.0
H343 H 0.07618 0.97519 0.65996 0.0
C344 C 0.54676 0.48601 0.6267 0.0
C345 C 0.5092 0.50732 0.61115 0.0
C346 C 0.5498 0.48896 0.66274 0.0
C347 C 0.51489 0.51299 0.68402 0.0
C348 C 0.47761 0.53445 0.6684 0.0
C349 C 0.47465 0.53158 0.63239 0.0
C350 C 0.51712 0.51792 0.72248 0.0
C351 C 0.53936 0.48974 0.74041 0.0
C352 C 0.54019 0.49498 0.7789 0.0
C353 C 0.54333 0.45634 0.79552 0.0
C354 C 0.54268 0.45978 0.83169 0.0
C355 C 0.53923 0.50211 0.85197 0.0
H356 H 0.53834 0.56864 0.78754 0.0
C357 C 0.53783 0.54107 0.83534 0.0
C358 C 0.53859 0.53765 0.79925 0.0
H359 H 0.53594 0.57436 0.85017 0.0
H360 H 0.5743 0.46741 0.61105 0.0
H361 H 0.58025 0.47313 0.67362 0.0
H362 H 0.45052 0.5535 0.68413 0.0
H363 H 0.44534 0.5485 0.62124 0.0
H364 H 0.49726 0.54477 0.73644 0.0
H365 H 0.55482 0.46019 0.72674 0.0
H366 H 0.54532 0.42318 0.78048 0.0
H367 H 0.54414 0.42914 0.84369 0.0
C368 C 0.47308 0.52884 0.38771 0.0
C369 C 0.49769 0.49827 0.40435 0.0
C370 C 0.47688 0.52804 0.3517 0.0
C371 C 0.50522 0.49643 0.33178 0.0
C372 C 0.52835 0.46515 0.34843 0.0
C373 C 0.52501 0.46624 0.38426 0.0
C374 C 0.51114 0.49407 0.29363 0.0
C375 C 0.50922 0.52978 0.27594 0.0
C376 C 0.51756 0.5264 0.23787 0.0
C377 C 0.49285 0.55433 0.21881 0.0
C378 C 0.49784 0.55032 0.18275 0.0
C379 C 0.52817 0.51855 0.16507 0.0
H380 H 0.57155 0.47544 0.23422 0.0
C381 C 0.55493 0.49213 0.18434 0.0
C382 C 0.5499 0.49612 0.22033 0.0
H383 H 0.5792 0.46777 0.17161 0.0
H384 H 0.45154 0.55377 0.40251 0.0
H385 H 0.45716 0.55182 0.33968 0.0
H386 H 0.54994 0.44017 0.3337 0.0
H387 H 0.54413 0.44196 0.39623 0.0
H388 H 0.51914 0.46155 0.27979 0.0
H389 H 0.50047 0.56226 0.28937 0.0
H390 H 0.46842 0.57844 0.23173 0.0
H391 H 0.47697 0.57143 0.1687 0.0
loop_
_geom_bond_atom_site_label_1
_geom_bond_atom_site_label_2
_geom_bond_distance
_geom_bond_site_symmetry_2
_ccdc_geom_bond_type
Co0 N5 2.057 1_554 S
Co0 O17 2.021 . S
Co0 O20 2.062 1_455 S
Co0 O24 2.117 1_554 S
Co0 O25 2.020 1_565 S
C1 O21 1.259 . S
C1 O24 1.258 1_645 S
Co2 N11 2.057 . S
Co2 O18 2.117 . S
Co2 O19 2.020 1_545 S
Co2 O21 2.021 1_554 S
Co2 O26 2.062 1_655 S
C3 N5 1.316 1_554 S
C3 N6 1.361 . S
C3 H8 0.931 . S
C4 N5 1.375 . S
C4 C7 1.350 . S
C4 H9 0.930 . S
N5 Co0 2.057 1_556 S
N5 C3 1.316 1_556 S
N5 C4 1.375 . S
N6 C3 1.361 . S
N6 C7 1.340 1_554 S
C7 C4 1.350 . S
C7 N6 1.340 1_556 S
C7 H28 0.931 . S
H8 C3 0.931 . S
H9 C4 0.930 . S
C10 O17 1.259 1_545 S
C10 O18 1.258 1_455 S
N11 Co2 2.057 . S
N11 C12 1.316 . S
N11 C13 1.375 . S
C12 N11 1.316 . S
C12 N14 1.347 . S
C12 H23 0.931 1_554 S
C13 N11 1.375 . S
C13 C15 1.350 . S
C13 H22 0.930 . S
N14 C12 1.347 . S
N14 C15 1.373 . S
C15 C13 1.350 . S
C15 N14 1.373 . S
C15 H29 0.931 . S
C16 O19 1.256 . S
C16 O20 1.255 . S
O17 Co0 2.021 . S
O17 C10 1.259 1_565 S
O18 Co2 2.117 . S
O18 C10 1.258 1_655 S
O19 Co2 2.020 1_565 S
O19 C16 1.256 . S
O20 Co0 2.062 1_655 S
O20 C16 1.255 . S
O21 C1 1.259 . S
O21 Co2 2.021 1_556 S
H22 C13 0.930 . S
H23 C12 0.931 1_556 S
O24 Co0 2.117 1_556 S
O24 C1 1.258 1_465 S
O25 Co0 2.020 1_545 S
O25 C27 1.256 . S
O26 Co2 2.062 1_455 S
O26 C27 1.255 . S
C27 O25 1.256 . S
C27 O26 1.255 . S
H28 C7 0.931 . S
H29 C15 0.931 . S
Co30 N35 2.057 . S
Co30 O47 2.021 . S
Co30 O50 2.062 . S
Co30 O54 2.117 . S
Co30 O55 2.020 . S
C31 O51 1.259 . S
C31 O54 1.258 . S
Co32 N41 2.057 . S
Co32 O48 2.117 . S
Co32 O49 2.020 . S
Co32 O51 2.021 . S
Co32 O56 2.062 . S
C33 N35 1.316 . S
C33 N36 1.347 . S
C33 H38 0.931 . S
C34 N35 1.375 . S
C34 C37 1.350 . S
C34 H39 0.930 . S
N35 Co30 2.057 . S
N35 C33 1.316 . S
N35 C34 1.375 . S
N36 C33 1.347 . S
N36 C37 1.373 . S
C37 C34 1.350 . S
C37 N36 1.373 . S
C37 H58 0.931 . S
H38 C33 0.931 . S
H39 C34 0.930 . S
C40 O47 1.259 . S
C40 O48 1.258 . S
N41 Co32 2.057 . S
N41 C42 1.316 . S
N41 C43 1.375 . S
C42 N41 1.316 . S
C42 N44 1.347 . S
C42 H53 0.931 . S
C43 N41 1.375 . S
C43 C45 1.350 . S
C43 H52 0.930 . S
N44 C42 1.347 . S
N44 C45 1.373 . S
C45 C43 1.350 . S
C45 N44 1.373 . S
C45 H59 0.931 . S
C46 O49 1.256 . S
C46 O50 1.255 . S
O47 Co30 2.021 . S
O47 C40 1.259 . S
O48 Co32 2.117 . S
O48 C40 1.258 . S
O49 Co32 2.020 . S
O49 C46 1.256 . S
O50 Co30 2.062 . S
O50 C46 1.255 . S
O51 C31 1.259 . S
O51 Co32 2.021 . S
H52 C43 0.930 . S
H53 C42 0.931 . S
O54 Co30 2.117 . S
O54 C31 1.258 . S
O55 Co30 2.020 . S
O55 C57 1.256 . S
O56 Co32 2.062 . S
O56 C57 1.255 . S
C57 O55 1.256 . S
C57 O56 1.255 . S
H58 C37 0.931 . S
H59 C45 0.931 . S
O60 Cd61 2.300 . S
O60 C67 1.275 1_565 S
Cd61 O60 2.300 . S
Cd61 O69 2.381 . S
Cd61 O70 2.378 . S
O62 Cd63 2.385 . S
O62 C67 1.255 . S
Cd63 O62 2.385 . S
Cd63 O64 2.317 1_455 S
O64 Cd63 2.317 1_655 S
O64 C65 1.232 . S
C65 O64 1.232 . S
C65 O66 1.218 . S
O66 C65 1.218 . S
C67 O60 1.275 1_545 S
C67 O62 1.255 . S
C68 O69 1.258 . S
C68 O70 1.256 . S
O69 Cd61 2.381 . S
O69 C68 1.258 . S
O70 Cd61 2.378 . S
O70 C68 1.256 . S
O71 Cd72 2.300 . S
O71 C78 1.259 1_545 S
Cd72 O71 2.300 . S
Cd72 O80 2.381 . S
Cd72 O81 2.378 . S
O73 Cd74 2.385 . S
O73 C78 1.269 . S
Cd74 O73 2.385 . S
Cd74 O75 2.317 1_455 S
O75 Cd74 2.317 1_655 S
O75 C76 1.232 . S
C76 O75 1.232 . S
C76 O77 1.218 . S
O77 C76 1.218 . S
C78 O71 1.259 1_565 S
C78 O73 1.269 . S
C79 O80 1.258 . S
C79 O81 1.256 . S
O80 Cd72 2.381 . S
O80 C79 1.258 . S
O81 Cd72 2.378 . S
O81 C79 1.256 . S
O82 Cd83 2.300 . S
O82 C89 1.275 . S
Cd83 O82 2.300 . S
Cd83 O91 2.381 . S
Cd83 O92 2.378 . S
O84 Cd85 2.385 . S
O84 C89 1.255 . S
Cd85 O84 2.385 . S
Cd85 O86 2.317 . S
O86 Cd85 2.317 . S
O86 C87 1.232 . S
C87 O86 1.232 . S
C87 O88 1.218 . S
O88 C87 1.218 . S
C89 O82 1.275 . S
C89 O84 1.255 . S
C90 O91 1.258 . S
C90 O92 1.256 . S
O91 Cd83 2.381 . S
O91 C90 1.258 . S
O92 Cd83 2.378 . S
O92 C90 1.256 . S
O93 Cd94 2.300 . S
O93 C100 1.275 . S
Cd94 O93 2.300 . S
Cd94 O102 2.381 . S
Cd94 O103 2.378 . S
O95 Cd96 2.385 . S
O95 C100 1.255 . S
Cd96 O95 2.385 . S
Cd96 O97 2.317 . S
O97 Cd96 2.317 . S
O97 C98 1.232 . S
C98 O97 1.232 . S
C98 O99 1.218 . S
O99 C98 1.218 . S
C100 O93 1.275 . S
C100 O95 1.255 . S
C101 O102 1.258 . S
C101 O103 1.256 . S
O102 Cd94 2.381 . S
O102 C101 1.258 . S
O103 Cd94 2.378 . S
O103 C101 1.256 . S
C104 C105 1.386 . S
C104 C106 1.383 . S
C104 H120 0.951 . S
C105 C104 1.386 . S
C105 C109 1.383 . S
C106 C104 1.383 . S
C106 C107 1.402 . S
C106 H121 0.951 . S
C107 C106 1.402 . S
C107 C108 1.375 . S
C107 C110 1.481 . S
C108 C107 1.375 . S
C108 C109 1.367 . S
C108 H122 0.951 . S
C109 C105 1.383 . S
C109 C108 1.367 . S
C109 H123 0.950 . S
C110 C107 1.481 . S
C110 C111 1.297 . S
C110 H124 0.950 . S
C111 C110 1.297 . S
C111 C112 1.479 . S
C111 H125 0.950 . S
C112 C111 1.479 . S
C112 C113 1.375 . S
C112 C118 1.404 . S
C113 C112 1.375 . S
C113 C114 1.369 . S
C113 H126 0.950 . S
C114 C113 1.369 . S
C114 C115 1.392 . S
C114 H127 0.951 . S
C115 C114 1.392 . S
C115 C117 1.384 . S
H116 C118 0.949 . S
C117 C115 1.384 . S
C117 C118 1.385 . S
C117 H119 0.950 . S
C118 C112 1.404 . S
C118 H116 0.949 . S
C118 C117 1.385 . S
H119 C117 0.950 . S
H120 C104 0.951 . S
H121 C106 0.951 . S
H122 C108 0.951 . S
H123 C109 0.950 . S
H124 C110 0.950 . S
H125 C111 0.950 . S
H126 C113 0.950 . S
H127 C114 0.951 . S
C128 C129 1.386 . S
C128 C130 1.383 . S
C128 H144 0.951 . S
C129 C128 1.386 . S
C129 C133 1.383 1_554 S
C130 C128 1.383 . S
C130 C131 1.402 1_554 S
C130 H145 0.951 . S
C131 C130 1.402 1_556 S
C131 C132 1.375 . S
C131 C134 1.481 . S
C132 C131 1.375 . S
C132 C133 1.367 . S
C132 H146 0.951 . S
C133 C129 1.383 1_556 S
C133 C132 1.367 . S
C133 H147 0.950 . S
C134 C131 1.481 . S
C134 C135 1.297 1_556 S
C134 H148 0.950 . S
C135 C134 1.297 1_554 S
C135 C136 1.479 . S
C135 H149 0.950 . S
C136 C135 1.479 . S
C136 C137 1.375 . S
C136 C142 1.404 1_554 S
C137 C136 1.375 . S
C137 C138 1.369 . S
C137 H150 0.950 . S
C138 C137 1.369 . S
C138 C139 1.392 1_554 S
C138 H151 0.951 . S
C139 C138 1.392 1_556 S
C139 C141 1.384 . S
H140 C142 0.949 . S
C141 C139 1.384 . S
C141 C142 1.385 . S
C141 H143 0.950 . S
C142 C136 1.404 1_556 S
C142 H140 0.949 . S
C142 C141 1.385 . S
H143 C141 0.950 . S
H144 C128 0.951 . S
H145 C130 0.951 . S
H146 C132 0.951 . S
H147 C133 0.950 . S
H148 C134 0.950 . S
H149 C135 0.950 . S
H150 C137 0.950 . S
H151 C138 0.951 . S
C152 C153 1.386 1_556 S
C152 C154 1.383 . S
C152 H168 0.951 . S
C153 C152 1.386 1_554 S
C153 C157 1.383 . S
C154 C152 1.383 . S
C154 C155 1.402 1_556 S
C154 H169 0.951 . S
C155 C154 1.402 1_554 S
C155 C156 1.375 . S
C155 C158 1.481 . S
C156 C155 1.375 . S
C156 C157 1.367 . S
C156 H170 0.951 . S
C157 C153 1.383 . S
C157 C156 1.367 . S
C157 H171 0.950 . S
C158 C155 1.481 . S
C158 C159 1.297 . S
C158 H172 0.950 . S
C159 C158 1.297 . S
C159 C160 1.479 . S
C159 H173 0.950 1_554 S
C160 C159 1.479 . S
C160 C161 1.375 1_554 S
C160 C166 1.404 . S
C161 C160 1.375 1_556 S
C161 C162 1.369 . S
C161 H174 0.950 . S
C162 C161 1.369 . S
C162 C163 1.392 1_556 S
C162 H175 0.951 . S
C163 C162 1.392 1_554 S
C163 C165 1.384 . S
H164 C166 0.949 . S
C165 C163 1.384 . S
C165 C166 1.385 . S
C165 H167 0.950 . S
C166 C160 1.404 . S
C166 H164 0.949 . S
C166 C165 1.385 . S
H167 C165 0.950 . S
H168 C152 0.951 . S
H169 C154 0.951 . S
H170 C156 0.951 . S
H171 C157 0.950 . S
H172 C158 0.950 . S
H173 C159 0.950 1_556 S
H174 C161 0.950 . S
H175 C162 0.951 . S
C176 C177 1.386 1_556 S
C176 C178 1.383 . S
C176 H192 0.951 . S
C177 C176 1.386 1_554 S
C177 C181 1.383 . S
C178 C176 1.383 . S
C178 C179 1.402 1_556 S
C178 H193 0.951 . S
C179 C178 1.402 1_554 S
C179 C180 1.375 . S
C179 C182 1.481 . S
C180 C179 1.375 . S
C180 C181 1.367 . S
C180 H194 0.951 . S
C181 C177 1.383 . S
C181 C180 1.367 . S
C181 H195 0.950 . S
C182 C179 1.481 . S
C182 C183 1.297 1_554 S
C182 H196 0.950 . S
C183 C182 1.297 1_556 S
C183 C184 1.479 . S
C183 H197 0.950 . S
C184 C183 1.479 . S
C184 C185 1.375 . S
C184 C190 1.404 1_556 S
C185 C184 1.375 . S
C185 C186 1.369 . S
C185 H198 0.950 . S
C186 C185 1.369 . S
C186 C187 1.392 . S
C186 H199 0.951 . S
C187 C186 1.392 . S
C187 C189 1.384 1_556 S
H188 C190 0.949 . S
C189 C187 1.384 1_554 S
C189 C190 1.385 . S
C189 H191 0.950 . S
C190 C184 1.404 1_554 S
C190 H188 0.949 . S
C190 C189 1.385 . S
H191 C189 0.950 . S
H192 C176 0.951 . S
H193 C178 0.951 . S
H194 C180 0.951 . S
H195 C181 0.950 . S
H196 C182 0.950 . S
H197 C183 0.950 . S
H198 C185 0.950 . S
H199 C186 0.951 . S
C200 C201 1.386 . S
C200 C202 1.383 . S
C200 H216 0.951 . S
C201 C200 1.386 . S
C201 C205 1.383 . S
C202 C200 1.383 . S
C202 C203 1.402 . S
C202 H217 0.951 . S
C203 C202 1.402 . S
C203 C204 1.375 . S
C203 C206 1.481 . S
C204 C203 1.375 . S
C204 C205 1.367 . S
C204 H218 0.951 . S
C205 C201 1.383 . S
C205 C204 1.367 . S
C205 H219 0.950 . S
C206 C203 1.481 . S
C206 C207 1.297 . S
C206 H220 0.950 . S
C207 C206 1.297 . S
C207 C208 1.479 . S
C207 H221 0.950 . S
C208 C207 1.479 . S
C208 C209 1.375 . S
C208 C214 1.404 . S
C209 C208 1.375 . S
C209 C210 1.369 . S
C209 H222 0.950 . S
C210 C209 1.369 . S
C210 C211 1.392 . S
C210 H223 0.951 . S
C211 C210 1.392 . S
C211 C213 1.384 . S
H212 C214 0.949 . S
C213 C211 1.384 . S
C213 C214 1.385 . S
C213 H215 0.950 . S
C214 C208 1.404 . S
C214 H212 0.949 . S
C214 C213 1.385 . S
H215 C213 0.950 . S
H216 C200 0.951 . S
H217 C202 0.951 . S
H218 C204 0.951 . S
H219 C205 0.950 . S
H220 C206 0.950 . S
H221 C207 0.950 . S
H222 C209 0.950 . S
H223 C210 0.951 . S
C224 C225 1.386 . S
C224 C226 1.383 . S
C224 H240 0.951 . S
C225 C224 1.386 . S
C225 C229 1.383 . S
C226 C224 1.383 . S
C226 C227 1.402 . S
C226 H241 0.951 . S
C227 C226 1.402 . S
C227 C228 1.375 . S
C227 C230 1.481 . S
C228 C227 1.375 . S
C228 C229 1.367 . S
C228 H242 0.951 . S
C229 C225 1.383 . S
C229 C228 1.367 . S
C229 H243 0.950 . S
C230 C227 1.481 . S
C230 C231 1.297 . S
C230 H244 0.950 . S
C231 C230 1.297 . S
C231 C232 1.479 . S
C231 H245 0.950 . S
C232 C231 1.479 . S
C232 C233 1.375 . S
C232 C238 1.404 . S
C233 C232 1.375 . S
C233 C234 1.369 . S
C233 H246 0.950 . S
C234 C233 1.369 . S
C234 C235 1.392 . S
C234 H247 0.951 . S
C235 C234 1.392 . S
C235 C237 1.384 . S
H236 C238 0.949 . S
C237 C235 1.384 . S
C237 C238 1.385 . S
C237 H239 0.950 . S
C238 C232 1.404 . S
C238 H236 0.949 . S
C238 C237 1.385 . S
H239 C237 0.950 . S
H240 C224 0.951 . S
H241 C226 0.951 . S
H242 C228 0.951 . S
H243 C229 0.950 . S
H244 C230 0.950 . S
H245 C231 0.950 . S
H246 C233 0.950 . S
H247 C234 0.951 . S
C248 C249 1.386 . S
C248 C250 1.383 . S
C248 H264 0.951 . S
C249 C248 1.386 . S
C249 C253 1.383 . S
C250 C248 1.383 . S
C250 C251 1.402 . S
C250 H265 0.951 . S
C251 C250 1.402 . S
C251 C252 1.375 . S
C251 C254 1.481 . S
C252 C251 1.375 . S
C252 C253 1.367 . S
C252 H266 0.951 . S
C253 C249 1.383 . S
C253 C252 1.367 . S
C253 H267 0.950 . S
C254 C251 1.481 . S
C254 C255 1.297 . S
C254 H268 0.950 . S
C255 C254 1.297 . S
C255 C256 1.479 . S
C255 H269 0.950 . S
C256 C255 1.479 . S
C256 C257 1.375 . S
C256 C262 1.404 . S
C257 C256 1.375 . S
C257 C258 1.369 . S
C257 H270 0.950 . S
C258 C257 1.369 . S
C258 C259 1.392 . S
C258 H271 0.951 . S
C259 C258 1.392 . S
C259 C261 1.384 . S
H260 C262 0.949 . S
C261 C259 1.384 . S
C261 C262 1.385 . S
C261 H263 0.950 . S
C262 C256 1.404 . S
C262 H260 0.949 . S
C262 C261 1.385 . S
H263 C261 0.950 . S
H264 C248 0.951 . S
H265 C250 0.951 . S
H266 C252 0.951 . S
H267 C253 0.950 . S
H268 C254 0.950 . S
H269 C255 0.950 . S
H270 C257 0.950 . S
H271 C258 0.951 . S
C272 C273 1.386 . S
C272 C274 1.383 . S
C272 H288 0.951 . S
C273 C272 1.386 . S
C273 C277 1.383 . S
C274 C272 1.383 . S
C274 C275 1.402 . S
C274 H289 0.951 . S
C275 C274 1.402 . S
C275 C276 1.375 . S
C275 C278 1.481 . S
C276 C275 1.375 . S
C276 C277 1.367 . S
C276 H290 0.951 . S
C277 C273 1.383 . S
C277 C276 1.367 . S
C277 H291 0.950 . S
C278 C275 1.481 . S
C278 C279 1.297 . S
C278 H292 0.950 . S
C279 C278 1.297 . S
C279 C280 1.479 . S
C279 H293 0.950 . S
C280 C279 1.479 . S
C280 C281 1.375 . S
C280 C286 1.404 . S
C281 C280 1.375 . S
C281 C282 1.369 . S
C281 H294 0.950 . S
C282 C281 1.369 . S
C282 C283 1.392 . S
C282 H295 0.951 . S
C283 C282 1.392 . S
C283 C285 1.384 . S
H284 C286 0.949 . S
C285 C283 1.384 . S
C285 C286 1.385 . S
C285 H287 0.950 . S
C286 C280 1.404 . S
C286 H284 0.949 . S
C286 C285 1.385 . S
H287 C285 0.950 . S
H288 C272 0.951 . S
H289 C274 0.951 . S
H290 C276 0.951 . S
H291 C277 0.950 . S
H292 C278 0.950 . S
H293 C279 0.950 . S
H294 C281 0.950 . S
H295 C282 0.951 . S
C296 C297 1.386 1_655 S
C296 C298 1.383 . S
C296 H312 0.951 . S
C297 C296 1.386 1_455 S
C297 C301 1.383 1_545 S
C298 C296 1.383 . S
C298 C299 1.402 1_645 S
C298 H313 0.951 . S
C299 C298 1.402 1_465 S
C299 C300 1.375 . S
C299 C302 1.481 . S
C300 C299 1.375 . S
C300 C301 1.367 . S
C300 H314 0.951 . S
C301 C297 1.383 1_565 S
C301 C300 1.367 . S
C301 H315 0.950 . S
C302 C299 1.481 . S
C302 C303 1.297 1_465 S
C302 H316 0.950 . S
C303 C302 1.297 1_645 S
C303 C304 1.479 . S
C303 H317 0.950 . S
C304 C303 1.479 . S
C304 C305 1.375 . S
C304 C310 1.404 1_645 S
C305 C304 1.375 . S
C305 C306 1.369 . S
C305 H318 0.950 . S
C306 C305 1.369 . S
C306 C307 1.392 . S
C306 H319 0.951 . S
C307 C306 1.392 . S
C307 C309 1.384 1_645 S
H308 C310 0.949 . S
C309 C307 1.384 1_465 S
C309 C310 1.385 . S
C309 H311 0.950 . S
C310 C304 1.404 1_465 S
C310 H308 0.949 . S
C310 C309 1.385 . S
H311 C309 0.950 . S
H312 C296 0.951 . S
H313 C298 0.951 . S
H314 C300 0.951 . S
H315 C301 0.950 . S
H316 C302 0.950 . S
H317 C303 0.950 . S
H318 C305 0.950 . S
H319 C306 0.951 . S
C320 C321 1.386 1_445 S
C320 C322 1.383 . S
C320 H336 0.951 . S
C321 C320 1.386 1_665 S
C321 C325 1.383 . S
C322 C320 1.383 . S
C322 C323 1.402 1_445 S
C322 H337 0.951 . S
C323 C322 1.402 1_665 S
C323 C324 1.375 . S
C323 C326 1.481 . S
C324 C323 1.375 . S
C324 C325 1.367 . S
C324 H338 0.951 . S
C325 C321 1.383 . S
C325 C324 1.367 . S
C325 H339 0.950 . S
C326 C323 1.481 . S
C326 C327 1.297 1_655 S
C326 H340 0.950 . S
C327 C326 1.297 1_455 S
C327 C328 1.479 . S
C327 H341 0.950 . S
C328 C327 1.479 . S
C328 C329 1.375 1_565 S
C328 C334 1.404 1_455 S
C329 C328 1.375 1_545 S
C329 C330 1.369 . S
C329 H342 0.950 . S
C330 C329 1.369 . S
C330 C331 1.392 1_545 S
C330 H343 0.951 . S
C331 C330 1.392 1_565 S
C331 C333 1.384 1_455 S
H332 C334 0.949 . S
C333 C331 1.384 1_655 S
C333 C334 1.385 . S
C333 H335 0.950 . S
C334 C328 1.404 1_655 S
C334 H332 0.949 . S
C334 C333 1.385 . S
H335 C333 0.950 . S
H336 C320 0.951 . S
H337 C322 0.951 . S
H338 C324 0.951 . S
H339 C325 0.950 . S
H340 C326 0.950 . S
H341 C327 0.950 . S
H342 C329 0.950 . S
H343 C330 0.951 . S
C344 C345 1.386 . S
C344 C346 1.383 . S
C344 H360 0.951 . S
C345 C344 1.386 . S
C345 C349 1.383 . S
C346 C344 1.383 . S
C346 C347 1.402 . S
C346 H361 0.951 . S
C347 C346 1.402 . S
C347 C348 1.375 . S
C347 C350 1.481 . S
C348 C347 1.375 . S
C348 C349 1.367 . S
C348 H362 0.951 . S
C349 C345 1.383 . S
C349 C348 1.367 . S
C349 H363 0.950 . S
C350 C347 1.481 . S
C350 C351 1.297 . S
C350 H364 0.950 . S
C351 C350 1.297 . S
C351 C352 1.479 . S
C351 H365 0.950 . S
C352 C351 1.479 . S
C352 C353 1.375 . S
C352 C358 1.404 . S
C353 C352 1.375 . S
C353 C354 1.369 . S
C353 H366 0.950 . S
C354 C353 1.369 . S
C354 C355 1.392 . S
C354 H367 0.951 . S
C355 C354 1.392 . S
C355 C357 1.384 . S
H356 C358 0.949 . S
C357 C355 1.384 . S
C357 C358 1.385 . S
C357 H359 0.950 . S
C358 C352 1.404 . S
C358 H356 0.949 . S
C358 C357 1.385 . S
H359 C357 0.950 . S
H360 C344 0.951 . S
H361 C346 0.951 . S
H362 C348 0.951 . S
H363 C349 0.950 . S
H364 C350 0.950 . S
H365 C351 0.950 . S
H366 C353 0.950 . S
H367 C354 0.951 . S
C368 C369 1.386 . S
C368 C370 1.383 . S
C368 H384 0.951 . S
C369 C368 1.386 . S
C369 C373 1.383 . S
C370 C368 1.383 . S
C370 C371 1.402 . S
C370 H385 0.951 . S
C371 C370 1.402 . S
C371 C372 1.375 . S
C371 C374 1.481 . S
C372 C371 1.375 . S
C372 C373 1.367 . S
C372 H386 0.951 . S
C373 C369 1.383 . S
C373 C372 1.367 . S
C373 H387 0.950 . S
C374 C371 1.481 . S
C374 C375 1.297 . S
C374 H388 0.950 . S
C375 C374 1.297 . S
C375 C376 1.479 . S
C375 H389 0.950 . S
C376 C375 1.479 . S
C376 C377 1.375 . S
C376 C382 1.404 . S
C377 C376 1.375 . S
C377 C378 1.369 . S
C377 H390 0.950 . S
C378 C377 1.369 . S
C378 C379 1.392 . S
C378 H391 0.951 . S
C379 C378 1.392 . S
C379 C381 1.384 . S
H380 C382 0.949 . S
C381 C379 1.384 . S
C381 C382 1.385 . S
C381 H383 0.950 . S
C382 C376 1.404 . S
C382 H380 0.949 . S
C382 C381 1.385 . S
H383 C381 0.950 . S
H384 C368 0.951 . S
H385 C370 0.951 . S
H386 C372 0.951 . S
H387 C373 0.950 . S
H388 C374 0.950 . S
H389 C375 0.950 . S
H390 C377 0.950 . S
H391 C378 0.951 . S
C115 C98 1.209 . S
C105 C27 1.460 . S
C129 N6 1.419 . S
C139 C87 1.300 . S
C153 C16 1.417 . S
C163 C101 1.367 . S
C177 N14 1.372 . S
C187 C90 1.388 . S
C201 C57 1.460 . S
C211 C76 1.275 . S
C225 N36 1.410 . S
C235 C65 1.301 . S
C259 C79 1.425 . S
C249 C46 1.430 . S
C283 C68 1.390 . S
C273 N44 1.402 . S
C297 C10 1.445 . S
C307 C67 1.432 1_655 S
C321 C1 1.527 1_565 S
C331 C78 1.461 . S
C355 C89 1.370 . S
C345 C40 1.456 . S
C369 C31 1.532 . S
C379 C100 1.432 . S
