# Generated by pormake.
# Topology pth, (4,4)-cn, num edge types: 1
# Building blocks:
#     Node 0, Type 0, BuildingBlock: TATPOV_clean_sbu_0, # of connection points: 4
#     Node 1, Type 0, BuildingBlock: TATPOV_clean_sbu_0, # of connection points: 4
#     Node 2, Type 0, BuildingBlock: TATPOV_clean_sbu_0, # of connection points: 4
#     Node 3, Type 1, BuildingBlock: NAWXER_clean_sbu_0, # of connection points: 4
#     Node 4, Type 1, BuildingBlock: NAWXER_clean_sbu_0, # of connection points: 4
#     Node 5, Type 1, BuildingBlock: NAWXER_clean_sbu_0, # of connection points: 4
#     Edge 6, Type (0, 1), BuildingBlock: TEMPAE_clean_linker_10, # of connection points: 2
#     Edge 7, Type (0, 1), BuildingBlock: TEMPAE_clean_linker_10, # of connection points: 2
#     Edge 8, Type (0, 1), BuildingBlock: TEMPAE_clean_linker_10, # of connection points: 2
#     Edge 9, Type (0, 1), BuildingBlock: TEMPAE_clean_linker_10, # of connection points: 2
#     Edge 10, Type (0, 1), BuildingBlock: TEMPAE_clean_linker_10, # of connection points: 2
#     Edge 11, Type (0, 1), BuildingBlock: TEMPAE_clean_linker_10, # of connection points: 2
#     Edge 12, Type (0, 1), BuildingBlock: TEMPAE_clean_linker_10, # of connection points: 2
#     Edge 13, Type (0, 1), BuildingBlock: TEMPAE_clean_linker_10, # of connection points: 2
#     Edge 14, Type (0, 1), BuildingBlock: TEMPAE_clean_linker_10, # of connection points: 2
#     Edge 15, Type (0, 1), BuildingBlock: TEMPAE_clean_linker_10, # of connection points: 2
#     Edge 16, Type (0, 1), BuildingBlock: TEMPAE_clean_linker_10, # of connection points: 2
#     Edge 17, Type (0, 1), BuildingBlock: TEMPAE_clean_linker_10, # of connection points: 2
# Relax obj value: 0.048
# Max RMSD: 0.172
# Mean RMSD: 0.098
data_MOF--net-pth--node1-TATPOV_clean_sbu_0--node2-NAWXER_clean_sbu_0--edge1-TEMPAE_clean_linker_10
_symmetry_space_group_name_H-M    P1
_symmetry_Int_Tables_number       1
_symmetry_cell_setting            triclinic
loop_
_symmetry_equiv_pos_as_xyz
'x, y, z'
_cell_length_a     23.403418
_cell_length_b     23.168801
_cell_length_c     56.834129
_cell_angle_alpha  92.477166
_cell_angle_beta   92.139099
_cell_angle_gamma 121.10495
loop_
_atom_site_label
_atom_site_type_symbol
_atom_site_fract_x
_atom_site_fract_y
_atom_site_fract_z
_atom_type_partial_charge
Zn0 Zn 0.19546 0.03884 0.03861 0.0
Zn1 Zn 0.13042 0.08897 0.06147 0.0
O2 O 0.14148 0.02872 0.0843 0.0
O3 O 0.19817 0.9895 0.06694 0.0
O4 O 0.10316 0.14074 0.08334 0.0
O5 O 0.27057 0.13033 0.03036 0.0
O6 O 0.21048 0.16699 0.04657 0.0
C7 C 0.16716 0.99185 0.08441 0.0
C8 C 0.05789 0.99271 0.01931 0.0
O9 O 0.05466 0.02806 0.0365 0.0
O10 O 0.111 0.99173 0.01667 0.0
C11 C 0.11377 0.19874 0.07889 0.0
O12 O 0.13306 0.2209 0.05804 0.0
C13 C 0.26067 0.17817 0.03522 0.0
Zn14 Zn 0.20904 0.1969 0.37658 0.0
Zn15 Zn 0.10603 0.13212 0.40216 0.0
O16 O 0.19051 0.15881 0.42353 0.0
O17 O 0.278 0.21832 0.40325 0.0
O18 O 0.03545 0.10883 0.42581 0.0
O19 O 0.18398 0.26247 0.36509 0.0
O20 O 0.0924 0.19845 0.38277 0.0
C21 C 0.25365 0.19042 0.422 0.0
C22 C 0.12054 0.0499 0.36401 0.0
O23 O 0.0869 0.04859 0.38139 0.0
O24 O 0.17001 0.10533 0.35855 0.0
C25 C 0.0519 0.15646 0.44166 0.0
O26 O 0.11127 0.21154 0.44166 0.0
C27 C 0.1252 0.24645 0.36954 0.0
Zn28 Zn 0.08324 0.90477 0.74835 0.0
Zn29 Zn 0.0396 0.9656 0.72089 0.0
O30 O 0.10072 0.94667 0.70104 0.0
O31 O 0.13466 0.89236 0.7227 0.0
O32 O 0.98739 0.98381 0.69608 0.0
O33 O 0.99185 0.83269 0.75726 0.0
O34 O 0.96069 0.89305 0.73805 0.0
C35 C 0.13569 0.91943 0.70371 0.0
C36 C 0.13095 0.04868 0.76231 0.0
O37 O 0.09909 0.04891 0.74361 0.0
O38 O 0.12921 0.99515 0.76762 0.0
C39 C 0.94617 0.92984 0.68355 0.0
O40 O 0.94609 0.87421 0.68729 0.0
C41 C 0.94675 0.84477 0.75109 0.0
C42 C 0.10083 0.66477 0.26839 0.0
C43 C 0.1082 0.51131 0.20733 0.0
O44 O 0.15313 0.66306 0.26415 0.0
Zn45 Zn 0.11102 0.59065 0.23873 0.0
O46 O 0.04556 0.62412 0.2565 0.0
Zn47 Zn 0.00402 0.546 0.22901 0.0
O48 O 0.94007 0.4681 0.24579 0.0
O49 O 0.04586 0.50832 0.25786 0.0
O50 O 0.05115 0.50535 0.20927 0.0
O51 O 0.15802 0.55483 0.22094 0.0
O52 O 0.08782 0.64 0.21303 0.0
O53 O 0.97875 0.58816 0.20465 0.0
C54 C 0.98355 0.46624 0.25938 0.0
C55 C 0.03781 0.63624 0.20154 0.0
C56 C 0.60993 0.95349 0.57803 0.0
C57 C 0.51064 0.04948 0.52694 0.0
O58 O 0.57041 0.9223 0.55979 0.0
Zn59 Zn 0.55788 0.99629 0.55145 0.0
O60 O 0.62658 0.0142 0.58422 0.0
Zn61 Zn 0.611 0.09153 0.57299 0.0
O62 O 0.56749 0.10413 0.59976 0.0
O63 O 0.50579 0.00454 0.58009 0.0
O64 O 0.54991 0.08948 0.54417 0.0
O65 O 0.50144 0.99036 0.52401 0.0
O66 O 0.65577 0.06443 0.54198 0.0
O67 O 0.70177 0.15908 0.56499 0.0
C68 C 0.51334 0.0467 0.59705 0.0
C69 C 0.70556 0.12342 0.54813 0.0
C70 C 0.47244 0.5414 0.92718 0.0
C71 C 0.57584 0.64494 0.85495 0.0
O72 O 0.46106 0.58144 0.91609 0.0
Zn73 Zn 0.52123 0.59566 0.89093 0.0
O74 O 0.51222 0.52397 0.91931 0.0
Zn75 Zn 0.57354 0.54098 0.89087 0.0
O76 O 0.66123 0.58208 0.9075 0.0
O77 O 0.61725 0.64656 0.90953 0.0
O78 O 0.59192 0.60385 0.86267 0.0
O79 O 0.53653 0.65719 0.86605 0.0
O80 O 0.46994 0.49934 0.87175 0.0
O81 O 0.53154 0.45258 0.87393 0.0
C82 C 0.66545 0.63711 0.91463 0.0
C83 C 0.47823 0.44997 0.86645 0.0
C84 C 0.0998 0.22389 0.12098 0.0
C85 C 0.11357 0.24452 0.09796 0.0
C86 C 0.10353 0.2683 0.13945 0.0
C87 C 0.12129 0.33493 0.13481 0.0
C88 C 0.13557 0.35617 0.11165 0.0
C89 C 0.13151 0.31077 0.09353 0.0
C90 C 0.08764 0.24363 0.16388 0.0
C91 C 0.15422 0.42662 0.10594 0.0
C92 C 0.05677 0.42191 0.17416 0.0
C93 C 0.11361 0.46689 0.18903 0.0
C94 C 0.05887 0.37894 0.1566 0.0
C95 C 0.11931 0.38048 0.15368 0.0
C96 C 0.17705 0.4255 0.16858 0.0
C97 C 0.17357 0.46835 0.18611 0.0
C98 C 0.99616 0.33194 0.14109 0.0
C99 C 0.24237 0.42837 0.16596 0.0
H100 H 0.08642 0.17303 0.12464 0.0
H101 H 0.14277 0.32746 0.07587 0.0
H102 H 0.12949 0.27821 0.17687 0.0
H103 H 0.04256 0.24374 0.1692 0.0
H104 H 0.07838 0.19172 0.16487 0.0
H105 H 0.16745 0.43651 0.08737 0.0
H106 H 0.11175 0.434 0.10891 0.0
H107 H 0.19729 0.4647 0.11784 0.0
H108 H 0.01003 0.42015 0.17615 0.0
H109 H 0.21764 0.5028 0.19749 0.0
H110 H 0.98226 0.27875 0.14269 0.0
H111 H 0.0053 0.34266 0.12232 0.0
H112 H 0.95307 0.33684 0.14571 0.0
H113 H 0.23547 0.37787 0.16822 0.0
H114 H 0.28256 0.46572 0.179 0.0
H115 H 0.25892 0.44196 0.14793 0.0
C116 C 0.02849 0.19934 0.47897 0.0
C117 C 0.00464 0.15304 0.45905 0.0
C118 C 0.98469 0.19998 0.49507 0.0
C119 C 0.9151 0.15379 0.49104 0.0
C120 C 0.89065 0.10661 0.47104 0.0
C121 C 0.93577 0.10646 0.45537 0.0
C122 C 0.0129 0.25019 0.51637 0.0
C123 C 0.81671 0.05675 0.46604 0.0
C124 C 0.79888 0.10602 0.54099 0.0
C125 C 0.76842 0.1436 0.5371 0.0
C126 C 0.84876 0.11106 0.52678 0.0
C127 C 0.86781 0.15394 0.50792 0.0
C128 C 0.83901 0.19421 0.50455 0.0
C129 C 0.78943 0.18851 0.51924 0.0
C130 C 0.87841 0.06773 0.53122 0.0
C131 C 0.85778 0.24035 0.48461 0.0
H132 H 0.0817 0.23534 0.48203 0.0
H133 H 0.91692 0.07088 0.43995 0.0
H134 H 0.99185 0.28348 0.51613 0.0
H135 H 0.99821 0.22312 0.53277 0.0
H136 H 0.06833 0.28227 0.51711 0.0
H137 H 0.80566 0.02408 0.44957 0.0
H138 H 0.79669 0.02401 0.48095 0.0
H139 H 0.78962 0.08419 0.46442 0.0
H140 H 0.78135 0.07022 0.55456 0.0
H141 H 0.76444 0.21611 0.5159 0.0
H142 H 0.93383 0.09879 0.53199 0.0
H143 H 0.86201 0.02845 0.51643 0.0
H144 H 0.86298 0.04219 0.54792 0.0
H145 H 0.9129 0.27415 0.48497 0.0
H146 H 0.83468 0.27186 0.48543 0.0
H147 H 0.84119 0.20967 0.46747 0.0
C148 C 0.82927 0.8196 0.75371 0.0
C149 C 0.88094 0.80953 0.76154 0.0
C150 C 0.77021 0.79418 0.76562 0.0
C151 C 0.76313 0.75875 0.78603 0.0
C152 C 0.81416 0.74654 0.79353 0.0
C153 C 0.87209 0.77157 0.7811 0.0
C154 C 0.71636 0.80692 0.75678 0.0
C155 C 0.80869 0.70897 0.81523 0.0
C156 C 0.65723 0.74831 0.83637 0.0
C157 C 0.60793 0.67962 0.83399 0.0
C158 C 0.70551 0.77672 0.81965 0.0
C159 C 0.7035 0.7353 0.80011 0.0
C160 C 0.64937 0.66772 0.79645 0.0
C161 C 0.60271 0.64041 0.81364 0.0
C162 C 0.76249 0.84892 0.82429 0.0
C163 C 0.64431 0.6222 0.77564 0.0
H164 H 0.83556 0.84871 0.73855 0.0
H165 H 0.91172 0.76374 0.78735 0.0
H166 H 0.66698 0.75914 0.75517 0.0
H167 H 0.71284 0.84213 0.76966 0.0
H168 H 0.72645 0.82917 0.73939 0.0
H169 H 0.85256 0.70334 0.81861 0.0
H170 H 0.80435 0.73628 0.83093 0.0
H171 H 0.76291 0.65791 0.81325 0.0
H172 H 0.66196 0.77811 0.85238 0.0
H173 H 0.56488 0.58696 0.81202 0.0
H174 H 0.77318 0.87598 0.80789 0.0
H175 H 0.80836 0.84938 0.83036 0.0
H176 H 0.75177 0.87695 0.83804 0.0
H177 H 0.65633 0.64933 0.75923 0.0
H178 H 0.5936 0.57615 0.77291 0.0
H179 H 0.68102 0.60617 0.77873 0.0
C180 C 0.11577 0.94551 0.12227 0.0
C181 C 0.15208 0.94454 0.10328 0.0
C182 C 0.09366 0.89577 0.13864 0.0
C183 C 0.10796 0.84358 0.13595 0.0
C184 C 0.14558 0.84295 0.1171 0.0
C185 C 0.16738 0.89351 0.10106 0.0
C186 C 0.05455 0.89875 0.15871 0.0
C187 C 0.16221 0.78836 0.11371 0.0
C188 C 0.1124 0.75189 0.18891 0.0
C189 C 0.05143 0.68992 0.18544 0.0
C190 C 0.13038 0.80273 0.1733 0.0
C191 C 0.0866 0.79146 0.1535 0.0
C192 C 0.02406 0.72978 0.15016 0.0
C193 C 0.00693 0.67971 0.16631 0.0
C194 C 0.19708 0.86796 0.17773 0.0
C195 C 0.97619 0.71603 0.12918 0.0
H196 H 0.10347 0.98455 0.12414 0.0
H197 H 0.19493 0.89191 0.08639 0.0
H198 H 0.00468 0.85168 0.15793 0.0
H199 H 0.0808 0.90226 0.17586 0.0
H200 H 0.04746 0.94256 0.1583 0.0
H201 H 0.19068 0.79422 0.09787 0.0
H202 H 0.1923 0.78931 0.12943 0.0
H203 H 0.11552 0.73795 0.1119 0.0
H204 H 0.14677 0.76066 0.20386 0.0
H205 H 0.95986 0.63197 0.16355 0.0
H206 H 0.18998 0.91176 0.17812 0.0
H207 H 0.22939 0.87361 0.16314 0.0
H208 H 0.22378 0.87009 0.19463 0.0
H209 H 0.96503 0.75702 0.12853 0.0
H210 H 0.92841 0.66699 0.12965 0.0
H211 H 0.99968 0.71536 0.11265 0.0
C212 C 0.36217 0.20131 0.43544 0.0
C213 C 0.29639 0.18252 0.43997 0.0
C214 C 0.39866 0.18172 0.4497 0.0
C215 C 0.36899 0.14289 0.46909 0.0
C216 C 0.30404 0.12685 0.47452 0.0
C217 C 0.26851 0.14677 0.4599 0.0
C218 C 0.46798 0.20021 0.44342 0.0
C219 C 0.27107 0.08648 0.49529 0.0
C220 C 0.43308 0.03264 0.49183 0.0
C221 C 0.47506 0.07283 0.51151 0.0
C222 C 0.39846 0.05494 0.47776 0.0
C223 C 0.40573 0.11867 0.48361 0.0
C224 C 0.44809 0.15937 0.5034 0.0
C225 C 0.48228 0.13613 0.51702 0.0
C226 C 0.35391 0.01028 0.45668 0.0
C227 C 0.45695 0.22738 0.51033 0.0
H228 H 0.38419 0.22867 0.42007 0.0
H229 H 0.21779 0.13199 0.46358 0.0
H230 H 0.50439 0.22683 0.45885 0.0
H231 H 0.46856 0.15358 0.43864 0.0
H232 H 0.48504 0.23301 0.4284 0.0
H233 H 0.22186 0.08132 0.49787 0.0
H234 H 0.26345 0.03519 0.49255 0.0
H235 H 0.30387 0.11079 0.5117 0.0
H236 H 0.42715 0.98376 0.48745 0.0
H237 H 0.51435 0.16768 0.53222 0.0
H238 H 0.37037 0.03768 0.44041 0.0
H239 H 0.30174 0.99745 0.45872 0.0
H240 H 0.35423 0.96261 0.45432 0.0
H241 H 0.47642 0.26079 0.49558 0.0
H242 H 0.49183 0.25293 0.52625 0.0
H243 H 0.40789 0.2212 0.51394 0.0
C244 C 0.18533 0.10562 0.80166 0.0
C245 C 0.1739 0.11088 0.77767 0.0
C246 C 0.23292 0.16194 0.81617 0.0
C247 C 0.27093 0.22494 0.80634 0.0
C248 C 0.25819 0.23119 0.78229 0.0
C249 C 0.20919 0.174 0.76823 0.0
C250 C 0.2438 0.1535 0.84186 0.0
C251 C 0.29816 0.29754 0.77119 0.0
C252 C 0.36103 0.38133 0.84882 0.0
C253 C 0.42558 0.39149 0.85134 0.0
C254 C 0.31042 0.32774 0.83408 0.0
C255 C 0.32487 0.28366 0.82127 0.0
C256 C 0.39004 0.29382 0.82359 0.0
C257 C 0.43958 0.34738 0.83878 0.0
C258 C 0.24126 0.31777 0.83247 0.0
C259 C 0.40737 0.24807 0.81002 0.0
H260 H 0.15774 0.05686 0.80904 0.0
H261 H 0.20087 0.17797 0.74963 0.0
H262 H 0.29494 0.1628 0.84536 0.0
H263 H 0.23977 0.19112 0.85328 0.0
H264 H 0.2072 0.1021 0.84705 0.0
H265 H 0.28027 0.29471 0.75255 0.0
H266 H 0.2955 0.33796 0.78135 0.0
H267 H 0.35159 0.3126 0.77172 0.0
H268 H 0.34974 0.41506 0.85859 0.0
H269 H 0.48949 0.35537 0.84051 0.0
H270 H 0.2046 0.26758 0.83849 0.0
H271 H 0.22576 0.31854 0.81386 0.0
H272 H 0.23856 0.35724 0.84331 0.0
H273 H 0.37667 0.19568 0.81541 0.0
H274 H 0.46104 0.26459 0.81296 0.0
H275 H 0.39555 0.24678 0.79084 0.0
C276 C 0.84198 0.8642 0.65692 0.0
C277 C 0.8957 0.92715 0.6662 0.0
C278 C 0.79159 0.85957 0.64135 0.0
C279 C 0.79524 0.91933 0.63459 0.0
C280 C 0.8502 0.98313 0.6434 0.0
C281 C 0.89954 0.98628 0.65925 0.0
C282 C 0.73349 0.79069 0.63262 0.0
C283 C 0.85629 0.04808 0.63636 0.0
C284 C 0.69382 0.91892 0.58056 0.0
C285 C 0.64418 0.92544 0.59113 0.0
C286 C 0.74218 0.91429 0.59441 0.0
C287 C 0.73996 0.91537 0.61931 0.0
C288 C 0.6869 0.91715 0.62983 0.0
C289 C 0.64022 0.92319 0.61561 0.0
C290 C 0.79834 0.91338 0.58253 0.0
C291 C 0.68185 0.91713 0.65624 0.0
H292 H 0.83833 0.81811 0.66225 0.0
H293 H 0.94098 0.03503 0.66624 0.0
H294 H 0.68638 0.78428 0.63894 0.0
H295 H 0.72808 0.786 0.61305 0.0
H296 H 0.7394 0.74908 0.63878 0.0
H297 H 0.90394 0.09341 0.6436 0.0
H298 H 0.85332 0.04841 0.61684 0.0
H299 H 0.81408 0.05183 0.64281 0.0
H300 H 0.69804 0.92297 0.56168 0.0
H301 H 0.60261 0.92982 0.62375 0.0
H302 H 0.80544 0.87286 0.58899 0.0
H303 H 0.84573 0.96218 0.587 0.0
H304 H 0.78914 0.90569 0.563 0.0
H305 H 0.6863 0.87555 0.66324 0.0
H306 H 0.63392 0.91142 0.66134 0.0
H307 H 0.72362 0.96533 0.66484 0.0
C308 C 0.93426 0.91729 0.01078 0.0
C309 C 0.99898 0.94829 0.00297 0.0
C310 C 0.87927 0.86711 0.99632 0.0
C311 C 0.88941 0.84885 0.97341 0.0
C312 C 0.95431 0.88237 0.96509 0.0
C313 C 0.00837 0.93118 0.98006 0.0
C314 C 0.8108 0.83192 0.00584 0.0
C315 C 0.96693 0.86563 0.94057 0.0
C316 C 0.76419 0.67572 0.94344 0.0
C317 C 0.72474 0.69087 0.92892 0.0
C318 C 0.81755 0.72661 0.9583 0.0
C319 C 0.83241 0.79419 0.95815 0.0
C320 C 0.79362 0.80983 0.94307 0.0
C321 C 0.7399 0.75789 0.92882 0.0
C322 C 0.85746 0.708 0.97436 0.0
C323 C 0.8089 0.88144 0.94196 0.0
H324 H 0.92704 0.92994 0.02858 0.0
H325 H 0.05841 0.9554 0.97394 0.0
H326 H 0.77486 0.83634 0.9939 0.0
H327 H 0.79217 0.77724 0.00655 0.0
H328 H 0.81108 0.853 0.02381 0.0
H329 H 0.01972 0.89915 0.93634 0.0
H330 H 0.95484 0.81254 0.9389 0.0
H331 H 0.93388 0.87018 0.92723 0.0
H332 H 0.75222 0.62388 0.94368 0.0
H333 H 0.70978 0.76989 0.91744 0.0
H334 H 0.8557 0.72314 0.99299 0.0
H335 H 0.91071 0.7358 0.97017 0.0
H336 H 0.83855 0.65296 0.97276 0.0
H337 H 0.80481 0.90111 0.95956 0.0
H338 H 0.77461 0.88523 0.92893 0.0
H339 H 0.86107 0.91469 0.93712 0.0
C340 C 0.12362 0.98899 0.32754 0.0
C341 C 0.10757 0.98717 0.35111 0.0
C342 C 0.12173 0.9337 0.31571 0.0
C343 C 0.10461 0.87547 0.32789 0.0
C344 C 0.08716 0.87275 0.3516 0.0
C345 C 0.0882 0.92856 0.36291 0.0
C346 C 0.13883 0.93798 0.29021 0.0
C347 C 0.0693 0.81173 0.36519 0.0
C348 C 0.04318 0.71657 0.28821 0.0
C349 C 0.10199 0.71505 0.2858 0.0
C350 C 0.04285 0.7669 0.30259 0.0
C351 C 0.10261 0.8168 0.31526 0.0
C352 C 0.1615 0.81387 0.31394 0.0
C353 C 0.16064 0.76315 0.29906 0.0
C354 C 0.97922 0.76862 0.30321 0.0
C355 C 0.22593 0.86577 0.32754 0.0
H356 H 0.13867 0.03436 0.31841 0.0
H357 H 0.07693 0.92755 0.38127 0.0
H358 H 0.18316 0.93299 0.28844 0.0
H359 H 0.09672 0.89573 0.27911 0.0
H360 H 0.14974 0.98641 0.28318 0.0
H361 H 0.05639 0.81729 0.38343 0.0
H362 H 0.02626 0.76577 0.35592 0.0
H363 H 0.11203 0.80355 0.36616 0.0
H364 H 0.99727 0.67951 0.27819 0.0
H365 H 0.2061 0.7621 0.29745 0.0
H366 H 0.98628 0.81416 0.29491 0.0
H367 H 0.96714 0.77216 0.3217 0.0
H368 H 0.93581 0.72328 0.29371 0.0
H369 H 0.24526 0.91564 0.32017 0.0
H370 H 0.26497 0.85221 0.32675 0.0
H371 H 0.21699 0.87143 0.3463 0.0
C372 C 0.19014 0.96382 0.66611 0.0
C373 C 0.18527 0.92914 0.68632 0.0
C374 C 0.24305 0.98269 0.6514 0.0
C375 C 0.29244 0.96657 0.65699 0.0
C376 C 0.28667 0.92964 0.67688 0.0
C377 C 0.23313 0.91124 0.69126 0.0
C378 C 0.24698 0.02131 0.63017 0.0
C379 C 0.33805 0.91109 0.68334 0.0
C380 C 0.39807 0.9644 0.60829 0.0
C381 C 0.45783 0.02721 0.6128 0.0
C382 C 0.34413 0.94422 0.6225 0.0
C383 C 0.34973 0.98767 0.64185 0.0
C384 C 0.40984 0.05107 0.64663 0.0
C385 C 0.46322 0.07018 0.63202 0.0
C386 C 0.28094 0.87635 0.61673 0.0
C387 C 0.41766 0.09871 0.66717 0.0
H388 H 0.15357 0.97802 0.66211 0.0
H389 H 0.23012 0.88474 0.70686 0.0
H390 H 0.2936 0.07177 0.63201 0.0
H391 H 0.24899 0.99432 0.61392 0.0
H392 H 0.20367 0.02837 0.6279 0.0
H393 H 0.32565 0.88105 0.69909 0.0
H394 H 0.34211 0.88146 0.66833 0.0
H395 H 0.38792 0.95766 0.68702 0.0
H396 H 0.39308 0.93067 0.59348 0.0
H397 H 0.50906 0.1187 0.63565 0.0
H398 H 0.23793 0.88323 0.6133 0.0
H399 H 0.26985 0.84479 0.632 0.0
H400 H 0.28463 0.84843 0.60105 0.0
H401 H 0.37874 0.11224 0.66521 0.0
H402 H 0.46764 0.14591 0.66863 0.0
H403 H 0.41035 0.07345 0.68389 0.0
C404 C 0.29438 0.29919 0.0316 0.0
C405 C 0.30031 0.24374 0.02454 0.0
C406 C 0.32269 0.35764 0.01899 0.0
C407 C 0.35686 0.36026 0.99866 0.0
C408 C 0.36535 0.30559 0.99206 0.0
C409 C 0.33754 0.24837 0.00519 0.0
C410 C 0.3141 0.41554 0.02696 0.0
C411 C 0.40135 0.30617 0.97046 0.0
C412 C 0.37008 0.46286 0.94671 0.0
C413 C 0.43867 0.51062 0.94845 0.0
C414 C 0.34124 0.41629 0.96403 0.0
C415 C 0.38208 0.41859 0.98359 0.0
C416 C 0.45 0.47132 0.98649 0.0
C417 C 0.47773 0.51607 0.96867 0.0
C418 C 0.26875 0.36061 0.96014 0.0
C419 C 0.49495 0.47682 0.00731 0.0
H420 H 0.26613 0.29628 0.04664 0.0
H421 H 0.34218 0.20578 0.99952 0.0
H422 H 0.363 0.46385 0.02817 0.0
H423 H 0.2808 0.42021 0.01379 0.0
H424 H 0.29214 0.40847 0.04437 0.0
H425 H 0.40436 0.26003 0.9679 0.0
H426 H 0.37502 0.30998 0.9545 0.0
H427 H 0.45289 0.35094 0.9719 0.0
H428 H 0.34033 0.45791 0.93081 0.0
H429 H 0.53106 0.55272 0.96981 0.0
H430 H 0.24272 0.35368 0.97663 0.0
H431 H 0.26578 0.3123 0.95503 0.0
H432 H 0.24185 0.37092 0.94599 0.0
H433 H 0.46898 0.46803 0.02389 0.0
H434 H 0.54193 0.52709 0.00933 0.0
H435 H 0.50835 0.4376 0.00478 0.0
C436 C 0.02322 0.25186 0.3582 0.0
C437 C 0.0922 0.27798 0.35719 0.0
C438 C 0.99004 0.27568 0.34412 0.0
C439 C 0.02669 0.32678 0.32869 0.0
C440 C 0.09672 0.3551 0.32831 0.0
C441 C 0.1285 0.33042 0.34253 0.0
C442 C 0.91552 0.24457 0.34516 0.0
C443 C 0.13801 0.41024 0.3123 0.0
C444 C 0.96048 0.35561 0.27149 0.0
C445 C 0.96589 0.41751 0.27746 0.0
C446 C 0.97347 0.32125 0.28868 0.0
C447 C 0.99274 0.35007 0.31227 0.0
C448 C 0.99094 0.40878 0.31875 0.0
C449 C 0.97796 0.44209 0.30119 0.0
C450 C 0.97415 0.25845 0.28102 0.0
C451 C 0.01036 0.44094 0.34366 0.0
H452 H 0.9946 0.21123 0.36943 0.0
H453 H 0.18176 0.35115 0.34165 0.0
H454 H 0.90308 0.28454 0.34748 0.0
H455 H 0.88971 0.21499 0.32824 0.0
H456 H 0.89549 0.21048 0.35975 0.0
H457 H 0.19216 0.42825 0.31462 0.0
H458 H 0.12062 0.39132 0.29359 0.0
H459 H 0.13155 0.45394 0.31581 0.0
H460 H 0.95278 0.33757 0.25304 0.0
H461 H 0.98358 0.49084 0.30568 0.0
H462 H 0.95105 0.21977 0.29404 0.0
H463 H 0.0267 0.27141 0.27996 0.0
H464 H 0.94724 0.23622 0.26343 0.0
H465 H 0.98872 0.40208 0.3567 0.0
H466 H 0.9938 0.47756 0.34683 0.0
H467 H 0.06561 0.46839 0.34682 0.0
loop_
_geom_bond_atom_site_label_1
_geom_bond_atom_site_label_2
_geom_bond_distance
_geom_bond_site_symmetry_2
_ccdc_geom_bond_type
Zn0 O3 2.031 1_545 S
Zn0 O5 2.049 . S
Zn0 O10 2.067 1_545 S
Zn1 O2 1.962 . S
Zn1 O4 1.986 . S
Zn1 O6 1.996 . S
Zn1 O9 1.943 . S
O2 Zn1 1.962 . S
O2 C7 1.254 1_545 S
O3 Zn0 2.031 1_565 S
O3 C7 1.269 . S
O4 Zn1 1.986 . S
O4 C11 1.262 . S
O5 Zn0 2.049 . S
O5 C13 1.260 . S
O6 Zn1 1.996 . S
O6 C13 1.257 . S
C7 O2 1.254 1_565 S
C7 O3 1.269 . S
C8 O9 1.249 1_565 S
C8 O10 1.270 . S
O9 Zn1 1.943 . S
O9 C8 1.249 1_545 S
O10 Zn0 2.067 1_565 S
O10 C8 1.270 . S
C11 O4 1.262 . S
C11 O12 1.232 . S
O12 C11 1.232 . S
C13 O5 1.260 . S
C13 O6 1.257 . S
Zn14 O17 2.031 . S
Zn14 O19 2.049 . S
Zn14 O24 2.067 . S
Zn15 O16 1.962 . S
Zn15 O18 1.986 1_455 S
Zn15 O20 1.996 . S
Zn15 O23 1.943 . S
O16 Zn15 1.962 . S
O16 C21 1.254 . S
O17 Zn14 2.031 . S
O17 C21 1.269 . S
O18 Zn15 1.986 1_655 S
O18 C25 1.262 . S
O19 Zn14 2.049 . S
O19 C27 1.260 . S
O20 Zn15 1.996 . S
O20 C27 1.257 . S
C21 O16 1.254 . S
C21 O17 1.269 . S
C22 O23 1.249 . S
C22 O24 1.270 . S
O23 Zn15 1.943 . S
O23 C22 1.249 . S
O24 Zn14 2.067 . S
O24 C22 1.270 . S
C25 O18 1.262 . S
C25 O26 1.232 . S
O26 C25 1.232 . S
C27 O19 1.260 . S
C27 O20 1.257 . S
Zn28 O31 2.031 1_565 S
Zn28 O33 2.049 . S
Zn28 O38 2.067 1_565 S
Zn29 O30 1.962 1_545 S
Zn29 O32 1.986 1_455 S
Zn29 O34 1.996 1_545 S
Zn29 O37 1.943 . S
O30 Zn29 1.962 1_565 S
O30 C35 1.254 1_565 S
O31 Zn28 2.031 1_545 S
O31 C35 1.269 . S
O32 Zn29 1.986 1_655 S
O32 C39 1.262 . S
O33 Zn28 2.049 . S
O33 C41 1.260 1_455 S
O34 Zn29 1.996 1_565 S
O34 C41 1.257 1_455 S
C35 O30 1.254 1_545 S
C35 O31 1.269 . S
C36 O37 1.249 . S
C36 O38 1.270 . S
O37 Zn29 1.943 . S
O37 C36 1.249 . S
O38 Zn28 2.067 1_545 S
O38 C36 1.270 . S
C39 O32 1.262 . S
C39 O40 1.232 1_655 S
O40 C39 1.232 1_455 S
C41 O33 1.260 1_655 S
C41 O34 1.257 1_655 S
C42 O44 1.247 . S
C42 O46 1.258 . S
C43 O50 1.247 . S
C43 O51 1.258 . S
O44 C42 1.247 . S
O44 Zn45 2.028 . S
Zn45 O44 2.028 . S
Zn45 O49 2.035 . S
Zn45 O51 2.035 . S
Zn45 O52 2.028 . S
O46 C42 1.258 . S
O46 Zn47 2.035 . S
Zn47 O46 2.035 . S
Zn47 O48 2.028 . S
Zn47 O50 2.028 . S
Zn47 O53 2.035 . S
O48 Zn47 2.028 . S
O48 C54 1.247 . S
O49 Zn45 2.035 . S
O49 C54 1.258 . S
O50 C43 1.247 . S
O50 Zn47 2.028 . S
O51 C43 1.258 . S
O51 Zn45 2.035 . S
O52 Zn45 2.028 . S
O52 C55 1.247 . S
O53 Zn47 2.035 . S
O53 C55 1.258 . S
C54 O48 1.247 . S
C54 O49 1.258 . S
C55 O52 1.247 . S
C55 O53 1.258 . S
C56 O58 1.247 1_545 S
C56 O60 1.258 . S
C57 O64 1.247 . S
C57 O65 1.258 . S
O58 C56 1.247 1_565 S
O58 Zn59 2.028 . S
Zn59 O58 2.028 . S
Zn59 O63 2.035 . S
Zn59 O65 2.035 1_565 S
Zn59 O66 2.028 1_565 S
O60 C56 1.258 . S
O60 Zn61 2.035 . S
Zn61 O60 2.035 . S
Zn61 O62 2.028 . S
Zn61 O64 2.028 . S
Zn61 O67 2.035 . S
O62 Zn61 2.028 . S
O62 C68 1.247 . S
O63 Zn59 2.035 . S
O63 C68 1.258 1_565 S
O64 C57 1.247 . S
O64 Zn61 2.028 . S
O65 C57 1.258 . S
O65 Zn59 2.035 1_545 S
O66 Zn59 2.028 1_545 S
O66 C69 1.247 . S
O67 Zn61 2.035 . S
O67 C69 1.258 . S
C68 O62 1.247 . S
C68 O63 1.258 1_545 S
C69 O66 1.247 . S
C69 O67 1.258 . S
C70 O72 1.247 . S
C70 O74 1.258 . S
C71 O78 1.247 . S
C71 O79 1.258 . S
O72 C70 1.247 . S
O72 Zn73 2.028 . S
Zn73 O72 2.028 . S
Zn73 O77 2.035 . S
Zn73 O79 2.035 . S
Zn73 O80 2.028 . S
O74 C70 1.258 . S
O74 Zn75 2.035 . S
Zn75 O74 2.035 . S
Zn75 O76 2.028 . S
Zn75 O78 2.028 . S
Zn75 O81 2.035 . S
O76 Zn75 2.028 . S
O76 C82 1.247 . S
O77 Zn73 2.035 . S
O77 C82 1.258 . S
O78 C71 1.247 . S
O78 Zn75 2.028 . S
O79 C71 1.258 . S
O79 Zn73 2.035 . S
O80 Zn73 2.028 . S
O80 C83 1.247 . S
O81 Zn75 2.035 . S
O81 C83 1.258 . S
C82 O76 1.247 . S
C82 O77 1.258 . S
C83 O80 1.247 . S
C83 O81 1.258 . S
C84 C85 1.391 . S
C84 C86 1.394 . S
C84 H100 0.931 . S
C85 C84 1.391 . S
C85 C89 1.376 . S
C86 C84 1.394 . S
C86 C87 1.369 . S
C86 C90 1.531 . S
C87 C86 1.369 . S
C87 C88 1.410 . S
C87 C95 1.503 . S
C88 C87 1.410 . S
C88 C89 1.392 . S
C88 C91 1.511 . S
C89 C85 1.376 . S
C89 C88 1.392 . S
C89 H101 0.929 . S
C90 C86 1.531 . S
C90 H102 0.960 . S
C90 H103 0.962 . S
C90 H104 0.960 . S
C91 C88 1.511 . S
C91 H105 0.961 1_455 S
C91 H106 0.961 . S
C91 H107 0.961 . S
C92 C93 1.370 . S
C92 C94 1.363 . S
C92 H108 0.931 . S
C93 C92 1.370 . S
C93 C97 1.408 . S
C94 C92 1.363 . S
C94 C95 1.370 . S
C94 C98 1.524 1_455 S
C95 C87 1.503 . S
C95 C94 1.370 . S
C95 C96 1.403 . S
C96 C95 1.403 . S
C96 C97 1.404 . S
C96 C99 1.539 . S
C97 C93 1.408 . S
C97 C96 1.404 . S
C97 H109 0.930 . S
C98 C94 1.524 1_655 S
C98 H110 0.956 1_655 S
C98 H111 0.961 . S
C98 H112 0.961 . S
C99 C96 1.539 . S
C99 H113 0.958 . S
C99 H114 0.961 . S
C99 H115 0.960 . S
H100 C84 0.931 . S
H101 C89 0.929 . S
H102 C90 0.960 . S
H103 C90 0.962 . S
H104 C90 0.960 . S
H105 C91 0.961 1_655 S
H106 C91 0.961 . S
H107 C91 0.961 . S
H108 C92 0.931 . S
H109 C97 0.930 . S
H110 C98 0.956 1_455 S
H111 C98 0.961 . S
H112 C98 0.961 . S
H113 C99 0.958 . S
H114 C99 0.961 . S
H115 C99 0.960 . S
C116 C117 1.391 . S
C116 C118 1.394 . S
C116 H132 0.931 . S
C117 C116 1.391 . S
C117 C121 1.376 . S
C118 C116 1.394 . S
C118 C119 1.369 . S
C118 C122 1.531 . S
C119 C118 1.369 . S
C119 C120 1.410 . S
C119 C127 1.503 . S
C120 C119 1.410 . S
C120 C121 1.392 . S
C120 C123 1.511 . S
C121 C117 1.376 . S
C121 C120 1.392 . S
C121 H133 0.929 . S
C122 C118 1.531 . S
C122 H134 0.960 . S
C122 H135 0.962 1_545 S
C122 H136 0.960 . S
C123 C120 1.511 . S
C123 H137 0.961 . S
C123 H138 0.961 . S
C123 H139 0.961 . S
C124 C125 1.370 . S
C124 C126 1.363 . S
C124 H140 0.931 1_545 S
C125 C124 1.370 . S
C125 C129 1.408 . S
C126 C124 1.363 . S
C126 C127 1.370 . S
C126 C130 1.524 1_545 S
C127 C119 1.503 . S
C127 C126 1.370 . S
C127 C128 1.403 . S
C128 C127 1.403 . S
C128 C129 1.404 . S
C128 C131 1.539 . S
C129 C125 1.408 . S
C129 C128 1.404 . S
C129 H141 0.930 . S
C130 C126 1.524 1_565 S
C130 H142 0.956 . S
C130 H143 0.961 . S
C130 H144 0.961 . S
C131 C128 1.539 . S
C131 H145 0.958 . S
C131 H146 0.961 . S
C131 H147 0.960 . S
H132 C116 0.931 . S
H133 C121 0.929 . S
H134 C122 0.960 . S
H135 C122 0.962 1_565 S
H136 C122 0.960 . S
H137 C123 0.961 . S
H138 C123 0.961 . S
H139 C123 0.961 . S
H140 C124 0.931 1_565 S
H141 C129 0.930 . S
H142 C130 0.956 . S
H143 C130 0.961 . S
H144 C130 0.961 . S
H145 C131 0.958 . S
H146 C131 0.961 . S
H147 C131 0.960 . S
C148 C149 1.391 . S
C148 C150 1.394 . S
C148 H164 0.931 . S
C149 C148 1.391 . S
C149 C153 1.376 . S
C150 C148 1.394 . S
C150 C151 1.369 . S
C150 C154 1.531 . S
C151 C150 1.369 . S
C151 C152 1.410 . S
C151 C159 1.503 . S
C152 C151 1.410 . S
C152 C153 1.392 . S
C152 C155 1.511 . S
C153 C149 1.376 . S
C153 C152 1.392 . S
C153 H165 0.929 1_655 S
C154 C150 1.531 . S
C154 H166 0.960 . S
C154 H167 0.962 . S
C154 H168 0.960 . S
C155 C152 1.511 . S
C155 H169 0.961 . S
C155 H170 0.961 . S
C155 H171 0.961 . S
C156 C157 1.370 . S
C156 C158 1.363 . S
C156 H172 0.931 . S
C157 C156 1.370 . S
C157 C161 1.408 . S
C158 C156 1.363 . S
C158 C159 1.370 . S
C158 C162 1.524 . S
C159 C151 1.503 . S
C159 C158 1.370 . S
C159 C160 1.403 . S
C160 C159 1.403 . S
C160 C161 1.404 . S
C160 C163 1.539 . S
C161 C157 1.408 . S
C161 C160 1.404 . S
C161 H173 0.930 . S
C162 C158 1.524 . S
C162 H174 0.956 . S
C162 H175 0.961 . S
C162 H176 0.961 . S
C163 C160 1.539 . S
C163 H177 0.958 . S
C163 H178 0.961 . S
C163 H179 0.960 . S
H164 C148 0.931 . S
H165 C153 0.929 1_455 S
H166 C154 0.960 . S
H167 C154 0.962 . S
H168 C154 0.960 . S
H169 C155 0.961 . S
H170 C155 0.961 . S
H171 C155 0.961 . S
H172 C156 0.931 . S
H173 C161 0.930 . S
H174 C162 0.956 . S
H175 C162 0.961 . S
H176 C162 0.961 . S
H177 C163 0.958 . S
H178 C163 0.961 . S
H179 C163 0.960 . S
C180 C181 1.391 . S
C180 C182 1.394 . S
C180 H196 0.931 . S
C181 C180 1.391 . S
C181 C185 1.376 . S
C182 C180 1.394 . S
C182 C183 1.369 . S
C182 C186 1.531 1_455 S
C183 C182 1.369 . S
C183 C184 1.410 . S
C183 C191 1.503 . S
C184 C183 1.410 . S
C184 C185 1.392 . S
C184 C187 1.511 . S
C185 C181 1.376 . S
C185 C184 1.392 . S
C185 H197 0.929 1_565 S
C186 C182 1.531 1_655 S
C186 H198 0.960 . S
C186 H199 0.962 . S
C186 H200 0.960 . S
C187 C184 1.511 . S
C187 H201 0.961 . S
C187 H202 0.961 . S
C187 H203 0.961 . S
C188 C189 1.370 . S
C188 C190 1.363 . S
C188 H204 0.931 . S
C189 C188 1.370 . S
C189 C193 1.408 . S
C190 C188 1.363 . S
C190 C191 1.370 . S
C190 C194 1.524 . S
C191 C183 1.503 . S
C191 C190 1.370 . S
C191 C192 1.403 . S
C192 C191 1.403 . S
C192 C193 1.404 . S
C192 C195 1.539 . S
C193 C189 1.408 . S
C193 C192 1.404 . S
C193 H205 0.930 . S
C194 C190 1.524 . S
C194 H206 0.956 . S
C194 H207 0.961 . S
C194 H208 0.961 . S
C195 C192 1.539 . S
C195 H209 0.958 . S
C195 H210 0.961 . S
C195 H211 0.960 . S
H196 C180 0.931 . S
H197 C185 0.929 1_545 S
H198 C186 0.960 . S
H199 C186 0.962 . S
H200 C186 0.960 . S
H201 C187 0.961 . S
H202 C187 0.961 . S
H203 C187 0.961 . S
H204 C188 0.931 . S
H205 C193 0.930 . S
H206 C194 0.956 . S
H207 C194 0.961 . S
H208 C194 0.961 . S
H209 C195 0.958 . S
H210 C195 0.961 . S
H211 C195 0.960 . S
C212 C213 1.391 . S
C212 C214 1.394 . S
C212 H228 0.931 . S
C213 C212 1.391 . S
C213 C217 1.376 . S
C214 C212 1.394 . S
C214 C215 1.369 . S
C214 C218 1.531 . S
C215 C214 1.369 . S
C215 C216 1.410 . S
C215 C223 1.503 . S
C216 C215 1.410 . S
C216 C217 1.392 . S
C216 C219 1.511 . S
C217 C213 1.376 . S
C217 C216 1.392 . S
C217 H229 0.929 . S
C218 C214 1.531 . S
C218 H230 0.960 . S
C218 H231 0.962 . S
C218 H232 0.960 . S
C219 C216 1.511 . S
C219 H233 0.961 1_545 S
C219 H234 0.961 1_545 S
C219 H235 0.961 . S
C220 C221 1.370 . S
C220 C222 1.363 . S
C220 H236 0.931 . S
C221 C220 1.370 . S
C221 C225 1.408 . S
C222 C220 1.363 . S
C222 C223 1.370 . S
C222 C226 1.524 1_545 S
C223 C215 1.503 . S
C223 C222 1.370 . S
C223 C224 1.403 . S
C224 C223 1.403 . S
C224 C225 1.404 . S
C224 C227 1.539 . S
C225 C221 1.408 . S
C225 C224 1.404 . S
C225 H237 0.930 . S
C226 C222 1.524 1_565 S
C226 H238 0.956 1_565 S
C226 H239 0.961 . S
C226 H240 0.961 . S
C227 C224 1.539 . S
C227 H241 0.958 . S
C227 H242 0.961 . S
C227 H243 0.960 . S
H228 C212 0.931 . S
H229 C217 0.929 . S
H230 C218 0.960 . S
H231 C218 0.962 . S
H232 C218 0.960 . S
H233 C219 0.961 1_565 S
H234 C219 0.961 1_565 S
H235 C219 0.961 . S
H236 C220 0.931 . S
H237 C225 0.930 . S
H238 C226 0.956 1_545 S
H239 C226 0.961 . S
H240 C226 0.961 . S
H241 C227 0.958 . S
H242 C227 0.961 . S
H243 C227 0.960 . S
C244 C245 1.391 . S
C244 C246 1.394 . S
C244 H260 0.931 . S
C245 C244 1.391 . S
C245 C249 1.376 . S
C246 C244 1.394 . S
C246 C247 1.369 . S
C246 C250 1.531 . S
C247 C246 1.369 . S
C247 C248 1.410 . S
C247 C255 1.503 . S
C248 C247 1.410 . S
C248 C249 1.392 . S
C248 C251 1.511 . S
C249 C245 1.376 . S
C249 C248 1.392 . S
C249 H261 0.929 . S
C250 C246 1.531 . S
C250 H262 0.960 . S
C250 H263 0.962 . S
C250 H264 0.960 . S
C251 C248 1.511 . S
C251 H265 0.961 . S
C251 H266 0.961 . S
C251 H267 0.961 . S
C252 C253 1.370 . S
C252 C254 1.363 . S
C252 H268 0.931 . S
C253 C252 1.370 . S
C253 C257 1.408 . S
C254 C252 1.363 . S
C254 C255 1.370 . S
C254 C258 1.524 . S
C255 C247 1.503 . S
C255 C254 1.370 . S
C255 C256 1.403 . S
C256 C255 1.403 . S
C256 C257 1.404 . S
C256 C259 1.539 . S
C257 C253 1.408 . S
C257 C256 1.404 . S
C257 H269 0.930 . S
C258 C254 1.524 . S
C258 H270 0.956 . S
C258 H271 0.961 . S
C258 H272 0.961 . S
C259 C256 1.539 . S
C259 H273 0.958 . S
C259 H274 0.961 . S
C259 H275 0.960 . S
H260 C244 0.931 . S
H261 C249 0.929 . S
H262 C250 0.960 . S
H263 C250 0.962 . S
H264 C250 0.960 . S
H265 C251 0.961 . S
H266 C251 0.961 . S
H267 C251 0.961 . S
H268 C252 0.931 . S
H269 C257 0.930 . S
H270 C258 0.956 . S
H271 C258 0.961 . S
H272 C258 0.961 . S
H273 C259 0.958 . S
H274 C259 0.961 . S
H275 C259 0.960 . S
C276 C277 1.391 . S
C276 C278 1.394 . S
C276 H292 0.931 . S
C277 C276 1.391 . S
C277 C281 1.376 . S
C278 C276 1.394 . S
C278 C279 1.369 . S
C278 C282 1.531 . S
C279 C278 1.369 . S
C279 C280 1.410 . S
C279 C287 1.503 . S
C280 C279 1.410 . S
C280 C281 1.392 . S
C280 C283 1.511 . S
C281 C277 1.376 . S
C281 C280 1.392 . S
C281 H293 0.929 . S
C282 C278 1.531 . S
C282 H294 0.960 . S
C282 H295 0.962 . S
C282 H296 0.960 . S
C283 C280 1.511 . S
C283 H297 0.961 . S
C283 H298 0.961 . S
C283 H299 0.961 1_545 S
C284 C285 1.370 . S
C284 C286 1.363 . S
C284 H300 0.931 . S
C285 C284 1.370 . S
C285 C289 1.408 1_545 S
C286 C284 1.363 . S
C286 C287 1.370 . S
C286 C290 1.524 . S
C287 C279 1.503 . S
C287 C286 1.370 . S
C287 C288 1.403 1_545 S
C288 C287 1.403 1_565 S
C288 C289 1.404 . S
C288 C291 1.539 . S
C289 C285 1.408 1_565 S
C289 C288 1.404 . S
C289 H301 0.930 . S
C290 C286 1.524 . S
C290 H302 0.956 . S
C290 H303 0.961 . S
C290 H304 0.961 . S
C291 C288 1.539 . S
C291 H305 0.958 . S
C291 H306 0.961 . S
C291 H307 0.960 . S
H292 C276 0.931 . S
H293 C281 0.929 . S
H294 C282 0.960 . S
H295 C282 0.962 . S
H296 C282 0.960 . S
H297 C283 0.961 . S
H298 C283 0.961 . S
H299 C283 0.961 1_565 S
H300 C284 0.931 . S
H301 C289 0.930 . S
H302 C290 0.956 . S
H303 C290 0.961 . S
H304 C290 0.961 . S
H305 C291 0.958 . S
H306 C291 0.961 . S
H307 C291 0.960 . S
C308 C309 1.391 . S
C308 C310 1.394 1_554 S
C308 H324 0.931 . S
C309 C308 1.391 . S
C309 C313 1.376 . S
C310 C308 1.394 1_556 S
C310 C311 1.369 . S
C310 C314 1.531 . S
C311 C310 1.369 . S
C311 C312 1.410 . S
C311 C319 1.503 . S
C312 C311 1.410 . S
C312 C313 1.392 1_556 S
C312 C315 1.511 . S
C313 C309 1.376 . S
C313 C312 1.392 1_554 S
C313 H325 0.929 1_655 S
C314 C310 1.531 . S
C314 H326 0.960 . S
C314 H327 0.962 . S
C314 H328 0.960 . S
C315 C312 1.511 . S
C315 H329 0.967 . S
C315 H330 0.961 . S
C315 H331 0.961 . S
C316 C317 1.370 . S
C316 C318 1.363 . S
C316 H332 0.931 . S
C317 C316 1.370 . S
C317 C321 1.408 . S
C318 C316 1.363 . S
C318 C319 1.370 . S
C318 C322 1.524 1_556 S
C319 C311 1.503 . S
C319 C318 1.370 . S
C319 C320 1.403 . S
C320 C319 1.403 . S
C320 C321 1.404 . S
C320 C323 1.539 . S
C321 C317 1.408 . S
C321 C320 1.404 . S
C321 H333 0.930 . S
C322 C318 1.524 1_554 S
C322 H334 0.956 . S
C322 H335 0.961 . S
C322 H336 0.961 . S
C323 C320 1.539 . S
C323 H337 0.958 . S
C323 H338 0.961 . S
C323 H339 0.960 . S
H324 C308 0.931 . S
H325 C313 0.929 1_455 S
H326 C314 0.960 . S
H327 C314 0.962 . S
H328 C314 0.960 . S
H329 C315 0.967 . S
H330 C315 0.961 . S
H331 C315 0.961 . S
H332 C316 0.931 . S
H333 C321 0.930 . S
H334 C322 0.956 . S
H335 C322 0.961 . S
H336 C322 0.961 . S
H337 C323 0.958 . S
H338 C323 0.961 . S
H339 C323 0.960 . S
C340 C341 1.391 . S
C340 C342 1.394 . S
C340 H356 0.931 1_565 S
C341 C340 1.391 . S
C341 C345 1.376 1_455 S
C342 C340 1.394 . S
C342 C343 1.369 . S
C342 C346 1.531 . S
C343 C342 1.369 . S
C343 C344 1.408 . S
C343 C351 1.503 . S
C344 C343 1.408 . S
C344 C345 1.393 1_455 S
C344 C347 1.512 1_455 S
C345 C341 1.376 1_655 S
C345 C344 1.393 1_655 S
C345 H357 0.929 . S
C346 C342 1.531 . S
C346 H358 0.960 . S
C346 H359 0.962 . S
C346 H360 0.960 . S
C347 C344 1.512 1_655 S
C347 H361 0.961 . S
C347 H362 0.961 . S
C347 H363 0.961 . S
C348 C349 1.370 . S
C348 C350 1.363 . S
C348 H364 0.931 . S
C349 C348 1.370 . S
C349 C353 1.408 . S
C350 C348 1.363 . S
C350 C351 1.370 . S
C350 C354 1.524 . S
C351 C343 1.503 . S
C351 C350 1.370 . S
C351 C352 1.403 . S
C352 C351 1.403 . S
C352 C353 1.404 . S
C352 C355 1.539 . S
C353 C349 1.408 . S
C353 C352 1.404 . S
C353 H365 0.930 . S
C354 C350 1.524 . S
C354 H366 0.956 . S
C354 H367 0.961 1_455 S
C354 H368 0.961 1_455 S
C355 C352 1.539 . S
C355 H369 0.958 . S
C355 H370 0.961 . S
C355 H371 0.960 . S
H356 C340 0.931 1_545 S
H357 C345 0.929 . S
H358 C346 0.960 . S
H359 C346 0.962 . S
H360 C346 0.960 . S
H361 C347 0.961 . S
H362 C347 0.961 . S
H363 C347 0.961 . S
H364 C348 0.931 . S
H365 C353 0.930 . S
H366 C354 0.956 . S
H367 C354 0.961 1_655 S
H368 C354 0.961 1_655 S
H369 C355 0.958 . S
H370 C355 0.961 . S
H371 C355 0.960 . S
C372 C373 1.391 . S
C372 C374 1.394 . S
C372 H388 0.931 . S
C373 C372 1.391 . S
C373 C377 1.376 . S
C374 C372 1.394 . S
C374 C375 1.369 . S
C374 C378 1.531 . S
C375 C374 1.369 . S
C375 C376 1.410 . S
C375 C383 1.503 . S
C376 C375 1.410 . S
C376 C377 1.392 . S
C376 C379 1.514 . S
C377 C373 1.376 . S
C377 C376 1.392 . S
C377 H389 0.929 1_545 S
C378 C374 1.531 . S
C378 H390 0.960 . S
C378 H391 0.962 . S
C378 H392 0.960 . S
C379 C376 1.514 . S
C379 H393 0.958 1_545 S
C379 H394 0.959 1_545 S
C379 H395 0.962 . S
C380 C381 1.370 1_565 S
C380 C382 1.363 . S
C380 H396 0.931 . S
C381 C380 1.370 1_545 S
C381 C385 1.408 . S
C382 C380 1.363 . S
C382 C383 1.370 1_565 S
C382 C386 1.524 . S
C383 C375 1.503 . S
C383 C382 1.370 1_545 S
C383 C384 1.403 . S
C384 C383 1.403 . S
C384 C385 1.404 . S
C384 C387 1.539 . S
C385 C381 1.408 . S
C385 C384 1.404 . S
C385 H397 0.930 . S
C386 C382 1.524 . S
C386 H398 0.956 . S
C386 H399 0.961 . S
C386 H400 0.961 . S
C387 C384 1.539 . S
C387 H401 0.958 . S
C387 H402 0.961 . S
C387 H403 0.960 . S
H388 C372 0.931 . S
H389 C377 0.929 1_565 S
H390 C378 0.960 . S
H391 C378 0.962 . S
H392 C378 0.960 . S
H393 C379 0.958 1_565 S
H394 C379 0.959 1_565 S
H395 C379 0.962 . S
H396 C380 0.931 . S
H397 C385 0.930 . S
H398 C386 0.956 . S
H399 C386 0.961 . S
H400 C386 0.961 . S
H401 C387 0.958 . S
H402 C387 0.961 . S
H403 C387 0.960 . S
C404 C405 1.391 . S
C404 C406 1.394 . S
C404 H420 0.931 . S
C405 C404 1.391 . S
C405 C409 1.376 . S
C406 C404 1.394 . S
C406 C407 1.369 1_554 S
C406 C410 1.531 . S
C407 C406 1.369 1_556 S
C407 C408 1.410 . S
C407 C415 1.503 . S
C408 C407 1.410 . S
C408 C409 1.392 1_556 S
C408 C411 1.511 . S
C409 C405 1.376 . S
C409 C408 1.392 1_554 S
C409 H421 0.929 . S
C410 C406 1.531 . S
C410 H422 0.960 . S
C410 H423 0.954 1_554 S
C410 H424 0.960 . S
C411 C408 1.511 . S
C411 H425 0.961 . S
C411 H426 0.961 . S
C411 H427 0.961 . S
C412 C413 1.370 . S
C412 C414 1.363 . S
C412 H428 0.931 . S
C413 C412 1.370 . S
C413 C417 1.408 . S
C414 C412 1.363 . S
C414 C415 1.370 . S
C414 C418 1.524 . S
C415 C407 1.503 . S
C415 C414 1.370 . S
C415 C416 1.403 . S
C416 C415 1.403 . S
C416 C417 1.404 . S
C416 C419 1.577 . S
C417 C413 1.408 . S
C417 C416 1.404 . S
C417 H429 0.930 . S
C418 C414 1.524 . S
C418 H430 0.956 . S
C418 H431 0.961 . S
C418 H432 0.961 . S
C419 C416 1.577 . S
C419 H433 0.927 1_556 S
C419 H434 0.975 . S
C419 H435 0.942 1_556 S
H420 C404 0.931 . S
H421 C409 0.929 . S
H422 C410 0.960 . S
H423 C410 0.954 1_556 S
H424 C410 0.960 . S
H425 C411 0.961 . S
H426 C411 0.961 . S
H427 C411 0.961 . S
H428 C412 0.931 . S
H429 C417 0.930 . S
H430 C418 0.956 . S
H431 C418 0.961 . S
H432 C418 0.961 . S
H433 C419 0.927 1_554 S
H434 C419 0.975 . S
H435 C419 0.942 1_554 S
C436 C437 1.391 . S
C436 C438 1.394 . S
C436 H452 0.931 . S
C437 C436 1.391 . S
C437 C441 1.376 . S
C438 C436 1.394 . S
C438 C439 1.369 . S
C438 C442 1.531 1_455 S
C439 C438 1.369 . S
C439 C440 1.410 . S
C439 C447 1.503 . S
C440 C439 1.410 . S
C440 C441 1.392 . S
C440 C443 1.511 . S
C441 C437 1.376 . S
C441 C440 1.392 . S
C441 H453 0.929 . S
C442 C438 1.531 1_655 S
C442 H454 0.960 1_655 S
C442 H455 0.962 . S
C442 H456 0.960 . S
C443 C440 1.511 . S
C443 H457 0.961 . S
C443 H458 0.961 . S
C443 H459 0.961 . S
C444 C445 1.370 . S
C444 C446 1.363 . S
C444 H460 0.931 . S
C445 C444 1.370 . S
C445 C449 1.408 . S
C446 C444 1.363 . S
C446 C447 1.370 . S
C446 C450 1.524 . S
C447 C439 1.503 . S
C447 C446 1.370 . S
C447 C448 1.403 . S
C448 C447 1.403 . S
C448 C449 1.404 . S
C448 C451 1.539 . S
C449 C445 1.408 . S
C449 C448 1.404 . S
C449 H461 0.930 . S
C450 C446 1.524 . S
C450 H462 0.956 1_455 S
C450 H463 0.961 . S
C450 H464 0.961 1_455 S
C451 C448 1.539 . S
C451 H465 0.958 . S
C451 H466 0.961 . S
C451 H467 0.960 . S
H452 C436 0.931 . S
H453 C441 0.929 . S
H454 C442 0.960 1_455 S
H455 C442 0.962 . S
H456 C442 0.960 . S
H457 C443 0.961 . S
H458 C443 0.961 . S
H459 C443 0.961 . S
H460 C444 0.931 . S
H461 C449 0.930 . S
H462 C450 0.956 1_655 S
H463 C450 0.961 . S
H464 C450 0.961 1_655 S
H465 C451 0.958 . S
H466 C451 0.961 . S
H467 C451 0.960 . S
C93 C43 1.333 . S
C85 C11 1.315 . S
C117 C25 1.352 . S
C125 C69 1.398 . S
C149 C41 1.354 . S
C157 C71 1.419 . S
C181 C7 1.368 . S
C189 C55 1.370 . S
C221 C57 1.431 . S
C213 C21 1.434 . S
C245 C36 1.340 . S
C253 C83 1.447 . S
C285 C56 1.390 . S
C277 C39 1.354 . S
C309 C8 1.353 1_655 S
C317 C82 1.441 . S
C349 C42 1.496 . S
C341 C22 1.438 1_565 S
C381 C68 1.425 . S
C373 C35 1.412 . S
C413 C70 1.415 . S
C405 C13 1.348 . S
C437 C27 1.397 . S
C445 C54 1.454 . S
