# Generated by pormake.
# Topology ocu, (6,8)-cn, num edge types: 1
# Building blocks:
#     Node 0, Type 0, BuildingBlock: MIFKUJ_clean_sbu_0, # of connection points: 6
#     Node 1, Type 0, BuildingBlock: MIFKUJ_clean_sbu_0, # of connection points: 6
#     Node 2, Type 0, BuildingBlock: MIFKUJ_clean_sbu_0, # of connection points: 6
#     Node 3, Type 0, BuildingBlock: MIFKUJ_clean_sbu_0, # of connection points: 6
#     Node 4, Type 0, BuildingBlock: MIFKUJ_clean_sbu_0, # of connection points: 6
#     Node 5, Type 0, BuildingBlock: MIFKUJ_clean_sbu_0, # of connection points: 6
#     Node 6, Type 0, BuildingBlock: MIFKUJ_clean_sbu_0, # of connection points: 6
#     Node 7, Type 0, BuildingBlock: MIFKUJ_clean_sbu_0, # of connection points: 6
#     Node 8, Type 1, BuildingBlock: AJUNOK_clean_sbu_0, # of connection points: 8
#     Node 9, Type 1, BuildingBlock: AJUNOK_clean_sbu_0, # of connection points: 8
#     Node 10, Type 1, BuildingBlock: AJUNOK_clean_sbu_0, # of connection points: 8
#     Node 11, Type 1, BuildingBlock: AJUNOK_clean_sbu_0, # of connection points: 8
#     Node 12, Type 1, BuildingBlock: AJUNOK_clean_sbu_0, # of connection points: 8
#     Node 13, Type 1, BuildingBlock: AJUNOK_clean_sbu_0, # of connection points: 8
#     Edge 14, Type (0, 1), BuildingBlock: TEMPAE_clean_linker_10, # of connection points: 2
#     Edge 15, Type (0, 1), BuildingBlock: TEMPAE_clean_linker_10, # of connection points: 2
#     Edge 16, Type (0, 1), BuildingBlock: TEMPAE_clean_linker_10, # of connection points: 2
#     Edge 17, Type (0, 1), BuildingBlock: TEMPAE_clean_linker_10, # of connection points: 2
#     Edge 18, Type (0, 1), BuildingBlock: TEMPAE_clean_linker_10, # of connection points: 2
#     Edge 19, Type (0, 1), BuildingBlock: TEMPAE_clean_linker_10, # of connection points: 2
#     Edge 20, Type (0, 1), BuildingBlock: TEMPAE_clean_linker_10, # of connection points: 2
#     Edge 21, Type (0, 1), BuildingBlock: TEMPAE_clean_linker_10, # of connection points: 2
#     Edge 22, Type (0, 1), BuildingBlock: TEMPAE_clean_linker_10, # of connection points: 2
#     Edge 23, Type (0, 1), BuildingBlock: TEMPAE_clean_linker_10, # of connection points: 2
#     Edge 24, Type (0, 1), BuildingBlock: TEMPAE_clean_linker_10, # of connection points: 2
#     Edge 25, Type (0, 1), BuildingBlock: TEMPAE_clean_linker_10, # of connection points: 2
#     Edge 26, Type (0, 1), BuildingBlock: TEMPAE_clean_linker_10, # of connection points: 2
#     Edge 27, Type (0, 1), BuildingBlock: TEMPAE_clean_linker_10, # of connection points: 2
#     Edge 28, Type (0, 1), BuildingBlock: TEMPAE_clean_linker_10, # of connection points: 2
#     Edge 29, Type (0, 1), BuildingBlock: TEMPAE_clean_linker_10, # of connection points: 2
#     Edge 30, Type (0, 1), BuildingBlock: TEMPAE_clean_linker_10, # of connection points: 2
#     Edge 31, Type (0, 1), BuildingBlock: TEMPAE_clean_linker_10, # of connection points: 2
#     Edge 32, Type (0, 1), BuildingBlock: TEMPAE_clean_linker_10, # of connection points: 2
#     Edge 33, Type (0, 1), BuildingBlock: TEMPAE_clean_linker_10, # of connection points: 2
#     Edge 34, Type (0, 1), BuildingBlock: TEMPAE_clean_linker_10, # of connection points: 2
#     Edge 35, Type (0, 1), BuildingBlock: TEMPAE_clean_linker_10, # of connection points: 2
#     Edge 36, Type (0, 1), BuildingBlock: TEMPAE_clean_linker_10, # of connection points: 2
#     Edge 37, Type (0, 1), BuildingBlock: TEMPAE_clean_linker_10, # of connection points: 2
#     Edge 38, Type (0, 1), BuildingBlock: TEMPAE_clean_linker_10, # of connection points: 2
#     Edge 39, Type (0, 1), BuildingBlock: TEMPAE_clean_linker_10, # of connection points: 2
#     Edge 40, Type (0, 1), BuildingBlock: TEMPAE_clean_linker_10, # of connection points: 2
#     Edge 41, Type (0, 1), BuildingBlock: TEMPAE_clean_linker_10, # of connection points: 2
#     Edge 42, Type (0, 1), BuildingBlock: TEMPAE_clean_linker_10, # of connection points: 2
#     Edge 43, Type (0, 1), BuildingBlock: TEMPAE_clean_linker_10, # of connection points: 2
#     Edge 44, Type (0, 1), BuildingBlock: TEMPAE_clean_linker_10, # of connection points: 2
#     Edge 45, Type (0, 1), BuildingBlock: TEMPAE_clean_linker_10, # of connection points: 2
#     Edge 46, Type (0, 1), BuildingBlock: TEMPAE_clean_linker_10, # of connection points: 2
#     Edge 47, Type (0, 1), BuildingBlock: TEMPAE_clean_linker_10, # of connection points: 2
#     Edge 48, Type (0, 1), BuildingBlock: TEMPAE_clean_linker_10, # of connection points: 2
#     Edge 49, Type (0, 1), BuildingBlock: TEMPAE_clean_linker_10, # of connection points: 2
#     Edge 50, Type (0, 1), BuildingBlock: TEMPAE_clean_linker_10, # of connection points: 2
#     Edge 51, Type (0, 1), BuildingBlock: TEMPAE_clean_linker_10, # of connection points: 2
#     Edge 52, Type (0, 1), BuildingBlock: TEMPAE_clean_linker_10, # of connection points: 2
#     Edge 53, Type (0, 1), BuildingBlock: TEMPAE_clean_linker_10, # of connection points: 2
#     Edge 54, Type (0, 1), BuildingBlock: TEMPAE_clean_linker_10, # of connection points: 2
#     Edge 55, Type (0, 1), BuildingBlock: TEMPAE_clean_linker_10, # of connection points: 2
#     Edge 56, Type (0, 1), BuildingBlock: TEMPAE_clean_linker_10, # of connection points: 2
#     Edge 57, Type (0, 1), BuildingBlock: TEMPAE_clean_linker_10, # of connection points: 2
#     Edge 58, Type (0, 1), BuildingBlock: TEMPAE_clean_linker_10, # of connection points: 2
#     Edge 59, Type (0, 1), BuildingBlock: TEMPAE_clean_linker_10, # of connection points: 2
#     Edge 60, Type (0, 1), BuildingBlock: TEMPAE_clean_linker_10, # of connection points: 2
#     Edge 61, Type (0, 1), BuildingBlock: TEMPAE_clean_linker_10, # of connection points: 2
# Relax obj value: 0.099
# Max RMSD: 0.230
# Mean RMSD: 0.168
data_MOF--net-ocu--node1-MIFKUJ_clean_sbu_0--node2-AJUNOK_clean_sbu_0--edge1-TEMPAE_clean_linker_10
_symmetry_space_group_name_H-M    P1
_symmetry_Int_Tables_number       1
_symmetry_cell_setting            triclinic
loop_
_symmetry_equiv_pos_as_xyz
'x, y, z'
_cell_length_a     43.120717
_cell_length_b     44.852786
_cell_length_c     35.317712
_cell_angle_alpha  99.243969
_cell_angle_beta   100.63371
_cell_angle_gamma 106.88211
loop_
_atom_site_label
_atom_site_type_symbol
_atom_site_fract_x
_atom_site_fract_y
_atom_site_fract_z
_atom_type_partial_charge
Zn0 Zn 0.21566 0.27946 0.26016 0.0
Zn1 Zn 0.27524 0.22118 0.2578 0.0
C2 C 0.21306 0.30406 0.34083 0.0
O3 O 0.21118 0.27511 0.34522 0.0
C4 C 0.30833 0.19787 0.20683 0.0
O5 O 0.33092 0.22375 0.23051 0.0
O6 O 0.18247 0.28649 0.2173 0.0
O7 O 0.25967 0.29355 0.2445 0.0
O8 O 0.29301 0.26416 0.24488 0.0
C9 C 0.18539 0.28596 0.18201 0.0
O10 O 0.20942 0.27712 0.17085 0.0
O11 O 0.21733 0.31148 0.30842 0.0
C12 C 0.29544 0.18703 0.30801 0.0
O13 O 0.26898 0.16706 0.28148 0.0
O14 O 0.30596 0.21592 0.30493 0.0
O15 O 0.22996 0.20706 0.27016 0.0
O16 O 0.19585 0.23557 0.27109 0.0
O17 O 0.27874 0.19003 0.2117 0.0
C18 C 0.28658 0.28923 0.23929 0.0
C19 C 0.20257 0.21029 0.27513 0.0
Zn20 Zn 0.73413 0.268 0.22939 0.0
Zn21 Zn 0.74537 0.20036 0.29302 0.0
C22 C 0.69704 0.28545 0.16862 0.0
O23 O 0.71978 0.27812 0.1525 0.0
C24 C 0.77792 0.17398 0.34814 0.0
O25 O 0.75224 0.17563 0.36241 0.0
O26 O 0.77798 0.30085 0.23763 0.0
O27 O 0.72807 0.25337 0.27954 0.0
O28 O 0.74909 0.24047 0.33245 0.0
C29 C 0.78145 0.33038 0.24572 0.0
O30 O 0.75576 0.33935 0.2506 0.0
O31 O 0.69758 0.28341 0.20425 0.0
C32 C 0.69796 0.138 0.27005 0.0
O33 O 0.72387 0.13055 0.26257 0.0
O34 O 0.70106 0.1671 0.28272 0.0
O35 O 0.75243 0.21559 0.24369 0.0
O36 O 0.73148 0.22814 0.19057 0.0
O37 O 0.78105 0.18352 0.3166 0.0
C38 C 0.74527 0.26238 0.31517 0.0
C39 C 0.73618 0.20648 0.20771 0.0
Zn40 Zn 0.78279 0.7202 0.23363 0.0
Zn41 Zn 0.70999 0.76889 0.23881 0.0
C42 C 0.82523 0.69503 0.27831 0.0
O43 O 0.84406 0.70931 0.25682 0.0
C44 C 0.68027 0.77695 0.1609 0.0
O45 O 0.67249 0.74577 0.14979 0.0
O46 O 0.79636 0.70352 0.18483 0.0
O47 O 0.73482 0.71668 0.22597 0.0
O48 O 0.68549 0.72104 0.22053 0.0
C49 C 0.7784 0.68525 0.15191 0.0
O50 O 0.74574 0.6775 0.14455 0.0
O51 O 0.79585 0.69651 0.27454 0.0
C52 C 0.69625 0.81468 0.2941 0.0
O53 O 0.70798 0.8333 0.27124 0.0
O54 O 0.69565 0.78578 0.28691 0.0
O55 O 0.75963 0.7754 0.25043 0.0
O56 O 0.8078 0.7673 0.25559 0.0
O57 O 0.69683 0.79111 0.19615 0.0
C58 C 0.70355 0.70325 0.21758 0.0
C59 C 0.79129 0.78626 0.26171 0.0
Zn60 Zn 0.21983 0.74778 0.25566 0.0
Zn61 Zn 0.27273 0.71744 0.23734 0.0
C62 C 0.16567 0.69047 0.2484 0.0
O63 O 0.14846 0.7047 0.22752 0.0
C64 C 0.32495 0.77402 0.23712 0.0
O65 O 0.34412 0.75952 0.25425 0.0
O66 O 0.19365 0.77591 0.27274 0.0
O67 O 0.26297 0.76498 0.29663 0.0
O68 O 0.27477 0.72031 0.29516 0.0
C69 C 0.18539 0.77373 0.30523 0.0
O70 O 0.19293 0.75279 0.32402 0.0
O71 O 0.19685 0.70425 0.26257 0.0
C72 C 0.30297 0.68936 0.1845 0.0
O73 O 0.28855 0.70505 0.16268 0.0
O74 O 0.30023 0.69103 0.21996 0.0
O75 O 0.22874 0.6987 0.19781 0.0
O76 O 0.21853 0.74399 0.19788 0.0
O77 O 0.29345 0.76104 0.22893 0.0
C78 C 0.27474 0.74672 0.31447 0.0
C79 C 0.21578 0.71615 0.17968 0.0
Zn80 Zn 0.23933 0.76723 0.73007 0.0
Zn81 Zn 0.25231 0.6999 0.79286 0.0
C82 C 0.20138 0.78594 0.6715 0.0
O83 O 0.22578 0.78229 0.65581 0.0
C84 C 0.2895 0.67996 0.85177 0.0
O85 O 0.27055 0.69108 0.87132 0.0
O86 O 0.28108 0.80294 0.73868 0.0
O87 O 0.23489 0.75221 0.78007 0.0
O88 O 0.25852 0.7407 0.83261 0.0
C89 C 0.28131 0.8314 0.74939 0.0
O90 O 0.2543 0.83648 0.75685 0.0
O91 O 0.20088 0.78042 0.70566 0.0
C92 C 0.20008 0.63981 0.77189 0.0
O93 O 0.22408 0.6287 0.76523 0.0
O94 O 0.20651 0.66971 0.78343 0.0
O95 O 0.25982 0.71491 0.74342 0.0
O96 O 0.23899 0.72855 0.69104 0.0
O97 O 0.28625 0.68062 0.81541 0.0
C98 C 0.25268 0.76195 0.81539 0.0
C99 C 0.24257 0.70637 0.70785 0.0
Zn100 Zn 0.28157 0.21626 0.75346 0.0
Zn101 Zn 0.21506 0.27352 0.75851 0.0
C102 C 0.30238 0.19915 0.82872 0.0
O103 O 0.31176 0.23001 0.84406 0.0
C104 C 0.18602 0.2887 0.68593 0.0
O105 O 0.17374 0.25741 0.67399 0.0
O106 O 0.29837 0.19838 0.70801 0.0
O107 O 0.23471 0.21702 0.74047 0.0
O108 O 0.18784 0.22712 0.73218 0.0
C109 C 0.28877 0.19162 0.67046 0.0
O110 O 0.26248 0.19801 0.65328 0.0
O111 O 0.28744 0.18856 0.79227 0.0
C112 C 0.20483 0.31838 0.81815 0.0
O113 O 0.22289 0.3382 0.80072 0.0
O114 O 0.19883 0.28846 0.80626 0.0
O115 O 0.26356 0.27496 0.77251 0.0
O116 O 0.3095 0.26233 0.7792 0.0
O117 O 0.20627 0.30102 0.71982 0.0
C118 C 0.20345 0.20735 0.72634 0.0
C119 C 0.29502 0.28307 0.78559 0.0
Zn120 Zn 0.70674 0.24928 0.73958 0.0
Zn121 Zn 0.75538 0.21536 0.71917 0.0
C122 C 0.66105 0.19331 0.75067 0.0
O123 O 0.63999 0.20333 0.72849 0.0
C124 C 0.80734 0.26614 0.7074 0.0
O125 O 0.82619 0.25346 0.72862 0.0
O126 O 0.68136 0.27696 0.76016 0.0
O127 O 0.75405 0.27344 0.76638 0.0
O128 O 0.76501 0.23068 0.77887 0.0
C129 C 0.67624 0.27608 0.79438 0.0
O130 O 0.687 0.25717 0.81419 0.0
O131 O 0.69213 0.20861 0.7583 0.0
C132 C 0.7808 0.17965 0.66872 0.0
O133 O 0.7661 0.19409 0.64528 0.0
O134 O 0.78018 0.18489 0.70503 0.0
O135 O 0.70911 0.19553 0.68339 0.0
O136 O 0.6952 0.2389 0.68066 0.0
O137 O 0.77581 0.25383 0.69971 0.0
C138 C 0.77047 0.26064 0.78835 0.0
C139 C 0.69415 0.2112 0.66425 0.0
Zn140 Zn 0.70942 0.76754 0.74648 0.0
Zn141 Zn 0.77708 0.71621 0.75263 0.0
C142 C 0.70599 0.7993 0.82436 0.0
O143 O 0.71024 0.77397 0.83569 0.0
C144 C 0.77956 0.68435 0.67434 0.0
O145 O 0.77752 0.7106 0.66371 0.0
O146 O 0.67321 0.76797 0.70119 0.0
O147 O 0.75373 0.78177 0.73056 0.0
O148 O 0.79203 0.75756 0.73488 0.0
C149 C 0.67814 0.77449 0.66856 0.0
O150 O 0.70717 0.77664 0.66058 0.0
O151 O 0.70766 0.80237 0.7895 0.0
C152 C 0.80753 0.71243 0.83196 0.0
O153 O 0.78102 0.71748 0.84109 0.0
O154 O 0.81216 0.71417 0.79771 0.0
O155 O 0.73389 0.70388 0.76936 0.0
O156 O 0.69456 0.72656 0.76599 0.0
O157 O 0.77722 0.68113 0.70896 0.0
C158 C 0.78191 0.78013 0.72612 0.0
C159 C 0.70589 0.70473 0.775 0.0
Cd160 Cd 0.96654 0.9604 0.5433 0.0
Cd161 Cd 0.03183 0.01671 0.45802 0.0
C162 C 0.01625 0.93061 0.58571 0.0
N163 N 0.0002 0.92847 0.54798 0.0
C164 C 0.02578 0.89138 0.52294 0.0
C165 C 0.04358 0.89418 0.56167 0.0
C166 C 0.03831 0.91382 0.59323 0.0
C167 C 0.004 0.90899 0.51671 0.0
H168 H 0.01207 0.94568 0.61005 0.0
H169 H 0.99019 0.90716 0.48711 0.0
C170 C 0.95857 0.96608 0.44086 0.0
C171 C 0.97943 0.04624 0.42133 0.0
C172 C 0.95408 0.05956 0.41601 0.0
C173 C 0.94317 0.07083 0.44874 0.0
C174 C 0.95869 0.06902 0.48654 0.0
C175 C 0.98386 0.05496 0.49047 0.0
N176 N -0.00667 0.04368 0.45791 0.0
H177 H 0.98753 0.03712 0.39603 0.0
H178 H -0.00449 0.05273 0.51924 0.0
C179 C 0.03574 0.94456 0.44029 0.0
N180 N 0.05454 0.9759 0.44738 0.0
C181 C 0.1017 0.9618 0.43517 0.0
C182 C 0.08268 0.92915 0.4265 0.0
C183 C 0.04945 0.92066 0.43006 0.0
C184 C 0.08708 0.98485 0.44571 0.0
H185 H 0.00989 0.93806 0.44153 0.0
H186 H 0.10137 0.00999 0.45129 0.0
C187 C 0.04084 0.01163 0.56152 0.0
C188 C 0.9194 0.92209 0.57853 0.0
N189 N 0.94386 0.00135 0.54907 0.0
C190 C 0.95887 0.02838 0.57824 0.0
C191 C 0.94196 0.05005 0.58584 0.0
C192 C 0.9092 0.04346 0.56359 0.0
C193 C 0.89498 0.01608 0.53249 0.0
C194 C 0.9129 -0.00479 0.5257 0.0
C195 C 0.07312 0.06 0.42127 0.0
O196 O 0.97088 0.96902 0.47729 0.0
O197 O 0.97741 0.97951 0.42036 0.0
O198 O 0.02957 0.00814 0.52471 0.0
O199 O 0.02139 -0.00239 0.58107 0.0
O200 O 0.91634 0.9148 0.54123 0.0
O201 O 0.94361 0.94688 0.59814 0.0
O202 O 0.07851 0.06563 0.45893 0.0
O203 O 0.04981 0.03445 0.40208 0.0
H204 H 0.98328 0.03238 0.59681 0.0
H205 H 0.90152 0.97327 0.50305 0.0
H206 H 0.02908 0.87622 0.49792 0.0
H207 H 0.05099 0.91601 0.62355 0.0
H208 H 0.94313 0.0611 0.3865 0.0
H209 H 0.951 0.07776 0.51244 0.0
H210 H 0.12722 0.96958 0.4323 0.0
H211 H 0.03398 0.89582 0.4243 0.0
H212 H 0.95363 0.07077 0.61031 0.0
H213 H 0.86987 0.01034 0.51454 0.0
Cd214 Cd 0.46574 0.96827 0.04527 0.0
Cd215 Cd 0.5192 0.00916 0.95313 0.0
C216 C 0.51673 0.93741 0.0833 0.0
N217 N 0.50131 0.93808 0.04645 0.0
C218 C 0.52585 0.90166 0.01712 0.0
C219 C 0.54153 0.90011 0.05498 0.0
C220 C 0.53712 0.91865 0.08828 0.0
C221 C 0.50546 0.92084 0.01349 0.0
H222 H 0.51275 0.95119 0.10893 0.0
H223 H 0.49252 0.9215 0.98451 0.0
C224 C 0.44892 0.95769 0.93925 0.0
C225 C 0.47076 0.04029 0.9103 0.0
C226 C 0.44909 0.05752 0.90271 0.0
C227 C 0.43812 0.07156 0.93381 0.0
C228 C 0.44895 0.06739 0.97205 0.0
C229 C 0.47102 0.05008 0.97839 0.0
N230 N 0.48134 0.03701 0.94758 0.0
H231 H 0.47949 0.02968 0.88645 0.0
H232 H 0.48029 0.04746 0.00784 0.0
C233 C 0.53159 0.94374 0.9205 0.0
N234 N 0.54222 0.96817 0.95308 0.0
C235 C 0.58703 0.95023 0.97934 0.0
C236 C 0.57762 0.9256 0.94508 0.0
C237 C 0.54891 0.92205 0.91592 0.0
C238 C 0.56902 0.9715 0.98261 0.0
H239 H 0.51072 0.94213 0.89703 0.0
H240 H 0.57732 -0.00849 0.0079 0.0
C241 C 0.53797 0.02021 0.06158 0.0
C242 C 0.42346 0.93058 0.08445 0.0
N243 N 0.4432 0.00953 0.05089 0.0
C244 C 0.45708 0.03326 0.08422 0.0
C245 C 0.44122 0.05531 0.09399 0.0
C246 C 0.41047 0.05267 0.06958 0.0
C247 C 0.39752 0.02902 0.03415 0.0
C248 C 0.41434 0.00732 0.02545 0.0
C249 C 0.56358 0.04644 0.91525 0.0
O250 O 0.46276 0.96706 0.97592 0.0
O251 O 0.46532 0.9694 0.9157 0.0
O252 O 0.52658 0.01326 0.0243 0.0
O253 O 0.51946 0.00697 0.08237 0.0
O254 O 0.41859 0.92246 0.04702 0.0
O255 O 0.4472 0.95611 0.10245 0.0
O256 O 0.56475 0.05646 0.95147 0.0
O257 O 0.54243 0.0192 0.89768 0.0
H258 H 0.47954 0.03406 0.10446 0.0
H259 H 0.40357 -0.01219 -0.00049 0.0
H260 H 0.52856 0.88755 0.99078 0.0
H261 H 0.54912 0.91841 0.11797 0.0
H262 H 0.44104 0.05993 0.87277 0.0
H263 H 0.44119 0.07813 0.99679 0.0
H264 H 0.6087 0.95367 0.00279 0.0
H265 H 0.541 0.9039 0.88865 0.0
H266 H 0.45218 0.07343 0.12135 0.0
H267 H 0.3738 0.0262 0.01467 0.0
Cd268 Cd 0.97637 0.47228 0.06107 0.0
Cd269 Cd -0.00366 0.50309 0.94971 0.0
C270 C 0.0446 0.45704 0.08251 0.0
N271 N 0.01545 0.44658 0.0542 0.0
C272 C 0.02901 0.40172 0.02461 0.0
C273 C 0.05857 0.41102 0.0547 0.0
C274 C 0.06663 0.43959 0.08331 0.0
C275 C 0.00755 0.4198 0.02518 0.0
H276 H 0.04994 0.47804 0.10573 0.0
H277 H 0.98399 0.41172 0.00346 0.0
C278 C 0.94367 0.4428 0.95637 0.0
C279 C 0.93464 0.52501 0.91853 0.0
C280 C 0.91454 0.54427 0.91484 0.0
C281 C 0.91905 0.57004 0.94623 0.0
C282 C 0.94314 0.57477 0.98143 0.0
C283 C 0.96296 0.55504 0.98369 0.0
N284 N 0.95864 0.53103 0.95225 0.0
H285 H 0.93225 0.50616 0.89375 0.0
H286 H 0.98245 0.55959 0.01007 0.0
C287 C 0.013 0.44102 0.91574 0.0
N288 N 0.02445 0.46553 0.94831 0.0
C289 C 0.07198 0.44961 0.96988 0.0
C290 C 0.0612 0.42472 0.93565 0.0
C291 C 0.03058 0.4199 0.90929 0.0
C292 C 0.05308 0.46991 0.97565 0.0
H293 H -0.00918 0.43853 0.89373 0.0
H294 H 0.06203 0.48998 0.00094 0.0
C295 C 0.02991 0.5333 0.05661 0.0
C296 C 0.94514 0.44001 0.11272 0.0
N297 N 0.94529 0.50711 0.05912 0.0
C298 C 0.953 0.53028 0.09255 0.0
C299 C 0.93378 0.55025 0.09633 0.0
C300 C 0.90619 0.54626 0.06547 0.0
C301 C 0.89921 0.52267 0.03081 0.0
C302 C 0.91904 0.50299 0.02839 0.0
C303 C 0.02971 0.53406 0.89806 0.0
O304 O 0.95959 0.46048 0.99009 0.0
O305 O 0.94891 0.45368 0.92636 0.0
O306 O 0.01382 0.51712 0.02199 0.0
O307 O 0.0227 0.52158 0.08549 0.0
O308 O 0.93421 0.43007 0.07539 0.0
O309 O 0.97137 0.46434 0.12561 0.0
O310 O 0.04133 0.54248 0.93534 0.0
O311 O 0.00196 0.51152 0.88491 0.0
H312 H 0.97358 0.53264 0.11683 0.0
H313 H 0.91291 0.484 0.0024 0.0
H314 H 0.02193 0.38011 0.0017 0.0
H315 H 0.08868 0.44744 0.1076 0.0
H316 H 0.89693 0.53998 0.88678 0.0
H317 H 0.94723 0.59395 0.00664 0.0
H318 H 0.09553 0.45439 0.99089 0.0
H319 H 0.02092 0.40075 0.88287 0.0
H320 H 0.9401 0.56833 0.12342 0.0
H321 H 0.878 0.51876 0.00649 0.0
Cd322 Cd 0.47401 0.45823 0.04945 0.0
Cd323 Cd 0.53828 0.52355 0.97024 0.0
C324 C 0.52304 0.42505 0.01652 0.0
N325 N 0.49447 0.41726 0.02916 0.0
C326 C 0.50201 0.36868 0.04143 0.0
C327 C 0.53325 0.37763 0.03211 0.0
C328 C 0.54276 0.40529 0.01727 0.0
C329 C 0.48293 0.38904 0.03982 0.0
H330 H 0.53205 0.44793 0.00928 0.0
H331 H 0.46054 0.38363 0.05061 0.0
C332 C 0.4643 0.47661 0.95412 0.0
C333 C 0.51171 0.58009 0.95324 0.0
C334 C 0.49057 0.59832 0.95002 0.0
C335 C 0.46621 0.59505 0.97189 0.0
C336 C 0.46519 0.57485 -0.00149 0.0
C337 C 0.48716 0.55722 0.00108 0.0
N338 N 0.50909 0.55947 0.9777 0.0
H339 H 0.52899 0.58116 0.93454 0.0
H340 H 0.48566 0.5406 0.02012 0.0
C341 C 0.53072 0.44961 0.93131 0.0
N342 N 0.55317 0.4786 0.95132 0.0
C343 C 0.59869 0.4594 0.94597 0.0
C344 C 0.57619 0.42919 0.92479 0.0
C345 C 0.54172 0.42433 0.91833 0.0
C346 C 0.58656 0.48374 0.95924 0.0
H347 H 0.50428 0.44594 0.92515 0.0
H348 H 0.60383 0.50718 0.97483 0.0
C349 C 0.5509 0.50595 0.07023 0.0
C350 C 0.42971 0.4236 0.09029 0.0
N351 N 0.45161 0.49906 0.05796 0.0
C352 C 0.46758 0.52452 0.08905 0.0
C353 C 0.45274 0.54764 0.09829 0.0
C354 C 0.42101 0.54427 0.07554 0.0
C355 C 0.40552 0.51808 0.04296 0.0
C356 C 0.42131 0.49554 0.03477 0.0
C357 C 0.58451 0.56138 0.93335 0.0
O358 O 0.47918 0.47796 0.98913 0.0
O359 O 0.48066 0.49303 0.93367 0.0
O360 O 0.53973 0.50795 0.0351 0.0
O361 O 0.53101 0.48914 0.08728 0.0
O362 O 0.42136 0.41914 0.05266 0.0
O363 O 0.45836 0.44378 0.10809 0.0
O364 O 0.5899 0.56751 0.97103 0.0
O365 O 0.55866 0.53799 0.91429 0.0
H366 H 0.49139 0.52631 0.10736 0.0
H367 H 0.40897 0.47471 0.0107 0.0
H368 H 0.49378 0.34778 0.05339 0.0
H369 H 0.56641 0.41287 0.00922 0.0
H370 H 0.49189 0.61327 0.92874 0.0
H371 H 0.44687 0.57197 0.016 0.0
H372 H 0.62546 0.46471 0.95107 0.0
H373 H 0.52332 0.40136 0.90299 0.0
H374 H 0.46535 0.56718 0.12397 0.0
H375 H 0.38124 0.51477 0.02443 0.0
Cd376 Cd 0.96416 0.47221 0.54062 0.0
Cd377 Cd 0.01751 0.50661 0.4465 0.0
C378 C 0.02019 0.45339 0.59521 0.0
N379 N 0.00396 0.44746 0.55655 0.0
C380 C 0.03237 0.4109 0.53833 0.0
C381 C 0.04938 0.41647 0.57812 0.0
C382 C 0.0432 0.43821 0.60667 0.0
C383 C 0.00936 0.42655 0.52822 0.0
H384 H 0.01496 0.46969 0.61727 0.0
H385 H -0.00482 0.42149 0.49798 0.0
C386 C 0.94981 0.45295 0.43495 0.0
C387 C 0.96118 0.52746 0.40116 0.0
C388 C 0.93786 0.54256 0.39144 0.0
C389 C 0.93069 0.56221 0.42142 0.0
C390 C 0.94728 0.56577 0.46098 0.0
C391 C 0.97047 0.54991 0.46945 0.0
N392 N 0.97686 0.53127 0.43952 0.0
H393 H 0.96746 0.5132 0.37793 0.0
H394 H 0.98378 0.55297 0.49969 0.0
C395 C 0.03019 0.43812 0.44149 0.0
N396 N 0.04542 0.47013 0.45572 0.0
C397 C 0.09892 0.46331 0.471 0.0
C398 C 0.08413 0.43026 0.45463 0.0
C399 C 0.04908 0.4176 0.44137 0.0
C400 C 0.07895 0.48286 0.47132 0.0
H401 H 0.00355 0.42849 0.42892 0.0
H402 H 0.0904 0.50852 0.48189 0.0
C403 C 0.03723 0.52782 0.55684 0.0
C404 C 0.91804 0.43212 0.57314 0.0
N405 N 0.93969 0.51209 0.54268 0.0
C406 C 0.94957 0.53528 0.57646 0.0
C407 C 0.93196 0.55656 0.5821 0.0
C408 C 0.90369 0.55387 0.55282 0.0
C409 C 0.89475 0.53026 0.51759 0.0
C410 C 0.91313 0.50938 0.51321 0.0
C411 C 0.05715 0.54119 0.40195 0.0
O412 O 0.96308 0.4652 0.47138 0.0
O413 O 0.96629 0.46282 0.41063 0.0
O414 O 0.03031 0.52046 0.51922 0.0
O415 O 0.01598 0.51479 0.57493 0.0
O416 O 0.91729 0.42499 0.53657 0.0
O417 O 0.93976 0.45815 0.5938 0.0
O418 O 0.05929 0.5534 0.43779 0.0
O419 O 0.03731 0.51282 0.38767 0.0
H420 H 0.97014 0.53625 0.5999 0.0
H421 H 0.90554 0.49032 0.48691 0.0
H422 H 0.03598 0.39386 0.51557 0.0
H423 H 0.05588 0.44327 0.63762 0.0
H424 H 0.92659 0.53986 0.36048 0.0
H425 H 0.94262 0.58083 0.48498 0.0
H426 H 0.12578 0.47436 0.4811 0.0
H427 H 0.03641 0.39222 0.4294 0.0
H428 H 0.93939 0.5738 0.61011 0.0
H429 H 0.87337 0.52749 0.49408 0.0
Cd430 Cd 0.46541 0.97055 0.55243 0.0
Cd431 Cd 0.49234 -0.01234 0.43845 0.0
C432 C 0.52023 0.94314 0.59026 0.0
N433 N 0.49993 0.93906 0.55421 0.0
C434 C 0.51991 0.89816 0.5263 0.0
C435 C 0.54104 0.90171 0.56339 0.0
C436 C 0.54094 0.92464 0.59558 0.0
C437 C 0.49929 0.91709 0.52241 0.0
H438 H 0.51986 0.9605 0.61512 0.0
H439 H 0.48256 0.91398 0.49418 0.0
C440 C 0.43087 0.93693 0.44727 0.0
C441 C 0.43701 0.01455 0.40266 0.0
C442 C 0.41891 0.03518 0.39658 0.0
C443 C 0.42371 0.06172 0.42694 0.0
C444 C 0.44514 0.06557 0.46383 0.0
C445 C 0.46265 0.04411 0.46869 0.0
N446 N 0.45883 0.01972 0.43793 0.0
H447 H 0.43462 -0.005 0.37876 0.0
H448 H 0.48008 0.04765 0.49652 0.0
C449 C 0.50031 0.91738 0.41922 0.0
N450 N 0.51646 0.94755 0.44169 0.0
C451 C 0.56754 0.93607 0.45683 0.0
C452 C 0.55207 0.90548 0.43161 0.0
C453 C 0.51759 0.89571 0.41433 0.0
C454 C 0.54913 0.95685 0.46142 0.0
H455 H 0.47455 0.91055 0.40313 0.0
H456 H 0.56147 0.98117 0.47853 0.0
C457 C 0.52654 0.01956 0.54268 0.0
C458 C 0.42956 0.94751 0.60627 0.0
N459 N 0.44133 0.01066 0.54551 0.0
C460 C 0.45632 0.04032 0.56973 0.0
C461 C 0.43951 0.06266 0.57121 0.0
C462 C 0.40669 0.05423 0.54813 0.0
C463 C 0.3924 0.0239 0.52213 0.0
C464 C 0.41023 0.00235 0.52135 0.0
C465 C 0.53051 0.01502 0.38836 0.0
O466 O 0.44848 0.95425 0.48069 0.0
O467 O 0.43944 0.94456 0.41673 0.0
O468 O 0.50774 0.00196 0.50999 0.0
O469 O 0.51856 0.01321 0.57397 0.0
O470 O 0.41986 0.93413 0.5696 0.0
O471 O 0.45636 0.9713 0.61764 0.0
O472 O 0.53978 0.02478 0.42575 0.0
O473 O 0.5029 -0.00759 0.37406 0.0
H474 H 0.48064 0.04617 0.58949 0.0
H475 H 0.39862 0.97842 0.5029 0.0
H476 H 0.51922 0.88093 0.50062 0.0
H477 H 0.55607 0.92775 0.62496 0.0
H478 H 0.40205 0.03094 0.36796 0.0
H479 H 0.44946 0.08568 0.488 0.0
H480 H 0.59411 0.9448 0.47043 0.0
H481 H 0.50452 0.87219 0.39519 0.0
H482 H 0.45129 0.08554 0.59215 0.0
H483 H 0.36722 0.0165 0.5037 0.0
C484 C 0.15412 0.19247 0.30624 0.0
C485 C 0.18082 0.18649 0.29251 0.0
C486 C 0.13621 0.17228 0.32722 0.0
C487 C 0.1452 0.14545 0.33495 0.0
C488 C 0.17157 0.13887 0.32042 0.0
C489 C 0.18879 0.15924 0.29921 0.0
C490 C 0.10803 0.18 0.34177 0.0
C491 C 0.18211 0.11061 0.32794 0.0
C492 C 0.11984 0.10907 0.42011 0.0
C493 C 0.09209 0.08214 0.3999 0.0
C494 C 0.13736 0.12994 0.39943 0.0
C495 C 0.12671 0.1239 0.35759 0.0
C496 C 0.09861 0.09685 0.33719 0.0
C497 C 0.08181 0.07633 0.35849 0.0
C498 C 0.16738 0.15835 0.42229 0.0
C499 C 0.0862 0.08953 0.29274 0.0
H500 H 0.14768 0.21344 0.30149 0.0
H501 H 0.20905 0.15407 0.2886 0.0
H502 H 0.08464 0.15923 0.33038 0.0
H503 H 0.11384 0.18474 0.37454 0.0
H504 H 0.10351 0.20121 0.33247 0.0
H505 H 0.2033 0.10892 0.31496 0.0
H506 H 0.18965 0.11249 0.36025 0.0
H507 H 0.16077 0.08808 0.31528 0.0
H508 H 0.12798 0.11378 0.45206 0.0
H509 H 0.06031 0.05571 0.34251 0.0
H510 H 0.16347 0.18079 0.41669 0.0
H511 H 0.18983 0.15687 0.41204 0.0
H512 H 0.17244 0.15984 0.45466 0.0
H513 H 0.08021 0.11014 0.28355 0.0
H514 H 0.06357 0.06791 0.28137 0.0
H515 H 0.10606 0.08573 0.27851 0.0
C516 C 0.83157 0.16193 0.35581 0.0
C517 C 0.80211 0.16038 0.368 0.0
C518 C 0.85409 0.14813 0.37356 0.0
C519 C 0.84685 0.13222 0.40404 0.0
C520 C 0.81752 0.13116 0.41705 0.0
C521 C 0.79551 0.1453 0.39891 0.0
C522 C 0.88524 0.14988 0.35901 0.0
C523 C 0.80864 0.11404 0.44901 0.0
C524 C 0.88705 0.06825 0.41208 0.0
C525 C 0.9159 0.08462 0.44248 0.0
C526 C 0.86343 0.08295 0.40068 0.0
C527 C 0.86891 0.11484 0.42011 0.0
C528 C 0.89684 0.13071 0.45268 0.0
C529 C 0.92008 0.11532 0.4636 0.0
C530 C 0.83359 0.06493 0.3664 0.0
C531 C 0.90311 0.16451 0.47457 0.0
H532 H 0.83695 0.17372 0.33213 0.0
H533 H 0.77275 0.14392 0.40848 0.0
H534 H 0.90769 0.16014 0.38417 0.0
H535 H 0.88436 0.12543 0.34557 0.0
H536 H 0.88815 0.16464 0.33664 0.0
H537 H 0.78894 0.12073 0.46106 0.0
H538 H 0.79924 0.08783 0.43657 0.0
H539 H 0.83095 0.11927 0.47358 0.0
H540 H 0.88359 0.04425 0.39623 0.0
H541 H 0.94239 0.12793 0.48716 0.0
H542 H 0.83573 0.0763 0.34088 0.0
H543 H 0.81021 0.06597 0.37449 0.0
H544 H 0.83147 0.03943 0.35684 0.0
H545 H 0.90925 0.18108 0.45478 0.0
H546 H 0.92402 0.17228 0.50151 0.0
H547 H 0.88028 0.16665 0.48331 0.0
C548 C 0.84321 0.83226 0.29143 0.0
C549 C 0.80861 0.81905 0.28536 0.0
C550 C 0.86106 0.86104 0.31893 0.0
C551 C 0.84372 0.87699 0.34079 0.0
C552 C 0.80849 0.86491 0.33285 0.0
C553 C 0.79134 0.83584 0.30526 0.0
C554 C 0.89871 0.87343 0.32597 0.0
C555 C 0.7888 0.88125 0.35473 0.0
C556 C 0.90715 0.92079 0.43453 0.0
C557 C 0.92345 0.94793 0.42221 0.0
C558 C 0.87704 0.89886 0.41044 0.0
C559 C 0.86359 0.90467 0.37371 0.0
C560 C 0.87691 0.93473 0.36499 0.0
C561 C 0.90722 0.95599 0.38919 0.0
C562 C 0.86223 0.86769 0.42169 0.0
C563 C 0.86167 0.94268 0.32756 0.0
H564 H 0.85656 0.81946 0.27571 0.0
H565 H 0.76464 0.82545 0.30091 0.0
H566 H 0.90703 0.89825 0.32178 0.0
H567 H 0.91055 0.87393 0.35687 0.0
H568 H 0.90806 0.85847 0.30571 0.0
H569 H 0.76436 0.87828 0.33494 0.0
H570 H 0.78354 0.86984 0.37954 0.0
H571 H 0.80236 0.90717 0.36698 0.0
H572 H 0.91936 0.91518 0.46085 0.0
H573 H 0.91925 0.9779 0.38082 0.0
H574 H 0.86917 0.84865 0.40459 0.0
H575 H 0.83456 0.86045 0.41438 0.0
H576 H 0.87151 0.86933 0.45373 0.0
H577 H 0.87026 0.93196 0.30262 0.0
H578 H 0.86929 0.96896 0.33015 0.0
H579 H 0.83398 0.93267 0.32033 0.0
C580 C 0.15572 0.78948 0.35545 0.0
C581 C 0.16899 0.79529 0.32289 0.0
C582 C 0.14111 0.81021 0.37356 0.0
C583 C 0.14003 0.83759 0.35899 0.0
C584 C 0.15334 0.84359 0.32612 0.0
C585 C 0.1675 0.82225 0.3083 0.0
C586 C 0.12688 0.80285 0.40831 0.0
C587 C 0.15294 0.87273 0.31002 0.0
C588 C 0.07706 0.87797 0.38053 0.0
C589 C 0.09684 0.90436 0.41138 0.0
C590 C 0.09061 0.85564 0.36388 0.0
C591 C 0.12489 0.85996 0.37804 0.0
C592 C 0.14487 0.88613 0.40967 0.0
C593 C 0.13056 0.90789 0.42611 0.0
C594 C 0.06842 0.82783 0.33047 0.0
C595 C 0.18155 0.89154 0.42556 0.0
H596 H 0.15671 0.76865 0.36684 0.0
H597 H 0.1779 0.82701 0.28333 0.0
H598 H 0.13999 0.82267 0.43478 0.0
H599 H 0.10009 0.80084 0.40183 0.0
H600 H 0.12918 0.78026 0.41558 0.0
H601 H 0.1645 0.87407 0.28445 0.0
H602 H 0.12684 0.87247 0.30055 0.0
H603 H 0.16662 0.89475 0.33356 0.0
H604 H 0.05113 0.87523 0.36847 0.0
H605 H 0.14592 0.92787 0.45035 0.0
H606 H 0.06979 0.80495 0.33754 0.0
H607 H 0.07725 0.82976 0.30309 0.0
H608 H 0.04189 0.82685 0.32442 0.0
H609 H 0.18487 0.87017 0.43545 0.0
H610 H 0.19348 0.9127 0.45078 0.0
H611 H 0.19489 0.89511 0.40175 0.0
C612 C 0.17884 0.8063 0.61425 0.0
C613 C 0.17623 0.79801 0.6505 0.0
C614 C 0.15663 0.8198 0.59515 0.0
C615 C 0.13119 0.82511 0.61271 0.0
C616 C 0.12765 0.81572 0.64855 0.0
C617 C 0.15025 0.80232 0.66705 0.0
C618 C 0.16119 0.8295 0.55697 0.0
C619 C 0.10071 0.82089 0.66809 0.0
C620 C 0.09901 0.89309 0.59577 0.0
C621 C 0.06746 0.87675 0.57007 0.0
C622 C 0.12048 0.87662 0.60866 0.0
C623 C 0.11007 0.84293 0.59561 0.0
C624 C 0.07887 0.82643 0.56813 0.0
C625 C 0.0579 0.84362 0.55555 0.0
C626 C 0.15373 0.89517 0.63753 0.0
C627 C 0.06703 0.79054 0.55348 0.0
H628 H 0.19875 0.80293 0.60112 0.0
H629 H 0.14794 0.79579 0.6949 0.0
H630 H 0.13719 0.81967 0.53407 0.0
H631 H 0.16908 0.85595 0.56187 0.0
H632 H 0.18026 0.82121 0.5454 0.0
H633 H 0.0998 0.8102 0.6943 0.0
H634 H 0.10527 0.84692 0.6777 0.0
H635 H 0.07591 0.81036 0.64672 0.0
H636 H 0.10656 0.9188 0.60658 0.0
H637 H 0.03342 0.83097 0.53581 0.0
H638 H 0.17426 0.88948 0.62643 0.0
H639 H 0.15402 0.88812 0.66627 0.0
H640 H 0.15893 0.92144 0.64277 0.0
H641 H 0.08657 0.78286 0.54233 0.0
H642 H 0.04366 0.78171 0.52952 0.0
H643 H 0.06235 0.77898 0.57834 0.0
C644 C 0.15114 0.16486 0.68729 0.0
C645 C 0.18577 0.17473 0.70217 0.0
C646 C 0.13387 0.13473 0.66244 0.0
C647 C 0.15178 0.11403 0.6519 0.0
C648 C 0.18684 0.12383 0.66665 0.0
C649 C 0.2034 0.15402 0.6922 0.0
C650 C 0.09634 0.12516 0.64741 0.0
C651 C 0.20694 0.10264 0.65602 0.0
C652 C 0.08788 0.03315 0.62148 0.0
C653 C 0.07493 0.03268 0.5819 0.0
C654 C 0.11687 0.05756 0.64399 0.0
C655 C 0.1327 0.08199 0.62636 0.0
C656 C 0.1227 0.07878 0.58503 0.0
C657 C 0.09362 0.05405 0.56312 0.0
C658 C 0.12785 0.05941 0.68765 0.0
C659 C 0.14017 0.10357 0.56489 0.0
H660 H 0.13741 0.18079 0.69491 0.0
H661 H 0.23021 0.16151 0.70391 0.0
H662 H 0.08945 0.11987 0.6146 0.0
H663 H 0.08384 0.10313 0.6566 0.0
H664 H 0.08636 0.14414 0.65864 0.0
H665 H 0.23335 0.11698 0.65868 0.0
H666 H 0.20692 0.08646 0.67671 0.0
H667 H 0.19622 0.08761 0.62551 0.0
H668 H 0.07421 0.01573 0.63566 0.0
H669 H 0.08427 0.05299 0.53211 0.0
H670 H 0.11891 0.077 0.70442 0.0
H671 H 0.15549 0.06763 0.69763 0.0
H672 H 0.11753 0.03591 0.69503 0.0
H673 H 0.13108 0.12431 0.56948 0.0
H674 H 0.13503 0.09391 0.53253 0.0
H675 H 0.16759 0.11237 0.57763 0.0
C676 C 0.8198 0.14792 0.67798 0.0
C677 C 0.79834 0.15854 0.65274 0.0
C678 C 0.83751 0.12902 0.66269 0.0
C679 C 0.83344 0.12039 0.62123 0.0
C680 C 0.81134 0.13055 0.59565 0.0
C681 C 0.79416 0.14957 0.6117 0.0
C682 C 0.86087 0.11858 0.69088 0.0
C683 C 0.80623 0.12178 0.55133 0.0
C684 C 0.90233 0.09681 0.58432 0.0
C685 C 0.88897 0.06335 0.57537 0.0
C686 C 0.8843 0.11572 0.59869 0.0
C687 C 0.85232 0.10074 0.60456 0.0
C688 C 0.83846 0.06695 0.59478 0.0
C689 C 0.85692 0.04866 0.5802 0.0
C690 C 0.89966 0.1517 0.60815 0.0
C691 C 0.80441 0.05009 0.60047 0.0
H692 H 0.82316 0.1548 0.70971 0.0
H693 H 0.77746 0.1575 0.59194 0.0
H694 H 0.85351 0.09209 0.68393 0.0
H695 H 0.8867 0.12798 0.68727 0.0
H696 H 0.86099 0.12702 0.72227 0.0
H697 H 0.78672 0.13005 0.53545 0.0
H698 H 0.83005 0.13274 0.54346 0.0
H699 H 0.79901 0.09548 0.54069 0.0
H700 H 0.92699 0.10817 0.58027 0.0
H701 H 0.8467 0.02277 0.57377 0.0
H702 H 0.90276 0.16152 0.64003 0.0
H703 H 0.88284 0.16215 0.59123 0.0
H704 H 0.92441 0.15959 0.60108 0.0
H705 H 0.8044 0.0561 0.63219 0.0
H706 H 0.79688 0.02366 0.59051 0.0
H707 H 0.78531 0.05837 0.58382 0.0
C708 C 0.79024 0.82639 0.69239 0.0
C709 C 0.80196 0.80302 0.70628 0.0
C710 C 0.80766 0.84625 0.67072 0.0
C711 C 0.8377 0.84291 0.66286 0.0
C712 C 0.84991 0.81973 0.67729 0.0
C713 C 0.83197 0.80014 0.69871 0.0
C714 C 0.79373 0.87062 0.65591 0.0
C715 C 0.88189 0.81542 0.66982 0.0
C716 C 0.87129 0.87383 0.57858 0.0
C717 C 0.89681 0.90245 0.59911 0.0
C718 C 0.85129 0.85457 0.59877 0.0
C719 C 0.85694 0.86409 0.64045 0.0
C720 C 0.88215 0.8933 0.66109 0.0
C721 C 0.90167 0.91204 0.64025 0.0
C722 C 0.82457 0.82366 0.57562 0.0
C723 C 0.8891 0.90445 0.70544 0.0
H724 H 0.76713 0.8289 0.69791 0.0
H725 H 0.84134 0.78219 0.70909 0.0
H726 H 0.81215 0.895 0.6682 0.0
H727 H 0.7892 0.86619 0.62322 0.0
H728 H 0.76994 0.87005 0.66413 0.0
H729 H 0.88806 0.79635 0.68303 0.0
H730 H 0.87972 0.80922 0.63752 0.0
H731 H 0.90298 0.83816 0.68232 0.0
H732 H 0.86727 0.86622 0.54683 0.0
H733 H 0.92121 0.93414 0.65647 0.0
H734 H 0.8001 0.82297 0.58182 0.0
H735 H 0.8306 0.80314 0.58504 0.0
H736 H 0.82206 0.82043 0.54322 0.0
H737 H 0.8659 0.90547 0.71407 0.0
H738 H 0.90854 0.92843 0.71686 0.0
H739 H 0.8976 0.88712 0.72008 0.0
C740 C 0.35133 0.18777 0.17302 0.0
C741 C 0.31859 0.17734 0.1778 0.0
C742 C 0.36339 0.16754 0.14978 0.0
C743 C 0.34221 0.13608 0.13066 0.0
C744 C 0.30842 0.12615 0.13292 0.0
C745 C 0.29698 0.14688 0.15669 0.0
C746 C 0.39937 0.17931 0.14733 0.0
C747 C 0.28486 0.09316 0.11164 0.0
C748 C 0.37631 0.0889 0.05876 0.0
C749 C 0.39091 0.07258 0.08347 0.0
C750 C 0.35961 0.10927 0.07322 0.0
C751 C 0.35687 0.11266 0.11299 0.0
C752 C 0.37061 0.09527 0.13749 0.0
C753 C 0.3874 0.07551 0.12244 0.0
C754 C 0.34523 0.1271 0.04579 0.0
C755 C 0.36859 0.09835 0.18016 0.0
H756 H 0.36807 0.2115 0.18858 0.0
H757 H 0.27152 0.13881 0.1598 0.0
H758 H 0.41348 0.1656 0.16233 0.0
H759 H 0.40079 0.17525 0.11595 0.0
H760 H 0.41181 0.20517 0.16136 0.0
H761 H 0.25861 0.09025 0.11288 0.0
H762 H 0.286 0.08829 0.08019 0.0
H763 H 0.29261 0.07498 0.1252 0.0
H764 H 0.37882 0.08652 0.02854 0.0
H765 H 0.39805 0.06237 0.14137 0.0
H766 H 0.34507 0.15043 0.06178 0.0
H767 H 0.31903 0.11235 0.03048 0.0
H768 H 0.35951 0.13148 0.02294 0.0
H769 H 0.38214 0.12339 0.19697 0.0
H770 H 0.37952 0.08229 0.19478 0.0
H771 H 0.34217 0.09266 0.18198 0.0
C772 C 0.84083 0.34448 0.24321 0.0
C773 C 0.8121 0.35329 0.24168 0.0
C774 C 0.86789 0.36243 0.23096 0.0
C775 C 0.86558 0.38927 0.21595 0.0
C776 C 0.83811 0.40014 0.21812 0.0
C777 C 0.81152 0.38192 0.23108 0.0
C778 C 0.89718 0.35058 0.23009 0.0
C779 C 0.83512 0.42902 0.20292 0.0
C780 C 0.93687 0.43925 0.18067 0.0
C781 C 0.92674 0.42542 0.13992 0.0
C782 C 0.91761 0.42744 0.20628 0.0
C783 C 0.88763 0.40137 0.1905 0.0
C784 C 0.87788 0.38672 0.14959 0.0
C785 C 0.89762 0.39894 0.12479 0.0
C786 C 0.92875 0.44345 0.24979 0.0
C787 C 0.84613 0.35858 0.13175 0.0
H788 H 0.84139 0.32244 0.25171 0.0
H789 H 0.78941 0.38894 0.23022 0.0
H790 H 0.8943 0.3372 0.19965 0.0
H791 H 0.92105 0.37081 0.23826 0.0
H792 H 0.89871 0.3343 0.25048 0.0
H793 H 0.81577 0.43764 0.21328 0.0
H794 H 0.85933 0.44885 0.21243 0.0
H795 H 0.8281 0.42261 0.17008 0.0
H796 H 0.95941 0.45981 0.19247 0.0
H797 H 0.88978 0.38815 0.09334 0.0
H798 H 0.92699 0.42539 0.2681 0.0
H799 H 0.91204 0.45701 0.25718 0.0
H800 H 0.95481 0.46032 0.25812 0.0
H801 H 0.84656 0.33862 0.14652 0.0
H802 H 0.84252 0.34969 0.09949 0.0
H803 H 0.82422 0.36556 0.13649 0.0
C804 C 0.64101 0.77856 0.09985 0.0
C805 C 0.66546 0.79484 0.1351 0.0
C806 C 0.62253 0.79455 0.07905 0.0
C807 C 0.62864 0.8275 0.09394 0.0
C808 C 0.6553 0.84458 0.12744 0.0
C809 C 0.67335 0.82805 0.14766 0.0
C810 C 0.59485 0.77572 0.04284 0.0
C811 C 0.66306 0.87988 0.14381 0.0
C812 C 0.58668 0.87827 0.04063 0.0
C813 C 0.56148 0.87856 0.06058 0.0
C814 C 0.608 0.8605 0.04962 0.0
C815 C 0.60391 0.84282 0.07928 0.0
C816 C 0.57725 0.84172 0.09779 0.0
C817 C 0.55639 0.85953 0.08815 0.0
C818 C 0.63582 0.86213 0.02882 0.0
C819 C 0.57161 0.82287 0.12919 0.0
H820 H 0.63502 0.75297 0.08958 0.0
H821 H 0.69259 0.84097 0.17447 0.0
H822 H 0.57033 0.77216 0.05032 0.0
H823 H 0.59536 0.78906 0.01895 0.0
H824 H 0.59666 0.75187 0.03149 0.0
H825 H 0.68699 0.89041 0.16688 0.0
H826 H 0.66446 0.89302 0.11977 0.0
H827 H 0.64268 0.88358 0.1571 0.0
H828 H 0.59064 0.89295 0.01926 0.0
H829 H 0.53641 0.85917 0.10294 0.0
H830 H 0.64098 0.83916 0.02417 0.0
H831 H 0.65899 0.88098 0.0473 0.0
H832 H 0.62981 0.86831 -0.00025 0.0
H833 H 0.56967 0.79768 0.11793 0.0
H834 H 0.54858 0.82301 0.13894 0.0
H835 H 0.59323 0.83316 0.15537 0.0
C836 C 0.19493 0.67508 0.11701 0.0
C837 C 0.191 0.7007 0.14177 0.0
C838 C 0.16726 0.65202 0.08986 0.0
C839 C 0.13518 0.6546 0.08849 0.0
C840 C 0.13223 0.68347 0.10788 0.0
C841 C 0.16045 0.70645 0.13461 0.0
C842 C 0.17173 0.62244 0.06786 0.0
C843 C 0.09862 0.68786 0.10534 0.0
C844 C 0.06049 0.58104 0.03354 0.0
C845 C 0.05595 0.56477 0.06389 0.0
C846 C 0.08554 0.61095 0.04087 0.0
C847 C 0.10637 0.62464 0.07951 0.0
C848 C 0.1011 0.60862 0.11047 0.0
C849 C 0.07605 0.57896 0.10221 0.0
C850 C 0.08997 0.62718 0.00704 0.0
C851 C 0.12229 0.62247 0.15245 0.0
H852 H 0.21894 0.67127 0.12171 0.0
H853 H 0.15755 0.72674 0.15311 0.0
H854 H 0.16552 0.60315 0.08413 0.0
H855 H 0.15474 0.61381 0.03781 0.0
H856 H 0.1979 0.62694 0.06523 0.0
H857 H 0.10112 0.71363 0.11247 0.0
H858 H 0.08183 0.67647 0.07542 0.0
H859 H 0.08673 0.67636 0.12701 0.0
H860 H 0.04434 0.57054 0.00419 0.0
H861 H 0.07246 0.56667 0.12592 0.0
H862 H 0.10861 0.62013 0.99315 0.0
H863 H 0.09912 0.65363 0.01718 0.0
H864 H 0.06619 0.61974 0.9839 0.0
H865 H 0.14891 0.62566 0.15323 0.0
H866 H 0.11451 0.60703 0.173 0.0
H867 H 0.12052 0.64631 0.16374 0.0
C868 C 0.26867 0.8191 0.85067 0.0
C869 C 0.27687 0.7945 0.82954 0.0
C870 C 0.29338 0.84886 0.86931 0.0
C871 C 0.3268 0.85387 0.86645 0.0
C872 C 0.33461 0.82943 0.84342 0.0
C873 C 0.30963 0.79988 0.82573 0.0
C874 C 0.28405 0.8746 0.89289 0.0
C875 C 0.36964 0.83412 0.83848 0.0
C876 C 0.39491 0.93433 0.88858 0.0
C877 C 0.41529 0.93371 0.924 0.0
C878 C 0.3643 0.90996 0.87116 0.0
C879 C 0.35431 0.88376 0.88899 0.0
C880 C 0.37378 0.88425 0.9263 0.0
C881 C 0.40408 0.90934 0.94344 0.0
C882 C 0.34417 0.9121 0.83268 0.0
C883 C 0.36363 0.85737 0.94705 0.0
H884 H 0.24327 0.81466 0.85374 0.0
H885 H 0.3158 0.78066 0.80939 0.0
H886 H 0.29777 0.88026 0.9244 0.0
H887 H 0.29155 0.89686 0.88197 0.0
H888 H 0.2568 0.86739 0.89112 0.0
H889 H 0.37091 0.81387 0.81683 0.0
H890 H 0.37911 0.85652 0.82843 0.0
H891 H 0.38657 0.83649 0.86739 0.0
H892 H 0.40319 0.95364 0.87394 0.0
H893 H 0.41985 0.90894 0.97092 0.0
H894 H 0.31856 0.89451 0.82353 0.0
H895 H 0.35766 0.90848 0.8094 0.0
H896 H 0.34231 0.93649 0.83506 0.0
H897 H 0.33686 0.8515 0.9474 0.0
H898 H 0.37884 0.86339 0.97798 0.0
H899 H 0.3668 0.83558 0.93072 0.0
C900 C 0.15868 0.31106 0.85344 0.0
C901 C 0.18826 0.3308 0.84726 0.0
C902 C 0.13931 0.32409 0.87473 0.0
C903 C 0.15007 0.35753 0.89056 0.0
C904 C 0.18153 0.37698 0.88768 0.0
C905 C 0.20007 0.36346 0.8657 0.0
C906 C 0.10599 0.3025 0.87723 0.0
C907 C 0.19437 0.41259 0.90499 0.0
C908 C 0.0853 0.39936 0.88545 0.0
C909 C 0.08305 0.40605 0.92486 0.0
C910 C 0.10622 0.38278 0.87406 0.0
C911 C 0.12605 0.37293 0.90285 0.0
C912 C 0.12379 0.37922 0.94273 0.0
C913 C 0.10235 0.39583 0.9533 0.0
C914 C 0.10759 0.37648 0.83112 0.0
C915 C 0.14459 0.36929 0.97442 0.0
H916 H 0.14948 0.28577 0.83943 0.0
H917 H 0.22316 0.3788 0.86154 0.0
H918 H 0.1022 0.30812 0.90744 0.0
H919 H 0.08568 0.30651 0.85651 0.0
H920 H 0.10367 0.27682 0.86933 0.0
H921 H 0.22127 0.42335 0.90593 0.0
H922 H 0.17998 0.42435 0.88672 0.0
H923 H 0.19087 0.41782 0.9354 0.0
H924 H 0.07124 0.40783 0.86337 0.0
H925 H 0.10072 0.40081 0.98379 0.0
H926 H 0.10273 0.35062 0.81961 0.0
H927 H 0.13292 0.3896 0.82843 0.0
H928 H 0.08911 0.38405 0.81209 0.0
H929 H 0.14518 0.34487 0.9637 0.0
H930 H 0.13506 0.36987 0.00159 0.0
H931 H 0.17069 0.38592 0.98238 0.0
C932 C 0.6148 0.15749 0.77211 0.0
C933 C 0.64867 0.16814 0.77177 0.0
C934 C 0.60331 0.13657 0.79584 0.0
C935 C 0.62617 0.12574 0.81937 0.0
C936 C 0.66014 0.13534 0.81792 0.0
C937 C 0.67104 0.15659 0.79426 0.0
C938 C 0.56688 0.12691 0.79672 0.0
C939 C 0.68509 0.12384 0.84212 0.0
C940 C 0.59938 0.09925 0.9084 0.0
C941 C 0.58385 0.06625 0.89325 0.0
C942 C 0.61453 0.11885 0.88514 0.0
C943 C 0.61441 0.10496 0.84612 0.0
C944 C 0.60054 0.07143 0.83161 0.0
C945 C 0.58525 0.05249 0.8553 0.0
C946 C 0.629 0.15458 0.90154 0.0
C947 C 0.60039 0.05569 0.7904 0.0
H948 H 0.59738 0.16635 0.75488 0.0
H949 H 0.69723 0.16464 0.79397 0.0
H950 H 0.55558 0.10046 0.78888 0.0
H951 H 0.56463 0.13536 0.82708 0.0
H952 H 0.55222 0.13689 0.776 0.0
H953 H 0.71006 0.13179 0.83559 0.0
H954 H 0.68792 0.13307 0.87408 0.0
H955 H 0.67599 0.09733 0.83635 0.0
H956 H 0.59836 0.10997 0.93773 0.0
H957 H 0.57356 0.02691 0.8436 0.0
H958 H 0.6138 0.16658 0.88484 0.0
H959 H 0.65479 0.16387 0.89783 0.0
H960 H 0.62953 0.16132 0.93339 0.0
H961 H 0.58326 0.06231 0.76832 0.0
H962 H 0.5921 0.02918 0.7853 0.0
H963 H 0.62569 0.06422 0.78499 0.0
C964 C 0.85163 0.6868 0.84403 0.0
C965 C 0.8276 0.6981 0.85755 0.0
C966 C 0.86671 0.66823 0.86434 0.0
C967 C 0.85792 0.66107 0.89936 0.0
C968 C 0.83522 0.67401 0.91449 0.0
C969 C 0.82022 0.69229 0.89331 0.0
C970 C 0.89074 0.65483 0.84706 0.0
C971 C 0.82583 0.66759 0.9522 0.0
C972 C 0.86824 0.58292 0.91648 0.0
C973 C 0.9009 0.59332 0.94047 0.0
C974 C 0.85311 0.60484 0.90474 0.0
C975 C 0.87076 0.63807 0.91798 0.0
C976 C 0.90246 0.64878 0.94503 0.0
C977 C 0.9173 0.62631 0.95568 0.0
C978 C 0.8191 0.59235 0.87609 0.0
C979 C 0.92176 0.68399 0.96062 0.0
H980 H 0.8576 0.6912 0.81651 0.0
H981 H 0.80181 0.70105 0.90411 0.0
H982 H 0.9147 0.66118 0.86947 0.0
H983 H 0.88011 0.62832 0.83846 0.0
H984 H 0.89605 0.66378 0.82058 0.0
H985 H 0.80914 0.68073 0.96107 0.0
H986 H 0.81291 0.64162 0.94835 0.0
H987 H 0.84867 0.67467 0.97657 0.0
H988 H 0.85486 0.55751 0.90562 0.0
H989 H 0.94255 0.63481 0.97415 0.0
H990 H 0.82154 0.59794 0.84706 0.0
H991 H 0.8021 0.60423 0.88681 0.0
H992 H 0.80741 0.56606 0.87152 0.0
H993 H 0.9321 0.69388 0.93703 0.0
H994 H 0.94284 0.68838 0.98656 0.0
H995 H 0.90517 0.69728 0.96927 0.0
C996 C 0.16691 0.29853 0.11644 0.0
C997 C 0.16498 0.29963 0.15588 0.0
C998 C 0.1499 0.31404 0.09273 0.0
C999 C 0.13108 0.33148 0.10917 0.0
C1000 C 0.12853 0.33209 0.14868 0.0
C1001 C 0.14524 0.31596 0.17138 0.0
C1002 C 0.15274 0.31241 0.05053 0.0
C1003 C 0.10886 0.35057 0.16746 0.0
C1004 C 0.1134 0.40195 0.07529 0.0
C1005 C 0.07868 0.38934 0.05966 0.0
C1006 C 0.1315 0.3827 0.08882 0.0
C1007 C 0.11453 0.34996 0.08601 0.0
C1008 C 0.08025 0.33639 0.06638 0.0
C1009 C 0.06264 0.35627 0.05371 0.0
C1010 C 0.16815 0.39807 0.10917 0.0
C1011 C 0.06145 0.30138 0.06179 0.0
H1012 H 0.18209 0.28593 0.10421 0.0
H1013 H 0.14365 0.31706 0.20181 0.0
H1014 H 0.12785 0.30697 0.03028 0.0
H1015 H 0.16876 0.33597 0.04804 0.0
H1016 H 0.16387 0.29405 0.04043 0.0
H1017 H 0.10935 0.34859 0.1985 0.0
H1018 H 0.11923 0.37625 0.16723 0.0
H1019 H 0.08245 0.34171 0.15018 0.0
H1020 H 0.12619 0.42727 0.07886 0.0
H1021 H 0.03585 0.34614 0.04173 0.0
H1022 H 0.18276 0.38331 0.09843 0.0
H1023 H 0.17158 0.39971 0.14146 0.0
H1024 H 0.17852 0.42253 0.1044 0.0
H1025 H 0.07632 0.28638 0.05239 0.0
H1026 H 0.03692 0.29343 0.0399 0.0
H1027 H 0.05693 0.29716 0.09071 0.0
C1028 C 0.16513 0.58811 0.78148 0.0
C1029 C 0.1677 0.61818 0.77345 0.0
C1030 C 0.13717 0.57084 0.79302 0.0
C1031 C 0.11147 0.58411 0.79636 0.0
C1032 C 0.11212 0.61245 0.78339 0.0
C1033 C 0.14049 0.62939 0.7724 0.0
C1034 C 0.13701 0.54032 0.80591 0.0
C1035 C 0.08462 0.62674 0.78515 0.0
C1036 C 0.03786 0.53627 0.8302 0.0
C1037 C 0.04872 0.54857 0.87127 0.0
C1038 C 0.05751 0.54815 0.80492 0.0
C1039 C 0.08864 0.57265 0.82136 0.0
C1040 C 0.0991 0.58587 0.86267 0.0
C1041 C 0.07896 0.57368 0.88709 0.0
C1042 C 0.04549 0.5337 0.761 0.0
C1043 C 0.1321 0.61229 0.88133 0.0
H1044 H 0.18599 0.57921 0.78177 0.0
H1045 H 0.14218 0.65233 0.76522 0.0
H1046 H 0.14368 0.54528 0.83873 0.0
H1047 H 0.1118 0.522 0.7953 0.0
H1048 H 0.15526 0.53032 0.79489 0.0
H1049 H 0.08496 0.64406 0.76586 0.0
H1050 H 0.05973 0.60784 0.77615 0.0
H1051 H 0.08806 0.63958 0.81602 0.0
H1052 H 0.01443 0.51683 0.81786 0.0
H1053 H 0.08733 0.58337 0.91878 0.0
H1054 H 0.05968 0.51773 0.75252 0.0
H1055 H 0.04993 0.55256 0.74386 0.0
H1056 H 0.01846 0.51939 0.75231 0.0
H1057 H 0.15297 0.60387 0.87569 0.0
H1058 H 0.13607 0.62035 0.91381 0.0
H1059 H 0.13331 0.63319 0.8679 0.0
C1060 C 0.33474 0.19011 0.89003 0.0
C1061 C 0.31478 0.17791 0.85119 0.0
C1062 C 0.35176 0.17205 0.90887 0.0
C1063 C 0.34893 0.1412 0.88829 0.0
C1064 C 0.32677 0.12783 0.85034 0.0
C1065 C 0.30988 0.14629 0.83232 0.0
C1066 C 0.3746 0.18688 0.94969 0.0
C1067 C 0.32289 0.09496 0.8274 0.0
C1068 C 0.42498 0.11438 0.90384 0.0
C1069 C 0.4164 0.09123 0.92587 0.0
C1070 C 0.40361 0.13137 0.89255 0.0
C1071 C 0.37273 0.12505 0.90346 0.0
C1072 C 0.36437 0.10244 0.92688 0.0
C1073 C 0.38644 0.08583 0.93798 0.0
C1074 C 0.41367 0.1554 0.8678 0.0
C1075 C 0.33157 0.09477 0.93871 0.0
H1076 H 0.33839 0.21437 0.90508 0.0
H1077 H 0.29426 0.13646 0.80248 0.0
H1078 H 0.37097 0.16954 0.96897 0.0
H1079 H 0.401 0.19335 0.94762 0.0
H1080 H 0.37036 0.20882 0.96394 0.0
H1081 H 0.30159 0.08637 0.8008 0.0
H1082 H 0.34609 0.09567 0.81767 0.0
H1083 H 0.3191 0.0774 0.84634 0.0
H1084 H 0.44836 0.11887 0.89494 0.0
H1085 H 0.3797 0.06776 0.95479 0.0
H1086 H 0.41319 0.17906 0.88226 0.0
H1087 H 0.39556 0.14764 0.83848 0.0
H1088 H 0.43906 0.15832 0.86309 0.0
H1089 H 0.32651 0.11702 0.94987 0.0
H1090 H 0.33107 0.08054 0.96174 0.0
H1091 H 0.31096 0.08075 0.91243 0.0
C1092 C 0.80843 0.27159 0.85585 0.0
C1093 C 0.79824 0.28165 0.82148 0.0
C1094 C 0.83357 0.29307 0.88809 0.0
C1095 C 0.84866 0.32499 0.88534 0.0
C1096 C 0.83883 0.33476 0.85011 0.0
C1097 C 0.81375 0.31303 0.81884 0.0
C1098 C 0.8431 0.28179 0.92517 0.0
C1099 C 0.8547 0.36831 0.84521 0.0
C1100 C 0.89116 0.40245 0.95923 0.0
C1101 C 0.92266 0.4096 0.9511 0.0
C1102 C 0.86724 0.37198 0.94284 0.0
C1103 C 0.87544 0.34882 0.91796 0.0
C1104 C 0.90894 0.35459 0.91546 0.0
C1105 C 0.93208 0.38527 0.93148 0.0
C1106 C 0.83206 0.36621 0.94746 0.0
C1107 C 0.91918 0.3301 0.89081 0.0
H1108 H 0.79621 0.24731 0.85792 0.0
H1109 H 0.80626 0.3207 0.79201 0.0
H1110 H 0.87036 0.29217 0.93873 0.0
H1111 H 0.83007 0.28971 0.94713 0.0
H1112 H 0.83569 0.25528 0.91924 0.0
H1113 H 0.8439 0.37188 0.81588 0.0
H1114 H 0.85129 0.38606 0.86842 0.0
H1115 H 0.88195 0.37349 0.8485 0.0
H1116 H 0.88421 0.42135 0.97501 0.0
H1117 H 0.95687 0.39084 0.92612 0.0
H1118 H 0.8205 0.34116 0.94951 0.0
H1119 H 0.81674 0.37025 0.92111 0.0
H1120 H 0.83139 0.38271 0.97413 0.0
H1121 H 0.90605 0.30557 0.89345 0.0
H1122 H 0.94659 0.33492 0.89964 0.0
H1123 H 0.91238 0.33101 0.85923 0.0
C1124 C 0.69041 0.81731 0.88711 0.0
C1125 C 0.69324 0.82084 0.84897 0.0
C1126 C 0.6742 0.83456 0.90851 0.0
C1127 C 0.66022 0.85556 0.89117 0.0
C1128 C 0.66414 0.86012 0.85334 0.0
C1129 C 0.68078 0.8429 0.83286 0.0
C1130 C 0.67117 0.82961 0.94912 0.0
C1131 C 0.64947 0.88217 0.83368 0.0
C1132 C 0.58502 0.87369 0.91696 0.0
C1133 C 0.59925 0.90584 0.93753 0.0
C1134 C 0.60484 0.85646 0.90345 0.0
C1135 C 0.63985 0.87156 0.91123 0.0
C1136 C 0.65466 0.90314 0.93466 0.0
C1137 C 0.63419 0.91999 0.94728 0.0
C1138 C 0.58802 0.82276 0.87869 0.0
C1139 C 0.69194 0.91988 0.94436 0.0
H1140 H 0.7001 0.80045 0.89991 0.0
H1141 H 0.68278 0.84581 0.80343 0.0
H1142 H 0.681 0.85297 0.97087 0.0
H1143 H 0.64447 0.81887 0.9489 0.0
H1144 H 0.68489 0.81375 0.9593 0.0
H1145 H 0.65565 0.88387 0.80475 0.0
H1146 H 0.62187 0.87339 0.82876 0.0
H1147 H 0.65881 0.90654 0.85314 0.0
H1148 H 0.55816 0.86229 0.91016 0.0
H1149 H 0.64555 0.94484 0.96296 0.0
H1150 H 0.60034 0.80637 0.89016 0.0
H1151 H 0.59046 0.82219 0.84787 0.0
H1152 H 0.56103 0.81355 0.8781 0.0
H1153 H 0.70559 0.90392 0.95427 0.0
H1154 H 0.69999 0.94223 0.96776 0.0
H1155 H 0.69933 0.92609 0.91741 0.0
C1156 C 0.82901 0.67902 0.13167 0.0
C1157 C 0.79424 0.66772 0.12666 0.0
C1158 C 0.84557 0.65974 0.11474 0.0
C1159 C 0.82698 0.62823 0.09282 0.0
C1160 C 0.79164 0.61769 0.08479 0.0
C1161 C 0.77561 0.63767 0.10167 0.0
C1162 C 0.88319 0.6723 0.12264 0.0
C1163 C 0.77096 0.58454 0.06064 0.0
C1164 C 0.8742 0.5811 0.04146 0.0
C1165 C 0.88402 0.56564 0.07067 0.0
C1166 C 0.85476 0.60093 0.04751 0.0
C1167 C 0.84481 0.60515 0.08353 0.0
C1168 C 0.85367 0.58855 0.11242 0.0
C1169 C 0.87324 0.56913 0.10568 0.0
C1170 C 0.84647 0.61831 0.01596 0.0
C1171 C 0.8432 0.59191 0.15101 0.0
H1172 H 0.84351 0.70245 0.15041 0.0
H1173 H 0.7487 0.62887 0.09736 0.0
H1174 H 0.89418 0.65956 0.14301 0.0
H1175 H 0.89109 0.66772 0.0947 0.0
H1176 H 0.89357 0.69838 0.13621 0.0
H1177 H 0.7438 0.5812 0.05346 0.0
H1178 H 0.77875 0.57973 0.03265 0.0
H1179 H 0.77522 0.56657 0.07739 0.0
H1180 H 0.88252 0.57848 0.01437 0.0
H1181 H 0.88027 0.55669 0.128 0.0
H1182 H 0.86764 0.64071 0.02039 0.0
H1183 H 0.82354 0.62462 0.01682 0.0
H1184 H 0.84311 0.60362 0.98611 0.0
H1185 H 0.85494 0.617 0.1684 0.0
H1186 H 0.85048 0.57594 0.16931 0.0
H1187 H 0.81571 0.58631 0.1452 0.0
C1188 C 0.31889 0.81823 0.20484 0.0
C1189 C 0.33933 0.80182 0.22093 0.0
C1190 C 0.3307 0.84146 0.184 0.0
C1191 C 0.36361 0.84819 0.17894 0.0
C1192 C 0.38488 0.83281 0.19673 0.0
C1193 C 0.37252 0.80991 0.21776 0.0
C1194 C 0.30754 0.85783 0.16605 0.0
C1195 C 0.4202 0.83946 0.192 0.0
C1196 C 0.38536 0.87833 0.08969 0.0
C1197 C 0.40432 0.9104 0.10697 0.0
C1198 C 0.371 0.85796 0.11263 0.0
C1199 C 0.37548 0.87018 0.15357 0.0
C1200 C 0.39306 0.90294 0.17062 0.0
C1201 C 0.40741 0.92264 0.14713 0.0
C1202 C 0.35239 0.82307 0.09348 0.0
C1203 C 0.39793 0.91691 0.21401 0.0
H1204 H 0.29327 0.81225 0.20751 0.0
H1205 H 0.38844 0.79731 0.23013 0.0
H1206 H 0.31996 0.88416 0.17402 0.0
H1207 H 0.30134 0.85017 0.13332 0.0
H1208 H 0.28387 0.85215 0.17587 0.0
H1209 H 0.43401 0.82667 0.20931 0.0
H1210 H 0.41969 0.8319 0.16032 0.0
H1211 H 0.4342 0.86549 0.20157 0.0
H1212 H 0.38296 0.8688 0.05867 0.0
H1213 H 0.42181 0.94753 0.16053 0.0
H1214 H 0.32727 0.8158 0.09961 0.0
H1215 H 0.36613 0.80815 0.10629 0.0
H1216 H 0.34939 0.8178 0.06093 0.0
H1217 H 0.37368 0.91035 0.22239 0.0
H1218 H 0.40927 0.9434 0.22172 0.0
H1219 H 0.41451 0.90688 0.23206 0.0
C1220 C 0.71989 0.14948 0.17212 0.0
C1221 C 0.71147 0.17439 0.19213 0.0
C1222 C 0.69484 0.12064 0.15083 0.0
C1223 C 0.66089 0.11706 0.14964 0.0
C1224 C 0.65271 0.14165 0.17182 0.0
C1225 C 0.6781 0.17017 0.19242 0.0
C1226 C 0.70448 0.09448 0.12861 0.0
C1227 C 0.61698 0.13833 0.17257 0.0
C1228 C 0.58784 0.0667 0.06392 0.0
C1229 C 0.57209 0.04217 0.08085 0.0
C1230 C 0.61833 0.09018 0.08503 0.0
C1231 C 0.63342 0.08868 0.12364 0.0
C1232 C 0.61897 0.06221 0.13911 0.0
C1233 C 0.58828 0.03952 0.11775 0.0
C1234 C 0.63316 0.11774 0.06712 0.0
C1235 C 0.63408 0.05856 0.17938 0.0
H1236 H 0.7458 0.15305 0.1718 0.0
H1237 H 0.67181 0.18967 0.20795 0.0
H1238 H 0.69341 0.07159 0.13691 0.0
H1239 H 0.69431 0.09082 0.09634 0.0
H1240 H 0.73202 0.10012 0.13458 0.0
H1241 H 0.61509 0.1589 0.19312 0.0
H1242 H 0.6024 0.13657 0.14242 0.0
H1243 H 0.60524 0.11605 0.18176 0.0
H1244 H 0.57547 0.06857 0.03519 0.0
H1245 H 0.57653 0.02008 0.13057 0.0
H1246 H 0.66032 0.12223 0.07044 0.0
H1247 H 0.63015 0.13978 0.083 0.0
H1248 H 0.62091 0.11331 0.03522 0.0
H1249 H 0.66099 0.07281 0.19031 0.0
H1250 H 0.63107 0.03304 0.17888 0.0
H1251 H 0.62025 0.06626 0.20045 0.0
C1252 C 0.65861 0.68404 0.80669 0.0
C1253 C 0.68823 0.68215 0.79693 0.0
C1254 C 0.64321 0.66457 0.83005 0.0
C1255 C 0.65772 0.64263 0.84423 0.0
C1256 C 0.68752 0.64051 0.83441 0.0
C1257 C 0.70229 0.66012 0.81082 0.0
C1258 C 0.61141 0.66757 0.83972 0.0
C1259 C 0.70393 0.61757 0.84894 0.0
C1260 C 0.63047 0.61066 0.9312 0.0
C1261 C 0.6056 0.58136 0.91171 0.0
C1262 C 0.64817 0.63063 0.90977 0.0
C1263 C 0.64088 0.62104 0.86791 0.0
C1264 C 0.61653 0.59105 0.84834 0.0
C1265 C 0.59926 0.57169 0.87039 0.0
C1266 C 0.67407 0.66235 0.93178 0.0
C1267 C 0.60806 0.57969 0.80388 0.0
H1268 H 0.64758 0.70104 0.79644 0.0
H1269 H 0.72523 0.65846 0.80374 0.0
H1270 H 0.59093 0.64429 0.82822 0.0
H1271 H 0.6149 0.67383 0.87227 0.0
H1272 H 0.60353 0.68606 0.82694 0.0
H1273 H 0.72762 0.61953 0.8398 0.0
H1274 H 0.70938 0.62221 0.8817 0.0
H1275 H 0.68666 0.59263 0.83727 0.0
H1276 H 0.63554 0.61836 0.96308 0.0
H1277 H 0.58025 0.54903 0.85497 0.0
H1278 H 0.66607 0.68214 0.92293 0.0
H1279 H 0.69824 0.66439 0.92392 0.0
H1280 H 0.67812 0.66562 0.96438 0.0
H1281 H 0.59775 0.59628 0.78972 0.0
H1282 H 0.5895 0.5552 0.79331 0.0
H1283 H 0.63097 0.57978 0.7938 0.0
C1284 C 0.33158 0.65155 0.85082 0.0
C1285 C 0.31467 0.66769 0.87228 0.0
C1286 C 0.3557 0.64012 0.87014 0.0
C1287 C 0.36331 0.64526 0.91193 0.0
C1288 C 0.3463 0.6615 0.93374 0.0
C1289 C 0.32207 0.67239 0.91364 0.0
C1290 C 0.37312 0.62262 0.84585 0.0
C1291 C 0.35391 0.66756 0.97829 0.0
C1292 C 0.4061 0.59104 0.955 0.0
C1293 C 0.43987 0.60978 0.96313 0.0
C1294 C 0.38075 0.60272 0.93969 0.0
C1295 C 0.38943 0.63396 0.93268 0.0
C1296 C 0.42338 0.65367 0.94318 0.0
C1297 C 0.44822 0.64127 0.95812 0.0
C1298 C 0.34483 0.58098 0.92892 0.0
C1299 C 0.43358 0.68733 0.93689 0.0
H1300 H 0.32589 0.64772 0.81886 0.0
H1301 H 0.3092 0.68494 0.93048 0.0
H1302 H 0.4004 0.63572 0.85432 0.0
H1303 H 0.36948 0.59848 0.85192 0.0
H1304 H 0.36378 0.61993 0.81357 0.0
H1305 H 0.33777 0.67971 0.99083 0.0
H1306 H 0.35044 0.6446 0.98762 0.0
H1307 H 0.38043 0.68262 0.99115 0.0
H1308 H 0.39956 0.56656 0.95847 0.0
H1309 H 0.47431 0.6559 0.96479 0.0
H1310 H 0.33516 0.57469 0.89629 0.0
H1311 H 0.329 0.59335 0.94166 0.0
H1312 H 0.34206 0.55851 0.93942 0.0
H1313 H 0.42815 0.68656 0.90473 0.0
H1314 H 0.46062 0.70048 0.94995 0.0
H1315 H 0.41894 0.70093 0.95013 0.0
C1316 C 0.34859 0.32765 0.81312 0.0
C1317 C 0.31431 0.31517 0.8101 0.0
C1318 C 0.36788 0.35699 0.83886 0.0
C1319 C 0.35241 0.37408 0.86222 0.0
C1320 C 0.31766 0.3618 0.85888 0.0
C1321 C 0.299 0.33237 0.83269 0.0
C1322 C 0.40503 0.36926 0.84184 0.0
C1323 C 0.30011 0.37937 0.88287 0.0
C1324 C 0.41856 0.42704 0.9509 0.0
C1325 C 0.43047 0.45415 0.93607 0.0
C1326 C 0.39017 0.40168 0.92886 0.0
C1327 C 0.37363 0.40382 0.89138 0.0
C1328 C 0.383 0.43282 0.87887 0.0
C1329 C 0.4117 0.45771 0.9013 0.0
C1330 C 0.38017 0.37137 0.94368 0.0
C1331 C 0.36482 0.43638 0.83995 0.0
H1332 H 0.36041 0.31425 0.79567 0.0
H1333 H 0.27269 0.32214 0.83112 0.0
H1334 H 0.41219 0.3934 0.83539 0.0
H1335 H 0.41912 0.37148 0.8724 0.0
H1336 H 0.41294 0.35327 0.82106 0.0
H1337 H 0.27596 0.363 0.88511 0.0
H1338 H 0.31579 0.39143 0.91319 0.0
H1339 H 0.29479 0.39805 0.86817 0.0
H1340 H 0.43285 0.42449 0.97812 0.0
H1341 H 0.42048 0.47915 0.89045 0.0
H1342 H 0.388 0.35294 0.92675 0.0
H1343 H 0.35263 0.36178 0.93902 0.0
H1344 H 0.392 0.37527 0.97561 0.0
H1345 H 0.37204 0.42336 0.8154 0.0
H1346 H 0.37098 0.46187 0.83815 0.0
H1347 H 0.33739 0.4258 0.83553 0.0
C1348 C 0.6405 0.28665 0.83918 0.0
C1349 C 0.65951 0.29679 0.81262 0.0
C1350 C 0.62533 0.30646 0.85798 0.0
C1351 C 0.63025 0.33748 0.85091 0.0
C1352 C 0.64962 0.34788 0.82424 0.0
C1353 C 0.66361 0.32716 0.80489 0.0
C1354 C 0.60402 0.2942 0.88528 0.0
C1355 C 0.65612 0.38112 0.81677 0.0
C1356 C 0.57123 0.38308 0.87054 0.0
C1357 C 0.58868 0.40372 0.90753 0.0
C1358 C 0.58384 0.3605 0.85255 0.0
C1359 C 0.61517 0.35916 0.87135 0.0
C1360 C 0.63269 0.37942 0.90894 0.0
C1361 C 0.61897 0.40106 0.92686 0.0
C1362 C 0.564 0.33866 0.81292 0.0
C1363 C 0.66643 0.37897 0.92967 0.0
H1364 H 0.6372 0.26304 0.84494 0.0
H1365 H 0.67864 0.3351 0.78467 0.0
H1366 H 0.61502 0.30926 0.91573 0.0
H1367 H 0.57868 0.29579 0.87553 0.0
H1368 H 0.60154 0.26899 0.88623 0.0
H1369 H 0.67246 0.38577 0.79597 0.0
H1370 H 0.63216 0.38454 0.80434 0.0
H1371 H 0.66817 0.39921 0.84509 0.0
H1372 H 0.54812 0.3851 0.85487 0.0
H1373 H 0.6323 0.41624 0.95584 0.0
H1374 H 0.56136 0.31341 0.81367 0.0
H1375 H 0.57743 0.34475 0.78981 0.0
H1376 H 0.53866 0.34055 0.80413 0.0
H1377 H 0.66459 0.35465 0.93407 0.0
H1378 H 0.67671 0.39615 0.95892 0.0
H1379 H 0.68437 0.38506 0.91099 0.0
C1380 C 0.6708 0.29674 0.10565 0.0
C1381 C 0.67174 0.29621 0.14549 0.0
C1382 C 0.64777 0.30777 0.08345 0.0
C1383 C 0.62519 0.31863 0.10156 0.0
C1384 C 0.62554 0.31759 0.14152 0.0
C1385 C 0.64879 0.30634 0.16301 0.0
C1386 C 0.6481 0.30846 0.0409 0.0
C1387 C 0.60188 0.3291 0.16186 0.0
C1388 C 0.5909 0.38008 0.06415 0.0
C1389 C 0.55782 0.3615 0.04438 0.0
C1390 C 0.61336 0.3662 0.08169 0.0
C1391 C 0.60253 0.3329 0.07956 0.0
C1392 C 0.56969 0.31373 0.05815 0.0
C1393 C 0.54768 0.32827 0.04082 0.0
C1394 C 0.64821 0.38749 0.10416 0.0
C1395 C 0.5574 0.27807 0.0549 0.0
H1396 H 0.68832 0.2888 0.09177 0.0
H1397 H 0.64929 0.30593 0.19371 0.0
H1398 H 0.62273 0.29573 0.02137 0.0
H1399 H 0.65532 0.33358 0.03761 0.0
H1400 H 0.66582 0.29734 0.03049 0.0
H1401 H 0.60438 0.32545 0.19251 0.0
H1402 H 0.60681 0.35496 0.16302 0.0
H1403 H 0.57566 0.31631 0.1448 0.0
H1404 H 0.59885 0.40583 0.06779 0.0
H1405 H 0.52226 0.31374 0.02532 0.0
H1406 H 0.66709 0.37815 0.09382 0.0
H1407 H 0.65147 0.38758 0.13609 0.0
H1408 H 0.6534 0.41255 0.10079 0.0
H1409 H 0.57502 0.26704 0.04413 0.0
H1410 H 0.53216 0.26623 0.03461 0.0
H1411 H 0.55633 0.27325 0.08456 0.0
C1412 C 0.70844 0.64877 0.20055 0.0
C1413 C 0.68844 0.66838 0.20316 0.0
C1414 C 0.69431 0.61632 0.18133 0.0
C1415 C 0.6594 0.60342 0.1652 0.0
C1416 C 0.6389 0.62261 0.17084 0.0
C1417 C 0.65375 0.65489 0.18963 0.0
C1418 C 0.71713 0.5968 0.17656 0.0
C1419 C 0.60129 0.60963 0.15521 0.0
C1420 C 0.60678 0.54465 0.07448 0.0
C1421 C 0.58572 0.52388 0.09176 0.0
C1422 C 0.63606 0.56818 0.09804 0.0
C1423 C 0.64351 0.57099 0.13945 0.0
C1424 C 0.62603 0.54623 0.15542 0.0
C1425 C 0.59693 0.52286 0.13127 0.0
C1426 C 0.65586 0.59295 0.07959 0.0
C1427 C 0.63482 0.54724 0.19906 0.0
H1428 H 0.73531 0.65901 0.21202 0.0
H1429 H 0.63815 0.66983 0.19235 0.0
H1430 H 0.70419 0.57089 0.1732 0.0
H1431 H 0.72646 0.60001 0.14974 0.0
H1432 H 0.73923 0.60511 0.20223 0.0
H1433 H 0.58911 0.62745 0.16394 0.0
H1434 H 0.59477 0.60242 0.12243 0.0
H1435 H 0.59058 0.58816 0.16645 0.0
H1436 H 0.59904 0.54445 0.04342 0.0
H1437 H 0.58156 0.5057 0.14434 0.0
H1438 H 0.68295 0.60049 0.09381 0.0
H1439 H 0.64786 0.61439 0.08401 0.0
H1440 H 0.65183 0.58379 0.0473 0.0
H1441 H 0.6622 0.55779 0.21175 0.0
H1442 H 0.62586 0.52292 0.20479 0.0
H1443 H 0.62261 0.56236 0.2146 0.0
C1444 C 0.33839 0.65414 0.19108 0.0
C1445 C 0.3213 0.66952 0.1675 0.0
C1446 C 0.35516 0.63469 0.1749 0.0
C1447 C 0.35468 0.63042 0.13416 0.0
C1448 C 0.33772 0.64609 0.1103 0.0
C1449 C 0.32132 0.66553 0.12727 0.0
C1450 C 0.3731 0.61842 0.2013 0.0
C1451 C 0.33664 0.64207 0.06676 0.0
C1452 C 0.42087 0.59976 0.10089 0.0
C1453 C 0.40343 0.56687 0.08732 0.0
C1454 C 0.40515 0.6209 0.11549 0.0
C1455 C 0.37116 0.60882 0.11637 0.0
C1456 C 0.35311 0.57583 0.10143 0.0
C1457 C 0.36948 0.55524 0.08718 0.0
C1458 C 0.42512 0.65599 0.13093 0.0
C1459 C 0.31674 0.5621 0.10157 0.0
H1460 H 0.33857 0.65719 0.22221 0.0
H1461 H 0.30817 0.67732 0.10882 0.0
H1462 H 0.36193 0.59207 0.19053 0.0
H1463 H 0.39975 0.62504 0.20024 0.0
H1464 H 0.37187 0.62488 0.23257 0.0
H1465 H 0.32231 0.65588 0.0523 0.0
H1466 H 0.36242 0.65004 0.06266 0.0
H1467 H 0.32504 0.61643 0.05146 0.0
H1468 H 0.44697 0.60894 0.10047 0.0
H1469 H 0.35594 0.52981 0.07719 0.0
H1470 H 0.42664 0.66308 0.16297 0.0
H1471 H 0.41249 0.67068 0.1158 0.0
H1472 H 0.45092 0.66174 0.12666 0.0
H1473 H 0.3141 0.5652 0.13249 0.0
H1474 H 0.30584 0.53624 0.08696 0.0
H1475 H 0.30197 0.57513 0.08624 0.0
C1476 C 0.33702 0.30568 0.21156 0.0
C1477 C 0.30899 0.31186 0.22136 0.0
C1478 C 0.35636 0.32463 0.19071 0.0
C1479 C 0.34778 0.3507 0.17953 0.0
C1480 C 0.32013 0.35769 0.19025 0.0
C1481 C 0.30105 0.33818 0.21091 0.0
C1482 C 0.38557 0.31626 0.17986 0.0
C1483 C 0.31028 0.38539 0.17918 0.0
C1484 C 0.41603 0.41428 0.15421 0.0
C1485 C 0.40768 0.4057 0.11269 0.0
C1486 C 0.39636 0.3971 0.17623 0.0
C1487 C 0.36769 0.37041 0.15637 0.0
C1488 C 0.35882 0.36186 0.11442 0.0
C1489 C 0.37883 0.37968 0.09307 0.0
C1490 C 0.40659 0.40726 0.22084 0.0
C1491 C 0.32855 0.33347 0.09209 0.0
H1492 H 0.34351 0.28549 0.21934 0.0
H1493 H 0.27946 0.34322 0.21814 0.0
H1494 H 0.38162 0.3106 0.14721 0.0
H1495 H 0.40888 0.33703 0.19201 0.0
H1496 H 0.38919 0.29544 0.19108 0.0
H1497 H 0.28901 0.38848 0.19108 0.0
H1498 H 0.33184 0.4079 0.19045 0.0
H1499 H 0.30311 0.38156 0.1465 0.0
H1500 H 0.43815 0.43446 0.16966 0.0
H1501 H 0.37219 0.37285 0.06102 0.0
H1502 H 0.41275 0.38793 0.23332 0.0
H1503 H 0.38555 0.41135 0.23236 0.0
H1504 H 0.42862 0.42946 0.23172 0.0
H1505 H 0.33161 0.3113 0.09984 0.0
H1506 H 0.32442 0.33052 0.05953 0.0
H1507 H 0.30588 0.33612 0.10078 0.0
C1508 C 0.80141 0.63846 0.66515 0.0
C1509 C 0.79077 0.66164 0.64939 0.0
C1510 C 0.81707 0.62017 0.6446 0.0
C1511 C 0.82179 0.62477 0.60705 0.0
C1512 C 0.8093 0.6467 0.58988 0.0
C1513 C 0.79413 0.66506 0.61139 0.0
C1514 C 0.83017 0.59714 0.66408 0.0
C1515 C 0.81322 0.65177 0.54957 0.0
C1516 C 0.89685 0.60557 0.58259 0.0
C1517 C 0.8823 0.57373 0.56095 0.0
C1518 C 0.87724 0.62295 0.59625 0.0
C1519 C 0.84211 0.60836 0.58753 0.0
C1520 C 0.82703 0.57706 0.56334 0.0
C1521 C 0.84731 0.56002 0.55056 0.0
C1522 C 0.89435 0.6563 0.62196 0.0
C1523 C 0.78963 0.56088 0.55278 0.0
H1524 H 0.79893 0.63558 0.69445 0.0
H1525 H 0.78581 0.68276 0.59886 0.0
H1526 H 0.82063 0.57301 0.64405 0.0
H1527 H 0.85785 0.60528 0.67009 0.0
H1528 H 0.82297 0.59515 0.69243 0.0
H1529 H 0.79853 0.66655 0.53832 0.0
H1530 H 0.83994 0.66399 0.55116 0.0
H1531 H 0.80522 0.62845 0.52797 0.0
H1532 H 0.92378 0.61661 0.59 0.0
H1533 H 0.83575 0.53538 0.53411 0.0
H1534 H 0.89085 0.65649 0.65235 0.0
H1535 H 0.88302 0.67331 0.61044 0.0
H1536 H 0.92159 0.66501 0.62373 0.0
H1537 H 0.78156 0.55456 0.57935 0.0
H1538 H 0.78151 0.53866 0.52916 0.0
H1539 H 0.77661 0.57728 0.54279 0.0
C1540 C 0.33961 0.85292 0.74413 0.0
C1541 C 0.30899 0.85757 0.74486 0.0
C1542 C 0.36346 0.87366 0.73012 0.0
C1543 C 0.35601 0.89916 0.71595 0.0
C1544 C 0.32686 0.90612 0.72099 0.0
C1545 C 0.3035 0.88508 0.73546 0.0
C1546 C 0.39466 0.86589 0.72609 0.0
C1547 C 0.31848 0.93354 0.70695 0.0
C1548 C 0.42096 0.95175 0.67461 0.0
C1549 C 0.41043 0.93602 0.63445 0.0
C1550 C 0.40303 0.94065 0.7017 0.0
C1551 C 0.3742 0.91317 0.68809 0.0
C1552 C 0.36318 0.89757 0.64746 0.0
C1553 C 0.38146 0.90923 0.62112 0.0
C1554 C 0.4153 0.95784 0.74481 0.0
C1555 C 0.3324 0.86814 0.63183 0.0
H1556 H 0.34404 0.83188 0.75205 0.0
H1557 H 0.27993 0.88889 0.73646 0.0
H1558 H 0.39129 0.85354 0.69501 0.0
H1559 H 0.41664 0.88797 0.73327 0.0
H1560 H 0.39999 0.84996 0.74562 0.0
H1561 H 0.29958 0.94009 0.72091 0.0
H1562 H 0.34113 0.95494 0.71338 0.0
H1563 H 0.30811 0.92643 0.67441 0.0
H1564 H 0.44332 0.97261 0.68495 0.0
H1565 H 0.37319 0.89712 0.59008 0.0
H1566 H 0.42518 0.9427 0.76229 0.0
H1567 H 0.39445 0.96217 0.75655 0.0
H1568 H 0.43544 0.98111 0.74962 0.0
H1569 H 0.33587 0.84855 0.64592 0.0
H1570 H 0.32682 0.85945 0.59923 0.0
H1571 H 0.31036 0.87336 0.63935 0.0
C1572 C 0.14433 0.29443 0.63054 0.0
C1573 C 0.17174 0.30889 0.66342 0.0
C1574 C 0.12678 0.31254 0.61282 0.0
C1575 C 0.13701 0.34595 0.62808 0.0
C1576 C 0.16627 0.36105 0.65908 0.0
C1577 C 0.18315 0.34232 0.67667 0.0
C1578 C 0.0963 0.29573 0.57899 0.0
C1579 C 0.17886 0.39685 0.6747 0.0
C1580 C 0.09599 0.39488 0.56957 0.0
C1581 C 0.07207 0.3985 0.59035 0.0
C1582 C 0.11755 0.37799 0.58137 0.0
C1583 C 0.115 0.36436 0.61472 0.0
C1584 C 0.09054 0.36766 0.6354 0.0
C1585 C 0.06953 0.38476 0.62307 0.0
C1586 C 0.14307 0.37551 0.55806 0.0
C1587 C 0.08623 0.35276 0.67036 0.0
H1588 H 0.13553 0.26867 0.61967 0.0
H1589 H 0.20459 0.35379 0.70165 0.0
H1590 H 0.07371 0.29812 0.5882 0.0
H1591 H 0.09855 0.30711 0.5535 0.0
H1592 H 0.09264 0.26988 0.56911 0.0
H1593 H 0.20385 0.4053 0.69574 0.0
H1594 H 0.18038 0.40907 0.6498 0.0
H1595 H 0.16104 0.40402 0.69011 0.0
H1596 H 0.09821 0.40562 0.54435 0.0
H1597 H 0.05065 0.38696 0.63876 0.0
H1598 H 0.15515 0.35763 0.56475 0.0
H1599 H 0.16277 0.39925 0.5646 0.0
H1600 H 0.13114 0.36919 0.52587 0.0
H1601 H 0.08092 0.32655 0.66139 0.0
H1602 H 0.06559 0.35703 0.68272 0.0
H1603 H 0.10968 0.36265 0.69413 0.0
C1604 C 0.68104 0.17613 0.59793 0.0
C1605 C 0.67078 0.19435 0.62599 0.0
C1606 C 0.65751 0.15077 0.56869 0.0
C1607 C 0.62345 0.1431 0.56916 0.0
C1608 C 0.61283 0.16508 0.59265 0.0
C1609 C 0.6369 0.19077 0.6211 0.0
C1610 C 0.66955 0.12926 0.54193 0.0
C1611 C 0.57648 0.15847 0.59261 0.0
C1612 C 0.5546 0.06537 0.51539 0.0
C1613 C 0.55485 0.04808 0.54507 0.0
C1614 C 0.57821 0.09584 0.52131 0.0
C1615 C 0.60225 0.10903 0.55792 0.0
C1616 C 0.60411 0.09043 0.58668 0.0
C1617 C 0.58031 0.06019 0.57982 0.0
C1618 C 0.57574 0.11435 0.48943 0.0
C1619 C 0.6299 0.10312 0.62592 0.0
H1620 H 0.70739 0.17979 0.60093 0.0
H1621 H 0.6291 0.20542 0.64246 0.0
H1622 H 0.67314 0.10974 0.5561 0.0
H1623 H 0.65102 0.11822 0.51304 0.0
H1624 H 0.69388 0.14267 0.53676 0.0
H1625 H 0.57176 0.18038 0.60606 0.0
H1626 H 0.56045 0.14887 0.56207 0.0
H1627 H 0.56903 0.14022 0.61002 0.0
H1628 H 0.53479 0.0561 0.48861 0.0
H1629 H 0.58076 0.04653 0.6025 0.0
H1630 H 0.60032 0.13164 0.4902 0.0
H1631 H 0.55836 0.12789 0.49376 0.0
H1632 H 0.56548 0.09793 0.45965 0.0
H1633 H 0.65544 0.1106 0.62102 0.0
H1634 H 0.62835 0.08507 0.64429 0.0
H1635 H 0.62636 0.1244 0.64298 0.0
C1636 C 0.76605 0.31952 0.35191 0.0
C1637 C 0.77159 0.29378 0.32941 0.0
C1638 C 0.79268 0.34801 0.37052 0.0
C1639 C 0.82534 0.35057 0.36625 0.0
C1640 C 0.83061 0.32486 0.3423 0.0
C1641 C 0.80372 0.29664 0.32456 0.0
C1642 C 0.78613 0.37509 0.39536 0.0
C1643 C 0.8649 0.32679 0.33643 0.0
C1644 C 0.89525 0.42962 0.38569 0.0
C1645 C 0.91623 0.4289 0.42057 0.0
C1646 C 0.86435 0.40551 0.36905 0.0
C1647 C 0.85447 0.37958 0.38736 0.0
C1648 C 0.87492 0.37968 0.42385 0.0
C1649 C 0.90566 0.40441 0.44003 0.0
C1650 C 0.84375 0.40777 0.33092 0.0
C1651 C 0.86483 0.35312 0.4451 0.0
H1652 H 0.74116 0.31698 0.35596 0.0
H1653 H 0.80787 0.27646 0.30741 0.0
H1654 H 0.80131 0.38064 0.42621 0.0
H1655 H 0.79391 0.39696 0.38374 0.0
H1656 H 0.75935 0.3694 0.39574 0.0
H1657 H 0.86425 0.3059 0.31422 0.0
H1658 H 0.87607 0.349 0.32675 0.0
H1659 H 0.88162 0.3278 0.36489 0.0
H1660 H 0.90325 0.4489 0.37089 0.0
H1661 H 0.92219 0.40373 0.46673 0.0
H1662 H 0.81848 0.38957 0.3212 0.0
H1663 H 0.85746 0.40532 0.30756 0.0
H1664 H 0.84103 0.43186 0.33413 0.0
H1665 H 0.84059 0.35194 0.45235 0.0
H1666 H 0.88376 0.35652 0.47282 0.0
H1667 H 0.86125 0.32971 0.42572 0.0
C1668 C 0.65919 0.80473 0.34094 0.0
C1669 C 0.68049 0.82631 0.32462 0.0
C1670 C 0.63992 0.81504 0.36487 0.0
C1671 C 0.6422 0.84766 0.37275 0.0
C1672 C 0.66565 0.8699 0.35897 0.0
C1673 C 0.6844 0.85893 0.33495 0.0
C1674 C 0.6154 0.79064 0.37924 0.0
C1675 C 0.66923 0.90499 0.36718 0.0
C1676 C 0.56587 0.87177 0.37814 0.0
C1677 C 0.57257 0.88618 0.41842 0.0
C1678 C 0.58745 0.85756 0.36346 0.0
C1679 C 0.61675 0.85788 0.3896 0.0
C1680 C 0.6228 0.87071 0.43066 0.0
C1681 C 0.60064 0.88482 0.44461 0.0
C1682 C 0.57985 0.84393 0.31947 0.0
C1683 C 0.65349 0.87108 0.45957 0.0
H1684 H 0.65619 0.77949 0.33332 0.0
H1685 H 0.70117 0.87583 0.32295 0.0
H1686 H 0.61591 0.79983 0.41052 0.0
H1687 H 0.58973 0.78584 0.36133 0.0
H1688 H 0.62066 0.76766 0.37663 0.0
H1689 H 0.6913 0.91964 0.35864 0.0
H1690 H 0.64652 0.90821 0.35025 0.0
H1691 H 0.67158 0.91421 0.39902 0.0
H1692 H 0.54464 0.87312 0.35747 0.0
H1693 H 0.60578 0.89553 0.47585 0.0
H1694 H 0.58133 0.8194 0.31373 0.0
H1695 H 0.5987 0.8589 0.30668 0.0
H1696 H 0.55465 0.84301 0.30375 0.0
H1697 H 0.658 0.84788 0.45313 0.0
H1698 H 0.65136 0.87619 0.49065 0.0
H1699 H 0.67565 0.88989 0.45667 0.0
C1700 C 0.16741 0.64552 0.28093 0.0
C1701 C 0.14861 0.66187 0.26153 0.0
C1702 C 0.1528 0.62224 0.30026 0.0
C1703 C 0.11868 0.6154 0.30035 0.0
C1704 C 0.09899 0.63007 0.27829 0.0
C1705 C 0.1142 0.65307 0.25887 0.0
C1706 C 0.17443 0.60661 0.3228 0.0
C1707 C 0.06246 0.62326 0.27762 0.0
C1708 C 0.07352 0.54477 0.33826 0.0
C1709 C 0.07517 0.55963 0.37705 0.0
C1710 C 0.08815 0.56247 0.31305 0.0
C1711 C 0.10456 0.59579 0.32697 0.0
C1712 C 0.10699 0.6108 0.3664 0.0
C1713 C 0.09237 0.59248 0.39105 0.0
C1714 C 0.08548 0.54565 0.27135 0.0
C1715 C 0.12429 0.64638 0.38222 0.0
H1716 H 0.19395 0.65191 0.28251 0.0
H1717 H 0.09951 0.66547 0.24365 0.0
H1718 H 0.17904 0.61629 0.35502 0.0
H1719 H 0.16163 0.58041 0.31684 0.0
H1720 H 0.19896 0.611 0.31509 0.0
H1721 H 0.04986 0.63375 0.25554 0.0
H1722 H 0.04918 0.59712 0.27084 0.0
H1723 H 0.06007 0.6335 0.30729 0.0
H1724 H 0.06034 0.51933 0.32734 0.0
H1725 H 0.09368 0.60406 0.42099 0.0
H1726 H 0.11064 0.55078 0.26534 0.0
H1727 H 0.07049 0.55478 0.24991 0.0
H1728 H 0.07357 0.51932 0.26588 0.0
H1729 H 0.15051 0.6531 0.37947 0.0
H1730 H 0.12442 0.65424 0.41374 0.0
H1731 H 0.11157 0.65968 0.3645 0.0
C1732 C 0.29958 0.14287 0.34075 0.0
C1733 C 0.31361 0.17462 0.33803 0.0
C1734 C 0.31811 0.12831 0.36363 0.0
C1735 C 0.35142 0.14602 0.38465 0.0
C1736 C 0.36451 0.17901 0.38545 0.0
C1737 C 0.34549 0.19297 0.36175 0.0
C1738 C 0.30293 0.09321 0.36266 0.0
C1739 C 0.39931 0.19893 0.40931 0.0
C1740 C 0.39284 0.09932 0.44586 0.0
C1741 C 0.40796 0.08605 0.41876 0.0
C1742 C 0.37562 0.12041 0.43629 0.0
C1743 C 0.37382 0.1284 0.39889 0.0
C1744 C 0.39047 0.11622 0.37234 0.0
C1745 C 0.40751 0.09546 0.38277 0.0
C1746 C 0.35915 0.13362 0.46603 0.0
C1747 C 0.38883 0.12368 0.33189 0.0
H1748 H 0.27456 0.12875 0.32339 0.0
H1749 H 0.35619 0.21773 0.36044 0.0
H1750 H 0.31579 0.07929 0.34635 0.0
H1751 H 0.30642 0.08922 0.39314 0.0
H1752 H 0.2758 0.0837 0.348 0.0
H1753 H 0.40368 0.22494 0.41224 0.0
H1754 H 0.40369 0.19396 0.43929 0.0
H1755 H 0.4179 0.19251 0.3947 0.0
H1756 H 0.39345 0.09234 0.47388 0.0
H1757 H 0.42005 0.08603 0.36225 0.0
H1758 H 0.33502 0.13576 0.45157 0.0
H1759 H 0.37589 0.15792 0.4825 0.0
H1760 H 0.35459 0.11847 0.48772 0.0
H1761 H 0.36253 0.1142 0.31411 0.0
H1762 H 0.40413 0.11311 0.3154 0.0
H1763 H 0.39768 0.14993 0.33466 0.0
C1764 C 0.66073 0.79616 0.60985 0.0
C1765 C 0.65419 0.786 0.64405 0.0
C1766 C 0.64142 0.81212 0.59027 0.0
C1767 C 0.61523 0.81838 0.60553 0.0
C1768 C 0.60729 0.80652 0.63861 0.0
C1769 C 0.62671 0.79031 0.65728 0.0
C1770 C 0.65022 0.82381 0.55458 0.0
C1771 C 0.57964 0.81276 0.65593 0.0
C1772 C 0.59368 0.89337 0.596 0.0
C1773 C 0.56202 0.88088 0.56949 0.0
C1774 C 0.61182 0.8734 0.60673 0.0
C1775 C 0.59837 0.8401 0.58991 0.0
C1776 C 0.56758 0.82761 0.56098 0.0
C1777 C 0.54961 0.8481 0.55132 0.0
C1778 C 0.6446 0.88777 0.63769 0.0
C1779 C 0.55281 0.79237 0.54167 0.0
H1780 H 0.68177 0.79277 0.59921 0.0
H1781 H 0.62131 0.78247 0.68354 0.0
H1782 H 0.62735 0.81849 0.53072 0.0
H1783 H 0.66247 0.85016 0.56282 0.0
H1784 H 0.6675 0.81282 0.54278 0.0
H1785 H 0.57503 0.79995 0.67984 0.0
H1786 H 0.58634 0.8388 0.66831 0.0
H1787 H 0.55606 0.8053 0.63259 0.0
H1788 H 0.60395 0.91878 0.60933 0.0
H1789 H 0.52517 0.83812 0.53087 0.0
H1790 H 0.66462 0.88096 0.62665 0.0
H1791 H 0.64224 0.87826 0.66454 0.0
H1792 H 0.65245 0.9143 0.6463 0.0
H1793 H 0.57204 0.78332 0.5318 0.0
H1794 H 0.53143 0.78722 0.51583 0.0
H1795 H 0.54387 0.77888 0.56346 0.0
C1796 C 0.66894 0.08348 0.27768 0.0
C1797 C 0.6675 0.11303 0.27094 0.0
C1798 C 0.64238 0.06256 0.28793 0.0
C1799 C 0.61408 0.07169 0.29153 0.0
C1800 C 0.61099 0.09972 0.28016 0.0
C1801 C 0.63796 0.12026 0.27026 0.0
C1802 C 0.64632 0.03255 0.29916 0.0
C1803 C 0.58093 0.10998 0.28278 0.0
C1804 C 0.54213 0.01723 0.32184 0.0
C1805 C 0.55132 0.02925 0.36296 0.0
C1806 C 0.56233 0.0306 0.29782 0.0
C1807 C 0.59216 0.05653 0.31557 0.0
C1808 C 0.60144 0.06873 0.35707 0.0
C1809 C 0.58092 0.05488 0.38022 0.0
C1810 C 0.55188 0.01704 0.25368 0.0
C1811 C 0.63308 0.0965 0.37716 0.0
H1812 H 0.69166 0.07768 0.27776 0.0
H1813 H 0.63664 0.14289 0.26426 0.0
H1814 H 0.65411 0.03691 0.33187 0.0
H1815 H 0.62233 0.01242 0.28891 0.0
H1816 H 0.66557 0.02535 0.28665 0.0
H1817 H 0.57896 0.12785 0.26482 0.0
H1818 H 0.55751 0.08919 0.27274 0.0
H1819 H 0.58321 0.12101 0.31407 0.0
H1820 H 0.51926 -0.0027 0.30844 0.0
H1821 H 0.58817 0.06421 0.41199 0.0
H1822 H 0.57124 0.00804 0.2441 0.0
H1823 H 0.54971 0.03606 0.23784 0.0
H1824 H 0.52763 -0.00284 0.24449 0.0
H1825 H 0.65513 0.09041 0.37111 0.0
H1826 H 0.63652 0.10305 0.40973 0.0
H1827 H 0.63255 0.11779 0.36517 0.0
C1828 C 0.86681 0.66916 0.30138 0.0
C1829 C 0.83782 0.67644 0.30482 0.0
C1830 C 0.87888 0.65073 0.32499 0.0
C1831 C 0.86184 0.63961 0.35328 0.0
C1832 C 0.83293 0.64742 0.3576 0.0
C1833 C 0.82106 0.66554 0.33302 0.0
C1834 C 0.90957 0.64263 0.31903 0.0
C1835 C 0.81448 0.63642 0.38791 0.0
C1836 C 0.87993 0.56665 0.37841 0.0
C1837 C 0.90819 0.58067 0.41029 0.0
C1838 C 0.86288 0.58531 0.36124 0.0
C1839 C 0.87395 0.61875 0.37685 0.0
C1840 C 0.90024 0.63252 0.41157 0.0
C1841 C 0.91723 0.61333 0.42778 0.0
C1842 C 0.83501 0.5696 0.32424 0.0
C1843 C 0.91228 0.66796 0.42968 0.0
H1844 H 0.87985 0.67735 0.27957 0.0
H1845 H 0.79872 0.67124 0.33595 0.0
H1846 H 0.9293 0.6514 0.34711 0.0
H1847 H 0.90334 0.61627 0.31042 0.0
H1848 H 0.91994 0.65324 0.29584 0.0
H1849 H 0.79372 0.64622 0.3893 0.0
H1850 H 0.80401 0.60992 0.38067 0.0
H1851 H 0.83197 0.64384 0.41763 0.0
H1852 H 0.87225 0.54125 0.3654 0.0
H1853 H 0.93898 0.6244 0.45245 0.0
H1854 H 0.84391 0.57649 0.29833 0.0
H1855 H 0.81331 0.57782 0.32596 0.0
H1856 H 0.82649 0.54308 0.319 0.0
H1857 H 0.92718 0.68099 0.41133 0.0
H1858 H 0.92824 0.67387 0.46021 0.0
H1859 H 0.89086 0.67682 0.43047 0.0
C1860 C 0.28171 0.77679 0.38197 0.0
C1861 C 0.29454 0.76004 0.35535 0.0
C1862 C 0.30332 0.80163 0.41336 0.0
C1863 C 0.33807 0.8103 0.41651 0.0
C1864 C 0.3508 0.78911 0.39497 0.0
C1865 C 0.32863 0.76393 0.36418 0.0
C1866 C 0.28888 0.82207 0.43817 0.0
C1867 C 0.38786 0.79645 0.39937 0.0
C1868 C 0.37979 0.89404 0.40702 0.0
C1869 C 0.40338 0.90724 0.44325 0.0
C1870 C 0.35721 0.86307 0.39903 0.0
C1871 C 0.35819 0.84477 0.42826 0.0
C1872 C 0.38024 0.8589 0.46614 0.0
C1873 C 0.40282 0.8901 0.47316 0.0
C1874 C 0.33365 0.84947 0.35828 0.0
C1875 C 0.38168 0.84088 0.49863 0.0
H1876 H 0.2551 0.77298 0.37567 0.0
H1877 H 0.33842 0.75045 0.34392 0.0
H1878 H 0.30563 0.83288 0.46822 0.0
H1879 H 0.28597 0.84175 0.42391 0.0
H1880 H 0.26384 0.80786 0.44073 0.0
H1881 H 0.3938 0.77491 0.3872 0.0
H1882 H 0.39689 0.8151 0.38303 0.0
H1883 H 0.40159 0.80582 0.43091 0.0
H1884 H 0.37993 0.90753 0.38413 0.0
H1885 H 0.4212 0.90026 0.50121 0.0
H1886 H 0.30739 0.84125 0.36073 0.0
H1887 H 0.3389 0.82858 0.34287 0.0
H1888 H 0.33593 0.86724 0.33948 0.0
H1889 H 0.35799 0.82115 0.49481 0.0
H1890 H 0.38743 0.85734 0.528 0.0
H1891 H 0.40215 0.83054 0.4987 0.0
C1892 C 0.18666 0.31318 0.39711 0.0
C1893 C 0.20316 0.32535 0.36933 0.0
C1894 C 0.17072 0.33077 0.41834 0.0
C1895 C 0.17159 0.36128 0.41179 0.0
C1896 C 0.19085 0.37485 0.38658 0.0
C1897 C 0.2063 0.35666 0.36552 0.0
C1898 C 0.15053 0.31549 0.44502 0.0
C1899 C 0.19289 0.40756 0.37931 0.0
C1900 C 0.09526 0.38669 0.41118 0.0
C1901 C 0.10521 0.41001 0.4467 0.0
C1902 C 0.11613 0.36977 0.40054 0.0
C1903 C 0.14817 0.37663 0.42562 0.0
C1904 C 0.15817 0.3994 0.46206 0.0
C1905 C 0.13643 0.41564 0.47236 0.0
C1906 C 0.10439 0.34553 0.36143 0.0
C1907 C 0.19211 0.40719 0.48958 0.0
H1908 H 0.18425 0.28906 0.40043 0.0
H1909 H 0.21941 0.36641 0.34453 0.0
H1910 H 0.15437 0.33298 0.47293 0.0
H1911 H 0.12355 0.30731 0.42996 0.0
H1912 H 0.15702 0.29452 0.45233 0.0
H1913 H 0.21261 0.41653 0.3637 0.0
H1914 H 0.16853 0.40636 0.36093 0.0
H1915 H 0.19803 0.42506 0.40763 0.0
H1916 H 0.07165 0.38252 0.39059 0.0
H1917 H 0.14416 0.43316 0.5002 0.0
H1918 H 0.10699 0.32235 0.36581 0.0
H1919 H 0.12015 0.35401 0.34123 0.0
H1920 H 0.0779 0.34135 0.34674 0.0
H1921 H 0.19467 0.38536 0.49883 0.0
H1922 H 0.19638 0.42598 0.51647 0.0
H1923 H 0.212 0.41549 0.47401 0.0
C1924 C 0.33063 0.16339 0.66658 0.0
C1925 C 0.30586 0.17397 0.64696 0.0
C1926 C 0.34598 0.14509 0.64557 0.0
C1927 C 0.3367 0.13726 0.60369 0.0
C1928 C 0.31226 0.14838 0.58353 0.0
C1929 C 0.29704 0.16656 0.60542 0.0
C1930 C 0.37163 0.13346 0.66837 0.0
C1931 C 0.30225 0.14119 0.53892 0.0
C1932 C 0.40024 0.10867 0.56054 0.0
C1933 C 0.38638 0.0754 0.55511 0.0
C1934 C 0.38313 0.12916 0.57342 0.0
C1935 C 0.35171 0.11609 0.58172 0.0
C1936 C 0.33675 0.08244 0.57398 0.0
C1937 C 0.35419 0.06252 0.56062 0.0
C1938 C 0.3995 0.16483 0.58009 0.0
C1939 C 0.30334 0.06746 0.58252 0.0
H1940 H 0.33769 0.16887 0.69863 0.0
H1941 H 0.2781 0.17476 0.58999 0.0
H1942 H 0.363 0.10691 0.66106 0.0
H1943 H 0.39563 0.1418 0.65977 0.0
H1944 H 0.37634 0.14196 0.70089 0.0
H1945 H 0.28028 0.14832 0.52773 0.0
H1946 H 0.32347 0.15438 0.5279 0.0
H1947 H 0.29636 0.11532 0.52626 0.0
H1948 H 0.42487 0.11874 0.55568 0.0
H1949 H 0.3434 0.03688 0.55687 0.0
H1950 H 0.40837 0.17559 0.61233 0.0
H1951 H 0.38125 0.1759 0.56756 0.0
H1952 H 0.42118 0.17092 0.56659 0.0
H1953 H 0.30591 0.07276 0.61497 0.0
H1954 H 0.29358 0.04108 0.57116 0.0
H1955 H 0.2847 0.07777 0.56911 0.0
C1956 C 0.85585 0.30097 0.68869 0.0
C1957 C 0.8223 0.293 0.69024 0.0
C1958 C 0.86958 0.32482 0.6696 0.0
C1959 C 0.84931 0.34124 0.65223 0.0
C1960 C 0.81571 0.33398 0.65479 0.0
C1961 C 0.80252 0.30977 0.67364 0.0
C1962 C 0.90552 0.33188 0.66717 0.0
C1963 C 0.79357 0.35137 0.63705 0.0
C1964 C 0.89714 0.4195 0.63175 0.0
C1965 C 0.89665 0.41005 0.59177 0.0
C1966 C 0.88052 0.39761 0.65147 0.0
C1967 C 0.86327 0.36555 0.63067 0.0
C1968 C 0.8613 0.35623 0.58983 0.0
C1969 C 0.87794 0.37872 0.57077 0.0
C1970 C 0.8827 0.40844 0.69493 0.0
C1971 C 0.84308 0.32217 0.56675 0.0
H1972 H 0.87115 0.28797 0.7014 0.0
H1973 H 0.7766 0.30381 0.67509 0.0
H1974 H 0.90663 0.327 0.63572 0.0
H1975 H 0.91981 0.35756 0.68018 0.0
H1976 H 0.91802 0.3173 0.6828 0.0
H1977 H 0.7685 0.34393 0.64339 0.0
H1978 H 0.80547 0.37758 0.64873 0.0
H1979 H 0.7903 0.34666 0.60451 0.0
H1980 H 0.91135 0.44381 0.64802 0.0
H1981 H 0.8774 0.37139 0.53985 0.0
H1982 H 0.89796 0.39692 0.7124 0.0
H1983 H 0.85747 0.40099 0.70076 0.0
H1984 H 0.8942 0.43481 0.70569 0.0
H1985 H 0.85604 0.30618 0.57815 0.0
H1986 H 0.84183 0.31943 0.53462 0.0
H1987 H 0.81726 0.31397 0.57071 0.0
C1988 C 0.18279 0.67476 0.69326 0.0
C1989 C 0.2155 0.67551 0.69361 0.0
C1990 C 0.1555 0.64747 0.6734 0.0
C1991 C 0.16111 0.62051 0.65277 0.0
C1992 C 0.19428 0.62048 0.65509 0.0
C1993 C 0.22127 0.64819 0.67554 0.0
C1994 C 0.12061 0.64808 0.67292 0.0
C1995 C 0.20114 0.59171 0.63467 0.0
C1996 C 0.08312 0.54735 0.61826 0.0
C1997 C 0.07043 0.54982 0.57982 0.0
C1998 C 0.11396 0.56868 0.64143 0.0
C1999 C 0.13208 0.59379 0.62628 0.0
C2000 C 0.12005 0.59551 0.58676 0.0
C2001 C 0.08949 0.57324 0.56381 0.0
C2002 C 0.12582 0.56492 0.68271 0.0
C2003 C 0.13863 0.62184 0.56935 0.0
H2004 H 0.17856 0.69604 0.70747 0.0
H2005 H 0.24669 0.64899 0.67585 0.0
H2006 H 0.10719 0.64654 0.64229 0.0
H2007 H 0.10639 0.62708 0.68274 0.0
H2008 H 0.12065 0.67016 0.6924 0.0
H2009 H 0.22813 0.59439 0.64228 0.0
H2010 H 0.18685 0.56986 0.64292 0.0
H2011 H 0.19262 0.58811 0.60214 0.0
H2012 H 0.06883 0.52876 0.63048 0.0
H2013 H 0.07988 0.57494 0.5339 0.0
H2014 H 0.11366 0.57676 0.70261 0.0
H2015 H 0.15332 0.57563 0.69398 0.0
H2016 H 0.11832 0.53926 0.68385 0.0
H2017 H 0.13823 0.64519 0.58506 0.0
H2018 H 0.12748 0.61826 0.5373 0.0
H2019 H 0.16519 0.62323 0.57346 0.0
loop_
_geom_bond_atom_site_label_1
_geom_bond_atom_site_label_2
_geom_bond_distance
_geom_bond_site_symmetry_2
_ccdc_geom_bond_type
Zn0 O6 1.969 . S
Zn0 O7 1.965 . S
Zn0 O11 2.024 . S
Zn0 O16 1.969 . S
Zn1 O8 1.969 . S
Zn1 O14 1.969 . S
Zn1 O15 1.965 . S
Zn1 O17 2.024 . S
C2 O3 1.229 . S
C2 O11 1.058 . S
O3 C2 1.229 . S
C4 O5 1.229 . S
C4 O17 1.058 . S
O5 C4 1.229 . S
O6 Zn0 1.969 . S
O6 C9 1.267 . S
O7 Zn0 1.965 . S
O7 C18 1.260 . S
O8 Zn1 1.969 . S
O8 C18 1.258 . S
C9 O6 1.267 . S
C9 O10 1.228 . S
O10 C9 1.228 . S
O11 Zn0 2.024 . S
O11 C2 1.058 . S
C12 O13 1.228 . S
C12 O14 1.267 . S
O13 C12 1.228 . S
O14 Zn1 1.969 . S
O14 C12 1.267 . S
O15 Zn1 1.965 . S
O15 C19 1.260 . S
O16 Zn0 1.969 . S
O16 C19 1.258 . S
O17 Zn1 2.024 . S
O17 C4 1.058 . S
C18 O7 1.260 . S
C18 O8 1.258 . S
C19 O15 1.260 . S
C19 O16 1.258 . S
Zn20 O26 1.969 . S
Zn20 O27 1.965 . S
Zn20 O31 2.024 . S
Zn20 O36 1.969 . S
Zn21 O28 1.969 . S
Zn21 O34 1.969 . S
Zn21 O35 1.965 . S
Zn21 O37 2.024 . S
C22 O23 1.229 . S
C22 O31 1.058 . S
O23 C22 1.229 . S
C24 O25 1.229 . S
C24 O37 1.058 . S
O25 C24 1.229 . S
O26 Zn20 1.969 . S
O26 C29 1.267 . S
O27 Zn20 1.965 . S
O27 C38 1.260 . S
O28 Zn21 1.969 . S
O28 C38 1.258 . S
C29 O26 1.267 . S
C29 O30 1.228 . S
O30 C29 1.228 . S
O31 Zn20 2.024 . S
O31 C22 1.058 . S
C32 O33 1.228 . S
C32 O34 1.267 . S
O33 C32 1.228 . S
O34 Zn21 1.969 . S
O34 C32 1.267 . S
O35 Zn21 1.965 . S
O35 C39 1.260 . S
O36 Zn20 1.969 . S
O36 C39 1.258 . S
O37 Zn21 2.024 . S
O37 C24 1.058 . S
C38 O27 1.260 . S
C38 O28 1.258 . S
C39 O35 1.260 . S
C39 O36 1.258 . S
Zn40 O46 1.969 . S
Zn40 O47 1.965 . S
Zn40 O51 2.024 . S
Zn40 O56 1.969 . S
Zn41 O48 1.969 . S
Zn41 O54 1.969 . S
Zn41 O55 1.965 . S
Zn41 O57 2.024 . S
C42 O43 1.229 . S
C42 O51 1.058 . S
O43 C42 1.229 . S
C44 O45 1.229 . S
C44 O57 1.058 . S
O45 C44 1.229 . S
O46 Zn40 1.969 . S
O46 C49 1.267 . S
O47 Zn40 1.965 . S
O47 C58 1.260 . S
O48 Zn41 1.969 . S
O48 C58 1.258 . S
C49 O46 1.267 . S
C49 O50 1.228 . S
O50 C49 1.228 . S
O51 Zn40 2.024 . S
O51 C42 1.058 . S
C52 O53 1.228 . S
C52 O54 1.267 . S
O53 C52 1.228 . S
O54 Zn41 1.969 . S
O54 C52 1.267 . S
O55 Zn41 1.965 . S
O55 C59 1.260 . S
O56 Zn40 1.969 . S
O56 C59 1.258 . S
O57 Zn41 2.024 . S
O57 C44 1.058 . S
C58 O47 1.260 . S
C58 O48 1.258 . S
C59 O55 1.260 . S
C59 O56 1.258 . S
Zn60 O66 1.969 . S
Zn60 O67 1.965 . S
Zn60 O71 2.024 . S
Zn60 O76 1.969 . S
Zn61 O68 1.969 . S
Zn61 O74 1.969 . S
Zn61 O75 1.965 . S
Zn61 O77 2.024 . S
C62 O63 1.229 . S
C62 O71 1.058 . S
O63 C62 1.229 . S
C64 O65 1.229 . S
C64 O77 1.058 . S
O65 C64 1.229 . S
O66 Zn60 1.969 . S
O66 C69 1.267 . S
O67 Zn60 1.965 . S
O67 C78 1.260 . S
O68 Zn61 1.969 . S
O68 C78 1.258 . S
C69 O66 1.267 . S
C69 O70 1.228 . S
O70 C69 1.228 . S
O71 Zn60 2.024 . S
O71 C62 1.058 . S
C72 O73 1.228 . S
C72 O74 1.267 . S
O73 C72 1.228 . S
O74 Zn61 1.969 . S
O74 C72 1.267 . S
O75 Zn61 1.965 . S
O75 C79 1.260 . S
O76 Zn60 1.969 . S
O76 C79 1.258 . S
O77 Zn61 2.024 . S
O77 C64 1.058 . S
C78 O67 1.260 . S
C78 O68 1.258 . S
C79 O75 1.260 . S
C79 O76 1.258 . S
Zn80 O86 1.969 . S
Zn80 O87 1.965 . S
Zn80 O91 2.024 . S
Zn80 O96 1.969 . S
Zn81 O88 1.969 . S
Zn81 O94 1.969 . S
Zn81 O95 1.965 . S
Zn81 O97 2.024 . S
C82 O83 1.229 . S
C82 O91 1.058 . S
O83 C82 1.229 . S
C84 O85 1.229 . S
C84 O97 1.058 . S
O85 C84 1.229 . S
O86 Zn80 1.969 . S
O86 C89 1.267 . S
O87 Zn80 1.965 . S
O87 C98 1.260 . S
O88 Zn81 1.969 . S
O88 C98 1.258 . S
C89 O86 1.267 . S
C89 O90 1.228 . S
O90 C89 1.228 . S
O91 Zn80 2.024 . S
O91 C82 1.058 . S
C92 O93 1.228 . S
C92 O94 1.267 . S
O93 C92 1.228 . S
O94 Zn81 1.969 . S
O94 C92 1.267 . S
O95 Zn81 1.965 . S
O95 C99 1.260 . S
O96 Zn80 1.969 . S
O96 C99 1.258 . S
O97 Zn81 2.024 . S
O97 C84 1.058 . S
C98 O87 1.260 . S
C98 O88 1.258 . S
C99 O95 1.260 . S
C99 O96 1.258 . S
Zn100 O106 1.969 . S
Zn100 O107 1.965 . S
Zn100 O111 2.024 . S
Zn100 O116 1.969 . S
Zn101 O108 1.969 . S
Zn101 O114 1.969 . S
Zn101 O115 1.965 . S
Zn101 O117 2.024 . S
C102 O103 1.229 . S
C102 O111 1.058 . S
O103 C102 1.229 . S
C104 O105 1.229 . S
C104 O117 1.058 . S
O105 C104 1.229 . S
O106 Zn100 1.969 . S
O106 C109 1.267 . S
O107 Zn100 1.965 . S
O107 C118 1.260 . S
O108 Zn101 1.969 . S
O108 C118 1.258 . S
C109 O106 1.267 . S
C109 O110 1.228 . S
O110 C109 1.228 . S
O111 Zn100 2.024 . S
O111 C102 1.058 . S
C112 O113 1.228 . S
C112 O114 1.267 . S
O113 C112 1.228 . S
O114 Zn101 1.969 . S
O114 C112 1.267 . S
O115 Zn101 1.965 . S
O115 C119 1.260 . S
O116 Zn100 1.969 . S
O116 C119 1.258 . S
O117 Zn101 2.024 . S
O117 C104 1.058 . S
C118 O107 1.260 . S
C118 O108 1.258 . S
C119 O115 1.260 . S
C119 O116 1.258 . S
Zn120 O126 1.969 . S
Zn120 O127 1.965 . S
Zn120 O131 2.024 . S
Zn120 O136 1.969 . S
Zn121 O128 1.969 . S
Zn121 O134 1.969 . S
Zn121 O135 1.965 . S
Zn121 O137 2.024 . S
C122 O123 1.229 . S
C122 O131 1.058 . S
O123 C122 1.229 . S
C124 O125 1.229 . S
C124 O137 1.058 . S
O125 C124 1.229 . S
O126 Zn120 1.969 . S
O126 C129 1.267 . S
O127 Zn120 1.965 . S
O127 C138 1.260 . S
O128 Zn121 1.969 . S
O128 C138 1.258 . S
C129 O126 1.267 . S
C129 O130 1.228 . S
O130 C129 1.228 . S
O131 Zn120 2.024 . S
O131 C122 1.058 . S
C132 O133 1.228 . S
C132 O134 1.267 . S
O133 C132 1.228 . S
O134 Zn121 1.969 . S
O134 C132 1.267 . S
O135 Zn121 1.965 . S
O135 C139 1.260 . S
O136 Zn120 1.969 . S
O136 C139 1.258 . S
O137 Zn121 2.024 . S
O137 C124 1.058 . S
C138 O127 1.260 . S
C138 O128 1.258 . S
C139 O135 1.260 . S
C139 O136 1.258 . S
Zn140 O146 1.969 . S
Zn140 O147 1.965 . S
Zn140 O151 2.024 . S
Zn140 O156 1.969 . S
Zn141 O148 1.969 . S
Zn141 O154 1.969 . S
Zn141 O155 1.965 . S
Zn141 O157 2.024 . S
C142 O143 1.229 . S
C142 O151 1.058 . S
O143 C142 1.229 . S
C144 O145 1.229 . S
C144 O157 1.058 . S
O145 C144 1.229 . S
O146 Zn140 1.969 . S
O146 C149 1.267 . S
O147 Zn140 1.965 . S
O147 C158 1.260 . S
O148 Zn141 1.969 . S
O148 C158 1.258 . S
C149 O146 1.267 . S
C149 O150 1.228 . S
O150 C149 1.228 . S
O151 Zn140 2.024 . S
O151 C142 1.058 . S
C152 O153 1.228 . S
C152 O154 1.267 . S
O153 C152 1.228 . S
O154 Zn141 1.969 . S
O154 C152 1.267 . S
O155 Zn141 1.965 . S
O155 C159 1.260 . S
O156 Zn140 1.969 . S
O156 C159 1.258 . S
O157 Zn141 2.024 . S
O157 C144 1.058 . S
C158 O147 1.260 . S
C158 O148 1.258 . S
C159 O155 1.260 . S
C159 O156 1.258 . S
Cd160 N163 2.334 1_655 S
Cd160 N189 2.304 1_565 S
Cd160 O196 2.268 . S
Cd160 O199 2.273 1_665 S
Cd160 O200 2.417 . S
Cd160 O201 2.330 . S
Cd161 N176 2.304 1_455 S
Cd161 N180 2.334 1_545 S
Cd161 O197 2.273 1_445 S
Cd161 O198 2.268 . S
Cd161 O202 2.417 . S
Cd161 O203 2.330 . S
C162 N163 1.332 . S
C162 C166 1.381 . S
C162 H168 0.931 . S
N163 Cd160 2.334 1_455 S
N163 C162 1.332 . S
N163 C167 1.328 . S
C164 C165 1.396 . S
C164 C167 1.378 . S
C164 H206 0.931 . S
C165 C164 1.396 . S
C165 C166 1.382 . S
C166 C162 1.381 . S
C166 C165 1.382 . S
C166 H207 0.930 . S
C167 N163 1.328 . S
C167 C164 1.378 . S
C167 H169 0.930 1_455 S
H168 C162 0.931 . S
H169 C167 0.930 1_655 S
C170 O196 1.238 . S
C170 O197 1.253 . S
C171 C172 1.379 . S
C171 N176 1.337 . S
C171 H177 0.929 . S
C172 C171 1.379 . S
C172 C173 1.380 . S
C172 H208 0.929 . S
C173 C172 1.380 . S
C173 C174 1.399 . S
C174 C173 1.399 . S
C174 C175 1.376 . S
C174 H209 0.931 . S
C175 C174 1.376 . S
C175 N176 1.338 . S
C175 H178 0.930 1_655 S
N176 Cd161 2.304 1_655 S
N176 C171 1.337 . S
N176 C175 1.338 . S
H177 C171 0.929 . S
H178 C175 0.930 1_455 S
C179 N180 1.332 . S
C179 C183 1.381 . S
C179 H185 0.931 . S
N180 Cd161 2.334 1_565 S
N180 C179 1.332 . S
N180 C184 1.328 . S
C181 C182 1.396 . S
C181 C184 1.378 . S
C181 H210 0.931 . S
C182 C181 1.396 . S
C182 C183 1.382 . S
C183 C179 1.381 . S
C183 C182 1.382 . S
C183 H211 0.930 . S
C184 N180 1.328 . S
C184 C181 1.378 . S
C184 H186 0.930 1_565 S
H185 C179 0.931 . S
H186 C184 0.930 1_545 S
C187 O198 1.238 . S
C187 O199 1.253 . S
C188 O200 1.239 . S
C188 O201 1.230 . S
N189 Cd160 2.304 1_545 S
N189 C190 1.337 . S
N189 C194 1.338 . S
C190 N189 1.337 . S
C190 C191 1.379 . S
C190 H204 0.929 . S
C191 C190 1.379 . S
C191 C192 1.380 . S
C191 H212 0.929 . S
C192 C191 1.380 . S
C192 C193 1.399 . S
C193 C192 1.399 . S
C193 C194 1.376 . S
C193 H213 0.931 . S
C194 N189 1.338 . S
C194 C193 1.376 . S
C194 H205 0.930 1_545 S
C195 O202 1.239 . S
C195 O203 1.230 . S
O196 Cd160 2.268 . S
O196 C170 1.238 . S
O197 Cd161 2.273 1_665 S
O197 C170 1.253 . S
O198 Cd161 2.268 . S
O198 C187 1.238 . S
O199 Cd160 2.273 1_445 S
O199 C187 1.253 . S
O200 Cd160 2.417 . S
O200 C188 1.239 . S
O201 Cd160 2.330 . S
O201 C188 1.230 . S
O202 Cd161 2.417 . S
O202 C195 1.239 . S
O203 Cd161 2.330 . S
O203 C195 1.230 . S
H204 C190 0.929 . S
H205 C194 0.930 1_565 S
H206 C164 0.931 . S
H207 C166 0.930 . S
H208 C172 0.929 . S
H209 C174 0.931 . S
H210 C181 0.931 . S
H211 C183 0.930 . S
H212 C191 0.929 . S
H213 C193 0.931 . S
Cd214 N217 2.334 . S
Cd214 N243 2.304 1_565 S
Cd214 O250 2.268 1_554 S
Cd214 O253 2.273 1_565 S
Cd214 O254 2.417 . S
Cd214 O255 2.330 . S
Cd215 N230 2.304 . S
Cd215 N234 2.334 1_545 S
Cd215 O251 2.273 1_545 S
Cd215 O252 2.268 1_556 S
Cd215 O256 2.417 . S
Cd215 O257 2.330 . S
C216 N217 1.332 . S
C216 C220 1.381 . S
C216 H222 0.931 . S
N217 Cd214 2.334 . S
N217 C216 1.332 . S
N217 C221 1.328 . S
C218 C219 1.396 . S
C218 C221 1.378 . S
C218 H260 0.931 1_554 S
C219 C218 1.396 . S
C219 C220 1.382 . S
C220 C216 1.381 . S
C220 C219 1.382 . S
C220 H261 0.930 . S
C221 N217 1.328 . S
C221 C218 1.378 . S
C221 H223 0.930 1_554 S
H222 C216 0.931 . S
H223 C221 0.930 1_556 S
C224 O250 1.238 . S
C224 O251 1.253 . S
C225 C226 1.379 . S
C225 N230 1.337 . S
C225 H231 0.929 . S
C226 C225 1.379 . S
C226 C227 1.380 . S
C226 H262 0.929 . S
C227 C226 1.380 . S
C227 C228 1.399 . S
C228 C227 1.399 . S
C228 C229 1.376 . S
C228 H263 0.931 1_556 S
C229 C228 1.376 . S
C229 N230 1.338 . S
C229 H232 0.930 1_556 S
N230 Cd215 2.304 . S
N230 C225 1.337 . S
N230 C229 1.338 . S
H231 C225 0.929 . S
H232 C229 0.930 1_554 S
C233 N234 1.332 . S
C233 C237 1.381 . S
C233 H239 0.931 . S
N234 Cd215 2.334 1_565 S
N234 C233 1.332 . S
N234 C238 1.328 . S
C235 C236 1.396 . S
C235 C238 1.378 . S
C235 H264 0.931 1_556 S
C236 C235 1.396 . S
C236 C237 1.382 . S
C237 C233 1.381 . S
C237 C236 1.382 . S
C237 H265 0.930 . S
C238 N234 1.328 . S
C238 C235 1.378 . S
C238 H240 0.930 1_566 S
H239 C233 0.931 . S
H240 C238 0.930 1_544 S
C241 O252 1.238 . S
C241 O253 1.253 . S
C242 O254 1.239 . S
C242 O255 1.230 . S
N243 Cd214 2.304 1_545 S
N243 C244 1.337 . S
N243 C248 1.338 . S
C244 N243 1.337 . S
C244 C245 1.379 . S
C244 H258 0.929 . S
C245 C244 1.379 . S
C245 C246 1.380 . S
C245 H266 0.929 . S
C246 C245 1.380 . S
C246 C247 1.399 . S
C247 C246 1.399 . S
C247 C248 1.376 . S
C247 H267 0.931 1_554 S
C248 N243 1.338 . S
C248 C247 1.376 . S
C248 H259 0.930 1_544 S
C249 O256 1.239 . S
C249 O257 1.230 . S
O250 Cd214 2.268 1_556 S
O250 C224 1.238 . S
O251 Cd215 2.273 1_565 S
O251 C224 1.253 . S
O252 Cd215 2.268 1_554 S
O252 C241 1.238 . S
O253 Cd214 2.273 1_545 S
O253 C241 1.253 . S
O254 Cd214 2.417 . S
O254 C242 1.239 . S
O255 Cd214 2.330 . S
O255 C242 1.230 . S
O256 Cd215 2.417 . S
O256 C249 1.239 . S
O257 Cd215 2.330 . S
O257 C249 1.230 . S
H258 C244 0.929 . S
H259 C248 0.930 1_566 S
H260 C218 0.931 1_556 S
H261 C220 0.930 . S
H262 C226 0.929 . S
H263 C228 0.931 1_554 S
H264 C235 0.931 1_554 S
H265 C237 0.930 . S
H266 C245 0.929 . S
H267 C247 0.931 1_556 S
Cd268 N271 2.334 1_655 S
Cd268 N297 2.304 . S
Cd268 O304 2.268 1_554 S
Cd268 O307 2.273 1_655 S
Cd268 O308 2.417 . S
Cd268 O309 2.330 . S
Cd269 N284 2.304 1_455 S
Cd269 N288 2.334 . S
Cd269 O305 2.273 1_455 S
Cd269 O306 2.268 1_556 S
Cd269 O310 2.417 . S
Cd269 O311 2.330 . S
C270 N271 1.332 . S
C270 C274 1.381 . S
C270 H276 0.931 . S
N271 Cd268 2.334 1_455 S
N271 C270 1.332 . S
N271 C275 1.328 . S
C272 C273 1.396 . S
C272 C275 1.378 . S
C272 H314 0.931 1_554 S
C273 C272 1.396 . S
C273 C274 1.382 . S
C274 C270 1.381 . S
C274 C273 1.382 . S
C274 H315 0.930 . S
C275 N271 1.328 . S
C275 C272 1.378 . S
C275 H277 0.930 1_454 S
H276 C270 0.931 . S
H277 C275 0.930 1_656 S
C278 O304 1.238 . S
C278 O305 1.253 . S
C279 C280 1.379 . S
C279 N284 1.337 . S
C279 H285 0.929 . S
C280 C279 1.379 . S
C280 C281 1.380 . S
C280 H316 0.929 . S
C281 C280 1.380 . S
C281 C282 1.399 . S
C282 C281 1.399 . S
C282 C283 1.376 . S
C282 H317 0.931 1_556 S
C283 C282 1.376 . S
C283 N284 1.338 . S
C283 H286 0.930 1_656 S
N284 Cd269 2.304 1_655 S
N284 C279 1.337 . S
N284 C283 1.338 . S
H285 C279 0.929 . S
H286 C283 0.930 1_454 S
C287 N288 1.332 . S
C287 C291 1.381 . S
C287 H293 0.931 . S
N288 Cd269 2.334 . S
N288 C287 1.332 . S
N288 C292 1.328 . S
C289 C290 1.396 . S
C289 C292 1.378 . S
C289 H318 0.931 1_556 S
C290 C289 1.396 . S
C290 C291 1.382 . S
C291 C287 1.381 . S
C291 C290 1.382 . S
C291 H319 0.930 . S
C292 N288 1.328 . S
C292 C289 1.378 . S
C292 H294 0.930 1_556 S
H293 C287 0.931 . S
H294 C292 0.930 1_554 S
C295 O306 1.238 . S
C295 O307 1.253 . S
C296 O308 1.239 . S
C296 O309 1.230 . S
N297 Cd268 2.304 . S
N297 C298 1.337 . S
N297 C302 1.338 . S
C298 N297 1.337 . S
C298 C299 1.379 . S
C298 H312 0.929 . S
C299 C298 1.379 . S
C299 C300 1.380 . S
C299 H320 0.929 . S
C300 C299 1.380 . S
C300 C301 1.399 . S
C301 C300 1.399 . S
C301 C302 1.376 . S
C301 H321 0.931 1_554 S
C302 N297 1.338 . S
C302 C301 1.376 . S
C302 H313 0.930 1_554 S
C303 O310 1.239 . S
C303 O311 1.230 . S
O304 Cd268 2.268 1_556 S
O304 C278 1.238 . S
O305 Cd269 2.273 1_655 S
O305 C278 1.253 . S
O306 Cd269 2.268 1_554 S
O306 C295 1.238 . S
O307 Cd268 2.273 1_455 S
O307 C295 1.253 . S
O308 Cd268 2.417 . S
O308 C296 1.239 . S
O309 Cd268 2.330 . S
O309 C296 1.230 . S
O310 Cd269 2.417 . S
O310 C303 1.239 . S
O311 Cd269 2.330 . S
O311 C303 1.230 . S
H312 C298 0.929 . S
H313 C302 0.930 1_556 S
H314 C272 0.931 1_556 S
H315 C274 0.930 . S
H316 C280 0.929 . S
H317 C282 0.931 1_554 S
H318 C289 0.931 1_554 S
H319 C291 0.930 . S
H320 C299 0.929 . S
H321 C301 0.931 1_556 S
Cd322 N325 2.334 . S
Cd322 N351 2.304 . S
Cd322 O358 2.268 1_554 S
Cd322 O361 2.273 . S
Cd322 O362 2.417 . S
Cd322 O363 2.330 . S
Cd323 N338 2.304 . S
Cd323 N342 2.334 . S
Cd323 O359 2.273 . S
Cd323 O360 2.268 1_556 S
Cd323 O364 2.417 . S
Cd323 O365 2.330 . S
C324 N325 1.332 . S
C324 C328 1.381 . S
C324 H330 0.931 . S
N325 Cd322 2.334 . S
N325 C324 1.332 . S
N325 C329 1.328 . S
C326 C327 1.396 . S
C326 C329 1.378 . S
C326 H368 0.931 1_554 S
C327 C326 1.396 . S
C327 C328 1.382 . S
C328 C324 1.381 . S
C328 C327 1.382 . S
C328 H369 0.930 . S
C329 N325 1.328 . S
C329 C326 1.378 . S
C329 H331 0.930 1_554 S
H330 C324 0.931 . S
H331 C329 0.930 1_556 S
C332 O358 1.238 . S
C332 O359 1.253 . S
C333 C334 1.379 . S
C333 N338 1.337 . S
C333 H339 0.929 . S
C334 C333 1.379 . S
C334 C335 1.380 . S
C334 H370 0.929 . S
C335 C334 1.380 . S
C335 C336 1.399 . S
C336 C335 1.399 . S
C336 C337 1.376 . S
C336 H371 0.931 1_556 S
C337 C336 1.376 . S
C337 N338 1.338 . S
C337 H340 0.930 1_556 S
N338 Cd323 2.304 . S
N338 C333 1.337 . S
N338 C337 1.338 . S
H339 C333 0.929 . S
H340 C337 0.930 1_554 S
C341 N342 1.332 . S
C341 C345 1.381 . S
C341 H347 0.931 . S
N342 Cd323 2.334 . S
N342 C341 1.332 . S
N342 C346 1.328 . S
C343 C344 1.396 . S
C343 C346 1.378 . S
C343 H372 0.931 1_556 S
C344 C343 1.396 . S
C344 C345 1.382 . S
C345 C341 1.381 . S
C345 C344 1.382 . S
C345 H373 0.930 . S
C346 N342 1.328 . S
C346 C343 1.378 . S
C346 H348 0.930 1_556 S
H347 C341 0.931 . S
H348 C346 0.930 1_554 S
C349 O360 1.238 . S
C349 O361 1.253 . S
C350 O362 1.239 . S
C350 O363 1.230 . S
N351 Cd322 2.304 . S
N351 C352 1.337 . S
N351 C356 1.338 . S
C352 N351 1.337 . S
C352 C353 1.379 . S
C352 H366 0.929 . S
C353 C352 1.379 . S
C353 C354 1.380 . S
C353 H374 0.929 . S
C354 C353 1.380 . S
C354 C355 1.399 . S
C355 C354 1.399 . S
C355 C356 1.376 . S
C355 H375 0.931 1_554 S
C356 N351 1.338 . S
C356 C355 1.376 . S
C356 H367 0.930 1_554 S
C357 O364 1.239 . S
C357 O365 1.230 . S
O358 Cd322 2.268 1_556 S
O358 C332 1.238 . S
O359 Cd323 2.273 . S
O359 C332 1.253 . S
O360 Cd323 2.268 1_554 S
O360 C349 1.238 . S
O361 Cd322 2.273 . S
O361 C349 1.253 . S
O362 Cd322 2.417 . S
O362 C350 1.239 . S
O363 Cd322 2.330 . S
O363 C350 1.230 . S
O364 Cd323 2.417 . S
O364 C357 1.239 . S
O365 Cd323 2.330 . S
O365 C357 1.230 . S
H366 C352 0.929 . S
H367 C356 0.930 1_556 S
H368 C326 0.931 1_556 S
H369 C328 0.930 . S
H370 C334 0.929 . S
H371 C336 0.931 1_554 S
H372 C343 0.931 1_554 S
H373 C345 0.930 . S
H374 C353 0.929 . S
H375 C355 0.931 1_556 S
Cd376 N379 2.334 1_655 S
Cd376 N405 2.304 . S
Cd376 O412 2.268 . S
Cd376 O415 2.273 1_655 S
Cd376 O416 2.417 . S
Cd376 O417 2.330 . S
Cd377 N392 2.304 1_455 S
Cd377 N396 2.334 . S
Cd377 O413 2.273 1_455 S
Cd377 O414 2.268 . S
Cd377 O418 2.417 . S
Cd377 O419 2.330 . S
C378 N379 1.332 . S
C378 C382 1.381 . S
C378 H384 0.931 . S
N379 Cd376 2.334 1_455 S
N379 C378 1.332 . S
N379 C383 1.328 . S
C380 C381 1.396 . S
C380 C383 1.378 . S
C380 H422 0.931 . S
C381 C380 1.396 . S
C381 C382 1.382 . S
C382 C378 1.381 . S
C382 C381 1.382 . S
C382 H423 0.930 . S
C383 N379 1.328 . S
C383 C380 1.378 . S
C383 H385 0.930 1_455 S
H384 C378 0.931 . S
H385 C383 0.930 1_655 S
C386 O412 1.238 . S
C386 O413 1.253 . S
C387 C388 1.379 . S
C387 N392 1.337 . S
C387 H393 0.929 . S
C388 C387 1.379 . S
C388 C389 1.380 . S
C388 H424 0.929 . S
C389 C388 1.380 . S
C389 C390 1.399 . S
C390 C389 1.399 . S
C390 C391 1.376 . S
C390 H425 0.931 . S
C391 C390 1.376 . S
C391 N392 1.338 . S
C391 H394 0.930 1_655 S
N392 Cd377 2.304 1_655 S
N392 C387 1.337 . S
N392 C391 1.338 . S
H393 C387 0.929 . S
H394 C391 0.930 1_455 S
C395 N396 1.332 . S
C395 C399 1.381 . S
C395 H401 0.931 . S
N396 Cd377 2.334 . S
N396 C395 1.332 . S
N396 C400 1.328 . S
C397 C398 1.396 . S
C397 C400 1.378 . S
C397 H426 0.931 . S
C398 C397 1.396 . S
C398 C399 1.382 . S
C399 C395 1.381 . S
C399 C398 1.382 . S
C399 H427 0.930 . S
C400 N396 1.328 . S
C400 C397 1.378 . S
C400 H402 0.930 . S
H401 C395 0.931 . S
H402 C400 0.930 . S
C403 O414 1.238 . S
C403 O415 1.253 . S
C404 O416 1.239 . S
C404 O417 1.230 . S
N405 Cd376 2.304 . S
N405 C406 1.337 . S
N405 C410 1.338 . S
C406 N405 1.337 . S
C406 C407 1.379 . S
C406 H420 0.929 . S
C407 C406 1.379 . S
C407 C408 1.380 . S
C407 H428 0.929 . S
C408 C407 1.380 . S
C408 C409 1.399 . S
C409 C408 1.399 . S
C409 C410 1.376 . S
C409 H429 0.931 . S
C410 N405 1.338 . S
C410 C409 1.376 . S
C410 H421 0.930 . S
C411 O418 1.239 . S
C411 O419 1.230 . S
O412 Cd376 2.268 . S
O412 C386 1.238 . S
O413 Cd377 2.273 1_655 S
O413 C386 1.253 . S
O414 Cd377 2.268 . S
O414 C403 1.238 . S
O415 Cd376 2.273 1_455 S
O415 C403 1.253 . S
O416 Cd376 2.417 . S
O416 C404 1.239 . S
O417 Cd376 2.330 . S
O417 C404 1.230 . S
O418 Cd377 2.417 . S
O418 C411 1.239 . S
O419 Cd377 2.330 . S
O419 C411 1.230 . S
H420 C406 0.929 . S
H421 C410 0.930 . S
H422 C380 0.931 . S
H423 C382 0.930 . S
H424 C388 0.929 . S
H425 C390 0.931 . S
H426 C397 0.931 . S
H427 C399 0.930 . S
H428 C407 0.929 . S
H429 C409 0.931 . S
Cd430 N433 2.334 . S
Cd430 N459 2.304 1_565 S
Cd430 O466 2.268 . S
Cd430 O469 2.273 1_565 S
Cd430 O470 2.417 . S
Cd430 O471 2.330 . S
Cd431 N446 2.304 . S
Cd431 N450 2.334 1_545 S
Cd431 O467 2.273 1_545 S
Cd431 O468 2.268 . S
Cd431 O472 2.417 . S
Cd431 O473 2.330 . S
C432 N433 1.332 . S
C432 C436 1.381 . S
C432 H438 0.931 . S
N433 Cd430 2.334 . S
N433 C432 1.332 . S
N433 C437 1.328 . S
C434 C435 1.396 . S
C434 C437 1.378 . S
C434 H476 0.931 . S
C435 C434 1.396 . S
C435 C436 1.382 . S
C436 C432 1.381 . S
C436 C435 1.382 . S
C436 H477 0.930 . S
C437 N433 1.328 . S
C437 C434 1.378 . S
C437 H439 0.930 . S
H438 C432 0.931 . S
H439 C437 0.930 . S
C440 O466 1.238 . S
C440 O467 1.253 . S
C441 C442 1.379 . S
C441 N446 1.337 . S
C441 H447 0.929 . S
C442 C441 1.379 . S
C442 C443 1.380 . S
C442 H478 0.929 . S
C443 C442 1.380 . S
C443 C444 1.399 . S
C444 C443 1.399 . S
C444 C445 1.376 . S
C444 H479 0.931 . S
C445 C444 1.376 . S
C445 N446 1.338 . S
C445 H448 0.930 . S
N446 Cd431 2.304 . S
N446 C441 1.337 . S
N446 C445 1.338 . S
H447 C441 0.929 . S
H448 C445 0.930 . S
C449 N450 1.332 . S
C449 C453 1.381 . S
C449 H455 0.931 . S
N450 Cd431 2.334 1_565 S
N450 C449 1.332 . S
N450 C454 1.328 . S
C451 C452 1.396 . S
C451 C454 1.378 . S
C451 H480 0.931 . S
C452 C451 1.396 . S
C452 C453 1.382 . S
C453 C449 1.381 . S
C453 C452 1.382 . S
C453 H481 0.930 . S
C454 N450 1.328 . S
C454 C451 1.378 . S
C454 H456 0.930 1_565 S
H455 C449 0.931 . S
H456 C454 0.930 1_545 S
C457 O468 1.238 . S
C457 O469 1.253 . S
C458 O470 1.239 . S
C458 O471 1.230 . S
N459 Cd430 2.304 1_545 S
N459 C460 1.337 . S
N459 C464 1.338 . S
C460 N459 1.337 . S
C460 C461 1.379 . S
C460 H474 0.929 . S
C461 C460 1.379 . S
C461 C462 1.380 . S
C461 H482 0.929 . S
C462 C461 1.380 . S
C462 C463 1.399 . S
C463 C462 1.399 . S
C463 C464 1.376 . S
C463 H483 0.931 . S
C464 N459 1.338 . S
C464 C463 1.376 . S
C464 H475 0.930 1_545 S
C465 O472 1.239 . S
C465 O473 1.230 . S
O466 Cd430 2.268 . S
O466 C440 1.238 . S
O467 Cd431 2.273 1_565 S
O467 C440 1.253 . S
O468 Cd431 2.268 . S
O468 C457 1.238 . S
O469 Cd430 2.273 1_545 S
O469 C457 1.253 . S
O470 Cd430 2.417 . S
O470 C458 1.239 . S
O471 Cd430 2.330 . S
O471 C458 1.230 . S
O472 Cd431 2.417 . S
O472 C465 1.239 . S
O473 Cd431 2.330 . S
O473 C465 1.230 . S
H474 C460 0.929 . S
H475 C464 0.930 1_565 S
H476 C434 0.931 . S
H477 C436 0.930 . S
H478 C442 0.929 . S
H479 C444 0.931 . S
H480 C451 0.931 . S
H481 C453 0.930 . S
H482 C461 0.929 . S
H483 C463 0.931 . S
C484 C485 1.391 . S
C484 C486 1.394 . S
C484 H500 0.931 . S
C485 C484 1.391 . S
C485 C489 1.376 . S
C486 C484 1.394 . S
C486 C487 1.369 . S
C486 C490 1.531 . S
C487 C486 1.369 . S
C487 C488 1.410 . S
C487 C495 1.503 . S
C488 C487 1.410 . S
C488 C489 1.392 . S
C488 C491 1.511 . S
C489 C485 1.376 . S
C489 C488 1.392 . S
C489 H501 0.929 . S
C490 C486 1.531 . S
C490 H502 0.960 . S
C490 H503 0.962 . S
C490 H504 0.960 . S
C491 C488 1.511 . S
C491 H505 0.961 . S
C491 H506 0.961 . S
C491 H507 0.961 . S
C492 C493 1.370 . S
C492 C494 1.363 . S
C492 H508 0.931 . S
C493 C492 1.370 . S
C493 C497 1.408 . S
C494 C492 1.363 . S
C494 C495 1.370 . S
C494 C498 1.524 . S
C495 C487 1.503 . S
C495 C494 1.370 . S
C495 C496 1.403 . S
C496 C495 1.403 . S
C496 C497 1.404 . S
C496 C499 1.539 . S
C497 C493 1.408 . S
C497 C496 1.404 . S
C497 H509 0.930 . S
C498 C494 1.524 . S
C498 H510 0.956 . S
C498 H511 0.961 . S
C498 H512 0.961 . S
C499 C496 1.539 . S
C499 H513 0.958 . S
C499 H514 0.961 . S
C499 H515 0.960 . S
H500 C484 0.931 . S
H501 C489 0.929 . S
H502 C490 0.960 . S
H503 C490 0.962 . S
H504 C490 0.960 . S
H505 C491 0.961 . S
H506 C491 0.961 . S
H507 C491 0.961 . S
H508 C492 0.931 . S
H509 C497 0.930 . S
H510 C498 0.956 . S
H511 C498 0.961 . S
H512 C498 0.961 . S
H513 C499 0.958 . S
H514 C499 0.961 . S
H515 C499 0.960 . S
C516 C517 1.391 . S
C516 C518 1.394 . S
C516 H532 0.931 . S
C517 C516 1.391 . S
C517 C521 1.376 . S
C518 C516 1.394 . S
C518 C519 1.369 . S
C518 C522 1.531 . S
C519 C518 1.369 . S
C519 C520 1.410 . S
C519 C527 1.503 . S
C520 C519 1.410 . S
C520 C521 1.392 . S
C520 C523 1.511 . S
C521 C517 1.376 . S
C521 C520 1.392 . S
C521 H533 0.929 . S
C522 C518 1.531 . S
C522 H534 0.960 . S
C522 H535 0.962 . S
C522 H536 0.960 . S
C523 C520 1.511 . S
C523 H537 0.961 . S
C523 H538 0.961 . S
C523 H539 0.961 . S
C524 C525 1.370 . S
C524 C526 1.363 . S
C524 H540 0.931 . S
C525 C524 1.370 . S
C525 C529 1.408 . S
C526 C524 1.363 . S
C526 C527 1.370 . S
C526 C530 1.524 . S
C527 C519 1.503 . S
C527 C526 1.370 . S
C527 C528 1.403 . S
C528 C527 1.403 . S
C528 C529 1.404 . S
C528 C531 1.539 . S
C529 C525 1.408 . S
C529 C528 1.404 . S
C529 H541 0.930 . S
C530 C526 1.524 . S
C530 H542 0.956 . S
C530 H543 0.961 . S
C530 H544 0.961 . S
C531 C528 1.539 . S
C531 H545 0.958 . S
C531 H546 0.961 . S
C531 H547 0.960 . S
H532 C516 0.931 . S
H533 C521 0.929 . S
H534 C522 0.960 . S
H535 C522 0.962 . S
H536 C522 0.960 . S
H537 C523 0.961 . S
H538 C523 0.961 . S
H539 C523 0.961 . S
H540 C524 0.931 . S
H541 C529 0.930 . S
H542 C530 0.956 . S
H543 C530 0.961 . S
H544 C530 0.961 . S
H545 C531 0.958 . S
H546 C531 0.961 . S
H547 C531 0.960 . S
C548 C549 1.391 . S
C548 C550 1.394 . S
C548 H564 0.931 . S
C549 C548 1.391 . S
C549 C553 1.376 . S
C550 C548 1.394 . S
C550 C551 1.369 . S
C550 C554 1.531 . S
C551 C550 1.369 . S
C551 C552 1.410 . S
C551 C559 1.503 . S
C552 C551 1.410 . S
C552 C553 1.392 . S
C552 C555 1.511 . S
C553 C549 1.376 . S
C553 C552 1.392 . S
C553 H565 0.929 . S
C554 C550 1.531 . S
C554 H566 0.960 . S
C554 H567 0.962 . S
C554 H568 0.960 . S
C555 C552 1.511 . S
C555 H569 0.961 . S
C555 H570 0.961 . S
C555 H571 0.961 . S
C556 C557 1.370 . S
C556 C558 1.363 . S
C556 H572 0.931 . S
C557 C556 1.370 . S
C557 C561 1.408 . S
C558 C556 1.363 . S
C558 C559 1.370 . S
C558 C562 1.524 . S
C559 C551 1.503 . S
C559 C558 1.370 . S
C559 C560 1.403 . S
C560 C559 1.403 . S
C560 C561 1.404 . S
C560 C563 1.539 . S
C561 C557 1.408 . S
C561 C560 1.404 . S
C561 H573 0.930 . S
C562 C558 1.524 . S
C562 H574 0.956 . S
C562 H575 0.961 . S
C562 H576 0.961 . S
C563 C560 1.539 . S
C563 H577 0.958 . S
C563 H578 0.961 . S
C563 H579 0.960 . S
H564 C548 0.931 . S
H565 C553 0.929 . S
H566 C554 0.960 . S
H567 C554 0.962 . S
H568 C554 0.960 . S
H569 C555 0.961 . S
H570 C555 0.961 . S
H571 C555 0.961 . S
H572 C556 0.931 . S
H573 C561 0.930 . S
H574 C562 0.956 . S
H575 C562 0.961 . S
H576 C562 0.961 . S
H577 C563 0.958 . S
H578 C563 0.961 . S
H579 C563 0.960 . S
C580 C581 1.391 . S
C580 C582 1.394 . S
C580 H596 0.931 . S
C581 C580 1.391 . S
C581 C585 1.376 . S
C582 C580 1.394 . S
C582 C583 1.369 . S
C582 C586 1.531 . S
C583 C582 1.369 . S
C583 C584 1.410 . S
C583 C591 1.503 . S
C584 C583 1.410 . S
C584 C585 1.392 . S
C584 C587 1.511 . S
C585 C581 1.376 . S
C585 C584 1.392 . S
C585 H597 0.929 . S
C586 C582 1.531 . S
C586 H598 0.960 . S
C586 H599 0.962 . S
C586 H600 0.960 . S
C587 C584 1.511 . S
C587 H601 0.961 . S
C587 H602 0.961 . S
C587 H603 0.961 . S
C588 C589 1.370 . S
C588 C590 1.363 . S
C588 H604 0.931 . S
C589 C588 1.370 . S
C589 C593 1.408 . S
C590 C588 1.363 . S
C590 C591 1.370 . S
C590 C594 1.524 . S
C591 C583 1.503 . S
C591 C590 1.370 . S
C591 C592 1.403 . S
C592 C591 1.403 . S
C592 C593 1.404 . S
C592 C595 1.539 . S
C593 C589 1.408 . S
C593 C592 1.404 . S
C593 H605 0.930 . S
C594 C590 1.524 . S
C594 H606 0.956 . S
C594 H607 0.961 . S
C594 H608 0.961 . S
C595 C592 1.539 . S
C595 H609 0.958 . S
C595 H610 0.961 . S
C595 H611 0.960 . S
H596 C580 0.931 . S
H597 C585 0.929 . S
H598 C586 0.960 . S
H599 C586 0.962 . S
H600 C586 0.960 . S
H601 C587 0.961 . S
H602 C587 0.961 . S
H603 C587 0.961 . S
H604 C588 0.931 . S
H605 C593 0.930 . S
H606 C594 0.956 . S
H607 C594 0.961 . S
H608 C594 0.961 . S
H609 C595 0.958 . S
H610 C595 0.961 . S
H611 C595 0.960 . S
C612 C613 1.391 . S
C612 C614 1.394 . S
C612 H628 0.931 . S
C613 C612 1.391 . S
C613 C617 1.376 . S
C614 C612 1.394 . S
C614 C615 1.369 . S
C614 C618 1.531 . S
C615 C614 1.369 . S
C615 C616 1.410 . S
C615 C623 1.503 . S
C616 C615 1.410 . S
C616 C617 1.392 . S
C616 C619 1.511 . S
C617 C613 1.376 . S
C617 C616 1.392 . S
C617 H629 0.929 . S
C618 C614 1.531 . S
C618 H630 0.960 . S
C618 H631 0.962 . S
C618 H632 0.960 . S
C619 C616 1.511 . S
C619 H633 0.961 . S
C619 H634 0.961 . S
C619 H635 0.961 . S
C620 C621 1.370 . S
C620 C622 1.363 . S
C620 H636 0.931 . S
C621 C620 1.370 . S
C621 C625 1.408 . S
C622 C620 1.363 . S
C622 C623 1.370 . S
C622 C626 1.524 . S
C623 C615 1.503 . S
C623 C622 1.370 . S
C623 C624 1.403 . S
C624 C623 1.403 . S
C624 C625 1.404 . S
C624 C627 1.539 . S
C625 C621 1.408 . S
C625 C624 1.404 . S
C625 H637 0.930 . S
C626 C622 1.524 . S
C626 H638 0.956 . S
C626 H639 0.961 . S
C626 H640 0.961 . S
C627 C624 1.539 . S
C627 H641 0.958 . S
C627 H642 0.961 . S
C627 H643 0.960 . S
H628 C612 0.931 . S
H629 C617 0.929 . S
H630 C618 0.960 . S
H631 C618 0.962 . S
H632 C618 0.960 . S
H633 C619 0.961 . S
H634 C619 0.961 . S
H635 C619 0.961 . S
H636 C620 0.931 . S
H637 C625 0.930 . S
H638 C626 0.956 . S
H639 C626 0.961 . S
H640 C626 0.961 . S
H641 C627 0.958 . S
H642 C627 0.961 . S
H643 C627 0.960 . S
C644 C645 1.391 . S
C644 C646 1.394 . S
C644 H660 0.931 . S
C645 C644 1.391 . S
C645 C649 1.376 . S
C646 C644 1.394 . S
C646 C647 1.369 . S
C646 C650 1.531 . S
C647 C646 1.369 . S
C647 C648 1.410 . S
C647 C655 1.503 . S
C648 C647 1.410 . S
C648 C649 1.392 . S
C648 C651 1.511 . S
C649 C645 1.376 . S
C649 C648 1.392 . S
C649 H661 0.929 . S
C650 C646 1.531 . S
C650 H662 0.960 . S
C650 H663 0.962 . S
C650 H664 0.960 . S
C651 C648 1.511 . S
C651 H665 0.961 . S
C651 H666 0.961 . S
C651 H667 0.961 . S
C652 C653 1.370 . S
C652 C654 1.363 . S
C652 H668 0.931 . S
C653 C652 1.370 . S
C653 C657 1.408 . S
C654 C652 1.363 . S
C654 C655 1.370 . S
C654 C658 1.524 . S
C655 C647 1.503 . S
C655 C654 1.370 . S
C655 C656 1.403 . S
C656 C655 1.403 . S
C656 C657 1.404 . S
C656 C659 1.539 . S
C657 C653 1.408 . S
C657 C656 1.404 . S
C657 H669 0.930 . S
C658 C654 1.524 . S
C658 H670 0.956 . S
C658 H671 0.961 . S
C658 H672 0.961 . S
C659 C656 1.539 . S
C659 H673 0.958 . S
C659 H674 0.961 . S
C659 H675 0.960 . S
H660 C644 0.931 . S
H661 C649 0.929 . S
H662 C650 0.960 . S
H663 C650 0.962 . S
H664 C650 0.960 . S
H665 C651 0.961 . S
H666 C651 0.961 . S
H667 C651 0.961 . S
H668 C652 0.931 . S
H669 C657 0.930 . S
H670 C658 0.956 . S
H671 C658 0.961 . S
H672 C658 0.961 . S
H673 C659 0.958 . S
H674 C659 0.961 . S
H675 C659 0.960 . S
C676 C677 1.391 . S
C676 C678 1.394 . S
C676 H692 0.931 . S
C677 C676 1.391 . S
C677 C681 1.376 . S
C678 C676 1.394 . S
C678 C679 1.369 . S
C678 C682 1.531 . S
C679 C678 1.369 . S
C679 C680 1.410 . S
C679 C687 1.503 . S
C680 C679 1.410 . S
C680 C681 1.392 . S
C680 C683 1.511 . S
C681 C677 1.376 . S
C681 C680 1.392 . S
C681 H693 0.929 . S
C682 C678 1.531 . S
C682 H694 0.960 . S
C682 H695 0.962 . S
C682 H696 0.960 . S
C683 C680 1.511 . S
C683 H697 0.961 . S
C683 H698 0.961 . S
C683 H699 0.961 . S
C684 C685 1.370 . S
C684 C686 1.363 . S
C684 H700 0.931 . S
C685 C684 1.370 . S
C685 C689 1.408 . S
C686 C684 1.363 . S
C686 C687 1.370 . S
C686 C690 1.524 . S
C687 C679 1.503 . S
C687 C686 1.370 . S
C687 C688 1.403 . S
C688 C687 1.403 . S
C688 C689 1.404 . S
C688 C691 1.539 . S
C689 C685 1.408 . S
C689 C688 1.404 . S
C689 H701 0.930 . S
C690 C686 1.524 . S
C690 H702 0.956 . S
C690 H703 0.961 . S
C690 H704 0.961 . S
C691 C688 1.539 . S
C691 H705 0.958 . S
C691 H706 0.961 . S
C691 H707 0.960 . S
H692 C676 0.931 . S
H693 C681 0.929 . S
H694 C682 0.960 . S
H695 C682 0.962 . S
H696 C682 0.960 . S
H697 C683 0.961 . S
H698 C683 0.961 . S
H699 C683 0.961 . S
H700 C684 0.931 . S
H701 C689 0.930 . S
H702 C690 0.956 . S
H703 C690 0.961 . S
H704 C690 0.961 . S
H705 C691 0.958 . S
H706 C691 0.961 . S
H707 C691 0.960 . S
C708 C709 1.391 . S
C708 C710 1.394 . S
C708 H724 0.931 . S
C709 C708 1.391 . S
C709 C713 1.376 . S
C710 C708 1.394 . S
C710 C711 1.369 . S
C710 C714 1.531 . S
C711 C710 1.369 . S
C711 C712 1.410 . S
C711 C719 1.503 . S
C712 C711 1.410 . S
C712 C713 1.392 . S
C712 C715 1.511 . S
C713 C709 1.376 . S
C713 C712 1.392 . S
C713 H725 0.929 . S
C714 C710 1.531 . S
C714 H726 0.960 . S
C714 H727 0.962 . S
C714 H728 0.960 . S
C715 C712 1.511 . S
C715 H729 0.961 . S
C715 H730 0.961 . S
C715 H731 0.961 . S
C716 C717 1.370 . S
C716 C718 1.363 . S
C716 H732 0.931 . S
C717 C716 1.370 . S
C717 C721 1.408 . S
C718 C716 1.363 . S
C718 C719 1.370 . S
C718 C722 1.524 . S
C719 C711 1.503 . S
C719 C718 1.370 . S
C719 C720 1.403 . S
C720 C719 1.403 . S
C720 C721 1.404 . S
C720 C723 1.539 . S
C721 C717 1.408 . S
C721 C720 1.404 . S
C721 H733 0.930 . S
C722 C718 1.524 . S
C722 H734 0.956 . S
C722 H735 0.961 . S
C722 H736 0.961 . S
C723 C720 1.539 . S
C723 H737 0.958 . S
C723 H738 0.961 . S
C723 H739 0.960 . S
H724 C708 0.931 . S
H725 C713 0.929 . S
H726 C714 0.960 . S
H727 C714 0.962 . S
H728 C714 0.960 . S
H729 C715 0.961 . S
H730 C715 0.961 . S
H731 C715 0.961 . S
H732 C716 0.931 . S
H733 C721 0.930 . S
H734 C722 0.956 . S
H735 C722 0.961 . S
H736 C722 0.961 . S
H737 C723 0.958 . S
H738 C723 0.961 . S
H739 C723 0.960 . S
C740 C741 1.391 . S
C740 C742 1.394 . S
C740 H756 0.931 . S
C741 C740 1.391 . S
C741 C745 1.376 . S
C742 C740 1.394 . S
C742 C743 1.369 . S
C742 C746 1.531 . S
C743 C742 1.369 . S
C743 C744 1.410 . S
C743 C751 1.503 . S
C744 C743 1.410 . S
C744 C745 1.392 . S
C744 C747 1.511 . S
C745 C741 1.376 . S
C745 C744 1.392 . S
C745 H757 0.929 . S
C746 C742 1.531 . S
C746 H758 0.960 . S
C746 H759 0.962 . S
C746 H760 0.960 . S
C747 C744 1.511 . S
C747 H761 0.961 . S
C747 H762 0.961 . S
C747 H763 0.961 . S
C748 C749 1.370 . S
C748 C750 1.363 . S
C748 H764 0.931 . S
C749 C748 1.370 . S
C749 C753 1.408 . S
C750 C748 1.363 . S
C750 C751 1.370 . S
C750 C754 1.524 . S
C751 C743 1.503 . S
C751 C750 1.370 . S
C751 C752 1.403 . S
C752 C751 1.403 . S
C752 C753 1.404 . S
C752 C755 1.539 . S
C753 C749 1.408 . S
C753 C752 1.404 . S
C753 H765 0.930 . S
C754 C750 1.524 . S
C754 H766 0.956 . S
C754 H767 0.961 . S
C754 H768 0.961 . S
C755 C752 1.539 . S
C755 H769 0.958 . S
C755 H770 0.961 . S
C755 H771 0.960 . S
H756 C740 0.931 . S
H757 C745 0.929 . S
H758 C746 0.960 . S
H759 C746 0.962 . S
H760 C746 0.960 . S
H761 C747 0.961 . S
H762 C747 0.961 . S
H763 C747 0.961 . S
H764 C748 0.931 . S
H765 C753 0.930 . S
H766 C754 0.956 . S
H767 C754 0.961 . S
H768 C754 0.961 . S
H769 C755 0.958 . S
H770 C755 0.961 . S
H771 C755 0.960 . S
C772 C773 1.391 . S
C772 C774 1.394 . S
C772 H788 0.931 . S
C773 C772 1.391 . S
C773 C777 1.376 . S
C774 C772 1.394 . S
C774 C775 1.369 . S
C774 C778 1.531 . S
C775 C774 1.369 . S
C775 C776 1.410 . S
C775 C783 1.503 . S
C776 C775 1.410 . S
C776 C777 1.392 . S
C776 C779 1.511 . S
C777 C773 1.376 . S
C777 C776 1.392 . S
C777 H789 0.929 . S
C778 C774 1.531 . S
C778 H790 0.960 . S
C778 H791 0.962 . S
C778 H792 0.960 . S
C779 C776 1.511 . S
C779 H793 0.961 . S
C779 H794 0.961 . S
C779 H795 0.961 . S
C780 C781 1.370 . S
C780 C782 1.363 . S
C780 H796 0.931 . S
C781 C780 1.370 . S
C781 C785 1.408 . S
C782 C780 1.363 . S
C782 C783 1.370 . S
C782 C786 1.524 . S
C783 C775 1.503 . S
C783 C782 1.370 . S
C783 C784 1.403 . S
C784 C783 1.403 . S
C784 C785 1.404 . S
C784 C787 1.539 . S
C785 C781 1.408 . S
C785 C784 1.404 . S
C785 H797 0.930 . S
C786 C782 1.524 . S
C786 H798 0.956 . S
C786 H799 0.961 . S
C786 H800 0.961 . S
C787 C784 1.539 . S
C787 H801 0.958 . S
C787 H802 0.961 . S
C787 H803 0.960 . S
H788 C772 0.931 . S
H789 C777 0.929 . S
H790 C778 0.960 . S
H791 C778 0.962 . S
H792 C778 0.960 . S
H793 C779 0.961 . S
H794 C779 0.961 . S
H795 C779 0.961 . S
H796 C780 0.931 . S
H797 C785 0.930 . S
H798 C786 0.956 . S
H799 C786 0.961 . S
H800 C786 0.961 . S
H801 C787 0.958 . S
H802 C787 0.961 . S
H803 C787 0.960 . S
C804 C805 1.391 . S
C804 C806 1.394 . S
C804 H820 0.931 . S
C805 C804 1.391 . S
C805 C809 1.376 . S
C806 C804 1.394 . S
C806 C807 1.369 . S
C806 C810 1.531 . S
C807 C806 1.369 . S
C807 C808 1.410 . S
C807 C815 1.503 . S
C808 C807 1.410 . S
C808 C809 1.392 . S
C808 C811 1.511 . S
C809 C805 1.376 . S
C809 C808 1.392 . S
C809 H821 0.929 . S
C810 C806 1.531 . S
C810 H822 0.960 . S
C810 H823 0.962 . S
C810 H824 0.960 . S
C811 C808 1.511 . S
C811 H825 0.961 . S
C811 H826 0.961 . S
C811 H827 0.961 . S
C812 C813 1.370 . S
C812 C814 1.363 . S
C812 H828 0.931 . S
C813 C812 1.370 . S
C813 C817 1.408 . S
C814 C812 1.363 . S
C814 C815 1.370 . S
C814 C818 1.524 . S
C815 C807 1.503 . S
C815 C814 1.370 . S
C815 C816 1.403 . S
C816 C815 1.403 . S
C816 C817 1.404 . S
C816 C819 1.539 . S
C817 C813 1.408 . S
C817 C816 1.404 . S
C817 H829 0.930 . S
C818 C814 1.524 . S
C818 H830 0.956 . S
C818 H831 0.961 . S
C818 H832 0.961 . S
C819 C816 1.539 . S
C819 H833 0.958 . S
C819 H834 0.961 . S
C819 H835 0.960 . S
H820 C804 0.931 . S
H821 C809 0.929 . S
H822 C810 0.960 . S
H823 C810 0.962 . S
H824 C810 0.960 . S
H825 C811 0.961 . S
H826 C811 0.961 . S
H827 C811 0.961 . S
H828 C812 0.931 . S
H829 C817 0.930 . S
H830 C818 0.956 . S
H831 C818 0.961 . S
H832 C818 0.961 . S
H833 C819 0.958 . S
H834 C819 0.961 . S
H835 C819 0.960 . S
C836 C837 1.391 . S
C836 C838 1.394 . S
C836 H852 0.931 . S
C837 C836 1.391 . S
C837 C841 1.376 . S
C838 C836 1.394 . S
C838 C839 1.369 . S
C838 C842 1.531 . S
C839 C838 1.369 . S
C839 C840 1.410 . S
C839 C847 1.503 . S
C840 C839 1.410 . S
C840 C841 1.392 . S
C840 C843 1.511 . S
C841 C837 1.376 . S
C841 C840 1.392 . S
C841 H853 0.929 . S
C842 C838 1.531 . S
C842 H854 0.960 . S
C842 H855 0.962 . S
C842 H856 0.960 . S
C843 C840 1.511 . S
C843 H857 0.961 . S
C843 H858 0.961 . S
C843 H859 0.961 . S
C844 C845 1.370 . S
C844 C846 1.363 . S
C844 H860 0.931 . S
C845 C844 1.370 . S
C845 C849 1.408 . S
C846 C844 1.363 . S
C846 C847 1.370 . S
C846 C850 1.524 . S
C847 C839 1.503 . S
C847 C846 1.370 . S
C847 C848 1.403 . S
C848 C847 1.403 . S
C848 C849 1.404 . S
C848 C851 1.539 . S
C849 C845 1.408 . S
C849 C848 1.404 . S
C849 H861 0.930 . S
C850 C846 1.524 . S
C850 H862 0.956 . S
C850 H863 0.961 . S
C850 H864 0.961 . S
C851 C848 1.539 . S
C851 H865 0.958 . S
C851 H866 0.961 . S
C851 H867 0.960 . S
H852 C836 0.931 . S
H853 C841 0.929 . S
H854 C842 0.960 . S
H855 C842 0.962 . S
H856 C842 0.960 . S
H857 C843 0.961 . S
H858 C843 0.961 . S
H859 C843 0.961 . S
H860 C844 0.931 . S
H861 C849 0.930 . S
H862 C850 0.956 . S
H863 C850 0.961 . S
H864 C850 0.961 . S
H865 C851 0.958 . S
H866 C851 0.961 . S
H867 C851 0.960 . S
C868 C869 1.391 . S
C868 C870 1.394 . S
C868 H884 0.931 . S
C869 C868 1.391 . S
C869 C873 1.376 . S
C870 C868 1.394 . S
C870 C871 1.369 . S
C870 C874 1.531 . S
C871 C870 1.369 . S
C871 C872 1.410 . S
C871 C879 1.503 . S
C872 C871 1.410 . S
C872 C873 1.392 . S
C872 C875 1.511 . S
C873 C869 1.376 . S
C873 C872 1.392 . S
C873 H885 0.929 . S
C874 C870 1.531 . S
C874 H886 0.960 . S
C874 H887 0.962 . S
C874 H888 0.960 . S
C875 C872 1.511 . S
C875 H889 0.961 . S
C875 H890 0.961 . S
C875 H891 0.961 . S
C876 C877 1.370 . S
C876 C878 1.363 . S
C876 H892 0.931 . S
C877 C876 1.370 . S
C877 C881 1.408 . S
C878 C876 1.363 . S
C878 C879 1.370 . S
C878 C882 1.524 . S
C879 C871 1.503 . S
C879 C878 1.370 . S
C879 C880 1.403 . S
C880 C879 1.403 . S
C880 C881 1.404 . S
C880 C883 1.539 . S
C881 C877 1.408 . S
C881 C880 1.404 . S
C881 H893 0.930 . S
C882 C878 1.524 . S
C882 H894 0.956 . S
C882 H895 0.961 . S
C882 H896 0.961 . S
C883 C880 1.539 . S
C883 H897 0.958 . S
C883 H898 0.961 . S
C883 H899 0.960 . S
H884 C868 0.931 . S
H885 C873 0.929 . S
H886 C874 0.960 . S
H887 C874 0.962 . S
H888 C874 0.960 . S
H889 C875 0.961 . S
H890 C875 0.961 . S
H891 C875 0.961 . S
H892 C876 0.931 . S
H893 C881 0.930 . S
H894 C882 0.956 . S
H895 C882 0.961 . S
H896 C882 0.961 . S
H897 C883 0.958 . S
H898 C883 0.961 . S
H899 C883 0.960 . S
C900 C901 1.391 . S
C900 C902 1.394 . S
C900 H916 0.931 . S
C901 C900 1.391 . S
C901 C905 1.376 . S
C902 C900 1.394 . S
C902 C903 1.369 . S
C902 C906 1.531 . S
C903 C902 1.369 . S
C903 C904 1.410 . S
C903 C911 1.503 . S
C904 C903 1.410 . S
C904 C905 1.392 . S
C904 C907 1.511 . S
C905 C901 1.376 . S
C905 C904 1.392 . S
C905 H917 0.929 . S
C906 C902 1.531 . S
C906 H918 0.960 . S
C906 H919 0.962 . S
C906 H920 0.960 . S
C907 C904 1.511 . S
C907 H921 0.961 . S
C907 H922 0.961 . S
C907 H923 0.961 . S
C908 C909 1.370 . S
C908 C910 1.363 . S
C908 H924 0.931 . S
C909 C908 1.370 . S
C909 C913 1.408 . S
C910 C908 1.363 . S
C910 C911 1.370 . S
C910 C914 1.524 . S
C911 C903 1.503 . S
C911 C910 1.370 . S
C911 C912 1.403 . S
C912 C911 1.403 . S
C912 C913 1.404 . S
C912 C915 1.539 . S
C913 C909 1.408 . S
C913 C912 1.404 . S
C913 H925 0.930 . S
C914 C910 1.524 . S
C914 H926 0.956 . S
C914 H927 0.961 . S
C914 H928 0.961 . S
C915 C912 1.539 . S
C915 H929 0.958 . S
C915 H930 0.961 1_556 S
C915 H931 0.960 . S
H916 C900 0.931 . S
H917 C905 0.929 . S
H918 C906 0.960 . S
H919 C906 0.962 . S
H920 C906 0.960 . S
H921 C907 0.961 . S
H922 C907 0.961 . S
H923 C907 0.961 . S
H924 C908 0.931 . S
H925 C913 0.930 . S
H926 C914 0.956 . S
H927 C914 0.961 . S
H928 C914 0.961 . S
H929 C915 0.958 . S
H930 C915 0.961 1_554 S
H931 C915 0.960 . S
C932 C933 1.391 . S
C932 C934 1.394 . S
C932 H948 0.931 . S
C933 C932 1.391 . S
C933 C937 1.376 . S
C934 C932 1.394 . S
C934 C935 1.369 . S
C934 C938 1.531 . S
C935 C934 1.369 . S
C935 C936 1.410 . S
C935 C943 1.503 . S
C936 C935 1.410 . S
C936 C937 1.392 . S
C936 C939 1.511 . S
C937 C933 1.376 . S
C937 C936 1.392 . S
C937 H949 0.929 . S
C938 C934 1.531 . S
C938 H950 0.960 . S
C938 H951 0.962 . S
C938 H952 0.960 . S
C939 C936 1.511 . S
C939 H953 0.961 . S
C939 H954 0.961 . S
C939 H955 0.961 . S
C940 C941 1.370 . S
C940 C942 1.363 . S
C940 H956 0.931 . S
C941 C940 1.370 . S
C941 C945 1.408 . S
C942 C940 1.363 . S
C942 C943 1.370 . S
C942 C946 1.524 . S
C943 C935 1.503 . S
C943 C942 1.370 . S
C943 C944 1.403 . S
C944 C943 1.403 . S
C944 C945 1.404 . S
C944 C947 1.539 . S
C945 C941 1.408 . S
C945 C944 1.404 . S
C945 H957 0.930 . S
C946 C942 1.524 . S
C946 H958 0.956 . S
C946 H959 0.961 . S
C946 H960 0.961 . S
C947 C944 1.539 . S
C947 H961 0.958 . S
C947 H962 0.961 . S
C947 H963 0.960 . S
H948 C932 0.931 . S
H949 C937 0.929 . S
H950 C938 0.960 . S
H951 C938 0.962 . S
H952 C938 0.960 . S
H953 C939 0.961 . S
H954 C939 0.961 . S
H955 C939 0.961 . S
H956 C940 0.931 . S
H957 C945 0.930 . S
H958 C946 0.956 . S
H959 C946 0.961 . S
H960 C946 0.961 . S
H961 C947 0.958 . S
H962 C947 0.961 . S
H963 C947 0.960 . S
C964 C965 1.391 . S
C964 C966 1.394 . S
C964 H980 0.931 . S
C965 C964 1.391 . S
C965 C969 1.376 . S
C966 C964 1.394 . S
C966 C967 1.369 . S
C966 C970 1.531 . S
C967 C966 1.369 . S
C967 C968 1.410 . S
C967 C975 1.503 . S
C968 C967 1.410 . S
C968 C969 1.392 . S
C968 C971 1.511 . S
C969 C965 1.376 . S
C969 C968 1.392 . S
C969 H981 0.929 . S
C970 C966 1.531 . S
C970 H982 0.960 . S
C970 H983 0.962 . S
C970 H984 0.960 . S
C971 C968 1.511 . S
C971 H985 0.961 . S
C971 H986 0.961 . S
C971 H987 0.961 . S
C972 C973 1.370 . S
C972 C974 1.363 . S
C972 H988 0.931 . S
C973 C972 1.370 . S
C973 C977 1.408 . S
C974 C972 1.363 . S
C974 C975 1.370 . S
C974 C978 1.524 . S
C975 C967 1.503 . S
C975 C974 1.370 . S
C975 C976 1.403 . S
C976 C975 1.403 . S
C976 C977 1.404 . S
C976 C979 1.539 . S
C977 C973 1.408 . S
C977 C976 1.404 . S
C977 H989 0.930 . S
C978 C974 1.524 . S
C978 H990 0.956 . S
C978 H991 0.961 . S
C978 H992 0.961 . S
C979 C976 1.539 . S
C979 H993 0.958 . S
C979 H994 0.961 . S
C979 H995 0.960 . S
H980 C964 0.931 . S
H981 C969 0.929 . S
H982 C970 0.960 . S
H983 C970 0.962 . S
H984 C970 0.960 . S
H985 C971 0.961 . S
H986 C971 0.961 . S
H987 C971 0.961 . S
H988 C972 0.931 . S
H989 C977 0.930 . S
H990 C978 0.956 . S
H991 C978 0.961 . S
H992 C978 0.961 . S
H993 C979 0.958 . S
H994 C979 0.961 . S
H995 C979 0.960 . S
C996 C997 1.391 . S
C996 C998 1.394 . S
C996 H1012 0.931 . S
C997 C996 1.391 . S
C997 C1001 1.376 . S
C998 C996 1.394 . S
C998 C999 1.369 . S
C998 C1002 1.531 . S
C999 C998 1.369 . S
C999 C1000 1.410 . S
C999 C1007 1.503 . S
C1000 C999 1.410 . S
C1000 C1001 1.392 . S
C1000 C1003 1.511 . S
C1001 C997 1.376 . S
C1001 C1000 1.392 . S
C1001 H1013 0.929 . S
C1002 C998 1.531 . S
C1002 H1014 0.960 . S
C1002 H1015 0.962 . S
C1002 H1016 0.960 . S
C1003 C1000 1.511 . S
C1003 H1017 0.961 . S
C1003 H1018 0.961 . S
C1003 H1019 0.961 . S
C1004 C1005 1.370 . S
C1004 C1006 1.363 . S
C1004 H1020 0.931 . S
C1005 C1004 1.370 . S
C1005 C1009 1.408 . S
C1006 C1004 1.363 . S
C1006 C1007 1.370 . S
C1006 C1010 1.524 . S
C1007 C999 1.503 . S
C1007 C1006 1.370 . S
C1007 C1008 1.403 . S
C1008 C1007 1.403 . S
C1008 C1009 1.404 . S
C1008 C1011 1.539 . S
C1009 C1005 1.408 . S
C1009 C1008 1.404 . S
C1009 H1021 0.930 . S
C1010 C1006 1.524 . S
C1010 H1022 0.956 . S
C1010 H1023 0.961 . S
C1010 H1024 0.961 . S
C1011 C1008 1.539 . S
C1011 H1025 0.958 . S
C1011 H1026 0.961 . S
C1011 H1027 0.960 . S
H1012 C996 0.931 . S
H1013 C1001 0.929 . S
H1014 C1002 0.960 . S
H1015 C1002 0.962 . S
H1016 C1002 0.960 . S
H1017 C1003 0.961 . S
H1018 C1003 0.961 . S
H1019 C1003 0.961 . S
H1020 C1004 0.931 . S
H1021 C1009 0.930 . S
H1022 C1010 0.956 . S
H1023 C1010 0.961 . S
H1024 C1010 0.961 . S
H1025 C1011 0.958 . S
H1026 C1011 0.961 . S
H1027 C1011 0.960 . S
C1028 C1029 1.391 . S
C1028 C1030 1.394 . S
C1028 H1044 0.931 . S
C1029 C1028 1.391 . S
C1029 C1033 1.376 . S
C1030 C1028 1.394 . S
C1030 C1031 1.369 . S
C1030 C1034 1.531 . S
C1031 C1030 1.369 . S
C1031 C1032 1.410 . S
C1031 C1039 1.503 . S
C1032 C1031 1.410 . S
C1032 C1033 1.392 . S
C1032 C1035 1.511 . S
C1033 C1029 1.376 . S
C1033 C1032 1.392 . S
C1033 H1045 0.929 . S
C1034 C1030 1.531 . S
C1034 H1046 0.960 . S
C1034 H1047 0.962 . S
C1034 H1048 0.960 . S
C1035 C1032 1.511 . S
C1035 H1049 0.961 . S
C1035 H1050 0.961 . S
C1035 H1051 0.961 . S
C1036 C1037 1.370 . S
C1036 C1038 1.363 . S
C1036 H1052 0.931 . S
C1037 C1036 1.370 . S
C1037 C1041 1.408 . S
C1038 C1036 1.363 . S
C1038 C1039 1.370 . S
C1038 C1042 1.524 . S
C1039 C1031 1.503 . S
C1039 C1038 1.370 . S
C1039 C1040 1.403 . S
C1040 C1039 1.403 . S
C1040 C1041 1.404 . S
C1040 C1043 1.539 . S
C1041 C1037 1.408 . S
C1041 C1040 1.404 . S
C1041 H1053 0.930 . S
C1042 C1038 1.524 . S
C1042 H1054 0.956 . S
C1042 H1055 0.961 . S
C1042 H1056 0.961 . S
C1043 C1040 1.539 . S
C1043 H1057 0.958 . S
C1043 H1058 0.961 . S
C1043 H1059 0.960 . S
H1044 C1028 0.931 . S
H1045 C1033 0.929 . S
H1046 C1034 0.960 . S
H1047 C1034 0.962 . S
H1048 C1034 0.960 . S
H1049 C1035 0.961 . S
H1050 C1035 0.961 . S
H1051 C1035 0.961 . S
H1052 C1036 0.931 . S
H1053 C1041 0.930 . S
H1054 C1042 0.956 . S
H1055 C1042 0.961 . S
H1056 C1042 0.961 . S
H1057 C1043 0.958 . S
H1058 C1043 0.961 . S
H1059 C1043 0.960 . S
C1060 C1061 1.391 . S
C1060 C1062 1.394 . S
C1060 H1076 0.931 . S
C1061 C1060 1.391 . S
C1061 C1065 1.376 . S
C1062 C1060 1.394 . S
C1062 C1063 1.369 . S
C1062 C1066 1.531 . S
C1063 C1062 1.369 . S
C1063 C1064 1.410 . S
C1063 C1071 1.503 . S
C1064 C1063 1.410 . S
C1064 C1065 1.392 . S
C1064 C1067 1.511 . S
C1065 C1061 1.376 . S
C1065 C1064 1.392 . S
C1065 H1077 0.929 . S
C1066 C1062 1.531 . S
C1066 H1078 0.960 . S
C1066 H1079 0.962 . S
C1066 H1080 0.960 . S
C1067 C1064 1.511 . S
C1067 H1081 0.961 . S
C1067 H1082 0.961 . S
C1067 H1083 0.961 . S
C1068 C1069 1.370 . S
C1068 C1070 1.363 . S
C1068 H1084 0.931 . S
C1069 C1068 1.370 . S
C1069 C1073 1.408 . S
C1070 C1068 1.363 . S
C1070 C1071 1.370 . S
C1070 C1074 1.524 . S
C1071 C1063 1.503 . S
C1071 C1070 1.370 . S
C1071 C1072 1.403 . S
C1072 C1071 1.403 . S
C1072 C1073 1.404 . S
C1072 C1075 1.539 . S
C1073 C1069 1.408 . S
C1073 C1072 1.404 . S
C1073 H1085 0.930 . S
C1074 C1070 1.524 . S
C1074 H1086 0.956 . S
C1074 H1087 0.961 . S
C1074 H1088 0.961 . S
C1075 C1072 1.539 . S
C1075 H1089 0.958 . S
C1075 H1090 0.961 . S
C1075 H1091 0.960 . S
H1076 C1060 0.931 . S
H1077 C1065 0.929 . S
H1078 C1066 0.960 . S
H1079 C1066 0.962 . S
H1080 C1066 0.960 . S
H1081 C1067 0.961 . S
H1082 C1067 0.961 . S
H1083 C1067 0.961 . S
H1084 C1068 0.931 . S
H1085 C1073 0.930 . S
H1086 C1074 0.956 . S
H1087 C1074 0.961 . S
H1088 C1074 0.961 . S
H1089 C1075 0.958 . S
H1090 C1075 0.961 . S
H1091 C1075 0.960 . S
C1092 C1093 1.391 . S
C1092 C1094 1.394 . S
C1092 H1108 0.931 . S
C1093 C1092 1.391 . S
C1093 C1097 1.376 . S
C1094 C1092 1.394 . S
C1094 C1095 1.369 . S
C1094 C1098 1.531 . S
C1095 C1094 1.369 . S
C1095 C1096 1.410 . S
C1095 C1103 1.503 . S
C1096 C1095 1.410 . S
C1096 C1097 1.392 . S
C1096 C1099 1.511 . S
C1097 C1093 1.376 . S
C1097 C1096 1.392 . S
C1097 H1109 0.929 . S
C1098 C1094 1.531 . S
C1098 H1110 0.960 . S
C1098 H1111 0.962 . S
C1098 H1112 0.960 . S
C1099 C1096 1.511 . S
C1099 H1113 0.961 . S
C1099 H1114 0.961 . S
C1099 H1115 0.961 . S
C1100 C1101 1.370 . S
C1100 C1102 1.363 . S
C1100 H1116 0.931 . S
C1101 C1100 1.370 . S
C1101 C1105 1.408 . S
C1102 C1100 1.363 . S
C1102 C1103 1.370 . S
C1102 C1106 1.524 . S
C1103 C1095 1.503 . S
C1103 C1102 1.370 . S
C1103 C1104 1.403 . S
C1104 C1103 1.403 . S
C1104 C1105 1.404 . S
C1104 C1107 1.539 . S
C1105 C1101 1.408 . S
C1105 C1104 1.404 . S
C1105 H1117 0.930 . S
C1106 C1102 1.524 . S
C1106 H1118 0.956 . S
C1106 H1119 0.961 . S
C1106 H1120 0.961 . S
C1107 C1104 1.539 . S
C1107 H1121 0.958 . S
C1107 H1122 0.961 . S
C1107 H1123 0.960 . S
H1108 C1092 0.931 . S
H1109 C1097 0.929 . S
H1110 C1098 0.960 . S
H1111 C1098 0.962 . S
H1112 C1098 0.960 . S
H1113 C1099 0.961 . S
H1114 C1099 0.961 . S
H1115 C1099 0.961 . S
H1116 C1100 0.931 . S
H1117 C1105 0.930 . S
H1118 C1106 0.956 . S
H1119 C1106 0.961 . S
H1120 C1106 0.961 . S
H1121 C1107 0.958 . S
H1122 C1107 0.961 . S
H1123 C1107 0.960 . S
C1124 C1125 1.391 . S
C1124 C1126 1.394 . S
C1124 H1140 0.931 . S
C1125 C1124 1.391 . S
C1125 C1129 1.376 . S
C1126 C1124 1.394 . S
C1126 C1127 1.369 . S
C1126 C1130 1.531 . S
C1127 C1126 1.369 . S
C1127 C1128 1.410 . S
C1127 C1135 1.503 . S
C1128 C1127 1.410 . S
C1128 C1129 1.392 . S
C1128 C1131 1.511 . S
C1129 C1125 1.376 . S
C1129 C1128 1.392 . S
C1129 H1141 0.929 . S
C1130 C1126 1.531 . S
C1130 H1142 0.960 . S
C1130 H1143 0.962 . S
C1130 H1144 0.960 . S
C1131 C1128 1.511 . S
C1131 H1145 0.961 . S
C1131 H1146 0.961 . S
C1131 H1147 0.961 . S
C1132 C1133 1.370 . S
C1132 C1134 1.363 . S
C1132 H1148 0.931 . S
C1133 C1132 1.370 . S
C1133 C1137 1.408 . S
C1134 C1132 1.363 . S
C1134 C1135 1.370 . S
C1134 C1138 1.524 . S
C1135 C1127 1.503 . S
C1135 C1134 1.370 . S
C1135 C1136 1.403 . S
C1136 C1135 1.403 . S
C1136 C1137 1.404 . S
C1136 C1139 1.539 . S
C1137 C1133 1.408 . S
C1137 C1136 1.404 . S
C1137 H1149 0.930 . S
C1138 C1134 1.524 . S
C1138 H1150 0.956 . S
C1138 H1151 0.961 . S
C1138 H1152 0.961 . S
C1139 C1136 1.539 . S
C1139 H1153 0.958 . S
C1139 H1154 0.961 . S
C1139 H1155 0.960 . S
H1140 C1124 0.931 . S
H1141 C1129 0.929 . S
H1142 C1130 0.960 . S
H1143 C1130 0.962 . S
H1144 C1130 0.960 . S
H1145 C1131 0.961 . S
H1146 C1131 0.961 . S
H1147 C1131 0.961 . S
H1148 C1132 0.931 . S
H1149 C1137 0.930 . S
H1150 C1138 0.956 . S
H1151 C1138 0.961 . S
H1152 C1138 0.961 . S
H1153 C1139 0.958 . S
H1154 C1139 0.961 . S
H1155 C1139 0.960 . S
C1156 C1157 1.391 . S
C1156 C1158 1.394 . S
C1156 H1172 0.931 . S
C1157 C1156 1.391 . S
C1157 C1161 1.376 . S
C1158 C1156 1.394 . S
C1158 C1159 1.369 . S
C1158 C1162 1.531 . S
C1159 C1158 1.369 . S
C1159 C1160 1.410 . S
C1159 C1167 1.503 . S
C1160 C1159 1.410 . S
C1160 C1161 1.392 . S
C1160 C1163 1.511 . S
C1161 C1157 1.376 . S
C1161 C1160 1.392 . S
C1161 H1173 0.929 . S
C1162 C1158 1.531 . S
C1162 H1174 0.960 . S
C1162 H1175 0.962 . S
C1162 H1176 0.960 . S
C1163 C1160 1.511 . S
C1163 H1177 0.961 . S
C1163 H1178 0.961 . S
C1163 H1179 0.961 . S
C1164 C1165 1.370 . S
C1164 C1166 1.363 . S
C1164 H1180 0.931 . S
C1165 C1164 1.370 . S
C1165 C1169 1.408 . S
C1166 C1164 1.363 . S
C1166 C1167 1.370 . S
C1166 C1170 1.524 . S
C1167 C1159 1.503 . S
C1167 C1166 1.370 . S
C1167 C1168 1.403 . S
C1168 C1167 1.403 . S
C1168 C1169 1.404 . S
C1168 C1171 1.539 . S
C1169 C1165 1.408 . S
C1169 C1168 1.404 . S
C1169 H1181 0.930 . S
C1170 C1166 1.524 . S
C1170 H1182 0.956 . S
C1170 H1183 0.961 . S
C1170 H1184 0.961 . S
C1171 C1168 1.539 . S
C1171 H1185 0.958 . S
C1171 H1186 0.961 . S
C1171 H1187 0.960 . S
H1172 C1156 0.931 . S
H1173 C1161 0.929 . S
H1174 C1162 0.960 . S
H1175 C1162 0.962 . S
H1176 C1162 0.960 . S
H1177 C1163 0.961 . S
H1178 C1163 0.961 . S
H1179 C1163 0.961 . S
H1180 C1164 0.931 . S
H1181 C1169 0.930 . S
H1182 C1170 0.956 . S
H1183 C1170 0.961 . S
H1184 C1170 0.961 . S
H1185 C1171 0.958 . S
H1186 C1171 0.961 . S
H1187 C1171 0.960 . S
C1188 C1189 1.391 . S
C1188 C1190 1.394 . S
C1188 H1204 0.931 . S
C1189 C1188 1.391 . S
C1189 C1193 1.376 . S
C1190 C1188 1.394 . S
C1190 C1191 1.369 . S
C1190 C1194 1.531 . S
C1191 C1190 1.369 . S
C1191 C1192 1.410 . S
C1191 C1199 1.503 . S
C1192 C1191 1.410 . S
C1192 C1193 1.392 . S
C1192 C1195 1.511 . S
C1193 C1189 1.376 . S
C1193 C1192 1.392 . S
C1193 H1205 0.929 . S
C1194 C1190 1.531 . S
C1194 H1206 0.960 . S
C1194 H1207 0.962 . S
C1194 H1208 0.960 . S
C1195 C1192 1.511 . S
C1195 H1209 0.961 . S
C1195 H1210 0.961 . S
C1195 H1211 0.961 . S
C1196 C1197 1.370 . S
C1196 C1198 1.363 . S
C1196 H1212 0.931 . S
C1197 C1196 1.370 . S
C1197 C1201 1.408 . S
C1198 C1196 1.363 . S
C1198 C1199 1.370 . S
C1198 C1202 1.524 . S
C1199 C1191 1.503 . S
C1199 C1198 1.370 . S
C1199 C1200 1.403 . S
C1200 C1199 1.403 . S
C1200 C1201 1.404 . S
C1200 C1203 1.539 . S
C1201 C1197 1.408 . S
C1201 C1200 1.404 . S
C1201 H1213 0.930 . S
C1202 C1198 1.524 . S
C1202 H1214 0.956 . S
C1202 H1215 0.961 . S
C1202 H1216 0.961 . S
C1203 C1200 1.539 . S
C1203 H1217 0.958 . S
C1203 H1218 0.961 . S
C1203 H1219 0.960 . S
H1204 C1188 0.931 . S
H1205 C1193 0.929 . S
H1206 C1194 0.960 . S
H1207 C1194 0.962 . S
H1208 C1194 0.960 . S
H1209 C1195 0.961 . S
H1210 C1195 0.961 . S
H1211 C1195 0.961 . S
H1212 C1196 0.931 . S
H1213 C1201 0.930 . S
H1214 C1202 0.956 . S
H1215 C1202 0.961 . S
H1216 C1202 0.961 . S
H1217 C1203 0.958 . S
H1218 C1203 0.961 . S
H1219 C1203 0.960 . S
C1220 C1221 1.391 . S
C1220 C1222 1.394 . S
C1220 H1236 0.931 . S
C1221 C1220 1.391 . S
C1221 C1225 1.376 . S
C1222 C1220 1.394 . S
C1222 C1223 1.369 . S
C1222 C1226 1.531 . S
C1223 C1222 1.369 . S
C1223 C1224 1.410 . S
C1223 C1231 1.503 . S
C1224 C1223 1.410 . S
C1224 C1225 1.392 . S
C1224 C1227 1.511 . S
C1225 C1221 1.376 . S
C1225 C1224 1.392 . S
C1225 H1237 0.929 . S
C1226 C1222 1.531 . S
C1226 H1238 0.960 . S
C1226 H1239 0.962 . S
C1226 H1240 0.960 . S
C1227 C1224 1.511 . S
C1227 H1241 0.961 . S
C1227 H1242 0.961 . S
C1227 H1243 0.961 . S
C1228 C1229 1.370 . S
C1228 C1230 1.363 . S
C1228 H1244 0.931 . S
C1229 C1228 1.370 . S
C1229 C1233 1.408 . S
C1230 C1228 1.363 . S
C1230 C1231 1.370 . S
C1230 C1234 1.524 . S
C1231 C1223 1.503 . S
C1231 C1230 1.370 . S
C1231 C1232 1.403 . S
C1232 C1231 1.403 . S
C1232 C1233 1.404 . S
C1232 C1235 1.539 . S
C1233 C1229 1.408 . S
C1233 C1232 1.404 . S
C1233 H1245 0.930 . S
C1234 C1230 1.524 . S
C1234 H1246 0.956 . S
C1234 H1247 0.961 . S
C1234 H1248 0.961 . S
C1235 C1232 1.539 . S
C1235 H1249 0.958 . S
C1235 H1250 0.961 . S
C1235 H1251 0.960 . S
H1236 C1220 0.931 . S
H1237 C1225 0.929 . S
H1238 C1226 0.960 . S
H1239 C1226 0.962 . S
H1240 C1226 0.960 . S
H1241 C1227 0.961 . S
H1242 C1227 0.961 . S
H1243 C1227 0.961 . S
H1244 C1228 0.931 . S
H1245 C1233 0.930 . S
H1246 C1234 0.956 . S
H1247 C1234 0.961 . S
H1248 C1234 0.961 . S
H1249 C1235 0.958 . S
H1250 C1235 0.961 . S
H1251 C1235 0.960 . S
C1252 C1253 1.391 . S
C1252 C1254 1.394 . S
C1252 H1268 0.931 . S
C1253 C1252 1.391 . S
C1253 C1257 1.376 . S
C1254 C1252 1.394 . S
C1254 C1255 1.369 . S
C1254 C1258 1.531 . S
C1255 C1254 1.369 . S
C1255 C1256 1.410 . S
C1255 C1263 1.503 . S
C1256 C1255 1.410 . S
C1256 C1257 1.392 . S
C1256 C1259 1.511 . S
C1257 C1253 1.376 . S
C1257 C1256 1.392 . S
C1257 H1269 0.929 . S
C1258 C1254 1.531 . S
C1258 H1270 0.960 . S
C1258 H1271 0.962 . S
C1258 H1272 0.960 . S
C1259 C1256 1.511 . S
C1259 H1273 0.961 . S
C1259 H1274 0.961 . S
C1259 H1275 0.961 . S
C1260 C1261 1.370 . S
C1260 C1262 1.363 . S
C1260 H1276 0.931 . S
C1261 C1260 1.370 . S
C1261 C1265 1.408 . S
C1262 C1260 1.363 . S
C1262 C1263 1.370 . S
C1262 C1266 1.524 . S
C1263 C1255 1.503 . S
C1263 C1262 1.370 . S
C1263 C1264 1.403 . S
C1264 C1263 1.403 . S
C1264 C1265 1.404 . S
C1264 C1267 1.539 . S
C1265 C1261 1.408 . S
C1265 C1264 1.404 . S
C1265 H1277 0.930 . S
C1266 C1262 1.524 . S
C1266 H1278 0.956 . S
C1266 H1279 0.961 . S
C1266 H1280 0.961 . S
C1267 C1264 1.539 . S
C1267 H1281 0.958 . S
C1267 H1282 0.961 . S
C1267 H1283 0.960 . S
H1268 C1252 0.931 . S
H1269 C1257 0.929 . S
H1270 C1258 0.960 . S
H1271 C1258 0.962 . S
H1272 C1258 0.960 . S
H1273 C1259 0.961 . S
H1274 C1259 0.961 . S
H1275 C1259 0.961 . S
H1276 C1260 0.931 . S
H1277 C1265 0.930 . S
H1278 C1266 0.956 . S
H1279 C1266 0.961 . S
H1280 C1266 0.961 . S
H1281 C1267 0.958 . S
H1282 C1267 0.961 . S
H1283 C1267 0.960 . S
C1284 C1285 1.391 . S
C1284 C1286 1.394 . S
C1284 H1300 0.931 . S
C1285 C1284 1.391 . S
C1285 C1289 1.376 . S
C1286 C1284 1.394 . S
C1286 C1287 1.369 . S
C1286 C1290 1.531 . S
C1287 C1286 1.369 . S
C1287 C1288 1.410 . S
C1287 C1295 1.503 . S
C1288 C1287 1.410 . S
C1288 C1289 1.392 . S
C1288 C1291 1.511 . S
C1289 C1285 1.376 . S
C1289 C1288 1.392 . S
C1289 H1301 0.929 . S
C1290 C1286 1.531 . S
C1290 H1302 0.960 . S
C1290 H1303 0.962 . S
C1290 H1304 0.960 . S
C1291 C1288 1.511 . S
C1291 H1305 0.961 . S
C1291 H1306 0.961 . S
C1291 H1307 0.961 . S
C1292 C1293 1.370 . S
C1292 C1294 1.363 . S
C1292 H1308 0.931 . S
C1293 C1292 1.370 . S
C1293 C1297 1.408 . S
C1294 C1292 1.363 . S
C1294 C1295 1.370 . S
C1294 C1298 1.524 . S
C1295 C1287 1.503 . S
C1295 C1294 1.370 . S
C1295 C1296 1.403 . S
C1296 C1295 1.403 . S
C1296 C1297 1.404 . S
C1296 C1299 1.539 . S
C1297 C1293 1.408 . S
C1297 C1296 1.404 . S
C1297 H1309 0.930 . S
C1298 C1294 1.524 . S
C1298 H1310 0.956 . S
C1298 H1311 0.961 . S
C1298 H1312 0.961 . S
C1299 C1296 1.539 . S
C1299 H1313 0.958 . S
C1299 H1314 0.961 . S
C1299 H1315 0.960 . S
H1300 C1284 0.931 . S
H1301 C1289 0.929 . S
H1302 C1290 0.960 . S
H1303 C1290 0.962 . S
H1304 C1290 0.960 . S
H1305 C1291 0.961 . S
H1306 C1291 0.961 . S
H1307 C1291 0.961 . S
H1308 C1292 0.931 . S
H1309 C1297 0.930 . S
H1310 C1298 0.956 . S
H1311 C1298 0.961 . S
H1312 C1298 0.961 . S
H1313 C1299 0.958 . S
H1314 C1299 0.961 . S
H1315 C1299 0.960 . S
C1316 C1317 1.391 . S
C1316 C1318 1.394 . S
C1316 H1332 0.931 . S
C1317 C1316 1.391 . S
C1317 C1321 1.376 . S
C1318 C1316 1.394 . S
C1318 C1319 1.369 . S
C1318 C1322 1.531 . S
C1319 C1318 1.369 . S
C1319 C1320 1.410 . S
C1319 C1327 1.503 . S
C1320 C1319 1.410 . S
C1320 C1321 1.392 . S
C1320 C1323 1.511 . S
C1321 C1317 1.376 . S
C1321 C1320 1.392 . S
C1321 H1333 0.929 . S
C1322 C1318 1.531 . S
C1322 H1334 0.960 . S
C1322 H1335 0.962 . S
C1322 H1336 0.960 . S
C1323 C1320 1.511 . S
C1323 H1337 0.961 . S
C1323 H1338 0.961 . S
C1323 H1339 0.961 . S
C1324 C1325 1.370 . S
C1324 C1326 1.363 . S
C1324 H1340 0.931 . S
C1325 C1324 1.370 . S
C1325 C1329 1.408 . S
C1326 C1324 1.363 . S
C1326 C1327 1.370 . S
C1326 C1330 1.524 . S
C1327 C1319 1.503 . S
C1327 C1326 1.370 . S
C1327 C1328 1.403 . S
C1328 C1327 1.403 . S
C1328 C1329 1.404 . S
C1328 C1331 1.539 . S
C1329 C1325 1.408 . S
C1329 C1328 1.404 . S
C1329 H1341 0.930 . S
C1330 C1326 1.524 . S
C1330 H1342 0.956 . S
C1330 H1343 0.961 . S
C1330 H1344 0.961 . S
C1331 C1328 1.539 . S
C1331 H1345 0.958 . S
C1331 H1346 0.961 . S
C1331 H1347 0.960 . S
H1332 C1316 0.931 . S
H1333 C1321 0.929 . S
H1334 C1322 0.960 . S
H1335 C1322 0.962 . S
H1336 C1322 0.960 . S
H1337 C1323 0.961 . S
H1338 C1323 0.961 . S
H1339 C1323 0.961 . S
H1340 C1324 0.931 . S
H1341 C1329 0.930 . S
H1342 C1330 0.956 . S
H1343 C1330 0.961 . S
H1344 C1330 0.961 . S
H1345 C1331 0.958 . S
H1346 C1331 0.961 . S
H1347 C1331 0.960 . S
C1348 C1349 1.391 . S
C1348 C1350 1.394 . S
C1348 H1364 0.931 . S
C1349 C1348 1.391 . S
C1349 C1353 1.376 . S
C1350 C1348 1.394 . S
C1350 C1351 1.369 . S
C1350 C1354 1.531 . S
C1351 C1350 1.369 . S
C1351 C1352 1.410 . S
C1351 C1359 1.503 . S
C1352 C1351 1.410 . S
C1352 C1353 1.392 . S
C1352 C1355 1.511 . S
C1353 C1349 1.376 . S
C1353 C1352 1.392 . S
C1353 H1365 0.929 . S
C1354 C1350 1.531 . S
C1354 H1366 0.960 . S
C1354 H1367 0.962 . S
C1354 H1368 0.960 . S
C1355 C1352 1.511 . S
C1355 H1369 0.961 . S
C1355 H1370 0.961 . S
C1355 H1371 0.961 . S
C1356 C1357 1.370 . S
C1356 C1358 1.363 . S
C1356 H1372 0.931 . S
C1357 C1356 1.370 . S
C1357 C1361 1.408 . S
C1358 C1356 1.363 . S
C1358 C1359 1.370 . S
C1358 C1362 1.524 . S
C1359 C1351 1.503 . S
C1359 C1358 1.370 . S
C1359 C1360 1.403 . S
C1360 C1359 1.403 . S
C1360 C1361 1.404 . S
C1360 C1363 1.539 . S
C1361 C1357 1.408 . S
C1361 C1360 1.404 . S
C1361 H1373 0.930 . S
C1362 C1358 1.524 . S
C1362 H1374 0.956 . S
C1362 H1375 0.961 . S
C1362 H1376 0.961 . S
C1363 C1360 1.539 . S
C1363 H1377 0.958 . S
C1363 H1378 0.961 . S
C1363 H1379 0.960 . S
H1364 C1348 0.931 . S
H1365 C1353 0.929 . S
H1366 C1354 0.960 . S
H1367 C1354 0.962 . S
H1368 C1354 0.960 . S
H1369 C1355 0.961 . S
H1370 C1355 0.961 . S
H1371 C1355 0.961 . S
H1372 C1356 0.931 . S
H1373 C1361 0.930 . S
H1374 C1362 0.956 . S
H1375 C1362 0.961 . S
H1376 C1362 0.961 . S
H1377 C1363 0.958 . S
H1378 C1363 0.961 . S
H1379 C1363 0.960 . S
C1380 C1381 1.391 . S
C1380 C1382 1.394 . S
C1380 H1396 0.931 . S
C1381 C1380 1.391 . S
C1381 C1385 1.376 . S
C1382 C1380 1.394 . S
C1382 C1383 1.369 . S
C1382 C1386 1.531 . S
C1383 C1382 1.369 . S
C1383 C1384 1.410 . S
C1383 C1391 1.503 . S
C1384 C1383 1.410 . S
C1384 C1385 1.392 . S
C1384 C1387 1.511 . S
C1385 C1381 1.376 . S
C1385 C1384 1.392 . S
C1385 H1397 0.929 . S
C1386 C1382 1.531 . S
C1386 H1398 0.960 . S
C1386 H1399 0.962 . S
C1386 H1400 0.960 . S
C1387 C1384 1.511 . S
C1387 H1401 0.961 . S
C1387 H1402 0.961 . S
C1387 H1403 0.961 . S
C1388 C1389 1.370 . S
C1388 C1390 1.363 . S
C1388 H1404 0.931 . S
C1389 C1388 1.370 . S
C1389 C1393 1.408 . S
C1390 C1388 1.363 . S
C1390 C1391 1.370 . S
C1390 C1394 1.524 . S
C1391 C1383 1.503 . S
C1391 C1390 1.370 . S
C1391 C1392 1.403 . S
C1392 C1391 1.403 . S
C1392 C1393 1.404 . S
C1392 C1395 1.539 . S
C1393 C1389 1.408 . S
C1393 C1392 1.404 . S
C1393 H1405 0.930 . S
C1394 C1390 1.524 . S
C1394 H1406 0.956 . S
C1394 H1407 0.961 . S
C1394 H1408 0.961 . S
C1395 C1392 1.539 . S
C1395 H1409 0.958 . S
C1395 H1410 0.961 . S
C1395 H1411 0.960 . S
H1396 C1380 0.931 . S
H1397 C1385 0.929 . S
H1398 C1386 0.960 . S
H1399 C1386 0.962 . S
H1400 C1386 0.960 . S
H1401 C1387 0.961 . S
H1402 C1387 0.961 . S
H1403 C1387 0.961 . S
H1404 C1388 0.931 . S
H1405 C1393 0.930 . S
H1406 C1394 0.956 . S
H1407 C1394 0.961 . S
H1408 C1394 0.961 . S
H1409 C1395 0.958 . S
H1410 C1395 0.961 . S
H1411 C1395 0.960 . S
C1412 C1413 1.391 . S
C1412 C1414 1.394 . S
C1412 H1428 0.931 . S
C1413 C1412 1.391 . S
C1413 C1417 1.376 . S
C1414 C1412 1.394 . S
C1414 C1415 1.369 . S
C1414 C1418 1.531 . S
C1415 C1414 1.369 . S
C1415 C1416 1.410 . S
C1415 C1423 1.503 . S
C1416 C1415 1.410 . S
C1416 C1417 1.392 . S
C1416 C1419 1.511 . S
C1417 C1413 1.376 . S
C1417 C1416 1.392 . S
C1417 H1429 0.929 . S
C1418 C1414 1.531 . S
C1418 H1430 0.960 . S
C1418 H1431 0.962 . S
C1418 H1432 0.960 . S
C1419 C1416 1.511 . S
C1419 H1433 0.961 . S
C1419 H1434 0.961 . S
C1419 H1435 0.961 . S
C1420 C1421 1.370 . S
C1420 C1422 1.363 . S
C1420 H1436 0.931 . S
C1421 C1420 1.370 . S
C1421 C1425 1.408 . S
C1422 C1420 1.363 . S
C1422 C1423 1.370 . S
C1422 C1426 1.524 . S
C1423 C1415 1.503 . S
C1423 C1422 1.370 . S
C1423 C1424 1.403 . S
C1424 C1423 1.403 . S
C1424 C1425 1.404 . S
C1424 C1427 1.539 . S
C1425 C1421 1.408 . S
C1425 C1424 1.404 . S
C1425 H1437 0.930 . S
C1426 C1422 1.524 . S
C1426 H1438 0.956 . S
C1426 H1439 0.961 . S
C1426 H1440 0.961 . S
C1427 C1424 1.539 . S
C1427 H1441 0.958 . S
C1427 H1442 0.961 . S
C1427 H1443 0.960 . S
H1428 C1412 0.931 . S
H1429 C1417 0.929 . S
H1430 C1418 0.960 . S
H1431 C1418 0.962 . S
H1432 C1418 0.960 . S
H1433 C1419 0.961 . S
H1434 C1419 0.961 . S
H1435 C1419 0.961 . S
H1436 C1420 0.931 . S
H1437 C1425 0.930 . S
H1438 C1426 0.956 . S
H1439 C1426 0.961 . S
H1440 C1426 0.961 . S
H1441 C1427 0.958 . S
H1442 C1427 0.961 . S
H1443 C1427 0.960 . S
C1444 C1445 1.391 . S
C1444 C1446 1.394 . S
C1444 H1460 0.931 . S
C1445 C1444 1.391 . S
C1445 C1449 1.376 . S
C1446 C1444 1.394 . S
C1446 C1447 1.369 . S
C1446 C1450 1.531 . S
C1447 C1446 1.369 . S
C1447 C1448 1.410 . S
C1447 C1455 1.503 . S
C1448 C1447 1.410 . S
C1448 C1449 1.392 . S
C1448 C1451 1.511 . S
C1449 C1445 1.376 . S
C1449 C1448 1.392 . S
C1449 H1461 0.929 . S
C1450 C1446 1.531 . S
C1450 H1462 0.960 . S
C1450 H1463 0.962 . S
C1450 H1464 0.960 . S
C1451 C1448 1.511 . S
C1451 H1465 0.961 . S
C1451 H1466 0.961 . S
C1451 H1467 0.961 . S
C1452 C1453 1.370 . S
C1452 C1454 1.363 . S
C1452 H1468 0.931 . S
C1453 C1452 1.370 . S
C1453 C1457 1.408 . S
C1454 C1452 1.363 . S
C1454 C1455 1.370 . S
C1454 C1458 1.524 . S
C1455 C1447 1.503 . S
C1455 C1454 1.370 . S
C1455 C1456 1.403 . S
C1456 C1455 1.403 . S
C1456 C1457 1.404 . S
C1456 C1459 1.539 . S
C1457 C1453 1.408 . S
C1457 C1456 1.404 . S
C1457 H1469 0.930 . S
C1458 C1454 1.524 . S
C1458 H1470 0.956 . S
C1458 H1471 0.961 . S
C1458 H1472 0.961 . S
C1459 C1456 1.539 . S
C1459 H1473 0.958 . S
C1459 H1474 0.961 . S
C1459 H1475 0.960 . S
H1460 C1444 0.931 . S
H1461 C1449 0.929 . S
H1462 C1450 0.960 . S
H1463 C1450 0.962 . S
H1464 C1450 0.960 . S
H1465 C1451 0.961 . S
H1466 C1451 0.961 . S
H1467 C1451 0.961 . S
H1468 C1452 0.931 . S
H1469 C1457 0.930 . S
H1470 C1458 0.956 . S
H1471 C1458 0.961 . S
H1472 C1458 0.961 . S
H1473 C1459 0.958 . S
H1474 C1459 0.961 . S
H1475 C1459 0.960 . S
C1476 C1477 1.391 . S
C1476 C1478 1.394 . S
C1476 H1492 0.931 . S
C1477 C1476 1.391 . S
C1477 C1481 1.376 . S
C1478 C1476 1.394 . S
C1478 C1479 1.369 . S
C1478 C1482 1.531 . S
C1479 C1478 1.369 . S
C1479 C1480 1.410 . S
C1479 C1487 1.503 . S
C1480 C1479 1.410 . S
C1480 C1481 1.392 . S
C1480 C1483 1.511 . S
C1481 C1477 1.376 . S
C1481 C1480 1.392 . S
C1481 H1493 0.929 . S
C1482 C1478 1.531 . S
C1482 H1494 0.960 . S
C1482 H1495 0.962 . S
C1482 H1496 0.960 . S
C1483 C1480 1.511 . S
C1483 H1497 0.961 . S
C1483 H1498 0.961 . S
C1483 H1499 0.961 . S
C1484 C1485 1.370 . S
C1484 C1486 1.363 . S
C1484 H1500 0.931 . S
C1485 C1484 1.370 . S
C1485 C1489 1.408 . S
C1486 C1484 1.363 . S
C1486 C1487 1.370 . S
C1486 C1490 1.524 . S
C1487 C1479 1.503 . S
C1487 C1486 1.370 . S
C1487 C1488 1.403 . S
C1488 C1487 1.403 . S
C1488 C1489 1.404 . S
C1488 C1491 1.539 . S
C1489 C1485 1.408 . S
C1489 C1488 1.404 . S
C1489 H1501 0.930 . S
C1490 C1486 1.524 . S
C1490 H1502 0.956 . S
C1490 H1503 0.961 . S
C1490 H1504 0.961 . S
C1491 C1488 1.539 . S
C1491 H1505 0.958 . S
C1491 H1506 0.961 . S
C1491 H1507 0.960 . S
H1492 C1476 0.931 . S
H1493 C1481 0.929 . S
H1494 C1482 0.960 . S
H1495 C1482 0.962 . S
H1496 C1482 0.960 . S
H1497 C1483 0.961 . S
H1498 C1483 0.961 . S
H1499 C1483 0.961 . S
H1500 C1484 0.931 . S
H1501 C1489 0.930 . S
H1502 C1490 0.956 . S
H1503 C1490 0.961 . S
H1504 C1490 0.961 . S
H1505 C1491 0.958 . S
H1506 C1491 0.961 . S
H1507 C1491 0.960 . S
C1508 C1509 1.391 . S
C1508 C1510 1.394 . S
C1508 H1524 0.931 . S
C1509 C1508 1.391 . S
C1509 C1513 1.376 . S
C1510 C1508 1.394 . S
C1510 C1511 1.369 . S
C1510 C1514 1.531 . S
C1511 C1510 1.369 . S
C1511 C1512 1.410 . S
C1511 C1519 1.503 . S
C1512 C1511 1.410 . S
C1512 C1513 1.392 . S
C1512 C1515 1.511 . S
C1513 C1509 1.376 . S
C1513 C1512 1.392 . S
C1513 H1525 0.929 . S
C1514 C1510 1.531 . S
C1514 H1526 0.960 . S
C1514 H1527 0.962 . S
C1514 H1528 0.960 . S
C1515 C1512 1.511 . S
C1515 H1529 0.961 . S
C1515 H1530 0.961 . S
C1515 H1531 0.961 . S
C1516 C1517 1.370 . S
C1516 C1518 1.363 . S
C1516 H1532 0.931 . S
C1517 C1516 1.370 . S
C1517 C1521 1.408 . S
C1518 C1516 1.363 . S
C1518 C1519 1.370 . S
C1518 C1522 1.524 . S
C1519 C1511 1.503 . S
C1519 C1518 1.370 . S
C1519 C1520 1.403 . S
C1520 C1519 1.403 . S
C1520 C1521 1.404 . S
C1520 C1523 1.539 . S
C1521 C1517 1.408 . S
C1521 C1520 1.404 . S
C1521 H1533 0.930 . S
C1522 C1518 1.524 . S
C1522 H1534 0.956 . S
C1522 H1535 0.961 . S
C1522 H1536 0.961 . S
C1523 C1520 1.539 . S
C1523 H1537 0.958 . S
C1523 H1538 0.961 . S
C1523 H1539 0.960 . S
H1524 C1508 0.931 . S
H1525 C1513 0.929 . S
H1526 C1514 0.960 . S
H1527 C1514 0.962 . S
H1528 C1514 0.960 . S
H1529 C1515 0.961 . S
H1530 C1515 0.961 . S
H1531 C1515 0.961 . S
H1532 C1516 0.931 . S
H1533 C1521 0.930 . S
H1534 C1522 0.956 . S
H1535 C1522 0.961 . S
H1536 C1522 0.961 . S
H1537 C1523 0.958 . S
H1538 C1523 0.961 . S
H1539 C1523 0.960 . S
C1540 C1541 1.391 . S
C1540 C1542 1.394 . S
C1540 H1556 0.931 . S
C1541 C1540 1.391 . S
C1541 C1545 1.376 . S
C1542 C1540 1.394 . S
C1542 C1543 1.369 . S
C1542 C1546 1.531 . S
C1543 C1542 1.369 . S
C1543 C1544 1.410 . S
C1543 C1551 1.503 . S
C1544 C1543 1.410 . S
C1544 C1545 1.392 . S
C1544 C1547 1.511 . S
C1545 C1541 1.376 . S
C1545 C1544 1.392 . S
C1545 H1557 0.929 . S
C1546 C1542 1.531 . S
C1546 H1558 0.960 . S
C1546 H1559 0.962 . S
C1546 H1560 0.960 . S
C1547 C1544 1.511 . S
C1547 H1561 0.961 . S
C1547 H1562 0.961 . S
C1547 H1563 0.961 . S
C1548 C1549 1.370 . S
C1548 C1550 1.363 . S
C1548 H1564 0.931 . S
C1549 C1548 1.370 . S
C1549 C1553 1.408 . S
C1550 C1548 1.363 . S
C1550 C1551 1.370 . S
C1550 C1554 1.524 . S
C1551 C1543 1.503 . S
C1551 C1550 1.370 . S
C1551 C1552 1.403 . S
C1552 C1551 1.403 . S
C1552 C1553 1.404 . S
C1552 C1555 1.539 . S
C1553 C1549 1.408 . S
C1553 C1552 1.404 . S
C1553 H1565 0.930 . S
C1554 C1550 1.524 . S
C1554 H1566 0.956 . S
C1554 H1567 0.961 . S
C1554 H1568 0.961 . S
C1555 C1552 1.539 . S
C1555 H1569 0.958 . S
C1555 H1570 0.961 . S
C1555 H1571 0.960 . S
H1556 C1540 0.931 . S
H1557 C1545 0.929 . S
H1558 C1546 0.960 . S
H1559 C1546 0.962 . S
H1560 C1546 0.960 . S
H1561 C1547 0.961 . S
H1562 C1547 0.961 . S
H1563 C1547 0.961 . S
H1564 C1548 0.931 . S
H1565 C1553 0.930 . S
H1566 C1554 0.956 . S
H1567 C1554 0.961 . S
H1568 C1554 0.961 . S
H1569 C1555 0.958 . S
H1570 C1555 0.961 . S
H1571 C1555 0.960 . S
C1572 C1573 1.391 . S
C1572 C1574 1.394 . S
C1572 H1588 0.931 . S
C1573 C1572 1.391 . S
C1573 C1577 1.376 . S
C1574 C1572 1.394 . S
C1574 C1575 1.369 . S
C1574 C1578 1.531 . S
C1575 C1574 1.369 . S
C1575 C1576 1.410 . S
C1575 C1583 1.503 . S
C1576 C1575 1.410 . S
C1576 C1577 1.392 . S
C1576 C1579 1.511 . S
C1577 C1573 1.376 . S
C1577 C1576 1.392 . S
C1577 H1589 0.929 . S
C1578 C1574 1.531 . S
C1578 H1590 0.960 . S
C1578 H1591 0.962 . S
C1578 H1592 0.960 . S
C1579 C1576 1.511 . S
C1579 H1593 0.961 . S
C1579 H1594 0.961 . S
C1579 H1595 0.961 . S
C1580 C1581 1.370 . S
C1580 C1582 1.363 . S
C1580 H1596 0.931 . S
C1581 C1580 1.370 . S
C1581 C1585 1.408 . S
C1582 C1580 1.363 . S
C1582 C1583 1.370 . S
C1582 C1586 1.524 . S
C1583 C1575 1.503 . S
C1583 C1582 1.370 . S
C1583 C1584 1.403 . S
C1584 C1583 1.403 . S
C1584 C1585 1.404 . S
C1584 C1587 1.539 . S
C1585 C1581 1.408 . S
C1585 C1584 1.404 . S
C1585 H1597 0.930 . S
C1586 C1582 1.524 . S
C1586 H1598 0.956 . S
C1586 H1599 0.961 . S
C1586 H1600 0.961 . S
C1587 C1584 1.539 . S
C1587 H1601 0.958 . S
C1587 H1602 0.961 . S
C1587 H1603 0.960 . S
H1588 C1572 0.931 . S
H1589 C1577 0.929 . S
H1590 C1578 0.960 . S
H1591 C1578 0.962 . S
H1592 C1578 0.960 . S
H1593 C1579 0.961 . S
H1594 C1579 0.961 . S
H1595 C1579 0.961 . S
H1596 C1580 0.931 . S
H1597 C1585 0.930 . S
H1598 C1586 0.956 . S
H1599 C1586 0.961 . S
H1600 C1586 0.961 . S
H1601 C1587 0.958 . S
H1602 C1587 0.961 . S
H1603 C1587 0.960 . S
C1604 C1605 1.391 . S
C1604 C1606 1.394 . S
C1604 H1620 0.931 . S
C1605 C1604 1.391 . S
C1605 C1609 1.376 . S
C1606 C1604 1.394 . S
C1606 C1607 1.369 . S
C1606 C1610 1.531 . S
C1607 C1606 1.369 . S
C1607 C1608 1.410 . S
C1607 C1615 1.503 . S
C1608 C1607 1.410 . S
C1608 C1609 1.392 . S
C1608 C1611 1.511 . S
C1609 C1605 1.376 . S
C1609 C1608 1.392 . S
C1609 H1621 0.929 . S
C1610 C1606 1.531 . S
C1610 H1622 0.960 . S
C1610 H1623 0.962 . S
C1610 H1624 0.960 . S
C1611 C1608 1.511 . S
C1611 H1625 0.961 . S
C1611 H1626 0.961 . S
C1611 H1627 0.961 . S
C1612 C1613 1.370 . S
C1612 C1614 1.363 . S
C1612 H1628 0.931 . S
C1613 C1612 1.370 . S
C1613 C1617 1.408 . S
C1614 C1612 1.363 . S
C1614 C1615 1.370 . S
C1614 C1618 1.524 . S
C1615 C1607 1.503 . S
C1615 C1614 1.370 . S
C1615 C1616 1.403 . S
C1616 C1615 1.403 . S
C1616 C1617 1.404 . S
C1616 C1619 1.539 . S
C1617 C1613 1.408 . S
C1617 C1616 1.404 . S
C1617 H1629 0.930 . S
C1618 C1614 1.524 . S
C1618 H1630 0.956 . S
C1618 H1631 0.961 . S
C1618 H1632 0.961 . S
C1619 C1616 1.539 . S
C1619 H1633 0.958 . S
C1619 H1634 0.961 . S
C1619 H1635 0.960 . S
H1620 C1604 0.931 . S
H1621 C1609 0.929 . S
H1622 C1610 0.960 . S
H1623 C1610 0.962 . S
H1624 C1610 0.960 . S
H1625 C1611 0.961 . S
H1626 C1611 0.961 . S
H1627 C1611 0.961 . S
H1628 C1612 0.931 . S
H1629 C1617 0.930 . S
H1630 C1618 0.956 . S
H1631 C1618 0.961 . S
H1632 C1618 0.961 . S
H1633 C1619 0.958 . S
H1634 C1619 0.961 . S
H1635 C1619 0.960 . S
C1636 C1637 1.391 . S
C1636 C1638 1.394 . S
C1636 H1652 0.931 . S
C1637 C1636 1.391 . S
C1637 C1641 1.376 . S
C1638 C1636 1.394 . S
C1638 C1639 1.369 . S
C1638 C1642 1.531 . S
C1639 C1638 1.369 . S
C1639 C1640 1.410 . S
C1639 C1647 1.503 . S
C1640 C1639 1.410 . S
C1640 C1641 1.392 . S
C1640 C1643 1.511 . S
C1641 C1637 1.376 . S
C1641 C1640 1.392 . S
C1641 H1653 0.929 . S
C1642 C1638 1.531 . S
C1642 H1654 0.960 . S
C1642 H1655 0.962 . S
C1642 H1656 0.960 . S
C1643 C1640 1.511 . S
C1643 H1657 0.961 . S
C1643 H1658 0.961 . S
C1643 H1659 0.961 . S
C1644 C1645 1.370 . S
C1644 C1646 1.363 . S
C1644 H1660 0.931 . S
C1645 C1644 1.370 . S
C1645 C1649 1.408 . S
C1646 C1644 1.363 . S
C1646 C1647 1.370 . S
C1646 C1650 1.524 . S
C1647 C1639 1.503 . S
C1647 C1646 1.370 . S
C1647 C1648 1.403 . S
C1648 C1647 1.403 . S
C1648 C1649 1.404 . S
C1648 C1651 1.539 . S
C1649 C1645 1.408 . S
C1649 C1648 1.404 . S
C1649 H1661 0.930 . S
C1650 C1646 1.524 . S
C1650 H1662 0.956 . S
C1650 H1663 0.961 . S
C1650 H1664 0.961 . S
C1651 C1648 1.539 . S
C1651 H1665 0.958 . S
C1651 H1666 0.961 . S
C1651 H1667 0.960 . S
H1652 C1636 0.931 . S
H1653 C1641 0.929 . S
H1654 C1642 0.960 . S
H1655 C1642 0.962 . S
H1656 C1642 0.960 . S
H1657 C1643 0.961 . S
H1658 C1643 0.961 . S
H1659 C1643 0.961 . S
H1660 C1644 0.931 . S
H1661 C1649 0.930 . S
H1662 C1650 0.956 . S
H1663 C1650 0.961 . S
H1664 C1650 0.961 . S
H1665 C1651 0.958 . S
H1666 C1651 0.961 . S
H1667 C1651 0.960 . S
C1668 C1669 1.391 . S
C1668 C1670 1.394 . S
C1668 H1684 0.931 . S
C1669 C1668 1.391 . S
C1669 C1673 1.376 . S
C1670 C1668 1.394 . S
C1670 C1671 1.369 . S
C1670 C1674 1.531 . S
C1671 C1670 1.369 . S
C1671 C1672 1.410 . S
C1671 C1679 1.503 . S
C1672 C1671 1.410 . S
C1672 C1673 1.392 . S
C1672 C1675 1.511 . S
C1673 C1669 1.376 . S
C1673 C1672 1.392 . S
C1673 H1685 0.929 . S
C1674 C1670 1.531 . S
C1674 H1686 0.960 . S
C1674 H1687 0.962 . S
C1674 H1688 0.960 . S
C1675 C1672 1.511 . S
C1675 H1689 0.961 . S
C1675 H1690 0.961 . S
C1675 H1691 0.961 . S
C1676 C1677 1.370 . S
C1676 C1678 1.363 . S
C1676 H1692 0.931 . S
C1677 C1676 1.370 . S
C1677 C1681 1.408 . S
C1678 C1676 1.363 . S
C1678 C1679 1.370 . S
C1678 C1682 1.524 . S
C1679 C1671 1.503 . S
C1679 C1678 1.370 . S
C1679 C1680 1.403 . S
C1680 C1679 1.403 . S
C1680 C1681 1.404 . S
C1680 C1683 1.539 . S
C1681 C1677 1.408 . S
C1681 C1680 1.404 . S
C1681 H1693 0.930 . S
C1682 C1678 1.524 . S
C1682 H1694 0.956 . S
C1682 H1695 0.961 . S
C1682 H1696 0.961 . S
C1683 C1680 1.539 . S
C1683 H1697 0.958 . S
C1683 H1698 0.961 . S
C1683 H1699 0.960 . S
H1684 C1668 0.931 . S
H1685 C1673 0.929 . S
H1686 C1674 0.960 . S
H1687 C1674 0.962 . S
H1688 C1674 0.960 . S
H1689 C1675 0.961 . S
H1690 C1675 0.961 . S
H1691 C1675 0.961 . S
H1692 C1676 0.931 . S
H1693 C1681 0.930 . S
H1694 C1682 0.956 . S
H1695 C1682 0.961 . S
H1696 C1682 0.961 . S
H1697 C1683 0.958 . S
H1698 C1683 0.961 . S
H1699 C1683 0.960 . S
C1700 C1701 1.391 . S
C1700 C1702 1.394 . S
C1700 H1716 0.931 . S
C1701 C1700 1.391 . S
C1701 C1705 1.376 . S
C1702 C1700 1.394 . S
C1702 C1703 1.369 . S
C1702 C1706 1.531 . S
C1703 C1702 1.369 . S
C1703 C1704 1.410 . S
C1703 C1711 1.503 . S
C1704 C1703 1.410 . S
C1704 C1705 1.392 . S
C1704 C1707 1.511 . S
C1705 C1701 1.376 . S
C1705 C1704 1.392 . S
C1705 H1717 0.929 . S
C1706 C1702 1.531 . S
C1706 H1718 0.960 . S
C1706 H1719 0.962 . S
C1706 H1720 0.960 . S
C1707 C1704 1.511 . S
C1707 H1721 0.961 . S
C1707 H1722 0.961 . S
C1707 H1723 0.961 . S
C1708 C1709 1.370 . S
C1708 C1710 1.363 . S
C1708 H1724 0.931 . S
C1709 C1708 1.370 . S
C1709 C1713 1.408 . S
C1710 C1708 1.363 . S
C1710 C1711 1.370 . S
C1710 C1714 1.524 . S
C1711 C1703 1.503 . S
C1711 C1710 1.370 . S
C1711 C1712 1.403 . S
C1712 C1711 1.403 . S
C1712 C1713 1.404 . S
C1712 C1715 1.539 . S
C1713 C1709 1.408 . S
C1713 C1712 1.404 . S
C1713 H1725 0.930 . S
C1714 C1710 1.524 . S
C1714 H1726 0.956 . S
C1714 H1727 0.961 . S
C1714 H1728 0.961 . S
C1715 C1712 1.539 . S
C1715 H1729 0.958 . S
C1715 H1730 0.961 . S
C1715 H1731 0.960 . S
H1716 C1700 0.931 . S
H1717 C1705 0.929 . S
H1718 C1706 0.960 . S
H1719 C1706 0.962 . S
H1720 C1706 0.960 . S
H1721 C1707 0.961 . S
H1722 C1707 0.961 . S
H1723 C1707 0.961 . S
H1724 C1708 0.931 . S
H1725 C1713 0.930 . S
H1726 C1714 0.956 . S
H1727 C1714 0.961 . S
H1728 C1714 0.961 . S
H1729 C1715 0.958 . S
H1730 C1715 0.961 . S
H1731 C1715 0.960 . S
C1732 C1733 1.391 . S
C1732 C1734 1.394 . S
C1732 H1748 0.931 . S
C1733 C1732 1.391 . S
C1733 C1737 1.376 . S
C1734 C1732 1.394 . S
C1734 C1735 1.369 . S
C1734 C1738 1.531 . S
C1735 C1734 1.369 . S
C1735 C1736 1.410 . S
C1735 C1743 1.503 . S
C1736 C1735 1.410 . S
C1736 C1737 1.392 . S
C1736 C1739 1.511 . S
C1737 C1733 1.376 . S
C1737 C1736 1.392 . S
C1737 H1749 0.929 . S
C1738 C1734 1.531 . S
C1738 H1750 0.960 . S
C1738 H1751 0.962 . S
C1738 H1752 0.960 . S
C1739 C1736 1.511 . S
C1739 H1753 0.961 . S
C1739 H1754 0.961 . S
C1739 H1755 0.961 . S
C1740 C1741 1.370 . S
C1740 C1742 1.363 . S
C1740 H1756 0.931 . S
C1741 C1740 1.370 . S
C1741 C1745 1.408 . S
C1742 C1740 1.363 . S
C1742 C1743 1.370 . S
C1742 C1746 1.524 . S
C1743 C1735 1.503 . S
C1743 C1742 1.370 . S
C1743 C1744 1.403 . S
C1744 C1743 1.403 . S
C1744 C1745 1.404 . S
C1744 C1747 1.539 . S
C1745 C1741 1.408 . S
C1745 C1744 1.404 . S
C1745 H1757 0.930 . S
C1746 C1742 1.524 . S
C1746 H1758 0.956 . S
C1746 H1759 0.961 . S
C1746 H1760 0.961 . S
C1747 C1744 1.539 . S
C1747 H1761 0.958 . S
C1747 H1762 0.961 . S
C1747 H1763 0.960 . S
H1748 C1732 0.931 . S
H1749 C1737 0.929 . S
H1750 C1738 0.960 . S
H1751 C1738 0.962 . S
H1752 C1738 0.960 . S
H1753 C1739 0.961 . S
H1754 C1739 0.961 . S
H1755 C1739 0.961 . S
H1756 C1740 0.931 . S
H1757 C1745 0.930 . S
H1758 C1746 0.956 . S
H1759 C1746 0.961 . S
H1760 C1746 0.961 . S
H1761 C1747 0.958 . S
H1762 C1747 0.961 . S
H1763 C1747 0.960 . S
C1764 C1765 1.391 . S
C1764 C1766 1.394 . S
C1764 H1780 0.931 . S
C1765 C1764 1.391 . S
C1765 C1769 1.376 . S
C1766 C1764 1.394 . S
C1766 C1767 1.369 . S
C1766 C1770 1.531 . S
C1767 C1766 1.369 . S
C1767 C1768 1.410 . S
C1767 C1775 1.503 . S
C1768 C1767 1.410 . S
C1768 C1769 1.392 . S
C1768 C1771 1.511 . S
C1769 C1765 1.376 . S
C1769 C1768 1.392 . S
C1769 H1781 0.929 . S
C1770 C1766 1.531 . S
C1770 H1782 0.960 . S
C1770 H1783 0.962 . S
C1770 H1784 0.960 . S
C1771 C1768 1.511 . S
C1771 H1785 0.961 . S
C1771 H1786 0.961 . S
C1771 H1787 0.961 . S
C1772 C1773 1.370 . S
C1772 C1774 1.363 . S
C1772 H1788 0.931 . S
C1773 C1772 1.370 . S
C1773 C1777 1.408 . S
C1774 C1772 1.363 . S
C1774 C1775 1.370 . S
C1774 C1778 1.524 . S
C1775 C1767 1.503 . S
C1775 C1774 1.370 . S
C1775 C1776 1.403 . S
C1776 C1775 1.403 . S
C1776 C1777 1.404 . S
C1776 C1779 1.539 . S
C1777 C1773 1.408 . S
C1777 C1776 1.404 . S
C1777 H1789 0.930 . S
C1778 C1774 1.524 . S
C1778 H1790 0.956 . S
C1778 H1791 0.961 . S
C1778 H1792 0.961 . S
C1779 C1776 1.539 . S
C1779 H1793 0.958 . S
C1779 H1794 0.961 . S
C1779 H1795 0.960 . S
H1780 C1764 0.931 . S
H1781 C1769 0.929 . S
H1782 C1770 0.960 . S
H1783 C1770 0.962 . S
H1784 C1770 0.960 . S
H1785 C1771 0.961 . S
H1786 C1771 0.961 . S
H1787 C1771 0.961 . S
H1788 C1772 0.931 . S
H1789 C1777 0.930 . S
H1790 C1778 0.956 . S
H1791 C1778 0.961 . S
H1792 C1778 0.961 . S
H1793 C1779 0.958 . S
H1794 C1779 0.961 . S
H1795 C1779 0.960 . S
C1796 C1797 1.391 . S
C1796 C1798 1.394 . S
C1796 H1812 0.931 . S
C1797 C1796 1.391 . S
C1797 C1801 1.376 . S
C1798 C1796 1.394 . S
C1798 C1799 1.369 . S
C1798 C1802 1.531 . S
C1799 C1798 1.369 . S
C1799 C1800 1.410 . S
C1799 C1807 1.503 . S
C1800 C1799 1.410 . S
C1800 C1801 1.392 . S
C1800 C1803 1.511 . S
C1801 C1797 1.376 . S
C1801 C1800 1.392 . S
C1801 H1813 0.929 . S
C1802 C1798 1.531 . S
C1802 H1814 0.960 . S
C1802 H1815 0.962 . S
C1802 H1816 0.960 . S
C1803 C1800 1.511 . S
C1803 H1817 0.961 . S
C1803 H1818 0.961 . S
C1803 H1819 0.961 . S
C1804 C1805 1.370 . S
C1804 C1806 1.363 . S
C1804 H1820 0.931 . S
C1805 C1804 1.370 . S
C1805 C1809 1.408 . S
C1806 C1804 1.363 . S
C1806 C1807 1.370 . S
C1806 C1810 1.524 . S
C1807 C1799 1.503 . S
C1807 C1806 1.370 . S
C1807 C1808 1.403 . S
C1808 C1807 1.403 . S
C1808 C1809 1.404 . S
C1808 C1811 1.539 . S
C1809 C1805 1.408 . S
C1809 C1808 1.404 . S
C1809 H1821 0.930 . S
C1810 C1806 1.524 . S
C1810 H1822 0.956 . S
C1810 H1823 0.961 . S
C1810 H1824 0.961 . S
C1811 C1808 1.539 . S
C1811 H1825 0.958 . S
C1811 H1826 0.961 . S
C1811 H1827 0.960 . S
H1812 C1796 0.931 . S
H1813 C1801 0.929 . S
H1814 C1802 0.960 . S
H1815 C1802 0.962 . S
H1816 C1802 0.960 . S
H1817 C1803 0.961 . S
H1818 C1803 0.961 . S
H1819 C1803 0.961 . S
H1820 C1804 0.931 . S
H1821 C1809 0.930 . S
H1822 C1810 0.956 . S
H1823 C1810 0.961 . S
H1824 C1810 0.961 . S
H1825 C1811 0.958 . S
H1826 C1811 0.961 . S
H1827 C1811 0.960 . S
C1828 C1829 1.391 . S
C1828 C1830 1.394 . S
C1828 H1844 0.931 . S
C1829 C1828 1.391 . S
C1829 C1833 1.376 . S
C1830 C1828 1.394 . S
C1830 C1831 1.369 . S
C1830 C1834 1.531 . S
C1831 C1830 1.369 . S
C1831 C1832 1.410 . S
C1831 C1839 1.503 . S
C1832 C1831 1.410 . S
C1832 C1833 1.392 . S
C1832 C1835 1.511 . S
C1833 C1829 1.376 . S
C1833 C1832 1.392 . S
C1833 H1845 0.929 . S
C1834 C1830 1.531 . S
C1834 H1846 0.960 . S
C1834 H1847 0.962 . S
C1834 H1848 0.960 . S
C1835 C1832 1.511 . S
C1835 H1849 0.961 . S
C1835 H1850 0.961 . S
C1835 H1851 0.961 . S
C1836 C1837 1.370 . S
C1836 C1838 1.363 . S
C1836 H1852 0.931 . S
C1837 C1836 1.370 . S
C1837 C1841 1.408 . S
C1838 C1836 1.363 . S
C1838 C1839 1.370 . S
C1838 C1842 1.524 . S
C1839 C1831 1.503 . S
C1839 C1838 1.370 . S
C1839 C1840 1.403 . S
C1840 C1839 1.403 . S
C1840 C1841 1.404 . S
C1840 C1843 1.539 . S
C1841 C1837 1.408 . S
C1841 C1840 1.404 . S
C1841 H1853 0.930 . S
C1842 C1838 1.524 . S
C1842 H1854 0.956 . S
C1842 H1855 0.961 . S
C1842 H1856 0.961 . S
C1843 C1840 1.539 . S
C1843 H1857 0.958 . S
C1843 H1858 0.961 . S
C1843 H1859 0.960 . S
H1844 C1828 0.931 . S
H1845 C1833 0.929 . S
H1846 C1834 0.960 . S
H1847 C1834 0.962 . S
H1848 C1834 0.960 . S
H1849 C1835 0.961 . S
H1850 C1835 0.961 . S
H1851 C1835 0.961 . S
H1852 C1836 0.931 . S
H1853 C1841 0.930 . S
H1854 C1842 0.956 . S
H1855 C1842 0.961 . S
H1856 C1842 0.961 . S
H1857 C1843 0.958 . S
H1858 C1843 0.961 . S
H1859 C1843 0.960 . S
C1860 C1861 1.391 . S
C1860 C1862 1.394 . S
C1860 H1876 0.931 . S
C1861 C1860 1.391 . S
C1861 C1865 1.376 . S
C1862 C1860 1.394 . S
C1862 C1863 1.369 . S
C1862 C1866 1.531 . S
C1863 C1862 1.369 . S
C1863 C1864 1.410 . S
C1863 C1871 1.503 . S
C1864 C1863 1.410 . S
C1864 C1865 1.392 . S
C1864 C1867 1.511 . S
C1865 C1861 1.376 . S
C1865 C1864 1.392 . S
C1865 H1877 0.929 . S
C1866 C1862 1.531 . S
C1866 H1878 0.960 . S
C1866 H1879 0.962 . S
C1866 H1880 0.960 . S
C1867 C1864 1.511 . S
C1867 H1881 0.961 . S
C1867 H1882 0.961 . S
C1867 H1883 0.961 . S
C1868 C1869 1.370 . S
C1868 C1870 1.363 . S
C1868 H1884 0.931 . S
C1869 C1868 1.370 . S
C1869 C1873 1.408 . S
C1870 C1868 1.363 . S
C1870 C1871 1.370 . S
C1870 C1874 1.524 . S
C1871 C1863 1.503 . S
C1871 C1870 1.370 . S
C1871 C1872 1.403 . S
C1872 C1871 1.403 . S
C1872 C1873 1.404 . S
C1872 C1875 1.539 . S
C1873 C1869 1.408 . S
C1873 C1872 1.404 . S
C1873 H1885 0.930 . S
C1874 C1870 1.524 . S
C1874 H1886 0.956 . S
C1874 H1887 0.961 . S
C1874 H1888 0.961 . S
C1875 C1872 1.539 . S
C1875 H1889 0.958 . S
C1875 H1890 0.961 . S
C1875 H1891 0.960 . S
H1876 C1860 0.931 . S
H1877 C1865 0.929 . S
H1878 C1866 0.960 . S
H1879 C1866 0.962 . S
H1880 C1866 0.960 . S
H1881 C1867 0.961 . S
H1882 C1867 0.961 . S
H1883 C1867 0.961 . S
H1884 C1868 0.931 . S
H1885 C1873 0.930 . S
H1886 C1874 0.956 . S
H1887 C1874 0.961 . S
H1888 C1874 0.961 . S
H1889 C1875 0.958 . S
H1890 C1875 0.961 . S
H1891 C1875 0.960 . S
C1892 C1893 1.391 . S
C1892 C1894 1.394 . S
C1892 H1908 0.931 . S
C1893 C1892 1.391 . S
C1893 C1897 1.376 . S
C1894 C1892 1.394 . S
C1894 C1895 1.369 . S
C1894 C1898 1.531 . S
C1895 C1894 1.369 . S
C1895 C1896 1.410 . S
C1895 C1903 1.503 . S
C1896 C1895 1.410 . S
C1896 C1897 1.392 . S
C1896 C1899 1.511 . S
C1897 C1893 1.376 . S
C1897 C1896 1.392 . S
C1897 H1909 0.929 . S
C1898 C1894 1.531 . S
C1898 H1910 0.960 . S
C1898 H1911 0.962 . S
C1898 H1912 0.960 . S
C1899 C1896 1.511 . S
C1899 H1913 0.961 . S
C1899 H1914 0.961 . S
C1899 H1915 0.961 . S
C1900 C1901 1.370 . S
C1900 C1902 1.363 . S
C1900 H1916 0.931 . S
C1901 C1900 1.370 . S
C1901 C1905 1.408 . S
C1902 C1900 1.363 . S
C1902 C1903 1.370 . S
C1902 C1906 1.524 . S
C1903 C1895 1.503 . S
C1903 C1902 1.370 . S
C1903 C1904 1.403 . S
C1904 C1903 1.403 . S
C1904 C1905 1.404 . S
C1904 C1907 1.539 . S
C1905 C1901 1.408 . S
C1905 C1904 1.404 . S
C1905 H1917 0.930 . S
C1906 C1902 1.524 . S
C1906 H1918 0.956 . S
C1906 H1919 0.961 . S
C1906 H1920 0.961 . S
C1907 C1904 1.539 . S
C1907 H1921 0.958 . S
C1907 H1922 0.961 . S
C1907 H1923 0.960 . S
H1908 C1892 0.931 . S
H1909 C1897 0.929 . S
H1910 C1898 0.960 . S
H1911 C1898 0.962 . S
H1912 C1898 0.960 . S
H1913 C1899 0.961 . S
H1914 C1899 0.961 . S
H1915 C1899 0.961 . S
H1916 C1900 0.931 . S
H1917 C1905 0.930 . S
H1918 C1906 0.956 . S
H1919 C1906 0.961 . S
H1920 C1906 0.961 . S
H1921 C1907 0.958 . S
H1922 C1907 0.961 . S
H1923 C1907 0.960 . S
C1924 C1925 1.391 . S
C1924 C1926 1.394 . S
C1924 H1940 0.931 . S
C1925 C1924 1.391 . S
C1925 C1929 1.376 . S
C1926 C1924 1.394 . S
C1926 C1927 1.369 . S
C1926 C1930 1.531 . S
C1927 C1926 1.369 . S
C1927 C1928 1.410 . S
C1927 C1935 1.503 . S
C1928 C1927 1.410 . S
C1928 C1929 1.392 . S
C1928 C1931 1.511 . S
C1929 C1925 1.376 . S
C1929 C1928 1.392 . S
C1929 H1941 0.929 . S
C1930 C1926 1.531 . S
C1930 H1942 0.960 . S
C1930 H1943 0.962 . S
C1930 H1944 0.960 . S
C1931 C1928 1.511 . S
C1931 H1945 0.961 . S
C1931 H1946 0.961 . S
C1931 H1947 0.961 . S
C1932 C1933 1.370 . S
C1932 C1934 1.363 . S
C1932 H1948 0.931 . S
C1933 C1932 1.370 . S
C1933 C1937 1.408 . S
C1934 C1932 1.363 . S
C1934 C1935 1.370 . S
C1934 C1938 1.524 . S
C1935 C1927 1.503 . S
C1935 C1934 1.370 . S
C1935 C1936 1.403 . S
C1936 C1935 1.403 . S
C1936 C1937 1.404 . S
C1936 C1939 1.539 . S
C1937 C1933 1.408 . S
C1937 C1936 1.404 . S
C1937 H1949 0.930 . S
C1938 C1934 1.524 . S
C1938 H1950 0.956 . S
C1938 H1951 0.961 . S
C1938 H1952 0.961 . S
C1939 C1936 1.539 . S
C1939 H1953 0.958 . S
C1939 H1954 0.961 . S
C1939 H1955 0.960 . S
H1940 C1924 0.931 . S
H1941 C1929 0.929 . S
H1942 C1930 0.960 . S
H1943 C1930 0.962 . S
H1944 C1930 0.960 . S
H1945 C1931 0.961 . S
H1946 C1931 0.961 . S
H1947 C1931 0.961 . S
H1948 C1932 0.931 . S
H1949 C1937 0.930 . S
H1950 C1938 0.956 . S
H1951 C1938 0.961 . S
H1952 C1938 0.961 . S
H1953 C1939 0.958 . S
H1954 C1939 0.961 . S
H1955 C1939 0.960 . S
C1956 C1957 1.391 . S
C1956 C1958 1.394 . S
C1956 H1972 0.931 . S
C1957 C1956 1.391 . S
C1957 C1961 1.376 . S
C1958 C1956 1.394 . S
C1958 C1959 1.369 . S
C1958 C1962 1.531 . S
C1959 C1958 1.369 . S
C1959 C1960 1.410 . S
C1959 C1967 1.503 . S
C1960 C1959 1.410 . S
C1960 C1961 1.392 . S
C1960 C1963 1.511 . S
C1961 C1957 1.376 . S
C1961 C1960 1.392 . S
C1961 H1973 0.929 . S
C1962 C1958 1.531 . S
C1962 H1974 0.960 . S
C1962 H1975 0.962 . S
C1962 H1976 0.960 . S
C1963 C1960 1.511 . S
C1963 H1977 0.961 . S
C1963 H1978 0.961 . S
C1963 H1979 0.961 . S
C1964 C1965 1.370 . S
C1964 C1966 1.363 . S
C1964 H1980 0.931 . S
C1965 C1964 1.370 . S
C1965 C1969 1.408 . S
C1966 C1964 1.363 . S
C1966 C1967 1.370 . S
C1966 C1970 1.524 . S
C1967 C1959 1.503 . S
C1967 C1966 1.370 . S
C1967 C1968 1.403 . S
C1968 C1967 1.403 . S
C1968 C1969 1.404 . S
C1968 C1971 1.539 . S
C1969 C1965 1.408 . S
C1969 C1968 1.404 . S
C1969 H1981 0.930 . S
C1970 C1966 1.524 . S
C1970 H1982 0.956 . S
C1970 H1983 0.961 . S
C1970 H1984 0.961 . S
C1971 C1968 1.539 . S
C1971 H1985 0.958 . S
C1971 H1986 0.961 . S
C1971 H1987 0.960 . S
H1972 C1956 0.931 . S
H1973 C1961 0.929 . S
H1974 C1962 0.960 . S
H1975 C1962 0.962 . S
H1976 C1962 0.960 . S
H1977 C1963 0.961 . S
H1978 C1963 0.961 . S
H1979 C1963 0.961 . S
H1980 C1964 0.931 . S
H1981 C1969 0.930 . S
H1982 C1970 0.956 . S
H1983 C1970 0.961 . S
H1984 C1970 0.961 . S
H1985 C1971 0.958 . S
H1986 C1971 0.961 . S
H1987 C1971 0.960 . S
C1988 C1989 1.391 . S
C1988 C1990 1.394 . S
C1988 H2004 0.931 . S
C1989 C1988 1.391 . S
C1989 C1993 1.376 . S
C1990 C1988 1.394 . S
C1990 C1991 1.369 . S
C1990 C1994 1.531 . S
C1991 C1990 1.369 . S
C1991 C1992 1.410 . S
C1991 C1999 1.503 . S
C1992 C1991 1.410 . S
C1992 C1993 1.392 . S
C1992 C1995 1.511 . S
C1993 C1989 1.376 . S
C1993 C1992 1.392 . S
C1993 H2005 0.929 . S
C1994 C1990 1.531 . S
C1994 H2006 0.960 . S
C1994 H2007 0.962 . S
C1994 H2008 0.960 . S
C1995 C1992 1.511 . S
C1995 H2009 0.961 . S
C1995 H2010 0.961 . S
C1995 H2011 0.961 . S
C1996 C1997 1.370 . S
C1996 C1998 1.363 . S
C1996 H2012 0.931 . S
C1997 C1996 1.370 . S
C1997 C2001 1.408 . S
C1998 C1996 1.363 . S
C1998 C1999 1.370 . S
C1998 C2002 1.524 . S
C1999 C1991 1.503 . S
C1999 C1998 1.370 . S
C1999 C2000 1.403 . S
C2000 C1999 1.403 . S
C2000 C2001 1.404 . S
C2000 C2003 1.539 . S
C2001 C1997 1.408 . S
C2001 C2000 1.404 . S
C2001 H2013 0.930 . S
C2002 C1998 1.524 . S
C2002 H2014 0.956 . S
C2002 H2015 0.961 . S
C2002 H2016 0.961 . S
C2003 C2000 1.539 . S
C2003 H2017 0.958 . S
C2003 H2018 0.961 . S
C2003 H2019 0.960 . S
H2004 C1988 0.931 . S
H2005 C1993 0.929 . S
H2006 C1994 0.960 . S
H2007 C1994 0.962 . S
H2008 C1994 0.960 . S
H2009 C1995 0.961 . S
H2010 C1995 0.961 . S
H2011 C1995 0.961 . S
H2012 C1996 0.931 . S
H2013 C2001 0.930 . S
H2014 C2002 0.956 . S
H2015 C2002 0.961 . S
H2016 C2002 0.961 . S
H2017 C2003 0.958 . S
H2018 C2003 0.961 . S
H2019 C2003 0.960 . S
C493 C195 1.948 . S
C485 C19 1.921 . S
C525 C173 1.785 . S
C517 C24 1.705 . S
C557 C170 0.745 . S
C549 C59 0.791 . S
C581 C69 1.587 . S
C589 C182 1.628 . S
C613 C82 1.710 . S
C621 C165 1.776 . S
C653 C187 0.759 . S
C645 C118 0.765 . S
C677 C132 1.626 . S
C685 C192 1.622 . S
C709 C158 1.919 . S
C717 C188 1.949 . S
C749 C246 1.900 . S
C741 C4 1.805 . S
C773 C29 0.877 . S
C781 C296 0.822 . S
C813 C219 1.763 . S
C805 C44 1.660 . S
C845 C295 0.781 . S
C837 C79 0.729 . S
C869 C98 0.757 . S
C877 C224 0.768 . S
C909 C290 1.626 . S
C901 C112 1.616 . S
C933 C122 1.080 . S
C941 C249 1.157 . S
C965 C152 1.528 . S
C973 C281 1.533 . S
C997 C9 1.538 . S
C1005 C273 1.538 . S
C1029 C92 0.831 . S
C1037 C303 0.832 . S
C1069 C227 1.793 . S
C1061 C102 1.733 . S
C1101 C278 0.794 . S
C1093 C138 0.810 . S
C1125 C142 1.856 . S
C1133 C236 1.916 . S
C1157 C49 1.573 . S
C1165 C300 1.623 . S
C1197 C242 1.163 . S
C1189 C64 1.041 . S
C1221 C39 0.807 . S
C1229 C241 0.767 . S
C1253 C159 1.891 . S
C1261 C357 1.949 . S
C1285 C84 1.727 . S
C1293 C335 1.778 . S
C1325 C332 0.750 . S
C1317 C119 0.799 . S
C1357 C344 1.630 . S
C1349 C129 1.585 . S
C1381 C22 1.689 . S
C1389 C327 1.782 . S
C1421 C349 0.743 . S
C1413 C58 0.776 . S
C1445 C72 1.601 . S
C1453 C354 1.632 . S
C1477 C18 1.884 . S
C1485 C350 1.943 . S
C1509 C144 1.847 . S
C1517 C408 1.910 . S
C1549 C458 0.827 . S
C1541 C89 0.838 . S
C1573 C104 1.674 . S
C1581 C381 1.759 . S
C1605 C139 0.730 . S
C1613 C457 0.783 . S
C1645 C386 0.767 . S
C1637 C38 0.749 . S
C1669 C52 1.617 . S
C1677 C452 1.626 . S
C1709 C411 1.141 . S
C1701 C62 1.066 . S
C1741 C443 1.522 . S
C1733 C12 1.477 . S
C1773 C435 1.539 . S
C1765 C149 1.539 . S
C1797 C32 0.811 . S
C1805 C465 0.836 . S
C1829 C42 1.694 . S
C1837 C389 1.789 . S
C1869 C440 0.796 . S
C1861 C78 0.833 . S
C1893 C2 1.853 . S
C1901 C398 1.919 . S
C1925 C109 1.572 . S
C1933 C462 1.624 . S
C1965 C404 1.141 . S
C1957 C124 1.091 . S
C1997 C403 0.776 . S
C1989 C99 0.734 . S
