# Generated by pormake.
# Topology gar, (4,6)-cn, num edge types: 1
# Building blocks:
#     Node 0, Type 0, BuildingBlock: TATPOV_clean_sbu_0, # of connection points: 4
#     Node 1, Type 0, BuildingBlock: TATPOV_clean_sbu_0, # of connection points: 4
#     Node 2, Type 0, BuildingBlock: TATPOV_clean_sbu_0, # of connection points: 4
#     Node 3, Type 0, BuildingBlock: TATPOV_clean_sbu_0, # of connection points: 4
#     Node 4, Type 0, BuildingBlock: TATPOV_clean_sbu_0, # of connection points: 4
#     Node 5, Type 0, BuildingBlock: TATPOV_clean_sbu_0, # of connection points: 4
#     Node 6, Type 0, BuildingBlock: TATPOV_clean_sbu_0, # of connection points: 4
#     Node 7, Type 0, BuildingBlock: TATPOV_clean_sbu_0, # of connection points: 4
#     Node 8, Type 0, BuildingBlock: TATPOV_clean_sbu_0, # of connection points: 4
#     Node 9, Type 0, BuildingBlock: TATPOV_clean_sbu_0, # of connection points: 4
#     Node 10, Type 0, BuildingBlock: TATPOV_clean_sbu_0, # of connection points: 4
#     Node 11, Type 0, BuildingBlock: TATPOV_clean_sbu_0, # of connection points: 4
#     Node 12, Type 0, BuildingBlock: TATPOV_clean_sbu_0, # of connection points: 4
#     Node 13, Type 0, BuildingBlock: TATPOV_clean_sbu_0, # of connection points: 4
#     Node 14, Type 0, BuildingBlock: TATPOV_clean_sbu_0, # of connection points: 4
#     Node 15, Type 0, BuildingBlock: TATPOV_clean_sbu_0, # of connection points: 4
#     Node 16, Type 0, BuildingBlock: TATPOV_clean_sbu_0, # of connection points: 4
#     Node 17, Type 0, BuildingBlock: TATPOV_clean_sbu_0, # of connection points: 4
#     Node 18, Type 0, BuildingBlock: TATPOV_clean_sbu_0, # of connection points: 4
#     Node 19, Type 0, BuildingBlock: TATPOV_clean_sbu_0, # of connection points: 4
#     Node 20, Type 0, BuildingBlock: TATPOV_clean_sbu_0, # of connection points: 4
#     Node 21, Type 0, BuildingBlock: TATPOV_clean_sbu_0, # of connection points: 4
#     Node 22, Type 0, BuildingBlock: TATPOV_clean_sbu_0, # of connection points: 4
#     Node 23, Type 0, BuildingBlock: TATPOV_clean_sbu_0, # of connection points: 4
#     Node 24, Type 1, BuildingBlock: KUMJIN_clean_sbu_0, # of connection points: 6
#     Node 25, Type 1, BuildingBlock: KUMJIN_clean_sbu_0, # of connection points: 6
#     Node 26, Type 1, BuildingBlock: KUMJIN_clean_sbu_0, # of connection points: 6
#     Node 27, Type 1, BuildingBlock: KUMJIN_clean_sbu_0, # of connection points: 6
#     Node 28, Type 1, BuildingBlock: KUMJIN_clean_sbu_0, # of connection points: 6
#     Node 29, Type 1, BuildingBlock: KUMJIN_clean_sbu_0, # of connection points: 6
#     Node 30, Type 1, BuildingBlock: KUMJIN_clean_sbu_0, # of connection points: 6
#     Node 31, Type 1, BuildingBlock: KUMJIN_clean_sbu_0, # of connection points: 6
#     Node 32, Type 1, BuildingBlock: KUMJIN_clean_sbu_0, # of connection points: 6
#     Node 33, Type 1, BuildingBlock: KUMJIN_clean_sbu_0, # of connection points: 6
#     Node 34, Type 1, BuildingBlock: KUMJIN_clean_sbu_0, # of connection points: 6
#     Node 35, Type 1, BuildingBlock: KUMJIN_clean_sbu_0, # of connection points: 6
#     Node 36, Type 1, BuildingBlock: KUMJIN_clean_sbu_0, # of connection points: 6
#     Node 37, Type 1, BuildingBlock: KUMJIN_clean_sbu_0, # of connection points: 6
#     Node 38, Type 1, BuildingBlock: KUMJIN_clean_sbu_0, # of connection points: 6
#     Node 39, Type 1, BuildingBlock: KUMJIN_clean_sbu_0, # of connection points: 6
#     Edge 40, Type (0, 1), None
#     Edge 41, Type (0, 1), None
#     Edge 42, Type (0, 1), None
#     Edge 43, Type (0, 1), None
#     Edge 44, Type (0, 1), None
#     Edge 45, Type (0, 1), None
#     Edge 46, Type (0, 1), None
#     Edge 47, Type (0, 1), None
#     Edge 48, Type (0, 1), None
#     Edge 49, Type (0, 1), None
#     Edge 50, Type (0, 1), None
#     Edge 51, Type (0, 1), None
#     Edge 52, Type (0, 1), None
#     Edge 53, Type (0, 1), None
#     Edge 54, Type (0, 1), None
#     Edge 55, Type (0, 1), None
#     Edge 56, Type (0, 1), None
#     Edge 57, Type (0, 1), None
#     Edge 58, Type (0, 1), None
#     Edge 59, Type (0, 1), None
#     Edge 60, Type (0, 1), None
#     Edge 61, Type (0, 1), None
#     Edge 62, Type (0, 1), None
#     Edge 63, Type (0, 1), None
#     Edge 64, Type (0, 1), None
#     Edge 65, Type (0, 1), None
#     Edge 66, Type (0, 1), None
#     Edge 67, Type (0, 1), None
#     Edge 68, Type (0, 1), None
#     Edge 69, Type (0, 1), None
#     Edge 70, Type (0, 1), None
#     Edge 71, Type (0, 1), None
#     Edge 72, Type (0, 1), None
#     Edge 73, Type (0, 1), None
#     Edge 74, Type (0, 1), None
#     Edge 75, Type (0, 1), None
#     Edge 76, Type (0, 1), None
#     Edge 77, Type (0, 1), None
#     Edge 78, Type (0, 1), None
#     Edge 79, Type (0, 1), None
#     Edge 80, Type (0, 1), None
#     Edge 81, Type (0, 1), None
#     Edge 82, Type (0, 1), None
#     Edge 83, Type (0, 1), None
#     Edge 84, Type (0, 1), None
#     Edge 85, Type (0, 1), None
#     Edge 86, Type (0, 1), None
#     Edge 87, Type (0, 1), None
#     Edge 88, Type (0, 1), None
#     Edge 89, Type (0, 1), None
#     Edge 90, Type (0, 1), None
#     Edge 91, Type (0, 1), None
#     Edge 92, Type (0, 1), None
#     Edge 93, Type (0, 1), None
#     Edge 94, Type (0, 1), None
#     Edge 95, Type (0, 1), None
#     Edge 96, Type (0, 1), None
#     Edge 97, Type (0, 1), None
#     Edge 98, Type (0, 1), None
#     Edge 99, Type (0, 1), None
#     Edge 100, Type (0, 1), None
#     Edge 101, Type (0, 1), None
#     Edge 102, Type (0, 1), None
#     Edge 103, Type (0, 1), None
#     Edge 104, Type (0, 1), None
#     Edge 105, Type (0, 1), None
#     Edge 106, Type (0, 1), None
#     Edge 107, Type (0, 1), None
#     Edge 108, Type (0, 1), None
#     Edge 109, Type (0, 1), None
#     Edge 110, Type (0, 1), None
#     Edge 111, Type (0, 1), None
#     Edge 112, Type (0, 1), None
#     Edge 113, Type (0, 1), None
#     Edge 114, Type (0, 1), None
#     Edge 115, Type (0, 1), None
#     Edge 116, Type (0, 1), None
#     Edge 117, Type (0, 1), None
#     Edge 118, Type (0, 1), None
#     Edge 119, Type (0, 1), None
#     Edge 120, Type (0, 1), None
#     Edge 121, Type (0, 1), None
#     Edge 122, Type (0, 1), None
#     Edge 123, Type (0, 1), None
#     Edge 124, Type (0, 1), None
#     Edge 125, Type (0, 1), None
#     Edge 126, Type (0, 1), None
#     Edge 127, Type (0, 1), None
#     Edge 128, Type (0, 1), None
#     Edge 129, Type (0, 1), None
#     Edge 130, Type (0, 1), None
#     Edge 131, Type (0, 1), None
#     Edge 132, Type (0, 1), None
#     Edge 133, Type (0, 1), None
#     Edge 134, Type (0, 1), None
#     Edge 135, Type (0, 1), None
# Relax obj value: 0.273
# Max RMSD: 0.417
# Mean RMSD: 0.203
data_MOF--net-gar--node1-TATPOV_clean_sbu_0--node2-KUMJIN_clean_sbu_0--edge1-none
_symmetry_space_group_name_H-M    P1
_symmetry_Int_Tables_number       1
_symmetry_cell_setting            triclinic
loop_
_symmetry_equiv_pos_as_xyz
'x, y, z'
_cell_length_a     32.404057
_cell_length_b     26.902871
_cell_length_c     27.084089
_cell_angle_alpha  103.41063
_cell_angle_beta   95.045282
_cell_angle_gamma 104.38869
loop_
_atom_site_label
_atom_site_type_symbol
_atom_site_fract_x
_atom_site_fract_y
_atom_site_fract_z
_atom_type_partial_charge
Zn0 Zn 0.10594 0.32325 0.40917 0.0
Zn1 Zn 0.20062 0.388 0.38247 0.0
O2 O 0.18064 0.45413 0.41513 0.0
O3 O 0.11914 0.40612 0.43214 0.0
O4 O 0.26032 0.39993 0.35331 0.0
O5 O 0.15116 0.28407 0.40087 0.0
O6 O 0.20222 0.35277 0.44229 0.0
C7 C 0.1449 0.45079 0.43318 0.0
C8 C 0.11653 0.35701 0.31657 0.0
O9 O 0.15479 0.35238 0.31976 0.0
O10 O 0.09522 0.3557 0.35343 0.0
C11 C 0.2633 0.37321 0.30836 0.0
O12 O 0.22842 0.33946 0.2798 0.0
C13 C 0.17468 0.31013 0.4429 0.0
Zn14 Zn 0.0203 0.7127 0.71685 0.0
Zn15 Zn 0.04897 0.79783 0.6961 0.0
O16 O 0.9861 0.8018 0.71977 0.0
O17 O 0.96442 0.72536 0.73843 0.0
O18 O 0.0717 0.85739 0.66401 0.0
O19 O 0.07227 0.73143 0.77179 0.0
O20 O 0.09646 0.80958 0.75665 0.0
C21 C 0.95834 0.76989 0.73756 0.0
C22 C 0.05441 0.68968 0.62785 0.0
O23 O 0.06424 0.73998 0.64033 0.0
O24 O 0.02776 0.66451 0.65114 0.0
C25 C 0.06184 0.84497 0.6154 0.0
O26 O 0.02707 0.80592 0.59405 0.0
C27 C 0.10122 0.77513 0.78042 0.0
Zn28 Zn 0.60591 0.8231 0.90914 0.0
Zn29 Zn 0.70061 0.88793 0.88244 0.0
O30 O 0.68063 0.95407 0.91503 0.0
O31 O 0.6191 0.90601 0.93195 0.0
O32 O 0.7603 0.8999 0.8533 0.0
O33 O 0.65116 0.78397 0.90086 0.0
O34 O 0.7022 0.85272 0.94227 0.0
C35 C 0.64485 0.9507 0.933 0.0
C36 C 0.61654 0.85701 0.81662 0.0
O37 O 0.65476 0.85226 0.81975 0.0
O38 O 0.59527 0.85577 0.85352 0.0
C39 C 0.76328 0.87324 0.80832 0.0
O40 O 0.7284 0.83954 0.77972 0.0
C41 C 0.67466 0.81007 0.94289 0.0
Zn42 Zn 0.52028 0.21264 0.21681 0.0
Zn43 Zn 0.54898 0.29774 0.19611 0.0
O44 O 0.48614 0.30176 0.21983 0.0
O45 O 0.46441 0.2253 0.23842 0.0
O46 O 0.57163 0.35728 0.16398 0.0
O47 O 0.57228 0.23135 0.27171 0.0
O48 O 0.59653 0.30951 0.25663 0.0
C49 C 0.45836 0.26985 0.23759 0.0
C50 C 0.55432 0.18955 0.12779 0.0
O51 O 0.5642 0.23985 0.14029 0.0
O52 O 0.52767 0.1644 0.15109 0.0
C53 C 0.56173 0.34485 0.11538 0.0
O54 O 0.52696 0.3058 0.09406 0.0
C55 C 0.60126 0.27504 0.28036 0.0
Zn56 Zn 0.20738 0.84841 0.06248 0.0
Zn57 Zn 0.17506 0.86679 0.13789 0.0
O58 O 0.15726 0.93535 0.10911 0.0
O59 O 0.18431 0.92071 0.03951 0.0
O60 O 0.13624 0.86301 0.18871 0.0
O61 O 0.17349 0.75925 0.03184 0.0
O62 O 0.15009 0.77855 0.10375 0.0
C63 C 0.16268 0.94874 0.06657 0.0
C64 C 0.26916 0.86521 0.17002 0.0
O65 O 0.23675 0.87893 0.18716 0.0
O66 O 0.26634 0.85316 0.12062 0.0
C67 C 0.09717 0.83994 0.16928 0.0
O68 O 0.08498 0.83455 0.12035 0.0
C69 C 0.15295 0.74163 0.06518 0.0
Zn70 Zn 0.52307 0.79363 0.48746 0.0
Zn71 Zn 0.56046 0.78504 0.41149 0.0
O72 O 0.58183 0.86975 0.45507 0.0
O73 O 0.55487 0.8822 0.52537 0.0
O74 O 0.60418 0.79832 0.36404 0.0
O75 O 0.54743 0.72106 0.50776 0.0
O76 O 0.57547 0.71308 0.43802 0.0
C77 C 0.577 0.90341 0.49505 0.0
C78 C 0.46582 0.7864 0.37835 0.0
O79 O 0.49985 0.77693 0.3618 0.0
O80 O 0.46584 0.79082 0.4269 0.0
C81 C 0.60251 0.83618 0.34375 0.0
O82 O 0.56995 0.85689 0.34919 0.0
C83 C 0.5692 0.69541 0.47854 0.0
Zn84 Zn 0.70729 0.34843 0.56257 0.0
Zn85 Zn 0.67489 0.36675 0.63792 0.0
O86 O 0.65713 0.43534 0.60917 0.0
O87 O 0.68422 0.42072 0.53959 0.0
O88 O 0.6361 0.36299 0.68876 0.0
O89 O 0.67337 0.25923 0.53193 0.0
O90 O 0.64981 0.27853 0.60372 0.0
C91 C 0.66258 0.44875 0.56664 0.0
C92 C 0.76906 0.3652 0.67008 0.0
O93 O 0.73659 0.37879 0.68721 0.0
O94 O 0.76629 0.35327 0.62069 0.0
C95 C 0.59702 0.33993 0.66935 0.0
O96 O 0.5848 0.33461 0.62044 0.0
C97 C 0.6527 0.24162 0.56519 0.0
Zn98 Zn 0.02315 0.2937 0.98746 0.0
Zn99 Zn 0.06046 0.28502 0.91146 0.0
O100 O 0.08194 0.36977 0.955 0.0
O101 O 0.05502 0.38228 0.02532 0.0
O102 O 0.10413 0.29817 0.86394 0.0
O103 O 0.0475 0.22112 0.00776 0.0
O104 O 0.07547 0.21306 0.93798 0.0
C105 C 0.07716 0.40346 0.99499 0.0
C106 C 0.96581 0.28642 0.87838 0.0
O107 O 0.99983 0.27694 0.86181 0.0
O108 O 0.96587 0.29087 0.92695 0.0
C109 C 0.10246 0.336 0.84362 0.0
O110 O 0.06995 0.35678 0.84908 0.0
C111 C 0.06923 0.19543 0.97852 0.0
Zn112 Zn 0.55058 0.97558 0.3504 0.0
Zn113 Zn 0.48788 0.07526 0.31758 0.0
O114 O 0.51965 0.11707 0.39427 0.0
O115 O 0.5403 0.04835 0.36436 0.0
O116 O 0.43556 0.09484 0.29235 0.0
O117 O 0.55095 0.03626 0.31396 0.0
O118 O 0.52649 0.07452 0.26117 0.0
C119 C 0.54278 0.08712 0.40196 0.0
C120 C 0.46068 0.94368 0.30249 0.0
O121 O 0.46691 0.9931 0.30593 0.0
O122 O 0.49006 0.9253 0.32 0.0
C123 C 0.39975 0.05867 0.28001 0.0
O124 O 0.39546 1.01453 0.29416 0.0
C125 C 0.54323 0.03809 0.26768 0.0
Zn126 Zn 0.30898 0.29476 0.5249 0.0
Zn127 Zn 0.33946 0.21951 0.50641 0.0
O128 O 0.35706 0.25659 0.44348 0.0
O129 O 0.34483 0.33231 0.46874 0.0
O130 O 0.37461 0.17083 0.47945 0.0
O131 O 0.33626 0.32102 0.60729 0.0
O132 O 0.36554 0.25603 0.58718 0.0
C133 C 0.36075 0.30283 0.43618 0.0
C134 C 0.2401 0.18221 0.50448 0.0
O135 O 0.27506 0.16793 0.50343 0.0
O136 O 0.24432 0.23127 0.50532 0.0
C137 C 0.40611 0.15408 0.49228 0.0
O138 O 0.4234 0.12968 0.45525 0.0
C139 C 0.35857 0.29299 0.62234 0.0
Zn140 Zn 0.18063 0.10328 0.7762 0.0
Zn141 Zn 0.23506 0.0374 0.76855 0.0
O142 O 0.19719 0.04104 0.84601 0.0
O143 O 0.14934 0.08535 0.8394 0.0
O144 O 0.27194 0.96269 0.75789 0.0
O145 O 0.1492 0.08082 0.69772 0.0
O146 O 0.19621 0.03441 0.68611 0.0
C147 C 0.16576 0.05935 0.8656 0.0
C148 C 0.276 0.16599 0.78356 0.0
O149 O 0.28319 0.11923 0.7759 0.0
O150 O 0.23808 0.16811 0.79089 0.0
C151 C 0.305 0.94782 0.77801 0.0
O152 O 0.32848 0.98091 0.82029 0.0
C153 C 0.16709 0.05402 0.66567 0.0
Zn154 Zn 0.49019 0.98215 0.98821 0.0
Zn155 Zn 0.41815 1.00994 0.00294 0.0
O156 O 0.41537 0.96581 0.93051 0.0
O157 O 0.46294 0.91927 0.93521 0.0
O158 O 0.36989 0.04096 0.0072 0.0
O159 O 0.47885 0.98533 0.06167 0.0
O160 O 0.40954 0.95642 0.04208 0.0
C161 C 0.4316 0.92811 0.91163 0.0
C162 C 0.50249 0.07197 0.00984 0.0
O163 O 0.47263 0.0697 0.03677 0.0
O164 O 0.49114 0.04823 0.96314 0.0
C165 C 0.38125 0.08821 0.00344 0.0
O166 O 0.4189 0.10633 0.99028 0.0
C167 C 0.44439 0.95327 0.0641 0.0
Zn168 Zn 0.42661 0.35508 0.03247 0.0
Zn169 Zn 0.39472 0.43129 0.04418 0.0
O170 O 0.37472 0.3933 0.96515 0.0
O171 O 0.39681 0.32291 0.94913 0.0
O172 O 0.35927 0.48122 0.03869 0.0
O173 O 0.39574 0.32686 0.09617 0.0
O174 O 0.36933 0.39444 0.10693 0.0
C175 C 0.37873 0.35368 0.93175 0.0
C176 C 0.49495 0.46541 0.04668 0.0
O177 O 0.46028 0.4801 0.04832 0.0
O178 O 0.49094 0.41693 0.04751 0.0
C179 C 0.36646 0.50054 0.00049 0.0
O180 O 0.4023 0.49965 0.98159 0.0
C181 C 0.37252 0.35262 0.12135 0.0
Zn182 Zn 0.73812 0.17593 0.06815 0.0
Zn183 Zn 0.8094 0.13993 0.05468 0.0
O184 O 0.81813 0.19139 0.01379 0.0
O185 O 0.74873 0.16655 0.99419 0.0
O186 O 0.85702 0.10731 0.04697 0.0
O187 O 0.76996 0.23819 0.11886 0.0
O188 O 0.81376 0.18717 0.12636 0.0
C189 C 0.78424 0.19517 0.99021 0.0
C190 C 0.72407 0.08507 0.05117 0.0
O191 O 0.75352 0.08156 0.02419 0.0
O192 O 0.7363 0.11234 0.09677 0.0
C193 C 0.85628 0.086 -0.00012 0.0
O194 O 0.82683 0.08983 0.96547 0.0
C195 C 0.79913 0.22679 0.14393 0.0
Zn196 Zn 0.18987 0.71591 0.20601 0.0
Zn197 Zn 0.25899 0.60129 0.25145 0.0
O198 O 0.22514 0.62824 0.30805 0.0
O199 O 0.20533 0.66707 0.2521 0.0
O200 O 0.29898 0.56589 0.28228 0.0
O201 O 0.20551 0.64135 0.19909 0.0
O202 O 0.21751 0.56349 0.18047 0.0
C203 C 0.208 0.66321 0.29822 0.0
C204 C 0.28441 0.70379 0.2406 0.0
O205 O 0.30287 0.66966 0.24866 0.0
O206 O 0.24415 0.68748 0.22299 0.0
C207 C 0.32051 0.59972 0.32347 0.0
O208 O 0.30959 0.64386 0.33983 0.0
C209 C 0.19632 0.59451 0.16894 0.0
Zn210 Zn 0.92659 0.85514 0.53244 0.0
Zn211 Zn 0.8947 0.93138 0.54418 0.0
O212 O 0.87473 0.89341 0.46515 0.0
O213 O 0.89683 0.82301 0.4491 0.0
O214 O 0.85921 0.98129 0.53871 0.0
O215 O 0.89572 0.82692 0.59615 0.0
O216 O 0.86932 0.8945 0.60693 0.0
C217 C 0.87875 0.8538 0.43174 0.0
C218 C 0.99494 0.96544 0.54663 0.0
O219 O 0.96028 0.98016 0.5483 0.0
O220 O 0.99091 0.91696 0.54746 0.0
C221 C 0.86638 1.00064 0.50053 0.0
O222 O 0.90222 0.99978 0.4816 0.0
C223 C 0.87251 0.85268 0.62133 0.0
Zn224 Zn 0.0507 0.04229 0.27078 0.0
Zn225 Zn 0.99552 0.1076 0.27861 0.0
O226 O 0.03535 0.11305 0.3622 0.0
O227 O 0.08197 0.06599 0.3498 0.0
O228 O 0.95394 0.17802 0.2796 0.0
O229 O 0.0823 0.0618 0.20741 0.0
O230 O 0.0346 0.10607 0.20138 0.0
C231 C 0.06472 0.0933 0.3823 0.0
C232 C 0.95621 0.97706 0.26526 0.0
O233 O 0.94863 0.02373 0.27244 0.0
O234 O 0.99407 0.97555 0.25707 0.0
C235 C 0.93141 0.21055 0.30278 0.0
O236 O 0.92919 0.21341 0.35136 0.0
C237 C 0.06646 0.08871 0.18171 0.0
Zn238 Zn 0.23827 0.67595 0.56817 0.0
Zn239 Zn 0.30943 0.64001 0.5547 0.0
O240 O 0.31819 0.69151 0.51384 0.0
O241 O 0.24879 0.66664 0.49419 0.0
O242 O 0.35703 0.60737 0.54695 0.0
O243 O 0.26996 0.73823 0.61886 0.0
O244 O 0.31372 0.68717 0.62638 0.0
C245 C 0.28431 0.69526 0.49022 0.0
C246 C 0.22414 0.58513 0.55126 0.0
O247 O 0.25357 0.58165 0.52424 0.0
O248 O 0.23639 0.61236 0.59687 0.0
C249 C 0.3562 0.58597 0.49985 0.0
O250 O 0.32669 0.58976 0.46549 0.0
C251 C 0.29906 0.72675 0.64396 0.0
Zn252 Zn 0.5507 0.54228 0.77084 0.0
Zn253 Zn 0.49545 0.60754 0.77865 0.0
O254 O 0.53529 0.613 0.86225 0.0
O255 O 0.58195 0.56599 0.84987 0.0
O256 O 0.45381 0.67791 0.77965 0.0
O257 O 0.58229 0.56184 0.70749 0.0
O258 O 0.53456 0.60605 0.70143 0.0
C259 C 0.56468 0.59328 0.88236 0.0
C260 C 0.45621 0.47697 0.76525 0.0
O261 O 0.4486 0.52363 0.77243 0.0
O262 O 0.49409 0.4755 0.75709 0.0
C263 C 0.43123 0.7104 0.80282 0.0
O264 O 0.42896 0.7132 0.85138 0.0
C265 C 0.56644 0.58872 0.68177 0.0
Zn266 Zn 0.68974 0.21586 0.706 0.0
Zn267 Zn 0.75887 0.10125 0.7515 0.0
O268 O 0.72512 0.12833 0.80814 0.0
O269 O 0.70526 0.16711 0.75216 0.0
O270 O 0.79888 0.06586 0.78232 0.0
O271 O 0.70531 0.14126 0.69914 0.0
O272 O 0.71725 0.06336 0.68062 0.0
C273 C 0.70796 0.16329 0.79829 0.0
C274 C 0.7843 0.2037 0.74051 0.0
O275 O 0.80275 0.16956 0.74855 0.0
O276 O 0.74403 0.18741 0.72292 0.0
C277 C 0.82046 0.09973 0.82346 0.0
O278 O 0.80957 0.1439 0.83978 0.0
C279 C 0.69603 0.09436 0.66909 0.0
Zn280 Zn 0.80895 0.79479 0.0249 0.0
Zn281 Zn 0.83943 0.71953 0.00642 0.0
O282 O 0.85704 0.75659 0.94347 0.0
O283 O 0.8448 0.83231 0.96872 0.0
O284 O 0.87462 0.67086 0.97954 0.0
O285 O 0.83625 0.82109 0.10728 0.0
O286 O 0.86547 0.75606 0.08719 0.0
C287 C 0.86072 0.80283 0.93616 0.0
C288 C 0.74007 0.68225 0.00451 0.0
O289 O 0.77503 0.66797 0.00344 0.0
O290 O 0.74428 0.73131 0.00536 0.0
C291 C 0.90612 0.65408 0.99232 0.0
O292 O 0.92334 0.62965 0.95524 0.0
C293 C 0.85852 0.79304 0.12234 0.0
Zn294 Zn 0.05042 0.47551 0.85042 0.0
Zn295 Zn 0.9878 0.5753 0.81767 0.0
O296 O 0.01968 0.61715 0.89432 0.0
O297 O 0.04014 0.54828 0.86443 0.0
O298 O 0.93554 0.59498 0.79253 0.0
O299 O 0.05068 0.53614 0.81398 0.0
O300 O 0.02633 0.57447 0.76119 0.0
C301 C 0.04275 0.58714 0.90199 0.0
C302 C 0.96051 0.44369 0.80254 0.0
O303 O 0.96672 0.49311 0.80597 0.0
O304 O 0.98991 0.42532 0.82002 0.0
C305 C 0.89969 0.55888 0.78035 0.0
O306 O 0.89536 0.51484 0.79468 0.0
C307 C 0.04301 0.53799 0.76771 0.0
Zn308 Zn 0.99028 0.48234 0.48828 0.0
Zn309 Zn 0.9183 0.51014 0.50297 0.0
O310 O 0.91552 0.46614 0.43047 0.0
O311 O 0.96299 0.41948 0.43523 0.0
O312 O 0.87003 0.54114 0.50728 0.0
O313 O 0.97898 0.48549 0.56175 0.0
O314 O 0.90967 0.45653 0.54202 0.0
C315 C 0.93172 0.42841 0.41159 0.0
C316 C 1.00265 0.57217 0.51002 0.0
O317 O 0.97276 0.5699 0.53691 0.0
O318 O 0.99132 0.54849 0.46331 0.0
C319 C 0.88133 0.58837 0.5035 0.0
O320 O 0.91897 0.60655 0.49033 0.0
C321 C 0.94451 0.45342 0.56413 0.0
Zn322 Zn 0.68061 0.60339 0.2763 0.0
Zn323 Zn 0.73507 0.53752 0.26865 0.0
O324 O 0.69717 0.54111 0.34608 0.0
O325 O 0.64932 0.58541 0.33947 0.0
O326 O 0.77199 0.46283 0.25799 0.0
O327 O 0.64919 0.58091 0.19781 0.0
O328 O 0.69622 0.53451 0.18622 0.0
C329 C 0.66573 0.5594 0.36566 0.0
C330 C 0.77597 0.66614 0.28368 0.0
O331 O 0.78317 0.61939 0.27603 0.0
O332 O 0.73804 0.66826 0.291 0.0
C333 C 0.8051 0.448 0.27805 0.0
O334 O 0.82866 0.48116 0.32024 0.0
C335 C 0.66709 0.55412 0.16577 0.0
Eu336 Eu 0.06887 0.03353 0.99833 0.0
C337 C 0.18177 0.24468 0.086 0.0
C338 C 0.20913 0.27831 0.01626 0.0
C339 C 0.21908 0.33896 0.10017 0.0
C340 C 0.18881 0.23554 0.03592 0.0
C341 C 0.19486 0.29741 0.11776 0.0
C342 C 0.2264 0.32934 0.04935 0.0
C343 C 0.15715 0.26599 0.18141 0.0
N344 N 0.16136 0.20248 0.10332 0.0
C345 C 0.14615 0.21419 0.14958 0.0
C346 C 0.18329 0.30726 0.16634 0.0
Eu347 Eu 0.16381 0.11484 0.04908 0.0
N348 N 0.1722 0.18558 0.00515 0.0
C349 C 0.16651 0.17944 0.953 0.0
C350 C 0.20946 0.26918 0.96351 0.0
C351 C 0.18605 0.2201 0.9315 0.0
H352 H 0.12862 0.18538 0.16659 0.0
H353 H 0.18227 0.21373 0.8902 0.0
H354 H 0.24337 0.36212 0.03535 0.0
H355 H 0.14698 0.27348 0.21881 0.0
H356 H 0.14498 0.14496 0.92731 0.0
H357 H 0.03843 0.93474 0.15556 0.0
H358 H 0.22456 0.30083 0.94694 0.0
H359 H 0.12815 0.9627 0.90706 0.0
H360 H 0.08209 1.00222 0.12027 0.0
H361 H 0.10499 0.87856 0.84456 0.0
H362 H 0.2308 0.37906 0.125 0.0
H363 H 0.99509 0.8489 0.09663 0.0
H364 H 0.9807 0.78715 0.00692 0.0
H365 H 0.19425 0.3468 0.19188 0.0
H366 H 1.00061 0.771 0.91982 0.0
N367 N 0.05639 0.9628 0.04233 0.0
C368 C 0.05978 0.96874 0.0942 0.0
C369 C 0.01264 0.88019 0.08117 0.0
C370 C 0.01632 0.87077 0.02909 0.0
C371 C 0.03669 0.92867 0.1144 0.0
C372 C 0.03983 0.91315 0.01149 0.0
H373 H 0.04468 0.80638 0.85643 0.0
N374 N 0.07722 0.94638 0.95181 0.0
C375 C 0.08902 0.88483 0.87784 0.0
C376 C 0.05222 0.90403 0.96461 0.0
C377 C 0.10098 0.93481 0.91326 0.0
C378 C 0.05588 0.84421 0.88512 0.0
C379 C 0.03981 0.85215 0.93142 0.0
O380 O 1.00722 0.03154 0.95528 0.0
O381 O 0.09659 0.12483 0.02405 0.0
O382 O 0.12684 0.10394 0.12255 0.0
O383 O 0.05739 0.07346 0.0827 0.0
O384 O 0.06282 0.09478 0.95111 0.0
O385 O 1.00745 1.00833 0.02677 0.0
O386 O 0.22694 0.1054 0.07816 0.0
O387 O 0.13092 0.02656 0.03499 0.0
O388 O 0.10664 0.04127 0.92483 0.0
O389 O 0.17506 0.08036 0.96408 0.0
O390 O 0.18719 0.05017 0.081 0.0
O391 O 0.22266 0.14655 0.01892 0.0
C392 C 0.08048 0.14001 0.98502 0.0
C393 C 0.9387 1.00908 0.98542 0.0
C394 C 0.87626 0.04318 0.98681 0.0
C395 C 0.92108 0.05234 0.99548 0.0
C396 C 0.84934 0.99151 0.96831 0.0
C397 C 0.91138 0.95717 0.97118 0.0
C398 C 0.86686 0.94898 0.96123 0.0
C399 C 0.08421 0.09303 0.12717 0.0
C400 C 0.98529 0.01796 0.99007 0.0
C401 C 0.01172 0.81066 0.94557 0.0
C402 C 1.00011 0.81994 0.99484 0.0
C403 C 0.158 1.00616 0.05822 0.0
C404 C 0.29325 0.14458 0.05081 0.0
C405 C 0.31427 0.10999 0.02409 0.0
C406 C 0.35911 0.12537 0.02812 0.0
C407 C 0.38327 0.17411 0.06114 0.0
C408 C 0.31749 0.19458 0.08183 0.0
C409 C 0.36243 0.20777 0.0889 0.0
C410 C 0.1488 0.0565 0.92022 0.0
C411 C 0.24632 0.12628 0.04487 0.0
H412 H 0.94197 0.09266 0.00906 0.0
H413 H 0.81459 0.98391 0.96092 0.0
H414 H 0.92445 0.92328 0.96517 0.0
H415 H 0.84534 0.91012 0.94683 0.0
H416 H 0.29576 0.07119 1e-05 0.0
H417 H 0.41823 0.18525 0.06701 0.0
H418 H 0.30236 0.22325 0.10085 0.0
H419 H 0.38152 0.24345 0.1165 0.0
Eu420 Eu 0.39115 0.802 0.2216 0.0
C421 C 0.29858 0.93573 0.38457 0.0
C422 C 0.35201 0.9973 0.45391 0.0
C423 C 0.27696 0.97465 0.46486 0.0
C424 C 0.34094 0.96114 0.4047 0.0
C425 C 0.26578 0.94275 0.41391 0.0
C426 C 0.3198 1.00373 0.48409 0.0
C427 C 0.2142 0.886 0.34065 0.0
N428 N 0.28999 0.89958 0.33835 0.0
C429 C 0.24812 0.87646 0.31502 0.0
C430 C 0.22307 0.9163 0.39158 0.0
Eu431 Eu 0.34495 0.85569 0.32647 0.0
N432 N 0.37132 0.94499 0.37894 0.0
C433 C 0.41362 0.96847 0.39867 0.0
C434 C 0.39537 0.02232 0.47295 0.0
C435 C 0.42632 1.00996 0.4437 0.0
H436 H 0.24025 0.84817 0.27782 0.0
H437 H 0.46 0.02917 0.45824 0.0
H438 H 0.32785 0.02948 0.52286 0.0
H439 H 0.18124 0.86794 0.32181 0.0
H440 H 0.43728 0.95138 0.38387 0.0
H441 H 0.2762 0.62921 0.09177 0.0
H442 H 0.40528 0.04953 0.51081 0.0
H443 H 0.49715 0.81938 0.27159 0.0
H444 H 0.29838 0.71532 0.15655 0.0
H445 H 0.55598 0.7905 0.23238 0.0
H446 H 0.25273 0.97754 0.48955 0.0
H447 H 0.33242 0.60006 0.04886 0.0
H448 H 0.40884 0.6207 0.03755 0.0
H449 H 0.1967 0.92035 0.41241 0.0
H450 H 0.48323 0.67456 0.06998 0.0
N451 N 0.36295 0.71319 0.17308 0.0
C452 C 0.32144 0.69332 0.14851 0.0
C453 C 0.34112 0.62933 0.08506 0.0
C454 C 0.38417 0.65415 0.10547 0.0
C455 C 0.30937 0.64729 0.10835 0.0
C456 C 0.3943 0.69271 0.15328 0.0
H457 H 0.53908 0.72989 0.1454 0.0
N458 N 0.44703 0.75932 0.21762 0.0
C459 C 0.52274 0.77043 0.2155 0.0
C460 C 0.43748 0.71802 0.17454 0.0
C461 C 0.4893 0.78469 0.23914 0.0
C462 C 0.51312 0.73588 0.1665 0.0
C463 C 0.47018 0.70929 0.14537 0.0
O464 O 0.44375 0.83034 0.18317 0.0
O465 O 0.40422 0.86749 0.29258 0.0
O466 O 0.31631 0.8834 0.25705 0.0
O467 O 0.32758 0.82071 0.18848 0.0
O468 O 0.41534 0.89038 0.22797 0.0
O469 O 0.37859 0.78824 0.13884 0.0
O470 O 0.29849 0.80602 0.36016 0.0
O471 O 0.34537 0.78001 0.27184 0.0
O472 O 0.42469 0.77811 0.29068 0.0
O473 O 0.40517 0.82991 0.3611 0.0
O474 O 0.28595 0.79178 0.28079 0.0
O475 O 0.3579 0.86312 0.40816 0.0
C476 C 0.41948 0.90704 0.27678 0.0
C477 C 0.43295 0.82683 0.09694 0.0
C478 C 0.44767 0.90107 0.06265 0.0
C479 C 0.42665 0.87511 0.0951 0.0
C480 C 0.47427 0.87836 0.03117 0.0
C481 C 0.45724 0.80208 0.06415 0.0
C482 C 0.47778 0.82793 0.03066 0.0
C483 C 0.30706 0.85746 0.20665 0.0
C484 C 0.42006 0.80622 0.1381 0.0
C485 C 0.459 0.67718 0.09475 0.0
C486 C 0.41657 0.64703 0.07605 0.0
C487 C 0.30575 0.75997 0.25773 0.0
C488 C 0.30607 0.81746 0.44938 0.0
C489 C 0.30694 0.76786 0.4533 0.0
C490 C 0.28409 0.74714 0.48739 0.0
C491 C 0.26151 0.77649 0.51919 0.0
C492 C 0.28506 0.84831 0.48131 0.0
C493 C 0.2638 0.82825 0.51766 0.0
C494 C 0.42909 0.79723 0.34195 0.0
C495 C 0.31993 0.83112 0.40554 0.0
H496 H 0.40791 0.89386 0.12112 0.0
H497 H 0.4937 0.90011 0.0087 0.0
H498 H 0.46214 0.76444 0.06619 0.0
H499 H 0.4982 0.81037 0.00669 0.0
H500 H 0.32333 0.74429 0.42796 0.0
H501 H 0.24209 0.75964 0.5447 0.0
H502 H 0.28565 0.88748 0.47869 0.0
H503 H 0.24918 0.85257 0.54413 0.0
Eu504 Eu 0.65622 0.06291 0.50041 0.0
C505 C 0.52814 0.98635 0.60326 0.0
C506 C 0.47994 0.92043 0.53033 0.0
C507 C 0.4748 0.9117 0.61559 0.0
C508 C 0.51225 0.96881 0.55033 0.0
C509 C 0.50832 0.95815 0.63597 0.0
C510 C 0.4631 0.89089 0.563 0.0
C511 C 0.55684 0.02255 0.70819 0.0
N512 N 0.5609 0.03169 0.62317 0.0
C513 C 0.57452 0.0509 0.67499 0.0
C514 C 0.52282 0.97708 0.68841 0.0
Eu515 Eu 0.5725 0.08222 0.56515 0.0
N516 N 0.52901 0.99767 0.51825 0.0
C517 C 0.51845 0.97702 0.46603 0.0
C518 C 0.4671 0.90117 0.47765 0.0
C519 C 0.48931 0.92707 0.44543 0.0
H520 H 0.59674 0.08973 0.69173 0.0
H521 H 0.4832 0.90889 0.40472 0.0
H522 H 0.44174 0.85145 0.54747 0.0
H523 H 0.56805 0.03721 0.74905 0.0
H524 H 0.53369 0.99651 0.43978 0.0
H525 H 0.76627 0.25415 0.60868 0.0
H526 H 0.44087 0.86555 0.4618 0.0
H527 H 0.63089 1.00749 0.37205 0.0
H528 H 0.71616 0.16545 0.59922 0.0
H529 H 0.63055 0.04208 0.29471 0.0
H530 H 0.45864 0.89056 0.63996 0.0
H531 H 0.78202 0.28567 0.53225 0.0
H532 H 0.76348 0.27206 0.4376 0.0
H533 H 0.50738 0.95683 0.71359 0.0
H534 H 0.71167 0.21941 0.35647 0.0
N535 N 0.70315 0.14804 0.51784 0.0
C536 C 0.72306 0.17882 0.56549 0.0
C537 C 0.76043 0.24652 0.52763 0.0
C538 C 0.73827 0.21535 0.47928 0.0
C539 C 0.75185 0.22869 0.57103 0.0
C540 C 0.70964 0.16536 0.47537 0.0
H541 H 0.65875 0.13876 0.30577 0.0
N542 N 0.66304 0.08343 0.42265 0.0
C543 C 0.64581 0.06817 0.33201 0.0
C544 C 0.68696 0.13364 0.42754 0.0
C545 C 0.64683 0.0487 0.37526 0.0
C546 C 0.6631 0.12232 0.33802 0.0
C547 C 0.68795 0.15395 0.38479 0.0
O548 O 0.6841 1.00846 0.45163 0.0
O549 O 0.5993 1.0125 0.52574 0.0
O550 O 0.63253 0.10284 0.62398 0.0
O551 O 0.67475 0.05682 0.57992 0.0
O552 O 0.63101 0.9732 0.47503 0.0
O553 O 0.72171 0.0611 0.5242 0.0
O554 O 0.54332 0.12318 0.6275 0.0
O555 O 0.63105 0.13302 0.54142 0.0
O556 O 0.60069 0.06843 0.44604 0.0
O557 O 0.55321 0.10274 0.49277 0.0
O558 O 0.59358 0.1731 0.58277 0.0
O559 O 0.5043 0.07323 0.55574 0.0
C560 C 0.60224 0.96416 0.50386 0.0
C561 C 0.75945 0.02329 0.46101 0.0
C562 C 0.83114 1.01125 0.47009 0.0
C563 C 0.7924 1.01155 0.48891 0.0
C564 C 0.8347 0.0174 0.42029 0.0
C565 C 0.76334 0.03014 0.41174 0.0
C566 C 0.8005 0.02566 0.39103 0.0
C567 C 0.66476 0.0811 0.62264 0.0
C568 C 0.72028 0.02333 0.48322 0.0
C569 C 0.71387 0.20454 0.38943 0.0
C570 C 0.7415 0.23394 0.43537 0.0
C571 C 0.62718 0.1814 0.5603 0.0
C572 C 0.47497 0.13711 0.60167 0.0
C573 C 0.46387 0.15177 0.55699 0.0
C574 C 0.42315 0.1596 0.54622 0.0
C575 C 0.39604 0.1598 0.58388 0.0
C576 C 0.44828 0.13903 0.63964 0.0
C577 C 0.40938 0.15163 0.63116 0.0
C578 C 0.56878 0.09104 0.45014 0.0
C579 C 0.50474 0.10391 0.60078 0.0
H580 H 0.78831 1.00449 0.52629 0.0
H581 H 0.86356 0.01515 0.4036 0.0
H582 H 0.73756 0.0378 0.38902 0.0
H583 H 0.80302 0.02932 0.35246 0.0
H584 H 0.48425 0.14921 0.52731 0.0
H585 H 0.3634 0.16197 0.57543 0.0
H586 H 0.45573 0.12663 0.67391 0.0
H587 H 0.38787 0.15058 0.65954 0.0
Eu588 Eu 0.32491 0.35038 0.78002 0.0
C589 C 0.43443 0.2486 0.87115 0.0
C590 C 0.4835 0.3239 0.93322 0.0
C591 C 0.46357 0.23902 0.95347 0.0
C592 C 0.45592 0.3023 0.88618 0.0
C593 C 0.43767 0.21664 0.90519 0.0
C594 C 0.48749 0.29236 0.96675 0.0
C595 C 0.39124 0.14191 0.8407 0.0
N596 N 0.40971 0.22782 0.82416 0.0
C597 C 0.39302 0.17365 0.80669 0.0
C598 C 0.4144 0.16319 0.88987 0.0
Eu599 Eu 0.40904 0.29212 0.77636 0.0
N600 N 0.44618 0.3348 0.85815 0.0
C601 C 0.45591 0.38795 0.8793 0.0
C602 C 0.50122 0.37834 0.94848 0.0
C603 C 0.48109 0.40992 0.92685 0.0
H604 H 0.3789 0.15466 0.76699 0.0
H605 H 0.48429 0.45067 0.94598 0.0
H606 H 0.50772 0.30949 0.00373 0.0
H607 H 0.37223 0.1009 0.82874 0.0
H608 H 0.44134 0.41265 0.86174 0.0
H609 H 0.25714 0.18951 0.60864 0.0
H610 H 0.52646 0.39536 0.98049 0.0
H611 H 0.3458 0.48627 0.78983 0.0
H612 H 0.30104 0.23156 0.69174 0.0
H613 H 0.34864 0.53993 0.72728 0.0
H614 H 0.46626 0.21514 0.98014 0.0
H615 H 0.20923 0.24007 0.57541 0.0
H616 H 0.2236 0.32527 0.55098 0.0
H617 H 0.41484 0.13763 0.91494 0.0
H618 H 0.2595 0.42094 0.57478 0.0
N619 N 0.28876 0.30663 0.69729 0.0
C620 C 0.28421 0.25443 0.67468 0.0
C621 C 0.23484 0.25876 0.60664 0.0
C622 C 0.24782 0.31343 0.62273 0.0
C623 C 0.25907 0.2303 0.62723 0.0
C624 C 0.27438 0.33703 0.67021 0.0
H625 H 0.30718 0.50124 0.6402 0.0
N626 N 0.31509 0.41319 0.73328 0.0
C627 C 0.33019 0.49889 0.71615 0.0
C628 C 0.29136 0.39128 0.68596 0.0
C629 C 0.33017 0.46746 0.7506 0.0
C630 C 0.30801 0.47647 0.66642 0.0
C631 C 0.2868 0.42234 0.65138 0.0
O632 O 0.29163 0.40096 0.82604 0.0
O633 O 0.36325 0.31633 0.83154 0.0
O634 O 0.34664 0.22071 0.76482 0.0
O635 O 0.29629 0.26399 0.79011 0.0
O636 O 0.35428 0.39049 0.86309 0.0
O637 O 0.25731 0.31913 0.78642 0.0
O638 O 0.43983 0.2327 0.73924 0.0
O639 O 0.36581 0.3172 0.72402 0.0
O640 O 0.38455 0.42161 0.78066 0.0
O641 O 0.43831 0.3799 0.76733 0.0
O642 O 0.40325 0.27334 0.68883 0.0
O643 O 0.47854 0.31201 0.78477 0.0
C644 C 0.36696 0.35202 0.87433 0.0
C645 C 0.21502 0.37802 0.81027 0.0
C646 C 0.1397 0.36289 0.82237 0.0
C647 C 0.17811 0.34769 0.82413 0.0
C648 C 0.13857 0.40798 0.80506 0.0
C649 C 0.21353 0.42352 0.79443 0.0
C650 C 0.17518 0.43801 0.79117 0.0
C651 C 0.30877 0.21922 0.78097 0.0
C652 C 0.25535 0.36348 0.81673 0.0
C653 C 0.26272 0.39806 0.60225 0.0
C654 C 0.24121 0.34401 0.58913 0.0
C655 C 0.37633 0.29914 0.67927 0.0
C656 C 0.51444 0.26036 0.7308 0.0
C657 C 0.53439 0.29979 0.70791 0.0
C658 C 0.5744 0.29953 0.69237 0.0
C659 C 0.59385 0.25981 0.69897 0.0
C660 C 0.53342 0.21994 0.7352 0.0
C661 C 0.57313 0.21984 0.71992 0.0
C662 C 0.42417 0.42352 0.7701 0.0
C663 C 0.47835 0.26463 0.75832 0.0
H664 H 0.17999 0.31363 0.83827 0.0
H665 H 0.1099 0.42134 0.80418 0.0
H666 H 0.24233 0.4483 0.78603 0.0
H667 H 0.17407 0.4734 0.7793 0.0
H668 H 0.52003 0.3314 0.70433 0.0
H669 H 0.62504 0.25952 0.68774 0.0
H670 H 0.51821 0.18928 0.7519 0.0
H671 H 0.58803 0.18914 0.72489 0.0
Eu672 Eu 0.09733 0.12604 0.55351 0.0
C673 C 0.16672 1.00535 0.38181 0.0
C674 C 0.10184 0.95847 0.32092 0.0
C675 C 0.17033 0.97555 0.29026 0.0
C676 C 0.12271 0.98478 0.37159 0.0
C677 C 0.19093 1.00239 0.34061 0.0
C678 C 0.12577 0.95346 0.28056 0.0
C679 C 0.25458 0.05078 0.40145 0.0
N680 N 0.18569 0.02885 0.4315 0.0
C681 C 0.22992 0.04877 0.44121 0.0
C682 C 0.23513 0.02665 0.35093 0.0
Eu683 Eu 0.1364 0.021 0.49471 0.0
N684 N 0.09974 0.99402 0.4104 0.0
C685 C 0.05639 0.98275 0.40043 0.0
C686 C 0.05712 0.94182 0.31158 0.0
C687 C 0.03467 0.95827 0.3507 0.0
H688 H 0.24748 0.06216 0.47981 0.0
H689 H 1.00127 0.95519 0.34207 0.0
H690 H 0.10966 0.9356 0.24146 0.0
H691 H 0.28919 0.06781 0.41022 0.0
H692 H 0.03977 0.99733 0.43054 0.0
H693 H 0.23172 0.19315 0.70838 0.0
H694 H 0.04006 0.92061 0.27337 0.0
H695 H 0.98561 0.085 0.56791 0.0
H696 H 0.19403 0.15138 0.61882 0.0
H697 H 0.94396 0.07756 0.63748 0.0
H698 H 0.18848 0.9725 0.25846 0.0
H699 H 0.19213 0.22647 0.77618 0.0
H700 H 0.12169 0.21724 0.80636 0.0
H701 H 0.25466 0.02569 0.32041 0.0
H702 H 0.04321 0.17823 0.78864 0.0
N703 N 0.13357 0.15296 0.63841 0.0
C704 C 0.17699 0.16477 0.64902 0.0
C705 C 0.17537 0.20575 0.73771 0.0
C706 C 0.13065 0.18983 0.72758 0.0
C707 C 0.19825 0.18941 0.69904 0.0
C708 C 0.1102 0.1626 0.67681 0.0
H709 H 0.97804 0.12082 0.72717 0.0
N710 N 0.04737 0.11808 0.61635 0.0
C711 C 0.97849 0.09527 0.64629 0.0
C712 C 0.06616 0.14192 0.66616 0.0
C713 C 1.00312 0.09803 0.60659 0.0
C714 C 0.99769 0.11997 0.69677 0.0
C715 C 0.04169 0.1453 0.70714 0.0
O716 O 0.0637 0.18673 0.55078 0.0
O717 O 0.10016 0.07979 0.47267 0.0
O718 O 0.19533 0.09466 0.51289 0.0
O719 O 0.16191 0.16061 0.52197 0.0
O720 O 0.06289 0.13154 0.47679 0.0
O721 O 0.13136 0.2087 0.58489 0.0
O722 O 0.17199 0.96212 0.49436 0.0
O723 O 0.13332 0.06765 0.57507 0.0
O724 O 0.03909 0.05248 0.5379 0.0
O725 O 0.07154 0.98556 0.52474 0.0
O726 O 0.17066 0.01637 0.57189 0.0
O727 O 0.10261 0.93672 0.47055 0.0
C728 C 0.07798 0.10084 0.44332 0.0
C729 C 0.11058 0.26763 0.54484 0.0
C730 C 0.15305 0.31141 0.48901 0.0
C731 C 0.13456 0.26486 0.50359 0.0
C732 C 0.14588 0.35916 0.51504 0.0
C733 C 0.1022 0.31497 0.56804 0.0
C734 C 0.11869 0.36011 0.55217 0.0
C735 C 0.1966 0.14382 0.51179 0.0
C736 C 0.09911 0.22508 0.57005 0.0
C737 C 0.06174 0.17403 0.75727 0.0
C738 C 0.10619 0.19686 0.76732 0.0
C739 C 0.15505 0.0468 0.60482 0.0
C740 C 0.13232 0.88838 0.51959 0.0
C741 C 0.09944 0.88444 0.55067 0.0
C742 C 0.0974 0.85271 0.58517 0.0
C743 C 0.12812 0.82444 0.58823 0.0
C744 C 0.16274 0.86021 0.52364 0.0
C745 C 0.1602 0.8277 0.55721 0.0
C746 C 0.03782 1.00309 0.53772 0.0
C747 C 0.13674 0.92278 0.48413 0.0
H748 H 0.13973 0.2276 0.48392 0.0
H749 H 0.16031 0.39529 0.50505 0.0
H750 H 0.08423 0.31713 0.5999 0.0
H751 H 0.11085 0.39589 0.56975 0.0
H752 H 0.07574 0.90597 0.54898 0.0
H753 H 0.12703 0.79907 0.61401 0.0
H754 H 0.18813 0.86311 0.50014 0.0
H755 H 0.1829 0.80461 0.55923 0.0
Eu756 Eu 0.40697 0.8444 0.74695 0.0
C757 C 0.34758 0.75315 0.89272 0.0
C758 C 0.34183 0.66162 0.84926 0.0
C759 C 0.36088 0.69199 0.94187 0.0
C760 C 0.33791 0.71236 0.84755 0.0
C761 C 0.35681 0.74223 0.94037 0.0
C762 C 0.35465 0.65238 0.89629 0.0
C763 C 0.35491 0.83064 0.98271 0.0
N764 N 0.3458 0.80258 0.89073 0.0
C765 C 0.3478 0.84064 0.93491 0.0
C766 C 0.3602 0.78154 0.98545 0.0
Eu767 Eu 0.32356 0.81148 0.80891 0.0
N768 N 0.32566 0.72215 0.80209 0.0
C769 C 0.31671 0.68214 0.75767 0.0
C770 C 0.33536 0.62238 0.80342 0.0
C771 C 0.32319 0.63293 0.75728 0.0
H772 H 0.34204 0.87819 0.93357 0.0
H773 H 0.31556 0.60229 0.72145 0.0
H774 H 0.36067 0.61507 0.89778 0.0
H775 H 0.35485 0.86018 0.01735 0.0
H776 H 0.30121 0.685 0.72274 0.0
H777 H 0.42214 0.05514 0.82891 0.0
H778 H 0.33892 0.58367 0.80383 0.0
H779 H 0.38465 0.77447 0.62181 0.0
H780 H 0.43002 0.96883 0.82912 0.0
H781 H 0.36858 0.78967 0.53827 0.0
H782 H 0.36926 0.68352 0.97808 0.0
H783 H 0.39761 0.07323 0.74672 0.0
H784 H 0.37417 0.04069 0.65265 0.0
H785 H 0.3646 0.77325 0.02244 0.0
H786 H 0.35965 0.96826 0.57373 0.0
N787 N 0.40407 0.93264 0.75032 0.0
C788 C 0.41646 0.97372 0.79387 0.0
C789 C 0.39846 0.0336 0.74765 0.0
C790 C 0.38769 0.99253 0.70262 0.0
C791 C 0.41221 0.02375 0.79366 0.0
C792 C 0.38989 0.94136 0.70521 0.0
H793 H 0.3628 0.87769 0.53186 0.0
N794 N 0.38136 0.85066 0.66429 0.0
C795 C 0.36836 0.81967 0.5724 0.0
C796 C 0.3786 0.89955 0.66118 0.0
C797 C 0.3776 0.81137 0.62034 0.0
C798 C 0.36466 0.86916 0.56884 0.0
C799 C 0.36891 0.90947 0.61319 0.0
O800 O 0.47389 0.88379 0.7665 0.0
O801 O 0.38438 0.77991 0.78803 0.0
O802 O 0.36986 0.88605 0.85344 0.0
O803 O 0.43259 0.87201 0.83102 0.0
O804 O 0.43788 0.77732 0.75139 0.0
O805 O 0.45102 0.83198 0.69039 0.0
O806 O 0.28597 0.86026 0.85292 0.0
O807 O 0.35249 0.88243 0.78032 0.0
O808 O 0.36055 0.76989 0.70204 0.0
O809 O 0.29585 0.77621 0.7264 0.0
O810 O 0.28676 0.84813 0.75641 0.0
O811 O 0.26709 0.77536 0.83712 0.0
C812 C 0.41542 0.75474 0.78095 0.0
C813 C 0.52713 0.85776 0.72038 0.0
C814 C 0.59425 0.86038 0.76897 0.0
C815 C 0.54968 0.85312 0.7642 0.0
C816 C 0.61642 0.87343 0.72966 0.0
C817 C 0.54878 0.86503 0.67879 0.0
C818 C 0.59348 0.87391 0.68381 0.0
C819 C 0.4105 0.89136 0.86467 0.0
C820 C 0.48393 0.86513 0.72193 0.0
C821 C 0.36708 0.96031 0.61043 0.0
C822 C 0.37571 1.00158 0.65522 0.0
C823 C 0.31696 0.89185 0.76061 0.0
C824 C 0.2127 0.81863 0.8614 0.0
C825 C 0.18062 0.8057 0.81804 0.0
C826 C 0.13672 0.78815 0.8233 0.0
C827 C 0.12609 0.7811 0.87078 0.0
C828 C 0.20009 0.82128 0.91 0.0
C829 C 0.15716 0.80059 0.91439 0.0
C830 C 0.31939 0.76266 0.69158 0.0
C831 C 0.25815 0.819 0.85826 0.0
H832 H 0.5324 0.84575 0.79547 0.0
H833 H 0.65115 0.88387 0.73494 0.0
H834 H 0.53174 0.86612 0.64329 0.0
H835 H 0.61038 0.88246 0.65269 0.0
H836 H 0.18962 0.80675 0.78066 0.0
H837 H 0.09331 0.76255 0.87472 0.0
H838 H 0.22395 0.83435 0.94433 0.0
H839 H 0.14812 0.79821 0.95146 0.0
Eu840 Eu 0.61389 0.05319 0.08225 0.0
C841 C 0.54567 0.12964 0.90178 0.0
C842 C 0.52206 0.04771 0.83591 0.0
C843 C 0.50589 0.12621 0.82054 0.0
C844 C 0.54372 0.07691 0.88453 0.0
C845 C 0.52766 0.15551 0.86961 0.0
C846 C 0.50549 0.07316 0.8025 0.0
C847 C 0.55712 0.23736 0.93564 0.0
N848 N 0.56662 0.1559 0.94965 0.0
C849 C 0.57136 0.20913 0.96763 0.0
C850 C 0.53445 0.21034 0.88661 0.0
Eu851 Eu 0.61521 0.11456 0.98227 0.0
N852 N 0.5612 0.05353 0.91671 0.0
C853 C 0.54836 0.99931 0.90777 0.0
C854 C 0.51523 0.99326 0.82354 0.0
C855 C 0.52637 0.96812 0.86015 0.0
H856 H 0.59065 0.2312 0.00427 0.0
H857 H 0.51796 0.92534 0.85251 0.0
H858 H 0.48969 0.05128 0.76391 0.0
H859 H 0.56477 0.28023 0.94841 0.0
H860 H 0.55521 0.97981 0.93677 0.0
H861 H 0.69959 0.26198 0.1864 0.0
H862 H 0.49682 0.97137 0.78774 0.0
H863 H 0.66675 0.96134 0.07005 0.0
H864 H 0.66357 0.19242 0.10812 0.0
H865 H 0.6975 0.92265 0.13405 0.0
H866 H 0.48779 0.14324 0.79717 0.0
H867 H 0.72403 0.23653 0.26213 0.0
H868 H 0.7427 0.16394 0.30055 0.0
H869 H 0.52329 0.23226 0.86187 0.0
H870 H 0.74372 0.07022 0.28564 0.0
N871 N 0.66365 0.12836 0.14278 0.0
C872 C 0.67319 0.18075 0.14183 0.0
C873 C 0.7088 0.20596 0.22877 0.0
C874 C 0.70653 0.15288 0.22581 0.0
C875 C 0.69436 0.22047 0.18575 0.0
C876 C 0.68468 0.11516 0.18078 0.0
H877 H 0.73151 0.98088 0.22026 0.0
N878 N 0.67219 0.03309 0.12331 0.0
C879 C 0.69802 0.96392 0.14398 0.0
C880 C 0.68922 0.06501 0.17058 0.0
C881 C 0.67924 0.98476 0.10821 0.0
C882 C 0.71512 0.9961 0.19347 0.0
C883 C 0.71141 0.04792 0.20711 0.0
O884 O 0.56969 0.97254 0.0642 0.0
O885 O 0.57449 0.05957 0.01557 0.0
O886 O 0.58974 0.1643 0.05208 0.0
O887 O 0.59046 0.12313 0.12013 0.0
O888 O 0.54615 0.06083 0.0818 0.0
O889 O 0.60555 1.01248 0.14091 0.0
O890 O 0.65966 0.19619 -0.00092 0.0
O891 O 0.65499 0.10416 0.04638 0.0
O892 O 0.62884 0.99779 0.01127 0.0
O893 O 0.6313 0.03733 0.94232 0.0
O894 O 0.6801 0.09634 0.97864 0.0
O895 O 0.63511 0.14376 0.92007 0.0
C896 C 0.54117 0.06375 0.0346 0.0
C897 C 0.5405 0.95265 0.13702 0.0
C898 C 0.5381 0.99017 0.22563 0.0
C899 C 0.5312 0.99204 0.17468 0.0
C900 C 0.54393 0.94318 0.23573 0.0
C901 C 0.53882 0.90339 0.14597 0.0
C902 C 0.54207 0.89931 0.19597 0.0
C903 C 0.58223 0.16088 0.09959 0.0
C904 C 0.57643 0.97114 0.11189 0.0
C905 C 0.728 0.08292 0.25574 0.0
C906 C 0.72672 0.13606 0.26451 0.0
C907 C 0.68584 0.09378 0.02565 0.0
C908 C 0.68302 0.22542 0.92439 0.0
C909 C 0.7046 0.19993 0.88897 0.0
C910 C 0.69866 0.20338 0.83861 0.0
C911 C 0.68033 0.24226 0.8269 0.0
C912 C 0.66594 0.26535 0.91371 0.0
C913 C 0.66484 0.27395 0.86501 0.0
C914 C 0.63443 0.99761 0.96308 0.0
C915 C 0.65677 0.19052 0.94935 0.0
H916 H 0.53076 0.02956 0.16662 0.0
H917 H 0.55158 0.94011 0.27364 0.0
H918 H 0.54383 0.87195 0.11643 0.0
H919 H 0.54812 0.86451 0.20431 0.0
H920 H 0.71685 0.16825 0.8974 0.0
H921 H 0.67578 0.24636 0.78821 0.0
H922 H 0.64671 0.28293 0.93922 0.0
H923 H 0.64772 0.30102 0.8555 0.0
Eu924 Eu 0.39306 0.39415 0.29311 0.0
C925 C 0.23759 0.22429 0.25271 0.0
C926 C 0.21835 0.20713 0.33152 0.0
C927 C 0.18481 0.14218 0.25108 0.0
C928 C 0.24549 0.23496 0.30353 0.0
C929 C 0.21013 0.17554 0.22528 0.0
C930 C 0.18728 0.15958 0.30474 0.0
C931 C 0.23567 0.19881 0.15094 0.0
N932 N 0.26424 0.25688 0.23035 0.0
C933 C 0.25735 0.24909 0.17961 0.0
C934 C 0.21327 0.16063 0.17403 0.0
Eu935 Eu 0.33431 0.26773 0.26422 0.0
N936 N 0.28153 0.27317 0.32494 0.0
C937 C 0.28221 0.30064 0.37438 0.0
C938 C 0.22449 0.22827 0.38452 0.0
C939 C 0.25522 0.27744 0.40575 0.0
H940 H 0.27444 0.27804 0.16161 0.0
H941 H 0.2584 0.29743 0.44597 0.0
H942 H 0.16679 0.13547 0.3249 0.0
H943 H 0.23391 0.1934 0.11118 0.0
H944 H 0.30311 0.33999 0.38996 0.0
H945 H 0.45408 0.48205 0.13835 0.0
H946 H 0.20413 0.20916 0.40825 0.0
H947 H 0.4489 0.35284 0.37839 0.0
H948 H 0.40288 0.4596 0.19531 0.0
H949 H 0.49236 0.43646 0.43193 0.0
H950 H 0.16385 0.1036 0.23019 0.0
H951 H 0.52733 0.47195 0.15367 0.0
H952 H 0.5822 0.4755 0.22546 0.0
H953 H 0.19787 0.12067 0.15349 0.0
H954 H 0.59264 0.4862 0.31886 0.0
N955 N 0.43919 0.41733 0.23118 0.0
C956 C 0.43175 0.44644 0.19746 0.0
C957 C 0.50272 0.45498 0.17436 0.0
C958 C 0.5135 0.43777 0.21706 0.0
C959 C 0.46167 0.46123 0.16582 0.0
C960 C 0.47991 0.41435 0.24208 0.0
H961 H 0.54191 0.49656 0.3898 0.0
N962 N 0.45891 0.37993 0.31188 0.0
C963 C 0.49441 0.42715 0.392 0.0
C964 C 0.49035 0.40455 0.28843 0.0
C965 C 0.46799 0.38078 0.36141 0.0
C966 C 0.52414 0.45808 0.3694 0.0
C967 C 0.52807 0.43902 0.31853 0.0
O968 O 0.40784 0.45547 0.36628 0.0
O969 O 0.33038 0.34732 0.30345 0.0
O970 O 0.35166 0.29493 0.1863 0.0
O971 O 0.35947 0.38369 0.21143 0.0
O972 O 0.329 0.41325 0.27704 0.0
O973 O 0.42402 0.47717 0.29839 0.0
O974 O 0.32011 0.19772 0.19777 0.0
O975 O 0.39796 0.31311 0.24943 0.0
O976 O 0.37925 0.36202 0.37083 0.0
O977 O 0.36273 0.27079 0.34459 0.0
O978 O 0.39742 0.25027 0.28299 0.0
O979 O 0.31282 0.18813 0.2736 0.0
C980 C 0.30579 0.37366 0.29061 0.0
C981 C 0.41072 0.54293 0.36138 0.0
C982 C 0.3605 0.59439 0.34954 0.0
C983 C 0.37117 0.54608 0.33858 0.0
C984 C 0.38969 0.63941 0.38417 0.0
C985 C 0.44008 0.58852 0.394 0.0
C986 C 0.42928 0.6364 0.40603 0.0
C987 C 0.35769 0.34194 0.1736 0.0
C988 C 0.42403 0.49428 0.3468 0.0
C989 C 0.56244 0.462 0.29579 0.0
C990 C 0.55609 0.45621 0.24294 0.0
C991 C 0.42021 0.28293 0.26107 0.0
C992 C 0.32325 0.11609 0.21466 0.0
C993 C 0.35761 0.11216 0.24714 0.0
C994 C 0.36505 0.06286 0.24432 0.0
C995 C 0.33915 0.01751 0.20715 0.0
C996 C 0.29778 0.07105 0.17721 0.0
C997 C 0.30603 0.02187 0.17319 0.0
C998 C 0.37161 0.31389 0.38282 0.0
C999 C 0.30933 0.16434 0.22532 0.0
H1000 H 0.34934 0.51158 0.31148 0.0
H1001 H 0.38256 0.67747 0.39339 0.0
H1002 H 0.47151 0.58729 0.40987 0.0
H1003 H 0.45192 0.67145 0.43165 0.0
H1004 H 0.37693 0.14678 0.27666 0.0
H1005 H 0.34482 0.97894 0.20404 0.0
H1006 H 0.27069 0.07359 0.15244 0.0
H1007 H 0.28613 0.98695 0.14459 0.0
Eu1008 Eu 0.59729 0.62606 0.05357 0.0
C1009 C 0.66675 0.50538 0.88193 0.0
C1010 C 0.60187 0.4585 0.82103 0.0
C1011 C 0.67037 0.47556 0.79038 0.0
C1012 C 0.62274 0.48481 0.87171 0.0
C1013 C 0.69096 0.50241 0.84074 0.0
C1014 C 0.62581 0.45348 0.78068 0.0
C1015 C 0.75461 0.55082 0.90159 0.0
N1016 N 0.68571 0.52889 0.93162 0.0
C1017 C 0.72994 0.54881 0.94134 0.0
C1018 C 0.73516 0.52667 0.85107 0.0
Eu1019 Eu 0.63641 0.52105 0.99483 0.0
N1020 N 0.59976 0.49404 0.9105 0.0
C1021 C 0.55641 0.48276 0.90053 0.0
C1022 C 0.55715 0.44184 0.81168 0.0
C1023 C 0.5347 0.4583 0.85079 0.0
H1024 H 0.74749 0.5622 0.97995 0.0
H1025 H 0.5013 0.45523 0.84215 0.0
H1026 H 0.6097 0.43562 0.74158 0.0
H1027 H 0.78922 0.56784 0.91036 0.0
H1028 H 0.5398 0.49732 0.93065 0.0
H1029 H 0.73165 0.69332 0.20851 0.0
H1030 H 0.5401 0.42063 0.77347 0.0
H1031 H 0.48556 0.5849 0.06793 0.0
H1032 H 0.69398 0.65148 0.11894 0.0
H1033 H 0.4439 0.57742 0.13748 0.0
H1034 H 0.68852 0.4725 0.7586 0.0
H1035 H 0.69201 0.72658 0.27628 0.0
H1036 H 0.62155 0.7173 0.30642 0.0
H1037 H 0.75469 0.52571 0.82055 0.0
H1038 H 0.54308 0.67822 0.28867 0.0
N1039 N 0.63351 0.65301 0.13849 0.0
C1040 C 0.67692 0.66486 0.14912 0.0
C1041 C 0.67527 0.70584 0.2378 0.0
C1042 C 0.63055 0.68988 0.22765 0.0
C1043 C 0.69817 0.68953 0.19915 0.0
C1044 C 0.61012 0.66263 0.17688 0.0
H1045 H 0.47795 0.62073 0.22718 0.0
N1046 N 0.54732 0.61806 0.1164 0.0
C1047 C 0.47842 0.59516 0.14631 0.0
C1048 C 0.56608 0.64191 0.1662 0.0
C1049 C 0.50307 0.59795 0.10662 0.0
C1050 C 0.4976 0.6199 0.19679 0.0
C1051 C 0.5416 0.64527 0.20718 0.0
O1052 O 0.56367 0.68676 0.05083 0.0
O1053 O 0.60014 0.5798 0.97274 0.0
O1054 O 0.69533 0.59472 0.01299 0.0
O1055 O 0.66186 0.66062 0.02199 0.0
O1056 O 0.56284 0.63153 0.97685 0.0
O1057 O 0.63133 0.70872 0.08495 0.0
O1058 O 0.67203 0.46222 0.99456 0.0
O1059 O 0.63332 0.56772 0.07516 0.0
O1060 O 0.53907 0.55247 0.03792 0.0
O1061 O 0.57158 0.48561 0.0249 0.0
O1062 O 0.67069 0.51646 0.07201 0.0
O1063 O 0.60266 0.43677 0.97066 0.0
C1064 C 0.57794 0.60084 0.94338 0.0
C1065 C 0.61057 0.76765 0.04489 0.0
C1066 C 0.65302 0.81137 0.989 0.0
C1067 C 0.63453 0.76485 0.00361 0.0
C1068 C 0.64585 0.85914 0.015 0.0
C1069 C 0.60223 0.81501 0.06809 0.0
C1070 C 0.61871 0.86013 0.05217 0.0
C1071 C 0.69657 0.64386 0.01184 0.0
C1072 C 0.59908 0.72511 0.0701 0.0
C1073 C 0.56162 0.67403 0.25731 0.0
C1074 C 0.60607 0.6969 0.26737 0.0
C1075 C 0.65505 0.54689 0.10493 0.0
C1076 C 0.63234 0.38844 0.01973 0.0
C1077 C 0.59937 0.38437 0.05068 0.0
C1078 C 0.59728 0.35257 0.08513 0.0
C1079 C 0.62803 0.32435 0.08824 0.0
C1080 C 0.66281 0.36035 0.02387 0.0
C1081 C 0.66022 0.32776 0.05737 0.0
C1082 C 0.53783 0.50309 0.03779 0.0
C1083 C 0.63679 0.42285 0.98429 0.0
H1084 H 0.63968 0.72758 0.98394 0.0
H1085 H 0.66025 0.89525 0.00495 0.0
H1086 H 0.58429 0.81721 0.09998 0.0
H1087 H 0.61088 0.89592 0.06976 0.0
H1088 H 0.57563 0.40583 0.04892 0.0
H1089 H 0.62691 0.29893 0.11398 0.0
H1090 H 0.68827 0.36335 0.00047 0.0
H1091 H 0.68295 0.30473 0.05946 0.0
Eu1092 Eu 0.90707 0.34451 0.24688 0.0
C1093 C 0.84785 0.25323 0.39262 0.0
C1094 C 0.84203 0.16169 0.34911 0.0
C1095 C 0.86114 0.192 0.44171 0.0
C1096 C 0.83814 0.21245 0.34744 0.0
C1097 C 0.8571 0.24227 0.44025 0.0
C1098 C 0.85486 0.15241 0.39611 0.0
C1099 C 0.85525 0.33068 0.48266 0.0
N1100 N 0.84607 0.30267 0.39067 0.0
C1101 C 0.84813 0.34072 0.43489 0.0
C1102 C 0.86052 0.28156 0.48536 0.0
Eu1103 Eu 0.82375 0.31161 0.30887 0.0
N1104 N 0.82588 0.22228 0.30201 0.0
C1105 C 0.81684 0.18226 0.25757 0.0
C1106 C 0.8355 0.12245 0.30325 0.0
C1107 C 0.82329 0.13303 0.25714 0.0
H1108 H 0.84239 0.37829 0.4336 0.0
H1109 H 0.8156 0.10239 0.22131 0.0
H1110 H 0.86083 0.11507 0.39756 0.0
H1111 H 0.85521 0.3602 0.51732 0.0
H1112 H 0.80127 0.18514 0.22269 0.0
H1113 H 0.92228 0.55529 0.32851 0.0
H1114 H 0.83901 0.08372 0.30363 0.0
H1115 H 0.88479 0.27444 0.12178 0.0
H1116 H 0.93011 0.469 0.32887 0.0
H1117 H 0.86863 0.28947 0.03818 0.0
H1118 H 0.86953 0.18351 0.4779 0.0
H1119 H 0.8977 0.57324 0.24627 0.0
H1120 H 0.87412 0.54053 0.15223 0.0
H1121 H 0.86493 0.27324 0.52234 0.0
H1122 H 0.85953 0.46797 0.0734 0.0
N1123 N 0.90411 0.4327 0.2501 0.0
C1124 C 0.91655 0.47384 0.29359 0.0
C1125 C 0.89853 0.53362 0.24726 0.0
C1126 C 0.88769 0.49248 0.2023 0.0
C1127 C 0.91232 0.52386 0.2933 0.0
C1128 C 0.88988 0.44133 0.20497 0.0
H1129 H 0.86277 0.37742 0.03165 0.0
N1130 N 0.8814 0.35061 0.16417 0.0
C1131 C 0.86839 0.31949 0.07228 0.0
C1132 C 0.87858 0.39945 0.16099 0.0
C1133 C 0.87768 0.31129 0.12025 0.0
C1134 C 0.86462 0.36894 0.06865 0.0
C1135 C 0.86885 0.40929 0.11296 0.0
O1136 O 0.97398 0.38399 0.26641 0.0
O1137 O 0.88455 0.28003 0.28799 0.0
O1138 O 0.86995 0.38626 0.35342 0.0
O1139 O 0.93269 0.37225 0.33097 0.0
O1140 O 0.93805 0.27749 0.25136 0.0
O1141 O 0.95111 0.33214 0.19032 0.0
O1142 O 0.78618 0.36014 0.35333 0.0
O1143 O 0.85261 0.3826 0.2803 0.0
O1144 O 0.86066 0.26995 0.20199 0.0
O1145 O 0.79601 0.27645 0.22633 0.0
O1146 O 0.78688 0.34831 0.25649 0.0
O1147 O 0.76715 0.27519 0.33648 0.0
C1148 C 0.9156 0.25489 0.28091 0.0
C1149 C 0.02719 0.3579 0.22031 0.0
C1150 C 0.09427 0.36039 0.2689 0.0
C1151 C 0.04971 0.35321 0.26413 0.0
C1152 C 0.11646 0.37338 0.22959 0.0
C1153 C 0.04885 0.36512 0.17872 0.0
C1154 C 0.09354 0.37389 0.18373 0.0
C1155 C 0.91062 0.39167 0.36461 0.0
C1156 C 0.98402 0.36532 0.22184 0.0
C1157 C 0.867 0.4601 0.11013 0.0
C1158 C 0.87566 0.50143 0.15487 0.0
C1159 C 0.81706 0.39202 0.26065 0.0
C1160 C 0.71279 0.31826 0.36131 0.0
C1161 C 0.6807 0.30551 0.31798 0.0
C1162 C 0.63678 0.28795 0.32322 0.0
C1163 C 0.62615 0.28069 0.37063 0.0
C1164 C 0.70017 0.32062 0.40987 0.0
C1165 C 0.65724 0.29989 0.41423 0.0
C1166 C 0.81951 0.26275 0.19152 0.0
C1167 C 0.75825 0.31869 0.35814 0.0
H1168 H 0.03242 0.34588 0.2954 0.0
H1169 H 0.15119 0.38376 0.23487 0.0
H1170 H 0.03183 0.36626 0.14322 0.0
H1171 H 0.11046 0.3824 0.15261 0.0
H1172 H 0.68969 0.30673 0.28063 0.0
H1173 H 0.59335 0.26218 0.37456 0.0
H1174 H 0.72403 0.33355 0.44419 0.0
H1175 H 0.6482 0.29731 0.45125 0.0
Eu1176 Eu 0.11405 0.55338 0.58247 0.0
C1177 C 0.04582 0.62982 0.40193 0.0
C1178 C 0.02219 0.5479 0.33604 0.0
C1179 C 1.00608 0.62642 0.32067 0.0
C1180 C 0.04384 0.57708 0.38468 0.0
C1181 C 0.02785 0.65571 0.36975 0.0
C1182 C 1.00566 0.57337 0.30263 0.0
C1183 C 0.05731 0.73755 0.43578 0.0
N1184 N 0.06677 0.65607 0.4498 0.0
C1185 C 0.07153 0.7093 0.46778 0.0
C1186 C 0.03466 0.71054 0.38674 0.0
Eu1187 Eu 0.11532 0.61468 0.48241 0.0
N1188 N 0.06129 0.55368 0.41686 0.0
C1189 C 0.04845 0.49945 0.4079 0.0
C1190 C 0.01534 0.49344 0.32367 0.0
C1191 C 0.02646 0.46828 0.36027 0.0
H1192 H 0.09081 0.73136 0.50442 0.0
H1193 H 0.01804 0.42549 0.3526 0.0
H1194 H 0.98989 0.55151 0.26403 0.0
H1195 H 0.06495 0.78041 0.44857 0.0
H1196 H 0.05529 0.47994 0.43689 0.0
H1197 H 0.19966 0.76203 0.68711 0.0
H1198 H 0.99695 0.47156 0.28786 0.0
H1199 H 0.16672 0.46136 0.57019 0.0
H1200 H 0.16373 0.69262 0.60865 0.0
H1201 H 0.19736 0.42252 0.63413 0.0
H1202 H 0.98801 0.64347 0.29731 0.0
H1203 H 0.22402 0.73634 0.76275 0.0
H1204 H 0.24269 0.66362 0.80095 0.0
H1205 H 0.02352 0.73247 0.362 0.0
H1206 H 0.24362 0.56988 0.78587 0.0
N1207 N 0.16383 0.62844 0.64311 0.0
C1208 C 0.17334 0.68087 0.64232 0.0
C1209 C 0.20884 0.70586 0.7293 0.0
C1210 C 0.2066 0.65276 0.7262 0.0
C1211 C 0.19445 0.7205 0.68634 0.0
C1212 C 0.18482 0.61514 0.68107 0.0
H1213 H 0.23142 0.48064 0.72035 0.0
N1214 N 0.17231 0.53314 0.62348 0.0
C1215 C 0.19794 0.46382 0.6441 0.0
C1216 C 0.18934 0.56499 0.67078 0.0
C1217 C 0.17924 0.48475 0.60836 0.0
C1218 C 0.21508 0.49594 0.6936 0.0
C1219 C 0.21143 0.54778 0.7073 0.0
O1220 O 0.06996 0.47267 0.56439 0.0
O1221 O 0.07464 0.55972 0.51578 0.0
O1222 O 0.08987 0.66446 0.55219 0.0
O1223 O 0.09061 0.62333 0.62028 0.0
O1224 O 0.04629 0.56099 0.582 0.0
O1225 O 0.10559 0.51278 0.6412 0.0
O1226 O 0.15978 0.69628 0.49911 0.0
O1227 O 0.15512 0.60436 0.54656 0.0
O1228 O 0.12897 0.49794 0.51149 0.0
O1229 O 0.13137 0.53741 0.4425 0.0
O1230 O 0.18017 0.59642 0.47877 0.0
O1231 O 0.13523 0.64374 0.42015 0.0
C1232 C 0.04131 0.56388 0.53479 0.0
C1233 C 0.0406 0.45274 0.63709 0.0
C1234 C 0.03796 0.49011 0.72566 0.0
C1235 C 0.03116 0.49204 0.67471 0.0
C1236 C 0.04381 0.44313 0.73574 0.0
C1237 C 0.03894 0.40347 0.64601 0.0
C1238 C 0.04208 0.39931 0.69598 0.0
C1239 C 0.08237 0.66106 0.59971 0.0
C1240 C 0.07659 0.47135 0.61211 0.0
C1241 C 0.22797 0.58266 0.75599 0.0
C1242 C 0.2267 0.63582 0.76487 0.0
C1243 C 0.18592 0.59392 0.52579 0.0
C1244 C 0.18312 0.72537 0.42434 0.0
C1245 C 0.20468 0.69987 0.38891 0.0
C1246 C 0.19873 0.70332 0.33855 0.0
C1247 C 0.18044 0.74223 0.32686 0.0
C1248 C 0.16602 0.76529 0.41365 0.0
C1249 C 0.16496 0.77393 0.36497 0.0
C1250 C 0.13452 0.49772 0.46328 0.0
C1251 C 0.15691 0.69051 0.44936 0.0
H1252 H 0.0307 0.52957 0.66668 0.0
H1253 H 0.0514 0.44002 0.77366 0.0
H1254 H 0.04405 0.37211 0.61648 0.0
H1255 H 0.04815 0.36453 0.7043 0.0
H1256 H 0.21692 0.66817 0.39734 0.0
H1257 H 0.17591 0.74635 0.28818 0.0
H1258 H 0.14675 0.78283 0.43913 0.0
H1259 H 0.14786 0.80101 0.35547 0.0
Eu1260 Eu 0.82491 0.8505 0.28004 0.0
C1261 C 0.93439 0.74841 0.37097 0.0
C1262 C 0.98345 0.82361 0.43317 0.0
C1263 C 0.96347 0.73862 0.45322 0.0
C1264 C 0.95587 0.8021 0.38611 0.0
C1265 C 0.9376 0.71635 0.40492 0.0
C1266 C 0.9874 0.79197 0.46662 0.0
C1267 C 0.89117 0.64173 0.3403 0.0
N1268 N 0.90969 0.72773 0.32396 0.0
C1269 C 0.89301 0.67356 0.30637 0.0
C1270 C 0.91431 0.6629 0.38949 0.0
Eu1271 Eu 0.90903 0.79219 0.27634 0.0
N1272 N 0.94619 0.83469 0.35816 0.0
C1273 C 0.95602 0.88783 0.37934 0.0
C1274 C 1.00124 0.87803 0.44851 0.0
C1275 C 0.98122 0.90971 0.42689 0.0
H1276 H 0.87889 0.65468 0.26665 0.0
H1277 H 0.98448 0.95046 0.44604 0.0
H1278 H 1.00762 0.80901 0.5036 0.0
H1279 H 0.87213 0.60073 0.32825 0.0
H1280 H 0.94149 0.91259 0.36182 0.0
H1281 H 0.75716 0.68944 0.10878 0.0
H1282 H 0.02646 0.89498 0.48057 0.0
H1283 H 0.84577 0.98636 0.28965 0.0
H1284 H 0.80107 0.73159 0.19185 0.0
H1285 H 0.84859 0.03991 0.227 0.0
H1286 H 0.96615 0.71467 0.47981 0.0
H1287 H 0.70921 0.73994 0.0755 0.0
H1288 H 0.72356 0.82506 0.05093 0.0
H1289 H 0.91471 0.63726 0.41449 0.0
H1290 H 0.7595 0.92072 0.07458 0.0
N1291 N 0.78876 0.80664 0.19733 0.0
C1292 C 0.78422 0.75443 0.17476 0.0
C1293 C 0.73483 0.75866 0.10671 0.0
C1294 C 0.7478 0.81333 0.12273 0.0
C1295 C 0.75908 0.73024 0.12732 0.0
C1296 C 0.77436 0.83699 0.17019 0.0
H1297 H 0.80717 1.00108 0.13991 0.0
N1298 N 0.81509 0.91322 0.23317 0.0
C1299 C 0.83018 0.99886 0.21591 0.0
C1300 C 0.79136 0.89125 0.18587 0.0
C1301 C 0.83016 0.96749 0.25042 0.0
C1302 C 0.80801 0.97636 0.16619 0.0
C1303 C 0.7868 0.92224 0.15122 0.0
O1304 O 0.79165 0.90119 0.32597 0.0
O1305 O 0.86327 0.81647 0.33155 0.0
O1306 O 0.84661 0.72084 0.26495 0.0
O1307 O 0.79626 0.76414 0.2902 0.0
O1308 O 0.85432 0.89063 0.36309 0.0
O1309 O 0.75732 0.81931 0.28652 0.0
O1310 O 0.93987 0.73287 0.23917 0.0
O1311 O 0.86581 0.81731 0.22402 0.0
O1312 O 0.88455 0.92174 0.28072 0.0
O1313 O 0.93828 0.88 0.26735 0.0
O1314 O 0.90316 0.77333 0.18882 0.0
O1315 O 0.97853 0.81221 0.2847 0.0
C1316 C 0.86701 0.85217 0.37433 0.0
C1317 C 0.71503 0.87824 0.31029 0.0
C1318 C 0.63974 0.86313 0.32253 0.0
C1319 C 0.67814 0.8479 0.32418 0.0
C1320 C 0.63862 0.90829 0.30534 0.0
C1321 C 0.71352 0.92376 0.29449 0.0
C1322 C 0.67519 0.93829 0.29136 0.0
C1323 C 0.80874 0.71937 0.28109 0.0
C1324 C 0.75537 0.86371 0.31674 0.0
C1325 C 0.76271 0.89789 0.1021 0.0
C1326 C 0.74119 0.84385 0.08907 0.0
C1327 C 0.8763 0.7992 0.17927 0.0
C1328 C 0.01449 0.76056 0.23078 0.0
C1329 C 0.03451 0.79996 0.20789 0.0
C1330 C 0.0745 0.79962 0.19235 0.0
C1331 C 0.09389 0.75985 0.19897 0.0
C1332 C 0.03341 0.72009 0.23518 0.0
C1333 C 0.07312 0.71991 0.21993 0.0
C1334 C 0.92417 0.92363 0.27014 0.0
C1335 C 0.97837 0.76486 0.25823 0.0
H1336 H 0.68002 0.81381 0.33826 0.0
H1337 H 0.60997 0.92171 0.30461 0.0
H1338 H 0.74231 0.94853 0.28602 0.0
H1339 H 0.67407 0.97372 0.27955 0.0
H1340 H 0.02018 0.8316 0.20428 0.0
H1341 H 0.12507 0.75949 0.18773 0.0
H1342 H 0.01814 0.68944 0.25186 0.0
H1343 H 0.08797 0.68917 0.22491 0.0
Eu1344 Eu 0.89111 0.302 0.72163 0.0
C1345 C 0.7986 0.43575 0.88468 0.0
C1346 C 0.8521 0.49732 0.95395 0.0
C1347 C 0.77707 0.47475 0.96501 0.0
C1348 C 0.84098 0.46111 0.90476 0.0
C1349 C 0.76584 0.44282 0.91407 0.0
C1350 C 0.81993 0.50381 0.98417 0.0
C1351 C 0.71419 0.38606 0.84088 0.0
N1352 N 0.78997 0.39956 0.83847 0.0
C1353 C 0.74807 0.37646 0.81521 0.0
C1354 C 0.72312 0.41639 0.8918 0.0
Eu1355 Eu 0.84486 0.35559 0.8265 0.0
N1356 N 0.87132 0.44487 0.87899 0.0
C1357 C 0.91363 0.46825 0.89872 0.0
C1358 C 0.89548 0.52228 0.97294 0.0
C1359 C 0.92639 0.5098 0.9437 0.0
H1360 H 0.74016 0.34814 0.77801 0.0
H1361 H 0.96008 0.52894 0.95822 0.0
H1362 H 0.82802 0.52959 0.02293 0.0
H1363 H 0.68122 0.36802 0.82208 0.0
H1364 H 0.93723 0.451 0.88397 0.0
H1365 H 0.7763 0.12942 0.59146 0.0
H1366 H 0.90543 0.54954 0.01078 0.0
H1367 H 0.99711 0.3194 0.77165 0.0
H1368 H 0.79844 0.21526 0.65661 0.0
H1369 H 0.05599 0.29056 0.73251 0.0
H1370 H 0.75287 0.47768 0.98973 0.0
H1371 H 0.83255 0.10044 0.5485 0.0
H1372 H 0.909 0.12095 0.53742 0.0
H1373 H 0.69678 0.42048 0.91267 0.0
H1374 H 0.98338 0.17473 0.57001 0.0
N1375 N 0.863 0.2132 0.67303 0.0
C1376 C 0.8215 0.19332 0.64846 0.0
C1377 C 0.84123 0.12956 0.58481 0.0
C1378 C 0.88426 0.15431 0.60532 0.0
C1379 C 0.80945 0.14743 0.60813 0.0
C1380 C 0.89436 0.19279 0.65319 0.0
H1381 H 0.03917 0.22999 0.64551 0.0
N1382 N 0.94703 0.25935 0.71762 0.0
C1383 C 0.02275 0.27049 0.71559 0.0
C1384 C 0.93752 0.2181 0.6745 0.0
C1385 C 0.98928 0.28472 0.73919 0.0
C1386 C 0.01318 0.23597 0.66657 0.0
C1387 C 0.97025 0.20939 0.64538 0.0
O1388 O 0.94376 0.33053 0.68337 0.0
O1389 O 0.90412 0.36745 0.79262 0.0
O1390 O 0.81619 0.38333 0.75711 0.0
O1391 O 0.82753 0.32072 0.68851 0.0
O1392 O 0.91517 0.3904 0.72803 0.0
O1393 O 0.87867 0.28835 0.63887 0.0
O1394 O 0.79838 0.3059 0.86014 0.0
O1395 O 0.84529 0.27992 0.77182 0.0
O1396 O 0.92468 0.27815 0.79072 0.0
O1397 O 0.9051 0.32986 0.86115 0.0
O1398 O 0.78587 0.29171 0.78076 0.0
O1399 O 0.85778 0.36298 0.90818 0.0
C1400 C 0.91932 0.40703 0.77683 0.0
C1401 C 0.9331 0.32706 0.59712 0.0
C1402 C 0.9478 0.40125 0.56276 0.0
C1403 C 0.92681 0.37534 0.59526 0.0
C1404 C 0.97438 0.37852 0.53126 0.0
C1405 C 0.95741 0.30231 0.56436 0.0
C1406 C 0.97792 0.32811 0.53083 0.0
C1407 C 0.80697 0.35744 0.7067 0.0
C1408 C 0.92015 0.30643 0.63825 0.0
C1409 C 0.95912 0.17733 0.59474 0.0
C1410 C 0.9167 0.14722 0.57594 0.0
C1411 C 0.80566 0.2599 0.75769 0.0
C1412 C 0.80592 0.31734 0.94935 0.0
C1413 C 0.80682 0.26775 0.95328 0.0
C1414 C 0.78402 0.24704 0.98741 0.0
C1415 C 0.76145 0.27639 0.01923 0.0
C1416 C 0.78495 0.34821 0.98133 0.0
C1417 C 0.76375 0.32816 0.01772 0.0
C1418 C 0.92906 0.29723 0.84199 0.0
C1419 C 0.8198 0.331 0.90553 0.0
H1420 H 0.90807 0.3941 0.62126 0.0
H1421 H 0.99376 0.40022 0.50873 0.0
H1422 H 0.96232 0.26468 0.56643 0.0
H1423 H 0.99833 0.31054 0.50685 0.0
H1424 H 0.8232 0.24419 0.92793 0.0
H1425 H 0.74204 0.25954 0.04475 0.0
H1426 H 0.78554 0.38738 0.97871 0.0
H1427 H 0.74918 0.35249 0.04424 0.0
Eu1428 Eu 0.89303 0.89418 0.79309 0.0
C1429 C 0.73755 0.72434 0.75269 0.0
C1430 C 0.71833 0.70718 0.8315 0.0
C1431 C 0.6848 0.64222 0.75108 0.0
C1432 C 0.74546 0.73502 0.80351 0.0
C1433 C 0.71011 0.67558 0.72527 0.0
C1434 C 0.68728 0.65962 0.80473 0.0
C1435 C 0.73566 0.6988 0.65092 0.0
N1436 N 0.76421 0.75692 0.73031 0.0
C1437 C 0.75733 0.7491 0.67958 0.0
C1438 C 0.71327 0.66064 0.67402 0.0
Eu1439 Eu 0.83428 0.76776 0.76419 0.0
N1440 N 0.7815 0.77322 0.82491 0.0
C1441 C 0.7822 0.80069 0.87436 0.0
C1442 C 0.7245 0.7283 0.8845 0.0
C1443 C 0.75523 0.77747 0.90574 0.0
H1444 H 0.77441 0.77805 0.66156 0.0
H1445 H 0.75841 0.79745 0.94596 0.0
H1446 H 0.6668 0.6355 0.8249 0.0
H1447 H 0.73389 0.69338 0.61116 0.0
H1448 H 0.8031 0.84003 0.88995 0.0
H1449 H 0.95405 0.98216 0.63836 0.0
H1450 H 0.70415 0.70917 0.90825 0.0
H1451 H 0.94887 0.85281 0.87831 0.0
H1452 H 0.90285 0.95968 0.69532 0.0
H1453 H 0.99238 0.93638 0.93189 0.0
H1454 H 0.66386 0.60363 0.73019 0.0
H1455 H 0.0273 0.97204 0.65366 0.0
H1456 H 0.08217 0.97552 0.72541 0.0
H1457 H 0.69787 0.62068 0.6535 0.0
H1458 H 0.09263 0.98616 0.81881 0.0
N1459 N 0.93916 0.9174 0.73116 0.0
C1460 C 0.93172 0.94653 0.69746 0.0
C1461 C 1.00269 0.95507 0.67435 0.0
C1462 C 0.01346 0.93783 0.71703 0.0
C1463 C 0.96164 0.96134 0.66582 0.0
C1464 C 0.97988 0.91441 0.74205 0.0
H1465 H 0.04195 0.99649 0.8898 0.0
N1466 N 0.95889 0.87994 0.81182 0.0
C1467 C 0.99441 0.9271 0.89195 0.0
C1468 C 0.99032 0.90458 0.78838 0.0
C1469 C 0.96796 0.88076 0.86134 0.0
C1470 C 0.02413 0.95805 0.86936 0.0
C1471 C 0.02805 0.93902 0.81848 0.0
O1472 O 0.90779 0.95547 0.86627 0.0
O1473 O 0.83035 0.84735 0.80342 0.0
O1474 O 0.85163 0.79498 0.68628 0.0
O1475 O 0.85946 0.88374 0.71142 0.0
O1476 O 0.82898 0.91327 0.77699 0.0
O1477 O 0.92402 0.97721 0.79841 0.0
O1478 O 0.82011 0.69775 0.69775 0.0
O1479 O 0.89793 0.81314 0.74939 0.0
O1480 O 0.87923 0.86203 0.87081 0.0
O1481 O 0.8627 0.77081 0.84456 0.0
O1482 O 0.89739 0.75029 0.78295 0.0
O1483 O 0.81274 0.68817 0.77357 0.0
C1484 C 0.80577 0.87368 0.79057 0.0
C1485 C 0.91067 0.04294 0.86139 0.0
C1486 C 0.86045 0.0944 0.84953 0.0
C1487 C 0.87113 0.04609 0.83856 0.0
C1488 C 0.88963 0.13941 0.88418 0.0
C1489 C 0.94002 0.08852 0.89404 0.0
C1490 C 0.92921 0.13639 0.90607 0.0
C1491 C 0.85767 0.842 0.67358 0.0
C1492 C 0.92399 0.99429 0.84682 0.0
C1493 C 0.06242 0.962 0.79574 0.0
C1494 C 0.05606 0.95623 0.74289 0.0
C1495 C 0.92018 0.78295 0.76102 0.0
C1496 C 0.82325 0.61614 0.71472 0.0
C1497 C 0.85759 0.61227 0.74727 0.0
C1498 C 0.86502 0.56299 0.74457 0.0
C1499 C 0.83917 0.51759 0.70742 0.0
C1500 C 0.79782 0.57106 0.67728 0.0
C1501 C 0.80608 0.5219 0.67337 0.0
C1502 C 0.87159 0.81389 0.8828 0.0
C1503 C 0.8093 0.66437 0.7253 0.0
H1504 H 0.84931 1.0116 0.81145 0.0
H1505 H 0.8825 0.17747 0.8934 0.0
H1506 H 0.97144 0.08729 0.90993 0.0
H1507 H 0.95184 0.17144 0.93171 0.0
H1508 H 0.87687 0.64692 0.77678 0.0
H1509 H 0.84484 0.47905 0.7044 0.0
H1510 H 0.77075 0.57355 0.65245 0.0
H1511 H 0.78622 0.48694 0.64478 0.0
Eu1512 Eu 0.56882 0.53352 0.49837 0.0
C1513 C 0.68175 0.74472 0.58605 0.0
C1514 C 0.7091 0.77833 0.51631 0.0
C1515 C 0.71904 0.83899 0.60021 0.0
C1516 C 0.68879 0.73557 0.53597 0.0
C1517 C 0.69483 0.79745 0.6178 0.0
C1518 C 0.72637 0.82937 0.54939 0.0
C1519 C 0.65711 0.76602 0.68145 0.0
N1520 N 0.66135 0.70251 0.60337 0.0
C1521 C 0.64613 0.71422 0.64963 0.0
C1522 C 0.68324 0.8073 0.66637 0.0
Eu1523 Eu 0.66379 0.61486 0.54913 0.0
N1524 N 0.67218 0.68561 0.5052 0.0
C1525 C 0.66647 0.67947 0.45306 0.0
C1526 C 0.70942 0.7692 0.46356 0.0
C1527 C 0.68601 0.72012 0.43155 0.0
H1528 H 0.62861 0.68541 0.66664 0.0
H1529 H 0.68221 0.71376 0.39024 0.0
H1530 H 0.74333 0.86215 0.53538 0.0
H1531 H 0.64693 0.77352 0.71884 0.0
H1532 H 0.64493 0.64499 0.42737 0.0
H1533 H 0.538 0.43461 0.65544 0.0
H1534 H 0.72452 0.80085 0.44697 0.0
H1535 H 0.62822 0.46274 0.40723 0.0
H1536 H 0.58174 0.50213 0.62028 0.0
H1537 H 0.60522 0.37857 0.34475 0.0
H1538 H 0.73075 0.8791 0.62503 0.0
H1539 H 0.49475 0.34877 0.59642 0.0
H1540 H 0.48054 0.28706 0.50672 0.0
H1541 H 0.69417 0.84685 0.69189 0.0
H1542 H 0.50064 0.27095 0.41972 0.0
N1543 N 0.55621 0.46273 0.5423 0.0
C1544 C 0.55949 0.46865 0.59415 0.0
C1545 C 0.51235 0.38008 0.58101 0.0
C1546 C 0.51613 0.37068 0.52896 0.0
C1547 C 0.53634 0.42855 0.61429 0.0
C1548 C 0.53969 0.41309 0.51143 0.0
H1549 H 0.54489 0.30635 0.3565 0.0
N1550 N 0.57719 0.44637 0.45184 0.0
C1551 C 0.58916 0.38484 0.37796 0.0
C1552 C 0.55217 0.404 0.46459 0.0
C1553 C 0.60103 0.43483 0.41336 0.0
C1554 C 0.55602 0.34418 0.38518 0.0
C1555 C 0.53984 0.35212 0.43139 0.0
O1556 O 0.50718 0.53158 0.4553 0.0
O1557 O 0.59655 0.62482 0.52407 0.0
O1558 O 0.62682 0.60396 0.62261 0.0
O1559 O 0.55738 0.57345 0.58276 0.0
O1560 O 0.56276 0.59477 0.45114 0.0
O1561 O 0.50739 0.50838 0.52679 0.0
O1562 O 0.72692 0.60538 0.57815 0.0
O1563 O 0.63086 0.52659 0.53505 0.0
O1564 O 0.6066 0.54126 0.42488 0.0
O1565 O 0.67502 0.5804 0.46413 0.0
O1566 O 0.68713 0.55017 0.58106 0.0
O1567 O 0.72261 0.64651 0.51891 0.0
C1568 C 0.58045 0.64 0.48504 0.0
C1569 C 0.43865 0.50912 0.48542 0.0
C1570 C 0.37619 0.54317 0.48676 0.0
C1571 C 0.42101 0.55235 0.49545 0.0
C1572 C 0.34928 0.49149 0.46824 0.0
C1573 C 0.41135 0.4572 0.47118 0.0
C1574 C 0.36683 0.44897 0.4612 0.0
C1575 C 0.5842 0.59303 0.62723 0.0
C1576 C 0.48525 0.51805 0.4901 0.0
C1577 C 0.5117 0.31061 0.44548 0.0
C1578 C 0.49998 0.31986 0.49469 0.0
C1579 C 0.65792 0.50618 0.5583 0.0
C1580 C 0.79322 0.64459 0.55079 0.0
C1581 C 0.81429 0.61004 0.5241 0.0
C1582 C 0.85913 0.62548 0.52815 0.0
C1583 C 0.88326 0.67424 0.56116 0.0
C1584 C 0.81743 0.69462 0.5818 0.0
C1585 C 0.86237 0.70786 0.5889 0.0
C1586 C 0.64876 0.55653 0.42027 0.0
C1587 C 0.74629 0.62623 0.54484 0.0
H1588 H 0.44188 0.59269 0.50904 0.0
H1589 H 0.31454 0.48386 0.46084 0.0
H1590 H 0.42444 0.42332 0.46519 0.0
H1591 H 0.34533 0.4101 0.4468 0.0
H1592 H 0.79582 0.57122 0.50002 0.0
H1593 H 0.91821 0.68542 0.56706 0.0
H1594 H 0.80227 0.72328 0.60078 0.0
H1595 H 0.88143 0.74355 0.6165 0.0
Eu1596 Eu 0.15635 0.56293 0.0001 0.0
C1597 C 0.02833 0.48649 0.10333 0.0
C1598 C 0.9801 0.42056 0.03044 0.0
C1599 C 0.97487 0.412 0.11574 0.0
C1600 C 0.01245 0.46891 0.05041 0.0
C1601 C 0.00846 0.45839 0.13608 0.0
C1602 C 0.96319 0.39112 0.06315 0.0
C1603 C 0.05703 0.52277 0.20827 0.0
N1604 N 0.06113 0.5318 0.12321 0.0
C1605 C 0.07475 0.55105 0.17503 0.0
C1606 C 0.02296 0.47735 0.18852 0.0
Eu1607 Eu 0.07274 0.58227 0.06512 0.0
N1608 N 0.02923 0.49771 0.0183 0.0
C1609 C 0.01866 0.47704 0.96608 0.0
C1610 C 0.96727 0.40125 0.97776 0.0
C1611 C 0.98951 0.42709 0.94551 0.0
H1612 H 0.09702 0.58986 0.19174 0.0
H1613 H 0.98341 0.40887 0.90481 0.0
H1614 H 0.9418 0.3517 0.04765 0.0
H1615 H 0.06823 0.53747 0.24913 0.0
H1616 H 0.03392 0.49651 0.93983 0.0
H1617 H 0.26727 0.75405 0.10697 0.0
H1618 H 0.94101 0.36566 0.96192 0.0
H1619 H 0.13086 0.50675 0.87187 0.0
H1620 H 0.21695 0.66555 0.09815 0.0
H1621 H 0.13004 0.54071 0.79416 0.0
H1622 H 0.95864 0.39097 0.14014 0.0
H1623 H 0.28168 0.78561 0.03029 0.0
H1624 H 0.26243 0.77165 0.93583 0.0
H1625 H 1.00747 0.45716 0.21371 0.0
H1626 H 0.21021 0.71889 0.85494 0.0
N1627 N 0.20316 0.64802 0.01684 0.0
C1628 C 0.22352 0.67884 0.06429 0.0
C1629 C 0.26023 0.74643 0.02591 0.0
C1630 C 0.23765 0.71519 0.97777 0.0
C1631 C 0.25233 0.72862 0.06947 0.0
C1632 C 0.20918 0.66523 0.97421 0.0
H1633 H 0.15759 0.63736 0.80454 0.0
N1634 N 0.16273 0.583 0.92204 0.0
C1635 C 0.14523 0.5671 0.83135 0.0
C1636 C 0.18631 0.63328 0.92657 0.0
C1637 C 0.14654 0.54798 0.8748 0.0
C1638 C 0.1621 0.62128 0.837 0.0
C1639 C 0.1869 0.65336 0.88365 0.0
O1640 O 0.18423 0.50832 0.95153 0.0
O1641 O 0.09954 0.51257 0.02565 0.0
O1642 O 0.13274 0.60282 0.12392 0.0
O1643 O 0.1752 0.55728 0.0797 0.0
O1644 O 0.13111 0.47322 0.97481 0.0
O1645 O 0.2219 0.56132 0.02391 0.0
O1646 O 0.04349 0.62318 0.12744 0.0
O1647 O 0.13127 0.63304 0.04135 0.0
O1648 O 0.10076 0.56847 0.94587 0.0
O1649 O 0.05342 0.60287 0.99279 0.0
O1650 O 0.09393 0.67314 0.08291 0.0
O1651 O 1.00455 0.57334 0.05558 0.0
C1652 C 0.10242 0.46421 0.00375 0.0
C1653 C 0.25957 0.52317 0.96086 0.0
C1654 C 0.33123 0.51112 0.97 0.0
C1655 C 0.29248 0.51142 0.98879 0.0
C1656 C 0.33481 0.51722 0.92019 0.0
C1657 C 0.26346 0.52998 0.91158 0.0
C1658 C 0.30062 0.52545 0.89089 0.0
C1659 C 0.16511 0.58133 0.12246 0.0
C1660 C 0.22043 0.52336 0.98309 0.0
C1661 C 0.21254 0.70408 0.88801 0.0
C1662 C 0.24043 0.73361 0.93376 0.0
C1663 C 0.12747 0.68142 0.06034 0.0
C1664 C 0.97514 0.63712 0.10159 0.0
C1665 C 0.96396 0.65176 0.05691 0.0
C1666 C 0.92324 0.65962 0.04623 0.0
C1667 C 0.8962 0.65986 0.08397 0.0
C1668 C 0.9485 0.63905 0.13962 0.0
C1669 C 0.9096 0.65167 0.13122 0.0
C1670 C 0.06888 0.59112 0.95009 0.0
C1671 C 1.00493 0.60395 0.10064 0.0
H1672 H 0.28837 0.50437 0.02616 0.0
H1673 H 0.36369 0.51496 0.90352 0.0
H1674 H 0.23769 0.53765 0.88885 0.0
H1675 H 0.30314 0.52906 0.85231 0.0
H1676 H 0.98429 0.64919 0.02718 0.0
H1677 H 0.86356 0.66207 0.07561 0.0
H1678 H 0.956 0.62665 0.17386 0.0
H1679 H 0.88814 0.65063 0.15965 0.0
loop_
_geom_bond_atom_site_label_1
_geom_bond_atom_site_label_2
_geom_bond_distance
_geom_bond_site_symmetry_2
_ccdc_geom_bond_type
Zn0 O3 2.031 . S
Zn0 O5 2.049 . S
Zn0 O10 2.067 . S
Zn1 O2 1.962 . S
Zn1 O4 1.986 . S
Zn1 O6 1.996 . S
Zn1 O9 1.943 . S
O2 Zn1 1.962 . S
O2 C7 1.254 . S
O3 Zn0 2.031 . S
O3 C7 1.269 . S
O4 Zn1 1.986 . S
O4 C11 1.262 . S
O5 Zn0 2.049 . S
O5 C13 1.260 . S
O6 Zn1 1.996 . S
O6 C13 1.257 . S
C7 O2 1.254 . S
C7 O3 1.269 . S
C8 O9 1.249 . S
C8 O10 1.270 . S
O9 Zn1 1.943 . S
O9 C8 1.249 . S
O10 Zn0 2.067 . S
O10 C8 1.270 . S
C11 O4 1.262 . S
C11 O12 1.232 . S
O12 C11 1.232 . S
C13 O5 1.260 . S
C13 O6 1.257 . S
Zn14 O17 2.031 1_455 S
Zn14 O19 2.049 . S
Zn14 O24 2.067 . S
Zn15 O16 1.962 1_455 S
Zn15 O18 1.986 . S
Zn15 O20 1.996 . S
Zn15 O23 1.943 1_455 S
O16 Zn15 1.962 1_655 S
O16 C21 1.254 . S
O17 Zn14 2.031 1_655 S
O17 C21 1.269 . S
O18 Zn15 1.986 . S
O18 C25 1.262 . S
O19 Zn14 2.049 . S
O19 C27 1.260 . S
O20 Zn15 1.996 . S
O20 C27 1.257 . S
C21 O16 1.254 . S
C21 O17 1.269 . S
C22 O23 1.249 . S
C22 O24 1.270 1_655 S
O23 Zn15 1.943 1_655 S
O23 C22 1.249 . S
O24 Zn14 2.067 . S
O24 C22 1.270 1_455 S
C25 O18 1.262 . S
C25 O26 1.232 1_455 S
O26 C25 1.232 1_655 S
C27 O19 1.260 . S
C27 O20 1.257 . S
Zn28 O31 2.031 . S
Zn28 O33 2.049 . S
Zn28 O38 2.067 . S
Zn29 O30 1.962 1_565 S
Zn29 O32 1.986 . S
Zn29 O34 1.996 . S
Zn29 O37 1.943 . S
O30 Zn29 1.962 1_545 S
O30 C35 1.254 . S
O31 Zn28 2.031 . S
O31 C35 1.269 1_565 S
O32 Zn29 1.986 . S
O32 C39 1.262 . S
O33 Zn28 2.049 . S
O33 C41 1.260 . S
O34 Zn29 1.996 . S
O34 C41 1.257 . S
C35 O30 1.254 . S
C35 O31 1.269 1_545 S
C36 O37 1.249 . S
C36 O38 1.270 . S
O37 Zn29 1.943 . S
O37 C36 1.249 . S
O38 Zn28 2.067 . S
O38 C36 1.270 . S
C39 O32 1.262 . S
C39 O40 1.232 . S
O40 C39 1.232 . S
C41 O33 1.260 . S
C41 O34 1.257 . S
Zn42 O45 2.031 . S
Zn42 O47 2.049 . S
Zn42 O52 2.067 . S
Zn43 O44 1.962 . S
Zn43 O46 1.986 . S
Zn43 O48 1.996 . S
Zn43 O51 1.943 . S
O44 Zn43 1.962 . S
O44 C49 1.254 . S
O45 Zn42 2.031 . S
O45 C49 1.269 . S
O46 Zn43 1.986 . S
O46 C53 1.262 . S
O47 Zn42 2.049 . S
O47 C55 1.260 . S
O48 Zn43 1.996 . S
O48 C55 1.257 . S
C49 O44 1.254 . S
C49 O45 1.269 . S
C50 O51 1.249 . S
C50 O52 1.270 . S
O51 Zn43 1.943 . S
O51 C50 1.249 . S
O52 Zn42 2.067 . S
O52 C50 1.270 . S
C53 O46 1.262 . S
C53 O54 1.232 . S
O54 C53 1.232 . S
C55 O47 1.260 . S
C55 O48 1.257 . S
Zn56 O59 2.031 . S
Zn56 O61 2.049 . S
Zn56 O66 2.067 . S
Zn57 O58 1.962 . S
Zn57 O60 1.986 . S
Zn57 O62 1.996 . S
Zn57 O65 1.943 . S
O58 Zn57 1.962 . S
O58 C63 1.254 . S
O59 Zn56 2.031 . S
O59 C63 1.269 . S
O60 Zn57 1.986 . S
O60 C67 1.262 . S
O61 Zn56 2.049 . S
O61 C69 1.260 . S
O62 Zn57 1.996 . S
O62 C69 1.257 . S
C63 O58 1.254 . S
C63 O59 1.269 . S
C64 O65 1.249 . S
C64 O66 1.270 . S
O65 Zn57 1.943 . S
O65 C64 1.249 . S
O66 Zn56 2.067 . S
O66 C64 1.270 . S
C67 O60 1.262 . S
C67 O68 1.232 . S
O68 C67 1.232 . S
C69 O61 1.260 . S
C69 O62 1.257 . S
Zn70 O73 2.031 . S
Zn70 O75 2.049 . S
Zn70 O80 2.067 . S
Zn71 O72 1.962 . S
Zn71 O74 1.986 . S
Zn71 O76 1.996 . S
Zn71 O79 1.943 . S
O72 Zn71 1.962 . S
O72 C77 1.254 . S
O73 Zn70 2.031 . S
O73 C77 1.269 . S
O74 Zn71 1.986 . S
O74 C81 1.262 . S
O75 Zn70 2.049 . S
O75 C83 1.260 . S
O76 Zn71 1.996 . S
O76 C83 1.257 . S
C77 O72 1.254 . S
C77 O73 1.269 . S
C78 O79 1.249 . S
C78 O80 1.270 . S
O79 Zn71 1.943 . S
O79 C78 1.249 . S
O80 Zn70 2.067 . S
O80 C78 1.270 . S
C81 O74 1.262 . S
C81 O82 1.232 . S
O82 C81 1.232 . S
C83 O75 1.260 . S
C83 O76 1.257 . S
Zn84 O87 2.031 . S
Zn84 O89 2.049 . S
Zn84 O94 2.067 . S
Zn85 O86 1.962 . S
Zn85 O88 1.986 . S
Zn85 O90 1.996 . S
Zn85 O93 1.943 . S
O86 Zn85 1.962 . S
O86 C91 1.254 . S
O87 Zn84 2.031 . S
O87 C91 1.269 . S
O88 Zn85 1.986 . S
O88 C95 1.262 . S
O89 Zn84 2.049 . S
O89 C97 1.260 . S
O90 Zn85 1.996 . S
O90 C97 1.257 . S
C91 O86 1.254 . S
C91 O87 1.269 . S
C92 O93 1.249 . S
C92 O94 1.270 . S
O93 Zn85 1.943 . S
O93 C92 1.249 . S
O94 Zn84 2.067 . S
O94 C92 1.270 . S
C95 O88 1.262 . S
C95 O96 1.232 . S
O96 C95 1.232 . S
C97 O89 1.260 . S
C97 O90 1.257 . S
Zn98 O101 2.031 1_655 S
Zn98 O103 2.049 . S
Zn98 O108 2.067 1_554 S
Zn99 O100 1.962 1_556 S
Zn99 O102 1.986 . S
Zn99 O104 1.996 1_556 S
Zn99 O107 1.943 . S
O100 Zn99 1.962 1_554 S
O100 C105 1.254 . S
O101 Zn98 2.031 1_455 S
O101 C105 1.269 . S
O102 Zn99 1.986 . S
O102 C109 1.262 . S
O103 Zn98 2.049 . S
O103 C111 1.260 1_655 S
O104 Zn99 1.996 1_554 S
O104 C111 1.257 . S
C105 O100 1.254 . S
C105 O101 1.269 . S
C106 O107 1.249 1_655 S
C106 O108 1.270 . S
O107 Zn99 1.943 . S
O107 C106 1.249 1_455 S
O108 Zn98 2.067 1_556 S
O108 C106 1.270 . S
C109 O102 1.262 . S
C109 O110 1.232 . S
O110 C109 1.232 . S
C111 O103 1.260 1_455 S
C111 O104 1.257 . S
Zn112 O115 2.031 . S
Zn112 O117 2.049 . S
Zn112 O122 2.067 . S
Zn113 O114 1.962 . S
Zn113 O116 1.986 . S
Zn113 O118 1.996 . S
Zn113 O121 1.943 1_545 S
O114 Zn113 1.962 . S
O114 C119 1.254 . S
O115 Zn112 2.031 . S
O115 C119 1.269 1_565 S
O116 Zn113 1.986 . S
O116 C123 1.262 . S
O117 Zn112 2.049 . S
O117 C125 1.260 . S
O118 Zn113 1.996 . S
O118 C125 1.257 1_545 S
C119 O114 1.254 . S
C119 O115 1.269 1_545 S
C120 O121 1.249 . S
C120 O122 1.270 . S
O121 Zn113 1.943 1_565 S
O121 C120 1.249 . S
O122 Zn112 2.067 . S
O122 C120 1.270 . S
C123 O116 1.262 . S
C123 O124 1.232 . S
O124 C123 1.232 . S
C125 O117 1.260 . S
C125 O118 1.257 1_565 S
Zn126 O129 2.031 . S
Zn126 O131 2.049 . S
Zn126 O136 2.067 . S
Zn127 O128 1.962 . S
Zn127 O130 1.986 . S
Zn127 O132 1.996 . S
Zn127 O135 1.943 . S
O128 Zn127 1.962 . S
O128 C133 1.254 . S
O129 Zn126 2.031 . S
O129 C133 1.269 . S
O130 Zn127 1.986 . S
O130 C137 1.262 . S
O131 Zn126 2.049 . S
O131 C139 1.260 . S
O132 Zn127 1.996 . S
O132 C139 1.257 . S
C133 O128 1.254 . S
C133 O129 1.269 . S
C134 O135 1.249 . S
C134 O136 1.270 . S
O135 Zn127 1.943 . S
O135 C134 1.249 . S
O136 Zn126 2.067 . S
O136 C134 1.270 . S
C137 O130 1.262 . S
C137 O138 1.232 . S
O138 C137 1.232 . S
C139 O131 1.260 . S
C139 O132 1.257 . S
Zn140 O143 2.031 . S
Zn140 O145 2.049 . S
Zn140 O150 2.067 . S
Zn141 O142 1.962 . S
Zn141 O144 1.986 1_545 S
Zn141 O146 1.996 . S
Zn141 O149 1.943 . S
O142 Zn141 1.962 . S
O142 C147 1.254 . S
O143 Zn140 2.031 . S
O143 C147 1.269 . S
O144 Zn141 1.986 1_565 S
O144 C151 1.262 . S
O145 Zn140 2.049 . S
O145 C153 1.260 . S
O146 Zn141 1.996 . S
O146 C153 1.257 . S
C147 O142 1.254 . S
C147 O143 1.269 . S
C148 O149 1.249 . S
C148 O150 1.270 . S
O149 Zn141 1.943 . S
O149 C148 1.249 . S
O150 Zn140 2.067 . S
O150 C148 1.270 . S
C151 O144 1.262 . S
C151 O152 1.232 . S
O152 C151 1.232 . S
C153 O145 1.260 . S
C153 O146 1.257 . S
Zn154 O157 2.031 1_554 S
Zn154 O159 2.049 . S
Zn154 O164 2.067 1_565 S
Zn155 O156 1.962 . S
Zn155 O158 1.986 1_566 S
Zn155 O160 1.996 1_556 S
Zn155 O163 1.943 1_566 S
O156 Zn155 1.962 . S
O156 C161 1.254 . S
O157 Zn154 2.031 1_556 S
O157 C161 1.269 . S
O158 Zn155 1.986 1_544 S
O158 C165 1.262 . S
O159 Zn154 2.049 . S
O159 C167 1.260 . S
O160 Zn155 1.996 1_554 S
O160 C167 1.257 . S
C161 O156 1.254 . S
C161 O157 1.269 . S
C162 O163 1.249 . S
C162 O164 1.270 . S
O163 Zn155 1.943 1_544 S
O163 C162 1.249 . S
O164 Zn154 2.067 1_545 S
O164 C162 1.270 . S
C165 O158 1.262 . S
C165 O166 1.232 1_554 S
O166 C165 1.232 1_556 S
C167 O159 1.260 . S
C167 O160 1.257 . S
Zn168 O171 2.031 1_554 S
Zn168 O173 2.049 . S
Zn168 O178 2.067 . S
Zn169 O170 1.962 1_554 S
Zn169 O172 1.986 . S
Zn169 O174 1.996 . S
Zn169 O177 1.943 . S
O170 Zn169 1.962 1_556 S
O170 C175 1.254 . S
O171 Zn168 2.031 1_556 S
O171 C175 1.269 . S
O172 Zn169 1.986 . S
O172 C179 1.262 . S
O173 Zn168 2.049 . S
O173 C181 1.260 . S
O174 Zn169 1.996 . S
O174 C181 1.257 . S
C175 O170 1.254 . S
C175 O171 1.269 . S
C176 O177 1.249 . S
C176 O178 1.270 . S
O177 Zn169 1.943 . S
O177 C176 1.249 . S
O178 Zn168 2.067 . S
O178 C176 1.270 . S
C179 O172 1.262 . S
C179 O180 1.232 . S
O180 C179 1.232 . S
C181 O173 1.260 . S
C181 O174 1.257 . S
Zn182 O185 2.031 . S
Zn182 O187 2.049 . S
Zn182 O192 2.067 . S
Zn183 O184 1.962 . S
Zn183 O186 1.986 . S
Zn183 O188 1.996 . S
Zn183 O191 1.943 . S
O184 Zn183 1.962 . S
O184 C189 1.254 1_554 S
O185 Zn182 2.031 . S
O185 C189 1.269 1_554 S
O186 Zn183 1.986 . S
O186 C193 1.262 . S
O187 Zn182 2.049 . S
O187 C195 1.260 . S
O188 Zn183 1.996 . S
O188 C195 1.257 . S
C189 O184 1.254 1_556 S
C189 O185 1.269 1_556 S
C190 O191 1.249 . S
C190 O192 1.270 . S
O191 Zn183 1.943 . S
O191 C190 1.249 . S
O192 Zn182 2.067 . S
O192 C190 1.270 . S
C193 O186 1.262 . S
C193 O194 1.232 . S
O194 C193 1.232 . S
C195 O187 1.260 . S
C195 O188 1.257 . S
Zn196 O199 2.031 . S
Zn196 O201 2.049 . S
Zn196 O206 2.067 . S
Zn197 O198 1.962 . S
Zn197 O200 1.986 . S
Zn197 O202 1.996 . S
Zn197 O205 1.943 . S
O198 Zn197 1.962 . S
O198 C203 1.254 . S
O199 Zn196 2.031 . S
O199 C203 1.269 . S
O200 Zn197 1.986 . S
O200 C207 1.262 . S
O201 Zn196 2.049 . S
O201 C209 1.260 . S
O202 Zn197 1.996 . S
O202 C209 1.257 . S
C203 O198 1.254 . S
C203 O199 1.269 . S
C204 O205 1.249 . S
C204 O206 1.270 . S
O205 Zn197 1.943 . S
O205 C204 1.249 . S
O206 Zn196 2.067 . S
O206 C204 1.270 . S
C207 O200 1.262 . S
C207 O208 1.232 . S
O208 C207 1.232 . S
C209 O201 1.260 . S
C209 O202 1.257 . S
Zn210 O213 2.031 . S
Zn210 O215 2.049 . S
Zn210 O220 2.067 . S
Zn211 O212 1.962 . S
Zn211 O214 1.986 . S
Zn211 O216 1.996 . S
Zn211 O219 1.943 . S
O212 Zn211 1.962 . S
O212 C217 1.254 . S
O213 Zn210 2.031 . S
O213 C217 1.269 . S
O214 Zn211 1.986 . S
O214 C221 1.262 . S
O215 Zn210 2.049 . S
O215 C223 1.260 . S
O216 Zn211 1.996 . S
O216 C223 1.257 . S
C217 O212 1.254 . S
C217 O213 1.269 . S
C218 O219 1.249 . S
C218 O220 1.270 . S
O219 Zn211 1.943 . S
O219 C218 1.249 . S
O220 Zn210 2.067 . S
O220 C218 1.270 . S
C221 O214 1.262 . S
C221 O222 1.232 . S
O222 C221 1.232 . S
C223 O215 1.260 . S
C223 O216 1.257 . S
Zn224 O227 2.031 . S
Zn224 O229 2.049 . S
Zn224 O234 2.067 1_445 S
Zn225 O226 1.962 1_655 S
Zn225 O228 1.986 . S
Zn225 O230 1.996 1_655 S
Zn225 O233 1.943 . S
O226 Zn225 1.962 1_455 S
O226 C231 1.254 . S
O227 Zn224 2.031 . S
O227 C231 1.269 . S
O228 Zn225 1.986 . S
O228 C235 1.262 . S
O229 Zn224 2.049 . S
O229 C237 1.260 . S
O230 Zn225 1.996 1_455 S
O230 C237 1.257 . S
C231 O226 1.254 . S
C231 O227 1.269 . S
C232 O233 1.249 1_565 S
C232 O234 1.270 . S
O233 Zn225 1.943 . S
O233 C232 1.249 1_545 S
O234 Zn224 2.067 1_665 S
O234 C232 1.270 . S
C235 O228 1.262 . S
C235 O236 1.232 . S
O236 C235 1.232 . S
C237 O229 1.260 . S
C237 O230 1.257 . S
Zn238 O241 2.031 . S
Zn238 O243 2.049 . S
Zn238 O248 2.067 . S
Zn239 O240 1.962 . S
Zn239 O242 1.986 . S
Zn239 O244 1.996 . S
Zn239 O247 1.943 . S
O240 Zn239 1.962 . S
O240 C245 1.254 . S
O241 Zn238 2.031 . S
O241 C245 1.269 . S
O242 Zn239 1.986 . S
O242 C249 1.262 . S
O243 Zn238 2.049 . S
O243 C251 1.260 . S
O244 Zn239 1.996 . S
O244 C251 1.257 . S
C245 O240 1.254 . S
C245 O241 1.269 . S
C246 O247 1.249 . S
C246 O248 1.270 . S
O247 Zn239 1.943 . S
O247 C246 1.249 . S
O248 Zn238 2.067 . S
O248 C246 1.270 . S
C249 O242 1.262 . S
C249 O250 1.232 . S
O250 C249 1.232 . S
C251 O243 1.260 . S
C251 O244 1.257 . S
Zn252 O255 2.031 . S
Zn252 O257 2.049 . S
Zn252 O262 2.067 . S
Zn253 O254 1.962 . S
Zn253 O256 1.986 . S
Zn253 O258 1.996 . S
Zn253 O261 1.943 . S
O254 Zn253 1.962 . S
O254 C259 1.254 . S
O255 Zn252 2.031 . S
O255 C259 1.269 . S
O256 Zn253 1.986 . S
O256 C263 1.262 . S
O257 Zn252 2.049 . S
O257 C265 1.260 . S
O258 Zn253 1.996 . S
O258 C265 1.257 . S
C259 O254 1.254 . S
C259 O255 1.269 . S
C260 O261 1.249 . S
C260 O262 1.270 . S
O261 Zn253 1.943 . S
O261 C260 1.249 . S
O262 Zn252 2.067 . S
O262 C260 1.270 . S
C263 O256 1.262 . S
C263 O264 1.232 . S
O264 C263 1.232 . S
C265 O257 1.260 . S
C265 O258 1.257 . S
Zn266 O269 2.031 . S
Zn266 O271 2.049 . S
Zn266 O276 2.067 . S
Zn267 O268 1.962 . S
Zn267 O270 1.986 . S
Zn267 O272 1.996 . S
Zn267 O275 1.943 . S
O268 Zn267 1.962 . S
O268 C273 1.254 . S
O269 Zn266 2.031 . S
O269 C273 1.269 . S
O270 Zn267 1.986 . S
O270 C277 1.262 . S
O271 Zn266 2.049 . S
O271 C279 1.260 . S
O272 Zn267 1.996 . S
O272 C279 1.257 . S
C273 O268 1.254 . S
C273 O269 1.269 . S
C274 O275 1.249 . S
C274 O276 1.270 . S
O275 Zn267 1.943 . S
O275 C274 1.249 . S
O276 Zn266 2.067 . S
O276 C274 1.270 . S
C277 O270 1.262 . S
C277 O278 1.232 . S
O278 C277 1.232 . S
C279 O271 1.260 . S
C279 O272 1.257 . S
Zn280 O283 2.031 1_554 S
Zn280 O285 2.049 . S
Zn280 O290 2.067 . S
Zn281 O282 1.954 1_554 S
Zn281 O284 1.990 . S
Zn281 O286 2.002 . S
Zn281 O289 1.944 1_554 S
O282 Zn281 1.954 1_556 S
O282 C287 1.254 . S
O283 Zn280 2.031 1_556 S
O283 C287 1.269 . S
O284 Zn281 1.990 . S
O284 C291 1.262 1_554 S
O285 Zn280 2.049 . S
O285 C293 1.260 . S
O286 Zn281 2.002 . S
O286 C293 1.257 . S
C287 O282 1.254 . S
C287 O283 1.269 . S
C288 O289 1.249 . S
C288 O290 1.270 1_556 S
O289 Zn281 1.944 1_556 S
O289 C288 1.249 . S
O290 Zn280 2.067 . S
O290 C288 1.270 1_554 S
C291 O284 1.262 1_556 S
C291 O292 1.232 . S
O292 C291 1.232 . S
C293 O285 1.260 . S
C293 O286 1.257 . S
Zn294 O297 2.031 . S
Zn294 O299 2.049 . S
Zn294 O304 2.067 1_455 S
Zn295 O296 1.962 1_655 S
Zn295 O298 1.986 . S
Zn295 O300 1.996 1_655 S
Zn295 O303 1.943 . S
O296 Zn295 1.962 1_455 S
O296 C301 1.254 . S
O297 Zn294 2.031 . S
O297 C301 1.269 . S
O298 Zn295 1.986 . S
O298 C305 1.262 . S
O299 Zn294 2.049 . S
O299 C307 1.260 . S
O300 Zn295 1.996 1_455 S
O300 C307 1.257 . S
C301 O296 1.254 . S
C301 O297 1.269 . S
C302 O303 1.249 . S
C302 O304 1.270 . S
O303 Zn295 1.943 . S
O303 C302 1.249 . S
O304 Zn294 2.067 1_655 S
O304 C302 1.270 . S
C305 O298 1.262 . S
C305 O306 1.232 . S
O306 C305 1.232 . S
C307 O299 1.260 . S
C307 O300 1.257 . S
Zn308 O311 2.031 . S
Zn308 O313 2.049 . S
Zn308 O318 2.067 1_655 S
Zn309 O310 1.962 . S
Zn309 O312 1.986 . S
Zn309 O314 1.996 . S
Zn309 O317 1.943 . S
O310 Zn309 1.962 . S
O310 C315 1.254 . S
O311 Zn308 2.031 . S
O311 C315 1.269 . S
O312 Zn309 1.986 . S
O312 C319 1.262 . S
O313 Zn308 2.049 . S
O313 C321 1.260 . S
O314 Zn309 1.996 . S
O314 C321 1.257 . S
C315 O310 1.254 . S
C315 O311 1.269 . S
C316 O317 1.249 1_455 S
C316 O318 1.270 . S
O317 Zn309 1.943 . S
O317 C316 1.249 1_655 S
O318 Zn308 2.067 1_455 S
O318 C316 1.270 . S
C319 O312 1.262 . S
C319 O320 1.232 . S
O320 C319 1.232 . S
C321 O313 1.260 . S
C321 O314 1.257 . S
Zn322 O325 2.031 . S
Zn322 O327 2.049 . S
Zn322 O332 2.067 . S
Zn323 O324 1.962 . S
Zn323 O326 1.986 . S
Zn323 O328 1.996 . S
Zn323 O331 1.943 . S
O324 Zn323 1.962 . S
O324 C329 1.254 . S
O325 Zn322 2.031 . S
O325 C329 1.269 . S
O326 Zn323 1.986 . S
O326 C333 1.262 . S
O327 Zn322 2.049 . S
O327 C335 1.260 . S
O328 Zn323 1.996 . S
O328 C335 1.257 . S
C329 O324 1.254 . S
C329 O325 1.269 . S
C330 O331 1.249 . S
C330 O332 1.270 . S
O331 Zn323 1.943 . S
O331 C330 1.249 . S
O332 Zn322 2.067 . S
O332 C330 1.270 . S
C333 O326 1.262 . S
C333 O334 1.232 . S
O334 C333 1.232 . S
C335 O327 1.260 . S
C335 O328 1.257 . S
Eu336 N367 2.657 1_546 S
Eu336 N374 2.609 1_545 S
Eu336 O380 2.558 1_455 S
Eu336 O381 2.612 1_556 S
Eu336 O383 2.339 1_556 S
Eu336 O384 2.563 . S
Eu336 O385 2.419 1_456 S
Eu336 O387 2.380 1_556 S
Eu336 O388 2.432 . S
Eu336 C400 2.848 1_455 S
C337 C340 1.429 . S
C337 C341 1.411 . S
C337 N344 1.377 . S
C338 C340 1.420 . S
C338 C342 1.423 . S
C338 C350 1.392 . S
C339 C341 1.420 . S
C339 C342 1.351 . S
C339 H362 0.931 . S
C340 C337 1.429 . S
C340 C338 1.420 . S
C340 N348 1.362 . S
C341 C337 1.411 . S
C341 C339 1.420 . S
C341 C346 1.395 . S
C342 C338 1.423 . S
C342 C339 1.351 . S
C342 H354 0.930 . S
C343 C345 1.400 . S
C343 C346 1.386 . S
C343 H355 0.930 . S
N344 C337 1.377 . S
N344 C345 1.321 . S
N344 Eu347 2.609 . S
C345 C343 1.400 . S
C345 N344 1.321 . S
C345 H352 0.930 . S
C346 C341 1.395 . S
C346 C343 1.386 . S
C346 H365 0.930 . S
Eu347 N344 2.609 . S
Eu347 N348 2.657 . S
Eu347 O381 2.380 . S
Eu347 O382 2.432 . S
Eu347 O386 2.558 . S
Eu347 O387 2.612 . S
Eu347 O389 2.339 1_554 S
Eu347 O390 2.563 . S
Eu347 O391 2.419 . S
Eu347 C411 2.848 . S
N348 C340 1.362 . S
N348 Eu347 2.657 . S
N348 C349 1.334 1_554 S
C349 N348 1.334 1_556 S
C349 C351 1.413 . S
C349 H356 0.929 . S
C350 C338 1.392 . S
C350 C351 1.367 1_554 S
C350 H358 0.930 1_554 S
C351 C349 1.413 . S
C351 C350 1.367 1_556 S
C351 H353 0.930 . S
H352 C345 0.930 . S
H353 C351 0.930 . S
H354 C342 0.930 . S
H355 C343 0.930 . S
H356 C349 0.929 . S
H357 C371 0.930 . S
H358 C350 0.930 1_556 S
H359 C377 0.930 . S
H360 C368 0.929 . S
H361 C375 0.930 . S
H362 C339 0.931 . S
H363 C369 0.930 . S
H364 C402 0.930 . S
H365 C346 0.930 . S
H366 C401 0.931 . S
N367 Eu336 2.657 1_564 S
N367 C368 1.334 . S
N367 C372 1.362 1_554 S
C368 H360 0.929 . S
C368 N367 1.334 . S
C368 C371 1.413 . S
C369 H363 0.930 . S
C369 C370 1.392 1_554 S
C369 C371 1.367 1_655 S
C370 C369 1.392 1_556 S
C370 C372 1.420 1_655 S
C370 C402 1.423 . S
C371 H357 0.930 . S
C371 C368 1.413 . S
C371 C369 1.367 1_455 S
C372 N367 1.362 1_556 S
C372 C370 1.420 1_455 S
C372 C376 1.429 1_455 S
H373 C378 0.930 . S
N374 Eu336 2.609 1_565 S
N374 C376 1.377 1_455 S
N374 C377 1.321 . S
C375 H361 0.930 . S
C375 C377 1.400 1_655 S
C375 C378 1.386 . S
C376 C372 1.429 1_655 S
C376 N374 1.377 1_655 S
C376 C379 1.411 . S
C377 H359 0.930 . S
C377 N374 1.321 . S
C377 C375 1.400 1_455 S
C378 H373 0.930 . S
C378 C375 1.386 . S
C378 C379 1.395 . S
C379 C376 1.411 . S
C379 C378 1.395 . S
C379 C401 1.420 . S
O380 Eu336 2.558 1_655 S
O380 C400 1.257 . S
O381 Eu336 2.612 1_554 S
O381 Eu347 2.380 . S
O381 C392 1.276 . S
O382 Eu347 2.432 . S
O382 C399 1.264 . S
O383 Eu336 2.339 1_554 S
O383 C399 1.254 . S
O384 Eu336 2.563 . S
O384 C392 1.235 1_556 S
O385 Eu336 2.419 1_654 S
O385 C400 1.249 1_554 S
O386 Eu347 2.558 . S
O386 C411 1.257 . S
O387 Eu336 2.380 1_554 S
O387 Eu347 2.612 . S
O387 C403 1.276 1_545 S
O388 Eu336 2.432 . S
O388 C410 1.264 . S
O389 Eu347 2.339 1_556 S
O389 C410 1.254 . S
O390 Eu347 2.563 . S
O390 C403 1.235 1_545 S
O391 Eu347 2.419 . S
O391 C411 1.249 . S
C392 O381 1.276 . S
C392 O384 1.235 1_554 S
C393 C395 1.393 . S
C393 C397 1.395 1_545 S
C393 C400 1.492 . S
C394 C395 1.392 . S
C394 C396 1.386 . S
C395 C393 1.393 . S
C395 C394 1.392 . S
C395 H412 0.930 1_556 S
C396 C394 1.386 . S
C396 C398 1.395 1_545 S
C396 H413 0.930 . S
C397 C393 1.395 1_565 S
C397 C398 1.379 . S
C397 H414 0.930 . S
C398 C396 1.395 1_565 S
C398 C397 1.379 . S
C398 H415 0.930 . S
C399 O382 1.264 . S
C399 O383 1.254 . S
C400 Eu336 2.848 1_655 S
C400 O380 1.257 . S
C400 O385 1.249 1_556 S
C400 C393 1.492 . S
C401 H366 0.931 . S
C401 C379 1.420 . S
C401 C402 1.351 . S
C402 H364 0.930 . S
C402 C370 1.423 . S
C402 C401 1.351 . S
C403 O387 1.276 1_565 S
C403 O390 1.235 1_565 S
C404 C405 1.393 . S
C404 C408 1.395 . S
C404 C411 1.492 . S
C405 C404 1.393 . S
C405 C406 1.392 . S
C405 H416 0.930 . S
C406 C405 1.392 . S
C406 C407 1.386 . S
C407 C406 1.386 . S
C407 C409 1.395 . S
C407 H417 0.930 . S
C408 C404 1.395 . S
C408 C409 1.379 . S
C408 H418 0.930 . S
C409 C407 1.395 . S
C409 C408 1.379 . S
C409 H419 0.930 . S
C410 O388 1.264 . S
C410 O389 1.254 . S
C411 Eu347 2.848 . S
C411 O386 1.257 . S
C411 O391 1.249 . S
C411 C404 1.492 . S
H412 C395 0.930 1_554 S
H413 C396 0.930 . S
H414 C397 0.930 . S
H415 C398 0.930 . S
H416 C405 0.930 . S
H417 C407 0.930 . S
H418 C408 0.930 . S
H419 C409 0.930 . S
Eu420 N451 2.657 . S
Eu420 N458 2.609 . S
Eu420 O464 2.558 . S
Eu420 O465 2.612 . S
Eu420 O467 2.339 . S
Eu420 O468 2.563 . S
Eu420 O469 2.419 . S
Eu420 O471 2.380 . S
Eu420 O472 2.432 . S
Eu420 C484 2.848 . S
C421 C424 1.429 . S
C421 C425 1.411 . S
C421 N428 1.377 . S
C422 C424 1.420 . S
C422 C426 1.423 1_565 S
C422 C434 1.392 1_565 S
C423 C425 1.420 1_545 S
C423 C426 1.351 . S
C423 H446 0.931 . S
C424 C421 1.429 . S
C424 C422 1.420 . S
C424 N432 1.362 . S
C425 C421 1.411 . S
C425 C423 1.420 1_565 S
C425 C430 1.395 . S
C426 C422 1.423 1_545 S
C426 C423 1.351 . S
C426 H438 0.930 . S
C427 C429 1.400 . S
C427 C430 1.386 . S
C427 H439 0.930 . S
N428 C421 1.377 . S
N428 C429 1.321 . S
N428 Eu431 2.609 . S
C429 C427 1.400 . S
C429 N428 1.321 . S
C429 H436 0.930 . S
C430 C425 1.395 . S
C430 C427 1.386 . S
C430 H449 0.930 . S
Eu431 N428 2.609 . S
Eu431 N432 2.657 . S
Eu431 O465 2.380 . S
Eu431 O466 2.432 . S
Eu431 O470 2.558 . S
Eu431 O471 2.612 . S
Eu431 O473 2.339 . S
Eu431 O474 2.563 . S
Eu431 O475 2.419 . S
Eu431 C495 2.848 . S
N432 C424 1.362 . S
N432 Eu431 2.657 . S
N432 C433 1.334 . S
C433 N432 1.334 . S
C433 C435 1.413 . S
C433 H440 0.929 . S
C434 C422 1.392 1_545 S
C434 C435 1.367 1_545 S
C434 H442 0.930 . S
C435 C433 1.413 . S
C435 C434 1.367 1_565 S
C435 H437 0.930 . S
H436 C429 0.930 . S
H437 C435 0.930 . S
H438 C426 0.930 . S
H439 C427 0.930 . S
H440 C433 0.929 . S
H441 C455 0.930 . S
H442 C434 0.930 . S
H443 C461 0.930 . S
H444 C452 0.929 . S
H445 C459 0.930 . S
H446 C423 0.931 . S
H447 C453 0.930 . S
H448 C486 0.930 . S
H449 C430 0.930 . S
H450 C485 0.931 . S
N451 Eu420 2.657 . S
N451 C452 1.334 . S
N451 C456 1.362 . S
C452 H444 0.929 . S
C452 N451 1.334 . S
C452 C455 1.413 . S
C453 H447 0.930 . S
C453 C454 1.392 . S
C453 C455 1.367 . S
C454 C453 1.392 . S
C454 C456 1.420 . S
C454 C486 1.423 . S
C455 H441 0.930 . S
C455 C452 1.413 . S
C455 C453 1.367 . S
C456 N451 1.362 . S
C456 C454 1.420 . S
C456 C460 1.429 . S
H457 C462 0.930 . S
N458 Eu420 2.609 . S
N458 C460 1.377 . S
N458 C461 1.321 . S
C459 H445 0.930 . S
C459 C461 1.400 . S
C459 C462 1.386 . S
C460 C456 1.429 . S
C460 N458 1.377 . S
C460 C463 1.411 . S
C461 H443 0.930 . S
C461 N458 1.321 . S
C461 C459 1.400 . S
C462 H457 0.930 . S
C462 C459 1.386 . S
C462 C463 1.395 . S
C463 C460 1.411 . S
C463 C462 1.395 . S
C463 C485 1.420 . S
O464 Eu420 2.558 . S
O464 C484 1.257 . S
O465 Eu420 2.612 . S
O465 Eu431 2.380 . S
O465 C476 1.276 . S
O466 Eu431 2.432 . S
O466 C483 1.264 . S
O467 Eu420 2.339 . S
O467 C483 1.254 . S
O468 Eu420 2.563 . S
O468 C476 1.235 . S
O469 Eu420 2.419 . S
O469 C484 1.249 . S
O470 Eu431 2.558 . S
O470 C495 1.257 . S
O471 Eu420 2.380 . S
O471 Eu431 2.612 . S
O471 C487 1.276 . S
O472 Eu420 2.432 . S
O472 C494 1.264 . S
O473 Eu431 2.339 . S
O473 C494 1.254 . S
O474 Eu431 2.563 . S
O474 C487 1.235 . S
O475 Eu431 2.419 . S
O475 C495 1.249 . S
C476 O465 1.276 . S
C476 O468 1.235 . S
C477 C479 1.393 . S
C477 C481 1.395 . S
C477 C484 1.492 . S
C478 C479 1.392 . S
C478 C480 1.386 . S
C479 C477 1.393 . S
C479 C478 1.392 . S
C479 H496 0.930 . S
C480 C478 1.386 . S
C480 C482 1.395 . S
C480 H497 0.930 . S
C481 C477 1.395 . S
C481 C482 1.379 . S
C481 H498 0.930 . S
C482 C480 1.395 . S
C482 C481 1.379 . S
C482 H499 0.930 . S
C483 O466 1.264 . S
C483 O467 1.254 . S
C484 Eu420 2.848 . S
C484 O464 1.257 . S
C484 O469 1.249 . S
C484 C477 1.492 . S
C485 H450 0.931 . S
C485 C463 1.420 . S
C485 C486 1.351 . S
C486 H448 0.930 . S
C486 C454 1.423 . S
C486 C485 1.351 . S
C487 O471 1.276 . S
C487 O474 1.235 . S
C488 C489 1.393 . S
C488 C492 1.395 . S
C488 C495 1.492 . S
C489 C488 1.393 . S
C489 C490 1.392 . S
C489 H500 0.930 . S
C490 C489 1.392 . S
C490 C491 1.386 . S
C491 C490 1.386 . S
C491 C493 1.395 . S
C491 H501 0.930 . S
C492 C488 1.395 . S
C492 C493 1.379 . S
C492 H502 0.930 . S
C493 C491 1.395 . S
C493 C492 1.379 . S
C493 H503 0.930 . S
C494 O472 1.264 . S
C494 O473 1.254 . S
C495 Eu431 2.848 . S
C495 O470 1.257 . S
C495 O475 1.249 . S
C495 C488 1.492 . S
H496 C479 0.930 . S
H497 C480 0.930 . S
H498 C481 0.930 . S
H499 C482 0.930 . S
H500 C489 0.930 . S
H501 C491 0.930 . S
H502 C492 0.930 . S
H503 C493 0.930 . S
Eu504 N535 2.657 . S
Eu504 N542 2.609 . S
Eu504 O548 2.558 . S
Eu504 O549 2.612 . S
Eu504 O551 2.339 . S
Eu504 O552 2.563 1_545 S
Eu504 O553 2.419 . S
Eu504 O555 2.380 . S
Eu504 O556 2.432 . S
Eu504 C568 2.848 . S
C505 C508 1.429 . S
C505 C509 1.411 . S
C505 N512 1.377 1_565 S
C506 C508 1.420 . S
C506 C510 1.423 . S
C506 C518 1.392 . S
C507 C509 1.420 . S
C507 C510 1.351 . S
C507 H530 0.931 . S
C508 C505 1.429 . S
C508 C506 1.420 . S
C508 N516 1.362 . S
C509 C505 1.411 . S
C509 C507 1.420 . S
C509 C514 1.395 . S
C510 C506 1.423 . S
C510 C507 1.351 . S
C510 H522 0.930 . S
C511 C513 1.400 . S
C511 C514 1.386 1_545 S
C511 H523 0.930 . S
N512 C505 1.377 1_545 S
N512 C513 1.321 . S
N512 Eu515 2.609 . S
C513 C511 1.400 . S
C513 N512 1.321 . S
C513 H520 0.930 . S
C514 C509 1.395 . S
C514 C511 1.386 1_565 S
C514 H533 0.930 . S
Eu515 N512 2.609 . S
Eu515 N516 2.657 1_545 S
Eu515 O549 2.380 . S
Eu515 O550 2.432 . S
Eu515 O554 2.558 . S
Eu515 O555 2.612 . S
Eu515 O557 2.339 . S
Eu515 O558 2.563 . S
Eu515 O559 2.419 . S
Eu515 C579 2.848 . S
N516 C508 1.362 . S
N516 Eu515 2.657 1_565 S
N516 C517 1.334 . S
C517 N516 1.334 . S
C517 C519 1.413 . S
C517 H524 0.929 . S
C518 C506 1.392 . S
C518 C519 1.367 . S
C518 H526 0.930 . S
C519 C517 1.413 . S
C519 C518 1.367 . S
C519 H521 0.930 . S
H520 C513 0.930 . S
H521 C519 0.930 . S
H522 C510 0.930 . S
H523 C511 0.930 . S
H524 C517 0.929 . S
H525 C539 0.930 . S
H526 C518 0.930 . S
H527 C545 0.930 . S
H528 C536 0.929 . S
H529 C543 0.930 . S
H530 C507 0.931 . S
H531 C537 0.930 . S
H532 C570 0.930 . S
H533 C514 0.930 . S
H534 C569 0.931 . S
N535 Eu504 2.657 . S
N535 C536 1.334 . S
N535 C540 1.362 . S
C536 H528 0.929 . S
C536 N535 1.334 . S
C536 C539 1.413 . S
C537 H531 0.930 . S
C537 C538 1.392 . S
C537 C539 1.367 . S
C538 C537 1.392 . S
C538 C540 1.420 . S
C538 C570 1.423 . S
C539 H525 0.930 . S
C539 C536 1.413 . S
C539 C537 1.367 . S
C540 N535 1.362 . S
C540 C538 1.420 . S
C540 C544 1.429 . S
H541 C546 0.930 . S
N542 Eu504 2.609 . S
N542 C544 1.377 . S
N542 C545 1.321 . S
C543 H529 0.930 . S
C543 C545 1.400 . S
C543 C546 1.386 . S
C544 C540 1.429 . S
C544 N542 1.377 . S
C544 C547 1.411 . S
C545 H527 0.930 . S
C545 N542 1.321 . S
C545 C543 1.400 . S
C546 H541 0.930 . S
C546 C543 1.386 . S
C546 C547 1.395 . S
C547 C544 1.411 . S
C547 C546 1.395 . S
C547 C569 1.420 . S
O548 Eu504 2.558 . S
O548 C568 1.257 . S
O549 Eu504 2.612 . S
O549 Eu515 2.380 . S
O549 C560 1.276 1_545 S
O550 Eu515 2.432 . S
O550 C567 1.264 . S
O551 Eu504 2.339 . S
O551 C567 1.254 . S
O552 Eu504 2.563 1_565 S
O552 C560 1.235 . S
O553 Eu504 2.419 . S
O553 C568 1.249 . S
O554 Eu515 2.558 . S
O554 C579 1.257 . S
O555 Eu504 2.380 . S
O555 Eu515 2.612 . S
O555 C571 1.276 . S
O556 Eu504 2.432 . S
O556 C578 1.264 . S
O557 Eu515 2.339 . S
O557 C578 1.254 . S
O558 Eu515 2.563 . S
O558 C571 1.235 . S
O559 Eu515 2.419 . S
O559 C579 1.249 . S
C560 O549 1.276 1_565 S
C560 O552 1.235 . S
C561 C563 1.393 . S
C561 C565 1.395 . S
C561 C568 1.492 1_565 S
C562 C563 1.392 . S
C562 C564 1.386 . S
C563 C561 1.393 . S
C563 C562 1.392 . S
C563 H580 0.930 . S
C564 C562 1.386 . S
C564 C566 1.395 . S
C564 H581 0.930 . S
C565 C561 1.395 . S
C565 C566 1.379 . S
C565 H582 0.930 . S
C566 C564 1.395 . S
C566 C565 1.379 . S
C566 H583 0.930 . S
C567 O550 1.264 . S
C567 O551 1.254 . S
C568 Eu504 2.848 . S
C568 O548 1.257 . S
C568 O553 1.249 . S
C568 C561 1.492 1_545 S
C569 H534 0.931 . S
C569 C547 1.420 . S
C569 C570 1.351 . S
C570 H532 0.930 . S
C570 C538 1.423 . S
C570 C569 1.351 . S
C571 O555 1.276 . S
C571 O558 1.235 . S
C572 C573 1.393 . S
C572 C576 1.395 . S
C572 C579 1.492 . S
C573 C572 1.393 . S
C573 C574 1.392 . S
C573 H584 0.930 . S
C574 C573 1.392 . S
C574 C575 1.386 . S
C575 C574 1.386 . S
C575 C577 1.395 . S
C575 H585 0.930 . S
C576 C572 1.395 . S
C576 C577 1.379 . S
C576 H586 0.930 . S
C577 C575 1.395 . S
C577 C576 1.379 . S
C577 H587 0.930 . S
C578 O556 1.264 . S
C578 O557 1.254 . S
C579 Eu515 2.848 . S
C579 O554 1.257 . S
C579 O559 1.249 . S
C579 C572 1.492 . S
H580 C563 0.930 . S
H581 C564 0.930 . S
H582 C565 0.930 . S
H583 C566 0.930 . S
H584 C573 0.930 . S
H585 C575 0.930 . S
H586 C576 0.930 . S
H587 C577 0.930 . S
Eu588 N619 2.657 . S
Eu588 N626 2.609 . S
Eu588 O632 2.558 . S
Eu588 O633 2.612 . S
Eu588 O635 2.339 . S
Eu588 O636 2.563 . S
Eu588 O637 2.419 . S
Eu588 O639 2.380 . S
Eu588 O640 2.432 . S
Eu588 C652 2.848 . S
C589 C592 1.429 . S
C589 C593 1.411 . S
C589 N596 1.377 . S
C590 C592 1.420 . S
C590 C594 1.423 . S
C590 C602 1.392 . S
C591 C593 1.420 . S
C591 C594 1.351 . S
C591 H614 0.931 . S
C592 C589 1.429 . S
C592 C590 1.420 . S
C592 N600 1.362 . S
C593 C589 1.411 . S
C593 C591 1.420 . S
C593 C598 1.395 . S
C594 C590 1.423 . S
C594 C591 1.351 . S
C594 H606 0.930 1_556 S
C595 C597 1.400 . S
C595 C598 1.386 . S
C595 H607 0.930 . S
N596 C589 1.377 . S
N596 C597 1.321 . S
N596 Eu599 2.609 . S
C597 C595 1.400 . S
C597 N596 1.321 . S
C597 H604 0.930 . S
C598 C593 1.395 . S
C598 C595 1.386 . S
C598 H617 0.930 . S
Eu599 N596 2.609 . S
Eu599 N600 2.657 . S
Eu599 O633 2.380 . S
Eu599 O634 2.432 . S
Eu599 O638 2.558 . S
Eu599 O639 2.612 . S
Eu599 O641 2.339 . S
Eu599 O642 2.563 . S
Eu599 O643 2.419 . S
Eu599 C663 2.848 . S
N600 C592 1.362 . S
N600 Eu599 2.657 . S
N600 C601 1.334 . S
C601 N600 1.334 . S
C601 C603 1.413 . S
C601 H608 0.929 . S
C602 C590 1.392 . S
C602 C603 1.367 . S
C602 H610 0.930 . S
C603 C601 1.413 . S
C603 C602 1.367 . S
C603 H605 0.930 . S
H604 C597 0.930 . S
H605 C603 0.930 . S
H606 C594 0.930 1_554 S
H607 C595 0.930 . S
H608 C601 0.929 . S
H609 C623 0.930 . S
H610 C602 0.930 . S
H611 C629 0.930 . S
H612 C620 0.929 . S
H613 C627 0.930 . S
H614 C591 0.931 . S
H615 C621 0.930 . S
H616 C654 0.930 . S
H617 C598 0.930 . S
H618 C653 0.931 . S
N619 Eu588 2.657 . S
N619 C620 1.334 . S
N619 C624 1.362 . S
C620 H612 0.929 . S
C620 N619 1.334 . S
C620 C623 1.413 . S
C621 H615 0.930 . S
C621 C622 1.392 . S
C621 C623 1.367 . S
C622 C621 1.392 . S
C622 C624 1.420 . S
C622 C654 1.423 . S
C623 H609 0.930 . S
C623 C620 1.413 . S
C623 C621 1.367 . S
C624 N619 1.362 . S
C624 C622 1.420 . S
C624 C628 1.429 . S
H625 C630 0.930 . S
N626 Eu588 2.609 . S
N626 C628 1.377 . S
N626 C629 1.321 . S
C627 H613 0.930 . S
C627 C629 1.400 . S
C627 C630 1.386 . S
C628 C624 1.429 . S
C628 N626 1.377 . S
C628 C631 1.411 . S
C629 H611 0.930 . S
C629 N626 1.321 . S
C629 C627 1.400 . S
C630 H625 0.930 . S
C630 C627 1.386 . S
C630 C631 1.395 . S
C631 C628 1.411 . S
C631 C630 1.395 . S
C631 C653 1.420 . S
O632 Eu588 2.558 . S
O632 C652 1.257 . S
O633 Eu588 2.612 . S
O633 Eu599 2.380 . S
O633 C644 1.276 . S
O634 Eu599 2.432 . S
O634 C651 1.264 . S
O635 Eu588 2.339 . S
O635 C651 1.254 . S
O636 Eu588 2.563 . S
O636 C644 1.235 . S
O637 Eu588 2.419 . S
O637 C652 1.249 . S
O638 Eu599 2.558 . S
O638 C663 1.257 . S
O639 Eu588 2.380 . S
O639 Eu599 2.612 . S
O639 C655 1.276 . S
O640 Eu588 2.432 . S
O640 C662 1.264 . S
O641 Eu599 2.339 . S
O641 C662 1.254 . S
O642 Eu599 2.563 . S
O642 C655 1.235 . S
O643 Eu599 2.419 . S
O643 C663 1.249 . S
C644 O633 1.276 . S
C644 O636 1.235 . S
C645 C647 1.393 . S
C645 C649 1.395 . S
C645 C652 1.492 . S
C646 C647 1.392 . S
C646 C648 1.386 . S
C647 C645 1.393 . S
C647 C646 1.392 . S
C647 H664 0.930 . S
C648 C646 1.386 . S
C648 C650 1.395 . S
C648 H665 0.930 . S
C649 C645 1.395 . S
C649 C650 1.379 . S
C649 H666 0.930 . S
C650 C648 1.395 . S
C650 C649 1.379 . S
C650 H667 0.930 . S
C651 O634 1.264 . S
C651 O635 1.254 . S
C652 Eu588 2.848 . S
C652 O632 1.257 . S
C652 O637 1.249 . S
C652 C645 1.492 . S
C653 H618 0.931 . S
C653 C631 1.420 . S
C653 C654 1.351 . S
C654 H616 0.930 . S
C654 C622 1.423 . S
C654 C653 1.351 . S
C655 O639 1.276 . S
C655 O642 1.235 . S
C656 C657 1.393 . S
C656 C660 1.395 . S
C656 C663 1.492 . S
C657 C656 1.393 . S
C657 C658 1.392 . S
C657 H668 0.930 . S
C658 C657 1.392 . S
C658 C659 1.386 . S
C659 C658 1.386 . S
C659 C661 1.395 . S
C659 H669 0.930 . S
C660 C656 1.395 . S
C660 C661 1.379 . S
C660 H670 0.930 . S
C661 C659 1.395 . S
C661 C660 1.379 . S
C661 H671 0.930 . S
C662 O640 1.264 . S
C662 O641 1.254 . S
C663 Eu599 2.848 . S
C663 O638 1.257 . S
C663 O643 1.249 . S
C663 C656 1.492 . S
H664 C647 0.930 . S
H665 C648 0.930 . S
H666 C649 0.930 . S
H667 C650 0.930 . S
H668 C657 0.930 . S
H669 C659 0.930 . S
H670 C660 0.930 . S
H671 C661 0.930 . S
Eu672 N703 2.657 . S
Eu672 N710 2.609 . S
Eu672 O716 2.558 . S
Eu672 O717 2.612 . S
Eu672 O719 2.339 . S
Eu672 O720 2.563 . S
Eu672 O721 2.419 . S
Eu672 O723 2.380 . S
Eu672 O724 2.432 . S
Eu672 C736 2.848 . S
C673 C676 1.429 . S
C673 C677 1.411 . S
C673 N680 1.377 . S
C674 C676 1.420 . S
C674 C678 1.423 . S
C674 C686 1.392 1_455 S
C675 C677 1.420 . S
C675 C678 1.351 . S
C675 H698 0.931 . S
C676 C673 1.429 . S
C676 C674 1.420 . S
C676 N684 1.362 . S
C677 C673 1.411 . S
C677 C675 1.420 . S
C677 C682 1.395 . S
C678 C674 1.423 . S
C678 C675 1.351 . S
C678 H690 0.930 . S
C679 C681 1.400 . S
C679 C682 1.386 . S
C679 H691 0.930 . S
N680 C673 1.377 . S
N680 C681 1.321 . S
N680 Eu683 2.609 . S
C681 C679 1.400 . S
C681 N680 1.321 . S
C681 H688 0.930 . S
C682 C677 1.395 . S
C682 C679 1.386 . S
C682 H701 0.930 . S
Eu683 N680 2.609 . S
Eu683 N684 2.657 . S
Eu683 O717 2.380 1_565 S
Eu683 O718 2.432 1_565 S
Eu683 O722 2.558 . S
Eu683 O723 2.612 1_565 S
Eu683 O725 2.339 . S
Eu683 O726 2.563 1_565 S
Eu683 O727 2.419 . S
Eu683 C747 2.848 . S
N684 C676 1.362 . S
N684 Eu683 2.657 . S
N684 C685 1.334 . S
C685 N684 1.334 . S
C685 C687 1.413 1_455 S
C685 H692 0.929 1_455 S
C686 C674 1.392 1_655 S
C686 C687 1.367 . S
C686 H694 0.930 . S
C687 C685 1.413 1_655 S
C687 C686 1.367 . S
C687 H689 0.930 . S
H688 C681 0.930 . S
H689 C687 0.930 . S
H690 C678 0.930 . S
H691 C679 0.930 . S
H692 C685 0.929 1_655 S
H693 C707 0.930 . S
H694 C686 0.930 . S
H695 C713 0.930 . S
H696 C704 0.929 . S
H697 C711 0.930 . S
H698 C675 0.931 . S
H699 C705 0.930 . S
H700 C738 0.930 . S
H701 C682 0.930 . S
H702 C737 0.931 . S
N703 Eu672 2.657 . S
N703 C704 1.334 . S
N703 C708 1.362 . S
C704 H696 0.929 . S
C704 N703 1.334 . S
C704 C707 1.413 . S
C705 H699 0.930 . S
C705 C706 1.392 . S
C705 C707 1.367 . S
C706 C705 1.392 . S
C706 C708 1.420 . S
C706 C738 1.423 . S
C707 H693 0.930 . S
C707 C704 1.413 . S
C707 C705 1.367 . S
C708 N703 1.362 . S
C708 C706 1.420 . S
C708 C712 1.429 . S
H709 C714 0.930 . S
N710 Eu672 2.609 . S
N710 C712 1.377 . S
N710 C713 1.321 . S
C711 H697 0.930 . S
C711 C713 1.400 . S
C711 C714 1.386 . S
C712 C708 1.429 . S
C712 N710 1.377 . S
C712 C715 1.411 . S
C713 H695 0.930 . S
C713 N710 1.321 . S
C713 C711 1.400 . S
C714 H709 0.930 . S
C714 C711 1.386 . S
C714 C715 1.395 . S
C715 C712 1.411 . S
C715 C714 1.395 . S
C715 C737 1.420 . S
O716 Eu672 2.558 . S
O716 C736 1.257 . S
O717 Eu672 2.612 . S
O717 Eu683 2.380 1_545 S
O717 C728 1.276 . S
O718 Eu683 2.432 1_545 S
O718 C735 1.264 . S
O719 Eu672 2.339 . S
O719 C735 1.254 . S
O720 Eu672 2.563 . S
O720 C728 1.235 . S
O721 Eu672 2.419 . S
O721 C736 1.249 . S
O722 Eu683 2.558 . S
O722 C747 1.257 . S
O723 Eu672 2.380 . S
O723 Eu683 2.612 1_545 S
O723 C739 1.276 . S
O724 Eu672 2.432 . S
O724 C746 1.264 . S
O725 Eu683 2.339 . S
O725 C746 1.254 1_565 S
O726 Eu683 2.563 1_545 S
O726 C739 1.235 . S
O727 Eu683 2.419 . S
O727 C747 1.249 . S
C728 O717 1.276 . S
C728 O720 1.235 . S
C729 C731 1.393 . S
C729 C733 1.395 . S
C729 C736 1.492 . S
C730 C731 1.392 . S
C730 C732 1.386 . S
C731 C729 1.393 . S
C731 C730 1.392 . S
C731 H748 0.930 . S
C732 C730 1.386 . S
C732 C734 1.395 . S
C732 H749 0.930 . S
C733 C729 1.395 . S
C733 C734 1.379 . S
C733 H750 0.930 . S
C734 C732 1.395 . S
C734 C733 1.379 . S
C734 H751 0.930 . S
C735 O718 1.264 . S
C735 O719 1.254 . S
C736 Eu672 2.848 . S
C736 O716 1.257 . S
C736 O721 1.249 . S
C736 C729 1.492 . S
C737 H702 0.931 . S
C737 C715 1.420 . S
C737 C738 1.351 . S
C738 H700 0.930 . S
C738 C706 1.423 . S
C738 C737 1.351 . S
C739 O723 1.276 . S
C739 O726 1.235 . S
C740 C741 1.393 . S
C740 C744 1.395 . S
C740 C747 1.492 . S
C741 C740 1.393 . S
C741 C742 1.392 . S
C741 H752 0.930 . S
C742 C741 1.392 . S
C742 C743 1.386 . S
C743 C742 1.386 . S
C743 C745 1.395 . S
C743 H753 0.930 . S
C744 C740 1.395 . S
C744 C745 1.379 . S
C744 H754 0.930 . S
C745 C743 1.395 . S
C745 C744 1.379 . S
C745 H755 0.930 . S
C746 O724 1.264 . S
C746 O725 1.254 1_545 S
C747 Eu683 2.848 . S
C747 O722 1.257 . S
C747 O727 1.249 . S
C747 C740 1.492 . S
H748 C731 0.930 . S
H749 C732 0.930 . S
H750 C733 0.930 . S
H751 C734 0.930 . S
H752 C741 0.930 . S
H753 C743 0.930 . S
H754 C744 0.930 . S
H755 C745 0.930 . S
Eu756 N787 2.657 . S
Eu756 N794 2.609 . S
Eu756 O800 2.558 . S
Eu756 O801 2.612 . S
Eu756 O803 2.339 . S
Eu756 O804 2.563 . S
Eu756 O805 2.419 . S
Eu756 O807 2.380 . S
Eu756 O808 2.432 . S
Eu756 C820 2.848 . S
C757 C760 1.429 . S
C757 C761 1.411 . S
C757 N764 1.377 . S
C758 C760 1.420 . S
C758 C762 1.423 . S
C758 C770 1.392 . S
C759 C761 1.420 . S
C759 C762 1.351 . S
C759 H782 0.931 . S
C760 C757 1.429 . S
C760 C758 1.420 . S
C760 N768 1.362 . S
C761 C757 1.411 . S
C761 C759 1.420 . S
C761 C766 1.395 . S
C762 C758 1.423 . S
C762 C759 1.351 . S
C762 H774 0.930 . S
C763 C765 1.400 . S
C763 C766 1.386 . S
C763 H775 0.930 . S
N764 C757 1.377 . S
N764 C765 1.321 . S
N764 Eu767 2.609 . S
C765 C763 1.400 . S
C765 N764 1.321 . S
C765 H772 0.930 . S
C766 C761 1.395 . S
C766 C763 1.386 . S
C766 H785 0.930 . S
Eu767 N764 2.609 . S
Eu767 N768 2.657 . S
Eu767 O801 2.380 . S
Eu767 O802 2.432 . S
Eu767 O806 2.558 . S
Eu767 O807 2.612 . S
Eu767 O809 2.339 . S
Eu767 O810 2.563 . S
Eu767 O811 2.419 . S
Eu767 C831 2.848 . S
N768 C760 1.362 . S
N768 Eu767 2.657 . S
N768 C769 1.334 . S
C769 N768 1.334 . S
C769 C771 1.413 . S
C769 H776 0.929 . S
C770 C758 1.392 . S
C770 C771 1.367 . S
C770 H778 0.930 . S
C771 C769 1.413 . S
C771 C770 1.367 . S
C771 H773 0.930 . S
H772 C765 0.930 . S
H773 C771 0.930 . S
H774 C762 0.930 . S
H775 C763 0.930 . S
H776 C769 0.929 . S
H777 C791 0.930 . S
H778 C770 0.930 . S
H779 C797 0.930 . S
H780 C788 0.929 . S
H781 C795 0.930 . S
H782 C759 0.931 . S
H783 C789 0.930 . S
H784 C822 0.930 . S
H785 C766 0.930 . S
H786 C821 0.931 . S
N787 Eu756 2.657 . S
N787 C788 1.334 . S
N787 C792 1.362 . S
C788 H780 0.929 . S
C788 N787 1.334 . S
C788 C791 1.413 1_565 S
C789 H783 0.930 . S
C789 C790 1.392 . S
C789 C791 1.367 . S
C790 C789 1.392 . S
C790 C792 1.420 1_545 S
C790 C822 1.423 . S
C791 H777 0.930 . S
C791 C788 1.413 1_545 S
C791 C789 1.367 . S
C792 N787 1.362 . S
C792 C790 1.420 1_565 S
C792 C796 1.429 . S
H793 C798 0.930 . S
N794 Eu756 2.609 . S
N794 C796 1.377 . S
N794 C797 1.321 . S
C795 H781 0.930 . S
C795 C797 1.400 . S
C795 C798 1.386 . S
C796 C792 1.429 . S
C796 N794 1.377 . S
C796 C799 1.411 . S
C797 H779 0.930 . S
C797 N794 1.321 . S
C797 C795 1.400 . S
C798 H793 0.930 . S
C798 C795 1.386 . S
C798 C799 1.395 . S
C799 C796 1.411 . S
C799 C798 1.395 . S
C799 C821 1.420 1_565 S
O800 Eu756 2.558 . S
O800 C820 1.257 . S
O801 Eu756 2.612 . S
O801 Eu767 2.380 . S
O801 C812 1.276 . S
O802 Eu767 2.432 . S
O802 C819 1.264 . S
O803 Eu756 2.339 . S
O803 C819 1.254 . S
O804 Eu756 2.563 . S
O804 C812 1.235 . S
O805 Eu756 2.419 . S
O805 C820 1.249 . S
O806 Eu767 2.558 . S
O806 C831 1.257 . S
O807 Eu756 2.380 . S
O807 Eu767 2.612 . S
O807 C823 1.276 . S
O808 Eu756 2.432 . S
O808 C830 1.264 . S
O809 Eu767 2.339 . S
O809 C830 1.254 . S
O810 Eu767 2.563 . S
O810 C823 1.235 . S
O811 Eu767 2.419 . S
O811 C831 1.249 . S
C812 O801 1.276 . S
C812 O804 1.235 . S
C813 C815 1.393 . S
C813 C817 1.395 . S
C813 C820 1.492 . S
C814 C815 1.392 . S
C814 C816 1.386 . S
C815 C813 1.393 . S
C815 C814 1.392 . S
C815 H832 0.930 . S
C816 C814 1.386 . S
C816 C818 1.395 . S
C816 H833 0.930 . S
C817 C813 1.395 . S
C817 C818 1.379 . S
C817 H834 0.930 . S
C818 C816 1.395 . S
C818 C817 1.379 . S
C818 H835 0.930 . S
C819 O802 1.264 . S
C819 O803 1.254 . S
C820 Eu756 2.848 . S
C820 O800 1.257 . S
C820 O805 1.249 . S
C820 C813 1.492 . S
C821 H786 0.931 . S
C821 C799 1.420 1_545 S
C821 C822 1.351 . S
C822 H784 0.930 . S
C822 C790 1.423 . S
C822 C821 1.351 . S
C823 O807 1.276 . S
C823 O810 1.235 . S
C824 C825 1.393 . S
C824 C828 1.395 . S
C824 C831 1.492 . S
C825 C824 1.393 . S
C825 C826 1.392 . S
C825 H836 0.930 . S
C826 C825 1.392 . S
C826 C827 1.386 . S
C827 C826 1.386 . S
C827 C829 1.395 . S
C827 H837 0.930 . S
C828 C824 1.395 . S
C828 C829 1.379 . S
C828 H838 0.930 . S
C829 C827 1.395 . S
C829 C828 1.379 . S
C829 H839 0.930 . S
C830 O808 1.264 . S
C830 O809 1.254 . S
C831 Eu767 2.848 . S
C831 O806 1.257 . S
C831 O811 1.249 . S
C831 C824 1.492 . S
H832 C815 0.930 . S
H833 C816 0.930 . S
H834 C817 0.930 . S
H835 C818 0.930 . S
H836 C825 0.930 . S
H837 C827 0.930 . S
H838 C828 0.930 . S
H839 C829 0.930 . S
Eu840 N871 2.657 . S
Eu840 N878 2.609 . S
Eu840 O884 2.558 1_545 S
Eu840 O885 2.612 . S
Eu840 O887 2.339 . S
Eu840 O888 2.563 1_545 S
Eu840 O889 2.419 . S
Eu840 O891 2.380 . S
Eu840 O892 2.432 1_545 S
Eu840 C904 2.848 . S
C841 C844 1.429 . S
C841 C845 1.411 . S
C841 N848 1.377 . S
C842 C844 1.418 1_565 S
C842 C846 1.416 1_565 S
C842 C854 1.401 . S
C843 C845 1.420 . S
C843 C846 1.351 . S
C843 H866 0.931 . S
C844 C841 1.429 . S
C844 C842 1.418 1_545 S
C844 N852 1.362 . S
C845 C841 1.411 . S
C845 C843 1.420 . S
C845 C850 1.395 . S
C846 C842 1.416 1_545 S
C846 C843 1.351 . S
C846 H858 0.930 1_545 S
C847 C849 1.400 . S
C847 C850 1.386 . S
C847 H859 0.930 . S
N848 C841 1.377 . S
N848 C849 1.321 . S
N848 Eu851 2.609 . S
C849 C847 1.400 . S
C849 N848 1.321 . S
C849 H856 0.930 . S
C850 C845 1.395 . S
C850 C847 1.386 . S
C850 H869 0.930 . S
Eu851 N848 2.609 . S
Eu851 N852 2.657 . S
Eu851 O885 2.380 1_556 S
Eu851 O886 2.432 1_556 S
Eu851 O890 2.558 . S
Eu851 O891 2.612 1_556 S
Eu851 O893 2.339 . S
Eu851 O894 2.563 1_556 S
Eu851 O895 2.419 . S
Eu851 C915 2.848 . S
N852 C844 1.362 . S
N852 Eu851 2.657 . S
N852 C853 1.334 1_545 S
C853 N852 1.334 1_565 S
C853 C855 1.413 . S
C853 H860 0.929 . S
C854 C842 1.401 . S
C854 C855 1.367 . S
C854 H862 0.930 . S
C855 C853 1.413 . S
C855 C854 1.367 . S
C855 H857 0.930 . S
H856 C849 0.930 . S
H857 C855 0.930 . S
H858 C846 0.930 1_565 S
H859 C847 0.930 . S
H860 C853 0.929 . S
H861 C875 0.930 . S
H862 C854 0.930 . S
H863 C881 0.930 . S
H864 C872 0.929 . S
H865 C879 0.930 . S
H866 C843 0.931 . S
H867 C873 0.930 . S
H868 C906 0.930 . S
H869 C850 0.930 . S
H870 C905 0.931 . S
N871 Eu840 2.657 . S
N871 C872 1.334 . S
N871 C876 1.362 . S
C872 H864 0.929 . S
C872 N871 1.334 . S
C872 C875 1.413 . S
C873 H867 0.930 . S
C873 C874 1.392 . S
C873 C875 1.367 . S
C874 C873 1.392 . S
C874 C876 1.420 . S
C874 C906 1.423 . S
C875 H861 0.930 . S
C875 C872 1.413 . S
C875 C873 1.367 . S
C876 N871 1.362 . S
C876 C874 1.420 . S
C876 C880 1.429 . S
H877 C882 0.930 . S
N878 Eu840 2.609 . S
N878 C880 1.377 . S
N878 C881 1.321 1_545 S
C879 H865 0.930 . S
C879 C881 1.400 . S
C879 C882 1.386 . S
C880 C876 1.429 . S
C880 N878 1.377 . S
C880 C883 1.411 . S
C881 H863 0.930 . S
C881 N878 1.321 1_565 S
C881 C879 1.400 . S
C882 H877 0.930 . S
C882 C879 1.386 . S
C882 C883 1.395 1_565 S
C883 C880 1.411 . S
C883 C882 1.395 1_545 S
C883 C905 1.420 . S
O884 Eu840 2.558 1_565 S
O884 C904 1.257 1_565 S
O885 Eu840 2.612 . S
O885 Eu851 2.380 1_554 S
O885 C896 1.276 . S
O886 Eu851 2.432 1_554 S
O886 C903 1.264 . S
O887 Eu840 2.339 . S
O887 C903 1.254 . S
O888 Eu840 2.563 1_565 S
O888 C896 1.235 1_565 S
O889 Eu840 2.419 . S
O889 C904 1.249 . S
O890 Eu851 2.558 . S
O890 C915 1.257 . S
O891 Eu840 2.380 . S
O891 Eu851 2.612 1_554 S
O891 C907 1.276 . S
O892 Eu840 2.432 1_565 S
O892 C914 1.264 1_554 S
O893 Eu851 2.339 . S
O893 C914 1.254 1_545 S
O894 Eu851 2.563 1_554 S
O894 C907 1.235 . S
O895 Eu851 2.419 . S
O895 C915 1.249 . S
C896 O885 1.276 . S
C896 O888 1.235 1_545 S
C897 C899 1.393 1_565 S
C897 C901 1.395 . S
C897 C904 1.492 1_565 S
C898 C899 1.392 1_565 S
C898 C900 1.386 . S
C899 C897 1.393 1_545 S
C899 C898 1.392 1_545 S
C899 H916 0.930 . S
C900 C898 1.386 . S
C900 C902 1.395 . S
C900 H917 0.930 . S
C901 C897 1.395 . S
C901 C902 1.379 . S
C901 H918 0.930 . S
C902 C900 1.395 . S
C902 C901 1.379 . S
C902 H919 0.930 . S
C903 O886 1.264 . S
C903 O887 1.254 . S
C904 Eu840 2.848 . S
C904 O884 1.257 1_545 S
C904 O889 1.249 . S
C904 C897 1.492 1_545 S
C905 H870 0.931 . S
C905 C883 1.420 . S
C905 C906 1.351 . S
C906 H868 0.930 . S
C906 C874 1.423 . S
C906 C905 1.351 . S
C907 O891 1.276 . S
C907 O894 1.235 . S
C908 C909 1.393 . S
C908 C912 1.395 . S
C908 C915 1.492 . S
C909 C908 1.393 . S
C909 C910 1.392 . S
C909 H920 0.930 . S
C910 C909 1.392 . S
C910 C911 1.386 . S
C911 C910 1.386 . S
C911 C913 1.395 . S
C911 H921 0.930 . S
C912 C908 1.395 . S
C912 C913 1.379 . S
C912 H922 0.930 . S
C913 C911 1.395 . S
C913 C912 1.379 . S
C913 H923 0.930 . S
C914 O892 1.264 1_556 S
C914 O893 1.254 1_565 S
C915 Eu851 2.848 . S
C915 O890 1.257 . S
C915 O895 1.249 . S
C915 C908 1.492 . S
H916 C899 0.930 . S
H917 C900 0.930 . S
H918 C901 0.930 . S
H919 C902 0.930 . S
H920 C909 0.930 . S
H921 C911 0.930 . S
H922 C912 0.930 . S
H923 C913 0.930 . S
Eu924 N955 2.657 . S
Eu924 N962 2.609 . S
Eu924 O968 2.558 . S
Eu924 O969 2.612 . S
Eu924 O971 2.339 . S
Eu924 O972 2.563 . S
Eu924 O973 2.419 . S
Eu924 O975 2.380 . S
Eu924 O976 2.432 . S
Eu924 C988 2.848 . S
C925 C928 1.429 . S
C925 C929 1.411 . S
C925 N932 1.377 . S
C926 C928 1.420 . S
C926 C930 1.423 . S
C926 C938 1.392 . S
C927 C929 1.420 . S
C927 C930 1.351 . S
C927 H950 0.931 . S
C928 C925 1.429 . S
C928 C926 1.420 . S
C928 N936 1.362 . S
C929 C925 1.411 . S
C929 C927 1.420 . S
C929 C934 1.395 . S
C930 C926 1.423 . S
C930 C927 1.351 . S
C930 H942 0.930 . S
C931 C933 1.400 . S
C931 C934 1.386 . S
C931 H943 0.930 . S
N932 C925 1.377 . S
N932 C933 1.321 . S
N932 Eu935 2.609 . S
C933 C931 1.400 . S
C933 N932 1.321 . S
C933 H940 0.930 . S
C934 C929 1.395 . S
C934 C931 1.386 . S
C934 H953 0.930 . S
Eu935 N932 2.609 . S
Eu935 N936 2.657 . S
Eu935 O969 2.380 . S
Eu935 O970 2.432 . S
Eu935 O974 2.558 . S
Eu935 O975 2.612 . S
Eu935 O977 2.339 . S
Eu935 O978 2.563 . S
Eu935 O979 2.419 . S
Eu935 C999 2.848 . S
N936 C928 1.362 . S
N936 Eu935 2.657 . S
N936 C937 1.334 . S
C937 N936 1.334 . S
C937 C939 1.413 . S
C937 H944 0.929 . S
C938 C926 1.392 . S
C938 C939 1.367 . S
C938 H946 0.930 . S
C939 C937 1.413 . S
C939 C938 1.367 . S
C939 H941 0.930 . S
H940 C933 0.930 . S
H941 C939 0.930 . S
H942 C930 0.930 . S
H943 C931 0.930 . S
H944 C937 0.929 . S
H945 C959 0.930 . S
H946 C938 0.930 . S
H947 C965 0.930 . S
H948 C956 0.929 . S
H949 C963 0.930 . S
H950 C927 0.931 . S
H951 C957 0.930 . S
H952 C990 0.930 . S
H953 C934 0.930 . S
H954 C989 0.931 . S
N955 Eu924 2.657 . S
N955 C956 1.334 . S
N955 C960 1.362 . S
C956 H948 0.929 . S
C956 N955 1.334 . S
C956 C959 1.413 . S
C957 H951 0.930 . S
C957 C958 1.392 . S
C957 C959 1.367 . S
C958 C957 1.392 . S
C958 C960 1.420 . S
C958 C990 1.423 . S
C959 H945 0.930 . S
C959 C956 1.413 . S
C959 C957 1.367 . S
C960 N955 1.362 . S
C960 C958 1.420 . S
C960 C964 1.429 . S
H961 C966 0.930 . S
N962 Eu924 2.609 . S
N962 C964 1.377 . S
N962 C965 1.321 . S
C963 H949 0.930 . S
C963 C965 1.400 . S
C963 C966 1.386 . S
C964 C960 1.429 . S
C964 N962 1.377 . S
C964 C967 1.411 . S
C965 H947 0.930 . S
C965 N962 1.321 . S
C965 C963 1.400 . S
C966 H961 0.930 . S
C966 C963 1.386 . S
C966 C967 1.395 . S
C967 C964 1.411 . S
C967 C966 1.395 . S
C967 C989 1.420 . S
O968 Eu924 2.558 . S
O968 C988 1.257 . S
O969 Eu924 2.612 . S
O969 Eu935 2.380 . S
O969 C980 1.276 . S
O970 Eu935 2.432 . S
O970 C987 1.264 . S
O971 Eu924 2.339 . S
O971 C987 1.254 . S
O972 Eu924 2.563 . S
O972 C980 1.235 . S
O973 Eu924 2.419 . S
O973 C988 1.249 . S
O974 Eu935 2.558 . S
O974 C999 1.257 . S
O975 Eu924 2.380 . S
O975 Eu935 2.612 . S
O975 C991 1.276 . S
O976 Eu924 2.432 . S
O976 C998 1.264 . S
O977 Eu935 2.339 . S
O977 C998 1.254 . S
O978 Eu935 2.563 . S
O978 C991 1.235 . S
O979 Eu935 2.419 . S
O979 C999 1.249 . S
C980 O969 1.276 . S
C980 O972 1.235 . S
C981 C983 1.393 . S
C981 C985 1.395 . S
C981 C988 1.492 . S
C982 C983 1.392 . S
C982 C984 1.386 . S
C983 C981 1.393 . S
C983 C982 1.392 . S
C983 H1000 0.930 . S
C984 C982 1.386 . S
C984 C986 1.395 . S
C984 H1001 0.930 . S
C985 C981 1.395 . S
C985 C986 1.379 . S
C985 H1002 0.930 . S
C986 C984 1.395 . S
C986 C985 1.379 . S
C986 H1003 0.930 . S
C987 O970 1.264 . S
C987 O971 1.254 . S
C988 Eu924 2.848 . S
C988 O968 1.257 . S
C988 O973 1.249 . S
C988 C981 1.492 . S
C989 H954 0.931 . S
C989 C967 1.420 . S
C989 C990 1.351 . S
C990 H952 0.930 . S
C990 C958 1.423 . S
C990 C989 1.351 . S
C991 O975 1.276 . S
C991 O978 1.235 . S
C992 C993 1.393 . S
C992 C996 1.395 . S
C992 C999 1.492 . S
C993 C992 1.393 . S
C993 C994 1.392 1_545 S
C993 H1004 0.930 . S
C994 C993 1.392 1_565 S
C994 C995 1.386 . S
C995 C994 1.386 . S
C995 C997 1.395 . S
C995 H1005 0.930 . S
C996 C992 1.395 . S
C996 C997 1.379 1_545 S
C996 H1006 0.930 . S
C997 C995 1.395 . S
C997 C996 1.379 1_565 S
C997 H1007 0.930 . S
C998 O976 1.264 . S
C998 O977 1.254 . S
C999 Eu935 2.848 . S
C999 O974 1.257 . S
C999 O979 1.249 . S
C999 C992 1.492 . S
H1000 C983 0.930 . S
H1001 C984 0.930 . S
H1002 C985 0.930 . S
H1003 C986 0.930 . S
H1004 C993 0.930 . S
H1005 C995 0.930 . S
H1006 C996 0.930 . S
H1007 C997 0.930 . S
Eu1008 N1039 2.657 . S
Eu1008 N1046 2.609 . S
Eu1008 O1052 2.558 . S
Eu1008 O1053 2.612 1_554 S
Eu1008 O1055 2.339 . S
Eu1008 O1056 2.563 1_554 S
Eu1008 O1057 2.419 . S
Eu1008 O1059 2.380 . S
Eu1008 O1060 2.432 . S
Eu1008 C1072 2.848 . S
C1009 C1012 1.429 . S
C1009 C1013 1.411 . S
C1009 N1016 1.377 . S
C1010 C1012 1.420 . S
C1010 C1014 1.423 . S
C1010 C1022 1.392 . S
C1011 C1013 1.420 . S
C1011 C1014 1.351 . S
C1011 H1034 0.931 . S
C1012 C1009 1.429 . S
C1012 C1010 1.420 . S
C1012 N1020 1.362 . S
C1013 C1009 1.411 . S
C1013 C1011 1.420 . S
C1013 C1018 1.395 . S
C1014 C1010 1.423 . S
C1014 C1011 1.351 . S
C1014 H1026 0.930 . S
C1015 C1017 1.400 . S
C1015 C1018 1.386 . S
C1015 H1027 0.930 . S
N1016 C1009 1.377 . S
N1016 C1017 1.321 . S
N1016 Eu1019 2.609 . S
C1017 C1015 1.400 . S
C1017 N1016 1.321 . S
C1017 H1024 0.930 . S
C1018 C1013 1.395 . S
C1018 C1015 1.386 . S
C1018 H1037 0.930 . S
Eu1019 N1016 2.609 . S
Eu1019 N1020 2.657 . S
Eu1019 O1053 2.380 . S
Eu1019 O1054 2.432 . S
Eu1019 O1058 2.558 . S
Eu1019 O1059 2.612 1_556 S
Eu1019 O1061 2.339 1_556 S
Eu1019 O1062 2.563 1_556 S
Eu1019 O1063 2.419 . S
Eu1019 C1083 2.848 . S
N1020 C1012 1.362 . S
N1020 Eu1019 2.657 . S
N1020 C1021 1.334 . S
C1021 N1020 1.334 . S
C1021 C1023 1.413 . S
C1021 H1028 0.929 . S
C1022 C1010 1.392 . S
C1022 C1023 1.367 . S
C1022 H1030 0.930 . S
C1023 C1021 1.413 . S
C1023 C1022 1.367 . S
C1023 H1025 0.930 . S
H1024 C1017 0.930 . S
H1025 C1023 0.930 . S
H1026 C1014 0.930 . S
H1027 C1015 0.930 . S
H1028 C1021 0.929 . S
H1029 C1043 0.930 . S
H1030 C1022 0.930 . S
H1031 C1049 0.930 . S
H1032 C1040 0.929 . S
H1033 C1047 0.930 . S
H1034 C1011 0.931 . S
H1035 C1041 0.930 . S
H1036 C1074 0.930 . S
H1037 C1018 0.930 . S
H1038 C1073 0.931 . S
N1039 Eu1008 2.657 . S
N1039 C1040 1.334 . S
N1039 C1044 1.362 . S
C1040 H1032 0.929 . S
C1040 N1039 1.334 . S
C1040 C1043 1.413 . S
C1041 H1035 0.930 . S
C1041 C1042 1.392 . S
C1041 C1043 1.367 . S
C1042 C1041 1.392 . S
C1042 C1044 1.420 . S
C1042 C1074 1.423 . S
C1043 H1029 0.930 . S
C1043 C1040 1.413 . S
C1043 C1041 1.367 . S
C1044 N1039 1.362 . S
C1044 C1042 1.420 . S
C1044 C1048 1.429 . S
H1045 C1050 0.930 . S
N1046 Eu1008 2.609 . S
N1046 C1048 1.377 . S
N1046 C1049 1.321 . S
C1047 H1033 0.930 . S
C1047 C1049 1.400 . S
C1047 C1050 1.386 . S
C1048 C1044 1.429 . S
C1048 N1046 1.377 . S
C1048 C1051 1.411 . S
C1049 H1031 0.930 . S
C1049 N1046 1.321 . S
C1049 C1047 1.400 . S
C1050 H1045 0.930 . S
C1050 C1047 1.386 . S
C1050 C1051 1.395 . S
C1051 C1048 1.411 . S
C1051 C1050 1.395 . S
C1051 C1073 1.420 . S
O1052 Eu1008 2.558 . S
O1052 C1072 1.257 . S
O1053 Eu1008 2.612 1_556 S
O1053 Eu1019 2.380 . S
O1053 C1064 1.276 . S
O1054 Eu1019 2.432 . S
O1054 C1071 1.269 1_556 S
O1055 Eu1008 2.339 . S
O1055 C1071 1.261 . S
O1056 Eu1008 2.563 1_556 S
O1056 C1064 1.235 . S
O1057 Eu1008 2.419 . S
O1057 C1072 1.249 . S
O1058 Eu1019 2.558 . S
O1058 C1083 1.257 . S
O1059 Eu1008 2.380 . S
O1059 Eu1019 2.612 1_554 S
O1059 C1075 1.276 . S
O1060 Eu1008 2.432 . S
O1060 C1082 1.264 . S
O1061 Eu1019 2.339 1_554 S
O1061 C1082 1.254 . S
O1062 Eu1019 2.563 1_554 S
O1062 C1075 1.235 . S
O1063 Eu1019 2.419 . S
O1063 C1083 1.249 . S
C1064 O1053 1.276 . S
C1064 O1056 1.235 . S
C1065 C1067 1.393 . S
C1065 C1069 1.395 . S
C1065 C1072 1.492 . S
C1066 C1067 1.392 . S
C1066 C1068 1.386 . S
C1067 C1065 1.393 . S
C1067 C1066 1.392 . S
C1067 H1084 0.930 . S
C1068 C1066 1.386 . S
C1068 C1070 1.395 . S
C1068 H1085 0.930 . S
C1069 C1065 1.395 . S
C1069 C1070 1.379 . S
C1069 H1086 0.930 . S
C1070 C1068 1.395 . S
C1070 C1069 1.379 . S
C1070 H1087 0.930 . S
C1071 O1054 1.269 1_554 S
C1071 O1055 1.261 . S
C1072 Eu1008 2.848 . S
C1072 O1052 1.257 . S
C1072 O1057 1.249 . S
C1072 C1065 1.492 . S
C1073 H1038 0.931 . S
C1073 C1051 1.420 . S
C1073 C1074 1.351 . S
C1074 H1036 0.930 . S
C1074 C1042 1.423 . S
C1074 C1073 1.351 . S
C1075 O1059 1.276 . S
C1075 O1062 1.235 . S
C1076 C1077 1.378 1_556 S
C1076 C1080 1.402 . S
C1076 C1083 1.500 . S
C1077 C1076 1.378 1_554 S
C1077 C1078 1.392 . S
C1077 H1088 0.930 . S
C1078 C1077 1.392 . S
C1078 C1079 1.386 . S
C1079 C1078 1.386 . S
C1079 C1081 1.395 1_554 S
C1079 H1089 0.930 . S
C1080 C1076 1.402 . S
C1080 C1081 1.379 . S
C1080 H1090 0.930 . S
C1081 C1079 1.395 1_556 S
C1081 C1080 1.379 . S
C1081 H1091 0.930 . S
C1082 O1060 1.264 . S
C1082 O1061 1.254 . S
C1083 Eu1019 2.848 . S
C1083 O1058 1.257 . S
C1083 O1063 1.249 . S
C1083 C1076 1.500 . S
H1084 C1067 0.930 . S
H1085 C1068 0.930 . S
H1086 C1069 0.930 . S
H1087 C1070 0.930 . S
H1088 C1077 0.930 . S
H1089 C1079 0.930 . S
H1090 C1080 0.930 . S
H1091 C1081 0.930 . S
Eu1092 N1123 2.657 . S
Eu1092 N1130 2.609 . S
Eu1092 O1136 2.558 . S
Eu1092 O1137 2.612 . S
Eu1092 O1139 2.339 . S
Eu1092 O1140 2.563 . S
Eu1092 O1141 2.419 . S
Eu1092 O1143 2.380 . S
Eu1092 O1144 2.432 . S
Eu1092 C1156 2.848 1_655 S
C1093 C1096 1.429 . S
C1093 C1097 1.411 . S
C1093 N1100 1.377 . S
C1094 C1096 1.420 . S
C1094 C1098 1.423 . S
C1094 C1106 1.392 . S
C1095 C1097 1.420 . S
C1095 C1098 1.351 . S
C1095 H1118 0.931 . S
C1096 C1093 1.429 . S
C1096 C1094 1.420 . S
C1096 N1104 1.362 . S
C1097 C1093 1.411 . S
C1097 C1095 1.420 . S
C1097 C1102 1.395 . S
C1098 C1094 1.423 . S
C1098 C1095 1.351 . S
C1098 H1110 0.930 . S
C1099 C1101 1.400 . S
C1099 C1102 1.386 . S
C1099 H1111 0.930 . S
N1100 C1093 1.377 . S
N1100 C1101 1.321 . S
N1100 Eu1103 2.609 . S
C1101 C1099 1.400 . S
C1101 N1100 1.321 . S
C1101 H1108 0.930 . S
C1102 C1097 1.395 . S
C1102 C1099 1.386 . S
C1102 H1121 0.930 . S
Eu1103 N1100 2.609 . S
Eu1103 N1104 2.657 . S
Eu1103 O1137 2.380 . S
Eu1103 O1138 2.432 . S
Eu1103 O1142 2.558 . S
Eu1103 O1143 2.612 . S
Eu1103 O1145 2.339 . S
Eu1103 O1146 2.563 . S
Eu1103 O1147 2.419 . S
Eu1103 C1167 2.848 . S
N1104 C1096 1.362 . S
N1104 Eu1103 2.657 . S
N1104 C1105 1.334 . S
C1105 N1104 1.334 . S
C1105 C1107 1.413 . S
C1105 H1112 0.929 . S
C1106 C1094 1.392 . S
C1106 C1107 1.367 . S
C1106 H1114 0.930 . S
C1107 C1105 1.413 . S
C1107 C1106 1.367 . S
C1107 H1109 0.930 . S
H1108 C1101 0.930 . S
H1109 C1107 0.930 . S
H1110 C1098 0.930 . S
H1111 C1099 0.930 . S
H1112 C1105 0.929 . S
H1113 C1127 0.930 . S
H1114 C1106 0.930 . S
H1115 C1133 0.930 . S
H1116 C1124 0.929 . S
H1117 C1131 0.930 . S
H1118 C1095 0.931 . S
H1119 C1125 0.930 . S
H1120 C1158 0.930 . S
H1121 C1102 0.930 . S
H1122 C1157 0.931 . S
N1123 Eu1092 2.657 . S
N1123 C1124 1.334 . S
N1123 C1128 1.362 . S
C1124 H1116 0.929 . S
C1124 N1123 1.334 . S
C1124 C1127 1.413 . S
C1125 H1119 0.930 . S
C1125 C1126 1.392 . S
C1125 C1127 1.367 . S
C1126 C1125 1.392 . S
C1126 C1128 1.420 . S
C1126 C1158 1.423 . S
C1127 H1113 0.930 . S
C1127 C1124 1.413 . S
C1127 C1125 1.367 . S
C1128 N1123 1.362 . S
C1128 C1126 1.420 . S
C1128 C1132 1.429 . S
H1129 C1134 0.930 . S
N1130 Eu1092 2.609 . S
N1130 C1132 1.377 . S
N1130 C1133 1.321 . S
C1131 H1117 0.930 . S
C1131 C1133 1.400 . S
C1131 C1134 1.386 . S
C1132 C1128 1.429 . S
C1132 N1130 1.377 . S
C1132 C1135 1.411 . S
C1133 H1115 0.930 . S
C1133 N1130 1.321 . S
C1133 C1131 1.400 . S
C1134 H1129 0.930 . S
C1134 C1131 1.386 . S
C1134 C1135 1.395 . S
C1135 C1132 1.411 . S
C1135 C1134 1.395 . S
C1135 C1157 1.420 . S
O1136 Eu1092 2.558 . S
O1136 C1156 1.257 1_655 S
O1137 Eu1092 2.612 . S
O1137 Eu1103 2.380 . S
O1137 C1148 1.276 . S
O1138 Eu1103 2.432 . S
O1138 C1155 1.264 . S
O1139 Eu1092 2.339 . S
O1139 C1155 1.254 . S
O1140 Eu1092 2.563 . S
O1140 C1148 1.235 . S
O1141 Eu1092 2.419 . S
O1141 C1156 1.249 1_655 S
O1142 Eu1103 2.558 . S
O1142 C1167 1.257 . S
O1143 Eu1092 2.380 . S
O1143 Eu1103 2.612 . S
O1143 C1159 1.276 . S
O1144 Eu1092 2.432 . S
O1144 C1166 1.264 . S
O1145 Eu1103 2.339 . S
O1145 C1166 1.254 . S
O1146 Eu1103 2.563 . S
O1146 C1159 1.235 . S
O1147 Eu1103 2.419 . S
O1147 C1167 1.249 . S
C1148 O1137 1.276 . S
C1148 O1140 1.235 . S
C1149 C1151 1.393 . S
C1149 C1153 1.395 . S
C1149 C1156 1.492 . S
C1150 C1151 1.392 . S
C1150 C1152 1.386 . S
C1151 C1149 1.393 . S
C1151 C1150 1.392 . S
C1151 H1168 0.930 . S
C1152 C1150 1.386 . S
C1152 C1154 1.395 . S
C1152 H1169 0.930 . S
C1153 C1149 1.395 . S
C1153 C1154 1.379 . S
C1153 H1170 0.930 . S
C1154 C1152 1.395 . S
C1154 C1153 1.379 . S
C1154 H1171 0.930 . S
C1155 O1138 1.264 . S
C1155 O1139 1.254 . S
C1156 Eu1092 2.848 1_455 S
C1156 O1136 1.257 1_455 S
C1156 O1141 1.249 1_455 S
C1156 C1149 1.492 . S
C1157 H1122 0.931 . S
C1157 C1135 1.420 . S
C1157 C1158 1.351 . S
C1158 H1120 0.930 . S
C1158 C1126 1.423 . S
C1158 C1157 1.351 . S
C1159 O1143 1.276 . S
C1159 O1146 1.235 . S
C1160 C1161 1.393 . S
C1160 C1164 1.395 . S
C1160 C1167 1.492 . S
C1161 C1160 1.393 . S
C1161 C1162 1.392 . S
C1161 H1172 0.930 . S
C1162 C1161 1.392 . S
C1162 C1163 1.386 . S
C1163 C1162 1.386 . S
C1163 C1165 1.395 . S
C1163 H1173 0.930 . S
C1164 C1160 1.395 . S
C1164 C1165 1.379 . S
C1164 H1174 0.930 . S
C1165 C1163 1.395 . S
C1165 C1164 1.379 . S
C1165 H1175 0.930 . S
C1166 O1144 1.264 . S
C1166 O1145 1.254 . S
C1167 Eu1103 2.848 . S
C1167 O1142 1.257 . S
C1167 O1147 1.249 . S
C1167 C1160 1.492 . S
H1168 C1151 0.930 . S
H1169 C1152 0.930 . S
H1170 C1153 0.930 . S
H1171 C1154 0.930 . S
H1172 C1161 0.930 . S
H1173 C1163 0.930 . S
H1174 C1164 0.930 . S
H1175 C1165 0.930 . S
Eu1176 N1207 2.657 . S
Eu1176 N1214 2.609 . S
Eu1176 O1220 2.558 . S
Eu1176 O1221 2.612 . S
Eu1176 O1223 2.339 . S
Eu1176 O1224 2.563 . S
Eu1176 O1225 2.419 . S
Eu1176 O1227 2.380 . S
Eu1176 O1228 2.432 . S
Eu1176 C1240 2.848 . S
C1177 C1180 1.429 . S
C1177 C1181 1.411 1_455 S
C1177 N1184 1.377 . S
C1178 C1180 1.420 1_655 S
C1178 C1182 1.423 . S
C1178 C1190 1.392 . S
C1179 C1181 1.420 . S
C1179 C1182 1.351 . S
C1179 H1202 0.931 . S
C1180 C1177 1.429 . S
C1180 C1178 1.420 1_455 S
C1180 N1188 1.362 . S
C1181 C1177 1.411 1_655 S
C1181 C1179 1.420 . S
C1181 C1186 1.395 . S
C1182 C1178 1.423 . S
C1182 C1179 1.351 . S
C1182 H1194 0.930 . S
C1183 C1185 1.400 . S
C1183 C1186 1.386 1_455 S
C1183 H1195 0.930 . S
N1184 C1177 1.377 . S
N1184 C1185 1.321 . S
N1184 Eu1187 2.609 . S
C1185 C1183 1.400 . S
C1185 N1184 1.321 . S
C1185 H1192 0.930 . S
C1186 C1181 1.395 . S
C1186 C1183 1.386 1_655 S
C1186 H1205 0.930 . S
Eu1187 N1184 2.609 . S
Eu1187 N1188 2.657 . S
Eu1187 O1221 2.380 . S
Eu1187 O1222 2.432 . S
Eu1187 O1226 2.558 . S
Eu1187 O1227 2.612 . S
Eu1187 O1229 2.339 . S
Eu1187 O1230 2.563 . S
Eu1187 O1231 2.419 . S
Eu1187 C1251 2.848 . S
N1188 C1180 1.362 . S
N1188 Eu1187 2.657 . S
N1188 C1189 1.334 . S
C1189 N1188 1.334 . S
C1189 C1191 1.413 1_455 S
C1189 H1196 0.929 . S
C1190 C1178 1.392 . S
C1190 C1191 1.367 . S
C1190 H1198 0.930 . S
C1191 C1189 1.413 1_655 S
C1191 C1190 1.367 . S
C1191 H1193 0.930 . S
H1192 C1185 0.930 . S
H1193 C1191 0.930 . S
H1194 C1182 0.930 . S
H1195 C1183 0.930 . S
H1196 C1189 0.929 . S
H1197 C1211 0.930 . S
H1198 C1190 0.930 . S
H1199 C1217 0.930 . S
H1200 C1208 0.929 . S
H1201 C1215 0.930 . S
H1202 C1179 0.931 . S
H1203 C1209 0.930 . S
H1204 C1242 0.930 . S
H1205 C1186 0.930 . S
H1206 C1241 0.931 . S
N1207 Eu1176 2.657 . S
N1207 C1208 1.334 . S
N1207 C1212 1.362 . S
C1208 H1200 0.929 . S
C1208 N1207 1.334 . S
C1208 C1211 1.413 . S
C1209 H1203 0.930 . S
C1209 C1210 1.392 . S
C1209 C1211 1.367 . S
C1210 C1209 1.392 . S
C1210 C1212 1.420 . S
C1210 C1242 1.423 . S
C1211 H1197 0.930 . S
C1211 C1208 1.413 . S
C1211 C1209 1.367 . S
C1212 N1207 1.362 . S
C1212 C1210 1.420 . S
C1212 C1216 1.429 . S
H1213 C1218 0.930 . S
N1214 Eu1176 2.609 . S
N1214 C1216 1.377 . S
N1214 C1217 1.321 . S
C1215 H1201 0.930 . S
C1215 C1217 1.400 . S
C1215 C1218 1.386 . S
C1216 C1212 1.429 . S
C1216 N1214 1.377 . S
C1216 C1219 1.411 . S
C1217 H1199 0.930 . S
C1217 N1214 1.321 . S
C1217 C1215 1.400 . S
C1218 H1213 0.930 . S
C1218 C1215 1.386 . S
C1218 C1219 1.395 . S
C1219 C1216 1.411 . S
C1219 C1218 1.395 . S
C1219 C1241 1.420 . S
O1220 Eu1176 2.558 . S
O1220 C1240 1.257 . S
O1221 Eu1176 2.612 . S
O1221 Eu1187 2.380 . S
O1221 C1232 1.276 . S
O1222 Eu1187 2.432 . S
O1222 C1239 1.264 . S
O1223 Eu1176 2.339 . S
O1223 C1239 1.254 . S
O1224 Eu1176 2.563 . S
O1224 C1232 1.235 . S
O1225 Eu1176 2.419 . S
O1225 C1240 1.249 . S
O1226 Eu1187 2.558 . S
O1226 C1251 1.257 . S
O1227 Eu1176 2.380 . S
O1227 Eu1187 2.612 . S
O1227 C1243 1.276 . S
O1228 Eu1176 2.432 . S
O1228 C1250 1.264 . S
O1229 Eu1187 2.339 . S
O1229 C1250 1.254 . S
O1230 Eu1187 2.563 . S
O1230 C1243 1.235 . S
O1231 Eu1187 2.419 . S
O1231 C1251 1.249 . S
C1232 O1221 1.276 . S
C1232 O1224 1.235 . S
C1233 C1235 1.393 . S
C1233 C1237 1.395 . S
C1233 C1240 1.492 . S
C1234 C1235 1.392 1_655 S
C1234 C1236 1.386 1_655 S
C1235 C1233 1.393 . S
C1235 C1234 1.392 1_455 S
C1235 H1252 0.930 . S
C1236 C1234 1.386 1_455 S
C1236 C1238 1.395 . S
C1236 H1253 0.930 1_455 S
C1237 C1233 1.395 . S
C1237 C1238 1.379 . S
C1237 H1254 0.930 . S
C1238 C1236 1.395 . S
C1238 C1237 1.379 . S
C1238 H1255 0.930 . S
C1239 O1222 1.264 . S
C1239 O1223 1.254 . S
C1240 Eu1176 2.848 . S
C1240 O1220 1.257 . S
C1240 O1225 1.249 . S
C1240 C1233 1.492 . S
C1241 H1206 0.931 . S
C1241 C1219 1.420 . S
C1241 C1242 1.351 . S
C1242 H1204 0.930 . S
C1242 C1210 1.423 . S
C1242 C1241 1.351 . S
C1243 O1227 1.276 . S
C1243 O1230 1.235 . S
C1244 C1245 1.393 . S
C1244 C1248 1.395 . S
C1244 C1251 1.492 . S
C1245 C1244 1.393 . S
C1245 C1246 1.392 . S
C1245 H1256 0.930 . S
C1246 C1245 1.392 . S
C1246 C1247 1.386 . S
C1247 C1246 1.386 . S
C1247 C1249 1.395 . S
C1247 H1257 0.930 . S
C1248 C1244 1.395 . S
C1248 C1249 1.379 . S
C1248 H1258 0.930 . S
C1249 C1247 1.395 . S
C1249 C1248 1.379 . S
C1249 H1259 0.930 . S
C1250 O1228 1.264 . S
C1250 O1229 1.254 . S
C1251 Eu1187 2.848 . S
C1251 O1226 1.257 . S
C1251 O1231 1.249 . S
C1251 C1244 1.492 . S
H1252 C1235 0.930 . S
H1253 C1236 0.930 1_655 S
H1254 C1237 0.930 . S
H1255 C1238 0.930 . S
H1256 C1245 0.930 . S
H1257 C1247 0.930 . S
H1258 C1248 0.930 . S
H1259 C1249 0.930 . S
Eu1260 N1291 2.657 . S
Eu1260 N1298 2.609 . S
Eu1260 O1304 2.558 . S
Eu1260 O1305 2.612 . S
Eu1260 O1307 2.339 . S
Eu1260 O1308 2.563 . S
Eu1260 O1309 2.419 . S
Eu1260 O1311 2.380 . S
Eu1260 O1312 2.432 . S
Eu1260 C1324 2.848 . S
C1261 C1264 1.429 . S
C1261 C1265 1.411 . S
C1261 N1268 1.377 . S
C1262 C1264 1.420 1_455 S
C1262 C1266 1.423 . S
C1262 C1274 1.392 . S
C1263 C1265 1.420 1_455 S
C1263 C1266 1.351 . S
C1263 H1286 0.931 . S
C1264 C1261 1.429 . S
C1264 C1262 1.420 1_655 S
C1264 N1272 1.362 . S
C1265 C1261 1.411 . S
C1265 C1263 1.420 1_655 S
C1265 C1270 1.395 . S
C1266 C1262 1.423 . S
C1266 C1263 1.351 . S
C1266 H1278 0.930 . S
C1267 C1269 1.400 . S
C1267 C1270 1.386 . S
C1267 H1279 0.930 . S
N1268 C1261 1.377 . S
N1268 C1269 1.321 . S
N1268 Eu1271 2.609 . S
C1269 C1267 1.400 . S
C1269 N1268 1.321 . S
C1269 H1276 0.930 . S
C1270 C1265 1.395 . S
C1270 C1267 1.386 . S
C1270 H1289 0.930 . S
Eu1271 N1268 2.609 . S
Eu1271 N1272 2.657 . S
Eu1271 O1305 2.380 . S
Eu1271 O1306 2.432 . S
Eu1271 O1310 2.558 . S
Eu1271 O1311 2.612 . S
Eu1271 O1313 2.339 . S
Eu1271 O1314 2.563 . S
Eu1271 O1315 2.419 . S
Eu1271 C1335 2.848 . S
N1272 C1264 1.362 . S
N1272 Eu1271 2.657 . S
N1272 C1273 1.334 . S
C1273 N1272 1.334 . S
C1273 C1275 1.413 1_655 S
C1273 H1280 0.929 . S
C1274 C1262 1.392 . S
C1274 C1275 1.367 . S
C1274 H1282 0.930 . S
C1275 C1273 1.413 1_455 S
C1275 C1274 1.367 . S
C1275 H1277 0.930 . S
H1276 C1269 0.930 . S
H1277 C1275 0.930 . S
H1278 C1266 0.930 . S
H1279 C1267 0.930 . S
H1280 C1273 0.929 . S
H1281 C1295 0.930 . S
H1282 C1274 0.930 . S
H1283 C1301 0.930 . S
H1284 C1292 0.929 . S
H1285 C1299 0.930 . S
H1286 C1263 0.931 . S
H1287 C1293 0.930 . S
H1288 C1326 0.930 . S
H1289 C1270 0.930 . S
H1290 C1325 0.931 . S
N1291 Eu1260 2.657 . S
N1291 C1292 1.334 . S
N1291 C1296 1.362 . S
C1292 H1284 0.929 . S
C1292 N1291 1.334 . S
C1292 C1295 1.413 . S
C1293 H1287 0.930 . S
C1293 C1294 1.392 . S
C1293 C1295 1.367 . S
C1294 C1293 1.392 . S
C1294 C1296 1.420 . S
C1294 C1326 1.423 . S
C1295 H1281 0.930 . S
C1295 C1292 1.413 . S
C1295 C1293 1.367 . S
C1296 N1291 1.362 . S
C1296 C1294 1.420 . S
C1296 C1300 1.429 . S
H1297 C1302 0.930 . S
N1298 Eu1260 2.609 . S
N1298 C1300 1.377 . S
N1298 C1301 1.321 . S
C1299 H1285 0.930 . S
C1299 C1301 1.400 . S
C1299 C1302 1.386 . S
C1300 C1296 1.429 . S
C1300 N1298 1.377 . S
C1300 C1303 1.411 . S
C1301 H1283 0.930 . S
C1301 N1298 1.321 . S
C1301 C1299 1.400 . S
C1302 H1297 0.930 . S
C1302 C1299 1.386 . S
C1302 C1303 1.395 . S
C1303 C1300 1.411 . S
C1303 C1302 1.395 . S
C1303 C1325 1.420 . S
O1304 Eu1260 2.558 . S
O1304 C1324 1.257 . S
O1305 Eu1260 2.612 . S
O1305 Eu1271 2.380 . S
O1305 C1316 1.276 . S
O1306 Eu1271 2.432 . S
O1306 C1323 1.264 . S
O1307 Eu1260 2.339 . S
O1307 C1323 1.254 . S
O1308 Eu1260 2.563 . S
O1308 C1316 1.235 . S
O1309 Eu1260 2.419 . S
O1309 C1324 1.249 . S
O1310 Eu1271 2.558 . S
O1310 C1335 1.257 . S
O1311 Eu1260 2.380 . S
O1311 Eu1271 2.612 . S
O1311 C1327 1.276 . S
O1312 Eu1260 2.432 . S
O1312 C1334 1.264 . S
O1313 Eu1271 2.339 . S
O1313 C1334 1.254 . S
O1314 Eu1271 2.563 . S
O1314 C1327 1.235 . S
O1315 Eu1271 2.419 . S
O1315 C1335 1.249 . S
C1316 O1305 1.276 . S
C1316 O1308 1.235 . S
C1317 C1319 1.393 . S
C1317 C1321 1.395 . S
C1317 C1324 1.492 . S
C1318 C1319 1.392 . S
C1318 C1320 1.386 . S
C1319 C1317 1.393 . S
C1319 C1318 1.392 . S
C1319 H1336 0.930 . S
C1320 C1318 1.386 . S
C1320 C1322 1.395 . S
C1320 H1337 0.930 . S
C1321 C1317 1.395 . S
C1321 C1322 1.379 . S
C1321 H1338 0.930 . S
C1322 C1320 1.395 . S
C1322 C1321 1.379 . S
C1322 H1339 0.930 . S
C1323 O1306 1.264 . S
C1323 O1307 1.254 . S
C1324 Eu1260 2.848 . S
C1324 O1304 1.257 . S
C1324 O1309 1.249 . S
C1324 C1317 1.492 . S
C1325 H1290 0.931 . S
C1325 C1303 1.420 . S
C1325 C1326 1.351 . S
C1326 H1288 0.930 . S
C1326 C1294 1.423 . S
C1326 C1325 1.351 . S
C1327 O1311 1.276 . S
C1327 O1314 1.235 . S
C1328 C1329 1.393 . S
C1328 C1332 1.395 . S
C1328 C1335 1.492 1_455 S
C1329 C1328 1.393 . S
C1329 C1330 1.392 . S
C1329 H1340 0.930 . S
C1330 C1329 1.392 . S
C1330 C1331 1.386 . S
C1331 C1330 1.386 . S
C1331 C1333 1.395 . S
C1331 H1341 0.930 . S
C1332 C1328 1.395 . S
C1332 C1333 1.379 . S
C1332 H1342 0.930 . S
C1333 C1331 1.395 . S
C1333 C1332 1.379 . S
C1333 H1343 0.930 . S
C1334 O1312 1.264 . S
C1334 O1313 1.254 . S
C1335 Eu1271 2.848 . S
C1335 O1310 1.257 . S
C1335 O1315 1.249 . S
C1335 C1328 1.492 1_655 S
H1336 C1319 0.930 . S
H1337 C1320 0.930 . S
H1338 C1321 0.930 . S
H1339 C1322 0.930 . S
H1340 C1329 0.930 . S
H1341 C1331 0.930 . S
H1342 C1332 0.930 . S
H1343 C1333 0.930 . S
Eu1344 N1375 2.657 . S
Eu1344 N1382 2.609 . S
Eu1344 O1388 2.558 . S
Eu1344 O1389 2.612 . S
Eu1344 O1391 2.339 . S
Eu1344 O1392 2.563 . S
Eu1344 O1393 2.419 . S
Eu1344 O1395 2.380 . S
Eu1344 O1396 2.432 . S
Eu1344 C1408 2.848 . S
C1345 C1348 1.429 . S
C1345 C1349 1.411 . S
C1345 N1352 1.377 . S
C1346 C1348 1.420 . S
C1346 C1350 1.423 1_556 S
C1346 C1358 1.392 1_556 S
C1347 C1349 1.420 . S
C1347 C1350 1.351 1_556 S
C1347 H1370 0.931 1_556 S
C1348 C1345 1.429 . S
C1348 C1346 1.420 . S
C1348 N1356 1.362 . S
C1349 C1345 1.411 . S
C1349 C1347 1.420 . S
C1349 C1354 1.395 . S
C1350 C1346 1.423 1_554 S
C1350 C1347 1.351 1_554 S
C1350 H1362 0.930 . S
C1351 C1353 1.400 . S
C1351 C1354 1.386 . S
C1351 H1363 0.930 . S
N1352 C1345 1.377 . S
N1352 C1353 1.321 . S
N1352 Eu1355 2.609 . S
C1353 C1351 1.400 . S
C1353 N1352 1.321 . S
C1353 H1360 0.930 . S
C1354 C1349 1.395 . S
C1354 C1351 1.386 . S
C1354 H1373 0.930 . S
Eu1355 N1352 2.609 . S
Eu1355 N1356 2.657 . S
Eu1355 O1389 2.380 . S
Eu1355 O1390 2.432 . S
Eu1355 O1394 2.558 . S
Eu1355 O1395 2.612 . S
Eu1355 O1397 2.339 . S
Eu1355 O1398 2.563 . S
Eu1355 O1399 2.419 . S
Eu1355 C1419 2.848 . S
N1356 C1348 1.362 . S
N1356 Eu1355 2.657 . S
N1356 C1357 1.334 . S
C1357 N1356 1.334 . S
C1357 C1359 1.413 . S
C1357 H1364 0.929 . S
C1358 C1346 1.392 1_554 S
C1358 C1359 1.367 1_554 S
C1358 H1366 0.930 . S
C1359 C1357 1.413 . S
C1359 C1358 1.367 1_556 S
C1359 H1361 0.930 . S
H1360 C1353 0.930 . S
H1361 C1359 0.930 . S
H1362 C1350 0.930 . S
H1363 C1351 0.930 . S
H1364 C1357 0.929 . S
H1365 C1379 0.930 . S
H1366 C1358 0.930 . S
H1367 C1385 0.930 . S
H1368 C1376 0.929 . S
H1369 C1383 0.930 1_455 S
H1370 C1347 0.931 1_554 S
H1371 C1377 0.930 . S
H1372 C1410 0.930 . S
H1373 C1354 0.930 . S
H1374 C1409 0.931 . S
N1375 Eu1344 2.657 . S
N1375 C1376 1.334 . S
N1375 C1380 1.362 . S
C1376 H1368 0.929 . S
C1376 N1375 1.334 . S
C1376 C1379 1.413 . S
C1377 H1371 0.930 . S
C1377 C1378 1.392 . S
C1377 C1379 1.367 . S
C1378 C1377 1.392 . S
C1378 C1380 1.420 . S
C1378 C1410 1.423 . S
C1379 H1365 0.930 . S
C1379 C1376 1.413 . S
C1379 C1377 1.367 . S
C1380 N1375 1.362 . S
C1380 C1378 1.420 . S
C1380 C1384 1.429 . S
H1381 C1386 0.930 . S
N1382 Eu1344 2.609 . S
N1382 C1384 1.377 . S
N1382 C1385 1.321 . S
C1383 H1369 0.930 1_655 S
C1383 C1385 1.400 . S
C1383 C1386 1.386 . S
C1384 C1380 1.429 . S
C1384 N1382 1.377 . S
C1384 C1387 1.411 . S
C1385 H1367 0.930 . S
C1385 N1382 1.321 . S
C1385 C1383 1.400 . S
C1386 H1381 0.930 . S
C1386 C1383 1.386 . S
C1386 C1387 1.395 . S
C1387 C1384 1.411 . S
C1387 C1386 1.395 . S
C1387 C1409 1.420 . S
O1388 Eu1344 2.558 . S
O1388 C1408 1.257 . S
O1389 Eu1344 2.612 . S
O1389 Eu1355 2.380 . S
O1389 C1400 1.276 . S
O1390 Eu1355 2.432 . S
O1390 C1407 1.264 . S
O1391 Eu1344 2.339 . S
O1391 C1407 1.254 . S
O1392 Eu1344 2.563 . S
O1392 C1400 1.235 . S
O1393 Eu1344 2.419 . S
O1393 C1408 1.249 . S
O1394 Eu1355 2.558 . S
O1394 C1419 1.257 . S
O1395 Eu1344 2.380 . S
O1395 Eu1355 2.612 . S
O1395 C1411 1.276 . S
O1396 Eu1344 2.432 . S
O1396 C1418 1.264 . S
O1397 Eu1355 2.339 . S
O1397 C1418 1.254 . S
O1398 Eu1355 2.563 . S
O1398 C1411 1.235 . S
O1399 Eu1355 2.419 . S
O1399 C1419 1.249 . S
C1400 O1389 1.276 . S
C1400 O1392 1.235 . S
C1401 C1403 1.393 . S
C1401 C1405 1.395 . S
C1401 C1408 1.492 . S
C1402 C1403 1.392 . S
C1402 C1404 1.386 . S
C1403 C1401 1.393 . S
C1403 C1402 1.392 . S
C1403 H1420 0.930 . S
C1404 C1402 1.386 . S
C1404 C1406 1.395 1_655 S
C1404 H1421 0.930 1_655 S
C1405 C1401 1.395 . S
C1405 C1406 1.379 1_655 S
C1405 H1422 0.929 1_655 S
C1406 C1404 1.395 1_455 S
C1406 C1405 1.379 1_455 S
C1406 H1423 0.930 . S
C1407 O1390 1.264 . S
C1407 O1391 1.254 . S
C1408 Eu1344 2.848 . S
C1408 O1388 1.257 . S
C1408 O1393 1.249 . S
C1408 C1401 1.492 . S
C1409 H1374 0.931 . S
C1409 C1387 1.420 . S
C1409 C1410 1.351 . S
C1410 H1372 0.930 . S
C1410 C1378 1.423 . S
C1410 C1409 1.351 . S
C1411 O1395 1.276 . S
C1411 O1398 1.235 . S
C1412 C1413 1.393 . S
C1412 C1416 1.395 . S
C1412 C1419 1.492 . S
C1413 C1412 1.393 . S
C1413 C1414 1.392 1_556 S
C1413 H1424 0.930 . S
C1414 C1413 1.392 1_554 S
C1414 C1415 1.386 . S
C1415 C1414 1.386 . S
C1415 C1417 1.395 . S
C1415 H1425 0.930 . S
C1416 C1412 1.395 . S
C1416 C1417 1.379 1_556 S
C1416 H1426 0.930 . S
C1417 C1415 1.395 . S
C1417 C1416 1.379 1_554 S
C1417 H1427 0.930 . S
C1418 O1396 1.264 . S
C1418 O1397 1.254 . S
C1419 Eu1355 2.848 . S
C1419 O1394 1.257 . S
C1419 O1399 1.249 . S
C1419 C1412 1.492 . S
H1420 C1403 0.930 . S
H1421 C1404 0.930 1_455 S
H1422 C1405 0.929 1_455 S
H1423 C1406 0.930 . S
H1424 C1413 0.930 . S
H1425 C1415 0.930 . S
H1426 C1416 0.930 . S
H1427 C1417 0.930 . S
Eu1428 N1459 2.657 . S
Eu1428 N1466 2.609 . S
Eu1428 O1472 2.558 . S
Eu1428 O1473 2.612 . S
Eu1428 O1475 2.339 . S
Eu1428 O1476 2.563 . S
Eu1428 O1477 2.419 . S
Eu1428 O1479 2.380 . S
Eu1428 O1480 2.432 . S
Eu1428 C1492 2.848 . S
C1429 C1432 1.429 . S
C1429 C1433 1.411 . S
C1429 N1436 1.377 . S
C1430 C1432 1.420 . S
C1430 C1434 1.423 . S
C1430 C1442 1.392 . S
C1431 C1433 1.420 . S
C1431 C1434 1.351 . S
C1431 H1454 0.931 . S
C1432 C1429 1.429 . S
C1432 C1430 1.420 . S
C1432 N1440 1.362 . S
C1433 C1429 1.411 . S
C1433 C1431 1.420 . S
C1433 C1438 1.395 . S
C1434 C1430 1.423 . S
C1434 C1431 1.351 . S
C1434 H1446 0.930 . S
C1435 C1437 1.400 . S
C1435 C1438 1.386 . S
C1435 H1447 0.930 . S
N1436 C1429 1.377 . S
N1436 C1437 1.321 . S
N1436 Eu1439 2.609 . S
C1437 C1435 1.400 . S
C1437 N1436 1.321 . S
C1437 H1444 0.930 . S
C1438 C1433 1.395 . S
C1438 C1435 1.386 . S
C1438 H1457 0.930 . S
Eu1439 N1436 2.609 . S
Eu1439 N1440 2.657 . S
Eu1439 O1473 2.380 . S
Eu1439 O1474 2.432 . S
Eu1439 O1478 2.558 . S
Eu1439 O1479 2.612 . S
Eu1439 O1481 2.339 . S
Eu1439 O1482 2.563 . S
Eu1439 O1483 2.419 . S
Eu1439 C1503 2.848 . S
N1440 C1432 1.362 . S
N1440 Eu1439 2.657 . S
N1440 C1441 1.334 . S
C1441 N1440 1.334 . S
C1441 C1443 1.413 . S
C1441 H1448 0.929 . S
C1442 C1430 1.392 . S
C1442 C1443 1.367 . S
C1442 H1450 0.930 . S
C1443 C1441 1.413 . S
C1443 C1442 1.367 . S
C1443 H1445 0.930 . S
H1444 C1437 0.930 . S
H1445 C1443 0.930 . S
H1446 C1434 0.930 . S
H1447 C1435 0.930 . S
H1448 C1441 0.929 . S
H1449 C1463 0.930 1_655 S
H1450 C1442 0.930 . S
H1451 C1469 0.930 . S
H1452 C1460 0.929 . S
H1453 C1467 0.930 . S
H1454 C1431 0.931 . S
H1455 C1461 0.930 . S
H1456 C1494 0.930 . S
H1457 C1438 0.930 . S
H1458 C1493 0.931 1_545 S
N1459 Eu1428 2.657 . S
N1459 C1460 1.334 . S
N1459 C1464 1.362 1_655 S
C1460 H1452 0.929 . S
C1460 N1459 1.334 . S
C1460 C1463 1.413 1_655 S
C1461 H1455 0.930 . S
C1461 C1462 1.392 . S
C1461 C1463 1.367 . S
C1462 C1461 1.392 . S
C1462 C1464 1.420 . S
C1462 C1494 1.423 . S
C1463 H1449 0.930 1_455 S
C1463 C1460 1.413 1_455 S
C1463 C1461 1.367 . S
C1464 N1459 1.362 1_455 S
C1464 C1462 1.420 . S
C1464 C1468 1.429 . S
H1465 C1470 0.930 1_545 S
N1466 Eu1428 2.609 . S
N1466 C1468 1.377 1_655 S
N1466 C1469 1.321 . S
C1467 H1453 0.930 . S
C1467 C1469 1.400 1_455 S
C1467 C1470 1.386 . S
C1468 C1464 1.429 . S
C1468 N1466 1.377 1_455 S
C1468 C1471 1.411 . S
C1469 H1451 0.930 . S
C1469 N1466 1.321 . S
C1469 C1467 1.400 1_655 S
C1470 H1465 0.930 1_565 S
C1470 C1467 1.386 . S
C1470 C1471 1.395 . S
C1471 C1468 1.411 . S
C1471 C1470 1.395 . S
C1471 C1493 1.420 . S
O1472 Eu1428 2.558 . S
O1472 C1492 1.257 . S
O1473 Eu1428 2.612 . S
O1473 Eu1439 2.380 . S
O1473 C1484 1.276 . S
O1474 Eu1439 2.432 . S
O1474 C1491 1.264 . S
O1475 Eu1428 2.339 . S
O1475 C1491 1.254 . S
O1476 Eu1428 2.563 . S
O1476 C1484 1.235 . S
O1477 Eu1428 2.419 . S
O1477 C1492 1.249 . S
O1478 Eu1439 2.558 . S
O1478 C1503 1.257 . S
O1479 Eu1428 2.380 . S
O1479 Eu1439 2.612 . S
O1479 C1495 1.276 . S
O1480 Eu1428 2.432 . S
O1480 C1502 1.264 . S
O1481 Eu1439 2.339 . S
O1481 C1502 1.254 . S
O1482 Eu1439 2.563 . S
O1482 C1495 1.235 . S
O1483 Eu1439 2.419 . S
O1483 C1503 1.249 . S
C1484 O1473 1.276 . S
C1484 O1476 1.235 . S
C1485 C1487 1.393 . S
C1485 C1489 1.395 . S
C1485 C1492 1.492 1_545 S
C1486 C1487 1.392 . S
C1486 C1488 1.386 . S
C1487 C1485 1.393 . S
C1487 C1486 1.392 . S
C1487 H1504 0.930 . S
C1488 C1486 1.386 . S
C1488 C1490 1.395 . S
C1488 H1505 0.930 . S
C1489 C1485 1.395 . S
C1489 C1490 1.379 . S
C1489 H1506 0.930 . S
C1490 C1488 1.395 . S
C1490 C1489 1.379 . S
C1490 H1507 0.930 . S
C1491 O1474 1.264 . S
C1491 O1475 1.254 . S
C1492 Eu1428 2.848 . S
C1492 O1472 1.257 . S
C1492 O1477 1.249 . S
C1492 C1485 1.492 1_565 S
C1493 H1458 0.931 1_565 S
C1493 C1471 1.420 . S
C1493 C1494 1.351 . S
C1494 H1456 0.930 . S
C1494 C1462 1.423 . S
C1494 C1493 1.351 . S
C1495 O1479 1.276 . S
C1495 O1482 1.235 . S
C1496 C1497 1.393 . S
C1496 C1500 1.395 . S
C1496 C1503 1.492 . S
C1497 C1496 1.393 . S
C1497 C1498 1.392 . S
C1497 H1508 0.930 . S
C1498 C1497 1.392 . S
C1498 C1499 1.386 . S
C1499 C1498 1.386 . S
C1499 C1501 1.395 . S
C1499 H1509 0.930 . S
C1500 C1496 1.395 . S
C1500 C1501 1.379 . S
C1500 H1510 0.930 . S
C1501 C1499 1.395 . S
C1501 C1500 1.379 . S
C1501 H1511 0.930 . S
C1502 O1480 1.264 . S
C1502 O1481 1.254 . S
C1503 Eu1439 2.848 . S
C1503 O1478 1.257 . S
C1503 O1483 1.249 . S
C1503 C1496 1.492 . S
H1504 C1487 0.930 . S
H1505 C1488 0.930 . S
H1506 C1489 0.930 . S
H1507 C1490 0.930 . S
H1508 C1497 0.930 . S
H1509 C1499 0.930 . S
H1510 C1500 0.930 . S
H1511 C1501 0.930 . S
Eu1512 N1543 2.657 . S
Eu1512 N1550 2.609 . S
Eu1512 O1556 2.558 . S
Eu1512 O1557 2.612 . S
Eu1512 O1559 2.339 . S
Eu1512 O1560 2.563 . S
Eu1512 O1561 2.419 . S
Eu1512 O1563 2.380 . S
Eu1512 O1564 2.432 . S
Eu1512 C1576 2.848 . S
C1513 C1516 1.429 . S
C1513 C1517 1.411 . S
C1513 N1520 1.377 . S
C1514 C1516 1.420 . S
C1514 C1518 1.423 . S
C1514 C1526 1.392 . S
C1515 C1517 1.420 . S
C1515 C1518 1.351 . S
C1515 H1538 0.931 . S
C1516 C1513 1.429 . S
C1516 C1514 1.420 . S
C1516 N1524 1.362 . S
C1517 C1513 1.411 . S
C1517 C1515 1.420 . S
C1517 C1522 1.395 . S
C1518 C1514 1.423 . S
C1518 C1515 1.351 . S
C1518 H1530 0.930 . S
C1519 C1521 1.400 . S
C1519 C1522 1.386 . S
C1519 H1531 0.930 . S
N1520 C1513 1.377 . S
N1520 C1521 1.321 . S
N1520 Eu1523 2.609 . S
C1521 C1519 1.400 . S
C1521 N1520 1.321 . S
C1521 H1528 0.930 . S
C1522 C1517 1.395 . S
C1522 C1519 1.386 . S
C1522 H1541 0.930 . S
Eu1523 N1520 2.609 . S
Eu1523 N1524 2.657 . S
Eu1523 O1557 2.380 . S
Eu1523 O1558 2.432 . S
Eu1523 O1562 2.558 . S
Eu1523 O1563 2.612 . S
Eu1523 O1565 2.339 . S
Eu1523 O1566 2.563 . S
Eu1523 O1567 2.419 . S
Eu1523 C1587 2.848 . S
N1524 C1516 1.362 . S
N1524 Eu1523 2.657 . S
N1524 C1525 1.334 . S
C1525 N1524 1.334 . S
C1525 C1527 1.413 . S
C1525 H1532 0.929 . S
C1526 C1514 1.392 . S
C1526 C1527 1.367 . S
C1526 H1534 0.930 . S
C1527 C1525 1.413 . S
C1527 C1526 1.367 . S
C1527 H1529 0.930 . S
H1528 C1521 0.930 . S
H1529 C1527 0.930 . S
H1530 C1518 0.930 . S
H1531 C1519 0.930 . S
H1532 C1525 0.929 . S
H1533 C1547 0.930 . S
H1534 C1526 0.930 . S
H1535 C1553 0.930 . S
H1536 C1544 0.929 . S
H1537 C1551 0.930 . S
H1538 C1515 0.931 . S
H1539 C1545 0.930 . S
H1540 C1578 0.930 . S
H1541 C1522 0.930 . S
H1542 C1577 0.931 . S
N1543 Eu1512 2.657 . S
N1543 C1544 1.334 . S
N1543 C1548 1.362 . S
C1544 H1536 0.929 . S
C1544 N1543 1.334 . S
C1544 C1547 1.413 . S
C1545 H1539 0.930 . S
C1545 C1546 1.392 . S
C1545 C1547 1.367 . S
C1546 C1545 1.392 . S
C1546 C1548 1.420 . S
C1546 C1578 1.423 . S
C1547 H1533 0.930 . S
C1547 C1544 1.413 . S
C1547 C1545 1.367 . S
C1548 N1543 1.362 . S
C1548 C1546 1.420 . S
C1548 C1552 1.429 . S
H1549 C1554 0.930 . S
N1550 Eu1512 2.609 . S
N1550 C1552 1.377 . S
N1550 C1553 1.321 . S
C1551 H1537 0.930 . S
C1551 C1553 1.400 . S
C1551 C1554 1.386 . S
C1552 C1548 1.429 . S
C1552 N1550 1.377 . S
C1552 C1555 1.411 . S
C1553 H1535 0.930 . S
C1553 N1550 1.321 . S
C1553 C1551 1.400 . S
C1554 H1549 0.930 . S
C1554 C1551 1.386 . S
C1554 C1555 1.395 . S
C1555 C1552 1.411 . S
C1555 C1554 1.395 . S
C1555 C1577 1.420 . S
O1556 Eu1512 2.558 . S
O1556 C1576 1.257 . S
O1557 Eu1512 2.612 . S
O1557 Eu1523 2.380 . S
O1557 C1568 1.276 . S
O1558 Eu1523 2.432 . S
O1558 C1575 1.264 . S
O1559 Eu1512 2.339 . S
O1559 C1575 1.254 . S
O1560 Eu1512 2.563 . S
O1560 C1568 1.235 . S
O1561 Eu1512 2.419 . S
O1561 C1576 1.249 . S
O1562 Eu1523 2.558 . S
O1562 C1587 1.257 . S
O1563 Eu1512 2.380 . S
O1563 Eu1523 2.612 . S
O1563 C1579 1.276 . S
O1564 Eu1512 2.432 . S
O1564 C1586 1.264 . S
O1565 Eu1523 2.339 . S
O1565 C1586 1.254 . S
O1566 Eu1523 2.563 . S
O1566 C1579 1.235 . S
O1567 Eu1523 2.419 . S
O1567 C1587 1.249 . S
C1568 O1557 1.276 . S
C1568 O1560 1.235 . S
C1569 C1571 1.393 . S
C1569 C1573 1.395 . S
C1569 C1576 1.492 . S
C1570 C1571 1.392 . S
C1570 C1572 1.386 . S
C1571 C1569 1.393 . S
C1571 C1570 1.392 . S
C1571 H1588 0.930 . S
C1572 C1570 1.386 . S
C1572 C1574 1.395 . S
C1572 H1589 0.930 . S
C1573 C1569 1.395 . S
C1573 C1574 1.379 . S
C1573 H1590 0.930 . S
C1574 C1572 1.395 . S
C1574 C1573 1.379 . S
C1574 H1591 0.930 . S
C1575 O1558 1.264 . S
C1575 O1559 1.254 . S
C1576 Eu1512 2.848 . S
C1576 O1556 1.257 . S
C1576 O1561 1.249 . S
C1576 C1569 1.492 . S
C1577 H1542 0.931 . S
C1577 C1555 1.420 . S
C1577 C1578 1.351 . S
C1578 H1540 0.930 . S
C1578 C1546 1.423 . S
C1578 C1577 1.351 . S
C1579 O1563 1.276 . S
C1579 O1566 1.235 . S
C1580 C1581 1.393 . S
C1580 C1584 1.395 . S
C1580 C1587 1.492 . S
C1581 C1580 1.393 . S
C1581 C1582 1.392 . S
C1581 H1592 0.930 . S
C1582 C1581 1.392 . S
C1582 C1583 1.386 . S
C1583 C1582 1.386 . S
C1583 C1585 1.395 . S
C1583 H1593 0.930 . S
C1584 C1580 1.395 . S
C1584 C1585 1.379 . S
C1584 H1594 0.930 . S
C1585 C1583 1.395 . S
C1585 C1584 1.379 . S
C1585 H1595 0.930 . S
C1586 O1564 1.264 . S
C1586 O1565 1.254 . S
C1587 Eu1523 2.848 . S
C1587 O1562 1.257 . S
C1587 O1567 1.249 . S
C1587 C1580 1.492 . S
H1588 C1571 0.930 . S
H1589 C1572 0.930 . S
H1590 C1573 0.930 . S
H1591 C1574 0.930 . S
H1592 C1581 0.930 . S
H1593 C1583 0.930 . S
H1594 C1584 0.930 . S
H1595 C1585 0.930 . S
Eu1596 N1627 2.657 1_556 S
Eu1596 N1634 2.609 . S
Eu1596 O1640 2.558 . S
Eu1596 O1641 2.612 1_556 S
Eu1596 O1643 2.339 1_556 S
Eu1596 O1644 2.563 . S
Eu1596 O1645 2.419 1_556 S
Eu1596 O1647 2.380 1_556 S
Eu1596 O1648 2.432 . S
Eu1596 C1660 2.848 . S
C1597 C1600 1.429 . S
C1597 C1601 1.411 . S
C1597 N1604 1.376 1_655 S
C1598 C1600 1.420 . S
C1598 C1602 1.423 . S
C1598 C1610 1.392 1_554 S
C1599 C1601 1.420 . S
C1599 C1602 1.351 . S
C1599 H1622 0.931 . S
C1600 C1597 1.429 . S
C1600 C1598 1.420 . S
C1600 N1608 1.362 . S
C1601 C1597 1.411 . S
C1601 C1599 1.420 . S
C1601 C1606 1.395 1_655 S
C1602 C1598 1.423 . S
C1602 C1599 1.351 . S
C1602 H1614 0.930 . S
C1603 C1605 1.400 . S
C1603 C1606 1.386 . S
C1603 H1615 0.930 . S
N1604 C1597 1.376 1_455 S
N1604 C1605 1.321 . S
N1604 Eu1607 2.609 . S
C1605 C1603 1.400 . S
C1605 N1604 1.321 . S
C1605 H1612 0.930 . S
C1606 C1601 1.395 1_455 S
C1606 C1603 1.386 . S
C1606 H1625 0.930 1_455 S
Eu1607 N1604 2.609 . S
Eu1607 N1608 2.657 1_455 S
Eu1607 O1641 2.380 . S
Eu1607 O1642 2.432 . S
Eu1607 O1646 2.558 . S
Eu1607 O1647 2.612 . S
Eu1607 O1649 2.339 1_554 S
Eu1607 O1650 2.563 . S
Eu1607 O1651 2.419 1_455 S
Eu1607 C1671 2.848 1_455 S
N1608 C1600 1.362 . S
N1608 Eu1607 2.657 1_655 S
N1608 C1609 1.334 1_554 S
C1609 N1608 1.334 1_556 S
C1609 C1611 1.413 . S
C1609 H1616 0.929 . S
C1610 C1598 1.392 1_556 S
C1610 C1611 1.367 . S
C1610 H1618 0.930 . S
C1611 C1609 1.413 . S
C1611 C1610 1.367 . S
C1611 H1613 0.930 . S
H1612 C1605 0.930 . S
H1613 C1611 0.930 . S
H1614 C1602 0.930 . S
H1615 C1603 0.930 . S
H1616 C1609 0.929 . S
H1617 C1631 0.930 . S
H1618 C1610 0.930 . S
H1619 C1637 0.930 . S
H1620 C1628 0.929 . S
H1621 C1635 0.930 . S
H1622 C1599 0.931 . S
H1623 C1629 0.930 . S
H1624 C1662 0.930 . S
H1625 C1606 0.930 1_655 S
H1626 C1661 0.931 . S
N1627 Eu1596 2.657 1_554 S
N1627 C1628 1.334 . S
N1627 C1632 1.362 1_554 S
C1628 H1620 0.929 . S
C1628 N1627 1.334 . S
C1628 C1631 1.413 . S
C1629 H1623 0.930 . S
C1629 C1630 1.392 . S
C1629 C1631 1.367 . S
C1630 C1629 1.392 . S
C1630 C1632 1.420 1_554 S
C1630 C1662 1.423 1_554 S
C1631 H1617 0.930 . S
C1631 C1628 1.413 . S
C1631 C1629 1.367 . S
C1632 N1627 1.362 1_556 S
C1632 C1630 1.420 1_556 S
C1632 C1636 1.429 . S
H1633 C1638 0.930 . S
N1634 Eu1596 2.609 . S
N1634 C1636 1.377 . S
N1634 C1637 1.321 . S
C1635 H1621 0.930 . S
C1635 C1637 1.400 . S
C1635 C1638 1.386 . S
C1636 C1632 1.429 . S
C1636 N1634 1.377 . S
C1636 C1639 1.411 . S
C1637 H1619 0.930 . S
C1637 N1634 1.321 . S
C1637 C1635 1.400 . S
C1638 H1633 0.930 . S
C1638 C1635 1.386 . S
C1638 C1639 1.395 . S
C1639 C1636 1.411 . S
C1639 C1638 1.395 . S
C1639 C1661 1.420 . S
O1640 Eu1596 2.558 . S
O1640 C1660 1.257 . S
O1641 Eu1596 2.612 1_554 S
O1641 Eu1607 2.380 . S
O1641 C1652 1.276 . S
O1642 Eu1607 2.432 . S
O1642 C1659 1.264 . S
O1643 Eu1596 2.339 1_554 S
O1643 C1659 1.254 . S
O1644 Eu1596 2.563 . S
O1644 C1652 1.235 1_556 S
O1645 Eu1596 2.419 1_554 S
O1645 C1660 1.249 1_554 S
O1646 Eu1607 2.558 . S
O1646 C1671 1.257 1_455 S
O1647 Eu1596 2.380 1_554 S
O1647 Eu1607 2.612 . S
O1647 C1663 1.276 . S
O1648 Eu1596 2.432 . S
O1648 C1670 1.264 . S
O1649 Eu1607 2.339 1_556 S
O1649 C1670 1.254 . S
O1650 Eu1607 2.563 . S
O1650 C1663 1.235 . S
O1651 Eu1607 2.419 1_655 S
O1651 C1671 1.249 . S
C1652 O1641 1.276 . S
C1652 O1644 1.235 1_554 S
C1653 C1655 1.393 . S
C1653 C1657 1.395 . S
C1653 C1660 1.492 . S
C1654 C1655 1.392 . S
C1654 C1656 1.386 . S
C1655 C1653 1.393 . S
C1655 C1654 1.392 . S
C1655 H1672 0.930 1_556 S
C1656 C1654 1.386 . S
C1656 C1658 1.395 . S
C1656 H1673 0.930 . S
C1657 C1653 1.395 . S
C1657 C1658 1.379 . S
C1657 H1674 0.930 . S
C1658 C1656 1.395 . S
C1658 C1657 1.379 . S
C1658 H1675 0.930 . S
C1659 O1642 1.264 . S
C1659 O1643 1.254 . S
C1660 Eu1596 2.848 . S
C1660 O1640 1.257 . S
C1660 O1645 1.249 1_556 S
C1660 C1653 1.492 . S
C1661 H1626 0.931 . S
C1661 C1639 1.420 . S
C1661 C1662 1.351 . S
C1662 H1624 0.930 . S
C1662 C1630 1.423 1_556 S
C1662 C1661 1.351 . S
C1663 O1647 1.276 . S
C1663 O1650 1.235 . S
C1664 C1665 1.393 . S
C1664 C1668 1.395 . S
C1664 C1671 1.492 . S
C1665 C1664 1.393 . S
C1665 C1666 1.392 . S
C1665 H1676 0.930 . S
C1666 C1665 1.392 . S
C1666 C1667 1.386 . S
C1667 C1666 1.386 . S
C1667 C1669 1.395 . S
C1667 H1677 0.930 . S
C1668 C1664 1.395 . S
C1668 C1669 1.379 . S
C1668 H1678 0.930 . S
C1669 C1667 1.395 . S
C1669 C1668 1.379 . S
C1669 H1679 0.930 . S
C1670 O1648 1.264 . S
C1670 O1649 1.254 . S
C1671 Eu1607 2.848 1_655 S
C1671 O1646 1.257 1_655 S
C1671 O1651 1.249 . S
C1671 C1664 1.492 . S
H1672 C1655 0.930 1_554 S
H1673 C1656 0.930 . S
H1674 C1657 0.930 . S
H1675 C1658 0.930 . S
H1676 C1665 0.930 . S
H1677 C1667 0.930 . S
H1678 C1668 0.930 . S
H1679 C1669 0.930 . S
C111 C392 3.208 . S
C64 C483 3.213 . S
C77 C560 2.429 . S
C658 C95 1.030 . S
C25 C742 2.828 . S
C814 C36 1.476 . S
C903 C50 3.019 . S
C11 C980 2.782 . S
C399 C237 2.769 . S
C245 C490 1.037 . S
C567 C279 1.132 . S
C644 C175 2.343 . S
C231 C728 2.596 . S
C830 C251 1.439 . S
C910 C273 0.408 . S
C987 C181 2.924 . S
C406 C165 2.382 . S
C288 C1071 2.211 1_556 S
C1159 C333 3.363 . S
C1232 C316 0.944 . S
C123 C994 4.198 1_545 S
C137 C574 2.733 . S
C330 C1323 2.540 . S
C1400 C302 0.926 . S
C403 C63 3.229 . S
C1418 C106 3.332 . S
C97 C571 2.689 . S
C81 C1318 0.896 . S
C730 C13 2.150 . S
C55 C1162 0.790 . S
C914 C35 2.876 1_565 S
C1495 C21 2.951 . S
C410 C147 3.053 . S
C1402 C321 0.332 . S
C119 C578 1.148 . S
C293 C1327 2.598 . S
C153 C739 2.613 . S
C1155 C315 1.555 . S
C125 C898 0.656 . S
C287 C1502 2.937 . S
C193 C394 2.213 1_554 S
C176 C1082 2.360 . S
C263 C812 3.274 . S
C246 C1243 1.539 . S
C1486 C277 3.728 . S
C221 C562 2.412 . S
C662 C260 2.685 . S
C487 C204 1.209 . S
C83 C1568 3.207 . S
C1407 C92 3.213 . S
C105 C1652 2.428 . S
C67 C1330 1.030 . S
C53 C1078 2.828 . S
C1150 C8 1.476 . S
C1239 C22 3.019 1_455 S
C1484 C39 2.782 . S
C1575 C265 2.769 . S
C189 C1414 1.038 1_556 S
C1659 C209 1.132 . S
C1316 C217 2.343 . S
C1064 C259 2.596 . S
C195 C1166 1.439 . S
C1246 C203 0.408 . S
C223 C1491 2.924 . S
C1582 C319 2.380 . S
C134 C735 2.219 . S
C823 C151 3.364 . S
C896 C162 0.939 . S
C1498 C305 4.194 . S
C291 C1666 2.733 1_556 S
C651 C148 2.540 . S
C476 C120 0.925 . S
C91 C1579 3.229 . S
C494 C78 3.332 . S
C69 C1663 2.689 . S
C109 C646 0.896 . S
C41 C1066 2.150 1_556 S
C826 C27 0.790 . S
C7 C1250 2.876 . S
C49 C991 2.951 . S
C1586 C329 3.053 . S
C167 C478 0.328 . S
C1670 C301 1.151 . S
C139 C655 2.598 . S
C335 C1075 2.612 . S
C819 C161 1.551 . S
C307 C1234 0.658 1_455 S
C998 C133 2.937 . S
C1570 C249 2.213 . S
C746 C218 2.360 1_445 S
C235 C1148 3.274 . S
C907 C190 1.539 . S
C207 C982 3.727 . S
C179 C1654 2.412 1_554 S
C1334 C232 2.685 . S
C1411 C274 1.209 . S
