# Generated by pormake.
# Topology pth, (4,4)-cn, num edge types: 1
# Building blocks:
#     Node 0, Type 0, BuildingBlock: CEKHIL_clean_sbu_0, # of connection points: 4
#     Node 1, Type 0, BuildingBlock: CEKHIL_clean_sbu_0, # of connection points: 4
#     Node 2, Type 0, BuildingBlock: CEKHIL_clean_sbu_0, # of connection points: 4
#     Node 3, Type 1, BuildingBlock: NAWXER_clean_sbu_0, # of connection points: 4
#     Node 4, Type 1, BuildingBlock: NAWXER_clean_sbu_0, # of connection points: 4
#     Node 5, Type 1, BuildingBlock: NAWXER_clean_sbu_0, # of connection points: 4
#     Edge 6, Type (0, 1), BuildingBlock: XIVTED_clean_linker_0, # of connection points: 2
#     Edge 7, Type (0, 1), BuildingBlock: XIVTED_clean_linker_0, # of connection points: 2
#     Edge 8, Type (0, 1), BuildingBlock: XIVTED_clean_linker_0, # of connection points: 2
#     Edge 9, Type (0, 1), BuildingBlock: XIVTED_clean_linker_0, # of connection points: 2
#     Edge 10, Type (0, 1), BuildingBlock: XIVTED_clean_linker_0, # of connection points: 2
#     Edge 11, Type (0, 1), BuildingBlock: XIVTED_clean_linker_0, # of connection points: 2
#     Edge 12, Type (0, 1), BuildingBlock: XIVTED_clean_linker_0, # of connection points: 2
#     Edge 13, Type (0, 1), BuildingBlock: XIVTED_clean_linker_0, # of connection points: 2
#     Edge 14, Type (0, 1), BuildingBlock: XIVTED_clean_linker_0, # of connection points: 2
#     Edge 15, Type (0, 1), BuildingBlock: XIVTED_clean_linker_0, # of connection points: 2
#     Edge 16, Type (0, 1), BuildingBlock: XIVTED_clean_linker_0, # of connection points: 2
#     Edge 17, Type (0, 1), BuildingBlock: XIVTED_clean_linker_0, # of connection points: 2
# Relax obj value: 0.003
# Max RMSD: 0.042
# Mean RMSD: 0.026
data_MOF--net-pth--node1-CEKHIL_clean_sbu_0--node2-NAWXER_clean_sbu_0--edge1-XIVTED_clean_linker_0
_symmetry_space_group_name_H-M    P1
_symmetry_Int_Tables_number       1
_symmetry_cell_setting            triclinic
loop_
_symmetry_equiv_pos_as_xyz
'x, y, z'
_cell_length_a     22.783928
_cell_length_b     22.840319
_cell_length_c     57.711703
_cell_angle_alpha  90.954144
_cell_angle_beta   89.963762
_cell_angle_gamma 120.29732
loop_
_atom_site_label
_atom_site_type_symbol
_atom_site_fract_x
_atom_site_fract_y
_atom_site_fract_z
_atom_type_partial_charge
Co0 Co 0.07586 0.05937 0.08346 0.0
O1 O 0.03338 0.99152 0.10707 0.0
O2 O 0.12241 0.00877 0.08644 0.0
C3 C 0.07694 0.14362 0.10519 0.0
O4 O 0.13812 0.12392 0.05874 0.0
Co5 Co 0.01441 0.13891 0.06132 0.0
O6 O 0.10021 0.18896 0.04391 0.0
C7 C 0.95596 0.99225 0.05102 0.0
C8 C 0.08023 0.97621 0.10292 0.0
C9 C 0.14452 0.17082 0.04515 0.0
O10 O 0.00938 0.99367 0.05929 0.0
O11 O 0.94639 0.04279 0.05263 0.0
O12 O 0.12463 0.12871 0.10771 0.0
O13 O 0.03029 0.10697 0.09021 0.0
Co14 Co 0.0096 0.0492 0.4013 0.0
O15 O 0.96923 0.08323 0.3797 0.0
O16 O 0.05724 0.14708 0.40264 0.0
C17 C 0.01152 0.97385 0.37564 0.0
O18 O 0.07039 0.03831 0.42471 0.0
Co19 Co 0.94727 0.90037 0.41658 0.0
O20 O 0.03588 0.92967 0.43187 0.0
C21 C 0.89234 0.98565 0.43478 0.0
C22 C 0.01689 0.14364 0.38616 0.0
C23 C 0.07868 0.99267 0.4344 0.0
O24 O 0.94256 0.04 0.4263 0.0
O25 O 0.88351 0.92633 0.43095 0.0
O26 O 0.05941 0.03721 0.37562 0.0
O27 O 0.964 0.95863 0.39048 0.0
Co28 Co 0.01961 0.06505 0.73613 0.0
O29 O 0.09594 0.11295 0.71561 0.0
O30 O 0.07135 0.01934 0.73411 0.0
C31 C 0.94351 0.069 0.71183 0.0
O32 O 0.94631 0.99739 0.75758 0.0
Co33 Co 0.93209 0.12103 0.75642 0.0
O34 O 0.87039 0.02797 0.76744 0.0
C35 C 0.07131 0.17054 0.77486 0.0
C36 C 0.10979 0.06524 0.71945 0.0
C37 C 0.89099 0.98551 0.76756 0.0
O38 O 0.07563 0.12395 0.76332 0.0
O39 O 0.02083 0.1802 0.77292 0.0
O40 O 0.95982 0.02232 0.70923 0.0
O41 O 0.97441 0.11233 0.72846 0.0
C42 C 0.00334 0.62279 0.26675 0.0
C43 C 0.02052 0.45684 0.21529 0.0
O44 O 0.063 0.63272 0.26311 0.0
Zn45 Zn 0.11538 0.59171 0.24553 0.0
O46 O 0.95178 0.5705 0.25793 0.0
Zn47 Zn 0.00286 0.53449 0.24109 0.0
O48 O 0.04006 0.50345 0.26859 0.0
O49 O 0.15179 0.56292 0.27163 0.0
O50 O 0.96448 0.45381 0.22029 0.0
O51 O 0.07623 0.5051 0.22373 0.0
O52 O 0.16724 0.66588 0.22318 0.0
O53 O 0.0563 0.61198 0.2174 0.0
C54 C 0.09476 0.51554 0.27891 0.0
C55 C 0.11584 0.65835 0.2117 0.0
C56 C 0.63186 0.11839 0.60178 0.0
C57 C 0.45327 0.10177 0.54861 0.0
O58 O 0.58288 0.05893 0.59681 0.0
Zn59 Zn 0.49169 0.00732 0.57786 0.0
O60 O 0.63167 0.17009 0.5938 0.0
Zn61 Zn 0.54649 0.11916 0.57526 0.0
O62 O 0.47304 0.07848 0.60168 0.0
O63 O 0.42319 0.96692 0.60253 0.0
O64 O 0.50577 0.15801 0.55444 0.0
O65 O 0.44584 0.04639 0.55639 0.0
O66 O 0.51601 0.95727 0.55545 0.0
O67 O 0.57519 0.06815 0.55097 0.0
C68 C 0.42963 0.02219 0.61065 0.0
C69 C 0.56192 0.0086 0.54483 0.0
C70 C 0.5152 0.42879 0.93605 0.0
C71 C 0.64017 0.60272 0.87732 0.0
O72 O 0.49748 0.47328 0.93382 0.0
Zn73 Zn 0.52322 0.56158 0.91523 0.0
O74 O 0.56441 0.43281 0.92426 0.0
Zn75 Zn 0.58448 0.51528 0.90729 0.0
O76 O 0.62533 0.59143 0.93381 0.0
O77 O 0.5566 0.63196 0.93935 0.0
O78 O 0.65345 0.55667 0.88269 0.0
O79 O 0.5942 0.60771 0.8884 0.0
O80 O 0.43817 0.53096 0.89834 0.0
O81 O 0.49245 0.47765 0.88768 0.0
C82 C 0.611 0.63212 0.94453 0.0
C83 C 0.44137 0.48638 0.88567 0.0
H84 H 0.97675 0.1758 0.10417 0.0
H85 H 0.12404 0.43096 0.21306 0.0
H86 H 0.16029 0.22209 0.1411 0.0
H87 H 0.92774 0.36825 0.18249 0.0
H88 H 0.13826 0.35644 0.18615 0.0
H89 H 0.95967 0.24898 0.13132 0.0
C90 C 0.01385 0.20181 0.1179 0.0
C91 C 0.07019 0.19281 0.12036 0.0
C92 C 0.09188 0.35853 0.18529 0.0
C93 C 0.05041 0.27638 0.15164 0.0
C94 C 0.08359 0.40124 0.20068 0.0
C95 C 0.02462 0.40629 0.19997 0.0
C96 C 0.04111 0.3204 0.16877 0.0
C97 C 0.97389 0.36587 0.18368 0.0
C98 C 0.00374 0.2433 0.13347 0.0
C99 C 0.11631 0.22765 0.1385 0.0
N100 N 0.98351 0.32488 0.16858 0.0
N101 N 0.10534 0.2678 0.15344 0.0
H102 H 0.78499 0.88094 0.45646 0.0
H103 H 0.65301 0.109 0.51722 0.0
H104 H 0.88223 0.0977 0.44793 0.0
H105 H 0.56873 0.89596 0.53048 0.0
H106 H 0.73122 0.10401 0.48968 0.0
H107 H 0.70145 0.88479 0.48142 0.0
C108 C 0.78903 0.92966 0.45977 0.0
C109 C 0.84142 0.98934 0.44997 0.0
C110 C 0.69553 0.05824 0.4985 0.0
C111 C 0.74446 0.99358 0.47889 0.0
C112 C 0.6505 0.06083 0.51426 0.0
C113 C 0.60419 0.00272 0.52639 0.0
C114 C 0.69461 0.99708 0.49467 0.0
C115 C 0.60341 0.94195 0.52158 0.0
C116 C 0.7409 0.93158 0.47412 0.0
C117 C 0.84313 0.05049 0.45507 0.0
N118 N 0.64821 0.94081 0.50618 0.0
N119 N 0.79536 0.05101 0.4692 0.0
H120 H 0.92884 0.89254 0.77932 0.0
H121 H 0.59564 0.67656 0.85513 0.0
H122 H 0.76463 0.9341 0.78658 0.0
H123 H 0.76352 0.6394 0.85606 0.0
H124 H 0.65388 0.76309 0.82653 0.0
H125 H 0.86676 0.7933 0.80392 0.0
C126 C 0.87954 0.88059 0.78587 0.0
C127 C 0.85215 0.92221 0.78091 0.0
C128 C 0.67832 0.7362 0.83285 0.0
C129 C 0.78104 0.80864 0.80908 0.0
C130 C 0.64499 0.68651 0.84928 0.0
C131 C 0.67505 0.65101 0.85831 0.0
C132 C 0.74288 0.75151 0.82522 0.0
C133 C 0.7386 0.66568 0.84964 0.0
C134 C 0.8443 0.82399 0.79998 0.0
C135 C 0.78816 0.90407 0.78998 0.0
N136 N 0.77081 0.71538 0.83368 0.0
N137 N 0.7551 0.84899 0.8036 0.0
H138 H 0.98374 0.87499 0.12907 0.0
H139 H 0.22535 0.78237 0.19806 0.0
H140 H 0.19457 0.9673 0.10982 0.0
H141 H 0.01502 0.63779 0.18203 0.0
H142 H 0.22046 0.86023 0.16981 0.0
H143 H 0.99819 0.79726 0.15388 0.0
C144 C 0.03302 0.87874 0.13003 0.0
C145 C 0.08781 0.9272 0.11724 0.0
C146 C 0.17589 0.811 0.17247 0.0
C147 C 0.10518 0.83933 0.14594 0.0
C148 C 0.17872 0.7666 0.18848 0.0
C149 C 0.12036 0.70371 0.19272 0.0
C150 C 0.1141 0.79243 0.16107 0.0
C151 C 0.06116 0.68602 0.17977 0.0
C152 C 0.04127 0.83437 0.14414 0.0
C153 C 0.1508 0.93005 0.11923 0.0
N154 N 0.05937 0.73029 0.16489 0.0
N155 N 0.15805 0.88708 0.1335 0.0
H156 H 0.19106 0.12045 0.44105 0.0
H157 H 0.3222 0.00223 0.54866 0.0
H158 H 0.10091 0.91428 0.46435 0.0
H159 H 0.45834 0.18752 0.51373 0.0
H160 H 0.23361 0.98012 0.52087 0.0
H161 H 0.28389 0.15444 0.4694 0.0
C162 C 0.19079 0.08228 0.45201 0.0
C163 C 0.13775 0.01425 0.45029 0.0
C164 C 0.28267 0.02577 0.51917 0.0
C165 C 0.24311 0.05321 0.48287 0.0
C166 C 0.33348 0.0387 0.53513 0.0
C167 C 0.39835 0.09639 0.53334 0.0
C168 C 0.296 0.0707 0.50104 0.0
C169 C 0.40911 0.14234 0.51569 0.0
C170 C 0.24382 0.10184 0.46814 0.0
C171 C 0.14036 0.96718 0.46492 0.0
N172 N 0.35841 0.12824 0.50001 0.0
N173 N 0.19168 0.98764 0.48061 0.0
H174 H 0.19277 0.17554 0.78384 0.0
H175 H 0.32036 0.48249 0.8768 0.0
H176 H 0.07638 0.27027 0.80321 0.0
H177 H 0.43741 0.3893 0.85652 0.0
H178 H 0.23023 0.40549 0.84974 0.0
H179 H 0.2831 0.25349 0.81054 0.0
C180 C 0.18604 0.21248 0.79369 0.0
C181 C 0.1267 0.21611 0.79119 0.0
C182 C 0.27578 0.40208 0.85122 0.0
C183 C 0.23001 0.30571 0.82177 0.0
C184 C 0.32725 0.44613 0.86664 0.0
C185 C 0.38657 0.44246 0.86899 0.0
C186 C 0.28373 0.35405 0.83809 0.0
C187 C 0.39262 0.39413 0.85537 0.0
C188 C 0.2377 0.25711 0.80892 0.0
C189 C 0.12108 0.26535 0.80445 0.0
N190 N 0.34195 0.35191 0.84059 0.0
N191 N 0.17194 0.30805 0.81911 0.0
H192 H 0.87722 0.99063 0.6736 0.0
H193 H 0.71187 0.2138 0.63555 0.0
H194 H 0.90784 0.16697 0.71251 0.0
H195 H 0.67811 0.03092 0.60054 0.0
H196 H 0.7911 0.20457 0.66241 0.0
H197 H 0.8084 0.00935 0.64557 0.0
C198 C 0.86912 0.03306 0.67632 0.0
C199 C 0.89811 0.07706 0.69546 0.0
C200 C 0.76667 0.16692 0.64868 0.0
C201 C 0.81977 0.09953 0.66325 0.0
C202 C 0.72208 0.17262 0.63327 0.0
C203 C 0.68811 0.12281 0.61596 0.0
C204 C 0.77727 0.11133 0.64651 0.0
C205 C 0.7026 0.07005 0.61383 0.0
C206 C 0.83004 0.04403 0.66024 0.0
C207 C 0.88621 0.13159 0.69801 0.0
N208 N 0.74559 0.06556 0.62894 0.0
N209 N 0.84799 0.14132 0.6821 0.0
H210 H 0.82457 0.95837 0.04419 0.0
H211 H 0.73181 0.64496 0.95845 0.0
H212 H 0.96407 0.88719 0.02941 0.0
H213 H 0.60075 0.72746 0.97126 0.0
H214 H 0.81346 0.72606 0.98659 0.0
H215 H 0.73869 0.86669 0.02036 0.0
C216 C 0.83721 0.92319 0.03598 0.0
C217 C 0.90225 0.93123 0.03859 0.0
C218 C 0.76676 0.72625 0.98333 0.0
C219 C 0.80313 0.82536 0.01098 0.0
C220 C 0.71994 0.67994 0.96724 0.0
C221 C 0.65923 0.67953 0.96234 0.0
C222 C 0.75297 0.77266 0.9947 0.0
C223 C 0.64683 0.72598 0.97437 0.0
C224 C 0.78784 0.87065 0.02234 0.0
C225 C 0.91481 0.88312 0.02782 0.0
N226 N 0.69337 0.77074 0.98991 0.0
N227 N 0.86583 0.83251 0.01427 0.0
H228 H 0.91285 0.84048 0.37204 0.0
H229 H 0.09838 0.75547 0.27075 0.0
H230 H 0.1028 0.98847 0.34184 0.0
H231 H 0.89784 0.60988 0.29444 0.0
H232 H 0.09885 0.84098 0.29639 0.0
H233 H 0.90569 0.75532 0.34419 0.0
C234 C 0.95327 0.85508 0.35959 0.0
C235 C 0.00877 0.92179 0.35932 0.0
C236 C 0.05444 0.79061 0.29598 0.0
C237 C 1.00047 0.82428 0.32727 0.0
C238 C 0.05406 0.74151 0.28133 0.0
C239 C 0.99812 0.6751 0.2806 0.0
C240 C 0.99868 0.77354 0.31034 0.0
C241 C 0.94193 0.66042 0.29446 0.0
C242 C 0.94887 0.80637 0.34362 0.0
C243 C 0.05931 0.93771 0.34274 0.0
N244 N 0.94389 0.70919 0.30899 0.0
N245 N 0.05398 0.88927 0.32742 0.0
H246 H 0.21189 0.16282 0.69374 0.0
H247 H 0.3205 0.91576 0.63288 0.0
H248 H 0.127 0.95515 0.71454 0.0
H249 H 0.43964 0.13444 0.63143 0.0
H250 H 0.24566 0.92545 0.66168 0.0
H251 H 0.29261 0.15046 0.66929 0.0
C252 C 0.21062 0.11475 0.6933 0.0
C253 C 0.16277 0.06005 0.70623 0.0
C254 C 0.28865 0.97109 0.65512 0.0
C255 C 0.25448 0.04497 0.67794 0.0
C256 C 0.33132 0.96557 0.63871 0.0
C257 C 0.3862 0.02426 0.62951 0.0
C258 C 0.30082 0.03567 0.66212 0.0
C259 C 0.39775 0.08757 0.63775 0.0
C260 C 0.25674 0.10763 0.67934 0.0
C261 C 0.16337 0.99878 0.70494 0.0
N262 N 0.35528 0.09147 0.65333 0.0
N263 N 0.20805 0.99262 0.69085 0.0
H264 H 0.27247 0.18889 0.05157 0.0
H265 H 0.39109 0.32787 0.924 0.0
H266 H 0.1503 0.22237 1.00241 0.0
H267 H 0.53501 0.40204 0.98066 0.0
H268 H 0.3011 0.25586 0.95082 0.0
H269 H 0.36814 0.23941 0.02427 0.0
C270 C 0.26573 0.20666 0.03505 0.0
C271 C 0.2035 0.20199 0.02932 0.0
C272 C 0.35271 0.28641 0.95731 0.0
C273 C 0.3115 0.25744 0.99796 0.0
C274 C 0.40421 0.32656 0.94196 0.0
C275 C 0.4706 0.36976 0.95011 0.0
C276 C 0.36759 0.28957 0.98103 0.0
C277 C 0.48464 0.36815 0.97369 0.0
C278 C 0.3202 0.23533 0.01955 0.0
C279 C 0.19749 0.22565 0.00768 0.0
N280 N 0.43328 0.32905 0.98846 0.0
N281 N 0.25053 0.25184 0.99276 0.0
H282 H 0.13393 0.26757 0.38538 0.0
H283 H 0.97861 0.42772 0.30074 0.0
H284 H 0.92944 0.15888 0.35783 0.0
H285 H 0.19403 0.4996 0.30151 0.0
H286 H 0.9613 0.34289 0.32878 0.0
H287 H 0.15722 0.36485 0.3614 0.0
C288 C 0.09363 0.2645 0.37455 0.0
C289 C 0.02946 0.20501 0.37363 0.0
C290 C 0.01246 0.37727 0.32294 0.0
C291 C 0.05589 0.31604 0.34634 0.0
C292 C 0.02269 0.42614 0.3069 0.0
C293 C 0.08801 0.47063 0.29836 0.0
C294 C 0.0678 0.37243 0.33091 0.0
C295 C 0.14283 0.46625 0.30748 0.0
C296 C 0.10724 0.31982 0.36077 0.0
C297 C 0.97951 0.2036 0.3591 0.0
N298 N 0.13146 0.41758 0.32323 0.0
N299 N 0.99372 0.25829 0.34612 0.0
loop_
_geom_bond_atom_site_label_1
_geom_bond_atom_site_label_2
_geom_bond_distance
_geom_bond_site_symmetry_2
_ccdc_geom_bond_type
Co0 O1 2.216 1_445 S
Co0 O2 2.091 1_545 S
Co0 O4 2.004 . S
Co0 O10 2.021 1_445 S
Co0 O12 2.137 . S
Co0 O13 2.244 1_455 S
O1 Co0 2.216 1_665 S
O1 C8 1.247 1_655 S
O2 Co0 2.091 1_565 S
O2 C8 1.261 . S
C3 O12 1.247 . S
C3 O13 1.272 1_455 S
O4 Co0 2.004 . S
O4 C9 1.259 . S
Co5 O6 2.061 1_655 S
Co5 O11 2.052 . S
Co5 O13 2.135 . S
O6 Co5 2.061 1_455 S
O6 C9 1.235 . S
C7 O10 1.238 . S
C7 O11 1.241 1_565 S
C8 O1 1.247 1_455 S
C8 O2 1.261 . S
C9 O4 1.259 . S
C9 O6 1.235 . S
O10 Co0 2.021 1_665 S
O10 C7 1.238 . S
O11 Co5 2.052 . S
O11 C7 1.241 1_545 S
O12 Co0 2.137 . S
O12 C3 1.247 . S
O13 Co0 2.244 1_655 S
O13 C3 1.272 1_655 S
O13 Co5 2.135 . S
Co14 O15 2.216 1_455 S
Co14 O16 2.091 . S
Co14 O18 2.004 . S
Co14 O24 2.021 . S
Co14 O26 2.137 . S
Co14 O27 2.244 1_545 S
O15 Co14 2.216 1_655 S
O15 C22 1.247 1_655 S
O16 Co14 2.091 . S
O16 C22 1.261 . S
C17 O26 1.247 1_565 S
C17 O27 1.272 . S
O18 Co14 2.004 . S
O18 C23 1.259 . S
Co19 O20 2.061 1_655 S
Co19 O25 2.052 . S
Co19 O27 2.135 1_655 S
O20 Co19 2.061 1_455 S
O20 C23 1.235 1_565 S
C21 O24 1.238 1_655 S
C21 O25 1.241 1_545 S
C22 O15 1.247 1_455 S
C22 O16 1.261 . S
C23 O18 1.259 . S
C23 O20 1.235 1_545 S
O24 Co14 2.021 . S
O24 C21 1.238 1_455 S
O25 Co19 2.052 . S
O25 C21 1.241 1_565 S
O26 Co14 2.137 . S
O26 C17 1.247 1_545 S
O27 Co14 2.244 1_565 S
O27 C17 1.272 . S
O27 Co19 2.135 1_455 S
Co28 O29 2.216 . S
Co28 O30 2.091 1_545 S
Co28 O32 2.004 1_445 S
Co28 O38 2.021 . S
Co28 O40 2.139 1_445 S
Co28 O41 2.244 1_455 S
O29 Co28 2.216 . S
O29 C36 1.247 . S
O30 Co28 2.091 1_565 S
O30 C36 1.261 1_565 S
C31 O40 1.235 1_545 S
C31 O41 1.272 . S
O32 Co28 2.004 1_665 S
O32 C37 1.259 . S
Co33 O34 2.061 . S
Co33 O39 2.052 1_655 S
Co33 O41 2.135 . S
O34 Co33 2.061 . S
O34 C37 1.235 1_545 S
C35 O38 1.238 . S
C35 O39 1.241 . S
C36 O29 1.247 . S
C36 O30 1.261 1_545 S
C37 O32 1.259 . S
C37 O34 1.235 1_565 S
O38 Co28 2.021 . S
O38 C35 1.238 . S
O39 Co33 2.052 1_455 S
O39 C35 1.241 . S
O40 Co28 2.139 1_665 S
O40 C31 1.235 1_565 S
O41 Co28 2.244 1_655 S
O41 C31 1.272 . S
O41 Co33 2.135 . S
C42 O44 1.247 . S
C42 O46 1.258 1_455 S
C43 O50 1.247 1_455 S
C43 O51 1.258 . S
O44 C42 1.247 . S
O44 Zn45 2.028 . S
Zn45 O44 2.028 . S
Zn45 O49 2.035 . S
Zn45 O51 2.035 . S
Zn45 O52 2.028 . S
O46 C42 1.258 1_655 S
O46 Zn47 2.035 . S
Zn47 O46 2.035 . S
Zn47 O48 2.028 . S
Zn47 O50 2.028 . S
Zn47 O53 2.035 . S
O48 Zn47 2.028 . S
O48 C54 1.247 1_655 S
O49 Zn45 2.035 . S
O49 C54 1.258 . S
O50 C43 1.247 1_655 S
O50 Zn47 2.028 . S
O51 C43 1.258 . S
O51 Zn45 2.035 . S
O52 Zn45 2.028 . S
O52 C55 1.247 . S
O53 Zn47 2.035 . S
O53 C55 1.258 1_655 S
C54 O48 1.247 1_455 S
C54 O49 1.258 . S
C55 O52 1.247 . S
C55 O53 1.258 1_455 S
C56 O58 1.247 1_545 S
C56 O60 1.258 . S
C57 O64 1.247 . S
C57 O65 1.258 1_545 S
O58 C56 1.247 1_565 S
O58 Zn59 2.028 . S
Zn59 O58 2.028 . S
Zn59 O63 2.035 . S
Zn59 O65 2.035 . S
Zn59 O66 2.028 . S
O60 C56 1.258 . S
O60 Zn61 2.035 . S
Zn61 O60 2.035 . S
Zn61 O62 2.028 . S
Zn61 O64 2.028 . S
Zn61 O67 2.035 . S
O62 Zn61 2.028 . S
O62 C68 1.247 . S
O63 Zn59 2.035 . S
O63 C68 1.258 1_565 S
O64 C57 1.247 . S
O64 Zn61 2.028 . S
O65 C57 1.258 1_565 S
O65 Zn59 2.035 . S
O66 Zn59 2.028 . S
O66 C69 1.247 1_565 S
O67 Zn61 2.035 . S
O67 C69 1.258 . S
C68 O62 1.247 . S
C68 O63 1.258 1_545 S
C69 O66 1.247 1_545 S
C69 O67 1.258 . S
C70 O72 1.247 . S
C70 O74 1.258 . S
C71 O78 1.247 . S
C71 O79 1.258 . S
O72 C70 1.247 . S
O72 Zn73 2.028 . S
Zn73 O72 2.028 . S
Zn73 O77 2.035 . S
Zn73 O79 2.035 . S
Zn73 O80 2.028 . S
O74 C70 1.258 . S
O74 Zn75 2.035 . S
Zn75 O74 2.035 . S
Zn75 O76 2.028 . S
Zn75 O78 2.028 . S
Zn75 O81 2.035 . S
O76 Zn75 2.028 . S
O76 C82 1.247 . S
O77 Zn73 2.035 . S
O77 C82 1.258 . S
O78 C71 1.247 . S
O78 Zn75 2.028 . S
O79 C71 1.258 . S
O79 Zn73 2.035 . S
O80 Zn73 2.028 . S
O80 C83 1.247 . S
O81 Zn75 2.035 . S
O81 C83 1.258 . S
C82 O76 1.247 . S
C82 O77 1.258 . S
C83 O80 1.247 . S
C83 O81 1.258 . S
H84 C90 0.930 . S
H85 C94 0.930 . S
H86 C99 0.929 . S
H87 C97 0.929 . S
H88 C92 0.929 . S
H89 C98 0.929 . S
C90 H84 0.930 . S
C90 C91 1.367 . S
C90 C98 1.378 . S
C91 C90 1.367 . S
C91 C99 1.433 . S
C92 H88 0.929 . S
C92 C94 1.378 . S
C92 C96 1.350 . S
C93 C96 1.463 . S
C93 C98 1.350 . S
C93 N101 1.427 . S
C94 H85 0.930 . S
C94 C92 1.378 . S
C94 C95 1.367 . S
C95 C94 1.367 . S
C95 C97 1.433 . S
C96 C92 1.350 . S
C96 C93 1.463 . S
C96 N100 1.427 . S
C97 H87 0.929 . S
C97 C95 1.433 . S
C97 N100 1.384 . S
C98 H89 0.929 . S
C98 C90 1.378 . S
C98 C93 1.350 . S
C99 H86 0.929 . S
C99 C91 1.433 . S
C99 N101 1.384 . S
N100 C96 1.427 . S
N100 C97 1.384 . S
N101 C93 1.427 . S
N101 C99 1.384 . S
H102 C108 0.930 . S
H103 C112 0.930 . S
H104 C117 0.929 . S
H105 C115 0.929 . S
H106 C110 0.929 . S
H107 C116 0.929 . S
C108 H102 0.930 . S
C108 C109 1.367 1_565 S
C108 C116 1.378 . S
C109 C108 1.367 1_545 S
C109 C117 1.433 . S
C110 H106 0.929 . S
C110 C112 1.378 . S
C110 C114 1.350 . S
C111 C114 1.463 . S
C111 C116 1.350 1_545 S
C111 N119 1.427 . S
C112 H103 0.930 . S
C112 C110 1.378 . S
C112 C113 1.367 . S
C113 C112 1.367 . S
C113 C115 1.433 1_545 S
C114 C110 1.350 . S
C114 C111 1.463 . S
C114 N118 1.427 1_545 S
C115 H105 0.929 . S
C115 C113 1.433 1_565 S
C115 N118 1.384 . S
C116 H107 0.929 . S
C116 C108 1.378 . S
C116 C111 1.350 1_565 S
C117 H104 0.929 . S
C117 C109 1.433 . S
C117 N119 1.384 . S
N118 C114 1.427 1_565 S
N118 C115 1.384 . S
N119 C111 1.427 . S
N119 C117 1.384 . S
H120 C126 0.930 . S
H121 C130 0.930 . S
H122 C135 0.929 . S
H123 C133 0.929 . S
H124 C128 0.929 . S
H125 C134 0.929 . S
C126 H120 0.930 . S
C126 C127 1.367 . S
C126 C134 1.378 . S
C127 C126 1.367 . S
C127 C135 1.433 . S
C128 H124 0.929 . S
C128 C130 1.378 . S
C128 C132 1.350 . S
C129 C132 1.463 . S
C129 C134 1.350 . S
C129 N137 1.427 . S
C130 H121 0.930 . S
C130 C128 1.378 . S
C130 C131 1.367 . S
C131 C130 1.367 . S
C131 C133 1.433 . S
C132 C128 1.350 . S
C132 C129 1.463 . S
C132 N136 1.427 . S
C133 H123 0.929 . S
C133 C131 1.433 . S
C133 N136 1.384 . S
C134 H125 0.929 . S
C134 C126 1.378 . S
C134 C129 1.350 . S
C135 H122 0.929 . S
C135 C127 1.433 . S
C135 N137 1.384 . S
N136 C132 1.427 . S
N136 C133 1.384 . S
N137 C129 1.427 . S
N137 C135 1.384 . S
H138 C144 0.930 . S
H139 C148 0.930 . S
H140 C153 0.929 . S
H141 C151 0.929 . S
H142 C146 0.929 . S
H143 C152 0.929 . S
C144 H138 0.930 . S
C144 C145 1.367 1_655 S
C144 C152 1.378 . S
C145 C144 1.367 1_455 S
C145 C153 1.433 . S
C146 H142 0.929 . S
C146 C148 1.378 . S
C146 C150 1.350 . S
C147 C150 1.463 . S
C147 C152 1.350 1_455 S
C147 N155 1.427 . S
C148 H139 0.930 . S
C148 C146 1.378 . S
C148 C149 1.367 . S
C149 C148 1.367 . S
C149 C151 1.433 1_455 S
C150 C146 1.350 . S
C150 C147 1.463 . S
C150 N154 1.427 1_455 S
C151 H141 0.929 . S
C151 C149 1.433 1_655 S
C151 N154 1.384 . S
C152 H143 0.929 . S
C152 C144 1.378 . S
C152 C147 1.350 1_655 S
C153 H140 0.929 . S
C153 C145 1.433 . S
C153 N155 1.384 . S
N154 C150 1.427 1_655 S
N154 C151 1.384 . S
N155 C147 1.427 . S
N155 C153 1.384 . S
H156 C162 0.930 . S
H157 C166 0.930 . S
H158 C171 0.929 . S
H159 C169 0.929 . S
H160 C164 0.929 . S
H161 C170 0.929 . S
C162 H156 0.930 . S
C162 C163 1.367 . S
C162 C170 1.378 . S
C163 C162 1.367 . S
C163 C171 1.434 1_545 S
C164 H160 0.929 . S
C164 C166 1.378 . S
C164 C168 1.350 1_565 S
C165 C168 1.463 . S
C165 C170 1.350 . S
C165 N173 1.427 1_545 S
C166 H157 0.930 . S
C166 C164 1.378 . S
C166 C167 1.367 1_565 S
C167 C166 1.367 1_545 S
C167 C169 1.433 . S
C168 C164 1.350 1_545 S
C168 C165 1.463 . S
C168 N172 1.427 . S
C169 H159 0.929 . S
C169 C167 1.433 . S
C169 N172 1.384 . S
C170 H161 0.929 . S
C170 C162 1.378 . S
C170 C165 1.350 . S
C171 H158 0.929 . S
C171 C163 1.434 1_565 S
C171 N173 1.383 . S
N172 C168 1.427 . S
N172 C169 1.384 . S
N173 C165 1.427 1_565 S
N173 C171 1.383 . S
H174 C180 0.930 . S
H175 C184 0.930 . S
H176 C189 0.929 . S
H177 C187 0.929 . S
H178 C182 0.929 . S
H179 C188 0.929 . S
C180 H174 0.930 . S
C180 C181 1.367 . S
C180 C188 1.378 . S
C181 C180 1.367 . S
C181 C189 1.433 . S
C182 H178 0.929 . S
C182 C184 1.378 . S
C182 C186 1.350 . S
C183 C186 1.463 . S
C183 C188 1.350 . S
C183 N191 1.427 . S
C184 H175 0.930 . S
C184 C182 1.378 . S
C184 C185 1.367 . S
C185 C184 1.367 . S
C185 C187 1.433 . S
C186 C182 1.350 . S
C186 C183 1.463 . S
C186 N190 1.427 . S
C187 H177 0.929 . S
C187 C185 1.433 . S
C187 N190 1.384 . S
C188 H179 0.929 . S
C188 C180 1.378 . S
C188 C183 1.350 . S
C189 H176 0.929 . S
C189 C181 1.433 . S
C189 N191 1.384 . S
N190 C186 1.427 . S
N190 C187 1.384 . S
N191 C183 1.427 . S
N191 C189 1.384 . S
H192 C198 0.930 . S
H193 C202 0.930 . S
H194 C207 0.929 . S
H195 C205 0.929 . S
H196 C200 0.929 . S
H197 C206 0.929 . S
C198 H192 0.930 . S
C198 C199 1.367 1_565 S
C198 C206 1.378 . S
C199 C198 1.367 1_545 S
C199 C207 1.433 . S
C200 H196 0.929 . S
C200 C202 1.378 . S
C200 C204 1.350 . S
C201 C204 1.463 . S
C201 C206 1.350 1_545 S
C201 N209 1.427 . S
C202 H193 0.930 . S
C202 C200 1.378 . S
C202 C203 1.367 . S
C203 C202 1.367 . S
C203 C205 1.433 1_545 S
C204 C200 1.350 . S
C204 C201 1.463 . S
C204 N208 1.427 1_545 S
C205 H195 0.929 . S
C205 C203 1.433 1_565 S
C205 N208 1.384 . S
C206 H197 0.929 . S
C206 C198 1.378 . S
C206 C201 1.350 1_565 S
C207 H194 0.929 . S
C207 C199 1.433 . S
C207 N209 1.384 . S
N208 C204 1.427 1_565 S
N208 C205 1.384 . S
N209 C201 1.427 . S
N209 C207 1.384 . S
H210 C216 0.930 . S
H211 C220 0.930 . S
H212 C225 0.929 . S
H213 C223 0.929 . S
H214 C218 0.929 . S
H215 C224 0.929 . S
C216 H210 0.930 . S
C216 C217 1.367 . S
C216 C224 1.378 1_554 S
C217 C216 1.367 . S
C217 C225 1.433 . S
C218 H214 0.929 . S
C218 C220 1.378 . S
C218 C222 1.350 . S
C219 C222 1.463 . S
C219 C224 1.350 . S
C219 N227 1.427 1_556 S
C220 H211 0.930 . S
C220 C218 1.378 . S
C220 C221 1.367 . S
C221 C220 1.367 . S
C221 C223 1.433 . S
C222 C218 1.350 . S
C222 C219 1.463 . S
C222 N226 1.427 . S
C223 H213 0.929 . S
C223 C221 1.433 . S
C223 N226 1.384 . S
C224 H215 0.929 . S
C224 C216 1.378 1_556 S
C224 C219 1.350 . S
C225 H212 0.929 . S
C225 C217 1.433 . S
C225 N227 1.384 . S
N226 C222 1.427 . S
N226 C223 1.384 . S
N227 C219 1.427 1_554 S
N227 C225 1.384 . S
H228 C234 0.930 1_655 S
H229 C238 0.930 . S
H230 C243 0.929 . S
H231 C241 0.929 . S
H232 C236 0.929 . S
H233 C242 0.929 1_655 S
C234 H228 0.930 1_455 S
C234 C235 1.367 . S
C234 C242 1.378 . S
C235 C234 1.367 . S
C235 C243 1.433 . S
C236 H232 0.929 . S
C236 C238 1.378 . S
C236 C240 1.350 . S
C237 C240 1.463 . S
C237 C242 1.350 . S
C237 N245 1.427 . S
C238 H229 0.930 . S
C238 C236 1.378 . S
C238 C239 1.367 . S
C239 C238 1.367 . S
C239 C241 1.433 1_455 S
C240 C236 1.350 . S
C240 C237 1.463 . S
C240 N244 1.428 1_455 S
C241 H231 0.929 . S
C241 C239 1.433 1_655 S
C241 N244 1.377 . S
C242 H233 0.929 1_455 S
C242 C234 1.378 . S
C242 C237 1.350 . S
C243 H230 0.929 . S
C243 C235 1.433 . S
C243 N245 1.384 . S
N244 C240 1.428 1_655 S
N244 C241 1.377 . S
N245 C237 1.427 . S
N245 C243 1.384 . S
H246 C252 0.930 . S
H247 C256 0.930 . S
H248 C261 0.929 . S
H249 C259 0.929 . S
H250 C254 0.929 . S
H251 C260 0.929 . S
C252 H246 0.930 . S
C252 C253 1.367 . S
C252 C260 1.378 . S
C253 C252 1.367 . S
C253 C261 1.433 1_545 S
C254 H250 0.929 . S
C254 C256 1.378 . S
C254 C258 1.350 1_565 S
C255 C258 1.463 . S
C255 C260 1.350 . S
C255 N263 1.427 1_545 S
C256 H247 0.930 . S
C256 C254 1.378 . S
C256 C257 1.367 1_565 S
C257 C256 1.367 1_545 S
C257 C259 1.433 . S
C258 C254 1.350 1_545 S
C258 C255 1.463 . S
C258 N262 1.427 . S
C259 H249 0.929 . S
C259 C257 1.433 . S
C259 N262 1.384 . S
C260 H251 0.929 . S
C260 C252 1.378 . S
C260 C255 1.350 . S
C261 H248 0.929 . S
C261 C253 1.433 1_565 S
C261 N263 1.384 . S
N262 C258 1.427 . S
N262 C259 1.384 . S
N263 C255 1.427 1_565 S
N263 C261 1.384 . S
H264 C270 0.930 . S
H265 C274 0.930 . S
H266 C279 0.929 . S
H267 C277 0.929 . S
H268 C272 0.929 . S
H269 C278 0.929 . S
C270 H264 0.930 . S
C270 C271 1.367 . S
C270 C278 1.378 . S
C271 C270 1.367 . S
C271 C279 1.433 . S
C272 H268 0.929 . S
C272 C274 1.378 . S
C272 C276 1.350 . S
C273 C276 1.463 . S
C273 C278 1.350 1_556 S
C273 N281 1.427 . S
C274 H265 0.930 . S
C274 C272 1.378 . S
C274 C275 1.367 . S
C275 C274 1.367 . S
C275 C277 1.433 . S
C276 C272 1.350 . S
C276 C273 1.463 . S
C276 N280 1.427 . S
C277 H267 0.929 . S
C277 C275 1.433 . S
C277 N280 1.384 . S
C278 H269 0.929 . S
C278 C270 1.378 . S
C278 C273 1.350 1_554 S
C279 H266 0.929 . S
C279 C271 1.433 . S
C279 N281 1.384 1_554 S
N280 C276 1.427 . S
N280 C277 1.384 . S
N281 C273 1.427 . S
N281 C279 1.384 1_556 S
H282 C288 0.930 . S
H283 C292 0.930 . S
H284 C297 0.929 . S
H285 C295 0.929 . S
H286 C290 0.929 . S
H287 C296 0.929 . S
C288 H282 0.930 . S
C288 C289 1.367 . S
C288 C296 1.378 . S
C289 C288 1.367 . S
C289 C297 1.433 1_455 S
C290 H286 0.929 . S
C290 C292 1.378 . S
C290 C294 1.350 1_655 S
C291 C294 1.463 . S
C291 C296 1.350 . S
C291 N299 1.427 1_455 S
C292 H283 0.930 . S
C292 C290 1.378 . S
C292 C293 1.367 1_655 S
C293 C292 1.367 1_455 S
C293 C295 1.433 . S
C294 C290 1.350 1_455 S
C294 C291 1.463 . S
C294 N298 1.427 . S
C295 H285 0.929 . S
C295 C293 1.433 . S
C295 N298 1.384 . S
C296 H287 0.929 . S
C296 C288 1.378 . S
C296 C291 1.350 . S
C297 H284 0.929 . S
C297 C289 1.433 1_655 S
C297 N299 1.384 . S
N298 C294 1.427 . S
N298 C295 1.384 . S
N299 C291 1.427 1_655 S
N299 C297 1.384 . S
C95 C43 1.473 . S
C91 C3 1.470 . S
C109 C21 1.478 . S
C113 C69 1.504 . S
C127 C37 1.465 . S
C131 C71 1.482 . S
C145 C8 1.474 . S
C149 C55 1.472 . S
C167 C57 1.480 . S
C163 C23 1.464 . S
C181 C35 1.457 . S
C185 C83 1.479 . S
C203 C56 1.472 . S
C199 C31 1.467 . S
C217 C7 1.451 . S
C221 C82 1.478 . S
C239 C42 1.474 . S
C235 C17 1.471 . S
C257 C68 1.445 . S
C253 C36 1.446 . S
C275 C70 1.483 . S
C271 C9 1.465 . S
C289 C22 1.473 . S
C293 C54 1.474 . S
