# Generated by pormake.
# Topology tph, (6,8)-cn, num edge types: 1
# Building blocks:
#     Node 0, Type 0, BuildingBlock: MIDCAF_clean_sbu_0, # of connection points: 6
#     Node 1, Type 0, BuildingBlock: MIDCAF_clean_sbu_0, # of connection points: 6
#     Node 2, Type 0, BuildingBlock: MIDCAF_clean_sbu_0, # of connection points: 6
#     Node 3, Type 0, BuildingBlock: MIDCAF_clean_sbu_0, # of connection points: 6
#     Node 4, Type 0, BuildingBlock: MIDCAF_clean_sbu_0, # of connection points: 6
#     Node 5, Type 0, BuildingBlock: MIDCAF_clean_sbu_0, # of connection points: 6
#     Node 6, Type 0, BuildingBlock: MIDCAF_clean_sbu_0, # of connection points: 6
#     Node 7, Type 0, BuildingBlock: MIDCAF_clean_sbu_0, # of connection points: 6
#     Node 8, Type 0, BuildingBlock: MIDCAF_clean_sbu_0, # of connection points: 6
#     Node 9, Type 0, BuildingBlock: MIDCAF_clean_sbu_0, # of connection points: 6
#     Node 10, Type 0, BuildingBlock: MIDCAF_clean_sbu_0, # of connection points: 6
#     Node 11, Type 0, BuildingBlock: MIDCAF_clean_sbu_0, # of connection points: 6
#     Node 12, Type 0, BuildingBlock: MIDCAF_clean_sbu_0, # of connection points: 6
#     Node 13, Type 0, BuildingBlock: MIDCAF_clean_sbu_0, # of connection points: 6
#     Node 14, Type 0, BuildingBlock: MIDCAF_clean_sbu_0, # of connection points: 6
#     Node 15, Type 0, BuildingBlock: MIDCAF_clean_sbu_0, # of connection points: 6
#     Node 16, Type 1, BuildingBlock: TAGTUT_clean_sbu_1, # of connection points: 8
#     Node 17, Type 1, BuildingBlock: TAGTUT_clean_sbu_1, # of connection points: 8
#     Node 18, Type 1, BuildingBlock: TAGTUT_clean_sbu_1, # of connection points: 8
#     Node 19, Type 1, BuildingBlock: TAGTUT_clean_sbu_1, # of connection points: 8
#     Node 20, Type 1, BuildingBlock: TAGTUT_clean_sbu_1, # of connection points: 8
#     Node 21, Type 1, BuildingBlock: TAGTUT_clean_sbu_1, # of connection points: 8
#     Node 22, Type 1, BuildingBlock: TAGTUT_clean_sbu_1, # of connection points: 8
#     Node 23, Type 1, BuildingBlock: TAGTUT_clean_sbu_1, # of connection points: 8
#     Node 24, Type 1, BuildingBlock: TAGTUT_clean_sbu_1, # of connection points: 8
#     Node 25, Type 1, BuildingBlock: TAGTUT_clean_sbu_1, # of connection points: 8
#     Node 26, Type 1, BuildingBlock: TAGTUT_clean_sbu_1, # of connection points: 8
#     Node 27, Type 1, BuildingBlock: TAGTUT_clean_sbu_1, # of connection points: 8
#     Edge 28, Type (0, 1), BuildingBlock: AJUNOK_clean_linker_0, # of connection points: 2
#     Edge 29, Type (0, 1), BuildingBlock: AJUNOK_clean_linker_0, # of connection points: 2
#     Edge 30, Type (0, 1), BuildingBlock: AJUNOK_clean_linker_0, # of connection points: 2
#     Edge 31, Type (0, 1), BuildingBlock: AJUNOK_clean_linker_0, # of connection points: 2
#     Edge 32, Type (0, 1), BuildingBlock: AJUNOK_clean_linker_0, # of connection points: 2
#     Edge 33, Type (0, 1), BuildingBlock: AJUNOK_clean_linker_0, # of connection points: 2
#     Edge 34, Type (0, 1), BuildingBlock: AJUNOK_clean_linker_0, # of connection points: 2
#     Edge 35, Type (0, 1), BuildingBlock: AJUNOK_clean_linker_0, # of connection points: 2
#     Edge 36, Type (0, 1), BuildingBlock: AJUNOK_clean_linker_0, # of connection points: 2
#     Edge 37, Type (0, 1), BuildingBlock: AJUNOK_clean_linker_0, # of connection points: 2
#     Edge 38, Type (0, 1), BuildingBlock: AJUNOK_clean_linker_0, # of connection points: 2
#     Edge 39, Type (0, 1), BuildingBlock: AJUNOK_clean_linker_0, # of connection points: 2
#     Edge 40, Type (0, 1), BuildingBlock: AJUNOK_clean_linker_0, # of connection points: 2
#     Edge 41, Type (0, 1), BuildingBlock: AJUNOK_clean_linker_0, # of connection points: 2
#     Edge 42, Type (0, 1), BuildingBlock: AJUNOK_clean_linker_0, # of connection points: 2
#     Edge 43, Type (0, 1), BuildingBlock: AJUNOK_clean_linker_0, # of connection points: 2
#     Edge 44, Type (0, 1), BuildingBlock: AJUNOK_clean_linker_0, # of connection points: 2
#     Edge 45, Type (0, 1), BuildingBlock: AJUNOK_clean_linker_0, # of connection points: 2
#     Edge 46, Type (0, 1), BuildingBlock: AJUNOK_clean_linker_0, # of connection points: 2
#     Edge 47, Type (0, 1), BuildingBlock: AJUNOK_clean_linker_0, # of connection points: 2
#     Edge 48, Type (0, 1), BuildingBlock: AJUNOK_clean_linker_0, # of connection points: 2
#     Edge 49, Type (0, 1), BuildingBlock: AJUNOK_clean_linker_0, # of connection points: 2
#     Edge 50, Type (0, 1), BuildingBlock: AJUNOK_clean_linker_0, # of connection points: 2
#     Edge 51, Type (0, 1), BuildingBlock: AJUNOK_clean_linker_0, # of connection points: 2
#     Edge 52, Type (0, 1), BuildingBlock: AJUNOK_clean_linker_0, # of connection points: 2
#     Edge 53, Type (0, 1), BuildingBlock: AJUNOK_clean_linker_0, # of connection points: 2
#     Edge 54, Type (0, 1), BuildingBlock: AJUNOK_clean_linker_0, # of connection points: 2
#     Edge 55, Type (0, 1), BuildingBlock: AJUNOK_clean_linker_0, # of connection points: 2
#     Edge 56, Type (0, 1), BuildingBlock: AJUNOK_clean_linker_0, # of connection points: 2
#     Edge 57, Type (0, 1), BuildingBlock: AJUNOK_clean_linker_0, # of connection points: 2
#     Edge 58, Type (0, 1), BuildingBlock: AJUNOK_clean_linker_0, # of connection points: 2
#     Edge 59, Type (0, 1), BuildingBlock: AJUNOK_clean_linker_0, # of connection points: 2
#     Edge 60, Type (0, 1), BuildingBlock: AJUNOK_clean_linker_0, # of connection points: 2
#     Edge 61, Type (0, 1), BuildingBlock: AJUNOK_clean_linker_0, # of connection points: 2
#     Edge 62, Type (0, 1), BuildingBlock: AJUNOK_clean_linker_0, # of connection points: 2
#     Edge 63, Type (0, 1), BuildingBlock: AJUNOK_clean_linker_0, # of connection points: 2
#     Edge 64, Type (0, 1), BuildingBlock: AJUNOK_clean_linker_0, # of connection points: 2
#     Edge 65, Type (0, 1), BuildingBlock: AJUNOK_clean_linker_0, # of connection points: 2
#     Edge 66, Type (0, 1), BuildingBlock: AJUNOK_clean_linker_0, # of connection points: 2
#     Edge 67, Type (0, 1), BuildingBlock: AJUNOK_clean_linker_0, # of connection points: 2
#     Edge 68, Type (0, 1), BuildingBlock: AJUNOK_clean_linker_0, # of connection points: 2
#     Edge 69, Type (0, 1), BuildingBlock: AJUNOK_clean_linker_0, # of connection points: 2
#     Edge 70, Type (0, 1), BuildingBlock: AJUNOK_clean_linker_0, # of connection points: 2
#     Edge 71, Type (0, 1), BuildingBlock: AJUNOK_clean_linker_0, # of connection points: 2
#     Edge 72, Type (0, 1), BuildingBlock: AJUNOK_clean_linker_0, # of connection points: 2
#     Edge 73, Type (0, 1), BuildingBlock: AJUNOK_clean_linker_0, # of connection points: 2
#     Edge 74, Type (0, 1), BuildingBlock: AJUNOK_clean_linker_0, # of connection points: 2
#     Edge 75, Type (0, 1), BuildingBlock: AJUNOK_clean_linker_0, # of connection points: 2
#     Edge 76, Type (0, 1), BuildingBlock: AJUNOK_clean_linker_0, # of connection points: 2
#     Edge 77, Type (0, 1), BuildingBlock: AJUNOK_clean_linker_0, # of connection points: 2
#     Edge 78, Type (0, 1), BuildingBlock: AJUNOK_clean_linker_0, # of connection points: 2
#     Edge 79, Type (0, 1), BuildingBlock: AJUNOK_clean_linker_0, # of connection points: 2
#     Edge 80, Type (0, 1), BuildingBlock: AJUNOK_clean_linker_0, # of connection points: 2
#     Edge 81, Type (0, 1), BuildingBlock: AJUNOK_clean_linker_0, # of connection points: 2
#     Edge 82, Type (0, 1), BuildingBlock: AJUNOK_clean_linker_0, # of connection points: 2
#     Edge 83, Type (0, 1), BuildingBlock: AJUNOK_clean_linker_0, # of connection points: 2
#     Edge 84, Type (0, 1), BuildingBlock: AJUNOK_clean_linker_0, # of connection points: 2
#     Edge 85, Type (0, 1), BuildingBlock: AJUNOK_clean_linker_0, # of connection points: 2
#     Edge 86, Type (0, 1), BuildingBlock: AJUNOK_clean_linker_0, # of connection points: 2
#     Edge 87, Type (0, 1), BuildingBlock: AJUNOK_clean_linker_0, # of connection points: 2
#     Edge 88, Type (0, 1), BuildingBlock: AJUNOK_clean_linker_0, # of connection points: 2
#     Edge 89, Type (0, 1), BuildingBlock: AJUNOK_clean_linker_0, # of connection points: 2
#     Edge 90, Type (0, 1), BuildingBlock: AJUNOK_clean_linker_0, # of connection points: 2
#     Edge 91, Type (0, 1), BuildingBlock: AJUNOK_clean_linker_0, # of connection points: 2
#     Edge 92, Type (0, 1), BuildingBlock: AJUNOK_clean_linker_0, # of connection points: 2
#     Edge 93, Type (0, 1), BuildingBlock: AJUNOK_clean_linker_0, # of connection points: 2
#     Edge 94, Type (0, 1), BuildingBlock: AJUNOK_clean_linker_0, # of connection points: 2
#     Edge 95, Type (0, 1), BuildingBlock: AJUNOK_clean_linker_0, # of connection points: 2
#     Edge 96, Type (0, 1), BuildingBlock: AJUNOK_clean_linker_0, # of connection points: 2
#     Edge 97, Type (0, 1), BuildingBlock: AJUNOK_clean_linker_0, # of connection points: 2
#     Edge 98, Type (0, 1), BuildingBlock: AJUNOK_clean_linker_0, # of connection points: 2
#     Edge 99, Type (0, 1), BuildingBlock: AJUNOK_clean_linker_0, # of connection points: 2
#     Edge 100, Type (0, 1), BuildingBlock: AJUNOK_clean_linker_0, # of connection points: 2
#     Edge 101, Type (0, 1), BuildingBlock: AJUNOK_clean_linker_0, # of connection points: 2
#     Edge 102, Type (0, 1), BuildingBlock: AJUNOK_clean_linker_0, # of connection points: 2
#     Edge 103, Type (0, 1), BuildingBlock: AJUNOK_clean_linker_0, # of connection points: 2
#     Edge 104, Type (0, 1), BuildingBlock: AJUNOK_clean_linker_0, # of connection points: 2
#     Edge 105, Type (0, 1), BuildingBlock: AJUNOK_clean_linker_0, # of connection points: 2
#     Edge 106, Type (0, 1), BuildingBlock: AJUNOK_clean_linker_0, # of connection points: 2
#     Edge 107, Type (0, 1), BuildingBlock: AJUNOK_clean_linker_0, # of connection points: 2
#     Edge 108, Type (0, 1), BuildingBlock: AJUNOK_clean_linker_0, # of connection points: 2
#     Edge 109, Type (0, 1), BuildingBlock: AJUNOK_clean_linker_0, # of connection points: 2
#     Edge 110, Type (0, 1), BuildingBlock: AJUNOK_clean_linker_0, # of connection points: 2
#     Edge 111, Type (0, 1), BuildingBlock: AJUNOK_clean_linker_0, # of connection points: 2
#     Edge 112, Type (0, 1), BuildingBlock: AJUNOK_clean_linker_0, # of connection points: 2
#     Edge 113, Type (0, 1), BuildingBlock: AJUNOK_clean_linker_0, # of connection points: 2
#     Edge 114, Type (0, 1), BuildingBlock: AJUNOK_clean_linker_0, # of connection points: 2
#     Edge 115, Type (0, 1), BuildingBlock: AJUNOK_clean_linker_0, # of connection points: 2
#     Edge 116, Type (0, 1), BuildingBlock: AJUNOK_clean_linker_0, # of connection points: 2
#     Edge 117, Type (0, 1), BuildingBlock: AJUNOK_clean_linker_0, # of connection points: 2
#     Edge 118, Type (0, 1), BuildingBlock: AJUNOK_clean_linker_0, # of connection points: 2
#     Edge 119, Type (0, 1), BuildingBlock: AJUNOK_clean_linker_0, # of connection points: 2
#     Edge 120, Type (0, 1), BuildingBlock: AJUNOK_clean_linker_0, # of connection points: 2
#     Edge 121, Type (0, 1), BuildingBlock: AJUNOK_clean_linker_0, # of connection points: 2
#     Edge 122, Type (0, 1), BuildingBlock: AJUNOK_clean_linker_0, # of connection points: 2
#     Edge 123, Type (0, 1), BuildingBlock: AJUNOK_clean_linker_0, # of connection points: 2
# Relax obj value: 0.184
# Max RMSD: 0.316
# Mean RMSD: 0.183
data_MOF--net-tph--node1-MIDCAF_clean_sbu_0--node2-TAGTUT_clean_sbu_1--edge1-AJUNOK_clean_linker_0
_symmetry_space_group_name_H-M    P1
_symmetry_Int_Tables_number       1
_symmetry_cell_setting            triclinic
loop_
_symmetry_equiv_pos_as_xyz
'x, y, z'
_cell_length_a     35.671728
_cell_length_b     35.49012
_cell_length_c     35.305006
_cell_angle_alpha  90.059769
_cell_angle_beta   92.02656
_cell_angle_gamma 90.319957
loop_
_atom_site_label
_atom_site_type_symbol
_atom_site_fract_x
_atom_site_fract_y
_atom_site_fract_z
_atom_type_partial_charge
Zn0 Zn 0.22562 0.21593 0.20774 0.0
Zn1 Zn 0.124 0.17404 0.13643 0.0
Zn2 Zn 0.18357 0.18743 0.16786 0.0
C3 C 0.10989 0.15443 0.20561 0.0
C4 C 0.13795 0.23712 0.10083 0.0
O5 O 0.23832 0.16789 0.15018 0.0
O6 O 0.26187 0.22296 0.16752 0.0
C7 C 0.20432 0.16572 0.2534 0.0
O8 O 0.14577 0.15774 0.20535 0.0
O9 O 0.08989 0.16796 0.17883 0.0
O10 O 0.11318 0.21184 0.09747 0.0
O11 O 0.16373 0.23473 0.12749 0.0
O12 O 0.23702 0.1761 0.24571 0.0
O13 O 0.17734 0.17169 0.22894 0.0
O14 O 0.17392 0.24735 0.16361 0.0
O15 O 0.19132 0.25741 0.22298 0.0
C16 C 0.17347 0.26797 0.19346 0.0
O17 O 0.20439 0.14423 0.13133 0.0
O18 O 0.14626 0.12674 0.11623 0.0
C19 C 0.2655 0.19182 0.15079 0.0
C20 C 0.18117 0.12094 0.11521 0.0
Zn21 Zn 0.34694 0.645 0.10703 0.0
Zn22 Zn 0.46949 0.53859 0.03723 0.0
Zn23 Zn 0.4319 0.57865 0.0662 0.0
C24 C 0.46184 0.49838 0.09967 0.0
C25 C 0.51107 0.60373 0.03628 0.0
O26 O 0.38476 0.60626 0.02753 0.0
O27 O 0.33653 0.64074 0.05071 0.0
C28 C 0.38199 0.57002 0.12568 0.0
O29 O 0.43359 0.52132 0.09812 0.0
O30 O 0.48857 0.50439 0.07799 0.0
O31 O 0.50517 0.57511 0.01567 0.0
O32 O 0.4888 0.6097 0.06386 0.0
O33 O 0.38063 0.60089 0.10854 0.0
O34 O 0.40633 0.54695 0.11392 0.0
O35 O 0.46185 0.62719 0.09317 0.0
O36 O 0.40253 0.63604 0.09548 0.0
C37 C 0.43514 0.64729 0.1053 0.0
O38 O 0.40471 0.57263 0.00876 0.0
O39 O 0.4305 0.51728 0.0013 0.0
C40 C 0.35401 0.62614 0.02319 0.0
C41 C 0.40691 0.54155 0.99006 0.0
Zn42 Zn 0.78802 0.27037 0.20743 0.0
Zn43 Zn 0.85375 0.364 0.16084 0.0
Zn44 Zn 0.8245 0.31658 0.18705 0.0
C45 C 0.89697 0.35465 0.22311 0.0
C46 C 0.86442 0.30665 0.11415 0.0
O47 O 0.76337 0.32383 0.16815 0.0
O48 O 0.74899 0.26359 0.16673 0.0
C49 C 0.80076 0.32056 0.26572 0.0
O50 O 0.86431 0.34246 0.2326 0.0
O51 O 0.90201 0.36221 0.18885 0.0
O52 O 0.85388 0.34033 0.10985 0.0
O53 O 0.86012 0.29043 0.14622 0.0
O54 O 0.77457 0.30059 0.25142 0.0
O55 O 0.83041 0.32699 0.24713 0.0
O56 O 0.847 0.26089 0.1697 0.0
O57 O 0.82268 0.2292 0.21658 0.0
C58 C 0.84463 0.2306 0.1895 0.0
O59 O 0.78556 0.35594 0.1566 0.0
O60 O 0.8192 0.40667 0.1691 0.0
C61 C 0.7399 0.2971 0.15922 0.0
C62 C 0.78904 0.39208 0.15625 0.0
Zn63 Zn 0.51867 0.94924 0.02992 0.0
Zn64 Zn 0.63462 0.84166 0.1508 0.0
Zn65 Zn 0.56377 0.91937 0.07108 0.0
C66 C 0.55661 0.84375 0.10608 0.0
C67 C 0.60604 0.92708 0.14335 0.0
O68 O 0.59327 0.92173 0.01708 0.0
O69 O 0.54527 0.94374 0.98302 0.0
C70 C 0.47587 0.8931 0.05405 0.0
O71 O 0.53532 0.86618 0.08706 0.0
O72 O 0.58792 0.85773 0.11763 0.0
O73 O 0.60466 0.89241 0.13336 0.0
O74 O 0.58691 0.95007 0.1224 0.0
O75 O 0.47123 0.92125 0.03276 0.0
O76 O 0.50817 0.88737 0.07068 0.0
O77 O 0.56014 0.97718 0.09805 0.0
O78 O 0.52206 -0.00031 0.05305 0.0
C79 C 0.54163 0.00504 0.08307 0.0
O80 O 0.6147 0.89632 0.04321 0.0
O81 O 0.62238 0.87366 0.09993 0.0
C82 C 0.57876 0.93258 0.98505 0.0
C83 C 0.63434 0.87608 0.06649 0.0
Zn84 Zn 0.14294 0.85637 0.35179 0.0
Zn85 Zn 0.21971 0.78613 0.28475 0.0
Zn86 Zn 0.18114 0.8217 0.31829 0.0
C87 C 0.26752 0.81552 0.33455 0.0
C88 C 0.17413 0.73387 0.30874 0.0
O89 O 0.1347 0.84292 0.27923 0.0
O90 O 0.09447 0.84282 0.32475 0.0
C91 C 0.20232 0.90238 0.34165 0.0
O92 O 0.24011 0.83904 0.33299 0.0
O93 O 0.26332 0.7833 0.32 0.0
O94 O 0.19012 0.73971 0.27797 0.0
O95 O 0.17093 0.76114 0.3326 0.0
O96 O 0.16708 0.9056 0.33938 0.0
O97 O 0.21636 0.86898 0.3413 0.0
O98 O 0.15944 0.784 0.36357 0.0
O99 O 0.15556 0.83248 0.40173 0.0
C100 C 0.15621 0.79719 0.39737 0.0
O101 O 0.16671 0.83746 0.25902 0.0
O102 O 0.22398 0.82307 0.24332 0.0
C103 C 0.10046 0.84451 0.28977 0.0
C104 C 0.19381 0.84031 0.23604 0.0
Zn105 Zn 0.04642 0.53356 0.96024 0.0
Zn106 Zn 0.16674 0.65064 0.89961 0.0
Zn107 Zn 0.08184 0.57757 0.92838 0.0
C108 C 0.15801 0.6224 0.97908 0.0
C109 C 0.07894 0.64815 0.89614 0.0
O110 O 0.08404 0.52422 0.89387 0.0
O111 O 0.03757 0.49541 0.92198 0.0
C112 C 0.1037 0.54354 0.00929 0.0
O113 O 0.12775 0.60298 0.96982 0.0
O114 O 0.17697 0.64128 0.9553 0.0
O115 O 0.11133 0.63608 0.90496 0.0
O116 O 0.05169 0.62711 0.90574 0.0
O117 O 0.08018 0.51768 0.00238 0.0
O118 O 0.10604 0.57147 0.98629 0.0
O119 O 0.02297 0.60231 0.92773 0.0
O120 O 0.00182 0.56333 0.97086 0.0
C121 C 0.9965 0.59133 0.94942 0.0
O122 O 0.11079 0.55067 0.87915 0.0
O123 O 0.13605 0.60403 0.8914 0.0
C124 C 0.061 0.49621 0.89623 0.0
C125 C 0.1367 0.57435 0.87199 0.0
Zn126 Zn 0.77325 0.72528 0.26905 0.0
Zn127 Zn 0.82415 0.67054 0.3695 0.0
Zn128 Zn 0.80837 0.68685 0.30683 0.0
C129 C 0.85741 0.73079 0.37673 0.0
C130 C 0.7711 0.62587 0.36815 0.0
O131 O 0.81919 0.66844 0.24906 0.0
O132 O 0.76316 0.68748 0.22959 0.0
C133 C 0.82754 0.77023 0.28661 0.0
O134 O 0.84929 0.72473 0.34127 0.0
O135 O 0.84146 0.71187 0.40156 0.0
O136 O 0.79092 0.63797 0.39567 0.0
O137 O 0.7724 0.64238 0.33557 0.0
O138 O 0.80924 0.76532 0.25586 0.0
O139 O 0.82634 0.74519 0.3127 0.0
O140 O 0.75086 0.67844 0.32221 0.0
O141 O 0.73476 0.73607 0.30694 0.0
C142 C 0.72776 0.70574 0.32394 0.0
O143 O 0.8441 0.65032 0.28073 0.0
O144 O 0.86411 0.6414 0.33997 0.0
C145 C 0.79321 0.67047 0.22299 0.0
C146 C 0.86717 0.63534 0.30466 0.0
Zn147 Zn 0.97067 0.96277 0.95593 0.0
Zn148 Zn 0.89411 0.9187 0.79367 0.0
Zn149 Zn 0.92587 0.93812 0.91134 0.0
C150 C 0.85468 0.88652 0.86162 0.0
C151 C 0.94272 0.88646 0.84464 0.0
O152 O 0.94026 0.9979 0.8956 0.0
O153 O 0.99483 0.00251 0.92556 0.0
C154 C 0.91258 0.96002 -0.00016 0.0
O155 O 0.87864 0.9032 0.88462 0.0
O156 O 0.85581 0.89042 0.8256 0.0
O157 O 0.94062 0.91914 0.83017 0.0
O158 O 0.9419 0.88496 0.88089 0.0
O159 O 0.94175 0.98 -0.0015 0.0
O160 O 0.90311 0.93889 0.97119 0.0
O161 O 0.98252 0.91036 0.90716 0.0
O162 O 1.00159 0.91816 0.96635 0.0
C163 C 0.00684 0.90421 0.93419 0.0
O164 O 0.90428 0.98515 0.87472 0.0
O165 O 0.924 0.9571 0.82501 0.0
C166 C 0.9713 0.01578 0.90176 0.0
C167 C 0.90091 0.97993 0.83871 0.0
Zn168 Zn 0.35387 0.34475 0.3561 0.0
Zn169 Zn 0.47819 0.46907 0.44837 0.0
Zn170 Zn 0.43639 0.42786 0.41737 0.0
C171 C 0.52081 0.40554 0.44103 0.0
C172 C 0.42336 0.45936 0.5011 0.0
O173 O 0.41548 0.44962 0.36188 0.0
O174 O 0.38611 0.39581 0.36246 0.0
C175 C 0.43881 0.35157 0.38324 0.0
O176 O 0.49023 0.3942 0.42381 0.0
O177 O 0.52283 0.43862 0.45381 0.0
O178 O 0.45316 0.47773 0.49629 0.0
O179 O 0.41023 0.43779 0.47415 0.0
O180 O 0.40466 0.36144 0.38529 0.0
O181 O 0.4631 0.37439 0.3983 0.0
O182 O 0.38532 0.41489 0.45081 0.0
O183 O 0.37296 0.38296 0.39955 0.0
C184 C 0.36186 0.39429 0.43162 0.0
O185 O 0.43749 0.48028 0.38048 0.0
O186 O 0.48146 0.51111 0.41344 0.0
C187 C 0.39421 0.42561 0.34418 0.0
C188 C 0.45899 0.50946 0.38518 0.0
Zn189 Zn 0.36176 0.86579 0.66373 0.0
Zn190 Zn 0.28527 0.77046 0.70464 0.0
Zn191 Zn 0.32701 0.8112 0.68334 0.0
C192 C 0.33948 0.72531 0.6932 0.0
C193 C 0.29504 0.81765 0.76144 0.0
O194 O 0.2918 0.84852 0.64538 0.0
O195 O 0.33037 0.89354 0.62771 0.0
C196 C 0.39571 0.79791 0.63692 0.0
O197 O 0.34552 0.75295 0.67054 0.0
O198 O 0.31792 0.72979 0.72027 0.0
O199 O 0.26684 0.80205 0.74555 0.0
O200 O 0.32593 0.8202 0.7441 0.0
O201 O 0.39994 0.83311 0.64076 0.0
O202 O 0.36738 0.78143 0.65109 0.0
O203 O 0.3615 0.83821 0.73175 0.0
O204 O 0.37839 0.89329 0.70906 0.0
C205 C 0.3796 0.86974 0.73567 0.0
O206 O 0.26891 0.81943 0.65816 0.0
O207 O 0.25135 0.76006 0.6604 0.0
C208 C 0.29844 0.87836 0.62596 0.0
C209 C 0.24515 0.79308 0.64888 0.0
Zn210 Zn 0.03114 0.45013 0.52425 0.0
Zn211 Zn 0.15473 0.35694 0.65151 0.0
Zn212 Zn 0.07457 0.42172 0.56858 0.0
C213 C 0.07548 0.34624 0.60467 0.0
C214 C 0.1073 0.43212 0.64486 0.0
O215 O 0.10747 0.42751 0.51624 0.0
O216 O 0.06111 0.4481 0.47879 0.0
C217 C 0.99109 0.38858 0.54641 0.0
O218 O 0.05217 0.36594 0.58462 0.0
O219 O 0.10519 0.36337 0.61647 0.0
O220 O 0.11681 0.40027 0.63145 0.0
O221 O 0.08826 0.45354 0.6222 0.0
O222 O 0.98679 0.41671 0.52497 0.0
O223 O 0.02229 0.38446 0.56564 0.0
O224 O 0.06528 0.4794 0.59542 0.0
O225 O 0.02874 0.50043 0.54847 0.0
C226 C 0.04605 0.50647 0.57973 0.0
O227 O 0.12813 0.40222 0.54259 0.0
O228 O 0.1403 0.38672 0.60091 0.0
C229 C 0.09494 0.43857 0.48344 0.0
C230 C 0.15047 0.38601 0.56671 0.0
Zn231 Zn 0.97235 0.03683 0.54039 0.0
Zn232 Zn 0.88234 0.11859 0.57959 0.0
Zn233 Zn 0.93169 0.07675 0.5684 0.0
C234 C 0.94142 0.15857 0.60393 0.0
C235 C 0.87676 0.06404 0.63516 0.0
O236 O 0.91483 0.0663 0.50836 0.0
O237 O 0.93897 0.01009 0.50189 0.0
C238 C 0.00951 0.10485 0.54623 0.0
O239 O 0.95609 0.12575 0.59978 0.0
O240 O 0.91076 0.16562 0.58678 0.0
O241 O 0.86635 0.09705 0.62738 0.0
O242 O 0.90022 0.04733 0.61382 0.0
O243 O 0.0049 0.07855 0.52238 0.0
O244 O 0.98705 0.10691 0.57397 0.0
O245 O 0.9313 0.0197 0.59958 0.0
O246 O 0.98949 0.00756 0.58556 0.0
C247 C 0.96118 -0.00068 0.60438 0.0
O248 O 0.89783 0.10069 0.51623 0.0
O249 O 0.8451 0.12278 0.53777 0.0
C250 C 0.91697 0.03531 0.48962 0.0
C251 C 0.86565 0.11698 0.51018 0.0
Zn252 Zn 0.73303 0.70844 0.69798 0.0
Zn253 Zn 0.64057 0.65701 0.62943 0.0
Zn254 Zn 0.69223 0.67823 0.65859 0.0
C255 C 0.61679 0.65232 0.69436 0.0
C256 C 0.65502 0.71363 0.58484 0.0
O257 O 0.74799 0.66143 0.64019 0.0
O258 O 0.76897 0.71747 0.65743 0.0
C259 C 0.71369 0.65326 0.74143 0.0
O260 O 0.65287 0.65085 0.69656 0.0
O261 O 0.60084 0.66766 0.66585 0.0
O262 O 0.64179 0.68103 0.57987 0.0
O263 O 0.66962 0.72261 0.61767 0.0
O264 O 0.74528 0.6675 0.735 0.0
O265 O 0.68614 0.6592 0.71769 0.0
O266 O 0.6765 0.7377 0.65319 0.0
O267 O 0.69551 0.74742 0.71229 0.0
C268 C 0.67593 0.75767 0.6837 0.0
O269 O 0.71512 0.63295 0.62487 0.0
O270 O 0.66024 0.60541 0.63021 0.0
C271 C 0.7738 0.68686 0.64005 0.0
C272 C 0.69427 0.60324 0.622 0.0
Zn273 Zn 0.72157 0.27918 0.78886 0.0
Zn274 Zn 0.64861 0.34945 0.85333 0.0
Zn275 Zn 0.68517 0.31301 0.8211 0.0
C276 C 0.65079 0.28807 0.89577 0.0
C277 C 0.71253 0.38969 0.84847 0.0
O278 O 0.67638 0.3318 0.76165 0.0
O279 O 0.73622 0.32082 0.75541 0.0
C280 C 0.67084 0.22966 0.80204 0.0
O281 O 0.65534 0.27618 0.86173 0.0
O282 O 0.65536 0.32274 0.9026 0.0
O283 O 0.67793 0.39623 0.84389 0.0
O284 O 0.72365 0.35521 0.84805 0.0
O285 O 0.68457 0.24124 0.77169 0.0
O286 O 0.67132 0.2522 0.83076 0.0
O287 O 0.74587 0.32338 0.83905 0.0
O288 O 0.75866 0.26412 0.8282 0.0
C289 C 0.76873 0.29536 0.84228 0.0
O290 O 0.643 0.33828 0.7794 0.0
O291 O 0.60104 0.34059 0.82321 0.0
C292 C 0.70675 0.337 0.74358 0.0
C293 C 0.60847 0.34174 0.78856 0.0
Zn294 Zn 0.62178 0.11856 0.41815 0.0
Zn295 Zn 0.53802 0.02619 0.46039 0.0
Zn296 Zn 0.57613 0.07267 0.43085 0.0
C297 C 0.48994 0.08579 0.45113 0.0
C298 C 0.59176 0.03161 0.51152 0.0
O299 O 0.6089 0.05027 0.38124 0.0
O300 O 0.62994 0.10616 0.36484 0.0
C301 C 0.5587 0.15822 0.41144 0.0
O302 O 0.51679 0.0966 0.42979 0.0
O303 O 0.49437 0.05708 0.47179 0.0
O304 O 0.56936 0.00525 0.50278 0.0
O305 O 0.59421 0.06053 0.4898 0.0
O306 O 0.59129 0.16421 0.42517 0.0
O307 O 0.54623 0.12394 0.41013 0.0
O308 O 0.61566 0.09134 0.48022 0.0
O309 O 0.66601 0.11404 0.45392 0.0
C310 C 0.64944 0.10477 0.48344 0.0
O311 O 0.57947 0.01882 0.39516 0.0
O312 O 0.52936 0.99188 0.41864 0.0
C313 C 0.62655 0.07151 0.35782 0.0
C314 C 0.55492 0.9917 0.39504 0.0
Zn315 Zn 0.37214 0.18533 0.86024 0.0
Zn316 Zn 0.28645 0.22423 0.75882 0.0
Zn317 Zn 0.32355 0.18486 0.80274 0.0
C318 C 0.2445 0.22346 0.82102 0.0
C319 C 0.35611 0.25675 0.76125 0.0
O320 O 0.38414 0.19207 0.78834 0.0
O321 O 0.41934 0.17595 0.83858 0.0
C322 C 0.32759 0.11415 0.83767 0.0
O323 O 0.27317 0.20407 0.83175 0.0
O324 O 0.24262 0.23756 0.78827 0.0
O325 O 0.32334 0.26341 0.74856 0.0
O326 O 0.36279 0.22656 0.78022 0.0
O327 O 0.34203 0.13538 0.86341 0.0
O328 O 0.32177 0.12623 0.80384 0.0
O329 O 0.30634 0.20233 0.86062 0.0
O330 O 0.35311 0.2392 0.85306 0.0
C331 C 0.32694 0.2295 0.87358 0.0
O332 O 0.30593 0.13991 0.76388 0.0
O333 O 0.28176 0.1816 0.72355 0.0
C334 C 0.41591 0.18121 0.80335 0.0
C335 C 0.29074 0.14806 0.73142 0.0
C336 C 0.96864 0.27413 -0.0001 0.0
C337 C 0.08249 0.2855 0.96802 0.0
C338 C 0.02016 0.35144 0.83948 0.0
Mg339 Mg 0.01994 0.22891 0.94862 0.0
O340 O 0.99873 0.2625 0.9138 0.0
Mg341 Mg 0.0023 0.31809 0.92371 0.0
Mg342 Mg 0.01067 0.26083 0.8599 0.0
O343 O 0.02146 0.26 0.8058 0.0
Mg344 Mg 0.99307 0.29349 0.77557 0.0
Mg345 Mg 0.01674 0.20478 0.79555 0.0
C346 C 0.00372 0.17039 0.8817 0.0
C347 C 0.09132 0.22223 0.84862 0.0
O348 O 0.97421 0.30338 0.97938 0.0
O349 O 0.98324 0.24198 0.99351 0.0
O350 O 0.06055 0.31202 0.95651 0.0
O351 O 0.07432 0.25085 0.96249 0.0
O352 O 0.01248 0.17684 0.91669 0.0
O353 O 0.99833 0.19717 0.85763 0.0
C354 C 0.92961 0.30152 0.86804 0.0
O355 O 0.94864 0.27675 0.85065 0.0
O356 O 0.94416 0.32171 0.89474 0.0
O357 O 0.03491 0.22117 0.73283 0.0
O358 O 0.02453 0.28388 0.72793 0.0
O359 O 0.95507 0.21147 0.77797 0.0
C360 C 0.03585 0.25268 0.71449 0.0
O361 O 0.94157 0.26702 0.75426 0.0
O362 O 0.00569 0.34614 0.80599 0.0
C363 C 0.94186 0.23117 0.75062 0.0
O364 O 0.02562 0.32394 0.86279 0.0
O365 O 0.07192 0.24454 0.86864 0.0
O366 O 0.07719 0.20414 0.81987 0.0
C367 C 0.47329 0.75731 0.50596 0.0
C368 C 0.57821 0.76052 0.45777 0.0
C369 C 0.51174 0.84412 0.34265 0.0
Mg370 Mg 0.50775 0.7124 0.44176 0.0
O371 O 0.48587 0.75149 0.41328 0.0
Mg372 Mg 0.4986 0.80493 0.42733 0.0
Mg373 Mg 0.49517 0.7532 0.35858 0.0
O374 O 0.50363 0.75416 0.30397 0.0
Mg375 Mg 0.47793 0.79107 0.27541 0.0
Mg376 Mg 0.49362 0.69996 0.29066 0.0
C377 C 0.47832 0.66155 0.37304 0.0
C378 C 0.57065 0.70619 0.34193 0.0
O379 O 0.47826 0.78778 0.4869 0.0
O380 O 0.48105 0.72449 0.49355 0.0
O381 O 0.5582 0.78984 0.45142 0.0
O382 O 0.56576 0.72734 0.45073 0.0
O383 O 0.49024 0.66345 0.40772 0.0
O384 O 0.47562 0.69104 0.35205 0.0
C385 C 0.42172 0.80379 0.37478 0.0
O386 O 0.43657 0.77934 0.3531 0.0
O387 O 0.43898 0.81698 0.4044 0.0
O388 O 0.5118 0.71776 0.22939 0.0
O389 O 0.51127 0.78156 0.22912 0.0
O390 O 0.43319 0.71433 0.27503 0.0
C391 C 0.51699 0.74981 0.21322 0.0
O392 O 0.42751 0.76791 0.24542 0.0
O393 O 0.49513 0.84105 0.30966 0.0
C394 C 0.42337 0.73208 0.24516 0.0
O395 O 0.51685 0.81501 0.36436 0.0
O396 O 0.55377 0.72893 0.36371 0.0
O397 O 0.55423 0.6913 0.31254 0.0
C398 C 0.97141 0.76155 0.4799 0.0
C399 C 0.0804 0.74944 0.52453 0.0
C400 C 0.01553 0.65945 0.63574 0.0
Mg401 Mg 0.01433 0.79839 0.547 0.0
O402 O 0.99204 0.75843 0.57262 0.0
Mg403 Mg 1.00058 0.70601 0.55354 0.0
Mg404 Mg 0.00725 0.7517 0.62653 0.0
O405 O 0.02232 0.74524 0.68081 0.0
Mg406 Mg 0.9923 0.71081 0.70807 0.0
Mg407 Mg 0.02386 0.79901 0.6987 0.0
C408 C 0.99371 0.84582 0.61981 0.0
C409 C 0.08887 0.79374 0.63803 0.0
O410 O 0.97593 0.72919 0.49592 0.0
O411 O 0.98234 0.79254 0.49526 0.0
O412 O 0.05963 0.72027 0.52929 0.0
O413 O 0.07023 0.78222 0.5348 0.0
O414 O 0.00174 0.84483 0.58469 0.0
O415 O 0.99296 0.81542 0.64014 0.0
C416 C 0.92832 0.70671 0.60791 0.0
O417 O 0.94652 0.72809 0.63191 0.0
O418 O 0.94254 0.69563 0.57697 0.0
O419 O 0.05135 0.77374 0.75567 0.0
O420 O 0.02848 0.714 0.75665 0.0
O421 O 0.97126 0.79096 0.7264 0.0
C422 C 0.04806 0.74096 0.77127 0.0
O423 O 0.94134 0.73698 0.73236 0.0
O424 O 0.00207 0.6624 0.66919 0.0
C425 C 0.94362 0.77252 0.73814 0.0
O426 O 0.02247 0.68907 0.6154 0.0
O427 O 0.0677 0.77225 0.61738 0.0
O428 O 0.07851 0.80614 0.66989 0.0
C429 C 0.0158 0.03798 0.2489 0.0
C430 C 0.97619 0.92476 0.23704 0.0
C431 C 0.85902 0.99303 0.15062 0.0
Mg432 Mg 0.95586 0.99131 0.28695 0.0
O433 O 0.92668 0.01264 0.24802 0.0
Mg434 Mg 0.94233 0.00509 0.19481 0.0
Mg435 Mg 0.87222 0.00313 0.24357 0.0
O436 O 0.81757 0.99481 0.23913 0.0
Mg437 Mg 0.79132 0.0241 0.20233 0.0
Mg438 Mg 0.80293 0.00079 0.29323 0.0
C439 C 0.88607 0.01206 0.33608 0.0
C440 C 0.85351 0.92589 0.28814 0.0
O441 O 0.999 0.03127 0.2167 0.0
O442 O 0.00358 0.02657 0.28048 0.0
O443 O 0.96867 0.94534 0.20789 0.0
O444 O 0.96905 0.9356 0.27041 0.0
O445 O 0.91999 0.00095 0.33354 0.0
O446 O 0.86495 0.01984 0.30676 0.0
C447 C 0.8906 0.07978 0.19771 0.0
O448 O 0.86865 0.06321 0.22049 0.0
O449 O 0.91937 0.06381 0.18454 0.0
O450 O 0.74302 0.9795 0.26931 0.0
O451 O 0.74531 0.98843 0.20581 0.0
O452 O 0.78572 0.06079 0.28205 0.0
C453 C 0.72871 0.97699 0.23523 0.0
O454 O 0.75533 0.06758 0.22796 0.0
O455 O 0.82687 0.00962 0.15304 0.0
C456 C 0.75527 0.06863 0.2642 0.0
O457 O 0.87945 0.98506 0.18067 0.0
O458 O 0.87566 0.94285 0.26586 0.0
O459 O 0.82442 0.94176 0.30099 0.0
C460 C 0.28166 0.99004 0.92755 0.0
C461 C 0.22505 0.98659 0.03404 0.0
C462 C 0.15901 0.8543 0.95773 0.0
Mg463 Mg 0.29372 0.94617 0.00192 0.0
O464 O 0.25817 0.91341 0.98149 0.0
Mg465 Mg 0.21225 0.93184 0.95501 0.0
Mg466 Mg 0.24247 0.86351 -0.00064 0.0
O467 O 0.22777 0.81236 0.01583 0.0
Mg468 Mg 0.20661 0.77936 0.98035 0.0
Mg469 Mg 0.27364 0.79599 0.04579 0.0
C470 C 0.33074 0.87068 0.03399 0.0
C471 C 0.2311 0.86333 0.09002 0.0
O472 O 0.24709 0.97976 0.92767 0.0
O473 O 0.30587 0.97809 0.95225 0.0
O474 O 0.20302 0.9718 0.0081 0.0
O475 O 0.26002 0.97934 0.03651 0.0
O476 O 0.33263 0.90623 0.02769 0.0
O477 O 0.30197 0.85075 0.02357 0.0
C478 C 0.24847 0.86371 0.90799 0.0
O479 O 0.25712 0.84596 0.93876 0.0
O480 O 0.22947 0.89417 0.90799 0.0
O481 O 0.23885 0.74269 0.06378 0.0
O482 O 0.18916 0.74111 0.02245 0.0
O483 O 0.29565 0.75936 -0.00192 0.0
C484 C 0.20712 0.72874 0.05195 0.0
O485 O 0.25119 0.74801 0.95328 0.0
O486 O 0.16474 0.81852 0.95518 0.0
C487 C 0.28435 0.74297 0.96747 0.0
O488 O 0.18228 0.87623 0.97649 0.0
O489 O 0.22616 0.88205 0.05926 0.0
O490 O 0.24846 0.83189 0.0913 0.0
C491 C 0.99618 0.54598 0.26815 0.0
C492 C 0.02675 0.43241 0.26612 0.0
C493 C 0.15782 0.48356 0.34288 0.0
Mg494 Mg 0.04853 0.50097 0.21744 0.0
O495 O 0.08406 0.5153 0.25449 0.0
Mg496 Mg 0.07361 0.50657 0.309 0.0
Mg497 Mg 0.13792 0.50087 0.25334 0.0
O498 O 0.19158 0.48789 0.25296 0.0
Mg499 Mg 0.22523 0.50922 0.28906 0.0
Mg500 Mg 0.20232 0.49579 0.19859 0.0
C501 C 0.11718 0.52024 0.1642 0.0
C502 C 0.14742 0.4236 0.20531 0.0
O503 O 0.01681 0.53608 0.29701 0.0
O504 O 0.00413 0.53752 0.23409 0.0
O505 O 0.04026 0.44983 0.29557 0.0
O506 O 0.0309 0.44503 0.2326 0.0
O507 O 0.08196 0.5142 0.16831 0.0
O508 O 0.14131 0.51909 0.19198 0.0
C509 C 0.13157 0.57794 0.30299 0.0
O510 O 0.14924 0.55994 0.27769 0.0
O511 O 0.10294 0.5638 0.31879 0.0
O512 O 0.26334 0.47094 0.21593 0.0
O513 O 0.26502 0.46744 0.27992 0.0
O514 O 0.22386 0.55474 0.20995 0.0
C515 C 0.27928 0.46104 0.24786 0.0
O516 O 0.26076 0.55237 0.26088 0.0
O517 O 0.19169 0.49635 0.34013 0.0
C518 C 0.25569 0.56107 0.22583 0.0
O519 O 0.13476 0.48114 0.31405 0.0
O520 O 0.12771 0.44133 0.22927 0.0
O521 O 0.17648 0.43827 0.1908 0.0
C522 C 0.74683 0.49665 0.04342 0.0
C523 C 0.75831 0.51936 0.92522 0.0
C524 C 0.84434 0.64216 0.97756 0.0
Mg525 Mg 0.70737 0.55029 0.98648 0.0
O526 O 0.74657 0.58186 0.00303 0.0
Mg527 Mg 0.79961 0.56375 0.00133 0.0
Mg528 Mg 0.7523 0.633 0.98196 0.0
O529 O 0.75869 0.68487 0.96247 0.0
Mg530 Mg 0.79252 0.7153 0.99173 0.0
Mg531 Mg 0.70563 0.70226 0.95709 0.0
C532 C 0.65891 0.62588 -0.00612 0.0
C533 C 0.7134 0.63442 0.89726 0.0
O534 O 0.77826 0.51244 0.03588 0.0
O535 O 0.71534 0.50705 0.02859 0.0
O536 O 0.78706 0.52887 0.94596 0.0
O537 O 0.72498 0.52845 0.93356 0.0
O538 O 0.661 0.58982 0.99152 0.0
O539 O 0.68857 0.64714 0.99215 0.0
C540 C 0.79409 0.6283 0.06542 0.0
O541 O 0.7723 0.64754 0.04302 0.0
O542 O 0.80814 0.59702 0.05525 0.0
O543 O 0.73349 0.75533 0.92534 0.0
O544 O 0.79234 0.75885 0.9515 0.0
O545 O 0.70995 0.73726 0.00794 0.0
C546 C 0.76642 0.77101 0.92891 0.0
O547 O 0.76499 0.74618 0.03766 0.0
O548 O 0.84108 0.67671 0.98857 0.0
C549 C 0.72967 0.75225 0.03436 0.0
O550 O 0.81508 0.62091 0.9709 0.0
O551 O 0.73401 0.61559 0.92076 0.0
O552 O 0.70117 0.66701 0.90525 0.0
C553 C 0.2406 0.98651 0.52846 0.0
C554 C 0.24936 0.03115 0.41854 0.0
C555 C 0.3419 0.14066 0.48995 0.0
Mg556 Mg 0.20055 0.05128 0.48642 0.0
O557 O 0.24142 0.0791 0.5049 0.0
Mg558 Mg 0.29381 0.06028 0.5003 0.0
Mg559 Mg 0.2485 0.13357 0.49597 0.0
O560 O 0.25641 0.18807 0.48851 0.0
Mg561 Mg 0.29454 0.21202 0.51823 0.0
Mg562 Mg 0.20429 0.20751 0.4923 0.0
C563 C 0.15607 0.1257 0.50906 0.0
C564 C 0.20814 0.15771 0.41484 0.0
O565 O 0.27194 0.00293 0.52211 0.0
O566 O 0.20873 0.00105 0.5198 0.0
O567 O 0.27922 0.03754 0.43905 0.0
O568 O 0.21657 0.03849 0.43007 0.0
O569 O 0.15608 0.09043 0.50076 0.0
O570 O 0.18637 0.14577 0.50909 0.0
C571 C 0.28641 0.10873 0.57776 0.0
O572 O 0.26655 0.13286 0.55896 0.0
O573 O 0.3019 0.08074 0.56173 0.0
O574 O 0.23248 0.2678 0.47626 0.0
O575 O 0.29517 0.2594 0.48348 0.0
O576 O 0.21635 0.21972 0.55422 0.0
C577 C 0.26682 0.27979 0.47453 0.0
O578 O 0.27118 0.24587 0.56445 0.0
O579 O 0.34119 0.17328 0.5062 0.0
C580 C 0.23545 0.24815 0.56525 0.0
O581 O 0.31112 0.1221 0.48198 0.0
O582 O 0.22831 0.13347 0.43325 0.0
O583 O 0.19646 0.18799 0.43049 0.0
C584 C 0.51602 0.5438 0.74714 0.0
C585 C 0.48727 0.4265 0.73704 0.0
C586 C 0.36361 0.4842 0.65143 0.0
Mg587 Mg 0.46248 0.49166 0.78821 0.0
O588 O 0.43038 0.50846 0.74888 0.0
Mg589 Mg 0.44552 0.5034 0.69525 0.0
Mg590 Mg 0.3778 0.49149 0.74353 0.0
O591 O 0.32467 0.47579 0.73889 0.0
Mg592 Mg 0.29163 0.49764 0.70391 0.0
Mg593 Mg 0.30989 0.4719 0.79261 0.0
C594 C 0.39024 0.50232 0.83748 0.0
C595 C 0.37212 0.4073 0.77542 0.0
O596 O 0.49888 0.53483 0.71581 0.0
O597 O 0.50653 0.53159 0.7795 0.0
O598 O 0.47732 0.44588 0.70764 0.0
O599 O 0.48091 0.43749 0.77064 0.0
O600 O 0.42597 0.49925 0.8358 0.0
O601 O 0.36855 0.50083 0.80755 0.0
C602 C 0.38634 0.57182 0.70179 0.0
O603 O 0.36682 0.55215 0.72463 0.0
O604 O 0.41596 0.5591 0.68704 0.0
O605 O 0.24941 0.45028 0.76766 0.0
O606 O 0.25464 0.45172 0.7045 0.0
O607 O 0.28139 0.52794 0.79394 0.0
C608 C 0.23539 0.44572 0.73362 0.0
O609 O 0.25745 0.5391 0.73569 0.0
O610 O 0.32911 0.49438 0.65473 0.0
C611 C 0.25839 0.54507 0.77168 0.0
O612 O 0.38555 0.47822 0.68076 0.0
O613 O 0.39127 0.43185 0.75825 0.0
O614 O 0.34045 0.41487 0.78977 0.0
C615 C 0.76359 0.48187 0.43186 0.0
C616 C 0.73563 0.46702 0.54384 0.0
C617 C 0.66568 0.3358 0.4696 0.0
Mg618 Mg 0.79877 0.43368 0.4954 0.0
O619 O 0.76132 0.39918 0.48538 0.0
Mg620 Mg 0.71061 0.41378 0.46737 0.0
Mg621 Mg 0.75131 0.34799 0.5039 0.0
O622 O 0.73987 0.29599 0.51891 0.0
Mg623 Mg 0.72031 0.26598 0.47896 0.0
Mg624 Mg 0.78766 0.28087 0.54506 0.0
C625 C 0.8435 0.3595 0.52371 0.0
C626 C 0.74688 0.3458 0.59463 0.0
O627 O 0.73261 0.46641 0.44 0.0
O628 O 0.79525 0.47048 0.4458 0.0
O629 O 0.70928 0.45024 0.52377 0.0
O630 O 0.77038 0.46273 0.53764 0.0
O631 O 0.84291 0.39431 0.5135 0.0
O632 O 0.81366 0.33858 0.52267 0.0
C633 C 0.74849 0.3522 0.4131 0.0
O634 O 0.76111 0.33418 0.44232 0.0
O635 O 0.72598 0.38013 0.41569 0.0
O636 O 0.75341 0.22485 0.56159 0.0
O637 O 0.70731 0.22176 0.516 0.0
O638 O 0.80775 0.2483 0.494 0.0
C639 C 0.72347 0.20945 0.54642 0.0
O640 O 0.76553 0.2427 0.44623 0.0
O641 O 0.67264 0.30159 0.46011 0.0
C642 C 0.7982 0.23631 0.46092 0.0
O643 O 0.68971 0.35615 0.48872 0.0
O644 O 0.73967 0.36465 0.56452 0.0
O645 O 0.76451 0.31445 0.59436 0.0
C646 C 0.5058 0.06055 0.76291 0.0
C647 C 0.514 0.93678 0.76931 0.0
C648 C 0.64886 0.97025 0.84466 0.0
Mg649 Mg 0.54414 -0.001 0.71644 0.0
O650 O 0.58115 0.00732 0.75363 0.0
Mg651 Mg 0.56986 0.00581 0.80877 0.0
Mg652 Mg 0.63338 0.98956 0.75341 0.0
O653 O 0.68495 0.97476 0.75476 0.0
Mg654 Mg 0.72036 0.982 0.79358 0.0
Mg655 Mg 0.69981 0.98051 0.70161 0.0
C656 C 0.61595 0.00868 0.66413 0.0
C657 C 0.64163 0.91059 0.70554 0.0
O658 O 0.52125 0.04675 0.79328 0.0
O659 O 0.51058 0.04686 0.72993 0.0
O660 O 0.52984 0.9539 0.79769 0.0
O661 O 0.51783 0.94774 0.73513 0.0
O662 O 0.58038 0.00539 0.66828 0.0
O663 O 0.63986 0.00675 0.69205 0.0
C664 C 0.63347 0.06985 0.79947 0.0
O665 O 0.64793 0.04937 0.77403 0.0
O666 O 0.60567 0.05833 0.81799 0.0
O667 O 0.75907 0.9536 0.72172 0.0
O668 O 0.73933 0.92933 0.77422 0.0
O669 O 0.72536 0.03675 0.71801 0.0
C670 C 0.76655 0.93865 0.75436 0.0
O671 O 0.76051 0.0238 0.76917 0.0
O672 O 0.68443 0.97589 0.84269 0.0
C673 C 0.75713 0.03778 0.73563 0.0
O674 O 0.62661 0.97174 0.81517 0.0
O675 O 0.62185 0.92831 0.72975 0.0
O676 O 0.6713 0.9249 0.69191 0.0
C677 C 0.42818 0.24566 -0.00396 0.0
C678 C 0.55255 0.24616 0.01036 0.0
C679 C 0.51195 0.15724 0.13859 0.0
Mg680 Mg 0.48664 0.29249 0.04273 0.0
O681 O 0.48335 0.25272 0.0763 0.0
Mg682 Mg 0.48554 0.19915 0.05824 0.0
Mg683 Mg 0.49962 0.24993 0.13011 0.0
O684 O 0.51381 0.24538 0.18397 0.0
Mg685 Mg 0.4885 0.20734 0.20983 0.0
Mg686 Mg 0.50592 0.29795 0.20195 0.0
C687 C 0.47848 0.34251 0.11791 0.0
C688 C 0.5795 0.29424 0.14942 0.0
O689 O 0.44502 0.21545 0.00719 0.0
O690 O 0.43901 0.27829 0.00726 0.0
O691 O 0.53858 0.21551 0.02348 0.0
O692 O 0.53783 0.27852 0.01549 0.0
O693 O 0.47924 0.33945 0.0817 0.0
O694 O 0.48451 0.31373 0.13994 0.0
C695 C 0.4203 0.20197 0.11869 0.0
O696 O 0.43888 0.22666 0.13847 0.0
O697 O 0.43332 0.1872 0.08912 0.0
O698 O 0.52424 0.27171 0.2638 0.0
O699 O 0.5271 0.20882 0.25529 0.0
O700 O 0.44591 0.28523 0.21554 0.0
C701 C 0.53004 0.23786 0.27652 0.0
O702 O 0.44255 0.23037 0.24309 0.0
O703 O 0.49856 0.15959 0.17194 0.0
C704 C 0.43741 0.26594 0.24422 0.0
O705 O 0.51694 0.18698 0.11791 0.0
O706 O 0.56053 0.27346 0.12542 0.0
O707 O 0.56549 0.30593 0.18043 0.0
C708 C 0.02883 0.29811 0.62304 0.0
C709 C 0.06643 0.3085 0.61954 0.0
C710 C 0.01894 0.27148 0.65007 0.0
C711 C 0.04615 0.25502 0.67471 0.0
H712 H 0.00668 0.31392 0.60866 0.0
H713 H 0.98968 0.26934 0.65624 0.0
S714 S 0.1488 0.26114 0.66514 0.0
N715 N 0.13144 0.29067 0.63298 0.0
N716 N 0.1123 0.2426 0.68605 0.0
C717 C 0.08385 0.25971 0.66625 0.0
C718 C 0.09413 0.28626 0.63807 0.0
C719 C 0.6214 0.76713 0.55453 0.0
C720 C 0.64978 0.74001 0.55297 0.0
C721 C 0.60232 0.77932 0.52134 0.0
C722 C 0.60974 0.7632 0.48587 0.0
H723 H 0.61051 0.77526 0.58158 0.0
H724 H 0.57802 0.79714 0.52434 0.0
S725 S 0.68561 0.69598 0.46626 0.0
N726 N 0.68882 0.70256 0.51261 0.0
N727 N 0.65078 0.72294 0.45071 0.0
C728 C 0.64072 0.73932 0.48358 0.0
C729 C 0.66121 0.72826 0.51712 0.0
C730 C 0.96623 0.16444 0.67051 0.0
C731 C 0.95029 0.18182 0.6381 0.0
C732 C 0.96292 0.18041 0.70656 0.0
C733 C 0.94419 0.21491 0.71183 0.0
H734 H 0.97908 0.13696 0.66851 0.0
H735 H 0.97492 0.16514 0.73057 0.0
S736 S 0.90102 0.27391 0.63559 0.0
N737 N 0.9177 0.23712 0.61317 0.0
N738 N 0.91145 0.26696 0.68097 0.0
C739 C 0.92958 0.23344 0.67948 0.0
C740 C 0.933 0.21719 0.64268 0.0
C741 C 0.45418 0.79706 0.60161 0.0
C742 C 0.42059 0.77869 0.61076 0.0
C743 C 0.47221 0.78856 0.56832 0.0
C744 C 0.45797 0.76059 0.54373 0.0
H745 H 0.46502 0.82035 0.61869 0.0
H746 H 0.4965 0.80514 0.56092 0.0
S747 S 0.37584 0.69865 0.55846 0.0
N748 N 0.37689 0.72757 0.59517 0.0
N749 N 0.41218 0.71037 0.53313 0.0
C750 C 0.42719 0.73882 0.55464 0.0
C751 C 0.4082 0.74805 0.58826 0.0
C752 C 0.09965 0.67961 0.83788 0.0
C753 C 0.07547 0.67927 0.86859 0.0
C754 C 0.09473 0.70528 0.80811 0.0
C755 C 0.06582 0.73187 0.80821 0.0
H756 H 0.12084 0.65809 0.83534 0.0
H757 H 0.11108 0.70164 0.78307 0.0
S758 S 0.00278 0.74978 0.88734 0.0
N759 N 0.02697 0.71241 0.90118 0.0
N760 N 0.01766 0.76125 0.84502 0.0
C761 C 0.04453 0.73477 0.8409 0.0
C762 C 0.0492 0.70816 0.87109 0.0
C763 C 0.88687 0.77941 0.41731 0.0
C764 C 0.89072 0.75199 0.38908 0.0
C765 C 0.91556 0.78556 0.44466 0.0
C766 C 0.94815 0.7635 0.44501 0.0
H767 H 0.86006 0.79286 0.42096 0.0
H768 H 0.91039 0.80454 0.46796 0.0
S769 S 0.97436 0.69365 0.37289 0.0
N770 N 0.932 0.70773 0.35899 0.0
N771 N 0.98532 0.71787 0.41177 0.0
C772 C 0.95404 0.73923 0.41455 0.0
C773 C 0.92541 0.73403 0.38595 0.0
C774 C 0.93139 0.86054 0.77951 0.0
C775 C 0.93328 0.85357 0.81887 0.0
C776 C 0.91943 0.8333 0.75335 0.0
C777 C 0.91993 0.79503 0.76342 0.0
H778 H 0.93955 0.88757 0.76812 0.0
H779 H 0.91933 0.84117 0.72364 0.0
S780 S 0.91111 0.76105 0.86194 0.0
N781 N 0.92066 0.80651 0.86711 0.0
N782 N 0.91171 0.75203 0.81597 0.0
C783 C 0.91872 0.78704 0.8025 0.0
C784 C 0.92412 0.81663 0.83036 0.0
C785 C 0.15759 0.78815 0.46725 0.0
C786 C 0.14805 0.77363 0.43096 0.0
C787 C 0.13927 0.77584 0.4995 0.0
C788 C 0.11078 0.74834 0.49681 0.0
H789 H 0.1768 0.81182 0.47027 0.0
H790 H 0.14463 0.79081 0.52593 0.0
S791 S 0.08167 0.69513 0.40995 0.0
N792 N 0.11314 0.72569 0.39543 0.0
N793 N 0.07898 0.70195 0.45606 0.0
C794 C 0.10492 0.72977 0.4617 0.0
C795 C 0.12347 0.74262 0.42869 0.0
C796 C 0.68716 0.04299 0.34216 0.0
C797 C 0.65255 0.05754 0.32894 0.0
C798 C 0.71965 0.04625 0.3208 0.0
C799 C 0.71913 0.06358 0.28467 0.0
H800 H 0.69005 0.03228 0.37085 0.0
H801 H 0.74574 0.03603 0.33347 0.0
S802 S 0.63435 0.10221 0.23508 0.0
N803 N 0.61908 0.08762 0.27625 0.0
N804 N 0.67951 0.09203 0.2353 0.0
C805 C 0.68403 0.07559 0.26986 0.0
C806 C 0.65103 0.07292 0.29207 0.0
C807 C 0.2781 0.06845 0.85416 0.0
C808 C 0.31623 0.07633 0.84944 0.0
C809 C 0.26701 0.03916 0.87809 0.0
C810 C 0.29377 0.01712 0.89828 0.0
H811 H 0.25687 0.08688 0.8418 0.0
H812 H 0.23734 0.03532 0.8825 0.0
S813 S 0.39719 0.02335 0.89 0.0
N814 N 0.38056 0.05768 0.86285 0.0
N815 N 0.36015 0.00229 0.90734 0.0
C816 C 0.33196 0.02299 0.89109 0.0
C817 C 0.34307 0.05272 0.86677 0.0
C818 C 0.35343 0.40355 0.28953 0.0
C819 C 0.3755 0.43249 0.30664 0.0
C820 C 0.32505 0.41173 0.26237 0.0
C821 C 0.31854 0.44892 0.2508 0.0
H822 H 0.35551 0.3749 0.29959 0.0
H823 H 0.3051 0.38973 0.25439 0.0
S824 S 0.37732 0.53219 0.27647 0.0
N825 N 0.39541 0.49779 0.30253 0.0
N826 N 0.34271 0.51287 0.25077 0.0
C827 C 0.34518 0.47648 0.2621 0.0
C828 C 0.37354 0.46841 0.29042 0.0
C829 C 0.72701 0.45787 0.84476 0.0
C830 C 0.73723 0.42203 0.85873 0.0
C831 C 0.73866 0.49084 0.86364 0.0
C832 C 0.76146 0.48913 0.89678 0.0
H833 H 0.70672 0.46036 0.82132 0.0
H834 H 0.72663 0.51745 0.85452 0.0
S835 S 0.80227 0.40288 0.94042 0.0
N836 N 0.77597 0.38715 0.90426 0.0
N837 N 0.79898 0.44928 0.93919 0.0
C838 C 0.7762 0.4539 0.90788 0.0
C839 C 0.76379 0.42017 0.88893 0.0
C840 C 0.6307 0.96728 0.19829 0.0
C841 C 0.63575 0.93842 0.17167 0.0
C842 C 0.65971 0.97684 0.22487 0.0
C843 C 0.69374 0.95673 0.22644 0.0
H844 H 0.60496 0.98328 0.19772 0.0
H845 H 0.65666 0.00175 0.24219 0.0
S846 S 0.72208 0.88062 0.16254 0.0
N847 N 0.67998 0.89314 0.14682 0.0
N848 N 0.73016 0.90619 0.20092 0.0
C849 C 0.6976 0.92599 0.20229 0.0
C850 C 0.66998 0.91847 0.17344 0.0
C851 C 0.16986 0.07088 0.0665 0.0
C852 C 0.19329 0.08649 0.09557 0.0
C853 C 0.17905 0.0373 0.0482 0.0
C854 C 0.21196 0.01772 0.05843 0.0
H855 H 0.14435 0.0851 0.05726 0.0
H856 H 0.16086 0.02743 0.02501 0.0
S857 S 0.28045 0.04438 0.1362 0.0
N858 N 0.24918 0.07849 0.13576 0.0
N859 N 0.26649 0.01494 0.10225 0.0
C860 C 0.23483 0.03223 0.08876 0.0
C861 C 0.22561 0.06676 0.10698 0.0
C862 C 0.35267 0.58376 0.18752 0.0
C863 C 0.35345 0.56193 0.1541 0.0
C864 C 0.32118 0.58362 0.21073 0.0
C865 C 0.28874 0.56259 0.2007 0.0
H866 H 0.37633 0.60178 0.19532 0.0
H867 H 0.32206 0.60038 0.23641 0.0
S868 S 0.27523 0.50449 0.11314 0.0
N869 N 0.31856 0.52069 0.11105 0.0
N870 N 0.25892 0.52157 0.15277 0.0
C871 C 0.28897 0.54169 0.16646 0.0
C872 C 0.32141 0.54098 0.14373 0.0
C873 C 0.75643 0.40372 0.09431 0.0
C874 C 0.76472 0.4157 0.13174 0.0
C875 C 0.74792 0.43 0.06559 0.0
C876 C 0.74697 0.46866 0.07388 0.0
H877 H 0.76038 0.37454 0.08639 0.0
H878 H 0.74475 0.42035 0.03652 0.0
S879 S 0.75825 0.51316 0.16846 0.0
N880 N 0.76548 0.46785 0.17635 0.0
N881 N 0.74901 0.5171 0.12245 0.0
C882 C 0.7511 0.48041 0.11169 0.0
C883 C 0.7599 0.45385 0.14074 0.0
C884 C 0.30551 0.6418 0.9743 0.0
C885 C 0.34352 0.64365 0.98641 0.0
C886 C 0.28692 0.67381 0.9597 0.0
C887 C 0.3057 0.70876 0.95757 0.0
H888 H 0.28876 0.61749 0.98162 0.0
H889 H 0.25663 0.67254 0.9562 0.0
S890 S 0.40764 0.72474 0.97426 0.0
N891 N 0.40117 0.68006 0.98549 0.0
N892 N 0.36611 0.74053 0.95971 0.0
C893 C 0.34496 0.70879 0.96276 0.0
C894 C 0.36397 0.67596 0.97667 0.0
C895 C 0.32646 0.36539 0.48414 0.0
C896 C 0.32709 0.37764 0.44646 0.0
C897 C 0.30124 0.33711 0.49469 0.0
C898 C 0.27643 0.3197 0.4678 0.0
H899 H 0.34813 0.37441 0.50449 0.0
H900 H 0.30443 0.32552 0.52301 0.0
S901 S 0.25974 0.34995 0.36855 0.0
N902 N 0.29428 0.37743 0.38475 0.0
N903 N 0.24877 0.32236 0.40424 0.0
C904 C 0.27314 0.33552 0.43164 0.0
C905 C 0.29817 0.36498 0.42105 0.0
C906 C 0.58249 0.38335 0.73673 0.0
C907 C 0.57769 0.35283 0.76152 0.0
C908 C 0.55135 0.4044 0.72322 0.0
C909 C 0.5147 0.39555 0.73426 0.0
H910 H 0.61043 0.39366 0.73131 0.0
H911 H 0.55653 0.43032 0.70803 0.0
S912 S 0.48691 0.31275 0.79063 0.0
N913 N 0.53311 0.31034 0.78997 0.0
N914 N 0.47514 0.35033 0.76544 0.0
C915 C 0.50942 0.36225 0.75473 0.0
C916 C 0.54084 0.34073 0.76811 0.0
C917 C 0.64681 0.1464 0.53933 0.0
C918 C 0.66549 0.11764 0.52037 0.0
C919 C 0.66731 0.17373 0.56027 0.0
C920 C 0.70692 0.17407 0.5605 0.0
H921 H 0.61718 0.15109 0.53346 0.0
H922 H 0.65254 0.19873 0.56897 0.0
S923 S 0.76494 0.0921 0.53625 0.0
N924 N 0.72277 0.0815 0.51842 0.0
N925 N 0.76154 0.134 0.5564 0.0
C926 C 0.72433 0.14032 0.55049 0.0
C927 C 0.70351 0.11211 0.52979 0.0
C928 C 0.9137 0.58533 0.31879 0.0
C929 C 0.89798 0.61112 0.29261 0.0
C930 C 0.94498 0.56401 0.31019 0.0
C931 C 0.96184 0.56754 0.27501 0.0
H932 H 0.90203 0.5818 0.34649 0.0
H933 H 0.95614 0.54474 0.33148 0.0
S934 S 0.93176 0.63137 0.19657 0.0
N935 N 0.90172 0.63939 0.23015 0.0
N936 N 0.96038 0.59852 0.21347 0.0
C937 C 0.94594 0.59255 0.24808 0.0
C938 C 0.91405 0.61457 0.25701 0.0
C939 C 0.16298 0.32356 0.5389 0.0
C940 C 0.17721 0.35612 0.55688 0.0
C941 C 0.18216 0.28918 0.54173 0.0
C942 C 0.21698 0.2859 0.56194 0.0
H943 H 0.13533 0.32385 0.52516 0.0
H944 H 0.16898 0.26473 0.52845 0.0
S945 S 0.26745 0.364 0.61197 0.0
N946 N 0.22857 0.38359 0.59466 0.0
N947 N 0.26573 0.31946 0.59825 0.0
C948 C 0.23252 0.3189 0.57821 0.0
C949 C 0.21242 0.35379 0.57609 0.0
C950 C 0.55613 0.63712 0.72268 0.0
C951 C 0.59418 0.62856 0.71888 0.0
C952 C 0.53123 0.61 0.73564 0.0
C953 C 0.54378 0.57379 0.74536 0.0
H954 H 0.54504 0.66392 0.71294 0.0
H955 H 0.50157 0.6165 0.73548 0.0
S956 S 0.64105 0.53867 0.74554 0.0
N957 N 0.64382 0.58231 0.72964 0.0
N958 N 0.59645 0.53161 0.7546 0.0
C959 C 0.58204 0.56584 0.74518 0.0
C960 C 0.60753 0.59333 0.7318 0.0
C961 C 0.41539 0.90613 0.78465 0.0
C962 C 0.41241 0.87362 0.76194 0.0
C963 C 0.45033 0.9237 0.79201 0.0
C964 C 0.48312 0.9099 0.77589 0.0
H965 H 0.39023 0.92059 0.79279 0.0
H966 H 0.45083 0.95079 0.80624 0.0
S967 S 0.49112 0.82219 0.7201 0.0
N968 N 0.44607 0.82487 0.72909 0.0
N969 N 0.51124 0.85917 0.74097 0.0
C970 C 0.48111 0.8752 0.75696 0.0
C971 C 0.44581 0.85657 0.75074 0.0
C972 C 0.50667 0.79993 0.12523 0.0
C973 C 0.54467 0.80626 0.11902 0.0
C974 C 0.49611 0.77315 0.15175 0.0
C975 C 0.52327 0.75245 0.17275 0.0
H976 H 0.48554 0.81906 0.11395 0.0
H977 H 0.46762 0.77425 0.16091 0.0
S978 S 0.62406 0.74681 0.15394 0.0
N979 N 0.60782 0.7804 0.12559 0.0
N980 N 0.58753 0.73115 0.17684 0.0
C981 C 0.56002 0.75284 0.16081 0.0
C982 C 0.57093 0.7799 0.13359 0.0
C983 C 0.1564 0.25766 0.03779 0.0
C984 C 0.13825 0.26641 0.07138 0.0
C985 C 0.14214 0.27038 0.00251 0.0
C986 C 0.10958 0.29257 -5e-05 0.0
H987 H 0.17825 0.23654 0.03816 0.0
H988 H 0.1534 0.25847 0.97704 0.0
S989 S 0.05818 0.33107 0.08074 0.0
N990 N 0.09089 0.30411 0.10067 0.0
N991 N 0.06494 0.32947 0.03471 0.0
C992 C 0.09555 0.30687 0.03386 0.0
C993 C 0.10954 0.29317 0.06965 0.0
C994 C 0.45198 0.65822 0.17304 0.0
C995 C 0.43853 0.67284 0.13832 0.0
C996 C 0.44534 0.6767 0.2073 0.0
C997 C 0.42635 0.71156 0.20832 0.0
H998 H 0.46579 0.6311 0.17399 0.0
H999 H 0.4559 0.66364 0.23322 0.0
S1000 S 0.38337 0.76045 0.12488 0.0
N1001 N 0.40299 0.72267 0.10688 0.0
N1002 N 0.39237 0.75866 0.17109 0.0
C1003 C 0.41239 0.72625 0.17367 0.0
C1004 C 0.41832 0.7068 0.13879 0.0
C1005 C 0.88103 0.30343 0.0472 0.0
C1006 C 0.88661 0.28991 0.08433 0.0
C1007 C 0.90754 0.29725 0.01993 0.0
C1008 C 0.94033 0.27695 0.02871 0.0
H1009 H 0.85697 0.32076 0.03969 0.0
H1010 H 0.90273 0.30929 0.99198 0.0
S1011 S 0.96653 0.23217 0.12039 0.0
N1012 N 0.92608 0.25293 0.12776 0.0
N1013 N 0.97573 0.24039 0.07561 0.0
C1014 C 0.94505 0.26072 0.06472 0.0
C1015 C 0.9181 0.26736 0.09282 0.0
C1016 C 0.56511 0.21946 0.37667 0.0
C1017 C 0.54239 0.18812 0.38633 0.0
C1018 C 0.55896 0.23931 0.34251 0.0
C1019 C 0.52941 0.22898 0.31749 0.0
H1020 H 0.59028 0.22625 0.39341 0.0
H1021 H 0.57939 0.26011 0.33413 0.0
S1022 S 0.45557 0.15715 0.33466 0.0
N1023 N 0.48458 0.15396 0.37193 0.0
N1024 N 0.47274 0.19102 0.30825 0.0
C1025 C 0.50337 0.20175 0.32967 0.0
C1026 C 0.50979 0.18148 0.3641 0.0
C1027 C 0.34832 0.20343 0.93509 0.0
C1028 C 0.3352 0.23475 0.9143 0.0
C1029 C 0.37763 0.2073 0.96246 0.0
C1030 C 0.3941 0.24274 0.97058 0.0
H1031 H 0.33936 0.17529 0.92695 0.0
H1032 H 0.38872 0.18203 0.97577 0.0
S1033 S 0.3618 0.3345 0.93083 0.0
N1034 N 0.3351 0.30272 0.90871 0.0
N1035 N 0.38929 0.31064 0.96066 0.0
C1036 C 0.37722 0.2748 0.95376 0.0
C1037 C 0.34758 0.27065 0.9259 0.0
C1038 C 0.46493 0.33799 0.32079 0.0
C1039 C 0.44715 0.32452 0.3529 0.0
C1040 C 0.46103 0.31912 0.28591 0.0
C1041 C 0.44016 0.28525 0.28184 0.0
H1042 H 0.47948 0.36488 0.3218 0.0
H1043 H 0.47437 0.33155 0.26181 0.0
S1044 S 0.38848 0.23814 0.35788 0.0
N1045 N 0.40777 0.27554 0.37875 0.0
N1046 N 0.40185 0.23911 0.31355 0.0
C1047 C 0.42344 0.27076 0.3142 0.0
C1048 C 0.42672 0.29051 0.34958 0.0
C1049 C 0.60064 0.24425 0.91729 0.0
C1050 C 0.63352 0.26518 0.92572 0.0
C1051 C 0.57626 0.23391 0.94608 0.0
C1052 C 0.58375 0.24465 0.98403 0.0
H1053 H 0.59187 0.23897 0.88806 0.0
H1054 H 0.54971 0.22064 0.93807 0.0
S1055 S 0.66828 0.29502 0.02151 0.0
N1056 N 0.67438 0.29201 0.97544 0.0
N1057 N 0.62786 0.27382 0.02896 0.0
C1058 C 0.61784 0.2628 0.99313 0.0
C1059 C 0.64292 0.2727 0.9641 0.0
C1060 C 0.16016 0.55349 0.80818 0.0
C1061 C 0.16714 0.56887 0.84453 0.0
C1062 C 0.18916 0.5504 0.782 0.0
C1063 C 0.22626 0.56228 0.79127 0.0
H1064 H 0.13227 0.54352 0.80003 0.0
H1065 H 0.18294 0.53639 0.75534 0.0
S1066 S 0.25897 0.60521 0.8825 0.0
N1067 N 0.214 0.59655 0.88803 0.0
N1068 N 0.2675 0.59151 0.83898 0.0
C1069 C 0.2329 0.57924 0.82691 0.0
C1070 C 0.20373 0.58213 0.85349 0.0
C1071 C 0.73304 0.57848 0.39976 0.0
C1072 C 0.75833 0.58698 0.3715 0.0
C1073 C 0.73396 0.54341 0.41778 0.0
C1074 C 0.76104 0.51632 0.40894 0.0
H1075 H 0.71481 0.60016 0.41029 0.0
H1076 H 0.7151 0.53851 0.4407 0.0
S1077 S 0.83009 0.52332 0.33351 0.0
N1078 N 0.808 0.56413 0.33218 0.0
N1079 N 0.81067 0.49854 0.36732 0.0
C1080 C 0.78459 0.5234 0.37889 0.0
C1081 C 0.78277 0.55865 0.35965 0.0
C1082 C 0.86253 0.98213 0.77868 0.0
C1083 C 0.86386 0.9825 0.81869 0.0
C1084 C 0.8315 0.96716 0.75805 0.0
C1085 C 0.80015 0.9531 0.77659 0.0
H1086 H 0.88724 0.98979 0.76337 0.0
H1087 H 0.83254 0.96569 0.72746 0.0
S1088 S 0.78669 0.95682 0.88123 0.0
N1089 N 0.82882 0.97481 0.87572 0.0
N1090 N 0.77099 0.94567 0.83818 0.0
C1091 C 0.79998 0.95696 0.81677 0.0
C1092 C 0.83135 0.97277 0.83741 0.0
C1093 C 0.20845 0.97221 0.34084 0.0
C1094 C 0.22486 0.93705 0.34948 0.0
C1095 C 0.22106 0.00527 0.35894 0.0
C1096 C 0.25057 0.0044 0.38635 0.0
H1097 H 0.18333 0.97374 0.32272 0.0
H1098 H 0.20476 0.03072 0.35479 0.0
S1099 S 0.31064 0.92195 0.40968 0.0
N1100 N 0.27773 0.90509 0.38016 0.0
N1101 N 0.30177 0.96734 0.41408 0.0
C1102 C 0.27122 0.97077 0.39026 0.0
C1103 C 0.25816 0.93691 0.37192 0.0
C1104 C 0.14846 0.47674 0.68062 0.0
C1105 C 0.1266 0.44395 0.68069 0.0
C1106 C 0.18194 0.47876 0.70254 0.0
C1107 C 0.19447 0.44835 0.72553 0.0
H1108 H 0.14267 0.49856 0.65981 0.0
H1109 H 0.2003 0.50263 0.69804 0.0
S1110 S 0.14119 0.36102 0.74355 0.0
N1111 N 0.11475 0.38425 0.71216 0.0
N1112 N 0.1784 0.38796 0.75262 0.0
C1113 C 0.16996 0.41804 0.73022 0.0
C1114 C 0.13558 0.41609 0.70814 0.0
C1115 C 0.67926 0.54034 0.59393 0.0
C1116 C 0.70674 0.56693 0.60631 0.0
C1117 C 0.68887 0.50677 0.57614 0.0
C1118 C 0.72644 0.49803 0.57023 0.0
H1119 H 0.64966 0.54602 0.59659 0.0
H1120 H 0.66652 0.48839 0.56554 0.0
S1121 S 0.80954 0.55561 0.60268 0.0
N1122 N 0.77308 0.58063 0.61496 0.0
N1123 N 0.79194 0.51714 0.58243 0.0
C1124 C 0.7545 0.52319 0.58502 0.0
C1125 C 0.74447 0.55776 0.60267 0.0
C1126 C 0.8559 0.05884 0.70145 0.0
C1127 C 0.85442 0.04491 0.66392 0.0
C1128 C 0.825 0.05543 0.72519 0.0
C1129 C 0.79095 0.03932 0.71171 0.0
H1130 H 0.88018 0.07486 0.71159 0.0
H1131 H 0.82714 0.06722 0.7535 0.0
S1132 S 0.77358 0.99679 0.61603 0.0
N1133 N 0.8173 0.01215 0.61552 0.0
N1134 N 0.75887 0.00711 0.65857 0.0
C1135 C 0.78989 0.02387 0.67466 0.0
C1136 C 0.82172 0.02616 0.65129 0.0
C1137 C 0.24942 0.92583 0.61432 0.0
C1138 C 0.27009 0.89546 0.60067 0.0
C1139 C 0.2353 0.95351 0.58949 0.0
C1140 C 0.24226 0.95173 0.55063 0.0
H1141 H 0.24757 0.93031 0.64456 0.0
H1142 H 0.22251 0.97834 0.60126 0.0
S1143 S 0.28963 0.87481 0.50057 0.0
N1144 N 0.29229 0.86242 0.54569 0.0
N1145 N 0.2666 0.9151 0.49901 0.0
C1146 C 0.25959 0.91968 0.53631 0.0
C1147 C 0.27333 0.89125 0.56145 0.0
C1148 C 0.87755 0.1728 0.47156 0.0
C1149 C 0.85734 0.13899 0.47544 0.0
C1150 C 0.85971 0.20531 0.45742 0.0
C1151 C 0.82115 0.20476 0.44717 0.0
H1152 H 0.90515 0.17586 0.48512 0.0
H1153 H 0.87429 0.23205 0.46084 0.0
S1154 S 0.76229 0.11896 0.43484 0.0
N1155 N 0.8018 0.10371 0.45519 0.0
N1156 N 0.76802 0.16476 0.42869 0.0
C1157 C 0.80381 0.16928 0.44245 0.0
C1158 C 0.82193 0.13627 0.45707 0.0
C1159 C 0.81472 0.86314 0.91403 0.0
C1160 C 0.82589 0.86026 0.87639 0.0
C1161 C 0.79061 0.83625 0.92943 0.0
C1162 C 0.77688 0.80525 0.90798 0.0
H1163 H 0.82576 0.88551 0.93218 0.0
H1164 H 0.78494 0.83812 0.95935 0.0
S1165 S 0.79607 0.7853 0.80769 0.0
N1166 N 0.81938 0.8247 0.81727 0.0
N1167 N 0.77488 0.77401 0.84697 0.0
C1168 C 0.78599 0.80313 0.86982 0.0
C1169 C 0.81035 0.83062 0.85388 0.0
C1170 C 0.03193 0.84387 0.27399 0.0
C1171 C 0.06835 0.85448 0.26378 0.0
C1172 C 1.00021 0.86321 0.25996 0.0
C1173 C 0.00367 0.89374 0.23498 0.0
H1174 H 0.02815 0.82294 0.29587 0.0
H1175 H 0.97334 0.85701 0.27203 0.0
S1176 S 0.09182 0.92761 0.19347 0.0
N1177 N 0.10536 0.89361 0.22268 0.0
N1178 N 0.04568 0.92944 0.19563 0.0
C1179 C 0.03927 0.90105 0.22042 0.0
C1180 C 0.07174 0.88157 0.23508 0.0
C1181 C 0.20462 0.63238 0.03138 0.0
C1182 C 0.16666 0.63174 0.01903 0.0
C1183 C 0.21851 0.66163 0.05482 0.0
C1184 C 0.19476 0.6913 0.06469 0.0
H1185 H 0.22455 0.61421 0.01795 0.0
H1186 H 0.24868 0.66515 0.05773 0.0
S1187 S 0.09164 0.69329 0.0535 0.0
N1188 N 0.10435 0.65652 0.02841 0.0
N1189 N 0.1306 0.70991 0.07411 0.0
C1190 C 0.15594 0.6846 0.06183 0.0
C1191 C 0.14172 0.65556 0.03732 0.0
C1192 C 0.43026 0.13482 0.75413 0.0
C1193 C 0.44361 0.16209 0.78041 0.0
C1194 C 0.45132 0.10246 0.74688 0.0
C1195 C 0.48608 0.09665 0.76585 0.0
H1196 H 0.40174 0.13616 0.74261 0.0
H1197 H 0.43914 0.08068 0.72869 0.0
S1198 S 0.5378 0.16495 0.82807 0.0
N1199 N 0.49694 0.18514 0.8185 0.0
N1200 N 0.53648 0.12439 0.80505 0.0
C1201 C 0.50171 0.12602 0.78807 0.0
C1202 C 0.48057 0.15899 0.79499 0.0
C1203 C 0.64707 0.80968 0.05604 0.0
C1204 C 0.66063 0.84672 0.05526 0.0
C1205 C 0.67127 0.77897 0.05635 0.0
C1206 C 0.71026 0.78367 0.05288 0.0
H1207 H 0.61718 0.80439 0.05703 0.0
H1208 H 0.65891 0.75097 0.05594 0.0
S1209 S 0.76027 0.87557 0.05062 0.0
N1210 N 0.71569 0.88714 0.05432 0.0
N1211 N 0.76146 0.82899 0.04937 0.0
C1212 C 0.72449 0.8208 0.05254 0.0
C1213 C 0.69961 0.8524 0.0545 0.0
C1214 C 0.05651 0.13435 0.24325 0.0
C1215 C 0.09256 0.12704 0.23055 0.0
C1216 C 0.03287 0.10475 0.2531 0.0
C1217 C 0.04454 0.06723 0.24984 0.0
H1218 H 0.04544 0.16272 0.24232 0.0
H1219 H 0.00424 0.11105 0.26008 0.0
S1220 S 0.13809 0.03366 0.22399 0.0
N1221 N 0.14074 0.08003 0.22058 0.0
N1222 N 0.09532 0.0242 0.23797 0.0
C1223 C 0.08156 0.05966 0.24087 0.0
C1224 C 0.10602 0.08984 0.23168 0.0
C1225 C 0.96487 0.35028 0.23841 0.0
C1226 C 0.92936 0.36271 0.24961 0.0
C1227 C 0.99792 0.37042 0.24803 0.0
C1228 C 0.99698 0.40328 0.27014 0.0
H1229 H 0.96661 0.32741 0.21818 0.0
H1230 H 0.02377 0.36227 0.23508 0.0
S1231 S 0.9123 0.4443 0.31195 0.0
N1232 N 0.89608 0.4074 0.28778 0.0
N1233 N 0.95823 0.44454 0.30715 0.0
C1234 C 0.9624 0.41324 0.28554 0.0
C1235 C 0.92855 0.39305 0.27509 0.0
C1236 C 0.19091 0.1889 0.84589 0.0
C1237 C 0.21036 0.22322 0.84273 0.0
C1238 C 0.15218 0.18839 0.85112 0.0
C1239 C 0.13226 0.22217 0.85456 0.0
H1240 H 0.20481 0.16253 0.8401 0.0
H1241 H 0.13735 0.16167 0.84983 0.0
S1242 S 0.17188 0.31896 0.85448 0.0
N1243 N 0.20811 0.29133 0.84739 0.0
N1244 N 0.13557 0.29051 0.85941 0.0
C1245 C 0.15227 0.2564 0.85587 0.0
C1246 C 0.19142 0.25691 0.84938 0.0
C1247 C 0.49072 0.55962 0.35014 0.0
C1248 C 0.45656 0.54406 0.3619 0.0
C1249 C 0.49639 0.59881 0.34867 0.0
C1250 C 0.46784 0.62378 0.35822 0.0
H1251 H 0.51479 0.54152 0.34702 0.0
H1252 H 0.52438 0.60947 0.34404 0.0
S1253 S 0.37099 0.59767 0.38277 0.0
N1254 N 0.39214 0.55682 0.37723 0.0
N1255 N 0.4025 0.63047 0.37372 0.0
C1256 C 0.43215 0.6087 0.3649 0.0
C1257 C 0.42646 0.56875 0.36662 0.0
C1258 C 0.82855 0.33307 0.85059 0.0
C1259 C 0.80851 0.29919 0.85546 0.0
C1260 C 0.86799 0.33414 0.85496 0.0
C1261 C 0.88843 0.30113 0.86309 0.0
H1262 H 0.81394 0.35839 0.84164 0.0
H1263 H 0.88263 0.36054 0.8507 0.0
S1264 S 0.84929 0.2068 0.88376 0.0
N1265 N 0.81225 0.23305 0.87357 0.0
N1266 N 0.88592 0.23494 0.87976 0.0
C1267 C 0.86869 0.2677 0.86964 0.0
C1268 C 0.82884 0.26678 0.86636 0.0
C1269 C 0.52874 0.95099 0.34365 0.0
C1270 C 0.5564 0.95645 0.37256 0.0
C1271 C 0.51499 0.91477 0.33407 0.0
C1272 C 0.52766 0.88216 0.3535 0.0
H1273 H 0.51537 0.9752 0.33039 0.0
H1274 H 0.49292 0.9126 0.3123 0.0
S1275 S 0.60245 0.88072 0.42939 0.0
N1276 N 0.59779 0.92584 0.41884 0.0
N1277 N 0.57239 0.85794 0.40088 0.0
C1278 C 0.55687 0.88704 0.38104 0.0
C1279 C 0.57114 0.92398 0.39041 0.0
C1280 C 0.18764 0.77215 0.61323 0.0
C1281 C 0.20757 0.80124 0.63238 0.0
C1282 C 0.14838 0.77196 0.6109 0.0
C1283 C 0.12804 0.80075 0.62793 0.0
H1284 H 0.20231 0.74758 0.60331 0.0
H1285 H 0.13411 0.74728 0.59928 0.0
S1286 S 0.16704 0.88801 0.67216 0.0
N1287 N 0.20421 0.86298 0.66187 0.0
N1288 N 0.13037 0.86293 0.65698 0.0
C1289 C 0.14768 0.83251 0.64218 0.0
C1290 C 0.18762 0.83275 0.64445 0.0
C1291 C 0.03538 0.5759 0.57059 0.0
C1292 C 0.04284 0.54555 0.59578 0.0
C1293 C 0.0273 0.61246 0.58347 0.0
C1294 C 0.02555 0.62057 0.6223 0.0
H1295 H 0.03523 0.57128 0.54025 0.0
H1296 H 0.02145 0.63428 0.56271 0.0
S1297 S 0.04577 0.55226 0.70053 0.0
N1298 N 0.05024 0.52703 0.66163 0.0
N1299 N 0.03472 0.59523 0.68622 0.0
C1300 C 0.03413 0.59076 0.64797 0.0
C1301 C 0.04293 0.55354 0.63469 0.0
C1302 C 0.82364 0.68916 0.59256 0.0
C1303 C 0.81242 0.67945 0.629 0.0
C1304 C 0.86162 0.69626 0.58557 0.0
C1305 C 0.88929 0.69508 0.6151 0.0
H1306 H 0.80275 0.6938 0.57005 0.0
H1307 H 0.86903 0.70499 0.55739 0.0
S1308 S 0.87451 0.66697 0.71446 0.0
N1309 N 0.83216 0.66559 0.69398 0.0
N1310 N 0.90325 0.67965 0.68102 0.0
C1311 C 0.8786 0.6833 0.65104 0.0
C1312 C 0.84022 0.67528 0.65791 0.0
C1313 C 0.9357 0.93412 0.61632 0.0
C1314 C 0.96285 0.96214 0.62466 0.0
C1315 C 0.94427 0.89538 0.62042 0.0
C1316 C 0.98011 0.88305 0.6334 0.0
H1317 H 0.90927 0.94183 0.60245 0.0
H1318 H 0.92396 0.87491 0.60953 0.0
S1319 S 0.05878 0.94504 0.66538 0.0
N1320 N 0.0253 0.97459 0.6518 0.0
N1321 N 0.04103 0.90232 0.65899 0.0
C1322 C 0.00587 0.9108 0.64573 0.0
C1323 C 0.99727 0.95012 0.64162 0.0
C1324 C 0.83745 0.16597 0.16688 0.0
C1325 C 0.86188 0.1952 0.17884 0.0
C1326 C 0.8477 0.12828 0.17138 0.0
C1327 C 0.88298 0.11887 0.18714 0.0
H1328 H 0.80896 0.17226 0.1573 0.0
H1329 H 0.82729 0.10643 0.16426 0.0
S1330 S 0.95809 0.18487 0.21993 0.0
N1331 N 0.92319 0.2124 0.20557 0.0
N1332 N 0.9436 0.1412 0.21173 0.0
C1333 C 0.90888 0.14773 0.19616 0.0
C1334 C 0.89802 0.18616 0.19253 0.0
C1335 C 0.42913 0.84816 0.02714 0.0
C1336 C 0.44351 0.86793 0.05905 0.0
C1337 C 0.39058 0.84049 0.02263 0.0
C1338 C 0.36544 0.85353 0.04939 0.0
H1339 H 0.44689 0.84296 0.00343 0.0
H1340 H 0.38 0.83013 -0.00462 0.0
S1341 S 0.39064 0.89641 0.14249 0.0
N1342 N 0.43114 0.89196 0.12164 0.0
N1343 N 0.35846 0.87862 0.11264 0.0
C1344 C 0.38036 0.86722 0.08412 0.0
C1345 C 0.41962 0.8745 0.08897 0.0
C1346 C 0.16059 0.32893 0.16153 0.0
C1347 C 0.15602 0.30526 0.19281 0.0
C1348 C 0.15332 0.36747 0.16428 0.0
C1349 C 0.14095 0.38323 0.19824 0.0
H1350 H 0.17297 0.31836 0.13606 0.0
H1351 H 0.16036 0.38548 0.14076 0.0
S1352 S 0.1159 0.33097 0.28468 0.0
N1353 N 0.13206 0.29849 0.25606 0.0
N1354 N 0.11786 0.37108 0.26113 0.0
C1355 C 0.13163 0.35895 0.22787 0.0
C1356 C 0.13954 0.31981 0.22524 0.0
C1357 C 0.55435 0.63055 0.9891 0.0
C1358 C 0.54534 0.6266 0.02762 0.0
C1359 C 0.59141 0.63686 0.97792 0.0
C1360 C 0.62138 0.64012 0.00468 0.0
H1361 H 0.53311 0.62479 0.96711 0.0
H1362 H 0.59717 0.63502 0.94804 0.0
S1363 S 0.6125 0.63911 0.10918 0.0
N1364 N 0.56912 0.63188 0.09261 0.0
N1365 N 0.6386 0.64421 0.07173 0.0
C1366 C 0.61214 0.64085 0.0433 0.0
C1367 C 0.57423 0.63409 0.05476 0.0
C1368 C 0.86555 0.82398 0.26536 0.0
C1369 C 0.84508 0.8068 0.2939 0.0
C1370 C 0.87247 0.86275 0.2661 0.0
C1371 C 0.85793 0.88531 0.29479 0.0
H1372 H 0.87382 0.80785 0.24099 0.0
H1373 H 0.88588 0.87542 0.24213 0.0
S1374 S 0.80786 0.85218 0.37901 0.0
N1375 N 0.81516 0.81365 0.35416 0.0
N1376 N 0.82704 0.88687 0.35519 0.0
C1377 C 0.84086 0.86768 0.32547 0.0
C1378 C 0.83463 0.82815 0.32509 0.0
C1379 C 0.05519 0.85394 0.92649 0.0
C1380 C 0.04575 0.89217 0.92761 0.0
C1381 C 0.09253 0.84232 0.93347 0.0
C1382 C 0.12172 0.86844 0.94284 0.0
H1383 H 0.03334 0.83278 0.92286 0.0
H1384 H 0.09788 0.81232 0.93401 0.0
S1385 S 0.11131 0.97243 0.94477 0.0
N1386 N 0.06863 0.95641 0.93449 0.0
N1387 N 0.13811 0.93479 0.94876 0.0
C1388 C 0.11268 0.90692 0.94142 0.0
C1389 C 0.07491 0.91866 0.93355 0.0
C1390 C 0.12598 0.68361 0.31832 0.0
C1391 C 0.16377 0.69467 0.31725 0.0
C1392 C 0.11578 0.64528 0.31634 0.0
C1393 C 0.14305 0.6171 0.31211 0.0
H1394 H 0.10414 0.70469 0.31829 0.0
H1395 H 0.08625 0.6379 0.31554 0.0
S1396 S 0.24599 0.63171 0.3119 0.0
N1397 N 0.22861 0.67457 0.31525 0.0
N1398 N 0.20949 0.60284 0.31058 0.0
C1399 C 0.18097 0.62786 0.31302 0.0
C1400 C 0.1913 0.66661 0.31573 0.0
C1401 C 0.95105 0.64286 0.9644 0.0
C1402 C 0.95798 0.60729 0.94882 0.0
C1403 C 0.91444 0.65354 0.97382 0.0
C1404 C 0.8831 0.62905 0.96831 0.0
H1405 H 0.97426 0.66182 0.9711 0.0
H1406 H 0.91091 0.68118 0.98615 0.0
S1407 S 0.88667 0.5332 0.92628 0.0
N1408 N 0.93065 0.54801 0.92701 0.0
N1409 N 0.8623 0.56798 0.94412 0.0
C1410 C 0.88982 0.5938 0.95161 0.0
C1411 C 0.92701 0.58302 0.94207 0.0
C1412 C 0.22209 0.88462 0.19179 0.0
C1413 C 0.19137 0.86132 0.20021 0.0
C1414 C 0.23225 0.89056 0.1543 0.0
C1415 C 0.21154 0.87386 0.12425 0.0
H1416 H 0.24108 0.89439 0.21441 0.0
H1417 H 0.25871 0.90447 0.14915 0.0
S1418 S 0.12464 0.81697 0.13092 0.0
N1419 N 0.1373 0.82636 0.17543 0.0
N1420 N 0.15576 0.83837 0.10469 0.0
C1421 C 0.17788 0.85506 0.13207 0.0
C1422 C 0.16779 0.84863 0.17028 0.0
C1423 C 0.22595 0.13391 0.3127 0.0
C1424 C 0.19775 0.15407 0.29273 0.0
C1425 C 0.22736 0.13268 0.35237 0.0
C1426 C 0.20109 0.15234 0.37353 0.0
H1427 H 0.24855 0.1211 0.29761 0.0
H1428 H 0.25085 0.11861 0.36645 0.0
S1429 S 0.11789 0.20358 0.33454 0.0
N1430 N 0.13995 0.18948 0.29674 0.0
N1431 N 0.14282 0.18779 0.37147 0.0
C1432 C 0.1708 0.16969 0.35383 0.0
C1433 C 0.16902 0.17032 0.31333 0.0
C1434 C 0.38052 0.49641 0.94187 0.0
C1435 C 0.38714 0.53423 0.95285 0.0
C1436 C 0.37562 0.4861 0.90357 0.0
C1437 C 0.37626 0.51329 0.87481 0.0
H1438 H 0.38287 0.47411 0.96275 0.0
H1439 H 0.37516 0.45642 0.89629 0.0
S1440 S 0.38642 0.61647 0.88824 0.0
N1441 N 0.38988 0.59916 0.93162 0.0
N1442 N 0.37888 0.57993 0.85989 0.0
C1443 C 0.37819 0.55147 0.88558 0.0
C1444 C 0.38397 0.56197 0.92458 0.0
C1445 C 0.76274 0.35728 0.30791 0.0
C1446 C 0.79498 0.33562 0.30332 0.0
C1447 C 0.74771 0.36189 0.34347 0.0
C1448 C 0.76427 0.34474 0.37578 0.0
H1449 H 0.74778 0.369 0.28341 0.0
H1450 H 0.72238 0.37839 0.34536 0.0
S1451 S 0.851 0.287 0.3784 0.0
N1452 N 0.8442 0.29808 0.33325 0.0
N1453 N 0.81661 0.30716 0.40095 0.0
C1454 C 0.79764 0.32415 0.37166 0.0
C1455 C 0.81294 0.31961 0.33519 0.0
C1456 C 0.1468 0.46973 0.44926 0.0
C1457 C 0.11852 0.44201 0.45019 0.0
C1458 C 0.16041 0.48253 0.41449 0.0
C1459 C 0.14567 0.46834 0.37971 0.0
H1460 H 0.15652 0.48345 0.47525 0.0
H1461 H 0.18118 0.50491 0.41482 0.0
S1462 S 0.07549 0.39104 0.36784 0.0
N1463 N 0.07936 0.3979 0.41407 0.0
N1464 N 0.10486 0.42127 0.34909 0.0
C1465 C 0.11931 0.43868 0.38073 0.0
C1466 C 0.10578 0.42568 0.41588 0.0
C1467 C 0.32023 0.11135 0.68118 0.0
C1468 C 0.28734 0.1216 0.69948 0.0
C1469 C 0.31977 0.10531 0.64171 0.0
C1470 C 0.28656 0.11016 0.61958 0.0
H1471 H 0.34701 0.11199 0.69663 0.0
H1472 H 0.34592 0.09961 0.62817 0.0
S1473 S 0.19194 0.12903 0.65524 0.0
N1474 N 0.21998 0.12999 0.69348 0.0
N1475 N 0.2191 0.11943 0.6196 0.0
C1476 C 0.25301 0.11647 0.63817 0.0
C1477 C 0.25339 0.12169 0.67814 0.0
C1478 C 0.43026 0.47072 0.57065 0.0
C1479 C 0.40635 0.46271 0.53891 0.0
C1480 C 0.41628 0.47753 0.60659 0.0
C1481 C 0.37759 0.47726 0.61261 0.0
H1482 H 0.46038 0.47192 0.56775 0.0
H1483 H 0.43615 0.48351 0.62966 0.0
S1484 S 0.30272 0.45573 0.53946 0.0
N1485 N 0.34199 0.45358 0.51614 0.0
N1486 N 0.31532 0.46621 0.58373 0.0
C1487 C 0.3532 0.46851 0.58125 0.0
C1488 C 0.36763 0.46119 0.5445 0.0
C1489 C 0.60361 0.06002 0.57448 0.0
C1490 C 0.61123 0.03138 0.54861 0.0
C1491 C 0.61142 0.05476 0.61313 0.0
C1492 C 0.62712 0.02085 0.62664 0.0
H1493 H 0.588 0.08472 0.5654 0.0
H1494 H 0.60106 0.07537 0.63284 0.0
S1495 S 0.6645 0.94426 0.56822 0.0
N1496 N 0.64382 0.97292 0.53729 0.0
N1497 N 0.65892 0.96307 0.61053 0.0
C1498 C 0.64023 0.9949 0.60044 0.0
C1499 C 0.63197 0.00011 0.56106 0.0
C1500 C 0.66868 0.66927 0.33014 0.0
C1501 C 0.69054 0.70113 0.33976 0.0
C1502 C 0.62962 0.66986 0.33348 0.0
C1503 C 0.61161 0.70202 0.34726 0.0
H1504 H 0.68128 0.64519 0.31676 0.0
H1505 H 0.61326 0.64593 0.32316 0.0
S1506 S 0.65788 0.79017 0.38202 0.0
N1507 N 0.69254 0.76353 0.36795 0.0
N1508 N 0.61939 0.76479 0.37466 0.0
C1509 C 0.63384 0.73252 0.36051 0.0
C1510 C 0.67335 0.73199 0.3567 0.0
C1511 C 0.01684 0.06659 0.88666 0.0
C1512 C 0.97952 0.05315 0.88467 0.0
C1513 C 0.02532 0.10459 0.8805 0.0
C1514 C 0.99697 0.13061 0.87142 0.0
H1515 H 0.03954 0.0482 0.89583 0.0
H1516 H 0.05386 0.11427 0.88605 0.0
S1517 S 0.89581 0.10929 0.85589 0.0
N1518 N 0.91459 0.06835 0.86785 0.0
N1519 N 0.93089 0.13989 0.85576 0.0
C1520 C 0.9602 0.11702 0.8651 0.0
C1521 C 0.95136 0.0782 0.87179 0.0
C1522 C 0.3178 0.81961 0.38469 0.0
C1523 C 0.30572 0.82611 0.34699 0.0
C1524 C 0.35611 0.8152 0.39419 0.0
C1525 C 0.38302 0.81602 0.36598 0.0
H1526 H 0.29745 0.81511 0.40632 0.0
H1527 H 0.36435 0.80821 0.42316 0.0
S1528 S 0.3657 0.83735 0.26422 0.0
N1529 N 0.32363 0.83754 0.28234 0.0
N1530 N 0.39546 0.82832 0.29994 0.0
C1531 C 0.37142 0.82526 0.32881 0.0
C1532 C 0.3327 0.83055 0.31938 0.0
C1533 C 0.07563 0.42937 0.89007 0.0
C1534 C 0.06197 0.46234 0.87255 0.0
C1535 C 0.06214 0.39373 0.87899 0.0
C1536 C 0.03447 0.38965 0.84982 0.0
H1537 H 0.0945 0.43135 0.91476 0.0
H1538 H 0.07277 0.36932 0.89422 0.0
S1539 S 0.99235 0.46745 0.79254 0.0
N1540 N 0.02135 0.48885 0.82319 0.0
N1541 N 0.99642 0.42191 0.8013 0.0
C1542 C 0.02257 0.42236 0.83025 0.0
C1543 C 0.03627 0.45867 0.84183 0.0
C1544 C 0.6806 0.27566 0.12645 0.0
C1545 C 0.70035 0.30406 0.14688 0.0
C1546 C 0.64126 0.27449 0.12463 0.0
C1547 C 0.62007 0.30139 0.14365 0.0
H1548 H 0.69567 0.25263 0.11392 0.0
H1549 H 0.62754 0.25066 0.1107 0.0
S1550 S 0.65808 0.38543 0.19511 0.0
N1551 N 0.69571 0.36274 0.18178 0.0
N1552 N 0.62175 0.36044 0.17885 0.0
C1553 C 0.63942 0.33192 0.16114 0.0
C1554 C 0.67957 0.33336 0.16252 0.0
C1555 C 0.53489 0.07466 0.07376 0.0
C1556 C 0.54083 0.0441 0.09902 0.0
C1557 C 0.52657 0.11113 0.08655 0.0
C1558 C 0.5232 0.11882 0.12529 0.0
H1559 H 0.5356 0.0701 0.04345 0.0
H1560 H 0.52153 0.13311 0.06576 0.0
S1561 S 0.53996 0.04983 0.20365 0.0
N1562 N 0.54549 0.02487 0.16477 0.0
N1563 N 0.53011 0.09306 0.18931 0.0
C1564 C 0.53091 0.08889 0.15107 0.0
C1565 C 0.53973 0.05175 0.13788 0.0
C1566 C 0.31562 0.18685 0.10417 0.0
C1567 C 0.30385 0.18197 0.14128 0.0
C1568 C 0.35382 0.19163 0.09708 0.0
C1569 C 0.38113 0.19268 0.12702 0.0
H1570 H 0.29513 0.18969 0.08097 0.0
H1571 H 0.36179 0.19686 0.0682 0.0
S1572 S 0.36458 0.17626 0.22852 0.0
N1573 N 0.32239 0.17447 0.20772 0.0
N1574 N 0.39409 0.18402 0.1943 0.0
C1575 C 0.36983 0.18544 0.16383 0.0
C1576 C 0.33115 0.17987 0.17095 0.0
C1577 C 0.43135 0.43681 0.11723 0.0
C1578 C 0.46229 0.46152 0.12054 0.0
C1579 C 0.43575 0.39753 0.12247 0.0
C1580 C 0.47104 0.38138 0.13184 0.0
H1581 H 0.40456 0.44718 0.10638 0.0
H1582 H 0.41211 0.3793 0.11519 0.0
S1583 S 0.55934 0.43449 0.15066 0.0
N1584 N 0.52832 0.46735 0.13926 0.0
N1585 N 0.53616 0.39406 0.14903 0.0
C1586 C 0.50105 0.40625 0.13949 0.0
C1587 C 0.49675 0.44611 0.13392 0.0
C1588 C 0.32578 0.65764 0.69212 0.0
C1589 C 0.3519 0.68676 0.68637 0.0
C1590 C 0.33707 0.62033 0.69559 0.0
C1591 C 0.3749 0.61068 0.69298 0.0
H1592 H 0.29646 0.66402 0.69594 0.0
H1593 H 0.31614 0.59909 0.70155 0.0
S1594 S 0.45371 0.67614 0.67374 0.0
N1595 N 0.41655 0.7036 0.67529 0.0
N1596 N 0.43826 0.63278 0.68068 0.0
C1597 C 0.40103 0.63918 0.68427 0.0
C1598 C 0.38939 0.6775 0.68115 0.0
C1599 C 0.9449 0.34522 0.51535 0.0
C1600 C 0.95871 0.36248 0.549 0.0
C1601 C 0.90654 0.33673 0.50972 0.0
C1602 C 0.88059 0.34569 0.53737 0.0
H1603 H 0.963 0.34251 0.49149 0.0
H1604 H 0.89655 0.32809 0.48166 0.0
S1605 S 0.90358 0.38391 0.63313 0.0
N1606 N 0.94449 0.38206 0.61267 0.0
N1607 N 0.87233 0.36693 0.60182 0.0
C1608 C 0.89485 0.35808 0.57292 0.0
C1609 C 0.934 0.36635 0.5788 0.0
C1610 C 0.64319 0.80668 0.72083 0.0
C1611 C 0.65596 0.79395 0.68568 0.0
C1612 C 0.6327 0.84436 0.72612 0.0
C1613 C 0.63492 0.87044 0.69643 0.0
H1614 H 0.64383 0.78806 0.74515 0.0
H1615 H 0.62676 0.85384 0.75446 0.0
S1616 S 0.66073 0.84994 0.59774 0.0
N1617 N 0.66634 0.80949 0.6201 0.0
N1618 N 0.64505 0.87966 0.62944 0.0
C1619 C 0.64342 0.85693 0.66023 0.0
C1620 C 0.65449 0.81881 0.65498 0.0
C1621 C 0.0729 0.1268 0.56987 0.0
C1622 C 0.04359 0.12868 0.54224 0.0
C1623 C 0.11054 0.13254 0.56001 0.0
C1624 C 0.12004 0.14048 0.52234 0.0
H1625 H 0.06736 0.11625 0.59791 0.0
H1626 H 0.13252 0.12613 0.58094 0.0
S1627 S 0.05305 0.15614 0.44162 0.0
N1628 N 0.02621 0.14542 0.47731 0.0
N1629 N 0.09663 0.15568 0.45906 0.0
C1630 C 0.09066 0.14721 0.49589 0.0
C1631 C 0.0525 0.14151 0.50583 0.0
C1632 C 0.38791 0.30557 0.79912 0.0
C1633 C 0.38193 0.28894 0.76317 0.0
C1634 C 0.38702 0.34474 0.80341 0.0
C1635 C 0.38319 0.36798 0.77155 0.0
H1636 H 0.38806 0.28863 0.82441 0.0
H1637 H 0.38692 0.35671 0.83166 0.0
S1638 S 0.38026 0.33825 0.67092 0.0
N1639 N 0.38077 0.29845 0.69516 0.0
N1640 N 0.38265 0.37235 0.7028 0.0
C1641 C 0.38461 0.35185 0.73531 0.0
C1642 C 0.38384 0.31203 0.73114 0.0
C1643 C 0.57056 0.35921 0.42159 0.0
C1644 C 0.55393 0.3814 0.4494 0.0
C1645 C 0.6067 0.34375 0.42818 0.0
C1646 C 0.62735 0.35079 0.46237 0.0
H1647 H 0.55648 0.35529 0.39417 0.0
H1648 H 0.61907 0.32742 0.40594 0.0
S1649 S 0.5935 0.40173 0.54618 0.0
N1650 N 0.55891 0.40514 0.51411 0.0
N1651 N 0.62647 0.37746 0.52567 0.0
C1652 C 0.60999 0.37112 0.49088 0.0
C1653 C 0.57336 0.38599 0.4846 0.0
C1654 C 0.66099 0.1678 0.76999 0.0
C1655 C 0.6594 0.1893 0.80357 0.0
C1656 C 0.65419 0.12908 0.76962 0.0
C1657 C 0.64456 0.10994 0.80261 0.0
H1658 H 0.66798 0.1808 0.74338 0.0
H1659 H 0.65549 0.11423 0.74286 0.0
S1660 S 0.63694 0.15193 0.89826 0.0
N1661 N 0.64876 0.18774 0.87119 0.0
N1662 N 0.63364 0.11483 0.87 0.0
C1663 C 0.64232 0.13075 0.83643 0.0
C1664 C 0.65026 0.17039 0.83703 0.0
C1665 C 0.44777 0.13799 0.47159 0.0
C1666 C 0.45237 0.10386 0.45222 0.0
C1667 C 0.41216 0.14934 0.48358 0.0
C1668 C 0.37944 0.12698 0.47702 0.0
H1669 H 0.47212 0.15504 0.47941 0.0
H1670 H 0.41058 0.1757 0.4989 0.0
S1671 S 0.37665 0.03582 0.42515 0.0
N1672 N 0.42129 0.04843 0.42562 0.0
N1673 N 0.35476 0.06974 0.44737 0.0
C1674 C 0.38375 0.09342 0.45632 0.0
C1675 C 0.41998 0.08193 0.44421 0.0
C1676 C 0.74279 0.37154 0.69671 0.0
C1677 C 0.70826 0.35516 0.70624 0.0
C1678 C 0.75409 0.37213 0.65921 0.0
C1679 C 0.7306 0.35757 0.63016 0.0
H1680 H 0.76311 0.37967 0.71883 0.0
H1681 H 0.78247 0.38088 0.65341 0.0
S1682 S 0.63402 0.32056 0.63887 0.0
N1683 N 0.64821 0.33033 0.68288 0.0
N1684 N 0.66897 0.33283 0.61186 0.0
C1685 C 0.69398 0.34633 0.63851 0.0
C1686 C 0.68269 0.34513 0.67685 0.0
C1687 C 0.7389 0.61836 0.79784 0.0
C1688 C 0.70821 0.63553 0.77858 0.0
C1689 C 0.73852 0.61177 0.83697 0.0
C1690 C 0.70743 0.62234 0.8577 0.0
H1691 H 0.76457 0.61307 0.78325 0.0
H1692 H 0.76418 0.60272 0.85151 0.0
S1693 S 0.6174 0.66059 0.81969 0.0
N1694 N 0.6443 0.65815 0.78272 0.0
N1695 N 0.64272 0.64325 0.85553 0.0
C1696 C 0.67473 0.63412 0.83789 0.0
C1697 C 0.67539 0.64168 0.7984 0.0
C1698 C 0.89159 0.06097 0.4278 0.0
C1699 C 0.89668 0.03022 0.45258 0.0
C1700 C 0.8804 0.05545 0.38963 0.0
C1701 C 0.87458 0.01897 0.37496 0.0
H1702 H 0.89998 0.089 0.43676 0.0
H1703 H 0.88113 0.07935 0.37059 0.0
S1704 S 0.87778 0.92987 0.42942 0.0
N1705 N 0.88924 0.96268 0.46102 0.0
N1706 N 0.86977 0.95238 0.38904 0.0
C1707 C 0.87563 0.98858 0.40035 0.0
C1708 C 0.88663 0.99414 0.43918 0.0
C1709 C 0.26648 0.86317 0.80321 0.0
C1710 C 0.29074 0.8328 0.79926 0.0
C1711 C 0.2531 0.8726 0.83852 0.0
C1712 C 0.26321 0.85168 0.87127 0.0
H1713 H 0.25648 0.87878 0.77851 0.0
H1714 H 0.23401 0.89616 0.83975 0.0
S1715 S 0.32725 0.76955 0.87492 0.0
N1716 N 0.3252 0.7819 0.82981 0.0
N1717 N 0.30051 0.79973 0.89708 0.0
C1718 C 0.2885 0.82166 0.86764 0.0
C1719 C 0.30219 0.81219 0.83138 0.0
C1720 C 0.57982 0.93463 0.91528 0.0
C1721 C 0.60013 0.93562 0.95014 0.0
C1722 C 0.59591 0.94603 0.88179 0.0
C1723 C 0.63323 0.95885 0.88139 0.0
H1724 H 0.55054 0.92621 0.91398 0.0
H1725 H 0.5786 0.94496 0.85603 0.0
S1726 S 0.70001 0.96288 0.96471 0.0
N1727 N 0.66036 0.94764 0.98222 0.0
N1728 N 0.69132 0.96874 0.91882 0.0
C1729 C 0.65471 0.95802 0.91582 0.0
C1730 C 0.63806 0.94634 0.95024 0.0
C1731 C 0.78465 0.68454 0.15503 0.0
C1732 C 0.79924 0.66032 0.18337 0.0
C1733 C 0.78503 0.67481 0.11685 0.0
C1734 C 0.80004 0.64039 0.10534 0.0
H1735 H 0.77183 0.71104 0.16247 0.0
H1736 H 0.77217 0.69394 0.09642 0.0
S1737 S 0.84527 0.56867 0.16871 0.0
N1738 N 0.83135 0.60183 0.1978 0.0
N1739 N 0.83304 0.58317 0.12559 0.0
C1740 C 0.81691 0.61678 0.13339 0.0
C1741 C 0.81631 0.62685 0.17254 0.0
C1742 C 0.86234 0.98342 0.04201 0.0
C1743 C 0.89345 0.9601 0.03669 0.0
C1744 C 0.85132 0.99355 0.07873 0.0
C1745 C 0.87132 0.98136 0.11184 0.0
H1746 H 0.84761 0.99559 0.01765 0.0
H1747 H 0.82751 0.01211 0.08102 0.0
S1748 S 0.95406 0.91809 0.11288 0.0
N1749 N 0.94337 0.92407 0.0674 0.0
N1750 N 0.92279 0.94245 0.1359 0.0
C1751 C 0.90178 0.95693 0.10663 0.0
C1752 C 0.91278 0.94658 0.06932 0.0
C1753 C 0.10988 0.57141 0.07288 0.0
C1754 C 0.12176 0.54416 0.04724 0.0
C1755 C 0.11339 0.56543 0.11192 0.0
C1756 C 0.12839 0.53173 0.12647 0.0
H1757 H 0.09336 0.59504 0.06296 0.0
H1758 H 0.10057 0.58545 0.13065 0.0
S1759 S 0.16758 0.45347 0.07144 0.0
N1760 N 0.15272 0.48405 0.03904 0.0
N1761 N 0.15883 0.47256 0.1129 0.0
C1762 C 0.14359 0.50581 0.10144 0.0
C1763 C 0.14021 0.51203 0.06157 0.0
loop_
_geom_bond_atom_site_label_1
_geom_bond_atom_site_label_2
_geom_bond_distance
_geom_bond_site_symmetry_2
_ccdc_geom_bond_type
Zn0 O6 1.920 . S
Zn0 O12 1.898 . S
Zn0 O15 1.905 . S
Zn1 O9 1.905 . S
Zn1 O10 1.898 . S
Zn1 O18 1.920 . S
Zn2 O5 2.080 . S
Zn2 O8 2.114 . S
Zn2 O11 2.120 . S
Zn2 O13 2.120 . S
Zn2 O14 2.114 . S
Zn2 O17 2.080 . S
C3 O8 1.166 . S
C3 O9 1.182 . S
C4 O10 1.167 . S
C4 O11 1.299 . S
O5 Zn2 2.080 . S
O5 C19 1.305 . S
O6 Zn0 1.920 . S
O6 C19 1.234 . S
C7 O12 1.167 . S
C7 O13 1.299 . S
O8 Zn2 2.114 . S
O8 C3 1.166 . S
O9 Zn1 1.905 . S
O9 C3 1.182 . S
O10 Zn1 1.898 . S
O10 C4 1.167 . S
O11 Zn2 2.120 . S
O11 C4 1.299 . S
O12 Zn0 1.898 . S
O12 C7 1.167 . S
O13 Zn2 2.120 . S
O13 C7 1.299 . S
O14 Zn2 2.114 . S
O14 C16 1.166 . S
O15 Zn0 1.905 . S
O15 C16 1.182 . S
C16 O14 1.166 . S
C16 O15 1.182 . S
O17 Zn2 2.080 . S
O17 C20 1.305 . S
O18 Zn1 1.920 . S
O18 C20 1.234 . S
C19 O5 1.305 . S
C19 O6 1.234 . S
C20 O17 1.305 . S
C20 O18 1.234 . S
Zn21 O27 1.920 . S
Zn21 O33 1.898 . S
Zn21 O36 1.905 . S
Zn22 O30 1.905 . S
Zn22 O31 1.898 . S
Zn22 O39 1.920 1_554 S
Zn23 O26 2.080 . S
Zn23 O29 2.114 . S
Zn23 O32 2.120 . S
Zn23 O34 2.120 . S
Zn23 O35 2.114 . S
Zn23 O38 2.080 . S
C24 O29 1.166 . S
C24 O30 1.182 . S
C25 O31 1.167 . S
C25 O32 1.299 . S
O26 Zn23 2.080 . S
O26 C40 1.305 . S
O27 Zn21 1.920 . S
O27 C40 1.234 . S
C28 O33 1.167 . S
C28 O34 1.299 . S
O29 Zn23 2.114 . S
O29 C24 1.166 . S
O30 Zn22 1.905 . S
O30 C24 1.182 . S
O31 Zn22 1.898 . S
O31 C25 1.167 . S
O32 Zn23 2.120 . S
O32 C25 1.299 . S
O33 Zn21 1.898 . S
O33 C28 1.167 . S
O34 Zn23 2.120 . S
O34 C28 1.299 . S
O35 Zn23 2.114 . S
O35 C37 1.166 . S
O36 Zn21 1.905 . S
O36 C37 1.182 . S
C37 O35 1.166 . S
C37 O36 1.182 . S
O38 Zn23 2.080 . S
O38 C41 1.305 1_554 S
O39 Zn22 1.920 1_556 S
O39 C41 1.234 . S
C40 O26 1.305 . S
C40 O27 1.234 . S
C41 O38 1.305 1_556 S
C41 O39 1.234 . S
Zn42 O48 1.920 . S
Zn42 O54 1.898 . S
Zn42 O57 1.905 . S
Zn43 O51 1.905 . S
Zn43 O52 1.898 . S
Zn43 O60 1.920 . S
Zn44 O47 2.080 . S
Zn44 O50 2.114 . S
Zn44 O53 2.120 . S
Zn44 O55 2.120 . S
Zn44 O56 2.114 . S
Zn44 O59 2.080 . S
C45 O50 1.166 . S
C45 O51 1.182 . S
C46 O52 1.167 . S
C46 O53 1.299 . S
O47 Zn44 2.080 . S
O47 C61 1.305 . S
O48 Zn42 1.920 . S
O48 C61 1.234 . S
C49 O54 1.167 . S
C49 O55 1.299 . S
O50 Zn44 2.114 . S
O50 C45 1.166 . S
O51 Zn43 1.905 . S
O51 C45 1.182 . S
O52 Zn43 1.898 . S
O52 C46 1.167 . S
O53 Zn44 2.120 . S
O53 C46 1.299 . S
O54 Zn42 1.898 . S
O54 C49 1.167 . S
O55 Zn44 2.120 . S
O55 C49 1.299 . S
O56 Zn44 2.114 . S
O56 C58 1.166 . S
O57 Zn42 1.905 . S
O57 C58 1.182 . S
C58 O56 1.166 . S
C58 O57 1.182 . S
O59 Zn44 2.080 . S
O59 C62 1.305 . S
O60 Zn43 1.920 . S
O60 C62 1.234 . S
C61 O47 1.305 . S
C61 O48 1.234 . S
C62 O59 1.305 . S
C62 O60 1.234 . S
Zn63 O69 1.920 1_554 S
Zn63 O75 1.898 . S
Zn63 O78 1.905 1_565 S
Zn64 O72 1.905 . S
Zn64 O73 1.898 . S
Zn64 O81 1.920 . S
Zn65 O68 2.080 . S
Zn65 O71 2.114 . S
Zn65 O74 2.120 . S
Zn65 O76 2.120 . S
Zn65 O77 2.114 . S
Zn65 O80 2.080 . S
C66 O71 1.166 . S
C66 O72 1.182 . S
C67 O73 1.167 . S
C67 O74 1.299 . S
O68 Zn65 2.080 . S
O68 C82 1.305 1_554 S
O69 Zn63 1.920 1_556 S
O69 C82 1.234 . S
C70 O75 1.167 . S
C70 O76 1.299 . S
O71 Zn65 2.114 . S
O71 C66 1.166 . S
O72 Zn64 1.905 . S
O72 C66 1.182 . S
O73 Zn64 1.898 . S
O73 C67 1.167 . S
O74 Zn65 2.120 . S
O74 C67 1.299 . S
O75 Zn63 1.898 . S
O75 C70 1.167 . S
O76 Zn65 2.120 . S
O76 C70 1.299 . S
O77 Zn65 2.114 . S
O77 C79 1.166 . S
O78 Zn63 1.905 1_545 S
O78 C79 1.182 1_545 S
C79 O77 1.166 . S
C79 O78 1.182 1_565 S
O80 Zn65 2.080 . S
O80 C83 1.305 . S
O81 Zn64 1.920 . S
O81 C83 1.234 . S
C82 O68 1.305 1_556 S
C82 O69 1.234 . S
C83 O80 1.305 . S
C83 O81 1.234 . S
Zn84 O90 1.920 . S
Zn84 O96 1.898 . S
Zn84 O99 1.905 . S
Zn85 O93 1.905 . S
Zn85 O94 1.898 . S
Zn85 O102 1.920 . S
Zn86 O89 2.080 . S
Zn86 O92 2.114 . S
Zn86 O95 2.120 . S
Zn86 O97 2.120 . S
Zn86 O98 2.114 . S
Zn86 O101 2.080 . S
C87 O92 1.166 . S
C87 O93 1.182 . S
C88 O94 1.167 . S
C88 O95 1.299 . S
O89 Zn86 2.080 . S
O89 C103 1.305 . S
O90 Zn84 1.920 . S
O90 C103 1.234 . S
C91 O96 1.167 . S
C91 O97 1.299 . S
O92 Zn86 2.114 . S
O92 C87 1.166 . S
O93 Zn85 1.905 . S
O93 C87 1.182 . S
O94 Zn85 1.898 . S
O94 C88 1.167 . S
O95 Zn86 2.120 . S
O95 C88 1.299 . S
O96 Zn84 1.898 . S
O96 C91 1.167 . S
O97 Zn86 2.120 . S
O97 C91 1.299 . S
O98 Zn86 2.114 . S
O98 C100 1.166 . S
O99 Zn84 1.905 . S
O99 C100 1.182 . S
C100 O98 1.166 . S
C100 O99 1.182 . S
O101 Zn86 2.080 . S
O101 C104 1.305 . S
O102 Zn85 1.920 . S
O102 C104 1.234 . S
C103 O89 1.305 . S
C103 O90 1.234 . S
C104 O101 1.305 . S
C104 O102 1.234 . S
Zn105 O111 1.920 . S
Zn105 O117 1.898 1_556 S
Zn105 O120 1.905 1_455 S
Zn106 O114 1.905 . S
Zn106 O115 1.898 . S
Zn106 O123 1.920 . S
Zn107 O110 2.080 . S
Zn107 O113 2.114 . S
Zn107 O116 2.120 . S
Zn107 O118 2.120 . S
Zn107 O119 2.114 . S
Zn107 O122 2.080 . S
C108 O113 1.166 . S
C108 O114 1.182 . S
C109 O115 1.167 . S
C109 O116 1.299 . S
O110 Zn107 2.080 . S
O110 C124 1.305 . S
O111 Zn105 1.920 . S
O111 C124 1.234 . S
C112 O117 1.167 . S
C112 O118 1.299 1_554 S
O113 Zn107 2.114 . S
O113 C108 1.166 . S
O114 Zn106 1.905 . S
O114 C108 1.182 . S
O115 Zn106 1.898 . S
O115 C109 1.167 . S
O116 Zn107 2.120 . S
O116 C109 1.299 . S
O117 Zn105 1.898 1_554 S
O117 C112 1.167 . S
O118 Zn107 2.120 . S
O118 C112 1.299 1_556 S
O119 Zn107 2.114 . S
O119 C121 1.166 . S
O120 Zn105 1.905 1_655 S
O120 C121 1.182 1_655 S
C121 O119 1.166 . S
C121 O120 1.182 1_455 S
O122 Zn107 2.080 . S
O122 C125 1.305 . S
O123 Zn106 1.920 . S
O123 C125 1.234 . S
C124 O110 1.305 . S
C124 O111 1.234 . S
C125 O122 1.305 . S
C125 O123 1.234 . S
Zn126 O132 1.920 . S
Zn126 O138 1.898 . S
Zn126 O141 1.905 . S
Zn127 O135 1.905 . S
Zn127 O136 1.898 . S
Zn127 O144 1.920 . S
Zn128 O131 2.080 . S
Zn128 O134 2.114 . S
Zn128 O137 2.120 . S
Zn128 O139 2.120 . S
Zn128 O140 2.114 . S
Zn128 O143 2.080 . S
C129 O134 1.166 . S
C129 O135 1.182 . S
C130 O136 1.167 . S
C130 O137 1.299 . S
O131 Zn128 2.080 . S
O131 C145 1.305 . S
O132 Zn126 1.920 . S
O132 C145 1.234 . S
C133 O138 1.167 . S
C133 O139 1.299 . S
O134 Zn128 2.114 . S
O134 C129 1.166 . S
O135 Zn127 1.905 . S
O135 C129 1.182 . S
O136 Zn127 1.898 . S
O136 C130 1.167 . S
O137 Zn128 2.120 . S
O137 C130 1.299 . S
O138 Zn126 1.898 . S
O138 C133 1.167 . S
O139 Zn128 2.120 . S
O139 C133 1.299 . S
O140 Zn128 2.114 . S
O140 C142 1.166 . S
O141 Zn126 1.905 . S
O141 C142 1.182 . S
C142 O140 1.166 . S
C142 O141 1.182 . S
O143 Zn128 2.080 . S
O143 C146 1.305 . S
O144 Zn127 1.920 . S
O144 C146 1.234 . S
C145 O131 1.305 . S
C145 O132 1.234 . S
C146 O143 1.305 . S
C146 O144 1.234 . S
Zn147 O153 1.920 1_565 S
Zn147 O159 1.898 1_556 S
Zn147 O162 1.905 1_655 S
Zn148 O156 1.905 . S
Zn148 O157 1.898 . S
Zn148 O165 1.920 . S
Zn149 O152 2.080 . S
Zn149 O155 2.114 . S
Zn149 O158 2.120 . S
Zn149 O160 2.120 . S
Zn149 O161 2.114 . S
Zn149 O164 2.080 . S
C150 O155 1.166 . S
C150 O156 1.182 . S
C151 O157 1.167 . S
C151 O158 1.299 . S
O152 Zn149 2.080 . S
O152 C166 1.305 1_565 S
O153 Zn147 1.920 1_545 S
O153 C166 1.234 . S
C154 O159 1.167 . S
C154 O160 1.299 1_554 S
O155 Zn149 2.114 . S
O155 C150 1.166 . S
O156 Zn148 1.905 . S
O156 C150 1.182 . S
O157 Zn148 1.898 . S
O157 C151 1.167 . S
O158 Zn149 2.120 . S
O158 C151 1.299 . S
O159 Zn147 1.898 1_554 S
O159 C154 1.167 . S
O160 Zn149 2.120 . S
O160 C154 1.299 1_556 S
O161 Zn149 2.114 . S
O161 C163 1.166 1_655 S
O162 Zn147 1.905 1_455 S
O162 C163 1.182 . S
C163 O161 1.166 1_455 S
C163 O162 1.182 . S
O164 Zn149 2.080 . S
O164 C167 1.305 . S
O165 Zn148 1.920 . S
O165 C167 1.234 . S
C166 O152 1.305 1_545 S
C166 O153 1.234 . S
C167 O164 1.305 . S
C167 O165 1.234 . S
Zn168 O174 1.920 . S
Zn168 O180 1.898 . S
Zn168 O183 1.905 . S
Zn169 O177 1.905 . S
Zn169 O178 1.898 . S
Zn169 O186 1.920 . S
Zn170 O173 2.080 . S
Zn170 O176 2.114 . S
Zn170 O179 2.120 . S
Zn170 O181 2.120 . S
Zn170 O182 2.114 . S
Zn170 O185 2.080 . S
C171 O176 1.166 . S
C171 O177 1.182 . S
C172 O178 1.167 . S
C172 O179 1.299 . S
O173 Zn170 2.080 . S
O173 C187 1.305 . S
O174 Zn168 1.920 . S
O174 C187 1.234 . S
C175 O180 1.167 . S
C175 O181 1.299 . S
O176 Zn170 2.114 . S
O176 C171 1.166 . S
O177 Zn169 1.905 . S
O177 C171 1.182 . S
O178 Zn169 1.898 . S
O178 C172 1.167 . S
O179 Zn170 2.120 . S
O179 C172 1.299 . S
O180 Zn168 1.898 . S
O180 C175 1.167 . S
O181 Zn170 2.120 . S
O181 C175 1.299 . S
O182 Zn170 2.114 . S
O182 C184 1.166 . S
O183 Zn168 1.905 . S
O183 C184 1.182 . S
C184 O182 1.166 . S
C184 O183 1.182 . S
O185 Zn170 2.080 . S
O185 C188 1.305 . S
O186 Zn169 1.920 . S
O186 C188 1.234 . S
C187 O173 1.305 . S
C187 O174 1.234 . S
C188 O185 1.305 . S
C188 O186 1.234 . S
Zn189 O195 1.920 . S
Zn189 O201 1.898 . S
Zn189 O204 1.905 . S
Zn190 O198 1.905 . S
Zn190 O199 1.898 . S
Zn190 O207 1.920 . S
Zn191 O194 2.080 . S
Zn191 O197 2.114 . S
Zn191 O200 2.120 . S
Zn191 O202 2.120 . S
Zn191 O203 2.114 . S
Zn191 O206 2.080 . S
C192 O197 1.166 . S
C192 O198 1.182 . S
C193 O199 1.167 . S
C193 O200 1.299 . S
O194 Zn191 2.080 . S
O194 C208 1.305 . S
O195 Zn189 1.920 . S
O195 C208 1.234 . S
C196 O201 1.167 . S
C196 O202 1.299 . S
O197 Zn191 2.114 . S
O197 C192 1.166 . S
O198 Zn190 1.905 . S
O198 C192 1.182 . S
O199 Zn190 1.898 . S
O199 C193 1.167 . S
O200 Zn191 2.120 . S
O200 C193 1.299 . S
O201 Zn189 1.898 . S
O201 C196 1.167 . S
O202 Zn191 2.120 . S
O202 C196 1.299 . S
O203 Zn191 2.114 . S
O203 C205 1.166 . S
O204 Zn189 1.905 . S
O204 C205 1.182 . S
C205 O203 1.166 . S
C205 O204 1.182 . S
O206 Zn191 2.080 . S
O206 C209 1.305 . S
O207 Zn190 1.920 . S
O207 C209 1.234 . S
C208 O194 1.305 . S
C208 O195 1.234 . S
C209 O206 1.305 . S
C209 O207 1.234 . S
Zn210 O216 1.920 . S
Zn210 O222 1.898 1_455 S
Zn210 O225 1.905 . S
Zn211 O219 1.905 . S
Zn211 O220 1.898 . S
Zn211 O228 1.920 . S
Zn212 O215 2.080 . S
Zn212 O218 2.114 . S
Zn212 O221 2.120 . S
Zn212 O223 2.120 . S
Zn212 O224 2.114 . S
Zn212 O227 2.080 . S
C213 O218 1.166 . S
C213 O219 1.182 . S
C214 O220 1.167 . S
C214 O221 1.299 . S
O215 Zn212 2.080 . S
O215 C229 1.305 . S
O216 Zn210 1.920 . S
O216 C229 1.234 . S
C217 O222 1.167 . S
C217 O223 1.299 1_655 S
O218 Zn212 2.114 . S
O218 C213 1.166 . S
O219 Zn211 1.905 . S
O219 C213 1.182 . S
O220 Zn211 1.898 . S
O220 C214 1.167 . S
O221 Zn212 2.120 . S
O221 C214 1.299 . S
O222 Zn210 1.898 1_655 S
O222 C217 1.167 . S
O223 Zn212 2.120 . S
O223 C217 1.299 1_455 S
O224 Zn212 2.114 . S
O224 C226 1.166 . S
O225 Zn210 1.905 . S
O225 C226 1.182 . S
C226 O224 1.166 . S
C226 O225 1.182 . S
O227 Zn212 2.080 . S
O227 C230 1.305 . S
O228 Zn211 1.920 . S
O228 C230 1.234 . S
C229 O215 1.305 . S
C229 O216 1.234 . S
C230 O227 1.305 . S
C230 O228 1.234 . S
Zn231 O237 1.920 . S
Zn231 O243 1.898 1_655 S
Zn231 O246 1.905 1_545 S
Zn232 O240 1.905 . S
Zn232 O241 1.898 . S
Zn232 O249 1.920 . S
Zn233 O236 2.080 . S
Zn233 O239 2.114 . S
Zn233 O242 2.120 . S
Zn233 O244 2.120 . S
Zn233 O245 2.114 . S
Zn233 O248 2.080 . S
C234 O239 1.166 . S
C234 O240 1.182 . S
C235 O241 1.167 . S
C235 O242 1.299 . S
O236 Zn233 2.080 . S
O236 C250 1.305 . S
O237 Zn231 1.920 . S
O237 C250 1.234 . S
C238 O243 1.167 . S
C238 O244 1.299 1_455 S
O239 Zn233 2.114 . S
O239 C234 1.166 . S
O240 Zn232 1.905 . S
O240 C234 1.182 . S
O241 Zn232 1.898 . S
O241 C235 1.167 . S
O242 Zn233 2.120 . S
O242 C235 1.299 . S
O243 Zn231 1.898 1_455 S
O243 C238 1.167 . S
O244 Zn233 2.120 . S
O244 C238 1.299 1_655 S
O245 Zn233 2.114 . S
O245 C247 1.166 . S
O246 Zn231 1.905 1_565 S
O246 C247 1.182 1_565 S
C247 O245 1.166 . S
C247 O246 1.182 1_545 S
O248 Zn233 2.080 . S
O248 C251 1.305 . S
O249 Zn232 1.920 . S
O249 C251 1.234 . S
C250 O236 1.305 . S
C250 O237 1.234 . S
C251 O248 1.305 . S
C251 O249 1.234 . S
Zn252 O258 1.920 . S
Zn252 O264 1.898 . S
Zn252 O267 1.905 . S
Zn253 O261 1.905 . S
Zn253 O262 1.898 . S
Zn253 O270 1.920 . S
Zn254 O257 2.080 . S
Zn254 O260 2.114 . S
Zn254 O263 2.120 . S
Zn254 O265 2.120 . S
Zn254 O266 2.114 . S
Zn254 O269 2.080 . S
C255 O260 1.166 . S
C255 O261 1.182 . S
C256 O262 1.167 . S
C256 O263 1.299 . S
O257 Zn254 2.080 . S
O257 C271 1.305 . S
O258 Zn252 1.920 . S
O258 C271 1.234 . S
C259 O264 1.167 . S
C259 O265 1.299 . S
O260 Zn254 2.114 . S
O260 C255 1.166 . S
O261 Zn253 1.905 . S
O261 C255 1.182 . S
O262 Zn253 1.898 . S
O262 C256 1.167 . S
O263 Zn254 2.120 . S
O263 C256 1.299 . S
O264 Zn252 1.898 . S
O264 C259 1.167 . S
O265 Zn254 2.120 . S
O265 C259 1.299 . S
O266 Zn254 2.114 . S
O266 C268 1.166 . S
O267 Zn252 1.905 . S
O267 C268 1.182 . S
C268 O266 1.166 . S
C268 O267 1.182 . S
O269 Zn254 2.080 . S
O269 C272 1.305 . S
O270 Zn253 1.920 . S
O270 C272 1.234 . S
C271 O257 1.305 . S
C271 O258 1.234 . S
C272 O269 1.305 . S
C272 O270 1.234 . S
Zn273 O279 1.920 . S
Zn273 O285 1.898 . S
Zn273 O288 1.905 . S
Zn274 O282 1.905 . S
Zn274 O283 1.898 . S
Zn274 O291 1.920 . S
Zn275 O278 2.080 . S
Zn275 O281 2.114 . S
Zn275 O284 2.120 . S
Zn275 O286 2.120 . S
Zn275 O287 2.114 . S
Zn275 O290 2.080 . S
C276 O281 1.166 . S
C276 O282 1.182 . S
C277 O283 1.167 . S
C277 O284 1.299 . S
O278 Zn275 2.080 . S
O278 C292 1.305 . S
O279 Zn273 1.920 . S
O279 C292 1.234 . S
C280 O285 1.167 . S
C280 O286 1.299 . S
O281 Zn275 2.114 . S
O281 C276 1.166 . S
O282 Zn274 1.905 . S
O282 C276 1.182 . S
O283 Zn274 1.898 . S
O283 C277 1.167 . S
O284 Zn275 2.120 . S
O284 C277 1.299 . S
O285 Zn273 1.898 . S
O285 C280 1.167 . S
O286 Zn275 2.120 . S
O286 C280 1.299 . S
O287 Zn275 2.114 . S
O287 C289 1.166 . S
O288 Zn273 1.905 . S
O288 C289 1.182 . S
C289 O287 1.166 . S
C289 O288 1.182 . S
O290 Zn275 2.080 . S
O290 C293 1.305 . S
O291 Zn274 1.920 . S
O291 C293 1.234 . S
C292 O278 1.305 . S
C292 O279 1.234 . S
C293 O290 1.305 . S
C293 O291 1.234 . S
Zn294 O300 1.920 . S
Zn294 O306 1.898 . S
Zn294 O309 1.905 . S
Zn295 O303 1.905 . S
Zn295 O304 1.898 . S
Zn295 O312 1.920 1_545 S
Zn296 O299 2.080 . S
Zn296 O302 2.114 . S
Zn296 O305 2.120 . S
Zn296 O307 2.120 . S
Zn296 O308 2.114 . S
Zn296 O311 2.080 . S
C297 O302 1.166 . S
C297 O303 1.182 . S
C298 O304 1.167 . S
C298 O305 1.299 . S
O299 Zn296 2.080 . S
O299 C313 1.305 . S
O300 Zn294 1.920 . S
O300 C313 1.234 . S
C301 O306 1.167 . S
C301 O307 1.299 . S
O302 Zn296 2.114 . S
O302 C297 1.166 . S
O303 Zn295 1.905 . S
O303 C297 1.182 . S
O304 Zn295 1.898 . S
O304 C298 1.167 . S
O305 Zn296 2.120 . S
O305 C298 1.299 . S
O306 Zn294 1.898 . S
O306 C301 1.167 . S
O307 Zn296 2.120 . S
O307 C301 1.299 . S
O308 Zn296 2.114 . S
O308 C310 1.166 . S
O309 Zn294 1.905 . S
O309 C310 1.182 . S
C310 O308 1.166 . S
C310 O309 1.182 . S
O311 Zn296 2.080 . S
O311 C314 1.305 1_545 S
O312 Zn295 1.920 1_565 S
O312 C314 1.234 . S
C313 O299 1.305 . S
C313 O300 1.234 . S
C314 O311 1.305 1_565 S
C314 O312 1.234 . S
Zn315 O321 1.920 . S
Zn315 O327 1.898 . S
Zn315 O330 1.905 . S
Zn316 O324 1.905 . S
Zn316 O325 1.898 . S
Zn316 O333 1.920 . S
Zn317 O320 2.080 . S
Zn317 O323 2.114 . S
Zn317 O326 2.120 . S
Zn317 O328 2.120 . S
Zn317 O329 2.114 . S
Zn317 O332 2.080 . S
C318 O323 1.166 . S
C318 O324 1.182 . S
C319 O325 1.167 . S
C319 O326 1.299 . S
O320 Zn317 2.080 . S
O320 C334 1.305 . S
O321 Zn315 1.920 . S
O321 C334 1.234 . S
C322 O327 1.167 . S
C322 O328 1.299 . S
O323 Zn317 2.114 . S
O323 C318 1.166 . S
O324 Zn316 1.905 . S
O324 C318 1.182 . S
O325 Zn316 1.898 . S
O325 C319 1.167 . S
O326 Zn317 2.120 . S
O326 C319 1.299 . S
O327 Zn315 1.898 . S
O327 C322 1.167 . S
O328 Zn317 2.120 . S
O328 C322 1.299 . S
O329 Zn317 2.114 . S
O329 C331 1.166 . S
O330 Zn315 1.905 . S
O330 C331 1.182 . S
C331 O329 1.166 . S
C331 O330 1.182 . S
O332 Zn317 2.080 . S
O332 C335 1.305 . S
O333 Zn316 1.920 . S
O333 C335 1.234 . S
C334 O320 1.305 . S
C334 O321 1.234 . S
C335 O332 1.305 . S
C335 O333 1.234 . S
C336 O348 1.241 1_554 S
C336 O349 1.280 1_554 S
C337 O350 1.277 . S
C337 O351 1.245 . S
C338 O362 1.247 . S
C338 O364 1.289 . S
Mg339 O340 1.926 1_455 S
Mg339 O349 1.984 1_455 S
Mg339 O351 1.988 . S
Mg339 O352 2.057 1_455 S
O340 Mg339 1.926 1_655 S
O340 Mg341 1.986 . S
O340 Mg342 1.917 1_655 S
Mg341 O340 1.986 . S
Mg341 O348 2.042 . S
Mg341 O350 2.041 1_655 S
Mg341 O356 2.038 . S
Mg341 O364 2.238 1_655 S
Mg342 O340 1.917 1_455 S
Mg342 O343 1.917 . S
Mg342 O353 2.106 1_455 S
Mg342 O355 2.079 1_455 S
Mg342 O364 2.106 . S
Mg342 O365 2.079 . S
O343 Mg342 1.917 . S
O343 Mg344 1.926 1_455 S
O343 Mg345 1.986 . S
Mg344 O343 1.926 1_655 S
Mg344 O358 1.984 1_655 S
Mg344 O361 1.988 . S
Mg344 O362 2.061 1_655 S
Mg345 O343 1.986 . S
Mg345 O353 2.238 1_455 S
Mg345 O357 2.042 . S
Mg345 O359 2.041 1_455 S
Mg345 O366 2.038 . S
C346 O352 1.255 . S
C346 O353 1.289 . S
C347 O365 1.245 . S
C347 O366 1.274 . S
O348 C336 1.241 1_556 S
O348 Mg341 2.042 . S
O349 C336 1.280 1_556 S
O349 Mg339 1.984 1_655 S
O350 C337 1.277 . S
O350 Mg341 2.041 1_455 S
O351 C337 1.245 . S
O351 Mg339 1.988 . S
O352 Mg339 2.057 1_655 S
O352 C346 1.255 . S
O353 Mg342 2.106 1_655 S
O353 Mg345 2.238 1_655 S
O353 C346 1.289 . S
C354 O355 1.245 . S
C354 O356 1.274 . S
O355 Mg342 2.079 1_655 S
O355 C354 1.245 . S
O356 Mg341 2.038 . S
O356 C354 1.274 . S
O357 Mg345 2.042 . S
O357 C360 1.241 . S
O358 Mg344 1.984 1_455 S
O358 C360 1.280 . S
O359 Mg345 2.041 1_655 S
O359 C363 1.277 . S
C360 O357 1.241 . S
C360 O358 1.280 . S
O361 Mg344 1.988 . S
O361 C363 1.245 . S
O362 C338 1.247 . S
O362 Mg344 2.061 1_455 S
C363 O359 1.277 . S
C363 O361 1.245 . S
O364 C338 1.289 . S
O364 Mg341 2.238 1_455 S
O364 Mg342 2.106 . S
O365 Mg342 2.079 . S
O365 C347 1.245 . S
O366 Mg345 2.038 . S
O366 C347 1.274 . S
C367 O379 1.241 . S
C367 O380 1.280 . S
C368 O381 1.277 . S
C368 O382 1.245 . S
C369 O393 1.247 . S
C369 O395 1.289 . S
Mg370 O371 1.926 . S
Mg370 O380 1.984 . S
Mg370 O382 1.988 . S
Mg370 O383 2.061 . S
O371 Mg370 1.926 . S
O371 Mg372 1.986 . S
O371 Mg373 1.917 . S
Mg372 O371 1.986 . S
Mg372 O379 2.042 . S
Mg372 O381 2.041 . S
Mg372 O387 2.038 . S
Mg372 O395 2.238 . S
Mg373 O371 1.917 . S
Mg373 O374 1.917 . S
Mg373 O384 2.106 . S
Mg373 O386 2.079 . S
Mg373 O395 2.106 . S
Mg373 O396 2.079 . S
O374 Mg373 1.917 . S
O374 Mg375 1.926 . S
O374 Mg376 1.986 . S
Mg375 O374 1.926 . S
Mg375 O389 1.984 . S
Mg375 O392 1.988 . S
Mg375 O393 2.061 . S
Mg376 O374 1.986 . S
Mg376 O384 2.238 . S
Mg376 O388 2.042 . S
Mg376 O390 2.041 . S
Mg376 O397 2.038 . S
C377 O383 1.247 . S
C377 O384 1.289 . S
C378 O396 1.245 . S
C378 O397 1.274 . S
O379 C367 1.241 . S
O379 Mg372 2.042 . S
O380 C367 1.280 . S
O380 Mg370 1.984 . S
O381 C368 1.277 . S
O381 Mg372 2.041 . S
O382 C368 1.245 . S
O382 Mg370 1.988 . S
O383 Mg370 2.061 . S
O383 C377 1.247 . S
O384 Mg373 2.106 . S
O384 Mg376 2.238 . S
O384 C377 1.289 . S
C385 O386 1.245 . S
C385 O387 1.274 . S
O386 Mg373 2.079 . S
O386 C385 1.245 . S
O387 Mg372 2.038 . S
O387 C385 1.274 . S
O388 Mg376 2.042 . S
O388 C391 1.241 . S
O389 Mg375 1.984 . S
O389 C391 1.280 . S
O390 Mg376 2.041 . S
O390 C394 1.277 . S
C391 O388 1.241 . S
C391 O389 1.280 . S
O392 Mg375 1.988 . S
O392 C394 1.245 . S
O393 C369 1.247 . S
O393 Mg375 2.061 . S
C394 O390 1.277 . S
C394 O392 1.245 . S
O395 C369 1.289 . S
O395 Mg372 2.238 . S
O395 Mg373 2.106 . S
O396 Mg373 2.079 . S
O396 C378 1.245 . S
O397 Mg376 2.038 . S
O397 C378 1.274 . S
C398 O410 1.241 . S
C398 O411 1.280 . S
C399 O412 1.277 . S
C399 O413 1.245 . S
C400 O424 1.247 . S
C400 O426 1.289 . S
Mg401 O402 1.926 1_455 S
Mg401 O411 1.984 1_455 S
Mg401 O413 1.988 . S
Mg401 O414 2.061 . S
O402 Mg401 1.926 1_655 S
O402 Mg403 1.986 . S
O402 Mg404 1.917 1_655 S
Mg403 O402 1.986 . S
Mg403 O410 2.042 . S
Mg403 O412 2.041 1_655 S
Mg403 O418 2.038 . S
Mg403 O426 2.238 1_655 S
Mg404 O402 1.917 1_455 S
Mg404 O405 1.917 . S
Mg404 O415 2.104 1_455 S
Mg404 O417 2.079 1_455 S
Mg404 O426 2.106 . S
Mg404 O427 2.079 . S
O405 Mg404 1.917 . S
O405 Mg406 1.926 1_455 S
O405 Mg407 1.986 . S
Mg406 O405 1.926 1_655 S
Mg406 O420 1.984 1_655 S
Mg406 O423 1.988 . S
Mg406 O424 2.061 1_655 S
Mg407 O405 1.986 . S
Mg407 O415 2.224 1_455 S
Mg407 O419 2.042 . S
Mg407 O421 2.041 1_455 S
Mg407 O428 2.038 . S
C408 O414 1.247 1_655 S
C408 O415 1.294 . S
C409 O427 1.245 . S
C409 O428 1.274 . S
O410 C398 1.241 . S
O410 Mg403 2.042 . S
O411 C398 1.280 . S
O411 Mg401 1.984 1_655 S
O412 C399 1.277 . S
O412 Mg403 2.041 1_455 S
O413 C399 1.245 . S
O413 Mg401 1.988 . S
O414 Mg401 2.061 . S
O414 C408 1.247 1_455 S
O415 Mg404 2.104 1_655 S
O415 Mg407 2.224 1_655 S
O415 C408 1.294 . S
C416 O417 1.245 . S
C416 O418 1.274 . S
O417 Mg404 2.079 1_655 S
O417 C416 1.245 . S
O418 Mg403 2.038 . S
O418 C416 1.274 . S
O419 Mg407 2.042 . S
O419 C422 1.241 . S
O420 Mg406 1.984 1_455 S
O420 C422 1.280 . S
O421 Mg407 2.041 1_655 S
O421 C425 1.277 . S
C422 O419 1.241 . S
C422 O420 1.280 . S
O423 Mg406 1.988 . S
O423 C425 1.245 . S
O424 C400 1.247 . S
O424 Mg406 2.061 1_455 S
C425 O421 1.277 . S
C425 O423 1.245 . S
O426 C400 1.289 . S
O426 Mg403 2.238 1_455 S
O426 Mg404 2.106 . S
O427 Mg404 2.079 . S
O427 C409 1.245 . S
O428 Mg407 2.038 . S
O428 C409 1.274 . S
C429 O441 1.241 1_455 S
C429 O442 1.280 1_455 S
C430 O443 1.277 . S
C430 O444 1.245 . S
C431 O455 1.247 . S
C431 O457 1.289 . S
Mg432 O433 1.926 1_565 S
Mg432 O442 1.984 1_565 S
Mg432 O444 1.988 . S
Mg432 O445 2.061 1_565 S
O433 Mg432 1.926 1_545 S
O433 Mg434 1.986 . S
O433 Mg435 1.923 . S
Mg434 O433 1.986 . S
Mg434 O441 2.042 . S
Mg434 O443 2.041 1_545 S
Mg434 O449 2.038 . S
Mg434 O457 2.238 1_545 S
Mg435 O433 1.923 . S
Mg435 O436 1.911 1_545 S
Mg435 O446 2.109 . S
Mg435 O448 2.108 . S
Mg435 O457 2.104 1_545 S
Mg435 O458 2.049 1_545 S
O436 Mg435 1.911 1_565 S
O436 Mg437 1.926 1_565 S
O436 Mg438 1.986 . S
Mg437 O436 1.926 1_545 S
Mg437 O451 1.984 1_545 S
Mg437 O454 1.988 . S
Mg437 O455 2.061 1_545 S
Mg438 O436 1.986 . S
Mg438 O446 2.238 1_565 S
Mg438 O450 2.042 . S
Mg438 O452 2.041 1_565 S
Mg438 O459 2.038 . S
C439 O445 1.247 . S
C439 O446 1.289 . S
C440 O458 1.245 . S
C440 O459 1.274 . S
O441 C429 1.241 1_655 S
O441 Mg434 2.042 . S
O442 C429 1.280 1_655 S
O442 Mg432 1.984 1_545 S
O443 C430 1.277 . S
O443 Mg434 2.041 1_565 S
O444 C430 1.245 . S
O444 Mg432 1.988 . S
O445 Mg432 2.061 1_545 S
O445 C439 1.247 . S
O446 Mg435 2.109 . S
O446 Mg438 2.238 1_545 S
O446 C439 1.289 . S
C447 O448 1.245 . S
C447 O449 1.274 . S
O448 Mg435 2.108 . S
O448 C447 1.245 . S
O449 Mg434 2.038 . S
O449 C447 1.274 . S
O450 Mg438 2.042 . S
O450 C453 1.241 . S
O451 Mg437 1.984 1_565 S
O451 C453 1.280 . S
O452 Mg438 2.041 1_545 S
O452 C456 1.277 . S
C453 O450 1.241 . S
C453 O451 1.280 . S
O454 Mg437 1.988 . S
O454 C456 1.245 . S
O455 C431 1.247 . S
O455 Mg437 2.061 1_565 S
C456 O452 1.277 . S
C456 O454 1.245 . S
O457 C431 1.289 . S
O457 Mg434 2.238 1_565 S
O457 Mg435 2.104 1_565 S
O458 Mg435 2.049 1_565 S
O458 C440 1.245 . S
O459 Mg438 2.038 . S
O459 C440 1.274 . S
C460 O472 1.241 1_545 S
C460 O473 1.280 1_545 S
C461 O474 1.277 . S
C461 O475 1.245 . S
C462 O486 1.247 . S
C462 O488 1.289 . S
Mg463 O464 1.926 1_554 S
Mg463 O473 1.984 1_554 S
Mg463 O475 1.988 . S
Mg463 O476 2.061 . S
O464 Mg463 1.926 1_556 S
O464 Mg465 1.986 . S
O464 Mg466 1.917 1_556 S
Mg465 O464 1.986 . S
Mg465 O472 2.042 . S
Mg465 O474 2.041 1_556 S
Mg465 O480 2.038 . S
Mg465 O488 2.238 . S
Mg466 O464 1.917 1_554 S
Mg466 O467 1.917 . S
Mg466 O477 2.106 . S
Mg466 O479 2.079 1_554 S
Mg466 O488 2.106 1_554 S
Mg466 O489 2.079 . S
O467 Mg466 1.917 . S
O467 Mg468 1.926 1_554 S
O467 Mg469 1.986 . S
Mg468 O467 1.926 1_556 S
Mg468 O482 1.984 1_556 S
Mg468 O485 1.988 . S
Mg468 O486 2.061 . S
Mg469 O467 1.986 . S
Mg469 O477 2.238 . S
Mg469 O481 2.042 . S
Mg469 O483 2.041 . S
Mg469 O490 2.038 . S
C470 O476 1.247 . S
C470 O477 1.289 . S
C471 O489 1.245 . S
C471 O490 1.274 . S
O472 C460 1.241 1_565 S
O472 Mg465 2.042 . S
O473 C460 1.280 1_565 S
O473 Mg463 1.984 1_556 S
O474 C461 1.277 . S
O474 Mg465 2.041 1_554 S
O475 C461 1.245 . S
O475 Mg463 1.988 . S
O476 Mg463 2.061 . S
O476 C470 1.247 . S
O477 Mg466 2.106 . S
O477 Mg469 2.238 . S
O477 C470 1.289 . S
C478 O479 1.245 . S
C478 O480 1.274 . S
O479 Mg466 2.079 1_556 S
O479 C478 1.245 . S
O480 Mg465 2.038 . S
O480 C478 1.274 . S
O481 Mg469 2.042 . S
O481 C484 1.241 . S
O482 Mg468 1.984 1_554 S
O482 C484 1.280 . S
O483 Mg469 2.041 . S
O483 C487 1.277 1_554 S
C484 O481 1.241 . S
C484 O482 1.280 . S
O485 Mg468 1.988 . S
O485 C487 1.245 . S
O486 C462 1.247 . S
O486 Mg468 2.061 . S
C487 O483 1.277 1_556 S
C487 O485 1.245 . S
O488 C462 1.289 . S
O488 Mg465 2.238 . S
O488 Mg466 2.106 1_556 S
O489 Mg466 2.079 . S
O489 C471 1.245 . S
O490 Mg469 2.038 . S
O490 C471 1.274 . S
C491 O503 1.241 . S
C491 O504 1.280 . S
C492 O505 1.277 . S
C492 O506 1.245 . S
C493 O517 1.247 . S
C493 O519 1.289 . S
Mg494 O495 1.926 . S
Mg494 O504 1.984 . S
Mg494 O506 1.988 . S
Mg494 O507 2.061 . S
O495 Mg494 1.926 . S
O495 Mg496 1.986 . S
O495 Mg497 1.917 . S
Mg496 O495 1.986 . S
Mg496 O503 2.042 . S
Mg496 O505 2.041 . S
Mg496 O511 2.038 . S
Mg496 O519 2.238 . S
Mg497 O495 1.917 . S
Mg497 O498 1.917 . S
Mg497 O508 2.106 . S
Mg497 O510 2.079 . S
Mg497 O519 2.106 . S
Mg497 O520 2.079 . S
O498 Mg497 1.917 . S
O498 Mg499 1.926 . S
O498 Mg500 1.986 . S
Mg499 O498 1.926 . S
Mg499 O513 1.984 . S
Mg499 O516 1.988 . S
Mg499 O517 2.061 . S
Mg500 O498 1.986 . S
Mg500 O508 2.238 . S
Mg500 O512 2.042 . S
Mg500 O514 2.041 . S
Mg500 O521 2.038 . S
C501 O507 1.247 . S
C501 O508 1.289 . S
C502 O520 1.245 . S
C502 O521 1.274 . S
O503 C491 1.241 . S
O503 Mg496 2.042 . S
O504 C491 1.280 . S
O504 Mg494 1.984 . S
O505 C492 1.277 . S
O505 Mg496 2.041 . S
O506 C492 1.245 . S
O506 Mg494 1.988 . S
O507 Mg494 2.061 . S
O507 C501 1.247 . S
O508 Mg497 2.106 . S
O508 Mg500 2.238 . S
O508 C501 1.289 . S
C509 O510 1.245 . S
C509 O511 1.274 . S
O510 Mg497 2.079 . S
O510 C509 1.245 . S
O511 Mg496 2.038 . S
O511 C509 1.274 . S
O512 Mg500 2.042 . S
O512 C515 1.241 . S
O513 Mg499 1.984 . S
O513 C515 1.280 . S
O514 Mg500 2.041 . S
O514 C518 1.277 . S
C515 O512 1.241 . S
C515 O513 1.280 . S
O516 Mg499 1.988 . S
O516 C518 1.245 . S
O517 C493 1.247 . S
O517 Mg499 2.061 . S
C518 O514 1.277 . S
C518 O516 1.245 . S
O519 C493 1.289 . S
O519 Mg496 2.238 . S
O519 Mg497 2.106 . S
O520 Mg497 2.079 . S
O520 C502 1.245 . S
O521 Mg500 2.038 . S
O521 C502 1.274 . S
C522 O534 1.241 . S
C522 O535 1.280 . S
C523 O536 1.277 . S
C523 O537 1.245 . S
C524 O548 1.241 1_556 S
C524 O550 1.289 . S
Mg525 O526 1.926 1_556 S
Mg525 O535 1.984 1_556 S
Mg525 O537 1.988 . S
Mg525 O538 2.064 . S
O526 Mg525 1.926 1_554 S
O526 Mg527 1.986 . S
O526 Mg528 1.917 . S
Mg527 O526 1.986 . S
Mg527 O534 2.042 . S
Mg527 O536 2.041 1_554 S
Mg527 O542 2.038 . S
Mg527 O550 2.238 1_554 S
Mg528 O526 1.917 . S
Mg528 O529 1.917 1_554 S
Mg528 O539 2.106 . S
Mg528 O541 2.079 . S
Mg528 O550 2.106 1_554 S
Mg528 O551 2.079 1_554 S
O529 Mg528 1.917 1_556 S
O529 Mg530 1.926 1_556 S
O529 Mg531 1.986 . S
Mg530 O529 1.926 1_554 S
Mg530 O544 1.984 1_554 S
Mg530 O547 1.988 . S
Mg530 O548 2.065 . S
Mg531 O529 1.986 . S
Mg531 O539 2.238 1_556 S
Mg531 O543 2.042 . S
Mg531 O545 2.041 1_556 S
Mg531 O552 2.038 . S
C532 O538 1.243 1_554 S
C532 O539 1.289 . S
C533 O551 1.245 . S
C533 O552 1.274 . S
O534 C522 1.241 . S
O534 Mg527 2.042 . S
O535 C522 1.280 . S
O535 Mg525 1.984 1_554 S
O536 C523 1.277 . S
O536 Mg527 2.041 1_556 S
O537 C523 1.245 . S
O537 Mg525 1.988 . S
O538 Mg525 2.064 . S
O538 C532 1.243 1_556 S
O539 Mg528 2.106 . S
O539 Mg531 2.238 1_554 S
O539 C532 1.289 . S
C540 O541 1.245 . S
C540 O542 1.274 . S
O541 Mg528 2.079 . S
O541 C540 1.245 . S
O542 Mg527 2.038 . S
O542 C540 1.274 . S
O543 Mg531 2.042 . S
O543 C546 1.241 . S
O544 Mg530 1.984 1_556 S
O544 C546 1.280 . S
O545 Mg531 2.041 1_554 S
O545 C549 1.277 . S
C546 O543 1.241 . S
C546 O544 1.280 . S
O547 Mg530 1.988 . S
O547 C549 1.245 . S
O548 C524 1.241 1_554 S
O548 Mg530 2.065 . S
C549 O545 1.277 . S
C549 O547 1.245 . S
O550 C524 1.289 . S
O550 Mg527 2.238 1_556 S
O550 Mg528 2.106 1_556 S
O551 Mg528 2.079 1_556 S
O551 C533 1.245 . S
O552 Mg531 2.038 . S
O552 C533 1.274 . S
C553 O565 1.241 1_565 S
C553 O566 1.280 1_565 S
C554 O567 1.277 . S
C554 O568 1.245 . S
C555 O579 1.247 . S
C555 O581 1.289 . S
Mg556 O557 1.926 . S
Mg556 O566 1.984 . S
Mg556 O568 1.988 . S
Mg556 O569 2.061 . S
O557 Mg556 1.926 . S
O557 Mg558 1.986 . S
O557 Mg559 1.917 . S
Mg558 O557 1.986 . S
Mg558 O565 2.042 . S
Mg558 O567 2.041 . S
Mg558 O573 2.038 . S
Mg558 O581 2.238 . S
Mg559 O557 1.917 . S
Mg559 O560 1.917 . S
Mg559 O570 2.106 . S
Mg559 O572 2.079 . S
Mg559 O581 2.106 . S
Mg559 O582 2.079 . S
O560 Mg559 1.917 . S
O560 Mg561 1.926 . S
O560 Mg562 1.986 . S
Mg561 O560 1.926 . S
Mg561 O575 1.984 . S
Mg561 O578 1.988 . S
Mg561 O579 2.061 . S
Mg562 O560 1.986 . S
Mg562 O570 2.238 . S
Mg562 O574 2.042 . S
Mg562 O576 2.041 . S
Mg562 O583 2.038 . S
C563 O569 1.247 . S
C563 O570 1.289 . S
C564 O582 1.245 . S
C564 O583 1.274 . S
O565 C553 1.241 1_545 S
O565 Mg558 2.042 . S
O566 C553 1.280 1_545 S
O566 Mg556 1.984 . S
O567 C554 1.277 . S
O567 Mg558 2.041 . S
O568 C554 1.245 . S
O568 Mg556 1.988 . S
O569 Mg556 2.061 . S
O569 C563 1.247 . S
O570 Mg559 2.106 . S
O570 Mg562 2.238 . S
O570 C563 1.289 . S
C571 O572 1.245 . S
C571 O573 1.274 . S
O572 Mg559 2.079 . S
O572 C571 1.245 . S
O573 Mg558 2.038 . S
O573 C571 1.274 . S
O574 Mg562 2.042 . S
O574 C577 1.241 . S
O575 Mg561 1.984 . S
O575 C577 1.280 . S
O576 Mg562 2.041 . S
O576 C580 1.277 . S
C577 O574 1.241 . S
C577 O575 1.280 . S
O578 Mg561 1.988 . S
O578 C580 1.245 . S
O579 C555 1.247 . S
O579 Mg561 2.061 . S
C580 O576 1.277 . S
C580 O578 1.245 . S
O581 C555 1.289 . S
O581 Mg558 2.238 . S
O581 Mg559 2.106 . S
O582 Mg559 2.079 . S
O582 C564 1.245 . S
O583 Mg562 2.038 . S
O583 C564 1.274 . S
C584 O596 1.241 . S
C584 O597 1.280 . S
C585 O598 1.277 . S
C585 O599 1.245 . S
C586 O610 1.247 . S
C586 O612 1.289 . S
Mg587 O588 1.926 . S
Mg587 O597 1.984 . S
Mg587 O599 1.988 . S
Mg587 O600 2.061 . S
O588 Mg587 1.926 . S
O588 Mg589 1.986 . S
O588 Mg590 1.917 . S
Mg589 O588 1.986 . S
Mg589 O596 2.042 . S
Mg589 O598 2.041 . S
Mg589 O604 2.038 . S
Mg589 O612 2.238 . S
Mg590 O588 1.917 . S
Mg590 O591 1.917 . S
Mg590 O601 2.106 . S
Mg590 O603 2.079 . S
Mg590 O612 2.106 . S
Mg590 O613 2.079 . S
O591 Mg590 1.917 . S
O591 Mg592 1.926 . S
O591 Mg593 1.986 . S
Mg592 O591 1.926 . S
Mg592 O606 1.984 . S
Mg592 O609 1.988 . S
Mg592 O610 2.061 . S
Mg593 O591 1.986 . S
Mg593 O601 2.238 . S
Mg593 O605 2.042 . S
Mg593 O607 2.041 . S
Mg593 O614 2.038 . S
C594 O600 1.247 . S
C594 O601 1.289 . S
C595 O613 1.245 . S
C595 O614 1.274 . S
O596 C584 1.241 . S
O596 Mg589 2.042 . S
O597 C584 1.280 . S
O597 Mg587 1.984 . S
O598 C585 1.277 . S
O598 Mg589 2.041 . S
O599 C585 1.245 . S
O599 Mg587 1.988 . S
O600 Mg587 2.061 . S
O600 C594 1.247 . S
O601 Mg590 2.106 . S
O601 Mg593 2.238 . S
O601 C594 1.289 . S
C602 O603 1.245 . S
C602 O604 1.274 . S
O603 Mg590 2.079 . S
O603 C602 1.245 . S
O604 Mg589 2.038 . S
O604 C602 1.274 . S
O605 Mg593 2.042 . S
O605 C608 1.241 . S
O606 Mg592 1.984 . S
O606 C608 1.280 . S
O607 Mg593 2.041 . S
O607 C611 1.277 . S
C608 O605 1.241 . S
C608 O606 1.280 . S
O609 Mg592 1.988 . S
O609 C611 1.245 . S
O610 C586 1.247 . S
O610 Mg592 2.061 . S
C611 O607 1.277 . S
C611 O609 1.245 . S
O612 C586 1.289 . S
O612 Mg589 2.238 . S
O612 Mg590 2.106 . S
O613 Mg590 2.079 . S
O613 C595 1.245 . S
O614 Mg593 2.038 . S
O614 C595 1.274 . S
C615 O627 1.241 . S
C615 O628 1.280 . S
C616 O629 1.277 . S
C616 O630 1.245 . S
C617 O641 1.247 . S
C617 O643 1.289 . S
Mg618 O619 1.926 . S
Mg618 O628 1.984 . S
Mg618 O630 1.988 . S
Mg618 O631 2.061 . S
O619 Mg618 1.926 . S
O619 Mg620 1.986 . S
O619 Mg621 1.917 . S
Mg620 O619 1.986 . S
Mg620 O627 2.042 . S
Mg620 O629 2.041 . S
Mg620 O635 2.038 . S
Mg620 O643 2.238 . S
Mg621 O619 1.917 . S
Mg621 O622 1.917 . S
Mg621 O632 2.106 . S
Mg621 O634 2.079 . S
Mg621 O643 2.106 . S
Mg621 O644 2.079 . S
O622 Mg621 1.917 . S
O622 Mg623 1.926 . S
O622 Mg624 1.986 . S
Mg623 O622 1.926 . S
Mg623 O637 1.984 . S
Mg623 O640 1.988 . S
Mg623 O641 2.061 . S
Mg624 O622 1.986 . S
Mg624 O632 2.238 . S
Mg624 O636 2.042 . S
Mg624 O638 2.041 . S
Mg624 O645 2.038 . S
C625 O631 1.247 . S
C625 O632 1.289 . S
C626 O644 1.245 . S
C626 O645 1.274 . S
O627 C615 1.241 . S
O627 Mg620 2.042 . S
O628 C615 1.280 . S
O628 Mg618 1.984 . S
O629 C616 1.277 . S
O629 Mg620 2.041 . S
O630 C616 1.245 . S
O630 Mg618 1.988 . S
O631 Mg618 2.061 . S
O631 C625 1.247 . S
O632 Mg621 2.106 . S
O632 Mg624 2.238 . S
O632 C625 1.289 . S
C633 O634 1.245 . S
C633 O635 1.274 . S
O634 Mg621 2.079 . S
O634 C633 1.245 . S
O635 Mg620 2.038 . S
O635 C633 1.274 . S
O636 Mg624 2.042 . S
O636 C639 1.241 . S
O637 Mg623 1.984 . S
O637 C639 1.280 . S
O638 Mg624 2.041 . S
O638 C642 1.277 . S
C639 O636 1.241 . S
C639 O637 1.280 . S
O640 Mg623 1.988 . S
O640 C642 1.245 . S
O641 C617 1.247 . S
O641 Mg623 2.061 . S
C642 O638 1.277 . S
C642 O640 1.245 . S
O643 C617 1.289 . S
O643 Mg620 2.238 . S
O643 Mg621 2.106 . S
O644 Mg621 2.079 . S
O644 C626 1.245 . S
O645 Mg624 2.038 . S
O645 C626 1.274 . S
C646 O658 1.241 . S
C646 O659 1.280 . S
C647 O660 1.277 . S
C647 O661 1.245 . S
C648 O672 1.247 . S
C648 O674 1.289 . S
Mg649 O650 1.926 1_565 S
Mg649 O659 1.984 1_565 S
Mg649 O661 1.988 . S
Mg649 O662 2.061 1_565 S
O650 Mg649 1.926 1_545 S
O650 Mg651 1.986 . S
O650 Mg652 1.917 . S
Mg651 O650 1.986 . S
Mg651 O658 2.042 . S
Mg651 O660 2.041 1_545 S
Mg651 O666 2.038 . S
Mg651 O674 2.238 1_545 S
Mg652 O650 1.917 . S
Mg652 O653 1.917 1_545 S
Mg652 O663 2.107 . S
Mg652 O665 2.080 . S
Mg652 O674 2.106 1_545 S
Mg652 O675 2.077 1_545 S
O653 Mg652 1.917 1_565 S
O653 Mg654 1.926 1_565 S
O653 Mg655 1.986 . S
Mg654 O653 1.926 1_545 S
Mg654 O668 1.984 1_545 S
Mg654 O671 1.988 . S
Mg654 O672 2.061 1_545 S
Mg655 O653 1.986 . S
Mg655 O663 2.238 1_565 S
Mg655 O667 2.042 . S
Mg655 O669 2.041 1_565 S
Mg655 O676 2.038 . S
C656 O662 1.247 . S
C656 O663 1.289 . S
C657 O675 1.245 . S
C657 O676 1.274 . S
O658 C646 1.241 . S
O658 Mg651 2.042 . S
O659 C646 1.280 . S
O659 Mg649 1.984 1_545 S
O660 C647 1.277 . S
O660 Mg651 2.041 1_565 S
O661 C647 1.245 . S
O661 Mg649 1.988 . S
O662 Mg649 2.061 1_545 S
O662 C656 1.247 . S
O663 Mg652 2.107 . S
O663 Mg655 2.238 1_545 S
O663 C656 1.289 . S
C664 O665 1.245 . S
C664 O666 1.274 . S
O665 Mg652 2.080 . S
O665 C664 1.245 . S
O666 Mg651 2.038 . S
O666 C664 1.274 . S
O667 Mg655 2.042 . S
O667 C670 1.241 . S
O668 Mg654 1.984 1_565 S
O668 C670 1.280 . S
O669 Mg655 2.041 1_545 S
O669 C673 1.277 . S
C670 O667 1.241 . S
C670 O668 1.280 . S
O671 Mg654 1.988 . S
O671 C673 1.245 . S
O672 C648 1.247 . S
O672 Mg654 2.061 1_565 S
C673 O669 1.277 . S
C673 O671 1.245 . S
O674 C648 1.289 . S
O674 Mg651 2.238 1_565 S
O674 Mg652 2.106 1_565 S
O675 Mg652 2.077 1_565 S
O675 C657 1.245 . S
O676 Mg655 2.038 . S
O676 C657 1.274 . S
C677 O689 1.241 1_556 S
C677 O690 1.280 1_556 S
C678 O691 1.277 . S
C678 O692 1.245 . S
C679 O703 1.247 . S
C679 O705 1.289 . S
Mg680 O681 1.926 . S
Mg680 O690 1.984 . S
Mg680 O692 1.988 . S
Mg680 O693 2.061 . S
O681 Mg680 1.926 . S
O681 Mg682 1.986 . S
O681 Mg683 1.917 . S
Mg682 O681 1.986 . S
Mg682 O689 2.042 . S
Mg682 O691 2.041 . S
Mg682 O697 2.038 . S
Mg682 O705 2.238 . S
Mg683 O681 1.917 . S
Mg683 O684 1.917 . S
Mg683 O694 2.106 . S
Mg683 O696 2.079 . S
Mg683 O705 2.106 . S
Mg683 O706 2.079 . S
O684 Mg683 1.917 . S
O684 Mg685 1.926 . S
O684 Mg686 1.986 . S
Mg685 O684 1.926 . S
Mg685 O699 1.984 . S
Mg685 O702 1.988 . S
Mg685 O703 2.061 . S
Mg686 O684 1.986 . S
Mg686 O694 2.238 . S
Mg686 O698 2.042 . S
Mg686 O700 2.041 . S
Mg686 O707 2.038 . S
C687 O693 1.247 . S
C687 O694 1.289 . S
C688 O706 1.245 . S
C688 O707 1.274 . S
O689 C677 1.241 1_554 S
O689 Mg682 2.042 . S
O690 C677 1.280 1_554 S
O690 Mg680 1.984 . S
O691 C678 1.277 . S
O691 Mg682 2.041 . S
O692 C678 1.245 . S
O692 Mg680 1.988 . S
O693 Mg680 2.061 . S
O693 C687 1.247 . S
O694 Mg683 2.106 . S
O694 Mg686 2.238 . S
O694 C687 1.289 . S
C695 O696 1.245 . S
C695 O697 1.274 . S
O696 Mg683 2.079 . S
O696 C695 1.245 . S
O697 Mg682 2.038 . S
O697 C695 1.274 . S
O698 Mg686 2.042 . S
O698 C701 1.241 . S
O699 Mg685 1.984 . S
O699 C701 1.280 . S
O700 Mg686 2.041 . S
O700 C704 1.277 . S
C701 O698 1.241 . S
C701 O699 1.280 . S
O702 Mg685 1.988 . S
O702 C704 1.245 . S
O703 C679 1.247 . S
O703 Mg685 2.061 . S
C704 O700 1.277 . S
C704 O702 1.245 . S
O705 C679 1.289 . S
O705 Mg682 2.238 . S
O705 Mg683 2.106 . S
O706 Mg683 2.079 . S
O706 C688 1.245 . S
O707 Mg686 2.038 . S
O707 C688 1.274 . S
C708 C709 1.369 . S
C708 C710 1.419 . S
C708 H712 0.930 . S
C709 C708 1.369 . S
C709 C718 1.429 . S
C710 C708 1.419 . S
C710 C711 1.363 . S
C710 H713 0.929 . S
C711 C710 1.363 . S
C711 C717 1.428 . S
H712 C708 0.930 . S
H713 C710 0.929 . S
S714 N715 1.613 . S
S714 N716 1.610 . S
N715 S714 1.613 . S
N715 C718 1.350 . S
N716 S714 1.610 . S
N716 C717 1.351 . S
C717 C711 1.428 . S
C717 N716 1.351 . S
C717 C718 1.434 . S
C718 C709 1.429 . S
C718 N715 1.350 . S
C718 C717 1.434 . S
C719 C720 1.369 . S
C719 C721 1.419 . S
C719 H723 0.930 . S
C720 C719 1.369 . S
C720 C729 1.429 . S
C721 C719 1.419 . S
C721 C722 1.363 . S
C721 H724 0.929 . S
C722 C721 1.363 . S
C722 C728 1.428 . S
H723 C719 0.930 . S
H724 C721 0.929 . S
S725 N726 1.613 . S
S725 N727 1.610 . S
N726 S725 1.613 . S
N726 C729 1.350 . S
N727 S725 1.610 . S
N727 C728 1.351 . S
C728 C722 1.428 . S
C728 N727 1.351 . S
C728 C729 1.434 . S
C729 C720 1.429 . S
C729 N726 1.350 . S
C729 C728 1.434 . S
C730 C731 1.369 . S
C730 C732 1.419 . S
C730 H734 0.930 . S
C731 C730 1.369 . S
C731 C740 1.429 . S
C732 C730 1.419 . S
C732 C733 1.363 . S
C732 H735 0.929 . S
C733 C732 1.363 . S
C733 C739 1.428 . S
H734 C730 0.930 . S
H735 C732 0.929 . S
S736 N737 1.613 . S
S736 N738 1.610 . S
N737 S736 1.613 . S
N737 C740 1.350 . S
N738 S736 1.610 . S
N738 C739 1.351 . S
C739 C733 1.428 . S
C739 N738 1.351 . S
C739 C740 1.434 . S
C740 C731 1.429 . S
C740 N737 1.350 . S
C740 C739 1.434 . S
C741 C742 1.369 . S
C741 C743 1.419 . S
C741 H745 0.930 . S
C742 C741 1.369 . S
C742 C751 1.429 . S
C743 C741 1.419 . S
C743 C744 1.363 . S
C743 H746 0.929 . S
C744 C743 1.363 . S
C744 C750 1.428 . S
H745 C741 0.930 . S
H746 C743 0.929 . S
S747 N748 1.613 . S
S747 N749 1.610 . S
N748 S747 1.613 . S
N748 C751 1.350 . S
N749 S747 1.610 . S
N749 C750 1.351 . S
C750 C744 1.428 . S
C750 N749 1.351 . S
C750 C751 1.434 . S
C751 C742 1.429 . S
C751 N748 1.350 . S
C751 C750 1.434 . S
C752 C753 1.369 . S
C752 C754 1.419 . S
C752 H756 0.930 . S
C753 C752 1.369 . S
C753 C762 1.429 . S
C754 C752 1.419 . S
C754 C755 1.363 . S
C754 H757 0.929 . S
C755 C754 1.363 . S
C755 C761 1.428 . S
H756 C752 0.930 . S
H757 C754 0.929 . S
S758 N759 1.613 . S
S758 N760 1.610 . S
N759 S758 1.613 . S
N759 C762 1.350 . S
N760 S758 1.610 . S
N760 C761 1.351 . S
C761 C755 1.428 . S
C761 N760 1.351 . S
C761 C762 1.434 . S
C762 C753 1.429 . S
C762 N759 1.350 . S
C762 C761 1.434 . S
C763 C764 1.369 . S
C763 C765 1.419 . S
C763 H767 0.930 . S
C764 C763 1.369 . S
C764 C773 1.429 . S
C765 C763 1.419 . S
C765 C766 1.363 . S
C765 H768 0.929 . S
C766 C765 1.363 . S
C766 C772 1.428 . S
H767 C763 0.930 . S
H768 C765 0.929 . S
S769 N770 1.613 . S
S769 N771 1.610 . S
N770 S769 1.613 . S
N770 C773 1.350 . S
N771 S769 1.610 . S
N771 C772 1.351 . S
C772 C766 1.428 . S
C772 N771 1.351 . S
C772 C773 1.434 . S
C773 C764 1.429 . S
C773 N770 1.350 . S
C773 C772 1.434 . S
C774 C775 1.369 . S
C774 C776 1.419 . S
C774 H778 0.930 . S
C775 C774 1.369 . S
C775 C784 1.429 . S
C776 C774 1.419 . S
C776 C777 1.363 . S
C776 H779 0.929 . S
C777 C776 1.363 . S
C777 C783 1.428 . S
H778 C774 0.930 . S
H779 C776 0.929 . S
S780 N781 1.613 . S
S780 N782 1.610 . S
N781 S780 1.613 . S
N781 C784 1.350 . S
N782 S780 1.610 . S
N782 C783 1.351 . S
C783 C777 1.428 . S
C783 N782 1.351 . S
C783 C784 1.434 . S
C784 C775 1.429 . S
C784 N781 1.350 . S
C784 C783 1.434 . S
C785 C786 1.369 . S
C785 C787 1.419 . S
C785 H789 0.930 . S
C786 C785 1.369 . S
C786 C795 1.429 . S
C787 C785 1.419 . S
C787 C788 1.363 . S
C787 H790 0.929 . S
C788 C787 1.363 . S
C788 C794 1.428 . S
H789 C785 0.930 . S
H790 C787 0.929 . S
S791 N792 1.613 . S
S791 N793 1.610 . S
N792 S791 1.613 . S
N792 C795 1.350 . S
N793 S791 1.610 . S
N793 C794 1.351 . S
C794 C788 1.428 . S
C794 N793 1.351 . S
C794 C795 1.434 . S
C795 C786 1.429 . S
C795 N792 1.350 . S
C795 C794 1.434 . S
C796 C797 1.369 . S
C796 C798 1.419 . S
C796 H800 0.910 1_545 S
C797 C796 1.369 . S
C797 C806 1.429 . S
C798 C796 1.419 . S
C798 C799 1.363 . S
C798 H801 0.929 . S
C799 C798 1.363 . S
C799 C805 1.428 . S
H800 C796 0.910 1_565 S
H801 C798 0.929 . S
S802 N803 1.613 . S
S802 N804 1.610 . S
N803 S802 1.613 . S
N803 C806 1.350 . S
N804 S802 1.610 . S
N804 C805 1.351 . S
C805 C799 1.428 . S
C805 N804 1.351 . S
C805 C806 1.434 . S
C806 C797 1.429 . S
C806 N803 1.350 . S
C806 C805 1.434 . S
C807 C808 1.369 . S
C807 C809 1.419 . S
C807 H811 0.930 . S
C808 C807 1.369 . S
C808 C817 1.429 . S
C809 C807 1.419 . S
C809 C810 1.363 . S
C809 H812 0.929 . S
C810 C809 1.363 . S
C810 C816 1.428 . S
H811 C807 0.930 . S
H812 C809 0.929 . S
S813 N814 1.613 . S
S813 N815 1.610 . S
N814 S813 1.613 . S
N814 C817 1.350 . S
N815 S813 1.610 . S
N815 C816 1.351 . S
C816 C810 1.428 . S
C816 N815 1.351 . S
C816 C817 1.434 . S
C817 C808 1.429 . S
C817 N814 1.350 . S
C817 C816 1.434 . S
C818 C819 1.369 . S
C818 C820 1.419 . S
C818 H822 0.930 . S
C819 C818 1.369 . S
C819 C828 1.429 . S
C820 C818 1.419 . S
C820 C821 1.363 . S
C820 H823 0.929 . S
C821 C820 1.363 . S
C821 C827 1.428 . S
H822 C818 0.930 . S
H823 C820 0.929 . S
S824 N825 1.613 . S
S824 N826 1.610 . S
N825 S824 1.613 . S
N825 C828 1.350 . S
N826 S824 1.610 . S
N826 C827 1.351 . S
C827 C821 1.428 . S
C827 N826 1.351 . S
C827 C828 1.434 . S
C828 C819 1.429 . S
C828 N825 1.350 . S
C828 C827 1.434 . S
C829 C830 1.369 . S
C829 C831 1.419 . S
C829 H833 0.930 . S
C830 C829 1.369 . S
C830 C839 1.429 . S
C831 C829 1.419 . S
C831 C832 1.363 . S
C831 H834 0.929 . S
C832 C831 1.363 . S
C832 C838 1.428 . S
H833 C829 0.930 . S
H834 C831 0.929 . S
S835 N836 1.613 . S
S835 N837 1.610 . S
N836 S835 1.613 . S
N836 C839 1.350 . S
N837 S835 1.610 . S
N837 C838 1.351 . S
C838 C832 1.428 . S
C838 N837 1.351 . S
C838 C839 1.434 . S
C839 C830 1.429 . S
C839 N836 1.350 . S
C839 C838 1.434 . S
C840 C841 1.369 . S
C840 C842 1.419 . S
C840 H844 0.930 . S
C841 C840 1.369 . S
C841 C850 1.429 . S
C842 C840 1.419 . S
C842 C843 1.363 . S
C842 H845 0.929 . S
C843 C842 1.363 . S
C843 C849 1.428 . S
H844 C840 0.930 . S
H845 C842 0.929 . S
S846 N847 1.613 . S
S846 N848 1.610 . S
N847 S846 1.613 . S
N847 C850 1.350 . S
N848 S846 1.610 . S
N848 C849 1.351 . S
C849 C843 1.428 . S
C849 N848 1.351 . S
C849 C850 1.434 . S
C850 C841 1.429 . S
C850 N847 1.350 . S
C850 C849 1.434 . S
C851 C852 1.369 . S
C851 C853 1.419 . S
C851 H855 0.930 . S
C852 C851 1.369 . S
C852 C861 1.429 . S
C853 C851 1.419 . S
C853 C854 1.363 . S
C853 H856 0.929 . S
C854 C853 1.363 . S
C854 C860 1.428 . S
H855 C851 0.930 . S
H856 C853 0.929 . S
S857 N858 1.613 . S
S857 N859 1.610 1_545 S
N858 S857 1.613 . S
N858 C861 1.350 . S
N859 S857 1.610 1_565 S
N859 C860 1.351 1_565 S
C860 C854 1.428 . S
C860 N859 1.351 1_545 S
C860 C861 1.434 . S
C861 C852 1.429 . S
C861 N858 1.350 . S
C861 C860 1.434 . S
C862 C863 1.369 . S
C862 C864 1.419 . S
C862 H866 0.930 . S
C863 C862 1.369 . S
C863 C872 1.429 . S
C864 C862 1.419 . S
C864 C865 1.363 . S
C864 H867 0.929 . S
C865 C864 1.363 . S
C865 C871 1.428 . S
H866 C862 0.930 . S
H867 C864 0.929 . S
S868 N869 1.613 . S
S868 N870 1.610 . S
N869 S868 1.613 . S
N869 C872 1.350 . S
N870 S868 1.610 . S
N870 C871 1.351 . S
C871 C865 1.428 . S
C871 N870 1.351 . S
C871 C872 1.434 . S
C872 C863 1.429 . S
C872 N869 1.350 . S
C872 C871 1.434 . S
C873 C874 1.369 . S
C873 C875 1.419 . S
C873 H877 0.930 . S
C874 C873 1.369 . S
C874 C883 1.429 . S
C875 C873 1.419 . S
C875 C876 1.363 . S
C875 H878 0.929 . S
C876 C875 1.363 . S
C876 C882 1.428 . S
H877 C873 0.930 . S
H878 C875 0.929 . S
S879 N880 1.613 . S
S879 N881 1.610 . S
N880 S879 1.613 . S
N880 C883 1.350 . S
N881 S879 1.610 . S
N881 C882 1.351 . S
C882 C876 1.428 . S
C882 N881 1.351 . S
C882 C883 1.434 . S
C883 C874 1.429 . S
C883 N880 1.350 . S
C883 C882 1.434 . S
C884 C885 1.369 1_556 S
C884 C886 1.419 . S
C884 H888 0.930 . S
C885 C884 1.369 1_554 S
C885 C894 1.429 . S
C886 C884 1.419 . S
C886 C887 1.363 . S
C886 H889 0.929 . S
C887 C886 1.363 . S
C887 C893 1.415 1_556 S
H888 C884 0.930 . S
H889 C886 0.929 . S
S890 N891 1.613 . S
S890 N892 1.610 . S
N891 S890 1.613 . S
N891 C894 1.350 . S
N892 S890 1.610 . S
N892 C893 1.355 . S
C893 C887 1.415 1_554 S
C893 N892 1.355 . S
C893 C894 1.447 . S
C894 C885 1.429 . S
C894 N891 1.350 . S
C894 C893 1.447 . S
C895 C896 1.369 . S
C895 C897 1.419 . S
C895 H899 0.930 . S
C896 C895 1.369 . S
C896 C905 1.429 . S
C897 C895 1.419 . S
C897 C898 1.363 . S
C897 H900 0.929 . S
C898 C897 1.363 . S
C898 C904 1.428 . S
H899 C895 0.930 . S
H900 C897 0.929 . S
S901 N902 1.613 . S
S901 N903 1.610 . S
N902 S901 1.613 . S
N902 C905 1.350 . S
N903 S901 1.610 . S
N903 C904 1.351 . S
C904 C898 1.428 . S
C904 N903 1.351 . S
C904 C905 1.434 . S
C905 C896 1.429 . S
C905 N902 1.350 . S
C905 C904 1.434 . S
C906 C907 1.369 . S
C906 C908 1.419 . S
C906 H910 0.930 . S
C907 C906 1.369 . S
C907 C916 1.429 . S
C908 C906 1.419 . S
C908 C909 1.363 . S
C908 H911 0.929 . S
C909 C908 1.363 . S
C909 C915 1.428 . S
H910 C906 0.930 . S
H911 C908 0.929 . S
S912 N913 1.613 . S
S912 N914 1.610 . S
N913 S912 1.613 . S
N913 C916 1.350 . S
N914 S912 1.610 . S
N914 C915 1.351 . S
C915 C909 1.428 . S
C915 N914 1.351 . S
C915 C916 1.434 . S
C916 C907 1.429 . S
C916 N913 1.350 . S
C916 C915 1.434 . S
C917 C918 1.369 . S
C917 C919 1.419 . S
C917 H921 0.930 . S
C918 C917 1.369 . S
C918 C927 1.429 . S
C919 C917 1.419 . S
C919 C920 1.363 . S
C919 H922 0.929 . S
C920 C919 1.363 . S
C920 C926 1.428 . S
H921 C917 0.930 . S
H922 C919 0.929 . S
S923 N924 1.613 . S
S923 N925 1.610 . S
N924 S923 1.613 . S
N924 C927 1.350 . S
N925 S923 1.610 . S
N925 C926 1.351 . S
C926 C920 1.428 . S
C926 N925 1.351 . S
C926 C927 1.434 . S
C927 C918 1.429 . S
C927 N924 1.350 . S
C927 C926 1.434 . S
C928 C929 1.369 . S
C928 C930 1.419 . S
C928 H932 0.930 . S
C929 C928 1.369 . S
C929 C938 1.429 . S
C930 C928 1.419 . S
C930 C931 1.363 . S
C930 H933 0.929 1_655 S
C931 C930 1.363 . S
C931 C937 1.428 . S
H932 C928 0.930 . S
H933 C930 0.929 1_455 S
S934 N935 1.613 . S
S934 N936 1.610 . S
N935 S934 1.613 . S
N935 C938 1.350 . S
N936 S934 1.610 . S
N936 C937 1.351 . S
C937 C931 1.428 . S
C937 N936 1.351 . S
C937 C938 1.434 . S
C938 C929 1.429 . S
C938 N935 1.350 . S
C938 C937 1.434 . S
C939 C940 1.369 . S
C939 C941 1.419 . S
C939 H943 0.930 . S
C940 C939 1.369 . S
C940 C949 1.429 . S
C941 C939 1.419 . S
C941 C942 1.363 . S
C941 H944 0.929 . S
C942 C941 1.363 . S
C942 C948 1.428 . S
H943 C939 0.930 . S
H944 C941 0.929 . S
S945 N946 1.613 . S
S945 N947 1.610 . S
N946 S945 1.613 . S
N946 C949 1.350 . S
N947 S945 1.610 . S
N947 C948 1.351 . S
C948 C942 1.428 . S
C948 N947 1.351 . S
C948 C949 1.434 . S
C949 C940 1.429 . S
C949 N946 1.350 . S
C949 C948 1.434 . S
C950 C951 1.369 . S
C950 C952 1.419 . S
C950 H954 0.930 . S
C951 C950 1.369 . S
C951 C960 1.429 . S
C952 C950 1.419 . S
C952 C953 1.363 . S
C952 H955 0.929 . S
C953 C952 1.363 . S
C953 C959 1.428 . S
H954 C950 0.930 . S
H955 C952 0.929 . S
S956 N957 1.613 . S
S956 N958 1.610 . S
N957 S956 1.613 . S
N957 C960 1.350 . S
N958 S956 1.610 . S
N958 C959 1.351 . S
C959 C953 1.428 . S
C959 N958 1.351 . S
C959 C960 1.434 . S
C960 C951 1.429 . S
C960 N957 1.350 . S
C960 C959 1.434 . S
C961 C962 1.369 . S
C961 C963 1.419 . S
C961 H965 0.930 . S
C962 C961 1.369 . S
C962 C971 1.429 . S
C963 C961 1.419 . S
C963 C964 1.363 . S
C963 H966 0.929 . S
C964 C963 1.363 . S
C964 C970 1.428 . S
H965 C961 0.930 . S
H966 C963 0.929 . S
S967 N968 1.613 . S
S967 N969 1.610 . S
N968 S967 1.613 . S
N968 C971 1.350 . S
N969 S967 1.610 . S
N969 C970 1.351 . S
C970 C964 1.428 . S
C970 N969 1.351 . S
C970 C971 1.434 . S
C971 C962 1.429 . S
C971 N968 1.350 . S
C971 C970 1.434 . S
C972 C973 1.369 . S
C972 C974 1.419 . S
C972 H976 0.930 . S
C973 C972 1.369 . S
C973 C982 1.429 . S
C974 C972 1.419 . S
C974 C975 1.363 . S
C974 H977 0.929 . S
C975 C974 1.363 . S
C975 C981 1.428 . S
H976 C972 0.930 . S
H977 C974 0.929 . S
S978 N979 1.613 . S
S978 N980 1.610 . S
N979 S978 1.613 . S
N979 C982 1.350 . S
N980 S978 1.610 . S
N980 C981 1.351 . S
C981 C975 1.428 . S
C981 N980 1.351 . S
C981 C982 1.434 . S
C982 C973 1.429 . S
C982 N979 1.350 . S
C982 C981 1.434 . S
C983 C984 1.369 . S
C983 C985 1.419 . S
C983 H987 0.930 . S
C984 C983 1.369 . S
C984 C993 1.429 . S
C985 C983 1.419 . S
C985 C986 1.363 . S
C985 H988 0.929 1_554 S
C986 C985 1.363 . S
C986 C992 1.428 . S
H987 C983 0.930 . S
H988 C985 0.929 1_556 S
S989 N990 1.613 . S
S989 N991 1.610 . S
N990 S989 1.613 . S
N990 C993 1.350 . S
N991 S989 1.610 . S
N991 C992 1.351 . S
C992 C986 1.428 . S
C992 N991 1.351 . S
C992 C993 1.434 . S
C993 C984 1.429 . S
C993 N990 1.350 . S
C993 C992 1.434 . S
C994 C995 1.369 . S
C994 C996 1.419 . S
C994 H998 0.930 . S
C995 C994 1.369 . S
C995 C1004 1.429 . S
C996 C994 1.419 . S
C996 C997 1.363 . S
C996 H999 0.929 . S
C997 C996 1.363 . S
C997 C1003 1.428 . S
H998 C994 0.930 . S
H999 C996 0.929 . S
S1000 N1001 1.613 . S
S1000 N1002 1.610 . S
N1001 S1000 1.613 . S
N1001 C1004 1.350 . S
N1002 S1000 1.610 . S
N1002 C1003 1.351 . S
C1003 C997 1.428 . S
C1003 N1002 1.351 . S
C1003 C1004 1.434 . S
C1004 C995 1.429 . S
C1004 N1001 1.350 . S
C1004 C1003 1.434 . S
C1005 C1006 1.369 . S
C1005 C1007 1.419 . S
C1005 H1009 0.930 . S
C1006 C1005 1.369 . S
C1006 C1015 1.429 . S
C1007 C1005 1.419 . S
C1007 C1008 1.363 . S
C1007 H1010 0.929 . S
C1008 C1007 1.363 . S
C1008 C1014 1.428 . S
H1009 C1005 0.930 . S
H1010 C1007 0.929 . S
S1011 N1012 1.613 . S
S1011 N1013 1.610 . S
N1012 S1011 1.613 . S
N1012 C1015 1.350 . S
N1013 S1011 1.610 . S
N1013 C1014 1.351 . S
C1014 C1008 1.428 . S
C1014 N1013 1.351 . S
C1014 C1015 1.434 . S
C1015 C1006 1.429 . S
C1015 N1012 1.350 . S
C1015 C1014 1.434 . S
C1016 C1017 1.369 . S
C1016 C1018 1.419 . S
C1016 H1020 0.930 . S
C1017 C1016 1.369 . S
C1017 C1026 1.429 . S
C1018 C1016 1.419 . S
C1018 C1019 1.363 . S
C1018 H1021 0.929 . S
C1019 C1018 1.363 . S
C1019 C1025 1.428 . S
H1020 C1016 0.930 . S
H1021 C1018 0.929 . S
S1022 N1023 1.613 . S
S1022 N1024 1.610 . S
N1023 S1022 1.613 . S
N1023 C1026 1.350 . S
N1024 S1022 1.610 . S
N1024 C1025 1.351 . S
C1025 C1019 1.428 . S
C1025 N1024 1.351 . S
C1025 C1026 1.434 . S
C1026 C1017 1.429 . S
C1026 N1023 1.350 . S
C1026 C1025 1.434 . S
C1027 C1028 1.369 . S
C1027 C1029 1.419 . S
C1027 H1031 0.930 . S
C1028 C1027 1.369 . S
C1028 C1037 1.429 . S
C1029 C1027 1.419 . S
C1029 C1030 1.363 . S
C1029 H1032 0.929 . S
C1030 C1029 1.363 . S
C1030 C1036 1.428 . S
H1031 C1027 0.930 . S
H1032 C1029 0.929 . S
S1033 N1034 1.613 . S
S1033 N1035 1.610 . S
N1034 S1033 1.613 . S
N1034 C1037 1.350 . S
N1035 S1033 1.610 . S
N1035 C1036 1.351 . S
C1036 C1030 1.428 . S
C1036 N1035 1.351 . S
C1036 C1037 1.434 . S
C1037 C1028 1.429 . S
C1037 N1034 1.350 . S
C1037 C1036 1.434 . S
C1038 C1039 1.369 . S
C1038 C1040 1.419 . S
C1038 H1042 0.930 . S
C1039 C1038 1.369 . S
C1039 C1048 1.429 . S
C1040 C1038 1.419 . S
C1040 C1041 1.363 . S
C1040 H1043 0.929 . S
C1041 C1040 1.363 . S
C1041 C1047 1.428 . S
H1042 C1038 0.930 . S
H1043 C1040 0.929 . S
S1044 N1045 1.613 . S
S1044 N1046 1.610 . S
N1045 S1044 1.613 . S
N1045 C1048 1.350 . S
N1046 S1044 1.610 . S
N1046 C1047 1.351 . S
C1047 C1041 1.428 . S
C1047 N1046 1.351 . S
C1047 C1048 1.434 . S
C1048 C1039 1.429 . S
C1048 N1045 1.350 . S
C1048 C1047 1.434 . S
C1049 C1050 1.369 . S
C1049 C1051 1.419 . S
C1049 H1053 0.930 . S
C1050 C1049 1.369 . S
C1050 C1059 1.429 . S
C1051 C1049 1.419 . S
C1051 C1052 1.363 . S
C1051 H1054 0.929 . S
C1052 C1051 1.363 . S
C1052 C1058 1.428 . S
H1053 C1049 0.930 . S
H1054 C1051 0.929 . S
S1055 N1056 1.613 1_554 S
S1055 N1057 1.610 . S
N1056 S1055 1.613 1_556 S
N1056 C1059 1.350 . S
N1057 S1055 1.610 . S
N1057 C1058 1.351 1_554 S
C1058 C1052 1.428 . S
C1058 N1057 1.351 1_556 S
C1058 C1059 1.434 . S
C1059 C1050 1.429 . S
C1059 N1056 1.350 . S
C1059 C1058 1.434 . S
C1060 C1061 1.369 . S
C1060 C1062 1.419 . S
C1060 H1064 0.930 . S
C1061 C1060 1.369 . S
C1061 C1070 1.429 . S
C1062 C1060 1.419 . S
C1062 C1063 1.363 . S
C1062 H1065 0.929 . S
C1063 C1062 1.363 . S
C1063 C1069 1.428 . S
H1064 C1060 0.930 . S
H1065 C1062 0.929 . S
S1066 N1067 1.613 . S
S1066 N1068 1.610 . S
N1067 S1066 1.613 . S
N1067 C1070 1.350 . S
N1068 S1066 1.610 . S
N1068 C1069 1.351 . S
C1069 C1063 1.428 . S
C1069 N1068 1.351 . S
C1069 C1070 1.434 . S
C1070 C1061 1.429 . S
C1070 N1067 1.350 . S
C1070 C1069 1.434 . S
C1071 C1072 1.369 . S
C1071 C1073 1.419 . S
C1071 H1075 0.930 . S
C1072 C1071 1.369 . S
C1072 C1081 1.429 . S
C1073 C1071 1.419 . S
C1073 C1074 1.363 . S
C1073 H1076 0.929 . S
C1074 C1073 1.363 . S
C1074 C1080 1.428 . S
H1075 C1071 0.930 . S
H1076 C1073 0.929 . S
S1077 N1078 1.613 . S
S1077 N1079 1.610 . S
N1078 S1077 1.613 . S
N1078 C1081 1.350 . S
N1079 S1077 1.610 . S
N1079 C1080 1.351 . S
C1080 C1074 1.428 . S
C1080 N1079 1.351 . S
C1080 C1081 1.434 . S
C1081 C1072 1.429 . S
C1081 N1078 1.350 . S
C1081 C1080 1.434 . S
C1082 C1083 1.369 . S
C1082 C1084 1.419 . S
C1082 H1086 0.930 . S
C1083 C1082 1.369 . S
C1083 C1092 1.429 . S
C1084 C1082 1.419 . S
C1084 C1085 1.363 . S
C1084 H1087 0.929 . S
C1085 C1084 1.363 . S
C1085 C1091 1.428 . S
H1086 C1082 0.930 . S
H1087 C1084 0.929 . S
S1088 N1089 1.613 . S
S1088 N1090 1.610 . S
N1089 S1088 1.613 . S
N1089 C1092 1.350 . S
N1090 S1088 1.610 . S
N1090 C1091 1.351 . S
C1091 C1085 1.428 . S
C1091 N1090 1.351 . S
C1091 C1092 1.434 . S
C1092 C1083 1.429 . S
C1092 N1089 1.350 . S
C1092 C1091 1.434 . S
C1093 C1094 1.369 . S
C1093 C1095 1.419 . S
C1093 H1097 0.930 . S
C1094 C1093 1.369 . S
C1094 C1103 1.429 . S
C1095 C1093 1.419 . S
C1095 C1096 1.363 . S
C1095 H1098 0.929 1_565 S
C1096 C1095 1.363 . S
C1096 C1102 1.428 . S
H1097 C1093 0.930 . S
H1098 C1095 0.929 1_545 S
S1099 N1100 1.613 . S
S1099 N1101 1.610 . S
N1100 S1099 1.613 . S
N1100 C1103 1.350 . S
N1101 S1099 1.610 . S
N1101 C1102 1.351 . S
C1102 C1096 1.428 . S
C1102 N1101 1.351 . S
C1102 C1103 1.434 . S
C1103 C1094 1.429 . S
C1103 N1100 1.350 . S
C1103 C1102 1.434 . S
C1104 C1105 1.369 . S
C1104 C1106 1.419 . S
C1104 H1108 0.930 . S
C1105 C1104 1.369 . S
C1105 C1114 1.429 . S
C1106 C1104 1.419 . S
C1106 C1107 1.363 . S
C1106 H1109 0.929 . S
C1107 C1106 1.363 . S
C1107 C1113 1.428 . S
H1108 C1104 0.930 . S
H1109 C1106 0.929 . S
S1110 N1111 1.613 . S
S1110 N1112 1.610 . S
N1111 S1110 1.613 . S
N1111 C1114 1.350 . S
N1112 S1110 1.610 . S
N1112 C1113 1.351 . S
C1113 C1107 1.428 . S
C1113 N1112 1.351 . S
C1113 C1114 1.434 . S
C1114 C1105 1.429 . S
C1114 N1111 1.350 . S
C1114 C1113 1.434 . S
C1115 C1116 1.369 . S
C1115 C1117 1.419 . S
C1115 H1119 0.930 . S
C1116 C1115 1.369 . S
C1116 C1125 1.429 . S
C1117 C1115 1.419 . S
C1117 C1118 1.363 . S
C1117 H1120 0.929 . S
C1118 C1117 1.363 . S
C1118 C1124 1.428 . S
H1119 C1115 0.930 . S
H1120 C1117 0.929 . S
S1121 N1122 1.613 . S
S1121 N1123 1.610 . S
N1122 S1121 1.613 . S
N1122 C1125 1.350 . S
N1123 S1121 1.610 . S
N1123 C1124 1.351 . S
C1124 C1118 1.428 . S
C1124 N1123 1.351 . S
C1124 C1125 1.434 . S
C1125 C1116 1.429 . S
C1125 N1122 1.350 . S
C1125 C1124 1.434 . S
C1126 C1127 1.369 . S
C1126 C1128 1.419 . S
C1126 H1130 0.930 . S
C1127 C1126 1.369 . S
C1127 C1136 1.429 . S
C1128 C1126 1.419 . S
C1128 C1129 1.363 . S
C1128 H1131 0.929 . S
C1129 C1128 1.363 . S
C1129 C1135 1.428 . S
H1130 C1126 0.930 . S
H1131 C1128 0.929 . S
S1132 N1133 1.613 . S
S1132 N1134 1.610 . S
N1133 S1132 1.613 . S
N1133 C1136 1.350 . S
N1134 S1132 1.610 . S
N1134 C1135 1.351 . S
C1135 C1129 1.428 . S
C1135 N1134 1.351 . S
C1135 C1136 1.434 . S
C1136 C1127 1.429 . S
C1136 N1133 1.350 . S
C1136 C1135 1.434 . S
C1137 C1138 1.369 . S
C1137 C1139 1.419 . S
C1137 H1141 0.930 . S
C1138 C1137 1.369 . S
C1138 C1147 1.429 . S
C1139 C1137 1.419 . S
C1139 C1140 1.363 . S
C1139 H1142 0.929 . S
C1140 C1139 1.363 . S
C1140 C1146 1.428 . S
H1141 C1137 0.930 . S
H1142 C1139 0.929 . S
S1143 N1144 1.613 . S
S1143 N1145 1.610 . S
N1144 S1143 1.613 . S
N1144 C1147 1.350 . S
N1145 S1143 1.610 . S
N1145 C1146 1.351 . S
C1146 C1140 1.428 . S
C1146 N1145 1.351 . S
C1146 C1147 1.434 . S
C1147 C1138 1.429 . S
C1147 N1144 1.350 . S
C1147 C1146 1.434 . S
C1148 C1149 1.369 . S
C1148 C1150 1.419 . S
C1148 H1152 0.930 . S
C1149 C1148 1.369 . S
C1149 C1158 1.429 . S
C1150 C1148 1.419 . S
C1150 C1151 1.363 . S
C1150 H1153 0.929 . S
C1151 C1150 1.363 . S
C1151 C1157 1.428 . S
H1152 C1148 0.930 . S
H1153 C1150 0.929 . S
S1154 N1155 1.613 . S
S1154 N1156 1.610 . S
N1155 S1154 1.613 . S
N1155 C1158 1.350 . S
N1156 S1154 1.610 . S
N1156 C1157 1.351 . S
C1157 C1151 1.428 . S
C1157 N1156 1.351 . S
C1157 C1158 1.434 . S
C1158 C1149 1.429 . S
C1158 N1155 1.350 . S
C1158 C1157 1.434 . S
C1159 C1160 1.369 . S
C1159 C1161 1.419 . S
C1159 H1163 0.930 . S
C1160 C1159 1.369 . S
C1160 C1169 1.429 . S
C1161 C1159 1.419 . S
C1161 C1162 1.363 . S
C1161 H1164 0.929 . S
C1162 C1161 1.363 . S
C1162 C1168 1.428 . S
H1163 C1159 0.930 . S
H1164 C1161 0.929 . S
S1165 N1166 1.613 . S
S1165 N1167 1.610 . S
N1166 S1165 1.613 . S
N1166 C1169 1.350 . S
N1167 S1165 1.610 . S
N1167 C1168 1.351 . S
C1168 C1162 1.428 . S
C1168 N1167 1.351 . S
C1168 C1169 1.434 . S
C1169 C1160 1.429 . S
C1169 N1166 1.350 . S
C1169 C1168 1.434 . S
C1170 C1171 1.369 . S
C1170 C1172 1.419 . S
C1170 H1174 0.930 . S
C1171 C1170 1.369 . S
C1171 C1180 1.429 . S
C1172 C1170 1.419 . S
C1172 C1173 1.363 . S
C1172 H1175 0.929 . S
C1173 C1172 1.363 . S
C1173 C1179 1.428 . S
H1174 C1170 0.930 . S
H1175 C1172 0.929 . S
S1176 N1177 1.613 . S
S1176 N1178 1.610 . S
N1177 S1176 1.613 . S
N1177 C1180 1.350 . S
N1178 S1176 1.610 . S
N1178 C1179 1.351 . S
C1179 C1173 1.428 . S
C1179 N1178 1.351 . S
C1179 C1180 1.434 . S
C1180 C1171 1.429 . S
C1180 N1177 1.350 . S
C1180 C1179 1.434 . S
C1181 C1182 1.369 1_554 S
C1181 C1183 1.419 . S
C1181 H1185 0.930 . S
C1182 C1181 1.369 1_556 S
C1182 C1191 1.429 . S
C1183 C1181 1.419 . S
C1183 C1184 1.363 . S
C1183 H1186 0.929 . S
C1184 C1183 1.363 . S
C1184 C1190 1.428 . S
H1185 C1181 0.930 . S
H1186 C1183 0.929 . S
S1187 N1188 1.613 . S
S1187 N1189 1.610 . S
N1188 S1187 1.613 . S
N1188 C1191 1.350 . S
N1189 S1187 1.610 . S
N1189 C1190 1.351 1_556 S
C1190 C1184 1.428 . S
C1190 N1189 1.351 1_554 S
C1190 C1191 1.434 1_554 S
C1191 C1182 1.429 . S
C1191 N1188 1.350 . S
C1191 C1190 1.434 1_556 S
C1192 C1193 1.369 . S
C1192 C1194 1.419 . S
C1192 H1196 0.930 . S
C1193 C1192 1.369 . S
C1193 C1202 1.429 . S
C1194 C1192 1.419 . S
C1194 C1195 1.363 . S
C1194 H1197 0.929 . S
C1195 C1194 1.363 . S
C1195 C1201 1.428 . S
H1196 C1192 0.930 . S
H1197 C1194 0.929 . S
S1198 N1199 1.613 . S
S1198 N1200 1.610 . S
N1199 S1198 1.613 . S
N1199 C1202 1.350 . S
N1200 S1198 1.610 . S
N1200 C1201 1.351 . S
C1201 C1195 1.428 . S
C1201 N1200 1.351 . S
C1201 C1202 1.434 . S
C1202 C1193 1.429 . S
C1202 N1199 1.350 . S
C1202 C1201 1.434 . S
C1203 C1204 1.369 . S
C1203 C1205 1.419 . S
C1203 H1207 0.930 . S
C1204 C1203 1.369 . S
C1204 C1213 1.429 . S
C1205 C1203 1.419 . S
C1205 C1206 1.363 . S
C1205 H1208 0.929 . S
C1206 C1205 1.363 . S
C1206 C1212 1.428 . S
H1207 C1203 0.930 . S
H1208 C1205 0.929 . S
S1209 N1210 1.613 . S
S1209 N1211 1.610 . S
N1210 S1209 1.613 . S
N1210 C1213 1.350 . S
N1211 S1209 1.610 . S
N1211 C1212 1.351 . S
C1212 C1206 1.428 . S
C1212 N1211 1.351 . S
C1212 C1213 1.434 . S
C1213 C1204 1.429 . S
C1213 N1210 1.350 . S
C1213 C1212 1.434 . S
C1214 C1215 1.369 . S
C1214 C1216 1.419 . S
C1214 H1218 0.930 . S
C1215 C1214 1.369 . S
C1215 C1224 1.429 . S
C1216 C1214 1.419 . S
C1216 C1217 1.363 . S
C1216 H1219 0.929 1_455 S
C1217 C1216 1.363 . S
C1217 C1223 1.428 . S
H1218 C1214 0.930 . S
H1219 C1216 0.929 1_655 S
S1220 N1221 1.613 . S
S1220 N1222 1.610 . S
N1221 S1220 1.613 . S
N1221 C1224 1.350 . S
N1222 S1220 1.610 . S
N1222 C1223 1.351 . S
C1223 C1217 1.428 . S
C1223 N1222 1.351 . S
C1223 C1224 1.434 . S
C1224 C1215 1.429 . S
C1224 N1221 1.350 . S
C1224 C1223 1.434 . S
C1225 C1226 1.369 . S
C1225 C1227 1.419 . S
C1225 H1229 0.930 . S
C1226 C1225 1.369 . S
C1226 C1235 1.429 . S
C1227 C1225 1.419 . S
C1227 C1228 1.363 . S
C1227 H1230 0.929 1_655 S
C1228 C1227 1.363 . S
C1228 C1234 1.428 . S
H1229 C1225 0.930 . S
H1230 C1227 0.929 1_455 S
S1231 N1232 1.613 . S
S1231 N1233 1.610 . S
N1232 S1231 1.613 . S
N1232 C1235 1.350 . S
N1233 S1231 1.610 . S
N1233 C1234 1.351 . S
C1234 C1228 1.428 . S
C1234 N1233 1.351 . S
C1234 C1235 1.434 . S
C1235 C1226 1.429 . S
C1235 N1232 1.350 . S
C1235 C1234 1.434 . S
C1236 C1237 1.369 . S
C1236 C1238 1.419 . S
C1236 H1240 0.930 . S
C1237 C1236 1.369 . S
C1237 C1246 1.429 . S
C1238 C1236 1.419 . S
C1238 C1239 1.363 . S
C1238 H1241 0.929 . S
C1239 C1238 1.363 . S
C1239 C1245 1.428 . S
H1240 C1236 0.930 . S
H1241 C1238 0.929 . S
S1242 N1243 1.613 . S
S1242 N1244 1.610 . S
N1243 S1242 1.613 . S
N1243 C1246 1.350 . S
N1244 S1242 1.610 . S
N1244 C1245 1.351 . S
C1245 C1239 1.428 . S
C1245 N1244 1.351 . S
C1245 C1246 1.434 . S
C1246 C1237 1.429 . S
C1246 N1243 1.350 . S
C1246 C1245 1.434 . S
C1247 C1248 1.369 . S
C1247 C1249 1.419 . S
C1247 H1251 0.930 . S
C1248 C1247 1.369 . S
C1248 C1257 1.429 . S
C1249 C1247 1.419 . S
C1249 C1250 1.363 . S
C1249 H1252 0.929 . S
C1250 C1249 1.363 . S
C1250 C1256 1.428 . S
H1251 C1247 0.930 . S
H1252 C1249 0.929 . S
S1253 N1254 1.613 . S
S1253 N1255 1.610 . S
N1254 S1253 1.613 . S
N1254 C1257 1.350 . S
N1255 S1253 1.610 . S
N1255 C1256 1.351 . S
C1256 C1250 1.428 . S
C1256 N1255 1.351 . S
C1256 C1257 1.434 . S
C1257 C1248 1.429 . S
C1257 N1254 1.350 . S
C1257 C1256 1.434 . S
C1258 C1259 1.369 . S
C1258 C1260 1.419 . S
C1258 H1262 0.930 . S
C1259 C1258 1.369 . S
C1259 C1268 1.429 . S
C1260 C1258 1.419 . S
C1260 C1261 1.363 . S
C1260 H1263 0.929 . S
C1261 C1260 1.363 . S
C1261 C1267 1.428 . S
H1262 C1258 0.930 . S
H1263 C1260 0.929 . S
S1264 N1265 1.613 . S
S1264 N1266 1.610 . S
N1265 S1264 1.613 . S
N1265 C1268 1.350 . S
N1266 S1264 1.610 . S
N1266 C1267 1.351 . S
C1267 C1261 1.428 . S
C1267 N1266 1.351 . S
C1267 C1268 1.434 . S
C1268 C1259 1.429 . S
C1268 N1265 1.350 . S
C1268 C1267 1.434 . S
C1269 C1270 1.369 . S
C1269 C1271 1.419 . S
C1269 H1273 0.930 . S
C1270 C1269 1.369 . S
C1270 C1279 1.429 . S
C1271 C1269 1.419 . S
C1271 C1272 1.363 . S
C1271 H1274 0.929 . S
C1272 C1271 1.363 . S
C1272 C1278 1.428 . S
H1273 C1269 0.930 . S
H1274 C1271 0.929 . S
S1275 N1276 1.613 . S
S1275 N1277 1.610 . S
N1276 S1275 1.613 . S
N1276 C1279 1.350 . S
N1277 S1275 1.610 . S
N1277 C1278 1.351 . S
C1278 C1272 1.428 . S
C1278 N1277 1.351 . S
C1278 C1279 1.434 . S
C1279 C1270 1.429 . S
C1279 N1276 1.350 . S
C1279 C1278 1.434 . S
C1280 C1281 1.369 . S
C1280 C1282 1.419 . S
C1280 H1284 0.930 . S
C1281 C1280 1.369 . S
C1281 C1290 1.429 . S
C1282 C1280 1.419 . S
C1282 C1283 1.363 . S
C1282 H1285 0.929 . S
C1283 C1282 1.363 . S
C1283 C1289 1.428 . S
H1284 C1280 0.930 . S
H1285 C1282 0.929 . S
S1286 N1287 1.613 . S
S1286 N1288 1.610 . S
N1287 S1286 1.613 . S
N1287 C1290 1.350 . S
N1288 S1286 1.610 . S
N1288 C1289 1.351 . S
C1289 C1283 1.428 . S
C1289 N1288 1.351 . S
C1289 C1290 1.434 . S
C1290 C1281 1.429 . S
C1290 N1287 1.350 . S
C1290 C1289 1.434 . S
C1291 C1292 1.369 . S
C1291 C1293 1.419 . S
C1291 H1295 0.930 . S
C1292 C1291 1.369 . S
C1292 C1301 1.429 . S
C1293 C1291 1.419 . S
C1293 C1294 1.363 . S
C1293 H1296 0.929 1_455 S
C1294 C1293 1.363 . S
C1294 C1300 1.428 . S
H1295 C1291 0.930 . S
H1296 C1293 0.929 1_655 S
S1297 N1298 1.613 . S
S1297 N1299 1.610 . S
N1298 S1297 1.613 . S
N1298 C1301 1.350 . S
N1299 S1297 1.610 . S
N1299 C1300 1.351 . S
C1300 C1294 1.428 . S
C1300 N1299 1.351 . S
C1300 C1301 1.434 . S
C1301 C1292 1.429 . S
C1301 N1298 1.350 . S
C1301 C1300 1.434 . S
C1302 C1303 1.369 . S
C1302 C1304 1.419 . S
C1302 H1306 0.930 . S
C1303 C1302 1.369 . S
C1303 C1312 1.429 . S
C1304 C1302 1.419 . S
C1304 C1305 1.363 . S
C1304 H1307 0.929 . S
C1305 C1304 1.363 . S
C1305 C1311 1.428 . S
H1306 C1302 0.930 . S
H1307 C1304 0.929 . S
S1308 N1309 1.613 . S
S1308 N1310 1.610 . S
N1309 S1308 1.613 . S
N1309 C1312 1.350 . S
N1310 S1308 1.610 . S
N1310 C1311 1.351 . S
C1311 C1305 1.428 . S
C1311 N1310 1.351 . S
C1311 C1312 1.434 . S
C1312 C1303 1.429 . S
C1312 N1309 1.350 . S
C1312 C1311 1.434 . S
C1313 C1314 1.369 . S
C1313 C1315 1.419 . S
C1313 H1317 0.930 . S
C1314 C1313 1.369 . S
C1314 C1323 1.429 . S
C1315 C1313 1.419 . S
C1315 C1316 1.363 . S
C1315 H1318 0.929 . S
C1316 C1315 1.363 . S
C1316 C1322 1.428 . S
H1317 C1313 0.930 . S
H1318 C1315 0.929 . S
S1319 N1320 1.613 . S
S1319 N1321 1.610 . S
N1320 S1319 1.613 . S
N1320 C1323 1.350 . S
N1321 S1319 1.610 . S
N1321 C1322 1.351 . S
C1322 C1316 1.428 . S
C1322 N1321 1.351 . S
C1322 C1323 1.434 . S
C1323 C1314 1.429 . S
C1323 N1320 1.350 . S
C1323 C1322 1.434 . S
C1324 C1325 1.369 . S
C1324 C1326 1.419 . S
C1324 H1328 0.930 . S
C1325 C1324 1.369 . S
C1325 C1334 1.429 . S
C1326 C1324 1.419 . S
C1326 C1327 1.363 . S
C1326 H1329 0.929 . S
C1327 C1326 1.363 . S
C1327 C1333 1.428 . S
H1328 C1324 0.930 . S
H1329 C1326 0.929 . S
S1330 N1331 1.613 . S
S1330 N1332 1.610 . S
N1331 S1330 1.613 . S
N1331 C1334 1.350 . S
N1332 S1330 1.610 . S
N1332 C1333 1.351 . S
C1333 C1327 1.428 . S
C1333 N1332 1.351 . S
C1333 C1334 1.434 . S
C1334 C1325 1.429 . S
C1334 N1331 1.350 . S
C1334 C1333 1.434 . S
C1335 C1336 1.369 . S
C1335 C1337 1.419 . S
C1335 H1339 0.930 . S
C1336 C1335 1.369 . S
C1336 C1345 1.429 . S
C1337 C1335 1.419 . S
C1337 C1338 1.363 . S
C1337 H1340 0.929 . S
C1338 C1337 1.363 . S
C1338 C1344 1.428 . S
H1339 C1335 0.930 . S
H1340 C1337 0.929 . S
S1341 N1342 1.613 . S
S1341 N1343 1.610 . S
N1342 S1341 1.613 . S
N1342 C1345 1.350 . S
N1343 S1341 1.610 . S
N1343 C1344 1.351 . S
C1344 C1338 1.428 . S
C1344 N1343 1.351 . S
C1344 C1345 1.434 . S
C1345 C1336 1.429 . S
C1345 N1342 1.350 . S
C1345 C1344 1.434 . S
C1346 C1347 1.369 . S
C1346 C1348 1.419 . S
C1346 H1350 0.930 . S
C1347 C1346 1.369 . S
C1347 C1356 1.429 . S
C1348 C1346 1.419 . S
C1348 C1349 1.363 . S
C1348 H1351 0.929 . S
C1349 C1348 1.363 . S
C1349 C1355 1.428 . S
H1350 C1346 0.930 . S
H1351 C1348 0.929 . S
S1352 N1353 1.613 . S
S1352 N1354 1.610 . S
N1353 S1352 1.613 . S
N1353 C1356 1.350 . S
N1354 S1352 1.610 . S
N1354 C1355 1.351 . S
C1355 C1349 1.428 . S
C1355 N1354 1.351 . S
C1355 C1356 1.434 . S
C1356 C1347 1.429 . S
C1356 N1353 1.350 . S
C1356 C1355 1.434 . S
C1357 C1358 1.369 . S
C1357 C1359 1.419 . S
C1357 H1361 0.930 . S
C1358 C1357 1.369 . S
C1358 C1367 1.429 . S
C1359 C1357 1.419 . S
C1359 C1360 1.363 . S
C1359 H1362 0.929 1_554 S
C1360 C1359 1.363 . S
C1360 C1366 1.428 . S
H1361 C1357 0.930 . S
H1362 C1359 0.929 1_556 S
S1363 N1364 1.613 . S
S1363 N1365 1.610 . S
N1364 S1363 1.613 . S
N1364 C1367 1.350 . S
N1365 S1363 1.610 . S
N1365 C1366 1.351 . S
C1366 C1360 1.428 . S
C1366 N1365 1.351 . S
C1366 C1367 1.434 . S
C1367 C1358 1.429 . S
C1367 N1364 1.350 . S
C1367 C1366 1.434 . S
C1368 C1369 1.369 . S
C1368 C1370 1.419 . S
C1368 H1372 0.930 . S
C1369 C1368 1.369 . S
C1369 C1378 1.429 . S
C1370 C1368 1.419 . S
C1370 C1371 1.363 . S
C1370 H1373 0.929 . S
C1371 C1370 1.363 . S
C1371 C1377 1.428 . S
H1372 C1368 0.930 . S
H1373 C1370 0.929 . S
S1374 N1375 1.613 . S
S1374 N1376 1.610 . S
N1375 S1374 1.613 . S
N1375 C1378 1.350 . S
N1376 S1374 1.610 . S
N1376 C1377 1.351 . S
C1377 C1371 1.428 . S
C1377 N1376 1.351 . S
C1377 C1378 1.434 . S
C1378 C1369 1.429 . S
C1378 N1375 1.350 . S
C1378 C1377 1.434 . S
C1379 C1380 1.369 . S
C1379 C1381 1.419 . S
C1379 H1383 0.930 . S
C1380 C1379 1.369 . S
C1380 C1389 1.429 . S
C1381 C1379 1.419 . S
C1381 C1382 1.363 . S
C1381 H1384 0.929 . S
C1382 C1381 1.363 . S
C1382 C1388 1.428 . S
H1383 C1379 0.930 . S
H1384 C1381 0.929 . S
S1385 N1386 1.613 . S
S1385 N1387 1.610 . S
N1386 S1385 1.613 . S
N1386 C1389 1.350 . S
N1387 S1385 1.610 . S
N1387 C1388 1.351 . S
C1388 C1382 1.428 . S
C1388 N1387 1.351 . S
C1388 C1389 1.434 . S
C1389 C1380 1.429 . S
C1389 N1386 1.350 . S
C1389 C1388 1.434 . S
C1390 C1391 1.369 . S
C1390 C1392 1.419 . S
C1390 H1394 0.930 . S
C1391 C1390 1.369 . S
C1391 C1400 1.429 . S
C1392 C1390 1.419 . S
C1392 C1393 1.363 . S
C1392 H1395 0.929 . S
C1393 C1392 1.363 . S
C1393 C1399 1.428 . S
H1394 C1390 0.930 . S
H1395 C1392 0.929 . S
S1396 N1397 1.613 . S
S1396 N1398 1.610 . S
N1397 S1396 1.613 . S
N1397 C1400 1.350 . S
N1398 S1396 1.610 . S
N1398 C1399 1.351 . S
C1399 C1393 1.428 . S
C1399 N1398 1.351 . S
C1399 C1400 1.434 . S
C1400 C1391 1.429 . S
C1400 N1397 1.350 . S
C1400 C1399 1.434 . S
C1401 C1402 1.369 . S
C1401 C1403 1.419 1_556 S
C1401 H1405 0.930 1_556 S
C1402 C1401 1.369 . S
C1402 C1411 1.429 . S
C1403 C1401 1.419 1_554 S
C1403 C1404 1.363 1_554 S
C1403 H1406 0.929 . S
C1404 C1403 1.363 1_556 S
C1404 C1410 1.428 . S
H1405 C1401 0.930 1_554 S
H1406 C1403 0.929 . S
S1407 N1408 1.613 . S
S1407 N1409 1.610 . S
N1408 S1407 1.613 . S
N1408 C1411 1.350 . S
N1409 S1407 1.610 . S
N1409 C1410 1.351 . S
C1410 C1404 1.428 . S
C1410 N1409 1.351 . S
C1410 C1411 1.434 . S
C1411 C1402 1.429 . S
C1411 N1408 1.350 . S
C1411 C1410 1.434 . S
C1412 C1413 1.369 . S
C1412 C1414 1.419 . S
C1412 H1416 0.930 . S
C1413 C1412 1.369 . S
C1413 C1422 1.429 . S
C1414 C1412 1.419 . S
C1414 C1415 1.363 . S
C1414 H1417 0.929 . S
C1415 C1414 1.363 . S
C1415 C1421 1.428 . S
H1416 C1412 0.930 . S
H1417 C1414 0.929 . S
S1418 N1419 1.613 . S
S1418 N1420 1.610 . S
N1419 S1418 1.613 . S
N1419 C1422 1.350 . S
N1420 S1418 1.610 . S
N1420 C1421 1.351 . S
C1421 C1415 1.428 . S
C1421 N1420 1.351 . S
C1421 C1422 1.434 . S
C1422 C1413 1.429 . S
C1422 N1419 1.350 . S
C1422 C1421 1.434 . S
C1423 C1424 1.369 . S
C1423 C1425 1.419 . S
C1423 H1427 0.930 . S
C1424 C1423 1.369 . S
C1424 C1433 1.429 . S
C1425 C1423 1.419 . S
C1425 C1426 1.363 . S
C1425 H1428 0.929 . S
C1426 C1425 1.363 . S
C1426 C1432 1.428 . S
H1427 C1423 0.930 . S
H1428 C1425 0.929 . S
S1429 N1430 1.613 . S
S1429 N1431 1.610 . S
N1430 S1429 1.613 . S
N1430 C1433 1.350 . S
N1431 S1429 1.610 . S
N1431 C1432 1.351 . S
C1432 C1426 1.428 . S
C1432 N1431 1.351 . S
C1432 C1433 1.434 . S
C1433 C1424 1.429 . S
C1433 N1430 1.350 . S
C1433 C1432 1.434 . S
C1434 C1435 1.369 . S
C1434 C1436 1.419 . S
C1434 H1438 0.930 . S
C1435 C1434 1.369 . S
C1435 C1444 1.429 . S
C1436 C1434 1.419 . S
C1436 C1437 1.363 . S
C1436 H1439 0.929 . S
C1437 C1436 1.363 . S
C1437 C1443 1.428 . S
H1438 C1434 0.930 . S
H1439 C1436 0.929 . S
S1440 N1441 1.613 . S
S1440 N1442 1.610 . S
N1441 S1440 1.613 . S
N1441 C1444 1.350 . S
N1442 S1440 1.610 . S
N1442 C1443 1.351 . S
C1443 C1437 1.428 . S
C1443 N1442 1.351 . S
C1443 C1444 1.434 . S
C1444 C1435 1.429 . S
C1444 N1441 1.350 . S
C1444 C1443 1.434 . S
C1445 C1446 1.369 . S
C1445 C1447 1.419 . S
C1445 H1449 0.930 . S
C1446 C1445 1.369 . S
C1446 C1455 1.429 . S
C1447 C1445 1.419 . S
C1447 C1448 1.363 . S
C1447 H1450 0.929 . S
C1448 C1447 1.363 . S
C1448 C1454 1.428 . S
H1449 C1445 0.930 . S
H1450 C1447 0.929 . S
S1451 N1452 1.613 . S
S1451 N1453 1.610 . S
N1452 S1451 1.613 . S
N1452 C1455 1.350 . S
N1453 S1451 1.610 . S
N1453 C1454 1.351 . S
C1454 C1448 1.428 . S
C1454 N1453 1.351 . S
C1454 C1455 1.434 . S
C1455 C1446 1.429 . S
C1455 N1452 1.350 . S
C1455 C1454 1.434 . S
C1456 C1457 1.369 . S
C1456 C1458 1.419 . S
C1456 H1460 0.930 . S
C1457 C1456 1.369 . S
C1457 C1466 1.429 . S
C1458 C1456 1.419 . S
C1458 C1459 1.363 . S
C1458 H1461 0.929 . S
C1459 C1458 1.363 . S
C1459 C1465 1.428 . S
H1460 C1456 0.930 . S
H1461 C1458 0.929 . S
S1462 N1463 1.613 . S
S1462 N1464 1.610 . S
N1463 S1462 1.613 . S
N1463 C1466 1.350 . S
N1464 S1462 1.610 . S
N1464 C1465 1.351 . S
C1465 C1459 1.428 . S
C1465 N1464 1.351 . S
C1465 C1466 1.434 . S
C1466 C1457 1.429 . S
C1466 N1463 1.350 . S
C1466 C1465 1.434 . S
C1467 C1468 1.369 . S
C1467 C1469 1.419 . S
C1467 H1471 0.930 . S
C1468 C1467 1.369 . S
C1468 C1477 1.429 . S
C1469 C1467 1.419 . S
C1469 C1470 1.363 . S
C1469 H1472 0.929 . S
C1470 C1469 1.363 . S
C1470 C1476 1.428 . S
H1471 C1467 0.930 . S
H1472 C1469 0.929 . S
S1473 N1474 1.613 . S
S1473 N1475 1.610 . S
N1474 S1473 1.613 . S
N1474 C1477 1.350 . S
N1475 S1473 1.610 . S
N1475 C1476 1.351 . S
C1476 C1470 1.428 . S
C1476 N1475 1.351 . S
C1476 C1477 1.434 . S
C1477 C1468 1.429 . S
C1477 N1474 1.350 . S
C1477 C1476 1.434 . S
C1478 C1479 1.369 . S
C1478 C1480 1.419 . S
C1478 H1482 0.930 . S
C1479 C1478 1.369 . S
C1479 C1488 1.429 . S
C1480 C1478 1.419 . S
C1480 C1481 1.363 . S
C1480 H1483 0.929 . S
C1481 C1480 1.363 . S
C1481 C1487 1.428 . S
H1482 C1478 0.930 . S
H1483 C1480 0.929 . S
S1484 N1485 1.613 . S
S1484 N1486 1.610 . S
N1485 S1484 1.613 . S
N1485 C1488 1.350 . S
N1486 S1484 1.610 . S
N1486 C1487 1.351 . S
C1487 C1481 1.428 . S
C1487 N1486 1.351 . S
C1487 C1488 1.434 . S
C1488 C1479 1.429 . S
C1488 N1485 1.350 . S
C1488 C1487 1.434 . S
C1489 C1490 1.369 . S
C1489 C1491 1.419 . S
C1489 H1493 0.930 . S
C1490 C1489 1.369 . S
C1490 C1499 1.429 . S
C1491 C1489 1.419 . S
C1491 C1492 1.363 . S
C1491 H1494 0.929 . S
C1492 C1491 1.363 . S
C1492 C1498 1.428 . S
H1493 C1489 0.930 . S
H1494 C1491 0.929 . S
S1495 N1496 1.613 . S
S1495 N1497 1.610 . S
N1496 S1495 1.613 . S
N1496 C1499 1.350 . S
N1497 S1495 1.610 . S
N1497 C1498 1.351 . S
C1498 C1492 1.428 . S
C1498 N1497 1.351 . S
C1498 C1499 1.434 . S
C1499 C1490 1.429 . S
C1499 N1496 1.350 . S
C1499 C1498 1.434 . S
C1500 C1501 1.369 . S
C1500 C1502 1.419 . S
C1500 H1504 0.930 . S
C1501 C1500 1.369 . S
C1501 C1510 1.429 . S
C1502 C1500 1.419 . S
C1502 C1503 1.363 . S
C1502 H1505 0.929 . S
C1503 C1502 1.363 . S
C1503 C1509 1.428 . S
H1504 C1500 0.930 . S
H1505 C1502 0.929 . S
S1506 N1507 1.613 . S
S1506 N1508 1.610 . S
N1507 S1506 1.613 . S
N1507 C1510 1.350 . S
N1508 S1506 1.610 . S
N1508 C1509 1.351 . S
C1509 C1503 1.428 . S
C1509 N1508 1.351 . S
C1509 C1510 1.434 . S
C1510 C1501 1.429 . S
C1510 N1507 1.350 . S
C1510 C1509 1.434 . S
C1511 C1512 1.369 . S
C1511 C1513 1.419 . S
C1511 H1515 0.930 . S
C1512 C1511 1.369 . S
C1512 C1521 1.429 . S
C1513 C1511 1.419 . S
C1513 C1514 1.363 . S
C1513 H1516 0.929 1_655 S
C1514 C1513 1.363 . S
C1514 C1520 1.428 . S
H1515 C1511 0.930 . S
H1516 C1513 0.929 1_455 S
S1517 N1518 1.613 . S
S1517 N1519 1.610 . S
N1518 S1517 1.613 . S
N1518 C1521 1.350 . S
N1519 S1517 1.610 . S
N1519 C1520 1.351 . S
C1520 C1514 1.428 . S
C1520 N1519 1.351 . S
C1520 C1521 1.434 . S
C1521 C1512 1.429 . S
C1521 N1518 1.350 . S
C1521 C1520 1.434 . S
C1522 C1523 1.369 . S
C1522 C1524 1.419 . S
C1522 H1526 0.930 . S
C1523 C1522 1.369 . S
C1523 C1532 1.429 . S
C1524 C1522 1.419 . S
C1524 C1525 1.363 . S
C1524 H1527 0.929 . S
C1525 C1524 1.363 . S
C1525 C1531 1.428 . S
H1526 C1522 0.930 . S
H1527 C1524 0.929 . S
S1528 N1529 1.613 . S
S1528 N1530 1.610 . S
N1529 S1528 1.613 . S
N1529 C1532 1.350 . S
N1530 S1528 1.610 . S
N1530 C1531 1.351 . S
C1531 C1525 1.428 . S
C1531 N1530 1.351 . S
C1531 C1532 1.434 . S
C1532 C1523 1.429 . S
C1532 N1529 1.350 . S
C1532 C1531 1.434 . S
C1533 C1534 1.369 . S
C1533 C1535 1.419 . S
C1533 H1537 0.930 . S
C1534 C1533 1.369 . S
C1534 C1543 1.429 . S
C1535 C1533 1.419 . S
C1535 C1536 1.363 . S
C1535 H1538 0.929 . S
C1536 C1535 1.363 . S
C1536 C1542 1.428 . S
H1537 C1533 0.930 . S
H1538 C1535 0.929 . S
S1539 N1540 1.613 1_655 S
S1539 N1541 1.610 . S
N1540 S1539 1.613 1_455 S
N1540 C1543 1.350 . S
N1541 S1539 1.610 . S
N1541 C1542 1.351 1_655 S
C1542 C1536 1.428 . S
C1542 N1541 1.351 1_455 S
C1542 C1543 1.434 . S
C1543 C1534 1.429 . S
C1543 N1540 1.350 . S
C1543 C1542 1.434 . S
C1544 C1545 1.369 . S
C1544 C1546 1.419 . S
C1544 H1548 0.930 . S
C1545 C1544 1.369 . S
C1545 C1554 1.429 . S
C1546 C1544 1.419 . S
C1546 C1547 1.363 . S
C1546 H1549 0.929 . S
C1547 C1546 1.363 . S
C1547 C1553 1.428 . S
H1548 C1544 0.930 . S
H1549 C1546 0.929 . S
S1550 N1551 1.613 . S
S1550 N1552 1.610 . S
N1551 S1550 1.613 . S
N1551 C1554 1.350 . S
N1552 S1550 1.610 . S
N1552 C1553 1.351 . S
C1553 C1547 1.428 . S
C1553 N1552 1.351 . S
C1553 C1554 1.434 . S
C1554 C1545 1.429 . S
C1554 N1551 1.350 . S
C1554 C1553 1.434 . S
C1555 C1556 1.369 . S
C1555 C1557 1.419 . S
C1555 H1559 0.930 . S
C1556 C1555 1.369 . S
C1556 C1565 1.429 . S
C1557 C1555 1.419 . S
C1557 C1558 1.363 . S
C1557 H1560 0.929 . S
C1558 C1557 1.363 . S
C1558 C1564 1.428 . S
H1559 C1555 0.930 . S
H1560 C1557 0.929 . S
S1561 N1562 1.613 . S
S1561 N1563 1.610 . S
N1562 S1561 1.613 . S
N1562 C1565 1.350 . S
N1563 S1561 1.610 . S
N1563 C1564 1.351 . S
C1564 C1558 1.428 . S
C1564 N1563 1.351 . S
C1564 C1565 1.434 . S
C1565 C1556 1.429 . S
C1565 N1562 1.350 . S
C1565 C1564 1.434 . S
C1566 C1567 1.369 . S
C1566 C1568 1.419 . S
C1566 H1570 0.930 . S
C1567 C1566 1.369 . S
C1567 C1576 1.429 . S
C1568 C1566 1.419 . S
C1568 C1569 1.363 . S
C1568 H1571 0.929 . S
C1569 C1568 1.363 . S
C1569 C1575 1.428 . S
H1570 C1566 0.930 . S
H1571 C1568 0.929 . S
S1572 N1573 1.613 . S
S1572 N1574 1.610 . S
N1573 S1572 1.613 . S
N1573 C1576 1.350 . S
N1574 S1572 1.610 . S
N1574 C1575 1.351 . S
C1575 C1569 1.428 . S
C1575 N1574 1.351 . S
C1575 C1576 1.434 . S
C1576 C1567 1.429 . S
C1576 N1573 1.350 . S
C1576 C1575 1.434 . S
C1577 C1578 1.369 . S
C1577 C1579 1.419 . S
C1577 H1581 0.930 . S
C1578 C1577 1.369 . S
C1578 C1587 1.429 . S
C1579 C1577 1.419 . S
C1579 C1580 1.363 . S
C1579 H1582 0.929 . S
C1580 C1579 1.363 . S
C1580 C1586 1.428 . S
H1581 C1577 0.930 . S
H1582 C1579 0.929 . S
S1583 N1584 1.613 . S
S1583 N1585 1.610 . S
N1584 S1583 1.613 . S
N1584 C1587 1.350 . S
N1585 S1583 1.610 . S
N1585 C1586 1.351 . S
C1586 C1580 1.428 . S
C1586 N1585 1.351 . S
C1586 C1587 1.434 . S
C1587 C1578 1.429 . S
C1587 N1584 1.350 . S
C1587 C1586 1.434 . S
C1588 C1589 1.369 . S
C1588 C1590 1.419 . S
C1588 H1592 0.930 . S
C1589 C1588 1.369 . S
C1589 C1598 1.429 . S
C1590 C1588 1.419 . S
C1590 C1591 1.363 . S
C1590 H1593 0.929 . S
C1591 C1590 1.363 . S
C1591 C1597 1.428 . S
H1592 C1588 0.930 . S
H1593 C1590 0.929 . S
S1594 N1595 1.613 . S
S1594 N1596 1.610 . S
N1595 S1594 1.613 . S
N1595 C1598 1.350 . S
N1596 S1594 1.610 . S
N1596 C1597 1.351 . S
C1597 C1591 1.428 . S
C1597 N1596 1.351 . S
C1597 C1598 1.434 . S
C1598 C1589 1.429 . S
C1598 N1595 1.350 . S
C1598 C1597 1.434 . S
C1599 C1600 1.369 . S
C1599 C1601 1.419 . S
C1599 H1603 0.930 . S
C1600 C1599 1.369 . S
C1600 C1609 1.429 . S
C1601 C1599 1.419 . S
C1601 C1602 1.363 . S
C1601 H1604 0.929 . S
C1602 C1601 1.363 . S
C1602 C1608 1.428 . S
H1603 C1599 0.930 . S
H1604 C1601 0.929 . S
S1605 N1606 1.613 . S
S1605 N1607 1.610 . S
N1606 S1605 1.613 . S
N1606 C1609 1.350 . S
N1607 S1605 1.610 . S
N1607 C1608 1.351 . S
C1608 C1602 1.428 . S
C1608 N1607 1.351 . S
C1608 C1609 1.434 . S
C1609 C1600 1.429 . S
C1609 N1606 1.350 . S
C1609 C1608 1.434 . S
C1610 C1611 1.369 . S
C1610 C1612 1.419 . S
C1610 H1614 0.930 . S
C1611 C1610 1.369 . S
C1611 C1620 1.429 . S
C1612 C1610 1.419 . S
C1612 C1613 1.363 . S
C1612 H1615 0.929 . S
C1613 C1612 1.363 . S
C1613 C1619 1.428 . S
H1614 C1610 0.930 . S
H1615 C1612 0.929 . S
S1616 N1617 1.613 . S
S1616 N1618 1.610 . S
N1617 S1616 1.613 . S
N1617 C1620 1.350 . S
N1618 S1616 1.610 . S
N1618 C1619 1.351 . S
C1619 C1613 1.428 . S
C1619 N1618 1.351 . S
C1619 C1620 1.434 . S
C1620 C1611 1.429 . S
C1620 N1617 1.350 . S
C1620 C1619 1.434 . S
C1621 C1622 1.369 . S
C1621 C1623 1.419 . S
C1621 H1625 0.930 . S
C1622 C1621 1.369 . S
C1622 C1631 1.429 . S
C1623 C1621 1.419 . S
C1623 C1624 1.363 . S
C1623 H1626 0.929 . S
C1624 C1623 1.363 . S
C1624 C1630 1.428 . S
H1625 C1621 0.930 . S
H1626 C1623 0.929 . S
S1627 N1628 1.613 . S
S1627 N1629 1.610 . S
N1628 S1627 1.613 . S
N1628 C1631 1.350 . S
N1629 S1627 1.610 . S
N1629 C1630 1.351 . S
C1630 C1624 1.428 . S
C1630 N1629 1.351 . S
C1630 C1631 1.434 . S
C1631 C1622 1.429 . S
C1631 N1628 1.350 . S
C1631 C1630 1.434 . S
C1632 C1633 1.369 . S
C1632 C1634 1.419 . S
C1632 H1636 0.930 . S
C1633 C1632 1.369 . S
C1633 C1642 1.429 . S
C1634 C1632 1.419 . S
C1634 C1635 1.363 . S
C1634 H1637 0.929 . S
C1635 C1634 1.363 . S
C1635 C1641 1.428 . S
H1636 C1632 0.930 . S
H1637 C1634 0.929 . S
S1638 N1639 1.613 . S
S1638 N1640 1.610 . S
N1639 S1638 1.613 . S
N1639 C1642 1.350 . S
N1640 S1638 1.610 . S
N1640 C1641 1.351 . S
C1641 C1635 1.428 . S
C1641 N1640 1.351 . S
C1641 C1642 1.434 . S
C1642 C1633 1.429 . S
C1642 N1639 1.350 . S
C1642 C1641 1.434 . S
C1643 C1644 1.369 . S
C1643 C1645 1.419 . S
C1643 H1647 0.930 . S
C1644 C1643 1.369 . S
C1644 C1653 1.429 . S
C1645 C1643 1.419 . S
C1645 C1646 1.363 . S
C1645 H1648 0.929 . S
C1646 C1645 1.363 . S
C1646 C1652 1.428 . S
H1647 C1643 0.930 . S
H1648 C1645 0.929 . S
S1649 N1650 1.613 . S
S1649 N1651 1.610 . S
N1650 S1649 1.613 . S
N1650 C1653 1.350 . S
N1651 S1649 1.610 . S
N1651 C1652 1.351 . S
C1652 C1646 1.428 . S
C1652 N1651 1.351 . S
C1652 C1653 1.434 . S
C1653 C1644 1.429 . S
C1653 N1650 1.350 . S
C1653 C1652 1.434 . S
C1654 C1655 1.369 . S
C1654 C1656 1.419 . S
C1654 H1658 0.930 . S
C1655 C1654 1.369 . S
C1655 C1664 1.429 . S
C1656 C1654 1.419 . S
C1656 C1657 1.363 . S
C1656 H1659 0.929 . S
C1657 C1656 1.363 . S
C1657 C1663 1.428 . S
H1658 C1654 0.930 . S
H1659 C1656 0.929 . S
S1660 N1661 1.613 . S
S1660 N1662 1.610 . S
N1661 S1660 1.613 . S
N1661 C1664 1.350 . S
N1662 S1660 1.610 . S
N1662 C1663 1.351 . S
C1663 C1657 1.428 . S
C1663 N1662 1.351 . S
C1663 C1664 1.434 . S
C1664 C1655 1.429 . S
C1664 N1661 1.350 . S
C1664 C1663 1.434 . S
C1665 C1666 1.369 . S
C1665 C1667 1.419 . S
C1665 H1669 0.930 . S
C1666 C1665 1.369 . S
C1666 C1675 1.429 . S
C1667 C1665 1.419 . S
C1667 C1668 1.363 . S
C1667 H1670 0.929 . S
C1668 C1667 1.363 . S
C1668 C1674 1.428 . S
H1669 C1665 0.930 . S
H1670 C1667 0.929 . S
S1671 N1672 1.613 . S
S1671 N1673 1.610 . S
N1672 S1671 1.613 . S
N1672 C1675 1.350 . S
N1673 S1671 1.610 . S
N1673 C1674 1.351 . S
C1674 C1668 1.428 . S
C1674 N1673 1.351 . S
C1674 C1675 1.434 . S
C1675 C1666 1.429 . S
C1675 N1672 1.350 . S
C1675 C1674 1.434 . S
C1676 C1677 1.369 . S
C1676 C1678 1.419 . S
C1676 H1680 0.930 . S
C1677 C1676 1.369 . S
C1677 C1686 1.429 . S
C1678 C1676 1.419 . S
C1678 C1679 1.363 . S
C1678 H1681 0.929 . S
C1679 C1678 1.363 . S
C1679 C1685 1.428 . S
H1680 C1676 0.930 . S
H1681 C1678 0.929 . S
S1682 N1683 1.613 . S
S1682 N1684 1.610 . S
N1683 S1682 1.613 . S
N1683 C1686 1.350 . S
N1684 S1682 1.610 . S
N1684 C1685 1.351 . S
C1685 C1679 1.428 . S
C1685 N1684 1.351 . S
C1685 C1686 1.434 . S
C1686 C1677 1.429 . S
C1686 N1683 1.350 . S
C1686 C1685 1.434 . S
C1687 C1688 1.369 . S
C1687 C1689 1.419 . S
C1687 H1691 0.930 . S
C1688 C1687 1.369 . S
C1688 C1697 1.429 . S
C1689 C1687 1.419 . S
C1689 C1690 1.363 . S
C1689 H1692 0.929 . S
C1690 C1689 1.363 . S
C1690 C1696 1.428 . S
H1691 C1687 0.930 . S
H1692 C1689 0.929 . S
S1693 N1694 1.613 . S
S1693 N1695 1.610 . S
N1694 S1693 1.613 . S
N1694 C1697 1.350 . S
N1695 S1693 1.610 . S
N1695 C1696 1.351 . S
C1696 C1690 1.428 . S
C1696 N1695 1.351 . S
C1696 C1697 1.434 . S
C1697 C1688 1.429 . S
C1697 N1694 1.350 . S
C1697 C1696 1.434 . S
C1698 C1699 1.369 . S
C1698 C1700 1.419 . S
C1698 H1702 0.930 . S
C1699 C1698 1.369 . S
C1699 C1708 1.429 . S
C1700 C1698 1.419 . S
C1700 C1701 1.363 . S
C1700 H1703 0.929 . S
C1701 C1700 1.363 . S
C1701 C1707 1.428 . S
H1702 C1698 0.930 . S
H1703 C1700 0.929 . S
S1704 N1705 1.613 1_565 S
S1704 N1706 1.610 . S
N1705 S1704 1.613 1_545 S
N1705 C1708 1.350 . S
N1706 S1704 1.610 . S
N1706 C1707 1.351 1_565 S
C1707 C1701 1.428 . S
C1707 N1706 1.351 1_545 S
C1707 C1708 1.434 . S
C1708 C1699 1.429 . S
C1708 N1705 1.350 . S
C1708 C1707 1.434 . S
C1709 C1710 1.369 . S
C1709 C1711 1.419 . S
C1709 H1713 0.930 . S
C1710 C1709 1.369 . S
C1710 C1719 1.429 . S
C1711 C1709 1.419 . S
C1711 C1712 1.363 . S
C1711 H1714 0.929 . S
C1712 C1711 1.363 . S
C1712 C1718 1.428 . S
H1713 C1709 0.930 . S
H1714 C1711 0.929 . S
S1715 N1716 1.613 . S
S1715 N1717 1.610 . S
N1716 S1715 1.613 . S
N1716 C1719 1.350 . S
N1717 S1715 1.610 . S
N1717 C1718 1.351 . S
C1718 C1712 1.428 . S
C1718 N1717 1.351 . S
C1718 C1719 1.434 . S
C1719 C1710 1.429 . S
C1719 N1716 1.350 . S
C1719 C1718 1.434 . S
C1720 C1721 1.369 . S
C1720 C1722 1.419 . S
C1720 H1724 0.930 . S
C1721 C1720 1.369 . S
C1721 C1730 1.429 . S
C1722 C1720 1.419 . S
C1722 C1723 1.363 . S
C1722 H1725 0.929 . S
C1723 C1722 1.363 . S
C1723 C1729 1.428 . S
H1724 C1720 0.930 . S
H1725 C1722 0.929 . S
S1726 N1727 1.613 1_545 S
S1726 N1728 1.610 . S
N1727 S1726 1.613 1_565 S
N1727 C1730 1.350 . S
N1728 S1726 1.610 . S
N1728 C1729 1.350 1_545 S
C1729 C1723 1.428 . S
C1729 N1728 1.350 1_565 S
C1729 C1730 1.434 . S
C1730 C1721 1.429 . S
C1730 N1727 1.350 . S
C1730 C1729 1.434 . S
C1731 C1732 1.369 . S
C1731 C1733 1.419 . S
C1731 H1735 0.930 . S
C1732 C1731 1.369 . S
C1732 C1741 1.429 . S
C1733 C1731 1.419 . S
C1733 C1734 1.363 . S
C1733 H1736 0.929 . S
C1734 C1733 1.363 . S
C1734 C1740 1.428 . S
H1735 C1731 0.930 . S
H1736 C1733 0.929 . S
S1737 N1738 1.613 . S
S1737 N1739 1.610 . S
N1738 S1737 1.613 . S
N1738 C1741 1.350 . S
N1739 S1737 1.610 . S
N1739 C1740 1.351 . S
C1740 C1734 1.428 . S
C1740 N1739 1.351 . S
C1740 C1741 1.434 . S
C1741 C1732 1.429 . S
C1741 N1738 1.350 . S
C1741 C1740 1.434 . S
C1742 C1743 1.369 . S
C1742 C1744 1.419 . S
C1742 H1746 0.930 . S
C1743 C1742 1.369 . S
C1743 C1752 1.429 . S
C1744 C1742 1.419 . S
C1744 C1745 1.363 . S
C1744 H1747 0.929 . S
C1745 C1744 1.363 . S
C1745 C1751 1.428 . S
H1746 C1742 0.930 . S
H1747 C1744 0.929 . S
S1748 N1749 1.613 . S
S1748 N1750 1.610 . S
N1749 S1748 1.613 . S
N1749 C1752 1.350 . S
N1750 S1748 1.610 . S
N1750 C1751 1.351 . S
C1751 C1745 1.428 . S
C1751 N1750 1.351 . S
C1751 C1752 1.434 . S
C1752 C1743 1.429 . S
C1752 N1749 1.350 . S
C1752 C1751 1.434 . S
C1753 C1754 1.369 . S
C1753 C1755 1.419 . S
C1753 H1757 0.930 . S
C1754 C1753 1.369 . S
C1754 C1763 1.429 . S
C1755 C1753 1.419 . S
C1755 C1756 1.363 . S
C1755 H1758 0.929 . S
C1756 C1755 1.363 . S
C1756 C1762 1.428 . S
H1757 C1753 0.930 . S
H1758 C1755 0.929 . S
S1759 N1760 1.613 . S
S1759 N1761 1.610 . S
N1760 S1759 1.613 . S
N1760 C1763 1.350 . S
N1761 S1759 1.610 . S
N1761 C1762 1.351 . S
C1762 C1756 1.428 . S
C1762 N1761 1.351 . S
C1762 C1763 1.434 . S
C1763 C1754 1.429 . S
C1763 N1760 1.350 . S
C1763 C1762 1.434 . S
C711 C360 1.241 . S
C709 C213 1.166 . S
C722 C368 1.231 . S
C720 C256 1.268 . S
C733 C363 1.401 . S
C731 C234 1.264 . S
C742 C196 1.500 . S
C744 C367 1.470 . S
C755 C422 1.422 . S
C753 C109 1.314 . S
C764 C129 1.232 . S
C766 C398 1.201 . S
C777 C425 1.280 . S
C775 C151 1.147 . S
C786 C100 1.631 . S
C788 C399 1.579 . S
C797 C313 1.531 . S
C799 C456 1.711 . S
C808 C322 1.217 . S
C810 C460 1.428 . S
C821 C515 1.136 . S
C819 C187 1.080 . S
C832 C523 1.559 . S
C830 C277 1.637 . S
C843 C453 1.216 . S
C841 C67 1.127 . S
C854 C461 1.526 1_545 S
C852 C20 1.372 . S
C863 C28 1.492 . S
C865 C518 1.636 . S
C874 C62 1.507 . S
C876 C522 1.463 . S
C885 C40 1.533 . S
C887 C487 1.350 . S
C898 C577 1.315 . S
C896 C184 1.218 . S
C907 C293 1.524 . S
C909 C585 1.519 . S
C920 C639 1.246 . S
C918 C310 1.571 . S
C929 C146 1.374 . S
C931 C491 1.365 1_655 S
C942 C580 1.317 . S
C940 C230 1.181 . S
C953 C584 1.453 . S
C951 C255 1.527 . S
C964 C647 1.436 . S
C962 C205 1.403 . S
C973 C66 1.167 . S
C975 C391 1.242 . S
C984 C4 1.279 . S
C986 C337 1.237 1_554 S
C997 C394 1.396 . S
C995 C37 1.269 . S
C1006 C46 1.502 . S
C1008 C336 1.469 . S
C1017 C301 1.317 . S
C1019 C701 1.421 . S
C1028 C331 1.241 . S
C1030 C677 1.210 . S
C1041 C704 1.281 . S
C1039 C175 1.145 . S
C1050 C276 1.630 . S
C1052 C678 1.580 1_556 S
C1061 C125 1.534 . S
C1063 C611 1.709 . S
C1074 C615 1.430 . S
C1072 C130 1.210 . S
C1085 C670 1.152 . S
C1083 C167 1.057 . S
C1096 C554 1.562 1_565 S
C1094 C91 1.639 . S
C1107 C608 1.217 . S
C1105 C214 1.126 . S
C1116 C272 1.370 . S
C1118 C616 1.525 . S
C1127 C235 1.482 . S
C1129 C673 1.642 . S
C1140 C553 1.464 . S
C1138 C208 1.507 . S
C1149 C251 1.540 . S
C1151 C642 1.359 . S
C1162 C546 1.306 . S
C1160 C150 1.233 . S
C1171 C103 1.533 . S
C1173 C430 1.525 1_455 S
C1182 C108 1.570 . S
C1184 C484 1.245 . S
C1193 C334 1.377 . S
C1195 C646 1.371 . S
C1204 C83 1.177 . S
C1206 C549 1.319 . S
C1215 C3 1.521 . S
C1217 C429 1.447 . S
C1228 C492 1.436 1_655 S
C1226 C45 1.403 . S
C1239 C347 1.631 . S
C1237 C318 1.637 . S
C1250 C377 1.737 . S
C1248 C188 1.636 . S
C1261 C354 1.684 . S
C1259 C289 1.584 . S
C1272 C369 1.844 . S
C1270 C314 1.683 . S
C1283 C409 1.537 . S
C1281 C209 1.526 . S
C1292 C226 1.819 . S
C1294 C400 1.993 . S
C1303 C271 1.634 . S
C1305 C416 1.726 . S
C1314 C247 1.812 1_565 S
C1316 C408 1.888 . S
C1327 C447 1.454 . S
C1325 C58 1.388 . S
C1338 C470 1.728 . S
C1336 C70 1.621 . S
C1347 C16 1.270 . S
C1349 C502 1.299 . S
C1360 C532 1.764 . S
C1358 C25 1.632 . S
C1369 C133 1.280 . S
C1371 C440 1.292 . S
C1382 C462 1.810 . S
C1380 C163 1.657 . S
C1393 C509 1.379 . S
C1391 C88 1.286 . S
C1402 C121 1.730 1_655 S
C1404 C524 1.862 . S
C1415 C471 1.381 . S
C1413 C104 1.386 . S
C1424 C7 1.473 . S
C1426 C564 1.441 . S
C1435 C41 1.312 . S
C1437 C594 1.444 . S
C1446 C49 1.300 . S
C1448 C633 1.395 . S
C1459 C493 1.705 . S
C1457 C229 1.517 . S
C1470 C571 1.392 . S
C1468 C335 1.336 . S
C1479 C172 1.631 . S
C1481 C586 1.820 . S
C1492 C656 1.296 . S
C1490 C298 1.174 . S
C1503 C378 1.631 . S
C1501 C142 1.639 . S
C1512 C166 1.636 . S
C1514 C346 1.739 . S
C1523 C87 1.582 . S
C1525 C385 1.683 . S
C1534 C124 1.677 . S
C1536 C338 1.840 . S
C1547 C688 1.536 . S
C1545 C61 1.526 . S
C1558 C679 1.993 . S
C1556 C79 1.818 1_545 S
C1567 C19 1.637 . S
C1569 C695 1.726 . S
C1578 C24 1.812 . S
C1580 C687 1.888 . S
C1589 C192 1.388 . S
C1591 C602 1.454 . S
C1602 C625 1.729 . S
C1600 C217 1.620 . S
C1613 C657 1.290 . S
C1611 C268 1.272 . S
C1622 C238 1.624 . S
C1624 C563 1.760 . S
C1635 C595 1.294 . S
C1633 C319 1.276 . S
C1644 C171 1.654 . S
C1646 C617 1.811 . S
C1657 C664 1.377 . S
C1655 C280 1.300 . S
C1666 C297 1.720 . S
C1668 C555 1.860 . S
C1677 C292 1.389 . S
C1679 C626 1.383 . S
C1688 C259 1.471 . S
C1690 C533 1.442 . S
C1701 C439 1.441 . S
C1699 C250 1.299 . S
C1710 C193 1.311 . S
C1712 C478 1.399 . S
C1721 C82 1.517 . S
C1723 C648 1.702 . S
C1732 C145 1.334 . S
C1734 C540 1.389 . S
C1745 C431 1.822 . S
C1743 C154 1.638 . S
C1754 C112 1.176 . S
C1756 C501 1.297 . S
