# Generated by pormake.
# Topology ocu, (6,8)-cn, num edge types: 1
# Building blocks:
#     Node 0, Type 0, BuildingBlock: PAMTUU_clean_sbu_0, # of connection points: 6
#     Node 1, Type 0, BuildingBlock: PAMTUU_clean_sbu_0, # of connection points: 6
#     Node 2, Type 0, BuildingBlock: PAMTUU_clean_sbu_0, # of connection points: 6
#     Node 3, Type 0, BuildingBlock: PAMTUU_clean_sbu_0, # of connection points: 6
#     Node 4, Type 0, BuildingBlock: PAMTUU_clean_sbu_0, # of connection points: 6
#     Node 5, Type 0, BuildingBlock: PAMTUU_clean_sbu_0, # of connection points: 6
#     Node 6, Type 0, BuildingBlock: PAMTUU_clean_sbu_0, # of connection points: 6
#     Node 7, Type 0, BuildingBlock: PAMTUU_clean_sbu_0, # of connection points: 6
#     Node 8, Type 1, BuildingBlock: AJUNOK_clean_sbu_0, # of connection points: 8
#     Node 9, Type 1, BuildingBlock: AJUNOK_clean_sbu_0, # of connection points: 8
#     Node 10, Type 1, BuildingBlock: AJUNOK_clean_sbu_0, # of connection points: 8
#     Node 11, Type 1, BuildingBlock: AJUNOK_clean_sbu_0, # of connection points: 8
#     Node 12, Type 1, BuildingBlock: AJUNOK_clean_sbu_0, # of connection points: 8
#     Node 13, Type 1, BuildingBlock: AJUNOK_clean_sbu_0, # of connection points: 8
#     Edge 14, Type (0, 1), BuildingBlock: MIFKUJ_clean_linker_0, # of connection points: 2
#     Edge 15, Type (0, 1), BuildingBlock: MIFKUJ_clean_linker_0, # of connection points: 2
#     Edge 16, Type (0, 1), BuildingBlock: MIFKUJ_clean_linker_0, # of connection points: 2
#     Edge 17, Type (0, 1), BuildingBlock: MIFKUJ_clean_linker_0, # of connection points: 2
#     Edge 18, Type (0, 1), BuildingBlock: MIFKUJ_clean_linker_0, # of connection points: 2
#     Edge 19, Type (0, 1), BuildingBlock: MIFKUJ_clean_linker_0, # of connection points: 2
#     Edge 20, Type (0, 1), BuildingBlock: MIFKUJ_clean_linker_0, # of connection points: 2
#     Edge 21, Type (0, 1), BuildingBlock: MIFKUJ_clean_linker_0, # of connection points: 2
#     Edge 22, Type (0, 1), BuildingBlock: MIFKUJ_clean_linker_0, # of connection points: 2
#     Edge 23, Type (0, 1), BuildingBlock: MIFKUJ_clean_linker_0, # of connection points: 2
#     Edge 24, Type (0, 1), BuildingBlock: MIFKUJ_clean_linker_0, # of connection points: 2
#     Edge 25, Type (0, 1), BuildingBlock: MIFKUJ_clean_linker_0, # of connection points: 2
#     Edge 26, Type (0, 1), BuildingBlock: MIFKUJ_clean_linker_0, # of connection points: 2
#     Edge 27, Type (0, 1), BuildingBlock: MIFKUJ_clean_linker_0, # of connection points: 2
#     Edge 28, Type (0, 1), BuildingBlock: MIFKUJ_clean_linker_0, # of connection points: 2
#     Edge 29, Type (0, 1), BuildingBlock: MIFKUJ_clean_linker_0, # of connection points: 2
#     Edge 30, Type (0, 1), BuildingBlock: MIFKUJ_clean_linker_0, # of connection points: 2
#     Edge 31, Type (0, 1), BuildingBlock: MIFKUJ_clean_linker_0, # of connection points: 2
#     Edge 32, Type (0, 1), BuildingBlock: MIFKUJ_clean_linker_0, # of connection points: 2
#     Edge 33, Type (0, 1), BuildingBlock: MIFKUJ_clean_linker_0, # of connection points: 2
#     Edge 34, Type (0, 1), BuildingBlock: MIFKUJ_clean_linker_0, # of connection points: 2
#     Edge 35, Type (0, 1), BuildingBlock: MIFKUJ_clean_linker_0, # of connection points: 2
#     Edge 36, Type (0, 1), BuildingBlock: MIFKUJ_clean_linker_0, # of connection points: 2
#     Edge 37, Type (0, 1), BuildingBlock: MIFKUJ_clean_linker_0, # of connection points: 2
#     Edge 38, Type (0, 1), BuildingBlock: MIFKUJ_clean_linker_0, # of connection points: 2
#     Edge 39, Type (0, 1), BuildingBlock: MIFKUJ_clean_linker_0, # of connection points: 2
#     Edge 40, Type (0, 1), BuildingBlock: MIFKUJ_clean_linker_0, # of connection points: 2
#     Edge 41, Type (0, 1), BuildingBlock: MIFKUJ_clean_linker_0, # of connection points: 2
#     Edge 42, Type (0, 1), BuildingBlock: MIFKUJ_clean_linker_0, # of connection points: 2
#     Edge 43, Type (0, 1), BuildingBlock: MIFKUJ_clean_linker_0, # of connection points: 2
#     Edge 44, Type (0, 1), BuildingBlock: MIFKUJ_clean_linker_0, # of connection points: 2
#     Edge 45, Type (0, 1), BuildingBlock: MIFKUJ_clean_linker_0, # of connection points: 2
#     Edge 46, Type (0, 1), BuildingBlock: MIFKUJ_clean_linker_0, # of connection points: 2
#     Edge 47, Type (0, 1), BuildingBlock: MIFKUJ_clean_linker_0, # of connection points: 2
#     Edge 48, Type (0, 1), BuildingBlock: MIFKUJ_clean_linker_0, # of connection points: 2
#     Edge 49, Type (0, 1), BuildingBlock: MIFKUJ_clean_linker_0, # of connection points: 2
#     Edge 50, Type (0, 1), BuildingBlock: MIFKUJ_clean_linker_0, # of connection points: 2
#     Edge 51, Type (0, 1), BuildingBlock: MIFKUJ_clean_linker_0, # of connection points: 2
#     Edge 52, Type (0, 1), BuildingBlock: MIFKUJ_clean_linker_0, # of connection points: 2
#     Edge 53, Type (0, 1), BuildingBlock: MIFKUJ_clean_linker_0, # of connection points: 2
#     Edge 54, Type (0, 1), BuildingBlock: MIFKUJ_clean_linker_0, # of connection points: 2
#     Edge 55, Type (0, 1), BuildingBlock: MIFKUJ_clean_linker_0, # of connection points: 2
#     Edge 56, Type (0, 1), BuildingBlock: MIFKUJ_clean_linker_0, # of connection points: 2
#     Edge 57, Type (0, 1), BuildingBlock: MIFKUJ_clean_linker_0, # of connection points: 2
#     Edge 58, Type (0, 1), BuildingBlock: MIFKUJ_clean_linker_0, # of connection points: 2
#     Edge 59, Type (0, 1), BuildingBlock: MIFKUJ_clean_linker_0, # of connection points: 2
#     Edge 60, Type (0, 1), BuildingBlock: MIFKUJ_clean_linker_0, # of connection points: 2
#     Edge 61, Type (0, 1), BuildingBlock: MIFKUJ_clean_linker_0, # of connection points: 2
# Relax obj value: 0.159
# Max RMSD: 0.253
# Mean RMSD: 0.191
data_MOF--net-ocu--node1-PAMTUU_clean_sbu_0--node2-AJUNOK_clean_sbu_0--edge1-MIFKUJ_clean_linker_0
_symmetry_space_group_name_H-M    P1
_symmetry_Int_Tables_number       1
_symmetry_cell_setting            triclinic
loop_
_symmetry_equiv_pos_as_xyz
'x, y, z'
_cell_length_a     54.22889
_cell_length_b     57.719809
_cell_length_c     46.698249
_cell_angle_alpha  92.103743
_cell_angle_beta   99.521555
_cell_angle_gamma 112.45674
loop_
_atom_site_label
_atom_site_type_symbol
_atom_site_fract_x
_atom_site_fract_y
_atom_site_fract_z
_atom_type_partial_charge
Tb0 Tb 0.25316 0.26795 0.24 0.0
Tb1 Tb 0.29054 0.27128 0.3001 0.0
C2 C 0.23664 0.2258 0.27893 0.0
C3 C 0.21048 0.28346 0.18128 0.0
C4 C 0.18053 0.31259 0.16367 0.0
C5 C 0.16759 0.2862 0.16124 0.0
C6 C 0.18249 0.27176 0.16992 0.0
C7 C 0.2233 0.30993 0.1845 0.0
C8 C 0.20844 0.32435 0.17569 0.0
C9 C 0.22554 0.26786 0.19119 0.0
O10 O 0.23698 0.28957 0.26771 0.0
O11 O 0.26652 0.29471 0.31088 0.0
O12 O 0.31632 0.29801 0.27664 0.0
O13 O 0.28244 0.30667 0.25069 0.0
O14 O 0.29139 0.25887 0.3417 0.0
O15 O 0.32716 0.28731 0.33059 0.0
O16 O 0.3075 0.25032 0.27232 0.0
O17 O 0.27702 0.24412 0.22951 0.0
O18 O 0.22754 0.2398 0.26291 0.0
O19 O 0.26261 0.23267 0.2883 0.0
C20 C 0.24576 0.2991 0.29568 0.0
O21 O 0.25201 0.27912 0.19772 0.0
O22 O 0.21584 0.25295 0.21045 0.0
C23 C 0.30818 0.3128 0.26116 0.0
C24 C 0.33382 0.25707 0.35902 0.0
C25 C 0.36598 0.23034 0.37738 0.0
C26 C 0.37562 0.25634 0.38574 0.0
C27 C 0.35961 0.26962 0.37658 0.0
C28 C 0.32449 0.23118 0.3498 0.0
C29 C 0.34049 0.21787 0.35902 0.0
C30 C 0.31763 0.27154 0.34917 0.0
C31 C 0.29829 0.24026 0.24451 0.0
H32 H 0.14611 0.27669 0.15193 0.0
H33 H 0.17215 0.25141 0.16773 0.0
H34 H 0.24477 0.31952 0.19383 0.0
H35 H 0.21877 0.34472 0.17826 0.0
H36 H 0.39543 0.26629 0.39959 0.0
H37 H 0.36732 0.28969 0.38326 0.0
H38 H 0.30483 0.22122 0.33567 0.0
H39 H 0.33267 0.19777 0.3525 0.0
Tb40 Tb 0.74412 0.28026 0.2645 0.0
Tb41 Tb 0.79584 0.26296 0.27153 0.0
C42 C 0.78321 0.28677 0.32193 0.0
C43 C 0.70571 0.31656 0.24402 0.0
C44 C 0.70863 0.35645 0.21123 0.0
C45 C 0.71245 0.3602 0.24169 0.0
C46 C 0.71067 0.34025 0.25798 0.0
C47 C 0.70321 0.31315 0.2136 0.0
C48 C 0.70454 0.33298 0.19729 0.0
C49 C 0.70819 0.29718 0.26181 0.0
O50 O 0.77268 0.30651 0.24133 0.0
O51 O 0.81129 0.30256 0.26474 0.0
O52 O 0.77846 0.25224 0.22605 0.0
O53 O 0.74893 0.27147 0.22126 0.0
O54 O 0.83499 0.27194 0.29566 0.0
O55 O 0.8172 0.24193 0.25979 0.0
O56 O 0.76323 0.22947 0.28074 0.0
O57 O 0.72792 0.24294 0.27873 0.0
O58 O 0.77298 0.29864 0.3036 0.0
O59 O 0.78364 0.26554 0.31261 0.0
C60 C 0.7993 0.31381 0.24696 0.0
O61 O 0.704 0.27556 0.24781 0.0
O62 O 0.73006 0.30538 0.2822 0.0
C63 C 0.75513 0.25258 0.21424 0.0
C64 C 0.83923 0.23352 0.30303 0.0
C65 C 0.84245 0.19805 0.3407 0.0
C66 C 0.83279 0.19054 0.31079 0.0
C67 C 0.83132 0.20823 0.292 0.0
C68 C 0.84787 0.2407 0.33326 0.0
C69 C 0.84938 0.223 0.352 0.0
C70 C 0.83593 0.25168 0.28332 0.0
C71 C 0.73832 0.226 0.28368 0.0
H72 H 0.71554 0.37824 0.25267 0.0
H73 H 0.71353 0.34338 0.28154 0.0
H74 H 0.7002 0.29525 0.20234 0.0
H75 H 0.7009 0.32953 0.17368 0.0
H76 H 0.8279 0.17138 0.30181 0.0
H77 H 0.82427 0.20213 0.26882 0.0
H78 H 0.85379 0.25999 0.34244 0.0
H79 H 0.85713 0.22896 0.37514 0.0
Tb80 Tb 0.77984 0.76634 0.24088 0.0
Tb81 Tb 0.76346 0.77245 0.29973 0.0
C82 C 0.81215 0.81237 0.28253 0.0
C83 C 0.80458 0.74395 0.18302 0.0
C84 C 0.83506 0.71691 0.16931 0.0
C85 C 0.84807 0.74068 0.18554 0.0
C86 C 0.833 0.75416 0.19219 0.0
C87 C 0.79147 0.71994 0.16735 0.0
C88 C 0.80661 0.70655 0.16037 0.0
C89 C 0.78844 0.75738 0.19165 0.0
O90 O 0.80482 0.74732 0.26648 0.0
O91 O 0.79173 0.75086 0.31005 0.0
O92 O 0.72805 0.74429 0.27245 0.0
O93 O 0.75701 0.73158 0.25648 0.0
O94 O 0.77622 0.79191 0.34172 0.0
O95 O 0.73794 0.75929 0.3297 0.0
O96 O 0.74037 0.79335 0.27456 0.0
O97 O 0.75166 0.78788 0.23047 0.0
O98 O 0.81528 0.79499 0.26706 0.0
O99 O 0.7882 0.80842 0.28765 0.0
C100 C 0.80617 0.7426 0.29444 0.0
O101 O 0.76648 0.74355 0.20083 0.0
O102 O 0.8021 0.77878 0.20808 0.0
C103 C 0.73211 0.72712 0.2578 0.0
C104 C 0.73781 0.79337 0.35754 0.0
C105 C 0.70681 0.81941 0.37171 0.0
C106 C 0.6989 0.79389 0.37589 0.0
C107 C 0.71446 0.78095 0.36897 0.0
C108 C 0.74506 0.81873 0.35228 0.0
C109 C 0.72971 0.83175 0.35959 0.0
C110 C 0.75271 0.77895 0.34852 0.0
C111 C 0.73836 0.79733 0.24636 0.0
H112 H 0.86993 0.7489 0.19306 0.0
H113 H 0.84371 0.77248 0.20478 0.0
H114 H 0.76953 0.7115 0.16064 0.0
H115 H 0.79608 0.68836 0.14746 0.0
H116 H 0.68126 0.78425 0.38541 0.0
H117 H 0.70824 0.76122 0.37245 0.0
H118 H 0.7626 0.82856 0.3427 0.0
H119 H 0.73586 0.85149 0.35624 0.0
Tb120 Tb 0.28482 0.75335 0.2644 0.0
Tb121 Tb 0.23791 0.77212 0.27902 0.0
C122 C 0.26428 0.74542 0.32087 0.0
C123 C 0.31634 0.71644 0.2292 0.0
C124 C 0.32109 0.681 0.19091 0.0
C125 C 0.32344 0.67818 0.22072 0.0
C126 C 0.32117 0.69586 0.23977 0.0
C127 C 0.31177 0.71819 0.19899 0.0
C128 C 0.31419 0.70042 0.17983 0.0
C129 C 0.31738 0.73601 0.25055 0.0
O130 O 0.24542 0.72238 0.25155 0.0
O131 O 0.21908 0.74481 0.24147 0.0
O132 O 0.26201 0.79798 0.25263 0.0
O133 O 0.26856 0.76759 0.2269 0.0
O134 O 0.21331 0.773 0.30872 0.0
O135 O 0.20862 0.78702 0.26659 0.0
O136 O 0.27463 0.79775 0.3077 0.0
O137 O 0.30785 0.79068 0.28771 0.0
O138 O 0.28638 0.7518 0.31043 0.0
O139 O 0.2412 0.74273 0.30425 0.0
C140 C 0.2249 0.72543 0.23548 0.0
O141 O 0.3156 0.75647 0.24105 0.0
O142 O 0.30294 0.7276 0.2705 0.0
C143 C 0.26836 0.79005 0.22941 0.0
C144 C 0.20685 0.81097 0.30737 0.0
C145 C 0.21093 0.8564 0.33475 0.0
C146 C 0.20552 0.85222 0.30422 0.0
C147 C 0.20337 0.82957 0.29058 0.0
C148 C 0.21426 0.81604 0.33796 0.0
C149 C 0.21639 0.83872 0.35157 0.0
C150 C 0.2033 0.78666 0.29286 0.0
C151 C 0.30024 0.80305 0.30639 0.0
H152 H 0.32874 0.66318 0.22945 0.0
H153 H 0.32439 0.69406 0.26297 0.0
H154 H 0.30756 0.73374 0.19033 0.0
H155 H 0.31253 0.70282 0.15677 0.0
H156 H 0.20106 0.86573 0.29105 0.0
H157 H 0.19805 0.82629 0.26696 0.0
H158 H 0.21742 0.80218 0.35148 0.0
H159 H 0.22012 0.84154 0.37523 0.0
Tb160 Tb 0.25408 0.77814 0.77179 0.0
Tb161 Tb 0.29822 0.75379 0.76814 0.0
C162 C 0.31459 0.80843 0.79693 0.0
C163 C 0.21632 0.81502 0.7507 0.0
C164 C 0.21609 0.84778 0.70803 0.0
C165 C 0.23253 0.85716 0.73573 0.0
C166 C 0.23255 0.84093 0.75697 0.0
C167 C 0.19981 0.80568 0.72289 0.0
C168 C 0.19974 0.82193 0.70173 0.0
C169 C 0.22002 0.79742 0.7712 0.0
O170 O 0.26051 0.78092 0.72755 0.0
O171 O 0.30207 0.77766 0.73344 0.0
O172 O 0.262 0.73246 0.73646 0.0
O173 O 0.2323 0.73748 0.76259 0.0
O174 O 0.33823 0.75555 0.77533 0.0
O175 O 0.30397 0.72118 0.7563 0.0
O176 O 0.2761 0.73834 0.8026 0.0
O177 O 0.2689 0.77298 0.81544 0.0
O178 O 0.29376 0.80913 0.77865 0.0
O179 O 0.3178 0.78715 0.79953 0.0
C180 C 0.28279 0.7833 0.71843 0.0
O181 O 0.21376 0.77457 0.75952 0.0
O182 O 0.24311 0.80579 0.78967 0.0
C183 C 0.23766 0.72477 0.74243 0.0
C184 C 0.33308 0.71815 0.79584 0.0
C185 C 0.3298 0.68946 0.84281 0.0
C186 C 0.33272 0.68017 0.81586 0.0
C187 C 0.33415 0.69444 0.79234 0.0
C188 C 0.32939 0.72704 0.82257 0.0
C189 C 0.32745 0.71267 0.84577 0.0
C190 C 0.32898 0.731 0.77055 0.0
C191 C 0.26949 0.75141 0.82129 0.0
H192 H 0.24517 0.87708 0.74101 0.0
H193 H 0.24577 0.84863 0.77807 0.0
H194 H 0.18729 0.78577 0.71726 0.0
H195 H 0.1863 0.81433 0.68071 0.0
H196 H 0.33496 0.66238 0.81331 0.0
H197 H 0.33576 0.68692 0.77145 0.0
H198 H 0.32742 0.74493 0.82539 0.0
H199 H 0.3251 0.72007 0.86636 0.0
Tb200 Tb 0.28401 0.26113 0.74216 0.0
Tb201 Tb 0.25809 0.27869 0.79754 0.0
C202 C 0.31285 0.30972 0.78119 0.0
C203 C 0.3157 0.22789 0.69608 0.0
C204 C 0.34599 0.20045 0.67893 0.0
C205 C 0.35729 0.22704 0.68295 0.0
C206 C 0.34235 0.24052 0.69131 0.0
C207 C 0.30462 0.20132 0.69271 0.0
C208 C 0.31955 0.18785 0.68445 0.0
C209 C 0.29856 0.24217 0.70123 0.0
O210 O 0.30536 0.25164 0.78105 0.0
O211 O 0.28125 0.25606 0.81651 0.0
O212 O 0.22425 0.24832 0.7709 0.0
O213 O 0.25397 0.23241 0.76086 0.0
O214 O 0.26689 0.3087 0.82986 0.0
O215 O 0.23068 0.27462 0.82596 0.0
O216 O 0.23804 0.28954 0.75908 0.0
O217 O 0.26108 0.28426 0.72302 0.0
O218 O 0.31739 0.2916 0.76879 0.0
O219 O 0.28808 0.30814 0.77977 0.0
C220 C 0.29967 0.24888 0.80755 0.0
O221 O 0.27654 0.23044 0.71139 0.0
O222 O 0.31076 0.26565 0.71272 0.0
C223 C 0.229 0.23053 0.75811 0.0
C224 C 0.22769 0.31318 0.84273 0.0
C225 C 0.19805 0.34213 0.85723 0.0
C226 C 0.18494 0.31589 0.84917 0.0
C227 C 0.19952 0.30166 0.84206 0.0
C228 C 0.24073 0.33946 0.8502 0.0
C229 C 0.22613 0.35371 0.85717 0.0
C230 C 0.24383 0.29772 0.83848 0.0
C231 C 0.24318 0.29206 0.73237 0.0
H232 H 0.37738 0.23755 0.67865 0.0
H233 H 0.35146 0.26093 0.69321 0.0
H234 H 0.28408 0.19083 0.69584 0.0
H235 H 0.31019 0.16745 0.6822 0.0
H236 H 0.1635 0.30608 0.84926 0.0
H237 H 0.18877 0.28146 0.83678 0.0
H238 H 0.26241 0.34902 0.85121 0.0
H239 H 0.23701 0.37387 0.86266 0.0
Tb240 Tb 0.77851 0.24387 0.76297 0.0
Tb241 Tb 0.7571 0.28825 0.76822 0.0
C242 C 0.72652 0.23535 0.78869 0.0
C243 C 0.80451 0.19612 0.74344 0.0
C244 C 0.82803 0.17352 0.70944 0.0
C245 C 0.81649 0.16131 0.73222 0.0
C246 C 0.80478 0.17268 0.74928 0.0
C247 C 0.81534 0.20811 0.72016 0.0
C248 C 0.82729 0.19683 0.70323 0.0
C249 C 0.79393 0.20827 0.76273 0.0
O250 O 0.74853 0.23938 0.72403 0.0
O251 O 0.74947 0.27939 0.72221 0.0
O252 O 0.79839 0.30387 0.75987 0.0
O253 O 0.8001 0.27007 0.73479 0.0
O254 O 0.72914 0.30496 0.75795 0.0
O255 O 0.76935 0.32557 0.78478 0.0
O256 O 0.76854 0.28055 0.81186 0.0
O257 O 0.80209 0.26973 0.80107 0.0
O258 O 0.74893 0.23161 0.79042 0.0
O259 O 0.72334 0.25436 0.77603 0.0
C260 C 0.7441 0.25715 0.70989 0.0
O261 O 0.80992 0.23146 0.77295 0.0
O262 O 0.76871 0.20531 0.75393 0.0
C263 C 0.80746 0.2945 0.73992 0.0
C264 C 0.73428 0.3368 0.7931 0.0
C265 C 0.7125 0.35909 0.82967 0.0
C266 C 0.71109 0.3639 0.80041 0.0
C267 C 0.72205 0.35278 0.78217 0.0
C268 C 0.73566 0.33177 0.82234 0.0
C269 C 0.72485 0.34309 0.84072 0.0
C270 C 0.74587 0.32599 0.77357 0.0
C271 C 0.79114 0.27753 0.82018 0.0
H272 H 0.81706 0.1433 0.73714 0.0
H273 H 0.79635 0.16343 0.76729 0.0
H274 H 0.81495 0.22624 0.71551 0.0
H275 H 0.83592 0.2062 0.68538 0.0
H276 H 0.7018 0.37647 0.79181 0.0
H277 H 0.72111 0.35672 0.75958 0.0
H278 H 0.74514 0.31932 0.83086 0.0
H279 H 0.72588 0.33924 0.86333 0.0
Tb280 Tb 0.76894 0.78953 0.80078 0.0
Tb281 Tb 0.7738 0.75043 0.73548 0.0
C282 C 0.81209 0.80355 0.77201 0.0
C283 C 0.73913 0.82518 0.84855 0.0
C284 C 0.71322 0.8553 0.871 0.0
C285 C 0.73807 0.86649 0.86139 0.0
C286 C 0.75074 0.85177 0.85045 0.0
C287 C 0.71409 0.81387 0.85767 0.0
C288 C 0.70131 0.82862 0.86854 0.0
C289 C 0.75507 0.80997 0.8414 0.0
O290 O 0.75257 0.80044 0.75946 0.0
O291 O 0.75228 0.77439 0.71821 0.0
O292 O 0.74065 0.72471 0.75238 0.0
O293 O 0.73557 0.75911 0.77156 0.0
O294 O 0.80721 0.75385 0.71583 0.0
O295 O 0.76661 0.72563 0.69788 0.0
O296 O 0.79189 0.73964 0.77548 0.0
O297 O 0.78878 0.76375 0.81659 0.0
O298 O 0.80898 0.81556 0.79397 0.0
O299 O 0.79186 0.78226 0.76553 0.0
C300 C 0.74666 0.79255 0.73092 0.0
O301 O 0.74263 0.78613 0.83108 0.0
O302 O 0.77618 0.82118 0.82961 0.0
C303 C 0.73074 0.73493 0.77078 0.0
C304 C 0.80455 0.7161 0.68805 0.0
C305 C 0.82839 0.68388 0.66635 0.0
C306 C 0.80042 0.67852 0.65771 0.0
C307 C 0.78874 0.69431 0.66837 0.0
C308 C 0.8325 0.72139 0.69684 0.0
C309 C 0.84414 0.70549 0.68635 0.0
C310 C 0.7925 0.73453 0.69612 0.0
C311 C 0.79592 0.74661 0.804 0.0
H312 H 0.74841 0.88681 0.86321 0.0
H313 H 0.77027 0.86142 0.84436 0.0
H314 H 0.70463 0.79355 0.85708 0.0
H315 H 0.68205 0.81898 0.87515 0.0
H316 H 0.78745 0.66203 0.64261 0.0
H317 H 0.76728 0.6897 0.66063 0.0
H318 H 0.84562 0.73819 0.71139 0.0
H319 H 0.86579 0.71059 0.69331 0.0
Cd320 Cd 0.99522 -0.00302 0.55661 0.0
Cd321 Cd 0.05034 0.04278 0.4997 0.0
C322 C 0.04387 0.98424 0.57207 0.0
N323 N 0.02264 0.97723 0.54926 0.0
C324 C 0.03454 0.94482 0.53067 0.0
C325 C 0.05595 0.95165 0.55484 0.0
C326 C 0.06181 0.97281 0.57424 0.0
C327 C 0.01794 0.95838 0.52808 0.0
H328 H 0.04608 -0.00261 0.59001 0.0
H329 H 1.00055 0.95279 0.51047 0.0
C330 C 0.99209 0.00556 0.48101 0.0
C331 C 0.02651 0.07879 0.47781 0.0
C332 C 0.01061 0.0926 0.47444 0.0
C333 C 1.00192 0.09921 0.49884 0.0
C334 C 0.01091 0.09381 0.52651 0.0
C335 C 0.02728 0.08022 0.52894 0.0
N336 N 0.03363 0.07223 0.5045 0.0
H337 H 0.03146 0.07166 0.45881 0.0
H338 H 0.03323 0.07488 0.54988 0.0
C339 C 0.05337 0.99454 0.47728 0.0
N340 N 0.0638 0.01053 0.50223 0.0
C341 C 0.09619 0.9929 0.51751 0.0
C342 C 0.08676 0.97716 0.49101 0.0
C343 C 0.06472 0.97772 0.47112 0.0
C344 C 0.08441 0.00986 0.52263 0.0
H345 H 0.03782 0.99634 0.46096 0.0
H346 H 0.0926 0.02319 0.54202 0.0
C347 C 0.04767 0.04103 0.57346 0.0
C348 C 0.96315 0.96061 0.58608 0.0
N349 N 0.97087 0.02045 0.55075 0.0
C350 C 0.97915 0.04036 0.57134 0.0
C351 C 0.96544 0.05607 0.57031 0.0
C352 C 0.94281 0.05104 0.54798 0.0
C353 C 0.93399 0.02984 0.52742 0.0
C354 C 0.94872 0.01466 0.52911 0.0
C355 C 0.08604 0.06996 0.46618 0.0
O356 O 1.00053 0.00881 0.50821 0.0
O357 O 1.00776 0.01932 0.46564 0.0
O358 O 0.03982 0.03275 0.54687 0.0
O359 O 0.03221 0.03035 0.59072 0.0
O360 O 0.9564 0.95864 0.55837 0.0
O361 O 0.9838 0.97968 0.59881 0.0
O362 O 0.09248 0.07628 0.49373 0.0
O363 O 0.06484 0.0504 0.45616 0.0
H364 H 0.99595 0.04378 0.58908 0.0
H365 H 0.9423 -0.00186 0.51365 0.0
H366 H 0.02985 0.92854 0.51525 0.0
H367 H 0.07865 0.97891 0.59277 0.0
H368 H 1.0031 0.09603 0.45269 0.0
H369 H 1.00399 0.09857 0.54546 0.0
H370 H 0.11318 0.99287 0.53338 0.0
H371 H 0.05783 0.96693 0.44986 0.0
H372 H 0.97202 0.07153 0.58745 0.0
H373 H 0.91612 0.02521 0.51042 0.0
Cd374 Cd 0.50693 0.02067 0.10595 0.0
Cd375 Cd 0.50925 0.05267 0.99235 0.0
C376 C 0.55565 0.99476 0.14949 0.0
N377 N 0.54223 0.99411 0.12132 0.0
C378 C 0.56044 0.96171 0.10866 0.0
C379 C 0.57439 0.96176 0.13761 0.0
C380 C 0.57121 0.97937 0.15771 0.0
C381 C 0.54495 0.97733 0.10128 0.0
H382 H 0.55421 0.0071 0.16655 0.0
H383 H 0.53462 0.97532 0.07886 0.0
C384 C 0.47302 -0.00113 0.02356 0.0
C385 C 0.45245 0.06096 0.95497 0.0
C386 C 0.43675 0.07456 0.94341 0.0
C387 C 0.446 0.10094 0.95075 0.0
C388 C 0.47121 0.11243 0.97038 0.0
C389 C 0.48617 0.09819 0.98141 0.0
N390 N 0.47689 0.07281 0.97371 0.0
H391 H 0.44519 0.04095 0.9484 0.0
H392 H 0.50565 0.10767 0.99596 0.0
C393 C 0.51934 0.00278 0.96108 0.0
N394 N 0.53122 0.02451 0.97977 0.0
C395 C 0.57419 0.01987 0.98599 0.0
C396 C 0.56259 -0.00245 0.96682 0.0
C397 C 0.53468 0.98893 0.95444 0.0
C398 C 0.55815 0.03292 0.99226 0.0
H399 H 0.49805 0.99622 0.95109 0.0
H400 H 0.56746 0.05017 0.00687 0.0
C401 C 0.53712 0.06705 0.06639 0.0
C402 C 0.46866 0.98192 0.1232 0.0
N403 N 0.48054 0.0516 0.1224 0.0
C404 C 0.49315 0.07626 0.1353 0.0
C405 C 0.47837 0.09141 0.14254 0.0
C406 C 0.44928 0.08231 0.1371 0.0
C407 C 0.437 0.05686 0.12359 0.0
C408 C 0.45244 0.04237 0.11659 0.0
C409 C 0.55014 0.08374 0.96503 0.0
O410 O 0.48576 0.00827 0.04987 0.0
O411 O 0.47776 0.01155 0.0017 0.0
O412 O 0.51799 0.05409 0.04569 0.0
O413 O 0.53859 0.0596 0.0918 0.0
O414 O 0.46788 0.98475 0.09614 0.0
O415 O 0.48715 -0.00136 0.14233 0.0
O416 O 0.5522 0.08804 0.99261 0.0
O417 O 0.52876 0.06583 0.951 0.0
H418 H 0.51515 0.08481 0.14023 0.0
H419 H 0.44127 0.0233 0.10613 0.0
H420 H 0.5609 0.94912 0.09122 0.0
H421 H 0.58082 0.98156 0.1804 0.0
H422 H 0.41782 0.06445 0.92818 0.0
H423 H 0.47951 0.13243 0.97746 0.0
H424 H 0.59556 0.02722 0.99605 0.0
H425 H 0.52491 0.97181 0.93946 0.0
H426 H 0.4902 0.11043 0.15282 0.0
H427 H 0.41506 0.04779 0.11787 0.0
Cd428 Cd 0.98419 0.5078 0.02599 0.0
Cd429 Cd 0.01097 0.55759 0.95515 0.0
C430 C 0.03868 0.49948 0.04138 0.0
N431 N 0.0144 0.48989 0.02242 0.0
C432 C 0.01996 0.45185 0.01134 0.0
C433 C 0.04435 0.46097 0.03193 0.0
C434 C 0.05432 0.48539 0.04611 0.0
C435 C 1.00508 0.46687 0.00684 0.0
H436 H 0.04501 0.517 0.05483 0.0
H437 H 0.98513 0.45941 0.99293 0.0
C438 C 0.96675 0.50819 0.94956 0.0
C439 C 0.95715 0.56997 0.93343 0.0
C440 C 0.94181 0.58432 0.9257 0.0
C441 C 0.95223 0.61017 0.93572 0.0
C442 C 0.97797 0.62054 0.95442 0.0
C443 C 0.9928 0.60548 0.96142 0.0
N444 N 0.9824 0.58071 0.95058 0.0
H445 H 0.94919 0.55047 0.92449 0.0
H446 H 0.01306 0.61383 0.97467 0.0
C447 C 0.02595 0.5142 0.92413 0.0
N448 N 0.03057 0.52697 0.95085 0.0
C449 C 0.05991 0.50661 0.97069 0.0
C450 C 0.05524 0.49287 0.94339 0.0
C451 C 0.03798 0.49707 0.91995 0.0
C452 C 0.04748 0.52366 0.97388 0.0
H453 H 0.01319 0.51758 0.90581 0.0
H454 H 0.05163 0.53443 0.99475 0.0
C455 C 0.03075 0.55983 0.03261 0.0
C456 C 0.94943 0.4685 0.05227 0.0
N457 N 0.96358 0.53405 0.03138 0.0
C458 C 0.97174 0.55074 0.05565 0.0
C459 C 0.96115 0.56895 0.05694 0.0
C460 C 0.94159 0.56914 0.03338 0.0
C461 C 0.93243 0.55095 0.00933 0.0
C462 C 0.94398 0.53336 0.00879 0.0
C463 C 0.05061 0.5877 0.92834 0.0
O464 O 0.97994 0.51656 0.97518 0.0
O465 O 0.97313 0.52163 0.92912 0.0
O466 O 0.01652 0.55347 0.00713 0.0
O467 O 0.02307 0.54524 0.05192 0.0
O468 O 0.94264 0.47035 0.02529 0.0
O469 O 0.97179 0.48492 0.06635 0.0
O470 O 0.05424 0.58964 0.9561 0.0
O471 O 0.02748 0.57336 0.9137 0.0
H472 H 0.98659 0.55007 0.07378 0.0
H473 H 0.93753 0.51926 0.9904 0.0
H474 H 0.01179 0.43284 0.00044 0.0
H475 H 0.07271 0.49256 0.06278 0.0
H476 H 0.92244 0.5753 0.91082 0.0
H477 H 0.98688 0.64021 0.9632 0.0
H478 H 0.07295 0.5042 0.98952 0.0
H479 H 0.03423 0.4877 0.89822 0.0
H480 H 0.96769 0.5824 0.07627 0.0
H481 H 0.91672 0.55045 0.99136 0.0
Cd482 Cd 0.49482 0.49764 0.04313 0.0
Cd483 Cd 0.54423 0.54164 0.98178 0.0
C484 C 0.53394 0.47441 0.06116 0.0
N485 N 0.51861 0.47513 0.03552 0.0
C486 C 0.53283 0.44768 0.01 0.0
C487 C 0.54869 0.44685 0.03632 0.0
C488 C 0.5499 0.46081 0.06195 0.0
C489 C 0.51793 0.46259 0.00999 0.0
H490 H 0.5332 0.48395 0.08113 0.0
H491 H 0.50586 0.46389 0.98982 0.0
C492 C 0.48677 0.50626 0.96937 0.0
C493 C 0.51284 0.57342 0.95965 0.0
C494 C 0.49681 0.58693 0.96081 0.0
C495 C 0.49314 0.59413 0.9882 0.0
C496 C 0.50614 0.58902 0.01382 0.0
C497 C 0.52129 0.5749 0.01145 0.0
N498 N 0.52376 0.56716 0.98483 0.0
H499 H 0.51548 0.56674 0.93888 0.0
H500 H 0.52975 0.56893 0.03046 0.0
C501 C 0.54604 0.49271 0.95663 0.0
N502 N 0.55593 0.50982 0.98058 0.0
C503 C 0.59063 0.49592 -0.00198 0.0
C504 C 0.58149 0.47847 0.97304 0.0
C505 C 0.5586 0.47645 0.95243 0.0
C506 C 0.57744 0.51172 0.00126 0.0
H507 H 0.52956 0.49278 0.94013 0.0
H508 H 0.58527 0.52656 0.01914 0.0
C509 C 0.55058 0.53899 0.05925 0.0
C510 C 0.45811 0.46432 0.07163 0.0
N511 N 0.47403 0.52425 0.04148 0.0
C512 C 0.48271 0.54153 0.06515 0.0
C513 C 0.46972 0.5576 0.06818 0.0
C514 C 0.44768 0.55594 0.0464 0.0
C515 C 0.43855 0.53715 0.02267 0.0
C516 C 0.45202 0.5212 0.0208 0.0
C517 C 0.58627 0.57453 0.95919 0.0
O518 O 0.49974 0.51051 0.99525 0.0
O519 O 0.49944 0.51751 0.95017 0.0
O520 O 0.54239 0.53212 0.03221 0.0
O521 O 0.5355 0.52691 0.07616 0.0
O522 O 0.45531 0.45949 0.04421 0.0
O523 O 0.47791 0.48391 0.08469 0.0
O524 O 0.58506 0.5787 0.98574 0.0
O525 O 0.56854 0.55465 0.94415 0.0
H526 H 0.49902 0.54211 0.08226 0.0
H527 H 0.44429 0.50592 0.0036 0.0
H528 H 0.53178 0.4368 0.99011 0.0
H529 H 0.56218 0.46026 0.08256 0.0
H530 H 0.48629 0.59055 0.9408 0.0
H531 H 0.50311 0.5944 0.03502 0.0
H532 H 0.60835 0.49802 0.0142 0.0
H533 H 0.55154 0.46358 0.93257 0.0
H534 H 0.47645 0.57055 0.08792 0.0
H535 H 0.42104 0.53445 0.00593 0.0
Cd536 Cd 0.0291 0.48324 0.54264 0.0
Cd537 Cd 0.03988 0.52207 0.43395 0.0
C538 C 0.07099 0.46583 0.59244 0.0
N539 N 0.06193 0.46384 0.56297 0.0
C540 C 0.08368 0.43471 0.55628 0.0
C541 C 0.0931 0.43611 0.58666 0.0
C542 C 0.08648 0.45231 0.60461 0.0
C543 C 0.06817 0.4485 0.54501 0.0
H544 H 0.06569 0.47754 0.60685 0.0
H545 H 0.06045 0.44631 0.52174 0.0
C546 C 1.00129 0.47887 0.46919 0.0
C547 C 0.9948 0.55099 0.39168 0.0
C548 C 0.97916 0.56626 0.38362 0.0
C549 C 0.97338 0.58155 0.40426 0.0
C550 C 0.98493 0.57954 0.43355 0.0
C551 C 1.00057 0.56406 0.44078 0.0
N552 N 1.00575 0.54952 0.42017 0.0
H553 H 0.99829 0.54042 0.37429 0.0
H554 H 0.00886 0.56425 0.46356 0.0
C555 C 0.0554 0.46985 0.39964 0.0
N556 N 0.0666 0.49063 0.42037 0.0
C557 C 0.10837 0.48106 0.42725 0.0
C558 C 0.09754 0.45954 0.40577 0.0
C559 C 0.07001 0.45461 0.39233 0.0
C560 C 0.09311 0.49585 0.43396 0.0
H561 H 0.03473 0.46471 0.38807 0.0
H562 H 0.10315 0.51194 0.4504 0.0
C563 C 0.07228 0.53899 0.51702 0.0
C564 C 0.98786 0.45169 0.57012 0.0
N565 N 1.00629 0.51083 0.55437 0.0
C566 C 0.01744 0.53117 0.57509 0.0
C567 C 1.00205 0.54483 0.58205 0.0
C568 C 0.97475 0.53774 0.56765 0.0
C569 C 0.96403 0.51683 0.54616 0.0
C570 C 0.98004 0.50369 0.53997 0.0
C571 C 0.07087 0.55618 0.40362 0.0
O572 O 0.02243 0.48669 0.48914 0.0
O573 O 1.0018 0.48731 0.44433 0.0
O574 O 0.06156 0.53338 0.48959 0.0
O575 O 0.06386 0.52395 0.53614 0.0
O576 O 0.98923 0.44482 0.54428 0.0
O577 O 1.00598 0.47256 0.58292 0.0
O578 O 0.07526 0.55929 0.43146 0.0
O579 O 0.05194 0.5362 0.38961 0.0
H580 H 0.03818 0.53664 0.58663 0.0
H581 H 0.97117 0.48727 0.524 0.0
H582 H 0.0875 0.42239 0.54115 0.0
H583 H 0.0932 0.45462 0.62807 0.0
H584 H 0.97161 0.56582 0.36061 0.0
H585 H 0.98234 0.59026 0.45145 0.0
H586 H 0.12899 0.48693 0.43922 0.0
H587 H 0.05922 0.43885 0.37566 0.0
H588 H 0.01157 0.56089 0.59858 0.0
H589 H 0.94312 0.51016 0.53466 0.0
Cd590 Cd 0.53209 0.98289 0.58492 0.0
Cd591 Cd 0.55878 0.034 0.51391 0.0
C592 C 0.57278 0.96211 0.6211 0.0
N593 N 0.56137 0.96107 0.59262 0.0
C594 C 0.57998 0.93162 0.57881 0.0
C595 C 0.59137 0.93189 0.60827 0.0
C596 C 0.58784 0.94767 0.62941 0.0
C597 C 0.56469 0.94624 0.57145 0.0
H598 H 0.56952 0.97371 0.63758 0.0
H599 H 0.55496 0.94528 0.549 0.0
C600 C 0.51405 0.97955 0.50688 0.0
C601 C 0.50085 0.03677 0.49932 0.0
C602 C 0.48356 0.04922 0.49377 0.0
C603 C 0.49231 0.07418 0.50592 0.0
C604 C 0.51695 0.08528 0.52602 0.0
C605 C 0.53367 0.07202 0.53107 0.0
N606 N 0.52575 0.04868 0.51679 0.0
H607 H 0.49503 0.01852 0.48764 0.0
H608 H 0.55391 0.08113 0.54419 0.0
C609 C 0.57371 0.99652 0.47992 0.0
N610 N 0.57909 0.0077 0.50753 0.0
C611 C 0.60317 0.98299 0.52577 0.0
C612 C 0.59614 0.96994 0.4979 0.0
C613 C 0.58191 0.9772 0.47456 0.0
C614 C 0.59433 0.00213 0.53015 0.0
H615 H 0.56221 0.00209 0.46233 0.0
H616 H 0.5993 0.01214 0.55159 0.0
C617 C 0.57802 0.03149 0.59031 0.0
C618 C 0.49334 0.95036 0.61104 0.0
N619 N 0.51319 0.0136 0.59009 0.0
C620 C 0.52074 0.02905 0.61547 0.0
C621 C 0.50824 0.04578 0.61971 0.0
C622 C 0.48749 0.04664 0.59776 0.0
C623 C 0.48035 0.0306 0.57164 0.0
C624 C 0.49342 0.01416 0.56834 0.0
C625 C 0.59259 0.07114 0.48322 0.0
O626 O 0.52617 0.98663 0.53313 0.0
O627 O 0.52188 0.99463 0.48806 0.0
O628 O 0.56376 0.02508 0.56483 0.0
O629 O 0.57189 0.0167 0.60963 0.0
O630 O 0.49222 0.94628 0.58378 0.0
O631 O 0.51307 0.96923 0.62555 0.0
O632 O 0.59951 0.072 0.51082 0.0
O633 O 0.57004 0.05385 0.47099 0.0
H634 H 0.53605 0.028 0.63282 0.0
H635 H 0.48749 0.00155 0.54855 0.0
H636 H 0.58206 0.9196 0.56181 0.0
H637 H 0.59647 0.9487 0.6523 0.0
H638 H 0.46457 0.04023 0.47819 0.0
H639 H 0.52429 0.1047 0.53545 0.0
H640 H 0.6147 0.97803 0.54397 0.0
H641 H 0.57713 0.96799 0.45253 0.0
H642 H 0.51423 0.05729 0.64048 0.0
H643 H 0.46478 0.03065 0.55387 0.0
H644 H 0.18174 0.19987 0.25958 0.0
H645 H 0.15063 0.16905 0.28571 0.0
H646 H 0.21905 0.17601 0.35287 0.0
H647 H 0.24975 0.20506 0.32658 0.0
H648 H 0.18679 0.13029 0.34314 0.0
H649 H 0.17777 0.21074 0.3574 0.0
H650 H 0.166 0.24633 0.34216 0.0
H651 H 0.08429 0.19489 0.30553 0.0
H652 H 0.09569 0.159 0.32033 0.0
H653 H 0.13796 0.10625 0.47625 0.0
H654 H 0.16035 0.13188 0.43972 0.0
H655 H 0.08715 0.09553 0.37441 0.0
H656 H 0.06502 0.06989 0.41001 0.0
H657 H 0.11546 0.15156 0.37772 0.0
H658 H 0.12862 0.07156 0.37029 0.0
H659 H 0.14377 0.03992 0.39256 0.0
H660 H 0.22348 0.09734 0.42442 0.0
H661 H 0.20869 0.12931 0.4025 0.0
C662 C 0.18998 0.19423 0.27959 0.0
C663 C 0.21803 0.20476 0.29115 0.0
C664 C 0.17228 0.17688 0.29452 0.0
C665 C 0.18262 0.17058 0.32131 0.0
C666 C 0.21069 0.18045 0.33209 0.0
C667 C 0.22825 0.19712 0.31698 0.0
C668 C 0.16481 0.15469 0.33949 0.0
C669 C 0.17117 0.13498 0.35061 0.0
C670 C 0.14432 0.16071 0.34905 0.0
C671 C 0.13769 0.1822 0.33952 0.0
C672 C 0.15739 0.20703 0.34581 0.0
C673 C 0.15076 0.22725 0.33733 0.0
C674 C 0.12445 0.22286 0.32278 0.0
C675 C 0.10469 0.19825 0.31671 0.0
C676 C 0.11122 0.17797 0.32512 0.0
C677 C 0.12681 0.10387 0.4541 0.0
C678 C 0.10013 0.08586 0.44565 0.0
C679 C 0.13943 0.11848 0.43347 0.0
C680 C 0.12513 0.11532 0.40469 0.0
C681 C 0.09825 0.09809 0.39664 0.0
C682 C 0.08587 0.08331 0.41692 0.0
C683 C 0.13865 0.12838 0.38207 0.0
C684 C 0.13098 0.14696 0.36988 0.0
C685 C 0.15865 0.12206 0.37221 0.0
C686 C 0.16754 0.10276 0.3849 0.0
C687 C 0.14933 0.07741 0.38215 0.0
C688 C 0.15786 0.05943 0.39468 0.0
C689 C 0.18457 0.06662 0.40992 0.0
C690 C 0.20282 0.09179 0.4126 0.0
C691 C 0.19439 0.10982 0.40008 0.0
H692 H 0.19112 0.05268 0.41963 0.0
H693 H 0.11934 0.23854 0.31629 0.0
H694 H 0.81128 0.15063 0.35153 0.0
H695 H 0.82829 0.12184 0.3781 0.0
H696 H 0.90965 0.17981 0.39448 0.0
H697 H 0.89294 0.20826 0.36858 0.0
H698 H 0.90498 0.13275 0.37026 0.0
H699 H 0.87872 0.1731 0.44515 0.0
H700 H 0.849 0.18474 0.47206 0.0
H701 H 0.80232 0.10653 0.47776 0.0
H702 H 0.83159 0.09441 0.45037 0.0
H703 H 1.00219 0.14455 0.48737 0.0
H704 H 0.96336 0.15019 0.4582 0.0
H705 H 0.91164 0.07316 0.46549 0.0
H706 H 0.95071 0.0674 0.49331 0.0
H707 H 0.88852 0.11079 0.46908 0.0
H708 H 0.93253 0.07817 0.40777 0.0
H709 H 0.9711 0.07476 0.38909 0.0
H710 H 0.99512 0.15065 0.36654 0.0
H711 H 0.95692 0.15467 0.38544 0.0
C712 C 0.83266 0.15707 0.36129 0.0
C713 C 0.85091 0.1815 0.35878 0.0
C714 C 0.84226 0.14076 0.37612 0.0
C715 C 0.87005 0.14892 0.38775 0.0
C716 C 0.88812 0.17336 0.38533 0.0
C717 C 0.87857 0.18962 0.371 0.0
C718 C 0.88111 0.13252 0.40296 0.0
C719 C 0.9013 0.12769 0.39178 0.0
C720 C 0.87564 0.12568 0.43062 0.0
C721 C 0.85671 0.1328 0.44482 0.0
C722 C 0.86164 0.15835 0.45137 0.0
C723 C 0.84504 0.16505 0.46696 0.0
C724 C 0.82362 0.14637 0.47637 0.0
C725 C 0.81877 0.12096 0.47023 0.0
C726 C 0.8353 0.11416 0.45461 0.0
C727 C 0.98218 0.12943 0.48399 0.0
C728 C 0.97871 0.10589 0.49328 0.0
C729 C 0.9603 0.13242 0.46707 0.0
C730 C 0.93522 0.11178 0.4595 0.0
C731 C 0.93107 0.08907 0.47126 0.0
C732 C 0.95303 0.08601 0.48779 0.0
C733 C 0.91403 0.1137 0.43764 0.0
C734 C 0.89156 0.11509 0.44718 0.0
C735 C 0.91848 0.11885 0.4092 0.0
C736 C 0.94179 0.11669 0.39808 0.0
C737 C 0.94614 0.09421 0.39904 0.0
C738 C 0.96792 0.09215 0.38835 0.0
C739 C 0.98553 0.11247 0.37662 0.0
C740 C 0.98143 0.13491 0.37559 0.0
C741 C 0.95967 0.13706 0.38623 0.0
H742 H 1.00235 0.11081 0.36831 0.0
H743 H 0.81088 0.1516 0.4886 0.0
H744 H 0.84276 0.79748 0.32219 0.0
H745 H 0.87 0.82204 0.36865 0.0
H746 H 0.85603 0.88706 0.34019 0.0
H747 H 0.82806 0.86234 0.29408 0.0
H748 H 0.91627 0.87748 0.363 0.0
H749 H 0.83059 0.8896 0.38061 0.0
H750 H 0.78326 0.87244 0.38814 0.0
H751 H 0.80216 0.82451 0.44854 0.0
H752 H 0.84981 0.84168 0.44147 0.0
H753 H 0.96516 -0.00264 0.42479 0.0
H754 H 0.93223 0.95673 0.3999 0.0
H755 H 0.93259 0.92415 0.48164 0.0
H756 H 0.96405 0.9652 0.50687 0.0
H757 H 0.88231 0.90522 0.44476 0.0
H758 H 0.97442 0.91148 0.43644 0.0
H759 H 0.0205 0.93269 0.42626 0.0
H760 H 0.98715 0.94944 0.34347 0.0
H761 H 0.94075 0.92725 0.35268 0.0
C762 C 0.84627 0.81725 0.32569 0.0
C763 C 0.83434 0.8286 0.30472 0.0
C764 C 0.86097 0.83085 0.35234 0.0
C765 C 0.86377 0.85574 0.35781 0.0
C766 C 0.8529 0.86742 0.33636 0.0
C767 C 0.83784 0.85372 0.30993 0.0
C768 C 0.88197 0.87125 0.38367 0.0
C769 C 0.90915 0.88319 0.38137 0.0
C770 C 0.8723 0.87821 0.40736 0.0
C771 C 0.84346 0.86647 0.41002 0.0
C772 C 0.8245 0.87509 0.3951 0.0
C773 C 0.79769 0.86549 0.39943 0.0
C774 C 0.7896 0.84719 0.41859 0.0
C775 C 0.80839 0.83853 0.43353 0.0
C776 C 0.83531 0.84819 0.42938 0.0
C777 C 0.95761 0.9817 0.43751 0.0
C778 C 0.96765 0.98394 0.46751 0.0
C779 C 0.93914 0.95856 0.42333 0.0
C780 C 0.93133 0.93748 0.43895 0.0
C781 C 0.93907 0.94024 0.46931 0.0
C782 C 0.95697 0.96359 0.4836 0.0
C783 C 0.91627 0.91251 0.42303 0.0
C784 C 0.88991 0.89866 0.4274 0.0
C785 C 0.92645 0.90411 0.40062 0.0
C786 C 0.95427 0.91786 0.39533 0.0
C787 C 0.97698 0.91978 0.41615 0.0
C788 C 1.00315 0.93194 0.4105 0.0
C789 C 1.00685 0.94276 0.38441 0.0
C790 C 0.98431 0.94111 0.3637 0.0
C791 C 0.95807 0.92853 0.36898 0.0
H792 H 0.02716 0.95226 0.38018 0.0
H793 H 0.76883 0.83983 0.42197 0.0
H794 H 0.16262 0.85943 0.32312 0.0
H795 H 0.14568 0.88331 0.35236 0.0
H796 H 0.22521 0.91895 0.40784 0.0
H797 H 0.24193 0.89338 0.37927 0.0
H798 H 0.18663 0.90059 0.43862 0.0
H799 H 0.19742 0.95254 0.35868 0.0
H800 H 0.19232 0.95748 0.30605 0.0
H801 H 0.1055 0.92094 0.29569 0.0
H802 H 0.11007 0.91561 0.34821 0.0
H803 H 0.14172 0.99214 0.49943 0.0
H804 H 0.16635 0.97229 0.47522 0.0
H805 H 0.0907 0.91141 0.43563 0.0
H806 H 0.0658 0.93033 0.46093 0.0
H807 H 0.13048 0.94676 0.39782 0.0
H808 H 0.11859 0.88458 0.46803 0.0
H809 H 0.11945 0.8712 0.51769 0.0
H810 H 0.20278 0.92312 0.54369 0.0
H811 H 0.20243 0.93652 0.49412 0.0
C812 C 0.17673 0.873 0.34095 0.0
C813 C 0.20364 0.87518 0.34876 0.0
C814 C 0.16706 0.88663 0.35761 0.0
C815 C 0.18445 0.90339 0.38167 0.0
C816 C 0.2117 0.9063 0.38902 0.0
C817 C 0.22125 0.89199 0.37271 0.0
C818 C 0.1731 0.9159 0.40045 0.0
C819 C 0.17505 0.91134 0.42988 0.0
C820 C 0.15701 0.9289 0.38857 0.0
C821 C 0.15411 0.93379 0.35742 0.0
C822 C 0.17724 0.9457 0.3452 0.0
C823 C 0.17444 0.9485 0.31537 0.0
C824 C 0.1486 0.93955 0.29754 0.0
C825 C 0.12549 0.92795 0.30955 0.0
C826 C 0.12817 0.92514 0.33938 0.0
C827 C 0.13039 0.97403 0.48655 0.0
C828 C 0.10186 0.96284 0.48177 0.0
C829 C 0.14444 0.96293 0.47257 0.0
C830 C 0.13003 0.94079 0.45364 0.0
C831 C 0.10182 0.9287 0.45013 0.0
C832 C 0.08777 0.93955 0.46443 0.0
C833 C 0.14438 0.93149 0.43563 0.0
C834 C 0.14279 0.93663 0.4065 0.0
C835 C 0.16041 0.91873 0.4475 0.0
C836 C 0.16055 0.91141 0.47749 0.0
C837 C 0.13706 0.89314 0.48442 0.0
C838 C 0.13749 0.88546 0.51247 0.0
C839 C 0.16124 0.8961 0.53375 0.0
C840 C 0.18447 0.91471 0.52716 0.0
C841 C 0.18422 0.92227 0.49906 0.0
H842 H 0.16165 0.88977 0.55526 0.0
H843 H 0.1465 0.94159 0.27442 0.0
H844 H 0.214 0.84293 0.64925 0.0
H845 H 0.19285 0.86349 0.614 0.0
H846 H 0.18921 0.91176 0.68445 0.0
H847 H 0.20925 0.89087 0.71981 0.0
H848 H 0.13704 0.86356 0.6399 0.0
H849 H 0.20224 0.96465 0.6401 0.0
H850 H 0.25099 0.99227 0.64636 0.0
H851 H 0.26495 0.9346 0.59916 0.0
H852 H 0.21635 0.90672 0.59276 0.0
H853 H 0.06307 0.93606 0.60756 0.0
H854 H 0.09799 0.92148 0.62693 0.0
H855 H 0.11516 0.91468 0.54061 0.0
H856 H 0.08125 0.9317 0.52143 0.0
H857 H 0.16173 0.93973 0.58684 0.0
H858 H 0.07638 0.86234 0.56966 0.0
H859 H 0.02861 0.84344 0.57586 0.0
H860 H 0.05458 0.8598 0.66894 0.0
H861 H 0.10243 0.87896 0.66332 0.0
C862 C 0.20957 0.85855 0.65707 0.0
C863 C 0.21273 0.86511 0.6871 0.0
C864 C 0.19777 0.8703 0.63701 0.0
C865 C 0.18974 0.8889 0.64702 0.0
C866 C 0.1958 0.89756 0.67669 0.0
C867 C 0.20729 0.88567 0.69676 0.0
C868 C 0.16958 0.89488 0.62794 0.0
C869 C 0.14224 0.87973 0.6275 0.0
C870 C 0.17692 0.91663 0.61337 0.0
C871 C 0.20575 0.93373 0.6158 0.0
C872 C 0.2157 0.95802 0.63081 0.0
C873 C 0.24331 0.97366 0.63452 0.0
C874 C 0.26105 0.96522 0.6231 0.0
C875 C 0.25121 0.94113 0.60798 0.0
C876 C 0.22368 0.92538 0.60441 0.0
C877 C 0.07417 0.93128 0.59262 0.0
C878 C 0.07049 0.93571 0.5632 0.0
C879 C 0.09398 0.92295 0.60369 0.0
C880 C 0.10871 0.91684 0.585 0.0
C881 C 0.10377 0.91941 0.55513 0.0
C882 C 0.08445 0.92881 0.54417 0.0
C883 C 0.12903 0.90755 0.59732 0.0
C884 C 0.1564 0.92268 0.59773 0.0
C885 C 0.12168 0.88604 0.61266 0.0
C886 C 0.09308 0.87177 0.61605 0.0
C887 C 0.07193 0.86156 0.59146 0.0
C888 C 0.04482 0.85095 0.59488 0.0
C889 C 0.03858 0.85033 0.62277 0.0
C890 C 0.05945 0.86013 0.64735 0.0
C891 C 0.08658 0.87073 0.64407 0.0
H892 H 0.01758 0.84231 0.62535 0.0
H893 H 0.28241 0.97733 0.62601 0.0
H894 H 0.23369 0.24067 0.70368 0.0
H895 H 0.21542 0.20998 0.66107 0.0
H896 H 0.16357 0.15681 0.7104 0.0
H897 H 0.18451 0.18719 0.75443 0.0
H898 H 0.18949 0.13569 0.68359 0.0
H899 H 0.14032 0.18928 0.65705 0.0
H900 H 0.13795 0.23034 0.6484 0.0
H901 H 0.18507 0.23778 0.58129 0.0
H902 H 0.18804 0.19686 0.5899 0.0
H903 H 0.0636 0.06966 0.62544 0.0
H904 H 0.10731 0.10439 0.64308 0.0
H905 H 0.13245 0.09562 0.56171 0.0
H906 H 0.08811 0.06132 0.54351 0.0
H907 H 0.14185 0.14786 0.58871 0.0
H908 H 0.16401 0.07691 0.61021 0.0
H909 H 0.14945 0.03303 0.62233 0.0
H910 H 0.13562 0.05549 0.70486 0.0
H911 H 0.14962 0.09933 0.69313 0.0
C912 C 0.218 0.22268 0.70526 0.0
C913 C 0.21053 0.21598 0.73202 0.0
C914 C 0.20764 0.20514 0.68092 0.0
C915 C 0.1885 0.18116 0.6828 0.0
C916 C 0.17887 0.17523 0.70891 0.0
C917 C 0.19021 0.19259 0.73373 0.0
C918 C 0.17886 0.16195 0.65779 0.0
C919 C 0.17935 0.13832 0.66266 0.0
C920 C 0.16701 0.16601 0.63014 0.0
C921 C 0.16473 0.19025 0.62438 0.0
C922 C 0.15029 0.19976 0.64056 0.0
C923 C 0.14884 0.22298 0.63567 0.0
C924 C 0.16146 0.23671 0.61439 0.0
C925 C 0.1754 0.22716 0.59783 0.0
C926 C 0.17698 0.20395 0.60271 0.0
C927 C 0.07838 0.07517 0.61132 0.0
C928 C 0.07299 0.06266 0.58342 0.0
C929 C 0.1032 0.09484 0.62133 0.0
C930 C 0.12299 0.10168 0.60379 0.0
C931 C 0.11735 0.09006 0.57546 0.0
C932 C 0.09221 0.07059 0.56525 0.0
C933 C 0.14938 0.12121 0.61618 0.0
C934 C 0.15341 0.14548 0.60889 0.0
C935 C 0.16392 0.11747 0.64233 0.0
C936 C 0.15839 0.0916 0.65093 0.0
C937 C 0.15821 0.07256 0.63111 0.0
C938 C 0.14987 0.04764 0.63784 0.0
C939 C 0.14175 0.0415 0.66441 0.0
C940 C 0.14212 0.0603 0.68438 0.0
C941 C 0.1504 0.08523 0.67776 0.0
H942 H 0.13507 0.02216 0.66946 0.0
H943 H 0.16036 0.25472 0.61067 0.0
H944 H 0.8053 0.12681 0.68081 0.0
H945 H 0.82624 0.10743 0.65039 0.0
H946 H 0.90076 0.17443 0.67021 0.0
H947 H 0.87931 0.19426 0.69973 0.0
H948 H 0.88763 0.16092 0.61521 0.0
H949 H 0.89571 0.11995 0.69944 0.0
H950 H 0.88105 0.09707 0.74115 0.0
H951 H 0.8245 0.033 0.68235 0.0
H952 H 0.83841 0.05566 0.64018 0.0
H953 H 0.96293 0.10185 0.55615 0.0
H954 H 0.94255 0.12501 0.58095 0.0
H955 H 0.86646 0.05963 0.5653 0.0
H956 H 0.88828 0.03523 0.54381 0.0
H957 H 0.88336 0.07384 0.62049 0.0
H958 H 0.87712 0.12231 0.53557 0.0
H959 H 0.8982 0.14831 0.49844 0.0
H960 H 0.96079 0.20037 0.56555 0.0
H961 H 0.93988 0.17512 0.6032 0.0
C962 C 0.82619 0.1372 0.6787 0.0
C963 C 0.84089 0.16183 0.69218 0.0
C964 C 0.83815 0.12615 0.66164 0.0
C965 C 0.86509 0.13947 0.65862 0.0
C966 C 0.87994 0.16399 0.67251 0.0
C967 C 0.86778 0.17523 0.68915 0.0
C968 C 0.87694 0.12833 0.63914 0.0
C969 C 0.88698 0.14196 0.61649 0.0
C970 C 0.87604 0.10371 0.64118 0.0
C971 C 0.86803 0.08962 0.66654 0.0
C972 C 0.88003 0.10103 0.69533 0.0
C973 C 0.87185 0.0881 0.71909 0.0
C974 C 0.85183 0.06361 0.7144 0.0
C975 C 0.84001 0.05198 0.68594 0.0
C976 C 0.84807 0.06486 0.66208 0.0
C977 C 0.94156 0.09269 0.55704 0.0
C978 C 0.92729 0.06673 0.54895 0.0
C979 C 0.92978 0.10607 0.57093 0.0
C980 C 0.90291 0.09407 0.57479 0.0
C981 C 0.88731 0.06909 0.56255 0.0
C982 C 0.89958 0.05531 0.54985 0.0
C983 C 0.89286 0.10602 0.59568 0.0
C984 C 0.88359 0.09264 0.61898 0.0
C985 C 0.89528 0.13119 0.59484 0.0
C986 C 0.9069 0.14688 0.57214 0.0
C987 C 0.8953 0.13937 0.54239 0.0
C988 C 0.90723 0.15392 0.52127 0.0
C989 C 0.93085 0.17581 0.52957 0.0
C990 C 0.94246 0.18343 0.55911 0.0
C991 C 0.93046 0.16914 0.58037 0.0
H992 H 0.9401 0.18689 0.5131 0.0
H993 H 0.8455 0.05364 0.73282 0.0
H994 H 0.86527 0.83473 0.78905 0.0
H995 H 0.89591 0.85727 0.75686 0.0
H996 H 0.8316 0.82088 0.68174 0.0
H997 H 0.80201 0.79763 0.71351 0.0
H998 H 0.87601 0.82745 0.66642 0.0
H999 H 0.84297 0.87928 0.71958 0.0
H1000 H 0.83625 0.89966 0.76331 0.0
H1001 H 0.92271 0.93877 0.7909 0.0
H1002 H 0.92995 0.91829 0.74755 0.0
H1003 H 0.91084 0.92555 0.57137 0.0
H1004 H 0.88656 0.89523 0.60299 0.0
H1005 H 0.95891 0.92245 0.67055 0.0
H1006 H 0.98292 0.95269 0.63967 0.0
H1007 H 0.9124 0.92042 0.68959 0.0
H1008 H 0.94271 0.86756 0.63179 0.0
H1009 H 0.94553 0.85076 0.58363 0.0
H1010 H 0.85833 0.81676 0.56041 0.0
H1011 H 0.85504 0.83353 0.60841 0.0
C1012 C 0.85817 0.83124 0.76559 0.0
C1013 C 0.83156 0.8146 0.75348 0.0
C1014 C 0.8755 0.84405 0.7473 0.0
C1015 C 0.86575 0.84107 0.71701 0.0
C1016 C 0.83956 0.82338 0.70502 0.0
C1017 C 0.82263 0.81015 0.72318 0.0
C1018 C 0.88123 0.85818 0.69791 0.0
C1019 C 0.88395 0.84777 0.67152 0.0
C1020 C 0.89134 0.88469 0.70445 0.0
C1021 C 0.887 0.897 0.73054 0.0
C1022 C 0.86054 0.89207 0.73509 0.0
C1023 C 0.85665 0.90365 0.7598 0.0
C1024 C 0.87904 0.92043 0.77993 0.0
C1025 C 0.90538 0.92571 0.77535 0.0
C1026 C 0.9094 0.91411 0.75073 0.0
C1027 C 0.92144 0.92483 0.59291 0.0
C1028 C 0.9485 0.94145 0.60337 0.0
C1029 C 0.90768 0.90765 0.61082 0.0
C1030 C 0.92116 0.90689 0.63891 0.0
C1031 C 0.94829 0.92308 0.64897 0.0
C1032 C 0.96189 0.94027 0.63133 0.0
C1033 C 0.90712 0.88961 0.6585 0.0
C1034 C 0.90467 0.90006 0.68483 0.0
C1035 C 0.89667 0.86328 0.65157 0.0
C1036 C 0.89864 0.85177 0.62362 0.0
C1037 C 0.92416 0.8564 0.61643 0.0
C1038 C 0.92584 0.84694 0.58916 0.0
C1039 C 0.90212 0.8327 0.56897 0.0
C1040 C 0.87668 0.82774 0.5761 0.0
C1041 C 0.87489 0.83715 0.60336 0.0
H1042 H 0.90346 0.82552 0.5478 0.0
H1043 H 0.87598 0.92939 0.79903 0.0
H1044 H 0.27548 0.19189 0.21037 0.0
H1045 H 0.29745 0.16607 0.19071 0.0
H1046 H 0.3759 0.22478 0.22423 0.0
H1047 H 0.35397 0.25006 0.24499 0.0
H1048 H 0.37788 0.20356 0.16901 0.0
H1049 H 0.34437 0.16217 0.25405 0.0
H1050 H 0.30815 0.13873 0.28041 0.0
H1051 H 0.26837 0.08316 0.20596 0.0
H1052 H 0.30419 0.10639 0.1791 0.0
H1053 H 0.46502 0.13581 0.15097 0.0
H1054 H 0.43955 0.16029 0.16434 0.0
H1055 H 0.3678 0.09222 0.15571 0.0
H1056 H 0.3932 0.06762 0.14251 0.0
H1057 H 0.35888 0.11674 0.1943 0.0
H1058 H 0.37843 0.14639 0.10888 0.0
H1059 H 0.40029 0.1635 0.06779 0.0
H1060 H 0.44896 0.23348 0.12112 0.0
H1061 H 0.42762 0.21667 0.1628 0.0
C1062 C 0.29747 0.19962 0.21383 0.0
C1063 C 0.31221 0.22389 0.23016 0.0
C1064 C 0.31044 0.18436 0.20238 0.0
C1065 C 0.33932 0.1923 0.20548 0.0
C1066 C 0.35392 0.21694 0.2209 0.0
C1067 C 0.34101 0.23181 0.23316 0.0
C1068 C 0.35413 0.17548 0.19345 0.0
C1069 C 0.37399 0.18484 0.17546 0.0
C1070 C 0.34855 0.14965 0.19853 0.0
C1071 C 0.32685 0.13611 0.21455 0.0
C1072 C 0.32778 0.14506 0.24325 0.0
C1073 C 0.30734 0.13179 0.25829 0.0
C1074 C 0.28596 0.10949 0.24486 0.0
C1075 C 0.28493 0.10043 0.21634 0.0
C1076 C 0.30529 0.11364 0.20122 0.0
C1077 C 0.44384 0.12552 0.15181 0.0
C1078 C 0.43236 0.09862 0.14526 0.0
C1079 C 0.42868 0.14009 0.15946 0.0
C1080 C 0.40057 0.12923 0.16158 0.0
C1081 C 0.38904 0.10238 0.15498 0.0
C1082 C 0.4041 0.08783 0.14697 0.0
C1083 C 0.38394 0.14529 0.17119 0.0
C1084 C 0.36347 0.1357 0.18837 0.0
C1085 C 0.38742 0.17017 0.16341 0.0
C1086 C 0.40179 0.18006 0.13925 0.0
C1087 C 0.39416 0.16527 0.11209 0.0
C1088 C 0.40635 0.17496 0.08861 0.0
C1089 C 0.42611 0.19951 0.09189 0.0
C1090 C 0.43373 0.21441 0.11868 0.0
C1091 C 0.4216 0.2048 0.14226 0.0
H1092 H 0.43543 0.20703 0.07364 0.0
H1093 H 0.27021 0.09921 0.25657 0.0
H1094 H 0.85304 0.32653 0.24526 0.0
H1095 H 0.87831 0.35117 0.21064 0.0
H1096 H 0.80929 0.36796 0.17445 0.0
H1097 H 0.78353 0.34291 0.20888 0.0
H1098 H 0.82887 0.35079 0.13161 0.0
H1099 H 0.86895 0.41912 0.21234 0.0
H1100 H 0.89323 0.44022 0.26172 0.0
H1101 H 0.95742 0.41537 0.25461 0.0
H1102 H 0.93368 0.39451 0.20498 0.0
H1103 H 0.89423 0.44942 0.04736 0.0
H1104 H 0.86791 0.41987 0.0782 0.0
H1105 H 0.94072 0.41104 0.11963 0.0
H1106 H 0.96714 0.44193 0.09051 0.0
H1107 H 0.91902 0.4218 0.15877 0.0
H1108 H 0.88377 0.36274 0.07284 0.0
H1109 H 0.86319 0.34997 0.02061 0.0
H1110 H 0.79077 0.35829 0.03531 0.0
H1111 H 0.8111 0.3716 0.08756 0.0
C1112 C 0.8433 0.33584 0.23037 0.0
C1113 C 0.8161 0.33259 0.22977 0.0
C1114 C 0.85786 0.34994 0.21052 0.0
C1115 C 0.84567 0.36133 0.18984 0.0
C1116 C 0.81899 0.35911 0.19005 0.0
C1117 C 0.80436 0.34493 0.20987 0.0
C1118 C 0.86032 0.37454 0.16718 0.0
C1119 C 0.8485 0.36647 0.13746 0.0
C1120 C 0.88627 0.3944 0.17471 0.0
C1121 C 0.89941 0.40502 0.20526 0.0
C1122 C 0.88807 0.41792 0.22151 0.0
C1123 C 0.90185 0.43002 0.24939 0.0
C1124 C 0.92684 0.42912 0.2613 0.0
C1125 C 0.93808 0.41607 0.24536 0.0
C1126 C 0.92453 0.40419 0.21734 0.0
C1127 C 0.90438 0.44084 0.06285 0.0
C1128 C 0.93263 0.4481 0.06711 0.0
C1129 C 0.88935 0.4238 0.08027 0.0
C1130 C 0.90232 0.41314 0.1013 0.0
C1131 C 0.9303 0.4192 0.10387 0.0
C1132 C 0.94538 0.43684 0.08731 0.0
C1133 C 0.88775 0.39821 0.12302 0.0
C1134 C 0.89959 0.40588 0.15266 0.0
C1135 C 0.862 0.37791 0.11521 0.0
C1136 C 0.84905 0.36834 0.08416 0.0
C1137 C 0.86346 0.36187 0.06496 0.0
C1138 C 0.85185 0.35457 0.03532 0.0
C1139 C 0.82571 0.35335 0.02464 0.0
C1140 C 0.81103 0.35924 0.04363 0.0
C1141 C 0.82257 0.36663 0.07327 0.0
H1142 H 0.81682 0.34784 0.00166 0.0
H1143 H 0.93745 0.43849 0.2829 0.0
H1144 H 0.72728 0.81089 0.18797 0.0
H1145 H 0.70124 0.83513 0.16754 0.0
H1146 H 0.68364 0.84675 0.25203 0.0
H1147 H 0.70875 0.8216 0.27199 0.0
H1148 H 0.6443 0.85025 0.22398 0.0
H1149 H 0.73198 0.89533 0.19303 0.0
H1150 H 0.76862 0.90008 0.16567 0.0
H1151 H 0.70949 0.86969 0.08615 0.0
H1152 H 0.67255 0.86465 0.11305 0.0
H1153 H 0.59529 0.94981 0.19369 0.0
H1154 H 0.62071 0.92367 0.20773 0.0
H1155 H 0.6196 0.9052 0.11761 0.0
H1156 H 0.59401 0.93157 0.10328 0.0
H1157 H 0.66679 0.90379 0.14404 0.0
H1158 H 0.58187 0.85709 0.16683 0.0
H1159 H 0.54031 0.84999 0.18637 0.0
H1160 H 0.58844 0.87796 0.27258 0.0
H1161 H 0.63032 0.88516 0.25346 0.0
C1162 C 0.71807 0.81852 0.20265 0.0
C1163 C 0.72132 0.81337 0.23254 0.0
C1164 C 0.7029 0.8333 0.19064 0.0
C1165 C 0.68972 0.84482 0.20739 0.0
C1166 C 0.69276 0.83923 0.23717 0.0
C1167 C 0.70775 0.82437 0.24909 0.0
C1168 C 0.67276 0.86167 0.19488 0.0
C1169 C 0.65031 0.86224 0.20694 0.0
C1170 C 0.67742 0.87725 0.17098 0.0
C1171 C 0.69953 0.87932 0.15513 0.0
C1172 C 0.72682 0.88946 0.16977 0.0
C1173 C 0.74763 0.89226 0.15432 0.0
C1174 C 0.74138 0.88511 0.12422 0.0
C1175 C 0.7143 0.87515 0.10948 0.0
C1176 C 0.69343 0.87231 0.12481 0.0
C1177 C 0.60011 0.94047 0.17625 0.0
C1178 C 0.5913 0.94413 0.14666 0.0
C1179 C 0.61504 0.92469 0.18464 0.0
C1180 C 0.62306 0.91089 0.16446 0.0
C1181 C 0.61466 0.91472 0.13483 0.0
C1182 C 0.59935 0.93031 0.12636 0.0
C1183 C 0.63955 0.89313 0.17433 0.0
C1184 C 0.66145 0.89217 0.16157 0.0
C1185 C 0.634 0.87657 0.19689 0.0
C1186 C 0.60914 0.87186 0.20874 0.0
C1187 C 0.58355 0.86176 0.18995 0.0
C1188 C 0.55996 0.85769 0.20094 0.0
C1189 C 0.56174 0.8636 0.23069 0.0
C1190 C 0.58711 0.8734 0.24954 0.0
C1191 C 0.61077 0.87739 0.23868 0.0
H1192 H 0.54346 0.86054 0.23915 0.0
H1193 H 0.75751 0.88737 0.1123 0.0
H1194 H 0.22807 0.68227 0.21319 0.0
H1195 H 0.20844 0.66098 0.16335 0.0
H1196 H 0.18147 0.72031 0.14054 0.0
H1197 H 0.20026 0.74133 0.1897 0.0
H1198 H 0.14387 0.66543 0.15321 0.0
H1199 H 0.20728 0.71668 0.09537 0.0
H1200 H 0.25307 0.736 0.08362 0.0
H1201 H 0.25503 0.66274 0.07052 0.0
H1202 H 0.20922 0.64301 0.0822 0.0
H1203 H 0.04185 0.60966 0.03311 0.0
H1204 H 0.08553 0.64398 0.05483 0.0
H1205 H 0.12293 0.59024 0.06695 0.0
H1206 H 0.07925 0.55597 0.0462 0.0
H1207 H 0.15906 0.64432 0.05538 0.0
H1208 H 0.10041 0.59357 0.11755 0.0
H1209 H 0.05845 0.57289 0.13666 0.0
H1210 H 0.05178 0.64413 0.14983 0.0
H1211 H 0.09336 0.66511 0.13001 0.0
C1212 C 0.21822 0.69084 0.19738 0.0
C1213 C 0.21449 0.71271 0.20565 0.0
C1214 C 0.20777 0.6791 0.16883 0.0
C1215 C 0.19391 0.68937 0.14846 0.0
C1216 C 0.19254 0.71243 0.15596 0.0
C1217 C 0.20256 0.72393 0.18437 0.0
C1218 C 0.17285 0.67249 0.12483 0.0
C1219 C 0.14705 0.66114 0.1316 0.0
C1220 C 0.17763 0.66662 0.09728 0.0
C1221 C 0.20492 0.67839 0.0898 0.0
C1222 C 0.21754 0.70471 0.09011 0.0
C1223 C 0.24346 0.71573 0.08338 0.0
C1224 C 0.25697 0.70061 0.07636 0.0
C1225 C 0.24452 0.67443 0.07592 0.0
C1226 C 0.21854 0.66331 0.08247 0.0
C1227 C 0.05969 0.60543 0.03954 0.0
C1228 C 0.05747 0.58045 0.03862 0.0
C1229 C 0.08454 0.62493 0.05164 0.0
C1230 C 0.10725 0.61945 0.06235 0.0
C1231 C 0.10563 0.59473 0.05845 0.0
C1232 C 0.08068 0.57521 0.04701 0.0
C1233 C 0.12988 0.63783 0.08367 0.0
C1234 C 0.15587 0.64908 0.07676 0.0
C1235 C 0.12559 0.64362 0.1116 0.0
C1236 C 0.09951 0.63076 0.12144 0.0
C1237 C 0.08958 0.6047 0.12374 0.0
C1238 C 0.06598 0.59296 0.1349 0.0
C1239 C 0.05233 0.60715 0.14423 0.0
C1240 C 0.06224 0.63312 0.14236 0.0
C1241 C 0.08575 0.64492 0.13105 0.0
H1242 H 0.03418 0.59806 0.1531 0.0
H1243 H 0.27705 0.70917 0.07124 0.0
H1244 H 0.36618 0.82144 0.82707 0.0
H1245 H 0.38791 0.85006 0.87227 0.0
H1246 H 0.31804 0.8694 0.86663 0.0
H1247 H 0.29631 0.84101 0.82125 0.0
H1248 H 0.36878 0.91067 0.8778 0.0
H1249 H 0.3256 0.83243 0.91876 0.0
H1250 H 0.31464 0.78765 0.92587 0.0
H1251 H 0.39974 0.80309 0.95052 0.0
H1252 H 0.41117 0.84791 0.94355 0.0
H1253 H 0.41887 0.98602 0.01182 0.0
H1254 H 0.38716 0.95034 0.97677 0.0
H1255 H 0.44861 0.91979 0.97961 0.0
H1256 H 0.48036 0.95561 0.01458 0.0
H1257 H 0.39779 0.88225 0.97171 0.0
H1258 H 0.44334 0.95559 0.92773 0.0
H1259 H 0.4597 -0.00149 0.91255 0.0
H1260 H 0.37737 0.99197 0.8868 0.0
H1261 H 0.36049 0.94909 0.90206 0.0
C1262 C 0.35564 0.83207 0.8353 0.0
C1263 C 0.32969 0.82916 0.82056 0.0
C1264 C 0.36787 0.84808 0.8613 0.0
C1265 C 0.35426 0.86129 0.87319 0.0
C1266 C 0.32875 0.85915 0.85796 0.0
C1267 C 0.31656 0.84323 0.83182 0.0
C1268 C 0.36763 0.87869 0.90043 0.0
C1269 C 0.37449 0.90446 0.8986 0.0
C1270 C 0.37611 0.87053 0.92709 0.0
C1271 C 0.36923 0.84347 0.93048 0.0
C1272 C 0.34196 0.82621 0.92546 0.0
C1273 C 0.33566 0.80085 0.92958 0.0
C1274 C 0.35648 0.79253 0.93861 0.0
C1275 C 0.38363 0.80955 0.94355 0.0
C1276 C 0.39002 0.83494 0.93961 0.0
C1277 C 0.42503 0.97091 0.00626 0.0
C1278 C 0.45185 0.97326 0.01637 0.0
C1279 C 0.40711 0.95082 0.98574 0.0
C1280 C 0.41572 0.93272 0.97503 0.0
C1281 C 0.44153 0.93357 0.98749 0.0
C1282 C 0.45953 0.9538 0.00791 0.0
C1283 C 0.3989 0.91442 0.94916 0.0
C1284 C 0.39151 0.8885 0.95118 0.0
C1285 C 0.39057 0.92247 0.92226 0.0
C1286 C 0.40067 0.94933 0.91667 0.0
C1287 C 0.42874 0.96354 0.91955 0.0
C1288 C 0.4381 0.98778 0.91069 0.0
C1289 C 0.4196 -0.002 0.89886 0.0
C1290 C 0.39169 0.98409 0.8961 0.0
C1291 C 0.38221 0.95984 0.90491 0.0
H1292 H 0.42688 0.01665 0.89172 0.0
H1293 H 0.35157 0.7729 0.94181 0.0
H1294 H 0.14459 0.33551 0.83684 0.0
H1295 H 0.11978 0.35931 0.85324 0.0
H1296 H 0.19202 0.4075 0.9142 0.0
H1297 H 0.21646 0.38285 0.89935 0.0
H1298 H 0.15106 0.39652 0.93965 0.0
H1299 H 0.16611 0.42485 0.8458 0.0
H1300 H 0.1634 0.41958 0.79257 0.0
H1301 H 0.0762 0.38584 0.77902 0.0
H1302 H 0.0784 0.39055 0.83221 0.0
H1303 H 0.10629 0.49585 0.96975 0.0
H1304 H 0.12917 0.46839 0.95861 0.0
H1305 H 0.05789 0.42164 0.89549 0.0
H1306 H 0.03476 0.44855 0.90684 0.0
H1307 H 0.09853 0.43189 0.8708 0.0
H1308 H 0.08187 0.39752 0.96156 0.0
H1309 H 0.08306 0.38951 0.01325 0.0
H1310 H 0.16988 0.42916 0.03207 0.0
H1311 H 0.16924 0.43726 0.98051 0.0
C1312 C 0.15524 0.35101 0.85394 0.0
C1313 C 0.18279 0.35719 0.86651 0.0
C1314 C 0.14104 0.36491 0.86303 0.0
C1315 C 0.15406 0.38568 0.8846 0.0
C1316 C 0.18144 0.39176 0.89734 0.0
C1317 C 0.19556 0.37773 0.88851 0.0
C1318 C 0.13917 0.40071 0.89457 0.0
C1319 C 0.14 0.4047 0.9246 0.0
C1320 C 0.12376 0.41057 0.87499 0.0
C1321 C 0.12244 0.40787 0.84301 0.0
C1322 C 0.14637 0.41616 0.83148 0.0
C1323 C 0.14492 0.41328 0.80132 0.0
C1324 C 0.11965 0.40233 0.78243 0.0
C1325 C 0.09576 0.39428 0.79367 0.0
C1326 C 0.0971 0.39707 0.82382 0.0
C1327 C 0.09518 0.47945 0.95392 0.0
C1328 C 0.06866 0.47486 0.93888 0.0
C1329 C 0.10838 0.46365 0.94757 0.0
C1330 C 0.09543 0.44281 0.92605 0.0
C1331 C 0.0686 0.43766 0.91195 0.0
C1332 C 0.05539 0.4533 0.91835 0.0
C1333 C 0.11037 0.42779 0.91612 0.0
C1334 C 0.10969 0.42392 0.88598 0.0
C1335 C 0.12573 0.41781 0.93561 0.0
C1336 C 0.12548 0.4181 0.96725 0.0
C1337 C 0.10112 0.40509 0.97688 0.0
C1338 C 0.10175 0.40019 0.00604 0.0
C1339 C 0.12661 0.40837 0.02569 0.0
C1340 C 0.15072 0.42253 0.01667 0.0
C1341 C 0.15022 0.42732 0.98753 0.0
H1342 H 0.12725 0.40385 0.04797 0.0
H1343 H 0.11857 0.40013 0.75908 0.0
H1344 H 0.67363 0.20107 0.77429 0.0
H1345 H 0.64785 0.17348 0.80739 0.0
H1346 H 0.71508 0.20989 0.87951 0.0
H1347 H 0.74071 0.23724 0.84661 0.0
H1348 H 0.69132 0.1567 0.88008 0.0
H1349 H 0.66636 0.22746 0.87781 0.0
H1350 H 0.65355 0.25902 0.85222 0.0
H1351 H 0.57999 0.20023 0.80526 0.0
H1352 H 0.59261 0.16829 0.83036 0.0
H1353 H 0.60162 0.1186 0.98834 0.0
H1354 H 0.63636 0.14333 0.96119 0.0
H1355 H 0.58215 0.10591 0.87991 0.0
H1356 H 0.54767 0.08116 0.90644 0.0
H1357 H 0.60347 0.16173 0.88898 0.0
H1358 H 0.63162 0.09064 0.89407 0.0
H1359 H 0.64689 0.06144 0.92192 0.0
H1360 H 0.71661 0.12406 0.96918 0.0
H1361 H 0.70161 0.15364 0.94172 0.0
C1362 C 0.68249 0.20348 0.79731 0.0
C1363 C 0.70867 0.22167 0.80821 0.0
C1364 C 0.66808 0.1875 0.81607 0.0
C1365 C 0.67969 0.1896 0.84588 0.0
C1366 C 0.70589 0.20776 0.85661 0.0
C1367 C 0.72023 0.22364 0.83793 0.0
C1368 C 0.66347 0.1745 0.86631 0.0
C1369 C 0.67222 0.1579 0.88225 0.0
C1370 C 0.63892 0.17643 0.86964 0.0
C1371 C 0.63043 0.19555 0.85582 0.0
C1372 C 0.64744 0.2213 0.86204 0.0
C1373 C 0.64025 0.23924 0.8476 0.0
C1374 C 0.61598 0.23163 0.8271 0.0
C1375 C 0.59877 0.20608 0.82116 0.0
C1376 C 0.60589 0.18806 0.83552 0.0
C1377 C 0.59721 0.11562 0.96469 0.0
C1378 C 0.57175 0.09829 0.9495 0.0
C1379 C 0.61711 0.12955 0.9493 0.0
C1380 C 0.61166 0.12637 0.91865 0.0
C1381 C 0.58663 0.10858 0.90358 0.0
C1382 C 0.56693 0.09456 0.91882 0.0
C1383 C 0.63065 0.14318 0.90185 0.0
C1384 C 0.62256 0.16046 0.88687 0.0
C1385 C 0.65597 0.14212 0.90007 0.0
C1386 C 0.66541 0.12435 0.91599 0.0
C1387 C 0.65015 0.09818 0.91048 0.0
C1388 C 0.65877 0.08156 0.92616 0.0
C1389 C 0.68269 0.09089 0.94733 0.0
C1390 C 0.6981 0.11686 0.95276 0.0
C1391 C 0.68958 0.13355 0.9371 0.0
H1392 H 0.68929 0.07801 0.9595 0.0
H1393 H 0.6105 0.24553 0.81583 0.0
H1394 H 0.77767 0.6994 0.82096 0.0
H1395 H 0.80517 0.6781 0.84596 0.0
H1396 H 0.87744 0.74614 0.85257 0.0
H1397 H 0.8498 0.76728 0.82738 0.0
H1398 H 0.88744 0.7076 0.83479 0.0
H1399 H 0.8491 0.72481 0.91397 0.0
H1400 H 0.81336 0.72534 0.94018 0.0
H1401 H 0.77583 0.64443 0.92722 0.0
H1402 H 0.81123 0.64344 0.90069 0.0
H1403 H 0.97253 0.66043 0.92576 0.0
H1404 H 0.94729 0.68546 0.9069 0.0
H1405 H 0.87179 0.62106 0.90118 0.0
H1406 H 0.89664 0.59652 0.92226 0.0
H1407 H 0.86506 0.65982 0.91957 0.0
H1408 H 0.90373 0.6434 0.8385 0.0
H1409 H 0.94148 0.64378 0.81512 0.0
H1410 H 0.98008 0.72438 0.83371 0.0
H1411 H 0.94261 0.72444 0.85734 0.0
C1412 C 0.79933 0.70988 0.82842 0.0
C1413 C 0.8116 0.73509 0.82299 0.0
C1414 C 0.81509 0.69774 0.84266 0.0
C1415 C 0.84348 0.71053 0.85158 0.0
C1416 C 0.85564 0.73585 0.84616 0.0
C1417 C 0.83984 0.74802 0.83208 0.0
C1418 C 0.8605 0.69725 0.86556 0.0
C1419 C 0.88273 0.69745 0.8536 0.0
C1420 C 0.8543 0.68356 0.88979 0.0
C1421 C 0.83264 0.68408 0.90511 0.0
C1422 C 0.83306 0.70715 0.91646 0.0
C1423 C 0.81292 0.70753 0.93144 0.0
C1424 C 0.79229 0.68494 0.9353 0.0
C1425 C 0.79179 0.66192 0.92419 0.0
C1426 C 0.8119 0.66143 0.90921 0.0
C1427 C 0.95054 0.6516 0.92107 0.0
C1428 C 0.93683 0.62615 0.92545 0.0
C1429 C 0.93608 0.66591 0.90967 0.0
C1430 C 0.90753 0.65507 0.90171 0.0
C1431 C 0.89378 0.62992 0.90675 0.0
C1432 C 0.90816 0.61575 0.91859 0.0
C1433 C 0.8918 0.66984 0.88864 0.0
C1434 C 0.86979 0.66994 0.90076 0.0
C1435 C 0.8983 0.68385 0.86464 0.0
C1436 C 0.9205 0.68389 0.84988 0.0
C1437 C 0.92032 0.66118 0.83767 0.0
C1438 C 0.94165 0.66133 0.82436 0.0
C1439 C 0.9632 0.68408 0.823 0.0
C1440 C 0.96338 0.70677 0.83479 0.0
C1441 C 0.94207 0.70673 0.84808 0.0
H1442 H 0.97973 0.68414 0.81277 0.0
H1443 H 0.77674 0.68528 0.94695 0.0
H1444 H 0.12976 0.30776 0.17069 0.0
H1445 H 0.10458 0.33276 0.15075 0.0
H1446 H 0.17156 0.37573 0.11029 0.0
H1447 H 0.19691 0.35131 0.13061 0.0
H1448 H 0.1544 0.40571 0.136 0.0
H1449 H 0.11122 0.32644 0.07222 0.0
H1450 H 0.08515 0.28065 0.05946 0.0
H1451 H 0.01894 0.28565 0.09492 0.0
H1452 H 0.04475 0.33139 0.10821 0.0
H1453 H 0.0965 0.46658 0.03453 0.0
H1454 H 0.11913 0.44258 0.06118 0.0
H1455 H 0.04318 0.39532 0.0847 0.0
H1456 H 0.02055 0.41902 0.05702 0.0
H1457 H 0.06343 0.36705 0.0716 0.0
H1458 H 0.1055 0.44688 0.13419 0.0
H1459 H 0.13079 0.49298 0.14478 0.0
H1460 H 0.19799 0.48745 0.11192 0.0
H1461 H 0.17304 0.44138 0.10094 0.0
C1462 C 0.139 0.32252 0.15747 0.0
C1463 C 0.1653 0.32775 0.15229 0.0
C1464 C 0.12461 0.3367 0.14606 0.0
C1465 C 0.13615 0.35587 0.12883 0.0
C1466 C 0.16238 0.36106 0.12366 0.0
C1467 C 0.17687 0.34718 0.13535 0.0
C1468 C 0.12136 0.37101 0.11638 0.0
C1469 C 0.13446 0.39733 0.12189 0.0
C1470 C 0.09511 0.35994 0.09869 0.0
C1471 C 0.08009 0.33228 0.09158 0.0
C1472 C 0.09125 0.31772 0.07763 0.0
C1473 C 0.07648 0.29178 0.07021 0.0
C1474 C 0.05045 0.28023 0.07647 0.0
C1475 C 0.03913 0.29459 0.09016 0.0
C1476 C 0.05383 0.32051 0.09765 0.0
C1477 C 0.0847 0.45063 0.04487 0.0
C1478 C 0.05685 0.44403 0.04324 0.0
C1479 C 0.09765 0.43716 0.06061 0.0
C1480 C 0.08299 0.41711 0.07531 0.0
C1481 C 0.05496 0.41049 0.07336 0.0
C1482 C 0.04194 0.42376 0.05727 0.0
C1483 C 0.09628 0.40201 0.0913 0.0
C1484 C 0.08301 0.37562 0.08633 0.0
C1485 C 0.12227 0.41304 0.10975 0.0
C1486 C 0.13738 0.4407 0.11675 0.0
C1487 C 0.12565 0.45552 0.12921 0.0
C1488 C 0.13993 0.48163 0.13526 0.0
C1489 C 0.16598 0.49312 0.12903 0.0
C1490 C 0.17784 0.47852 0.11679 0.0
C1491 C 0.16368 0.45241 0.11073 0.0
H1492 H 0.17696 0.51334 0.13369 0.0
H1493 H 0.03901 0.26018 0.07061 0.0
H1494 H 0.27583 0.72187 0.86404 0.0
H1495 H 0.23845 0.69181 0.88405 0.0
H1496 H 0.18208 0.71786 0.83251 0.0
H1497 H 0.21922 0.74939 0.816 0.0
H1498 H 0.16412 0.70522 0.87542 0.0
H1499 H 0.19811 0.66377 0.80866 0.0
H1500 H 0.23435 0.65401 0.79211 0.0
H1501 H 0.24787 0.62207 0.87188 0.0
H1502 H 0.21178 0.63175 0.88892 0.0
H1503 H 0.04726 0.59727 0.87179 0.0
H1504 H 0.08541 0.61846 0.84762 0.0
H1505 H 0.14187 0.62373 0.92688 0.0
H1506 H 0.10403 0.60306 0.95136 0.0
H1507 H 0.15707 0.61681 0.86543 0.0
H1508 H 0.12639 0.66852 0.93134 0.0
H1509 H 0.08778 0.67695 0.94354 0.0
H1510 H 0.06421 0.68739 0.85409 0.0
H1511 H 0.10252 0.67865 0.84138 0.0
C1512 C 0.25552 0.72155 0.85812 0.0
C1513 C 0.25007 0.73748 0.83853 0.0
C1514 C 0.23422 0.70428 0.86904 0.0
C1515 C 0.20738 0.70194 0.85874 0.0
C1516 C 0.20253 0.71919 0.84073 0.0
C1517 C 0.22382 0.73719 0.83123 0.0
C1518 C 0.18392 0.68071 0.86473 0.0
C1519 C 0.1626 0.68594 0.87269 0.0
C1520 C 0.18161 0.65543 0.86092 0.0
C1521 C 0.20238 0.64857 0.8501 0.0
C1522 C 0.20878 0.65461 0.82261 0.0
C1523 C 0.22931 0.64912 0.81317 0.0
C1524 C 0.24343 0.63746 0.83095 0.0
C1525 C 0.23691 0.63108 0.85812 0.0
C1526 C 0.21637 0.63649 0.86765 0.0
C1527 C 0.06785 0.60269 0.88384 0.0
C1528 C 0.07302 0.59948 0.91355 0.0
C1529 C 0.08942 0.61419 0.86989 0.0
C1530 C 0.11608 0.62223 0.88562 0.0
C1531 C 0.12124 0.61717 0.91454 0.0
C1532 C 0.09973 0.60606 0.92862 0.0
C1533 C 0.13786 0.64172 0.87543 0.0
C1534 C 0.15874 0.63617 0.86715 0.0
C1535 C 0.13939 0.66663 0.87757 0.0
C1536 C 0.11718 0.67293 0.88546 0.0
C1537 C 0.11294 0.67262 0.91433 0.0
C1538 C 0.09111 0.6774 0.92131 0.0
C1539 C 0.07355 0.6827 0.8996 0.0
C1540 C 0.07783 0.68329 0.87088 0.0
C1541 C 0.0996 0.67845 0.86378 0.0
H1542 H 0.05664 0.68637 0.90504 0.0
H1543 H 0.25939 0.63334 0.82367 0.0
H1544 H 0.27787 0.20914 0.83966 0.0
H1545 H 0.30016 0.18376 0.86468 0.0
H1546 H 0.377 0.23423 0.84639 0.0
H1547 H 0.35386 0.25752 0.8186 0.0
H1548 H 0.38177 0.19633 0.84179 0.0
H1549 H 0.34868 0.22167 0.9231 0.0
H1550 H 0.31537 0.22569 0.95104 0.0
H1551 H 0.27174 0.14527 0.9392 0.0
H1552 H 0.30464 0.1408 0.91103 0.0
H1553 H 0.46536 0.15108 0.93862 0.0
H1554 H 0.44017 0.17574 0.91829 0.0
H1555 H 0.36475 0.11141 0.91201 0.0
H1556 H 0.38979 0.08666 0.93331 0.0
H1557 H 0.35839 0.15413 0.92975 0.0
H1558 H 0.39345 0.13058 0.84981 0.0
H1559 H 0.43015 0.12724 0.82721 0.0
H1560 H 0.47331 0.2077 0.84184 0.0
H1561 H 0.4369 0.21147 0.86471 0.0
C1562 C 0.2996 0.21496 0.84132 0.0
C1563 C 0.31398 0.23565 0.82717 0.0
C1564 C 0.31267 0.20045 0.8561 0.0
C1565 C 0.34098 0.20675 0.85858 0.0
C1566 C 0.3553 0.22812 0.84511 0.0
C1567 C 0.34203 0.24188 0.82932 0.0
C1568 C 0.35561 0.19079 0.87339 0.0
C1569 C 0.37672 0.18782 0.86146 0.0
C1570 C 0.34922 0.17817 0.89866 0.0
C1571 C 0.32894 0.18095 0.91468 0.0
C1572 C 0.33183 0.20489 0.92623 0.0
C1573 C 0.31306 0.20723 0.94216 0.0
C1574 C 0.29141 0.18575 0.94681 0.0
C1575 C 0.28847 0.16189 0.93553 0.0
C1576 C 0.30717 0.15944 0.9196 0.0
C1577 C 0.4434 0.14198 0.93335 0.0
C1578 C 0.43004 0.1164 0.9379 0.0
C1579 C 0.42886 0.15626 0.92125 0.0
C1580 C 0.40024 0.14568 0.91294 0.0
C1581 C 0.38672 0.12034 0.91793 0.0
C1582 C 0.40128 0.10598 0.92998 0.0
C1583 C 0.38468 0.16079 0.89858 0.0
C1584 C 0.36338 0.16323 0.91036 0.0
C1585 C 0.39116 0.1734 0.87362 0.0
C1586 C 0.41259 0.17127 0.8591 0.0
C1587 C 0.4108 0.14754 0.84823 0.0
C1588 C 0.43154 0.14557 0.83539 0.0
C1589 C 0.45408 0.16724 0.83315 0.0
C1590 C 0.45584 0.19094 0.84359 0.0
C1591 C 0.43514 0.193 0.85643 0.0
H1592 H 0.47016 0.16567 0.82329 0.0
H1593 H 0.27695 0.1876 0.95921 0.0
H1594 H 0.7744 0.29443 0.86512 0.0
H1595 H 0.80323 0.33308 0.89682 0.0
H1596 H 0.87415 0.32935 0.86996 0.0
H1597 H 0.84555 0.29116 0.83751 0.0
H1598 H 0.87839 0.34686 0.93142 0.0
H1599 H 0.85661 0.36158 0.83209 0.0
H1600 H 0.83162 0.36335 0.78365 0.0
H1601 H 0.78641 0.39771 0.82384 0.0
H1602 H 0.81123 0.39619 0.87261 0.0
H1603 H 0.97639 0.46819 0.93472 0.0
H1604 H 0.94313 0.42478 0.92325 0.0
H1605 H 0.87988 0.44856 0.94033 0.0
H1606 H 0.91299 0.49241 0.94965 0.0
H1607 H 0.86752 0.42073 0.88878 0.0
H1608 H 0.90275 0.41037 0.99032 0.0
H1609 H 0.94025 0.41448 0.03087 0.0
H1610 H 0.97113 0.37558 0.97572 0.0
H1611 H 0.93361 0.3707 0.93494 0.0
C1612 C 0.79625 0.30134 0.86681 0.0
C1613 C 0.80782 0.29084 0.84796 0.0
C1614 C 0.8125 0.32342 0.88461 0.0
C1615 C 0.84025 0.33411 0.88433 0.0
C1616 C 0.85246 0.32124 0.86958 0.0
C1617 C 0.83617 0.29936 0.8514 0.0
C1618 C 0.85625 0.35963 0.8975 0.0
C1619 C 0.87592 0.36309 0.9224 0.0
C1620 C 0.85287 0.3804 0.88499 0.0
C1621 C 0.83531 0.37816 0.85611 0.0
C1622 C 0.84086 0.36891 0.83069 0.0
C1623 C 0.827 0.3702 0.80312 0.0
C1624 C 0.80749 0.3807 0.80067 0.0
C1625 C 0.80156 0.38963 0.82578 0.0
C1626 C 0.8155 0.38852 0.85339 0.0
C1627 C 0.95536 0.46391 0.93611 0.0
C1628 C 0.94686 0.48291 0.94342 0.0
C1629 C 0.9366 0.43928 0.93013 0.0
C1630 C 0.90946 0.43361 0.93217 0.0
C1631 C 0.90099 0.45277 0.93947 0.0
C1632 C 0.91974 0.47756 0.94486 0.0
C1633 C 0.88949 0.40806 0.92313 0.0
C1634 C 0.86912 0.4045 0.8987 0.0
C1635 C 0.89305 0.38723 0.93515 0.0
C1636 C 0.91539 0.39011 0.95973 0.0
C1637 C 0.91754 0.4027 0.98689 0.0
C1638 C 0.93875 0.40513 0.00989 0.0
C1639 C 0.95799 0.39535 0.0059 0.0
C1640 C 0.95611 0.38303 0.97885 0.0
C1641 C 0.9348 0.38025 0.95585 0.0
H1642 H 0.97438 0.39734 0.02379 0.0
H1643 H 0.7969 0.38181 0.77931 0.0
H1644 H 0.71413 0.90215 0.85743 0.0
H1645 H 0.69264 0.92739 0.87781 0.0
H1646 H 0.66132 0.87079 0.93498 0.0
H1647 H 0.6826 0.84541 0.9146 0.0
H1648 H 0.62365 0.88292 0.91691 0.0
H1649 H 0.71485 0.93436 0.95784 0.0
H1650 H 0.76372 0.96045 0.9624 0.0
H1651 H 0.74475 0.01183 0.90757 0.0
H1652 H 0.69573 0.98587 0.90233 0.0
H1653 H 0.56677 0.95588 0.98988 0.0
H1654 H 0.59536 0.93369 0.97925 0.0
H1655 H 0.62544 0.98543 0.91665 0.0
H1656 H 0.59807 0.0085 0.92886 0.0
H1657 H 0.66513 0.97569 0.94123 0.0
H1658 H 0.57004 0.9173 0.902 0.0
H1659 H 0.52319 0.89062 0.90675 0.0
H1660 H 0.55398 0.85152 0.97039 0.0
H1661 H 0.60096 0.87811 0.96622 0.0
C1662 C 0.70298 0.89506 0.8746 0.0
C1663 C 0.70022 0.87132 0.88398 0.0
C1664 C 0.69066 0.90975 0.88645 0.0
C1665 C 0.67527 0.90144 0.90839 0.0
C1666 C 0.67278 0.8779 0.91802 0.0
C1667 C 0.68497 0.86317 0.9061 0.0
C1668 C 0.66032 0.91622 0.91989 0.0
C1669 C 0.63308 0.90319 0.92258 0.0
C1670 C 0.67205 0.94283 0.92744 0.0
C1671 C 0.70155 0.95791 0.92934 0.0
C1672 C 0.72108 0.95101 0.94638 0.0
C1673 C 0.74882 0.96584 0.94919 0.0
C1674 C 0.75733 0.98773 0.93519 0.0
C1675 C 0.73812 0.99482 0.91833 0.0
C1676 C 0.71035 0.98005 0.91543 0.0
C1677 C 0.57943 0.96242 0.97378 0.0
C1678 C 0.57967 0.98364 0.95977 0.0
C1679 C 0.59572 0.94956 0.96744 0.0
C1680 C 0.61217 0.95703 0.94618 0.0
C1681 C 0.61289 0.97878 0.93283 0.0
C1682 C 0.59703 0.99195 0.93964 0.0
C1683 C 0.6284 0.94236 0.93759 0.0
C1684 C 0.65586 0.95543 0.93546 0.0
C1685 C 0.61725 0.91564 0.93156 0.0
C1686 C 0.58897 0.89981 0.93396 0.0
C1687 C 0.56679 0.90309 0.91709 0.0
C1688 C 0.54022 0.88798 0.91968 0.0
C1689 C 0.53562 0.86942 0.9389 0.0
C1690 C 0.55756 0.86591 0.95554 0.0
C1691 C 0.58414 0.88098 0.95306 0.0
H1692 H 0.51504 0.85774 0.94085 0.0
H1693 H 0.77881 -0.00077 0.93749 0.0
H1694 H 0.8237 0.66655 0.16697 0.0
H1695 H 0.8462 0.6443 0.14324 0.0
H1696 H 0.90656 0.71539 0.1288 0.0
H1697 H 0.88272 0.73765 0.15011 0.0
H1698 H 0.88809 0.68744 0.08108 0.0
H1699 H 0.92281 0.67525 0.17641 0.0
H1700 H 0.92395 0.66473 0.22718 0.0
H1701 H 0.86899 0.5884 0.19667 0.0
H1702 H 0.86722 0.5985 0.1457 0.0
H1703 H 0.96617 0.61971 0.03822 0.0
H1704 H 0.94872 0.6486 0.05884 0.0
H1705 H 0.87198 0.58639 0.05695 0.0
H1706 H 0.8894 0.55751 0.0363 0.0
H1707 H 0.90392 0.61259 0.11363 0.0
H1708 H 0.87084 0.62893 0.01622 0.0
H1709 H 0.8787 0.6406 0.96725 0.0
H1710 H 0.94044 0.71237 0.00541 0.0
H1711 H 0.93327 0.70094 0.05468 0.0
C1712 C 0.84181 0.6774 0.15882 0.0
C1713 C 0.85125 0.70374 0.15997 0.0
C1714 C 0.85493 0.66473 0.14574 0.0
C1715 C 0.87814 0.6783 0.13452 0.0
C1716 C 0.88864 0.70467 0.13737 0.0
C1717 C 0.87516 0.71733 0.14982 0.0
C1718 C 0.88937 0.66479 0.11684 0.0
C1719 C 0.89204 0.67137 0.08845 0.0
C1720 C 0.89438 0.6438 0.12646 0.0
C1721 C 0.89484 0.63768 0.15717 0.0
C1722 C 0.91079 0.65626 0.18051 0.0
C1723 C 0.91162 0.65035 0.20933 0.0
C1724 C 0.89669 0.62588 0.21512 0.0
C1725 C 0.88069 0.60731 0.19213 0.0
C1726 C 0.87979 0.61311 0.16326 0.0
C1727 C 0.94521 0.61261 0.04106 0.0
C1728 C 0.9289 0.58679 0.03594 0.0
C1729 C 0.93536 0.62893 0.05279 0.0
C1730 C 0.9093 0.61928 0.05937 0.0
C1731 C 0.89215 0.59384 0.05178 0.0
C1732 C 0.90193 0.57755 0.03985 0.0
C1733 C 0.90159 0.63489 0.07808 0.0
C1734 C 0.89994 0.62876 0.10661 0.0
C1735 C 0.89836 0.65663 0.0689 0.0
C1736 C 0.90151 0.66409 0.03917 0.0
C1737 C 0.88609 0.64721 0.01418 0.0
C1738 C 0.89046 0.65376 0.98636 0.0
C1739 C 0.91004 0.67722 0.98322 0.0
C1740 C 0.92523 0.69422 0.00788 0.0
C1741 C 0.92099 0.68774 0.03576 0.0
H1742 H 0.91344 0.68226 0.96169 0.0
H1743 H 0.89742 0.62132 0.23744 0.0
H1744 H 0.31341 0.82816 0.25578 0.0
H1745 H 0.34989 0.85458 0.2334 0.0
H1746 H 0.30191 0.82066 0.14774 0.0
H1747 H 0.26628 0.79128 0.17086 0.0
H1748 H 0.35414 0.83198 0.14802 0.0
H1749 H 0.3029 0.87536 0.18073 0.0
H1750 H 0.28078 0.89048 0.21488 0.0
H1751 H 0.35852 0.9324 0.27014 0.0
H1752 H 0.38091 0.9164 0.23734 0.0
H1753 H 0.42294 0.94764 0.08912 0.0
H1754 H 0.39093 0.90927 0.10366 0.0
H1755 H 0.44015 0.92627 0.19047 0.0
H1756 H 0.47223 0.96485 0.17628 0.0
H1757 H 0.38612 0.92239 0.18499 0.0
H1758 H 0.43696 0.87868 0.14952 0.0
H1759 H 0.4582 0.86871 0.11067 0.0
H1760 H 0.37975 0.83252 0.05467 0.0
H1761 H 0.35805 0.84281 0.09294 0.0
C1762 C 0.31055 0.82636 0.2322 0.0
C1763 C 0.28692 0.80851 0.2148 0.0
C1764 C 0.33142 0.84133 0.21945 0.0
C1765 C 0.32806 0.8401 0.18899 0.0
C1766 C 0.30456 0.82198 0.17134 0.0
C1767 C 0.28414 0.80576 0.18435 0.0
C1768 C 0.34846 0.85929 0.17627 0.0
C1769 C 0.36098 0.85178 0.15578 0.0
C1770 C 0.35719 0.88508 0.18654 0.0
C1771 C 0.34358 0.89452 0.20657 0.0
C1772 C 0.31524 0.88751 0.20038 0.0
C1773 C 0.30262 0.89615 0.21962 0.0
C1774 C 0.31819 0.91222 0.24483 0.0
C1775 C 0.3464 0.91968 0.25085 0.0
C1776 C 0.35906 0.91076 0.23199 0.0
C1777 C 0.42703 0.94305 0.11122 0.0
C1778 C 0.44965 0.95917 0.13182 0.0
C1779 C 0.40902 0.92107 0.11928 0.0
C1780 C 0.41372 0.91512 0.14784 0.0
C1781 C 0.43668 0.93076 0.16821 0.0
C1782 C 0.45463 0.95281 0.16024 0.0
C1783 C 0.39234 0.89503 0.15781 0.0
C1784 C 0.37937 0.90252 0.17746 0.0
C1785 C 0.38303 0.86961 0.14623 0.0
C1786 C 0.39586 0.86166 0.12409 0.0
C1787 C 0.42421 0.86863 0.12891 0.0
C1788 C 0.43635 0.86297 0.10696 0.0
C1789 C 0.42034 0.85003 0.08019 0.0
C1790 C 0.39212 0.84254 0.07542 0.0
C1791 C 0.37988 0.84826 0.09726 0.0
H1792 H 0.42979 0.84579 0.06316 0.0
H1793 H 0.30841 0.919 0.25962 0.0
H1794 H 0.70125 0.2418 0.20885 0.0
H1795 H 0.6642 0.20228 0.19003 0.0
H1796 H 0.72113 0.1679 0.18146 0.0
H1797 H 0.75889 0.20783 0.20103 0.0
H1798 H 0.69654 0.1754 0.13042 0.0
H1799 H 0.6672 0.13695 0.21281 0.0
H1800 H 0.65599 0.13419 0.26194 0.0
H1801 H 0.59099 0.15816 0.2335 0.0
H1802 H 0.60194 0.16138 0.18424 0.0
H1803 H 0.58478 0.06891 0.05618 0.0
H1804 H 0.6267 0.10375 0.0785 0.0
H1805 H 0.58149 0.14931 0.09204 0.0
H1806 H 0.53931 0.11429 0.06885 0.0
H1807 H 0.60125 0.13123 0.14263 0.0
H1808 H 0.6347 0.1733 0.06145 0.0
H1809 H 0.64538 0.17376 0.01211 0.0
H1810 H 0.70356 0.1415 0.04017 0.0
H1811 H 0.6929 0.14045 0.08956 0.0
C1812 C 0.70602 0.22578 0.20365 0.0
C1813 C 0.73289 0.22812 0.20507 0.0
C1814 C 0.68473 0.20294 0.1936 0.0
C1815 C 0.69009 0.18238 0.18413 0.0
C1816 C 0.71683 0.18376 0.18873 0.0
C1817 C 0.73825 0.20665 0.19916 0.0
C1818 C 0.66953 0.16412 0.16126 0.0
C1819 C 0.67582 0.16504 0.13322 0.0
C1820 C 0.64251 0.15164 0.16505 0.0
C1821 C 0.63545 0.14942 0.19466 0.0
C1822 C 0.65058 0.14175 0.21699 0.0
C1823 C 0.64424 0.14007 0.2449 0.0
C1824 C 0.62278 0.14598 0.25083 0.0
C1825 C 0.60757 0.15353 0.22884 0.0
C1826 C 0.61378 0.1552 0.20087 0.0
C1827 C 0.5841 0.08704 0.06157 0.0
C1828 C 0.55926 0.08919 0.06135 0.0
C1829 C 0.608 0.10688 0.07465 0.0
C1830 C 0.60678 0.12862 0.08749 0.0
C1831 C 0.58248 0.1324 0.08239 0.0
C1832 C 0.55855 0.11257 0.06895 0.0
C1833 C 0.62837 0.14323 0.11204 0.0
C1834 C 0.62209 0.14142 0.14015 0.0
C1835 C 0.65547 0.15483 0.10847 0.0
C1836 C 0.66285 0.15663 0.07916 0.0
C1837 C 0.64971 0.16623 0.05707 0.0
C1838 C 0.65575 0.16659 0.02909 0.0
C1839 C 0.6751 0.15762 0.02299 0.0
C1840 C 0.68857 0.14844 0.04492 0.0
C1841 C 0.68258 0.148 0.07293 0.0
H1842 H 0.67969 0.15782 0.00129 0.0
H1843 H 0.61794 0.14472 0.27245 0.0
H1844 H 0.72435 0.68784 0.78347 0.0
H1845 H 0.69554 0.66275 0.81538 0.0
H1846 H 0.66686 0.72171 0.82932 0.0
H1847 H 0.69573 0.74702 0.79752 0.0
H1848 H 0.68353 0.7039 0.88046 0.0
H1849 H 0.62633 0.67141 0.78644 0.0
H1850 H 0.61691 0.65492 0.73462 0.0
H1851 H 0.63263 0.59021 0.7593 0.0
H1852 H 0.64275 0.60656 0.81127 0.0
H1853 H 0.59056 0.62227 0.9597 0.0
H1854 H 0.60989 0.65153 0.92507 0.0
H1855 H 0.63943 0.59886 0.89019 0.0
H1856 H 0.61835 0.56886 0.92353 0.0
H1857 H 0.61581 0.61662 0.84758 0.0
H1858 H 0.68169 0.65198 0.9382 0.0
H1859 H 0.69263 0.66676 0.99077 0.0
H1860 H 0.66229 0.72445 0.97269 0.0
H1861 H 0.65082 0.70976 0.92 0.0
C1862 C 0.71158 0.69525 0.79297 0.0
C1863 C 0.71199 0.71917 0.78797 0.0
C1864 C 0.69527 0.681 0.81118 0.0
C1865 C 0.67902 0.69044 0.82425 0.0
C1866 C 0.67931 0.71426 0.81924 0.0
C1867 C 0.6957 0.72858 0.8011 0.0
C1868 C 0.66227 0.67545 0.84377 0.0
C1869 C 0.6683 0.685 0.87325 0.0
C1870 C 0.64276 0.65079 0.83409 0.0
C1871 C 0.63543 0.6403 0.80284 0.0
C1872 C 0.62788 0.6537 0.78085 0.0
C1873 C 0.62244 0.64439 0.75142 0.0
C1874 C 0.6242 0.62154 0.74367 0.0
C1875 C 0.63127 0.6079 0.76534 0.0
C1876 C 0.63683 0.61717 0.7948 0.0
C1877 C 0.6019 0.6174 0.94515 0.0
C1878 C 0.60376 0.59386 0.9444 0.0
C1879 C 0.61262 0.6339 0.92526 0.0
C1880 C 0.62617 0.62732 0.90531 0.0
C1881 C 0.62887 0.60411 0.90538 0.0
C1882 C 0.61738 0.58728 0.92464 0.0
C1883 C 0.63789 0.64469 0.88444 0.0
C1884 C 0.63071 0.63567 0.85469 0.0
C1885 C 0.65661 0.66971 0.89388 0.0
C1886 C 0.66532 0.67973 0.92522 0.0
C1887 C 0.67745 0.66788 0.94545 0.0
C1888 C 0.68366 0.67618 0.97526 0.0
C1889 C 0.67813 0.69651 0.98507 0.0
C1890 C 0.66657 0.70871 0.96505 0.0
C1891 C 0.66025 0.70044 0.9352 0.0
H1892 H 0.68281 0.70282 0.00818 0.0
H1893 H 0.62006 0.6144 0.72088 0.0
H1894 H 0.30828 0.63948 0.85082 0.0
H1895 H 0.32906 0.61998 0.88809 0.0
H1896 H 0.38458 0.69376 0.92945 0.0
H1897 H 0.3645 0.71326 0.89269 0.0
H1898 H 0.40396 0.65783 0.89741 0.0
H1899 H 0.35167 0.66704 0.97061 0.0
H1900 H 0.3085 0.65871 0.98724 0.0
H1901 H 0.28722 0.57893 0.97239 0.0
H1902 H 0.33017 0.58688 0.95535 0.0
H1903 H 0.5 0.64224 -0.00088 0.0
H1904 H 0.46419 0.65786 0.98504 0.0
H1905 H 0.40437 0.58116 0.9658 0.0
H1906 H 0.4405 0.5659 0.97694 0.0
H1907 H 0.38385 0.61426 0.98568 0.0
H1908 H 0.43213 0.60145 0.91444 0.0
H1909 H 0.47173 0.60458 0.89297 0.0
H1910 H 0.49811 0.68508 0.89846 0.0
H1911 H 0.45865 0.68247 0.92007 0.0
C1912 C 0.32415 0.65139 0.86862 0.0
C1913 C 0.33502 0.67772 0.86895 0.0
C1914 C 0.33581 0.64032 0.88976 0.0
C1915 C 0.35813 0.6557 0.911 0.0
C1916 C 0.36708 0.68189 0.91314 0.0
C1917 C 0.35548 0.69292 0.89223 0.0
C1918 C 0.37585 0.64519 0.92686 0.0
C1919 C 0.39993 0.64868 0.91703 0.0
C1920 C 0.3695 0.63229 0.95127 0.0
C1921 C 0.34381 0.62754 0.96137 0.0
C1922 C 0.3376 0.64775 0.97061 0.0
C1923 C 0.31325 0.64309 0.98019 0.0
C1924 C 0.29507 0.6183 0.98076 0.0
C1925 C 0.30127 0.59811 0.97186 0.0
C1926 C 0.32561 0.60268 0.96227 0.0
C1927 C 0.47898 0.629 0.99317 0.0
C1928 C 0.47226 0.60314 0.9894 0.0
C1929 C 0.45868 0.63778 0.98545 0.0
C1930 C 0.43198 0.62045 0.9747 0.0
C1931 C 0.42495 0.59454 0.97451 0.0
C1932 C 0.44534 0.58586 0.98111 0.0
C1933 C 0.41287 0.62874 0.95769 0.0
C1934 C 0.38824 0.62405 0.96657 0.0
C1935 C 0.41849 0.64003 0.93192 0.0
C1936 C 0.44261 0.6418 0.91935 0.0
C1937 C 0.44654 0.61986 0.91144 0.0
C1938 C 0.46891 0.62153 0.89914 0.0
C1939 C 0.48754 0.64502 0.89458 0.0
C1940 C 0.48373 0.6669 0.90214 0.0
C1941 C 0.46132 0.66533 0.91436 0.0
H1942 H 0.50485 0.64626 0.88507 0.0
H1943 H 0.2762 0.61474 0.98818 0.0
H1944 H 0.31614 0.35626 0.79449 0.0
H1945 H 0.34388 0.38468 0.83782 0.0
H1946 H 0.38293 0.33347 0.86095 0.0
H1947 H 0.35467 0.30444 0.81729 0.0
H1948 H 0.35979 0.35838 0.90831 0.0
H1949 H 0.42228 0.37443 0.84224 0.0
H1950 H 0.43367 0.3789 0.79321 0.0
H1951 H 0.40993 0.44172 0.78582 0.0
H1952 H 0.39781 0.43728 0.83452 0.0
H1953 H 0.46666 0.46425 0.99554 0.0
H1954 H 0.42839 0.42621 0.97427 0.0
H1955 H 0.40336 0.46774 0.90842 0.0
H1956 H 0.44461 0.50522 0.92765 0.0
H1957 H 0.42479 0.44036 0.88709 0.0
H1958 H 0.36083 0.4229 0.95494 0.0
H1959 H 0.35024 0.41742 0.0043 0.0
H1960 H 0.37873 0.35754 0.01074 0.0
H1961 H 0.38976 0.3628 0.96164 0.0
C1962 C 0.33099 0.35131 0.80853 0.0
C1963 C 0.33379 0.32861 0.80267 0.0
C1964 C 0.34636 0.3672 0.83336 0.0
C1965 C 0.36483 0.36066 0.8524 0.0
C1966 C 0.36833 0.33833 0.8464 0.0
C1967 C 0.35283 0.32227 0.8213 0.0
C1968 C 0.38192 0.37905 0.87686 0.0
C1969 C 0.37448 0.37633 0.90426 0.0
C1970 C 0.40074 0.40208 0.8709 0.0
C1971 C 0.40906 0.40545 0.84203 0.0
C1972 C 0.41936 0.38912 0.83011 0.0
C1973 C 0.42593 0.39164 0.80236 0.0
C1974 C 0.4225 0.41056 0.7864 0.0
C1975 C 0.41259 0.42707 0.79821 0.0
C1976 C 0.4059 0.42458 0.8259 0.0
C1977 C 0.4529 0.46525 0.9767 0.0
C1978 C 0.45945 0.48673 0.96175 0.0
C1979 C 0.43033 0.44363 0.96509 0.0
C1980 C 0.41353 0.44391 0.93908 0.0
C1981 C 0.41673 0.4671 0.92811 0.0
C1982 C 0.44042 0.4883 0.93862 0.0
C1983 C 0.40109 0.42089 0.91848 0.0
C1984 C 0.4101 0.42267 0.89178 0.0
C1985 C 0.38413 0.39713 0.92557 0.0
C1986 C 0.3763 0.39338 0.95462 0.0
C1987 C 0.36491 0.40861 0.9669 0.0
C1988 C 0.35882 0.40553 0.99485 0.0
C1989 C 0.3639 0.3872 0.01067 0.0
C1990 C 0.37482 0.37174 -0.00152 0.0
C1991 C 0.38092 0.37472 0.97056 0.0
H1992 H 0.35937 0.38494 0.03236 0.0
H1993 H 0.42754 0.41245 0.76489 0.0
H1994 H 0.6617 0.35783 0.81947 0.0
H1995 H 0.64293 0.37958 0.84986 0.0
H1996 H 0.71928 0.40933 0.91176 0.0
H1997 H 0.73793 0.38698 0.88161 0.0
H1998 H 0.67764 0.39174 0.9384 0.0
H1999 H 0.70279 0.44732 0.8655 0.0
H2000 H 0.70594 0.46063 0.81619 0.0
H2001 H 0.61904 0.43556 0.79426 0.0
H2002 H 0.61532 0.42182 0.84332 0.0
H2003 H 0.63634 0.49541 0.98102 0.0
H2004 H 0.66229 0.47271 0.96519 0.0
H2005 H 0.58803 0.4073 0.9342 0.0
H2006 H 0.56184 0.42921 0.95175 0.0
H2007 H 0.63294 0.4466 0.89548 0.0
H2008 H 0.61065 0.38536 0.96921 0.0
H2009 H 0.61079 0.37625 0.02044 0.0
H2010 H 0.69707 0.41899 0.04217 0.0
H2011 H 0.69736 0.42856 0.99108 0.0
C2012 C 0.67433 0.369 0.83961 0.0
C2013 C 0.70107 0.37101 0.84852 0.0
C2014 C 0.66376 0.38145 0.85673 0.0
C2015 C 0.68008 0.3963 0.88251 0.0
C2016 C 0.70666 0.39796 0.89172 0.0
C2017 C 0.71715 0.38524 0.87473 0.0
C2018 C 0.66888 0.40947 0.9002 0.0
C2019 C 0.6682 0.40402 0.92915 0.0
C2020 C 0.65669 0.42542 0.88785 0.0
C2021 C 0.65878 0.43335 0.85808 0.0
C2022 C 0.68433 0.44443 0.85009 0.0
C2023 C 0.68622 0.45211 0.82219 0.0
C2024 C 0.6627 0.4489 0.80209 0.0
C2025 C 0.63724 0.43802 0.80985 0.0
C2026 C 0.63524 0.43033 0.83772 0.0
C2027 C 0.62565 0.47587 0.97189 0.0
C2028 C 0.59717 0.46402 0.967 0.0
C2029 C 0.64045 0.46305 0.963 0.0
C2030 C 0.62674 0.43861 0.94897 0.0
C2031 C 0.59857 0.42618 0.9455 0.0
C2032 C 0.58376 0.43878 0.95494 0.0
C2033 C 0.64114 0.42809 0.93293 0.0
C2034 C 0.64256 0.43435 0.90448 0.0
C2035 C 0.65433 0.41333 0.9458 0.0
C2036 C 0.65403 0.40769 0.97643 0.0
C2037 C 0.6296 0.39299 0.98497 0.0
C2038 C 0.62962 0.38765 0.01393 0.0
C2039 C 0.65399 0.39687 0.03444 0.0
C2040 C 0.67828 0.41175 0.02618 0.0
C2041 C 0.67837 0.41708 -0.00276 0.0
H2042 H 0.65418 0.39234 0.05669 0.0
H2043 H 0.66422 0.45488 0.78052 0.0
H2044 H 0.6739 0.37755 0.22008 0.0
H2045 H 0.65022 0.39388 0.18271 0.0
H2046 H 0.70293 0.3901 0.12448 0.0
H2047 H 0.7272 0.37373 0.16212 0.0
H2048 H 0.68426 0.43573 0.13023 0.0
H2049 H 0.65073 0.34087 0.11159 0.0
H2050 H 0.6303 0.29762 0.12529 0.0
H2051 H 0.5673 0.31465 0.15415 0.0
H2052 H 0.58738 0.35792 0.14064 0.0
H2053 H 0.596 0.45442 0.02001 0.0
H2054 H 0.62786 0.43685 0.04112 0.0
H2055 H 0.56784 0.39118 0.0888 0.0
H2056 H 0.53471 0.40519 0.06267 0.0
H2057 H 0.59518 0.36895 0.08357 0.0
H2058 H 0.62036 0.45749 0.11376 0.0
H2059 H 0.63542 0.50344 0.11184 0.0
H2060 H 0.70566 0.50534 0.07929 0.0
H2061 H 0.69091 0.4594 0.08083 0.0
C2062 C 0.68142 0.38141 0.19993 0.0
C2063 C 0.7022 0.37438 0.19368 0.0
C2064 C 0.66763 0.39032 0.17859 0.0
C2065 C 0.67476 0.39237 0.15117 0.0
C2066 C 0.69735 0.38816 0.14578 0.0
C2067 C 0.71118 0.3791 0.16715 0.0
C2068 C 0.65706 0.39689 0.12755 0.0
C2069 C 0.66482 0.42128 0.11954 0.0
C2070 C 0.63143 0.378 0.11534 0.0
C2071 C 0.62079 0.35265 0.1255 0.0
C2072 C 0.6328 0.33547 0.1213 0.0
C2073 C 0.62116 0.31092 0.12885 0.0
C2074 C 0.59758 0.30342 0.14068 0.0
C2075 C 0.5856 0.32048 0.14506 0.0
C2076 C 0.59708 0.34498 0.13745 0.0
C2077 C 0.58891 0.43872 0.0323 0.0
C2078 C 0.56291 0.43031 0.03879 0.0
C2079 C 0.60747 0.42955 0.04566 0.0
C2080 C 0.60054 0.41351 0.06733 0.0
C2081 C 0.57368 0.40349 0.07198 0.0
C2082 C 0.55466 0.41129 0.05696 0.0
C2083 C 0.62132 0.40848 0.08687 0.0
C2084 C 0.61447 0.38376 0.09395 0.0
C2085 C 0.6467 0.42775 0.10018 0.0
C2086 C 0.65428 0.45495 0.09691 0.0
C2087 C 0.63877 0.46765 0.10573 0.0
C2088 C 0.64733 0.49371 0.10486 0.0
C2089 C 0.67142 0.50728 0.09533 0.0
C2090 C 0.68695 0.4948 0.08655 0.0
C2091 C 0.67849 0.46877 0.08739 0.0
H2092 H 0.6781 0.52747 0.09485 0.0
H2093 H 0.58854 0.28437 0.14635 0.0
H2094 H 0.73407 0.68827 0.22666 0.0
H2095 H 0.70726 0.66904 0.17848 0.0
H2096 H 0.65951 0.71365 0.18335 0.0
H2097 H 0.68701 0.73384 0.23145 0.0
H2098 H 0.63585 0.6587 0.18308 0.0
H2099 H 0.68988 0.72287 0.13051 0.0
H2100 H 0.73337 0.75128 0.11894 0.0
H2101 H 0.74926 0.68751 0.09109 0.0
H2102 H 0.70608 0.65866 0.10291 0.0
H2103 H 0.54121 0.57765 0.08059 0.0
H2104 H 0.57421 0.61972 0.09894 0.0
H2105 H 0.63908 0.59754 0.0841 0.0
H2106 H 0.60518 0.55602 0.06135 0.0
H2107 H 0.65478 0.64794 0.08408 0.0
H2108 H 0.61664 0.58609 0.14489 0.0
H2109 H 0.58227 0.55282 0.16542 0.0
H2110 H 0.54901 0.60557 0.18974 0.0
H2111 H 0.58276 0.63904 0.16866 0.0
C2112 C 0.71779 0.69392 0.21745 0.0
C2113 C 0.71213 0.71209 0.23271 0.0
C2114 C 0.70321 0.68359 0.1897 0.0
C2115 C 0.68238 0.69085 0.1773 0.0
C2116 C 0.6763 0.70869 0.19255 0.0
C2117 C 0.69125 0.71942 0.22026 0.0
C2118 C 0.66246 0.67431 0.15306 0.0
C2119 C 0.63934 0.65684 0.16101 0.0
C2120 C 0.66886 0.67118 0.12547 0.0
C2121 C 0.6946 0.68854 0.11759 0.0
C2122 C 0.70265 0.71486 0.12201 0.0
C2123 C 0.72727 0.73106 0.11537 0.0
C2124 C 0.744 0.7212 0.10415 0.0
C2125 C 0.73617 0.69512 0.09958 0.0
C2126 C 0.7116 0.67883 0.10621 0.0
C2127 C 0.56241 0.58207 0.08012 0.0
C2128 C 0.57093 0.56397 0.06958 0.0
C2129 C 0.58118 0.60607 0.0904 0.0
C2130 C 0.60893 0.61133 0.0934 0.0
C2131 C 0.61763 0.59368 0.08174 0.0
C2132 C 0.59844 0.56999 0.06932 0.0
C2133 C 0.62793 0.63263 0.11415 0.0
C2134 C 0.65085 0.65043 0.10577 0.0
C2135 C 0.6228 0.63528 0.14258 0.0
C2136 C 0.60197 0.615 0.15471 0.0
C2137 C 0.60176 0.59053 0.15422 0.0
C2138 C 0.58241 0.57163 0.16601 0.0
C2139 C 0.56339 0.57705 0.17876 0.0
C2140 C 0.56368 0.60138 0.17974 0.0
C2141 C 0.58287 0.6203 0.16781 0.0
H2142 H 0.5485 0.56242 0.18799 0.0
H2143 H 0.7631 0.73378 0.09916 0.0
H2144 H 0.29399 0.65045 0.14021 0.0
H2145 H 0.31294 0.62839 0.10955 0.0
H2146 H 0.38969 0.65915 0.1705 0.0
H2147 H 0.37092 0.68071 0.20114 0.0
H2148 H 0.39091 0.66733 0.10995 0.0
H2149 H 0.35767 0.60434 0.17388 0.0
H2150 H 0.32363 0.57489 0.19852 0.0
H2151 H 0.27653 0.53486 0.11556 0.0
H2152 H 0.31005 0.56445 0.09033 0.0
H2153 H 0.4695 0.60438 0.07213 0.0
H2154 H 0.4449 0.62598 0.09171 0.0
H2155 H 0.36899 0.56996 0.04352 0.0
H2156 H 0.39314 0.54525 0.02899 0.0
H2157 H 0.36386 0.57478 0.09441 0.0
H2158 H 0.39893 0.64082 0.03066 0.0
H2159 H 0.43536 0.67059 0.00889 0.0
H2160 H 0.48208 0.7036 0.09449 0.0
H2161 H 0.44528 0.67477 0.11665 0.0
C2162 C 0.31476 0.65214 0.14697 0.0
C2163 C 0.33107 0.66683 0.17285 0.0
C2164 C 0.32544 0.63964 0.1297 0.0
C2165 C 0.35248 0.6423 0.13816 0.0
C2166 C 0.36872 0.65698 0.16398 0.0
C2167 C 0.358 0.66908 0.18136 0.0
C2168 C 0.36459 0.6309 0.11944 0.0
C2169 C 0.385 0.64708 0.10627 0.0
C2170 C 0.35651 0.60459 0.11501 0.0
C2171 C 0.33614 0.58694 0.13015 0.0
C2172 C 0.33985 0.58953 0.16083 0.0
C2173 C 0.32069 0.57274 0.17492 0.0
C2174 C 0.29786 0.55309 0.15861 0.0
C2175 C 0.29418 0.55016 0.12816 0.0
C2176 C 0.31324 0.56695 0.11395 0.0
C2177 C 0.44753 0.59643 0.06589 0.0
C2178 C 0.43328 0.57253 0.05008 0.0
C2179 C 0.43347 0.60939 0.07628 0.0
C2180 C 0.40503 0.59989 0.06866 0.0
C2181 C 0.39096 0.57755 0.04978 0.0
C2182 C 0.40491 0.56362 0.04107 0.0
C2183 C 0.38992 0.61114 0.08378 0.0
C2184 C 0.36917 0.59497 0.0969 0.0
C2185 C 0.39783 0.63754 0.0884 0.0
C2186 C 0.41946 0.65558 0.07517 0.0
C2187 C 0.41699 0.65444 0.04473 0.0
C2188 C 0.4377 0.67113 0.03236 0.0
C2189 C 0.46128 0.68866 0.05027 0.0
C2190 C 0.46387 0.68996 0.08062 0.0
C2191 C 0.44293 0.67368 0.09308 0.0
H2192 H 0.47742 0.70136 0.04062 0.0
H2193 H 0.28308 0.54008 0.16956 0.0
H2194 H 0.34471 0.30624 0.23404 0.0
H2195 H 0.37264 0.33531 0.20488 0.0
H2196 H 0.34475 0.39216 0.23143 0.0
H2197 H 0.31475 0.36186 0.25911 0.0
H2198 H 0.33943 0.38689 0.17532 0.0
H2199 H 0.41267 0.39801 0.254 0.0
H2200 H 0.43828 0.38272 0.2919 0.0
H2201 H 0.45696 0.34203 0.22565 0.0
H2202 H 0.43115 0.35679 0.18733 0.0
H2203 H 0.43897 0.48003 0.11413 0.0
H2204 H 0.41402 0.45437 0.14843 0.0
H2205 H 0.41183 0.38723 0.10221 0.0
H2206 H 0.43654 0.41303 0.06711 0.0
H2207 H 0.43465 0.40055 0.17018 0.0
H2208 H 0.35736 0.38752 0.09235 0.0
H2209 H 0.33189 0.40384 0.05545 0.0
H2210 H 0.32281 0.45082 0.12292 0.0
H2211 H 0.34849 0.435 0.1602 0.0
C2212 C 0.34508 0.32517 0.23417 0.0
C2213 C 0.32795 0.33217 0.2486 0.0
C2214 C 0.36116 0.34181 0.21772 0.0
C2215 C 0.36117 0.36603 0.21654 0.0
C2216 C 0.34501 0.37351 0.23227 0.0
C2217 C 0.32807 0.35642 0.24801 0.0
C2218 C 0.3756 0.38207 0.19603 0.0
C2219 C 0.36042 0.3903 0.1746 0.0
C2220 C 0.4028 0.386 0.19482 0.0
C2221 C 0.41992 0.3785 0.21777 0.0
C2222 C 0.42229 0.38585 0.2475 0.0
C2223 C 0.43679 0.37723 0.26907 0.0
C2224 C 0.44922 0.3614 0.26119 0.0
C2225 C 0.44736 0.35433 0.23172 0.0
C2226 C 0.43287 0.36289 0.21006 0.0
C2227 C 0.43273 0.45974 0.11107 0.0
C2228 C 0.43949 0.44825 0.08837 0.0
C2229 C 0.41871 0.44524 0.13061 0.0
C2230 C 0.41161 0.41921 0.12774 0.0
C2231 C 0.41751 0.40745 0.10454 0.0
C2232 C 0.4312 0.42201 0.08451 0.0
C2233 C 0.3982 0.40469 0.14959 0.0
C2234 C 0.41371 0.39708 0.17124 0.0
C2235 C 0.37147 0.40159 0.15129 0.0
C2236 C 0.35496 0.4102 0.12903 0.0
C2237 C 0.35001 0.4014 0.0993 0.0
C2238 C 0.33556 0.41056 0.07832 0.0
C2239 C 0.32584 0.42841 0.08683 0.0
C2240 C 0.33037 0.437 0.11636 0.0
C2241 C 0.34481 0.4279 0.13743 0.0
H2242 H 0.31474 0.43554 0.07054 0.0
H2243 H 0.46029 0.35461 0.27792 0.0
H2244 H 0.86682 0.66827 0.69561 0.0
H2245 H 0.88816 0.64233 0.67652 0.0
H2246 H 0.84133 0.63634 0.59038 0.0
H2247 H 0.81883 0.66129 0.60988 0.0
H2248 H 0.84615 0.59521 0.59286 0.0
H2249 H 0.9149 0.67802 0.61511 0.0
H2250 H 0.94349 0.71854 0.64492 0.0
H2251 H 0.97514 0.67982 0.70833 0.0
H2252 H 0.9466 0.63906 0.67897 0.0
H2253 H 0.93563 0.54883 0.53117 0.0
H2254 H 0.90878 0.57207 0.54383 0.0
H2255 H 0.94688 0.58069 0.63448 0.0
H2256 H 0.97429 0.5583 0.62178 0.0
H2257 H 0.94575 0.62224 0.62436 0.0
H2258 H 0.87326 0.53723 0.59526 0.0
H2259 H 0.84443 0.49985 0.56019 0.0
H2260 H 0.82089 0.54689 0.50197 0.0
H2261 H 0.84975 0.58453 0.53652 0.0
C2262 C 0.86106 0.66156 0.67256 0.0
C2263 C 0.84119 0.66734 0.65439 0.0
C2264 C 0.87351 0.64672 0.66147 0.0
C2265 C 0.86736 0.63776 0.63153 0.0
C2266 C 0.84693 0.64295 0.61346 0.0
C2267 C 0.83399 0.65737 0.62471 0.0
C2268 C 0.8824 0.62337 0.61932 0.0
C2269 C 0.86799 0.60133 0.59963 0.0
C2270 C 0.91104 0.63105 0.62746 0.0
C2271 C 0.92849 0.65551 0.64497 0.0
C2272 C 0.9279 0.67816 0.63547 0.0
C2273 C 0.9441 0.70116 0.65227 0.0
C2274 C 0.96108 0.70175 0.67853 0.0
C2275 C 0.96198 0.67934 0.68799 0.0
C2276 C 0.94585 0.65629 0.67125 0.0
C2277 C 0.9382 0.55549 0.55388 0.0
C2278 C 0.95751 0.55161 0.57534 0.0
C2279 C 0.92254 0.56875 0.5612 0.0
C2280 C 0.92512 0.57812 0.59038 0.0
C2281 C 0.94421 0.57396 0.61176 0.0
C2282 C 0.96012 0.5611 0.60442 0.0
C2283 C 0.90945 0.59335 0.59897 0.0
C2284 C 0.92387 0.61589 0.61777 0.0
C2285 C 0.88099 0.58645 0.58917 0.0
C2286 C 0.8639 0.56372 0.56838 0.0
C2287 C 0.8621 0.53961 0.5749 0.0
C2288 C 0.84571 0.51837 0.55512 0.0
C2289 C 0.8309 0.521 0.52884 0.0
C2290 C 0.8324 0.54487 0.5223 0.0
C2291 C 0.84875 0.56615 0.54198 0.0
H2292 H 0.81822 0.50454 0.51359 0.0
H2293 H 0.97356 0.71957 0.69154 0.0
H2294 H 0.28735 0.83049 0.72371 0.0
H2295 H 0.322 0.86401 0.70612 0.0
H2296 H 0.33024 0.80954 0.64628 0.0
H2297 H 0.29823 0.77546 0.66766 0.0
H2298 H 0.37497 0.8325 0.67995 0.0
H2299 H 0.30875 0.86378 0.62908 0.0
H2300 H 0.27131 0.8783 0.62802 0.0
H2301 H 0.32106 0.93798 0.6958 0.0
H2302 H 0.35858 0.92357 0.69761 0.0
H2303 H 0.45372 0.90486 0.58927 0.0
H2304 H 0.41582 0.88024 0.61185 0.0
H2305 H 0.44612 0.93666 0.68649 0.0
H2306 H 0.48439 0.96142 0.66425 0.0
H2307 H 0.38694 0.91876 0.65631 0.0
H2308 H 0.4538 0.89133 0.70385 0.0
H2309 H 0.49282 0.87924 0.7045 0.0
H2310 H 0.44276 0.81404 0.64378 0.0
H2311 H 0.40353 0.826 0.64234 0.0
C2312 C 0.29563 0.8258 0.70578 0.0
C2313 C 0.29072 0.80073 0.6971 0.0
C2314 C 0.31541 0.84506 0.69556 0.0
C2315 C 0.32887 0.83934 0.67493 0.0
C2316 C 0.32033 0.81426 0.66259 0.0
C2317 C 0.30183 0.79485 0.67433 0.0
C2318 C 0.35493 0.85824 0.67073 0.0
C2319 C 0.37729 0.85118 0.67425 0.0
C2320 C 0.35864 0.8833 0.66569 0.0
C2321 C 0.33641 0.89251 0.66355 0.0
C2322 C 0.31167 0.87998 0.64376 0.0
C2323 C 0.29043 0.88817 0.64307 0.0
C2324 C 0.29379 0.90902 0.66185 0.0
C2325 C 0.31846 0.92183 0.68126 0.0
C2326 C 0.33973 0.91368 0.6821 0.0
C2327 C 0.45239 0.91189 0.61055 0.0
C2328 C 0.47178 0.93484 0.62514 0.0
C2329 C 0.43087 0.89794 0.62332 0.0
C2330 C 0.42859 0.90694 0.6506 0.0
C2331 C 0.44788 0.92975 0.66535 0.0
C2332 C 0.46965 0.94362 0.65274 0.0
C2333 C 0.40558 0.89202 0.66317 0.0
C2334 C 0.38418 0.89999 0.66203 0.0
C2335 C 0.4027 0.86788 0.67058 0.0
C2336 C 0.42571 0.8596 0.67295 0.0
C2337 C 0.4511 0.87441 0.69063 0.0
C2338 C 0.47328 0.86761 0.6911 0.0
C2339 C 0.47028 0.84589 0.67417 0.0
C2340 C 0.44504 0.83084 0.65692 0.0
C2341 C 0.4228 0.83759 0.65631 0.0
H2342 H 0.48751 0.84073 0.67443 0.0
H2343 H 0.27728 0.91527 0.66133 0.0
H2344 H 0.25204 0.31221 0.67903 0.0
H2345 H 0.22839 0.33571 0.65111 0.0
H2346 H 0.17744 0.32662 0.7151 0.0
H2347 H 0.20007 0.30291 0.74209 0.0
H2348 H 0.14651 0.32081 0.66794 0.0
H2349 H 0.23627 0.38592 0.7045 0.0
H2350 H 0.28599 0.40866 0.71053 0.0
H2351 H 0.2784 0.40995 0.61767 0.0
H2352 H 0.22868 0.38699 0.61107 0.0
H2353 H 0.09346 0.41531 0.6397 0.0
H2354 H 0.11898 0.39085 0.66014 0.0
H2355 H 0.15478 0.39621 0.58371 0.0
H2356 H 0.12961 0.42111 0.56319 0.0
H2357 H 0.19353 0.40288 0.63198 0.0
H2358 H 0.1055 0.33899 0.59495 0.0
H2359 H 0.0555 0.31801 0.58732 0.0
H2360 H 0.06025 0.31521 0.67976 0.0
H2361 H 0.11031 0.33627 0.68793 0.0
C2362 C 0.23567 0.31507 0.68706 0.0
C2363 C 0.22835 0.30546 0.71323 0.0
C2364 C 0.22221 0.3289 0.67114 0.0
C2365 C 0.20098 0.3337 0.68083 0.0
C2366 C 0.19352 0.3236 0.70662 0.0
C2367 C 0.20679 0.3099 0.72234 0.0
C2368 C 0.18581 0.34844 0.6645 0.0
C2369 C 0.15714 0.33894 0.66059 0.0
C2370 C 0.1988 0.37185 0.65338 0.0
C2371 C 0.2288 0.3844 0.65727 0.0
C2372 C 0.24525 0.39073 0.68535 0.0
C2373 C 0.27342 0.40375 0.68887 0.0
C2374 C 0.28535 0.41066 0.6645 0.0
C2375 C 0.26915 0.40451 0.63653 0.0
C2376 C 0.24098 0.39149 0.63289 0.0
C2377 C 0.10686 0.4116 0.6271 0.0
C2378 C 0.10908 0.42064 0.59946 0.0
C2379 C 0.12141 0.39719 0.63886 0.0
C2380 C 0.13899 0.39116 0.62365 0.0
C2381 C 0.14153 0.40032 0.59622 0.0
C2382 C 0.12677 0.41455 0.58429 0.0
C2383 C 0.1546 0.37551 0.63645 0.0
C2384 C 0.18314 0.38476 0.63949 0.0
C2385 C 0.14161 0.35185 0.64675 0.0
C2386 C 0.11158 0.33941 0.64206 0.0
C2387 C 0.09585 0.33406 0.61366 0.0
C2388 C 0.06752 0.3221 0.60923 0.0
C2389 C 0.0547 0.31535 0.63305 0.0
C2390 C 0.07021 0.32047 0.66134 0.0
C2391 C 0.09856 0.33237 0.66588 0.0
H2392 H 0.03276 0.3061 0.62958 0.0
H2393 H 0.30714 0.42085 0.66728 0.0
H2394 H 0.76593 0.24855 0.66566 0.0
H2395 H 0.74116 0.20679 0.64021 0.0
H2396 H 0.66628 0.20798 0.65955 0.0
H2397 H 0.69213 0.24916 0.68759 0.0
H2398 H 0.67664 0.17235 0.68486 0.0
H2399 H 0.67628 0.19829 0.58812 0.0
H2400 H 0.69916 0.22432 0.55211 0.0
H2401 H 0.7552 0.1877 0.55785 0.0
H2402 H 0.7328 0.16167 0.59425 0.0
H2403 H 0.5748 0.07603 0.59481 0.0
H2404 H 0.61203 0.11608 0.6153 0.0
H2405 H 0.66874 0.07954 0.6239 0.0
H2406 H 0.63096 0.03896 0.60404 0.0
H2407 H 0.67846 0.12825 0.59247 0.0
H2408 H 0.66242 0.09231 0.68063 0.0
H2409 H 0.63309 0.06729 0.71279 0.0
H2410 H 0.59941 0.12307 0.71968 0.0
H2411 H 0.62785 0.1481 0.68681 0.0
C2412 C 0.74391 0.24062 0.66254 0.0
C2413 C 0.73083 0.25059 0.67974 0.0
C2414 C 0.72974 0.21653 0.64834 0.0
C2415 C 0.70204 0.204 0.649 0.0
C2416 C 0.68788 0.2172 0.65974 0.0
C2417 C 0.70243 0.24099 0.6749 0.0
C2418 C 0.68926 0.17653 0.64308 0.0
C2419 C 0.67667 0.16264 0.66453 0.0
C2420 C 0.69086 0.16407 0.61739 0.0
C2421 C 0.70293 0.1781 0.59385 0.0
C2422 C 0.6934 0.19572 0.58156 0.0
C2423 C 0.70633 0.21053 0.56119 0.0
C2424 C 0.72863 0.20767 0.55271 0.0
C2425 C 0.73789 0.18985 0.56442 0.0
C2426 C 0.72504 0.17501 0.58485 0.0
C2427 C 0.59533 0.07681 0.60058 0.0
C2428 C 0.60069 0.05517 0.59767 0.0
C2429 C 0.6163 0.09933 0.61259 0.0
C2430 C 0.64263 0.10019 0.62136 0.0
C2431 C 0.64827 0.07872 0.61744 0.0
C2432 C 0.62703 0.05594 0.60597 0.0
C2433 C 0.66403 0.12436 0.63304 0.0
C2434 C 0.67891 0.1379 0.61308 0.0
C2435 C 0.66348 0.13643 0.65962 0.0
C2436 C 0.64732 0.12212 0.68093 0.0
C2437 C 0.64867 0.09924 0.6888 0.0
C2438 C 0.63214 0.085 0.70716 0.0
C2439 C 0.61436 0.09356 0.71822 0.0
C2440 C 0.6132 0.11645 0.71108 0.0
C2441 C 0.62956 0.1307 0.69256 0.0
H2442 H 0.60152 0.08247 0.73234 0.0
H2443 H 0.73873 0.21927 0.53705 0.0
H2444 H 0.79655 0.33583 0.33969 0.0
H2445 H 0.8387 0.36364 0.37094 0.0
H2446 H 0.85951 0.30019 0.39119 0.0
H2447 H 0.81703 0.27175 0.35937 0.0
H2448 H 0.86176 0.33594 0.43912 0.0
H2449 H 0.90083 0.33697 0.35221 0.0
H2450 H 0.90021 0.33799 0.29924 0.0
H2451 H 0.88887 0.40762 0.30265 0.0
H2452 H 0.88988 0.40724 0.35551 0.0
H2453 H 0.99636 0.43521 0.49042 0.0
H2454 H 0.95539 0.39659 0.47712 0.0
H2455 H 0.91029 0.43973 0.44103 0.0
H2456 H 0.95101 0.47858 0.45553 0.0
H2457 H 0.92735 0.40847 0.40094 0.0
H2458 H 0.87657 0.40526 0.4761 0.0
H2459 H 0.87126 0.40848 0.52737 0.0
H2460 H 0.89664 0.34739 0.54334 0.0
H2461 H 0.90214 0.34387 0.49206 0.0
C2462 C 0.80982 0.32762 0.35103 0.0
C2463 C 0.80392 0.30175 0.34673 0.0
C2464 C 0.83405 0.34357 0.36837 0.0
C2465 C 0.85233 0.33378 0.382 0.0
C2466 C 0.8457 0.30782 0.37983 0.0
C2467 C 0.82141 0.29174 0.36215 0.0
C2468 C 0.87688 0.35115 0.40104 0.0
C2469 C 0.87688 0.35136 0.43102 0.0
C2470 C 0.89546 0.37155 0.38978 0.0
C2471 C 0.89548 0.37208 0.35791 0.0
C2472 C 0.89826 0.35252 0.34165 0.0
C2473 C 0.89795 0.35304 0.31163 0.0
C2474 C 0.89463 0.37291 0.29758 0.0
C2475 C 0.89172 0.39235 0.31353 0.0
C2476 C 0.89234 0.39208 0.34356 0.0
C2477 C 0.97721 0.43654 0.48161 0.0
C2478 C 0.97642 0.45939 0.47361 0.0
C2479 C 0.95397 0.41458 0.47391 0.0
C2480 C 0.93043 0.41569 0.45773 0.0
C2481 C 0.92859 0.43889 0.45352 0.0
C2482 C 0.9517 0.46088 0.46169 0.0
C2483 C 0.91141 0.39344 0.43876 0.0
C2484 C 0.91289 0.39253 0.40909 0.0
C2485 C 0.89355 0.37281 0.44996 0.0
C2486 C 0.88999 0.37446 0.48051 0.0
C2487 C 0.88114 0.39261 0.49064 0.0
C2488 C 0.87803 0.39445 0.51962 0.0
C2489 C 0.88363 0.37815 0.53856 0.0
C2490 C 0.89228 0.35996 0.52857 0.0
C2491 C 0.89533 0.35798 0.49956 0.0
H2492 H 0.88122 0.37956 0.56096 0.0
H2493 H 0.89426 0.37323 0.27435 0.0
H2494 H 0.72962 0.85933 0.41247 0.0
H2495 H 0.70612 0.88073 0.43648 0.0
H2496 H 0.62979 0.83288 0.38116 0.0
H2497 H 0.65328 0.811 0.35729 0.0
H2498 H 0.64387 0.88806 0.38789 0.0
H2499 H 0.63325 0.81744 0.44308 0.0
H2500 H 0.64667 0.7876 0.47164 0.0
H2501 H 0.70339 0.84891 0.53409 0.0
H2502 H 0.69044 0.87913 0.50572 0.0
H2503 H 0.56467 0.92435 0.46827 0.0
H2504 H 0.58102 0.89397 0.44941 0.0
H2505 H 0.66221 0.93891 0.49677 0.0
H2506 H 0.6462 0.9698 0.51507 0.0
H2507 H 0.64184 0.88219 0.49348 0.0
H2508 H 0.65536 0.95307 0.43565 0.0
H2509 H 0.63976 0.98275 0.40925 0.0
H2510 H 0.57663 0.9208 0.3527 0.0
H2511 H 0.59172 0.89075 0.37903 0.0
C2512 C 0.7079 0.85368 0.40526 0.0
C2513 C 0.69302 0.83377 0.38322 0.0
C2514 C 0.69458 0.86565 0.41905 0.0
C2515 C 0.66641 0.8579 0.41064 0.0
C2516 C 0.65158 0.83871 0.38784 0.0
C2517 C 0.66488 0.82641 0.37431 0.0
C2518 C 0.65271 0.87026 0.42581 0.0
C2519 C 0.64289 0.88645 0.4108 0.0
C2520 C 0.65227 0.86841 0.45579 0.0
C2521 C 0.66114 0.85052 0.47208 0.0
C2522 C 0.64888 0.82457 0.46266 0.0
C2523 C 0.6563 0.80759 0.47889 0.0
C2524 C 0.67594 0.81636 0.50461 0.0
C2525 C 0.68823 0.84215 0.51413 0.0
C2526 C 0.68084 0.8592 0.498 0.0
C2527 C 0.58587 0.92739 0.47505 0.0
C2528 C 0.60444 0.94937 0.4925 0.0
C2529 C 0.59504 0.91011 0.46448 0.0
C2530 C 0.62267 0.91476 0.4716 0.0
C2531 C 0.64078 0.93538 0.49129 0.0
C2532 C 0.63166 0.95283 0.50168 0.0
C2533 C 0.63318 0.8999 0.45559 0.0
C2534 C 0.64255 0.88349 0.47048 0.0
C2535 C 0.63331 0.90163 0.42556 0.0
C2536 C 0.62445 0.91968 0.40949 0.0
C2537 C 0.63801 0.94579 0.41774 0.0
C2538 C 0.62931 0.96267 0.40276 0.0
C2539 C 0.60715 0.95366 0.37938 0.0
C2540 C 0.59375 0.92775 0.37085 0.0
C2541 C 0.6024 0.91079 0.38576 0.0
H2542 H 0.60041 0.96675 0.36782 0.0
H2543 H 0.68158 0.80316 0.51721 0.0
H2544 H 0.24479 0.76152 0.36263 0.0
H2545 H 0.21278 0.72976 0.38505 0.0
H2546 H 0.25008 0.67792 0.3673 0.0
H2547 H 0.28051 0.70946 0.34195 0.0
H2548 H 0.20199 0.66284 0.3354 0.0
H2549 H 0.23744 0.6937 0.43799 0.0
H2550 H 0.25767 0.72935 0.47688 0.0
H2551 H 0.1852 0.74432 0.45954 0.0
H2552 H 0.16467 0.70896 0.42025 0.0
H2553 H 0.11639 0.5572 0.38838 0.0
H2554 H 0.15262 0.59488 0.37788 0.0
H2555 H 0.10085 0.63619 0.37778 0.0
H2556 H 0.0646 0.59831 0.3889 0.0
H2557 H 0.15204 0.6584 0.41634 0.0
H2558 H 0.11527 0.62523 0.31663 0.0
H2559 H 0.09454 0.58867 0.27897 0.0
H2560 H 0.16946 0.57784 0.29108 0.0
H2561 H 0.19051 0.614 0.32933 0.0
C2562 C 0.2473 0.74391 0.36535 0.0
C2563 C 0.26356 0.73698 0.34949 0.0
C2564 C 0.22892 0.72563 0.37823 0.0
C2565 C 0.22852 0.70115 0.37702 0.0
C2566 C 0.24975 0.69658 0.36771 0.0
C2567 C 0.26748 0.71471 0.35376 0.0
C2568 C 0.203 0.67986 0.37798 0.0
C2569 C 0.19142 0.66161 0.35345 0.0
C2570 C 0.18841 0.67922 0.40054 0.0
C2571 C 0.1995 0.69863 0.42623 0.0
C2572 C 0.22573 0.70446 0.44265 0.0
C2573 C 0.2373 0.72469 0.46466 0.0
C2574 C 0.22273 0.73909 0.47068 0.0
C2575 C 0.19643 0.7331 0.45491 0.0
C2576 C 0.18477 0.7129 0.43284 0.0
C2577 C 0.11253 0.57407 0.38486 0.0
C2578 C 0.08806 0.57525 0.3887 0.0
C2579 C 0.13311 0.59551 0.37919 0.0
C2580 C 0.12911 0.61804 0.37714 0.0
C2581 C 0.10402 0.61881 0.37937 0.0
C2582 C 0.08342 0.59731 0.38523 0.0
C2583 C 0.15214 0.64097 0.37472 0.0
C2584 C 0.16289 0.65975 0.39851 0.0
C2585 C 0.16598 0.64213 0.35149 0.0
C2586 C 0.15451 0.62239 0.32594 0.0
C2587 C 0.12742 0.61518 0.31115 0.0
C2588 C 0.11555 0.59443 0.28979 0.0
C2589 C 0.13067 0.58092 0.28266 0.0
C2590 C 0.15779 0.58835 0.29661 0.0
C2591 C 0.16973 0.60903 0.3181 0.0
H2592 H 0.12137 0.5647 0.26634 0.0
H2593 H 0.23182 0.75489 0.48756 0.0
H2594 H 0.38693 0.23151 0.43422 0.0
H2595 H 0.41006 0.20568 0.4556 0.0
H2596 H 0.40382 0.17134 0.36945 0.0
H2597 H 0.37934 0.19648 0.34805 0.0
H2598 H 0.38971 0.13714 0.40274 0.0
H2599 H 0.46685 0.21567 0.41302 0.0
H2600 H 0.49466 0.26102 0.42706 0.0
H2601 H 0.48997 0.25119 0.51699 0.0
H2602 H 0.46195 0.20584 0.50346 0.0
H2603 H 0.4795 0.07857 0.4488 0.0
H2604 H 0.45837 0.10574 0.42691 0.0
H2605 H 0.45354 0.13256 0.51255 0.0
H2606 H 0.47542 0.10553 0.53477 0.0
H2607 H 0.47368 0.17013 0.47925 0.0
H2608 H 0.39682 0.08951 0.46613 0.0
H2609 H 0.37338 0.04396 0.44989 0.0
H2610 H 0.3817 0.05818 0.36166 0.0
H2611 H 0.40547 0.10379 0.37741 0.0
C2612 C 0.39088 0.2187 0.41987 0.0
C2613 C 0.38166 0.21599 0.38959 0.0
C2614 C 0.40423 0.20408 0.43205 0.0
C2615 C 0.40919 0.18703 0.41405 0.0
C2616 C 0.4003 0.18454 0.38367 0.0
C2617 C 0.3864 0.19883 0.3715 0.0
C2618 C 0.42183 0.1705 0.42721 0.0
C2619 C 0.40834 0.14442 0.41911 0.0
C2620 C 0.44576 0.17999 0.44906 0.0
C2621 C 0.46211 0.20739 0.45717 0.0
C2622 C 0.47154 0.22323 0.43575 0.0
C2623 C 0.4874 0.24892 0.44363 0.0
C2624 C 0.49403 0.25899 0.47289 0.0
C2625 C 0.48481 0.24338 0.49434 0.0
C2626 C 0.46898 0.21768 0.48658 0.0
C2627 C 0.47349 0.08995 0.4629 0.0
C2628 C 0.47841 0.08975 0.49335 0.0
C2629 C 0.46149 0.10541 0.4504 0.0
C2630 C 0.4539 0.12055 0.46815 0.0
C2631 C 0.45908 0.12066 0.49862 0.0
C2632 C 0.47142 0.10533 0.51123 0.0
C2633 C 0.44152 0.13703 0.45476 0.0
C2634 C 0.45506 0.16302 0.46286 0.0
C2635 C 0.41796 0.1275 0.43254 0.0
C2636 C 0.40304 0.10008 0.42299 0.0
C2637 C 0.39373 0.08292 0.44328 0.0
C2638 C 0.38038 0.05708 0.43416 0.0
C2639 C 0.37608 0.04818 0.40477 0.0
C2640 C 0.38503 0.0651 0.38442 0.0
C2641 C 0.39839 0.09095 0.39342 0.0
H2642 H 0.36578 0.02817 0.39777 0.0
H2643 H 0.50635 0.27887 0.47895 0.0
H2644 H 0.70144 0.79599 0.74338 0.0
H2645 H 0.67402 0.81685 0.71813 0.0
H2646 H 0.72483 0.83478 0.65337 0.0
H2647 H 0.75255 0.81358 0.67892 0.0
H2648 H 0.717 0.87571 0.67361 0.0
H2649 H 0.65841 0.78987 0.63702 0.0
H2650 H 0.63044 0.7449 0.63847 0.0
H2651 H 0.58161 0.76512 0.69002 0.0
H2652 H 0.60948 0.81022 0.68919 0.0
H2653 H 0.63097 0.92409 0.5842 0.0
H2654 H 0.65681 0.89872 0.60149 0.0
H2655 H 0.61104 0.8772 0.67027 0.0
H2656 H 0.58522 0.90235 0.6531 0.0
H2657 H 0.6164 0.83724 0.64493 0.0
H2658 H 0.67437 0.92107 0.68546 0.0
H2659 H 0.70072 0.96663 0.68583 0.0
H2660 H 0.74986 0.95102 0.63085 0.0
H2661 H 0.7235 0.90531 0.62977 0.0
C2662 C 0.70661 0.80413 0.72354 0.0
C2663 C 0.7291 0.80315 0.71306 0.0
C2664 C 0.69078 0.81594 0.709 0.0
C2665 C 0.69707 0.82723 0.6836 0.0
C2666 C 0.71942 0.82605 0.67281 0.0
C2667 C 0.73516 0.81385 0.68726 0.0
C2668 C 0.68119 0.84144 0.66959 0.0
C2669 C 0.69506 0.86711 0.6667 0.0
C2670 C 0.65237 0.8306 0.66173 0.0
C2671 C 0.63623 0.80346 0.66324 0.0
C2672 C 0.64193 0.78474 0.64897 0.0
C2673 C 0.62602 0.75922 0.6496 0.0
C2674 C 0.60429 0.75216 0.66437 0.0
C2675 C 0.59846 0.77061 0.67861 0.0
C2676 C 0.6143 0.79616 0.67804 0.0
C2677 C 0.62631 0.91379 0.60287 0.0
C2678 C 0.6062 0.91543 0.61742 0.0
C2679 C 0.64122 0.89944 0.61287 0.0
C2680 C 0.63612 0.88624 0.63743 0.0
C2681 C 0.61548 0.88727 0.6514 0.0
C2682 C 0.60082 0.90179 0.64164 0.0
C2683 C 0.65224 0.87137 0.64873 0.0
C2684 C 0.63839 0.8457 0.65142 0.0
C2685 C 0.68098 0.88229 0.65686 0.0
C2686 C 0.6967 0.90976 0.65718 0.0
C2687 C 0.69059 0.92734 0.67316 0.0
C2688 C 0.70557 0.9532 0.67357 0.0
C2689 C 0.72689 0.96172 0.65829 0.0
C2690 C 0.73329 0.94439 0.64261 0.0
C2691 C 0.71834 0.9185 0.64209 0.0
H2692 H 0.73849 0.98175 0.65866 0.0
H2693 H 0.59194 0.7324 0.66473 0.0
H2694 H 0.68364 0.19719 0.27718 0.0
H2695 H 0.66105 0.1716 0.31333 0.0
H2696 H 0.73945 0.18783 0.36802 0.0
H2697 H 0.76179 0.21138 0.33103 0.0
H2698 H 0.71159 0.14509 0.3753 0.0
H2699 H 0.69202 0.21963 0.38032 0.0
H2700 H 0.67508 0.25184 0.36338 0.0
H2701 H 0.59541 0.19419 0.33209 0.0
H2702 H 0.6119 0.16169 0.34881 0.0
H2703 H 0.64536 0.10621 0.50014 0.0
H2704 H 0.67373 0.13376 0.46887 0.0
H2705 H 0.6072 0.10285 0.39509 0.0
H2706 H 0.57909 0.07541 0.4257 0.0
H2707 H 0.63258 0.15681 0.40356 0.0
H2708 H 0.65604 0.08277 0.39705 0.0
H2709 H 0.6743 0.05244 0.41751 0.0
H2710 H 0.74942 0.1135 0.45666 0.0
H2711 H 0.73148 0.14417 0.4365 0.0
C2712 C 0.69593 0.19455 0.29656 0.0
C2713 C 0.72445 0.20597 0.30116 0.0
C2714 C 0.68305 0.1804 0.31755 0.0
C2715 C 0.69843 0.17838 0.34408 0.0
C2716 C 0.72695 0.18898 0.34793 0.0
C2717 C 0.73978 0.20232 0.32658 0.0
C2718 C 0.68509 0.16518 0.36779 0.0
C2719 C 0.69464 0.14815 0.38171 0.0
C2720 C 0.66289 0.16886 0.37657 0.0
C2721 C 0.65325 0.18825 0.36553 0.0
C2722 C 0.67096 0.21384 0.36957 0.0
C2723 C 0.66142 0.23214 0.36012 0.0
C2724 C 0.63421 0.22506 0.3466 0.0
C2725 C 0.61648 0.19966 0.34253 0.0
C2726 C 0.62589 0.1813 0.35204 0.0
C2727 C 0.63682 0.10542 0.47728 0.0
C2728 C 0.60992 0.08872 0.46543 0.0
C2729 C 0.65306 0.12104 0.45945 0.0
C2730 C 0.6425 0.12027 0.42968 0.0
C2731 C 0.61568 0.10378 0.41802 0.0
C2732 C 0.59964 0.0881 0.4356 0.0
C2733 C 0.65883 0.13667 0.4102 0.0
C2734 C 0.64986 0.15429 0.39725 0.0
C2735 C 0.68189 0.134 0.40282 0.0
C2736 C 0.69233 0.11569 0.41561 0.0
C2737 C 0.67633 0.0897 0.41029 0.0
C2738 C 0.68665 0.07246 0.42173 0.0
C2739 C 0.71296 0.08104 0.43846 0.0
C2740 C 0.72902 0.10688 0.44376 0.0
C2741 C 0.71881 0.12419 0.43231 0.0
H2742 H 0.72093 0.06766 0.44725 0.0
H2743 H 0.62685 0.23926 0.33934 0.0
H2744 H 0.83322 0.71663 0.26749 0.0
H2745 H 0.85928 0.69224 0.28683 0.0
H2746 H 0.84596 0.70595 0.37285 0.0
H2747 H 0.82004 0.73092 0.35331 0.0
H2748 H 0.88932 0.69934 0.38728 0.0
H2749 H 0.81715 0.63988 0.32098 0.0
H2750 H 0.78356 0.61932 0.27575 0.0
H2751 H 0.84799 0.62685 0.22972 0.0
H2752 H 0.88211 0.64741 0.27482 0.0
H2753 H 0.95125 0.60914 0.43872 0.0
H2754 H 0.9245 0.6341 0.42495 0.0
H2755 H 0.92852 0.62121 0.33497 0.0
H2756 H 0.95409 0.59527 0.34857 0.0
H2757 H 0.88738 0.62696 0.3257 0.0
H2758 H 0.95954 0.68883 0.40505 0.0
H2759 H 0.98365 0.70276 0.45635 0.0
H2760 H 0.90727 0.68213 0.48442 0.0
H2761 H 0.88278 0.66804 0.43338 0.0
C2762 C 0.83549 0.71468 0.29064 0.0
C2763 C 0.82338 0.72667 0.30796 0.0
C2764 C 0.85069 0.69992 0.30211 0.0
C2765 C 0.85535 0.69544 0.33217 0.0
C2766 C 0.84362 0.70786 0.3497 0.0
C2767 C 0.82822 0.72258 0.33814 0.0
C2768 C 0.87213 0.67857 0.34461 0.0
C2769 C 0.88858 0.68359 0.3733 0.0
C2770 C 0.87216 0.65677 0.32852 0.0
C2771 C 0.85214 0.64543 0.30111 0.0
C2772 C 0.82417 0.63735 0.30113 0.0
C2773 C 0.80506 0.6256 0.27559 0.0
C2774 C 0.81369 0.62181 0.24989 0.0
C2775 C 0.84144 0.62978 0.24969 0.0
C2776 C 0.86066 0.64143 0.27524 0.0
C2777 C 0.94685 0.61138 0.41579 0.0
C2778 C 0.95617 0.5989 0.39543 0.0
C2779 C 0.93118 0.62666 0.40757 0.0
C2780 C 0.92358 0.63155 0.37812 0.0
C2781 C 0.93288 0.61898 0.3579 0.0
C2782 C 0.94824 0.60353 0.36605 0.0
C2783 C 0.90601 0.64839 0.36783 0.0
C2784 C 0.88898 0.64317 0.33948 0.0
C2785 C 0.90455 0.66924 0.38488 0.0
C2786 C 0.91937 0.67711 0.41548 0.0
C2787 C 0.94794 0.68713 0.42221 0.0
C2788 C 0.96165 0.69509 0.45122 0.0
C2789 C 0.947 0.69325 0.47362 0.0
C2790 C 0.9186 0.68349 0.46707 0.0
C2791 C 0.90481 0.67553 0.43813 0.0
H2792 H 0.95765 0.69944 0.49604 0.0
H2793 H 0.79886 0.61267 0.23012 0.0
H2794 H 0.29351 0.83488 0.3459 0.0
H2795 H 0.32615 0.85938 0.38935 0.0
H2796 H 0.38639 0.83501 0.36478 0.0
H2797 H 0.35375 0.81007 0.32123 0.0
H2798 H 0.38253 0.83511 0.42806 0.0
H2799 H 0.39166 0.88815 0.34801 0.0
H2800 H 0.37042 0.90442 0.30719 0.0
H2801 H 0.33738 0.93754 0.36669 0.0
H2802 H 0.35806 0.921 0.4078 0.0
H2803 H 0.5105 0.93351 0.48731 0.0
H2804 H 0.4688 0.89786 0.46374 0.0
H2805 H 0.42096 0.93896 0.48437 0.0
H2806 H 0.4626 0.97477 0.5068 0.0
H2807 H 0.41344 0.92791 0.42812 0.0
H2808 H 0.41055 0.8813 0.50998 0.0
H2809 H 0.4289 0.86317 0.55108 0.0
H2810 H 0.44855 0.81773 0.49112 0.0
H2811 H 0.43052 0.83574 0.44965 0.0
C2812 C 0.31373 0.83478 0.34959 0.0
C2813 C 0.32112 0.82068 0.33003 0.0
C2814 C 0.33218 0.84852 0.3746 0.0
C2815 C 0.3584 0.84858 0.38034 0.0
C2816 C 0.36602 0.83475 0.36083 0.0
C2817 C 0.34754 0.82097 0.33572 0.0
C2818 C 0.37874 0.86553 0.40487 0.0
C2819 C 0.38956 0.85542 0.42819 0.0
C2820 C 0.38703 0.89186 0.40521 0.0
C2821 C 0.37625 0.90327 0.38089 0.0
C2822 C 0.37988 0.89893 0.35235 0.0
C2823 C 0.36789 0.90814 0.32916 0.0
C2824 C 0.3525 0.92199 0.33434 0.0
C2825 C 0.34929 0.92681 0.36273 0.0
C2826 C 0.36116 0.91755 0.38598 0.0
C2827 C 0.49095 0.93444 0.48754 0.0
C2828 C 0.48946 0.95657 0.49884 0.0
C2829 C 0.46717 0.91408 0.47436 0.0
C2830 C 0.44177 0.91575 0.47243 0.0
C2831 C 0.44033 0.93726 0.48579 0.0
C2832 C 0.46408 0.95765 0.49869 0.0
C2833 C 0.41792 0.89775 0.45162 0.0
C2834 C 0.40633 0.90765 0.42863 0.0
C2835 C 0.40898 0.87131 0.45188 0.0
C2836 C 0.41937 0.86003 0.4767 0.0
C2837 C 0.41892 0.86755 0.50555 0.0
C2838 C 0.42923 0.85727 0.52892 0.0
C2839 C 0.43996 0.83937 0.52372 0.0
C2840 C 0.44024 0.8316 0.49511 0.0
C2841 C 0.4299 0.84179 0.47166 0.0
H2842 H 0.44803 0.8315 0.54184 0.0
H2843 H 0.34303 0.92898 0.31641 0.0
H2844 H 0.19302 0.29869 0.27992 0.0
H2845 H 0.17012 0.32196 0.30096 0.0
H2846 H 0.24263 0.36255 0.36519 0.0
H2847 H 0.26469 0.3368 0.34564 0.0
H2848 H 0.21175 0.37162 0.39102 0.0
H2849 H 0.20069 0.38386 0.2887 0.0
H2850 H 0.18714 0.37119 0.23547 0.0
H2851 H 0.10556 0.32672 0.24527 0.0
H2852 H 0.11868 0.33905 0.29852 0.0
H2853 H 0.15302 0.46429 0.42654 0.0
H2854 H 0.17815 0.43983 0.41259 0.0
H2855 H 0.10678 0.39042 0.35212 0.0
H2856 H 0.08194 0.41519 0.36518 0.0
H2857 H 0.13981 0.38794 0.32603 0.0
H2858 H 0.15275 0.38137 0.43081 0.0
H2859 H 0.16899 0.39622 0.48342 0.0
H2860 H 0.25039 0.43409 0.46905 0.0
H2861 H 0.23462 0.41967 0.41637 0.0
C2862 C 0.20454 0.31258 0.29848 0.0
C2863 C 0.23161 0.31521 0.30999 0.0
C2864 C 0.19119 0.32694 0.31063 0.0
C2865 C 0.204 0.34649 0.33458 0.0
C2866 C 0.23104 0.34869 0.34663 0.0
C2867 C 0.24415 0.33358 0.33505 0.0
C2868 C 0.18948 0.36379 0.34663 0.0
C2869 C 0.19622 0.3751 0.37624 0.0
C2870 C 0.1685 0.36968 0.32922 0.0
C2871 C 0.16068 0.36223 0.29745 0.0
C2872 C 0.17989 0.37134 0.27944 0.0
C2873 C 0.1723 0.36422 0.24932 0.0
C2874 C 0.14552 0.34818 0.23705 0.0
C2875 C 0.12628 0.33917 0.25483 0.0
C2876 C 0.13376 0.34624 0.28494 0.0
C2877 C 0.14209 0.44828 0.41021 0.0
C2878 C 0.11423 0.44298 0.39751 0.0
C2879 C 0.157 0.43353 0.40218 0.0
C2880 C 0.14547 0.41182 0.38085 0.0
C2881 C 0.11768 0.40653 0.36838 0.0
C2882 C 0.10285 0.42126 0.37627 0.0
C2883 C 0.16149 0.3954 0.37045 0.0
C2884 C 0.15512 0.38432 0.34099 0.0
C2885 C 0.18312 0.3903 0.38803 0.0
C2886 C 0.19239 0.39971 0.41954 0.0
C2887 C 0.17405 0.39308 0.43882 0.0
C2888 C 0.1832 0.40136 0.46867 0.0
C2889 C 0.21068 0.41616 0.47954 0.0
C2890 C 0.22909 0.42269 0.4606 0.0
C2891 C 0.22005 0.41447 0.43074 0.0
H2892 H 0.21771 0.42249 0.50265 0.0
H2893 H 0.13963 0.34281 0.21376 0.0
H2894 H 0.40127 0.2113 0.69141 0.0
H2895 H 0.42543 0.18705 0.67431 0.0
H2896 H 0.34966 0.13248 0.6247 0.0
H2897 H 0.32547 0.15651 0.64161 0.0
H2898 H 0.37469 0.10836 0.65104 0.0
H2899 H 0.40307 0.17757 0.59377 0.0
H2900 H 0.424 0.22117 0.5816 0.0
H2901 H 0.50094 0.22905 0.63236 0.0
H2902 H 0.4804 0.18563 0.64521 0.0
H2903 H 0.43333 0.03774 0.57853 0.0
H2904 H 0.40945 0.06448 0.58855 0.0
H2905 H 0.48399 0.11977 0.63961 0.0
H2906 H 0.50837 0.09403 0.62796 0.0
H2907 H 0.45896 0.14329 0.6109 0.0
H2908 H 0.42873 0.07317 0.66862 0.0
H2909 H 0.40704 0.02869 0.67765 0.0
H2910 H 0.33231 0.02218 0.62291 0.0
H2911 H 0.35367 0.0665 0.6132 0.0
C2912 C 0.38972 0.1943 0.67658 0.0
C2913 C 0.36121 0.18593 0.66818 0.0
C2914 C 0.40366 0.18042 0.66669 0.0
C2915 C 0.38955 0.15788 0.64789 0.0
C2916 C 0.36118 0.14968 0.63925 0.0
C2917 C 0.34726 0.16345 0.64918 0.0
C2918 C 0.4038 0.14195 0.63854 0.0
C2919 C 0.39291 0.11605 0.64185 0.0
C2920 C 0.42804 0.15181 0.62715 0.0
C2921 C 0.44005 0.17843 0.62082 0.0
C2922 C 0.42434 0.18872 0.60274 0.0
C2923 C 0.43618 0.21338 0.59561 0.0
C2924 C 0.46375 0.2279 0.60629 0.0
C2925 C 0.47956 0.21782 0.62418 0.0
C2926 C 0.46782 0.19319 0.63141 0.0
C2927 C 0.44484 0.05578 0.59148 0.0
C2928 C 0.47289 0.06346 0.60267 0.0
C2929 C 0.43097 0.07094 0.59762 0.0
C2930 C 0.44462 0.09397 0.61559 0.0
C2931 C 0.47276 0.10201 0.62599 0.0
C2932 C 0.4867 0.08706 0.61954 0.0
C2933 C 0.4299 0.10986 0.6236 0.0
C2934 C 0.44073 0.1357 0.62009 0.0
C2935 C 0.40549 0.09993 0.63462 0.0
C2936 C 0.39292 0.07309 0.63993 0.0
C2937 C 0.40777 0.06218 0.65827 0.0
C2938 C 0.39551 0.03701 0.66355 0.0
C2939 C 0.36834 0.0226 0.6508 0.0
C2940 C 0.35337 0.03334 0.63272 0.0
C2941 C 0.36555 0.05847 0.62731 0.0
H2942 H 0.35887 0.00315 0.65499 0.0
H2943 H 0.4729 0.24693 0.60062 0.0
H2944 H 0.81063 0.34182 0.73023 0.0
H2945 H 0.83648 0.36982 0.69788 0.0
H2946 H 0.86671 0.31408 0.67459 0.0
H2947 H 0.84051 0.28573 0.70644 0.0
H2948 H 0.90692 0.36487 0.6971 0.0
H2949 H 0.82442 0.321 0.62628 0.0
H2950 H 0.77587 0.30618 0.60366 0.0
H2951 H 0.78291 0.38276 0.60222 0.0
H2952 H 0.83142 0.39808 0.62538 0.0
H2953 H 0.9666 0.40068 0.57146 0.0
H2954 H 0.93277 0.37658 0.59988 0.0
H2955 H 0.92483 0.44472 0.62888 0.0
H2956 H 0.95965 0.46907 0.60176 0.0
H2957 H 0.87206 0.3925 0.60535 0.0
H2958 H 0.95407 0.43601 0.67635 0.0
H2959 H 1.00285 0.45095 0.69795 0.0
H2960 H 0.99605 0.37439 0.69894 0.0
H2961 H 0.94735 0.35901 0.67653 0.0
C2962 C 0.82289 0.33555 0.71832 0.0
C2963 C 0.82396 0.31172 0.72126 0.0
C2964 C 0.83732 0.35145 0.69956 0.0
C2965 C 0.85331 0.34391 0.68374 0.0
C2966 C 0.85431 0.32013 0.68654 0.0
C2967 C 0.83951 0.30404 0.70486 0.0
C2968 C 0.87114 0.36163 0.66649 0.0
C2969 C 0.89927 0.37064 0.67682 0.0
C2970 C 0.86103 0.36992 0.64068 0.0
C2971 C 0.83151 0.36069 0.62813 0.0
C2972 C 0.81553 0.3347 0.62171 0.0
C2973 C 0.78803 0.3262 0.60862 0.0
C2974 C 0.77628 0.34351 0.60163 0.0
C2975 C 0.79201 0.36937 0.60776 0.0
C2976 C 0.8195 0.37796 0.62089 0.0
C2977 C 0.95748 0.41041 0.58377 0.0
C2978 C 0.96579 0.43666 0.58473 0.0
C2979 C 0.93825 0.39671 0.59996 0.0
C2980 C 0.92649 0.40896 0.61652 0.0
C2981 C 0.93377 0.43499 0.61629 0.0
C2982 C 0.95366 0.44883 0.60092 0.0
C2983 C 0.90776 0.39462 0.63529 0.0
C2984 C 0.87959 0.38655 0.62552 0.0
C2985 C 0.9177 0.38714 0.66168 0.0
C2986 C 0.94719 0.39637 0.67414 0.0
C2987 C 0.96309 0.42237 0.68055 0.0
C2988 C 0.99071 0.43092 0.69309 0.0
C2989 C 1.00259 0.41364 0.69966 0.0
C2990 C 0.98686 0.38777 0.69369 0.0
C2991 C 0.95927 0.37913 0.681 0.0
H2992 H 0.02394 0.42028 0.70952 0.0
H2993 H 0.75503 0.3369 0.59137 0.0
H2994 H 0.19942 0.73338 0.70529 0.0
H2995 H 0.17278 0.70732 0.65955 0.0
H2996 H 0.20116 0.64913 0.68458 0.0
H2997 H 0.22888 0.67587 0.72966 0.0
H2998 H 0.20794 0.65936 0.63091 0.0
H2999 H 0.13469 0.64208 0.68384 0.0
H3000 H 0.10899 0.65635 0.71423 0.0
H3001 H 0.08717 0.69602 0.645 0.0
H3002 H 0.11308 0.68221 0.61431 0.0
H3003 H 0.11689 0.54513 0.55621 0.0
H3004 H 0.1466 0.58331 0.58754 0.0
H3005 H 0.10856 0.62598 0.53676 0.0
H3006 H 0.0777 0.5869 0.50543 0.0
H3007 H 0.10865 0.63249 0.59546 0.0
H3008 H 0.17668 0.63678 0.539 0.0
H3009 H 0.20151 0.61724 0.51358 0.0
H3010 H 0.2327 0.59651 0.59481 0.0
H3011 H 0.20776 0.61552 0.62064 0.0
C3012 C 0.19908 0.71462 0.70139 0.0
C3013 C 0.21565 0.70627 0.72091 0.0
C3014 C 0.18412 0.69987 0.67518 0.0
C3015 C 0.18509 0.67632 0.66855 0.0
C3016 C 0.20037 0.66736 0.68909 0.0
C3017 C 0.21579 0.68237 0.71498 0.0
C3018 C 0.17105 0.66132 0.63985 0.0
C3019 C 0.18622 0.65344 0.62312 0.0
C3020 C 0.14293 0.65431 0.6293 0.0
C3021 C 0.12587 0.66122 0.64685 0.0
C3022 C 0.12434 0.6538 0.67508 0.0
C3023 C 0.10981 0.66185 0.69239 0.0
C3024 C 0.09648 0.67711 0.68157 0.0
C3025 C 0.0975 0.68419 0.65333 0.0
C3026 C 0.11205 0.67622 0.63595 0.0
C3027 C 0.11547 0.56278 0.55101 0.0
C3028 C 0.09508 0.56313 0.52842 0.0
C3029 C 0.13254 0.58468 0.56896 0.0
C3030 C 0.13001 0.60763 0.56446 0.0
C3031 C 0.1109 0.60846 0.54055 0.0
C3032 C 0.09357 0.58628 0.52245 0.0
C3033 C 0.14534 0.62952 0.58701 0.0
C3034 C 0.13049 0.63894 0.60267 0.0
C3035 C 0.17373 0.63741 0.59703 0.0
C3036 C 0.19034 0.62764 0.58177 0.0
C3037 C 0.18891 0.62813 0.55146 0.0
C3038 C 0.20294 0.61707 0.53696 0.0
C3039 C 0.21866 0.60564 0.55257 0.0
C3040 C 0.22057 0.60542 0.58275 0.0
C3041 C 0.20655 0.61641 0.59734 0.0
H3042 H 0.22935 0.59693 0.54128 0.0
H3043 H 0.08535 0.68344 0.69505 0.0
loop_
_geom_bond_atom_site_label_1
_geom_bond_atom_site_label_2
_geom_bond_distance
_geom_bond_site_symmetry_2
_ccdc_geom_bond_type
Tb0 C9 2.764 . S
Tb0 O10 2.325 . S
Tb0 O13 2.303 . S
Tb0 O17 2.322 . S
Tb0 O18 2.349 . S
Tb0 O21 2.415 . S
Tb0 O22 2.399 . S
Tb1 O11 2.322 . S
Tb1 O12 2.349 . S
Tb1 O14 2.415 . S
Tb1 O15 2.399 . S
Tb1 O16 2.325 . S
Tb1 O19 2.303 . S
Tb1 C30 2.764 . S
C2 O18 1.261 . S
C2 O19 1.257 . S
C3 C6 1.358 . S
C3 C7 1.332 . S
C3 C9 1.504 . S
C4 C5 1.373 . S
C4 C8 1.308 . S
C5 C4 1.373 . S
C5 C6 1.429 . S
C5 H32 0.932 . S
C6 C3 1.358 . S
C6 C5 1.429 . S
C6 H33 0.930 . S
C7 C3 1.332 . S
C7 C8 1.394 . S
C7 H34 0.932 . S
C8 C4 1.308 . S
C8 C7 1.394 . S
C8 H35 0.929 . S
C9 Tb0 2.764 . S
C9 C3 1.504 . S
C9 O21 1.239 . S
C9 O22 1.263 . S
O10 Tb0 2.325 . S
O10 C20 1.236 . S
O11 Tb1 2.322 . S
O11 C20 1.257 . S
O12 Tb1 2.349 . S
O12 C23 1.261 . S
O13 Tb0 2.303 . S
O13 C23 1.257 . S
O14 Tb1 2.415 . S
O14 C30 1.239 . S
O15 Tb1 2.399 . S
O15 C30 1.263 . S
O16 Tb1 2.325 . S
O16 C31 1.236 . S
O17 Tb0 2.322 . S
O17 C31 1.257 . S
O18 Tb0 2.349 . S
O18 C2 1.261 . S
O19 Tb1 2.303 . S
O19 C2 1.257 . S
C20 O10 1.236 . S
C20 O11 1.257 . S
O21 Tb0 2.415 . S
O21 C9 1.239 . S
O22 Tb0 2.399 . S
O22 C9 1.263 . S
C23 O12 1.261 . S
C23 O13 1.257 . S
C24 C27 1.358 . S
C24 C28 1.332 . S
C24 C30 1.504 . S
C25 C26 1.373 . S
C25 C29 1.308 . S
C26 C25 1.373 . S
C26 C27 1.429 . S
C26 H36 0.932 . S
C27 C24 1.358 . S
C27 C26 1.429 . S
C27 H37 0.930 . S
C28 C24 1.332 . S
C28 C29 1.394 . S
C28 H38 0.932 . S
C29 C25 1.308 . S
C29 C28 1.394 . S
C29 H39 0.929 . S
C30 Tb1 2.764 . S
C30 O14 1.239 . S
C30 O15 1.263 . S
C30 C24 1.504 . S
C31 O16 1.236 . S
C31 O17 1.257 . S
H32 C5 0.932 . S
H33 C6 0.930 . S
H34 C7 0.932 . S
H35 C8 0.929 . S
H36 C26 0.932 . S
H37 C27 0.930 . S
H38 C28 0.932 . S
H39 C29 0.929 . S
Tb40 C49 2.764 . S
Tb40 O50 2.325 . S
Tb40 O53 2.303 . S
Tb40 O57 2.322 . S
Tb40 O58 2.349 . S
Tb40 O61 2.415 . S
Tb40 O62 2.399 . S
Tb41 O51 2.322 . S
Tb41 O52 2.349 . S
Tb41 O54 2.415 . S
Tb41 O55 2.399 . S
Tb41 O56 2.325 . S
Tb41 O59 2.303 . S
Tb41 C70 2.764 . S
C42 O58 1.261 . S
C42 O59 1.257 . S
C43 C46 1.358 . S
C43 C47 1.332 . S
C43 C49 1.504 . S
C44 C45 1.373 . S
C44 C48 1.308 . S
C45 C44 1.373 . S
C45 C46 1.429 . S
C45 H72 0.932 . S
C46 C43 1.358 . S
C46 C45 1.429 . S
C46 H73 0.930 . S
C47 C43 1.332 . S
C47 C48 1.394 . S
C47 H74 0.932 . S
C48 C44 1.308 . S
C48 C47 1.394 . S
C48 H75 0.929 . S
C49 Tb40 2.764 . S
C49 C43 1.504 . S
C49 O61 1.239 . S
C49 O62 1.263 . S
O50 Tb40 2.325 . S
O50 C60 1.236 . S
O51 Tb41 2.322 . S
O51 C60 1.257 . S
O52 Tb41 2.349 . S
O52 C63 1.261 . S
O53 Tb40 2.303 . S
O53 C63 1.257 . S
O54 Tb41 2.415 . S
O54 C70 1.239 . S
O55 Tb41 2.399 . S
O55 C70 1.263 . S
O56 Tb41 2.325 . S
O56 C71 1.236 . S
O57 Tb40 2.322 . S
O57 C71 1.257 . S
O58 Tb40 2.349 . S
O58 C42 1.261 . S
O59 Tb41 2.303 . S
O59 C42 1.257 . S
C60 O50 1.236 . S
C60 O51 1.257 . S
O61 Tb40 2.415 . S
O61 C49 1.239 . S
O62 Tb40 2.399 . S
O62 C49 1.263 . S
C63 O52 1.261 . S
C63 O53 1.257 . S
C64 C67 1.358 . S
C64 C68 1.332 . S
C64 C70 1.504 . S
C65 C66 1.373 . S
C65 C69 1.308 . S
C66 C65 1.373 . S
C66 C67 1.429 . S
C66 H76 0.932 . S
C67 C64 1.358 . S
C67 C66 1.429 . S
C67 H77 0.930 . S
C68 C64 1.332 . S
C68 C69 1.394 . S
C68 H78 0.932 . S
C69 C65 1.308 . S
C69 C68 1.394 . S
C69 H79 0.929 . S
C70 Tb41 2.764 . S
C70 O54 1.239 . S
C70 O55 1.263 . S
C70 C64 1.504 . S
C71 O56 1.236 . S
C71 O57 1.257 . S
H72 C45 0.932 . S
H73 C46 0.930 . S
H74 C47 0.932 . S
H75 C48 0.929 . S
H76 C66 0.932 . S
H77 C67 0.930 . S
H78 C68 0.932 . S
H79 C69 0.929 . S
Tb80 C89 2.764 . S
Tb80 O90 2.325 . S
Tb80 O93 2.303 . S
Tb80 O97 2.322 . S
Tb80 O98 2.349 . S
Tb80 O101 2.415 . S
Tb80 O102 2.399 . S
Tb81 O91 2.322 . S
Tb81 O92 2.349 . S
Tb81 O94 2.415 . S
Tb81 O95 2.399 . S
Tb81 O96 2.325 . S
Tb81 O99 2.303 . S
Tb81 C110 2.764 . S
C82 O98 1.261 . S
C82 O99 1.257 . S
C83 C86 1.358 . S
C83 C87 1.332 . S
C83 C89 1.504 . S
C84 C85 1.373 . S
C84 C88 1.308 . S
C85 C84 1.373 . S
C85 C86 1.429 . S
C85 H112 0.932 . S
C86 C83 1.358 . S
C86 C85 1.429 . S
C86 H113 0.930 . S
C87 C83 1.332 . S
C87 C88 1.394 . S
C87 H114 0.932 . S
C88 C84 1.308 . S
C88 C87 1.394 . S
C88 H115 0.929 . S
C89 Tb80 2.764 . S
C89 C83 1.504 . S
C89 O101 1.239 . S
C89 O102 1.263 . S
O90 Tb80 2.325 . S
O90 C100 1.236 . S
O91 Tb81 2.322 . S
O91 C100 1.257 . S
O92 Tb81 2.349 . S
O92 C103 1.261 . S
O93 Tb80 2.303 . S
O93 C103 1.257 . S
O94 Tb81 2.415 . S
O94 C110 1.239 . S
O95 Tb81 2.399 . S
O95 C110 1.263 . S
O96 Tb81 2.325 . S
O96 C111 1.236 . S
O97 Tb80 2.322 . S
O97 C111 1.257 . S
O98 Tb80 2.349 . S
O98 C82 1.261 . S
O99 Tb81 2.303 . S
O99 C82 1.257 . S
C100 O90 1.236 . S
C100 O91 1.257 . S
O101 Tb80 2.415 . S
O101 C89 1.239 . S
O102 Tb80 2.399 . S
O102 C89 1.263 . S
C103 O92 1.261 . S
C103 O93 1.257 . S
C104 C107 1.358 . S
C104 C108 1.332 . S
C104 C110 1.504 . S
C105 C106 1.373 . S
C105 C109 1.308 . S
C106 C105 1.373 . S
C106 C107 1.429 . S
C106 H116 0.932 . S
C107 C104 1.358 . S
C107 C106 1.429 . S
C107 H117 0.930 . S
C108 C104 1.332 . S
C108 C109 1.394 . S
C108 H118 0.932 . S
C109 C105 1.308 . S
C109 C108 1.394 . S
C109 H119 0.929 . S
C110 Tb81 2.764 . S
C110 O94 1.239 . S
C110 O95 1.263 . S
C110 C104 1.504 . S
C111 O96 1.236 . S
C111 O97 1.257 . S
H112 C85 0.932 . S
H113 C86 0.930 . S
H114 C87 0.932 . S
H115 C88 0.929 . S
H116 C106 0.932 . S
H117 C107 0.930 . S
H118 C108 0.932 . S
H119 C109 0.929 . S
Tb120 C129 2.764 . S
Tb120 O130 2.325 . S
Tb120 O133 2.303 . S
Tb120 O137 2.322 . S
Tb120 O138 2.349 . S
Tb120 O141 2.415 . S
Tb120 O142 2.399 . S
Tb121 O131 2.322 . S
Tb121 O132 2.349 . S
Tb121 O134 2.415 . S
Tb121 O135 2.399 . S
Tb121 O136 2.325 . S
Tb121 O139 2.303 . S
Tb121 C150 2.764 . S
C122 O138 1.261 . S
C122 O139 1.257 . S
C123 C126 1.358 . S
C123 C127 1.332 . S
C123 C129 1.504 . S
C124 C125 1.373 . S
C124 C128 1.308 . S
C125 C124 1.373 . S
C125 C126 1.429 . S
C125 H152 0.932 . S
C126 C123 1.358 . S
C126 C125 1.429 . S
C126 H153 0.930 . S
C127 C123 1.332 . S
C127 C128 1.394 . S
C127 H154 0.932 . S
C128 C124 1.308 . S
C128 C127 1.394 . S
C128 H155 0.929 . S
C129 Tb120 2.764 . S
C129 C123 1.504 . S
C129 O141 1.239 . S
C129 O142 1.263 . S
O130 Tb120 2.325 . S
O130 C140 1.236 . S
O131 Tb121 2.322 . S
O131 C140 1.257 . S
O132 Tb121 2.349 . S
O132 C143 1.261 . S
O133 Tb120 2.303 . S
O133 C143 1.257 . S
O134 Tb121 2.415 . S
O134 C150 1.239 . S
O135 Tb121 2.399 . S
O135 C150 1.263 . S
O136 Tb121 2.325 . S
O136 C151 1.236 . S
O137 Tb120 2.322 . S
O137 C151 1.257 . S
O138 Tb120 2.349 . S
O138 C122 1.261 . S
O139 Tb121 2.303 . S
O139 C122 1.257 . S
C140 O130 1.236 . S
C140 O131 1.257 . S
O141 Tb120 2.415 . S
O141 C129 1.239 . S
O142 Tb120 2.399 . S
O142 C129 1.263 . S
C143 O132 1.261 . S
C143 O133 1.257 . S
C144 C147 1.358 . S
C144 C148 1.332 . S
C144 C150 1.504 . S
C145 C146 1.373 . S
C145 C149 1.308 . S
C146 C145 1.373 . S
C146 C147 1.429 . S
C146 H156 0.932 . S
C147 C144 1.358 . S
C147 C146 1.429 . S
C147 H157 0.930 . S
C148 C144 1.332 . S
C148 C149 1.394 . S
C148 H158 0.932 . S
C149 C145 1.308 . S
C149 C148 1.394 . S
C149 H159 0.929 . S
C150 Tb121 2.764 . S
C150 O134 1.239 . S
C150 O135 1.263 . S
C150 C144 1.504 . S
C151 O136 1.236 . S
C151 O137 1.257 . S
H152 C125 0.932 . S
H153 C126 0.930 . S
H154 C127 0.932 . S
H155 C128 0.929 . S
H156 C146 0.932 . S
H157 C147 0.930 . S
H158 C148 0.932 . S
H159 C149 0.929 . S
Tb160 C169 2.764 . S
Tb160 O170 2.325 . S
Tb160 O173 2.303 . S
Tb160 O177 2.322 . S
Tb160 O178 2.349 . S
Tb160 O181 2.415 . S
Tb160 O182 2.399 . S
Tb161 O171 2.322 . S
Tb161 O172 2.349 . S
Tb161 O174 2.415 . S
Tb161 O175 2.399 . S
Tb161 O176 2.325 . S
Tb161 O179 2.303 . S
Tb161 C190 2.764 . S
C162 O178 1.261 . S
C162 O179 1.257 . S
C163 C166 1.358 . S
C163 C167 1.332 . S
C163 C169 1.504 . S
C164 C165 1.373 . S
C164 C168 1.308 . S
C165 C164 1.373 . S
C165 C166 1.429 . S
C165 H192 0.932 . S
C166 C163 1.358 . S
C166 C165 1.429 . S
C166 H193 0.930 . S
C167 C163 1.332 . S
C167 C168 1.394 . S
C167 H194 0.932 . S
C168 C164 1.308 . S
C168 C167 1.394 . S
C168 H195 0.929 . S
C169 Tb160 2.764 . S
C169 C163 1.504 . S
C169 O181 1.239 . S
C169 O182 1.263 . S
O170 Tb160 2.325 . S
O170 C180 1.236 . S
O171 Tb161 2.322 . S
O171 C180 1.257 . S
O172 Tb161 2.349 . S
O172 C183 1.261 . S
O173 Tb160 2.303 . S
O173 C183 1.257 . S
O174 Tb161 2.415 . S
O174 C190 1.239 . S
O175 Tb161 2.399 . S
O175 C190 1.263 . S
O176 Tb161 2.325 . S
O176 C191 1.236 . S
O177 Tb160 2.322 . S
O177 C191 1.257 . S
O178 Tb160 2.349 . S
O178 C162 1.261 . S
O179 Tb161 2.303 . S
O179 C162 1.257 . S
C180 O170 1.236 . S
C180 O171 1.257 . S
O181 Tb160 2.415 . S
O181 C169 1.239 . S
O182 Tb160 2.399 . S
O182 C169 1.263 . S
C183 O172 1.261 . S
C183 O173 1.257 . S
C184 C187 1.358 . S
C184 C188 1.332 . S
C184 C190 1.504 . S
C185 C186 1.373 . S
C185 C189 1.308 . S
C186 C185 1.373 . S
C186 C187 1.429 . S
C186 H196 0.932 . S
C187 C184 1.358 . S
C187 C186 1.429 . S
C187 H197 0.930 . S
C188 C184 1.332 . S
C188 C189 1.394 . S
C188 H198 0.932 . S
C189 C185 1.308 . S
C189 C188 1.394 . S
C189 H199 0.929 . S
C190 Tb161 2.764 . S
C190 O174 1.239 . S
C190 O175 1.263 . S
C190 C184 1.504 . S
C191 O176 1.236 . S
C191 O177 1.257 . S
H192 C165 0.932 . S
H193 C166 0.930 . S
H194 C167 0.932 . S
H195 C168 0.929 . S
H196 C186 0.932 . S
H197 C187 0.930 . S
H198 C188 0.932 . S
H199 C189 0.929 . S
Tb200 C209 2.764 . S
Tb200 O210 2.325 . S
Tb200 O213 2.303 . S
Tb200 O217 2.322 . S
Tb200 O218 2.349 . S
Tb200 O221 2.415 . S
Tb200 O222 2.399 . S
Tb201 O211 2.322 . S
Tb201 O212 2.349 . S
Tb201 O214 2.415 . S
Tb201 O215 2.399 . S
Tb201 O216 2.325 . S
Tb201 O219 2.303 . S
Tb201 C230 2.764 . S
C202 O218 1.261 . S
C202 O219 1.257 . S
C203 C206 1.358 . S
C203 C207 1.332 . S
C203 C209 1.504 . S
C204 C205 1.373 . S
C204 C208 1.308 . S
C205 C204 1.373 . S
C205 C206 1.429 . S
C205 H232 0.932 . S
C206 C203 1.358 . S
C206 C205 1.429 . S
C206 H233 0.930 . S
C207 C203 1.332 . S
C207 C208 1.394 . S
C207 H234 0.932 . S
C208 C204 1.308 . S
C208 C207 1.394 . S
C208 H235 0.929 . S
C209 Tb200 2.764 . S
C209 C203 1.504 . S
C209 O221 1.239 . S
C209 O222 1.263 . S
O210 Tb200 2.325 . S
O210 C220 1.236 . S
O211 Tb201 2.322 . S
O211 C220 1.257 . S
O212 Tb201 2.349 . S
O212 C223 1.261 . S
O213 Tb200 2.303 . S
O213 C223 1.257 . S
O214 Tb201 2.415 . S
O214 C230 1.239 . S
O215 Tb201 2.399 . S
O215 C230 1.263 . S
O216 Tb201 2.325 . S
O216 C231 1.236 . S
O217 Tb200 2.322 . S
O217 C231 1.257 . S
O218 Tb200 2.349 . S
O218 C202 1.261 . S
O219 Tb201 2.303 . S
O219 C202 1.257 . S
C220 O210 1.236 . S
C220 O211 1.257 . S
O221 Tb200 2.415 . S
O221 C209 1.239 . S
O222 Tb200 2.399 . S
O222 C209 1.263 . S
C223 O212 1.261 . S
C223 O213 1.257 . S
C224 C227 1.358 . S
C224 C228 1.332 . S
C224 C230 1.504 . S
C225 C226 1.373 . S
C225 C229 1.308 . S
C226 C225 1.373 . S
C226 C227 1.429 . S
C226 H236 0.932 . S
C227 C224 1.358 . S
C227 C226 1.429 . S
C227 H237 0.930 . S
C228 C224 1.332 . S
C228 C229 1.394 . S
C228 H238 0.932 . S
C229 C225 1.308 . S
C229 C228 1.394 . S
C229 H239 0.929 . S
C230 Tb201 2.764 . S
C230 O214 1.239 . S
C230 O215 1.263 . S
C230 C224 1.504 . S
C231 O216 1.236 . S
C231 O217 1.257 . S
H232 C205 0.932 . S
H233 C206 0.930 . S
H234 C207 0.932 . S
H235 C208 0.929 . S
H236 C226 0.932 . S
H237 C227 0.930 . S
H238 C228 0.932 . S
H239 C229 0.929 . S
Tb240 C249 2.764 . S
Tb240 O250 2.325 . S
Tb240 O253 2.303 . S
Tb240 O257 2.322 . S
Tb240 O258 2.349 . S
Tb240 O261 2.415 . S
Tb240 O262 2.399 . S
Tb241 O251 2.322 . S
Tb241 O252 2.349 . S
Tb241 O254 2.415 . S
Tb241 O255 2.399 . S
Tb241 O256 2.325 . S
Tb241 O259 2.303 . S
Tb241 C270 2.764 . S
C242 O258 1.261 . S
C242 O259 1.257 . S
C243 C246 1.358 . S
C243 C247 1.332 . S
C243 C249 1.504 . S
C244 C245 1.373 . S
C244 C248 1.308 . S
C245 C244 1.373 . S
C245 C246 1.429 . S
C245 H272 0.932 . S
C246 C243 1.358 . S
C246 C245 1.429 . S
C246 H273 0.930 . S
C247 C243 1.332 . S
C247 C248 1.394 . S
C247 H274 0.932 . S
C248 C244 1.308 . S
C248 C247 1.394 . S
C248 H275 0.929 . S
C249 Tb240 2.764 . S
C249 C243 1.504 . S
C249 O261 1.239 . S
C249 O262 1.263 . S
O250 Tb240 2.325 . S
O250 C260 1.236 . S
O251 Tb241 2.322 . S
O251 C260 1.257 . S
O252 Tb241 2.349 . S
O252 C263 1.261 . S
O253 Tb240 2.303 . S
O253 C263 1.257 . S
O254 Tb241 2.415 . S
O254 C270 1.239 . S
O255 Tb241 2.399 . S
O255 C270 1.263 . S
O256 Tb241 2.325 . S
O256 C271 1.236 . S
O257 Tb240 2.322 . S
O257 C271 1.257 . S
O258 Tb240 2.349 . S
O258 C242 1.261 . S
O259 Tb241 2.303 . S
O259 C242 1.257 . S
C260 O250 1.236 . S
C260 O251 1.257 . S
O261 Tb240 2.415 . S
O261 C249 1.239 . S
O262 Tb240 2.399 . S
O262 C249 1.263 . S
C263 O252 1.261 . S
C263 O253 1.257 . S
C264 C267 1.358 . S
C264 C268 1.332 . S
C264 C270 1.504 . S
C265 C266 1.373 . S
C265 C269 1.308 . S
C266 C265 1.373 . S
C266 C267 1.429 . S
C266 H276 0.932 . S
C267 C264 1.358 . S
C267 C266 1.429 . S
C267 H277 0.930 . S
C268 C264 1.332 . S
C268 C269 1.394 . S
C268 H278 0.932 . S
C269 C265 1.308 . S
C269 C268 1.394 . S
C269 H279 0.929 . S
C270 Tb241 2.764 . S
C270 O254 1.239 . S
C270 O255 1.263 . S
C270 C264 1.504 . S
C271 O256 1.236 . S
C271 O257 1.257 . S
H272 C245 0.932 . S
H273 C246 0.930 . S
H274 C247 0.932 . S
H275 C248 0.929 . S
H276 C266 0.932 . S
H277 C267 0.930 . S
H278 C268 0.932 . S
H279 C269 0.929 . S
Tb280 C289 2.764 . S
Tb280 O290 2.325 . S
Tb280 O293 2.303 . S
Tb280 O297 2.322 . S
Tb280 O298 2.349 . S
Tb280 O301 2.415 . S
Tb280 O302 2.399 . S
Tb281 O291 2.322 . S
Tb281 O292 2.349 . S
Tb281 O294 2.415 . S
Tb281 O295 2.399 . S
Tb281 O296 2.325 . S
Tb281 O299 2.303 . S
Tb281 C310 2.764 . S
C282 O298 1.261 . S
C282 O299 1.257 . S
C283 C286 1.358 . S
C283 C287 1.332 . S
C283 C289 1.504 . S
C284 C285 1.373 . S
C284 C288 1.308 . S
C285 C284 1.373 . S
C285 C286 1.429 . S
C285 H312 0.932 . S
C286 C283 1.358 . S
C286 C285 1.429 . S
C286 H313 0.930 . S
C287 C283 1.332 . S
C287 C288 1.394 . S
C287 H314 0.932 . S
C288 C284 1.308 . S
C288 C287 1.394 . S
C288 H315 0.929 . S
C289 Tb280 2.764 . S
C289 C283 1.504 . S
C289 O301 1.239 . S
C289 O302 1.263 . S
O290 Tb280 2.325 . S
O290 C300 1.236 . S
O291 Tb281 2.322 . S
O291 C300 1.257 . S
O292 Tb281 2.349 . S
O292 C303 1.261 . S
O293 Tb280 2.303 . S
O293 C303 1.257 . S
O294 Tb281 2.415 . S
O294 C310 1.239 . S
O295 Tb281 2.399 . S
O295 C310 1.263 . S
O296 Tb281 2.325 . S
O296 C311 1.236 . S
O297 Tb280 2.322 . S
O297 C311 1.257 . S
O298 Tb280 2.349 . S
O298 C282 1.261 . S
O299 Tb281 2.303 . S
O299 C282 1.257 . S
C300 O290 1.236 . S
C300 O291 1.257 . S
O301 Tb280 2.415 . S
O301 C289 1.239 . S
O302 Tb280 2.399 . S
O302 C289 1.263 . S
C303 O292 1.261 . S
C303 O293 1.257 . S
C304 C307 1.358 . S
C304 C308 1.332 . S
C304 C310 1.504 . S
C305 C306 1.373 . S
C305 C309 1.308 . S
C306 C305 1.373 . S
C306 C307 1.429 . S
C306 H316 0.932 . S
C307 C304 1.358 . S
C307 C306 1.429 . S
C307 H317 0.930 . S
C308 C304 1.332 . S
C308 C309 1.394 . S
C308 H318 0.932 . S
C309 C305 1.308 . S
C309 C308 1.394 . S
C309 H319 0.929 . S
C310 Tb281 2.764 . S
C310 O294 1.239 . S
C310 O295 1.263 . S
C310 C304 1.504 . S
C311 O296 1.236 . S
C311 O297 1.257 . S
H312 C285 0.932 . S
H313 C286 0.930 . S
H314 C287 0.932 . S
H315 C288 0.929 . S
H316 C306 0.932 . S
H317 C307 0.930 . S
H318 C308 0.932 . S
H319 C309 0.929 . S
Cd320 N323 2.361 1_545 S
Cd320 N349 2.279 1_455 S
Cd320 O356 2.266 1_445 S
Cd320 O359 2.286 . S
Cd320 O360 2.403 1_445 S
Cd320 O361 2.322 1_445 S
Cd321 N336 2.304 . S
Cd321 N340 2.334 . S
Cd321 O357 2.273 1_455 S
Cd321 O358 2.268 . S
Cd321 O362 2.417 . S
Cd321 O363 2.330 . S
C322 N323 1.332 . S
C322 C326 1.381 . S
C322 H328 0.931 1_565 S
N323 Cd320 2.361 1_565 S
N323 C322 1.332 . S
N323 C327 1.328 . S
C324 C325 1.396 . S
C324 C327 1.378 . S
C324 H366 0.931 . S
C325 C324 1.396 . S
C325 C326 1.382 . S
C326 C322 1.381 . S
C326 C325 1.382 . S
C326 H367 0.930 . S
C327 N323 1.328 . S
C327 C324 1.378 . S
C327 H329 0.930 . S
H328 C322 0.931 1_545 S
H329 C327 0.930 . S
C330 O356 1.238 . S
C330 O357 1.253 1_565 S
C331 C332 1.379 . S
C331 N336 1.337 1_655 S
C331 H337 0.929 . S
C332 C331 1.379 . S
C332 C333 1.380 . S
C332 H368 0.929 . S
C333 C332 1.380 . S
C333 C334 1.399 . S
C334 C333 1.399 . S
C334 C335 1.376 1_655 S
C334 H369 0.931 1_655 S
C335 C334 1.376 1_455 S
C335 N336 1.338 . S
C335 H338 0.930 . S
N336 Cd321 2.304 . S
N336 C331 1.337 1_455 S
N336 C335 1.338 . S
H337 C331 0.929 . S
H338 C335 0.930 . S
C339 N340 1.332 1_565 S
C339 C343 1.381 . S
C339 H345 0.931 . S
N340 Cd321 2.334 . S
N340 C339 1.332 1_545 S
N340 C344 1.328 . S
C341 C342 1.396 1_545 S
C341 C344 1.378 . S
C341 H370 0.931 . S
C342 C341 1.396 1_565 S
C342 C343 1.382 . S
C343 C339 1.381 . S
C343 C342 1.382 . S
C343 H371 0.930 . S
C344 N340 1.328 . S
C344 C341 1.378 . S
C344 H346 0.930 . S
H345 C339 0.931 . S
H346 C344 0.930 . S
C347 O358 1.238 . S
C347 O359 1.253 . S
C348 O360 1.239 . S
C348 O361 1.230 . S
N349 Cd320 2.279 1_655 S
N349 C350 1.337 . S
N349 C354 1.338 . S
C350 N349 1.337 . S
C350 C351 1.379 . S
C350 H364 0.929 . S
C351 C350 1.379 . S
C351 C352 1.380 . S
C351 H372 0.929 . S
C352 C351 1.380 . S
C352 C353 1.399 . S
C353 C352 1.399 . S
C353 C354 1.376 . S
C353 H373 0.931 . S
C354 N349 1.338 . S
C354 C353 1.376 . S
C354 H365 0.930 . S
C355 O362 1.239 . S
C355 O363 1.230 . S
O356 Cd320 2.266 1_665 S
O356 C330 1.238 . S
O357 Cd321 2.273 1_655 S
O357 C330 1.253 1_545 S
O358 Cd321 2.268 . S
O358 C347 1.238 . S
O359 Cd320 2.286 . S
O359 C347 1.253 . S
O360 Cd320 2.403 1_665 S
O360 C348 1.239 . S
O361 Cd320 2.322 1_665 S
O361 C348 1.230 . S
O362 Cd321 2.417 . S
O362 C355 1.239 . S
O363 Cd321 2.330 . S
O363 C355 1.230 . S
H364 C350 0.929 . S
H365 C354 0.930 . S
H366 C324 0.931 . S
H367 C326 0.930 . S
H368 C332 0.929 . S
H369 C334 0.931 1_455 S
H370 C341 0.931 . S
H371 C343 0.930 . S
H372 C351 0.929 . S
H373 C353 0.931 . S
Cd374 N377 2.334 1_545 S
Cd374 N403 2.304 . S
Cd374 O410 2.268 . S
Cd374 O413 2.273 . S
Cd374 O414 2.417 1_545 S
Cd374 O415 2.330 . S
Cd375 N390 2.304 . S
Cd375 N394 2.334 . S
Cd375 O411 2.273 1_554 S
Cd375 O412 2.268 . S
Cd375 O416 2.417 1_554 S
Cd375 O417 2.330 1_554 S
C376 N377 1.332 . S
C376 C380 1.381 . S
C376 H382 0.931 1_565 S
N377 Cd374 2.334 1_565 S
N377 C376 1.332 . S
N377 C381 1.328 . S
C378 C379 1.396 . S
C378 C381 1.378 . S
C378 H420 0.931 . S
C379 C378 1.396 . S
C379 C380 1.382 . S
C380 C376 1.381 . S
C380 C379 1.382 . S
C380 H421 0.930 . S
C381 N377 1.328 . S
C381 C378 1.378 . S
C381 H383 0.930 . S
H382 C376 0.931 1_545 S
H383 C381 0.930 . S
C384 O410 1.238 1_566 S
C384 O411 1.253 1_565 S
C385 C386 1.379 . S
C385 N390 1.337 1_556 S
C385 H391 0.929 . S
C386 C385 1.379 . S
C386 C387 1.380 1_556 S
C386 H422 0.929 . S
C387 C386 1.380 1_554 S
C387 C388 1.399 . S
C388 C387 1.399 . S
C388 C389 1.376 . S
C388 H423 0.931 . S
C389 C388 1.376 . S
C389 N390 1.338 . S
C389 H392 0.930 . S
N390 Cd375 2.304 . S
N390 C385 1.337 1_554 S
N390 C389 1.338 . S
H391 C385 0.929 . S
H392 C389 0.930 . S
C393 N394 1.332 1_556 S
C393 C397 1.381 1_545 S
C393 H399 0.936 1_545 S
N394 Cd375 2.334 . S
N394 C393 1.332 1_554 S
N394 C398 1.328 . S
C395 C396 1.396 1_545 S
C395 C398 1.378 . S
C395 H424 0.931 . S
C396 C395 1.396 1_565 S
C396 C397 1.382 1_554 S
C397 C393 1.381 1_565 S
C397 C396 1.382 1_556 S
C397 H425 0.930 . S
C398 N394 1.328 . S
C398 C395 1.378 . S
C398 H400 0.930 . S
H399 C393 0.936 1_565 S
H400 C398 0.930 . S
C401 O412 1.238 . S
C401 O413 1.253 . S
C402 O414 1.239 . S
C402 O415 1.230 1_565 S
N403 Cd374 2.304 . S
N403 C404 1.337 . S
N403 C408 1.338 . S
C404 N403 1.337 . S
C404 C405 1.379 . S
C404 H418 0.929 . S
C405 C404 1.379 . S
C405 C406 1.380 . S
C405 H426 0.929 . S
C406 C405 1.380 . S
C406 C407 1.399 . S
C407 C406 1.399 . S
C407 C408 1.376 . S
C407 H427 0.931 . S
C408 N403 1.338 . S
C408 C407 1.376 . S
C408 H419 0.930 . S
C409 O416 1.239 . S
C409 O417 1.230 . S
O410 Cd374 2.268 . S
O410 C384 1.238 1_544 S
O411 Cd375 2.273 1_556 S
O411 C384 1.253 1_545 S
O412 Cd375 2.268 . S
O412 C401 1.238 . S
O413 Cd374 2.273 . S
O413 C401 1.253 . S
O414 Cd374 2.417 1_565 S
O414 C402 1.239 . S
O415 Cd374 2.330 . S
O415 C402 1.230 1_545 S
O416 Cd375 2.417 1_556 S
O416 C409 1.239 . S
O417 Cd375 2.330 1_556 S
O417 C409 1.230 . S
H418 C404 0.929 . S
H419 C408 0.930 . S
H420 C378 0.931 . S
H421 C380 0.930 . S
H422 C386 0.929 . S
H423 C388 0.931 . S
H424 C395 0.931 . S
H425 C397 0.930 . S
H426 C405 0.929 . S
H427 C407 0.931 . S
Cd428 N431 2.334 1_655 S
Cd428 N457 2.304 . S
Cd428 O464 2.268 1_554 S
Cd428 O467 2.273 1_655 S
Cd428 O468 2.417 . S
Cd428 O469 2.330 . S
Cd429 N444 2.304 1_455 S
Cd429 N448 2.334 . S
Cd429 O465 2.273 1_455 S
Cd429 O466 2.268 1_556 S
Cd429 O470 2.417 . S
Cd429 O471 2.330 . S
C430 N431 1.332 . S
C430 C434 1.381 . S
C430 H436 0.931 . S
N431 Cd428 2.334 1_455 S
N431 C430 1.332 . S
N431 C435 1.328 . S
C432 C433 1.396 . S
C432 C435 1.378 . S
C432 H474 0.931 1_554 S
C433 C432 1.396 . S
C433 C434 1.382 . S
C434 C430 1.381 . S
C434 C433 1.382 . S
C434 H475 0.930 . S
C435 N431 1.328 . S
C435 C432 1.378 . S
C435 H437 0.930 1_454 S
H436 C430 0.931 . S
H437 C435 0.930 1_656 S
C438 O464 1.238 . S
C438 O465 1.253 . S
C439 C440 1.379 . S
C439 N444 1.337 . S
C439 H445 0.929 . S
C440 C439 1.379 . S
C440 C441 1.380 . S
C440 H476 0.929 . S
C441 C440 1.380 . S
C441 C442 1.399 . S
C442 C441 1.399 . S
C442 C443 1.376 . S
C442 H477 0.931 1_556 S
C443 C442 1.376 . S
C443 N444 1.338 . S
C443 H446 0.930 1_656 S
N444 Cd429 2.304 1_655 S
N444 C439 1.337 . S
N444 C443 1.338 . S
H445 C439 0.929 . S
H446 C443 0.930 1_454 S
C447 N448 1.332 . S
C447 C451 1.381 . S
C447 H453 0.931 . S
N448 Cd429 2.334 . S
N448 C447 1.332 . S
N448 C452 1.328 . S
C449 C450 1.396 . S
C449 C452 1.378 . S
C449 H478 0.931 1_556 S
C450 C449 1.396 . S
C450 C451 1.382 . S
C451 C447 1.381 . S
C451 C450 1.382 . S
C451 H479 0.930 . S
C452 N448 1.328 . S
C452 C449 1.378 . S
C452 H454 0.930 1_556 S
H453 C447 0.931 . S
H454 C452 0.930 1_554 S
C455 O466 1.238 . S
C455 O467 1.253 . S
C456 O468 1.239 . S
C456 O469 1.230 . S
N457 Cd428 2.304 . S
N457 C458 1.337 . S
N457 C462 1.338 . S
C458 N457 1.337 . S
C458 C459 1.379 . S
C458 H472 0.929 . S
C459 C458 1.379 . S
C459 C460 1.380 . S
C459 H480 0.929 . S
C460 C459 1.380 . S
C460 C461 1.399 . S
C461 C460 1.399 . S
C461 C462 1.376 . S
C461 H481 0.931 1_554 S
C462 N457 1.338 . S
C462 C461 1.376 . S
C462 H473 0.930 1_554 S
C463 O470 1.239 . S
C463 O471 1.230 . S
O464 Cd428 2.268 1_556 S
O464 C438 1.238 . S
O465 Cd429 2.273 1_655 S
O465 C438 1.253 . S
O466 Cd429 2.268 1_554 S
O466 C455 1.238 . S
O467 Cd428 2.273 1_455 S
O467 C455 1.253 . S
O468 Cd428 2.417 . S
O468 C456 1.239 . S
O469 Cd428 2.330 . S
O469 C456 1.230 . S
O470 Cd429 2.417 . S
O470 C463 1.239 . S
O471 Cd429 2.330 . S
O471 C463 1.230 . S
H472 C458 0.929 . S
H473 C462 0.930 1_556 S
H474 C432 0.931 1_556 S
H475 C434 0.930 . S
H476 C440 0.929 . S
H477 C442 0.931 1_554 S
H478 C449 0.931 1_554 S
H479 C451 0.930 . S
H480 C459 0.929 . S
H481 C461 0.931 1_556 S
Cd482 N485 2.334 . S
Cd482 N511 2.304 . S
Cd482 O518 2.268 . S
Cd482 O521 2.273 . S
Cd482 O522 2.417 . S
Cd482 O523 2.330 . S
Cd483 N498 2.304 . S
Cd483 N502 2.334 . S
Cd483 O519 2.273 . S
Cd483 O520 2.268 1_556 S
Cd483 O524 2.417 . S
Cd483 O525 2.330 . S
C484 N485 1.332 . S
C484 C488 1.381 . S
C484 H490 0.931 . S
N485 Cd482 2.334 . S
N485 C484 1.332 . S
N485 C489 1.328 . S
C486 C487 1.396 . S
C486 C489 1.378 . S
C486 H528 0.931 . S
C487 C486 1.396 . S
C487 C488 1.382 . S
C488 C484 1.381 . S
C488 C487 1.382 . S
C488 H529 0.930 . S
C489 N485 1.328 . S
C489 C486 1.378 . S
C489 H491 0.930 . S
H490 C484 0.931 . S
H491 C489 0.930 . S
C492 O518 1.238 1_556 S
C492 O519 1.253 . S
C493 C494 1.379 . S
C493 N498 1.337 . S
C493 H499 0.929 . S
C494 C493 1.379 . S
C494 C495 1.380 . S
C494 H530 0.929 . S
C495 C494 1.380 . S
C495 C496 1.399 1_556 S
C496 C495 1.399 1_554 S
C496 C497 1.376 . S
C496 H531 0.931 . S
C497 C496 1.376 . S
C497 N498 1.338 1_554 S
C497 H500 0.930 . S
N498 Cd483 2.304 . S
N498 C493 1.337 . S
N498 C497 1.338 1_556 S
H499 C493 0.929 . S
H500 C497 0.930 . S
C501 N502 1.332 . S
C501 C505 1.381 . S
C501 H507 0.931 . S
N502 Cd483 2.334 . S
N502 C501 1.332 . S
N502 C506 1.328 1_556 S
C503 C504 1.396 1_554 S
C503 C506 1.378 . S
C503 H532 0.931 . S
C504 C503 1.396 1_556 S
C504 C505 1.382 . S
C505 C501 1.381 . S
C505 C504 1.382 . S
C505 H533 0.930 . S
C506 N502 1.328 1_554 S
C506 C503 1.378 . S
C506 H508 0.930 . S
H507 C501 0.931 . S
H508 C506 0.930 . S
C509 O520 1.238 . S
C509 O521 1.253 . S
C510 O522 1.239 . S
C510 O523 1.230 . S
N511 Cd482 2.304 . S
N511 C512 1.337 . S
N511 C516 1.338 . S
C512 N511 1.337 . S
C512 C513 1.379 . S
C512 H526 0.929 . S
C513 C512 1.379 . S
C513 C514 1.380 . S
C513 H534 0.929 . S
C514 C513 1.380 . S
C514 C515 1.399 . S
C515 C514 1.399 . S
C515 C516 1.376 . S
C515 H535 0.931 . S
C516 N511 1.338 . S
C516 C515 1.376 . S
C516 H527 0.930 . S
C517 O524 1.239 . S
C517 O525 1.230 . S
O518 Cd482 2.268 . S
O518 C492 1.238 1_554 S
O519 Cd483 2.273 . S
O519 C492 1.253 . S
O520 Cd483 2.268 1_554 S
O520 C509 1.238 . S
O521 Cd482 2.273 . S
O521 C509 1.253 . S
O522 Cd482 2.417 . S
O522 C510 1.239 . S
O523 Cd482 2.330 . S
O523 C510 1.230 . S
O524 Cd483 2.417 . S
O524 C517 1.239 . S
O525 Cd483 2.330 . S
O525 C517 1.230 . S
H526 C512 0.929 . S
H527 C516 0.930 . S
H528 C486 0.931 . S
H529 C488 0.930 . S
H530 C494 0.929 . S
H531 C496 0.931 . S
H532 C503 0.931 . S
H533 C505 0.930 . S
H534 C513 0.929 . S
H535 C515 0.931 . S
Cd536 N539 2.334 . S
Cd536 N565 2.304 1_455 S
Cd536 O572 2.268 1_455 S
Cd536 O575 2.273 . S
Cd536 O576 2.417 1_455 S
Cd536 O577 2.328 1_455 S
Cd537 N552 2.304 . S
Cd537 N556 2.334 . S
Cd537 O573 2.273 . S
Cd537 O574 2.268 . S
Cd537 O578 2.417 . S
Cd537 O579 2.330 . S
C538 N539 1.332 . S
C538 C542 1.381 . S
C538 H544 0.931 . S
N539 Cd536 2.334 . S
N539 C538 1.332 . S
N539 C543 1.328 . S
C540 C541 1.396 . S
C540 C543 1.378 . S
C540 H582 0.931 . S
C541 C540 1.396 . S
C541 C542 1.382 . S
C542 C538 1.381 . S
C542 C541 1.382 . S
C542 H583 0.930 . S
C543 N539 1.328 . S
C543 C540 1.378 . S
C543 H545 0.930 . S
H544 C538 0.931 . S
H545 C543 0.930 . S
C546 O572 1.238 . S
C546 O573 1.253 1_655 S
C547 C548 1.379 . S
C547 N552 1.337 1_655 S
C547 H553 0.929 . S
C548 C547 1.379 . S
C548 C549 1.380 . S
C548 H584 0.929 . S
C549 C548 1.380 . S
C549 C550 1.399 1_655 S
C550 C549 1.399 1_455 S
C550 C551 1.376 . S
C550 H585 0.931 . S
C551 C550 1.376 . S
C551 N552 1.338 . S
C551 H554 0.930 . S
N552 Cd537 2.304 . S
N552 C547 1.337 1_455 S
N552 C551 1.338 . S
H553 C547 0.929 . S
H554 C551 0.930 . S
C555 N556 1.332 . S
C555 C559 1.381 . S
C555 H561 0.931 . S
N556 Cd537 2.334 . S
N556 C555 1.332 . S
N556 C560 1.328 . S
C557 C558 1.396 . S
C557 C560 1.378 . S
C557 H586 0.931 . S
C558 C557 1.396 . S
C558 C559 1.382 . S
C559 C555 1.381 . S
C559 C558 1.382 . S
C559 H587 0.930 . S
C560 N556 1.328 . S
C560 C557 1.378 . S
C560 H562 0.930 . S
H561 C555 0.931 . S
H562 C560 0.930 . S
C563 O574 1.238 . S
C563 O575 1.253 . S
C564 O576 1.239 . S
C564 O577 1.233 . S
N565 Cd536 2.304 1_655 S
N565 C566 1.337 . S
N565 C570 1.338 . S
C566 N565 1.337 . S
C566 C567 1.379 . S
C566 H580 0.929 1_655 S
C567 C566 1.379 . S
C567 C568 1.380 . S
C567 H588 0.929 . S
C568 C567 1.380 . S
C568 C569 1.399 . S
C569 C568 1.399 . S
C569 C570 1.376 . S
C569 H589 0.931 . S
C570 N565 1.338 . S
C570 C569 1.376 . S
C570 H581 0.930 . S
C571 O578 1.239 . S
C571 O579 1.230 . S
O572 Cd536 2.268 1_655 S
O572 C546 1.238 . S
O573 Cd537 2.273 . S
O573 C546 1.253 1_455 S
O574 Cd537 2.268 . S
O574 C563 1.238 . S
O575 Cd536 2.273 . S
O575 C563 1.253 . S
O576 Cd536 2.417 1_655 S
O576 C564 1.239 . S
O577 Cd536 2.328 1_655 S
O577 C564 1.233 . S
O578 Cd537 2.417 . S
O578 C571 1.239 . S
O579 Cd537 2.330 . S
O579 C571 1.230 . S
H580 C566 0.929 1_455 S
H581 C570 0.930 . S
H582 C540 0.931 . S
H583 C542 0.930 . S
H584 C548 0.929 . S
H585 C550 0.931 . S
H586 C557 0.931 . S
H587 C559 0.930 . S
H588 C567 0.929 . S
H589 C569 0.931 . S
Cd590 N593 2.334 . S
Cd590 N619 2.304 1_565 S
Cd590 O626 2.268 . S
Cd590 O629 2.273 1_565 S
Cd590 O630 2.417 . S
Cd590 O631 2.330 . S
Cd591 N606 2.304 . S
Cd591 N610 2.334 . S
Cd591 O627 2.273 1_545 S
Cd591 O628 2.268 . S
Cd591 O632 2.417 . S
Cd591 O633 2.330 . S
C592 N593 1.332 . S
C592 C596 1.381 . S
C592 H598 0.931 . S
N593 Cd590 2.334 . S
N593 C592 1.332 . S
N593 C597 1.328 . S
C594 C595 1.396 . S
C594 C597 1.378 . S
C594 H636 0.931 . S
C595 C594 1.396 . S
C595 C596 1.382 . S
C596 C592 1.381 . S
C596 C595 1.382 . S
C596 H637 0.930 . S
C597 N593 1.328 . S
C597 C594 1.378 . S
C597 H599 0.930 . S
H598 C592 0.931 . S
H599 C597 0.930 . S
C600 O626 1.238 . S
C600 O627 1.253 . S
C601 C602 1.379 . S
C601 N606 1.337 . S
C601 H607 0.929 . S
C602 C601 1.379 . S
C602 C603 1.380 . S
C602 H638 0.929 . S
C603 C602 1.380 . S
C603 C604 1.399 . S
C604 C603 1.399 . S
C604 C605 1.376 . S
C604 H639 0.931 . S
C605 C604 1.376 . S
C605 N606 1.338 . S
C605 H608 0.930 . S
N606 Cd591 2.304 . S
N606 C601 1.337 . S
N606 C605 1.338 . S
H607 C601 0.929 . S
H608 C605 0.930 . S
C609 N610 1.332 1_565 S
C609 C613 1.381 . S
C609 H615 0.931 . S
N610 Cd591 2.334 . S
N610 C609 1.332 1_545 S
N610 C614 1.328 . S
C611 C612 1.396 . S
C611 C614 1.378 1_565 S
C611 H640 0.931 . S
C612 C611 1.396 . S
C612 C613 1.382 . S
C613 C609 1.381 . S
C613 C612 1.382 . S
C613 H641 0.930 . S
C614 N610 1.328 . S
C614 C611 1.378 1_545 S
C614 H616 0.930 . S
H615 C609 0.931 . S
H616 C614 0.930 . S
C617 O628 1.238 . S
C617 O629 1.253 . S
C618 O630 1.239 . S
C618 O631 1.230 . S
N619 Cd590 2.304 1_545 S
N619 C620 1.337 . S
N619 C624 1.338 . S
C620 N619 1.337 . S
C620 C621 1.379 . S
C620 H634 0.929 . S
C621 C620 1.379 . S
C621 C622 1.380 . S
C621 H642 0.929 . S
C622 C621 1.380 . S
C622 C623 1.399 . S
C623 C622 1.399 . S
C623 C624 1.376 . S
C623 H643 0.931 . S
C624 N619 1.338 . S
C624 C623 1.376 . S
C624 H635 0.912 1_545 S
C625 O632 1.239 . S
C625 O633 1.230 . S
O626 Cd590 2.268 . S
O626 C600 1.238 . S
O627 Cd591 2.273 1_565 S
O627 C600 1.253 . S
O628 Cd591 2.268 . S
O628 C617 1.238 . S
O629 Cd590 2.273 1_545 S
O629 C617 1.253 . S
O630 Cd590 2.417 . S
O630 C618 1.239 . S
O631 Cd590 2.330 . S
O631 C618 1.230 . S
O632 Cd591 2.417 . S
O632 C625 1.239 . S
O633 Cd591 2.330 . S
O633 C625 1.230 . S
H634 C620 0.929 . S
H635 C624 0.912 1_565 S
H636 C594 0.931 . S
H637 C596 0.930 . S
H638 C602 0.929 . S
H639 C604 0.931 . S
H640 C611 0.931 . S
H641 C613 0.930 . S
H642 C621 0.929 . S
H643 C623 0.931 . S
H644 C662 0.951 . S
H645 C664 0.951 . S
H646 C666 0.950 . S
H647 C667 0.950 . S
H648 C669 0.950 . S
H649 C672 0.950 . S
H650 C673 0.950 . S
H651 C675 0.950 . S
H652 C676 0.950 . S
H653 C677 0.951 . S
H654 C679 0.951 . S
H655 C681 0.950 . S
H656 C682 0.950 . S
H657 C684 0.950 . S
H658 C687 0.950 . S
H659 C688 0.950 . S
H660 C690 0.950 . S
H661 C691 0.950 . S
C662 H644 0.951 . S
C662 C663 1.366 . S
C662 C664 1.388 . S
C663 C662 1.366 . S
C663 C667 1.385 . S
C664 H645 0.951 . S
C664 C662 1.388 . S
C664 C665 1.366 . S
C665 C664 1.366 . S
C665 C666 1.414 . S
C665 C668 1.499 . S
C666 H646 0.950 . S
C666 C665 1.414 . S
C666 C667 1.374 . S
C667 H647 0.950 . S
C667 C663 1.385 . S
C667 C666 1.374 . S
C668 C665 1.499 . S
C668 C669 1.373 . S
C668 C670 1.389 . S
C669 H648 0.950 . S
C669 C668 1.373 . S
C669 C685 1.377 . S
C670 C668 1.389 . S
C670 C671 1.524 . S
C670 C684 1.377 . S
C671 C670 1.524 . S
C671 C672 1.397 . S
C671 C676 1.363 . S
C672 H649 0.950 . S
C672 C671 1.397 . S
C672 C673 1.334 . S
C673 H650 0.950 . S
C673 C672 1.334 . S
C673 C674 1.287 . S
C674 C673 1.287 . S
C674 C675 1.524 . S
C674 H693 0.913 . S
C675 H651 0.950 . S
C675 C674 1.524 . S
C675 C676 1.415 . S
C676 H652 0.950 . S
C676 C671 1.363 . S
C676 C675 1.415 . S
C677 H653 0.951 . S
C677 C678 1.366 . S
C677 C679 1.388 . S
C678 C677 1.366 . S
C678 C682 1.385 . S
C679 H654 0.951 . S
C679 C677 1.388 . S
C679 C680 1.366 . S
C680 C679 1.366 . S
C680 C681 1.414 . S
C680 C683 1.499 . S
C681 H655 0.950 . S
C681 C680 1.414 . S
C681 C682 1.374 . S
C682 H656 0.950 . S
C682 C678 1.385 . S
C682 C681 1.374 . S
C683 C680 1.499 . S
C683 C684 1.373 . S
C683 C685 1.389 . S
C684 H657 0.950 . S
C684 C670 1.377 . S
C684 C683 1.373 . S
C685 C669 1.377 . S
C685 C683 1.389 . S
C685 C686 1.524 . S
C686 C685 1.524 . S
C686 C687 1.397 . S
C686 C691 1.363 . S
C687 H658 0.950 . S
C687 C686 1.397 . S
C687 C688 1.334 . S
C688 H659 0.950 . S
C688 C687 1.334 . S
C688 C689 1.287 . S
C689 C688 1.287 . S
C689 C690 1.524 . S
C689 H692 0.999 . S
C690 H660 0.950 . S
C690 C689 1.524 . S
C690 C691 1.415 . S
C691 H661 0.950 . S
C691 C686 1.363 . S
C691 C690 1.415 . S
H692 C689 0.999 . S
H693 C674 0.913 . S
H694 C712 0.951 . S
H695 C714 0.951 . S
H696 C716 0.950 . S
H697 C717 0.950 . S
H698 C719 0.950 . S
H699 C722 0.950 . S
H700 C723 0.950 . S
H701 C725 0.950 . S
H702 C726 0.950 . S
H703 C727 0.955 1_455 S
H704 C729 0.951 . S
H705 C731 0.950 . S
H706 C732 0.950 . S
H707 C734 0.950 . S
H708 C737 0.950 . S
H709 C738 0.950 . S
H710 C740 0.950 . S
H711 C741 0.950 . S
C712 H694 0.951 . S
C712 C713 1.366 . S
C712 C714 1.388 . S
C713 C712 1.366 . S
C713 C717 1.385 . S
C714 H695 0.951 . S
C714 C712 1.388 . S
C714 C715 1.366 . S
C715 C714 1.366 . S
C715 C716 1.414 . S
C715 C718 1.499 . S
C716 H696 0.950 . S
C716 C715 1.414 . S
C716 C717 1.374 . S
C717 H697 0.950 . S
C717 C713 1.385 . S
C717 C716 1.374 . S
C718 C715 1.499 . S
C718 C719 1.373 . S
C718 C720 1.389 . S
C719 H698 0.950 . S
C719 C718 1.373 . S
C719 C735 1.377 . S
C720 C718 1.389 . S
C720 C721 1.524 . S
C720 C734 1.377 . S
C721 C720 1.524 . S
C721 C722 1.397 . S
C721 C726 1.363 . S
C722 H699 0.950 . S
C722 C721 1.397 . S
C722 C723 1.334 . S
C723 H700 0.950 . S
C723 C722 1.334 . S
C723 C724 1.287 . S
C724 C723 1.287 . S
C724 C725 1.524 . S
C724 H743 0.913 . S
C725 H701 0.950 . S
C725 C724 1.524 . S
C725 C726 1.415 . S
C726 H702 0.950 . S
C726 C721 1.363 . S
C726 C725 1.415 . S
C727 H703 0.955 1_655 S
C727 C728 1.366 . S
C727 C729 1.388 . S
C728 C727 1.366 . S
C728 C732 1.385 . S
C729 H704 0.951 . S
C729 C727 1.388 . S
C729 C730 1.366 . S
C730 C729 1.366 . S
C730 C731 1.414 . S
C730 C733 1.499 . S
C731 H705 0.950 . S
C731 C730 1.414 . S
C731 C732 1.374 . S
C732 H706 0.950 . S
C732 C728 1.385 . S
C732 C731 1.374 . S
C733 C730 1.499 . S
C733 C734 1.373 . S
C733 C735 1.389 . S
C734 H707 0.950 . S
C734 C720 1.377 . S
C734 C733 1.373 . S
C735 C719 1.377 . S
C735 C733 1.389 . S
C735 C736 1.524 . S
C736 C735 1.524 . S
C736 C737 1.397 . S
C736 C741 1.363 . S
C737 H708 0.950 . S
C737 C736 1.397 . S
C737 C738 1.334 . S
C738 H709 0.950 . S
C738 C737 1.334 . S
C738 C739 1.287 . S
C739 C738 1.287 . S
C739 C740 1.524 . S
C739 H742 0.999 . S
C740 H710 0.950 . S
C740 C739 1.524 . S
C740 C741 1.415 . S
C741 H711 0.950 . S
C741 C736 1.363 . S
C741 C740 1.415 . S
H742 C739 0.999 . S
H743 C724 0.913 . S
H744 C762 0.951 . S
H745 C764 0.951 . S
H746 C766 0.950 . S
H747 C767 0.950 . S
H748 C769 0.950 . S
H749 C772 0.950 . S
H750 C773 0.950 . S
H751 C775 0.950 . S
H752 C776 0.950 . S
H753 C777 0.955 . S
H754 C779 0.951 . S
H755 C781 0.950 . S
H756 C782 0.950 . S
H757 C784 0.950 . S
H758 C787 0.950 . S
H759 C788 0.950 1_455 S
H760 C790 0.950 . S
H761 C791 0.950 . S
C762 H744 0.951 . S
C762 C763 1.366 . S
C762 C764 1.388 . S
C763 C762 1.366 . S
C763 C767 1.385 . S
C764 H745 0.951 . S
C764 C762 1.388 . S
C764 C765 1.366 . S
C765 C764 1.366 . S
C765 C766 1.414 . S
C765 C768 1.499 . S
C766 H746 0.950 . S
C766 C765 1.414 . S
C766 C767 1.374 . S
C767 H747 0.950 . S
C767 C763 1.385 . S
C767 C766 1.374 . S
C768 C765 1.499 . S
C768 C769 1.373 . S
C768 C770 1.389 . S
C769 H748 0.950 . S
C769 C768 1.373 . S
C769 C785 1.377 . S
C770 C768 1.389 . S
C770 C771 1.524 . S
C770 C784 1.377 . S
C771 C770 1.524 . S
C771 C772 1.397 . S
C771 C776 1.363 . S
C772 H749 0.950 . S
C772 C771 1.397 . S
C772 C773 1.334 . S
C773 H750 0.950 . S
C773 C772 1.334 . S
C773 C774 1.287 . S
C774 C773 1.287 . S
C774 C775 1.524 . S
C774 H793 0.913 . S
C775 H751 0.950 . S
C775 C774 1.524 . S
C775 C776 1.415 . S
C776 H752 0.950 . S
C776 C771 1.363 . S
C776 C775 1.415 . S
C777 H753 0.955 . S
C777 C778 1.366 . S
C777 C779 1.388 . S
C778 C777 1.366 . S
C778 C782 1.385 . S
C779 H754 0.951 . S
C779 C777 1.388 . S
C779 C780 1.366 . S
C780 C779 1.366 . S
C780 C781 1.414 . S
C780 C783 1.499 . S
C781 H755 0.950 . S
C781 C780 1.414 . S
C781 C782 1.374 . S
C782 H756 0.950 . S
C782 C778 1.385 . S
C782 C781 1.374 . S
C783 C780 1.499 . S
C783 C784 1.373 . S
C783 C785 1.389 . S
C784 H757 0.950 . S
C784 C770 1.377 . S
C784 C783 1.373 . S
C785 C769 1.377 . S
C785 C783 1.389 . S
C785 C786 1.524 . S
C786 C785 1.524 . S
C786 C787 1.397 . S
C786 C791 1.363 . S
C787 H758 0.950 . S
C787 C786 1.397 . S
C787 C788 1.334 . S
C788 H759 0.950 1_655 S
C788 C787 1.334 . S
C788 C789 1.287 . S
C789 C788 1.287 . S
C789 C790 1.524 . S
C789 H792 0.999 1_655 S
C790 H760 0.950 . S
C790 C789 1.524 . S
C790 C791 1.415 . S
C791 H761 0.950 . S
C791 C786 1.363 . S
C791 C790 1.415 . S
H792 C789 0.999 1_455 S
H793 C774 0.913 . S
H794 C812 0.951 . S
H795 C814 0.951 . S
H796 C816 0.950 . S
H797 C817 0.950 . S
H798 C819 0.950 . S
H799 C822 0.950 . S
H800 C823 0.950 . S
H801 C825 0.950 . S
H802 C826 0.950 . S
H803 C827 0.951 . S
H804 C829 0.951 . S
H805 C831 0.950 . S
H806 C832 0.950 . S
H807 C834 0.950 . S
H808 C837 0.950 . S
H809 C838 0.950 . S
H810 C840 0.950 . S
H811 C841 0.950 . S
C812 H794 0.951 . S
C812 C813 1.366 . S
C812 C814 1.388 . S
C813 C812 1.366 . S
C813 C817 1.385 . S
C814 H795 0.951 . S
C814 C812 1.388 . S
C814 C815 1.366 . S
C815 C814 1.366 . S
C815 C816 1.414 . S
C815 C818 1.499 . S
C816 H796 0.950 . S
C816 C815 1.414 . S
C816 C817 1.374 . S
C817 H797 0.950 . S
C817 C813 1.385 . S
C817 C816 1.374 . S
C818 C815 1.499 . S
C818 C819 1.373 . S
C818 C820 1.389 . S
C819 H798 0.950 . S
C819 C818 1.373 . S
C819 C835 1.377 . S
C820 C818 1.389 . S
C820 C821 1.524 . S
C820 C834 1.377 . S
C821 C820 1.524 . S
C821 C822 1.397 . S
C821 C826 1.363 . S
C822 H799 0.950 . S
C822 C821 1.397 . S
C822 C823 1.334 . S
C823 H800 0.950 . S
C823 C822 1.334 . S
C823 C824 1.287 . S
C824 C823 1.287 . S
C824 C825 1.524 . S
C824 H843 0.913 . S
C825 H801 0.950 . S
C825 C824 1.524 . S
C825 C826 1.415 . S
C826 H802 0.950 . S
C826 C821 1.363 . S
C826 C825 1.415 . S
C827 H803 0.951 . S
C827 C828 1.366 . S
C827 C829 1.388 . S
C828 C827 1.366 . S
C828 C832 1.385 . S
C829 H804 0.951 . S
C829 C827 1.388 . S
C829 C830 1.366 . S
C830 C829 1.366 . S
C830 C831 1.414 . S
C830 C833 1.499 . S
C831 H805 0.950 . S
C831 C830 1.414 . S
C831 C832 1.374 . S
C832 H806 0.950 . S
C832 C828 1.385 . S
C832 C831 1.374 . S
C833 C830 1.499 . S
C833 C834 1.373 . S
C833 C835 1.389 . S
C834 H807 0.950 . S
C834 C820 1.377 . S
C834 C833 1.373 . S
C835 C819 1.377 . S
C835 C833 1.389 . S
C835 C836 1.524 . S
C836 C835 1.524 . S
C836 C837 1.397 . S
C836 C841 1.363 . S
C837 H808 0.950 . S
C837 C836 1.397 . S
C837 C838 1.334 . S
C838 H809 0.950 . S
C838 C837 1.334 . S
C838 C839 1.287 . S
C839 C838 1.287 . S
C839 C840 1.524 . S
C839 H842 0.999 . S
C840 H810 0.950 . S
C840 C839 1.524 . S
C840 C841 1.415 . S
C841 H811 0.950 . S
C841 C836 1.363 . S
C841 C840 1.415 . S
H842 C839 0.999 . S
H843 C824 0.913 . S
H844 C862 0.951 . S
H845 C864 0.951 . S
H846 C866 0.950 . S
H847 C867 0.950 . S
H848 C869 0.950 . S
H849 C872 0.950 . S
H850 C873 0.950 . S
H851 C875 0.950 . S
H852 C876 0.950 . S
H853 C877 0.951 . S
H854 C879 0.951 . S
H855 C881 0.950 . S
H856 C882 0.950 . S
H857 C884 0.950 . S
H858 C887 0.950 . S
H859 C888 0.950 . S
H860 C890 0.950 . S
H861 C891 0.950 . S
C862 H844 0.951 . S
C862 C863 1.366 . S
C862 C864 1.388 . S
C863 C862 1.366 . S
C863 C867 1.385 . S
C864 H845 0.951 . S
C864 C862 1.388 . S
C864 C865 1.366 . S
C865 C864 1.366 . S
C865 C866 1.414 . S
C865 C868 1.499 . S
C866 H846 0.950 . S
C866 C865 1.414 . S
C866 C867 1.374 . S
C867 H847 0.950 . S
C867 C863 1.385 . S
C867 C866 1.374 . S
C868 C865 1.499 . S
C868 C869 1.373 . S
C868 C870 1.389 . S
C869 H848 0.950 . S
C869 C868 1.373 . S
C869 C885 1.377 . S
C870 C868 1.389 . S
C870 C871 1.524 . S
C870 C884 1.377 . S
C871 C870 1.524 . S
C871 C872 1.397 . S
C871 C876 1.363 . S
C872 H849 0.950 . S
C872 C871 1.397 . S
C872 C873 1.334 . S
C873 H850 0.950 . S
C873 C872 1.334 . S
C873 C874 1.287 . S
C874 C873 1.287 . S
C874 C875 1.524 . S
C874 H893 0.913 . S
C875 H851 0.950 . S
C875 C874 1.524 . S
C875 C876 1.415 . S
C876 H852 0.950 . S
C876 C871 1.363 . S
C876 C875 1.415 . S
C877 H853 0.951 . S
C877 C878 1.366 . S
C877 C879 1.388 . S
C878 C877 1.366 . S
C878 C882 1.385 . S
C879 H854 0.951 . S
C879 C877 1.388 . S
C879 C880 1.366 . S
C880 C879 1.366 . S
C880 C881 1.414 . S
C880 C883 1.499 . S
C881 H855 0.950 . S
C881 C880 1.414 . S
C881 C882 1.374 . S
C882 H856 0.950 . S
C882 C878 1.385 . S
C882 C881 1.374 . S
C883 C880 1.499 . S
C883 C884 1.373 . S
C883 C885 1.389 . S
C884 H857 0.950 . S
C884 C870 1.377 . S
C884 C883 1.373 . S
C885 C869 1.377 . S
C885 C883 1.389 . S
C885 C886 1.524 . S
C886 C885 1.524 . S
C886 C887 1.397 . S
C886 C891 1.363 . S
C887 H858 0.950 . S
C887 C886 1.397 . S
C887 C888 1.334 . S
C888 H859 0.950 . S
C888 C887 1.334 . S
C888 C889 1.287 . S
C889 C888 1.287 . S
C889 C890 1.524 . S
C889 H892 0.999 . S
C890 H860 0.950 . S
C890 C889 1.524 . S
C890 C891 1.415 . S
C891 H861 0.950 . S
C891 C886 1.363 . S
C891 C890 1.415 . S
H892 C889 0.999 . S
H893 C874 0.913 . S
H894 C912 0.951 . S
H895 C914 0.951 . S
H896 C916 0.950 . S
H897 C917 0.950 . S
H898 C919 0.950 . S
H899 C922 0.950 . S
H900 C923 0.950 . S
H901 C925 0.950 . S
H902 C926 0.950 . S
H903 C927 0.951 . S
H904 C929 0.951 . S
H905 C931 0.950 . S
H906 C932 0.950 . S
H907 C934 0.950 . S
H908 C937 0.950 . S
H909 C938 0.950 . S
H910 C940 0.950 . S
H911 C941 0.950 . S
C912 H894 0.951 . S
C912 C913 1.366 . S
C912 C914 1.388 . S
C913 C912 1.366 . S
C913 C917 1.385 . S
C914 H895 0.951 . S
C914 C912 1.388 . S
C914 C915 1.366 . S
C915 C914 1.366 . S
C915 C916 1.414 . S
C915 C918 1.499 . S
C916 H896 0.950 . S
C916 C915 1.414 . S
C916 C917 1.374 . S
C917 H897 0.950 . S
C917 C913 1.385 . S
C917 C916 1.374 . S
C918 C915 1.499 . S
C918 C919 1.373 . S
C918 C920 1.389 . S
C919 H898 0.950 . S
C919 C918 1.373 . S
C919 C935 1.377 . S
C920 C918 1.389 . S
C920 C921 1.524 . S
C920 C934 1.377 . S
C921 C920 1.524 . S
C921 C922 1.397 . S
C921 C926 1.363 . S
C922 H899 0.950 . S
C922 C921 1.397 . S
C922 C923 1.334 . S
C923 H900 0.950 . S
C923 C922 1.334 . S
C923 C924 1.287 . S
C924 C923 1.287 . S
C924 C925 1.524 . S
C924 H943 0.913 . S
C925 H901 0.950 . S
C925 C924 1.524 . S
C925 C926 1.415 . S
C926 H902 0.950 . S
C926 C921 1.363 . S
C926 C925 1.415 . S
C927 H903 0.951 . S
C927 C928 1.366 . S
C927 C929 1.388 . S
C928 C927 1.366 . S
C928 C932 1.385 . S
C929 H904 0.951 . S
C929 C927 1.388 . S
C929 C930 1.366 . S
C930 C929 1.366 . S
C930 C931 1.414 . S
C930 C933 1.499 . S
C931 H905 0.950 . S
C931 C930 1.414 . S
C931 C932 1.374 . S
C932 H906 0.950 . S
C932 C928 1.385 . S
C932 C931 1.374 . S
C933 C930 1.499 . S
C933 C934 1.373 . S
C933 C935 1.389 . S
C934 H907 0.950 . S
C934 C920 1.377 . S
C934 C933 1.373 . S
C935 C919 1.377 . S
C935 C933 1.389 . S
C935 C936 1.524 . S
C936 C935 1.524 . S
C936 C937 1.397 . S
C936 C941 1.363 . S
C937 H908 0.950 . S
C937 C936 1.397 . S
C937 C938 1.334 . S
C938 H909 0.950 . S
C938 C937 1.334 . S
C938 C939 1.287 . S
C939 C938 1.287 . S
C939 C940 1.524 . S
C939 H942 0.999 . S
C940 H910 0.950 . S
C940 C939 1.524 . S
C940 C941 1.415 . S
C941 H911 0.950 . S
C941 C936 1.363 . S
C941 C940 1.415 . S
H942 C939 0.999 . S
H943 C924 0.913 . S
H944 C962 0.951 . S
H945 C964 0.951 . S
H946 C966 0.950 . S
H947 C967 0.950 . S
H948 C969 0.950 . S
H949 C972 0.950 . S
H950 C973 0.950 . S
H951 C975 0.950 . S
H952 C976 0.950 . S
H953 C977 0.951 . S
H954 C979 0.951 . S
H955 C981 0.950 . S
H956 C982 0.950 . S
H957 C984 0.950 . S
H958 C987 0.950 . S
H959 C988 0.950 . S
H960 C990 0.950 . S
H961 C991 0.950 . S
C962 H944 0.951 . S
C962 C963 1.366 . S
C962 C964 1.388 . S
C963 C962 1.366 . S
C963 C967 1.385 . S
C964 H945 0.951 . S
C964 C962 1.388 . S
C964 C965 1.366 . S
C965 C964 1.366 . S
C965 C966 1.414 . S
C965 C968 1.499 . S
C966 H946 0.950 . S
C966 C965 1.414 . S
C966 C967 1.374 . S
C967 H947 0.950 . S
C967 C963 1.385 . S
C967 C966 1.374 . S
C968 C965 1.499 . S
C968 C969 1.373 . S
C968 C970 1.389 . S
C969 H948 0.950 . S
C969 C968 1.373 . S
C969 C985 1.377 . S
C970 C968 1.389 . S
C970 C971 1.524 . S
C970 C984 1.377 . S
C971 C970 1.524 . S
C971 C972 1.397 . S
C971 C976 1.363 . S
C972 H949 0.950 . S
C972 C971 1.397 . S
C972 C973 1.334 . S
C973 H950 0.950 . S
C973 C972 1.334 . S
C973 C974 1.287 . S
C974 C973 1.287 . S
C974 C975 1.524 . S
C974 H993 0.913 . S
C975 H951 0.950 . S
C975 C974 1.524 . S
C975 C976 1.415 . S
C976 H952 0.950 . S
C976 C971 1.363 . S
C976 C975 1.415 . S
C977 H953 0.951 . S
C977 C978 1.366 . S
C977 C979 1.388 . S
C978 C977 1.366 . S
C978 C982 1.385 . S
C979 H954 0.951 . S
C979 C977 1.388 . S
C979 C980 1.366 . S
C980 C979 1.366 . S
C980 C981 1.414 . S
C980 C983 1.499 . S
C981 H955 0.950 . S
C981 C980 1.414 . S
C981 C982 1.374 . S
C982 H956 0.950 . S
C982 C978 1.385 . S
C982 C981 1.374 . S
C983 C980 1.499 . S
C983 C984 1.373 . S
C983 C985 1.389 . S
C984 H957 0.950 . S
C984 C970 1.377 . S
C984 C983 1.373 . S
C985 C969 1.377 . S
C985 C983 1.389 . S
C985 C986 1.524 . S
C986 C985 1.524 . S
C986 C987 1.397 . S
C986 C991 1.363 . S
C987 H958 0.950 . S
C987 C986 1.397 . S
C987 C988 1.334 . S
C988 H959 0.950 . S
C988 C987 1.334 . S
C988 C989 1.287 . S
C989 C988 1.287 . S
C989 C990 1.524 . S
C989 H992 0.999 . S
C990 H960 0.950 . S
C990 C989 1.524 . S
C990 C991 1.415 . S
C991 H961 0.950 . S
C991 C986 1.363 . S
C991 C990 1.415 . S
H992 C989 0.999 . S
H993 C974 0.913 . S
H994 C1012 0.951 . S
H995 C1014 0.951 . S
H996 C1016 0.950 . S
H997 C1017 0.950 . S
H998 C1019 0.950 . S
H999 C1022 0.950 . S
H1000 C1023 0.950 . S
H1001 C1025 0.950 . S
H1002 C1026 0.950 . S
H1003 C1027 0.951 . S
H1004 C1029 0.951 . S
H1005 C1031 0.950 . S
H1006 C1032 0.950 . S
H1007 C1034 0.950 . S
H1008 C1037 0.950 . S
H1009 C1038 0.950 . S
H1010 C1040 0.950 . S
H1011 C1041 0.950 . S
C1012 H994 0.951 . S
C1012 C1013 1.366 . S
C1012 C1014 1.388 . S
C1013 C1012 1.366 . S
C1013 C1017 1.385 . S
C1014 H995 0.951 . S
C1014 C1012 1.388 . S
C1014 C1015 1.366 . S
C1015 C1014 1.366 . S
C1015 C1016 1.414 . S
C1015 C1018 1.499 . S
C1016 H996 0.950 . S
C1016 C1015 1.414 . S
C1016 C1017 1.374 . S
C1017 H997 0.950 . S
C1017 C1013 1.385 . S
C1017 C1016 1.374 . S
C1018 C1015 1.499 . S
C1018 C1019 1.373 . S
C1018 C1020 1.389 . S
C1019 H998 0.950 . S
C1019 C1018 1.373 . S
C1019 C1035 1.377 . S
C1020 C1018 1.389 . S
C1020 C1021 1.524 . S
C1020 C1034 1.377 . S
C1021 C1020 1.524 . S
C1021 C1022 1.397 . S
C1021 C1026 1.363 . S
C1022 H999 0.950 . S
C1022 C1021 1.397 . S
C1022 C1023 1.334 . S
C1023 H1000 0.950 . S
C1023 C1022 1.334 . S
C1023 C1024 1.287 . S
C1024 C1023 1.287 . S
C1024 C1025 1.524 . S
C1024 H1043 0.913 . S
C1025 H1001 0.950 . S
C1025 C1024 1.524 . S
C1025 C1026 1.415 . S
C1026 H1002 0.950 . S
C1026 C1021 1.363 . S
C1026 C1025 1.415 . S
C1027 H1003 0.951 . S
C1027 C1028 1.366 . S
C1027 C1029 1.388 . S
C1028 C1027 1.366 . S
C1028 C1032 1.385 . S
C1029 H1004 0.951 . S
C1029 C1027 1.388 . S
C1029 C1030 1.366 . S
C1030 C1029 1.366 . S
C1030 C1031 1.414 . S
C1030 C1033 1.499 . S
C1031 H1005 0.950 . S
C1031 C1030 1.414 . S
C1031 C1032 1.374 . S
C1032 H1006 0.950 . S
C1032 C1028 1.385 . S
C1032 C1031 1.374 . S
C1033 C1030 1.499 . S
C1033 C1034 1.373 . S
C1033 C1035 1.389 . S
C1034 H1007 0.950 . S
C1034 C1020 1.377 . S
C1034 C1033 1.373 . S
C1035 C1019 1.377 . S
C1035 C1033 1.389 . S
C1035 C1036 1.524 . S
C1036 C1035 1.524 . S
C1036 C1037 1.397 . S
C1036 C1041 1.363 . S
C1037 H1008 0.950 . S
C1037 C1036 1.397 . S
C1037 C1038 1.334 . S
C1038 H1009 0.950 . S
C1038 C1037 1.334 . S
C1038 C1039 1.287 . S
C1039 C1038 1.287 . S
C1039 C1040 1.524 . S
C1039 H1042 0.999 . S
C1040 H1010 0.950 . S
C1040 C1039 1.524 . S
C1040 C1041 1.415 . S
C1041 H1011 0.950 . S
C1041 C1036 1.363 . S
C1041 C1040 1.415 . S
H1042 C1039 0.999 . S
H1043 C1024 0.913 . S
H1044 C1062 0.951 . S
H1045 C1064 0.951 . S
H1046 C1066 0.950 . S
H1047 C1067 0.950 . S
H1048 C1069 0.950 . S
H1049 C1072 0.950 . S
H1050 C1073 0.950 . S
H1051 C1075 0.950 . S
H1052 C1076 0.950 . S
H1053 C1077 0.951 . S
H1054 C1079 0.951 . S
H1055 C1081 0.950 . S
H1056 C1082 0.950 . S
H1057 C1084 0.950 . S
H1058 C1087 0.950 . S
H1059 C1088 0.950 . S
H1060 C1090 0.950 . S
H1061 C1091 0.950 . S
C1062 H1044 0.951 . S
C1062 C1063 1.366 . S
C1062 C1064 1.388 . S
C1063 C1062 1.366 . S
C1063 C1067 1.385 . S
C1064 H1045 0.951 . S
C1064 C1062 1.388 . S
C1064 C1065 1.366 . S
C1065 C1064 1.366 . S
C1065 C1066 1.414 . S
C1065 C1068 1.499 . S
C1066 H1046 0.950 . S
C1066 C1065 1.414 . S
C1066 C1067 1.374 . S
C1067 H1047 0.950 . S
C1067 C1063 1.385 . S
C1067 C1066 1.374 . S
C1068 C1065 1.499 . S
C1068 C1069 1.373 . S
C1068 C1070 1.389 . S
C1069 H1048 0.950 . S
C1069 C1068 1.373 . S
C1069 C1085 1.377 . S
C1070 C1068 1.389 . S
C1070 C1071 1.524 . S
C1070 C1084 1.377 . S
C1071 C1070 1.524 . S
C1071 C1072 1.397 . S
C1071 C1076 1.363 . S
C1072 H1049 0.950 . S
C1072 C1071 1.397 . S
C1072 C1073 1.334 . S
C1073 H1050 0.950 . S
C1073 C1072 1.334 . S
C1073 C1074 1.287 . S
C1074 C1073 1.287 . S
C1074 C1075 1.524 . S
C1074 H1093 0.913 . S
C1075 H1051 0.950 . S
C1075 C1074 1.524 . S
C1075 C1076 1.415 . S
C1076 H1052 0.950 . S
C1076 C1071 1.363 . S
C1076 C1075 1.415 . S
C1077 H1053 0.951 . S
C1077 C1078 1.366 . S
C1077 C1079 1.388 . S
C1078 C1077 1.366 . S
C1078 C1082 1.385 . S
C1079 H1054 0.951 . S
C1079 C1077 1.388 . S
C1079 C1080 1.366 . S
C1080 C1079 1.366 . S
C1080 C1081 1.414 . S
C1080 C1083 1.499 . S
C1081 H1055 0.950 . S
C1081 C1080 1.414 . S
C1081 C1082 1.374 . S
C1082 H1056 0.950 . S
C1082 C1078 1.385 . S
C1082 C1081 1.374 . S
C1083 C1080 1.499 . S
C1083 C1084 1.373 . S
C1083 C1085 1.389 . S
C1084 H1057 0.950 . S
C1084 C1070 1.377 . S
C1084 C1083 1.373 . S
C1085 C1069 1.377 . S
C1085 C1083 1.389 . S
C1085 C1086 1.524 . S
C1086 C1085 1.524 . S
C1086 C1087 1.397 . S
C1086 C1091 1.363 . S
C1087 H1058 0.950 . S
C1087 C1086 1.397 . S
C1087 C1088 1.334 . S
C1088 H1059 0.950 . S
C1088 C1087 1.334 . S
C1088 C1089 1.287 . S
C1089 C1088 1.287 . S
C1089 C1090 1.524 . S
C1089 H1092 0.999 . S
C1090 H1060 0.950 . S
C1090 C1089 1.524 . S
C1090 C1091 1.415 . S
C1091 H1061 0.950 . S
C1091 C1086 1.363 . S
C1091 C1090 1.415 . S
H1092 C1089 0.999 . S
H1093 C1074 0.913 . S
H1094 C1112 0.951 . S
H1095 C1114 0.951 . S
H1096 C1116 0.950 . S
H1097 C1117 0.950 . S
H1098 C1119 0.950 . S
H1099 C1122 0.950 . S
H1100 C1123 0.950 . S
H1101 C1125 0.950 . S
H1102 C1126 0.950 . S
H1103 C1127 0.951 . S
H1104 C1129 0.951 . S
H1105 C1131 0.950 . S
H1106 C1132 0.950 . S
H1107 C1134 0.950 . S
H1108 C1137 0.950 . S
H1109 C1138 0.950 . S
H1110 C1140 0.950 . S
H1111 C1141 0.950 . S
C1112 H1094 0.951 . S
C1112 C1113 1.366 . S
C1112 C1114 1.388 . S
C1113 C1112 1.366 . S
C1113 C1117 1.385 . S
C1114 H1095 0.951 . S
C1114 C1112 1.388 . S
C1114 C1115 1.366 . S
C1115 C1114 1.366 . S
C1115 C1116 1.414 . S
C1115 C1118 1.499 . S
C1116 H1096 0.950 . S
C1116 C1115 1.414 . S
C1116 C1117 1.374 . S
C1117 H1097 0.950 . S
C1117 C1113 1.385 . S
C1117 C1116 1.374 . S
C1118 C1115 1.499 . S
C1118 C1119 1.373 . S
C1118 C1120 1.389 . S
C1119 H1098 0.950 . S
C1119 C1118 1.373 . S
C1119 C1135 1.377 . S
C1120 C1118 1.389 . S
C1120 C1121 1.524 . S
C1120 C1134 1.377 . S
C1121 C1120 1.524 . S
C1121 C1122 1.397 . S
C1121 C1126 1.363 . S
C1122 H1099 0.950 . S
C1122 C1121 1.397 . S
C1122 C1123 1.334 . S
C1123 H1100 0.950 . S
C1123 C1122 1.334 . S
C1123 C1124 1.287 . S
C1124 C1123 1.287 . S
C1124 C1125 1.524 . S
C1124 H1143 0.913 . S
C1125 H1101 0.950 . S
C1125 C1124 1.524 . S
C1125 C1126 1.415 . S
C1126 H1102 0.950 . S
C1126 C1121 1.363 . S
C1126 C1125 1.415 . S
C1127 H1103 0.951 . S
C1127 C1128 1.366 . S
C1127 C1129 1.388 . S
C1128 C1127 1.366 . S
C1128 C1132 1.385 . S
C1129 H1104 0.951 . S
C1129 C1127 1.388 . S
C1129 C1130 1.366 . S
C1130 C1129 1.366 . S
C1130 C1131 1.414 . S
C1130 C1133 1.499 . S
C1131 H1105 0.950 . S
C1131 C1130 1.414 . S
C1131 C1132 1.374 . S
C1132 H1106 0.950 . S
C1132 C1128 1.385 . S
C1132 C1131 1.374 . S
C1133 C1130 1.499 . S
C1133 C1134 1.373 . S
C1133 C1135 1.389 . S
C1134 H1107 0.950 . S
C1134 C1120 1.377 . S
C1134 C1133 1.373 . S
C1135 C1119 1.377 . S
C1135 C1133 1.389 . S
C1135 C1136 1.524 . S
C1136 C1135 1.524 . S
C1136 C1137 1.397 . S
C1136 C1141 1.363 . S
C1137 H1108 0.950 . S
C1137 C1136 1.397 . S
C1137 C1138 1.334 . S
C1138 H1109 0.950 . S
C1138 C1137 1.334 . S
C1138 C1139 1.287 . S
C1139 C1138 1.287 . S
C1139 C1140 1.524 . S
C1139 H1142 0.999 . S
C1140 H1110 0.950 . S
C1140 C1139 1.524 . S
C1140 C1141 1.415 . S
C1141 H1111 0.950 . S
C1141 C1136 1.363 . S
C1141 C1140 1.415 . S
H1142 C1139 0.999 . S
H1143 C1124 0.913 . S
H1144 C1162 0.951 . S
H1145 C1164 0.951 . S
H1146 C1166 0.950 . S
H1147 C1167 0.950 . S
H1148 C1169 0.950 . S
H1149 C1172 0.950 . S
H1150 C1173 0.950 . S
H1151 C1175 0.950 . S
H1152 C1176 0.950 . S
H1153 C1177 0.951 . S
H1154 C1179 0.951 . S
H1155 C1181 0.950 . S
H1156 C1182 0.950 . S
H1157 C1184 0.950 . S
H1158 C1187 0.950 . S
H1159 C1188 0.950 . S
H1160 C1190 0.950 . S
H1161 C1191 0.950 . S
C1162 H1144 0.951 . S
C1162 C1163 1.366 . S
C1162 C1164 1.388 . S
C1163 C1162 1.366 . S
C1163 C1167 1.385 . S
C1164 H1145 0.951 . S
C1164 C1162 1.388 . S
C1164 C1165 1.366 . S
C1165 C1164 1.366 . S
C1165 C1166 1.414 . S
C1165 C1168 1.499 . S
C1166 H1146 0.950 . S
C1166 C1165 1.414 . S
C1166 C1167 1.374 . S
C1167 H1147 0.950 . S
C1167 C1163 1.385 . S
C1167 C1166 1.374 . S
C1168 C1165 1.499 . S
C1168 C1169 1.373 . S
C1168 C1170 1.389 . S
C1169 H1148 0.950 . S
C1169 C1168 1.373 . S
C1169 C1185 1.377 . S
C1170 C1168 1.389 . S
C1170 C1171 1.524 . S
C1170 C1184 1.377 . S
C1171 C1170 1.524 . S
C1171 C1172 1.397 . S
C1171 C1176 1.363 . S
C1172 H1149 0.950 . S
C1172 C1171 1.397 . S
C1172 C1173 1.334 . S
C1173 H1150 0.950 . S
C1173 C1172 1.334 . S
C1173 C1174 1.287 . S
C1174 C1173 1.287 . S
C1174 C1175 1.524 . S
C1174 H1193 0.913 . S
C1175 H1151 0.950 . S
C1175 C1174 1.524 . S
C1175 C1176 1.415 . S
C1176 H1152 0.950 . S
C1176 C1171 1.363 . S
C1176 C1175 1.415 . S
C1177 H1153 0.951 . S
C1177 C1178 1.366 . S
C1177 C1179 1.388 . S
C1178 C1177 1.366 . S
C1178 C1182 1.385 . S
C1179 H1154 0.951 . S
C1179 C1177 1.388 . S
C1179 C1180 1.366 . S
C1180 C1179 1.366 . S
C1180 C1181 1.414 . S
C1180 C1183 1.499 . S
C1181 H1155 0.950 . S
C1181 C1180 1.414 . S
C1181 C1182 1.374 . S
C1182 H1156 0.950 . S
C1182 C1178 1.385 . S
C1182 C1181 1.374 . S
C1183 C1180 1.499 . S
C1183 C1184 1.373 . S
C1183 C1185 1.389 . S
C1184 H1157 0.950 . S
C1184 C1170 1.377 . S
C1184 C1183 1.373 . S
C1185 C1169 1.377 . S
C1185 C1183 1.389 . S
C1185 C1186 1.524 . S
C1186 C1185 1.524 . S
C1186 C1187 1.397 . S
C1186 C1191 1.363 . S
C1187 H1158 0.950 . S
C1187 C1186 1.397 . S
C1187 C1188 1.334 . S
C1188 H1159 0.950 . S
C1188 C1187 1.334 . S
C1188 C1189 1.287 . S
C1189 C1188 1.287 . S
C1189 C1190 1.524 . S
C1189 H1192 0.999 . S
C1190 H1160 0.950 . S
C1190 C1189 1.524 . S
C1190 C1191 1.415 . S
C1191 H1161 0.950 . S
C1191 C1186 1.363 . S
C1191 C1190 1.415 . S
H1192 C1189 0.999 . S
H1193 C1174 0.913 . S
H1194 C1212 0.951 . S
H1195 C1214 0.951 . S
H1196 C1216 0.950 . S
H1197 C1217 0.950 . S
H1198 C1219 0.950 . S
H1199 C1222 0.950 . S
H1200 C1223 0.950 . S
H1201 C1225 0.950 . S
H1202 C1226 0.950 . S
H1203 C1227 0.951 . S
H1204 C1229 0.951 . S
H1205 C1231 0.950 . S
H1206 C1232 0.950 . S
H1207 C1234 0.950 . S
H1208 C1237 0.950 . S
H1209 C1238 0.950 . S
H1210 C1240 0.950 . S
H1211 C1241 0.950 . S
C1212 H1194 0.951 . S
C1212 C1213 1.366 . S
C1212 C1214 1.388 . S
C1213 C1212 1.366 . S
C1213 C1217 1.385 . S
C1214 H1195 0.951 . S
C1214 C1212 1.388 . S
C1214 C1215 1.366 . S
C1215 C1214 1.366 . S
C1215 C1216 1.414 . S
C1215 C1218 1.499 . S
C1216 H1196 0.950 . S
C1216 C1215 1.414 . S
C1216 C1217 1.374 . S
C1217 H1197 0.950 . S
C1217 C1213 1.385 . S
C1217 C1216 1.374 . S
C1218 C1215 1.499 . S
C1218 C1219 1.373 . S
C1218 C1220 1.389 . S
C1219 H1198 0.950 . S
C1219 C1218 1.373 . S
C1219 C1235 1.377 . S
C1220 C1218 1.389 . S
C1220 C1221 1.524 . S
C1220 C1234 1.377 . S
C1221 C1220 1.524 . S
C1221 C1222 1.397 . S
C1221 C1226 1.363 . S
C1222 H1199 0.950 . S
C1222 C1221 1.397 . S
C1222 C1223 1.334 . S
C1223 H1200 0.950 . S
C1223 C1222 1.334 . S
C1223 C1224 1.287 . S
C1224 C1223 1.287 . S
C1224 C1225 1.524 . S
C1224 H1243 0.913 . S
C1225 H1201 0.950 . S
C1225 C1224 1.524 . S
C1225 C1226 1.415 . S
C1226 H1202 0.950 . S
C1226 C1221 1.363 . S
C1226 C1225 1.415 . S
C1227 H1203 0.951 . S
C1227 C1228 1.366 . S
C1227 C1229 1.388 . S
C1228 C1227 1.366 . S
C1228 C1232 1.385 . S
C1229 H1204 0.951 . S
C1229 C1227 1.388 . S
C1229 C1230 1.366 . S
C1230 C1229 1.366 . S
C1230 C1231 1.414 . S
C1230 C1233 1.499 . S
C1231 H1205 0.950 . S
C1231 C1230 1.414 . S
C1231 C1232 1.374 . S
C1232 H1206 0.950 . S
C1232 C1228 1.385 . S
C1232 C1231 1.374 . S
C1233 C1230 1.499 . S
C1233 C1234 1.373 . S
C1233 C1235 1.389 . S
C1234 H1207 0.950 . S
C1234 C1220 1.377 . S
C1234 C1233 1.373 . S
C1235 C1219 1.377 . S
C1235 C1233 1.389 . S
C1235 C1236 1.524 . S
C1236 C1235 1.524 . S
C1236 C1237 1.397 . S
C1236 C1241 1.363 . S
C1237 H1208 0.950 . S
C1237 C1236 1.397 . S
C1237 C1238 1.334 . S
C1238 H1209 0.950 . S
C1238 C1237 1.334 . S
C1238 C1239 1.287 . S
C1239 C1238 1.287 . S
C1239 C1240 1.524 . S
C1239 H1242 0.999 . S
C1240 H1210 0.950 . S
C1240 C1239 1.524 . S
C1240 C1241 1.415 . S
C1241 H1211 0.950 . S
C1241 C1236 1.363 . S
C1241 C1240 1.415 . S
H1242 C1239 0.999 . S
H1243 C1224 0.913 . S
H1244 C1262 0.951 . S
H1245 C1264 0.951 . S
H1246 C1266 0.950 . S
H1247 C1267 0.950 . S
H1248 C1269 0.950 . S
H1249 C1272 0.950 . S
H1250 C1273 0.950 . S
H1251 C1275 0.950 . S
H1252 C1276 0.950 . S
H1253 C1277 0.951 . S
H1254 C1279 0.951 . S
H1255 C1281 0.950 . S
H1256 C1282 0.950 . S
H1257 C1284 0.950 . S
H1258 C1287 0.950 . S
H1259 C1288 0.950 . S
H1260 C1290 0.950 . S
H1261 C1291 0.950 . S
C1262 H1244 0.951 . S
C1262 C1263 1.366 . S
C1262 C1264 1.388 . S
C1263 C1262 1.366 . S
C1263 C1267 1.385 . S
C1264 H1245 0.951 . S
C1264 C1262 1.388 . S
C1264 C1265 1.366 . S
C1265 C1264 1.366 . S
C1265 C1266 1.414 . S
C1265 C1268 1.499 . S
C1266 H1246 0.950 . S
C1266 C1265 1.414 . S
C1266 C1267 1.374 . S
C1267 H1247 0.950 . S
C1267 C1263 1.385 . S
C1267 C1266 1.374 . S
C1268 C1265 1.499 . S
C1268 C1269 1.373 . S
C1268 C1270 1.389 . S
C1269 H1248 0.950 . S
C1269 C1268 1.373 . S
C1269 C1285 1.377 . S
C1270 C1268 1.389 . S
C1270 C1271 1.524 . S
C1270 C1284 1.377 . S
C1271 C1270 1.524 . S
C1271 C1272 1.397 . S
C1271 C1276 1.363 . S
C1272 H1249 0.950 . S
C1272 C1271 1.397 . S
C1272 C1273 1.334 . S
C1273 H1250 0.950 . S
C1273 C1272 1.334 . S
C1273 C1274 1.287 . S
C1274 C1273 1.287 . S
C1274 C1275 1.524 . S
C1274 H1293 0.913 . S
C1275 H1251 0.950 . S
C1275 C1274 1.524 . S
C1275 C1276 1.415 . S
C1276 H1252 0.950 . S
C1276 C1271 1.363 . S
C1276 C1275 1.415 . S
C1277 H1253 0.951 . S
C1277 C1278 1.366 . S
C1277 C1279 1.388 . S
C1278 C1277 1.366 . S
C1278 C1282 1.385 . S
C1279 H1254 0.951 . S
C1279 C1277 1.388 . S
C1279 C1280 1.366 . S
C1280 C1279 1.366 . S
C1280 C1281 1.414 . S
C1280 C1283 1.499 . S
C1281 H1255 0.950 . S
C1281 C1280 1.414 . S
C1281 C1282 1.374 . S
C1282 H1256 0.950 . S
C1282 C1278 1.385 . S
C1282 C1281 1.374 . S
C1283 C1280 1.499 . S
C1283 C1284 1.373 . S
C1283 C1285 1.389 . S
C1284 H1257 0.950 . S
C1284 C1270 1.377 . S
C1284 C1283 1.373 . S
C1285 C1269 1.377 . S
C1285 C1283 1.389 . S
C1285 C1286 1.524 . S
C1286 C1285 1.524 . S
C1286 C1287 1.397 . S
C1286 C1291 1.363 . S
C1287 H1258 0.950 . S
C1287 C1286 1.397 . S
C1287 C1288 1.334 . S
C1288 H1259 0.950 . S
C1288 C1287 1.334 . S
C1288 C1289 1.287 . S
C1289 C1288 1.287 . S
C1289 C1290 1.524 . S
C1289 H1292 0.999 1_565 S
C1290 H1260 0.950 . S
C1290 C1289 1.524 . S
C1290 C1291 1.415 . S
C1291 H1261 0.950 . S
C1291 C1286 1.363 . S
C1291 C1290 1.415 . S
H1292 C1289 0.999 1_545 S
H1293 C1274 0.913 . S
H1294 C1312 0.951 . S
H1295 C1314 0.951 . S
H1296 C1316 0.950 . S
H1297 C1317 0.950 . S
H1298 C1319 0.950 . S
H1299 C1322 0.950 . S
H1300 C1323 0.950 . S
H1301 C1325 0.950 . S
H1302 C1326 0.950 . S
H1303 C1327 0.951 . S
H1304 C1329 0.951 . S
H1305 C1331 0.950 . S
H1306 C1332 0.950 . S
H1307 C1334 0.950 . S
H1308 C1337 0.950 . S
H1309 C1338 0.950 . S
H1310 C1340 0.950 . S
H1311 C1341 0.950 . S
C1312 H1294 0.951 . S
C1312 C1313 1.366 . S
C1312 C1314 1.388 . S
C1313 C1312 1.366 . S
C1313 C1317 1.385 . S
C1314 H1295 0.951 . S
C1314 C1312 1.388 . S
C1314 C1315 1.366 . S
C1315 C1314 1.366 . S
C1315 C1316 1.414 . S
C1315 C1318 1.499 . S
C1316 H1296 0.950 . S
C1316 C1315 1.414 . S
C1316 C1317 1.374 . S
C1317 H1297 0.950 . S
C1317 C1313 1.385 . S
C1317 C1316 1.374 . S
C1318 C1315 1.499 . S
C1318 C1319 1.373 . S
C1318 C1320 1.389 . S
C1319 H1298 0.950 . S
C1319 C1318 1.373 . S
C1319 C1335 1.377 . S
C1320 C1318 1.389 . S
C1320 C1321 1.524 . S
C1320 C1334 1.377 . S
C1321 C1320 1.524 . S
C1321 C1322 1.397 . S
C1321 C1326 1.363 . S
C1322 H1299 0.950 . S
C1322 C1321 1.397 . S
C1322 C1323 1.334 . S
C1323 H1300 0.950 . S
C1323 C1322 1.334 . S
C1323 C1324 1.287 . S
C1324 C1323 1.287 . S
C1324 C1325 1.524 . S
C1324 H1343 0.913 . S
C1325 H1301 0.950 . S
C1325 C1324 1.524 . S
C1325 C1326 1.415 . S
C1326 H1302 0.950 . S
C1326 C1321 1.363 . S
C1326 C1325 1.415 . S
C1327 H1303 0.951 . S
C1327 C1328 1.366 . S
C1327 C1329 1.388 . S
C1328 C1327 1.366 . S
C1328 C1332 1.385 . S
C1329 H1304 0.951 . S
C1329 C1327 1.388 . S
C1329 C1330 1.366 . S
C1330 C1329 1.366 . S
C1330 C1331 1.414 . S
C1330 C1333 1.499 . S
C1331 H1305 0.950 . S
C1331 C1330 1.414 . S
C1331 C1332 1.374 . S
C1332 H1306 0.950 . S
C1332 C1328 1.385 . S
C1332 C1331 1.374 . S
C1333 C1330 1.499 . S
C1333 C1334 1.373 . S
C1333 C1335 1.389 . S
C1334 H1307 0.950 . S
C1334 C1320 1.377 . S
C1334 C1333 1.373 . S
C1335 C1319 1.377 . S
C1335 C1333 1.389 . S
C1335 C1336 1.524 . S
C1336 C1335 1.524 . S
C1336 C1337 1.397 . S
C1336 C1341 1.363 . S
C1337 H1308 0.950 . S
C1337 C1336 1.397 . S
C1337 C1338 1.334 1_556 S
C1338 H1309 0.950 . S
C1338 C1337 1.334 1_554 S
C1338 C1339 1.287 . S
C1339 C1338 1.287 . S
C1339 C1340 1.524 . S
C1339 H1342 0.999 . S
C1340 H1310 0.950 . S
C1340 C1339 1.524 . S
C1340 C1341 1.415 1_554 S
C1341 H1311 0.950 . S
C1341 C1336 1.363 . S
C1341 C1340 1.415 1_556 S
H1342 C1339 0.999 . S
H1343 C1324 0.913 . S
H1344 C1362 0.951 . S
H1345 C1364 0.951 . S
H1346 C1366 0.950 . S
H1347 C1367 0.950 . S
H1348 C1369 0.950 . S
H1349 C1372 0.950 . S
H1350 C1373 0.950 . S
H1351 C1375 0.950 . S
H1352 C1376 0.950 . S
H1353 C1377 0.951 . S
H1354 C1379 0.951 . S
H1355 C1381 0.950 . S
H1356 C1382 0.950 . S
H1357 C1384 0.950 . S
H1358 C1387 0.950 . S
H1359 C1388 0.950 . S
H1360 C1390 0.950 . S
H1361 C1391 0.950 . S
C1362 H1344 0.951 . S
C1362 C1363 1.366 . S
C1362 C1364 1.388 . S
C1363 C1362 1.366 . S
C1363 C1367 1.385 . S
C1364 H1345 0.951 . S
C1364 C1362 1.388 . S
C1364 C1365 1.366 . S
C1365 C1364 1.366 . S
C1365 C1366 1.414 . S
C1365 C1368 1.499 . S
C1366 H1346 0.950 . S
C1366 C1365 1.414 . S
C1366 C1367 1.374 . S
C1367 H1347 0.950 . S
C1367 C1363 1.385 . S
C1367 C1366 1.374 . S
C1368 C1365 1.499 . S
C1368 C1369 1.373 . S
C1368 C1370 1.389 . S
C1369 H1348 0.950 . S
C1369 C1368 1.373 . S
C1369 C1385 1.377 . S
C1370 C1368 1.389 . S
C1370 C1371 1.524 . S
C1370 C1384 1.377 . S
C1371 C1370 1.524 . S
C1371 C1372 1.397 . S
C1371 C1376 1.363 . S
C1372 H1349 0.950 . S
C1372 C1371 1.397 . S
C1372 C1373 1.334 . S
C1373 H1350 0.950 . S
C1373 C1372 1.334 . S
C1373 C1374 1.287 . S
C1374 C1373 1.287 . S
C1374 C1375 1.524 . S
C1374 H1393 0.913 . S
C1375 H1351 0.950 . S
C1375 C1374 1.524 . S
C1375 C1376 1.415 . S
C1376 H1352 0.950 . S
C1376 C1371 1.363 . S
C1376 C1375 1.415 . S
C1377 H1353 0.951 . S
C1377 C1378 1.366 . S
C1377 C1379 1.388 . S
C1378 C1377 1.366 . S
C1378 C1382 1.385 . S
C1379 H1354 0.951 . S
C1379 C1377 1.388 . S
C1379 C1380 1.366 . S
C1380 C1379 1.366 . S
C1380 C1381 1.414 . S
C1380 C1383 1.499 . S
C1381 H1355 0.950 . S
C1381 C1380 1.414 . S
C1381 C1382 1.374 . S
C1382 H1356 0.950 . S
C1382 C1378 1.385 . S
C1382 C1381 1.374 . S
C1383 C1380 1.499 . S
C1383 C1384 1.373 . S
C1383 C1385 1.389 . S
C1384 H1357 0.950 . S
C1384 C1370 1.377 . S
C1384 C1383 1.373 . S
C1385 C1369 1.377 . S
C1385 C1383 1.389 . S
C1385 C1386 1.524 . S
C1386 C1385 1.524 . S
C1386 C1387 1.397 . S
C1386 C1391 1.363 . S
C1387 H1358 0.950 . S
C1387 C1386 1.397 . S
C1387 C1388 1.334 . S
C1388 H1359 0.950 . S
C1388 C1387 1.334 . S
C1388 C1389 1.287 . S
C1389 C1388 1.287 . S
C1389 C1390 1.524 . S
C1389 H1392 0.999 . S
C1390 H1360 0.950 . S
C1390 C1389 1.524 . S
C1390 C1391 1.415 . S
C1391 H1361 0.950 . S
C1391 C1386 1.363 . S
C1391 C1390 1.415 . S
H1392 C1389 0.999 . S
H1393 C1374 0.913 . S
H1394 C1412 0.951 . S
H1395 C1414 0.951 . S
H1396 C1416 0.950 . S
H1397 C1417 0.950 . S
H1398 C1419 0.950 . S
H1399 C1422 0.950 . S
H1400 C1423 0.950 . S
H1401 C1425 0.950 . S
H1402 C1426 0.950 . S
H1403 C1427 0.951 . S
H1404 C1429 0.951 . S
H1405 C1431 0.950 . S
H1406 C1432 0.950 . S
H1407 C1434 0.950 . S
H1408 C1437 0.950 . S
H1409 C1438 0.950 . S
H1410 C1440 0.950 . S
H1411 C1441 0.950 . S
C1412 H1394 0.951 . S
C1412 C1413 1.366 . S
C1412 C1414 1.388 . S
C1413 C1412 1.366 . S
C1413 C1417 1.385 . S
C1414 H1395 0.951 . S
C1414 C1412 1.388 . S
C1414 C1415 1.366 . S
C1415 C1414 1.366 . S
C1415 C1416 1.414 . S
C1415 C1418 1.499 . S
C1416 H1396 0.950 . S
C1416 C1415 1.414 . S
C1416 C1417 1.374 . S
C1417 H1397 0.950 . S
C1417 C1413 1.385 . S
C1417 C1416 1.374 . S
C1418 C1415 1.499 . S
C1418 C1419 1.373 . S
C1418 C1420 1.389 . S
C1419 H1398 0.950 . S
C1419 C1418 1.373 . S
C1419 C1435 1.377 . S
C1420 C1418 1.389 . S
C1420 C1421 1.524 . S
C1420 C1434 1.377 . S
C1421 C1420 1.524 . S
C1421 C1422 1.397 . S
C1421 C1426 1.363 . S
C1422 H1399 0.950 . S
C1422 C1421 1.397 . S
C1422 C1423 1.334 . S
C1423 H1400 0.950 . S
C1423 C1422 1.334 . S
C1423 C1424 1.287 . S
C1424 C1423 1.287 . S
C1424 C1425 1.524 . S
C1424 H1443 0.913 . S
C1425 H1401 0.950 . S
C1425 C1424 1.524 . S
C1425 C1426 1.415 . S
C1426 H1402 0.950 . S
C1426 C1421 1.363 . S
C1426 C1425 1.415 . S
C1427 H1403 0.951 . S
C1427 C1428 1.366 . S
C1427 C1429 1.388 . S
C1428 C1427 1.366 . S
C1428 C1432 1.385 . S
C1429 H1404 0.951 . S
C1429 C1427 1.388 . S
C1429 C1430 1.366 . S
C1430 C1429 1.366 . S
C1430 C1431 1.414 . S
C1430 C1433 1.499 . S
C1431 H1405 0.950 . S
C1431 C1430 1.414 . S
C1431 C1432 1.374 . S
C1432 H1406 0.950 . S
C1432 C1428 1.385 . S
C1432 C1431 1.374 . S
C1433 C1430 1.499 . S
C1433 C1434 1.373 . S
C1433 C1435 1.389 . S
C1434 H1407 0.950 . S
C1434 C1420 1.377 . S
C1434 C1433 1.373 . S
C1435 C1419 1.377 . S
C1435 C1433 1.389 . S
C1435 C1436 1.524 . S
C1436 C1435 1.524 . S
C1436 C1437 1.397 . S
C1436 C1441 1.363 . S
C1437 H1408 0.950 . S
C1437 C1436 1.397 . S
C1437 C1438 1.334 . S
C1438 H1409 0.950 . S
C1438 C1437 1.334 . S
C1438 C1439 1.287 . S
C1439 C1438 1.287 . S
C1439 C1440 1.524 . S
C1439 H1442 0.999 . S
C1440 H1410 0.950 . S
C1440 C1439 1.524 . S
C1440 C1441 1.415 . S
C1441 H1411 0.950 . S
C1441 C1436 1.363 . S
C1441 C1440 1.415 . S
H1442 C1439 0.999 . S
H1443 C1424 0.913 . S
H1444 C1462 0.951 . S
H1445 C1464 0.951 . S
H1446 C1466 0.950 . S
H1447 C1467 0.950 . S
H1448 C1469 0.950 . S
H1449 C1472 0.950 . S
H1450 C1473 0.950 . S
H1451 C1475 0.950 1_655 S
H1452 C1476 0.950 . S
H1453 C1477 0.951 . S
H1454 C1479 0.951 . S
H1455 C1481 0.950 . S
H1456 C1482 0.950 . S
H1457 C1484 0.950 . S
H1458 C1487 0.950 . S
H1459 C1488 0.950 . S
H1460 C1490 0.950 . S
H1461 C1491 0.950 . S
C1462 H1444 0.951 . S
C1462 C1463 1.366 . S
C1462 C1464 1.388 . S
C1463 C1462 1.366 . S
C1463 C1467 1.385 . S
C1464 H1445 0.951 . S
C1464 C1462 1.388 . S
C1464 C1465 1.366 . S
C1465 C1464 1.366 . S
C1465 C1466 1.414 . S
C1465 C1468 1.499 . S
C1466 H1446 0.950 . S
C1466 C1465 1.414 . S
C1466 C1467 1.374 . S
C1467 H1447 0.950 . S
C1467 C1463 1.385 . S
C1467 C1466 1.374 . S
C1468 C1465 1.499 . S
C1468 C1469 1.373 . S
C1468 C1470 1.389 . S
C1469 H1448 0.950 . S
C1469 C1468 1.373 . S
C1469 C1485 1.377 . S
C1470 C1468 1.389 . S
C1470 C1471 1.524 . S
C1470 C1484 1.377 . S
C1471 C1470 1.524 . S
C1471 C1472 1.397 . S
C1471 C1476 1.363 . S
C1472 H1449 0.950 . S
C1472 C1471 1.397 . S
C1472 C1473 1.334 . S
C1473 H1450 0.950 . S
C1473 C1472 1.334 . S
C1473 C1474 1.287 . S
C1474 C1473 1.287 . S
C1474 C1475 1.524 . S
C1474 H1493 0.913 . S
C1475 H1451 0.950 1_455 S
C1475 C1474 1.524 . S
C1475 C1476 1.415 . S
C1476 H1452 0.950 . S
C1476 C1471 1.363 . S
C1476 C1475 1.415 . S
C1477 H1453 0.951 . S
C1477 C1478 1.366 . S
C1477 C1479 1.388 . S
C1478 C1477 1.366 . S
C1478 C1482 1.385 . S
C1479 H1454 0.951 . S
C1479 C1477 1.388 . S
C1479 C1480 1.366 . S
C1480 C1479 1.366 . S
C1480 C1481 1.414 . S
C1480 C1483 1.499 . S
C1481 H1455 0.950 . S
C1481 C1480 1.414 . S
C1481 C1482 1.374 . S
C1482 H1456 0.950 . S
C1482 C1478 1.385 . S
C1482 C1481 1.374 . S
C1483 C1480 1.499 . S
C1483 C1484 1.373 . S
C1483 C1485 1.389 . S
C1484 H1457 0.950 . S
C1484 C1470 1.377 . S
C1484 C1483 1.373 . S
C1485 C1469 1.377 . S
C1485 C1483 1.389 . S
C1485 C1486 1.524 . S
C1486 C1485 1.524 . S
C1486 C1487 1.397 . S
C1486 C1491 1.363 . S
C1487 H1458 0.950 . S
C1487 C1486 1.397 . S
C1487 C1488 1.334 . S
C1488 H1459 0.950 . S
C1488 C1487 1.334 . S
C1488 C1489 1.287 . S
C1489 C1488 1.287 . S
C1489 C1490 1.524 . S
C1489 H1492 0.999 . S
C1490 H1460 0.950 . S
C1490 C1489 1.524 . S
C1490 C1491 1.415 . S
C1491 H1461 0.950 . S
C1491 C1486 1.363 . S
C1491 C1490 1.415 . S
H1492 C1489 0.999 . S
H1493 C1474 0.913 . S
H1494 C1512 0.951 . S
H1495 C1514 0.951 . S
H1496 C1516 0.950 . S
H1497 C1517 0.950 . S
H1498 C1519 0.950 . S
H1499 C1522 0.950 . S
H1500 C1523 0.950 . S
H1501 C1525 0.950 . S
H1502 C1526 0.950 . S
H1503 C1527 0.951 . S
H1504 C1529 0.951 . S
H1505 C1531 0.950 . S
H1506 C1532 0.950 . S
H1507 C1534 0.950 . S
H1508 C1537 0.950 . S
H1509 C1538 0.950 . S
H1510 C1540 0.950 . S
H1511 C1541 0.950 . S
C1512 H1494 0.951 . S
C1512 C1513 1.366 . S
C1512 C1514 1.388 . S
C1513 C1512 1.366 . S
C1513 C1517 1.385 . S
C1514 H1495 0.951 . S
C1514 C1512 1.388 . S
C1514 C1515 1.366 . S
C1515 C1514 1.366 . S
C1515 C1516 1.414 . S
C1515 C1518 1.499 . S
C1516 H1496 0.950 . S
C1516 C1515 1.414 . S
C1516 C1517 1.374 . S
C1517 H1497 0.950 . S
C1517 C1513 1.385 . S
C1517 C1516 1.374 . S
C1518 C1515 1.499 . S
C1518 C1519 1.373 . S
C1518 C1520 1.389 . S
C1519 H1498 0.950 . S
C1519 C1518 1.373 . S
C1519 C1535 1.377 . S
C1520 C1518 1.389 . S
C1520 C1521 1.524 . S
C1520 C1534 1.377 . S
C1521 C1520 1.524 . S
C1521 C1522 1.397 . S
C1521 C1526 1.363 . S
C1522 H1499 0.950 . S
C1522 C1521 1.397 . S
C1522 C1523 1.334 . S
C1523 H1500 0.950 . S
C1523 C1522 1.334 . S
C1523 C1524 1.287 . S
C1524 C1523 1.287 . S
C1524 C1525 1.524 . S
C1524 H1543 0.913 . S
C1525 H1501 0.950 . S
C1525 C1524 1.524 . S
C1525 C1526 1.415 . S
C1526 H1502 0.950 . S
C1526 C1521 1.363 . S
C1526 C1525 1.415 . S
C1527 H1503 0.951 . S
C1527 C1528 1.366 . S
C1527 C1529 1.388 . S
C1528 C1527 1.366 . S
C1528 C1532 1.385 . S
C1529 H1504 0.951 . S
C1529 C1527 1.388 . S
C1529 C1530 1.366 . S
C1530 C1529 1.366 . S
C1530 C1531 1.414 . S
C1530 C1533 1.499 . S
C1531 H1505 0.950 . S
C1531 C1530 1.414 . S
C1531 C1532 1.374 . S
C1532 H1506 0.950 . S
C1532 C1528 1.385 . S
C1532 C1531 1.374 . S
C1533 C1530 1.499 . S
C1533 C1534 1.373 . S
C1533 C1535 1.389 . S
C1534 H1507 0.950 . S
C1534 C1520 1.377 . S
C1534 C1533 1.373 . S
C1535 C1519 1.377 . S
C1535 C1533 1.389 . S
C1535 C1536 1.524 . S
C1536 C1535 1.524 . S
C1536 C1537 1.397 . S
C1536 C1541 1.363 . S
C1537 H1508 0.950 . S
C1537 C1536 1.397 . S
C1537 C1538 1.334 . S
C1538 H1509 0.950 . S
C1538 C1537 1.334 . S
C1538 C1539 1.287 . S
C1539 C1538 1.287 . S
C1539 C1540 1.524 . S
C1539 H1542 0.999 . S
C1540 H1510 0.950 . S
C1540 C1539 1.524 . S
C1540 C1541 1.415 . S
C1541 H1511 0.950 . S
C1541 C1536 1.363 . S
C1541 C1540 1.415 . S
H1542 C1539 0.999 . S
H1543 C1524 0.913 . S
H1544 C1562 0.951 . S
H1545 C1564 0.951 . S
H1546 C1566 0.950 . S
H1547 C1567 0.950 . S
H1548 C1569 0.950 . S
H1549 C1572 0.950 . S
H1550 C1573 0.950 . S
H1551 C1575 0.950 . S
H1552 C1576 0.950 . S
H1553 C1577 0.951 . S
H1554 C1579 0.951 . S
H1555 C1581 0.950 . S
H1556 C1582 0.950 . S
H1557 C1584 0.950 . S
H1558 C1587 0.950 . S
H1559 C1588 0.950 . S
H1560 C1590 0.950 . S
H1561 C1591 0.950 . S
C1562 H1544 0.951 . S
C1562 C1563 1.366 . S
C1562 C1564 1.388 . S
C1563 C1562 1.366 . S
C1563 C1567 1.385 . S
C1564 H1545 0.951 . S
C1564 C1562 1.388 . S
C1564 C1565 1.366 . S
C1565 C1564 1.366 . S
C1565 C1566 1.414 . S
C1565 C1568 1.499 . S
C1566 H1546 0.950 . S
C1566 C1565 1.414 . S
C1566 C1567 1.374 . S
C1567 H1547 0.950 . S
C1567 C1563 1.385 . S
C1567 C1566 1.374 . S
C1568 C1565 1.499 . S
C1568 C1569 1.373 . S
C1568 C1570 1.389 . S
C1569 H1548 0.950 . S
C1569 C1568 1.373 . S
C1569 C1585 1.377 . S
C1570 C1568 1.389 . S
C1570 C1571 1.524 . S
C1570 C1584 1.377 . S
C1571 C1570 1.524 . S
C1571 C1572 1.397 . S
C1571 C1576 1.363 . S
C1572 H1549 0.950 . S
C1572 C1571 1.397 . S
C1572 C1573 1.334 . S
C1573 H1550 0.950 . S
C1573 C1572 1.334 . S
C1573 C1574 1.287 . S
C1574 C1573 1.287 . S
C1574 C1575 1.524 . S
C1574 H1593 0.913 . S
C1575 H1551 0.950 . S
C1575 C1574 1.524 . S
C1575 C1576 1.415 . S
C1576 H1552 0.950 . S
C1576 C1571 1.363 . S
C1576 C1575 1.415 . S
C1577 H1553 0.951 . S
C1577 C1578 1.366 . S
C1577 C1579 1.388 . S
C1578 C1577 1.366 . S
C1578 C1582 1.385 . S
C1579 H1554 0.951 . S
C1579 C1577 1.388 . S
C1579 C1580 1.366 . S
C1580 C1579 1.366 . S
C1580 C1581 1.414 . S
C1580 C1583 1.499 . S
C1581 H1555 0.950 . S
C1581 C1580 1.414 . S
C1581 C1582 1.374 . S
C1582 H1556 0.950 . S
C1582 C1578 1.385 . S
C1582 C1581 1.374 . S
C1583 C1580 1.499 . S
C1583 C1584 1.373 . S
C1583 C1585 1.389 . S
C1584 H1557 0.950 . S
C1584 C1570 1.377 . S
C1584 C1583 1.373 . S
C1585 C1569 1.377 . S
C1585 C1583 1.389 . S
C1585 C1586 1.524 . S
C1586 C1585 1.524 . S
C1586 C1587 1.397 . S
C1586 C1591 1.363 . S
C1587 H1558 0.950 . S
C1587 C1586 1.397 . S
C1587 C1588 1.334 . S
C1588 H1559 0.950 . S
C1588 C1587 1.334 . S
C1588 C1589 1.287 . S
C1589 C1588 1.287 . S
C1589 C1590 1.524 . S
C1589 H1592 0.999 . S
C1590 H1560 0.950 . S
C1590 C1589 1.524 . S
C1590 C1591 1.415 . S
C1591 H1561 0.950 . S
C1591 C1586 1.363 . S
C1591 C1590 1.415 . S
H1592 C1589 0.999 . S
H1593 C1574 0.913 . S
H1594 C1612 0.951 . S
H1595 C1614 0.951 . S
H1596 C1616 0.950 . S
H1597 C1617 0.950 . S
H1598 C1619 0.950 . S
H1599 C1622 0.950 . S
H1600 C1623 0.950 . S
H1601 C1625 0.950 . S
H1602 C1626 0.950 . S
H1603 C1627 0.951 . S
H1604 C1629 0.951 . S
H1605 C1631 0.950 . S
H1606 C1632 0.950 . S
H1607 C1634 0.950 . S
H1608 C1637 0.950 . S
H1609 C1638 0.950 1_554 S
H1610 C1640 0.950 . S
H1611 C1641 0.950 . S
C1612 H1594 0.951 . S
C1612 C1613 1.366 . S
C1612 C1614 1.388 . S
C1613 C1612 1.366 . S
C1613 C1617 1.385 . S
C1614 H1595 0.951 . S
C1614 C1612 1.388 . S
C1614 C1615 1.366 . S
C1615 C1614 1.366 . S
C1615 C1616 1.414 . S
C1615 C1618 1.499 . S
C1616 H1596 0.950 . S
C1616 C1615 1.414 . S
C1616 C1617 1.374 . S
C1617 H1597 0.950 . S
C1617 C1613 1.385 . S
C1617 C1616 1.374 . S
C1618 C1615 1.499 . S
C1618 C1619 1.373 . S
C1618 C1620 1.389 . S
C1619 H1598 0.950 . S
C1619 C1618 1.373 . S
C1619 C1635 1.377 . S
C1620 C1618 1.389 . S
C1620 C1621 1.524 . S
C1620 C1634 1.377 . S
C1621 C1620 1.524 . S
C1621 C1622 1.397 . S
C1621 C1626 1.363 . S
C1622 H1599 0.950 . S
C1622 C1621 1.397 . S
C1622 C1623 1.334 . S
C1623 H1600 0.950 . S
C1623 C1622 1.334 . S
C1623 C1624 1.287 . S
C1624 C1623 1.287 . S
C1624 C1625 1.524 . S
C1624 H1643 0.913 . S
C1625 H1601 0.950 . S
C1625 C1624 1.524 . S
C1625 C1626 1.415 . S
C1626 H1602 0.950 . S
C1626 C1621 1.363 . S
C1626 C1625 1.415 . S
C1627 H1603 0.951 . S
C1627 C1628 1.366 . S
C1627 C1629 1.388 . S
C1628 C1627 1.366 . S
C1628 C1632 1.385 . S
C1629 H1604 0.951 . S
C1629 C1627 1.388 . S
C1629 C1630 1.366 . S
C1630 C1629 1.366 . S
C1630 C1631 1.414 . S
C1630 C1633 1.499 . S
C1631 H1605 0.950 . S
C1631 C1630 1.414 . S
C1631 C1632 1.374 . S
C1632 H1606 0.950 . S
C1632 C1628 1.385 . S
C1632 C1631 1.374 . S
C1633 C1630 1.499 . S
C1633 C1634 1.373 . S
C1633 C1635 1.389 . S
C1634 H1607 0.950 . S
C1634 C1620 1.377 . S
C1634 C1633 1.373 . S
C1635 C1619 1.377 . S
C1635 C1633 1.389 . S
C1635 C1636 1.524 . S
C1636 C1635 1.524 . S
C1636 C1637 1.397 . S
C1636 C1641 1.363 . S
C1637 H1608 0.950 . S
C1637 C1636 1.397 . S
C1637 C1638 1.334 . S
C1638 H1609 0.950 1_556 S
C1638 C1637 1.334 . S
C1638 C1639 1.287 . S
C1639 C1638 1.287 . S
C1639 C1640 1.524 . S
C1639 H1642 0.999 1_556 S
C1640 H1610 0.950 . S
C1640 C1639 1.524 . S
C1640 C1641 1.415 . S
C1641 H1611 0.950 . S
C1641 C1636 1.363 . S
C1641 C1640 1.415 . S
H1642 C1639 0.999 1_554 S
H1643 C1624 0.913 . S
H1644 C1662 0.951 . S
H1645 C1664 0.951 . S
H1646 C1666 0.950 . S
H1647 C1667 0.950 . S
H1648 C1669 0.950 . S
H1649 C1672 0.950 . S
H1650 C1673 0.950 . S
H1651 C1675 0.950 . S
H1652 C1676 0.950 . S
H1653 C1677 0.951 . S
H1654 C1679 0.945 1_554 S
H1655 C1681 0.950 . S
H1656 C1682 0.950 1_545 S
H1657 C1684 0.950 . S
H1658 C1687 0.950 . S
H1659 C1688 0.950 . S
H1660 C1690 0.950 . S
H1661 C1691 0.950 . S
C1662 H1644 0.951 . S
C1662 C1663 1.366 . S
C1662 C1664 1.388 . S
C1663 C1662 1.366 . S
C1663 C1667 1.385 . S
C1664 H1645 0.951 . S
C1664 C1662 1.388 . S
C1664 C1665 1.366 . S
C1665 C1664 1.366 . S
C1665 C1666 1.414 . S
C1665 C1668 1.499 . S
C1666 H1646 0.950 . S
C1666 C1665 1.414 . S
C1666 C1667 1.374 . S
C1667 H1647 0.950 . S
C1667 C1663 1.385 . S
C1667 C1666 1.374 . S
C1668 C1665 1.499 . S
C1668 C1669 1.373 . S
C1668 C1670 1.389 . S
C1669 H1648 0.950 . S
C1669 C1668 1.373 . S
C1669 C1685 1.377 . S
C1670 C1668 1.389 . S
C1670 C1671 1.524 . S
C1670 C1684 1.377 . S
C1671 C1670 1.524 . S
C1671 C1672 1.397 . S
C1671 C1676 1.363 . S
C1672 H1649 0.950 . S
C1672 C1671 1.397 . S
C1672 C1673 1.334 . S
C1673 H1650 0.950 . S
C1673 C1672 1.334 . S
C1673 C1674 1.299 . S
C1674 C1673 1.299 . S
C1674 C1675 1.514 1_565 S
C1674 H1693 0.911 1_565 S
C1675 H1651 0.950 . S
C1675 C1674 1.514 1_545 S
C1675 C1676 1.415 1_545 S
C1676 H1652 0.950 . S
C1676 C1671 1.363 . S
C1676 C1675 1.415 1_565 S
C1677 H1653 0.951 . S
C1677 C1678 1.362 1_554 S
C1677 C1679 1.388 1_554 S
C1678 C1677 1.362 1_556 S
C1678 C1682 1.396 . S
C1679 H1654 0.945 1_556 S
C1679 C1677 1.388 1_556 S
C1679 C1680 1.366 . S
C1680 C1679 1.366 . S
C1680 C1681 1.414 . S
C1680 C1683 1.499 . S
C1681 H1655 0.950 . S
C1681 C1680 1.414 . S
C1681 C1682 1.374 . S
C1682 H1656 0.950 1_565 S
C1682 C1678 1.396 . S
C1682 C1681 1.374 . S
C1683 C1680 1.499 . S
C1683 C1684 1.373 . S
C1683 C1685 1.389 . S
C1684 H1657 0.950 . S
C1684 C1670 1.377 . S
C1684 C1683 1.373 . S
C1685 C1669 1.377 . S
C1685 C1683 1.389 . S
C1685 C1686 1.524 . S
C1686 C1685 1.524 . S
C1686 C1687 1.397 . S
C1686 C1691 1.363 . S
C1687 H1658 0.950 . S
C1687 C1686 1.397 . S
C1687 C1688 1.334 . S
C1688 H1659 0.950 . S
C1688 C1687 1.334 . S
C1688 C1689 1.287 . S
C1689 C1688 1.287 . S
C1689 C1690 1.524 . S
C1689 H1692 0.999 . S
C1690 H1660 0.950 . S
C1690 C1689 1.524 . S
C1690 C1691 1.415 . S
C1691 H1661 0.950 . S
C1691 C1686 1.363 . S
C1691 C1690 1.415 . S
H1692 C1689 0.999 . S
H1693 C1674 0.911 1_545 S
H1694 C1712 0.951 . S
H1695 C1714 0.951 . S
H1696 C1716 0.950 . S
H1697 C1717 0.950 . S
H1698 C1719 0.950 . S
H1699 C1722 0.950 . S
H1700 C1723 0.950 . S
H1701 C1725 0.950 . S
H1702 C1726 0.950 . S
H1703 C1727 0.951 . S
H1704 C1729 0.951 . S
H1705 C1731 0.950 . S
H1706 C1732 0.950 . S
H1707 C1734 0.950 . S
H1708 C1737 0.950 . S
H1709 C1738 0.950 . S
H1710 C1740 0.950 . S
H1711 C1741 0.950 . S
C1712 H1694 0.951 . S
C1712 C1713 1.366 . S
C1712 C1714 1.388 . S
C1713 C1712 1.366 . S
C1713 C1717 1.385 . S
C1714 H1695 0.951 . S
C1714 C1712 1.388 . S
C1714 C1715 1.366 . S
C1715 C1714 1.366 . S
C1715 C1716 1.414 . S
C1715 C1718 1.499 . S
C1716 H1696 0.950 . S
C1716 C1715 1.414 . S
C1716 C1717 1.374 . S
C1717 H1697 0.950 . S
C1717 C1713 1.385 . S
C1717 C1716 1.374 . S
C1718 C1715 1.499 . S
C1718 C1719 1.373 . S
C1718 C1720 1.389 . S
C1719 H1698 0.950 . S
C1719 C1718 1.373 . S
C1719 C1735 1.377 . S
C1720 C1718 1.389 . S
C1720 C1721 1.524 . S
C1720 C1734 1.377 . S
C1721 C1720 1.524 . S
C1721 C1722 1.397 . S
C1721 C1726 1.363 . S
C1722 H1699 0.950 . S
C1722 C1721 1.397 . S
C1722 C1723 1.334 . S
C1723 H1700 0.950 . S
C1723 C1722 1.334 . S
C1723 C1724 1.287 . S
C1724 C1723 1.287 . S
C1724 C1725 1.524 . S
C1724 H1743 0.913 . S
C1725 H1701 0.950 . S
C1725 C1724 1.524 . S
C1725 C1726 1.415 . S
C1726 H1702 0.950 . S
C1726 C1721 1.363 . S
C1726 C1725 1.415 . S
C1727 H1703 0.951 . S
C1727 C1728 1.366 . S
C1727 C1729 1.388 . S
C1728 C1727 1.366 . S
C1728 C1732 1.385 . S
C1729 H1704 0.951 . S
C1729 C1727 1.388 . S
C1729 C1730 1.366 . S
C1730 C1729 1.366 . S
C1730 C1731 1.414 . S
C1730 C1733 1.499 . S
C1731 H1705 0.950 . S
C1731 C1730 1.414 . S
C1731 C1732 1.374 . S
C1732 H1706 0.950 . S
C1732 C1728 1.385 . S
C1732 C1731 1.374 . S
C1733 C1730 1.499 . S
C1733 C1734 1.373 . S
C1733 C1735 1.389 . S
C1734 H1707 0.950 . S
C1734 C1720 1.377 . S
C1734 C1733 1.373 . S
C1735 C1719 1.377 . S
C1735 C1733 1.389 . S
C1735 C1736 1.524 . S
C1736 C1735 1.524 . S
C1736 C1737 1.397 . S
C1736 C1741 1.363 . S
C1737 H1708 0.950 . S
C1737 C1736 1.397 . S
C1737 C1738 1.334 1_554 S
C1738 H1709 0.950 . S
C1738 C1737 1.334 1_556 S
C1738 C1739 1.287 . S
C1739 C1738 1.287 . S
C1739 C1740 1.524 1_556 S
C1739 H1742 0.999 . S
C1740 H1710 0.950 . S
C1740 C1739 1.524 1_554 S
C1740 C1741 1.415 . S
C1741 H1711 0.950 . S
C1741 C1736 1.363 . S
C1741 C1740 1.415 . S
H1742 C1739 0.999 . S
H1743 C1724 0.913 . S
H1744 C1762 0.951 . S
H1745 C1764 0.951 . S
H1746 C1766 0.950 . S
H1747 C1767 0.950 . S
H1748 C1769 0.950 . S
H1749 C1772 0.950 . S
H1750 C1773 0.950 . S
H1751 C1775 0.950 . S
H1752 C1776 0.950 . S
H1753 C1777 0.951 . S
H1754 C1779 0.951 . S
H1755 C1781 0.950 . S
H1756 C1782 0.950 . S
H1757 C1784 0.950 . S
H1758 C1787 0.950 . S
H1759 C1788 0.950 . S
H1760 C1790 0.950 . S
H1761 C1791 0.950 . S
C1762 H1744 0.951 . S
C1762 C1763 1.366 . S
C1762 C1764 1.388 . S
C1763 C1762 1.366 . S
C1763 C1767 1.385 . S
C1764 H1745 0.951 . S
C1764 C1762 1.388 . S
C1764 C1765 1.366 . S
C1765 C1764 1.366 . S
C1765 C1766 1.414 . S
C1765 C1768 1.499 . S
C1766 H1746 0.950 . S
C1766 C1765 1.414 . S
C1766 C1767 1.374 . S
C1767 H1747 0.950 . S
C1767 C1763 1.385 . S
C1767 C1766 1.374 . S
C1768 C1765 1.499 . S
C1768 C1769 1.373 . S
C1768 C1770 1.389 . S
C1769 H1748 0.950 . S
C1769 C1768 1.373 . S
C1769 C1785 1.377 . S
C1770 C1768 1.389 . S
C1770 C1771 1.524 . S
C1770 C1784 1.377 . S
C1771 C1770 1.524 . S
C1771 C1772 1.397 . S
C1771 C1776 1.363 . S
C1772 H1749 0.950 . S
C1772 C1771 1.397 . S
C1772 C1773 1.334 . S
C1773 H1750 0.950 . S
C1773 C1772 1.334 . S
C1773 C1774 1.287 . S
C1774 C1773 1.287 . S
C1774 C1775 1.524 . S
C1774 H1793 0.913 . S
C1775 H1751 0.950 . S
C1775 C1774 1.524 . S
C1775 C1776 1.415 . S
C1776 H1752 0.950 . S
C1776 C1771 1.363 . S
C1776 C1775 1.415 . S
C1777 H1753 0.951 . S
C1777 C1778 1.366 . S
C1777 C1779 1.388 . S
C1778 C1777 1.366 . S
C1778 C1782 1.385 . S
C1779 H1754 0.951 . S
C1779 C1777 1.388 . S
C1779 C1780 1.366 . S
C1780 C1779 1.366 . S
C1780 C1781 1.414 . S
C1780 C1783 1.499 . S
C1781 H1755 0.950 . S
C1781 C1780 1.414 . S
C1781 C1782 1.374 . S
C1782 H1756 0.950 . S
C1782 C1778 1.385 . S
C1782 C1781 1.374 . S
C1783 C1780 1.499 . S
C1783 C1784 1.373 . S
C1783 C1785 1.389 . S
C1784 H1757 0.950 . S
C1784 C1770 1.377 . S
C1784 C1783 1.373 . S
C1785 C1769 1.377 . S
C1785 C1783 1.389 . S
C1785 C1786 1.524 . S
C1786 C1785 1.524 . S
C1786 C1787 1.397 . S
C1786 C1791 1.363 . S
C1787 H1758 0.950 . S
C1787 C1786 1.397 . S
C1787 C1788 1.334 . S
C1788 H1759 0.950 . S
C1788 C1787 1.334 . S
C1788 C1789 1.287 . S
C1789 C1788 1.287 . S
C1789 C1790 1.524 . S
C1789 H1792 0.999 . S
C1790 H1760 0.950 . S
C1790 C1789 1.524 . S
C1790 C1791 1.415 . S
C1791 H1761 0.950 . S
C1791 C1786 1.363 . S
C1791 C1790 1.415 . S
H1792 C1789 0.999 . S
H1793 C1774 0.913 . S
H1794 C1812 0.951 . S
H1795 C1814 0.951 . S
H1796 C1816 0.950 . S
H1797 C1817 0.950 . S
H1798 C1819 0.950 . S
H1799 C1822 0.950 . S
H1800 C1823 0.950 . S
H1801 C1825 0.950 . S
H1802 C1826 0.950 . S
H1803 C1827 0.951 . S
H1804 C1829 0.951 . S
H1805 C1831 0.950 . S
H1806 C1832 0.950 . S
H1807 C1834 0.950 . S
H1808 C1837 0.950 . S
H1809 C1838 0.950 . S
H1810 C1840 0.950 . S
H1811 C1841 0.950 . S
C1812 H1794 0.951 . S
C1812 C1813 1.366 . S
C1812 C1814 1.388 . S
C1813 C1812 1.366 . S
C1813 C1817 1.385 . S
C1814 H1795 0.951 . S
C1814 C1812 1.388 . S
C1814 C1815 1.366 . S
C1815 C1814 1.366 . S
C1815 C1816 1.414 . S
C1815 C1818 1.499 . S
C1816 H1796 0.950 . S
C1816 C1815 1.414 . S
C1816 C1817 1.374 . S
C1817 H1797 0.950 . S
C1817 C1813 1.385 . S
C1817 C1816 1.374 . S
C1818 C1815 1.499 . S
C1818 C1819 1.373 . S
C1818 C1820 1.389 . S
C1819 H1798 0.950 . S
C1819 C1818 1.373 . S
C1819 C1835 1.377 . S
C1820 C1818 1.389 . S
C1820 C1821 1.524 . S
C1820 C1834 1.377 . S
C1821 C1820 1.524 . S
C1821 C1822 1.397 . S
C1821 C1826 1.363 . S
C1822 H1799 0.950 . S
C1822 C1821 1.397 . S
C1822 C1823 1.334 . S
C1823 H1800 0.950 . S
C1823 C1822 1.334 . S
C1823 C1824 1.287 . S
C1824 C1823 1.287 . S
C1824 C1825 1.524 . S
C1824 H1843 0.913 . S
C1825 H1801 0.950 . S
C1825 C1824 1.524 . S
C1825 C1826 1.415 . S
C1826 H1802 0.950 . S
C1826 C1821 1.363 . S
C1826 C1825 1.415 . S
C1827 H1803 0.951 . S
C1827 C1828 1.366 . S
C1827 C1829 1.388 . S
C1828 C1827 1.366 . S
C1828 C1832 1.385 . S
C1829 H1804 0.951 . S
C1829 C1827 1.388 . S
C1829 C1830 1.366 . S
C1830 C1829 1.366 . S
C1830 C1831 1.414 . S
C1830 C1833 1.499 . S
C1831 H1805 0.950 . S
C1831 C1830 1.414 . S
C1831 C1832 1.374 . S
C1832 H1806 0.950 . S
C1832 C1828 1.385 . S
C1832 C1831 1.374 . S
C1833 C1830 1.499 . S
C1833 C1834 1.373 . S
C1833 C1835 1.389 . S
C1834 H1807 0.950 . S
C1834 C1820 1.377 . S
C1834 C1833 1.373 . S
C1835 C1819 1.377 . S
C1835 C1833 1.389 . S
C1835 C1836 1.524 . S
C1836 C1835 1.524 . S
C1836 C1837 1.397 . S
C1836 C1841 1.363 . S
C1837 H1808 0.950 . S
C1837 C1836 1.397 . S
C1837 C1838 1.334 . S
C1838 H1809 0.950 . S
C1838 C1837 1.334 . S
C1838 C1839 1.287 . S
C1839 C1838 1.287 . S
C1839 C1840 1.524 . S
C1839 H1842 0.999 . S
C1840 H1810 0.950 . S
C1840 C1839 1.524 . S
C1840 C1841 1.415 . S
C1841 H1811 0.950 . S
C1841 C1836 1.363 . S
C1841 C1840 1.415 . S
H1842 C1839 0.999 . S
H1843 C1824 0.913 . S
H1844 C1862 0.951 . S
H1845 C1864 0.951 . S
H1846 C1866 0.950 . S
H1847 C1867 0.950 . S
H1848 C1869 0.950 . S
H1849 C1872 0.950 . S
H1850 C1873 0.950 . S
H1851 C1875 0.950 . S
H1852 C1876 0.950 . S
H1853 C1877 0.951 . S
H1854 C1879 0.951 . S
H1855 C1881 0.950 . S
H1856 C1882 0.950 . S
H1857 C1884 0.950 . S
H1858 C1887 0.950 . S
H1859 C1888 0.950 . S
H1860 C1890 0.950 . S
H1861 C1891 0.950 . S
C1862 H1844 0.951 . S
C1862 C1863 1.366 . S
C1862 C1864 1.388 . S
C1863 C1862 1.366 . S
C1863 C1867 1.385 . S
C1864 H1845 0.951 . S
C1864 C1862 1.388 . S
C1864 C1865 1.366 . S
C1865 C1864 1.366 . S
C1865 C1866 1.414 . S
C1865 C1868 1.499 . S
C1866 H1846 0.950 . S
C1866 C1865 1.414 . S
C1866 C1867 1.374 . S
C1867 H1847 0.950 . S
C1867 C1863 1.385 . S
C1867 C1866 1.374 . S
C1868 C1865 1.499 . S
C1868 C1869 1.373 . S
C1868 C1870 1.389 . S
C1869 H1848 0.950 . S
C1869 C1868 1.373 . S
C1869 C1885 1.377 . S
C1870 C1868 1.389 . S
C1870 C1871 1.524 . S
C1870 C1884 1.377 . S
C1871 C1870 1.524 . S
C1871 C1872 1.397 . S
C1871 C1876 1.363 . S
C1872 H1849 0.950 . S
C1872 C1871 1.397 . S
C1872 C1873 1.334 . S
C1873 H1850 0.950 . S
C1873 C1872 1.334 . S
C1873 C1874 1.287 . S
C1874 C1873 1.287 . S
C1874 C1875 1.524 . S
C1874 H1893 0.913 . S
C1875 H1851 0.950 . S
C1875 C1874 1.524 . S
C1875 C1876 1.415 . S
C1876 H1852 0.950 . S
C1876 C1871 1.363 . S
C1876 C1875 1.415 . S
C1877 H1853 0.951 . S
C1877 C1878 1.366 . S
C1877 C1879 1.388 . S
C1878 C1877 1.366 . S
C1878 C1882 1.385 . S
C1879 H1854 0.951 . S
C1879 C1877 1.388 . S
C1879 C1880 1.366 . S
C1880 C1879 1.366 . S
C1880 C1881 1.414 . S
C1880 C1883 1.499 . S
C1881 H1855 0.950 . S
C1881 C1880 1.414 . S
C1881 C1882 1.374 . S
C1882 H1856 0.950 . S
C1882 C1878 1.385 . S
C1882 C1881 1.374 . S
C1883 C1880 1.499 . S
C1883 C1884 1.373 . S
C1883 C1885 1.389 . S
C1884 H1857 0.950 . S
C1884 C1870 1.377 . S
C1884 C1883 1.373 . S
C1885 C1869 1.377 . S
C1885 C1883 1.389 . S
C1885 C1886 1.524 . S
C1886 C1885 1.524 . S
C1886 C1887 1.397 . S
C1886 C1891 1.363 . S
C1887 H1858 0.950 . S
C1887 C1886 1.397 . S
C1887 C1888 1.334 . S
C1888 H1859 0.950 . S
C1888 C1887 1.334 . S
C1888 C1889 1.287 . S
C1889 C1888 1.287 . S
C1889 C1890 1.524 . S
C1889 H1892 0.999 1_556 S
C1890 H1860 0.950 . S
C1890 C1889 1.524 . S
C1890 C1891 1.415 . S
C1891 H1861 0.950 . S
C1891 C1886 1.363 . S
C1891 C1890 1.415 . S
H1892 C1889 0.999 1_554 S
H1893 C1874 0.913 . S
H1894 C1912 0.951 . S
H1895 C1914 0.951 . S
H1896 C1916 0.950 . S
H1897 C1917 0.950 . S
H1898 C1919 0.950 . S
H1899 C1922 0.950 . S
H1900 C1923 0.950 . S
H1901 C1925 0.950 . S
H1902 C1926 0.950 . S
H1903 C1927 0.951 . S
H1904 C1929 0.951 . S
H1905 C1931 0.950 . S
H1906 C1932 0.950 . S
H1907 C1934 0.950 . S
H1908 C1937 0.950 . S
H1909 C1938 0.950 . S
H1910 C1940 0.950 . S
H1911 C1941 0.950 . S
C1912 H1894 0.951 . S
C1912 C1913 1.366 . S
C1912 C1914 1.388 . S
C1913 C1912 1.366 . S
C1913 C1917 1.385 . S
C1914 H1895 0.951 . S
C1914 C1912 1.388 . S
C1914 C1915 1.366 . S
C1915 C1914 1.366 . S
C1915 C1916 1.414 . S
C1915 C1918 1.499 . S
C1916 H1896 0.950 . S
C1916 C1915 1.414 . S
C1916 C1917 1.374 . S
C1917 H1897 0.950 . S
C1917 C1913 1.385 . S
C1917 C1916 1.374 . S
C1918 C1915 1.499 . S
C1918 C1919 1.373 . S
C1918 C1920 1.389 . S
C1919 H1898 0.950 . S
C1919 C1918 1.373 . S
C1919 C1935 1.377 . S
C1920 C1918 1.389 . S
C1920 C1921 1.524 . S
C1920 C1934 1.377 . S
C1921 C1920 1.524 . S
C1921 C1922 1.397 . S
C1921 C1926 1.363 . S
C1922 H1899 0.950 . S
C1922 C1921 1.397 . S
C1922 C1923 1.334 . S
C1923 H1900 0.950 . S
C1923 C1922 1.334 . S
C1923 C1924 1.287 . S
C1924 C1923 1.287 . S
C1924 C1925 1.524 . S
C1924 H1943 0.913 . S
C1925 H1901 0.950 . S
C1925 C1924 1.524 . S
C1925 C1926 1.415 . S
C1926 H1902 0.950 . S
C1926 C1921 1.363 . S
C1926 C1925 1.415 . S
C1927 H1903 0.951 . S
C1927 C1928 1.366 . S
C1927 C1929 1.388 . S
C1928 C1927 1.366 . S
C1928 C1932 1.385 . S
C1929 H1904 0.951 . S
C1929 C1927 1.388 . S
C1929 C1930 1.366 . S
C1930 C1929 1.366 . S
C1930 C1931 1.414 . S
C1930 C1933 1.499 . S
C1931 H1905 0.950 . S
C1931 C1930 1.414 . S
C1931 C1932 1.374 . S
C1932 H1906 0.950 . S
C1932 C1928 1.385 . S
C1932 C1931 1.374 . S
C1933 C1930 1.499 . S
C1933 C1934 1.373 . S
C1933 C1935 1.389 . S
C1934 H1907 0.950 . S
C1934 C1920 1.377 . S
C1934 C1933 1.373 . S
C1935 C1919 1.377 . S
C1935 C1933 1.389 . S
C1935 C1936 1.524 . S
C1936 C1935 1.524 . S
C1936 C1937 1.397 . S
C1936 C1941 1.363 . S
C1937 H1908 0.950 . S
C1937 C1936 1.397 . S
C1937 C1938 1.334 . S
C1938 H1909 0.950 . S
C1938 C1937 1.334 . S
C1938 C1939 1.287 . S
C1939 C1938 1.287 . S
C1939 C1940 1.524 . S
C1939 H1942 0.999 . S
C1940 H1910 0.950 . S
C1940 C1939 1.524 . S
C1940 C1941 1.415 . S
C1941 H1911 0.950 . S
C1941 C1936 1.363 . S
C1941 C1940 1.415 . S
H1942 C1939 0.999 . S
H1943 C1924 0.913 . S
H1944 C1962 0.951 . S
H1945 C1964 0.951 . S
H1946 C1966 0.950 . S
H1947 C1967 0.950 . S
H1948 C1969 0.950 . S
H1949 C1972 0.950 . S
H1950 C1973 0.950 . S
H1951 C1975 0.950 . S
H1952 C1976 0.950 . S
H1953 C1977 0.951 . S
H1954 C1979 0.951 . S
H1955 C1981 0.950 . S
H1956 C1982 0.950 . S
H1957 C1984 0.950 . S
H1958 C1987 0.950 . S
H1959 C1988 0.944 1_554 S
H1960 C1990 0.950 1_554 S
H1961 C1991 0.950 . S
C1962 H1944 0.951 . S
C1962 C1963 1.366 . S
C1962 C1964 1.388 . S
C1963 C1962 1.366 . S
C1963 C1967 1.385 . S
C1964 H1945 0.951 . S
C1964 C1962 1.388 . S
C1964 C1965 1.366 . S
C1965 C1964 1.366 . S
C1965 C1966 1.414 . S
C1965 C1968 1.499 . S
C1966 H1946 0.950 . S
C1966 C1965 1.414 . S
C1966 C1967 1.374 . S
C1967 H1947 0.950 . S
C1967 C1963 1.385 . S
C1967 C1966 1.374 . S
C1968 C1965 1.499 . S
C1968 C1969 1.373 . S
C1968 C1970 1.389 . S
C1969 H1948 0.950 . S
C1969 C1968 1.373 . S
C1969 C1985 1.377 . S
C1970 C1968 1.389 . S
C1970 C1971 1.524 . S
C1970 C1984 1.377 . S
C1971 C1970 1.524 . S
C1971 C1972 1.397 . S
C1971 C1976 1.363 . S
C1972 H1949 0.950 . S
C1972 C1971 1.397 . S
C1972 C1973 1.334 . S
C1973 H1950 0.950 . S
C1973 C1972 1.334 . S
C1973 C1974 1.287 . S
C1974 C1973 1.287 . S
C1974 C1975 1.524 . S
C1974 H1993 0.913 . S
C1975 H1951 0.950 . S
C1975 C1974 1.524 . S
C1975 C1976 1.415 . S
C1976 H1952 0.950 . S
C1976 C1971 1.363 . S
C1976 C1975 1.415 . S
C1977 H1953 0.951 . S
C1977 C1978 1.366 . S
C1977 C1979 1.388 . S
C1978 C1977 1.366 . S
C1978 C1982 1.385 . S
C1979 H1954 0.951 . S
C1979 C1977 1.388 . S
C1979 C1980 1.366 . S
C1980 C1979 1.366 . S
C1980 C1981 1.414 . S
C1980 C1983 1.499 . S
C1981 H1955 0.950 . S
C1981 C1980 1.414 . S
C1981 C1982 1.374 . S
C1982 H1956 0.950 . S
C1982 C1978 1.385 . S
C1982 C1981 1.374 . S
C1983 C1980 1.499 . S
C1983 C1984 1.373 . S
C1983 C1985 1.389 . S
C1984 H1957 0.950 . S
C1984 C1970 1.377 . S
C1984 C1983 1.373 . S
C1985 C1969 1.377 . S
C1985 C1983 1.389 . S
C1985 C1986 1.524 . S
C1986 C1985 1.524 . S
C1986 C1987 1.397 . S
C1986 C1991 1.363 . S
C1987 H1958 0.950 . S
C1987 C1986 1.397 . S
C1987 C1988 1.334 . S
C1988 H1959 0.944 1_556 S
C1988 C1987 1.334 . S
C1988 C1989 1.287 1_556 S
C1989 C1988 1.287 1_554 S
C1989 C1990 1.524 1_554 S
C1989 H1992 0.999 . S
C1990 H1960 0.950 1_556 S
C1990 C1989 1.524 1_556 S
C1990 C1991 1.415 . S
C1991 H1961 0.950 . S
C1991 C1986 1.363 . S
C1991 C1990 1.415 . S
H1992 C1989 0.999 . S
H1993 C1974 0.913 . S
H1994 C2012 0.951 . S
H1995 C2014 0.951 . S
H1996 C2016 0.950 . S
H1997 C2017 0.950 . S
H1998 C2019 0.950 . S
H1999 C2022 0.950 . S
H2000 C2023 0.950 . S
H2001 C2025 0.950 . S
H2002 C2026 0.950 . S
H2003 C2027 0.951 1_554 S
H2004 C2029 0.951 . S
H2005 C2031 0.950 . S
H2006 C2032 0.950 . S
H2007 C2034 0.950 . S
H2008 C2037 0.950 . S
H2009 C2038 0.950 . S
H2010 C2040 0.950 . S
H2011 C2041 0.950 . S
C2012 H1994 0.951 . S
C2012 C2013 1.366 . S
C2012 C2014 1.388 . S
C2013 C2012 1.366 . S
C2013 C2017 1.385 . S
C2014 H1995 0.951 . S
C2014 C2012 1.388 . S
C2014 C2015 1.366 . S
C2015 C2014 1.366 . S
C2015 C2016 1.414 . S
C2015 C2018 1.499 . S
C2016 H1996 0.950 . S
C2016 C2015 1.414 . S
C2016 C2017 1.374 . S
C2017 H1997 0.950 . S
C2017 C2013 1.385 . S
C2017 C2016 1.374 . S
C2018 C2015 1.499 . S
C2018 C2019 1.373 . S
C2018 C2020 1.389 . S
C2019 H1998 0.950 . S
C2019 C2018 1.373 . S
C2019 C2035 1.377 . S
C2020 C2018 1.389 . S
C2020 C2021 1.524 . S
C2020 C2034 1.377 . S
C2021 C2020 1.524 . S
C2021 C2022 1.397 . S
C2021 C2026 1.363 . S
C2022 H1999 0.950 . S
C2022 C2021 1.397 . S
C2022 C2023 1.334 . S
C2023 H2000 0.950 . S
C2023 C2022 1.334 . S
C2023 C2024 1.287 . S
C2024 C2023 1.287 . S
C2024 C2025 1.524 . S
C2024 H2043 0.913 . S
C2025 H2001 0.950 . S
C2025 C2024 1.524 . S
C2025 C2026 1.415 . S
C2026 H2002 0.950 . S
C2026 C2021 1.363 . S
C2026 C2025 1.415 . S
C2027 H2003 0.951 1_556 S
C2027 C2028 1.366 . S
C2027 C2029 1.388 . S
C2028 C2027 1.366 . S
C2028 C2032 1.385 . S
C2029 H2004 0.951 . S
C2029 C2027 1.388 . S
C2029 C2030 1.366 . S
C2030 C2029 1.366 . S
C2030 C2031 1.414 . S
C2030 C2033 1.499 . S
C2031 H2005 0.950 . S
C2031 C2030 1.414 . S
C2031 C2032 1.374 . S
C2032 H2006 0.950 . S
C2032 C2028 1.385 . S
C2032 C2031 1.374 . S
C2033 C2030 1.499 . S
C2033 C2034 1.373 . S
C2033 C2035 1.389 . S
C2034 H2007 0.950 . S
C2034 C2020 1.377 . S
C2034 C2033 1.373 . S
C2035 C2019 1.377 . S
C2035 C2033 1.389 . S
C2035 C2036 1.524 . S
C2036 C2035 1.524 . S
C2036 C2037 1.397 . S
C2036 C2041 1.363 . S
C2037 H2008 0.950 . S
C2037 C2036 1.397 . S
C2037 C2038 1.334 1_556 S
C2038 H2009 0.950 . S
C2038 C2037 1.334 1_554 S
C2038 C2039 1.287 . S
C2039 C2038 1.287 . S
C2039 C2040 1.524 . S
C2039 H2042 0.999 . S
C2040 H2010 0.950 . S
C2040 C2039 1.524 . S
C2040 C2041 1.415 1_554 S
C2041 H2011 0.950 . S
C2041 C2036 1.363 . S
C2041 C2040 1.415 1_556 S
H2042 C2039 0.999 . S
H2043 C2024 0.913 . S
H2044 C2062 0.951 . S
H2045 C2064 0.951 . S
H2046 C2066 0.950 . S
H2047 C2067 0.950 . S
H2048 C2069 0.950 . S
H2049 C2072 0.950 . S
H2050 C2073 0.950 . S
H2051 C2075 0.950 . S
H2052 C2076 0.950 . S
H2053 C2077 0.951 . S
H2054 C2079 0.951 . S
H2055 C2081 0.950 . S
H2056 C2082 0.950 . S
H2057 C2084 0.950 . S
H2058 C2087 0.950 . S
H2059 C2088 0.950 . S
H2060 C2090 0.950 . S
H2061 C2091 0.950 . S
C2062 H2044 0.951 . S
C2062 C2063 1.366 . S
C2062 C2064 1.388 . S
C2063 C2062 1.366 . S
C2063 C2067 1.385 . S
C2064 H2045 0.951 . S
C2064 C2062 1.388 . S
C2064 C2065 1.366 . S
C2065 C2064 1.366 . S
C2065 C2066 1.414 . S
C2065 C2068 1.499 . S
C2066 H2046 0.950 . S
C2066 C2065 1.414 . S
C2066 C2067 1.374 . S
C2067 H2047 0.950 . S
C2067 C2063 1.385 . S
C2067 C2066 1.374 . S
C2068 C2065 1.499 . S
C2068 C2069 1.373 . S
C2068 C2070 1.389 . S
C2069 H2048 0.950 . S
C2069 C2068 1.373 . S
C2069 C2085 1.377 . S
C2070 C2068 1.389 . S
C2070 C2071 1.524 . S
C2070 C2084 1.377 . S
C2071 C2070 1.524 . S
C2071 C2072 1.397 . S
C2071 C2076 1.363 . S
C2072 H2049 0.950 . S
C2072 C2071 1.397 . S
C2072 C2073 1.334 . S
C2073 H2050 0.950 . S
C2073 C2072 1.334 . S
C2073 C2074 1.287 . S
C2074 C2073 1.287 . S
C2074 C2075 1.524 . S
C2074 H2093 0.913 . S
C2075 H2051 0.950 . S
C2075 C2074 1.524 . S
C2075 C2076 1.415 . S
C2076 H2052 0.950 . S
C2076 C2071 1.363 . S
C2076 C2075 1.415 . S
C2077 H2053 0.951 . S
C2077 C2078 1.366 . S
C2077 C2079 1.388 . S
C2078 C2077 1.366 . S
C2078 C2082 1.385 . S
C2079 H2054 0.951 . S
C2079 C2077 1.388 . S
C2079 C2080 1.366 . S
C2080 C2079 1.366 . S
C2080 C2081 1.414 . S
C2080 C2083 1.499 . S
C2081 H2055 0.950 . S
C2081 C2080 1.414 . S
C2081 C2082 1.374 . S
C2082 H2056 0.950 . S
C2082 C2078 1.385 . S
C2082 C2081 1.374 . S
C2083 C2080 1.499 . S
C2083 C2084 1.373 . S
C2083 C2085 1.389 . S
C2084 H2057 0.950 . S
C2084 C2070 1.377 . S
C2084 C2083 1.373 . S
C2085 C2069 1.377 . S
C2085 C2083 1.389 . S
C2085 C2086 1.524 . S
C2086 C2085 1.524 . S
C2086 C2087 1.397 . S
C2086 C2091 1.363 . S
C2087 H2058 0.950 . S
C2087 C2086 1.397 . S
C2087 C2088 1.334 . S
C2088 H2059 0.950 . S
C2088 C2087 1.334 . S
C2088 C2089 1.287 . S
C2089 C2088 1.287 . S
C2089 C2090 1.524 . S
C2089 H2092 0.999 . S
C2090 H2060 0.950 . S
C2090 C2089 1.524 . S
C2090 C2091 1.415 . S
C2091 H2061 0.950 . S
C2091 C2086 1.363 . S
C2091 C2090 1.415 . S
H2092 C2089 0.999 . S
H2093 C2074 0.913 . S
H2094 C2112 0.951 . S
H2095 C2114 0.951 . S
H2096 C2116 0.950 . S
H2097 C2117 0.950 . S
H2098 C2119 0.950 . S
H2099 C2122 0.950 . S
H2100 C2123 0.950 . S
H2101 C2125 0.950 . S
H2102 C2126 0.950 . S
H2103 C2127 0.951 . S
H2104 C2129 0.951 . S
H2105 C2131 0.950 . S
H2106 C2132 0.950 . S
H2107 C2134 0.950 . S
H2108 C2137 0.950 . S
H2109 C2138 0.950 . S
H2110 C2140 0.950 . S
H2111 C2141 0.950 . S
C2112 H2094 0.951 . S
C2112 C2113 1.366 . S
C2112 C2114 1.388 . S
C2113 C2112 1.366 . S
C2113 C2117 1.385 . S
C2114 H2095 0.951 . S
C2114 C2112 1.388 . S
C2114 C2115 1.366 . S
C2115 C2114 1.366 . S
C2115 C2116 1.414 . S
C2115 C2118 1.499 . S
C2116 H2096 0.950 . S
C2116 C2115 1.414 . S
C2116 C2117 1.374 . S
C2117 H2097 0.950 . S
C2117 C2113 1.385 . S
C2117 C2116 1.374 . S
C2118 C2115 1.499 . S
C2118 C2119 1.373 . S
C2118 C2120 1.389 . S
C2119 H2098 0.950 . S
C2119 C2118 1.373 . S
C2119 C2135 1.377 . S
C2120 C2118 1.389 . S
C2120 C2121 1.524 . S
C2120 C2134 1.377 . S
C2121 C2120 1.524 . S
C2121 C2122 1.397 . S
C2121 C2126 1.363 . S
C2122 H2099 0.950 . S
C2122 C2121 1.397 . S
C2122 C2123 1.334 . S
C2123 H2100 0.950 . S
C2123 C2122 1.334 . S
C2123 C2124 1.287 . S
C2124 C2123 1.287 . S
C2124 C2125 1.524 . S
C2124 H2143 0.913 . S
C2125 H2101 0.950 . S
C2125 C2124 1.524 . S
C2125 C2126 1.415 . S
C2126 H2102 0.950 . S
C2126 C2121 1.363 . S
C2126 C2125 1.415 . S
C2127 H2103 0.951 . S
C2127 C2128 1.366 . S
C2127 C2129 1.388 . S
C2128 C2127 1.366 . S
C2128 C2132 1.385 . S
C2129 H2104 0.951 . S
C2129 C2127 1.388 . S
C2129 C2130 1.366 . S
C2130 C2129 1.366 . S
C2130 C2131 1.414 . S
C2130 C2133 1.499 . S
C2131 H2105 0.950 . S
C2131 C2130 1.414 . S
C2131 C2132 1.374 . S
C2132 H2106 0.950 . S
C2132 C2128 1.385 . S
C2132 C2131 1.374 . S
C2133 C2130 1.499 . S
C2133 C2134 1.373 . S
C2133 C2135 1.389 . S
C2134 H2107 0.950 . S
C2134 C2120 1.377 . S
C2134 C2133 1.373 . S
C2135 C2119 1.377 . S
C2135 C2133 1.389 . S
C2135 C2136 1.524 . S
C2136 C2135 1.524 . S
C2136 C2137 1.397 . S
C2136 C2141 1.363 . S
C2137 H2108 0.950 . S
C2137 C2136 1.397 . S
C2137 C2138 1.334 . S
C2138 H2109 0.950 . S
C2138 C2137 1.334 . S
C2138 C2139 1.287 . S
C2139 C2138 1.287 . S
C2139 C2140 1.524 . S
C2139 H2142 0.999 . S
C2140 H2110 0.950 . S
C2140 C2139 1.524 . S
C2140 C2141 1.415 . S
C2141 H2111 0.950 . S
C2141 C2136 1.363 . S
C2141 C2140 1.415 . S
H2142 C2139 0.999 . S
H2143 C2124 0.913 . S
H2144 C2162 0.951 . S
H2145 C2164 0.951 . S
H2146 C2166 0.950 . S
H2147 C2167 0.950 . S
H2148 C2169 0.950 . S
H2149 C2172 0.950 . S
H2150 C2173 0.950 . S
H2151 C2175 0.950 . S
H2152 C2176 0.950 . S
H2153 C2177 0.951 . S
H2154 C2179 0.951 . S
H2155 C2181 0.950 . S
H2156 C2182 0.950 . S
H2157 C2184 0.950 . S
H2158 C2187 0.950 . S
H2159 C2188 0.950 . S
H2160 C2190 0.950 . S
H2161 C2191 0.950 . S
C2162 H2144 0.951 . S
C2162 C2163 1.366 . S
C2162 C2164 1.388 . S
C2163 C2162 1.366 . S
C2163 C2167 1.385 . S
C2164 H2145 0.951 . S
C2164 C2162 1.388 . S
C2164 C2165 1.366 . S
C2165 C2164 1.366 . S
C2165 C2166 1.414 . S
C2165 C2168 1.499 . S
C2166 H2146 0.950 . S
C2166 C2165 1.414 . S
C2166 C2167 1.374 . S
C2167 H2147 0.950 . S
C2167 C2163 1.385 . S
C2167 C2166 1.374 . S
C2168 C2165 1.499 . S
C2168 C2169 1.373 . S
C2168 C2170 1.389 . S
C2169 H2148 0.950 . S
C2169 C2168 1.373 . S
C2169 C2185 1.377 . S
C2170 C2168 1.389 . S
C2170 C2171 1.524 . S
C2170 C2184 1.377 . S
C2171 C2170 1.524 . S
C2171 C2172 1.397 . S
C2171 C2176 1.363 . S
C2172 H2149 0.950 . S
C2172 C2171 1.397 . S
C2172 C2173 1.334 . S
C2173 H2150 0.950 . S
C2173 C2172 1.334 . S
C2173 C2174 1.287 . S
C2174 C2173 1.287 . S
C2174 C2175 1.524 . S
C2174 H2193 0.913 . S
C2175 H2151 0.950 . S
C2175 C2174 1.524 . S
C2175 C2176 1.415 . S
C2176 H2152 0.950 . S
C2176 C2171 1.363 . S
C2176 C2175 1.415 . S
C2177 H2153 0.951 . S
C2177 C2178 1.366 . S
C2177 C2179 1.388 . S
C2178 C2177 1.366 . S
C2178 C2182 1.385 . S
C2179 H2154 0.951 . S
C2179 C2177 1.388 . S
C2179 C2180 1.366 . S
C2180 C2179 1.366 . S
C2180 C2181 1.414 . S
C2180 C2183 1.499 . S
C2181 H2155 0.950 . S
C2181 C2180 1.414 . S
C2181 C2182 1.374 . S
C2182 H2156 0.950 . S
C2182 C2178 1.385 . S
C2182 C2181 1.374 . S
C2183 C2180 1.499 . S
C2183 C2184 1.373 . S
C2183 C2185 1.389 . S
C2184 H2157 0.950 . S
C2184 C2170 1.377 . S
C2184 C2183 1.373 . S
C2185 C2169 1.377 . S
C2185 C2183 1.389 . S
C2185 C2186 1.524 . S
C2186 C2185 1.524 . S
C2186 C2187 1.397 . S
C2186 C2191 1.363 . S
C2187 H2158 0.950 . S
C2187 C2186 1.397 . S
C2187 C2188 1.334 . S
C2188 H2159 0.950 . S
C2188 C2187 1.334 . S
C2188 C2189 1.287 . S
C2189 C2188 1.287 . S
C2189 C2190 1.524 . S
C2189 H2192 0.999 . S
C2190 H2160 0.950 . S
C2190 C2189 1.524 . S
C2190 C2191 1.415 . S
C2191 H2161 0.950 . S
C2191 C2186 1.363 . S
C2191 C2190 1.415 . S
H2192 C2189 0.999 . S
H2193 C2174 0.913 . S
H2194 C2212 0.951 . S
H2195 C2214 0.951 . S
H2196 C2216 0.950 . S
H2197 C2217 0.950 . S
H2198 C2219 0.950 . S
H2199 C2222 0.950 . S
H2200 C2223 0.950 . S
H2201 C2225 0.950 . S
H2202 C2226 0.950 . S
H2203 C2227 0.951 . S
H2204 C2229 0.951 . S
H2205 C2231 0.950 . S
H2206 C2232 0.950 . S
H2207 C2234 0.950 . S
H2208 C2237 0.950 . S
H2209 C2238 0.950 . S
H2210 C2240 0.950 . S
H2211 C2241 0.950 . S
C2212 H2194 0.951 . S
C2212 C2213 1.366 . S
C2212 C2214 1.388 . S
C2213 C2212 1.366 . S
C2213 C2217 1.385 . S
C2214 H2195 0.951 . S
C2214 C2212 1.388 . S
C2214 C2215 1.366 . S
C2215 C2214 1.366 . S
C2215 C2216 1.414 . S
C2215 C2218 1.499 . S
C2216 H2196 0.950 . S
C2216 C2215 1.414 . S
C2216 C2217 1.374 . S
C2217 H2197 0.950 . S
C2217 C2213 1.385 . S
C2217 C2216 1.374 . S
C2218 C2215 1.499 . S
C2218 C2219 1.373 . S
C2218 C2220 1.389 . S
C2219 H2198 0.950 . S
C2219 C2218 1.373 . S
C2219 C2235 1.377 . S
C2220 C2218 1.389 . S
C2220 C2221 1.524 . S
C2220 C2234 1.377 . S
C2221 C2220 1.524 . S
C2221 C2222 1.397 . S
C2221 C2226 1.363 . S
C2222 H2199 0.950 . S
C2222 C2221 1.397 . S
C2222 C2223 1.334 . S
C2223 H2200 0.950 . S
C2223 C2222 1.334 . S
C2223 C2224 1.287 . S
C2224 C2223 1.287 . S
C2224 C2225 1.524 . S
C2224 H2243 0.913 . S
C2225 H2201 0.950 . S
C2225 C2224 1.524 . S
C2225 C2226 1.415 . S
C2226 H2202 0.950 . S
C2226 C2221 1.363 . S
C2226 C2225 1.415 . S
C2227 H2203 0.951 . S
C2227 C2228 1.366 . S
C2227 C2229 1.388 . S
C2228 C2227 1.366 . S
C2228 C2232 1.385 . S
C2229 H2204 0.951 . S
C2229 C2227 1.388 . S
C2229 C2230 1.366 . S
C2230 C2229 1.366 . S
C2230 C2231 1.414 . S
C2230 C2233 1.499 . S
C2231 H2205 0.950 . S
C2231 C2230 1.414 . S
C2231 C2232 1.374 . S
C2232 H2206 0.950 . S
C2232 C2228 1.385 . S
C2232 C2231 1.374 . S
C2233 C2230 1.499 . S
C2233 C2234 1.373 . S
C2233 C2235 1.389 . S
C2234 H2207 0.950 . S
C2234 C2220 1.377 . S
C2234 C2233 1.373 . S
C2235 C2219 1.377 . S
C2235 C2233 1.389 . S
C2235 C2236 1.524 . S
C2236 C2235 1.524 . S
C2236 C2237 1.397 . S
C2236 C2241 1.363 . S
C2237 H2208 0.950 . S
C2237 C2236 1.397 . S
C2237 C2238 1.334 . S
C2238 H2209 0.950 . S
C2238 C2237 1.334 . S
C2238 C2239 1.287 . S
C2239 C2238 1.287 . S
C2239 C2240 1.524 . S
C2239 H2242 0.999 . S
C2240 H2210 0.950 . S
C2240 C2239 1.524 . S
C2240 C2241 1.415 . S
C2241 H2211 0.950 . S
C2241 C2236 1.363 . S
C2241 C2240 1.415 . S
H2242 C2239 0.999 . S
H2243 C2224 0.913 . S
H2244 C2262 0.951 . S
H2245 C2264 0.951 . S
H2246 C2266 0.950 . S
H2247 C2267 0.950 . S
H2248 C2269 0.950 . S
H2249 C2272 0.950 . S
H2250 C2273 0.950 . S
H2251 C2275 0.950 . S
H2252 C2276 0.950 . S
H2253 C2277 0.951 . S
H2254 C2279 0.951 . S
H2255 C2281 0.950 . S
H2256 C2282 0.950 . S
H2257 C2284 0.950 . S
H2258 C2287 0.950 . S
H2259 C2288 0.950 . S
H2260 C2290 0.950 . S
H2261 C2291 0.950 . S
C2262 H2244 0.951 . S
C2262 C2263 1.366 . S
C2262 C2264 1.388 . S
C2263 C2262 1.366 . S
C2263 C2267 1.385 . S
C2264 H2245 0.951 . S
C2264 C2262 1.388 . S
C2264 C2265 1.366 . S
C2265 C2264 1.366 . S
C2265 C2266 1.414 . S
C2265 C2268 1.499 . S
C2266 H2246 0.950 . S
C2266 C2265 1.414 . S
C2266 C2267 1.374 . S
C2267 H2247 0.950 . S
C2267 C2263 1.385 . S
C2267 C2266 1.374 . S
C2268 C2265 1.499 . S
C2268 C2269 1.373 . S
C2268 C2270 1.389 . S
C2269 H2248 0.950 . S
C2269 C2268 1.373 . S
C2269 C2285 1.377 . S
C2270 C2268 1.389 . S
C2270 C2271 1.524 . S
C2270 C2284 1.377 . S
C2271 C2270 1.524 . S
C2271 C2272 1.397 . S
C2271 C2276 1.363 . S
C2272 H2249 0.950 . S
C2272 C2271 1.397 . S
C2272 C2273 1.334 . S
C2273 H2250 0.950 . S
C2273 C2272 1.334 . S
C2273 C2274 1.287 . S
C2274 C2273 1.287 . S
C2274 C2275 1.524 . S
C2274 H2293 0.913 . S
C2275 H2251 0.950 . S
C2275 C2274 1.524 . S
C2275 C2276 1.415 . S
C2276 H2252 0.950 . S
C2276 C2271 1.363 . S
C2276 C2275 1.415 . S
C2277 H2253 0.951 . S
C2277 C2278 1.366 . S
C2277 C2279 1.388 . S
C2278 C2277 1.366 . S
C2278 C2282 1.385 . S
C2279 H2254 0.951 . S
C2279 C2277 1.388 . S
C2279 C2280 1.366 . S
C2280 C2279 1.366 . S
C2280 C2281 1.414 . S
C2280 C2283 1.499 . S
C2281 H2255 0.950 . S
C2281 C2280 1.414 . S
C2281 C2282 1.374 . S
C2282 H2256 0.950 . S
C2282 C2278 1.385 . S
C2282 C2281 1.374 . S
C2283 C2280 1.499 . S
C2283 C2284 1.373 . S
C2283 C2285 1.389 . S
C2284 H2257 0.950 . S
C2284 C2270 1.377 . S
C2284 C2283 1.373 . S
C2285 C2269 1.377 . S
C2285 C2283 1.389 . S
C2285 C2286 1.524 . S
C2286 C2285 1.524 . S
C2286 C2287 1.397 . S
C2286 C2291 1.363 . S
C2287 H2258 0.950 . S
C2287 C2286 1.397 . S
C2287 C2288 1.334 . S
C2288 H2259 0.950 . S
C2288 C2287 1.334 . S
C2288 C2289 1.287 . S
C2289 C2288 1.287 . S
C2289 C2290 1.524 . S
C2289 H2292 0.999 . S
C2290 H2260 0.950 . S
C2290 C2289 1.524 . S
C2290 C2291 1.415 . S
C2291 H2261 0.950 . S
C2291 C2286 1.363 . S
C2291 C2290 1.415 . S
H2292 C2289 0.999 . S
H2293 C2274 0.913 . S
H2294 C2312 0.951 . S
H2295 C2314 0.951 . S
H2296 C2316 0.950 . S
H2297 C2317 0.950 . S
H2298 C2319 0.950 . S
H2299 C2322 0.950 . S
H2300 C2323 0.950 . S
H2301 C2325 0.950 . S
H2302 C2326 0.950 . S
H2303 C2327 0.951 . S
H2304 C2329 0.951 . S
H2305 C2331 0.950 . S
H2306 C2332 0.950 . S
H2307 C2334 0.950 . S
H2308 C2337 0.950 . S
H2309 C2338 0.950 . S
H2310 C2340 0.950 . S
H2311 C2341 0.950 . S
C2312 H2294 0.951 . S
C2312 C2313 1.366 . S
C2312 C2314 1.388 . S
C2313 C2312 1.366 . S
C2313 C2317 1.385 . S
C2314 H2295 0.951 . S
C2314 C2312 1.388 . S
C2314 C2315 1.366 . S
C2315 C2314 1.366 . S
C2315 C2316 1.414 . S
C2315 C2318 1.499 . S
C2316 H2296 0.950 . S
C2316 C2315 1.414 . S
C2316 C2317 1.374 . S
C2317 H2297 0.950 . S
C2317 C2313 1.385 . S
C2317 C2316 1.374 . S
C2318 C2315 1.499 . S
C2318 C2319 1.373 . S
C2318 C2320 1.389 . S
C2319 H2298 0.950 . S
C2319 C2318 1.373 . S
C2319 C2335 1.377 . S
C2320 C2318 1.389 . S
C2320 C2321 1.524 . S
C2320 C2334 1.377 . S
C2321 C2320 1.524 . S
C2321 C2322 1.397 . S
C2321 C2326 1.363 . S
C2322 H2299 0.950 . S
C2322 C2321 1.397 . S
C2322 C2323 1.334 . S
C2323 H2300 0.950 . S
C2323 C2322 1.334 . S
C2323 C2324 1.287 . S
C2324 C2323 1.287 . S
C2324 C2325 1.524 . S
C2324 H2343 0.913 . S
C2325 H2301 0.950 . S
C2325 C2324 1.524 . S
C2325 C2326 1.415 . S
C2326 H2302 0.950 . S
C2326 C2321 1.363 . S
C2326 C2325 1.415 . S
C2327 H2303 0.951 . S
C2327 C2328 1.366 . S
C2327 C2329 1.388 . S
C2328 C2327 1.366 . S
C2328 C2332 1.385 . S
C2329 H2304 0.951 . S
C2329 C2327 1.388 . S
C2329 C2330 1.366 . S
C2330 C2329 1.366 . S
C2330 C2331 1.414 . S
C2330 C2333 1.499 . S
C2331 H2305 0.950 . S
C2331 C2330 1.414 . S
C2331 C2332 1.374 . S
C2332 H2306 0.950 . S
C2332 C2328 1.385 . S
C2332 C2331 1.374 . S
C2333 C2330 1.499 . S
C2333 C2334 1.373 . S
C2333 C2335 1.389 . S
C2334 H2307 0.950 . S
C2334 C2320 1.377 . S
C2334 C2333 1.373 . S
C2335 C2319 1.377 . S
C2335 C2333 1.389 . S
C2335 C2336 1.524 . S
C2336 C2335 1.524 . S
C2336 C2337 1.397 . S
C2336 C2341 1.363 . S
C2337 H2308 0.950 . S
C2337 C2336 1.397 . S
C2337 C2338 1.334 . S
C2338 H2309 0.950 . S
C2338 C2337 1.334 . S
C2338 C2339 1.287 . S
C2339 C2338 1.287 . S
C2339 C2340 1.524 . S
C2339 H2342 0.999 . S
C2340 H2310 0.950 . S
C2340 C2339 1.524 . S
C2340 C2341 1.415 . S
C2341 H2311 0.950 . S
C2341 C2336 1.363 . S
C2341 C2340 1.415 . S
H2342 C2339 0.999 . S
H2343 C2324 0.913 . S
H2344 C2362 0.951 . S
H2345 C2364 0.951 . S
H2346 C2366 0.950 . S
H2347 C2367 0.950 . S
H2348 C2369 0.950 . S
H2349 C2372 0.950 . S
H2350 C2373 0.950 . S
H2351 C2375 0.950 . S
H2352 C2376 0.950 . S
H2353 C2377 0.951 . S
H2354 C2379 0.951 . S
H2355 C2381 0.950 . S
H2356 C2382 0.950 . S
H2357 C2384 0.950 . S
H2358 C2387 0.950 . S
H2359 C2388 0.950 . S
H2360 C2390 0.950 . S
H2361 C2391 0.950 . S
C2362 H2344 0.951 . S
C2362 C2363 1.366 . S
C2362 C2364 1.388 . S
C2363 C2362 1.366 . S
C2363 C2367 1.385 . S
C2364 H2345 0.951 . S
C2364 C2362 1.388 . S
C2364 C2365 1.366 . S
C2365 C2364 1.366 . S
C2365 C2366 1.414 . S
C2365 C2368 1.499 . S
C2366 H2346 0.950 . S
C2366 C2365 1.414 . S
C2366 C2367 1.374 . S
C2367 H2347 0.950 . S
C2367 C2363 1.385 . S
C2367 C2366 1.374 . S
C2368 C2365 1.499 . S
C2368 C2369 1.373 . S
C2368 C2370 1.389 . S
C2369 H2348 0.950 . S
C2369 C2368 1.373 . S
C2369 C2385 1.377 . S
C2370 C2368 1.389 . S
C2370 C2371 1.524 . S
C2370 C2384 1.377 . S
C2371 C2370 1.524 . S
C2371 C2372 1.397 . S
C2371 C2376 1.363 . S
C2372 H2349 0.950 . S
C2372 C2371 1.397 . S
C2372 C2373 1.334 . S
C2373 H2350 0.950 . S
C2373 C2372 1.334 . S
C2373 C2374 1.287 . S
C2374 C2373 1.287 . S
C2374 C2375 1.524 . S
C2374 H2393 0.913 . S
C2375 H2351 0.950 . S
C2375 C2374 1.524 . S
C2375 C2376 1.415 . S
C2376 H2352 0.950 . S
C2376 C2371 1.363 . S
C2376 C2375 1.415 . S
C2377 H2353 0.951 . S
C2377 C2378 1.366 . S
C2377 C2379 1.388 . S
C2378 C2377 1.366 . S
C2378 C2382 1.385 . S
C2379 H2354 0.951 . S
C2379 C2377 1.388 . S
C2379 C2380 1.366 . S
C2380 C2379 1.366 . S
C2380 C2381 1.414 . S
C2380 C2383 1.499 . S
C2381 H2355 0.950 . S
C2381 C2380 1.414 . S
C2381 C2382 1.374 . S
C2382 H2356 0.950 . S
C2382 C2378 1.385 . S
C2382 C2381 1.374 . S
C2383 C2380 1.499 . S
C2383 C2384 1.373 . S
C2383 C2385 1.389 . S
C2384 H2357 0.950 . S
C2384 C2370 1.377 . S
C2384 C2383 1.373 . S
C2385 C2369 1.377 . S
C2385 C2383 1.389 . S
C2385 C2386 1.524 . S
C2386 C2385 1.524 . S
C2386 C2387 1.397 . S
C2386 C2391 1.363 . S
C2387 H2358 0.950 . S
C2387 C2386 1.397 . S
C2387 C2388 1.334 . S
C2388 H2359 0.950 . S
C2388 C2387 1.334 . S
C2388 C2389 1.287 . S
C2389 C2388 1.287 . S
C2389 C2390 1.524 . S
C2389 H2392 0.999 . S
C2390 H2360 0.950 . S
C2390 C2389 1.524 . S
C2390 C2391 1.415 . S
C2391 H2361 0.950 . S
C2391 C2386 1.363 . S
C2391 C2390 1.415 . S
H2392 C2389 0.999 . S
H2393 C2374 0.913 . S
H2394 C2412 0.951 . S
H2395 C2414 0.951 . S
H2396 C2416 0.950 . S
H2397 C2417 0.950 . S
H2398 C2419 0.950 . S
H2399 C2422 0.950 . S
H2400 C2423 0.950 . S
H2401 C2425 0.950 . S
H2402 C2426 0.950 . S
H2403 C2427 0.951 . S
H2404 C2429 0.951 . S
H2405 C2431 0.950 . S
H2406 C2432 0.950 . S
H2407 C2434 0.950 . S
H2408 C2437 0.950 . S
H2409 C2438 0.950 . S
H2410 C2440 0.950 . S
H2411 C2441 0.950 . S
C2412 H2394 0.951 . S
C2412 C2413 1.366 . S
C2412 C2414 1.388 . S
C2413 C2412 1.366 . S
C2413 C2417 1.385 . S
C2414 H2395 0.951 . S
C2414 C2412 1.388 . S
C2414 C2415 1.366 . S
C2415 C2414 1.366 . S
C2415 C2416 1.414 . S
C2415 C2418 1.499 . S
C2416 H2396 0.950 . S
C2416 C2415 1.414 . S
C2416 C2417 1.374 . S
C2417 H2397 0.950 . S
C2417 C2413 1.385 . S
C2417 C2416 1.374 . S
C2418 C2415 1.499 . S
C2418 C2419 1.373 . S
C2418 C2420 1.389 . S
C2419 H2398 0.950 . S
C2419 C2418 1.373 . S
C2419 C2435 1.377 . S
C2420 C2418 1.389 . S
C2420 C2421 1.524 . S
C2420 C2434 1.377 . S
C2421 C2420 1.524 . S
C2421 C2422 1.397 . S
C2421 C2426 1.363 . S
C2422 H2399 0.950 . S
C2422 C2421 1.397 . S
C2422 C2423 1.334 . S
C2423 H2400 0.950 . S
C2423 C2422 1.334 . S
C2423 C2424 1.287 . S
C2424 C2423 1.287 . S
C2424 C2425 1.524 . S
C2424 H2443 0.913 . S
C2425 H2401 0.950 . S
C2425 C2424 1.524 . S
C2425 C2426 1.415 . S
C2426 H2402 0.950 . S
C2426 C2421 1.363 . S
C2426 C2425 1.415 . S
C2427 H2403 0.951 . S
C2427 C2428 1.366 . S
C2427 C2429 1.388 . S
C2428 C2427 1.366 . S
C2428 C2432 1.385 . S
C2429 H2404 0.951 . S
C2429 C2427 1.388 . S
C2429 C2430 1.366 . S
C2430 C2429 1.366 . S
C2430 C2431 1.414 . S
C2430 C2433 1.499 . S
C2431 H2405 0.950 . S
C2431 C2430 1.414 . S
C2431 C2432 1.374 . S
C2432 H2406 0.950 . S
C2432 C2428 1.385 . S
C2432 C2431 1.374 . S
C2433 C2430 1.499 . S
C2433 C2434 1.373 . S
C2433 C2435 1.389 . S
C2434 H2407 0.950 . S
C2434 C2420 1.377 . S
C2434 C2433 1.373 . S
C2435 C2419 1.377 . S
C2435 C2433 1.389 . S
C2435 C2436 1.524 . S
C2436 C2435 1.524 . S
C2436 C2437 1.397 . S
C2436 C2441 1.363 . S
C2437 H2408 0.950 . S
C2437 C2436 1.397 . S
C2437 C2438 1.334 . S
C2438 H2409 0.950 . S
C2438 C2437 1.334 . S
C2438 C2439 1.287 . S
C2439 C2438 1.287 . S
C2439 C2440 1.524 . S
C2439 H2442 0.999 . S
C2440 H2410 0.950 . S
C2440 C2439 1.524 . S
C2440 C2441 1.415 . S
C2441 H2411 0.950 . S
C2441 C2436 1.363 . S
C2441 C2440 1.415 . S
H2442 C2439 0.999 . S
H2443 C2424 0.913 . S
H2444 C2462 0.951 . S
H2445 C2464 0.951 . S
H2446 C2466 0.950 . S
H2447 C2467 0.950 . S
H2448 C2469 0.950 . S
H2449 C2472 0.950 . S
H2450 C2473 0.950 . S
H2451 C2475 0.950 . S
H2452 C2476 0.950 . S
H2453 C2477 0.951 . S
H2454 C2479 0.951 . S
H2455 C2481 0.950 . S
H2456 C2482 0.950 . S
H2457 C2484 0.950 . S
H2458 C2487 0.950 . S
H2459 C2488 0.950 . S
H2460 C2490 0.950 . S
H2461 C2491 0.950 . S
C2462 H2444 0.951 . S
C2462 C2463 1.366 . S
C2462 C2464 1.388 . S
C2463 C2462 1.366 . S
C2463 C2467 1.385 . S
C2464 H2445 0.951 . S
C2464 C2462 1.388 . S
C2464 C2465 1.366 . S
C2465 C2464 1.366 . S
C2465 C2466 1.414 . S
C2465 C2468 1.499 . S
C2466 H2446 0.950 . S
C2466 C2465 1.414 . S
C2466 C2467 1.374 . S
C2467 H2447 0.950 . S
C2467 C2463 1.385 . S
C2467 C2466 1.374 . S
C2468 C2465 1.499 . S
C2468 C2469 1.373 . S
C2468 C2470 1.389 . S
C2469 H2448 0.950 . S
C2469 C2468 1.373 . S
C2469 C2485 1.377 . S
C2470 C2468 1.389 . S
C2470 C2471 1.524 . S
C2470 C2484 1.377 . S
C2471 C2470 1.524 . S
C2471 C2472 1.397 . S
C2471 C2476 1.363 . S
C2472 H2449 0.950 . S
C2472 C2471 1.397 . S
C2472 C2473 1.334 . S
C2473 H2450 0.950 . S
C2473 C2472 1.334 . S
C2473 C2474 1.287 . S
C2474 C2473 1.287 . S
C2474 C2475 1.524 . S
C2474 H2493 0.913 . S
C2475 H2451 0.950 . S
C2475 C2474 1.524 . S
C2475 C2476 1.415 . S
C2476 H2452 0.950 . S
C2476 C2471 1.363 . S
C2476 C2475 1.415 . S
C2477 H2453 0.951 . S
C2477 C2478 1.366 . S
C2477 C2479 1.388 . S
C2478 C2477 1.366 . S
C2478 C2482 1.385 . S
C2479 H2454 0.951 . S
C2479 C2477 1.388 . S
C2479 C2480 1.366 . S
C2480 C2479 1.366 . S
C2480 C2481 1.414 . S
C2480 C2483 1.499 . S
C2481 H2455 0.950 . S
C2481 C2480 1.414 . S
C2481 C2482 1.374 . S
C2482 H2456 0.950 . S
C2482 C2478 1.385 . S
C2482 C2481 1.374 . S
C2483 C2480 1.499 . S
C2483 C2484 1.373 . S
C2483 C2485 1.389 . S
C2484 H2457 0.950 . S
C2484 C2470 1.377 . S
C2484 C2483 1.373 . S
C2485 C2469 1.377 . S
C2485 C2483 1.389 . S
C2485 C2486 1.524 . S
C2486 C2485 1.524 . S
C2486 C2487 1.397 . S
C2486 C2491 1.363 . S
C2487 H2458 0.950 . S
C2487 C2486 1.397 . S
C2487 C2488 1.334 . S
C2488 H2459 0.950 . S
C2488 C2487 1.334 . S
C2488 C2489 1.287 . S
C2489 C2488 1.287 . S
C2489 C2490 1.524 . S
C2489 H2492 0.999 . S
C2490 H2460 0.950 . S
C2490 C2489 1.524 . S
C2490 C2491 1.415 . S
C2491 H2461 0.950 . S
C2491 C2486 1.363 . S
C2491 C2490 1.415 . S
H2492 C2489 0.999 . S
H2493 C2474 0.913 . S
H2494 C2512 0.951 . S
H2495 C2514 0.951 . S
H2496 C2516 0.950 . S
H2497 C2517 0.950 . S
H2498 C2519 0.950 . S
H2499 C2522 0.950 . S
H2500 C2523 0.950 . S
H2501 C2525 0.950 . S
H2502 C2526 0.950 . S
H2503 C2527 0.951 . S
H2504 C2529 0.951 . S
H2505 C2531 0.950 . S
H2506 C2532 0.950 . S
H2507 C2534 0.950 . S
H2508 C2537 0.950 . S
H2509 C2538 0.950 . S
H2510 C2540 0.950 . S
H2511 C2541 0.950 . S
C2512 H2494 0.951 . S
C2512 C2513 1.366 . S
C2512 C2514 1.388 . S
C2513 C2512 1.366 . S
C2513 C2517 1.385 . S
C2514 H2495 0.951 . S
C2514 C2512 1.388 . S
C2514 C2515 1.366 . S
C2515 C2514 1.366 . S
C2515 C2516 1.414 . S
C2515 C2518 1.499 . S
C2516 H2496 0.950 . S
C2516 C2515 1.414 . S
C2516 C2517 1.374 . S
C2517 H2497 0.950 . S
C2517 C2513 1.385 . S
C2517 C2516 1.374 . S
C2518 C2515 1.499 . S
C2518 C2519 1.373 . S
C2518 C2520 1.389 . S
C2519 H2498 0.950 . S
C2519 C2518 1.373 . S
C2519 C2535 1.377 . S
C2520 C2518 1.389 . S
C2520 C2521 1.524 . S
C2520 C2534 1.377 . S
C2521 C2520 1.524 . S
C2521 C2522 1.397 . S
C2521 C2526 1.363 . S
C2522 H2499 0.950 . S
C2522 C2521 1.397 . S
C2522 C2523 1.334 . S
C2523 H2500 0.950 . S
C2523 C2522 1.334 . S
C2523 C2524 1.287 . S
C2524 C2523 1.287 . S
C2524 C2525 1.524 . S
C2524 H2543 0.913 . S
C2525 H2501 0.950 . S
C2525 C2524 1.524 . S
C2525 C2526 1.415 . S
C2526 H2502 0.950 . S
C2526 C2521 1.363 . S
C2526 C2525 1.415 . S
C2527 H2503 0.951 . S
C2527 C2528 1.366 . S
C2527 C2529 1.388 . S
C2528 C2527 1.366 . S
C2528 C2532 1.385 . S
C2529 H2504 0.951 . S
C2529 C2527 1.388 . S
C2529 C2530 1.366 . S
C2530 C2529 1.366 . S
C2530 C2531 1.414 . S
C2530 C2533 1.499 . S
C2531 H2505 0.950 . S
C2531 C2530 1.414 . S
C2531 C2532 1.374 . S
C2532 H2506 0.950 . S
C2532 C2528 1.385 . S
C2532 C2531 1.374 . S
C2533 C2530 1.499 . S
C2533 C2534 1.373 . S
C2533 C2535 1.389 . S
C2534 H2507 0.950 . S
C2534 C2520 1.377 . S
C2534 C2533 1.373 . S
C2535 C2519 1.377 . S
C2535 C2533 1.389 . S
C2535 C2536 1.524 . S
C2536 C2535 1.524 . S
C2536 C2537 1.397 . S
C2536 C2541 1.363 . S
C2537 H2508 0.950 . S
C2537 C2536 1.397 . S
C2537 C2538 1.334 . S
C2538 H2509 0.950 . S
C2538 C2537 1.334 . S
C2538 C2539 1.287 . S
C2539 C2538 1.287 . S
C2539 C2540 1.524 . S
C2539 H2542 0.999 . S
C2540 H2510 0.950 . S
C2540 C2539 1.524 . S
C2540 C2541 1.415 . S
C2541 H2511 0.950 . S
C2541 C2536 1.363 . S
C2541 C2540 1.415 . S
H2542 C2539 0.999 . S
H2543 C2524 0.913 . S
H2544 C2562 0.951 . S
H2545 C2564 0.951 . S
H2546 C2566 0.950 . S
H2547 C2567 0.950 . S
H2548 C2569 0.950 . S
H2549 C2572 0.950 . S
H2550 C2573 0.950 . S
H2551 C2575 0.950 . S
H2552 C2576 0.950 . S
H2553 C2577 0.951 . S
H2554 C2579 0.951 . S
H2555 C2581 0.950 . S
H2556 C2582 0.950 . S
H2557 C2584 0.950 . S
H2558 C2587 0.950 . S
H2559 C2588 0.950 . S
H2560 C2590 0.950 . S
H2561 C2591 0.950 . S
C2562 H2544 0.951 . S
C2562 C2563 1.366 . S
C2562 C2564 1.388 . S
C2563 C2562 1.366 . S
C2563 C2567 1.385 . S
C2564 H2545 0.951 . S
C2564 C2562 1.388 . S
C2564 C2565 1.366 . S
C2565 C2564 1.366 . S
C2565 C2566 1.414 . S
C2565 C2568 1.499 . S
C2566 H2546 0.950 . S
C2566 C2565 1.414 . S
C2566 C2567 1.374 . S
C2567 H2547 0.950 . S
C2567 C2563 1.385 . S
C2567 C2566 1.374 . S
C2568 C2565 1.499 . S
C2568 C2569 1.373 . S
C2568 C2570 1.389 . S
C2569 H2548 0.950 . S
C2569 C2568 1.373 . S
C2569 C2585 1.377 . S
C2570 C2568 1.389 . S
C2570 C2571 1.524 . S
C2570 C2584 1.377 . S
C2571 C2570 1.524 . S
C2571 C2572 1.397 . S
C2571 C2576 1.363 . S
C2572 H2549 0.950 . S
C2572 C2571 1.397 . S
C2572 C2573 1.334 . S
C2573 H2550 0.950 . S
C2573 C2572 1.334 . S
C2573 C2574 1.287 . S
C2574 C2573 1.287 . S
C2574 C2575 1.524 . S
C2574 H2593 0.913 . S
C2575 H2551 0.950 . S
C2575 C2574 1.524 . S
C2575 C2576 1.415 . S
C2576 H2552 0.950 . S
C2576 C2571 1.363 . S
C2576 C2575 1.415 . S
C2577 H2553 0.951 . S
C2577 C2578 1.366 . S
C2577 C2579 1.388 . S
C2578 C2577 1.366 . S
C2578 C2582 1.385 . S
C2579 H2554 0.951 . S
C2579 C2577 1.388 . S
C2579 C2580 1.366 . S
C2580 C2579 1.366 . S
C2580 C2581 1.414 . S
C2580 C2583 1.499 . S
C2581 H2555 0.950 . S
C2581 C2580 1.414 . S
C2581 C2582 1.374 . S
C2582 H2556 0.950 . S
C2582 C2578 1.385 . S
C2582 C2581 1.374 . S
C2583 C2580 1.499 . S
C2583 C2584 1.373 . S
C2583 C2585 1.389 . S
C2584 H2557 0.950 . S
C2584 C2570 1.377 . S
C2584 C2583 1.373 . S
C2585 C2569 1.377 . S
C2585 C2583 1.389 . S
C2585 C2586 1.524 . S
C2586 C2585 1.524 . S
C2586 C2587 1.397 . S
C2586 C2591 1.363 . S
C2587 H2558 0.950 . S
C2587 C2586 1.397 . S
C2587 C2588 1.334 . S
C2588 H2559 0.950 . S
C2588 C2587 1.334 . S
C2588 C2589 1.287 . S
C2589 C2588 1.287 . S
C2589 C2590 1.524 . S
C2589 H2592 0.999 . S
C2590 H2560 0.950 . S
C2590 C2589 1.524 . S
C2590 C2591 1.415 . S
C2591 H2561 0.950 . S
C2591 C2586 1.363 . S
C2591 C2590 1.415 . S
H2592 C2589 0.999 . S
H2593 C2574 0.913 . S
H2594 C2612 0.951 . S
H2595 C2614 0.951 . S
H2596 C2616 0.950 . S
H2597 C2617 0.950 . S
H2598 C2619 0.950 . S
H2599 C2622 0.950 . S
H2600 C2623 0.950 . S
H2601 C2625 0.950 . S
H2602 C2626 0.950 . S
H2603 C2627 0.951 . S
H2604 C2629 0.951 . S
H2605 C2631 0.950 . S
H2606 C2632 0.950 . S
H2607 C2634 0.950 . S
H2608 C2637 0.950 . S
H2609 C2638 0.950 . S
H2610 C2640 0.950 . S
H2611 C2641 0.950 . S
C2612 H2594 0.951 . S
C2612 C2613 1.366 . S
C2612 C2614 1.388 . S
C2613 C2612 1.366 . S
C2613 C2617 1.385 . S
C2614 H2595 0.951 . S
C2614 C2612 1.388 . S
C2614 C2615 1.366 . S
C2615 C2614 1.366 . S
C2615 C2616 1.414 . S
C2615 C2618 1.499 . S
C2616 H2596 0.950 . S
C2616 C2615 1.414 . S
C2616 C2617 1.374 . S
C2617 H2597 0.950 . S
C2617 C2613 1.385 . S
C2617 C2616 1.374 . S
C2618 C2615 1.499 . S
C2618 C2619 1.373 . S
C2618 C2620 1.389 . S
C2619 H2598 0.950 . S
C2619 C2618 1.373 . S
C2619 C2635 1.377 . S
C2620 C2618 1.389 . S
C2620 C2621 1.524 . S
C2620 C2634 1.377 . S
C2621 C2620 1.524 . S
C2621 C2622 1.397 . S
C2621 C2626 1.363 . S
C2622 H2599 0.950 . S
C2622 C2621 1.397 . S
C2622 C2623 1.334 . S
C2623 H2600 0.950 . S
C2623 C2622 1.334 . S
C2623 C2624 1.287 . S
C2624 C2623 1.287 . S
C2624 C2625 1.524 . S
C2624 H2643 0.913 . S
C2625 H2601 0.950 . S
C2625 C2624 1.524 . S
C2625 C2626 1.415 . S
C2626 H2602 0.950 . S
C2626 C2621 1.363 . S
C2626 C2625 1.415 . S
C2627 H2603 0.951 . S
C2627 C2628 1.366 . S
C2627 C2629 1.388 . S
C2628 C2627 1.366 . S
C2628 C2632 1.385 . S
C2629 H2604 0.951 . S
C2629 C2627 1.388 . S
C2629 C2630 1.366 . S
C2630 C2629 1.366 . S
C2630 C2631 1.414 . S
C2630 C2633 1.499 . S
C2631 H2605 0.950 . S
C2631 C2630 1.414 . S
C2631 C2632 1.374 . S
C2632 H2606 0.950 . S
C2632 C2628 1.385 . S
C2632 C2631 1.374 . S
C2633 C2630 1.499 . S
C2633 C2634 1.373 . S
C2633 C2635 1.389 . S
C2634 H2607 0.950 . S
C2634 C2620 1.377 . S
C2634 C2633 1.373 . S
C2635 C2619 1.377 . S
C2635 C2633 1.389 . S
C2635 C2636 1.524 . S
C2636 C2635 1.524 . S
C2636 C2637 1.397 . S
C2636 C2641 1.363 . S
C2637 H2608 0.950 . S
C2637 C2636 1.397 . S
C2637 C2638 1.334 . S
C2638 H2609 0.950 . S
C2638 C2637 1.334 . S
C2638 C2639 1.287 . S
C2639 C2638 1.287 . S
C2639 C2640 1.524 . S
C2639 H2642 0.999 . S
C2640 H2610 0.950 . S
C2640 C2639 1.524 . S
C2640 C2641 1.415 . S
C2641 H2611 0.950 . S
C2641 C2636 1.363 . S
C2641 C2640 1.415 . S
H2642 C2639 0.999 . S
H2643 C2624 0.913 . S
H2644 C2662 0.951 . S
H2645 C2664 0.951 . S
H2646 C2666 0.950 . S
H2647 C2667 0.950 . S
H2648 C2669 0.950 . S
H2649 C2672 0.950 . S
H2650 C2673 0.950 . S
H2651 C2675 0.950 . S
H2652 C2676 0.950 . S
H2653 C2677 0.951 . S
H2654 C2679 0.951 . S
H2655 C2681 0.950 . S
H2656 C2682 0.950 . S
H2657 C2684 0.950 . S
H2658 C2687 0.950 . S
H2659 C2688 0.950 . S
H2660 C2690 0.950 . S
H2661 C2691 0.950 . S
C2662 H2644 0.951 . S
C2662 C2663 1.366 . S
C2662 C2664 1.388 . S
C2663 C2662 1.366 . S
C2663 C2667 1.385 . S
C2664 H2645 0.951 . S
C2664 C2662 1.388 . S
C2664 C2665 1.366 . S
C2665 C2664 1.366 . S
C2665 C2666 1.414 . S
C2665 C2668 1.499 . S
C2666 H2646 0.950 . S
C2666 C2665 1.414 . S
C2666 C2667 1.374 . S
C2667 H2647 0.950 . S
C2667 C2663 1.385 . S
C2667 C2666 1.374 . S
C2668 C2665 1.499 . S
C2668 C2669 1.373 . S
C2668 C2670 1.389 . S
C2669 H2648 0.950 . S
C2669 C2668 1.373 . S
C2669 C2685 1.377 . S
C2670 C2668 1.389 . S
C2670 C2671 1.524 . S
C2670 C2684 1.377 . S
C2671 C2670 1.524 . S
C2671 C2672 1.397 . S
C2671 C2676 1.363 . S
C2672 H2649 0.950 . S
C2672 C2671 1.397 . S
C2672 C2673 1.334 . S
C2673 H2650 0.950 . S
C2673 C2672 1.334 . S
C2673 C2674 1.287 . S
C2674 C2673 1.287 . S
C2674 C2675 1.524 . S
C2674 H2693 0.913 . S
C2675 H2651 0.950 . S
C2675 C2674 1.524 . S
C2675 C2676 1.415 . S
C2676 H2652 0.950 . S
C2676 C2671 1.363 . S
C2676 C2675 1.415 . S
C2677 H2653 0.951 . S
C2677 C2678 1.366 . S
C2677 C2679 1.388 . S
C2678 C2677 1.366 . S
C2678 C2682 1.385 . S
C2679 H2654 0.951 . S
C2679 C2677 1.388 . S
C2679 C2680 1.366 . S
C2680 C2679 1.366 . S
C2680 C2681 1.414 . S
C2680 C2683 1.499 . S
C2681 H2655 0.950 . S
C2681 C2680 1.414 . S
C2681 C2682 1.374 . S
C2682 H2656 0.950 . S
C2682 C2678 1.385 . S
C2682 C2681 1.374 . S
C2683 C2680 1.499 . S
C2683 C2684 1.373 . S
C2683 C2685 1.389 . S
C2684 H2657 0.950 . S
C2684 C2670 1.377 . S
C2684 C2683 1.373 . S
C2685 C2669 1.377 . S
C2685 C2683 1.389 . S
C2685 C2686 1.524 . S
C2686 C2685 1.524 . S
C2686 C2687 1.397 . S
C2686 C2691 1.363 . S
C2687 H2658 0.950 . S
C2687 C2686 1.397 . S
C2687 C2688 1.334 . S
C2688 H2659 0.950 . S
C2688 C2687 1.334 . S
C2688 C2689 1.287 . S
C2689 C2688 1.287 . S
C2689 C2690 1.524 . S
C2689 H2692 0.999 . S
C2690 H2660 0.950 . S
C2690 C2689 1.524 . S
C2690 C2691 1.415 . S
C2691 H2661 0.950 . S
C2691 C2686 1.363 . S
C2691 C2690 1.415 . S
H2692 C2689 0.999 . S
H2693 C2674 0.913 . S
H2694 C2712 0.951 . S
H2695 C2714 0.951 . S
H2696 C2716 0.950 . S
H2697 C2717 0.950 . S
H2698 C2719 0.950 . S
H2699 C2722 0.950 . S
H2700 C2723 0.950 . S
H2701 C2725 0.950 . S
H2702 C2726 0.950 . S
H2703 C2727 0.951 . S
H2704 C2729 0.951 . S
H2705 C2731 0.950 . S
H2706 C2732 0.950 . S
H2707 C2734 0.950 . S
H2708 C2737 0.950 . S
H2709 C2738 0.950 . S
H2710 C2740 0.950 . S
H2711 C2741 0.950 . S
C2712 H2694 0.951 . S
C2712 C2713 1.366 . S
C2712 C2714 1.388 . S
C2713 C2712 1.366 . S
C2713 C2717 1.385 . S
C2714 H2695 0.951 . S
C2714 C2712 1.388 . S
C2714 C2715 1.366 . S
C2715 C2714 1.366 . S
C2715 C2716 1.414 . S
C2715 C2718 1.499 . S
C2716 H2696 0.950 . S
C2716 C2715 1.414 . S
C2716 C2717 1.374 . S
C2717 H2697 0.950 . S
C2717 C2713 1.385 . S
C2717 C2716 1.374 . S
C2718 C2715 1.499 . S
C2718 C2719 1.373 . S
C2718 C2720 1.389 . S
C2719 H2698 0.950 . S
C2719 C2718 1.373 . S
C2719 C2735 1.377 . S
C2720 C2718 1.389 . S
C2720 C2721 1.524 . S
C2720 C2734 1.377 . S
C2721 C2720 1.524 . S
C2721 C2722 1.397 . S
C2721 C2726 1.363 . S
C2722 H2699 0.950 . S
C2722 C2721 1.397 . S
C2722 C2723 1.334 . S
C2723 H2700 0.950 . S
C2723 C2722 1.334 . S
C2723 C2724 1.287 . S
C2724 C2723 1.287 . S
C2724 C2725 1.524 . S
C2724 H2743 0.913 . S
C2725 H2701 0.950 . S
C2725 C2724 1.524 . S
C2725 C2726 1.415 . S
C2726 H2702 0.950 . S
C2726 C2721 1.363 . S
C2726 C2725 1.415 . S
C2727 H2703 0.951 . S
C2727 C2728 1.366 . S
C2727 C2729 1.388 . S
C2728 C2727 1.366 . S
C2728 C2732 1.385 . S
C2729 H2704 0.951 . S
C2729 C2727 1.388 . S
C2729 C2730 1.366 . S
C2730 C2729 1.366 . S
C2730 C2731 1.414 . S
C2730 C2733 1.499 . S
C2731 H2705 0.950 . S
C2731 C2730 1.414 . S
C2731 C2732 1.374 . S
C2732 H2706 0.950 . S
C2732 C2728 1.385 . S
C2732 C2731 1.374 . S
C2733 C2730 1.499 . S
C2733 C2734 1.373 . S
C2733 C2735 1.389 . S
C2734 H2707 0.950 . S
C2734 C2720 1.377 . S
C2734 C2733 1.373 . S
C2735 C2719 1.377 . S
C2735 C2733 1.389 . S
C2735 C2736 1.524 . S
C2736 C2735 1.524 . S
C2736 C2737 1.397 . S
C2736 C2741 1.363 . S
C2737 H2708 0.950 . S
C2737 C2736 1.397 . S
C2737 C2738 1.334 . S
C2738 H2709 0.950 . S
C2738 C2737 1.334 . S
C2738 C2739 1.287 . S
C2739 C2738 1.287 . S
C2739 C2740 1.524 . S
C2739 H2742 0.999 . S
C2740 H2710 0.950 . S
C2740 C2739 1.524 . S
C2740 C2741 1.415 . S
C2741 H2711 0.950 . S
C2741 C2736 1.363 . S
C2741 C2740 1.415 . S
H2742 C2739 0.999 . S
H2743 C2724 0.913 . S
H2744 C2762 0.951 . S
H2745 C2764 0.951 . S
H2746 C2766 0.950 . S
H2747 C2767 0.950 . S
H2748 C2769 0.950 . S
H2749 C2772 0.950 . S
H2750 C2773 0.950 . S
H2751 C2775 0.950 . S
H2752 C2776 0.950 . S
H2753 C2777 0.951 . S
H2754 C2779 0.951 . S
H2755 C2781 0.950 . S
H2756 C2782 0.950 . S
H2757 C2784 0.950 . S
H2758 C2787 0.950 . S
H2759 C2788 0.950 . S
H2760 C2790 0.950 . S
H2761 C2791 0.950 . S
C2762 H2744 0.951 . S
C2762 C2763 1.366 . S
C2762 C2764 1.388 . S
C2763 C2762 1.366 . S
C2763 C2767 1.385 . S
C2764 H2745 0.951 . S
C2764 C2762 1.388 . S
C2764 C2765 1.366 . S
C2765 C2764 1.366 . S
C2765 C2766 1.414 . S
C2765 C2768 1.499 . S
C2766 H2746 0.950 . S
C2766 C2765 1.414 . S
C2766 C2767 1.374 . S
C2767 H2747 0.950 . S
C2767 C2763 1.385 . S
C2767 C2766 1.374 . S
C2768 C2765 1.499 . S
C2768 C2769 1.373 . S
C2768 C2770 1.389 . S
C2769 H2748 0.950 . S
C2769 C2768 1.373 . S
C2769 C2785 1.377 . S
C2770 C2768 1.389 . S
C2770 C2771 1.524 . S
C2770 C2784 1.377 . S
C2771 C2770 1.524 . S
C2771 C2772 1.397 . S
C2771 C2776 1.363 . S
C2772 H2749 0.950 . S
C2772 C2771 1.397 . S
C2772 C2773 1.334 . S
C2773 H2750 0.950 . S
C2773 C2772 1.334 . S
C2773 C2774 1.287 . S
C2774 C2773 1.287 . S
C2774 C2775 1.524 . S
C2774 H2793 0.913 . S
C2775 H2751 0.950 . S
C2775 C2774 1.524 . S
C2775 C2776 1.415 . S
C2776 H2752 0.950 . S
C2776 C2771 1.363 . S
C2776 C2775 1.415 . S
C2777 H2753 0.951 . S
C2777 C2778 1.366 . S
C2777 C2779 1.388 . S
C2778 C2777 1.366 . S
C2778 C2782 1.385 . S
C2779 H2754 0.951 . S
C2779 C2777 1.388 . S
C2779 C2780 1.366 . S
C2780 C2779 1.366 . S
C2780 C2781 1.414 . S
C2780 C2783 1.499 . S
C2781 H2755 0.950 . S
C2781 C2780 1.414 . S
C2781 C2782 1.374 . S
C2782 H2756 0.950 . S
C2782 C2778 1.385 . S
C2782 C2781 1.374 . S
C2783 C2780 1.499 . S
C2783 C2784 1.373 . S
C2783 C2785 1.389 . S
C2784 H2757 0.950 . S
C2784 C2770 1.377 . S
C2784 C2783 1.373 . S
C2785 C2769 1.377 . S
C2785 C2783 1.389 . S
C2785 C2786 1.524 . S
C2786 C2785 1.524 . S
C2786 C2787 1.397 . S
C2786 C2791 1.363 . S
C2787 H2758 0.950 . S
C2787 C2786 1.397 . S
C2787 C2788 1.334 . S
C2788 H2759 0.950 . S
C2788 C2787 1.334 . S
C2788 C2789 1.287 . S
C2789 C2788 1.287 . S
C2789 C2790 1.524 . S
C2789 H2792 0.999 . S
C2790 H2760 0.950 . S
C2790 C2789 1.524 . S
C2790 C2791 1.415 . S
C2791 H2761 0.950 . S
C2791 C2786 1.363 . S
C2791 C2790 1.415 . S
H2792 C2789 0.999 . S
H2793 C2774 0.913 . S
H2794 C2812 0.951 . S
H2795 C2814 0.951 . S
H2796 C2816 0.950 . S
H2797 C2817 0.950 . S
H2798 C2819 0.950 . S
H2799 C2822 0.950 . S
H2800 C2823 0.950 . S
H2801 C2825 0.950 . S
H2802 C2826 0.950 . S
H2803 C2827 0.951 . S
H2804 C2829 0.951 . S
H2805 C2831 0.950 . S
H2806 C2832 0.950 . S
H2807 C2834 0.950 . S
H2808 C2837 0.950 . S
H2809 C2838 0.950 . S
H2810 C2840 0.950 . S
H2811 C2841 0.950 . S
C2812 H2794 0.951 . S
C2812 C2813 1.366 . S
C2812 C2814 1.388 . S
C2813 C2812 1.366 . S
C2813 C2817 1.385 . S
C2814 H2795 0.951 . S
C2814 C2812 1.388 . S
C2814 C2815 1.366 . S
C2815 C2814 1.366 . S
C2815 C2816 1.414 . S
C2815 C2818 1.499 . S
C2816 H2796 0.950 . S
C2816 C2815 1.414 . S
C2816 C2817 1.374 . S
C2817 H2797 0.950 . S
C2817 C2813 1.385 . S
C2817 C2816 1.374 . S
C2818 C2815 1.499 . S
C2818 C2819 1.373 . S
C2818 C2820 1.389 . S
C2819 H2798 0.950 . S
C2819 C2818 1.373 . S
C2819 C2835 1.377 . S
C2820 C2818 1.389 . S
C2820 C2821 1.524 . S
C2820 C2834 1.377 . S
C2821 C2820 1.524 . S
C2821 C2822 1.397 . S
C2821 C2826 1.363 . S
C2822 H2799 0.950 . S
C2822 C2821 1.397 . S
C2822 C2823 1.334 . S
C2823 H2800 0.950 . S
C2823 C2822 1.334 . S
C2823 C2824 1.287 . S
C2824 C2823 1.287 . S
C2824 C2825 1.524 . S
C2824 H2843 0.913 . S
C2825 H2801 0.950 . S
C2825 C2824 1.524 . S
C2825 C2826 1.415 . S
C2826 H2802 0.950 . S
C2826 C2821 1.363 . S
C2826 C2825 1.415 . S
C2827 H2803 0.951 . S
C2827 C2828 1.366 . S
C2827 C2829 1.388 . S
C2828 C2827 1.366 . S
C2828 C2832 1.385 . S
C2829 H2804 0.951 . S
C2829 C2827 1.388 . S
C2829 C2830 1.366 . S
C2830 C2829 1.366 . S
C2830 C2831 1.414 . S
C2830 C2833 1.499 . S
C2831 H2805 0.950 . S
C2831 C2830 1.414 . S
C2831 C2832 1.374 . S
C2832 H2806 0.950 . S
C2832 C2828 1.385 . S
C2832 C2831 1.374 . S
C2833 C2830 1.499 . S
C2833 C2834 1.373 . S
C2833 C2835 1.389 . S
C2834 H2807 0.950 . S
C2834 C2820 1.377 . S
C2834 C2833 1.373 . S
C2835 C2819 1.377 . S
C2835 C2833 1.389 . S
C2835 C2836 1.524 . S
C2836 C2835 1.524 . S
C2836 C2837 1.397 . S
C2836 C2841 1.363 . S
C2837 H2808 0.950 . S
C2837 C2836 1.397 . S
C2837 C2838 1.334 . S
C2838 H2809 0.950 . S
C2838 C2837 1.334 . S
C2838 C2839 1.287 . S
C2839 C2838 1.287 . S
C2839 C2840 1.524 . S
C2839 H2842 0.999 . S
C2840 H2810 0.950 . S
C2840 C2839 1.524 . S
C2840 C2841 1.415 . S
C2841 H2811 0.950 . S
C2841 C2836 1.363 . S
C2841 C2840 1.415 . S
H2842 C2839 0.999 . S
H2843 C2824 0.913 . S
H2844 C2862 0.951 . S
H2845 C2864 0.951 . S
H2846 C2866 0.950 . S
H2847 C2867 0.950 . S
H2848 C2869 0.950 . S
H2849 C2872 0.950 . S
H2850 C2873 0.950 . S
H2851 C2875 0.950 . S
H2852 C2876 0.950 . S
H2853 C2877 0.951 . S
H2854 C2879 0.951 . S
H2855 C2881 0.950 . S
H2856 C2882 0.950 . S
H2857 C2884 0.950 . S
H2858 C2887 0.950 . S
H2859 C2888 0.950 . S
H2860 C2890 0.950 . S
H2861 C2891 0.950 . S
C2862 H2844 0.951 . S
C2862 C2863 1.366 . S
C2862 C2864 1.388 . S
C2863 C2862 1.366 . S
C2863 C2867 1.385 . S
C2864 H2845 0.951 . S
C2864 C2862 1.388 . S
C2864 C2865 1.366 . S
C2865 C2864 1.366 . S
C2865 C2866 1.414 . S
C2865 C2868 1.499 . S
C2866 H2846 0.950 . S
C2866 C2865 1.414 . S
C2866 C2867 1.374 . S
C2867 H2847 0.950 . S
C2867 C2863 1.385 . S
C2867 C2866 1.374 . S
C2868 C2865 1.499 . S
C2868 C2869 1.373 . S
C2868 C2870 1.389 . S
C2869 H2848 0.950 . S
C2869 C2868 1.373 . S
C2869 C2885 1.377 . S
C2870 C2868 1.389 . S
C2870 C2871 1.524 . S
C2870 C2884 1.377 . S
C2871 C2870 1.524 . S
C2871 C2872 1.397 . S
C2871 C2876 1.363 . S
C2872 H2849 0.950 . S
C2872 C2871 1.397 . S
C2872 C2873 1.334 . S
C2873 H2850 0.950 . S
C2873 C2872 1.334 . S
C2873 C2874 1.287 . S
C2874 C2873 1.287 . S
C2874 C2875 1.524 . S
C2874 H2893 0.913 . S
C2875 H2851 0.950 . S
C2875 C2874 1.524 . S
C2875 C2876 1.415 . S
C2876 H2852 0.950 . S
C2876 C2871 1.363 . S
C2876 C2875 1.415 . S
C2877 H2853 0.951 . S
C2877 C2878 1.366 . S
C2877 C2879 1.388 . S
C2878 C2877 1.366 . S
C2878 C2882 1.385 . S
C2879 H2854 0.951 . S
C2879 C2877 1.388 . S
C2879 C2880 1.366 . S
C2880 C2879 1.366 . S
C2880 C2881 1.414 . S
C2880 C2883 1.499 . S
C2881 H2855 0.950 . S
C2881 C2880 1.414 . S
C2881 C2882 1.374 . S
C2882 H2856 0.950 . S
C2882 C2878 1.385 . S
C2882 C2881 1.374 . S
C2883 C2880 1.499 . S
C2883 C2884 1.373 . S
C2883 C2885 1.389 . S
C2884 H2857 0.950 . S
C2884 C2870 1.377 . S
C2884 C2883 1.373 . S
C2885 C2869 1.377 . S
C2885 C2883 1.389 . S
C2885 C2886 1.524 . S
C2886 C2885 1.524 . S
C2886 C2887 1.397 . S
C2886 C2891 1.363 . S
C2887 H2858 0.950 . S
C2887 C2886 1.397 . S
C2887 C2888 1.334 . S
C2888 H2859 0.950 . S
C2888 C2887 1.334 . S
C2888 C2889 1.287 . S
C2889 C2888 1.287 . S
C2889 C2890 1.524 . S
C2889 H2892 0.999 . S
C2890 H2860 0.950 . S
C2890 C2889 1.524 . S
C2890 C2891 1.415 . S
C2891 H2861 0.950 . S
C2891 C2886 1.363 . S
C2891 C2890 1.415 . S
H2892 C2889 0.999 . S
H2893 C2874 0.913 . S
H2894 C2912 0.951 . S
H2895 C2914 0.951 . S
H2896 C2916 0.950 . S
H2897 C2917 0.950 . S
H2898 C2919 0.950 . S
H2899 C2922 0.950 . S
H2900 C2923 0.950 . S
H2901 C2925 0.950 . S
H2902 C2926 0.950 . S
H2903 C2927 0.951 . S
H2904 C2929 0.951 . S
H2905 C2931 0.950 . S
H2906 C2932 0.950 . S
H2907 C2934 0.950 . S
H2908 C2937 0.950 . S
H2909 C2938 0.950 . S
H2910 C2940 0.950 . S
H2911 C2941 0.950 . S
C2912 H2894 0.951 . S
C2912 C2913 1.366 . S
C2912 C2914 1.388 . S
C2913 C2912 1.366 . S
C2913 C2917 1.385 . S
C2914 H2895 0.951 . S
C2914 C2912 1.388 . S
C2914 C2915 1.366 . S
C2915 C2914 1.366 . S
C2915 C2916 1.414 . S
C2915 C2918 1.499 . S
C2916 H2896 0.950 . S
C2916 C2915 1.414 . S
C2916 C2917 1.374 . S
C2917 H2897 0.950 . S
C2917 C2913 1.385 . S
C2917 C2916 1.374 . S
C2918 C2915 1.499 . S
C2918 C2919 1.373 . S
C2918 C2920 1.389 . S
C2919 H2898 0.950 . S
C2919 C2918 1.373 . S
C2919 C2935 1.377 . S
C2920 C2918 1.389 . S
C2920 C2921 1.524 . S
C2920 C2934 1.377 . S
C2921 C2920 1.524 . S
C2921 C2922 1.397 . S
C2921 C2926 1.363 . S
C2922 H2899 0.950 . S
C2922 C2921 1.397 . S
C2922 C2923 1.334 . S
C2923 H2900 0.950 . S
C2923 C2922 1.334 . S
C2923 C2924 1.287 . S
C2924 C2923 1.287 . S
C2924 C2925 1.524 . S
C2924 H2943 0.913 . S
C2925 H2901 0.950 . S
C2925 C2924 1.524 . S
C2925 C2926 1.415 . S
C2926 H2902 0.950 . S
C2926 C2921 1.363 . S
C2926 C2925 1.415 . S
C2927 H2903 0.951 . S
C2927 C2928 1.366 . S
C2927 C2929 1.388 . S
C2928 C2927 1.366 . S
C2928 C2932 1.385 . S
C2929 H2904 0.951 . S
C2929 C2927 1.388 . S
C2929 C2930 1.366 . S
C2930 C2929 1.366 . S
C2930 C2931 1.414 . S
C2930 C2933 1.499 . S
C2931 H2905 0.950 . S
C2931 C2930 1.414 . S
C2931 C2932 1.374 . S
C2932 H2906 0.950 . S
C2932 C2928 1.385 . S
C2932 C2931 1.374 . S
C2933 C2930 1.499 . S
C2933 C2934 1.373 . S
C2933 C2935 1.389 . S
C2934 H2907 0.950 . S
C2934 C2920 1.377 . S
C2934 C2933 1.373 . S
C2935 C2919 1.377 . S
C2935 C2933 1.389 . S
C2935 C2936 1.524 . S
C2936 C2935 1.524 . S
C2936 C2937 1.397 . S
C2936 C2941 1.363 . S
C2937 H2908 0.950 . S
C2937 C2936 1.397 . S
C2937 C2938 1.334 . S
C2938 H2909 0.950 . S
C2938 C2937 1.334 . S
C2938 C2939 1.287 . S
C2939 C2938 1.287 . S
C2939 C2940 1.524 . S
C2939 H2942 0.999 . S
C2940 H2910 0.950 . S
C2940 C2939 1.524 . S
C2940 C2941 1.415 . S
C2941 H2911 0.950 . S
C2941 C2936 1.363 . S
C2941 C2940 1.415 . S
H2942 C2939 0.999 . S
H2943 C2924 0.913 . S
H2944 C2962 0.951 . S
H2945 C2964 0.951 . S
H2946 C2966 0.950 . S
H2947 C2967 0.950 . S
H2948 C2969 0.950 . S
H2949 C2972 0.950 . S
H2950 C2973 0.950 . S
H2951 C2975 0.950 . S
H2952 C2976 0.950 . S
H2953 C2977 0.951 . S
H2954 C2979 0.951 . S
H2955 C2981 0.950 . S
H2956 C2982 0.950 . S
H2957 C2984 0.950 . S
H2958 C2987 0.950 . S
H2959 C2988 0.950 . S
H2960 C2990 0.950 . S
H2961 C2991 0.950 . S
C2962 H2944 0.951 . S
C2962 C2963 1.366 . S
C2962 C2964 1.388 . S
C2963 C2962 1.366 . S
C2963 C2967 1.385 . S
C2964 H2945 0.951 . S
C2964 C2962 1.388 . S
C2964 C2965 1.366 . S
C2965 C2964 1.366 . S
C2965 C2966 1.414 . S
C2965 C2968 1.499 . S
C2966 H2946 0.950 . S
C2966 C2965 1.414 . S
C2966 C2967 1.374 . S
C2967 H2947 0.950 . S
C2967 C2963 1.385 . S
C2967 C2966 1.374 . S
C2968 C2965 1.499 . S
C2968 C2969 1.373 . S
C2968 C2970 1.389 . S
C2969 H2948 0.950 . S
C2969 C2968 1.373 . S
C2969 C2985 1.377 . S
C2970 C2968 1.389 . S
C2970 C2971 1.524 . S
C2970 C2984 1.377 . S
C2971 C2970 1.524 . S
C2971 C2972 1.397 . S
C2971 C2976 1.363 . S
C2972 H2949 0.950 . S
C2972 C2971 1.397 . S
C2972 C2973 1.334 . S
C2973 H2950 0.950 . S
C2973 C2972 1.334 . S
C2973 C2974 1.287 . S
C2974 C2973 1.287 . S
C2974 C2975 1.524 . S
C2974 H2993 0.913 . S
C2975 H2951 0.950 . S
C2975 C2974 1.524 . S
C2975 C2976 1.415 . S
C2976 H2952 0.950 . S
C2976 C2971 1.363 . S
C2976 C2975 1.415 . S
C2977 H2953 0.951 . S
C2977 C2978 1.366 . S
C2977 C2979 1.388 . S
C2978 C2977 1.366 . S
C2978 C2982 1.385 . S
C2979 H2954 0.951 . S
C2979 C2977 1.388 . S
C2979 C2980 1.366 . S
C2980 C2979 1.366 . S
C2980 C2981 1.414 . S
C2980 C2983 1.499 . S
C2981 H2955 0.950 . S
C2981 C2980 1.414 . S
C2981 C2982 1.374 . S
C2982 H2956 0.950 . S
C2982 C2978 1.385 . S
C2982 C2981 1.374 . S
C2983 C2980 1.499 . S
C2983 C2984 1.373 . S
C2983 C2985 1.389 . S
C2984 H2957 0.950 . S
C2984 C2970 1.377 . S
C2984 C2983 1.373 . S
C2985 C2969 1.377 . S
C2985 C2983 1.389 . S
C2985 C2986 1.524 . S
C2986 C2985 1.524 . S
C2986 C2987 1.397 . S
C2986 C2991 1.363 . S
C2987 H2958 0.950 . S
C2987 C2986 1.397 . S
C2987 C2988 1.334 . S
C2988 H2959 0.950 . S
C2988 C2987 1.334 . S
C2988 C2989 1.287 . S
C2989 C2988 1.287 . S
C2989 C2990 1.524 . S
C2989 H2992 0.999 1_655 S
C2990 H2960 0.950 . S
C2990 C2989 1.524 . S
C2990 C2991 1.415 . S
C2991 H2961 0.950 . S
C2991 C2986 1.363 . S
C2991 C2990 1.415 . S
H2992 C2989 0.999 1_455 S
H2993 C2974 0.913 . S
H2994 C3012 0.951 . S
H2995 C3014 0.951 . S
H2996 C3016 0.950 . S
H2997 C3017 0.950 . S
H2998 C3019 0.950 . S
H2999 C3022 0.950 . S
H3000 C3023 0.950 . S
H3001 C3025 0.950 . S
H3002 C3026 0.950 . S
H3003 C3027 0.951 . S
H3004 C3029 0.951 . S
H3005 C3031 0.950 . S
H3006 C3032 0.950 . S
H3007 C3034 0.950 . S
H3008 C3037 0.950 . S
H3009 C3038 0.950 . S
H3010 C3040 0.950 . S
H3011 C3041 0.950 . S
C3012 H2994 0.951 . S
C3012 C3013 1.366 . S
C3012 C3014 1.388 . S
C3013 C3012 1.366 . S
C3013 C3017 1.385 . S
C3014 H2995 0.951 . S
C3014 C3012 1.388 . S
C3014 C3015 1.366 . S
C3015 C3014 1.366 . S
C3015 C3016 1.414 . S
C3015 C3018 1.499 . S
C3016 H2996 0.950 . S
C3016 C3015 1.414 . S
C3016 C3017 1.374 . S
C3017 H2997 0.950 . S
C3017 C3013 1.385 . S
C3017 C3016 1.374 . S
C3018 C3015 1.499 . S
C3018 C3019 1.373 . S
C3018 C3020 1.389 . S
C3019 H2998 0.950 . S
C3019 C3018 1.373 . S
C3019 C3035 1.377 . S
C3020 C3018 1.389 . S
C3020 C3021 1.524 . S
C3020 C3034 1.377 . S
C3021 C3020 1.524 . S
C3021 C3022 1.397 . S
C3021 C3026 1.363 . S
C3022 H2999 0.950 . S
C3022 C3021 1.397 . S
C3022 C3023 1.334 . S
C3023 H3000 0.950 . S
C3023 C3022 1.334 . S
C3023 C3024 1.287 . S
C3024 C3023 1.287 . S
C3024 C3025 1.524 . S
C3024 H3043 0.913 . S
C3025 H3001 0.950 . S
C3025 C3024 1.524 . S
C3025 C3026 1.415 . S
C3026 H3002 0.950 . S
C3026 C3021 1.363 . S
C3026 C3025 1.415 . S
C3027 H3003 0.951 . S
C3027 C3028 1.366 . S
C3027 C3029 1.388 . S
C3028 C3027 1.366 . S
C3028 C3032 1.385 . S
C3029 H3004 0.951 . S
C3029 C3027 1.388 . S
C3029 C3030 1.366 . S
C3030 C3029 1.366 . S
C3030 C3031 1.414 . S
C3030 C3033 1.499 . S
C3031 H3005 0.950 . S
C3031 C3030 1.414 . S
C3031 C3032 1.374 . S
C3032 H3006 0.950 . S
C3032 C3028 1.385 . S
C3032 C3031 1.374 . S
C3033 C3030 1.499 . S
C3033 C3034 1.373 . S
C3033 C3035 1.389 . S
C3034 H3007 0.950 . S
C3034 C3020 1.377 . S
C3034 C3033 1.373 . S
C3035 C3019 1.377 . S
C3035 C3033 1.389 . S
C3035 C3036 1.524 . S
C3036 C3035 1.524 . S
C3036 C3037 1.397 . S
C3036 C3041 1.363 . S
C3037 H3008 0.950 . S
C3037 C3036 1.397 . S
C3037 C3038 1.334 . S
C3038 H3009 0.950 . S
C3038 C3037 1.334 . S
C3038 C3039 1.287 . S
C3039 C3038 1.287 . S
C3039 C3040 1.524 . S
C3039 H3042 0.999 . S
C3040 H3010 0.950 . S
C3040 C3039 1.524 . S
C3040 C3041 1.415 . S
C3041 H3011 0.950 . S
C3041 C3036 1.363 . S
C3041 C3040 1.415 . S
H3042 C3039 0.999 . S
H3043 C3024 0.913 . S
C678 C355 1.155 . S
C663 C2 1.137 . S
C728 C333 0.610 . S
C713 C65 0.587 . S
C778 C330 0.580 . S
C763 C82 0.581 . S
C813 C145 1.074 . S
C828 C342 1.041 . S
C863 C164 0.315 . S
C878 C325 0.401 . S
C928 C347 0.542 . S
C913 C223 0.547 . S
C963 C244 1.359 . S
C978 C352 1.313 . S
C1013 C282 1.119 . S
C1028 C348 1.140 . S
C1078 C406 3.510 . S
C1063 C31 3.544 . S
C1113 C60 1.421 . S
C1128 C456 1.447 . S
C1178 C379 3.666 . S
C1163 C111 3.681 . S
C1228 C455 0.734 . S
C1213 C140 0.729 . S
C1263 C162 0.764 . S
C1278 C384 0.768 . S
C1328 C450 1.548 . S
C1313 C225 1.566 . S
C1363 C242 1.475 . S
C1378 C409 1.502 . S
C1413 C311 2.682 . S
C1428 C441 2.671 . S
C1463 C4 1.256 . S
C1478 C433 1.236 . S
C1513 C191 0.831 . S
C1528 C463 0.841 . S
C1578 C387 3.128 1_556 S
C1563 C220 3.171 . S
C1628 C438 0.384 . S
C1613 C271 0.451 . S
C1663 C284 1.891 . S
C1678 C396 1.849 1_556 S
C1713 C84 1.095 . S
C1728 C460 1.068 . S
C1778 C402 0.880 . S
C1763 C143 0.869 . S
C1813 C63 0.492 . S
C1828 C401 0.428 . S
C1863 C303 1.117 . S
C1878 C517 1.138 . S
C1913 C185 0.314 . S
C1928 C495 0.396 . S
C1978 C492 0.545 . S
C1963 C202 0.550 . S
C2028 C504 1.308 . S
C2013 C265 1.356 . S
C2063 C44 0.588 . S
C2078 C487 0.611 . S
C2128 C509 0.577 . S
C2113 C103 0.579 . S
C2163 C124 1.077 . S
C2178 C514 1.045 . S
C2213 C23 1.134 . S
C2228 C510 1.152 . S
C2263 C305 1.886 . S
C2278 C568 1.850 . S
C2328 C618 0.827 . S
C2313 C180 0.821 . S
C2363 C231 3.159 . S
C2378 C541 3.111 . S
C2413 C260 0.432 . S
C2428 C617 0.366 . S
C2478 C546 0.412 . S
C2463 C42 0.481 . S
C2513 C105 1.079 . S
C2528 C612 1.053 . S
C2578 C571 0.869 . S
C2563 C122 0.859 . S
C2628 C603 1.227 . S
C2613 C25 1.247 . S
C2678 C595 2.675 . S
C2663 C300 2.688 . S
C2713 C71 1.430 . S
C2728 C625 1.461 . S
C2763 C100 3.694 . S
C2778 C549 3.683 . S
C2828 C600 0.748 . S
C2813 C151 0.749 . S
C2863 C20 3.548 . S
C2878 C558 3.511 . S
C2913 C204 1.578 . S
C2928 C622 1.567 . S
C2978 C564 1.512 . S
C2963 C263 1.486 . S
C3028 C563 0.779 . S
C3013 C183 0.777 . S
