# Generated by pormake.
# Topology nia, (6,6)-cn, num edge types: 1
# Building blocks:
#     Node 0, Type 0, BuildingBlock: GEDQOX_clean_sbu_0, # of connection points: 6
#     Node 1, Type 0, BuildingBlock: GEDQOX_clean_sbu_0, # of connection points: 6
#     Node 2, Type 1, BuildingBlock: MIDCAF_clean_sbu_0, # of connection points: 6
#     Node 3, Type 1, BuildingBlock: MIDCAF_clean_sbu_0, # of connection points: 6
#     Edge 4, Type (0, 1), BuildingBlock: ZUJKAS_clean_linker_0, # of connection points: 2
#     Edge 5, Type (0, 1), BuildingBlock: ZUJKAS_clean_linker_0, # of connection points: 2
#     Edge 6, Type (0, 1), BuildingBlock: ZUJKAS_clean_linker_0, # of connection points: 2
#     Edge 7, Type (0, 1), BuildingBlock: ZUJKAS_clean_linker_0, # of connection points: 2
#     Edge 8, Type (0, 1), BuildingBlock: ZUJKAS_clean_linker_0, # of connection points: 2
#     Edge 9, Type (0, 1), BuildingBlock: ZUJKAS_clean_linker_0, # of connection points: 2
#     Edge 10, Type (0, 1), BuildingBlock: ZUJKAS_clean_linker_0, # of connection points: 2
#     Edge 11, Type (0, 1), BuildingBlock: ZUJKAS_clean_linker_0, # of connection points: 2
#     Edge 12, Type (0, 1), BuildingBlock: ZUJKAS_clean_linker_0, # of connection points: 2
#     Edge 13, Type (0, 1), BuildingBlock: ZUJKAS_clean_linker_0, # of connection points: 2
#     Edge 14, Type (0, 1), BuildingBlock: ZUJKAS_clean_linker_0, # of connection points: 2
#     Edge 15, Type (0, 1), BuildingBlock: ZUJKAS_clean_linker_0, # of connection points: 2
# Relax obj value: 0.271
# Max RMSD: 0.260
# Mean RMSD: 0.233
data_MOF--net-nia--node1-GEDQOX_clean_sbu_0--node2-MIDCAF_clean_sbu_0--edge1-ZUJKAS_clean_linker_0
_symmetry_space_group_name_H-M    P1
_symmetry_Int_Tables_number       1
_symmetry_cell_setting            triclinic
loop_
_symmetry_equiv_pos_as_xyz
'x, y, z'
_cell_length_a     34.392028
_cell_length_b     32.968731
_cell_length_c     43.621361
_cell_angle_alpha  100.6398
_cell_angle_beta   74.828775
_cell_angle_gamma 127.1039
loop_
_atom_site_label
_atom_site_type_symbol
_atom_site_fract_x
_atom_site_fract_y
_atom_site_fract_z
_atom_type_partial_charge
Nd0 Nd 0.01535 0.04782 0.99009 0.0
Nd1 Nd 0.01899 0.97463 0.02514 0.0
C2 C 0.03589 0.11706 0.95366 0.0
C3 C 0.0107 0.12858 0.93739 0.0
C4 C 0.01574 0.12285 0.90412 0.0
C5 C 0.99458 0.1361 0.88818 0.0
C6 C 0.96819 0.1559 0.90506 0.0
C7 C 0.96281 0.16124 0.93839 0.0
C8 C 0.98378 0.14777 0.95436 0.0
C9 C 0.92395 0.98689 0.03038 0.0
C10 C 0.04966 0.08204 0.0589 0.0
C11 C 0.00599 0.90156 0.05352 0.0
C12 C 0.02768 0.89087 0.07323 0.0
C13 C 0.99742 0.84489 0.08905 0.0
C14 C 0.01718 0.83186 0.10635 0.0
C15 C 0.06785 0.86457 0.10828 0.0
C16 C 0.09792 0.91142 0.09305 0.0
C17 C 0.07804 0.9244 0.0756 0.0
C18 C 0.10953 0.04995 0.99052 0.0
C19 C 0.97138 0.93423 0.95966 0.0
O20 O 0.02921 0.12145 0.98475 0.0
O21 O 0.03731 0.07822 0.94243 0.0
O22 O 0.93384 0.01985 0.01188 0.0
O23 O 0.9616 0.98683 0.02609 0.0
O24 O 0.05852 0.09723 0.03023 0.0
O25 O 0.02682 0.03378 0.0644 0.0
O26 O 0.02921 0.91412 0.02412 0.0
O27 O 0.98757 0.92701 0.06703 0.0
O28 O 0.10422 0.0339 0.01738 0.0
O29 O 0.06776 0.02484 0.98235 0.0
O30 O 0.97522 0.92231 0.9856 0.0
O31 O 0.9875 0.9807 0.95474 0.0
H32 H 0.03676 0.1088 0.89031 0.0
H33 H 9e-05 0.13209 0.8625 0.0
H34 H 0.94226 0.1758 0.95221 0.0
H35 H 0.97926 0.15292 0.97998 0.0
H36 H 0.95843 0.81856 0.08763 0.0
H37 H 0.99269 0.79592 0.11817 0.0
H38 H 0.13713 0.93739 0.09382 0.0
H39 H 0.10208 0.96014 0.06355 0.0
Nd40 Nd 0.98221 0.98427 0.492 0.0
Nd41 Nd 0.05358 0.03789 0.52913 0.0
C42 C 0.9141 0.94763 0.45729 0.0
C43 C 0.89499 0.96319 0.43893 0.0
C44 C 0.92433 0.99136 0.41129 0.0
C45 C 0.90281 0.99756 0.39112 0.0
C46 C 0.85177 0.97599 0.39836 0.0
C47 C 0.8234 0.95094 0.42713 0.0
C48 C 0.8448 0.94447 0.44714 0.0
C49 C 0.96737 0.91882 0.53346 0.0
C50 C 0.96821 0.05254 0.55121 0.0
C51 C 0.12108 0.07436 0.56437 0.0
C52 C 0.13815 0.05873 0.58435 0.0
C53 C 0.10706 0.03108 0.61197 0.0
C54 C 0.12665 0.02467 0.63348 0.0
C55 C 0.17747 0.0455 0.62762 0.0
C56 C 0.20759 0.0701 0.59894 0.0
C57 C 0.18812 0.07676 0.57759 0.0
C58 C 0.06892 0.10335 0.48751 0.0
C59 C 0.06789 0.96997 0.46933 0.0
O60 O 0.9581 0.95802 0.4458 0.0
O61 O 0.90532 0.9529 0.48822 0.0
O62 O 0.96363 0.90851 0.50394 0.0
O63 O 0.978 0.96294 0.54111 0.0
O64 O 0.96436 0.0393 0.52118 0.0
O65 O 0.99528 0.04597 0.56312 0.0
O66 O 0.07825 0.06702 0.57514 0.0
O67 O 0.12921 0.06601 0.53371 0.0
O68 O 0.07328 0.11399 0.51692 0.0
O69 O 0.05787 0.05904 0.48 0.0
O70 O 0.07318 0.98451 0.4991 0.0
O71 O 0.0392 0.97466 0.45786 0.0
H72 H 0.96333 0.00659 0.40445 0.0
H73 H 0.92558 0.01735 0.36922 0.0
H74 H 0.78382 0.93321 0.43319 0.0
H75 H 0.82142 0.92244 0.46822 0.0
H76 H 0.06818 0.01638 0.61768 0.0
H77 H 0.10253 0.00521 0.65527 0.0
H78 H 0.24705 0.08728 0.5939 0.0
H79 H 0.21279 0.09836 0.55654 0.0
Zn80 Zn 0.32187 0.62288 0.20703 0.0
Zn81 Zn 0.31535 0.65318 0.33087 0.0
Zn82 Zn 0.31981 0.63976 0.26815 0.0
C83 C 0.41596 0.71287 0.29919 0.0
C84 C 0.27383 0.54995 0.31959 0.0
O85 O 0.28155 0.66847 0.25525 0.0
O86 O 0.28 0.64469 0.20447 0.0
C87 C 0.42145 0.6905 0.21085 0.0
O88 O 0.39683 0.68972 0.27428 0.0
O89 O 0.38861 0.70614 0.32632 0.0
O90 O 0.28809 0.58321 0.34186 0.0
O91 O 0.28052 0.56332 0.29144 0.0
O92 O 0.39423 0.66751 0.19023 0.0
O93 O 0.40099 0.68464 0.24077 0.0
O94 O 0.27944 0.55645 0.25876 0.0
O95 O 0.29108 0.54939 0.20618 0.0
C96 C 0.27382 0.52911 0.23275 0.0
O97 O 0.28134 0.67769 0.28829 0.0
O98 O 0.27135 0.67637 0.34048 0.0
C99 C 0.26884 0.66537 0.22909 0.0
C100 C 0.26476 0.68712 0.31683 0.0
Zn101 Zn 0.71129 0.39515 0.81038 0.0
Zn102 Zn 0.70578 0.35811 0.68792 0.0
Zn103 Zn 0.71039 0.37719 0.74925 0.0
C104 C 0.75369 0.46393 0.69669 0.0
C105 C 0.60845 0.30318 0.72252 0.0
O106 O 0.74979 0.34853 0.76086 0.0
O107 O 0.74511 0.36441 0.81277 0.0
C108 C 0.76481 0.48905 0.78259 0.0
O109 O 0.74848 0.45259 0.72512 0.0
O110 O 0.73725 0.42884 0.67555 0.0
O111 O 0.63233 0.30914 0.6943 0.0
O112 O 0.63144 0.32638 0.74596 0.0
O113 O 0.75322 0.46991 0.80882 0.0
O114 O 0.75109 0.46049 0.7575 0.0
O115 O 0.63091 0.33426 0.77882 0.0
O116 O 0.6391 0.35889 0.82882 0.0
C117 C 0.61125 0.33274 0.80872 0.0
O118 O 0.74923 0.33967 0.72795 0.0
O119 O 0.74351 0.32786 0.67722 0.0
C120 C 0.75889 0.34705 0.78742 0.0
C121 C 0.75785 0.32342 0.69946 0.0
H122 H 0.04815 0.77054 0.10673 0.0
H123 H 0.08285 0.74382 0.13362 0.0
H124 H 0.17185 0.89542 0.17405 0.0
H125 H 0.13645 0.92245 0.14757 0.0
H126 H 0.18607 0.78716 0.12514 0.0
H127 H 0.10529 0.80207 0.25157 0.0
H128 H 0.07959 0.79832 0.21905 0.0
H129 H 0.13633 0.85633 0.22755 0.0
C130 C 0.0745 0.79815 0.12172 0.0
C131 C 0.08918 0.84865 0.1251 0.0
C132 C 0.09452 0.78281 0.13698 0.0
C133 C 0.12946 0.81735 0.15623 0.0
C134 C 0.14432 0.86783 0.15976 0.0
H135 H 0.28825 0.75836 0.25101 0.0
H136 H 0.25439 0.79878 0.23677 0.0
C137 C 0.12444 0.88336 0.14431 0.0
C138 C 0.15203 0.80062 0.17089 0.0
H139 H 0.15667 0.77419 0.24166 0.0
C140 C 0.1798 0.78457 0.15063 0.0
C141 C 0.14444 0.79785 0.20418 0.0
C142 C 0.11458 0.81422 0.22701 0.0
C143 C 0.1993 0.76495 0.16259 0.0
C144 C 0.18976 0.75985 0.19579 0.0
C145 C 0.16358 0.77765 0.21623 0.0
C146 C 0.2047 0.73363 0.20907 0.0
C147 C 0.23005 0.74982 0.13943 0.0
C148 C 0.18628 0.68291 0.19967 0.0
C149 C 0.20525 0.65994 0.20795 0.0
C150 C 0.24244 0.68676 0.22636 0.0
C151 C 0.25863 0.7364 0.2376 0.0
C152 C 0.23973 0.75966 0.22912 0.0
H153 H 0.24621 0.76982 0.11673 0.0
H154 H 0.26073 0.75822 0.14958 0.0
H155 H 0.20601 0.70832 0.13388 0.0
H156 H 0.15855 0.66169 0.18475 0.0
H157 H 0.19209 0.62163 0.19895 0.0
H158 H 0.16043 0.06988 0.69063 0.0
H159 H 0.21484 0.09837 0.72814 0.0
H160 H 0.30367 0.05956 0.65871 0.0
H161 H 0.24873 0.02973 0.62135 0.0
H162 H 0.29667 0.0484 0.72693 0.0
H163 H 0.35011 0.23591 0.69771 0.0
H164 H 0.28625 0.18882 0.71446 0.0
H165 H 0.31252 0.1785 0.67512 0.0
C166 C 0.19023 0.06529 0.68382 0.0
C167 C 0.20097 0.04852 0.65281 0.0
C168 C 0.22141 0.08184 0.70526 0.0
C169 C 0.26366 0.08192 0.69589 0.0
C170 C 0.27126 0.05994 0.66629 0.0
H171 H 0.55344 0.21002 0.69511 0.0
H172 H 0.4634 0.15381 0.70014 0.0
C173 C 0.24012 0.04332 0.64488 0.0
C174 C 0.30486 0.11323 0.71355 0.0
H175 H 0.40402 0.23646 0.72088 0.0
C176 C 0.31961 0.08959 0.7264 0.0
C177 C 0.33437 0.16698 0.7131 0.0
C178 C 0.32042 0.19436 0.69928 0.0
C179 C 0.36493 0.11836 0.73695 0.0
C180 C 0.39664 0.17172 0.73356 0.0
C181 C 0.37978 0.19553 0.72332 0.0
C182 C 0.45005 0.20241 0.73485 0.0
C183 C 0.37919 0.09116 0.75051 0.0
C184 C 0.47281 0.24919 0.75203 0.0
C185 C 0.52456 0.28188 0.74861 0.0
C186 C 0.55403 0.26803 0.72814 0.0
C187 C 0.53127 0.22113 0.71132 0.0
C188 C 0.47979 0.18864 0.71462 0.0
H189 H 0.34578 0.05725 0.7635 0.0
H190 H 0.39709 0.07759 0.7308 0.0
H191 H 0.40546 0.11651 0.76692 0.0
H192 H 0.45065 0.26101 0.76729 0.0
H193 H 0.54158 0.31844 0.76129 0.0
H194 H 0.03475 0.06554 0.12165 0.0
H195 H 0.05998 0.12896 0.16559 0.0
H196 H 0.12733 0.24796 0.10023 0.0
H197 H 0.1018 0.18515 0.05638 0.0
H198 H 0.15304 0.21187 0.1752 0.0
H199 H 0.03845 0.27451 0.16894 0.0
H200 H 0.02849 0.21655 0.14931 0.0
H201 H 0.07545 0.27682 0.13079 0.0
C202 C 0.05484 0.10522 0.11662 0.0
C203 C 0.06596 0.12022 0.08548 0.0
C204 C 0.06917 0.14135 0.14179 0.0
C205 C 0.09456 0.19298 0.13627 0.0
C206 C 0.10659 0.20812 0.10515 0.0
H207 H 0.30652 0.47384 0.20099 0.0
H208 H 0.25569 0.38281 0.18835 0.0
C209 C 0.09225 0.17215 0.08004 0.0
C210 C 0.11006 0.23178 0.16261 0.0
H211 H 0.11092 0.3352 0.19274 0.0
C212 C 0.14305 0.23826 0.1796 0.0
C213 C 0.09575 0.26516 0.16917 0.0
C214 C 0.05712 0.25755 0.15383 0.0
C215 C 0.16564 0.28012 0.20079 0.0
C216 C 0.1557 0.31679 0.20445 0.0
C217 C 0.11918 0.30757 0.18972 0.0
C218 C 0.18788 0.36835 0.21874 0.0
C219 C 0.20108 0.28544 0.21824 0.0
C220 C 0.16708 0.39078 0.24043 0.0
C221 C 0.19626 0.44324 0.24736 0.0
C222 C 0.24653 0.47367 0.23286 0.0
C223 C 0.26797 0.45079 0.21288 0.0
C224 C 0.23894 0.39862 0.20587 0.0
H225 H 0.18926 0.24748 0.22372 0.0
H226 H 0.23855 0.30437 0.20286 0.0
H227 H 0.20373 0.30835 0.24076 0.0
H228 H 0.12764 0.36834 0.25029 0.0
H229 H 0.17869 0.46051 0.26186 0.0
H230 H 0.91919 0.08198 0.53182 0.0
H231 H 0.88792 0.13019 0.56238 0.0
H232 H 0.9372 0.13288 0.64445 0.0
H233 H 0.9685 0.08442 0.61406 0.0
H234 H 0.84029 0.10905 0.65841 0.0
H235 H 0.97407 0.28268 0.58778 0.0
H236 H 0.94042 0.22543 0.56426 0.0
H237 H 0.98261 0.23324 0.58585 0.0
C238 C 0.92329 0.09261 0.5564 0.0
C239 C 0.94659 0.07934 0.57038 0.0
C240 C 0.90567 0.12057 0.57381 0.0
C241 C 0.91093 0.13604 0.60561 0.0
C242 C 0.93299 0.12175 0.61991 0.0
H243 H 0.845 0.35121 0.7135 0.0
H244 H 0.88542 0.30714 0.6949 0.0
C245 C 0.95086 0.09397 0.60246 0.0
C246 C 0.89299 0.16669 0.62389 0.0
H247 H 0.9053 0.27763 0.62312 0.0
C248 C 0.85491 0.14613 0.65087 0.0
C249 C 0.91244 0.21551 0.61444 0.0
C250 C 0.95497 0.24085 0.58669 0.0
C251 C 0.83426 0.17192 0.6676 0.0
C252 C 0.8521 0.21952 0.65718 0.0
C253 C 0.8916 0.24112 0.6311 0.0
C254 C 0.82688 0.2448 0.67093 0.0
C255 C 0.79283 0.14782 0.69602 0.0
C256 C 0.78068 0.22435 0.6638 0.0
C257 C 0.75808 0.24954 0.67404 0.0
C258 C 0.78072 0.29548 0.69206 0.0
C259 C 0.82649 0.31555 0.69996 0.0
C260 C 0.8496 0.29053 0.68926 0.0
H261 H 0.78975 0.11627 0.70483 0.0
H262 H 0.79873 0.17666 0.71561 0.0
H263 H 0.75709 0.1323 0.68933 0.0
H264 H 0.76268 0.18947 0.64948 0.0
H265 H 0.72296 0.23336 0.66744 0.0
H266 H 0.90118 0.93506 0.0829 0.0
H267 H 0.82102 0.8878 0.11996 0.0
H268 H 0.75615 0.91798 0.06305 0.0
H269 H 0.83628 0.96711 0.02737 0.0
H270 H 0.72503 0.9312 0.12094 0.0
H271 H 0.70098 0.74798 0.11398 0.0
H272 H 0.75599 0.80013 0.12815 0.0
H273 H 0.7502 0.79918 0.08811 0.0
C274 C 0.86961 0.93113 0.07825 0.0
C275 C 0.87512 0.95465 0.05205 0.0
C276 C 0.82352 0.90378 0.09938 0.0
C277 C 0.78155 0.89818 0.09433 0.0
C278 C 0.7874 0.92144 0.06787 0.0
H279 H 0.47151 0.66843 0.16016 0.0
H280 H 0.55923 0.72094 0.13592 0.0
C281 C 0.83342 0.94945 0.04725 0.0
C282 C 0.73172 0.86942 0.11647 0.0
H283 H 0.64062 0.75425 0.1506 0.0
C284 C 0.70667 0.89245 0.12737 0.0
C285 C 0.70707 0.81864 0.12506 0.0
C286 C 0.72967 0.78981 0.113 0.0
C287 C 0.65782 0.86612 0.14541 0.0
C288 C 0.63327 0.81545 0.15419 0.0
C289 C 0.65898 0.79301 0.14419 0.0
C290 C 0.57958 0.78321 0.17079 0.0
C291 C 0.63234 0.89233 0.15332 0.0
C292 C 0.56059 0.79972 0.19899 0.0
C293 C 0.50946 0.76982 0.21258 0.0
C294 C 0.47646 0.72181 0.19908 0.0
C295 C 0.49581 0.70495 0.17147 0.0
C296 C 0.54633 0.73504 0.15759 0.0
H297 H 0.65078 0.92478 0.13771 0.0
H298 H 0.5928 0.86549 0.15092 0.0
H299 H 0.63395 0.90764 0.1782 0.0
H300 H 0.58508 0.83596 0.21039 0.0
H301 H 0.49564 0.78474 0.2332 0.0
H302 H 0.94763 0.82531 0.51748 0.0
H303 H 0.91621 0.75714 0.55206 0.0
H304 H 0.91687 0.85243 0.63443 0.0
H305 H 0.94863 0.92143 0.59957 0.0
H306 H 0.95558 0.75327 0.59972 0.0
H307 H 0.77314 0.72118 0.64949 0.0
H308 H 0.81354 0.75757 0.61446 0.0
H309 H 0.82746 0.78508 0.65306 0.0
C310 C 0.9412 0.83202 0.54296 0.0
C311 C 0.95034 0.87894 0.55563 0.0
C312 C 0.92328 0.79283 0.5628 0.0
C313 C 0.91337 0.79891 0.59603 0.0
C314 C 0.92334 0.84616 0.60891 0.0
H315 H 0.83435 0.5565 0.71583 0.0
H316 H 0.87461 0.64149 0.6962 0.0
C317 C 0.94177 0.88579 0.58895 0.0
C318 C 0.89209 0.75524 0.61658 0.0
H319 H 0.78655 0.66742 0.66623 0.0
C320 C 0.91888 0.73497 0.61461 0.0
C321 C 0.84392 0.73065 0.63586 0.0
C322 C 0.81246 0.74927 0.63833 0.0
C323 C 0.89871 0.69077 0.63073 0.0
C324 C 0.85025 0.66576 0.64965 0.0
C325 C 0.82382 0.68657 0.65208 0.0
C326 C 0.82442 0.61523 0.66415 0.0
C327 C 0.92861 0.66981 0.6262 0.0
C328 C 0.78186 0.57206 0.65371 0.0
C329 C 0.75874 0.52383 0.6651 0.0
C330 C 0.77685 0.51698 0.68773 0.0
C331 C 0.81868 0.56035 0.69899 0.0
C332 C 0.84218 0.60894 0.68736 0.0
H333 H 0.96161 0.68839 0.60671 0.0
H334 H 0.94172 0.67624 0.64849 0.0
H335 H 0.90534 0.62818 0.62086 0.0
H336 H 0.76714 0.57542 0.63594 0.0
H337 H 0.72668 0.49146 0.6558 0.0
H338 H 0.04531 0.91407 0.4136 0.0
H339 H 0.07649 0.86538 0.38397 0.0
H340 H 0.17282 0.91902 0.45053 0.0
H341 H 0.14022 0.96609 0.48101 0.0
H342 H 0.16288 0.88678 0.35263 0.0
H343 H 0.10408 0.77 0.45373 0.0
H344 H 0.08589 0.81154 0.45535 0.0
H345 H 0.14591 0.83654 0.46285 0.0
C346 C 0.07322 0.91562 0.42195 0.0
C347 C 0.08988 0.94369 0.44993 0.0
C348 C 0.09109 0.88769 0.40491 0.0
C349 C 0.12628 0.8873 0.41528 0.0
C350 C 0.14452 0.91714 0.44248 0.0
H351 H 0.30681 0.78564 0.3063 0.0
H352 H 0.27092 0.83309 0.32706 0.0
C353 C 0.12614 0.94448 0.4598 0.0
C354 C 0.14336 0.85536 0.39789 0.0
H355 H 0.15833 0.76571 0.40863 0.0
C356 C 0.16161 0.86011 0.36489 0.0
C357 C 0.14071 0.81942 0.4135 0.0
C358 C 0.11758 0.8086 0.44822 0.0
C359 C 0.17834 0.83111 0.34739 0.0
C360 C 0.17829 0.79736 0.3634 0.0
C361 C 0.15901 0.79184 0.39623 0.0
C362 C 0.19839 0.76769 0.347 0.0
C363 C 0.19485 0.83621 0.31181 0.0
C364 C 0.16998 0.71498 0.35113 0.0
C365 C 0.19074 0.68804 0.33948 0.0
C366 C 0.24009 0.71297 0.323 0.0
C367 C 0.26811 0.76522 0.31793 0.0
C368 C 0.24754 0.79235 0.32985 0.0
H369 H 0.17711 0.84899 0.30221 0.0
H370 H 0.23564 0.86518 0.30608 0.0
H371 H 0.18589 0.79967 0.29954 0.0
H372 H 0.13214 0.69492 0.36436 0.0
H373 H 0.16877 0.64801 0.34434 0.0
H374 H 0.1295 0.06829 0.92699 0.0
H375 H 0.21085 0.11201 0.8908 0.0
H376 H 0.28225 0.14411 0.96864 0.0
H377 H 0.20144 0.09987 1.00451 0.0
H378 H 0.29536 0.20825 0.88841 0.0
H379 H 0.33861 0.07824 0.90506 0.0
H380 H 0.27754 0.06414 0.91898 0.0
H381 H 0.32537 0.10565 0.94216 0.0
C382 C 0.16259 0.08481 0.93637 0.0
C383 C 0.15877 0.08008 0.96865 0.0
C384 C 0.20919 0.10979 0.91563 0.0
C385 C 0.25304 0.13044 0.92662 0.0
C386 C 0.24921 0.1273 0.95913 0.0
H387 H 0.55962 0.36269 0.85177 0.0
H388 H 0.47153 0.31166 0.87632 0.0
C389 C 0.20282 0.10229 0.97977 0.0
C390 C 0.30281 0.15572 0.90449 0.0
H391 H 0.40711 0.15751 0.88128 0.0
C392 C 0.31951 0.19675 0.88669 0.0
C393 C 0.33443 0.14038 0.90136 0.0
C394 C 0.31789 0.09434 0.91763 0.0
C395 C 0.36733 0.22409 0.86731 0.0
C396 C 0.40015 0.2109 0.86595 0.0
C397 C 0.38258 0.16836 0.8825 0.0
C398 C 0.45354 0.2424 0.84914 0.0
C399 C 0.38217 0.26687 0.84835 0.0
C400 C 0.4738 0.2207 0.82589 0.0
C401 C 0.52468 0.25011 0.81176 0.0
C402 C 0.55639 0.30184 0.82063 0.0
C403 C 0.53606 0.32324 0.84395 0.0
C404 C 0.48546 0.29406 0.85791 0.0
H405 H 0.34913 0.26141 0.84347 0.0
H406 H 0.40208 0.30328 0.86219 0.0
H407 H 0.40717 0.27007 0.82538 0.0
H408 H 0.45032 0.18087 0.81881 0.0
H409 H 0.5394 0.23219 0.79442 0.0
H410 H 0.10099 0.20133 0.50258 0.0
H411 H 0.13028 0.26817 0.46777 0.0
H412 H 0.10429 0.16357 0.3869 0.0
H413 H 0.07534 0.09593 0.42203 0.0
H414 H 0.1939 0.25692 0.3735 0.0
H415 H 0.04955 0.28813 0.42838 0.0
H416 H 0.08098 0.29326 0.45739 0.0
H417 H 0.04465 0.23333 0.43652 0.0
C418 C 0.10124 0.1922 0.4774 0.0
C419 C 0.08567 0.14296 0.46522 0.0
C420 C 0.11775 0.23064 0.45743 0.0
C421 C 0.11882 0.2212 0.42456 0.0
C422 C 0.10364 0.17207 0.41215 0.0
H423 H 0.17966 0.46323 0.3164 0.0
H424 H 0.14054 0.37903 0.33655 0.0
C425 C 0.087 0.1333 0.43226 0.0
C426 C 0.1371 0.26331 0.40356 0.0
H427 H 0.1232 0.35574 0.39678 0.0
C428 C 0.17797 0.27807 0.37841 0.0
C429 C 0.11613 0.29082 0.40922 0.0
C430 C 0.07008 0.27525 0.43412 0.0
C431 C 0.19969 0.32061 0.36006 0.0
C432 C 0.18083 0.35024 0.36723 0.0
C433 C 0.13843 0.3339 0.39132 0.0
C434 C 0.20589 0.39956 0.35137 0.0
C435 C 0.24269 0.33329 0.33305 0.0
C436 C 0.25584 0.43958 0.35252 0.0
C437 C 0.27826 0.48733 0.34053 0.0
C438 C 0.25166 0.49662 0.32683 0.0
C439 C 0.20188 0.45663 0.32531 0.0
C440 C 0.17927 0.40867 0.33739 0.0
H441 H 0.24172 0.29899 0.32384 0.0
H442 H 0.24263 0.34996 0.31316 0.0
H443 H 0.27802 0.36135 0.34173 0.0
H444 H 0.27711 0.43466 0.36392 0.0
H445 H 0.31624 0.51772 0.3429 0.0
H446 H 0.92047 0.10777 0.85431 0.0
H447 H 0.88843 0.13601 0.82571 0.0
H448 H 0.93638 0.26846 0.88863 0.0
H449 H 0.96923 0.24113 0.9169 0.0
H450 H 0.81578 0.15626 0.85009 0.0
H451 H 0.99733 0.32786 0.79918 0.0
H452 H 0.99177 0.27727 0.81497 0.0
H453 H 0.98813 0.32422 0.84132 0.0
C454 C 0.92459 0.14316 0.86189 0.0
C455 C 0.9476 0.17222 0.88791 0.0
C456 C 0.90603 0.1591 0.8456 0.0
C457 C 0.91064 0.20474 0.8547 0.0
C458 C 0.93312 0.23354 0.88081 0.0
H459 H 0.82656 0.38462 0.82414 0.0
H460 H 0.86379 0.34634 0.83484 0.0
C461 C 0.9514 0.21753 0.8972 0.0
C462 C 0.89105 0.22199 0.83755 0.0
H463 H 0.9253 0.32281 0.79838 0.0
C464 C 0.83971 0.1923 0.83833 0.0
C465 C 0.92237 0.26882 0.82201 0.0
C466 C 0.97803 0.30123 0.81898 0.0
C467 C 0.81853 0.20968 0.82579 0.0
C468 C 0.84971 0.25764 0.81145 0.0
C469 C 0.90131 0.28611 0.80935 0.0
C470 C 0.82941 0.28184 0.80215 0.0
C471 C 0.76275 0.17784 0.82965 0.0
C472 C 0.79842 0.25913 0.77953 0.0
C473 C 0.77668 0.28107 0.77345 0.0
C474 C 0.78618 0.32635 0.7896 0.0
C475 C 0.81862 0.34977 0.81124 0.0
C476 C 0.84006 0.32794 0.81735 0.0
H477 H 0.74374 0.14683 0.84653 0.0
H478 H 0.74904 0.20178 0.83825 0.0
H479 H 0.75212 0.16019 0.80628 0.0
H480 H 0.79021 0.22396 0.7671 0.0
H481 H 0.75101 0.26164 0.75717 0.0
H482 H 0.77907 0.99049 0.40753 0.0
H483 H 0.72125 0.95968 0.37202 0.0
H484 H 0.80815 0.92176 0.2996 0.0
H485 H 0.86559 0.95146 0.33514 0.0
H486 H 0.72554 0.97016 0.303 0.0
H487 H 0.67324 0.78412 0.33411 0.0
H488 H 0.71143 0.84232 0.35594 0.0
H489 H 0.73686 0.83086 0.31665 0.0
C490 C 0.78665 0.97697 0.3837 0.0
C491 C 0.82623 0.97243 0.37434 0.0
C492 C 0.75385 0.95977 0.36338 0.0
C493 C 0.76022 0.93785 0.33347 0.0
C494 C 0.80267 0.93842 0.3227 0.0
H495 H 0.48607 0.70005 0.26362 0.0
H496 H 0.57621 0.75824 0.26149 0.0
C497 C 0.83553 0.95562 0.34302 0.0
C498 C 0.71784 0.90593 0.31688 0.0
H499 H 0.619 0.78229 0.31036 0.0
C500 C 0.70268 0.92901 0.3039 0.0
C501 C 0.68844 0.85227 0.31793 0.0
C502 C 0.70291 0.82562 0.33199 0.0
C503 C 0.65732 0.89971 0.29336 0.0
C504 C 0.62602 0.84638 0.2969 0.0
C505 C 0.64297 0.82319 0.30776 0.0
C506 C 0.57315 0.81477 0.29415 0.0
C507 C 0.64278 0.92624 0.27934 0.0
C508 C 0.54163 0.82705 0.31338 0.0
C509 C 0.49055 0.79409 0.31453 0.0
C510 C 0.47006 0.74824 0.29652 0.0
C511 C 0.50135 0.73571 0.27729 0.0
C512 C 0.55265 0.76886 0.27604 0.0
H513 H 0.67614 0.96086 0.26695 0.0
H514 H 0.6177 0.9008 0.26228 0.0
H515 H 0.62332 0.9385 0.29874 0.0
H516 H 0.55628 0.86121 0.32851 0.0
H517 H 0.46694 0.80416 0.32983 0.0
H518 H 0.96631 0.94608 0.90066 0.0
H519 H 0.93029 0.8804 0.85927 0.0
H520 H 0.88956 0.76658 0.92053 0.0
H521 H 0.92532 0.83183 0.96218 0.0
H522 H 0.95737 0.81398 0.82999 0.0
H523 H 0.75987 0.70826 0.89018 0.0
H524 H 0.80668 0.77251 0.90209 0.0
H525 H 0.80002 0.71945 0.91491 0.0
C526 C 0.9494 0.90703 0.9055 0.0
C527 C 0.94858 0.89421 0.93485 0.0
C528 C 0.9289 0.86961 0.88174 0.0
C529 C 0.90671 0.81866 0.88702 0.0
C530 C 0.90577 0.80566 0.91623 0.0
H531 H 0.85543 0.5563 0.79692 0.0
H532 H 0.89336 0.64585 0.8121 0.0
C533 C 0.92648 0.84305 0.93995 0.0
C534 C 0.8862 0.77901 0.86169 0.0
H535 H 0.7817 0.6627 0.84827 0.0
C536 C 0.91873 0.78133 0.83362 0.0
C537 C 0.83558 0.73716 0.86609 0.0
C538 C 0.79836 0.73432 0.8948 0.0
C539 C 0.90274 0.74069 0.81108 0.0
C540 C 0.85324 0.69669 0.81703 0.0
C541 C 0.81977 0.69635 0.84376 0.0
C542 C 0.83759 0.64771 0.79951 0.0
C543 C 0.93943 0.74434 0.78174 0.0
C544 C 0.79437 0.61927 0.78644 0.0
C545 C 0.7728 0.56788 0.77751 0.0
C546 C 0.79401 0.54457 0.782 0.0
C547 C 0.83897 0.57391 0.79289 0.0
C548 C 0.86074 0.62513 0.80142 0.0
H549 H 0.96803 0.78451 0.77475 0.0
H550 H 0.95881 0.7297 0.78681 0.0
H551 H 0.92062 0.72155 0.76145 0.0
H552 H 0.77568 0.63589 0.78509 0.0
H553 H 0.73766 0.54552 0.76958 0.0
loop_
_geom_bond_atom_site_label_1
_geom_bond_atom_site_label_2
_geom_bond_distance
_geom_bond_site_symmetry_2
_ccdc_geom_bond_type
Nd0 C2 2.836 . S
Nd0 O20 2.500 1_655 S
Nd0 O21 2.492 . S
Nd0 O22 2.487 1_546 S
Nd0 O23 2.682 1_546 S
Nd0 O24 2.410 1_656 S
Nd0 O29 2.414 1_655 S
Nd0 O31 2.424 1_545 S
Nd1 C11 2.836 1_545 S
Nd1 O23 2.414 1_445 S
Nd1 O25 2.424 . S
Nd1 O26 2.500 1_545 S
Nd1 O27 2.492 1_545 S
Nd1 O28 2.487 1_554 S
Nd1 O29 2.682 1_554 S
Nd1 O30 2.410 1_544 S
C2 Nd0 2.836 . S
C2 C3 1.498 . S
C2 O20 1.258 1_655 S
C2 O21 1.239 . S
C3 C2 1.498 . S
C3 C4 1.366 1_655 S
C3 C8 1.407 . S
C4 C3 1.366 1_455 S
C4 C5 1.392 . S
C4 H32 0.930 . S
C5 C4 1.392 . S
C5 C6 1.398 1_455 S
C5 H33 0.929 . S
C6 C5 1.398 1_655 S
C6 C7 1.352 . S
C7 C6 1.352 . S
C7 C8 1.384 . S
C7 H34 0.930 . S
C8 C3 1.407 . S
C8 C7 1.384 . S
C8 H35 0.929 . S
C9 O22 1.241 . S
C9 O23 1.273 . S
C10 O24 1.251 . S
C10 O25 1.268 . S
C11 Nd1 2.836 1_565 S
C11 C12 1.498 . S
C11 O26 1.258 . S
C11 O27 1.239 . S
C12 C11 1.498 . S
C12 C13 1.366 . S
C12 C17 1.407 . S
C13 C12 1.366 . S
C13 C14 1.392 . S
C13 H36 0.930 1_455 S
C14 C13 1.392 . S
C14 C15 1.398 . S
C14 H37 0.929 1_455 S
C15 C14 1.398 . S
C15 C16 1.352 . S
C16 C15 1.352 . S
C16 C17 1.384 . S
C16 H38 0.930 . S
C17 C12 1.407 . S
C17 C16 1.384 . S
C17 H39 0.929 . S
C18 O28 1.241 . S
C18 O29 1.273 . S
C19 O30 1.251 1_655 S
C19 O31 1.268 . S
O20 Nd0 2.500 1_455 S
O20 C2 1.258 1_455 S
O21 Nd0 2.492 . S
O21 C2 1.239 . S
O22 Nd0 2.487 1_564 S
O22 C9 1.241 . S
O23 Nd0 2.682 1_564 S
O23 Nd1 2.414 1_665 S
O23 C9 1.273 . S
O24 Nd0 2.410 1_454 S
O24 C10 1.251 . S
O25 Nd1 2.424 . S
O25 C10 1.268 . S
O26 Nd1 2.500 1_565 S
O26 C11 1.258 . S
O27 Nd1 2.492 1_565 S
O27 C11 1.239 . S
O28 Nd1 2.487 1_556 S
O28 C18 1.241 . S
O29 Nd0 2.414 1_455 S
O29 Nd1 2.682 1_556 S
O29 C18 1.273 . S
O30 Nd1 2.410 1_566 S
O30 C19 1.251 1_455 S
O31 Nd0 2.424 1_565 S
O31 C19 1.268 . S
H32 C4 0.930 . S
H33 C5 0.929 . S
H34 C7 0.930 . S
H35 C8 0.929 . S
H36 C13 0.930 1_655 S
H37 C14 0.929 1_655 S
H38 C16 0.930 . S
H39 C17 0.929 . S
Nd40 C42 2.836 . S
Nd40 O60 2.500 . S
Nd40 O61 2.492 . S
Nd40 O62 2.487 . S
Nd40 O63 2.682 1_655 S
Nd40 O64 2.410 . S
Nd40 O69 2.414 1_665 S
Nd40 O71 2.424 1_655 S
Nd41 C51 2.836 . S
Nd41 O63 2.414 1_545 S
Nd41 O65 2.424 1_455 S
Nd41 O66 2.500 . S
Nd41 O67 2.492 . S
Nd41 O68 2.487 . S
Nd41 O69 2.682 . S
Nd41 O70 2.410 . S
C42 Nd40 2.836 . S
C42 C43 1.498 . S
C42 O60 1.258 . S
C42 O61 1.239 . S
C43 C42 1.498 . S
C43 C44 1.366 . S
C43 C48 1.407 . S
C44 C43 1.366 . S
C44 C45 1.392 . S
C44 H72 0.919 1_565 S
C45 C44 1.392 . S
C45 C46 1.398 . S
C45 H73 0.929 . S
C46 C45 1.398 . S
C46 C47 1.352 . S
C47 C46 1.352 . S
C47 C48 1.384 . S
C47 H74 0.930 . S
C48 C43 1.407 . S
C48 C47 1.384 . S
C48 H75 0.929 . S
C49 O62 1.241 . S
C49 O63 1.273 1_655 S
C50 O64 1.251 1_545 S
C50 O65 1.268 . S
C51 Nd41 2.836 . S
C51 C52 1.498 . S
C51 O66 1.258 . S
C51 O67 1.239 . S
C52 C51 1.498 . S
C52 C53 1.366 . S
C52 C57 1.407 . S
C53 C52 1.366 . S
C53 C54 1.392 . S
C53 H76 0.930 . S
C54 C53 1.392 . S
C54 C55 1.398 . S
C54 H77 0.929 . S
C55 C54 1.398 . S
C55 C56 1.352 . S
C56 C55 1.352 . S
C56 C57 1.384 . S
C56 H78 0.930 . S
C57 C52 1.407 . S
C57 C56 1.384 . S
C57 H79 0.929 . S
C58 O68 1.241 . S
C58 O69 1.273 . S
C59 O70 1.251 1_565 S
C59 O71 1.268 . S
O60 Nd40 2.500 . S
O60 C42 1.258 . S
O61 Nd40 2.492 . S
O61 C42 1.239 . S
O62 Nd40 2.487 . S
O62 C49 1.241 . S
O63 Nd40 2.682 1_455 S
O63 Nd41 2.414 1_565 S
O63 C49 1.273 1_455 S
O64 Nd40 2.410 . S
O64 C50 1.251 1_565 S
O65 Nd41 2.424 1_655 S
O65 C50 1.268 . S
O66 Nd41 2.500 . S
O66 C51 1.258 . S
O67 Nd41 2.492 . S
O67 C51 1.239 . S
O68 Nd41 2.487 . S
O68 C58 1.241 . S
O69 Nd40 2.414 1_445 S
O69 Nd41 2.682 . S
O69 C58 1.273 . S
O70 Nd41 2.410 . S
O70 C59 1.251 1_545 S
O71 Nd40 2.424 1_455 S
O71 C59 1.268 . S
H72 C44 0.919 1_545 S
H73 C45 0.929 . S
H74 C47 0.930 . S
H75 C48 0.929 . S
H76 C53 0.930 . S
H77 C54 0.929 . S
H78 C56 0.930 . S
H79 C57 0.929 . S
Zn80 O86 1.920 . S
Zn80 O92 1.898 . S
Zn80 O95 1.905 . S
Zn81 O89 1.905 . S
Zn81 O90 1.898 . S
Zn81 O98 1.920 . S
Zn82 O85 2.080 . S
Zn82 O88 2.114 . S
Zn82 O91 2.120 . S
Zn82 O93 2.120 . S
Zn82 O94 2.114 . S
Zn82 O97 2.080 . S
C83 O88 1.166 . S
C83 O89 1.182 . S
C84 O90 1.167 . S
C84 O91 1.299 . S
O85 Zn82 2.080 . S
O85 C99 1.305 . S
O86 Zn80 1.920 . S
O86 C99 1.234 . S
C87 O92 1.167 . S
C87 O93 1.299 . S
O88 Zn82 2.114 . S
O88 C83 1.166 . S
O89 Zn81 1.905 . S
O89 C83 1.182 . S
O90 Zn81 1.898 . S
O90 C84 1.167 . S
O91 Zn82 2.120 . S
O91 C84 1.299 . S
O92 Zn80 1.898 . S
O92 C87 1.167 . S
O93 Zn82 2.120 . S
O93 C87 1.299 . S
O94 Zn82 2.114 . S
O94 C96 1.166 . S
O95 Zn80 1.905 . S
O95 C96 1.182 . S
C96 O94 1.166 . S
C96 O95 1.182 . S
O97 Zn82 2.080 . S
O97 C100 1.305 . S
O98 Zn81 1.920 . S
O98 C100 1.234 . S
C99 O85 1.305 . S
C99 O86 1.234 . S
C100 O97 1.305 . S
C100 O98 1.234 . S
Zn101 O107 1.920 . S
Zn101 O113 1.898 . S
Zn101 O116 1.905 . S
Zn102 O110 1.905 . S
Zn102 O111 1.898 . S
Zn102 O119 1.920 . S
Zn103 O106 2.080 . S
Zn103 O109 2.114 . S
Zn103 O112 2.120 . S
Zn103 O114 2.120 . S
Zn103 O115 2.114 . S
Zn103 O118 2.080 . S
C104 O109 1.166 . S
C104 O110 1.182 . S
C105 O111 1.167 . S
C105 O112 1.299 . S
O106 Zn103 2.080 . S
O106 C120 1.305 . S
O107 Zn101 1.920 . S
O107 C120 1.234 . S
C108 O113 1.167 . S
C108 O114 1.299 . S
O109 Zn103 2.114 . S
O109 C104 1.166 . S
O110 Zn102 1.905 . S
O110 C104 1.182 . S
O111 Zn102 1.898 . S
O111 C105 1.167 . S
O112 Zn103 2.120 . S
O112 C105 1.299 . S
O113 Zn101 1.898 . S
O113 C108 1.167 . S
O114 Zn103 2.120 . S
O114 C108 1.299 . S
O115 Zn103 2.114 . S
O115 C117 1.166 . S
O116 Zn101 1.905 . S
O116 C117 1.182 . S
C117 O115 1.166 . S
C117 O116 1.182 . S
O118 Zn103 2.080 . S
O118 C121 1.305 . S
O119 Zn102 1.920 . S
O119 C121 1.234 . S
C120 O106 1.305 . S
C120 O107 1.234 . S
C121 O118 1.305 . S
C121 O119 1.234 . S
H122 C130 0.929 1_655 S
H123 C132 0.930 . S
H124 C134 0.930 . S
H125 C137 0.929 . S
H126 C140 0.930 . S
H127 C142 0.960 . S
H128 C142 0.960 . S
H129 C142 0.960 . S
C130 H122 0.929 1_455 S
C130 C131 1.377 . S
C130 C132 1.384 . S
C131 C130 1.377 . S
C131 C137 1.390 . S
C132 H123 0.930 . S
C132 C130 1.384 . S
C132 C133 1.372 . S
C133 C132 1.372 . S
C133 C134 1.400 . S
C133 C138 1.490 . S
C134 H124 0.930 . S
C134 C133 1.400 . S
C134 C137 1.386 . S
H135 C151 0.930 . S
H136 C152 0.931 . S
C137 H125 0.929 . S
C137 C131 1.390 . S
C137 C134 1.386 . S
C138 C133 1.490 . S
C138 C140 1.395 . S
C138 C141 1.403 . S
H139 C145 0.930 . S
C140 H126 0.930 . S
C140 C138 1.395 . S
C140 C143 1.403 . S
C141 C138 1.403 . S
C141 C142 1.524 . S
C141 C145 1.400 . S
C142 H127 0.960 . S
C142 H128 0.960 . S
C142 H129 0.960 . S
C142 C141 1.524 . S
C143 C140 1.403 . S
C143 C144 1.392 . S
C143 C147 1.495 . S
C144 C143 1.392 . S
C144 C145 1.385 . S
C144 C146 1.478 . S
C145 H139 0.930 . S
C145 C141 1.400 . S
C145 C144 1.385 . S
C146 C144 1.478 . S
C146 C148 1.381 . S
C146 C152 1.383 . S
C147 C143 1.495 . S
C147 H153 0.959 . S
C147 H154 0.961 . S
C147 H155 0.960 . S
C148 C146 1.381 . S
C148 C149 1.394 . S
C148 H156 0.930 . S
C149 C148 1.394 . S
C149 C150 1.383 . S
C149 H157 0.929 . S
C150 C149 1.383 . S
C150 C151 1.377 . S
C151 H135 0.930 . S
C151 C150 1.377 . S
C151 C152 1.379 . S
C152 H136 0.931 . S
C152 C146 1.383 . S
C152 C151 1.379 . S
H153 C147 0.959 . S
H154 C147 0.961 . S
H155 C147 0.960 . S
H156 C148 0.930 . S
H157 C149 0.929 . S
H158 C166 0.929 . S
H159 C168 0.930 . S
H160 C170 0.930 . S
H161 C173 0.929 . S
H162 C176 0.930 . S
H163 C178 0.960 . S
H164 C178 0.960 . S
H165 C178 0.960 . S
C166 H158 0.929 . S
C166 C167 1.377 . S
C166 C168 1.384 . S
C167 C166 1.377 . S
C167 C173 1.390 . S
C168 H159 0.930 . S
C168 C166 1.384 . S
C168 C169 1.372 . S
C169 C168 1.372 . S
C169 C170 1.400 . S
C169 C174 1.490 . S
C170 H160 0.930 . S
C170 C169 1.400 . S
C170 C173 1.386 . S
H171 C187 0.930 . S
H172 C188 0.931 . S
C173 H161 0.929 . S
C173 C167 1.390 . S
C173 C170 1.386 . S
C174 C169 1.490 . S
C174 C176 1.395 . S
C174 C177 1.403 . S
H175 C181 0.930 . S
C176 H162 0.930 . S
C176 C174 1.395 . S
C176 C179 1.403 . S
C177 C174 1.403 . S
C177 C178 1.524 . S
C177 C181 1.400 . S
C178 H163 0.960 . S
C178 H164 0.960 . S
C178 H165 0.960 . S
C178 C177 1.524 . S
C179 C176 1.403 . S
C179 C180 1.392 . S
C179 C183 1.495 . S
C180 C179 1.392 . S
C180 C181 1.385 . S
C180 C182 1.478 . S
C181 H175 0.930 . S
C181 C177 1.400 . S
C181 C180 1.385 . S
C182 C180 1.478 . S
C182 C184 1.381 . S
C182 C188 1.383 . S
C183 C179 1.495 . S
C183 H189 0.959 . S
C183 H190 0.961 . S
C183 H191 0.960 . S
C184 C182 1.381 . S
C184 C185 1.394 . S
C184 H192 0.930 . S
C185 C184 1.394 . S
C185 C186 1.383 . S
C185 H193 0.929 . S
C186 C185 1.383 . S
C186 C187 1.377 . S
C187 H171 0.930 . S
C187 C186 1.377 . S
C187 C188 1.379 . S
C188 H172 0.931 . S
C188 C182 1.383 . S
C188 C187 1.379 . S
H189 C183 0.959 . S
H190 C183 0.961 . S
H191 C183 0.960 . S
H192 C184 0.930 . S
H193 C185 0.929 . S
H194 C202 0.931 1_655 S
H195 C204 0.930 . S
H196 C206 0.930 . S
H197 C209 0.929 . S
H198 C212 0.930 . S
H199 C214 0.960 . S
H200 C214 0.960 . S
H201 C214 0.960 . S
C202 H194 0.931 1_455 S
C202 C203 1.377 . S
C202 C204 1.384 . S
C203 C202 1.377 . S
C203 C209 1.390 . S
C204 H195 0.930 . S
C204 C202 1.384 . S
C204 C205 1.372 . S
C205 C204 1.372 . S
C205 C206 1.400 . S
C205 C210 1.490 . S
C206 H196 0.930 . S
C206 C205 1.400 . S
C206 C209 1.386 . S
H207 C223 0.930 . S
H208 C224 0.931 . S
C209 H197 0.929 . S
C209 C203 1.390 . S
C209 C206 1.386 . S
C210 C205 1.490 . S
C210 C212 1.395 . S
C210 C213 1.403 . S
H211 C217 0.930 . S
C212 H198 0.930 . S
C212 C210 1.395 . S
C212 C215 1.403 . S
C213 C210 1.403 . S
C213 C214 1.524 . S
C213 C217 1.400 . S
C214 H199 0.960 . S
C214 H200 0.960 . S
C214 H201 0.960 . S
C214 C213 1.524 . S
C215 C212 1.403 . S
C215 C216 1.392 . S
C215 C219 1.495 . S
C216 C215 1.392 . S
C216 C217 1.385 . S
C216 C218 1.478 . S
C217 H211 0.930 . S
C217 C213 1.400 . S
C217 C216 1.385 . S
C218 C216 1.478 . S
C218 C220 1.381 . S
C218 C224 1.383 . S
C219 C215 1.495 . S
C219 H225 0.959 . S
C219 H226 0.961 . S
C219 H227 0.960 . S
C220 C218 1.381 . S
C220 C221 1.394 . S
C220 H228 0.930 . S
C221 C220 1.394 . S
C221 C222 1.383 . S
C221 H229 0.929 . S
C222 C221 1.383 . S
C222 C223 1.377 . S
C223 H207 0.930 . S
C223 C222 1.377 . S
C223 C224 1.379 . S
C224 H208 0.931 . S
C224 C218 1.383 . S
C224 C223 1.379 . S
H225 C219 0.959 . S
H226 C219 0.961 . S
H227 C219 0.960 . S
H228 C220 0.930 . S
H229 C221 0.929 . S
H230 C238 0.929 . S
H231 C240 0.930 . S
H232 C242 0.930 . S
H233 C245 0.929 . S
H234 C248 0.930 . S
H235 C250 0.960 . S
H236 C250 0.960 . S
H237 C250 0.960 . S
C238 H230 0.929 . S
C238 C239 1.377 . S
C238 C240 1.384 . S
C239 C238 1.377 . S
C239 C245 1.390 . S
C240 H231 0.930 . S
C240 C238 1.384 . S
C240 C241 1.372 . S
C241 C240 1.372 . S
C241 C242 1.400 . S
C241 C246 1.490 . S
C242 H232 0.930 . S
C242 C241 1.400 . S
C242 C245 1.386 . S
H243 C259 0.930 . S
H244 C260 0.931 . S
C245 H233 0.929 . S
C245 C239 1.390 . S
C245 C242 1.386 . S
C246 C241 1.490 . S
C246 C248 1.395 . S
C246 C249 1.403 . S
H247 C253 0.930 . S
C248 H234 0.930 . S
C248 C246 1.395 . S
C248 C251 1.403 . S
C249 C246 1.403 . S
C249 C250 1.524 . S
C249 C253 1.400 . S
C250 H235 0.960 . S
C250 H236 0.960 . S
C250 H237 0.960 . S
C250 C249 1.524 . S
C251 C248 1.403 . S
C251 C252 1.392 . S
C251 C255 1.495 . S
C252 C251 1.392 . S
C252 C253 1.385 . S
C252 C254 1.478 . S
C253 H247 0.930 . S
C253 C249 1.400 . S
C253 C252 1.385 . S
C254 C252 1.478 . S
C254 C256 1.381 . S
C254 C260 1.383 . S
C255 C251 1.495 . S
C255 H261 0.959 . S
C255 H262 0.961 . S
C255 H263 0.960 . S
C256 C254 1.381 . S
C256 C257 1.394 . S
C256 H264 0.930 . S
C257 C256 1.394 . S
C257 C258 1.383 . S
C257 H265 0.929 . S
C258 C257 1.383 . S
C258 C259 1.377 . S
C259 H243 0.930 . S
C259 C258 1.377 . S
C259 C260 1.379 . S
C260 H244 0.931 . S
C260 C254 1.383 . S
C260 C259 1.379 . S
H261 C255 0.959 . S
H262 C255 0.961 . S
H263 C255 0.960 . S
H264 C256 0.930 . S
H265 C257 0.929 . S
H266 C274 0.929 . S
H267 C276 0.930 . S
H268 C278 0.930 . S
H269 C281 0.929 . S
H270 C284 0.930 . S
H271 C286 0.960 . S
H272 C286 0.960 . S
H273 C286 0.960 . S
C274 H266 0.929 . S
C274 C275 1.377 . S
C274 C276 1.384 . S
C275 C274 1.377 . S
C275 C281 1.390 . S
C276 H267 0.930 . S
C276 C274 1.384 . S
C276 C277 1.372 . S
C277 C276 1.372 . S
C277 C278 1.400 . S
C277 C282 1.490 . S
C278 H268 0.930 . S
C278 C277 1.400 . S
C278 C281 1.386 . S
H279 C295 0.930 . S
H280 C296 0.931 . S
C281 H269 0.929 . S
C281 C275 1.390 . S
C281 C278 1.386 . S
C282 C277 1.490 . S
C282 C284 1.395 . S
C282 C285 1.403 . S
H283 C289 0.930 . S
C284 H270 0.930 . S
C284 C282 1.395 . S
C284 C287 1.403 . S
C285 C282 1.403 . S
C285 C286 1.524 . S
C285 C289 1.400 . S
C286 H271 0.960 . S
C286 H272 0.960 . S
C286 H273 0.960 . S
C286 C285 1.524 . S
C287 C284 1.403 . S
C287 C288 1.392 . S
C287 C291 1.495 . S
C288 C287 1.392 . S
C288 C289 1.385 . S
C288 C290 1.478 . S
C289 H283 0.930 . S
C289 C285 1.400 . S
C289 C288 1.385 . S
C290 C288 1.478 . S
C290 C292 1.381 . S
C290 C296 1.383 . S
C291 C287 1.495 . S
C291 H297 0.959 . S
C291 H298 0.961 . S
C291 H299 0.960 . S
C292 C290 1.381 . S
C292 C293 1.394 . S
C292 H300 0.930 . S
C293 C292 1.394 . S
C293 C294 1.383 . S
C293 H301 0.929 . S
C294 C293 1.383 . S
C294 C295 1.377 . S
C295 H279 0.930 . S
C295 C294 1.377 . S
C295 C296 1.379 . S
C296 H280 0.931 . S
C296 C290 1.383 . S
C296 C295 1.379 . S
H297 C291 0.959 . S
H298 C291 0.961 . S
H299 C291 0.960 . S
H300 C292 0.930 . S
H301 C293 0.929 . S
H302 C310 0.929 . S
H303 C312 0.930 . S
H304 C314 0.930 . S
H305 C317 0.929 . S
H306 C320 0.930 . S
H307 C322 0.960 . S
H308 C322 0.960 . S
H309 C322 0.960 . S
C310 H302 0.929 . S
C310 C311 1.377 . S
C310 C312 1.384 . S
C311 C310 1.377 . S
C311 C317 1.390 . S
C312 H303 0.930 . S
C312 C310 1.384 . S
C312 C313 1.372 . S
C313 C312 1.372 . S
C313 C314 1.400 . S
C313 C318 1.490 . S
C314 H304 0.930 . S
C314 C313 1.400 . S
C314 C317 1.386 . S
H315 C331 0.930 . S
H316 C332 0.931 . S
C317 H305 0.929 . S
C317 C311 1.390 . S
C317 C314 1.386 . S
C318 C313 1.490 . S
C318 C320 1.395 . S
C318 C321 1.403 . S
H319 C325 0.930 . S
C320 H306 0.930 . S
C320 C318 1.395 . S
C320 C323 1.403 . S
C321 C318 1.403 . S
C321 C322 1.524 . S
C321 C325 1.400 . S
C322 H307 0.960 . S
C322 H308 0.960 . S
C322 H309 0.960 . S
C322 C321 1.524 . S
C323 C320 1.403 . S
C323 C324 1.392 . S
C323 C327 1.495 . S
C324 C323 1.392 . S
C324 C325 1.385 . S
C324 C326 1.478 . S
C325 H319 0.930 . S
C325 C321 1.400 . S
C325 C324 1.385 . S
C326 C324 1.478 . S
C326 C328 1.381 . S
C326 C332 1.383 . S
C327 C323 1.495 . S
C327 H333 0.959 . S
C327 H334 0.961 . S
C327 H335 0.960 . S
C328 C326 1.381 . S
C328 C329 1.394 . S
C328 H336 0.930 . S
C329 C328 1.394 . S
C329 C330 1.383 . S
C329 H337 0.929 . S
C330 C329 1.383 . S
C330 C331 1.377 . S
C331 H315 0.930 . S
C331 C330 1.377 . S
C331 C332 1.379 . S
C332 H316 0.931 . S
C332 C326 1.383 . S
C332 C331 1.379 . S
H333 C327 0.959 . S
H334 C327 0.961 . S
H335 C327 0.960 . S
H336 C328 0.930 . S
H337 C329 0.929 . S
H338 C346 0.929 . S
H339 C348 0.930 . S
H340 C350 0.930 . S
H341 C353 0.929 1_545 S
H342 C356 0.930 . S
H343 C358 0.960 . S
H344 C358 0.960 . S
H345 C358 0.960 . S
C346 H338 0.929 . S
C346 C347 1.377 . S
C346 C348 1.384 . S
C347 C346 1.377 . S
C347 C353 1.390 . S
C348 H339 0.930 . S
C348 C346 1.384 . S
C348 C349 1.372 . S
C349 C348 1.372 . S
C349 C350 1.400 . S
C349 C354 1.490 . S
C350 H340 0.930 . S
C350 C349 1.400 . S
C350 C353 1.386 . S
H351 C367 0.930 . S
H352 C368 0.931 . S
C353 H341 0.929 1_565 S
C353 C347 1.390 . S
C353 C350 1.386 . S
C354 C349 1.490 . S
C354 C356 1.395 . S
C354 C357 1.403 . S
H355 C361 0.930 . S
C356 H342 0.930 . S
C356 C354 1.395 . S
C356 C359 1.403 . S
C357 C354 1.403 . S
C357 C358 1.524 . S
C357 C361 1.400 . S
C358 H343 0.960 . S
C358 H344 0.960 . S
C358 H345 0.960 . S
C358 C357 1.524 . S
C359 C356 1.403 . S
C359 C360 1.392 . S
C359 C363 1.495 . S
C360 C359 1.392 . S
C360 C361 1.385 . S
C360 C362 1.478 . S
C361 H355 0.930 . S
C361 C357 1.400 . S
C361 C360 1.385 . S
C362 C360 1.478 . S
C362 C364 1.381 . S
C362 C368 1.383 . S
C363 C359 1.495 . S
C363 H369 0.959 . S
C363 H370 0.961 . S
C363 H371 0.960 . S
C364 C362 1.381 . S
C364 C365 1.394 . S
C364 H372 0.930 . S
C365 C364 1.394 . S
C365 C366 1.383 . S
C365 H373 0.929 . S
C366 C365 1.383 . S
C366 C367 1.377 . S
C367 H351 0.930 . S
C367 C366 1.377 . S
C367 C368 1.379 . S
C368 H352 0.931 . S
C368 C362 1.383 . S
C368 C367 1.379 . S
H369 C363 0.959 . S
H370 C363 0.961 . S
H371 C363 0.960 . S
H372 C364 0.930 . S
H373 C365 0.929 . S
H374 C382 0.929 . S
H375 C384 0.930 . S
H376 C386 0.930 . S
H377 C389 0.929 . S
H378 C392 0.930 . S
H379 C394 0.960 . S
H380 C394 0.960 . S
H381 C394 0.960 . S
C382 H374 0.929 . S
C382 C383 1.377 . S
C382 C384 1.384 . S
C383 C382 1.377 . S
C383 C389 1.390 . S
C384 H375 0.930 . S
C384 C382 1.384 . S
C384 C385 1.372 . S
C385 C384 1.372 . S
C385 C386 1.400 . S
C385 C390 1.490 . S
C386 H376 0.930 . S
C386 C385 1.400 . S
C386 C389 1.386 . S
H387 C403 0.930 . S
H388 C404 0.931 . S
C389 H377 0.929 . S
C389 C383 1.390 . S
C389 C386 1.386 . S
C390 C385 1.490 . S
C390 C392 1.395 . S
C390 C393 1.403 . S
H391 C397 0.930 . S
C392 H378 0.930 . S
C392 C390 1.395 . S
C392 C395 1.403 . S
C393 C390 1.403 . S
C393 C394 1.524 . S
C393 C397 1.400 . S
C394 H379 0.960 . S
C394 H380 0.960 . S
C394 H381 0.960 . S
C394 C393 1.524 . S
C395 C392 1.403 . S
C395 C396 1.392 . S
C395 C399 1.495 . S
C396 C395 1.392 . S
C396 C397 1.385 . S
C396 C398 1.478 . S
C397 H391 0.930 . S
C397 C393 1.400 . S
C397 C396 1.385 . S
C398 C396 1.478 . S
C398 C400 1.381 . S
C398 C404 1.383 . S
C399 C395 1.495 . S
C399 H405 0.959 . S
C399 H406 0.961 . S
C399 H407 0.960 . S
C400 C398 1.381 . S
C400 C401 1.394 . S
C400 H408 0.930 . S
C401 C400 1.394 . S
C401 C402 1.383 . S
C401 H409 0.929 . S
C402 C401 1.383 . S
C402 C403 1.377 . S
C403 H387 0.930 . S
C403 C402 1.377 . S
C403 C404 1.379 . S
C404 H388 0.931 . S
C404 C398 1.383 . S
C404 C403 1.379 . S
H405 C399 0.959 . S
H406 C399 0.961 . S
H407 C399 0.960 . S
H408 C400 0.930 . S
H409 C401 0.929 . S
H410 C418 0.929 . S
H411 C420 0.930 . S
H412 C422 0.930 . S
H413 C425 0.929 . S
H414 C428 0.930 . S
H415 C430 0.960 . S
H416 C430 0.960 . S
H417 C430 0.960 . S
C418 H410 0.929 . S
C418 C419 1.377 . S
C418 C420 1.384 . S
C419 C418 1.377 . S
C419 C425 1.390 . S
C420 H411 0.930 . S
C420 C418 1.384 . S
C420 C421 1.372 . S
C421 C420 1.372 . S
C421 C422 1.400 . S
C421 C426 1.490 . S
C422 H412 0.930 . S
C422 C421 1.400 . S
C422 C425 1.386 . S
H423 C439 0.930 . S
H424 C440 0.931 . S
C425 H413 0.929 . S
C425 C419 1.390 . S
C425 C422 1.386 . S
C426 C421 1.490 . S
C426 C428 1.395 . S
C426 C429 1.403 . S
H427 C433 0.930 . S
C428 H414 0.930 . S
C428 C426 1.395 . S
C428 C431 1.403 . S
C429 C426 1.403 . S
C429 C430 1.524 . S
C429 C433 1.400 . S
C430 H415 0.960 . S
C430 H416 0.960 . S
C430 H417 0.960 . S
C430 C429 1.524 . S
C431 C428 1.403 . S
C431 C432 1.392 . S
C431 C435 1.495 . S
C432 C431 1.392 . S
C432 C433 1.385 . S
C432 C434 1.478 . S
C433 H427 0.930 . S
C433 C429 1.400 . S
C433 C432 1.385 . S
C434 C432 1.478 . S
C434 C436 1.381 . S
C434 C440 1.383 . S
C435 C431 1.495 . S
C435 H441 0.959 . S
C435 H442 0.961 . S
C435 H443 0.960 . S
C436 C434 1.381 . S
C436 C437 1.394 . S
C436 H444 0.930 . S
C437 C436 1.394 . S
C437 C438 1.383 . S
C437 H445 0.929 . S
C438 C437 1.383 . S
C438 C439 1.377 . S
C439 H423 0.930 . S
C439 C438 1.377 . S
C439 C440 1.379 . S
C440 H424 0.931 . S
C440 C434 1.383 . S
C440 C439 1.379 . S
H441 C435 0.959 . S
H442 C435 0.961 . S
H443 C435 0.960 . S
H444 C436 0.930 . S
H445 C437 0.929 . S
H446 C454 0.929 . S
H447 C456 0.930 . S
H448 C458 0.930 . S
H449 C461 0.929 . S
H450 C464 0.930 . S
H451 C466 0.960 . S
H452 C466 0.960 . S
H453 C466 0.960 . S
C454 H446 0.929 . S
C454 C455 1.377 . S
C454 C456 1.384 . S
C455 C454 1.377 . S
C455 C461 1.390 . S
C456 H447 0.930 . S
C456 C454 1.384 . S
C456 C457 1.372 . S
C457 C456 1.372 . S
C457 C458 1.400 . S
C457 C462 1.490 . S
C458 H448 0.930 . S
C458 C457 1.400 . S
C458 C461 1.386 . S
H459 C475 0.930 . S
H460 C476 0.931 . S
C461 H449 0.929 . S
C461 C455 1.390 . S
C461 C458 1.386 . S
C462 C457 1.490 . S
C462 C464 1.395 . S
C462 C465 1.403 . S
H463 C469 0.930 . S
C464 H450 0.930 . S
C464 C462 1.395 . S
C464 C467 1.403 . S
C465 C462 1.403 . S
C465 C466 1.524 . S
C465 C469 1.400 . S
C466 H451 0.960 . S
C466 H452 0.960 . S
C466 H453 0.960 . S
C466 C465 1.524 . S
C467 C464 1.403 . S
C467 C468 1.392 . S
C467 C471 1.495 . S
C468 C467 1.392 . S
C468 C469 1.385 . S
C468 C470 1.478 . S
C469 H463 0.930 . S
C469 C465 1.400 . S
C469 C468 1.385 . S
C470 C468 1.478 . S
C470 C472 1.381 . S
C470 C476 1.383 . S
C471 C467 1.495 . S
C471 H477 0.959 . S
C471 H478 0.961 . S
C471 H479 0.960 . S
C472 C470 1.381 . S
C472 C473 1.394 . S
C472 H480 0.930 . S
C473 C472 1.394 . S
C473 C474 1.383 . S
C473 H481 0.929 . S
C474 C473 1.383 . S
C474 C475 1.377 . S
C475 H459 0.930 . S
C475 C474 1.377 . S
C475 C476 1.379 . S
C476 H460 0.931 . S
C476 C470 1.383 . S
C476 C475 1.379 . S
H477 C471 0.959 . S
H478 C471 0.961 . S
H479 C471 0.960 . S
H480 C472 0.930 . S
H481 C473 0.929 . S
H482 C490 0.929 . S
H483 C492 0.930 . S
H484 C494 0.930 . S
H485 C497 0.929 . S
H486 C500 0.930 . S
H487 C502 0.960 . S
H488 C502 0.960 . S
H489 C502 0.960 . S
C490 H482 0.929 . S
C490 C491 1.377 . S
C490 C492 1.384 . S
C491 C490 1.377 . S
C491 C497 1.390 . S
C492 H483 0.930 . S
C492 C490 1.384 . S
C492 C493 1.372 . S
C493 C492 1.372 . S
C493 C494 1.400 . S
C493 C498 1.490 . S
C494 H484 0.930 . S
C494 C493 1.400 . S
C494 C497 1.386 . S
H495 C511 0.930 . S
H496 C512 0.931 . S
C497 H485 0.929 . S
C497 C491 1.390 . S
C497 C494 1.386 . S
C498 C493 1.490 . S
C498 C500 1.395 . S
C498 C501 1.403 . S
H499 C505 0.930 . S
C500 H486 0.930 . S
C500 C498 1.395 . S
C500 C503 1.403 . S
C501 C498 1.403 . S
C501 C502 1.524 . S
C501 C505 1.400 . S
C502 H487 0.960 . S
C502 H488 0.960 . S
C502 H489 0.960 . S
C502 C501 1.524 . S
C503 C500 1.403 . S
C503 C504 1.392 . S
C503 C507 1.495 . S
C504 C503 1.392 . S
C504 C505 1.385 . S
C504 C506 1.478 . S
C505 H499 0.930 . S
C505 C501 1.400 . S
C505 C504 1.385 . S
C506 C504 1.478 . S
C506 C508 1.381 . S
C506 C512 1.383 . S
C507 C503 1.495 . S
C507 H513 0.959 . S
C507 H514 0.961 . S
C507 H515 0.960 . S
C508 C506 1.381 . S
C508 C509 1.394 . S
C508 H516 0.930 . S
C509 C508 1.394 . S
C509 C510 1.383 . S
C509 H517 0.929 . S
C510 C509 1.383 . S
C510 C511 1.377 . S
C511 H495 0.930 . S
C511 C510 1.377 . S
C511 C512 1.379 . S
C512 H496 0.931 . S
C512 C506 1.383 . S
C512 C511 1.379 . S
H513 C507 0.959 . S
H514 C507 0.961 . S
H515 C507 0.960 . S
H516 C508 0.930 . S
H517 C509 0.929 . S
H518 C526 0.929 . S
H519 C528 0.930 . S
H520 C530 0.930 . S
H521 C533 0.929 . S
H522 C536 0.930 . S
H523 C538 0.960 . S
H524 C538 0.960 . S
H525 C538 0.960 . S
C526 H518 0.929 . S
C526 C527 1.377 . S
C526 C528 1.384 . S
C527 C526 1.377 . S
C527 C533 1.390 . S
C528 H519 0.930 . S
C528 C526 1.384 . S
C528 C529 1.372 . S
C529 C528 1.372 . S
C529 C530 1.400 . S
C529 C534 1.490 . S
C530 H520 0.930 . S
C530 C529 1.400 . S
C530 C533 1.386 . S
H531 C547 0.930 . S
H532 C548 0.931 . S
C533 H521 0.929 . S
C533 C527 1.390 . S
C533 C530 1.386 . S
C534 C529 1.490 . S
C534 C536 1.395 . S
C534 C537 1.403 . S
H535 C541 0.930 . S
C536 H522 0.930 . S
C536 C534 1.395 . S
C536 C539 1.403 . S
C537 C534 1.403 . S
C537 C538 1.524 . S
C537 C541 1.400 . S
C538 H523 0.960 . S
C538 H524 0.960 . S
C538 H525 0.960 . S
C538 C537 1.524 . S
C539 C536 1.403 . S
C539 C540 1.392 . S
C539 C543 1.495 . S
C540 C539 1.392 . S
C540 C541 1.385 . S
C540 C542 1.478 . S
C541 H535 0.930 . S
C541 C537 1.400 . S
C541 C540 1.385 . S
C542 C540 1.478 . S
C542 C544 1.381 . S
C542 C548 1.383 . S
C543 C539 1.495 . S
C543 H549 0.959 . S
C543 H550 0.961 . S
C543 H551 0.960 . S
C544 C542 1.381 . S
C544 C545 1.394 . S
C544 H552 0.930 . S
C545 C544 1.394 . S
C545 C546 1.383 . S
C545 H553 0.929 . S
C546 C545 1.383 . S
C546 C547 1.377 . S
C547 H531 0.930 . S
C547 C546 1.377 . S
C547 C548 1.379 . S
C548 H532 0.931 . S
C548 C542 1.383 . S
C548 C547 1.379 . S
H549 C543 0.959 . S
H550 C543 0.961 . S
H551 C543 0.960 . S
H552 C544 0.930 . S
H553 C545 0.929 . S
C131 C15 1.399 . S
C150 C99 1.282 . S
C167 C55 0.832 . S
C186 C105 0.873 . S
C203 C10 1.175 . S
C222 C96 1.140 . S
C239 C50 1.872 . S
C258 C121 1.781 . S
C275 C9 2.050 . S
C294 C87 2.030 . S
C330 C104 1.903 . S
C311 C49 2.021 . S
C347 C59 1.631 . S
C366 C100 1.565 . S
C402 C117 2.205 . S
C383 C18 2.234 . S
C438 C84 2.120 . S
C419 C58 2.306 . S
C474 C120 1.374 . S
C455 C6 1.463 . S
C510 C83 0.824 . S
C491 C46 0.872 . S
C546 C108 0.983 . S
C527 C19 0.976 . S
