# Generated by pormake.
# Topology iac, (4,6)-cn, num edge types: 1
# Building blocks:
#     Node 0, Type 0, BuildingBlock: AZAVOO_clean_sbu_0, # of connection points: 4
#     Node 1, Type 0, BuildingBlock: AZAVOO_clean_sbu_0, # of connection points: 4
#     Node 2, Type 0, BuildingBlock: AZAVOO_clean_sbu_0, # of connection points: 4
#     Node 3, Type 0, BuildingBlock: AZAVOO_clean_sbu_0, # of connection points: 4
#     Node 4, Type 0, BuildingBlock: AZAVOO_clean_sbu_0, # of connection points: 4
#     Node 5, Type 0, BuildingBlock: AZAVOO_clean_sbu_0, # of connection points: 4
#     Node 6, Type 0, BuildingBlock: AZAVOO_clean_sbu_0, # of connection points: 4
#     Node 7, Type 0, BuildingBlock: AZAVOO_clean_sbu_0, # of connection points: 4
#     Node 8, Type 0, BuildingBlock: AZAVOO_clean_sbu_0, # of connection points: 4
#     Node 9, Type 0, BuildingBlock: AZAVOO_clean_sbu_0, # of connection points: 4
#     Node 10, Type 0, BuildingBlock: AZAVOO_clean_sbu_0, # of connection points: 4
#     Node 11, Type 0, BuildingBlock: AZAVOO_clean_sbu_0, # of connection points: 4
#     Node 12, Type 0, BuildingBlock: AZAVOO_clean_sbu_0, # of connection points: 4
#     Node 13, Type 0, BuildingBlock: AZAVOO_clean_sbu_0, # of connection points: 4
#     Node 14, Type 0, BuildingBlock: AZAVOO_clean_sbu_0, # of connection points: 4
#     Node 15, Type 0, BuildingBlock: AZAVOO_clean_sbu_0, # of connection points: 4
#     Node 16, Type 0, BuildingBlock: AZAVOO_clean_sbu_0, # of connection points: 4
#     Node 17, Type 0, BuildingBlock: AZAVOO_clean_sbu_0, # of connection points: 4
#     Node 18, Type 0, BuildingBlock: AZAVOO_clean_sbu_0, # of connection points: 4
#     Node 19, Type 0, BuildingBlock: AZAVOO_clean_sbu_0, # of connection points: 4
#     Node 20, Type 0, BuildingBlock: AZAVOO_clean_sbu_0, # of connection points: 4
#     Node 21, Type 0, BuildingBlock: AZAVOO_clean_sbu_0, # of connection points: 4
#     Node 22, Type 0, BuildingBlock: AZAVOO_clean_sbu_0, # of connection points: 4
#     Node 23, Type 0, BuildingBlock: AZAVOO_clean_sbu_0, # of connection points: 4
#     Node 24, Type 1, BuildingBlock: VOLQOD_clean_sbu_1, # of connection points: 6
#     Node 25, Type 1, BuildingBlock: VOLQOD_clean_sbu_1, # of connection points: 6
#     Node 26, Type 1, BuildingBlock: VOLQOD_clean_sbu_1, # of connection points: 6
#     Node 27, Type 1, BuildingBlock: VOLQOD_clean_sbu_1, # of connection points: 6
#     Node 28, Type 1, BuildingBlock: VOLQOD_clean_sbu_1, # of connection points: 6
#     Node 29, Type 1, BuildingBlock: VOLQOD_clean_sbu_1, # of connection points: 6
#     Node 30, Type 1, BuildingBlock: VOLQOD_clean_sbu_1, # of connection points: 6
#     Node 31, Type 1, BuildingBlock: VOLQOD_clean_sbu_1, # of connection points: 6
#     Node 32, Type 1, BuildingBlock: VOLQOD_clean_sbu_1, # of connection points: 6
#     Node 33, Type 1, BuildingBlock: VOLQOD_clean_sbu_1, # of connection points: 6
#     Node 34, Type 1, BuildingBlock: VOLQOD_clean_sbu_1, # of connection points: 6
#     Node 35, Type 1, BuildingBlock: VOLQOD_clean_sbu_1, # of connection points: 6
#     Node 36, Type 1, BuildingBlock: VOLQOD_clean_sbu_1, # of connection points: 6
#     Node 37, Type 1, BuildingBlock: VOLQOD_clean_sbu_1, # of connection points: 6
#     Node 38, Type 1, BuildingBlock: VOLQOD_clean_sbu_1, # of connection points: 6
#     Node 39, Type 1, BuildingBlock: VOLQOD_clean_sbu_1, # of connection points: 6
#     Edge 40, Type (0, 1), BuildingBlock: XIVTED_clean_linker_0, # of connection points: 2
#     Edge 41, Type (0, 1), BuildingBlock: XIVTED_clean_linker_0, # of connection points: 2
#     Edge 42, Type (0, 1), BuildingBlock: XIVTED_clean_linker_0, # of connection points: 2
#     Edge 43, Type (0, 1), BuildingBlock: XIVTED_clean_linker_0, # of connection points: 2
#     Edge 44, Type (0, 1), BuildingBlock: XIVTED_clean_linker_0, # of connection points: 2
#     Edge 45, Type (0, 1), BuildingBlock: XIVTED_clean_linker_0, # of connection points: 2
#     Edge 46, Type (0, 1), BuildingBlock: XIVTED_clean_linker_0, # of connection points: 2
#     Edge 47, Type (0, 1), BuildingBlock: XIVTED_clean_linker_0, # of connection points: 2
#     Edge 48, Type (0, 1), BuildingBlock: XIVTED_clean_linker_0, # of connection points: 2
#     Edge 49, Type (0, 1), BuildingBlock: XIVTED_clean_linker_0, # of connection points: 2
#     Edge 50, Type (0, 1), BuildingBlock: XIVTED_clean_linker_0, # of connection points: 2
#     Edge 51, Type (0, 1), BuildingBlock: XIVTED_clean_linker_0, # of connection points: 2
#     Edge 52, Type (0, 1), BuildingBlock: XIVTED_clean_linker_0, # of connection points: 2
#     Edge 53, Type (0, 1), BuildingBlock: XIVTED_clean_linker_0, # of connection points: 2
#     Edge 54, Type (0, 1), BuildingBlock: XIVTED_clean_linker_0, # of connection points: 2
#     Edge 55, Type (0, 1), BuildingBlock: XIVTED_clean_linker_0, # of connection points: 2
#     Edge 56, Type (0, 1), BuildingBlock: XIVTED_clean_linker_0, # of connection points: 2
#     Edge 57, Type (0, 1), BuildingBlock: XIVTED_clean_linker_0, # of connection points: 2
#     Edge 58, Type (0, 1), BuildingBlock: XIVTED_clean_linker_0, # of connection points: 2
#     Edge 59, Type (0, 1), BuildingBlock: XIVTED_clean_linker_0, # of connection points: 2
#     Edge 60, Type (0, 1), BuildingBlock: XIVTED_clean_linker_0, # of connection points: 2
#     Edge 61, Type (0, 1), BuildingBlock: XIVTED_clean_linker_0, # of connection points: 2
#     Edge 62, Type (0, 1), BuildingBlock: XIVTED_clean_linker_0, # of connection points: 2
#     Edge 63, Type (0, 1), BuildingBlock: XIVTED_clean_linker_0, # of connection points: 2
#     Edge 64, Type (0, 1), BuildingBlock: XIVTED_clean_linker_0, # of connection points: 2
#     Edge 65, Type (0, 1), BuildingBlock: XIVTED_clean_linker_0, # of connection points: 2
#     Edge 66, Type (0, 1), BuildingBlock: XIVTED_clean_linker_0, # of connection points: 2
#     Edge 67, Type (0, 1), BuildingBlock: XIVTED_clean_linker_0, # of connection points: 2
#     Edge 68, Type (0, 1), BuildingBlock: XIVTED_clean_linker_0, # of connection points: 2
#     Edge 69, Type (0, 1), BuildingBlock: XIVTED_clean_linker_0, # of connection points: 2
#     Edge 70, Type (0, 1), BuildingBlock: XIVTED_clean_linker_0, # of connection points: 2
#     Edge 71, Type (0, 1), BuildingBlock: XIVTED_clean_linker_0, # of connection points: 2
#     Edge 72, Type (0, 1), BuildingBlock: XIVTED_clean_linker_0, # of connection points: 2
#     Edge 73, Type (0, 1), BuildingBlock: XIVTED_clean_linker_0, # of connection points: 2
#     Edge 74, Type (0, 1), BuildingBlock: XIVTED_clean_linker_0, # of connection points: 2
#     Edge 75, Type (0, 1), BuildingBlock: XIVTED_clean_linker_0, # of connection points: 2
#     Edge 76, Type (0, 1), BuildingBlock: XIVTED_clean_linker_0, # of connection points: 2
#     Edge 77, Type (0, 1), BuildingBlock: XIVTED_clean_linker_0, # of connection points: 2
#     Edge 78, Type (0, 1), BuildingBlock: XIVTED_clean_linker_0, # of connection points: 2
#     Edge 79, Type (0, 1), BuildingBlock: XIVTED_clean_linker_0, # of connection points: 2
#     Edge 80, Type (0, 1), BuildingBlock: XIVTED_clean_linker_0, # of connection points: 2
#     Edge 81, Type (0, 1), BuildingBlock: XIVTED_clean_linker_0, # of connection points: 2
#     Edge 82, Type (0, 1), BuildingBlock: XIVTED_clean_linker_0, # of connection points: 2
#     Edge 83, Type (0, 1), BuildingBlock: XIVTED_clean_linker_0, # of connection points: 2
#     Edge 84, Type (0, 1), BuildingBlock: XIVTED_clean_linker_0, # of connection points: 2
#     Edge 85, Type (0, 1), BuildingBlock: XIVTED_clean_linker_0, # of connection points: 2
#     Edge 86, Type (0, 1), BuildingBlock: XIVTED_clean_linker_0, # of connection points: 2
#     Edge 87, Type (0, 1), BuildingBlock: XIVTED_clean_linker_0, # of connection points: 2
#     Edge 88, Type (0, 1), BuildingBlock: XIVTED_clean_linker_0, # of connection points: 2
#     Edge 89, Type (0, 1), BuildingBlock: XIVTED_clean_linker_0, # of connection points: 2
#     Edge 90, Type (0, 1), BuildingBlock: XIVTED_clean_linker_0, # of connection points: 2
#     Edge 91, Type (0, 1), BuildingBlock: XIVTED_clean_linker_0, # of connection points: 2
#     Edge 92, Type (0, 1), BuildingBlock: XIVTED_clean_linker_0, # of connection points: 2
#     Edge 93, Type (0, 1), BuildingBlock: XIVTED_clean_linker_0, # of connection points: 2
#     Edge 94, Type (0, 1), BuildingBlock: XIVTED_clean_linker_0, # of connection points: 2
#     Edge 95, Type (0, 1), BuildingBlock: XIVTED_clean_linker_0, # of connection points: 2
#     Edge 96, Type (0, 1), BuildingBlock: XIVTED_clean_linker_0, # of connection points: 2
#     Edge 97, Type (0, 1), BuildingBlock: XIVTED_clean_linker_0, # of connection points: 2
#     Edge 98, Type (0, 1), BuildingBlock: XIVTED_clean_linker_0, # of connection points: 2
#     Edge 99, Type (0, 1), BuildingBlock: XIVTED_clean_linker_0, # of connection points: 2
#     Edge 100, Type (0, 1), BuildingBlock: XIVTED_clean_linker_0, # of connection points: 2
#     Edge 101, Type (0, 1), BuildingBlock: XIVTED_clean_linker_0, # of connection points: 2
#     Edge 102, Type (0, 1), BuildingBlock: XIVTED_clean_linker_0, # of connection points: 2
#     Edge 103, Type (0, 1), BuildingBlock: XIVTED_clean_linker_0, # of connection points: 2
#     Edge 104, Type (0, 1), BuildingBlock: XIVTED_clean_linker_0, # of connection points: 2
#     Edge 105, Type (0, 1), BuildingBlock: XIVTED_clean_linker_0, # of connection points: 2
#     Edge 106, Type (0, 1), BuildingBlock: XIVTED_clean_linker_0, # of connection points: 2
#     Edge 107, Type (0, 1), BuildingBlock: XIVTED_clean_linker_0, # of connection points: 2
#     Edge 108, Type (0, 1), BuildingBlock: XIVTED_clean_linker_0, # of connection points: 2
#     Edge 109, Type (0, 1), BuildingBlock: XIVTED_clean_linker_0, # of connection points: 2
#     Edge 110, Type (0, 1), BuildingBlock: XIVTED_clean_linker_0, # of connection points: 2
#     Edge 111, Type (0, 1), BuildingBlock: XIVTED_clean_linker_0, # of connection points: 2
#     Edge 112, Type (0, 1), BuildingBlock: XIVTED_clean_linker_0, # of connection points: 2
#     Edge 113, Type (0, 1), BuildingBlock: XIVTED_clean_linker_0, # of connection points: 2
#     Edge 114, Type (0, 1), BuildingBlock: XIVTED_clean_linker_0, # of connection points: 2
#     Edge 115, Type (0, 1), BuildingBlock: XIVTED_clean_linker_0, # of connection points: 2
#     Edge 116, Type (0, 1), BuildingBlock: XIVTED_clean_linker_0, # of connection points: 2
#     Edge 117, Type (0, 1), BuildingBlock: XIVTED_clean_linker_0, # of connection points: 2
#     Edge 118, Type (0, 1), BuildingBlock: XIVTED_clean_linker_0, # of connection points: 2
#     Edge 119, Type (0, 1), BuildingBlock: XIVTED_clean_linker_0, # of connection points: 2
#     Edge 120, Type (0, 1), BuildingBlock: XIVTED_clean_linker_0, # of connection points: 2
#     Edge 121, Type (0, 1), BuildingBlock: XIVTED_clean_linker_0, # of connection points: 2
#     Edge 122, Type (0, 1), BuildingBlock: XIVTED_clean_linker_0, # of connection points: 2
#     Edge 123, Type (0, 1), BuildingBlock: XIVTED_clean_linker_0, # of connection points: 2
#     Edge 124, Type (0, 1), BuildingBlock: XIVTED_clean_linker_0, # of connection points: 2
#     Edge 125, Type (0, 1), BuildingBlock: XIVTED_clean_linker_0, # of connection points: 2
#     Edge 126, Type (0, 1), BuildingBlock: XIVTED_clean_linker_0, # of connection points: 2
#     Edge 127, Type (0, 1), BuildingBlock: XIVTED_clean_linker_0, # of connection points: 2
#     Edge 128, Type (0, 1), BuildingBlock: XIVTED_clean_linker_0, # of connection points: 2
#     Edge 129, Type (0, 1), BuildingBlock: XIVTED_clean_linker_0, # of connection points: 2
#     Edge 130, Type (0, 1), BuildingBlock: XIVTED_clean_linker_0, # of connection points: 2
#     Edge 131, Type (0, 1), BuildingBlock: XIVTED_clean_linker_0, # of connection points: 2
#     Edge 132, Type (0, 1), BuildingBlock: XIVTED_clean_linker_0, # of connection points: 2
#     Edge 133, Type (0, 1), BuildingBlock: XIVTED_clean_linker_0, # of connection points: 2
#     Edge 134, Type (0, 1), BuildingBlock: XIVTED_clean_linker_0, # of connection points: 2
#     Edge 135, Type (0, 1), BuildingBlock: XIVTED_clean_linker_0, # of connection points: 2
# Relax obj value: 0.335
# Max RMSD: 0.297
# Mean RMSD: 0.201
data_MOF--net-iac--node1-AZAVOO_clean_sbu_0--node2-VOLQOD_clean_sbu_1--edge1-XIVTED_clean_linker_0
_symmetry_space_group_name_H-M    P1
_symmetry_Int_Tables_number       1
_symmetry_cell_setting            triclinic
loop_
_symmetry_equiv_pos_as_xyz
'x, y, z'
_cell_length_a     57.177072
_cell_length_b     54.211762
_cell_length_c     55.424099
_cell_angle_alpha  92.894757
_cell_angle_beta   90.040687
_cell_angle_gamma 91.62614
loop_
_atom_site_label
_atom_site_type_symbol
_atom_site_fract_x
_atom_site_fract_y
_atom_site_fract_z
_atom_type_partial_charge
Mg0 Mg 0.9644 0.26007 0.16292 0.0
O1 O 0.96387 0.22918 0.13278 0.0
O2 O 0.92938 0.23129 0.11377 0.0
Mg3 Mg 0.9092 0.26348 0.13029 0.0
C4 C 0.94915 0.22137 0.11654 0.0
C5 C 0.01021 0.26413 0.19002 0.0
O6 O -0.00529 0.27035 0.20656 0.0
O7 O 0.97152 0.28755 0.13469 0.0
O8 O 0.93751 0.28975 0.11525 0.0
O9 O 0.94786 0.23479 0.18857 0.0
O10 O 0.92852 0.25782 0.16376 0.0
C11 C 0.95902 0.29623 0.11831 0.0
C12 C 0.92819 0.24077 0.17919 0.0
O13 O 0.00317 0.25733 0.16894 0.0
Mg14 Mg 0.00439 0.73125 0.35474 0.0
O15 O -0.01966 0.75199 0.38053 0.0
O16 O 0.94428 0.73549 0.38241 0.0
Mg17 Mg 0.94781 0.69893 0.35981 0.0
C18 C 0.95953 0.75224 0.38854 0.0
C19 C 0.04733 0.77296 0.36053 0.0
O20 O 0.03373 0.75794 0.37218 0.0
O21 O 0.01093 0.70405 0.38364 0.0
O22 O 0.97532 0.68638 0.38704 0.0
O23 O -0.01104 0.75033 0.32387 0.0
O24 O 0.97554 0.71455 0.33647 0.0
C25 C -0.00324 0.68908 0.39358 0.0
C26 C 0.97345 0.73243 0.32225 0.0
O27 O 0.03379 0.75809 0.37142 0.0
Mg28 Mg 0.47243 0.77311 0.65918 0.0
O29 O 0.47364 0.73863 0.63349 0.0
O30 O 0.44086 0.73844 0.61117 0.0
Mg31 Mg 0.41834 0.77046 0.62403 0.0
C32 C 0.46038 0.72924 0.61663 0.0
C33 C 0.51828 0.7879 0.68344 0.0
O34 O 0.50283 0.80077 0.69584 0.0
O35 O 0.4796 0.79645 0.62757 0.0
O36 O 0.44582 0.79649 0.6074 0.0
O37 O 0.45585 0.75119 0.68753 0.0
O38 O 0.43657 0.76951 0.65902 0.0
C39 C 0.46726 0.80333 0.61017 0.0
C40 C 0.43628 0.7549 0.67669 0.0
O41 O 0.51123 0.77289 0.66648 0.0
Mg42 Mg 0.5045 0.23653 0.85074 0.0
O43 O 0.47856 0.25968 0.87193 0.0
O44 O 0.44455 0.23993 0.87815 0.0
Mg45 Mg 0.44932 0.20212 0.85811 0.0
C46 C 0.45804 0.259 0.8807 0.0
C47 C 0.54582 0.27888 0.85427 0.0
O48 O 0.55769 0.29623 0.86683 0.0
O49 O 0.51105 0.21351 0.88319 0.0
O50 O 0.47674 0.19314 0.8867 0.0
O51 O 0.49004 0.25048 0.81688 0.0
O52 O 0.47687 0.2165 0.83345 0.0
C53 C 0.49771 0.19819 0.89374 0.0
C54 C 0.47492 0.23221 0.81691 0.0
O55 O 0.53121 0.26544 0.86522 0.0
Mg56 Mg 0.11652 -0.01217 0.2528 0.0
O57 O 0.13302 0.02694 0.25798 0.0
O58 O 0.15118 0.02863 0.29391 0.0
Mg59 Mg 0.14717 -0.00851 0.31097 0.0
C60 C 0.14515 0.03857 0.27455 0.0
C61 C 0.09089 0.00391 0.20753 0.0
O62 O 0.079 0.01519 0.22487 0.0
O63 O 0.15223 0.97335 0.24412 0.0
O64 O 0.16955 0.97397 0.28029 0.0
O65 O 0.08397 -0.00079 0.27157 0.0
O66 O 0.11476 0.98521 0.29005 0.0
C67 C 0.16968 0.96912 0.25746 0.0
C68 C 0.09419 -0.00573 0.2915 0.0
O69 O 0.10895 -0.00772 0.21298 0.0
Mg70 Mg 0.25445 0.87953 0.49858 0.0
O71 O 0.2557 0.85783 0.46218 0.0
O72 O 0.28991 0.8388 0.4604 0.0
Mg73 Mg 0.31099 0.85026 0.49447 0.0
C74 C 0.27003 0.8434 0.45136 0.0
C75 C 0.20668 0.90168 0.48734 0.0
O76 O 0.22092 0.91763 0.47737 0.0
O77 O 0.24955 0.84382 0.51654 0.0
O78 O 0.28474 0.827 0.5167 0.0
O79 O 0.26937 0.91322 0.483 0.0
O80 O 0.2905 0.88427 0.49837 0.0
C81 C 0.26301 0.82674 0.52222 0.0
C82 C 0.28976 0.90485 0.48769 0.0
O83 O 0.21509 0.88284 0.49643 0.0
Mg84 Mg 0.3561 0.0092 0.7831 0.0
O85 O 0.33837 0.97098 0.78141 0.0
O86 O 0.31408 0.97014 0.81309 0.0
Mg87 Mg 0.31904 0.00568 0.8365 0.0
C88 C 0.32256 0.96028 0.79372 0.0
C89 C 0.38367 -0.00927 0.73802 0.0
O90 O 0.39261 0.9769 0.75429 0.0
O91 O 0.32174 0.0241 0.77238 0.0
O92 O 0.29993 0.02446 0.80588 0.0
O93 O 0.3859 -0.004 0.80345 0.0
O94 O 0.35381 0.01106 0.82022 0.0
C95 C 0.30277 0.02868 0.78356 0.0
C96 C 0.3738 0.00102 0.82273 0.0
O97 O 0.36721 0.00499 0.74405 0.0
Mg98 Mg 0.2746 0.09401 0.97867 0.0
O99 O 0.26933 0.12535 0.00747 0.0
O100 O 0.30321 0.14715 0.01065 0.0
Mg101 Mg 0.32994 0.12915 0.98542 0.0
C102 C 0.28186 0.14341 0.01659 0.0
C103 C 0.22879 0.06402 0.9726 0.0
O104 O 0.24453 0.04681 0.97235 0.0
O105 O 0.27353 0.12219 0.94978 0.0
O106 O 0.30818 0.14203 0.95379 0.0
O107 O 0.28549 0.06911 0.00702 0.0
O108 O 0.30962 0.09428 -0.01188 0.0
C109 C 0.28837 0.13857 0.94331 0.0
C110 C 0.30621 0.07904 0.00502 0.0
O111 O 0.23553 0.08653 0.9751 0.0
Mg112 Mg 0.75577 0.3955 -0.00377 0.0
O113 O 0.7549 0.3706 0.96141 0.0
O114 O 0.78817 0.34978 0.961 0.0
Mg115 Mg 0.81071 0.36309 -0.00652 0.0
C116 C 0.76839 0.35448 0.95177 0.0
C117 C 0.70942 0.40695 0.01703 0.0
O118 O 0.72492 0.41146 0.03433 0.0
O119 O 0.75004 0.36194 0.01749 0.0
O120 O 0.78425 0.34326 0.01832 0.0
O121 O 0.77187 0.42721 0.97769 0.0
O122 O 0.79169 0.3981 -0.00551 0.0
C123 C 0.76276 0.34479 0.02443 0.0
C124 C 0.79187 0.41793 0.98258 0.0
O125 O 0.71655 0.40007 -0.0039 0.0
Mg126 Mg 0.8636 0.50309 0.27614 0.0
O127 O 0.8459 0.46473 0.27567 0.0
O128 O 0.82718 0.46242 0.31105 0.0
Mg129 Mg 0.8335 0.49819 0.33384 0.0
C130 C 0.83284 0.45316 0.29028 0.0
C131 C 0.88467 0.48357 0.22854 0.0
O132 O 0.89168 0.46731 0.24357 0.0
O133 O 0.82827 0.51815 0.27015 0.0
O134 O 0.81089 0.51806 0.30629 0.0
O135 O 0.89599 0.48993 0.29176 0.0
O136 O 0.86602 0.5035 0.31341 0.0
C137 C 0.81097 0.52281 0.2839 0.0
C138 C 0.88639 0.49383 0.31268 0.0
O139 O 0.8707 0.50001 0.23607 0.0
Mg140 Mg 0.7694 0.59338 0.48931 0.0
O141 O 0.77031 0.62608 0.51778 0.0
O142 O 0.80667 0.64264 0.51629 0.0
Mg143 Mg 0.82797 0.62221 0.48748 0.0
C144 C 0.78601 0.64209 0.52508 0.0
C145 C 0.72319 0.56606 0.4887 0.0
O146 O 0.7391 0.54902 0.48746 0.0
O147 O 0.76704 0.62111 0.46019 0.0
O148 O 0.8033 0.63748 0.45947 0.0
O149 O 0.78167 0.56789 0.51671 0.0
O150 O 0.80496 0.59031 0.494 0.0
C151 C 0.78223 0.63604 0.45176 0.0
C152 C 0.80254 0.57585 0.51166 0.0
O153 O 0.7299 0.58864 0.4904 0.0
Mg154 Mg 0.6286 0.4739 0.75621 0.0
O155 O 0.6406 0.51471 0.7586 0.0
O156 O 0.66008 0.52095 0.79355 0.0
Mg157 Mg 0.6611 0.48484 0.81282 0.0
C158 C 0.65196 0.52876 0.77396 0.0
C159 C 0.60157 0.48925 0.7121 0.0
O160 O 0.59264 0.503 0.72979 0.0
O161 O 0.66535 0.46338 0.74677 0.0
O162 O 0.68398 0.46757 0.78226 0.0
O163 O 0.59589 0.48272 0.77562 0.0
O164 O 0.62863 0.47322 0.79376 0.0
C165 C 0.68365 0.46155 0.75963 0.0
C166 C 0.60735 0.48034 0.79547 0.0
O167 O 0.61863 0.47572 0.71664 0.0
Mg168 Mg -0.01665 0.72301 0.8636 0.0
O169 O 0.97662 0.76301 0.8757 0.0
O170 O 0.94215 0.76446 0.89447 0.0
Mg171 Mg 0.92648 0.72531 0.89399 0.0
C172 C 0.96091 0.77496 0.88717 0.0
C173 C 0.02341 0.72532 0.83113 0.0
O174 O 0.00897 0.70761 0.82278 0.0
O175 O -0.00741 0.71593 0.9026 0.0
O176 O 0.95662 0.71562 0.91864 0.0
O177 O 0.96399 0.72572 0.82912 0.0
O178 O 0.94782 0.71365 0.86288 0.0
C179 C 0.97873 0.71331 0.92048 0.0
C180 C 0.94561 0.71818 0.84045 0.0
O181 O 0.01972 0.73508 0.85206 0.0
Mg182 Mg 0.97915 0.23856 0.66578 0.0
O183 O -0.0132 0.20479 0.64048 0.0
O184 O 0.95743 0.20114 0.61366 0.0
Mg185 Mg 0.92971 0.22923 0.62403 0.0
C186 C 0.97696 0.19428 0.62182 0.0
C187 C 0.02807 0.26089 0.68205 0.0
O188 O 0.01816 0.28158 0.67698 0.0
O189 O -0.01321 0.26494 0.63577 0.0
O190 O 0.95468 0.26032 0.61272 0.0
O191 O 0.96073 0.21469 0.69183 0.0
O192 O 0.94381 0.23168 0.66107 0.0
C193 C 0.97443 0.27089 0.61787 0.0
C194 C 0.94215 0.21756 0.67902 0.0
O195 O 0.01671 0.24052 0.67878 0.0
Mg196 Mg 0.48055 0.22635 0.3629 0.0
O197 O 0.47536 0.26718 0.37292 0.0
O198 O 0.4385 0.27182 0.38526 0.0
Mg199 Mg 0.41961 0.23414 0.38179 0.0
C200 C 0.45901 0.28062 0.38131 0.0
C201 C 0.52568 0.22352 0.33946 0.0
O202 O 0.51241 0.20487 0.33095 0.0
O203 O 0.48143 0.21951 0.40309 0.0
O204 O 0.44331 0.22183 0.41203 0.0
O205 O 0.46893 0.22979 0.325 0.0
O206 O 0.44522 0.22106 0.35513 0.0
C207 C 0.46444 0.2179 0.418 0.0
C208 C 0.44798 0.22547 0.3327 0.0
O209 O 0.51918 0.23517 0.35862 0.0
Mg210 Mg 0.48011 0.74562 0.14942 0.0
O211 O 0.49035 0.71084 0.12699 0.0
O212 O 0.46424 0.70558 0.09696 0.0
Mg213 Mg 0.43537 0.73361 0.10282 0.0
C214 C 0.48272 0.69934 0.10778 0.0
C215 C 0.52203 0.73769 0.18419 0.0
O216 O 0.50648 0.72279 0.19373 0.0
O217 O 0.49053 0.77064 0.11924 0.0
O218 O 0.46071 0.76515 0.09322 0.0
O219 O 0.4587 0.7232 0.17451 0.0
O220 O 0.44524 0.73862 0.14127 0.0
C221 C 0.4798 0.77614 0.1001 0.0
C222 C 0.44137 0.72589 0.15991 0.0
O223 O 0.51652 0.74926 0.16574 0.0
Mg224 Mg 0.85782 0.03991 0.74632 0.0
O225 O 0.8496 -0.00063 0.75046 0.0
O226 O 0.83911 -0.00823 0.78809 0.0
Mg227 Mg 0.83982 0.02976 0.80844 0.0
C228 C 0.84293 0.98451 0.76624 0.0
C229 C 0.88149 0.03336 0.69861 0.0
O230 O 0.89572 0.04812 0.71161 0.0
O231 O 0.81864 0.0461 0.74548 0.0
O232 O 0.80953 0.04099 0.78425 0.0
O233 O 0.89431 0.03596 0.75894 0.0
O234 O 0.86508 0.0461 0.7832 0.0
C235 C 0.80377 0.04583 0.76272 0.0
C236 C 0.88691 0.04149 0.7805 0.0
O237 O 0.86092 0.02933 0.70641 0.0
Mg238 Mg 0.7435 0.1043 0.46637 0.0
O239 O 0.74954 0.12716 0.50128 0.0
O240 O 0.78085 0.15222 0.49852 0.0
Mg241 Mg 0.7962 0.1436 0.461 0.0
C242 C 0.76327 0.14411 0.51021 0.0
C243 C 0.7061 0.07292 0.49095 0.0
O244 O 0.72281 0.05698 0.48774 0.0
O245 O 0.73013 0.13832 0.44941 0.0
O246 O 0.76345 0.16036 0.44506 0.0
O247 O 0.76587 0.07481 0.47803 0.0
O248 O 0.77903 0.10653 0.45781 0.0
C249 C 0.74131 0.15736 0.44238 0.0
C250 C 0.7832 0.08647 0.46834 0.0
O251 O 0.70826 0.09396 0.48194 0.0
Mg252 Mg 0.63336 0.95951 0.27604 0.0
O253 O 0.64175 -0.00011 0.27162 0.0
O254 O 0.66188 0.01551 0.30366 0.0
Mg255 Mg 0.66221 0.98516 0.33097 0.0
C256 C 0.65286 0.0176 0.28282 0.0
C257 C 0.60547 0.95331 0.22927 0.0
O258 O 0.59017 0.94636 0.24542 0.0
O259 O 0.67151 0.95152 0.27095 0.0
O260 O 0.68806 0.96403 0.30624 0.0
O261 O 0.59916 0.9689 0.29156 0.0
O262 O 0.63136 0.96598 0.31337 0.0
C263 C 0.68924 0.95394 0.28494 0.0
C264 C 0.60956 0.97146 0.31231 0.0
O265 O 0.62659 0.9572 0.23574 0.0
Mg266 Mg 0.7452 0.87713 0.01752 0.0
O267 O 0.75256 0.86258 0.97926 0.0
O268 O 0.78831 0.84725 0.97658 0.0
Mg269 Mg 0.8051 0.85443 0.01385 0.0
C270 C 0.76863 0.85188 0.96723 0.0
C271 C 0.70453 0.89448 -0.01106 0.0
O272 O 0.72332 0.90291 0.9781 0.0
O273 O 0.74122 0.83723 0.029 0.0
O274 O 0.77871 0.82625 0.02804 0.0
O275 O 0.76034 0.91423 0.00998 0.0
O276 O 0.78067 0.88387 0.02386 0.0
C277 C 0.75711 0.82152 0.03222 0.0
C278 C 0.78024 0.90598 0.01651 0.0
O279 O 0.707 0.88078 0.00672 0.0
Mg280 Mg 0.25087 0.60959 0.96564 0.0
O281 O 0.25488 0.63087 0.00166 0.0
O282 O 0.28665 0.65562 0.00173 0.0
Mg283 Mg 0.30471 0.64793 0.96544 0.0
C284 C 0.2682 0.64745 0.01189 0.0
C285 C 0.21131 0.57568 0.98158 0.0
O286 O 0.2271 0.56004 0.97388 0.0
O287 O 0.23942 0.64502 0.94965 0.0
O288 O 0.27356 0.6662 0.94818 0.0
O289 O 0.27191 0.57901 0.97754 0.0
O290 O 0.28686 0.6115 0.95973 0.0
C291 C 0.25155 0.66408 0.94415 0.0
C292 C 0.29002 0.59084 0.96959 0.0
O293 O 0.21459 0.59854 0.97821 0.0
Mg294 Mg 0.14416 0.45211 0.77133 0.0
O295 O 0.15187 0.4933 0.77293 0.0
O296 O 0.17223 0.50409 0.80643 0.0
Mg297 Mg 0.17407 0.46961 0.82832 0.0
C298 C 0.16284 0.50934 0.78651 0.0
C299 C 0.11476 0.45065 0.72559 0.0
O300 O 0.10049 0.44119 0.74146 0.0
O301 O 0.18234 0.44585 0.76383 0.0
O302 O 0.19953 0.45378 0.79974 0.0
O303 O 0.11021 0.45801 0.78904 0.0
O304 O 0.14315 0.45274 0.80895 0.0
C305 C 0.20044 0.44694 0.77736 0.0
C306 C 0.12118 0.45764 0.80943 0.0
O307 O 0.1359 0.45527 0.7316 0.0
Mg308 Mg 0.24924 0.36877 0.51255 0.0
O309 O 0.2602 0.36037 0.47365 0.0
O310 O 0.29649 0.34626 0.47264 0.0
Mg311 Mg 0.31034 0.34995 0.51144 0.0
C312 C 0.27758 0.35161 0.46214 0.0
C313 C 0.20891 0.38673 0.48341 0.0
O314 O 0.22747 0.39813 0.47486 0.0
O315 O 0.24674 0.3274 0.51836 0.0
O316 O 0.2847 0.3185 0.52028 0.0
O317 O 0.26242 0.40766 0.51177 0.0
O318 O 0.28366 0.37671 0.52286 0.0
C319 C 0.26303 0.31219 0.5216 0.0
C320 C 0.28225 0.39984 0.51908 0.0
O321 O 0.21164 0.37119 0.49956 0.0
Mg322 Mg 0.35997 0.5336 0.25211 0.0
O323 O 0.3461 0.49508 0.25837 0.0
O324 O 0.32734 0.49272 0.29334 0.0
Mg325 Mg 0.33268 0.53124 0.31193 0.0
C326 C 0.33401 0.48298 0.27318 0.0
C327 C 0.37951 0.50051 0.21234 0.0
O328 O 0.38764 0.49229 0.2325 0.0
O329 O 0.32212 0.54414 0.24525 0.0
O330 O 0.30804 0.54429 0.283 0.0
O331 O 0.39406 0.52791 0.27029 0.0
O332 O 0.3627 0.54186 0.28911 0.0
C333 C 0.30553 0.54755 0.26046 0.0
C334 C 0.38421 0.53564 0.29015 0.0
O335 O 0.36658 0.5193 0.21342 0.0
O336 O -0.00056 0.06889 -0.00252 0.0
Zn337 Zn 0.00786 0.04036 0.97437 0.0
O338 O -0.00424 0.00889 -0.01418 0.0
Zn339 Zn 0.02075 0.98521 -0.01036 0.0
Zn340 Zn 0.97943 0.01417 0.016 0.0
Zn341 Zn 0.9728 -0.00463 0.96337 0.0
O342 O 0.01275 0.95162 0.97221 0.0
O343 O 0.97913 0.96054 0.95507 0.0
O344 O 0.04284 0.03895 0.97152 0.0
O345 O 0.05102 -0.00028 0.97717 0.0
O346 O 0.02683 0.98095 0.02539 0.0
O347 O -0.00223 0.00144 0.04287 0.0
O348 O 0.94716 -0.0013 0.01584 0.0
O349 O -0.00509 0.04701 0.94111 0.0
O350 O 0.94024 -0.00473 0.97649 0.0
O351 O 0.97324 0.01288 0.9331 0.0
C352 C -0.01428 0.06969 0.0156 0.0
C353 C -0.00514 0.94527 0.95928 0.0
C354 C 0.01613 -0.01111 0.04429 0.0
C355 C 0.05741 0.0216 0.97208 0.0
C356 C 0.93321 -0.00563 -0.00183 0.0
C357 C -0.01794 0.03331 0.92688 0.0
O358 O 0.97623 0.05021 0.02354 0.0
O359 O 0.19532 0.72204 0.17439 0.0
Zn360 Zn 0.19189 0.7246 0.21072 0.0
O361 O 0.21579 0.74756 0.22514 0.0
Zn362 Zn 0.23664 0.73045 0.24625 0.0
Zn363 Zn 0.23368 0.7629 0.19969 0.0
Zn364 Zn 0.20119 0.7733 0.24429 0.0
O365 O 0.23908 0.74686 0.27973 0.0
O366 O 0.21006 0.77307 0.27917 0.0
O367 O 0.1969 0.69017 0.22129 0.0
O368 O 0.22505 0.69555 0.24896 0.0
O369 O 0.26903 0.72816 0.23194 0.0
O370 O 0.26629 0.75087 0.19989 0.0
O371 O 0.23506 0.80019 0.20256 0.0
O372 O 0.15909 0.73469 0.22072 0.0
O373 O 0.21225 0.80642 0.23457 0.0
O374 O 0.16648 0.77022 0.24158 0.0
C375 C 0.20773 0.73418 0.15974 0.0
C376 C 0.22632 0.7629 0.29038 0.0
C377 C 0.27792 0.73715 0.21312 0.0
C378 C 0.21009 0.68181 0.23727 0.0
C379 C 0.22555 0.81455 0.21825 0.0
C380 C 0.15212 0.75393 0.2325 0.0
O381 O 0.2218 0.75149 0.1672 0.0
O382 O 0.50007 0.95939 0.51186 0.0
Zn383 Zn 0.49128 -0.0078 0.49995 0.0
O384 O 0.49658 0.01876 0.5245 0.0
Zn385 Zn 0.46691 0.03476 0.53226 0.0
Zn386 Zn 0.51068 0.00554 0.55319 0.0
Zn387 Zn 0.51827 0.04275 0.51204 0.0
O388 O 0.46854 0.07156 0.5265 0.0
O389 O 0.50464 0.07574 0.51228 0.0
O390 O 0.45757 -0.01147 0.49143 0.0
O391 O 0.44012 0.01838 0.51286 0.0
O392 O 0.45898 0.03006 0.56711 0.0
O393 O 0.48919 0.01033 0.58145 0.0
O394 O 0.5428 0.02021 0.56138 0.0
O395 O 0.50933 -0.00201 0.4698 0.0
O396 O 0.54641 0.04683 0.53246 0.0
O397 O 0.52914 0.03313 0.47852 0.0
C398 C 0.5092 0.95321 0.5315 0.0
C399 C 0.48529 0.08493 0.51865 0.0
C400 C 0.46924 0.01993 0.5843 0.0
C401 C 0.43923 -0.00014 0.49773 0.0
C402 C 0.55422 0.03716 0.5511 0.0
C403 C 0.52387 0.01487 0.46402 0.0
O404 O 0.51429 0.96912 0.54846 0.0
O405 O 0.27145 0.24289 0.78765 0.0
Zn406 Zn 0.27861 0.25335 0.75397 0.0
O407 O 0.25832 0.23621 0.73026 0.0
Zn408 Zn 0.27641 0.21302 0.70972 0.0
Zn409 Zn 0.23311 0.21914 0.74676 0.0
Zn410 Zn 0.2445 0.26046 0.71086 0.0
O411 O 0.27175 0.21895 0.67413 0.0
O412 O 0.2467 0.24963 0.67628 0.0
O413 O 0.31159 0.24474 0.74759 0.0
O414 O 0.3113 0.21471 0.71872 0.0
O415 O 0.26364 0.17856 0.71383 0.0
O416 O 0.23146 0.18358 0.73582 0.0
O417 O 0.20171 0.2334 0.74119 0.0
O418 O 0.27774 0.2901 0.75196 0.0
O419 O 0.21017 0.26393 0.71727 0.0
O420 O 0.25995 0.29388 0.71678 0.0
C421 C 0.25534 0.229 0.79595 0.0
C422 C 0.258 0.23346 0.6641 0.0
C423 C 0.24522 0.16983 0.7236 0.0
C424 C 0.32224 0.22923 0.73398 0.0
C425 C 0.19541 0.25147 0.72918 0.0
C426 C 0.27141 0.30327 0.73486 0.0
O427 O 0.2394 0.21923 0.78227 0.0
O428 O -0.00821 0.97698 0.44815 0.0
Zn429 Zn 0.97031 0.9664 0.47464 0.0
O430 O -0.01464 0.97339 0.50583 0.0
Zn431 Zn -0.00895 0.94306 0.52226 0.0
Zn432 Zn 0.01347 -0.00644 0.50247 0.0
Zn433 Zn 0.96504 -0.00726 0.52557 0.0
O434 O 0.97472 0.94359 0.55522 0.0
O435 O 0.94841 0.97187 0.54847 0.0
O436 O 0.96246 0.93002 0.4696 0.0
O437 O 0.97752 0.91384 0.50207 0.0
O438 O 0.02614 0.93838 0.52515 0.0
O439 O 0.04032 0.97414 0.51256 0.0
O440 O 0.01359 0.02592 0.52252 0.0
O441 O 0.94115 -0.01404 0.47132 0.0
O442 O -0.01805 0.01993 0.5448 0.0
O443 O 0.94153 0.00865 0.50581 0.0
C444 C 0.01004 -0.00896 0.44813 0.0
C445 C 0.95584 0.95455 0.56074 0.0
C446 C 0.04338 0.95285 0.52051 0.0
C447 C 0.96663 0.91141 0.48194 0.0
C448 C 0.00037 0.03241 0.54005 0.0
C449 C 0.93313 0.00333 0.48493 0.0
O450 O 0.01942 -0.00021 0.46769 0.0
O451 O 0.27138 0.73187 0.74414 0.0
Zn452 Zn 0.24249 0.75054 0.75222 0.0
O453 O 0.21635 0.74088 0.73105 0.0
Zn454 Zn 0.2045 0.76968 0.71517 0.0
Zn455 Zn 0.22678 0.71534 0.70772 0.0
Zn456 Zn 0.19157 0.72723 0.75018 0.0
O457 O 0.17081 0.77712 0.72436 0.0
O458 O 0.16234 0.74463 0.746 0.0
O459 O 0.25142 0.7856 0.74802 0.0
O460 O 0.22451 0.80025 0.72398 0.0
O461 O 0.20655 0.76312 0.67914 0.0
O462 O 0.22127 0.72559 0.67402 0.0
O463 O 0.21136 0.68217 0.71319 0.0
O464 O 0.23468 0.74718 0.78713 0.0
O465 O 0.18551 0.69164 0.74184 0.0
O466 O 0.19884 0.73054 0.78545 0.0
C467 C 0.2766 0.7178 0.72602 0.0
C468 C 0.15644 0.76421 0.73632 0.0
C469 C 0.21352 0.74516 0.66548 0.0
C470 C 0.24298 0.80317 0.73681 0.0
C471 C 0.19487 0.67602 0.72729 0.0
C472 C 0.21645 0.73898 0.79754 0.0
O473 O 0.26135 0.71093 0.71018 0.0
O474 O 0.551 0.0242 0.06149 0.0
Zn475 Zn 0.53957 0.02442 0.02665 0.0
O476 O 0.50758 0.01002 0.02472 0.0
Zn477 Zn 0.5059 0.98113 0.00211 0.0
Zn478 Zn 0.49596 0.00021 0.05585 0.0
Zn479 Zn 0.48695 0.03476 0.01466 0.0
O480 O 0.4821 0.98509 0.97594 0.0
O481 O 0.46893 0.02248 0.98548 0.0
O482 O 0.56105 0.00279 0.00662 0.0
O483 O 0.53745 0.97454 -0.012 0.0
O484 O 0.49798 0.94997 0.01893 0.0
O485 O 0.49433 0.96335 0.05716 0.0
O486 O 0.46405 0.01353 0.06467 0.0
O487 O 0.54171 0.05948 0.014 0.0
O488 O 0.46328 0.0438 0.03934 0.0
O489 O 0.50406 0.06547 0.00718 0.0
C490 C 0.54036 0.01914 0.08097 0.0
C491 C 0.46853 0.00271 0.9721 0.0
C492 C 0.49501 0.94578 0.0411 0.0
C493 C 0.55779 0.98397 -0.00785 0.0
C494 C 0.4548 0.03277 0.05713 0.0
C495 C 0.52525 0.07309 0.00743 0.0
O496 O 0.51914 0.01139 0.0809 0.0
O497 O 0.18862 0.27107 0.24229 0.0
Zn498 Zn 0.21906 0.25871 0.2542 0.0
O499 O 0.24328 0.26414 0.22996 0.0
Zn500 Zn 0.25662 0.2325 0.21987 0.0
Zn501 Zn 0.23127 0.28112 0.20213 0.0
Zn502 Zn 0.2675 0.28492 0.24454 0.0
O503 O 0.29074 0.22996 0.22979 0.0
O504 O 0.29731 0.26811 0.24493 0.0
O505 O 0.21301 0.22241 0.25832 0.0
O506 O 0.23804 0.20433 0.23298 0.0
O507 O 0.25406 0.22771 0.18418 0.0
O508 O 0.23844 0.26164 0.17076 0.0
O509 O 0.2443 0.31664 0.20079 0.0
O510 O 0.22721 0.27507 0.28696 0.0
O511 O 0.27286 0.31543 0.22777 0.0
O512 O 0.26023 0.29536 0.27855 0.0
C513 C 0.18193 0.27874 0.22212 0.0
C514 C 0.30449 0.24671 0.23915 0.0
C515 C 0.24686 0.24025 0.16701 0.0
C516 C 0.22142 0.20306 0.24815 0.0
C517 C 0.26211 0.32646 0.21173 0.0
C518 C 0.24416 0.28974 0.29324 0.0
O519 O 0.19629 0.2825 0.20502 0.0
O520 O 0.50065 0.4805 0.95064 0.0
Zn521 Zn 0.47687 0.47121 0.97529 0.0
O522 O 0.49054 0.47454 0.00748 0.0
Zn523 Zn 0.49065 0.44211 0.02206 0.0
Zn524 Zn 0.5215 0.49028 0.00634 0.0
Zn525 Zn 0.4722 0.49681 0.02692 0.0
O526 O 0.46988 0.44184 0.05224 0.0
O527 O 0.45364 0.47847 0.05021 0.0
O528 O 0.46655 0.43617 0.9671 0.0
O529 O 0.47744 0.41523 -0.00156 0.0
O530 O 0.52419 0.43382 0.02991 0.0
O531 O 0.54401 0.46848 0.02174 0.0
O532 O 0.52356 0.52432 0.02356 0.0
O533 O 0.44941 0.49309 0.97173 0.0
O534 O 0.49105 0.52303 0.04524 0.0
O535 O 0.44979 0.5143 0.00704 0.0
C536 C 0.52169 0.48879 0.95178 0.0
C537 C 0.45487 0.45758 0.05941 0.0
C538 C 0.5432 0.44672 0.02941 0.0
C539 C 0.46816 0.41591 0.97755 0.0
C540 C 0.51048 0.5334 0.04014 0.0
C541 C 0.44176 0.51026 -0.01418 0.0
O542 O 0.532 0.4933 0.97196 0.0
O543 O 0.76146 0.22442 0.24102 0.0
Zn544 Zn 0.734 0.24457 0.25127 0.0
O545 O 0.70829 0.24092 0.22848 0.0
Zn546 Zn 0.69961 0.27336 0.21765 0.0
Zn547 Zn 0.71742 0.21869 0.20161 0.0
Zn548 Zn 0.68182 0.22621 0.24441 0.0
O549 O 0.66705 0.28285 0.22955 0.0
O550 O 0.6541 0.24634 0.24142 0.0
O551 O 0.74581 0.27927 0.25352 0.0
O552 O 0.72308 0.30001 0.22968 0.0
O553 O 0.70069 0.27238 0.18127 0.0
O554 O 0.71335 0.23498 0.17024 0.0
O555 O 0.7001 0.18572 0.20185 0.0
O556 O 0.72424 0.23674 0.28449 0.0
O557 O 0.67433 0.19225 0.23125 0.0
O558 O 0.68722 0.22408 0.28012 0.0
C559 C 0.76626 0.21325 0.22098 0.0
C560 C 0.65071 0.2687 0.23702 0.0
C561 C 0.70678 0.25633 0.16501 0.0
C562 C 0.74036 0.29921 0.24414 0.0
C563 C 0.68316 0.17832 0.21477 0.0
C564 C 0.70504 0.22914 0.29339 0.0
O565 O 0.75131 0.21098 0.20395 0.0
O566 O 0.05203 0.51203 0.55743 0.0
Zn567 Zn 0.03991 0.51099 0.52287 0.0
O568 O 0.008 0.49613 0.52202 0.0
Zn569 Zn 0.00641 0.46504 0.50236 0.0
Zn570 Zn -0.00354 0.48975 0.55427 0.0
Zn571 Zn -0.01226 0.51927 0.50841 0.0
O572 O -0.01583 0.46659 0.47419 0.0
O573 O 0.97507 0.50627 0.47672 0.0
O574 O 0.06127 0.48913 0.50302 0.0
O575 O 0.03836 0.45751 0.48953 0.0
O576 O -0.00247 0.43599 0.52199 0.0
O577 O -0.00649 0.45333 0.5588 0.0
O578 O 0.96508 0.50486 0.56207 0.0
O579 O 0.04164 0.54591 0.50986 0.0
O580 O 0.96101 0.52696 0.52978 0.0
O581 O 0.00389 0.55103 0.50307 0.0
C582 C 0.04175 0.50877 0.57751 0.0
C583 C 0.97404 0.48502 0.46596 0.0
C584 C -0.00603 0.43424 0.5445 0.0
C585 C 0.05832 0.46849 0.49118 0.0
C586 C 0.95387 0.52009 0.55011 0.0
C587 C 0.02487 0.55925 0.5036 0.0
O588 O 0.02027 0.50201 0.57843 0.0
O589 O 0.76438 0.74508 0.29993 0.0
Zn590 Zn 0.77152 0.75608 0.26647 0.0
O591 O 0.75248 0.73763 0.24229 0.0
Zn592 Zn 0.77236 0.71699 0.22088 0.0
Zn593 Zn 0.72875 0.71772 0.25822 0.0
Zn594 Zn 0.73639 0.76092 0.2237 0.0
O595 O 0.7669 0.72361 0.18538 0.0
O596 O 0.7398 0.75213 0.18895 0.0
O597 O 0.80524 0.74982 0.26061 0.0
O598 O 0.80703 0.72187 0.22994 0.0
O599 O 0.76328 0.68124 0.22465 0.0
O600 O 0.7318 0.68212 0.24817 0.0
O601 O 0.69584 0.7275 0.25119 0.0
O602 O 0.76833 0.79276 0.26489 0.0
O603 O 0.70179 0.76013 0.22929 0.0
O604 O 0.7487 0.79543 0.2306 0.0
C605 C 0.74883 0.73034 0.30795 0.0
C606 C 0.75216 0.73756 0.17603 0.0
C607 C 0.74659 0.67023 0.23541 0.0
C608 C 0.81699 0.73606 0.24619 0.0
C609 C 0.68801 0.74527 0.23973 0.0
C610 C 0.76021 0.80551 0.2483 0.0
O611 O 0.73383 0.71934 0.29394 0.0
O612 O 0.70034 0.21523 0.68001 0.0
Zn613 Zn 0.69468 0.21924 0.71615 0.0
O614 O 0.71821 0.24187 0.73161 0.0
Zn615 Zn 0.73581 0.22513 0.75591 0.0
Zn616 Zn 0.73932 0.25395 0.70717 0.0
Zn617 Zn 0.70355 0.26997 0.74718 0.0
O618 O 0.73672 0.24435 0.78809 0.0
O619 O 0.71025 0.27271 0.78281 0.0
O620 O 0.69718 0.18532 0.72902 0.0
O621 O 0.72153 0.19145 0.7602 0.0
O622 O 0.76899 0.21905 0.74478 0.0
O623 O 0.76993 0.23813 0.71026 0.0
O624 O 0.74454 0.2909 0.70906 0.0
O625 O 0.66189 0.2312 0.72313 0.0
O626 O 0.71687 0.30156 0.7354 0.0
O627 O 0.66898 0.26783 0.74212 0.0
C628 C 0.7141 0.2266 0.66598 0.0
C629 C 0.72472 0.26238 0.79622 0.0
C630 C 0.77951 0.22495 0.72558 0.0
C631 C 0.70763 0.17752 0.74731 0.0
C632 C 0.73339 0.30721 0.7212 0.0
C633 C 0.65477 0.25136 0.73306 0.0
O634 O 0.72862 0.24317 0.6741 0.0
O635 O 0.6883 0.77257 0.74259 0.0
Zn636 Zn 0.7137 0.75471 0.75838 0.0
O637 O 0.74207 0.75875 0.73931 0.0
Zn638 Zn 0.75294 0.72658 0.72787 0.0
Zn639 Zn 0.73809 0.78038 0.71222 0.0
Zn640 Zn 0.76518 0.77347 0.76071 0.0
O641 O 0.78234 0.71684 0.74471 0.0
O642 O 0.78791 0.74917 0.77047 0.0
O643 O 0.70346 0.71884 0.75865 0.0
O644 O 0.72851 0.70022 0.73358 0.0
O645 O 0.75937 0.72646 0.69269 0.0
O646 O 0.74629 0.7621 0.68047 0.0
O647 O 0.75954 0.81156 0.7162 0.0
O648 O 0.7168 0.76878 0.79293 0.0
O649 O 0.7822 0.80097 0.74627 0.0
O650 O 0.75166 0.78756 0.79097 0.0
C651 C 0.68657 0.78519 0.72393 0.0
C652 C 0.79327 0.72781 0.7623 0.0
C653 C 0.7553 0.7411 0.67609 0.0
C654 C 0.71046 0.69958 0.74699 0.0
C655 C 0.77733 0.81563 0.72998 0.0
C656 C 0.73285 0.78301 0.80215 0.0
O657 O 0.70406 0.78956 0.71034 0.0
O658 O 0.49667 0.56535 0.50938 0.0
Zn659 Zn 0.50316 0.53641 0.48638 0.0
O660 O 0.49188 0.50572 0.50029 0.0
Zn661 Zn 0.51671 0.48118 0.50019 0.0
Zn662 Zn 0.48007 0.51185 0.53297 0.0
Zn663 Zn 0.46588 0.49343 0.48109 0.0
O664 O 0.50768 0.45022 0.47896 0.0
O665 O 0.47238 0.46032 0.4667 0.0
O666 O 0.53788 0.5355 0.48188 0.0
O667 O 0.54682 0.49671 0.48831 0.0
O668 O 0.52454 0.47238 0.53461 0.0
O669 O 0.49991 0.49544 0.55625 0.0
O670 O 0.44655 0.49982 0.5377 0.0
O671 O 0.48792 0.54274 0.4541 0.0
O672 O 0.43658 0.49064 0.4996 0.0
O673 O 0.45904 0.51458 0.45434 0.0
C674 C 0.48879 0.56704 0.53088 0.0
C675 C 0.48896 0.44521 0.46685 0.0
C676 C 0.51654 0.48036 0.55493 0.0
C677 C 0.55279 0.51856 0.48279 0.0
C678 C 0.43135 0.49301 0.52179 0.0
C679 C 0.46932 0.53275 0.44498 0.0
O680 O 0.48213 0.54806 0.54193 0.0
O681 O 0.00255 0.44861 0.0136 0.0
Zn682 Zn -0.00116 0.48124 -0.00121 0.0
O683 O 0.0069 0.50846 0.02183 0.0
Zn684 Zn 0.97916 0.52803 0.02891 0.0
Zn685 Zn 0.02006 0.49559 0.05124 0.0
Zn686 Zn 0.03033 0.52927 0.00766 0.0
O687 O -0.01495 0.56438 0.02307 0.0
O688 O 0.02003 0.56353 0.00583 0.0
O689 O 0.96539 0.48222 -0.01107 0.0
O690 O 0.95126 0.515 0.00892 0.0
O691 O 0.97003 0.5245 0.06355 0.0
O692 O -0.0011 0.5037 0.07918 0.0
O693 O 0.05336 0.50787 0.05869 0.0
O694 O 0.01852 0.48193 0.96891 0.0
O695 O 0.0586 0.53197 0.02783 0.0
O696 O 0.04033 0.5162 0.97506 0.0
C697 C 0.0116 0.44248 0.03332 0.0
C698 C 0.00239 0.57533 0.01334 0.0
C699 C 0.97943 0.51447 0.08131 0.0
C700 C 0.94853 0.49631 -0.00583 0.0
C701 C 0.0658 0.52306 0.0471 0.0
C702 C 0.03426 0.49708 0.96208 0.0
O703 O 0.01982 0.45863 0.04875 0.0
H704 H 0.91854 0.19015 0.09182 0.0
H705 H 0.01382 0.11159 0.02016 0.0
H706 H -0.00757 0.20375 0.10447 0.0
H707 H 0.94611 0.08169 0.03982 0.0
H708 H 0.00539 0.14987 0.044 0.0
H709 H 0.92767 0.1544 0.06539 0.0
C710 C 0.93671 0.18568 0.08895 0.0
C711 C 0.95477 0.19986 0.10045 0.0
C712 C -0.00757 0.13488 0.04293 0.0
C713 C 0.96526 0.15913 0.07004 0.0
C714 C -0.00287 0.11321 0.02926 0.0
C715 C -0.01935 0.09351 0.02816 0.0
C716 C 0.97094 0.1369 0.05499 0.0
C717 C 0.95936 0.09639 0.04037 0.0
C718 C 0.94187 0.16525 0.07393 0.0
C719 C 0.97799 0.19315 0.09611 0.0
N720 N 0.95507 0.11772 0.05319 0.0
N721 N -0.01738 0.17325 0.08111 0.0
H722 H 0.04367 0.73056 0.33038 0.0
H723 H 0.1277 0.79601 0.23858 0.0
H724 H 0.06202 0.80831 0.33191 0.0
H725 H 0.12074 0.71699 0.24316 0.0
H726 H 0.09224 0.80078 0.26256 0.0
H727 H 0.0607 0.72577 0.28984 0.0
C728 C 0.05055 0.74675 0.32184 0.0
C729 C 0.05171 0.76989 0.33445 0.0
C730 C 0.09808 0.78233 0.25786 0.0
C731 C 0.07131 0.76449 0.28847 0.0
C732 C 0.11826 0.77961 0.24406 0.0
C733 C 0.12736 0.75612 0.23938 0.0
C734 C 0.08728 0.76145 0.26755 0.0
C735 C 0.11436 0.73545 0.24662 0.0
C736 C 0.06037 0.74399 0.29878 0.0
C737 C 0.06103 0.79016 0.32277 0.0
N738 N 0.09527 0.73862 0.26098 0.0
N739 N 0.07073 0.78696 0.30056 0.0
H740 H 0.51328 0.81819 0.60757 0.0
H741 H 0.53634 0.93266 0.56512 0.0
H742 H 0.44617 0.8269 0.57363 0.0
H743 H 0.485 0.91403 0.50954 0.0
H744 H 0.53137 0.89141 0.57982 0.0
H745 H 0.53009 0.84971 0.58246 0.0
C746 C 0.50204 0.82674 0.59485 0.0
C747 C 0.47808 0.82042 0.59322 0.0
C748 C 0.52179 0.89588 0.56385 0.0
C749 C 0.49716 0.85693 0.56483 0.0
C750 C 0.52451 0.91959 0.55557 0.0
C751 C 0.5108 0.92686 0.53635 0.0
C752 C 0.50502 0.87943 0.55297 0.0
C753 C 0.49582 0.90919 0.52453 0.0
C754 C 0.51167 0.84484 0.58059 0.0
C755 C 0.4646 0.83157 0.57588 0.0
N756 N 0.49287 0.88644 0.53344 0.0
N757 N 0.47428 0.84954 0.56256 0.0
H758 H 0.4605 0.26718 0.78664 0.0
H759 H 0.34808 0.1878 0.73822 0.0
H760 H 0.44398 0.19328 0.80811 0.0
H761 H 0.35365 0.26732 0.73966 0.0
H762 H 0.38818 0.187 0.7544 0.0
H763 H 0.42599 0.26487 0.7604 0.0
C764 C 0.44973 0.2504 0.7857 0.0
C765 C 0.45495 0.23052 0.79984 0.0
C766 C 0.38074 0.20456 0.75068 0.0
C767 C 0.41558 0.22768 0.76967 0.0
C768 C 0.35803 0.20499 0.74122 0.0
C769 C 0.34767 0.22766 0.7377 0.0
C770 C 0.39308 0.22694 0.75628 0.0
C771 C 0.36107 0.24947 0.74223 0.0
C772 C 0.43004 0.2491 0.77072 0.0
C773 C 0.44042 0.20917 0.79777 0.0
N774 N 0.38302 0.24859 0.75141 0.0
N775 N 0.42133 0.20834 0.78305 0.0
H776 H 0.92488 0.78606 0.38627 0.0
H777 H 0.97802 0.86689 0.49939 0.0
H778 H -0.01767 0.76445 0.43013 0.0
H779 H 0.9401 0.89854 0.44161 0.0
H780 H 0.97085 0.82591 0.48007 0.0
H781 H 0.92168 0.82404 0.41238 0.0
C782 C 0.93633 0.78904 0.40179 0.0
C783 C 0.95389 0.77232 0.40619 0.0
C784 C 0.9639 0.84182 0.47176 0.0
C785 C 0.95045 0.81526 0.43581 0.0
C786 C 0.96795 0.86525 0.4828 0.0
C787 C 0.96 0.88629 0.47192 0.0
C788 C 0.9517 0.83932 0.44974 0.0
C789 C 0.94687 0.88289 0.45048 0.0
C790 C 0.93465 0.8107 0.41651 0.0
C791 C 0.9686 0.77703 0.42621 0.0
N792 N 0.94329 0.85986 0.43997 0.0
N793 N 0.96661 0.7981 0.44023 0.0
H794 H 0.39906 0.74003 0.64817 0.0
H795 H 0.31391 0.72578 0.75679 0.0
H796 H 0.42442 0.74027 0.72147 0.0
H797 H 0.29608 0.69924 0.68412 0.0
H798 H 0.3551 0.72754 0.74524 0.0
H799 H 0.36178 0.72243 0.66121 0.0
C800 C 0.39676 0.73638 0.66702 0.0
C801 C 0.41456 0.74215 0.68389 0.0
C802 C 0.34221 0.7208 0.73198 0.0
C803 C 0.37204 0.72189 0.69899 0.0
C804 C 0.31869 0.71979 0.73856 0.0
C805 C 0.30148 0.71291 0.72124 0.0
C806 C 0.34844 0.71529 0.70786 0.0
C807 C 0.30871 0.70503 0.69798 0.0
C808 C 0.37558 0.72602 0.67443 0.0
C809 C 0.41095 0.73629 0.70798 0.0
N810 N 0.33161 0.70698 0.69181 0.0
N811 N 0.38988 0.7269 0.71495 0.0
H812 H 0.54235 0.18287 0.9016 0.0
H813 H 0.50209 0.11447 0.01946 0.0
H814 H 0.47339 0.18421 0.93305 0.0
H815 H 0.55759 0.08722 0.97374 0.0
H816 H 0.5 0.1508 -0.00458 0.0
H817 H 0.55523 0.15732 0.93442 0.0
C818 C 0.53008 0.17816 0.91563 0.0
C819 C 0.50671 0.18536 0.91454 0.0
C820 C 0.51304 0.1372 -0.00905 0.0
C821 C 0.52136 0.15681 0.95205 0.0
C822 C 0.51438 0.1166 0.00478 0.0
C823 C 0.52988 0.09781 -0.00163 0.0
C824 C 0.52708 0.1389 0.97033 0.0
C825 C 0.54543 0.10139 0.97922 0.0
C826 C 0.53742 0.16359 0.93424 0.0
C827 C 0.49147 0.17876 0.93306 0.0
N828 N 0.54331 0.12136 0.96545 0.0
N829 N 0.49905 0.16484 0.95099 0.0
H830 H 0.03113 0.27341 0.23401 0.0
H831 H 0.15989 0.28477 0.17903 0.0
H832 H 0.04661 0.26193 0.15809 0.0
H833 H 0.14624 0.27692 0.25496 0.0
H834 H 0.11784 0.28265 0.17132 0.0
H835 H 0.07292 0.27995 0.2422 0.0
C836 C 0.04332 0.2722 0.21907 0.0
C837 C 0.03542 0.26702 0.19534 0.0
C838 C 0.12407 0.28154 0.18968 0.0
C839 C 0.08312 0.27476 0.20455 0.0
C840 C 0.14807 0.28293 0.19414 0.0
C841 C 0.15662 0.28082 0.21767 0.0
C842 C 0.10852 0.27819 0.20889 0.0
C843 C 0.14044 0.27843 0.23651 0.0
C844 C 0.06714 0.27597 0.22376 0.0
C845 C 0.05197 0.26572 0.17667 0.0
N846 N 0.11715 0.27707 0.23169 0.0
N847 N 0.07505 0.26965 0.18168 0.0
H848 H 0.1101 0.98118 0.167 0.0
H849 H -0.00463 -0.00172 0.08787 0.0
H850 H 0.04949 0.02091 0.19168 0.0
H851 H 0.06033 0.97425 0.05604 0.0
H852 H 0.01399 0.00099 0.12734 0.0
H853 H 0.09167 0.97447 0.12713 0.0
C854 C 0.09303 -0.01135 0.164 0.0
C855 C 0.08131 0.00164 0.18272 0.0
C856 C 0.02419 -0.005 0.11178 0.0
C857 C 0.06008 -0.00636 0.13742 0.0
C858 C 0.01352 -0.00671 0.08919 0.0
C859 C 0.02637 -0.01371 0.06852 0.0
C860 C 0.04795 -0.01032 0.11386 0.0
C861 C 0.04978 0.9798 0.07148 0.0
C862 C 0.08251 0.98472 0.14129 0.0
C863 C 0.05921 0.01083 0.17784 0.0
N864 N 0.05992 0.98185 0.09376 0.0
N865 N 0.0493 0.00654 0.15574 0.0
H866 H 0.22944 0.84836 0.42595 0.0
H867 H 0.26379 0.75181 0.31857 0.0
H868 H 0.29447 0.80963 0.42359 0.0
H869 H 0.20102 0.79435 0.3195 0.0
H870 H 0.27405 0.77032 0.35848 0.0
H871 H 0.2178 0.82679 0.388 0.0
C872 C 0.24132 0.83537 0.41745 0.0
C873 C 0.26303 0.8309 0.42799 0.0
C874 C 0.25796 0.77547 0.34999 0.0
C875 C 0.2497 0.80598 0.38449 0.0
C876 C 0.25203 0.76482 0.32725 0.0
C877 C 0.23158 0.77165 0.31557 0.0
C878 C 0.24332 0.79303 0.36112 0.0
C879 C 0.21704 0.78863 0.3277 0.0
C880 C 0.23462 0.823 0.39578 0.0
C881 C 0.27761 0.81376 0.41612 0.0
N882 N 0.22326 0.79881 0.34973 0.0
N883 N 0.27069 0.80194 0.395 0.0
H884 H 0.42286 0.96774 0.72126 0.0
H885 H 0.42679 0.03833 0.59795 0.0
H886 H 0.37034 0.01848 0.70074 0.0
H887 H 0.48301 -0.00548 0.62305 0.0
H888 H 0.40496 0.02996 0.63464 0.0
H889 H 0.44373 0.97504 0.68377 0.0
C890 C 0.41559 0.98023 0.70877 0.0
C891 C 0.39491 -0.00736 0.71421 0.0
C892 C 0.42212 0.02227 0.63214 0.0
C893 C 0.41883 0.00128 0.67142 0.0
C894 C 0.43464 0.02712 0.61124 0.0
C895 C 0.45678 0.01711 0.60738 0.0
C896 C 0.43175 0.00721 0.64924 0.0
C897 C 0.46603 0.00268 0.62524 0.0
C898 C 0.42759 0.9845 0.68743 0.0
C899 C 0.38629 0.0086 0.69734 0.0
N900 N 0.45342 -0.00192 0.64533 0.0
N901 N 0.39836 0.01255 0.67674 0.0
H902 H 0.31476 0.17635 0.92524 0.0
H903 H 0.22387 0.20045 0.82023 0.0
H904 H 0.24807 0.13747 0.91626 0.0
H905 H 0.29089 0.23874 0.82864 0.0
H906 H 0.23038 0.18095 0.85824 0.0
H907 H 0.30465 0.20224 0.89229 0.0
C908 C 0.29797 0.17323 0.91637 0.0
C909 C 0.28233 0.15451 0.92344 0.0
C910 C 0.24355 0.19383 0.85193 0.0
C911 C 0.27061 0.18427 0.8857 0.0
C912 C 0.2398 0.20509 0.83024 0.0
C913 C 0.257 0.22104 0.82102 0.0
C914 C 0.26469 0.19844 0.86446 0.0
C915 C 0.27721 0.22645 0.83493 0.0
C916 C 0.29218 0.18812 0.8976 0.0
C917 C 0.26076 0.15153 0.91135 0.0
N918 N 0.28062 0.21493 0.8558 0.0
N919 N 0.2556 0.16617 0.893 0.0
H920 H 0.11313 -0.00611 0.33698 0.0
H921 H -0.00882 -0.01416 0.4027 0.0
H922 H 0.04818 0.00372 0.29935 0.0
H923 H 0.05499 0.00736 0.44089 0.0
H924 H 0.01165 -0.00926 0.36442 0.0
H925 H 0.09226 -0.00273 0.3753 0.0
C926 C 0.09455 -0.00301 0.33675 0.0
C927 C 0.08238 -0.00156 0.31492 0.0
C928 C 0.02106 -0.00534 0.38121 0.0
C929 C 0.05835 0.00195 0.35868 0.0
C930 C 0.00943 -0.00823 0.40303 0.0
C931 C 0.02145 -0.00395 0.42498 0.0
C932 C 0.04494 0.00141 0.38139 0.0
C933 C 0.04505 0.00386 0.42438 0.0
C934 C 0.08265 -0.00101 0.35865 0.0
C935 C 0.05825 0.00248 0.31578 0.0
N936 N 0.05613 0.00597 0.4029 0.0
N937 N 0.04694 0.00377 0.33731 0.0
H938 H 0.21708 0.81822 0.53319 0.0
H939 H 0.24478 0.72383 0.63418 0.0
H940 H 0.28606 0.79067 0.54535 0.0
H941 H 0.18844 0.77523 0.6378 0.0
H942 H 0.25447 0.73719 0.59373 0.0
H943 H 0.20144 0.79111 0.56328 0.0
C944 C 0.22895 0.80625 0.54194 0.0
C945 C 0.25309 0.80723 0.5372 0.0
C946 C 0.23968 0.74509 0.60322 0.0
C947 C 0.2351 0.77606 0.5716 0.0
C948 C 0.23402 0.73741 0.6262 0.0
C949 C 0.21598 0.74875 0.63944 0.0
C950 C 0.22695 0.76391 0.5934 0.0
C951 C 0.20269 0.76629 0.62831 0.0
C952 C 0.21993 0.79075 0.55909 0.0
C953 C 0.26742 0.79082 0.54874 0.0
N954 N 0.20858 0.77351 0.60598 0.0
N955 N 0.25825 0.77613 0.56574 0.0
H956 H 0.35615 0.0155 0.86695 0.0
H957 H 0.43249 0.03291 0.96312 0.0
H958 H 0.41331 0.97664 0.83306 0.0
H959 H 0.46593 0.96693 0.93528 0.0
H960 H 0.40559 0.02972 0.92912 0.0
H961 H 0.37558 0.01323 0.90599 0.0
C962 C 0.37269 0.00633 0.86776 0.0
C963 C 0.38337 -0.00335 0.84672 0.0
C964 C 0.41837 0.01555 0.9307 0.0
C965 C 0.40603 -0.00528 0.89106 0.0
C966 C 0.43402 0.01757 0.94997 0.0
C967 C 0.45159 0.00022 0.95199 0.0
C968 C 0.42031 -0.00395 0.91325 0.0
C969 C 0.45268 0.98073 0.93442 0.0
C970 C 0.38393 0.00533 0.89 0.0
C971 C 0.40466 0.98471 0.84881 0.0
N972 N 0.4374 0.97935 0.91559 0.0
N973 N 0.41541 0.98426 0.87059 0.0
H974 H 0.24512 0.13372 0.04658 0.0
H975 H 0.2573 0.26177 0.12432 0.0
H976 H 0.29589 0.19078 0.02982 0.0
H977 H 0.23752 0.19228 0.15421 0.0
H978 H 0.26176 0.24004 0.08447 0.0
H979 H 0.23207 0.15974 0.08111 0.0
C980 C 0.25326 0.15186 0.04992 0.0
C981 C 0.27185 0.15998 0.03558 0.0
C982 C 0.25616 0.22973 0.09978 0.0
C983 C 0.25689 0.18977 0.07474 0.0
C984 C 0.25357 0.24207 0.12237 0.0
C985 C 0.24736 0.22865 0.14247 0.0
C986 C 0.25191 0.20406 0.0974 0.0
C987 C 0.24269 0.20317 0.13916 0.0
C988 C 0.24586 0.16663 0.06963 0.0
C989 C 0.28175 0.18368 0.0407 0.0
N990 N 0.24507 0.19169 0.11705 0.0
N991 N 0.27422 0.19774 0.05997 0.0
H992 H 0.20849 0.01765 0.97036 0.0
H993 H 0.07806 0.06649 0.96337 0.0
H994 H 0.19185 0.09481 0.96951 0.0
H995 H 0.0942 -0.00979 0.97288 0.0
H996 H 0.11981 0.07657 0.96132 0.0
H997 H 0.16681 0.00677 0.96746 0.0
C998 C 0.19608 0.03232 0.96949 0.0
C999 C 0.20366 0.0572 0.97029 0.0
C1000 C 0.11421 0.0576 0.96373 0.0
C1001 C 0.15593 0.04485 0.9669 0.0
C1002 C 0.09035 0.05179 0.96483 0.0
C1003 C 0.08256 0.02746 0.96848 0.0
C1004 C 0.13047 0.03898 0.96627 0.0
C1005 C 0.09936 0.00923 0.97017 0.0
C1006 C 0.17228 0.02608 0.96784 0.0
C1007 C 0.18679 0.07539 0.96906 0.0
N1008 N 0.12253 0.01539 0.96917 0.0
N1009 N 0.16371 0.06885 0.96747 0.0
H1010 H 0.6899 0.43137 0.05578 0.0
H1011 H 0.55782 0.40083 0.01517 0.0
H1012 H 0.67186 0.38827 -0.00956 0.0
H1013 H 0.57976 0.46821 0.05445 0.0
H1014 H 0.59855 0.38738 0.01521 0.0
H1015 H 0.64829 0.43667 0.0639 0.0
C1016 C 0.67718 0.4229 0.04321 0.0
C1017 C 0.68431 0.40965 0.02222 0.0
C1018 C 0.59427 0.40484 0.02427 0.0
C1019 C 0.63679 0.41528 0.03169 0.0
C1020 C 0.57109 0.41236 0.02451 0.0
C1021 C 0.56562 0.43564 0.03479 0.0
C1022 C 0.61179 0.42058 0.03477 0.0
C1023 C 0.5834 0.45016 0.04629 0.0
C1024 C 0.65348 0.42591 0.0479 0.0
C1025 C 0.66708 0.39893 0.00664 0.0
N1026 N 0.60576 0.44244 0.04588 0.0
N1027 N 0.64404 0.40202 0.01168 0.0
H1028 H 0.82317 0.43575 0.24405 0.0
H1029 H 0.76811 0.30769 0.28364 0.0
H1030 H 0.81778 0.41617 0.31842 0.0
H1031 H 0.74551 0.34152 0.21903 0.0
H1032 H 0.79267 0.34416 0.2939 0.0
H1033 H 0.80117 0.39762 0.2318 0.0
C1034 C 0.81768 0.42325 0.25773 0.0
C1035 C 0.82221 0.42908 0.28229 0.0
C1036 C 0.78232 0.3436 0.27749 0.0
C1037 C 0.79722 0.38577 0.26843 0.0
C1038 C 0.76833 0.32281 0.27158 0.0
C1039 C 0.75467 0.32165 0.25048 0.0
C1040 C 0.78297 0.36329 0.26206 0.0
C1041 C 0.75563 0.3418 0.23556 0.0
C1042 C 0.80498 0.40169 0.25075 0.0
C1043 C 0.81452 0.41242 0.29932 0.0
N1044 N 0.76968 0.36185 0.24158 0.0
N1045 N 0.80243 0.39147 0.29206 0.0
H1046 H 0.83994 0.60562 0.52496 0.0
H1047 H 0.91482 0.49347 0.56251 0.0
H1048 H 0.8105 0.53239 0.53272 0.0
H1049 H 0.94175 0.56769 0.55494 0.0
H1050 H 0.87485 0.50893 0.56202 0.0
H1051 H 0.87526 0.59387 0.54536 0.0
C1052 C 0.84098 0.587 0.5309 0.0
C1053 C 0.82271 0.56968 0.52643 0.0
C1054 C 0.88952 0.52195 0.56125 0.0
C1055 C 0.8631 0.55596 0.54992 0.0
C1056 C 0.91228 0.51315 0.5618 0.0
C1057 C 0.93136 0.5294 0.55854 0.0
C1058 C 0.88615 0.54705 0.55734 0.0
C1059 C 0.92734 0.55463 0.5573 0.0
C1060 C 0.86107 0.58033 0.54283 0.0
C1061 C 0.82449 0.54613 0.53551 0.0
N1062 N 0.90516 0.56264 0.55631 0.0
N1063 N 0.84461 0.53973 0.5464 0.0
H1064 H 0.15601 0.07473 0.30903 0.0
H1065 H 0.22292 0.16085 0.21929 0.0
H1066 H 0.15442 0.05991 0.23178 0.0
H1067 H 0.19452 0.19008 0.28665 0.0
H1068 H 0.20252 0.12142 0.22542 0.0
H1069 H 0.17405 0.1154 0.30283 0.0
C1070 C 0.15932 0.08013 0.29076 0.0
C1071 C 0.15378 0.06397 0.27086 0.0
C1072 C 0.20077 0.1365 0.23882 0.0
C1073 C 0.17474 0.11011 0.26375 0.0
C1074 C 0.21257 0.1589 0.23548 0.0
C1075 C 0.21044 0.17874 0.25254 0.0
C1076 C 0.18711 0.13377 0.25956 0.0
C1077 C 0.1966 0.17526 0.27306 0.0
C1078 C 0.16955 0.10331 0.28726 0.0
C1079 C 0.15833 0.07188 0.24759 0.0
N1080 N 0.18555 0.15311 0.2761 0.0
N1081 N 0.16886 0.09432 0.24466 0.0
H1082 H 0.29281 0.95266 0.47463 0.0
H1083 H 0.39562 0.01934 0.50408 0.0
H1084 H 0.33538 0.89069 0.4896 0.0
H1085 H 0.43058 0.9554 0.47361 0.0
H1086 H 0.35799 -0.00226 0.49647 0.0
H1087 H 0.32831 0.97854 0.47171 0.0
C1088 C 0.30963 0.94441 0.47704 0.0
C1089 C 0.31116 0.91953 0.48268 0.0
C1090 C 0.37389 -0.01126 0.49086 0.0
C1091 C 0.35167 0.94911 0.47966 0.0
C1092 C 0.39539 0.00101 0.49534 0.0
C1093 C 0.41631 -0.01087 0.48964 0.0
C1094 C 0.37342 0.96437 0.4809 0.0
C1095 C 0.41493 0.9653 0.47839 0.0
C1096 C 0.32983 0.95928 0.4756 0.0
C1097 C 0.33339 0.90982 0.48549 0.0
N1098 N 0.39388 0.95353 0.47484 0.0
N1099 N 0.35281 0.92467 0.48399 0.0
H1100 H 0.79824 0.52375 0.23658 0.0
H1101 H 0.76969 0.63763 0.20543 0.0
H1102 H 0.77942 0.55231 0.30781 0.0
H1103 H 0.72335 0.64107 0.2669 0.0
H1104 H 0.77676 0.59472 0.21277 0.0
H1105 H 0.77294 0.55358 0.219 0.0
C1106 C 0.78856 0.53616 0.24853 0.0
C1107 C 0.79157 0.53626 0.27367 0.0
C1108 C 0.76432 0.60443 0.22416 0.0
C1109 C 0.76335 0.57091 0.25369 0.0
C1110 C 0.76048 0.62912 0.22007 0.0
C1111 C 0.74635 0.64307 0.23589 0.0
C1112 C 0.75419 0.59376 0.24443 0.0
C1113 C 0.73465 0.63105 0.25444 0.0
C1114 C 0.77426 0.55328 0.23846 0.0
C1115 C 0.778 0.55204 0.28832 0.0
N1116 N 0.73936 0.60725 0.25863 0.0
N1117 N 0.76484 0.56919 0.27808 0.0
H1118 H 0.69089 0.44828 0.71189 0.0
H1119 H 0.75637 0.335 0.75571 0.0
H1120 H 0.72175 0.44379 0.7826 0.0
H1121 H 0.72461 0.33842 0.68555 0.0
H1122 H 0.75675 0.38007 0.76017 0.0
H1123 H 0.71569 0.41516 0.69678 0.0
C1124 C 0.7033 0.44077 0.72413 0.0
C1125 C 0.70349 0.44805 0.74882 0.0
C1126 C 0.75034 0.37112 0.74345 0.0
C1127 C 0.73167 0.40989 0.73168 0.0
C1128 C 0.75022 0.34544 0.7409 0.0
C1129 C 0.74025 0.3333 0.72036 0.0
C1130 C 0.73963 0.38456 0.72565 0.0
C1131 C 0.73236 0.34733 0.70168 0.0
C1132 C 0.71749 0.42182 0.71546 0.0
C1133 C 0.72045 0.43822 0.7636 0.0
N1134 N 0.73168 0.37231 0.70501 0.0
N1135 N 0.7334 0.41913 0.75496 0.0
H1136 H 0.9298 0.80922 0.90358 0.0
H1137 H 0.02736 0.909 0.95029 0.0
H1138 H 0.00335 0.79986 0.88934 0.0
H1139 H 0.95371 0.92346 0.94485 0.0
H1140 H 0.01957 0.8676 0.931 0.0
H1141 H 0.93881 0.85047 0.92121 0.0
C1142 C 0.94783 0.81595 0.90393 0.0
C1143 C 0.96582 0.80107 0.89494 0.0
C1144 C 0.00521 0.87997 0.93406 0.0
C1145 C 0.97637 0.84821 0.91553 0.0
C1146 C 0.00963 0.90345 0.94519 0.0
C1147 C -0.00879 0.91974 0.94906 0.0
C1148 C -0.01779 0.8728 0.92715 0.0
C1149 C 0.96853 0.91167 0.94203 0.0
C1150 C 0.95299 0.8395 0.91406 0.0
C1151 C -0.0111 0.81078 0.89592 0.0
N1152 N 0.96471 0.88884 0.93151 0.0
N1153 N -0.00644 0.83369 0.90626 0.0
H1154 H 0.90594 0.20264 0.64937 0.0
H1155 H 0.81391 0.21177 0.75695 0.0
H1156 H 0.92628 0.20924 0.72439 0.0
H1157 H 0.79808 0.21649 0.6812 0.0
H1158 H 0.85404 0.20035 0.74605 0.0
H1159 H 0.86547 0.19578 0.66147 0.0
C1160 C 0.90189 0.2023 0.66841 0.0
C1161 C 0.91926 0.20717 0.68592 0.0
C1162 C 0.84162 0.20357 0.73188 0.0
C1163 C 0.87297 0.19985 0.70001 0.0
C1164 C 0.8188 0.2101 0.73808 0.0
C1165 C 0.80293 0.21565 0.71996 0.0
C1166 C 0.84828 0.20234 0.70743 0.0
C1167 C 0.80997 0.21299 0.69578 0.0
C1168 C 0.87878 0.19837 0.67536 0.0
C1169 C 0.91323 0.2058 0.71036 0.0
N1170 N 0.83213 0.20672 0.69026 0.0
N1171 N 0.89041 0.20284 0.71676 0.0
H1172 H 0.43212 0.20851 0.45306 0.0
H1173 H 0.51953 0.12032 0.51479 0.0
H1174 H 0.50606 0.20473 0.43777 0.0
H1175 H 0.4444 0.10984 0.51416 0.0
H1176 H 0.51522 0.1612 0.49933 0.0
H1177 H 0.43753 0.18298 0.48747 0.0
C1178 C 0.44961 0.20278 0.45719 0.0
C1179 C 0.46857 0.20806 0.44197 0.0
C1180 C 0.49966 0.15018 0.50303 0.0
C1181 C 0.47474 0.17892 0.48137 0.0
C1182 C 0.50207 0.12681 0.51179 0.0
C1183 C 0.48228 0.11138 0.51498 0.0
C1184 C 0.47733 0.15808 0.49721 0.0
C1185 C 0.46011 0.12099 0.51149 0.0
C1186 C 0.45263 0.1882 0.47688 0.0
C1187 C 0.49084 0.20059 0.44862 0.0
N1188 N 0.45823 0.1436 0.50224 0.0
N1189 N 0.49324 0.18598 0.46759 0.0
H1190 H 0.55677 0.77017 0.17147 0.0
H1191 H 0.65261 0.71602 0.25739 0.0
H1192 H 0.5412 0.71299 0.22101 0.0
H1193 H 0.66519 0.77871 0.21358 0.0
H1194 H 0.61121 0.71615 0.24642 0.0
H1195 H 0.59615 0.77471 0.18826 0.0
C1196 C 0.56161 0.75858 0.18592 0.0
C1197 C 0.54571 0.74103 0.19472 0.0
C1198 C 0.62301 0.73003 0.23942 0.0
C1199 C 0.59085 0.74614 0.21407 0.0
C1200 C 0.64665 0.73001 0.24572 0.0
C1201 C 0.66249 0.74721 0.23619 0.0
C1202 C 0.61519 0.74727 0.22336 0.0
C1203 C 0.65371 0.76496 0.22123 0.0
C1204 C 0.5841 0.76125 0.19557 0.0
C1205 C 0.55293 0.72667 0.2136 0.0
N1206 N 0.63071 0.76435 0.21509 0.0
N1207 N 0.57504 0.72943 0.22253 0.0
H1208 H 0.97868 0.18217 0.57363 0.0
H1209 H -0.00786 0.04284 0.58781 0.0
H1210 H -0.00123 0.15666 0.64291 0.0
H1211 H 0.01795 0.07571 0.5234 0.0
H1212 H -0.00688 0.08379 0.60872 0.0
H1213 H -0.00852 0.14316 0.55438 0.0
C1214 C -0.0139 0.16845 0.58471 0.0
C1215 C -0.01238 0.17248 0.60985 0.0
C1216 C -0.00096 0.08194 0.59018 0.0
C1217 C 0.00171 0.12782 0.58811 0.0
C1218 C -0.00158 0.05865 0.57824 0.0
C1219 C 0.00489 0.05601 0.55386 0.0
C1220 C 0.00545 0.10275 0.57738 0.0
C1221 C 0.01289 0.07703 0.54223 0.0
C1222 C -0.00651 0.14631 0.57373 0.0
C1223 C -0.00261 0.1542 0.62345 0.0
N1224 N 0.01241 0.09967 0.55394 0.0
N1225 N 0.0036 0.13236 0.61245 0.0
H1226 H 0.53512 0.2091 0.29293 0.0
H1227 H 0.64296 0.2985 0.27661 0.0
H1228 H 0.55535 0.26399 0.34881 0.0
H1229 H 0.60806 0.25734 0.218 0.0
H1230 H 0.60849 0.29222 0.30199 0.0
H1231 H 0.56044 0.22969 0.26481 0.0
C1232 C 0.54507 0.2254 0.29941 0.0
C1233 C 0.54324 0.23467 0.3234 0.0
C1234 C 0.60796 0.28544 0.28327 0.0
C1235 C 0.57232 0.2587 0.29091 0.0
C1236 C 0.62745 0.28949 0.26862 0.0
C1237 C 0.62829 0.27821 0.24531 0.0
C1238 C 0.5895 0.26991 0.27438 0.0
C1239 C 0.60802 0.26626 0.23594 0.0
C1240 C 0.55933 0.23741 0.28316 0.0
C1241 C 0.55642 0.25607 0.33054 0.0
N1242 N 0.58966 0.26179 0.25072 0.0
N1243 N 0.57063 0.26727 0.31439 0.0
H1244 H 0.46682 0.79004 0.05525 0.0
H1245 H 0.50279 0.92966 0.08613 0.0
H1246 H 0.50954 0.81353 0.11694 0.0
H1247 H 0.48609 0.90327 0.01316 0.0
H1248 H 0.50329 0.88703 0.09815 0.0
H1249 H 0.47289 0.8309 0.03911 0.0
C1250 C 0.47783 0.80362 0.06518 0.0
C1251 C 0.48746 0.79844 0.08764 0.0
C1252 C 0.49961 0.89056 0.07948 0.0
C1253 C 0.494 0.84527 0.06952 0.0
C1254 C 0.49906 0.9149 0.07265 0.0
C1255 C 0.49421 0.92003 0.04863 0.0
C1256 C 0.49491 0.87116 0.06228 0.0
C1257 C 0.48984 0.90012 0.03189 0.0
C1258 C 0.48124 0.82693 0.05597 0.0
C1259 C 0.50168 0.8167 0.09964 0.0
N1260 N 0.49008 0.87651 0.03908 0.0
N1261 N 0.50417 0.83945 0.09064 0.0
H1262 H 0.9362 0.72273 0.79257 0.0
H1263 H 0.80077 0.72272 0.80973 0.0
H1264 H 0.90356 0.7046 0.85991 0.0
H1265 H 0.83158 0.70909 0.73955 0.0
H1266 H 0.83806 0.7141 0.82855 0.0
H1267 H 0.89822 0.717 0.77246 0.0
C1268 C 0.92105 0.7176 0.80314 0.0
C1269 C 0.92291 0.71471 0.82806 0.0
C1270 C 0.83659 0.71238 0.80905 0.0
C1271 C 0.87964 0.70792 0.80518 0.0
C1272 C 0.81534 0.71723 0.79837 0.0
C1273 C 0.81337 0.7166 0.77319 0.0
C1274 C 0.8561 0.70768 0.79437 0.0
C1275 C 0.83259 0.7096 0.75908 0.0
C1276 C 0.89947 0.71406 0.79159 0.0
C1277 C 0.90285 0.70759 0.84079 0.0
N1278 N 0.85346 0.70594 0.76989 0.0
N1279 N 0.88196 0.70474 0.82925 0.0
H1280 H 0.87946 0.06247 0.82554 0.0
H1281 H -0.00837 0.0104 0.88387 0.0
H1282 H 0.93136 0.02442 0.7824 0.0
H1283 H 0.95593 0.07247 0.91655 0.0
H1284 H 0.97079 0.01574 0.84602 0.0
H1285 H 0.90705 0.06588 0.85936 0.0
C1286 C 0.89663 0.05475 0.82323 0.0
C1287 C 0.90309 0.04292 0.80125 0.0
C1288 C 0.96796 0.02865 0.86122 0.0
C1289 C 0.9347 0.04692 0.83971 0.0
C1290 C 0.97998 0.02572 0.8827 0.0
C1291 C 0.97557 0.04123 0.90304 0.0
C1292 C 0.95091 0.04671 0.86046 0.0
C1293 C 0.95996 0.06043 0.90101 0.0
C1294 C 0.91244 0.05697 0.84242 0.0
C1295 C 0.92565 0.03355 0.7991 0.0
N1296 N 0.94776 0.06235 0.88016 0.0
N1297 N 0.94059 0.03552 0.8182 0.0
H1298 H 0.78493 0.18428 0.53378 0.0
H1299 H 0.73544 0.25046 0.62939 0.0
H1300 H 0.72656 0.13257 0.53972 0.0
H1301 H 0.69936 0.18202 0.64475 0.0
H1302 H 0.74744 0.23215 0.59055 0.0
H1303 H 0.77151 0.20681 0.57003 0.0
C1304 C 0.76928 0.17766 0.54269 0.0
C1305 C 0.75681 0.15657 0.53354 0.0
C1306 C 0.73711 0.22098 0.60244 0.0
C1307 C 0.74066 0.18294 0.57462 0.0
C1308 C 0.72987 0.23161 0.62449 0.0
C1309 C 0.71667 0.21763 0.64053 0.0
C1310 C 0.73138 0.19605 0.59649 0.0
C1311 C 0.70963 0.19344 0.63302 0.0
C1312 C 0.76134 0.19082 0.56322 0.0
C1313 C 0.73671 0.1488 0.54601 0.0
N1314 N 0.7173 0.18332 0.61162 0.0
N1315 N 0.72928 0.16199 0.56589 0.0
H1316 H 0.56252 0.97629 0.3168 0.0
H1317 H 0.56665 0.03414 0.4517 0.0
H1318 H 0.62717 -0.0122 0.35663 0.0
H1319 H 0.50826 -0.01041 0.42312 0.0
H1320 H 0.58763 0.02619 0.41363 0.0
H1321 H 0.54098 -0.00998 0.35283 0.0
C1322 C 0.57222 0.9819 0.33305 0.0
C1323 C 0.5967 0.98081 0.33375 0.0
C1324 C 0.57015 0.01835 0.41573 0.0
C1325 C 0.57216 -0.00328 0.37482 0.0
C1326 C 0.55814 0.02298 0.4373 0.0
C1327 C 0.53578 0.01235 0.44054 0.0
C1328 C 0.55949 0.00342 0.39722 0.0
C1329 C 0.52556 -0.00206 0.4214 0.0
C1330 C 0.5599 -0.01034 0.35357 0.0
C1331 C 0.60834 -0.01173 0.3553 0.0
N1332 N 0.53751 -0.0061 0.4005 0.0
N1333 N 0.59594 -0.00403 0.37504 0.0
H1334 H 0.78477 0.78173 0.03703 0.0
H1335 H 0.71239 0.74647 0.15184 0.0
H1336 H 0.71649 0.80886 0.05564 0.0
H1337 H 0.78493 0.72961 0.14034 0.0
H1338 H 0.7091 0.7566 0.1097 0.0
H1339 H 0.77995 0.75049 0.06687 0.0
C1340 C 0.7685 0.78078 0.04699 0.0
C1341 C 0.75134 0.79854 0.04447 0.0
C1342 C 0.72564 0.75024 0.11619 0.0
C1343 C 0.74585 0.76287 0.0787 0.0
C1344 C 0.72756 0.74451 0.14026 0.0
C1345 C 0.74917 0.73792 0.14966 0.0
C1346 C 0.74558 0.74981 0.10151 0.0
C1347 C 0.76807 0.73501 0.13382 0.0
C1348 C 0.7658 0.7629 0.06403 0.0
C1349 C 0.73041 0.79593 0.05737 0.0
N1350 N 0.76599 0.74157 0.11056 0.0
N1351 N 0.72848 0.7788 0.07436 0.0
H1352 H 0.85777 0.00123 0.66661 0.0
H1353 H 0.97626 0.95546 0.60507 0.0
H1354 H 0.92732 0.02773 0.68695 0.0
H1355 H 0.90934 0.94951 0.56913 0.0
H1356 H 0.95664 0.96964 0.64232 0.0
H1357 H 0.87506 0.97237 0.63652 0.0
C1358 C 0.87662 0.00108 0.66468 0.0
C1359 C 0.8911 0.0172 0.67903 0.0
C1360 C 0.94618 0.96447 0.62646 0.0
C1361 C 0.91089 0.98377 0.64543 0.0
C1362 C 0.95733 0.95594 0.60538 0.0
C1363 C 0.94434 0.9516 0.5841 0.0
C1364 C 0.92199 0.9685 0.62606 0.0
C1365 C 0.91989 0.95288 0.58526 0.0
C1366 C 0.88644 0.98446 0.64772 0.0
C1367 C 0.91543 0.01595 0.67604 0.0
N1368 N 0.90949 0.96172 0.60579 0.0
N1369 N 0.92453 -0.00046 0.65959 0.0
H1370 H 0.75572 0.20418 0.4324 0.0
H1371 H 0.67255 0.20188 0.31794 0.0
H1372 H 0.69906 0.15085 0.41919 0.0
H1373 H 0.73493 0.24797 0.32833 0.0
H1374 H 0.67489 0.19109 0.36023 0.0
H1375 H 0.74055 0.22868 0.40057 0.0
C1376 C 0.73982 0.19785 0.4231 0.0
C1377 C 0.72904 0.17507 0.4279 0.0
C1378 C 0.68781 0.2039 0.35333 0.0
C1379 C 0.71184 0.20278 0.39118 0.0
C1380 C 0.6865 0.21003 0.32921 0.0
C1381 C 0.70396 0.22529 0.31949 0.0
C1382 C 0.70664 0.21316 0.36769 0.0
C1383 C 0.72146 0.23561 0.33493 0.0
C1384 C 0.73117 0.21184 0.4049 0.0
C1385 C 0.70817 0.16808 0.41573 0.0
N1386 N 0.72253 0.2291 0.35817 0.0
N1387 N 0.70054 0.18161 0.39747 0.0
H1388 H 0.56046 0.95618 0.21389 0.0
H1389 H 0.58727 0.01144 0.08721 0.0
H1390 H 0.63172 0.97157 0.1922 0.0
H1391 H 0.5228 0.0217 0.12644 0.0
H1392 H 0.60499 -0.00389 0.12377 0.0
H1393 H 0.54668 0.97674 0.17884 0.0
C1394 C 0.57325 0.96363 0.2016 0.0
C1395 C 0.59729 0.96225 0.20608 0.0
C1396 C 0.58713 0.00222 0.12441 0.0
C1397 C 0.58156 -0.01382 0.16595 0.0
C1398 C 0.57709 0.01123 0.10368 0.0
C1399 C 0.55342 0.01749 0.10374 0.0
C1400 C 0.57324 -0.00065 0.14503 0.0
C1401 C 0.54098 0.01668 0.1255 0.0
C1402 C 0.56535 0.97564 0.18172 0.0
C1403 C 0.61301 0.97228 0.18944 0.0
N1404 N 0.55091 0.00732 0.14512 0.0
N1405 N 0.60487 0.98386 0.17003 0.0
H1406 H 0.78506 0.8107 0.94339 0.0
H1407 H 0.72849 0.83091 0.81724 0.0
H1408 H 0.73911 0.87152 0.9351 0.0
H1409 H 0.73603 0.75784 0.84284 0.0
H1410 H 0.73586 0.84838 0.85842 0.0
H1411 H 0.77235 0.79318 0.90372 0.0
C1412 C 0.77256 0.82052 0.93306 0.0
C1413 C 0.76316 0.8426 0.9424 0.0
C1414 C 0.73536 0.82851 0.85509 0.0
C1415 C 0.74858 0.82271 0.89735 0.0
C1416 C 0.73099 0.81859 0.83177 0.0
C1417 C 0.7312 0.79299 0.82704 0.0
C1418 C 0.74082 0.81266 0.8734 0.0
C1419 C 0.73525 0.77767 0.84609 0.0
C1420 C 0.76511 0.81038 0.91065 0.0
C1421 C 0.74675 0.85444 0.92847 0.0
N1422 N 0.74032 0.78777 0.86847 0.0
N1423 N 0.74009 0.84444 0.90649 0.0
H1424 H 0.82112 0.89969 0.0401 0.0
H1425 H 0.89573 -0.00512 0.96759 0.0
H1426 H 0.78849 0.94649 -0.01011 0.0
H1427 H 0.91572 0.97419 0.03879 0.0
H1428 H 0.85699 0.97578 0.9735 0.0
H1429 H 0.85717 0.92467 0.03768 0.0
C1430 C 0.82159 0.91522 0.02852 0.0
C1431 C 0.80192 0.92101 0.01505 0.0
C1432 C 0.86979 0.97576 -0.01208 0.0
C1433 C 0.843 0.94953 0.01219 0.0
C1434 C 0.89187 -0.01344 0.98456 0.0
C1435 C 0.90898 -0.01408 0.00267 0.0
C1436 C 0.86503 0.96382 0.00931 0.0
C1437 C 0.90305 0.97506 0.02436 0.0
C1438 C 0.84207 0.92956 0.02733 0.0
C1439 C 0.80334 0.94144 0.00053 0.0
N1440 N 0.88164 0.96407 0.02693 0.0
N1441 N 0.82369 0.95487 -0.00075 0.0
H1442 H 0.29961 0.54232 0.97038 0.0
H1443 H 0.4325 0.55784 -0.00052 0.0
H1444 H 0.33301 0.61472 0.97013 0.0
H1445 H 0.40558 0.49491 0.95622 0.0
H1446 H 0.39607 0.57916 -0.00744 0.0
H1447 H 0.33813 0.52393 0.96992 0.0
C1448 C 0.31507 0.55434 0.9704 0.0
C1449 C 0.31322 0.58006 0.97043 0.0
C1450 C 0.39837 0.56087 0.98427 0.0
C1451 C 0.35707 0.5592 0.96989 0.0
C1452 C 0.41903 0.54871 -0.01177 0.0
C1453 C 0.42184 0.5246 0.9785 0.0
C1454 C 0.3803 0.54848 0.97109 0.0
C1455 C 0.40401 0.51353 0.96399 0.0
C1456 C 0.33696 0.54383 0.96983 0.0
C1457 C 0.33374 0.59482 0.97011 0.0
N1458 N 0.38371 0.5254 0.9611 0.0
N1459 N 0.35495 0.58416 0.97017 0.0
H1460 H 0.20098 0.54006 0.79346 0.0
H1461 H 0.15167 0.656 0.73568 0.0
H1462 H 0.13342 0.53442 0.7585 0.0
H1463 H 0.22399 0.63724 0.72592 0.0
H1464 H 0.14303 0.61406 0.74853 0.0
H1465 H 0.2085 0.57953 0.77474 0.0
C1466 C 0.18763 0.54733 0.78213 0.0
C1467 C 0.16652 0.53416 0.77754 0.0
C1468 C 0.16066 0.61906 0.74312 0.0
C1469 C 0.17501 0.57889 0.75622 0.0
C1470 C 0.16558 0.64283 0.73574 0.0
C1471 C 0.18853 0.64987 0.72969 0.0
C1472 C 0.179 0.60269 0.74517 0.0
C1473 C 0.20603 0.63235 0.73024 0.0
C1474 C 0.19205 0.56958 0.77124 0.0
C1475 C 0.1499 0.54413 0.76244 0.0
N1476 N 0.20101 0.60961 0.73839 0.0
N1477 N 0.1544 0.56611 0.75245 0.0
H1478 H 0.16621 0.366 0.49487 0.0
H1479 H 0.10094 0.48859 0.47936 0.0
H1480 H 0.19809 0.42677 0.45819 0.0
H1481 H 0.06295 0.41886 0.48241 0.0
H1482 H 0.13675 0.4662 0.47076 0.0
H1483 H 0.12793 0.3843 0.48985 0.0
C1484 C 0.16512 0.38297 0.48546 0.0
C1485 C 0.18539 0.39508 0.47727 0.0
C1486 C 0.12048 0.45582 0.47286 0.0
C1487 C 0.14188 0.41619 0.47178 0.0
C1488 C 0.10008 0.46858 0.47783 0.0
C1489 C 0.07903 0.45555 0.48183 0.0
C1490 C 0.1199 0.42988 0.4725 0.0
C1491 C 0.07884 0.42962 0.4795 0.0
C1492 C 0.14329 0.39335 0.48253 0.0
C1493 C 0.18296 0.41692 0.46502 0.0
N1494 N 0.0991 0.4176 0.47548 0.0
N1495 N 0.16165 0.42703 0.46306 0.0
H1496 H 0.82963 0.96738 0.72105 0.0
H1497 H 0.81743 0.82724 0.75501 0.0
H1498 H 0.84227 0.94318 0.79282 0.0
H1499 H 0.76924 0.8576 0.70504 0.0
H1500 H 0.83619 0.8678 0.76148 0.0
H1501 H 0.81638 0.92529 0.70843 0.0
C1502 C 0.82996 0.95313 0.73407 0.0
C1503 C 0.83703 0.95874 0.75808 0.0
C1504 C 0.82169 0.8655 0.7489 0.0
C1505 C 0.82221 0.91077 0.74358 0.0
C1506 C 0.81094 0.84233 0.74507 0.0
C1507 C 0.79133 0.83904 0.72978 0.0
C1508 C 0.81309 0.88557 0.73713 0.0
C1509 C 0.78413 0.85932 0.71714 0.0
C1510 C 0.82227 0.92924 0.72684 0.0
C1511 C 0.83688 0.93966 0.7742 0.0
N1512 N 0.79493 0.88188 0.72125 0.0
N1513 N 0.82966 0.91645 0.76662 0.0
H1514 H 0.69424 0.02873 0.5099 0.0
H1515 H 0.58836 0.00591 0.56344 0.0
H1516 H 0.67348 0.10461 0.50911 0.0
H1517 H 0.57539 0.08242 0.55234 0.0
H1518 H 0.62997 0.01399 0.55721 0.0
H1519 H 0.66129 0.0197 0.53582 0.0
C1520 C 0.68273 0.04353 0.51531 0.0
C1521 C 0.68627 0.06731 0.50688 0.0
C1522 C 0.61827 0.02922 0.55643 0.0
C1523 C 0.64851 0.05735 0.53718 0.0
C1524 C 0.59447 0.02463 0.56057 0.0
C1525 C 0.57855 0.04342 0.55772 0.0
C1526 C 0.6258 0.05268 0.54917 0.0
C1527 C 0.58721 0.06734 0.55412 0.0
C1528 C 0.6639 0.03843 0.53042 0.0
C1529 C 0.67109 0.08586 0.51472 0.0
N1530 N 0.6102 0.07118 0.54939 0.0
N1531 N 0.6528 0.08041 0.52924 0.0
H1532 H 0.24173 0.44026 0.80131 0.0
H1533 H 0.28837 0.33113 0.77399 0.0
H1534 H 0.20949 0.43055 0.73089 0.0
H1535 H 0.26225 0.33733 0.70153 0.0
H1536 H 0.2834 0.37493 0.78177 0.0
H1537 H 0.27253 0.41292 0.78781 0.0
C1538 C 0.24128 0.43261 0.78288 0.0
C1539 C 0.22231 0.43661 0.76761 0.0
C1540 C 0.27929 0.36716 0.7639 0.0
C1541 C 0.25699 0.40436 0.75229 0.0
C1542 C 0.2821 0.34188 0.75948 0.0
C1543 C 0.27468 0.33036 0.73745 0.0
C1544 C 0.26878 0.38091 0.74616 0.0
C1545 C 0.26734 0.34529 0.71913 0.0
C1546 C 0.25884 0.41668 0.7752 0.0
C1547 C 0.22322 0.42709 0.74365 0.0
N1548 N 0.26403 0.36968 0.72409 0.0
N1549 N 0.23991 0.4109 0.73694 0.0
H1550 H 0.29465 0.56608 0.21657 0.0
H1551 H 0.21291 0.6569 0.2784 0.0
H1552 H 0.26543 0.55258 0.2867 0.0
H1553 H 0.21216 0.64664 0.20079 0.0
H1554 H 0.22779 0.61538 0.28115 0.0
H1555 H 0.26127 0.59168 0.2084 0.0
C1556 C 0.28099 0.56799 0.23001 0.0
C1557 C 0.28326 0.5579 0.25268 0.0
C1558 C 0.22368 0.62182 0.2635 0.0
C1559 C 0.24527 0.5872 0.24353 0.0
C1560 C 0.21516 0.64549 0.26199 0.0
C1561 C 0.21153 0.65507 0.23937 0.0
C1562 C 0.22949 0.60818 0.24221 0.0
C1563 C 0.21478 0.63975 0.21856 0.0
C1564 C 0.26188 0.58253 0.2253 0.0
C1565 C 0.26482 0.56068 0.26926 0.0
N1566 N 0.22434 0.61725 0.22042 0.0
N1567 N 0.24691 0.57558 0.26461 0.0
H1568 H 0.44913 0.71476 0.57024 0.0
H1569 H 0.48882 0.57789 0.57947 0.0
H1570 H 0.48752 0.69241 0.63218 0.0
H1571 H 0.48528 0.61182 0.51079 0.0
H1572 H 0.4848 0.61856 0.60003 0.0
H1573 H 0.45873 0.6759 0.54868 0.0
C1574 C 0.45966 0.70169 0.57925 0.0
C1575 C 0.46748 0.70667 0.60304 0.0
C1576 C 0.4851 0.61707 0.58047 0.0
C1577 C 0.47821 0.66224 0.57865 0.0
C1578 C 0.48723 0.59391 0.56873 0.0
C1579 C 0.48725 0.59154 0.54341 0.0
C1580 C 0.48248 0.63786 0.56676 0.0
C1581 C 0.48535 0.61289 0.53035 0.0
C1582 C 0.46522 0.67963 0.56691 0.0
C1583 C 0.48122 0.68923 0.61383 0.0
N1584 N 0.48273 0.63518 0.5422 0.0
N1585 N 0.48589 0.66756 0.60165 0.0
H1586 H 0.54349 0.23522 0.82698 0.0
H1587 H 0.63112 0.2942 0.73542 0.0
H1588 H 0.55994 0.313 0.82287 0.0
H1589 H 0.6218 0.21579 0.74302 0.0
H1590 H 0.59435 0.30086 0.75667 0.0
H1591 H 0.56126 0.22777 0.78713 0.0
C1592 C 0.55015 0.25081 0.81734 0.0
C1593 C 0.55075 0.27469 0.82834 0.0
C1594 C 0.59998 0.28211 0.75321 0.0
C1595 C 0.57123 0.26634 0.7831 0.0
C1596 C 0.62093 0.27832 0.74097 0.0
C1597 C 0.62971 0.25449 0.73804 0.0
C1598 C 0.58811 0.26198 0.76316 0.0
C1599 C 0.61572 0.2345 0.74523 0.0
C1600 C 0.56039 0.24654 0.79466 0.0
C1601 C 0.55963 0.29423 0.81518 0.0
N1602 N 0.59589 0.23874 0.75814 0.0
N1603 N 0.56985 0.28958 0.79343 0.0
H1604 H 0.00259 0.31821 0.12247 0.0
H1605 H -0.01662 0.40547 0.01291 0.0
H1606 H 0.94048 0.31546 0.07784 0.0
H1607 H 0.03414 0.42075 0.06985 0.0
H1608 H 0.97349 0.36599 0.0303 0.0
H1609 H 0.01959 0.34973 0.09741 0.0
C1610 C -0.00746 0.32411 0.10733 0.0
C1611 C 0.96988 0.31443 0.10248 0.0
C1612 C -0.01295 0.37784 0.03873 0.0
C1613 C -0.0106 0.35039 0.07366 0.0
C1614 C -0.00716 0.4003 0.02874 0.0
C1615 C 0.00932 0.41661 0.04023 0.0
C1616 C -0.00206 0.37166 0.06021 0.0
C1617 C 0.02105 0.4089 0.06064 0.0
C1618 C 0.00231 0.34208 0.09302 0.0
C1619 C 0.95785 0.32265 0.08246 0.0
N1620 N 0.01494 0.38707 0.07016 0.0
N1621 N 0.96771 0.3403 0.06885 0.0
H1622 H 0.95595 0.77248 0.30064 0.0
H1623 H 0.84613 0.69673 0.24115 0.0
H1624 H 0.94391 0.69421 0.30747 0.0
H1625 H 0.84568 0.77468 0.26096 0.0
H1626 H 0.88678 0.69574 0.25559 0.0
H1627 H 0.91995 0.77355 0.27662 0.0
C1628 C 0.94588 0.75549 0.29688 0.0
C1629 C 0.95277 0.73328 0.30629 0.0
C1630 C 0.87784 0.71311 0.25637 0.0
C1631 C 0.91185 0.73432 0.27865 0.0
C1632 C 0.85478 0.71372 0.24796 0.0
C1633 C 0.84255 0.73578 0.25006 0.0
C1634 C 0.88874 0.73479 0.26654 0.0
C1635 C 0.85446 0.75724 0.25924 0.0
C1636 C 0.92536 0.75612 0.28322 0.0
C1637 C 0.93907 0.7118 0.30081 0.0
N1638 N 0.87685 0.7562 0.26724 0.0
N1639 N 0.91925 0.71285 0.2874 0.0
H1640 H 0.44352 0.26259 0.92772 0.0
H1641 H 0.45148 0.4103 0.93131 0.0
H1642 H 0.45746 0.3056 0.86578 0.0
H1643 H 0.46659 0.36848 -0.0065 0.0
H1644 H 0.44225 0.37182 0.90824 0.0
H1645 H 0.44056 0.30122 0.95286 0.0
C1646 C 0.44518 0.28018 0.91933 0.0
C1647 C 0.45063 0.28112 0.89474 0.0
C1648 C 0.44737 0.37109 0.927 0.0
C1649 C 0.44747 0.32494 0.9231 0.0
C1650 C 0.45265 0.39306 0.94025 0.0
C1651 C 0.46022 0.39267 0.96434 0.0
C1652 C 0.4495 0.34845 0.93786 0.0
C1653 C 0.46113 0.36967 0.9749 0.0
C1654 C 0.44375 0.30212 0.93366 0.0
C1655 C 0.45316 0.30423 0.8847 0.0
N1656 N 0.45601 0.34843 0.96153 0.0
N1657 N 0.45163 0.32523 0.89893 0.0
H1658 H 0.91573 0.22316 0.22266 0.0
H1659 H 0.78464 0.19494 0.17839 0.0
H1660 H 0.89104 0.22879 0.14968 0.0
H1661 H 0.80345 0.21529 0.2524 0.0
H1662 H 0.82606 0.19281 0.16836 0.0
H1663 H 0.877 0.20663 0.23386 0.0
C1664 C 0.90224 0.22058 0.20895 0.0
C1665 C 0.90622 0.22799 0.18541 0.0
C1666 C 0.82107 0.19728 0.18689 0.0
C1667 C 0.86241 0.20888 0.19787 0.0
C1668 C 0.79743 0.19844 0.19267 0.0
C1669 C 0.79058 0.20603 0.21614 0.0
C1670 C 0.83792 0.2037 0.20468 0.0
C1671 C 0.80796 0.20993 0.23395 0.0
C1672 C 0.88025 0.21119 0.21533 0.0
C1673 C 0.88838 0.22411 0.16821 0.0
N1674 N 0.83091 0.20915 0.22776 0.0
N1675 N 0.86716 0.21498 0.17483 0.0
H1676 H 0.04118 0.67279 0.40101 0.0
H1677 H 0.00026 0.59959 0.5158 0.0
H1678 H 0.97159 0.67184 0.43108 0.0
H1679 H 0.05726 0.57503 0.47067 0.0
H1680 H -0.00259 0.63621 0.49229 0.0
H1681 H 0.05365 0.64568 0.4327 0.0
C1682 C 0.02863 0.66713 0.41443 0.0
C1683 C 0.00524 0.67428 0.4133 0.0
C1684 C 0.01091 0.62313 0.48782 0.0
C1685 C 0.01948 0.64397 0.44962 0.0
C1686 C 0.0127 0.60238 0.50137 0.0
C1687 C 0.02889 0.58426 0.49499 0.0
C1688 C 0.02523 0.62568 0.46752 0.0
C1689 C 0.04459 0.58867 0.47615 0.0
C1690 C 0.03576 0.6517 0.43242 0.0
C1691 C -0.01031 0.66648 0.43108 0.0
N1692 N 0.04207 0.6088 0.46266 0.0
N1693 N -0.00291 0.65177 0.44847 0.0
H1694 H 0.53848 0.80999 0.7239 0.0
H1695 H 0.66955 0.79058 0.67841 0.0
H1696 H 0.55524 0.77416 0.65498 0.0
H1697 H 0.65008 0.79598 0.75367 0.0
H1698 H 0.62839 0.79527 0.66737 0.0
H1699 H 0.58031 0.81492 0.73282 0.0
C1700 C 0.55096 0.80326 0.71061 0.0
C1701 C 0.54343 0.79138 0.6888 0.0
C1702 C 0.63327 0.79578 0.68628 0.0
C1703 C 0.59113 0.79731 0.69873 0.0
C1704 C 0.6567 0.79334 0.69258 0.0
C1705 C 0.66308 0.79267 0.71697 0.0
C1706 C 0.61632 0.79795 0.70454 0.0
C1707 C 0.64579 0.79614 0.73465 0.0
C1708 C 0.57478 0.80611 0.7157 0.0
C1709 C 0.56033 0.78313 0.67216 0.0
N1710 N 0.62315 0.79851 0.72808 0.0
N1711 N 0.58345 0.78624 0.67748 0.0
H1712 H 0.56046 0.5093 0.69968 0.0
H1713 H 0.56079 0.46274 0.5615 0.0
H1714 H 0.61554 0.46381 0.67054 0.0
H1715 H 0.49936 0.48652 0.60046 0.0
H1716 H 0.58216 0.46297 0.60002 0.0
H1717 H 0.53936 0.50307 0.66172 0.0
C1718 C 0.56822 0.49811 0.68523 0.0
C1719 C 0.5898 0.48704 0.68832 0.0
C1720 C 0.5639 0.46776 0.60006 0.0
C1721 C 0.56553 0.47965 0.64467 0.0
C1722 C 0.55166 0.46746 0.57814 0.0
C1723 C 0.52835 0.47496 0.57773 0.0
C1724 C 0.55272 0.47579 0.6215 0.0
C1725 C 0.51741 0.48099 0.59982 0.0
C1726 C 0.55604 0.49437 0.66358 0.0
C1727 C 0.59892 0.47267 0.6689 0.0
N1728 N 0.52976 0.48158 0.62071 0.0
N1729 N 0.58675 0.46943 0.6478 0.0
H1730 H 0.72865 0.35989 0.92482 0.0
H1731 H 0.75851 0.2502 0.82842 0.0
H1732 H 0.79049 0.3162 0.92803 0.0
H1733 H 0.70123 0.2994 0.82037 0.0
H1734 H 0.76812 0.27148 0.86721 0.0
H1735 H 0.71638 0.33565 0.88838 0.0
C1736 C 0.73967 0.34524 0.91789 0.0
C1737 C 0.76071 0.3402 0.9295 0.0
C1738 C 0.75336 0.27752 0.85701 0.0
C1739 C 0.74666 0.31227 0.88785 0.0
C1740 C 0.74778 0.26528 0.8349 0.0
C1741 C 0.72912 0.27311 0.82098 0.0
C1742 C 0.74018 0.2977 0.86533 0.0
C1743 C 0.71586 0.2928 0.83037 0.0
C1744 C 0.73262 0.33138 0.89709 0.0
C1745 C 0.7742 0.32089 0.91968 0.0
N1746 N 0.72172 0.30449 0.85187 0.0
N1747 N 0.76694 0.30766 0.89945 0.0
H1748 H 0.92078 0.45659 0.21021 0.0
H1749 H 0.93813 0.53622 0.09386 0.0
H1750 H 0.87602 0.51641 0.19383 0.0
H1751 H -0.01022 0.48731 0.11996 0.0
H1752 H 0.91373 0.52775 0.12884 0.0
H1753 H 0.94405 0.46494 0.17455 0.0
C1754 C 0.91565 0.47128 0.19895 0.0
C1755 C 0.89653 0.48595 0.20512 0.0
C1756 C 0.93048 0.51903 0.12695 0.0
C1757 C 0.92328 0.4958 0.16444 0.0
C1758 C 0.94448 0.52394 0.10706 0.0
C1759 C 0.96603 0.51241 0.10392 0.0
C1760 C 0.93801 0.50233 0.14367 0.0
C1761 C 0.97333 0.49664 0.12161 0.0
C1762 C 0.92907 0.47618 0.1787 0.0
C1763 C 0.8907 0.50473 0.18982 0.0
N1764 N 0.95925 0.49193 0.14062 0.0
N1765 N 0.90412 0.5092 0.17022 0.0
H1766 H 0.73987 0.63738 0.42854 0.0
H1767 H 0.78329 0.74226 0.34133 0.0
H1768 H 0.80837 0.67312 0.43225 0.0
H1769 H 0.71816 0.70054 0.33183 0.0
H1770 H 0.78957 0.72237 0.37923 0.0
H1771 H 0.72904 0.66482 0.397 0.0
C1772 C 0.75262 0.651 0.42279 0.0
C1773 C 0.77517 0.65272 0.4329 0.0
C1774 C 0.77376 0.71781 0.369 0.0
C1775 C 0.7628 0.68432 0.39693 0.0
C1776 C 0.77007 0.7293 0.34742 0.0
C1777 C 0.75036 0.72276 0.33314 0.0
C1778 C 0.75763 0.69967 0.37634 0.0
C1779 C 0.73379 0.7059 0.34206 0.0
C1780 C 0.7464 0.66672 0.40482 0.0
C1781 C 0.79088 0.6709 0.42483 0.0
N1782 N 0.73795 0.6947 0.36293 0.0
N1783 N 0.78443 0.68589 0.40725 0.0
H1784 H 0.62636 0.47759 0.84076 0.0
H1785 H 0.50372 0.4913 0.90639 0.0
H1786 H 0.56283 0.49507 0.80391 0.0
H1787 H 0.56915 0.49332 0.9455 0.0
H1788 H 0.52537 0.49294 0.86864 0.0
H1789 H 0.6062 0.48361 0.87941 0.0
C1790 C 0.60828 0.48295 0.84078 0.0
C1791 C 0.59623 0.48573 0.81907 0.0
C1792 C 0.53502 0.49326 0.88548 0.0
C1793 C 0.57303 0.49234 0.86313 0.0
C1794 C 0.52266 0.49225 0.90705 0.0
C1795 C 0.53466 0.492 0.9291 0.0
C1796 C 0.55958 0.49368 0.88591 0.0
C1797 C 0.55921 0.49346 0.92888 0.0
C1798 C 0.59678 0.48639 0.86286 0.0
C1799 C 0.57277 0.4926 0.82019 0.0
N1800 N 0.5709 0.49395 0.90756 0.0
N1801 N 0.56189 0.49545 0.84184 0.0
H1802 H 0.78272 0.30458 0.04395 0.0
H1803 H 0.68521 0.29382 0.14348 0.0
H1804 H 0.7185 0.34467 0.04281 0.0
H1805 H 0.73567 0.23701 0.13009 0.0
H1806 H 0.69619 0.31151 0.10533 0.0
H1807 H 0.76548 0.27843 0.07445 0.0
C1808 C 0.76497 0.30774 0.0499 0.0
C1809 C 0.75221 0.3271 0.04105 0.0
C1810 C 0.70458 0.29491 0.11051 0.0
C1811 C 0.73247 0.29739 0.07588 0.0
C1812 C 0.6983 0.28482 0.13228 0.0
C1813 C 0.70969 0.26408 0.14004 0.0
C1814 C 0.72275 0.28451 0.09669 0.0
C1815 C 0.72646 0.25306 0.12479 0.0
C1816 C 0.75511 0.29275 0.06722 0.0
C1817 C 0.72917 0.33019 0.04928 0.0
N1818 N 0.73284 0.26371 0.10403 0.0
N1819 N 0.72019 0.31573 0.06643 0.0
H1820 H 0.93326 0.49196 0.31794 0.0
H1821 H 0.93952 0.45126 0.45209 0.0
H1822 H 0.86866 0.48328 0.35729 0.0
H1823 H -0.01959 0.51329 0.42785 0.0
H1824 H 0.91712 0.4502 0.41384 0.0
H1825 H 0.95506 0.4864 0.35512 0.0
C1826 C 0.92366 0.48852 0.33434 0.0
C1827 C 0.89915 0.48832 0.3347 0.0
C1828 C 0.93115 0.46383 0.417 0.0
C1829 C 0.92395 0.48151 0.37687 0.0
C1830 C 0.94393 0.46435 0.43855 0.0
C1831 C 0.96169 0.48239 0.44283 0.0
C1832 C 0.93689 0.48094 0.39966 0.0
C1833 C 0.96676 0.49917 0.42506 0.0
C1834 C 0.93611 0.48542 0.35544 0.0
C1835 C 0.88756 0.48387 0.35642 0.0
N1836 N 0.95453 0.49792 0.40409 0.0
N1837 N 0.90013 0.48057 0.37681 0.0
H1838 H 0.74301 0.65467 0.54368 0.0
H1839 H 0.79615 0.72273 0.66028 0.0
H1840 H 0.81706 0.67108 0.55179 0.0
H1841 H 0.72687 0.73924 0.6363 0.0
H1842 H 0.80364 0.70201 0.62102 0.0
H1843 H 0.73561 0.68365 0.5782 0.0
C1844 C 0.75766 0.66441 0.5526 0.0
C1845 C 0.7807 0.66027 0.54496 0.0
C1846 C 0.78692 0.71052 0.62413 0.0
C1847 C 0.77236 0.69317 0.58425 0.0
C1848 C 0.78269 0.72233 0.64648 0.0
C1849 C 0.76096 0.73273 0.65127 0.0
C1850 C 0.76903 0.70843 0.60674 0.0
C1851 C 0.74393 0.7316 0.63301 0.0
C1852 C 0.75341 0.68104 0.57212 0.0
C1853 C 0.79902 0.67357 0.55705 0.0
N1854 N 0.74817 0.71919 0.61156 0.0
N1855 N 0.79447 0.68915 0.57624 0.0
H1856 H 0.70373 0.51955 0.48885 0.0
H1857 H 0.57254 0.56381 0.47376 0.0
H1858 H 0.6856 0.59599 0.48461 0.0
H1859 H 0.59038 0.4885 0.48581 0.0
H1860 H 0.61407 0.5754 0.47408 0.0
H1861 H 0.66245 0.50753 0.48499 0.0
C1862 C 0.69106 0.53383 0.48712 0.0
C1863 C 0.69812 0.55883 0.48708 0.0
C1864 C 0.6089 0.55632 0.47651 0.0
C1865 C 0.65077 0.54514 0.4825 0.0
C1866 C 0.58517 0.54963 0.47621 0.0
C1867 C 0.57789 0.52514 0.47991 0.0
C1868 C 0.62552 0.53841 0.4805 0.0
C1869 C 0.59512 0.50761 0.48297 0.0
C1870 C 0.66747 0.52693 0.48489 0.0
C1871 C 0.68091 0.57651 0.48481 0.0
N1872 N 0.61812 0.51462 0.48332 0.0
N1873 N 0.65801 0.56931 0.48258 0.0
H1874 H 0.18492 0.94378 0.47648 0.0
H1875 H 0.05853 0.9052 0.52354 0.0
H1876 H 0.1721 0.87324 0.50768 0.0
H1877 H 0.0835 0.98062 0.51771 0.0
H1878 H 0.09851 0.89129 0.51576 0.0
H1879 H 0.14538 0.95544 0.48727 0.0
C1880 C 0.17373 0.93064 0.48543 0.0
C1881 C 0.1819 0.90758 0.49134 0.0
C1882 C 0.09515 0.91088 0.51651 0.0
C1883 C 0.13658 0.92094 0.50398 0.0
C1884 C 0.07243 0.91883 0.52112 0.0
C1885 C 0.0676 0.94409 0.52097 0.0
C1886 C 0.11291 0.92832 0.51153 0.0
C1887 C 0.08628 0.96094 0.51764 0.0
C1888 C 0.1512 0.93739 0.49178 0.0
C1889 C 0.16652 0.89128 0.5029 0.0
N1890 N 0.10798 0.95273 0.51275 0.0
N1891 N 0.14452 0.89828 0.50889 0.0
H1892 H 0.34237 0.925 0.76376 0.0
H1893 H 0.22295 0.84838 0.74021 0.0
H1894 H 0.27801 0.94321 0.80036 0.0
H1895 H 0.28959 0.81301 0.74092 0.0
H1896 H 0.24289 0.88796 0.75191 0.0
H1897 H 0.32288 0.88749 0.74574 0.0
C1898 C 0.3242 0.92105 0.76804 0.0
C1899 C 0.31183 0.93696 0.7838 0.0
C1900 C 0.25309 0.87152 0.74916 0.0
C1901 C 0.28946 0.89491 0.76277 0.0
C1902 C 0.2418 0.84909 0.74233 0.0
C1903 C 0.25471 0.82755 0.73988 0.0
C1904 C 0.27739 0.87228 0.75299 0.0
C1905 C 0.27907 0.82928 0.74294 0.0
C1906 C 0.31314 0.89979 0.75773 0.0
C1907 C 0.28828 0.93118 0.78862 0.0
N1908 N 0.28967 0.85132 0.74939 0.0
N1909 N 0.27778 0.91067 0.77801 0.0
H1910 H 0.31138 0.03713 0.02966 0.0
H1911 H 0.44078 0.07945 0.06694 0.0
H1912 H 0.34334 0.10889 0.01976 0.0
H1913 H 0.41608 0.00353 0.06426 0.0
H1914 H 0.4005 0.09261 0.0639 0.0
H1915 H 0.34505 0.02684 0.05437 0.0
C1916 C 0.32534 0.05082 0.03293 0.0
C1917 C 0.32497 0.07363 0.02204 0.0
C1918 C 0.40375 0.07308 0.06465 0.0
C1919 C 0.36313 0.0622 0.05049 0.0
C1920 C 0.42671 0.0656 0.06667 0.0
C1921 C 0.43163 0.04041 0.06548 0.0
C1922 C 0.38572 0.05518 0.06082 0.0
C1923 C 0.4129 0.02315 0.06514 0.0
C1924 C 0.34447 0.04496 0.04705 0.0
C1925 C 0.34329 0.09081 0.02705 0.0
N1926 N 0.39069 0.03082 0.06207 0.0
N1927 N 0.3617 0.08466 0.04072 0.0
H1928 H 0.65504 0.54918 0.72983 0.0
H1929 H 0.68239 0.68608 0.78431 0.0
H1930 H 0.65941 0.56764 0.80641 0.0
H1931 H 0.71023 0.65873 0.716 0.0
H1932 H 0.66456 0.64515 0.79 0.0
H1933 H 0.66611 0.59213 0.72201 0.0
C1934 C 0.65804 0.56233 0.74497 0.0
C1935 C 0.65655 0.55487 0.7688 0.0
C1936 C 0.67443 0.64825 0.7737 0.0
C1937 C 0.66887 0.60376 0.75999 0.0
C1938 C 0.68451 0.67156 0.77039 0.0
C1939 C 0.69798 0.67569 0.74976 0.0
C1940 C 0.6775 0.62913 0.75606 0.0
C1941 C 0.7002 0.65622 0.7323 0.0
C1942 C 0.66443 0.58673 0.74049 0.0
C1943 C 0.66065 0.5726 0.78777 0.0
N1944 N 0.69006 0.63374 0.73584 0.0
N1945 N 0.66662 0.59625 0.78296 0.0
H1946 H 0.79845 0.46616 0.9714 0.0
H1947 H 0.90726 0.52072 0.00082 0.0
H1948 H 0.8358 0.39923 0.98074 0.0
H1949 H 0.9357 0.4543 0.9676 0.0
H1950 H 0.86784 0.50394 -0.008 0.0
H1951 H 0.83594 0.4888 0.96823 0.0
C1952 C 0.81453 0.45615 0.97244 0.0
C1953 C 0.81405 0.43083 0.9767 0.0
C1954 C 0.88273 0.49338 -0.01398 0.0
C1955 C 0.8568 0.45661 0.97344 0.0
C1956 C 0.90526 0.50289 -0.0088 0.0
C1957 C 0.92485 0.48881 0.9852 0.0
C1958 C 0.87986 0.46956 0.975 0.0
C1959 C 0.92117 0.46578 0.97276 0.0
C1960 C 0.83588 0.46915 0.9709 0.0
C1961 C 0.83536 0.41878 0.97782 0.0
N1962 N 0.89912 0.45668 0.96854 0.0
N1963 N 0.85588 0.43181 0.97628 0.0
H1964 H 0.2631 0.05019 0.80173 0.0
H1965 H 0.26466 0.13425 0.69385 0.0
H1966 H 0.29972 0.03382 0.73496 0.0
H1967 H 0.21799 0.1439 0.75458 0.0
H1968 H 0.26821 0.09102 0.70282 0.0
H1969 H 0.23769 0.07723 0.78039 0.0
C1970 C 0.26552 0.05191 0.7825 0.0
C1971 C 0.28419 0.04064 0.77032 0.0
C1972 C 0.25671 0.10239 0.71388 0.0
C1973 C 0.25535 0.07158 0.74585 0.0
C1974 C 0.25473 0.12711 0.70875 0.0
C1975 C 0.24181 0.14285 0.7241 0.0
C1976 C 0.24627 0.09369 0.7349 0.0
C1977 C 0.22872 0.13253 0.74269 0.0
C1978 C 0.25093 0.06728 0.77027 0.0
C1979 C 0.28612 0.04297 0.74529 0.0
N1980 N 0.23188 0.10872 0.74807 0.0
N1981 N 0.27225 0.05864 0.73399 0.0
H1982 H 0.2096 0.95482 0.27972 0.0
H1983 H 0.22024 0.84548 0.18124 0.0
H1984 H 0.17429 0.95095 0.21065 0.0
H1985 H 0.24039 0.84398 0.25606 0.0
H1986 H 0.2174 0.89066 0.18604 0.0
H1987 H 0.23509 0.92212 0.26494 0.0
C1988 C 0.20751 0.94751 0.26127 0.0
C1989 C 0.18912 0.95489 0.24675 0.0
C1990 C 0.22317 0.88049 0.20117 0.0
C1991 C 0.21804 0.9173 0.22988 0.0
C1992 C 0.22485 0.85482 0.1984 0.0
C1993 C 0.23006 0.84127 0.21845 0.0
C1994 C 0.22684 0.89233 0.22411 0.0
C1995 C 0.23588 0.85395 0.24033 0.0
C1996 C 0.2221 0.92883 0.25283 0.0
C1997 C 0.18773 0.94524 0.22276 0.0
N1998 N 0.23378 0.87877 0.2427 0.0
N1999 N 0.20159 0.92644 0.21527 0.0
H2000 H 0.50238 0.30247 0.38957 0.0
H2001 H 0.44944 0.42823 0.44346 0.0
H2002 H 0.42863 0.31746 0.39259 0.0
H2003 H 0.52069 0.40829 0.45718 0.0
H2004 H 0.44325 0.38986 0.41983 0.0
H2005 H 0.51092 0.34338 0.40888 0.0
C2006 C 0.488 0.31449 0.39391 0.0
C2007 C 0.4647 0.30646 0.38956 0.0
C2008 C 0.46027 0.39379 0.42796 0.0
C2009 C 0.47442 0.3531 0.41177 0.0
C2010 C 0.46389 0.4158 0.44152 0.0
C2011 C 0.48566 0.42156 0.4525 0.0
C2012 C 0.47851 0.37719 0.42515 0.0
C2013 C 0.50361 0.40456 0.44917 0.0
C2014 C 0.49291 0.33773 0.40512 0.0
C2015 C 0.44682 0.32276 0.39573 0.0
N2016 N 0.49963 0.38306 0.43577 0.0
N2017 N 0.45206 0.34523 0.40657 0.0
H2018 H 0.40317 0.72264 0.13029 0.0
H2019 H 0.3125 0.71636 0.23947 0.0
H2020 H 0.42462 0.71187 0.2036 0.0
H2021 H 0.29735 0.74221 0.16885 0.0
H2022 H 0.35203 0.70624 0.2255 0.0
H2023 H 0.36251 0.71967 0.14278 0.0
C2024 C 0.39935 0.71919 0.14895 0.0
C2025 C 0.41731 0.71799 0.16602 0.0
C2026 C 0.33992 0.71398 0.21311 0.0
C2027 C 0.3707 0.7151 0.1806 0.0
C2028 C 0.31744 0.71983 0.22106 0.0
C2029 C 0.30174 0.73051 0.20541 0.0
C2030 C 0.34652 0.7186 0.1893 0.0
C2031 C 0.30896 0.73442 0.18169 0.0
C2032 C 0.37608 0.71762 0.15612 0.0
C2033 C 0.41126 0.71313 0.1899 0.0
N2034 N 0.33079 0.72852 0.17442 0.0
N2035 N 0.38839 0.71232 0.19663 0.0
H2036 H 0.02254 0.69638 0.92976 0.0
H2037 H 0.96594 0.60701 0.02008 0.0
H2038 H 0.95505 0.70784 0.96278 0.0
H2039 H 0.03831 0.60469 -0.00199 0.0
H2040 H 0.96445 0.64916 0.00658 0.0
H2041 H 0.03217 0.6693 0.9619 0.0
C2042 C 0.00997 0.69372 0.94408 0.0
C2043 C -0.01241 0.70355 0.94303 0.0
C2044 C -0.01921 0.63959 0.00512 0.0
C2045 C -0.00173 0.67221 0.97952 0.0
C2046 C -0.0184 0.61548 0.01275 0.0
C2047 C 0.00201 0.60203 0.00938 0.0
C2048 C 0.00046 0.65008 -0.00619 0.0
C2049 C 0.02194 0.61409 0.00024 0.0
C2050 C 0.01544 0.67818 0.96244 0.0
C2051 C 0.97221 0.6999 0.96238 0.0
N2052 N 0.02052 0.63723 -0.00768 0.0
N2053 N 0.97758 0.68396 0.97948 0.0
H2054 H 0.04968 0.22358 0.70363 0.0
H2055 H 0.17513 0.29 0.70757 0.0
H2056 H 0.06098 0.29874 0.68306 0.0
H2057 H 0.15824 0.22399 0.74524 0.0
H2058 H 0.13355 0.29432 0.69897 0.0
H2059 H 0.08963 0.22368 0.71894 0.0
C2060 C 0.06058 0.24014 0.70235 0.0
C2061 C 0.05206 0.26114 0.69189 0.0
C2062 C 0.13895 0.27908 0.70938 0.0
C2063 C 0.09788 0.26135 0.70938 0.0
C2064 C 0.16268 0.27659 0.7143 0.0
C2065 C 0.17023 0.25643 0.72691 0.0
C2066 C 0.12272 0.26114 0.71687 0.0
C2067 C 0.15328 0.23973 0.73532 0.0
C2068 C 0.08336 0.24023 0.71124 0.0
C2069 C 0.06689 0.28214 0.69093 0.0
N2070 N 0.13036 0.24228 0.72987 0.0
N2071 N 0.0892 0.28164 0.69936 0.0
H2072 H 0.50488 0.66531 0.13369 0.0
H2073 H 0.52858 0.57416 0.0191 0.0
H2074 H 0.4871 0.68239 0.06086 0.0
H2075 H 0.50363 0.54851 0.08709 0.0
H2076 H 0.52839 0.61684 0.03638 0.0
H2077 H 0.51913 0.62518 0.11824 0.0
C2078 C 0.50448 0.66084 0.11442 0.0
C2079 C 0.49458 0.67698 0.09851 0.0
C2080 C 0.52355 0.60174 0.04763 0.0
C2081 C 0.51116 0.63162 0.08085 0.0
C2082 C 0.52383 0.57746 0.03789 0.0
C2083 C 0.51598 0.55793 0.05172 0.0
C2084 C 0.51588 0.6063 0.07145 0.0
C2085 C 0.50967 0.56316 0.07585 0.0
C2086 C 0.51252 0.63799 0.10568 0.0
C2087 C 0.49435 0.67029 0.07372 0.0
N2088 N 0.50964 0.58689 0.08496 0.0
N2089 N 0.50246 0.64805 0.06563 0.0
H2090 H 0.02943 0.7132 0.7834 0.0
H2091 H 0.14368 0.79721 0.7716 0.0
H2092 H 0.0562 0.76272 0.84104 0.0
H2093 H 0.11628 0.74682 0.71537 0.0
H2094 H 0.10672 0.79323 0.7935 0.0
H2095 H 0.05676 0.73177 0.75569 0.0
C2096 C 0.04117 0.72793 0.7903 0.0
C2097 C 0.0408 0.73611 0.81472 0.0
C2098 C 0.10842 0.78375 0.77595 0.0
C2099 C 0.0722 0.75771 0.78282 0.0
C2100 C 0.12933 0.78643 0.76323 0.0
C2101 C 0.13282 0.77235 0.74171 0.0
C2102 C 0.09119 0.76666 0.76704 0.0
C2103 C 0.11407 0.75809 0.73187 0.0
C2104 C 0.05665 0.73873 0.77435 0.0
C2105 C 0.05615 0.7556 0.82244 0.0
N2106 N 0.0942 0.75516 0.74488 0.0
N2107 N 0.07143 0.76558 0.80657 0.0
H2108 H 0.96069 0.28209 0.57254 0.0
H2109 H 0.00027 0.4226 0.59134 0.0
H2110 H 0.00381 0.30947 0.63259 0.0
H2111 H -0.01601 0.38962 0.52055 0.0
H2112 H -0.0011 0.38156 0.60756 0.0
H2113 H 0.9673 0.32133 0.55336 0.0
C2114 C 0.97183 0.29623 0.58153 0.0
C2115 C -0.01841 0.29258 0.60428 0.0
C2116 C -0.00429 0.3833 0.58846 0.0
C2117 C -0.01123 0.3376 0.58267 0.0
C2118 C -0.00376 0.40674 0.57922 0.0
C2119 C -0.00791 0.40955 0.55457 0.0
C2120 C -0.00939 0.36253 0.57304 0.0
C2121 C -0.01275 0.38829 0.53968 0.0
C2122 C 0.97557 0.31859 0.57056 0.0
C2123 C -0.00405 0.31147 0.61505 0.0
N2124 N -0.01355 0.36565 0.5492 0.0
N2125 N -0.0012 0.33334 0.60432 0.0
H2126 H 0.40767 0.24912 0.34221 0.0
H2127 H 0.32521 0.20143 0.24187 0.0
H2128 H 0.44303 0.20563 0.28686 0.0
H2129 H 0.33882 0.28009 0.25249 0.0
H2130 H 0.36274 0.19433 0.26208 0.0
H2131 H 0.37436 0.25222 0.31483 0.0
C2132 C 0.40823 0.23996 0.32443 0.0
C2133 C 0.42788 0.22708 0.31664 0.0
C2134 C 0.3575 0.21304 0.25938 0.0
C2135 C 0.39013 0.23028 0.2857 0.0
C2136 C 0.33624 0.21712 0.2479 0.0
C2137 C 0.32866 0.24137 0.246 0.0
C2138 C 0.3707 0.23334 0.26912 0.0
C2139 C 0.34365 0.26107 0.25406 0.0
C2140 C 0.3894 0.24184 0.30886 0.0
C2141 C 0.42806 0.21585 0.29326 0.0
N2142 N 0.36369 0.25661 0.2658 0.0
N2143 N 0.40924 0.21752 0.27848 0.0
H2144 H 0.36796 0.55097 0.33454 0.0
H2145 H 0.49089 0.54062 0.40183 0.0
H2146 H 0.43051 0.52676 0.2979 0.0
H2147 H 0.42415 0.54285 0.43786 0.0
H2148 H 0.47076 0.54479 0.36299 0.0
H2149 H 0.39004 0.55622 0.3721 0.0
C2150 C 0.3863 0.54657 0.3344 0.0
C2151 C 0.39731 0.538 0.31312 0.0
C2152 C 0.46063 0.54483 0.37949 0.0
C2153 C 0.42283 0.54447 0.35604 0.0
C2154 C 0.47211 0.54278 0.40158 0.0
C2155 C 0.45904 0.54141 0.42284 0.0
C2156 C 0.43607 0.54574 0.379 0.0
C2157 C 0.43475 0.54381 0.42173 0.0
C2158 C 0.39895 0.54975 0.35585 0.0
C2159 C 0.42128 0.53311 0.31398 0.0
N2160 N 0.42402 0.54571 0.40014 0.0
N2161 N 0.43327 0.53636 0.33515 0.0
H2162 H 0.28704 0.68884 0.03588 0.0
H2163 H 0.22767 0.75772 0.12212 0.0
H2164 H 0.22992 0.63519 0.03899 0.0
H2165 H 0.19462 0.68844 0.14009 0.0
H2166 H 0.24215 0.73792 0.08487 0.0
H2167 H 0.2698 0.71246 0.06954 0.0
C2168 C 0.27092 0.68197 0.04368 0.0
C2169 C 0.25986 0.66006 0.03443 0.0
C2170 C 0.23186 0.72698 0.09699 0.0
C2171 C 0.23937 0.68766 0.07235 0.0
C2172 C 0.22317 0.73841 0.11805 0.0
C2173 C 0.21032 0.72459 0.13451 0.0
C2174 C 0.22787 0.70149 0.09248 0.0
C2175 C 0.20465 0.69976 0.12805 0.0
C2176 C 0.26079 0.69576 0.06262 0.0
C2177 C 0.23902 0.65204 0.0454 0.0
N2178 N 0.21376 0.68889 0.10767 0.0
N2179 N 0.22945 0.66585 0.06378 0.0
H2180 H 0.13995 0.47086 0.85404 0.0
H2181 H 0.01877 0.46813 0.92321 0.0
H2182 H 0.07417 0.45793 0.81658 0.0
H2183 H 0.07753 0.51399 0.94885 0.0
H2184 H 0.04007 0.45867 0.8857 0.0
H2185 H 0.1185 0.48119 0.89116 0.0
C2186 C 0.12105 0.47017 0.85359 0.0
C2187 C 0.10883 0.46366 0.83217 0.0
C2188 C 0.04819 0.47088 0.89954 0.0
C2189 C 0.0843 0.47508 0.87451 0.0
C2190 C 0.03613 0.47621 0.92092 0.0
C2191 C 0.04642 0.49188 0.93907 0.0
C2192 C 0.07084 0.4809 0.8966 0.0
C2193 C 0.06891 0.50194 0.93521 0.0
C2194 C 0.10884 0.47615 0.87474 0.0
C2195 C 0.08428 0.46301 0.83268 0.0
N2196 N 0.0805 0.49609 0.91443 0.0
N2197 N 0.07279 0.4685 0.85358 0.0
H2198 H 0.29181 0.2732 0.52631 0.0
H2199 H 0.21821 0.24161 0.63966 0.0
H2200 H 0.22114 0.29602 0.5401 0.0
H2201 H 0.29014 0.22206 0.62873 0.0
H2202 H 0.21457 0.24816 0.59671 0.0
H2203 H 0.28658 0.24135 0.55546 0.0
C2204 C 0.27493 0.27108 0.53496 0.0
C2205 C 0.25722 0.28803 0.53161 0.0
C2206 C 0.23105 0.24197 0.60351 0.0
C2207 C 0.25129 0.25185 0.56518 0.0
C2208 C 0.23317 0.23834 0.62806 0.0
C2209 C 0.25474 0.23209 0.63774 0.0
C2210 C 0.25084 0.23999 0.58866 0.0
C2211 C 0.27335 0.22736 0.62194 0.0
C2212 C 0.27199 0.25287 0.55165 0.0
C2213 C 0.23553 0.28387 0.54268 0.0
N2214 N 0.27117 0.23207 0.59818 0.0
N2215 N 0.23339 0.26663 0.55953 0.0
H2216 H 0.36337 0.50923 0.16703 0.0
H2217 H 0.46432 0.43468 0.10133 0.0
H2218 H 0.41084 0.46391 0.20468 0.0
H2219 H 0.41016 0.47158 0.06416 0.0
H2220 H 0.44161 0.43919 0.13881 0.0
H2221 H 0.37717 0.49084 0.1287 0.0
C2222 C 0.3766 0.49532 0.16723 0.0
C2223 C 0.38625 0.48842 0.18903 0.0
C2224 C 0.43445 0.44576 0.12231 0.0
C2225 C 0.40222 0.4673 0.14529 0.0
C2226 C 0.44732 0.44298 0.10092 0.0
C2227 C 0.43922 0.45318 0.07987 0.0
C2228 C 0.41354 0.45891 0.12241 0.0
C2229 C 0.41716 0.46388 0.08022 0.0
C2230 C 0.38441 0.4847 0.14536 0.0
C2231 C 0.40312 0.47003 0.18826 0.0
N2232 N 0.40528 0.46685 0.10123 0.0
N2233 N 0.41081 0.46036 0.16673 0.0
H2234 H 0.20714 0.66372 0.92519 0.0
H2235 H 0.24928 0.75771 0.83005 0.0
H2236 H 0.27089 0.70829 0.93154 0.0
H2237 H 0.18354 0.71646 0.82545 0.0
H2238 H 0.25253 0.7479 0.87231 0.0
H2239 H 0.19323 0.69069 0.89465 0.0
C2240 C 0.21803 0.67945 0.92054 0.0
C2241 C 0.24058 0.68322 0.93027 0.0
C2242 C 0.23718 0.74134 0.86219 0.0
C2243 C 0.2249 0.71394 0.89521 0.0
C2244 C 0.23536 0.74688 0.83801 0.0
C2245 C 0.21649 0.73722 0.824 0.0
C2246 C 0.2202 0.72572 0.87228 0.0
C2247 C 0.19869 0.7238 0.83543 0.0
C2248 C 0.21008 0.69486 0.90308 0.0
C2249 C 0.25369 0.7042 0.92394 0.0
N2250 N 0.20124 0.71799 0.85878 0.0
N2251 N 0.24587 0.71846 0.90641 0.0
H2252 H 0.06903 0.45273 0.71256 0.0
H2253 H 0.08919 0.50355 0.58293 0.0
H2254 H 0.13883 0.4703 0.6877 0.0
H2255 H 0.0252 0.51181 0.62349 0.0
H2256 H 0.10874 0.49124 0.61971 0.0
H2257 H 0.05309 0.47183 0.67766 0.0
C2258 C 0.08105 0.46042 0.69964 0.0
C2259 C 0.10531 0.45991 0.70307 0.0
C2260 C 0.09055 0.49624 0.62057 0.0
C2261 C 0.08708 0.48212 0.66305 0.0
C2262 C 0.07943 0.50347 0.59967 0.0
C2263 C 0.05542 0.50829 0.60007 0.0
C2264 C 0.07743 0.49368 0.64175 0.0
C2265 C 0.04362 0.50781 0.62223 0.0
C2266 C 0.07191 0.47159 0.67982 0.0
C2267 C 0.11999 0.4703 0.68571 0.0
N2268 N 0.05463 0.50019 0.64205 0.0
N2269 N 0.11064 0.48094 0.66631 0.0
H2270 H 0.25538 0.37734 0.4283 0.0
H2271 H 0.23778 0.26513 0.33452 0.0
H2272 H 0.29128 0.30961 0.43801 0.0
H2273 H 0.25624 0.33674 0.30851 0.0
H2274 H 0.24682 0.28116 0.37596 0.0
H2275 H 0.24599 0.36283 0.38652 0.0
C2276 C 0.26148 0.35957 0.4215 0.0
C2277 C 0.27435 0.34472 0.43635 0.0
C2278 C 0.24862 0.29332 0.36111 0.0
C2279 C 0.26282 0.32777 0.38947 0.0
C2280 C 0.24327 0.28431 0.33765 0.0
C2281 C 0.24628 0.29973 0.31829 0.0
C2282 C 0.25632 0.31799 0.3651 0.0
C2283 C 0.25376 0.32436 0.32309 0.0
C2284 C 0.25606 0.35133 0.39784 0.0
C2285 C 0.28164 0.32172 0.42692 0.0
N2286 N 0.25838 0.33285 0.34612 0.0
N2287 N 0.27545 0.31373 0.40412 0.0
H2288 H 0.28766 0.44725 0.50498 0.0
H2289 H 0.41721 0.46471 0.55883 0.0
H2290 H 0.32277 0.39122 0.54284 0.0
H2291 H 0.39151 0.50445 0.49927 0.0
H2292 H 0.3783 0.44477 0.5626 0.0
H2293 H 0.32192 0.47489 0.51158 0.0
C2294 C 0.30255 0.4408 0.51472 0.0
C2295 C 0.3026 0.4168 0.52301 0.0
C2296 C 0.38112 0.45828 0.54908 0.0
C2297 C 0.34148 0.44837 0.53099 0.0
C2298 C 0.40316 0.4698 0.54711 0.0
C2299 C 0.40741 0.48597 0.52859 0.0
C2300 C 0.3634 0.46335 0.53259 0.0
C2301 C 0.38883 0.49185 0.51363 0.0
C2302 C 0.322 0.45659 0.51856 0.0
C2303 C 0.32221 0.40945 0.53578 0.0
N2304 N 0.36763 0.48037 0.51581 0.0
N2305 N 0.34094 0.42517 0.53931 0.0
H2306 H 0.82592 0.11086 0.46781 0.0
H2307 H 0.8973 -0.0131 0.4552 0.0
H2308 H 0.7932 0.03812 0.46765 0.0
H2309 H 0.92347 0.0511 0.49712 0.0
H2310 H 0.86132 0.00883 0.44733 0.0
H2311 H 0.86445 0.09178 0.46725 0.0
C2312 C 0.82687 0.09094 0.46752 0.0
C2313 C 0.80652 0.07597 0.46808 0.0
C2314 C 0.87516 0.01814 0.45795 0.0
C2315 C 0.84999 0.0543 0.46668 0.0
C2316 C 0.89563 0.00574 0.46233 0.0
C2317 C 0.91307 0.01717 0.47709 0.0
C2318 C 0.87251 0.04216 0.46802 0.0
C2319 C 0.91016 0.04159 0.48595 0.0
C2320 C 0.84873 0.08013 0.46717 0.0
C2321 C 0.80857 0.05026 0.46762 0.0
N2322 N 0.89014 0.05332 0.48135 0.0
N2323 N 0.82997 0.04019 0.46684 0.0
H2324 H 0.69113 0.04871 0.28528 0.0
H2325 H 0.63979 0.15752 0.22069 0.0
H2326 H 0.62349 0.03796 0.25114 0.0
H2327 H 0.7123 0.13976 0.21065 0.0
H2328 H 0.63174 0.11552 0.2336 0.0
H2329 H 0.6982 0.08525 0.26169 0.0
C2330 C 0.67771 0.05421 0.273 0.0
C2331 C 0.65665 0.04055 0.27022 0.0
C2332 C 0.64925 0.12066 0.2279 0.0
C2333 C 0.66462 0.08192 0.24332 0.0
C2334 C 0.65381 0.14448 0.22043 0.0
C2335 C 0.67671 0.15195 0.21464 0.0
C2336 C 0.66789 0.10474 0.23035 0.0
C2337 C 0.69438 0.13457 0.21483 0.0
C2338 C 0.68188 0.07475 0.25933 0.0
C2339 C 0.63993 0.04815 0.25379 0.0
N2340 N 0.68974 0.11188 0.22328 0.0
N2341 N 0.64413 0.06861 0.24114 0.0
H2342 H 0.66088 0.87762 0.00231 0.0
H2343 H 0.60193 0.00231 0.98372 0.0
H2344 H 0.69596 0.93395 0.96215 0.0
H2345 H 0.56035 0.93452 0.98149 0.0
H2346 H 0.63706 0.97811 0.97682 0.0
H2347 H 0.62371 0.89809 -0.00366 0.0
C2348 C 0.66071 0.89406 -0.008 0.0
C2349 C 0.68153 0.90425 0.98295 0.0
C2350 C 0.62016 0.96861 0.97736 0.0
C2351 C 0.63942 0.92781 0.97643 0.0
C2352 C 0.60017 0.98239 0.9813 0.0
C2353 C 0.57828 0.97038 0.98326 0.0
C2354 C 0.61825 0.9427 0.97612 0.0
C2355 C 0.57691 0.94451 0.98002 0.0
C2356 C 0.63954 0.90564 -0.01149 0.0
C2357 C 0.68034 0.92552 0.96958 0.0
N2358 N 0.59673 0.93145 0.97716 0.0
N2359 N 0.65971 0.93689 0.96713 0.0
H2360 H 0.29361 0.45971 0.28756 0.0
H2361 H 0.30291 0.34474 0.19458 0.0
H2362 H 0.35088 0.45216 0.23724 0.0
H2363 H 0.23793 0.36611 0.2276 0.0
H2364 H 0.32073 0.38447 0.2085 0.0
H2365 H 0.27366 0.42413 0.26683 0.0
C2366 C 0.30221 0.45027 0.27248 0.0
C2367 C 0.324 0.45883 0.26421 0.0
C2368 C 0.30237 0.38084 0.2121 0.0
C2369 C 0.30103 0.41859 0.24005 0.0
C2370 C 0.29211 0.35838 0.20375 0.0
C2371 C 0.26888 0.35246 0.20965 0.0
C2372 C 0.28942 0.39708 0.22702 0.0
C2373 C 0.25578 0.3703 0.2223 0.0
C2374 C 0.29062 0.43026 0.26038 0.0
C2375 C 0.33412 0.44614 0.24428 0.0
N2376 N 0.26639 0.39165 0.23109 0.0
N2377 N 0.32257 0.42666 0.2329 0.0
H2378 H 0.2 0.52834 -0.00712 0.0
H2379 H 0.08425 0.56789 0.0608 0.0
H2380 H 0.17908 0.60374 0.00604 0.0
H2381 H 0.10222 0.49221 0.04501 0.0
H2382 H 0.12416 0.58103 0.05112 0.0
H2383 H 0.1687 0.51471 0.01945 0.0
C2384 C 0.18879 0.54204 0.00131 0.0
C2385 C 0.19189 0.56719 -0.00311 0.0
C2386 C 0.11968 0.56146 0.0505 0.0
C2387 C 0.15629 0.55172 0.02766 0.0
C2388 C 0.09703 0.55396 0.05648 0.0
C2389 C 0.09012 0.529 0.05362 0.0
C2390 C 0.13523 0.54386 0.04109 0.0
C2391 C 0.10706 0.51163 0.04754 0.0
C2392 C 0.17107 0.53425 0.01667 0.0
C2393 C 0.17708 0.58413 0.0086 0.0
N2394 N 0.12876 0.51944 0.04078 0.0
N2395 N 0.15982 0.57606 0.02331 0.0
H2396 H 0.72571 0.94054 0.31316 0.0
H2397 H 0.75343 0.83819 0.21324 0.0
H2398 H 0.70212 0.9394 0.2391 0.0
H2399 H 0.77142 0.83479 0.28863 0.0
H2400 H 0.74765 0.88238 0.2195 0.0
H2401 H 0.75495 0.91026 0.30144 0.0
C2402 C 0.7271 0.93446 0.29431 0.0
C2403 C 0.71088 0.94171 0.27722 0.0
C2404 C 0.75332 0.8721 0.2346 0.0
C2405 C 0.74404 0.90701 0.26381 0.0
C2406 C 0.75653 0.84683 0.23105 0.0
C2407 C 0.76203 0.83269 0.25066 0.0
C2408 C 0.75513 0.88314 0.25802 0.0
C2409 C 0.76657 0.84494 0.27315 0.0
C2410 C 0.74378 0.91712 0.28764 0.0
C2411 C 0.71376 0.9336 0.25301 0.0
N2412 N 0.76242 0.86941 0.27637 0.0
N2413 N 0.72965 0.91625 0.24711 0.0
H2414 H 0.76702 0.04698 0.79448 0.0
H2415 H 0.71304 0.15489 0.78965 0.0
H2416 H 0.78569 0.06443 0.72166 0.0
H2417 H 0.70376 0.13972 0.71307 0.0
H2418 H 0.72682 0.11324 0.79334 0.0
H2419 H 0.73179 0.07093 0.79114 0.0
C2420 C 0.76358 0.05552 0.77764 0.0
C2421 C 0.77987 0.05456 0.75866 0.0
C2422 C 0.72081 0.11848 0.77585 0.0
C2423 C 0.73986 0.08236 0.75501 0.0
C2424 C 0.71304 0.14239 0.77376 0.0
C2425 C 0.70769 0.15082 0.75099 0.0
C2426 C 0.72378 0.10318 0.75488 0.0
C2427 C 0.70792 0.13394 0.73095 0.0
C2428 C 0.74349 0.06929 0.77583 0.0
C2429 C 0.77401 0.06529 0.73703 0.0
N2430 N 0.71669 0.11114 0.73322 0.0
N2431 N 0.7547 0.07922 0.73597 0.0
loop_
_geom_bond_atom_site_label_1
_geom_bond_atom_site_label_2
_geom_bond_distance
_geom_bond_site_symmetry_2
_ccdc_geom_bond_type
Mg0 O1 2.028 . S
Mg0 O7 1.986 . S
Mg0 O9 2.114 1_455 S
Mg0 O10 2.251 1_455 S
Mg0 O13 2.010 . S
O1 Mg0 2.028 . S
O1 C4 1.250 . S
O2 Mg3 2.028 . S
O2 C4 1.248 1_655 S
Mg3 O2 2.028 . S
Mg3 O8 2.032 . S
Mg3 O10 2.079 . S
C4 O1 1.250 . S
C4 O2 1.248 1_455 S
C5 O6 1.264 . S
C5 O13 1.249 . S
O6 C5 1.264 . S
O7 Mg0 1.986 . S
O7 C11 1.246 . S
O8 Mg3 2.032 . S
O8 C11 1.259 1_655 S
O9 Mg0 2.114 1_655 S
O9 C12 1.252 . S
O10 Mg0 2.251 1_655 S
O10 Mg3 2.079 . S
O10 C12 1.273 . S
C11 O7 1.246 . S
C11 O8 1.259 1_455 S
C12 O9 1.252 . S
C12 O10 1.273 . S
O13 Mg0 2.010 . S
O13 C5 1.249 . S
Mg14 O15 2.028 . S
Mg14 O21 1.986 . S
Mg14 O23 2.114 1_455 S
Mg14 O24 2.251 1_455 S
Mg14 O27 2.010 . S
O15 Mg14 2.028 . S
O15 C18 1.250 . S
O16 Mg17 2.028 . S
O16 C18 1.248 1_655 S
Mg17 O16 2.028 . S
Mg17 O22 2.032 . S
Mg17 O24 2.079 . S
C18 O15 1.250 . S
C18 O16 1.248 1_455 S
C19 O20 1.264 . S
C19 O27 1.249 . S
O20 C19 1.264 . S
O21 Mg14 1.986 . S
O21 C25 1.246 . S
O22 Mg17 2.032 . S
O22 C25 1.259 1_655 S
O23 Mg14 2.114 1_655 S
O23 C26 1.252 . S
O24 Mg14 2.251 1_655 S
O24 Mg17 2.079 . S
O24 C26 1.273 . S
C25 O21 1.246 . S
C25 O22 1.259 1_455 S
C26 O23 1.252 . S
C26 O24 1.273 . S
O27 Mg14 2.010 . S
O27 C19 1.249 . S
Mg28 O29 2.028 . S
Mg28 O35 1.986 . S
Mg28 O37 2.114 . S
Mg28 O38 2.251 . S
Mg28 O41 2.010 . S
O29 Mg28 2.028 . S
O29 C32 1.250 . S
O30 Mg31 2.028 . S
O30 C32 1.248 . S
Mg31 O30 2.028 . S
Mg31 O36 2.032 . S
Mg31 O38 2.079 . S
C32 O29 1.250 . S
C32 O30 1.248 . S
C33 O34 1.264 . S
C33 O41 1.249 . S
O34 C33 1.264 . S
O35 Mg28 1.986 . S
O35 C39 1.246 . S
O36 Mg31 2.032 . S
O36 C39 1.259 . S
O37 Mg28 2.114 . S
O37 C40 1.252 . S
O38 Mg28 2.251 . S
O38 Mg31 2.079 . S
O38 C40 1.273 . S
C39 O35 1.246 . S
C39 O36 1.259 . S
C40 O37 1.252 . S
C40 O38 1.273 . S
O41 Mg28 2.010 . S
O41 C33 1.249 . S
Mg42 O43 2.028 . S
Mg42 O49 1.986 . S
Mg42 O51 2.114 . S
Mg42 O52 2.251 . S
Mg42 O55 2.010 . S
O43 Mg42 2.028 . S
O43 C46 1.250 . S
O44 Mg45 2.028 . S
O44 C46 1.248 . S
Mg45 O44 2.028 . S
Mg45 O50 2.032 . S
Mg45 O52 2.079 . S
C46 O43 1.250 . S
C46 O44 1.248 . S
C47 O48 1.264 . S
C47 O55 1.249 . S
O48 C47 1.264 . S
O49 Mg42 1.986 . S
O49 C53 1.246 . S
O50 Mg45 2.032 . S
O50 C53 1.259 . S
O51 Mg42 2.114 . S
O51 C54 1.252 . S
O52 Mg42 2.251 . S
O52 Mg45 2.079 . S
O52 C54 1.273 . S
C53 O49 1.246 . S
C53 O50 1.259 . S
C54 O51 1.252 . S
C54 O52 1.273 . S
O55 Mg42 2.010 . S
O55 C47 1.249 . S
Mg56 O57 2.028 . S
Mg56 O63 1.986 1_545 S
Mg56 O65 2.114 . S
Mg56 O66 2.251 . S
Mg56 O69 2.010 . S
O57 Mg56 2.028 . S
O57 C60 1.250 . S
O58 Mg59 2.028 . S
O58 C60 1.248 . S
Mg59 O58 2.028 . S
Mg59 O64 2.032 1_545 S
Mg59 O66 2.079 . S
C60 O57 1.250 . S
C60 O58 1.248 . S
C61 O62 1.264 1_545 S
C61 O69 1.249 . S
O62 C61 1.264 1_565 S
O63 Mg56 1.986 1_565 S
O63 C67 1.246 . S
O64 Mg59 2.032 1_565 S
O64 C67 1.259 . S
O65 Mg56 2.114 . S
O65 C68 1.252 . S
O66 Mg56 2.251 . S
O66 Mg59 2.079 . S
O66 C68 1.273 . S
C67 O63 1.246 . S
C67 O64 1.259 . S
C68 O65 1.252 . S
C68 O66 1.273 . S
O69 Mg56 2.010 . S
O69 C61 1.249 . S
Mg70 O71 2.028 . S
Mg70 O77 1.986 . S
Mg70 O79 2.114 . S
Mg70 O80 2.251 . S
Mg70 O83 2.010 . S
O71 Mg70 2.028 . S
O71 C74 1.250 . S
O72 Mg73 2.028 . S
O72 C74 1.248 . S
Mg73 O72 2.028 . S
Mg73 O78 2.032 . S
Mg73 O80 2.079 . S
C74 O71 1.250 . S
C74 O72 1.248 . S
C75 O76 1.264 . S
C75 O83 1.249 . S
O76 C75 1.264 . S
O77 Mg70 1.986 . S
O77 C81 1.246 . S
O78 Mg73 2.032 . S
O78 C81 1.259 . S
O79 Mg70 2.114 . S
O79 C82 1.252 . S
O80 Mg70 2.251 . S
O80 Mg73 2.079 . S
O80 C82 1.273 . S
C81 O77 1.246 . S
C81 O78 1.259 . S
C82 O79 1.252 . S
C82 O80 1.273 . S
O83 Mg70 2.010 . S
O83 C75 1.249 . S
Mg84 O85 2.028 1_545 S
Mg84 O91 1.986 . S
Mg84 O93 2.114 1_545 S
Mg84 O94 2.251 . S
Mg84 O97 2.010 . S
O85 Mg84 2.028 1_565 S
O85 C88 1.250 . S
O86 Mg87 2.028 1_565 S
O86 C88 1.248 . S
Mg87 O86 2.028 1_545 S
Mg87 O92 2.032 . S
Mg87 O94 2.079 . S
C88 O85 1.250 . S
C88 O86 1.248 . S
C89 O90 1.264 . S
C89 O97 1.249 . S
O90 C89 1.264 . S
O91 Mg84 1.986 . S
O91 C95 1.246 . S
O92 Mg87 2.032 . S
O92 C95 1.259 . S
O93 Mg84 2.114 1_565 S
O93 C96 1.252 . S
O94 Mg84 2.251 . S
O94 Mg87 2.079 . S
O94 C96 1.273 1_545 S
C95 O91 1.246 . S
C95 O92 1.259 . S
C96 O93 1.252 . S
C96 O94 1.273 1_565 S
O97 Mg84 2.010 . S
O97 C89 1.249 . S
Mg98 O99 2.028 . S
Mg98 O105 1.986 1_554 S
Mg98 O107 2.114 . S
Mg98 O108 2.251 . S
Mg98 O111 2.010 1_554 S
O99 Mg98 2.028 . S
O99 C102 1.250 . S
O100 Mg101 2.028 . S
O100 C102 1.248 . S
Mg101 O100 2.028 . S
Mg101 O106 2.032 1_554 S
Mg101 O108 2.079 . S
C102 O99 1.250 . S
C102 O100 1.248 . S
C103 O104 1.264 1_554 S
C103 O111 1.249 1_554 S
O104 C103 1.264 1_556 S
O105 Mg98 1.986 1_556 S
O105 C109 1.246 . S
O106 Mg101 2.032 1_556 S
O106 C109 1.259 . S
O107 Mg98 2.114 . S
O107 C110 1.252 . S
O108 Mg98 2.251 . S
O108 Mg101 2.079 . S
O108 C110 1.273 . S
C109 O105 1.246 . S
C109 O106 1.259 . S
C110 O107 1.252 . S
C110 O108 1.273 . S
O111 Mg98 2.010 1_556 S
O111 C103 1.249 1_556 S
Mg112 O113 2.028 1_554 S
Mg112 O119 1.986 . S
Mg112 O121 2.114 . S
Mg112 O122 2.251 . S
Mg112 O125 2.010 . S
O113 Mg112 2.028 1_556 S
O113 C116 1.250 . S
O114 Mg115 2.028 1_556 S
O114 C116 1.248 . S
Mg115 O114 2.028 1_554 S
Mg115 O120 2.032 . S
Mg115 O122 2.079 . S
C116 O113 1.250 . S
C116 O114 1.248 . S
C117 O118 1.264 . S
C117 O125 1.249 . S
O118 C117 1.264 . S
O119 Mg112 1.986 . S
O119 C123 1.246 . S
O120 Mg115 2.032 . S
O120 C123 1.259 . S
O121 Mg112 2.114 . S
O121 C124 1.252 . S
O122 Mg112 2.251 . S
O122 Mg115 2.079 . S
O122 C124 1.273 . S
C123 O119 1.246 . S
C123 O120 1.259 . S
C124 O121 1.252 . S
C124 O122 1.273 . S
O125 Mg112 2.010 . S
O125 C117 1.249 . S
Mg126 O127 2.028 . S
Mg126 O133 1.986 . S
Mg126 O135 2.114 . S
Mg126 O136 2.251 . S
Mg126 O139 2.010 . S
O127 Mg126 2.028 . S
O127 C130 1.250 . S
O128 Mg129 2.028 . S
O128 C130 1.248 . S
Mg129 O128 2.028 . S
Mg129 O134 2.032 . S
Mg129 O136 2.079 . S
C130 O127 1.250 . S
C130 O128 1.248 . S
C131 O132 1.264 . S
C131 O139 1.249 . S
O132 C131 1.264 . S
O133 Mg126 1.986 . S
O133 C137 1.246 . S
O134 Mg129 2.032 . S
O134 C137 1.259 . S
O135 Mg126 2.114 . S
O135 C138 1.252 . S
O136 Mg126 2.251 . S
O136 Mg129 2.079 . S
O136 C138 1.273 . S
C137 O133 1.246 . S
C137 O134 1.259 . S
C138 O135 1.252 . S
C138 O136 1.273 . S
O139 Mg126 2.010 . S
O139 C131 1.249 . S
Mg140 O141 2.028 . S
Mg140 O147 1.986 . S
Mg140 O149 2.114 . S
Mg140 O150 2.251 . S
Mg140 O153 2.010 . S
O141 Mg140 2.028 . S
O141 C144 1.250 . S
O142 Mg143 2.028 . S
O142 C144 1.248 . S
Mg143 O142 2.028 . S
Mg143 O148 2.032 . S
Mg143 O150 2.079 . S
C144 O141 1.250 . S
C144 O142 1.248 . S
C145 O146 1.264 . S
C145 O153 1.249 . S
O146 C145 1.264 . S
O147 Mg140 1.986 . S
O147 C151 1.246 . S
O148 Mg143 2.032 . S
O148 C151 1.259 . S
O149 Mg140 2.114 . S
O149 C152 1.252 . S
O150 Mg140 2.251 . S
O150 Mg143 2.079 . S
O150 C152 1.273 . S
C151 O147 1.246 . S
C151 O148 1.259 . S
C152 O149 1.252 . S
C152 O150 1.273 . S
O153 Mg140 2.010 . S
O153 C145 1.249 . S
Mg154 O155 2.028 . S
Mg154 O161 1.986 . S
Mg154 O163 2.114 . S
Mg154 O164 2.251 . S
Mg154 O167 2.010 . S
O155 Mg154 2.028 . S
O155 C158 1.250 . S
O156 Mg157 2.028 . S
O156 C158 1.248 . S
Mg157 O156 2.028 . S
Mg157 O162 2.032 . S
Mg157 O164 2.079 . S
C158 O155 1.250 . S
C158 O156 1.248 . S
C159 O160 1.264 . S
C159 O167 1.249 . S
O160 C159 1.264 . S
O161 Mg154 1.986 . S
O161 C165 1.246 . S
O162 Mg157 2.032 . S
O162 C165 1.259 . S
O163 Mg154 2.114 . S
O163 C166 1.252 . S
O164 Mg154 2.251 . S
O164 Mg157 2.079 . S
O164 C166 1.273 . S
C165 O161 1.246 . S
C165 O162 1.259 . S
C166 O163 1.252 . S
C166 O164 1.273 . S
O167 Mg154 2.010 . S
O167 C159 1.249 . S
Mg168 O169 2.028 . S
Mg168 O175 1.986 . S
Mg168 O177 2.114 1_455 S
Mg168 O178 2.251 1_455 S
Mg168 O181 2.010 . S
O169 Mg168 2.028 . S
O169 C172 1.250 . S
O170 Mg171 2.028 . S
O170 C172 1.248 1_655 S
Mg171 O170 2.028 . S
Mg171 O176 2.032 . S
Mg171 O178 2.079 . S
C172 O169 1.250 . S
C172 O170 1.248 1_455 S
C173 O174 1.264 . S
C173 O181 1.249 . S
O174 C173 1.264 . S
O175 Mg168 1.986 . S
O175 C179 1.246 . S
O176 Mg171 2.032 . S
O176 C179 1.259 1_655 S
O177 Mg168 2.114 1_655 S
O177 C180 1.252 . S
O178 Mg168 2.251 1_655 S
O178 Mg171 2.079 . S
O178 C180 1.273 . S
C179 O175 1.246 . S
C179 O176 1.259 1_455 S
C180 O177 1.252 . S
C180 O178 1.273 . S
O181 Mg168 2.010 . S
O181 C173 1.249 . S
Mg182 O183 2.028 . S
Mg182 O189 1.986 . S
Mg182 O191 2.114 1_455 S
Mg182 O192 2.251 1_455 S
Mg182 O195 2.010 . S
O183 Mg182 2.028 . S
O183 C186 1.250 . S
O184 Mg185 2.028 . S
O184 C186 1.248 1_655 S
Mg185 O184 2.028 . S
Mg185 O190 2.032 . S
Mg185 O192 2.079 . S
C186 O183 1.250 . S
C186 O184 1.248 1_455 S
C187 O188 1.264 . S
C187 O195 1.249 . S
O188 C187 1.264 . S
O189 Mg182 1.986 . S
O189 C193 1.246 . S
O190 Mg185 2.032 . S
O190 C193 1.259 1_655 S
O191 Mg182 2.114 1_655 S
O191 C194 1.252 . S
O192 Mg182 2.251 1_655 S
O192 Mg185 2.079 . S
O192 C194 1.273 . S
C193 O189 1.246 . S
C193 O190 1.259 1_455 S
C194 O191 1.252 . S
C194 O192 1.273 . S
O195 Mg182 2.010 . S
O195 C187 1.249 . S
Mg196 O197 2.028 . S
Mg196 O203 1.986 . S
Mg196 O205 2.114 . S
Mg196 O206 2.251 . S
Mg196 O209 2.010 . S
O197 Mg196 2.028 . S
O197 C200 1.250 . S
O198 Mg199 2.028 . S
O198 C200 1.248 . S
Mg199 O198 2.028 . S
Mg199 O204 2.032 . S
Mg199 O206 2.079 . S
C200 O197 1.250 . S
C200 O198 1.248 . S
C201 O202 1.264 . S
C201 O209 1.249 . S
O202 C201 1.264 . S
O203 Mg196 1.986 . S
O203 C207 1.246 . S
O204 Mg199 2.032 . S
O204 C207 1.259 . S
O205 Mg196 2.114 . S
O205 C208 1.252 . S
O206 Mg196 2.251 . S
O206 Mg199 2.079 . S
O206 C208 1.273 . S
C207 O203 1.246 . S
C207 O204 1.259 . S
C208 O205 1.252 . S
C208 O206 1.273 . S
O209 Mg196 2.010 . S
O209 C201 1.249 . S
Mg210 O211 2.028 . S
Mg210 O217 1.986 . S
Mg210 O219 2.114 . S
Mg210 O220 2.251 . S
Mg210 O223 2.010 . S
O211 Mg210 2.028 . S
O211 C214 1.250 . S
O212 Mg213 2.028 . S
O212 C214 1.248 . S
Mg213 O212 2.028 . S
Mg213 O218 2.032 . S
Mg213 O220 2.079 . S
C214 O211 1.250 . S
C214 O212 1.248 . S
C215 O216 1.264 . S
C215 O223 1.249 . S
O216 C215 1.264 . S
O217 Mg210 1.986 . S
O217 C221 1.246 . S
O218 Mg213 2.032 . S
O218 C221 1.259 . S
O219 Mg210 2.114 . S
O219 C222 1.252 . S
O220 Mg210 2.251 . S
O220 Mg213 2.079 . S
O220 C222 1.273 . S
C221 O217 1.246 . S
C221 O218 1.259 . S
C222 O219 1.252 . S
C222 O220 1.273 . S
O223 Mg210 2.010 . S
O223 C215 1.249 . S
Mg224 O225 2.028 1_545 S
Mg224 O231 1.986 . S
Mg224 O233 2.114 . S
Mg224 O234 2.251 . S
Mg224 O237 2.010 . S
O225 Mg224 2.028 1_565 S
O225 C228 1.250 . S
O226 Mg227 2.028 1_565 S
O226 C228 1.248 . S
Mg227 O226 2.028 1_545 S
Mg227 O232 2.032 . S
Mg227 O234 2.079 . S
C228 O225 1.250 . S
C228 O226 1.248 . S
C229 O230 1.264 . S
C229 O237 1.249 . S
O230 C229 1.264 . S
O231 Mg224 1.986 . S
O231 C235 1.246 . S
O232 Mg227 2.032 . S
O232 C235 1.259 . S
O233 Mg224 2.114 . S
O233 C236 1.252 . S
O234 Mg224 2.251 . S
O234 Mg227 2.079 . S
O234 C236 1.273 . S
C235 O231 1.246 . S
C235 O232 1.259 . S
C236 O233 1.252 . S
C236 O234 1.273 . S
O237 Mg224 2.010 . S
O237 C229 1.249 . S
Mg238 O239 2.028 . S
Mg238 O245 1.986 . S
Mg238 O247 2.114 . S
Mg238 O248 2.251 . S
Mg238 O251 2.010 . S
O239 Mg238 2.028 . S
O239 C242 1.250 . S
O240 Mg241 2.028 . S
O240 C242 1.248 . S
Mg241 O240 2.028 . S
Mg241 O246 2.032 . S
Mg241 O248 2.079 . S
C242 O239 1.250 . S
C242 O240 1.248 . S
C243 O244 1.264 . S
C243 O251 1.249 . S
O244 C243 1.264 . S
O245 Mg238 1.986 . S
O245 C249 1.246 . S
O246 Mg241 2.032 . S
O246 C249 1.259 . S
O247 Mg238 2.114 . S
O247 C250 1.252 . S
O248 Mg238 2.251 . S
O248 Mg241 2.079 . S
O248 C250 1.273 . S
C249 O245 1.246 . S
C249 O246 1.259 . S
C250 O247 1.252 . S
C250 O248 1.273 . S
O251 Mg238 2.010 . S
O251 C243 1.249 . S
Mg252 O253 2.028 1_565 S
Mg252 O259 1.986 . S
Mg252 O261 2.114 1_565 S
Mg252 O262 2.251 . S
Mg252 O265 2.010 . S
O253 Mg252 2.028 1_545 S
O253 C256 1.250 . S
O254 Mg255 2.056 . S
O254 C256 1.248 . S
Mg255 O254 2.056 . S
Mg255 O260 2.007 1_545 S
Mg255 O262 2.076 1_545 S
C256 O253 1.250 . S
C256 O254 1.248 . S
C257 O258 1.264 . S
C257 O265 1.249 . S
O258 C257 1.264 . S
O259 Mg252 1.986 . S
O259 C263 1.246 . S
O260 Mg255 2.007 1_565 S
O260 C263 1.259 . S
O261 Mg252 2.114 1_545 S
O261 C264 1.252 . S
O262 Mg252 2.251 . S
O262 Mg255 2.076 1_565 S
O262 C264 1.273 1_565 S
C263 O259 1.246 . S
C263 O260 1.259 . S
C264 O261 1.252 . S
C264 O262 1.273 1_545 S
O265 Mg252 2.010 . S
O265 C257 1.249 . S
Mg266 O267 2.028 1_554 S
Mg266 O273 1.986 . S
Mg266 O275 2.114 1_554 S
Mg266 O276 2.251 . S
Mg266 O279 2.010 . S
O267 Mg266 2.028 1_556 S
O267 C270 1.250 . S
O268 Mg269 2.028 1_556 S
O268 C270 1.248 . S
Mg269 O268 2.028 1_554 S
Mg269 O274 2.032 . S
Mg269 O276 2.079 . S
C270 O267 1.250 . S
C270 O268 1.248 . S
C271 O272 1.264 . S
C271 O279 1.249 . S
O272 C271 1.264 . S
O273 Mg266 1.986 . S
O273 C277 1.246 . S
O274 Mg269 2.032 . S
O274 C277 1.259 . S
O275 Mg266 2.114 1_556 S
O275 C278 1.252 1_556 S
O276 Mg266 2.251 . S
O276 Mg269 2.079 . S
O276 C278 1.273 . S
C277 O273 1.246 . S
C277 O274 1.259 . S
C278 O275 1.252 1_554 S
C278 O276 1.273 . S
O279 Mg266 2.010 . S
O279 C271 1.249 . S
Mg280 O281 2.028 1_556 S
Mg280 O287 1.986 . S
Mg280 O289 2.114 1_556 S
Mg280 O290 2.251 . S
Mg280 O293 2.010 . S
O281 Mg280 2.028 1_554 S
O281 C284 1.250 . S
O282 Mg283 2.008 1_554 S
O282 C284 1.248 . S
Mg283 O282 2.008 1_556 S
Mg283 O288 2.051 . S
Mg283 O290 2.081 . S
C284 O281 1.250 . S
C284 O282 1.248 . S
C285 O286 1.264 . S
C285 O293 1.249 . S
O286 C285 1.264 . S
O287 Mg280 1.986 . S
O287 C291 1.246 . S
O288 Mg283 2.051 . S
O288 C291 1.259 . S
O289 Mg280 2.114 1_554 S
O289 C292 1.252 . S
O290 Mg280 2.251 . S
O290 Mg283 2.081 . S
O290 C292 1.273 1_556 S
C291 O287 1.246 . S
C291 O288 1.259 . S
C292 O289 1.252 . S
C292 O290 1.273 1_554 S
O293 Mg280 2.010 . S
O293 C285 1.249 . S
Mg294 O295 2.028 . S
Mg294 O301 1.986 . S
Mg294 O303 2.114 . S
Mg294 O304 2.251 . S
Mg294 O307 2.010 . S
O295 Mg294 2.028 . S
O295 C298 1.250 . S
O296 Mg297 2.028 . S
O296 C298 1.248 . S
Mg297 O296 2.028 . S
Mg297 O302 2.032 . S
Mg297 O304 2.079 . S
C298 O295 1.250 . S
C298 O296 1.248 . S
C299 O300 1.264 . S
C299 O307 1.249 . S
O300 C299 1.264 . S
O301 Mg294 1.986 . S
O301 C305 1.246 . S
O302 Mg297 2.032 . S
O302 C305 1.259 . S
O303 Mg294 2.114 . S
O303 C306 1.252 . S
O304 Mg294 2.251 . S
O304 Mg297 2.079 . S
O304 C306 1.273 . S
C305 O301 1.246 . S
C305 O302 1.259 . S
C306 O303 1.252 . S
C306 O304 1.273 . S
O307 Mg294 2.010 . S
O307 C299 1.249 . S
Mg308 O309 2.028 . S
Mg308 O315 1.986 . S
Mg308 O317 2.114 . S
Mg308 O318 2.251 . S
Mg308 O321 2.010 . S
O309 Mg308 2.028 . S
O309 C312 1.250 . S
O310 Mg311 2.028 . S
O310 C312 1.248 . S
Mg311 O310 2.028 . S
Mg311 O316 2.032 . S
Mg311 O318 2.079 . S
C312 O309 1.250 . S
C312 O310 1.248 . S
C313 O314 1.264 . S
C313 O321 1.249 . S
O314 C313 1.264 . S
O315 Mg308 1.986 . S
O315 C319 1.246 . S
O316 Mg311 2.032 . S
O316 C319 1.259 . S
O317 Mg308 2.114 . S
O317 C320 1.252 . S
O318 Mg308 2.251 . S
O318 Mg311 2.079 . S
O318 C320 1.273 . S
C319 O315 1.246 . S
C319 O316 1.259 . S
C320 O317 1.252 . S
C320 O318 1.273 . S
O321 Mg308 2.010 . S
O321 C313 1.249 . S
Mg322 O323 2.028 . S
Mg322 O329 1.986 . S
Mg322 O331 2.114 . S
Mg322 O332 2.251 . S
Mg322 O335 2.010 . S
O323 Mg322 2.028 . S
O323 C326 1.250 . S
O324 Mg325 2.028 . S
O324 C326 1.248 . S
Mg325 O324 2.028 . S
Mg325 O330 2.032 . S
Mg325 O332 2.079 . S
C326 O323 1.250 . S
C326 O324 1.248 . S
C327 O328 1.264 . S
C327 O335 1.249 . S
O328 C327 1.264 . S
O329 Mg322 1.986 . S
O329 C333 1.246 . S
O330 Mg325 2.032 . S
O330 C333 1.259 . S
O331 Mg322 2.114 . S
O331 C334 1.252 . S
O332 Mg322 2.251 . S
O332 Mg325 2.079 . S
O332 C334 1.273 . S
C333 O329 1.246 . S
C333 O330 1.259 . S
C334 O331 1.252 . S
C334 O332 1.273 . S
O335 Mg322 2.010 . S
O335 C327 1.249 . S
O336 Zn337 1.953 . S
O336 C352 1.225 1_455 S
Zn337 O336 1.953 . S
Zn337 O338 1.949 . S
Zn337 O344 1.919 . S
Zn337 O349 1.924 1_454 S
O338 Zn337 1.949 . S
O338 Zn339 1.923 1_545 S
O338 Zn340 1.950 1_455 S
O338 Zn341 1.945 1_444 S
Zn339 O338 1.923 1_565 S
Zn339 O342 1.933 . S
Zn339 O345 1.941 1_565 S
Zn339 O346 1.965 . S
Zn340 O338 1.950 1_655 S
Zn340 O347 1.938 . S
Zn340 O348 1.906 1_545 S
Zn340 O358 1.953 . S
Zn341 O338 1.945 1_666 S
Zn341 O343 1.932 . S
Zn341 O350 1.977 1_556 S
Zn341 O351 1.910 1_565 S
O342 Zn339 1.933 . S
O342 C353 1.226 1_554 S
O343 Zn341 1.932 . S
O343 C353 1.307 1_655 S
O344 Zn337 1.919 . S
O344 C355 1.253 . S
O345 Zn339 1.941 1_545 S
O345 C355 1.283 . S
O346 Zn339 1.965 . S
O346 C354 1.303 1_565 S
O347 Zn340 1.938 . S
O347 C354 1.247 1_655 S
O348 Zn340 1.906 1_565 S
O348 C356 1.304 . S
O349 Zn337 1.924 1_656 S
O349 C357 1.311 . S
O350 Zn341 1.977 1_554 S
O350 C356 1.272 . S
O351 Zn341 1.910 1_545 S
O351 C357 1.231 . S
C352 O336 1.225 1_655 S
C352 O358 1.298 . S
C353 O342 1.226 1_556 S
C353 O343 1.307 1_455 S
C354 O346 1.303 1_545 S
C354 O347 1.247 1_455 S
C355 O344 1.253 . S
C355 O345 1.283 . S
C356 O348 1.304 . S
C356 O350 1.272 . S
C357 O349 1.311 . S
C357 O351 1.231 . S
O358 Zn340 1.953 . S
O358 C352 1.298 . S
O359 Zn360 1.953 . S
O359 C375 1.225 . S
Zn360 O359 1.953 . S
Zn360 O361 1.949 . S
Zn360 O367 1.919 . S
Zn360 O372 1.924 . S
O361 Zn360 1.949 . S
O361 Zn362 1.923 . S
O361 Zn363 1.950 . S
O361 Zn364 1.945 . S
Zn362 O361 1.923 . S
Zn362 O365 1.933 . S
Zn362 O368 1.941 . S
Zn362 O369 1.965 . S
Zn363 O361 1.950 . S
Zn363 O370 1.938 . S
Zn363 O371 1.906 . S
Zn363 O381 1.953 . S
Zn364 O361 1.945 . S
Zn364 O366 1.932 . S
Zn364 O373 1.977 . S
Zn364 O374 1.910 . S
O365 Zn362 1.933 . S
O365 C376 1.226 . S
O366 Zn364 1.932 . S
O366 C376 1.307 . S
O367 Zn360 1.919 . S
O367 C378 1.253 . S
O368 Zn362 1.941 . S
O368 C378 1.283 . S
O369 Zn362 1.965 . S
O369 C377 1.303 . S
O370 Zn363 1.938 . S
O370 C377 1.247 . S
O371 Zn363 1.906 . S
O371 C379 1.304 . S
O372 Zn360 1.924 . S
O372 C380 1.311 . S
O373 Zn364 1.977 . S
O373 C379 1.272 . S
O374 Zn364 1.910 . S
O374 C380 1.231 . S
C375 O359 1.225 . S
C375 O381 1.298 . S
C376 O365 1.226 . S
C376 O366 1.307 . S
C377 O369 1.303 . S
C377 O370 1.247 . S
C378 O367 1.253 . S
C378 O368 1.283 . S
C379 O371 1.304 . S
C379 O373 1.272 . S
C380 O372 1.311 . S
C380 O374 1.231 . S
O381 Zn363 1.953 . S
O381 C375 1.298 . S
O382 Zn383 1.953 . S
O382 C398 1.225 . S
Zn383 O382 1.953 . S
Zn383 O384 1.949 1_565 S
Zn383 O390 1.919 . S
Zn383 O395 1.924 . S
O384 Zn383 1.949 1_545 S
O384 Zn385 1.923 . S
O384 Zn386 1.950 . S
O384 Zn387 1.945 . S
Zn385 O384 1.923 . S
Zn385 O388 1.933 . S
Zn385 O391 1.941 . S
Zn385 O392 1.965 . S
Zn386 O384 1.950 . S
Zn386 O393 1.938 . S
Zn386 O394 1.906 . S
Zn386 O404 1.953 1_545 S
Zn387 O384 1.945 . S
Zn387 O389 1.932 . S
Zn387 O396 1.977 . S
Zn387 O397 1.910 . S
O388 Zn385 1.933 . S
O388 C399 1.226 . S
O389 Zn387 1.932 . S
O389 C399 1.307 . S
O390 Zn383 1.919 . S
O390 C401 1.253 . S
O391 Zn385 1.941 . S
O391 C401 1.283 1_545 S
O392 Zn385 1.965 . S
O392 C400 1.303 . S
O393 Zn386 1.938 . S
O393 C400 1.247 . S
O394 Zn386 1.906 . S
O394 C402 1.304 . S
O395 Zn383 1.924 . S
O395 C403 1.311 . S
O396 Zn387 1.977 . S
O396 C402 1.272 . S
O397 Zn387 1.910 . S
O397 C403 1.231 1_545 S
C398 O382 1.225 . S
C398 O404 1.298 . S
C399 O388 1.226 . S
C399 O389 1.307 . S
C400 O392 1.303 . S
C400 O393 1.247 . S
C401 O390 1.253 . S
C401 O391 1.283 1_565 S
C402 O394 1.304 . S
C402 O396 1.272 . S
C403 O395 1.311 . S
C403 O397 1.231 1_565 S
O404 Zn386 1.953 1_565 S
O404 C398 1.298 . S
O405 Zn406 1.953 . S
O405 C421 1.225 . S
Zn406 O405 1.953 . S
Zn406 O407 1.949 . S
Zn406 O413 1.919 . S
Zn406 O418 1.924 . S
O407 Zn406 1.949 . S
O407 Zn408 1.923 . S
O407 Zn409 1.950 . S
O407 Zn410 1.945 . S
Zn408 O407 1.923 . S
Zn408 O411 1.933 . S
Zn408 O414 1.941 . S
Zn408 O415 1.965 . S
Zn409 O407 1.950 . S
Zn409 O416 1.938 . S
Zn409 O417 1.906 . S
Zn409 O427 1.953 . S
Zn410 O407 1.945 . S
Zn410 O412 1.932 . S
Zn410 O419 1.977 . S
Zn410 O420 1.910 . S
O411 Zn408 1.933 . S
O411 C422 1.226 . S
O412 Zn410 1.932 . S
O412 C422 1.307 . S
O413 Zn406 1.919 . S
O413 C424 1.253 . S
O414 Zn408 1.941 . S
O414 C424 1.283 . S
O415 Zn408 1.965 . S
O415 C423 1.303 . S
O416 Zn409 1.938 . S
O416 C423 1.247 . S
O417 Zn409 1.906 . S
O417 C425 1.304 . S
O418 Zn406 1.924 . S
O418 C426 1.311 . S
O419 Zn410 1.977 . S
O419 C425 1.272 . S
O420 Zn410 1.910 . S
O420 C426 1.231 . S
C421 O405 1.225 . S
C421 O427 1.298 . S
C422 O411 1.226 . S
C422 O412 1.307 . S
C423 O415 1.303 . S
C423 O416 1.247 . S
C424 O413 1.253 . S
C424 O414 1.283 . S
C425 O417 1.304 . S
C425 O419 1.272 . S
C426 O418 1.311 . S
C426 O420 1.231 . S
O427 Zn409 1.953 . S
O427 C421 1.298 . S
O428 Zn429 1.953 . S
O428 C444 1.225 . S
Zn429 O428 1.953 . S
Zn429 O430 1.949 . S
Zn429 O436 1.919 1_445 S
Zn429 O441 1.924 1_455 S
O430 Zn429 1.949 . S
O430 Zn431 1.923 1_545 S
O430 Zn432 1.950 . S
O430 Zn433 1.945 1_455 S
Zn431 O430 1.923 1_565 S
Zn431 O434 1.933 . S
Zn431 O437 1.941 . S
Zn431 O438 1.965 . S
Zn432 O430 1.950 . S
Zn432 O439 1.938 . S
Zn432 O440 1.906 . S
Zn432 O450 1.953 . S
Zn433 O430 1.945 1_655 S
Zn433 O435 1.932 . S
Zn433 O442 1.977 1_655 S
Zn433 O443 1.910 . S
O434 Zn431 1.933 . S
O434 C445 1.226 1_455 S
O435 Zn433 1.932 . S
O435 C445 1.307 1_545 S
O436 Zn429 1.919 1_665 S
O436 C447 1.253 1_655 S
O437 Zn431 1.941 . S
O437 C447 1.283 . S
O438 Zn431 1.965 . S
O438 C446 1.303 . S
O439 Zn432 1.938 . S
O439 C446 1.247 1_545 S
O440 Zn432 1.906 . S
O440 C448 1.304 . S
O441 Zn429 1.924 1_655 S
O441 C449 1.311 . S
O442 Zn433 1.977 1_455 S
O442 C448 1.272 . S
O443 Zn433 1.910 . S
O443 C449 1.231 . S
C444 O428 1.225 . S
C444 O450 1.298 . S
C445 O434 1.226 1_655 S
C445 O435 1.307 1_565 S
C446 O438 1.303 . S
C446 O439 1.247 1_565 S
C447 O436 1.253 1_455 S
C447 O437 1.283 . S
C448 O440 1.304 . S
C448 O442 1.272 . S
C449 O441 1.311 . S
C449 O443 1.231 . S
O450 Zn432 1.953 . S
O450 C444 1.298 . S
O451 Zn452 1.953 . S
O451 C467 1.225 . S
Zn452 O451 1.953 . S
Zn452 O453 1.949 . S
Zn452 O459 1.919 . S
Zn452 O464 1.924 . S
O453 Zn452 1.949 . S
O453 Zn454 1.923 . S
O453 Zn455 1.950 . S
O453 Zn456 1.945 . S
Zn454 O453 1.923 . S
Zn454 O457 1.933 . S
Zn454 O460 1.941 . S
Zn454 O461 1.965 . S
Zn455 O453 1.950 . S
Zn455 O462 1.938 . S
Zn455 O463 1.906 . S
Zn455 O473 1.953 . S
Zn456 O453 1.945 . S
Zn456 O458 1.932 . S
Zn456 O465 1.977 . S
Zn456 O466 1.910 . S
O457 Zn454 1.933 . S
O457 C468 1.226 . S
O458 Zn456 1.932 . S
O458 C468 1.307 . S
O459 Zn452 1.919 . S
O459 C470 1.253 . S
O460 Zn454 1.941 . S
O460 C470 1.283 . S
O461 Zn454 1.965 . S
O461 C469 1.303 . S
O462 Zn455 1.938 . S
O462 C469 1.247 . S
O463 Zn455 1.906 . S
O463 C471 1.304 . S
O464 Zn452 1.924 . S
O464 C472 1.311 . S
O465 Zn456 1.977 . S
O465 C471 1.272 . S
O466 Zn456 1.910 . S
O466 C472 1.231 . S
C467 O451 1.225 . S
C467 O473 1.298 . S
C468 O457 1.226 . S
C468 O458 1.307 . S
C469 O461 1.303 . S
C469 O462 1.247 . S
C470 O459 1.253 . S
C470 O460 1.283 . S
C471 O463 1.304 . S
C471 O465 1.272 . S
C472 O464 1.311 . S
C472 O466 1.231 . S
O473 Zn455 1.953 . S
O473 C467 1.298 . S
O474 Zn475 1.953 . S
O474 C490 1.225 . S
Zn475 O474 1.953 . S
Zn475 O476 1.949 . S
Zn475 O482 1.910 1_545 S
Zn475 O487 1.924 . S
O476 Zn475 1.949 . S
O476 Zn477 1.924 1_545 S
O476 Zn478 1.950 . S
O476 Zn479 1.945 1_554 S
Zn477 O476 1.924 1_565 S
Zn477 O480 1.932 1_554 S
Zn477 O483 1.941 1_554 S
Zn477 O484 1.966 . S
Zn478 O476 1.950 . S
Zn478 O485 1.938 1_545 S
Zn478 O486 1.906 . S
Zn478 O496 1.953 . S
Zn479 O476 1.945 1_556 S
Zn479 O481 1.932 . S
Zn479 O488 1.977 1_556 S
Zn479 O489 1.910 . S
O480 Zn477 1.932 1_556 S
O480 C491 1.226 . S
O481 Zn479 1.932 . S
O481 C491 1.307 1_545 S
O482 Zn475 1.910 1_565 S
O482 C493 1.267 1_554 S
O483 Zn477 1.941 1_556 S
O483 C493 1.283 . S
O484 Zn477 1.966 . S
O484 C492 1.303 . S
O485 Zn478 1.938 1_565 S
O485 C492 1.247 . S
O486 Zn478 1.906 . S
O486 C494 1.304 . S
O487 Zn475 1.924 . S
O487 C495 1.311 . S
O488 Zn479 1.977 1_554 S
O488 C494 1.272 . S
O489 Zn479 1.910 . S
O489 C495 1.231 1_556 S
C490 O474 1.225 . S
C490 O496 1.298 . S
C491 O480 1.226 . S
C491 O481 1.307 1_565 S
C492 O484 1.303 . S
C492 O485 1.247 . S
C493 O482 1.267 1_556 S
C493 O483 1.283 . S
C494 O486 1.304 . S
C494 O488 1.272 . S
C495 O487 1.311 . S
C495 O489 1.231 1_554 S
O496 Zn478 1.953 . S
O496 C490 1.298 . S
O497 Zn498 1.953 . S
O497 C513 1.225 . S
Zn498 O497 1.953 . S
Zn498 O499 1.949 . S
Zn498 O505 1.919 . S
Zn498 O510 1.924 . S
O499 Zn498 1.949 . S
O499 Zn500 1.923 . S
O499 Zn501 1.950 . S
O499 Zn502 1.945 . S
Zn500 O499 1.923 . S
Zn500 O503 1.933 . S
Zn500 O506 1.941 . S
Zn500 O507 1.965 . S
Zn501 O499 1.950 . S
Zn501 O508 1.938 . S
Zn501 O509 1.906 . S
Zn501 O519 1.953 . S
Zn502 O499 1.945 . S
Zn502 O504 1.932 . S
Zn502 O511 1.977 . S
Zn502 O512 1.910 . S
O503 Zn500 1.933 . S
O503 C514 1.226 . S
O504 Zn502 1.932 . S
O504 C514 1.307 . S
O505 Zn498 1.919 . S
O505 C516 1.253 . S
O506 Zn500 1.941 . S
O506 C516 1.283 . S
O507 Zn500 1.965 . S
O507 C515 1.303 . S
O508 Zn501 1.938 . S
O508 C515 1.247 . S
O509 Zn501 1.906 . S
O509 C517 1.304 . S
O510 Zn498 1.924 . S
O510 C518 1.311 . S
O511 Zn502 1.977 . S
O511 C517 1.272 . S
O512 Zn502 1.910 . S
O512 C518 1.231 . S
C513 O497 1.225 . S
C513 O519 1.298 . S
C514 O503 1.226 . S
C514 O504 1.307 . S
C515 O507 1.303 . S
C515 O508 1.247 . S
C516 O505 1.253 . S
C516 O506 1.283 . S
C517 O509 1.304 . S
C517 O511 1.272 . S
C518 O510 1.311 . S
C518 O512 1.231 . S
O519 Zn501 1.953 . S
O519 C513 1.298 . S
O520 Zn521 1.953 . S
O520 C536 1.225 . S
Zn521 O520 1.953 . S
Zn521 O522 1.949 1_556 S
Zn521 O528 1.919 . S
Zn521 O533 1.924 . S
O522 Zn521 1.949 1_554 S
O522 Zn523 1.923 . S
O522 Zn524 1.950 . S
O522 Zn525 1.945 . S
Zn523 O522 1.923 . S
Zn523 O526 1.933 . S
Zn523 O529 1.941 . S
Zn523 O530 1.965 . S
Zn524 O522 1.950 . S
Zn524 O531 1.938 . S
Zn524 O532 1.906 . S
Zn524 O542 1.953 1_554 S
Zn525 O522 1.945 . S
Zn525 O527 1.932 . S
Zn525 O534 1.977 . S
Zn525 O535 1.910 . S
O526 Zn523 1.933 . S
O526 C537 1.226 . S
O527 Zn525 1.932 . S
O527 C537 1.307 . S
O528 Zn521 1.919 . S
O528 C539 1.253 . S
O529 Zn523 1.941 . S
O529 C539 1.283 1_554 S
O530 Zn523 1.965 . S
O530 C538 1.303 . S
O531 Zn524 1.938 . S
O531 C538 1.247 . S
O532 Zn524 1.906 . S
O532 C540 1.304 . S
O533 Zn521 1.924 . S
O533 C541 1.311 . S
O534 Zn525 1.977 . S
O534 C540 1.272 . S
O535 Zn525 1.910 . S
O535 C541 1.231 1_554 S
C536 O520 1.225 . S
C536 O542 1.298 . S
C537 O526 1.226 . S
C537 O527 1.307 . S
C538 O530 1.303 . S
C538 O531 1.247 . S
C539 O528 1.253 . S
C539 O529 1.283 1_556 S
C540 O532 1.304 . S
C540 O534 1.272 . S
C541 O533 1.311 . S
C541 O535 1.231 1_556 S
O542 Zn524 1.953 1_556 S
O542 C536 1.298 . S
O543 Zn544 1.953 . S
O543 C559 1.225 . S
Zn544 O543 1.953 . S
Zn544 O545 1.949 . S
Zn544 O551 1.919 . S
Zn544 O556 1.924 . S
O545 Zn544 1.949 . S
O545 Zn546 1.923 . S
O545 Zn547 1.950 . S
O545 Zn548 1.945 . S
Zn546 O545 1.923 . S
Zn546 O549 1.933 . S
Zn546 O552 1.941 . S
Zn546 O553 1.965 . S
Zn547 O545 1.950 . S
Zn547 O554 1.938 . S
Zn547 O555 1.906 . S
Zn547 O565 1.953 . S
Zn548 O545 1.945 . S
Zn548 O550 1.932 . S
Zn548 O557 1.977 . S
Zn548 O558 1.910 . S
O549 Zn546 1.933 . S
O549 C560 1.226 . S
O550 Zn548 1.932 . S
O550 C560 1.307 . S
O551 Zn544 1.919 . S
O551 C562 1.253 . S
O552 Zn546 1.941 . S
O552 C562 1.283 . S
O553 Zn546 1.965 . S
O553 C561 1.303 . S
O554 Zn547 1.938 . S
O554 C561 1.247 . S
O555 Zn547 1.906 . S
O555 C563 1.304 . S
O556 Zn544 1.924 . S
O556 C564 1.311 . S
O557 Zn548 1.977 . S
O557 C563 1.272 . S
O558 Zn548 1.910 . S
O558 C564 1.231 . S
C559 O543 1.225 . S
C559 O565 1.298 . S
C560 O549 1.226 . S
C560 O550 1.307 . S
C561 O553 1.303 . S
C561 O554 1.247 . S
C562 O551 1.253 . S
C562 O552 1.283 . S
C563 O555 1.304 . S
C563 O557 1.272 . S
C564 O556 1.311 . S
C564 O558 1.231 . S
O565 Zn547 1.953 . S
O565 C559 1.298 . S
O566 Zn567 1.953 . S
O566 C582 1.225 . S
Zn567 O566 1.953 . S
Zn567 O568 1.934 1_455 S
Zn567 O574 1.919 . S
Zn567 O579 1.924 . S
O568 Zn567 1.934 1_655 S
O568 Zn569 1.921 1_655 S
O568 Zn570 1.958 . S
O568 Zn571 1.952 . S
Zn569 O568 1.921 1_455 S
Zn569 O572 1.924 1_455 S
Zn569 O575 1.964 . S
Zn569 O576 1.958 1_455 S
Zn570 O568 1.958 . S
Zn570 O577 1.938 . S
Zn570 O578 1.906 . S
Zn570 O588 1.950 1_655 S
Zn571 O568 1.952 . S
Zn571 O573 1.932 . S
Zn571 O580 1.977 . S
Zn571 O581 1.901 1_655 S
O572 Zn569 1.924 1_655 S
O572 C583 1.226 . S
O573 Zn571 1.932 . S
O573 C583 1.307 . S
O574 Zn567 1.919 . S
O574 C585 1.253 . S
O575 Zn569 1.964 . S
O575 C585 1.283 . S
O576 Zn569 1.958 1_655 S
O576 C584 1.303 . S
O577 Zn570 1.938 . S
O577 C584 1.247 . S
O578 Zn570 1.906 . S
O578 C586 1.304 . S
O579 Zn567 1.924 . S
O579 C587 1.311 . S
O580 Zn571 1.977 . S
O580 C586 1.272 . S
O581 Zn571 1.901 1_455 S
O581 C587 1.248 . S
C582 O566 1.225 . S
C582 O588 1.305 . S
C583 O572 1.226 . S
C583 O573 1.307 . S
C584 O576 1.303 . S
C584 O577 1.247 . S
C585 O574 1.253 . S
C585 O575 1.283 . S
C586 O578 1.304 . S
C586 O580 1.272 . S
C587 O579 1.311 . S
C587 O581 1.248 . S
O588 Zn570 1.950 1_455 S
O588 C582 1.305 . S
O589 Zn590 1.953 . S
O589 C605 1.225 . S
Zn590 O589 1.953 . S
Zn590 O591 1.949 . S
Zn590 O597 1.919 . S
Zn590 O602 1.924 . S
O591 Zn590 1.949 . S
O591 Zn592 1.923 . S
O591 Zn593 1.950 . S
O591 Zn594 1.945 . S
Zn592 O591 1.923 . S
Zn592 O595 1.933 . S
Zn592 O598 1.941 . S
Zn592 O599 1.965 . S
Zn593 O591 1.950 . S
Zn593 O600 1.938 . S
Zn593 O601 1.906 . S
Zn593 O611 1.953 . S
Zn594 O591 1.945 . S
Zn594 O596 1.932 . S
Zn594 O603 1.977 . S
Zn594 O604 1.910 . S
O595 Zn592 1.933 . S
O595 C606 1.226 . S
O596 Zn594 1.932 . S
O596 C606 1.307 . S
O597 Zn590 1.919 . S
O597 C608 1.253 . S
O598 Zn592 1.941 . S
O598 C608 1.283 . S
O599 Zn592 1.965 . S
O599 C607 1.303 . S
O600 Zn593 1.938 . S
O600 C607 1.247 . S
O601 Zn593 1.906 . S
O601 C609 1.304 . S
O602 Zn590 1.924 . S
O602 C610 1.311 . S
O603 Zn594 1.977 . S
O603 C609 1.272 . S
O604 Zn594 1.910 . S
O604 C610 1.231 . S
C605 O589 1.225 . S
C605 O611 1.298 . S
C606 O595 1.226 . S
C606 O596 1.307 . S
C607 O599 1.303 . S
C607 O600 1.247 . S
C608 O597 1.253 . S
C608 O598 1.283 . S
C609 O601 1.304 . S
C609 O603 1.272 . S
C610 O602 1.311 . S
C610 O604 1.231 . S
O611 Zn593 1.953 . S
O611 C605 1.298 . S
O612 Zn613 1.953 . S
O612 C628 1.225 . S
Zn613 O612 1.953 . S
Zn613 O614 1.949 . S
Zn613 O620 1.919 . S
Zn613 O625 1.924 . S
O614 Zn613 1.949 . S
O614 Zn615 1.923 . S
O614 Zn616 1.950 . S
O614 Zn617 1.945 . S
Zn615 O614 1.923 . S
Zn615 O618 1.933 . S
Zn615 O621 1.941 . S
Zn615 O622 1.965 . S
Zn616 O614 1.950 . S
Zn616 O623 1.938 . S
Zn616 O624 1.906 . S
Zn616 O634 1.953 . S
Zn617 O614 1.945 . S
Zn617 O619 1.932 . S
Zn617 O626 1.977 . S
Zn617 O627 1.910 . S
O618 Zn615 1.933 . S
O618 C629 1.226 . S
O619 Zn617 1.932 . S
O619 C629 1.307 . S
O620 Zn613 1.919 . S
O620 C631 1.253 . S
O621 Zn615 1.941 . S
O621 C631 1.283 . S
O622 Zn615 1.965 . S
O622 C630 1.303 . S
O623 Zn616 1.938 . S
O623 C630 1.247 . S
O624 Zn616 1.906 . S
O624 C632 1.304 . S
O625 Zn613 1.924 . S
O625 C633 1.311 . S
O626 Zn617 1.977 . S
O626 C632 1.272 . S
O627 Zn617 1.910 . S
O627 C633 1.231 . S
C628 O612 1.225 . S
C628 O634 1.298 . S
C629 O618 1.226 . S
C629 O619 1.307 . S
C630 O622 1.303 . S
C630 O623 1.247 . S
C631 O620 1.253 . S
C631 O621 1.283 . S
C632 O624 1.304 . S
C632 O626 1.272 . S
C633 O625 1.311 . S
C633 O627 1.231 . S
O634 Zn616 1.953 . S
O634 C628 1.298 . S
O635 Zn636 1.953 . S
O635 C651 1.225 . S
Zn636 O635 1.953 . S
Zn636 O637 1.949 . S
Zn636 O643 1.919 . S
Zn636 O648 1.924 . S
O637 Zn636 1.949 . S
O637 Zn638 1.923 . S
O637 Zn639 1.950 . S
O637 Zn640 1.945 . S
Zn638 O637 1.923 . S
Zn638 O641 1.933 . S
Zn638 O644 1.941 . S
Zn638 O645 1.965 . S
Zn639 O637 1.950 . S
Zn639 O646 1.938 . S
Zn639 O647 1.906 . S
Zn639 O657 1.953 . S
Zn640 O637 1.945 . S
Zn640 O642 1.932 . S
Zn640 O649 1.977 . S
Zn640 O650 1.910 . S
O641 Zn638 1.933 . S
O641 C652 1.226 . S
O642 Zn640 1.932 . S
O642 C652 1.307 . S
O643 Zn636 1.919 . S
O643 C654 1.253 . S
O644 Zn638 1.941 . S
O644 C654 1.283 . S
O645 Zn638 1.965 . S
O645 C653 1.303 . S
O646 Zn639 1.938 . S
O646 C653 1.247 . S
O647 Zn639 1.906 . S
O647 C655 1.304 . S
O648 Zn636 1.924 . S
O648 C656 1.311 . S
O649 Zn640 1.977 . S
O649 C655 1.272 . S
O650 Zn640 1.910 . S
O650 C656 1.231 . S
C651 O635 1.225 . S
C651 O657 1.298 . S
C652 O641 1.226 . S
C652 O642 1.307 . S
C653 O645 1.303 . S
C653 O646 1.247 . S
C654 O643 1.253 . S
C654 O644 1.283 . S
C655 O647 1.304 . S
C655 O649 1.272 . S
C656 O648 1.311 . S
C656 O650 1.231 . S
O657 Zn639 1.953 . S
O657 C651 1.298 . S
O658 Zn659 1.953 . S
O658 C674 1.225 . S
Zn659 O658 1.953 . S
Zn659 O660 1.949 . S
Zn659 O666 1.919 . S
Zn659 O671 1.924 . S
O660 Zn659 1.949 . S
O660 Zn661 1.923 . S
O660 Zn662 1.950 . S
O660 Zn663 1.945 . S
Zn661 O660 1.923 . S
Zn661 O664 1.933 . S
Zn661 O667 1.941 . S
Zn661 O668 1.965 . S
Zn662 O660 1.950 . S
Zn662 O669 1.938 . S
Zn662 O670 1.906 . S
Zn662 O680 1.953 . S
Zn663 O660 1.945 . S
Zn663 O665 1.932 . S
Zn663 O672 1.977 . S
Zn663 O673 1.910 . S
O664 Zn661 1.933 . S
O664 C675 1.226 . S
O665 Zn663 1.932 . S
O665 C675 1.307 . S
O666 Zn659 1.919 . S
O666 C677 1.253 . S
O667 Zn661 1.941 . S
O667 C677 1.283 . S
O668 Zn661 1.965 . S
O668 C676 1.303 . S
O669 Zn662 1.938 . S
O669 C676 1.247 . S
O670 Zn662 1.906 . S
O670 C678 1.304 . S
O671 Zn659 1.924 . S
O671 C679 1.311 . S
O672 Zn663 1.977 . S
O672 C678 1.272 . S
O673 Zn663 1.910 . S
O673 C679 1.231 . S
C674 O658 1.225 . S
C674 O680 1.298 . S
C675 O664 1.226 . S
C675 O665 1.307 . S
C676 O668 1.303 . S
C676 O669 1.247 . S
C677 O666 1.253 . S
C677 O667 1.283 . S
C678 O670 1.304 . S
C678 O672 1.272 . S
C679 O671 1.311 . S
C679 O673 1.231 . S
O680 Zn662 1.953 . S
O680 C674 1.298 . S
O681 Zn682 1.953 . S
O681 C697 1.225 . S
Zn682 O681 1.953 . S
Zn682 O683 1.949 . S
Zn682 O689 1.919 1_454 S
Zn682 O694 1.924 1_554 S
O683 Zn682 1.949 . S
O683 Zn684 1.923 1_455 S
O683 Zn685 1.950 . S
O683 Zn686 1.945 1_554 S
Zn684 O683 1.923 1_655 S
Zn684 O687 1.933 . S
Zn684 O690 1.941 . S
Zn684 O691 1.965 . S
Zn685 O683 1.950 . S
Zn685 O692 1.938 . S
Zn685 O693 1.906 . S
Zn685 O703 1.953 . S
Zn686 O683 1.945 1_556 S
Zn686 O688 1.932 . S
Zn686 O695 1.977 1_556 S
Zn686 O696 1.910 . S
O687 Zn684 1.933 . S
O687 C698 1.226 1_554 S
O688 Zn686 1.932 . S
O688 C698 1.307 1_455 S
O689 Zn682 1.919 1_656 S
O689 C700 1.253 1_556 S
O690 Zn684 1.941 . S
O690 C700 1.283 . S
O691 Zn684 1.965 . S
O691 C699 1.303 . S
O692 Zn685 1.938 . S
O692 C699 1.247 1_455 S
O693 Zn685 1.906 . S
O693 C701 1.304 . S
O694 Zn682 1.924 1_556 S
O694 C702 1.311 . S
O695 Zn686 1.977 1_554 S
O695 C701 1.272 . S
O696 Zn686 1.910 . S
O696 C702 1.231 . S
C697 O681 1.225 . S
C697 O703 1.298 . S
C698 O687 1.226 1_556 S
C698 O688 1.307 1_655 S
C699 O691 1.303 . S
C699 O692 1.247 1_655 S
C700 O689 1.253 1_554 S
C700 O690 1.283 . S
C701 O693 1.304 . S
C701 O695 1.272 . S
C702 O694 1.311 . S
C702 O696 1.231 . S
O703 Zn685 1.953 . S
O703 C697 1.298 . S
H704 C710 0.930 . S
H705 C714 0.930 . S
H706 C719 0.929 . S
H707 C717 0.929 . S
H708 C712 0.929 . S
H709 C718 0.929 . S
C710 H704 0.930 . S
C710 C711 1.367 1_655 S
C710 C718 1.378 . S
C711 C710 1.367 1_455 S
C711 C719 1.433 . S
C712 H708 0.929 . S
C712 C714 1.378 . S
C712 C716 1.350 1_455 S
C713 C716 1.462 1_455 S
C713 C718 1.350 1_455 S
C713 N721 1.428 . S
C714 H705 0.930 . S
C714 C712 1.378 . S
C714 C715 1.367 1_455 S
C715 C714 1.367 1_655 S
C715 C717 1.433 . S
C716 C712 1.350 1_655 S
C716 C713 1.462 1_655 S
C716 N720 1.427 . S
C717 H707 0.929 . S
C717 C715 1.433 . S
C717 N720 1.384 . S
C718 H709 0.929 . S
C718 C710 1.378 . S
C718 C713 1.350 1_655 S
C719 H706 0.929 . S
C719 C711 1.433 . S
C719 N721 1.384 . S
N720 C716 1.427 . S
N720 C717 1.384 . S
N721 C713 1.428 . S
N721 C719 1.384 . S
H722 C728 0.930 . S
H723 C732 0.930 . S
H724 C737 0.929 . S
H725 C735 0.929 . S
H726 C730 0.929 . S
H727 C736 0.929 . S
C728 H722 0.930 . S
C728 C729 1.367 . S
C728 C736 1.378 . S
C729 C728 1.367 . S
C729 C737 1.433 . S
C730 H726 0.929 . S
C730 C732 1.378 . S
C730 C734 1.350 . S
C731 C734 1.463 . S
C731 C736 1.350 . S
C731 N739 1.427 . S
C732 H723 0.930 . S
C732 C730 1.378 . S
C732 C733 1.367 . S
C733 C732 1.367 . S
C733 C735 1.433 . S
C734 C730 1.350 . S
C734 C731 1.463 . S
C734 N738 1.427 . S
C735 H725 0.929 . S
C735 C733 1.433 . S
C735 N738 1.384 . S
C736 H727 0.929 . S
C736 C728 1.378 . S
C736 C731 1.350 . S
C737 H724 0.929 . S
C737 C729 1.433 . S
C737 N739 1.384 . S
N738 C734 1.427 . S
N738 C735 1.384 . S
N739 C731 1.427 . S
N739 C737 1.384 . S
H740 C746 0.930 . S
H741 C750 0.930 . S
H742 C755 0.929 . S
H743 C753 0.929 . S
H744 C748 0.929 . S
H745 C754 0.929 . S
C746 H740 0.930 . S
C746 C747 1.367 . S
C746 C754 1.378 . S
C747 C746 1.367 . S
C747 C755 1.433 . S
C748 H744 0.929 . S
C748 C750 1.378 . S
C748 C752 1.350 . S
C749 C752 1.463 . S
C749 C754 1.350 . S
C749 N757 1.427 . S
C750 H741 0.930 . S
C750 C748 1.378 . S
C750 C751 1.367 . S
C751 C750 1.367 . S
C751 C753 1.433 . S
C752 C748 1.350 . S
C752 C749 1.463 . S
C752 N756 1.427 . S
C753 H743 0.929 . S
C753 C751 1.433 . S
C753 N756 1.384 . S
C754 H745 0.929 . S
C754 C746 1.378 . S
C754 C749 1.350 . S
C755 H742 0.929 . S
C755 C747 1.433 . S
C755 N757 1.384 . S
N756 C752 1.427 . S
N756 C753 1.384 . S
N757 C749 1.427 . S
N757 C755 1.384 . S
H758 C764 0.930 . S
H759 C768 0.930 . S
H760 C773 0.929 . S
H761 C771 0.929 . S
H762 C766 0.929 . S
H763 C772 0.929 . S
C764 H758 0.930 . S
C764 C765 1.367 . S
C764 C772 1.378 . S
C765 C764 1.367 . S
C765 C773 1.433 . S
C766 H762 0.929 . S
C766 C768 1.378 . S
C766 C770 1.350 . S
C767 C770 1.463 . S
C767 C772 1.350 . S
C767 N775 1.427 . S
C768 H759 0.930 . S
C768 C766 1.378 . S
C768 C769 1.367 . S
C769 C768 1.367 . S
C769 C771 1.433 . S
C770 C766 1.350 . S
C770 C767 1.463 . S
C770 N774 1.427 . S
C771 H761 0.929 . S
C771 C769 1.433 . S
C771 N774 1.384 . S
C772 H763 0.929 . S
C772 C764 1.378 . S
C772 C767 1.350 . S
C773 H760 0.929 . S
C773 C765 1.433 . S
C773 N775 1.384 . S
N774 C770 1.427 . S
N774 C771 1.384 . S
N775 C767 1.427 . S
N775 C773 1.384 . S
H776 C782 0.930 . S
H777 C786 0.930 . S
H778 C791 0.929 . S
H779 C789 0.929 . S
H780 C784 0.929 . S
H781 C790 0.929 . S
C782 H776 0.930 . S
C782 C783 1.367 1_655 S
C782 C790 1.378 . S
C783 C782 1.367 1_455 S
C783 C791 1.433 . S
C784 H780 0.929 . S
C784 C786 1.378 . S
C784 C788 1.350 . S
C785 C788 1.463 . S
C785 C790 1.350 1_455 S
C785 N793 1.427 . S
C786 H777 0.930 . S
C786 C784 1.378 . S
C786 C787 1.367 1_455 S
C787 C786 1.367 1_655 S
C787 C789 1.433 . S
C788 C784 1.350 . S
C788 C785 1.463 . S
C788 N792 1.427 1_455 S
C789 H779 0.929 . S
C789 C787 1.433 . S
C789 N792 1.384 . S
C790 H781 0.929 . S
C790 C782 1.378 . S
C790 C785 1.350 1_655 S
C791 H778 0.929 . S
C791 C783 1.433 . S
C791 N793 1.384 . S
N792 C788 1.427 1_655 S
N792 C789 1.384 . S
N793 C785 1.427 . S
N793 C791 1.384 . S
H794 C800 0.930 . S
H795 C804 0.930 . S
H796 C809 0.929 . S
H797 C807 0.929 . S
H798 C802 0.929 . S
H799 C808 0.929 . S
C800 H794 0.930 . S
C800 C801 1.367 . S
C800 C808 1.378 . S
C801 C800 1.367 . S
C801 C809 1.433 . S
C802 H798 0.929 . S
C802 C804 1.378 . S
C802 C806 1.350 . S
C803 C806 1.463 . S
C803 C808 1.350 . S
C803 N811 1.427 . S
C804 H795 0.930 . S
C804 C802 1.378 . S
C804 C805 1.367 . S
C805 C804 1.367 . S
C805 C807 1.433 . S
C806 C802 1.350 . S
C806 C803 1.463 . S
C806 N810 1.427 . S
C807 H797 0.929 . S
C807 C805 1.433 . S
C807 N810 1.384 . S
C808 H799 0.929 . S
C808 C800 1.378 . S
C808 C803 1.350 . S
C809 H796 0.929 . S
C809 C801 1.433 . S
C809 N811 1.384 . S
N810 C806 1.427 . S
N810 C807 1.384 . S
N811 C803 1.427 . S
N811 C809 1.384 . S
H812 C818 0.930 . S
H813 C822 0.930 . S
H814 C827 0.929 . S
H815 C825 0.929 . S
H816 C820 0.929 . S
H817 C826 0.929 . S
C818 H812 0.930 . S
C818 C819 1.367 . S
C818 C826 1.378 . S
C819 C818 1.367 . S
C819 C827 1.433 . S
C820 H816 0.929 . S
C820 C822 1.378 . S
C820 C824 1.350 . S
C821 C824 1.463 . S
C821 C826 1.350 . S
C821 N829 1.427 . S
C822 H813 0.930 . S
C822 C820 1.378 . S
C822 C823 1.367 . S
C823 C822 1.367 . S
C823 C825 1.433 1_556 S
C824 C820 1.350 . S
C824 C821 1.463 . S
C824 N828 1.427 . S
C825 H815 0.929 . S
C825 C823 1.433 1_554 S
C825 N828 1.384 1_554 S
C826 H817 0.929 . S
C826 C818 1.378 . S
C826 C821 1.350 . S
C827 H814 0.929 . S
C827 C819 1.433 . S
C827 N829 1.384 . S
N828 C824 1.427 . S
N828 C825 1.384 1_556 S
N829 C821 1.427 . S
N829 C827 1.384 . S
H830 C836 0.930 . S
H831 C840 0.930 . S
H832 C845 0.929 . S
H833 C843 0.929 . S
H834 C838 0.929 . S
H835 C844 0.929 . S
C836 H830 0.930 . S
C836 C837 1.367 . S
C836 C844 1.378 . S
C837 C836 1.367 . S
C837 C845 1.433 . S
C838 H834 0.929 . S
C838 C840 1.378 . S
C838 C842 1.350 . S
C839 C842 1.463 . S
C839 C844 1.350 . S
C839 N847 1.427 . S
C840 H831 0.930 . S
C840 C838 1.378 . S
C840 C841 1.367 . S
C841 C840 1.367 . S
C841 C843 1.433 . S
C842 C838 1.350 . S
C842 C839 1.463 . S
C842 N846 1.427 . S
C843 H833 0.929 . S
C843 C841 1.433 . S
C843 N846 1.384 . S
C844 H835 0.929 . S
C844 C836 1.378 . S
C844 C839 1.350 . S
C845 H832 0.929 . S
C845 C837 1.433 . S
C845 N847 1.384 . S
N846 C842 1.427 . S
N846 C843 1.384 . S
N847 C839 1.427 . S
N847 C845 1.384 . S
H848 C854 0.930 . S
H849 C858 0.930 . S
H850 C863 0.929 . S
H851 C861 0.929 . S
H852 C856 0.929 . S
H853 C862 0.929 . S
C854 H848 0.930 . S
C854 C855 1.367 1_565 S
C854 C862 1.378 . S
C855 C854 1.367 1_545 S
C855 C863 1.433 . S
C856 H852 0.929 . S
C856 C858 1.378 . S
C856 C860 1.350 . S
C857 C860 1.463 . S
C857 C862 1.350 1_545 S
C857 N865 1.427 . S
C858 H849 0.930 . S
C858 C856 1.378 . S
C858 C859 1.367 . S
C859 C858 1.367 . S
C859 C861 1.433 1_545 S
C860 C856 1.350 . S
C860 C857 1.463 . S
C860 N864 1.427 1_545 S
C861 H851 0.929 . S
C861 C859 1.433 1_565 S
C861 N864 1.384 . S
C862 H853 0.929 . S
C862 C854 1.378 . S
C862 C857 1.350 1_565 S
C863 H850 0.929 . S
C863 C855 1.433 . S
C863 N865 1.384 . S
N864 C860 1.427 1_565 S
N864 C861 1.384 . S
N865 C857 1.427 . S
N865 C863 1.384 . S
H866 C872 0.930 . S
H867 C876 0.930 . S
H868 C881 0.929 . S
H869 C879 0.929 . S
H870 C874 0.929 . S
H871 C880 0.929 . S
C872 H866 0.930 . S
C872 C873 1.367 . S
C872 C880 1.378 . S
C873 C872 1.367 . S
C873 C881 1.433 . S
C874 H870 0.929 . S
C874 C876 1.378 . S
C874 C878 1.350 . S
C875 C878 1.463 . S
C875 C880 1.350 . S
C875 N883 1.427 . S
C876 H867 0.930 . S
C876 C874 1.378 . S
C876 C877 1.367 . S
C877 C876 1.367 . S
C877 C879 1.433 . S
C878 C874 1.350 . S
C878 C875 1.463 . S
C878 N882 1.427 . S
C879 H869 0.929 . S
C879 C877 1.433 . S
C879 N882 1.384 . S
C880 H871 0.929 . S
C880 C872 1.378 . S
C880 C875 1.350 . S
C881 H868 0.929 . S
C881 C873 1.433 . S
C881 N883 1.384 . S
N882 C878 1.427 . S
N882 C879 1.384 . S
N883 C875 1.427 . S
N883 C881 1.384 . S
H884 C890 0.930 . S
H885 C894 0.930 . S
H886 C899 0.929 . S
H887 C897 0.929 . S
H888 C892 0.929 . S
H889 C898 0.929 . S
C890 H884 0.930 . S
C890 C891 1.367 . S
C890 C898 1.378 . S
C891 C890 1.367 . S
C891 C899 1.433 1_565 S
C892 H888 0.929 . S
C892 C894 1.378 . S
C892 C896 1.350 . S
C893 C896 1.463 . S
C893 C898 1.350 1_545 S
C893 N901 1.427 . S
C894 H885 0.930 . S
C894 C892 1.378 . S
C894 C895 1.367 . S
C895 C894 1.367 . S
C895 C897 1.433 1_545 S
C896 C892 1.350 . S
C896 C893 1.463 . S
C896 N900 1.427 1_545 S
C897 H887 0.929 . S
C897 C895 1.433 1_565 S
C897 N900 1.384 . S
C898 H889 0.929 . S
C898 C890 1.378 . S
C898 C893 1.350 1_565 S
C899 H886 0.929 . S
C899 C891 1.433 1_545 S
C899 N901 1.384 . S
N900 C896 1.427 1_565 S
N900 C897 1.384 . S
N901 C893 1.427 . S
N901 C899 1.384 . S
H902 C908 0.930 . S
H903 C912 0.930 . S
H904 C917 0.929 . S
H905 C915 0.929 . S
H906 C910 0.929 . S
H907 C916 0.929 . S
C908 H902 0.930 . S
C908 C909 1.367 . S
C908 C916 1.378 . S
C909 C908 1.367 . S
C909 C917 1.433 . S
C910 H906 0.929 . S
C910 C912 1.378 . S
C910 C914 1.350 . S
C911 C914 1.463 . S
C911 C916 1.350 . S
C911 N919 1.427 . S
C912 H903 0.930 . S
C912 C910 1.378 . S
C912 C913 1.367 . S
C913 C912 1.367 . S
C913 C915 1.433 . S
C914 C910 1.350 . S
C914 C911 1.463 . S
C914 N918 1.427 . S
C915 H905 0.929 . S
C915 C913 1.433 . S
C915 N918 1.384 . S
C916 H907 0.929 . S
C916 C908 1.378 . S
C916 C911 1.350 . S
C917 H904 0.929 . S
C917 C909 1.433 . S
C917 N919 1.384 . S
N918 C914 1.427 . S
N918 C915 1.384 . S
N919 C911 1.427 . S
N919 C917 1.384 . S
H920 C926 0.930 1_565 S
H921 C930 0.930 . S
H922 C935 0.929 . S
H923 C933 0.942 . S
H924 C928 0.929 . S
H925 C934 0.929 1_565 S
C926 H920 0.930 1_545 S
C926 C927 1.367 . S
C926 C934 1.378 . S
C927 C926 1.367 . S
C927 C935 1.433 . S
C928 H924 0.929 . S
C928 C930 1.378 . S
C928 C932 1.350 . S
C929 C932 1.463 . S
C929 C934 1.350 . S
C929 N937 1.427 . S
C930 H921 0.930 . S
C930 C928 1.378 . S
C930 C931 1.367 . S
C931 C930 1.367 . S
C931 C933 1.433 . S
C932 C928 1.350 . S
C932 C929 1.463 . S
C932 N936 1.427 . S
C933 H923 0.942 . S
C933 C931 1.433 . S
C933 N936 1.384 . S
C934 H925 0.929 1_545 S
C934 C926 1.378 . S
C934 C929 1.350 . S
C935 H922 0.929 . S
C935 C927 1.433 . S
C935 N937 1.384 . S
N936 C932 1.427 . S
N936 C933 1.384 . S
N937 C929 1.427 . S
N937 C935 1.384 . S
H938 C944 0.930 . S
H939 C948 0.930 . S
H940 C953 0.929 . S
H941 C951 0.929 . S
H942 C946 0.929 . S
H943 C952 0.929 . S
C944 H938 0.930 . S
C944 C945 1.367 . S
C944 C952 1.378 . S
C945 C944 1.367 . S
C945 C953 1.433 . S
C946 H942 0.929 . S
C946 C948 1.378 . S
C946 C950 1.350 . S
C947 C950 1.463 . S
C947 C952 1.350 . S
C947 N955 1.427 . S
C948 H939 0.930 . S
C948 C946 1.378 . S
C948 C949 1.367 . S
C949 C948 1.367 . S
C949 C951 1.433 . S
C950 C946 1.350 . S
C950 C947 1.463 . S
C950 N954 1.427 . S
C951 H941 0.929 . S
C951 C949 1.433 . S
C951 N954 1.384 . S
C952 H943 0.929 . S
C952 C944 1.378 . S
C952 C947 1.350 . S
C953 H940 0.929 . S
C953 C945 1.433 . S
C953 N955 1.384 . S
N954 C950 1.427 . S
N954 C951 1.384 . S
N955 C947 1.427 . S
N955 C953 1.384 . S
H956 C962 0.930 . S
H957 C966 0.930 . S
H958 C971 0.929 . S
H959 C969 0.929 1_545 S
H960 C964 0.929 . S
H961 C970 0.929 . S
C962 H956 0.930 . S
C962 C963 1.367 1_545 S
C962 C970 1.378 . S
C963 C962 1.367 1_565 S
C963 C971 1.433 . S
C964 H960 0.929 . S
C964 C966 1.378 . S
C964 C968 1.350 . S
C965 C968 1.463 . S
C965 C970 1.350 1_565 S
C965 N973 1.427 . S
C966 H957 0.930 . S
C966 C964 1.378 . S
C966 C967 1.367 . S
C967 C966 1.367 . S
C967 C969 1.433 . S
C968 C964 1.350 . S
C968 C965 1.463 . S
C968 N972 1.415 1_565 S
C969 H959 0.929 1_565 S
C969 C967 1.433 . S
C969 N972 1.380 1_565 S
C970 H961 0.929 . S
C970 C962 1.378 . S
C970 C965 1.350 1_545 S
C971 H958 0.929 . S
C971 C963 1.433 . S
C971 N973 1.384 . S
N972 C968 1.415 1_545 S
N972 C969 1.380 1_545 S
N973 C965 1.427 . S
N973 C971 1.384 . S
H974 C980 0.930 . S
H975 C984 0.930 . S
H976 C989 0.929 . S
H977 C987 0.929 . S
H978 C982 0.929 . S
H979 C988 0.929 . S
C980 H974 0.930 . S
C980 C981 1.367 . S
C980 C988 1.378 . S
C981 C980 1.367 . S
C981 C989 1.433 . S
C982 H978 0.929 . S
C982 C984 1.378 . S
C982 C986 1.350 . S
C983 C986 1.463 . S
C983 C988 1.350 . S
C983 N991 1.427 . S
C984 H975 0.930 . S
C984 C982 1.378 . S
C984 C985 1.367 . S
C985 C984 1.367 . S
C985 C987 1.433 . S
C986 C982 1.350 . S
C986 C983 1.463 . S
C986 N990 1.427 . S
C987 H977 0.929 . S
C987 C985 1.433 . S
C987 N990 1.384 . S
C988 H979 0.929 . S
C988 C980 1.378 . S
C988 C983 1.350 . S
C989 H976 0.929 . S
C989 C981 1.433 . S
C989 N991 1.384 . S
N990 C986 1.427 . S
N990 C987 1.384 . S
N991 C983 1.427 . S
N991 C989 1.384 . S
H992 C998 0.930 . S
H993 C1002 0.930 . S
H994 C1007 0.929 . S
H995 C1005 0.929 . S
H996 C1000 0.929 . S
H997 C1006 0.929 . S
C998 H992 0.930 . S
C998 C999 1.367 . S
C998 C1006 1.378 . S
C999 C998 1.367 . S
C999 C1007 1.433 1_554 S
C1000 H996 0.929 . S
C1000 C1002 1.378 . S
C1000 C1004 1.350 1_556 S
C1001 C1004 1.463 . S
C1001 C1006 1.350 . S
C1001 N1009 1.427 1_554 S
C1002 H993 0.930 . S
C1002 C1000 1.378 . S
C1002 C1003 1.367 . S
C1003 C1002 1.367 . S
C1003 C1005 1.433 1_556 S
C1004 C1000 1.350 1_554 S
C1004 C1001 1.463 . S
C1004 N1008 1.427 . S
C1005 H995 0.929 . S
C1005 C1003 1.433 1_554 S
C1005 N1008 1.384 . S
C1006 H997 0.929 . S
C1006 C998 1.378 . S
C1006 C1001 1.350 . S
C1007 H994 0.929 . S
C1007 C999 1.433 1_556 S
C1007 N1009 1.384 . S
N1008 C1004 1.427 . S
N1008 C1005 1.384 . S
N1009 C1001 1.427 1_556 S
N1009 C1007 1.384 . S
H1010 C1016 0.930 . S
H1011 C1020 0.930 1_556 S
H1012 C1025 0.929 . S
H1013 C1023 0.929 . S
H1014 C1018 0.954 . S
H1015 C1024 0.929 . S
C1016 H1010 0.930 . S
C1016 C1017 1.367 . S
C1016 C1024 1.378 . S
C1017 C1016 1.367 . S
C1017 C1025 1.433 1_554 S
C1018 H1014 0.954 . S
C1018 C1020 1.375 1_556 S
C1018 C1022 1.329 1_556 S
C1019 C1022 1.463 . S
C1019 C1024 1.350 . S
C1019 N1027 1.427 1_554 S
C1020 H1011 0.930 1_554 S
C1020 C1018 1.375 1_554 S
C1020 C1021 1.367 . S
C1021 C1020 1.367 . S
C1021 C1023 1.433 . S
C1022 C1018 1.329 1_554 S
C1022 C1019 1.463 . S
C1022 N1026 1.427 . S
C1023 H1013 0.929 . S
C1023 C1021 1.433 . S
C1023 N1026 1.384 . S
C1024 H1015 0.929 . S
C1024 C1016 1.378 . S
C1024 C1019 1.350 . S
C1025 H1012 0.929 . S
C1025 C1017 1.433 1_556 S
C1025 N1027 1.384 . S
N1026 C1022 1.427 . S
N1026 C1023 1.384 . S
N1027 C1019 1.427 1_556 S
N1027 C1025 1.384 . S
H1028 C1034 0.930 . S
H1029 C1038 0.930 . S
H1030 C1043 0.929 . S
H1031 C1041 0.929 . S
H1032 C1036 0.929 . S
H1033 C1042 0.929 . S
C1034 H1028 0.930 . S
C1034 C1035 1.367 . S
C1034 C1042 1.378 . S
C1035 C1034 1.367 . S
C1035 C1043 1.433 . S
C1036 H1032 0.929 . S
C1036 C1038 1.378 . S
C1036 C1040 1.350 . S
C1037 C1040 1.463 . S
C1037 C1042 1.350 . S
C1037 N1045 1.427 . S
C1038 H1029 0.930 . S
C1038 C1036 1.378 . S
C1038 C1039 1.367 . S
C1039 C1038 1.367 . S
C1039 C1041 1.433 . S
C1040 C1036 1.350 . S
C1040 C1037 1.463 . S
C1040 N1044 1.427 . S
C1041 H1031 0.929 . S
C1041 C1039 1.433 . S
C1041 N1044 1.384 . S
C1042 H1033 0.929 . S
C1042 C1034 1.378 . S
C1042 C1037 1.350 . S
C1043 H1030 0.929 . S
C1043 C1035 1.433 . S
C1043 N1045 1.384 . S
N1044 C1040 1.427 . S
N1044 C1041 1.384 . S
N1045 C1037 1.427 . S
N1045 C1043 1.384 . S
H1046 C1052 0.930 . S
H1047 C1056 0.930 . S
H1048 C1061 0.929 . S
H1049 C1059 0.929 . S
H1050 C1054 0.929 . S
H1051 C1060 0.929 . S
C1052 H1046 0.930 . S
C1052 C1053 1.367 . S
C1052 C1060 1.378 . S
C1053 C1052 1.367 . S
C1053 C1061 1.433 . S
C1054 H1050 0.929 . S
C1054 C1056 1.378 . S
C1054 C1058 1.350 . S
C1055 C1058 1.463 . S
C1055 C1060 1.350 . S
C1055 N1063 1.427 . S
C1056 H1047 0.930 . S
C1056 C1054 1.378 . S
C1056 C1057 1.367 . S
C1057 C1056 1.367 . S
C1057 C1059 1.433 . S
C1058 C1054 1.350 . S
C1058 C1055 1.463 . S
C1058 N1062 1.427 . S
C1059 H1049 0.929 . S
C1059 C1057 1.433 . S
C1059 N1062 1.384 . S
C1060 H1051 0.929 . S
C1060 C1052 1.378 . S
C1060 C1055 1.350 . S
C1061 H1048 0.929 . S
C1061 C1053 1.433 . S
C1061 N1063 1.384 . S
N1062 C1058 1.427 . S
N1062 C1059 1.384 . S
N1063 C1055 1.427 . S
N1063 C1061 1.384 . S
H1064 C1070 0.930 . S
H1065 C1074 0.930 . S
H1066 C1079 0.929 . S
H1067 C1077 0.929 . S
H1068 C1072 0.929 . S
H1069 C1078 0.929 . S
C1070 H1064 0.930 . S
C1070 C1071 1.367 . S
C1070 C1078 1.378 . S
C1071 C1070 1.367 . S
C1071 C1079 1.433 . S
C1072 H1068 0.929 . S
C1072 C1074 1.378 . S
C1072 C1076 1.350 . S
C1073 C1076 1.463 . S
C1073 C1078 1.350 . S
C1073 N1081 1.427 . S
C1074 H1065 0.930 . S
C1074 C1072 1.378 . S
C1074 C1075 1.367 . S
C1075 C1074 1.367 . S
C1075 C1077 1.433 . S
C1076 C1072 1.350 . S
C1076 C1073 1.463 . S
C1076 N1080 1.427 . S
C1077 H1067 0.929 . S
C1077 C1075 1.433 . S
C1077 N1080 1.384 . S
C1078 H1069 0.929 . S
C1078 C1070 1.378 . S
C1078 C1073 1.350 . S
C1079 H1066 0.929 . S
C1079 C1071 1.433 . S
C1079 N1081 1.384 . S
N1080 C1076 1.427 . S
N1080 C1077 1.384 . S
N1081 C1073 1.427 . S
N1081 C1079 1.384 . S
H1082 C1088 0.930 . S
H1083 C1092 0.932 1_545 S
H1084 C1097 0.929 . S
H1085 C1095 0.929 . S
H1086 C1090 0.929 . S
H1087 C1096 0.929 . S
C1088 H1082 0.930 . S
C1088 C1089 1.367 . S
C1088 C1096 1.378 . S
C1089 C1088 1.367 . S
C1089 C1097 1.433 . S
C1090 H1086 0.929 . S
C1090 C1092 1.378 . S
C1090 C1094 1.350 . S
C1091 C1094 1.463 . S
C1091 C1096 1.350 . S
C1091 N1099 1.427 . S
C1092 H1083 0.932 1_565 S
C1092 C1090 1.378 . S
C1092 C1093 1.367 . S
C1093 C1092 1.367 . S
C1093 C1095 1.433 . S
C1094 C1090 1.350 . S
C1094 C1091 1.463 . S
C1094 N1098 1.427 . S
C1095 H1085 0.929 . S
C1095 C1093 1.433 . S
C1095 N1098 1.384 . S
C1096 H1087 0.929 . S
C1096 C1088 1.378 . S
C1096 C1091 1.350 . S
C1097 H1084 0.929 . S
C1097 C1089 1.433 . S
C1097 N1099 1.384 . S
N1098 C1094 1.427 . S
N1098 C1095 1.384 . S
N1099 C1091 1.427 . S
N1099 C1097 1.384 . S
H1100 C1106 0.930 . S
H1101 C1110 0.930 . S
H1102 C1115 0.929 . S
H1103 C1113 0.929 . S
H1104 C1108 0.929 . S
H1105 C1114 0.929 . S
C1106 H1100 0.930 . S
C1106 C1107 1.367 . S
C1106 C1114 1.378 . S
C1107 C1106 1.367 . S
C1107 C1115 1.433 . S
C1108 H1104 0.929 . S
C1108 C1110 1.378 . S
C1108 C1112 1.350 . S
C1109 C1112 1.463 . S
C1109 C1114 1.350 . S
C1109 N1117 1.427 . S
C1110 H1101 0.930 . S
C1110 C1108 1.378 . S
C1110 C1111 1.367 . S
C1111 C1110 1.367 . S
C1111 C1113 1.433 . S
C1112 C1108 1.350 . S
C1112 C1109 1.463 . S
C1112 N1116 1.427 . S
C1113 H1103 0.929 . S
C1113 C1111 1.433 . S
C1113 N1116 1.384 . S
C1114 H1105 0.929 . S
C1114 C1106 1.378 . S
C1114 C1109 1.350 . S
C1115 H1102 0.929 . S
C1115 C1107 1.433 . S
C1115 N1117 1.384 . S
N1116 C1112 1.427 . S
N1116 C1113 1.384 . S
N1117 C1109 1.427 . S
N1117 C1115 1.384 . S
H1118 C1124 0.930 . S
H1119 C1128 0.930 . S
H1120 C1133 0.929 . S
H1121 C1131 0.929 . S
H1122 C1126 0.929 . S
H1123 C1132 0.929 . S
C1124 H1118 0.930 . S
C1124 C1125 1.367 . S
C1124 C1132 1.378 . S
C1125 C1124 1.367 . S
C1125 C1133 1.433 . S
C1126 H1122 0.929 . S
C1126 C1128 1.378 . S
C1126 C1130 1.350 . S
C1127 C1130 1.463 . S
C1127 C1132 1.350 . S
C1127 N1135 1.427 . S
C1128 H1119 0.930 . S
C1128 C1126 1.378 . S
C1128 C1129 1.367 . S
C1129 C1128 1.367 . S
C1129 C1131 1.433 . S
C1130 C1126 1.350 . S
C1130 C1127 1.463 . S
C1130 N1134 1.427 . S
C1131 H1121 0.929 . S
C1131 C1129 1.433 . S
C1131 N1134 1.384 . S
C1132 H1123 0.929 . S
C1132 C1124 1.378 . S
C1132 C1127 1.350 . S
C1133 H1120 0.929 . S
C1133 C1125 1.433 . S
C1133 N1135 1.384 . S
N1134 C1130 1.427 . S
N1134 C1131 1.384 . S
N1135 C1127 1.427 . S
N1135 C1133 1.384 . S
H1136 C1142 0.930 . S
H1137 C1146 0.930 . S
H1138 C1151 0.929 . S
H1139 C1149 0.929 . S
H1140 C1144 0.929 . S
H1141 C1150 0.929 . S
C1142 H1136 0.930 . S
C1142 C1143 1.367 1_655 S
C1142 C1150 1.378 . S
C1143 C1142 1.367 1_455 S
C1143 C1151 1.433 . S
C1144 H1140 0.929 . S
C1144 C1146 1.378 . S
C1144 C1148 1.350 . S
C1145 C1148 1.463 . S
C1145 C1150 1.350 1_455 S
C1145 N1153 1.427 . S
C1146 H1137 0.930 . S
C1146 C1144 1.378 . S
C1146 C1147 1.367 . S
C1147 C1146 1.367 . S
C1147 C1149 1.433 1_455 S
C1148 C1144 1.350 . S
C1148 C1145 1.463 . S
C1148 N1152 1.427 1_455 S
C1149 H1139 0.929 . S
C1149 C1147 1.433 1_655 S
C1149 N1152 1.384 . S
C1150 H1141 0.929 . S
C1150 C1142 1.378 . S
C1150 C1145 1.350 1_655 S
C1151 H1138 0.929 . S
C1151 C1143 1.433 . S
C1151 N1153 1.384 . S
N1152 C1148 1.427 1_655 S
N1152 C1149 1.384 . S
N1153 C1145 1.427 . S
N1153 C1151 1.384 . S
H1154 C1160 0.930 . S
H1155 C1164 0.930 . S
H1156 C1169 0.929 . S
H1157 C1167 0.929 . S
H1158 C1162 0.929 . S
H1159 C1168 0.929 . S
C1160 H1154 0.930 . S
C1160 C1161 1.367 . S
C1160 C1168 1.378 . S
C1161 C1160 1.367 . S
C1161 C1169 1.433 . S
C1162 H1158 0.929 . S
C1162 C1164 1.378 . S
C1162 C1166 1.350 . S
C1163 C1166 1.463 . S
C1163 C1168 1.350 . S
C1163 N1171 1.427 . S
C1164 H1155 0.930 . S
C1164 C1162 1.378 . S
C1164 C1165 1.367 . S
C1165 C1164 1.367 . S
C1165 C1167 1.433 . S
C1166 C1162 1.350 . S
C1166 C1163 1.463 . S
C1166 N1170 1.427 . S
C1167 H1157 0.929 . S
C1167 C1165 1.433 . S
C1167 N1170 1.384 . S
C1168 H1159 0.929 . S
C1168 C1160 1.378 . S
C1168 C1163 1.350 . S
C1169 H1156 0.929 . S
C1169 C1161 1.433 . S
C1169 N1171 1.384 . S
N1170 C1166 1.427 . S
N1170 C1167 1.384 . S
N1171 C1163 1.427 . S
N1171 C1169 1.384 . S
H1172 C1178 0.930 . S
H1173 C1182 0.930 . S
H1174 C1187 0.929 . S
H1175 C1185 0.929 . S
H1176 C1180 0.929 . S
H1177 C1186 0.929 . S
C1178 H1172 0.930 . S
C1178 C1179 1.367 . S
C1178 C1186 1.378 . S
C1179 C1178 1.367 . S
C1179 C1187 1.433 . S
C1180 H1176 0.929 . S
C1180 C1182 1.378 . S
C1180 C1184 1.350 . S
C1181 C1184 1.463 . S
C1181 C1186 1.350 . S
C1181 N1189 1.427 . S
C1182 H1173 0.930 . S
C1182 C1180 1.378 . S
C1182 C1183 1.367 . S
C1183 C1182 1.367 . S
C1183 C1185 1.433 . S
C1184 C1180 1.350 . S
C1184 C1181 1.463 . S
C1184 N1188 1.427 . S
C1185 H1175 0.929 . S
C1185 C1183 1.433 . S
C1185 N1188 1.384 . S
C1186 H1177 0.929 . S
C1186 C1178 1.378 . S
C1186 C1181 1.350 . S
C1187 H1174 0.929 . S
C1187 C1179 1.433 . S
C1187 N1189 1.384 . S
N1188 C1184 1.427 . S
N1188 C1185 1.384 . S
N1189 C1181 1.427 . S
N1189 C1187 1.384 . S
H1190 C1196 0.930 . S
H1191 C1200 0.930 . S
H1192 C1205 0.929 . S
H1193 C1203 0.929 . S
H1194 C1198 0.929 . S
H1195 C1204 0.929 . S
C1196 H1190 0.930 . S
C1196 C1197 1.367 . S
C1196 C1204 1.378 . S
C1197 C1196 1.367 . S
C1197 C1205 1.433 . S
C1198 H1194 0.929 . S
C1198 C1200 1.378 . S
C1198 C1202 1.350 . S
C1199 C1202 1.463 . S
C1199 C1204 1.350 . S
C1199 N1207 1.427 . S
C1200 H1191 0.930 . S
C1200 C1198 1.378 . S
C1200 C1201 1.367 . S
C1201 C1200 1.367 . S
C1201 C1203 1.433 . S
C1202 C1198 1.350 . S
C1202 C1199 1.463 . S
C1202 N1206 1.427 . S
C1203 H1193 0.929 . S
C1203 C1201 1.433 . S
C1203 N1206 1.384 . S
C1204 H1195 0.929 . S
C1204 C1196 1.378 . S
C1204 C1199 1.350 . S
C1205 H1192 0.929 . S
C1205 C1197 1.433 . S
C1205 N1207 1.384 . S
N1206 C1202 1.427 . S
N1206 C1203 1.384 . S
N1207 C1199 1.427 . S
N1207 C1205 1.384 . S
H1208 C1214 0.930 . S
H1209 C1218 0.930 . S
H1210 C1223 0.929 1_655 S
H1211 C1221 0.929 . S
H1212 C1216 0.929 . S
H1213 C1222 0.929 . S
C1214 H1208 0.930 . S
C1214 C1215 1.367 . S
C1214 C1222 1.378 . S
C1215 C1214 1.367 . S
C1215 C1223 1.433 . S
C1216 H1212 0.929 . S
C1216 C1218 1.378 . S
C1216 C1220 1.350 . S
C1217 C1220 1.463 . S
C1217 C1222 1.350 . S
C1217 N1225 1.427 . S
C1218 H1209 0.930 . S
C1218 C1216 1.378 . S
C1218 C1219 1.367 . S
C1219 C1218 1.367 . S
C1219 C1221 1.433 . S
C1220 C1216 1.350 . S
C1220 C1217 1.463 . S
C1220 N1224 1.427 . S
C1221 H1211 0.929 . S
C1221 C1219 1.433 . S
C1221 N1224 1.384 . S
C1222 H1213 0.929 . S
C1222 C1214 1.378 . S
C1222 C1217 1.350 . S
C1223 H1210 0.929 1_455 S
C1223 C1215 1.433 . S
C1223 N1225 1.384 . S
N1224 C1220 1.427 . S
N1224 C1221 1.384 . S
N1225 C1217 1.427 . S
N1225 C1223 1.384 . S
H1226 C1232 0.930 . S
H1227 C1236 0.930 . S
H1228 C1241 0.929 . S
H1229 C1239 0.929 . S
H1230 C1234 0.929 . S
H1231 C1240 0.929 . S
C1232 H1226 0.930 . S
C1232 C1233 1.367 . S
C1232 C1240 1.378 . S
C1233 C1232 1.367 . S
C1233 C1241 1.433 . S
C1234 H1230 0.929 . S
C1234 C1236 1.378 . S
C1234 C1238 1.350 . S
C1235 C1238 1.463 . S
C1235 C1240 1.350 . S
C1235 N1243 1.427 . S
C1236 H1227 0.930 . S
C1236 C1234 1.378 . S
C1236 C1237 1.367 . S
C1237 C1236 1.367 . S
C1237 C1239 1.433 . S
C1238 C1234 1.350 . S
C1238 C1235 1.463 . S
C1238 N1242 1.427 . S
C1239 H1229 0.929 . S
C1239 C1237 1.433 . S
C1239 N1242 1.384 . S
C1240 H1231 0.929 . S
C1240 C1232 1.378 . S
C1240 C1235 1.350 . S
C1241 H1228 0.929 . S
C1241 C1233 1.433 . S
C1241 N1243 1.384 . S
N1242 C1238 1.427 . S
N1242 C1239 1.384 . S
N1243 C1235 1.427 . S
N1243 C1241 1.384 . S
H1244 C1250 0.930 . S
H1245 C1254 0.930 . S
H1246 C1259 0.929 . S
H1247 C1257 0.929 . S
H1248 C1252 0.929 . S
H1249 C1258 0.929 . S
C1250 H1244 0.930 . S
C1250 C1251 1.367 . S
C1250 C1258 1.378 . S
C1251 C1250 1.367 . S
C1251 C1259 1.433 . S
C1252 H1248 0.929 . S
C1252 C1254 1.378 . S
C1252 C1256 1.350 . S
C1253 C1256 1.463 . S
C1253 C1258 1.350 . S
C1253 N1261 1.427 . S
C1254 H1245 0.930 . S
C1254 C1252 1.378 . S
C1254 C1255 1.367 . S
C1255 C1254 1.367 . S
C1255 C1257 1.433 . S
C1256 C1252 1.350 . S
C1256 C1253 1.463 . S
C1256 N1260 1.427 . S
C1257 H1247 0.929 . S
C1257 C1255 1.433 . S
C1257 N1260 1.384 . S
C1258 H1249 0.929 . S
C1258 C1250 1.378 . S
C1258 C1253 1.350 . S
C1259 H1246 0.929 . S
C1259 C1251 1.433 . S
C1259 N1261 1.384 . S
N1260 C1256 1.427 . S
N1260 C1257 1.384 . S
N1261 C1253 1.427 . S
N1261 C1259 1.384 . S
H1262 C1268 0.930 . S
H1263 C1272 0.930 . S
H1264 C1277 0.929 . S
H1265 C1275 0.929 . S
H1266 C1270 0.929 . S
H1267 C1276 0.929 . S
C1268 H1262 0.930 . S
C1268 C1269 1.367 . S
C1268 C1276 1.378 . S
C1269 C1268 1.367 . S
C1269 C1277 1.433 . S
C1270 H1266 0.929 . S
C1270 C1272 1.378 . S
C1270 C1274 1.350 . S
C1271 C1274 1.463 . S
C1271 C1276 1.350 . S
C1271 N1279 1.427 . S
C1272 H1263 0.930 . S
C1272 C1270 1.378 . S
C1272 C1273 1.367 . S
C1273 C1272 1.367 . S
C1273 C1275 1.433 . S
C1274 C1270 1.350 . S
C1274 C1271 1.463 . S
C1274 N1278 1.427 . S
C1275 H1265 0.929 . S
C1275 C1273 1.433 . S
C1275 N1278 1.384 . S
C1276 H1267 0.929 . S
C1276 C1268 1.378 . S
C1276 C1271 1.350 . S
C1277 H1264 0.929 . S
C1277 C1269 1.433 . S
C1277 N1279 1.384 . S
N1278 C1274 1.427 . S
N1278 C1275 1.384 . S
N1279 C1271 1.427 . S
N1279 C1277 1.384 . S
H1280 C1286 0.930 . S
H1281 C1290 0.930 . S
H1282 C1295 0.929 . S
H1283 C1293 0.929 . S
H1284 C1288 0.929 1_565 S
H1285 C1294 0.929 . S
C1286 H1280 0.930 . S
C1286 C1287 1.367 . S
C1286 C1294 1.378 . S
C1287 C1286 1.367 . S
C1287 C1295 1.433 1_545 S
C1288 H1284 0.929 1_545 S
C1288 C1290 1.378 . S
C1288 C1292 1.350 . S
C1289 C1292 1.463 . S
C1289 C1294 1.350 . S
C1289 N1297 1.427 . S
C1290 H1281 0.930 . S
C1290 C1288 1.378 . S
C1290 C1291 1.367 . S
C1291 C1290 1.367 . S
C1291 C1293 1.433 . S
C1292 C1288 1.350 . S
C1292 C1289 1.463 . S
C1292 N1296 1.427 . S
C1293 H1283 0.929 . S
C1293 C1291 1.433 . S
C1293 N1296 1.384 . S
C1294 H1285 0.929 . S
C1294 C1286 1.378 . S
C1294 C1289 1.350 . S
C1295 H1282 0.929 . S
C1295 C1287 1.433 1_565 S
C1295 N1297 1.384 1_565 S
N1296 C1292 1.427 . S
N1296 C1293 1.384 . S
N1297 C1289 1.427 . S
N1297 C1295 1.384 1_545 S
H1298 C1304 0.930 . S
H1299 C1308 0.930 . S
H1300 C1313 0.929 . S
H1301 C1311 0.929 . S
H1302 C1306 0.929 . S
H1303 C1312 0.929 . S
C1304 H1298 0.930 . S
C1304 C1305 1.367 . S
C1304 C1312 1.378 . S
C1305 C1304 1.367 . S
C1305 C1313 1.433 . S
C1306 H1302 0.929 . S
C1306 C1308 1.378 . S
C1306 C1310 1.350 . S
C1307 C1310 1.463 . S
C1307 C1312 1.350 . S
C1307 N1315 1.427 . S
C1308 H1299 0.930 . S
C1308 C1306 1.378 . S
C1308 C1309 1.367 . S
C1309 C1308 1.367 . S
C1309 C1311 1.433 . S
C1310 C1306 1.350 . S
C1310 C1307 1.463 . S
C1310 N1314 1.427 . S
C1311 H1301 0.929 . S
C1311 C1309 1.433 . S
C1311 N1314 1.384 . S
C1312 H1303 0.929 . S
C1312 C1304 1.378 . S
C1312 C1307 1.350 . S
C1313 H1300 0.929 . S
C1313 C1305 1.433 . S
C1313 N1315 1.384 . S
N1314 C1310 1.427 . S
N1314 C1311 1.384 . S
N1315 C1307 1.427 . S
N1315 C1313 1.384 . S
H1316 C1322 0.930 . S
H1317 C1326 0.930 . S
H1318 C1331 0.929 . S
H1319 C1329 0.929 . S
H1320 C1324 0.929 . S
H1321 C1330 0.929 . S
C1322 H1316 0.930 . S
C1322 C1323 1.367 1_565 S
C1322 C1330 1.378 . S
C1323 C1322 1.367 1_545 S
C1323 C1331 1.433 . S
C1324 H1320 0.929 . S
C1324 C1326 1.378 . S
C1324 C1328 1.350 1_545 S
C1325 C1328 1.463 . S
C1325 C1330 1.350 . S
C1325 N1333 1.427 1_565 S
C1326 H1317 0.930 . S
C1326 C1324 1.378 . S
C1326 C1327 1.367 1_545 S
C1327 C1326 1.367 1_565 S
C1327 C1329 1.433 . S
C1328 C1324 1.350 1_565 S
C1328 C1325 1.463 . S
C1328 N1332 1.427 . S
C1329 H1319 0.929 . S
C1329 C1327 1.433 . S
C1329 N1332 1.384 . S
C1330 H1321 0.929 . S
C1330 C1322 1.378 . S
C1330 C1325 1.350 . S
C1331 H1318 0.929 . S
C1331 C1323 1.433 . S
C1331 N1333 1.384 . S
N1332 C1328 1.427 . S
N1332 C1329 1.384 . S
N1333 C1325 1.427 1_545 S
N1333 C1331 1.384 . S
H1334 C1340 0.930 . S
H1335 C1344 0.930 . S
H1336 C1349 0.929 . S
H1337 C1347 0.929 . S
H1338 C1342 0.929 . S
H1339 C1348 0.929 . S
C1340 H1334 0.930 . S
C1340 C1341 1.367 . S
C1340 C1348 1.378 . S
C1341 C1340 1.367 . S
C1341 C1349 1.433 . S
C1342 H1338 0.929 . S
C1342 C1344 1.378 . S
C1342 C1346 1.350 . S
C1343 C1346 1.463 . S
C1343 C1348 1.350 . S
C1343 N1351 1.427 . S
C1344 H1335 0.930 . S
C1344 C1342 1.378 . S
C1344 C1345 1.367 . S
C1345 C1344 1.367 . S
C1345 C1347 1.433 . S
C1346 C1342 1.350 . S
C1346 C1343 1.463 . S
C1346 N1350 1.427 . S
C1347 H1337 0.929 . S
C1347 C1345 1.433 . S
C1347 N1350 1.384 . S
C1348 H1339 0.929 . S
C1348 C1340 1.378 . S
C1348 C1343 1.350 . S
C1349 H1336 0.929 . S
C1349 C1341 1.433 . S
C1349 N1351 1.384 . S
N1350 C1346 1.427 . S
N1350 C1347 1.384 . S
N1351 C1343 1.427 . S
N1351 C1349 1.384 . S
H1352 C1358 0.930 . S
H1353 C1362 0.930 . S
H1354 C1367 0.929 . S
H1355 C1365 0.929 . S
H1356 C1360 0.929 . S
H1357 C1366 0.929 . S
C1358 H1352 0.930 . S
C1358 C1359 1.367 . S
C1358 C1366 1.378 . S
C1359 C1358 1.367 . S
C1359 C1367 1.433 1_545 S
C1360 H1356 0.929 . S
C1360 C1362 1.378 . S
C1360 C1364 1.326 1_565 S
C1361 C1364 1.467 . S
C1361 C1366 1.350 . S
C1361 N1369 1.427 1_545 S
C1362 H1353 0.930 . S
C1362 C1360 1.378 . S
C1362 C1363 1.367 . S
C1363 C1362 1.367 . S
C1363 C1365 1.433 1_565 S
C1364 C1360 1.326 1_545 S
C1364 C1361 1.467 . S
C1364 N1368 1.449 . S
C1365 H1355 0.929 . S
C1365 C1363 1.433 1_545 S
C1365 N1368 1.384 . S
C1366 H1357 0.929 . S
C1366 C1358 1.378 . S
C1366 C1361 1.350 . S
C1367 H1354 0.929 . S
C1367 C1359 1.433 1_565 S
C1367 N1369 1.384 . S
N1368 C1364 1.449 . S
N1368 C1365 1.384 . S
N1369 C1361 1.427 1_565 S
N1369 C1367 1.384 . S
H1370 C1376 0.930 . S
H1371 C1380 0.930 . S
H1372 C1385 0.929 . S
H1373 C1383 0.929 . S
H1374 C1378 0.929 . S
H1375 C1384 0.929 . S
C1376 H1370 0.930 . S
C1376 C1377 1.367 . S
C1376 C1384 1.378 . S
C1377 C1376 1.367 . S
C1377 C1385 1.433 . S
C1378 H1374 0.929 . S
C1378 C1380 1.378 . S
C1378 C1382 1.350 . S
C1379 C1382 1.463 . S
C1379 C1384 1.350 . S
C1379 N1387 1.427 . S
C1380 H1371 0.930 . S
C1380 C1378 1.378 . S
C1380 C1381 1.367 . S
C1381 C1380 1.367 . S
C1381 C1383 1.433 . S
C1382 C1378 1.350 . S
C1382 C1379 1.463 . S
C1382 N1386 1.427 . S
C1383 H1373 0.929 . S
C1383 C1381 1.433 . S
C1383 N1386 1.384 . S
C1384 H1375 0.929 . S
C1384 C1376 1.378 . S
C1384 C1379 1.350 . S
C1385 H1372 0.929 . S
C1385 C1377 1.433 . S
C1385 N1387 1.384 . S
N1386 C1382 1.427 . S
N1386 C1383 1.384 . S
N1387 C1379 1.427 . S
N1387 C1385 1.384 . S
H1388 C1394 0.930 . S
H1389 C1398 0.930 . S
H1390 C1403 0.929 . S
H1391 C1401 0.929 1_565 S
H1392 C1396 0.929 . S
H1393 C1402 0.929 . S
C1394 H1388 0.930 . S
C1394 C1395 1.367 1_565 S
C1394 C1402 1.378 . S
C1395 C1394 1.367 1_545 S
C1395 C1403 1.433 . S
C1396 H1392 0.929 . S
C1396 C1398 1.378 . S
C1396 C1400 1.350 . S
C1397 C1400 1.463 . S
C1397 C1402 1.350 1_545 S
C1397 N1405 1.427 . S
C1398 H1389 0.930 . S
C1398 C1396 1.378 . S
C1398 C1399 1.367 . S
C1399 C1398 1.367 . S
C1399 C1401 1.433 . S
C1400 C1396 1.350 . S
C1400 C1397 1.463 . S
C1400 N1404 1.427 . S
C1401 H1391 0.929 1_545 S
C1401 C1399 1.433 . S
C1401 N1404 1.384 . S
C1402 H1393 0.929 . S
C1402 C1394 1.378 . S
C1402 C1397 1.350 1_565 S
C1403 H1390 0.929 . S
C1403 C1395 1.433 . S
C1403 N1405 1.384 . S
N1404 C1400 1.427 . S
N1404 C1401 1.384 . S
N1405 C1397 1.427 . S
N1405 C1403 1.384 . S
H1406 C1412 0.930 . S
H1407 C1416 0.930 . S
H1408 C1421 0.929 . S
H1409 C1419 0.929 . S
H1410 C1414 0.929 . S
H1411 C1420 0.929 . S
C1412 H1406 0.930 . S
C1412 C1413 1.367 . S
C1412 C1420 1.378 . S
C1413 C1412 1.367 . S
C1413 C1421 1.433 . S
C1414 H1410 0.929 . S
C1414 C1416 1.378 . S
C1414 C1418 1.350 . S
C1415 C1418 1.463 . S
C1415 C1420 1.350 . S
C1415 N1423 1.427 . S
C1416 H1407 0.930 . S
C1416 C1414 1.378 . S
C1416 C1417 1.367 . S
C1417 C1416 1.367 . S
C1417 C1419 1.433 . S
C1418 C1414 1.350 . S
C1418 C1415 1.463 . S
C1418 N1422 1.427 . S
C1419 H1409 0.929 . S
C1419 C1417 1.433 . S
C1419 N1422 1.384 . S
C1420 H1411 0.929 . S
C1420 C1412 1.378 . S
C1420 C1415 1.350 . S
C1421 H1408 0.929 . S
C1421 C1413 1.433 . S
C1421 N1423 1.384 . S
N1422 C1418 1.427 . S
N1422 C1419 1.384 . S
N1423 C1415 1.427 . S
N1423 C1421 1.384 . S
H1424 C1430 0.930 . S
H1425 C1434 0.930 1_556 S
H1426 C1439 0.929 . S
H1427 C1437 0.929 . S
H1428 C1432 0.929 1_556 S
H1429 C1438 0.929 . S
C1430 H1424 0.930 . S
C1430 C1431 1.367 . S
C1430 C1438 1.378 . S
C1431 C1430 1.367 . S
C1431 C1439 1.433 1_554 S
C1432 H1428 0.929 1_554 S
C1432 C1434 1.378 . S
C1432 C1436 1.350 . S
C1433 C1436 1.463 . S
C1433 C1438 1.350 . S
C1433 N1441 1.427 1_554 S
C1434 H1425 0.930 1_554 S
C1434 C1432 1.378 . S
C1434 C1435 1.367 . S
C1435 C1434 1.367 . S
C1435 C1437 1.433 . S
C1436 C1432 1.350 . S
C1436 C1433 1.463 . S
C1436 N1440 1.427 . S
C1437 H1427 0.929 . S
C1437 C1435 1.433 . S
C1437 N1440 1.384 . S
C1438 H1429 0.929 . S
C1438 C1430 1.378 . S
C1438 C1433 1.350 . S
C1439 H1426 0.929 . S
C1439 C1431 1.433 1_556 S
C1439 N1441 1.384 . S
N1440 C1436 1.427 . S
N1440 C1437 1.384 . S
N1441 C1433 1.427 1_556 S
N1441 C1439 1.384 . S
H1442 C1448 0.930 . S
H1443 C1452 0.930 . S
H1444 C1457 0.929 . S
H1445 C1455 0.929 . S
H1446 C1450 0.929 . S
H1447 C1456 0.929 . S
C1448 H1442 0.930 . S
C1448 C1449 1.367 1_556 S
C1448 C1456 1.378 . S
C1449 C1448 1.367 1_554 S
C1449 C1457 1.433 . S
C1450 H1446 0.929 . S
C1450 C1452 1.378 . S
C1450 C1454 1.350 1_554 S
C1451 C1454 1.463 . S
C1451 C1456 1.350 . S
C1451 N1459 1.427 1_556 S
C1452 H1443 0.930 . S
C1452 C1450 1.378 . S
C1452 C1453 1.367 1_554 S
C1453 C1452 1.367 1_556 S
C1453 C1455 1.433 . S
C1454 C1450 1.350 1_556 S
C1454 C1451 1.463 . S
C1454 N1458 1.427 . S
C1455 H1445 0.929 . S
C1455 C1453 1.433 . S
C1455 N1458 1.384 . S
C1456 H1447 0.929 . S
C1456 C1448 1.378 . S
C1456 C1451 1.350 . S
C1457 H1444 0.929 . S
C1457 C1449 1.433 . S
C1457 N1459 1.384 . S
N1458 C1454 1.427 . S
N1458 C1455 1.384 . S
N1459 C1451 1.427 1_554 S
N1459 C1457 1.384 . S
H1460 C1466 0.930 . S
H1461 C1470 0.930 . S
H1462 C1475 0.929 . S
H1463 C1473 0.929 . S
H1464 C1468 0.929 . S
H1465 C1474 0.929 . S
C1466 H1460 0.930 . S
C1466 C1467 1.367 . S
C1466 C1474 1.378 . S
C1467 C1466 1.367 . S
C1467 C1475 1.433 . S
C1468 H1464 0.929 . S
C1468 C1470 1.378 . S
C1468 C1472 1.350 . S
C1469 C1472 1.463 . S
C1469 C1474 1.350 . S
C1469 N1477 1.427 . S
C1470 H1461 0.930 . S
C1470 C1468 1.378 . S
C1470 C1471 1.367 . S
C1471 C1470 1.367 . S
C1471 C1473 1.433 . S
C1472 C1468 1.350 . S
C1472 C1469 1.463 . S
C1472 N1476 1.427 . S
C1473 H1463 0.929 . S
C1473 C1471 1.433 . S
C1473 N1476 1.384 . S
C1474 H1465 0.929 . S
C1474 C1466 1.378 . S
C1474 C1469 1.350 . S
C1475 H1462 0.929 . S
C1475 C1467 1.433 . S
C1475 N1477 1.384 . S
N1476 C1472 1.427 . S
N1476 C1473 1.384 . S
N1477 C1469 1.427 . S
N1477 C1475 1.384 . S
H1478 C1484 0.930 . S
H1479 C1488 0.930 . S
H1480 C1493 0.929 . S
H1481 C1491 0.929 . S
H1482 C1486 0.929 . S
H1483 C1492 0.929 . S
C1484 H1478 0.930 . S
C1484 C1485 1.367 . S
C1484 C1492 1.378 . S
C1485 C1484 1.367 . S
C1485 C1493 1.433 . S
C1486 H1482 0.929 . S
C1486 C1488 1.378 . S
C1486 C1490 1.350 . S
C1487 C1490 1.463 . S
C1487 C1492 1.350 . S
C1487 N1495 1.427 . S
C1488 H1479 0.930 . S
C1488 C1486 1.378 . S
C1488 C1489 1.367 . S
C1489 C1488 1.367 . S
C1489 C1491 1.433 . S
C1490 C1486 1.350 . S
C1490 C1487 1.463 . S
C1490 N1494 1.427 . S
C1491 H1481 0.929 . S
C1491 C1489 1.433 . S
C1491 N1494 1.384 . S
C1492 H1483 0.929 . S
C1492 C1484 1.378 . S
C1492 C1487 1.350 . S
C1493 H1480 0.929 . S
C1493 C1485 1.433 . S
C1493 N1495 1.384 . S
N1494 C1490 1.427 . S
N1494 C1491 1.384 . S
N1495 C1487 1.427 . S
N1495 C1493 1.384 . S
H1496 C1502 0.930 . S
H1497 C1506 0.930 . S
H1498 C1511 0.929 . S
H1499 C1509 0.929 . S
H1500 C1504 0.929 . S
H1501 C1510 0.929 . S
C1502 H1496 0.930 . S
C1502 C1503 1.367 . S
C1502 C1510 1.378 . S
C1503 C1502 1.367 . S
C1503 C1511 1.433 . S
C1504 H1500 0.929 . S
C1504 C1506 1.378 . S
C1504 C1508 1.350 . S
C1505 C1508 1.463 . S
C1505 C1510 1.350 . S
C1505 N1513 1.427 . S
C1506 H1497 0.930 . S
C1506 C1504 1.378 . S
C1506 C1507 1.367 . S
C1507 C1506 1.367 . S
C1507 C1509 1.433 . S
C1508 C1504 1.350 . S
C1508 C1505 1.463 . S
C1508 N1512 1.427 . S
C1509 H1499 0.929 . S
C1509 C1507 1.433 . S
C1509 N1512 1.384 . S
C1510 H1501 0.929 . S
C1510 C1502 1.378 . S
C1510 C1505 1.350 . S
C1511 H1498 0.929 . S
C1511 C1503 1.433 . S
C1511 N1513 1.384 . S
N1512 C1508 1.427 . S
N1512 C1509 1.384 . S
N1513 C1505 1.427 . S
N1513 C1511 1.384 . S
H1514 C1520 0.930 . S
H1515 C1524 0.930 . S
H1516 C1529 0.929 . S
H1517 C1527 0.929 . S
H1518 C1522 0.929 . S
H1519 C1528 0.929 . S
C1520 H1514 0.930 . S
C1520 C1521 1.367 . S
C1520 C1528 1.378 . S
C1521 C1520 1.367 . S
C1521 C1529 1.433 . S
C1522 H1518 0.929 . S
C1522 C1524 1.378 . S
C1522 C1526 1.350 . S
C1523 C1526 1.463 . S
C1523 C1528 1.350 . S
C1523 N1531 1.427 . S
C1524 H1515 0.930 . S
C1524 C1522 1.378 . S
C1524 C1525 1.367 . S
C1525 C1524 1.367 . S
C1525 C1527 1.433 . S
C1526 C1522 1.350 . S
C1526 C1523 1.463 . S
C1526 N1530 1.427 . S
C1527 H1517 0.929 . S
C1527 C1525 1.433 . S
C1527 N1530 1.384 . S
C1528 H1519 0.929 . S
C1528 C1520 1.378 . S
C1528 C1523 1.350 . S
C1529 H1516 0.929 . S
C1529 C1521 1.433 . S
C1529 N1531 1.384 . S
N1530 C1526 1.427 . S
N1530 C1527 1.384 . S
N1531 C1523 1.427 . S
N1531 C1529 1.384 . S
H1532 C1538 0.930 . S
H1533 C1542 0.930 . S
H1534 C1547 0.929 . S
H1535 C1545 0.929 . S
H1536 C1540 0.929 . S
H1537 C1546 0.929 . S
C1538 H1532 0.930 . S
C1538 C1539 1.367 . S
C1538 C1546 1.378 . S
C1539 C1538 1.367 . S
C1539 C1547 1.433 . S
C1540 H1536 0.929 . S
C1540 C1542 1.378 . S
C1540 C1544 1.350 . S
C1541 C1544 1.463 . S
C1541 C1546 1.350 . S
C1541 N1549 1.427 . S
C1542 H1533 0.930 . S
C1542 C1540 1.378 . S
C1542 C1543 1.367 . S
C1543 C1542 1.367 . S
C1543 C1545 1.433 . S
C1544 C1540 1.350 . S
C1544 C1541 1.463 . S
C1544 N1548 1.427 . S
C1545 H1535 0.929 . S
C1545 C1543 1.433 . S
C1545 N1548 1.384 . S
C1546 H1537 0.929 . S
C1546 C1538 1.378 . S
C1546 C1541 1.350 . S
C1547 H1534 0.929 . S
C1547 C1539 1.433 . S
C1547 N1549 1.384 . S
N1548 C1544 1.427 . S
N1548 C1545 1.384 . S
N1549 C1541 1.427 . S
N1549 C1547 1.384 . S
H1550 C1556 0.930 . S
H1551 C1560 0.930 . S
H1552 C1565 0.929 . S
H1553 C1563 0.929 . S
H1554 C1558 0.929 . S
H1555 C1564 0.929 . S
C1556 H1550 0.930 . S
C1556 C1557 1.367 . S
C1556 C1564 1.378 . S
C1557 C1556 1.367 . S
C1557 C1565 1.433 . S
C1558 H1554 0.929 . S
C1558 C1560 1.378 . S
C1558 C1562 1.350 . S
C1559 C1562 1.463 . S
C1559 C1564 1.350 . S
C1559 N1567 1.427 . S
C1560 H1551 0.930 . S
C1560 C1558 1.378 . S
C1560 C1561 1.367 . S
C1561 C1560 1.367 . S
C1561 C1563 1.433 . S
C1562 C1558 1.350 . S
C1562 C1559 1.463 . S
C1562 N1566 1.427 . S
C1563 H1553 0.929 . S
C1563 C1561 1.433 . S
C1563 N1566 1.384 . S
C1564 H1555 0.929 . S
C1564 C1556 1.378 . S
C1564 C1559 1.350 . S
C1565 H1552 0.929 . S
C1565 C1557 1.433 . S
C1565 N1567 1.384 . S
N1566 C1562 1.427 . S
N1566 C1563 1.384 . S
N1567 C1559 1.427 . S
N1567 C1565 1.384 . S
H1568 C1574 0.930 . S
H1569 C1578 0.930 . S
H1570 C1583 0.929 . S
H1571 C1581 0.929 . S
H1572 C1576 0.929 . S
H1573 C1582 0.929 . S
C1574 H1568 0.930 . S
C1574 C1575 1.367 . S
C1574 C1582 1.378 . S
C1575 C1574 1.367 . S
C1575 C1583 1.433 . S
C1576 H1572 0.929 . S
C1576 C1578 1.378 . S
C1576 C1580 1.350 . S
C1577 C1580 1.463 . S
C1577 C1582 1.350 . S
C1577 N1585 1.427 . S
C1578 H1569 0.930 . S
C1578 C1576 1.378 . S
C1578 C1579 1.367 . S
C1579 C1578 1.367 . S
C1579 C1581 1.433 . S
C1580 C1576 1.350 . S
C1580 C1577 1.463 . S
C1580 N1584 1.427 . S
C1581 H1571 0.929 . S
C1581 C1579 1.433 . S
C1581 N1584 1.384 . S
C1582 H1573 0.929 . S
C1582 C1574 1.378 . S
C1582 C1577 1.350 . S
C1583 H1570 0.929 . S
C1583 C1575 1.433 . S
C1583 N1585 1.384 . S
N1584 C1580 1.427 . S
N1584 C1581 1.384 . S
N1585 C1577 1.427 . S
N1585 C1583 1.384 . S
H1586 C1592 0.930 . S
H1587 C1596 0.930 . S
H1588 C1601 0.929 . S
H1589 C1599 0.929 . S
H1590 C1594 0.929 . S
H1591 C1600 0.929 . S
C1592 H1586 0.930 . S
C1592 C1593 1.367 . S
C1592 C1600 1.378 . S
C1593 C1592 1.367 . S
C1593 C1601 1.433 . S
C1594 H1590 0.929 . S
C1594 C1596 1.378 . S
C1594 C1598 1.350 . S
C1595 C1598 1.463 . S
C1595 C1600 1.350 . S
C1595 N1603 1.427 . S
C1596 H1587 0.930 . S
C1596 C1594 1.378 . S
C1596 C1597 1.367 . S
C1597 C1596 1.367 . S
C1597 C1599 1.433 . S
C1598 C1594 1.350 . S
C1598 C1595 1.463 . S
C1598 N1602 1.427 . S
C1599 H1589 0.929 . S
C1599 C1597 1.433 . S
C1599 N1602 1.384 . S
C1600 H1591 0.929 . S
C1600 C1592 1.378 . S
C1600 C1595 1.350 . S
C1601 H1588 0.929 . S
C1601 C1593 1.433 . S
C1601 N1603 1.384 . S
N1602 C1598 1.427 . S
N1602 C1599 1.384 . S
N1603 C1595 1.427 . S
N1603 C1601 1.384 . S
H1604 C1610 0.930 . S
H1605 C1614 0.930 . S
H1606 C1619 0.929 . S
H1607 C1617 0.929 . S
H1608 C1612 0.929 . S
H1609 C1618 0.929 . S
C1610 H1604 0.930 . S
C1610 C1611 1.367 . S
C1610 C1618 1.378 . S
C1611 C1610 1.367 . S
C1611 C1619 1.433 . S
C1612 H1608 0.929 . S
C1612 C1614 1.378 . S
C1612 C1616 1.350 . S
C1613 C1616 1.463 . S
C1613 C1618 1.350 . S
C1613 N1621 1.427 . S
C1614 H1605 0.930 . S
C1614 C1612 1.378 . S
C1614 C1615 1.367 . S
C1615 C1614 1.367 . S
C1615 C1617 1.433 . S
C1616 C1612 1.350 . S
C1616 C1613 1.463 . S
C1616 N1620 1.427 . S
C1617 H1607 0.929 . S
C1617 C1615 1.433 . S
C1617 N1620 1.384 . S
C1618 H1609 0.929 . S
C1618 C1610 1.378 . S
C1618 C1613 1.350 . S
C1619 H1606 0.929 . S
C1619 C1611 1.433 . S
C1619 N1621 1.384 . S
N1620 C1616 1.427 . S
N1620 C1617 1.384 . S
N1621 C1613 1.427 . S
N1621 C1619 1.384 . S
H1622 C1628 0.930 . S
H1623 C1632 0.930 . S
H1624 C1637 0.929 . S
H1625 C1635 0.929 . S
H1626 C1630 0.929 . S
H1627 C1636 0.929 . S
C1628 H1622 0.930 . S
C1628 C1629 1.367 . S
C1628 C1636 1.378 . S
C1629 C1628 1.367 . S
C1629 C1637 1.433 . S
C1630 H1626 0.929 . S
C1630 C1632 1.378 . S
C1630 C1634 1.350 . S
C1631 C1634 1.463 . S
C1631 C1636 1.350 . S
C1631 N1639 1.427 . S
C1632 H1623 0.930 . S
C1632 C1630 1.378 . S
C1632 C1633 1.367 . S
C1633 C1632 1.367 . S
C1633 C1635 1.433 . S
C1634 C1630 1.350 . S
C1634 C1631 1.463 . S
C1634 N1638 1.427 . S
C1635 H1625 0.929 . S
C1635 C1633 1.433 . S
C1635 N1638 1.384 . S
C1636 H1627 0.929 . S
C1636 C1628 1.378 . S
C1636 C1631 1.350 . S
C1637 H1624 0.929 . S
C1637 C1629 1.433 . S
C1637 N1639 1.384 . S
N1638 C1634 1.427 . S
N1638 C1635 1.384 . S
N1639 C1631 1.427 . S
N1639 C1637 1.384 . S
H1640 C1646 0.930 . S
H1641 C1650 0.930 . S
H1642 C1655 0.929 . S
H1643 C1653 0.929 . S
H1644 C1648 0.929 . S
H1645 C1654 0.929 . S
C1646 H1640 0.930 . S
C1646 C1647 1.367 . S
C1646 C1654 1.378 . S
C1647 C1646 1.367 . S
C1647 C1655 1.433 . S
C1648 H1644 0.929 . S
C1648 C1650 1.378 . S
C1648 C1652 1.350 . S
C1649 C1652 1.463 . S
C1649 C1654 1.350 . S
C1649 N1657 1.427 . S
C1650 H1641 0.930 . S
C1650 C1648 1.378 . S
C1650 C1651 1.367 . S
C1651 C1650 1.367 . S
C1651 C1653 1.433 . S
C1652 C1648 1.350 . S
C1652 C1649 1.463 . S
C1652 N1656 1.427 . S
C1653 H1643 0.929 . S
C1653 C1651 1.433 . S
C1653 N1656 1.384 . S
C1654 H1645 0.929 . S
C1654 C1646 1.378 . S
C1654 C1649 1.350 . S
C1655 H1642 0.929 . S
C1655 C1647 1.433 . S
C1655 N1657 1.384 . S
N1656 C1652 1.427 . S
N1656 C1653 1.384 . S
N1657 C1649 1.427 . S
N1657 C1655 1.384 . S
H1658 C1664 0.930 . S
H1659 C1668 0.930 . S
H1660 C1673 0.929 . S
H1661 C1671 0.929 . S
H1662 C1666 0.929 . S
H1663 C1672 0.929 . S
C1664 H1658 0.930 . S
C1664 C1665 1.367 . S
C1664 C1672 1.378 . S
C1665 C1664 1.367 . S
C1665 C1673 1.433 . S
C1666 H1662 0.929 . S
C1666 C1668 1.378 . S
C1666 C1670 1.350 . S
C1667 C1670 1.463 . S
C1667 C1672 1.350 . S
C1667 N1675 1.427 . S
C1668 H1659 0.930 . S
C1668 C1666 1.378 . S
C1668 C1669 1.367 . S
C1669 C1668 1.367 . S
C1669 C1671 1.433 . S
C1670 C1666 1.350 . S
C1670 C1667 1.463 . S
C1670 N1674 1.427 . S
C1671 H1661 0.929 . S
C1671 C1669 1.433 . S
C1671 N1674 1.384 . S
C1672 H1663 0.929 . S
C1672 C1664 1.378 . S
C1672 C1667 1.350 . S
C1673 H1660 0.929 . S
C1673 C1665 1.433 . S
C1673 N1675 1.384 . S
N1674 C1670 1.427 . S
N1674 C1671 1.384 . S
N1675 C1667 1.427 . S
N1675 C1673 1.384 . S
H1676 C1682 0.930 . S
H1677 C1686 0.930 . S
H1678 C1691 0.944 . S
H1679 C1689 0.929 . S
H1680 C1684 0.929 . S
H1681 C1690 0.929 . S
C1682 H1676 0.930 . S
C1682 C1683 1.367 . S
C1682 C1690 1.378 . S
C1683 C1682 1.367 . S
C1683 C1691 1.433 . S
C1684 H1680 0.929 . S
C1684 C1686 1.378 . S
C1684 C1688 1.350 . S
C1685 C1688 1.463 . S
C1685 C1690 1.350 . S
C1685 N1693 1.427 . S
C1686 H1677 0.930 . S
C1686 C1684 1.378 . S
C1686 C1687 1.367 . S
C1687 C1686 1.367 . S
C1687 C1689 1.433 . S
C1688 C1684 1.350 . S
C1688 C1685 1.463 . S
C1688 N1692 1.427 . S
C1689 H1679 0.929 . S
C1689 C1687 1.433 . S
C1689 N1692 1.384 . S
C1690 H1681 0.929 . S
C1690 C1682 1.378 . S
C1690 C1685 1.350 . S
C1691 H1678 0.944 . S
C1691 C1683 1.433 . S
C1691 N1693 1.384 . S
N1692 C1688 1.427 . S
N1692 C1689 1.384 . S
N1693 C1685 1.427 . S
N1693 C1691 1.384 . S
H1694 C1700 0.930 . S
H1695 C1704 0.930 . S
H1696 C1709 0.929 . S
H1697 C1707 0.929 . S
H1698 C1702 0.929 . S
H1699 C1708 0.929 . S
C1700 H1694 0.930 . S
C1700 C1701 1.367 . S
C1700 C1708 1.378 . S
C1701 C1700 1.367 . S
C1701 C1709 1.433 . S
C1702 H1698 0.929 . S
C1702 C1704 1.378 . S
C1702 C1706 1.350 . S
C1703 C1706 1.463 . S
C1703 C1708 1.350 . S
C1703 N1711 1.427 . S
C1704 H1695 0.930 . S
C1704 C1702 1.378 . S
C1704 C1705 1.367 . S
C1705 C1704 1.367 . S
C1705 C1707 1.433 . S
C1706 C1702 1.350 . S
C1706 C1703 1.463 . S
C1706 N1710 1.427 . S
C1707 H1697 0.929 . S
C1707 C1705 1.433 . S
C1707 N1710 1.384 . S
C1708 H1699 0.929 . S
C1708 C1700 1.378 . S
C1708 C1703 1.350 . S
C1709 H1696 0.929 . S
C1709 C1701 1.433 . S
C1709 N1711 1.384 . S
N1710 C1706 1.427 . S
N1710 C1707 1.384 . S
N1711 C1703 1.427 . S
N1711 C1709 1.384 . S
H1712 C1718 0.930 . S
H1713 C1722 0.930 . S
H1714 C1727 0.929 . S
H1715 C1725 0.929 . S
H1716 C1720 0.929 . S
H1717 C1726 0.929 . S
C1718 H1712 0.930 . S
C1718 C1719 1.367 . S
C1718 C1726 1.378 . S
C1719 C1718 1.367 . S
C1719 C1727 1.433 . S
C1720 H1716 0.929 . S
C1720 C1722 1.378 . S
C1720 C1724 1.350 . S
C1721 C1724 1.463 . S
C1721 C1726 1.350 . S
C1721 N1729 1.427 . S
C1722 H1713 0.930 . S
C1722 C1720 1.378 . S
C1722 C1723 1.367 . S
C1723 C1722 1.367 . S
C1723 C1725 1.433 . S
C1724 C1720 1.350 . S
C1724 C1721 1.463 . S
C1724 N1728 1.427 . S
C1725 H1715 0.929 . S
C1725 C1723 1.433 . S
C1725 N1728 1.384 . S
C1726 H1717 0.929 . S
C1726 C1718 1.378 . S
C1726 C1721 1.350 . S
C1727 H1714 0.929 . S
C1727 C1719 1.433 . S
C1727 N1729 1.384 . S
N1728 C1724 1.427 . S
N1728 C1725 1.384 . S
N1729 C1721 1.427 . S
N1729 C1727 1.384 . S
H1730 C1736 0.930 . S
H1731 C1740 0.930 . S
H1732 C1745 0.929 . S
H1733 C1743 0.929 . S
H1734 C1738 0.929 . S
H1735 C1744 0.929 . S
C1736 H1730 0.930 . S
C1736 C1737 1.367 . S
C1736 C1744 1.378 . S
C1737 C1736 1.367 . S
C1737 C1745 1.433 . S
C1738 H1734 0.929 . S
C1738 C1740 1.378 . S
C1738 C1742 1.350 . S
C1739 C1742 1.463 . S
C1739 C1744 1.350 . S
C1739 N1747 1.427 . S
C1740 H1731 0.930 . S
C1740 C1738 1.378 . S
C1740 C1741 1.367 . S
C1741 C1740 1.367 . S
C1741 C1743 1.433 . S
C1742 C1738 1.350 . S
C1742 C1739 1.463 . S
C1742 N1746 1.427 . S
C1743 H1733 0.929 . S
C1743 C1741 1.433 . S
C1743 N1746 1.384 . S
C1744 H1735 0.929 . S
C1744 C1736 1.378 . S
C1744 C1739 1.350 . S
C1745 H1732 0.929 . S
C1745 C1737 1.433 . S
C1745 N1747 1.384 . S
N1746 C1742 1.427 . S
N1746 C1743 1.384 . S
N1747 C1739 1.427 . S
N1747 C1745 1.384 . S
H1748 C1754 0.930 . S
H1749 C1758 0.930 1_455 S
H1750 C1763 0.929 . S
H1751 C1761 0.929 . S
H1752 C1756 0.929 . S
H1753 C1762 0.929 . S
C1754 H1748 0.930 . S
C1754 C1755 1.367 . S
C1754 C1762 1.378 . S
C1755 C1754 1.367 . S
C1755 C1763 1.433 . S
C1756 H1752 0.929 . S
C1756 C1758 1.378 . S
C1756 C1760 1.350 . S
C1757 C1760 1.463 . S
C1757 C1762 1.350 . S
C1757 N1765 1.427 . S
C1758 H1749 0.930 1_655 S
C1758 C1756 1.378 . S
C1758 C1759 1.367 . S
C1759 C1758 1.367 . S
C1759 C1761 1.433 . S
C1760 C1756 1.350 . S
C1760 C1757 1.463 . S
C1760 N1764 1.427 . S
C1761 H1751 0.929 . S
C1761 C1759 1.433 . S
C1761 N1764 1.384 . S
C1762 H1753 0.929 . S
C1762 C1754 1.378 . S
C1762 C1757 1.350 . S
C1763 H1750 0.929 . S
C1763 C1755 1.433 . S
C1763 N1765 1.384 . S
N1764 C1760 1.427 . S
N1764 C1761 1.384 . S
N1765 C1757 1.427 . S
N1765 C1763 1.384 . S
H1766 C1772 0.930 . S
H1767 C1776 0.930 . S
H1768 C1781 0.929 . S
H1769 C1779 0.929 . S
H1770 C1774 0.929 . S
H1771 C1780 0.929 . S
C1772 H1766 0.930 . S
C1772 C1773 1.367 . S
C1772 C1780 1.378 . S
C1773 C1772 1.367 . S
C1773 C1781 1.433 . S
C1774 H1770 0.929 . S
C1774 C1776 1.378 . S
C1774 C1778 1.350 . S
C1775 C1778 1.463 . S
C1775 C1780 1.350 . S
C1775 N1783 1.427 . S
C1776 H1767 0.930 . S
C1776 C1774 1.378 . S
C1776 C1777 1.367 . S
C1777 C1776 1.367 . S
C1777 C1779 1.433 . S
C1778 C1774 1.350 . S
C1778 C1775 1.463 . S
C1778 N1782 1.427 . S
C1779 H1769 0.929 . S
C1779 C1777 1.433 . S
C1779 N1782 1.384 . S
C1780 H1771 0.929 . S
C1780 C1772 1.378 . S
C1780 C1775 1.350 . S
C1781 H1768 0.929 . S
C1781 C1773 1.433 . S
C1781 N1783 1.384 . S
N1782 C1778 1.427 . S
N1782 C1779 1.384 . S
N1783 C1775 1.427 . S
N1783 C1781 1.384 . S
H1784 C1790 0.930 . S
H1785 C1794 0.930 . S
H1786 C1799 0.929 . S
H1787 C1797 0.929 . S
H1788 C1792 0.929 . S
H1789 C1798 0.929 . S
C1790 H1784 0.930 . S
C1790 C1791 1.367 . S
C1790 C1798 1.378 . S
C1791 C1790 1.367 . S
C1791 C1799 1.433 . S
C1792 H1788 0.929 . S
C1792 C1794 1.378 . S
C1792 C1796 1.350 . S
C1793 C1796 1.463 . S
C1793 C1798 1.350 . S
C1793 N1801 1.427 . S
C1794 H1785 0.930 . S
C1794 C1792 1.378 . S
C1794 C1795 1.367 . S
C1795 C1794 1.367 . S
C1795 C1797 1.433 . S
C1796 C1792 1.350 . S
C1796 C1793 1.463 . S
C1796 N1800 1.427 . S
C1797 H1787 0.929 . S
C1797 C1795 1.433 . S
C1797 N1800 1.384 . S
C1798 H1789 0.929 . S
C1798 C1790 1.378 . S
C1798 C1793 1.350 . S
C1799 H1786 0.929 . S
C1799 C1791 1.433 . S
C1799 N1801 1.384 . S
N1800 C1796 1.427 . S
N1800 C1797 1.384 . S
N1801 C1793 1.427 . S
N1801 C1799 1.384 . S
H1802 C1808 0.930 . S
H1803 C1812 0.930 . S
H1804 C1817 0.929 . S
H1805 C1815 0.929 . S
H1806 C1810 0.929 . S
H1807 C1816 0.929 . S
C1808 H1802 0.930 . S
C1808 C1809 1.367 . S
C1808 C1816 1.378 . S
C1809 C1808 1.367 . S
C1809 C1817 1.433 . S
C1810 H1806 0.929 . S
C1810 C1812 1.378 . S
C1810 C1814 1.350 . S
C1811 C1814 1.463 . S
C1811 C1816 1.350 . S
C1811 N1819 1.427 . S
C1812 H1803 0.930 . S
C1812 C1810 1.378 . S
C1812 C1813 1.367 . S
C1813 C1812 1.367 . S
C1813 C1815 1.433 . S
C1814 C1810 1.350 . S
C1814 C1811 1.463 . S
C1814 N1818 1.427 . S
C1815 H1805 0.929 . S
C1815 C1813 1.433 . S
C1815 N1818 1.384 . S
C1816 H1807 0.929 . S
C1816 C1808 1.378 . S
C1816 C1811 1.350 . S
C1817 H1804 0.929 . S
C1817 C1809 1.433 . S
C1817 N1819 1.384 . S
N1818 C1814 1.427 . S
N1818 C1815 1.384 . S
N1819 C1811 1.427 . S
N1819 C1817 1.384 . S
H1820 C1826 0.930 . S
H1821 C1830 0.930 . S
H1822 C1835 0.929 . S
H1823 C1833 0.929 . S
H1824 C1828 0.929 . S
H1825 C1834 0.929 . S
C1826 H1820 0.930 . S
C1826 C1827 1.367 . S
C1826 C1834 1.378 . S
C1827 C1826 1.367 . S
C1827 C1835 1.433 . S
C1828 H1824 0.929 . S
C1828 C1830 1.378 . S
C1828 C1832 1.350 . S
C1829 C1832 1.463 . S
C1829 C1834 1.350 . S
C1829 N1837 1.427 . S
C1830 H1821 0.930 . S
C1830 C1828 1.378 . S
C1830 C1831 1.367 . S
C1831 C1830 1.367 . S
C1831 C1833 1.433 . S
C1832 C1828 1.350 . S
C1832 C1829 1.463 . S
C1832 N1836 1.427 . S
C1833 H1823 0.929 . S
C1833 C1831 1.433 . S
C1833 N1836 1.384 . S
C1834 H1825 0.929 . S
C1834 C1826 1.378 . S
C1834 C1829 1.350 . S
C1835 H1822 0.929 . S
C1835 C1827 1.433 . S
C1835 N1837 1.384 . S
N1836 C1832 1.427 . S
N1836 C1833 1.384 . S
N1837 C1829 1.427 . S
N1837 C1835 1.384 . S
H1838 C1844 0.930 . S
H1839 C1848 0.930 . S
H1840 C1853 0.929 . S
H1841 C1851 0.929 . S
H1842 C1846 0.929 . S
H1843 C1852 0.929 . S
C1844 H1838 0.930 . S
C1844 C1845 1.367 . S
C1844 C1852 1.378 . S
C1845 C1844 1.367 . S
C1845 C1853 1.433 . S
C1846 H1842 0.929 . S
C1846 C1848 1.378 . S
C1846 C1850 1.350 . S
C1847 C1850 1.463 . S
C1847 C1852 1.350 . S
C1847 N1855 1.427 . S
C1848 H1839 0.930 . S
C1848 C1846 1.378 . S
C1848 C1849 1.367 . S
C1849 C1848 1.367 . S
C1849 C1851 1.433 . S
C1850 C1846 1.350 . S
C1850 C1847 1.463 . S
C1850 N1854 1.427 . S
C1851 H1841 0.929 . S
C1851 C1849 1.433 . S
C1851 N1854 1.384 . S
C1852 H1843 0.929 . S
C1852 C1844 1.378 . S
C1852 C1847 1.350 . S
C1853 H1840 0.929 . S
C1853 C1845 1.433 . S
C1853 N1855 1.384 . S
N1854 C1850 1.427 . S
N1854 C1851 1.384 . S
N1855 C1847 1.427 . S
N1855 C1853 1.384 . S
H1856 C1862 0.930 . S
H1857 C1866 0.930 . S
H1858 C1871 0.929 . S
H1859 C1869 0.929 . S
H1860 C1864 0.929 . S
H1861 C1870 0.929 . S
C1862 H1856 0.930 . S
C1862 C1863 1.367 . S
C1862 C1870 1.378 . S
C1863 C1862 1.367 . S
C1863 C1871 1.433 . S
C1864 H1860 0.929 . S
C1864 C1866 1.378 . S
C1864 C1868 1.350 . S
C1865 C1868 1.463 . S
C1865 C1870 1.350 . S
C1865 N1873 1.427 . S
C1866 H1857 0.930 . S
C1866 C1864 1.378 . S
C1866 C1867 1.367 . S
C1867 C1866 1.367 . S
C1867 C1869 1.433 . S
C1868 C1864 1.350 . S
C1868 C1865 1.463 . S
C1868 N1872 1.427 . S
C1869 H1859 0.929 . S
C1869 C1867 1.433 . S
C1869 N1872 1.384 . S
C1870 H1861 0.929 . S
C1870 C1862 1.378 . S
C1870 C1865 1.350 . S
C1871 H1858 0.929 . S
C1871 C1863 1.433 . S
C1871 N1873 1.384 . S
N1872 C1868 1.427 . S
N1872 C1869 1.384 . S
N1873 C1865 1.427 . S
N1873 C1871 1.384 . S
H1874 C1880 0.930 . S
H1875 C1884 0.930 . S
H1876 C1889 0.929 . S
H1877 C1887 0.929 1_545 S
H1878 C1882 0.929 . S
H1879 C1888 0.929 . S
C1880 H1874 0.930 . S
C1880 C1881 1.367 . S
C1880 C1888 1.378 . S
C1881 C1880 1.367 . S
C1881 C1889 1.433 . S
C1882 H1878 0.929 . S
C1882 C1884 1.378 . S
C1882 C1886 1.350 . S
C1883 C1886 1.463 . S
C1883 C1888 1.350 . S
C1883 N1891 1.427 . S
C1884 H1875 0.930 . S
C1884 C1882 1.378 . S
C1884 C1885 1.367 . S
C1885 C1884 1.367 . S
C1885 C1887 1.433 . S
C1886 C1882 1.350 . S
C1886 C1883 1.463 . S
C1886 N1890 1.427 . S
C1887 H1877 0.929 1_565 S
C1887 C1885 1.433 . S
C1887 N1890 1.384 . S
C1888 H1879 0.929 . S
C1888 C1880 1.378 . S
C1888 C1883 1.350 . S
C1889 H1876 0.929 . S
C1889 C1881 1.433 . S
C1889 N1891 1.384 . S
N1890 C1886 1.427 . S
N1890 C1887 1.384 . S
N1891 C1883 1.427 . S
N1891 C1889 1.384 . S
H1892 C1898 0.930 . S
H1893 C1902 0.930 . S
H1894 C1907 0.929 . S
H1895 C1905 0.929 . S
H1896 C1900 0.929 . S
H1897 C1906 0.929 . S
C1898 H1892 0.930 . S
C1898 C1899 1.367 . S
C1898 C1906 1.378 . S
C1899 C1898 1.367 . S
C1899 C1907 1.433 . S
C1900 H1896 0.929 . S
C1900 C1902 1.378 . S
C1900 C1904 1.350 . S
C1901 C1904 1.463 . S
C1901 C1906 1.350 . S
C1901 N1909 1.427 . S
C1902 H1893 0.930 . S
C1902 C1900 1.378 . S
C1902 C1903 1.367 . S
C1903 C1902 1.367 . S
C1903 C1905 1.433 . S
C1904 C1900 1.350 . S
C1904 C1901 1.463 . S
C1904 N1908 1.427 . S
C1905 H1895 0.929 . S
C1905 C1903 1.433 . S
C1905 N1908 1.384 . S
C1906 H1897 0.929 . S
C1906 C1898 1.378 . S
C1906 C1901 1.350 . S
C1907 H1894 0.929 . S
C1907 C1899 1.433 . S
C1907 N1909 1.384 . S
N1908 C1904 1.427 . S
N1908 C1905 1.384 . S
N1909 C1901 1.427 . S
N1909 C1907 1.384 . S
H1910 C1916 0.930 . S
H1911 C1920 0.930 . S
H1912 C1925 0.929 . S
H1913 C1923 0.929 1_565 S
H1914 C1918 0.929 . S
H1915 C1924 0.929 . S
C1916 H1910 0.930 . S
C1916 C1917 1.367 . S
C1916 C1924 1.378 . S
C1917 C1916 1.367 . S
C1917 C1925 1.433 . S
C1918 H1914 0.929 . S
C1918 C1920 1.378 . S
C1918 C1922 1.350 . S
C1919 C1922 1.463 . S
C1919 C1924 1.350 . S
C1919 N1927 1.427 . S
C1920 H1911 0.930 . S
C1920 C1918 1.378 . S
C1920 C1921 1.367 . S
C1921 C1920 1.367 . S
C1921 C1923 1.433 . S
C1922 C1918 1.350 . S
C1922 C1919 1.463 . S
C1922 N1926 1.427 . S
C1923 H1913 0.929 1_545 S
C1923 C1921 1.433 . S
C1923 N1926 1.384 . S
C1924 H1915 0.929 . S
C1924 C1916 1.378 . S
C1924 C1919 1.350 . S
C1925 H1912 0.929 . S
C1925 C1917 1.433 . S
C1925 N1927 1.384 . S
N1926 C1922 1.427 . S
N1926 C1923 1.384 . S
N1927 C1919 1.427 . S
N1927 C1925 1.384 . S
H1928 C1934 0.930 . S
H1929 C1938 0.930 . S
H1930 C1943 0.929 . S
H1931 C1941 0.929 . S
H1932 C1936 0.929 . S
H1933 C1942 0.929 . S
C1934 H1928 0.930 . S
C1934 C1935 1.367 . S
C1934 C1942 1.378 . S
C1935 C1934 1.367 . S
C1935 C1943 1.433 . S
C1936 H1932 0.929 . S
C1936 C1938 1.378 . S
C1936 C1940 1.350 . S
C1937 C1940 1.463 . S
C1937 C1942 1.350 . S
C1937 N1945 1.427 . S
C1938 H1929 0.930 . S
C1938 C1936 1.378 . S
C1938 C1939 1.367 . S
C1939 C1938 1.367 . S
C1939 C1941 1.433 . S
C1940 C1936 1.350 . S
C1940 C1937 1.463 . S
C1940 N1944 1.427 . S
C1941 H1931 0.929 . S
C1941 C1939 1.433 . S
C1941 N1944 1.384 . S
C1942 H1933 0.929 . S
C1942 C1934 1.378 . S
C1942 C1937 1.350 . S
C1943 H1930 0.929 . S
C1943 C1935 1.433 . S
C1943 N1945 1.384 . S
N1944 C1940 1.427 . S
N1944 C1941 1.384 . S
N1945 C1937 1.427 . S
N1945 C1943 1.384 . S
H1946 C1952 0.930 . S
H1947 C1956 0.930 . S
H1948 C1961 0.929 . S
H1949 C1959 0.929 . S
H1950 C1954 0.929 . S
H1951 C1960 0.929 . S
C1952 H1946 0.930 . S
C1952 C1953 1.367 1_556 S
C1952 C1960 1.378 . S
C1953 C1952 1.367 1_554 S
C1953 C1961 1.433 . S
C1954 H1950 0.929 . S
C1954 C1956 1.378 . S
C1954 C1958 1.350 . S
C1955 C1958 1.463 . S
C1955 C1960 1.350 1_554 S
C1955 N1963 1.427 . S
C1956 H1947 0.930 . S
C1956 C1954 1.378 . S
C1956 C1957 1.367 1_554 S
C1957 C1956 1.367 1_556 S
C1957 C1959 1.433 . S
C1958 C1954 1.350 . S
C1958 C1955 1.463 . S
C1958 N1962 1.427 1_554 S
C1959 H1949 0.929 . S
C1959 C1957 1.433 . S
C1959 N1962 1.384 . S
C1960 H1951 0.929 . S
C1960 C1952 1.378 . S
C1960 C1955 1.350 1_556 S
C1961 H1948 0.929 . S
C1961 C1953 1.433 . S
C1961 N1963 1.384 . S
N1962 C1958 1.427 1_556 S
N1962 C1959 1.384 . S
N1963 C1955 1.427 . S
N1963 C1961 1.384 . S
H1964 C1970 0.930 . S
H1965 C1974 0.930 . S
H1966 C1979 0.929 . S
H1967 C1977 0.929 . S
H1968 C1972 0.929 . S
H1969 C1978 0.929 . S
C1970 H1964 0.930 . S
C1970 C1971 1.367 . S
C1970 C1978 1.378 . S
C1971 C1970 1.367 . S
C1971 C1979 1.433 . S
C1972 H1968 0.929 . S
C1972 C1974 1.378 . S
C1972 C1976 1.350 . S
C1973 C1976 1.463 . S
C1973 C1978 1.350 . S
C1973 N1981 1.427 . S
C1974 H1965 0.930 . S
C1974 C1972 1.378 . S
C1974 C1975 1.367 . S
C1975 C1974 1.367 . S
C1975 C1977 1.433 . S
C1976 C1972 1.350 . S
C1976 C1973 1.463 . S
C1976 N1980 1.427 . S
C1977 H1967 0.929 . S
C1977 C1975 1.433 . S
C1977 N1980 1.384 . S
C1978 H1969 0.929 . S
C1978 C1970 1.378 . S
C1978 C1973 1.350 . S
C1979 H1966 0.929 . S
C1979 C1971 1.433 . S
C1979 N1981 1.384 . S
N1980 C1976 1.427 . S
N1980 C1977 1.384 . S
N1981 C1973 1.427 . S
N1981 C1979 1.384 . S
H1982 C1988 0.930 . S
H1983 C1992 0.930 . S
H1984 C1997 0.929 . S
H1985 C1995 0.929 . S
H1986 C1990 0.929 . S
H1987 C1996 0.929 . S
C1988 H1982 0.930 . S
C1988 C1989 1.367 . S
C1988 C1996 1.378 . S
C1989 C1988 1.367 . S
C1989 C1997 1.433 . S
C1990 H1986 0.929 . S
C1990 C1992 1.378 . S
C1990 C1994 1.350 . S
C1991 C1994 1.463 . S
C1991 C1996 1.350 . S
C1991 N1999 1.427 . S
C1992 H1983 0.930 . S
C1992 C1990 1.378 . S
C1992 C1993 1.367 . S
C1993 C1992 1.367 . S
C1993 C1995 1.433 . S
C1994 C1990 1.350 . S
C1994 C1991 1.463 . S
C1994 N1998 1.427 . S
C1995 H1985 0.929 . S
C1995 C1993 1.433 . S
C1995 N1998 1.384 . S
C1996 H1987 0.929 . S
C1996 C1988 1.378 . S
C1996 C1991 1.350 . S
C1997 H1984 0.929 . S
C1997 C1989 1.433 . S
C1997 N1999 1.384 . S
N1998 C1994 1.427 . S
N1998 C1995 1.384 . S
N1999 C1991 1.427 . S
N1999 C1997 1.384 . S
H2000 C2006 0.930 . S
H2001 C2010 0.930 . S
H2002 C2015 0.929 . S
H2003 C2013 0.929 . S
H2004 C2008 0.929 . S
H2005 C2014 0.929 . S
C2006 H2000 0.930 . S
C2006 C2007 1.367 . S
C2006 C2014 1.378 . S
C2007 C2006 1.367 . S
C2007 C2015 1.433 . S
C2008 H2004 0.929 . S
C2008 C2010 1.378 . S
C2008 C2012 1.350 . S
C2009 C2012 1.463 . S
C2009 C2014 1.350 . S
C2009 N2017 1.427 . S
C2010 H2001 0.930 . S
C2010 C2008 1.378 . S
C2010 C2011 1.367 . S
C2011 C2010 1.367 . S
C2011 C2013 1.433 . S
C2012 C2008 1.350 . S
C2012 C2009 1.463 . S
C2012 N2016 1.427 . S
C2013 H2003 0.929 . S
C2013 C2011 1.433 . S
C2013 N2016 1.384 . S
C2014 H2005 0.929 . S
C2014 C2006 1.378 . S
C2014 C2009 1.350 . S
C2015 H2002 0.929 . S
C2015 C2007 1.433 . S
C2015 N2017 1.384 . S
N2016 C2012 1.427 . S
N2016 C2013 1.384 . S
N2017 C2009 1.427 . S
N2017 C2015 1.384 . S
H2018 C2024 0.930 . S
H2019 C2028 0.930 . S
H2020 C2033 0.929 . S
H2021 C2031 0.929 . S
H2022 C2026 0.929 . S
H2023 C2032 0.929 . S
C2024 H2018 0.930 . S
C2024 C2025 1.367 . S
C2024 C2032 1.378 . S
C2025 C2024 1.367 . S
C2025 C2033 1.433 . S
C2026 H2022 0.929 . S
C2026 C2028 1.378 . S
C2026 C2030 1.350 . S
C2027 C2030 1.463 . S
C2027 C2032 1.350 . S
C2027 N2035 1.427 . S
C2028 H2019 0.930 . S
C2028 C2026 1.378 . S
C2028 C2029 1.367 . S
C2029 C2028 1.367 . S
C2029 C2031 1.433 . S
C2030 C2026 1.350 . S
C2030 C2027 1.463 . S
C2030 N2034 1.427 . S
C2031 H2021 0.929 . S
C2031 C2029 1.433 . S
C2031 N2034 1.384 . S
C2032 H2023 0.929 . S
C2032 C2024 1.378 . S
C2032 C2027 1.350 . S
C2033 H2020 0.929 . S
C2033 C2025 1.433 . S
C2033 N2035 1.384 . S
N2034 C2030 1.427 . S
N2034 C2031 1.384 . S
N2035 C2027 1.427 . S
N2035 C2033 1.384 . S
H2036 C2042 0.930 . S
H2037 C2046 0.930 1_554 S
H2038 C2051 0.929 . S
H2039 C2049 0.929 . S
H2040 C2044 0.929 . S
H2041 C2050 0.929 . S
C2042 H2036 0.930 . S
C2042 C2043 1.367 . S
C2042 C2050 1.378 . S
C2043 C2042 1.367 . S
C2043 C2051 1.433 1_455 S
C2044 H2040 0.929 . S
C2044 C2046 1.378 . S
C2044 C2048 1.350 1_655 S
C2045 C2048 1.463 . S
C2045 C2050 1.350 . S
C2045 N2053 1.427 1_455 S
C2046 H2037 0.930 1_556 S
C2046 C2044 1.378 . S
C2046 C2047 1.367 . S
C2047 C2046 1.367 . S
C2047 C2049 1.433 1_655 S
C2048 C2044 1.350 1_455 S
C2048 C2045 1.463 . S
C2048 N2052 1.428 . S
C2049 H2039 0.929 . S
C2049 C2047 1.433 1_455 S
C2049 N2052 1.384 . S
C2050 H2041 0.929 . S
C2050 C2042 1.378 . S
C2050 C2045 1.350 . S
C2051 H2038 0.929 . S
C2051 C2043 1.433 1_655 S
C2051 N2053 1.384 . S
N2052 C2048 1.428 . S
N2052 C2049 1.384 . S
N2053 C2045 1.427 1_655 S
N2053 C2051 1.384 . S
H2054 C2060 0.930 . S
H2055 C2064 0.930 . S
H2056 C2069 0.929 . S
H2057 C2067 0.929 . S
H2058 C2062 0.929 . S
H2059 C2068 0.929 . S
C2060 H2054 0.930 . S
C2060 C2061 1.367 . S
C2060 C2068 1.378 . S
C2061 C2060 1.367 . S
C2061 C2069 1.433 . S
C2062 H2058 0.929 . S
C2062 C2064 1.378 . S
C2062 C2066 1.350 . S
C2063 C2066 1.463 . S
C2063 C2068 1.350 . S
C2063 N2071 1.427 . S
C2064 H2055 0.930 . S
C2064 C2062 1.378 . S
C2064 C2065 1.367 . S
C2065 C2064 1.367 . S
C2065 C2067 1.433 . S
C2066 C2062 1.350 . S
C2066 C2063 1.463 . S
C2066 N2070 1.427 . S
C2067 H2057 0.929 . S
C2067 C2065 1.433 . S
C2067 N2070 1.384 . S
C2068 H2059 0.929 . S
C2068 C2060 1.378 . S
C2068 C2063 1.350 . S
C2069 H2056 0.929 . S
C2069 C2061 1.433 . S
C2069 N2071 1.384 . S
N2070 C2066 1.427 . S
N2070 C2067 1.384 . S
N2071 C2063 1.427 . S
N2071 C2069 1.384 . S
H2072 C2078 0.930 . S
H2073 C2082 0.930 . S
H2074 C2087 0.929 . S
H2075 C2085 0.929 . S
H2076 C2080 0.929 . S
H2077 C2086 0.929 . S
C2078 H2072 0.930 . S
C2078 C2079 1.367 . S
C2078 C2086 1.378 . S
C2079 C2078 1.367 . S
C2079 C2087 1.433 . S
C2080 H2076 0.929 . S
C2080 C2082 1.378 . S
C2080 C2084 1.350 . S
C2081 C2084 1.463 . S
C2081 C2086 1.350 . S
C2081 N2089 1.427 . S
C2082 H2073 0.930 . S
C2082 C2080 1.378 . S
C2082 C2083 1.367 . S
C2083 C2082 1.367 . S
C2083 C2085 1.433 . S
C2084 C2080 1.350 . S
C2084 C2081 1.463 . S
C2084 N2088 1.427 . S
C2085 H2075 0.929 . S
C2085 C2083 1.433 . S
C2085 N2088 1.384 . S
C2086 H2077 0.929 . S
C2086 C2078 1.378 . S
C2086 C2081 1.350 . S
C2087 H2074 0.929 . S
C2087 C2079 1.433 . S
C2087 N2089 1.384 . S
N2088 C2084 1.427 . S
N2088 C2085 1.384 . S
N2089 C2081 1.427 . S
N2089 C2087 1.384 . S
H2090 C2096 0.930 . S
H2091 C2100 0.930 . S
H2092 C2105 0.929 . S
H2093 C2103 0.929 . S
H2094 C2098 0.929 . S
H2095 C2104 0.929 . S
C2096 H2090 0.930 . S
C2096 C2097 1.367 . S
C2096 C2104 1.378 . S
C2097 C2096 1.367 . S
C2097 C2105 1.433 . S
C2098 H2094 0.929 . S
C2098 C2100 1.378 . S
C2098 C2102 1.350 . S
C2099 C2102 1.463 . S
C2099 C2104 1.350 . S
C2099 N2107 1.427 . S
C2100 H2091 0.930 . S
C2100 C2098 1.378 . S
C2100 C2101 1.367 . S
C2101 C2100 1.367 . S
C2101 C2103 1.433 . S
C2102 C2098 1.350 . S
C2102 C2099 1.463 . S
C2102 N2106 1.427 . S
C2103 H2093 0.929 . S
C2103 C2101 1.433 . S
C2103 N2106 1.384 . S
C2104 H2095 0.929 . S
C2104 C2096 1.378 . S
C2104 C2099 1.350 . S
C2105 H2092 0.929 . S
C2105 C2097 1.433 . S
C2105 N2107 1.384 . S
N2106 C2102 1.427 . S
N2106 C2103 1.384 . S
N2107 C2099 1.427 . S
N2107 C2105 1.384 . S
H2108 C2114 0.930 . S
H2109 C2118 0.930 . S
H2110 C2123 0.929 . S
H2111 C2121 0.929 . S
H2112 C2116 0.929 . S
H2113 C2122 0.929 . S
C2114 H2108 0.930 . S
C2114 C2115 1.367 . S
C2114 C2122 1.378 . S
C2115 C2114 1.367 . S
C2115 C2123 1.433 . S
C2116 H2112 0.929 . S
C2116 C2118 1.378 . S
C2116 C2120 1.350 . S
C2117 C2120 1.463 1_455 S
C2117 C2122 1.350 . S
C2117 N2125 1.427 . S
C2118 H2109 0.930 . S
C2118 C2116 1.378 . S
C2118 C2119 1.367 . S
C2119 C2118 1.367 . S
C2119 C2121 1.433 . S
C2120 C2116 1.350 . S
C2120 C2117 1.463 1_655 S
C2120 N2124 1.427 . S
C2121 H2111 0.929 . S
C2121 C2119 1.433 . S
C2121 N2124 1.384 . S
C2122 H2113 0.929 . S
C2122 C2114 1.378 . S
C2122 C2117 1.350 . S
C2123 H2110 0.929 . S
C2123 C2115 1.433 . S
C2123 N2125 1.384 . S
N2124 C2120 1.427 . S
N2124 C2121 1.384 . S
N2125 C2117 1.427 . S
N2125 C2123 1.384 . S
H2126 C2132 0.930 . S
H2127 C2136 0.930 . S
H2128 C2141 0.929 . S
H2129 C2139 0.929 . S
H2130 C2134 0.929 . S
H2131 C2140 0.929 . S
C2132 H2126 0.930 . S
C2132 C2133 1.367 . S
C2132 C2140 1.378 . S
C2133 C2132 1.367 . S
C2133 C2141 1.433 . S
C2134 H2130 0.929 . S
C2134 C2136 1.378 . S
C2134 C2138 1.350 . S
C2135 C2138 1.463 . S
C2135 C2140 1.350 . S
C2135 N2143 1.427 . S
C2136 H2127 0.930 . S
C2136 C2134 1.378 . S
C2136 C2137 1.367 . S
C2137 C2136 1.367 . S
C2137 C2139 1.433 . S
C2138 C2134 1.350 . S
C2138 C2135 1.463 . S
C2138 N2142 1.427 . S
C2139 H2129 0.929 . S
C2139 C2137 1.433 . S
C2139 N2142 1.384 . S
C2140 H2131 0.929 . S
C2140 C2132 1.378 . S
C2140 C2135 1.350 . S
C2141 H2128 0.929 . S
C2141 C2133 1.433 . S
C2141 N2143 1.384 . S
N2142 C2138 1.427 . S
N2142 C2139 1.384 . S
N2143 C2135 1.427 . S
N2143 C2141 1.384 . S
H2144 C2150 0.930 . S
H2145 C2154 0.930 . S
H2146 C2159 0.929 . S
H2147 C2157 0.929 . S
H2148 C2152 0.929 . S
H2149 C2158 0.929 . S
C2150 H2144 0.930 . S
C2150 C2151 1.367 . S
C2150 C2158 1.378 . S
C2151 C2150 1.367 . S
C2151 C2159 1.433 . S
C2152 H2148 0.929 . S
C2152 C2154 1.378 . S
C2152 C2156 1.350 . S
C2153 C2156 1.463 . S
C2153 C2158 1.350 . S
C2153 N2161 1.427 . S
C2154 H2145 0.930 . S
C2154 C2152 1.378 . S
C2154 C2155 1.367 . S
C2155 C2154 1.367 . S
C2155 C2157 1.433 . S
C2156 C2152 1.350 . S
C2156 C2153 1.463 . S
C2156 N2160 1.427 . S
C2157 H2147 0.929 . S
C2157 C2155 1.433 . S
C2157 N2160 1.384 . S
C2158 H2149 0.929 . S
C2158 C2150 1.378 . S
C2158 C2153 1.350 . S
C2159 H2146 0.929 . S
C2159 C2151 1.433 . S
C2159 N2161 1.384 . S
N2160 C2156 1.427 . S
N2160 C2157 1.384 . S
N2161 C2153 1.427 . S
N2161 C2159 1.384 . S
H2162 C2168 0.930 . S
H2163 C2172 0.930 . S
H2164 C2177 0.929 . S
H2165 C2175 0.929 . S
H2166 C2170 0.929 . S
H2167 C2176 0.929 . S
C2168 H2162 0.930 . S
C2168 C2169 1.367 . S
C2168 C2176 1.378 . S
C2169 C2168 1.367 . S
C2169 C2177 1.433 . S
C2170 H2166 0.929 . S
C2170 C2172 1.378 . S
C2170 C2174 1.350 . S
C2171 C2174 1.463 . S
C2171 C2176 1.350 . S
C2171 N2179 1.427 . S
C2172 H2163 0.930 . S
C2172 C2170 1.378 . S
C2172 C2173 1.367 . S
C2173 C2172 1.367 . S
C2173 C2175 1.433 . S
C2174 C2170 1.350 . S
C2174 C2171 1.463 . S
C2174 N2178 1.427 . S
C2175 H2165 0.929 . S
C2175 C2173 1.433 . S
C2175 N2178 1.384 . S
C2176 H2167 0.929 . S
C2176 C2168 1.378 . S
C2176 C2171 1.350 . S
C2177 H2164 0.929 . S
C2177 C2169 1.433 . S
C2177 N2179 1.384 . S
N2178 C2174 1.427 . S
N2178 C2175 1.384 . S
N2179 C2171 1.427 . S
N2179 C2177 1.384 . S
H2180 C2186 0.930 . S
H2181 C2190 0.930 . S
H2182 C2195 0.929 . S
H2183 C2193 0.929 . S
H2184 C2188 0.929 . S
H2185 C2194 0.929 . S
C2186 H2180 0.930 . S
C2186 C2187 1.367 . S
C2186 C2194 1.378 . S
C2187 C2186 1.367 . S
C2187 C2195 1.433 . S
C2188 H2184 0.929 . S
C2188 C2190 1.378 . S
C2188 C2192 1.350 . S
C2189 C2192 1.463 . S
C2189 C2194 1.350 . S
C2189 N2197 1.427 . S
C2190 H2181 0.930 . S
C2190 C2188 1.378 . S
C2190 C2191 1.367 . S
C2191 C2190 1.367 . S
C2191 C2193 1.433 . S
C2192 C2188 1.350 . S
C2192 C2189 1.463 . S
C2192 N2196 1.427 . S
C2193 H2183 0.929 . S
C2193 C2191 1.433 . S
C2193 N2196 1.384 . S
C2194 H2185 0.929 . S
C2194 C2186 1.378 . S
C2194 C2189 1.350 . S
C2195 H2182 0.929 . S
C2195 C2187 1.433 . S
C2195 N2197 1.384 . S
N2196 C2192 1.427 . S
N2196 C2193 1.384 . S
N2197 C2189 1.427 . S
N2197 C2195 1.384 . S
H2198 C2204 0.930 . S
H2199 C2208 0.930 . S
H2200 C2213 0.929 . S
H2201 C2211 0.929 . S
H2202 C2206 0.929 . S
H2203 C2212 0.929 . S
C2204 H2198 0.930 . S
C2204 C2205 1.367 . S
C2204 C2212 1.378 . S
C2205 C2204 1.367 . S
C2205 C2213 1.433 . S
C2206 H2202 0.929 . S
C2206 C2208 1.378 . S
C2206 C2210 1.350 . S
C2207 C2210 1.463 . S
C2207 C2212 1.350 . S
C2207 N2215 1.427 . S
C2208 H2199 0.930 . S
C2208 C2206 1.378 . S
C2208 C2209 1.367 . S
C2209 C2208 1.367 . S
C2209 C2211 1.433 . S
C2210 C2206 1.350 . S
C2210 C2207 1.463 . S
C2210 N2214 1.427 . S
C2211 H2201 0.929 . S
C2211 C2209 1.433 . S
C2211 N2214 1.384 . S
C2212 H2203 0.929 . S
C2212 C2204 1.378 . S
C2212 C2207 1.350 . S
C2213 H2200 0.929 . S
C2213 C2205 1.433 . S
C2213 N2215 1.384 . S
N2214 C2210 1.427 . S
N2214 C2211 1.384 . S
N2215 C2207 1.427 . S
N2215 C2213 1.384 . S
H2216 C2222 0.930 . S
H2217 C2226 0.930 . S
H2218 C2231 0.929 . S
H2219 C2229 0.929 . S
H2220 C2224 0.929 . S
H2221 C2230 0.929 . S
C2222 H2216 0.930 . S
C2222 C2223 1.367 . S
C2222 C2230 1.378 . S
C2223 C2222 1.367 . S
C2223 C2231 1.433 . S
C2224 H2220 0.929 . S
C2224 C2226 1.378 . S
C2224 C2228 1.350 . S
C2225 C2228 1.463 . S
C2225 C2230 1.350 . S
C2225 N2233 1.427 . S
C2226 H2217 0.930 . S
C2226 C2224 1.378 . S
C2226 C2227 1.367 . S
C2227 C2226 1.367 . S
C2227 C2229 1.433 . S
C2228 C2224 1.350 . S
C2228 C2225 1.463 . S
C2228 N2232 1.427 . S
C2229 H2219 0.929 . S
C2229 C2227 1.433 . S
C2229 N2232 1.384 . S
C2230 H2221 0.929 . S
C2230 C2222 1.378 . S
C2230 C2225 1.350 . S
C2231 H2218 0.929 . S
C2231 C2223 1.433 . S
C2231 N2233 1.384 . S
N2232 C2228 1.427 . S
N2232 C2229 1.384 . S
N2233 C2225 1.427 . S
N2233 C2231 1.384 . S
H2234 C2240 0.930 . S
H2235 C2244 0.930 . S
H2236 C2249 0.929 . S
H2237 C2247 0.929 . S
H2238 C2242 0.929 . S
H2239 C2248 0.929 . S
C2240 H2234 0.930 . S
C2240 C2241 1.367 . S
C2240 C2248 1.378 . S
C2241 C2240 1.367 . S
C2241 C2249 1.433 . S
C2242 H2238 0.929 . S
C2242 C2244 1.378 . S
C2242 C2246 1.350 . S
C2243 C2246 1.463 . S
C2243 C2248 1.350 . S
C2243 N2251 1.427 . S
C2244 H2235 0.930 . S
C2244 C2242 1.378 . S
C2244 C2245 1.367 . S
C2245 C2244 1.367 . S
C2245 C2247 1.433 . S
C2246 C2242 1.350 . S
C2246 C2243 1.463 . S
C2246 N2250 1.427 . S
C2247 H2237 0.929 . S
C2247 C2245 1.433 . S
C2247 N2250 1.384 . S
C2248 H2239 0.929 . S
C2248 C2240 1.378 . S
C2248 C2243 1.350 . S
C2249 H2236 0.929 . S
C2249 C2241 1.433 . S
C2249 N2251 1.384 . S
N2250 C2246 1.427 . S
N2250 C2247 1.384 . S
N2251 C2243 1.427 . S
N2251 C2249 1.384 . S
H2252 C2258 0.930 . S
H2253 C2262 0.930 . S
H2254 C2267 0.929 . S
H2255 C2265 0.929 . S
H2256 C2260 0.929 . S
H2257 C2266 0.929 . S
C2258 H2252 0.930 . S
C2258 C2259 1.367 . S
C2258 C2266 1.378 . S
C2259 C2258 1.367 . S
C2259 C2267 1.433 . S
C2260 H2256 0.929 . S
C2260 C2262 1.378 . S
C2260 C2264 1.350 . S
C2261 C2264 1.463 . S
C2261 C2266 1.350 . S
C2261 N2269 1.427 . S
C2262 H2253 0.930 . S
C2262 C2260 1.378 . S
C2262 C2263 1.367 . S
C2263 C2262 1.367 . S
C2263 C2265 1.433 . S
C2264 C2260 1.350 . S
C2264 C2261 1.463 . S
C2264 N2268 1.427 . S
C2265 H2255 0.929 . S
C2265 C2263 1.433 . S
C2265 N2268 1.384 . S
C2266 H2257 0.929 . S
C2266 C2258 1.378 . S
C2266 C2261 1.350 . S
C2267 H2254 0.929 . S
C2267 C2259 1.433 . S
C2267 N2269 1.384 . S
N2268 C2264 1.427 . S
N2268 C2265 1.384 . S
N2269 C2261 1.427 . S
N2269 C2267 1.384 . S
H2270 C2276 0.930 . S
H2271 C2280 0.930 . S
H2272 C2285 0.929 . S
H2273 C2283 0.929 . S
H2274 C2278 0.929 . S
H2275 C2284 0.929 . S
C2276 H2270 0.930 . S
C2276 C2277 1.367 . S
C2276 C2284 1.378 . S
C2277 C2276 1.367 . S
C2277 C2285 1.433 . S
C2278 H2274 0.929 . S
C2278 C2280 1.378 . S
C2278 C2282 1.350 . S
C2279 C2282 1.463 . S
C2279 C2284 1.350 . S
C2279 N2287 1.427 . S
C2280 H2271 0.930 . S
C2280 C2278 1.378 . S
C2280 C2281 1.367 . S
C2281 C2280 1.367 . S
C2281 C2283 1.433 . S
C2282 C2278 1.350 . S
C2282 C2279 1.463 . S
C2282 N2286 1.427 . S
C2283 H2273 0.929 . S
C2283 C2281 1.433 . S
C2283 N2286 1.384 . S
C2284 H2275 0.929 . S
C2284 C2276 1.378 . S
C2284 C2279 1.350 . S
C2285 H2272 0.929 . S
C2285 C2277 1.433 . S
C2285 N2287 1.384 . S
N2286 C2282 1.427 . S
N2286 C2283 1.384 . S
N2287 C2279 1.427 . S
N2287 C2285 1.384 . S
H2288 C2294 0.930 . S
H2289 C2298 0.930 . S
H2290 C2303 0.929 . S
H2291 C2301 0.929 . S
H2292 C2296 0.929 . S
H2293 C2302 0.929 . S
C2294 H2288 0.930 . S
C2294 C2295 1.367 . S
C2294 C2302 1.378 . S
C2295 C2294 1.367 . S
C2295 C2303 1.433 . S
C2296 H2292 0.929 . S
C2296 C2298 1.378 . S
C2296 C2300 1.350 . S
C2297 C2300 1.463 . S
C2297 C2302 1.350 . S
C2297 N2305 1.427 . S
C2298 H2289 0.930 . S
C2298 C2296 1.378 . S
C2298 C2299 1.367 . S
C2299 C2298 1.367 . S
C2299 C2301 1.433 . S
C2300 C2296 1.350 . S
C2300 C2297 1.463 . S
C2300 N2304 1.427 . S
C2301 H2291 0.929 . S
C2301 C2299 1.433 . S
C2301 N2304 1.384 . S
C2302 H2293 0.929 . S
C2302 C2294 1.378 . S
C2302 C2297 1.350 . S
C2303 H2290 0.929 . S
C2303 C2295 1.433 . S
C2303 N2305 1.384 . S
N2304 C2300 1.427 . S
N2304 C2301 1.384 . S
N2305 C2297 1.427 . S
N2305 C2303 1.384 . S
H2306 C2312 0.930 . S
H2307 C2316 0.930 . S
H2308 C2321 0.929 . S
H2309 C2319 0.929 . S
H2310 C2314 0.929 . S
H2311 C2320 0.929 . S
C2312 H2306 0.930 . S
C2312 C2313 1.367 . S
C2312 C2320 1.378 . S
C2313 C2312 1.367 . S
C2313 C2321 1.433 . S
C2314 H2310 0.929 . S
C2314 C2316 1.378 . S
C2314 C2318 1.350 . S
C2315 C2318 1.463 . S
C2315 C2320 1.350 . S
C2315 N2323 1.427 . S
C2316 H2307 0.930 . S
C2316 C2314 1.378 . S
C2316 C2317 1.367 . S
C2317 C2316 1.367 . S
C2317 C2319 1.433 . S
C2318 C2314 1.350 . S
C2318 C2315 1.463 . S
C2318 N2322 1.427 . S
C2319 H2309 0.929 . S
C2319 C2317 1.433 . S
C2319 N2322 1.384 . S
C2320 H2311 0.929 . S
C2320 C2312 1.378 . S
C2320 C2315 1.350 . S
C2321 H2308 0.929 . S
C2321 C2313 1.433 . S
C2321 N2323 1.384 . S
N2322 C2318 1.427 . S
N2322 C2319 1.384 . S
N2323 C2315 1.427 . S
N2323 C2321 1.384 . S
H2324 C2330 0.930 . S
H2325 C2334 0.930 . S
H2326 C2339 0.929 . S
H2327 C2337 0.929 . S
H2328 C2332 0.929 . S
H2329 C2338 0.929 . S
C2330 H2324 0.930 . S
C2330 C2331 1.367 . S
C2330 C2338 1.378 . S
C2331 C2330 1.367 . S
C2331 C2339 1.433 . S
C2332 H2328 0.929 . S
C2332 C2334 1.378 . S
C2332 C2336 1.350 . S
C2333 C2336 1.463 . S
C2333 C2338 1.350 . S
C2333 N2341 1.427 . S
C2334 H2325 0.930 . S
C2334 C2332 1.378 . S
C2334 C2335 1.367 . S
C2335 C2334 1.367 . S
C2335 C2337 1.433 . S
C2336 C2332 1.350 . S
C2336 C2333 1.463 . S
C2336 N2340 1.427 . S
C2337 H2327 0.929 . S
C2337 C2335 1.433 . S
C2337 N2340 1.384 . S
C2338 H2329 0.929 . S
C2338 C2330 1.378 . S
C2338 C2333 1.350 . S
C2339 H2326 0.929 . S
C2339 C2331 1.433 . S
C2339 N2341 1.384 . S
N2340 C2336 1.427 . S
N2340 C2337 1.384 . S
N2341 C2333 1.427 . S
N2341 C2339 1.384 . S
H2342 C2348 0.930 . S
H2343 C2352 0.930 . S
H2344 C2357 0.929 . S
H2345 C2355 0.929 . S
H2346 C2350 0.929 . S
H2347 C2356 0.929 . S
C2348 H2342 0.930 . S
C2348 C2349 1.368 . S
C2348 C2356 1.378 . S
C2349 C2348 1.368 . S
C2349 C2357 1.431 1_554 S
C2350 H2346 0.929 . S
C2350 C2352 1.378 . S
C2350 C2354 1.350 . S
C2351 C2354 1.463 . S
C2351 C2356 1.350 1_556 S
C2351 N2359 1.427 . S
C2352 H2343 0.930 . S
C2352 C2350 1.378 . S
C2352 C2353 1.367 . S
C2353 C2352 1.367 . S
C2353 C2355 1.433 1_556 S
C2354 C2350 1.350 . S
C2354 C2351 1.463 . S
C2354 N2358 1.427 1_556 S
C2355 H2345 0.929 . S
C2355 C2353 1.433 1_554 S
C2355 N2358 1.384 . S
C2356 H2347 0.929 . S
C2356 C2348 1.378 . S
C2356 C2351 1.350 1_554 S
C2357 H2344 0.929 . S
C2357 C2349 1.431 1_556 S
C2357 N2359 1.384 . S
N2358 C2354 1.427 1_554 S
N2358 C2355 1.384 . S
N2359 C2351 1.427 . S
N2359 C2357 1.384 . S
H2360 C2366 0.930 . S
H2361 C2370 0.930 . S
H2362 C2375 0.929 . S
H2363 C2373 0.929 . S
H2364 C2368 0.929 . S
H2365 C2374 0.929 . S
C2366 H2360 0.930 . S
C2366 C2367 1.367 . S
C2366 C2374 1.378 . S
C2367 C2366 1.367 . S
C2367 C2375 1.433 . S
C2368 H2364 0.929 . S
C2368 C2370 1.378 . S
C2368 C2372 1.350 . S
C2369 C2372 1.463 . S
C2369 C2374 1.350 . S
C2369 N2377 1.427 . S
C2370 H2361 0.930 . S
C2370 C2368 1.378 . S
C2370 C2371 1.367 . S
C2371 C2370 1.367 . S
C2371 C2373 1.433 . S
C2372 C2368 1.350 . S
C2372 C2369 1.463 . S
C2372 N2376 1.427 . S
C2373 H2363 0.929 . S
C2373 C2371 1.433 . S
C2373 N2376 1.384 . S
C2374 H2365 0.929 . S
C2374 C2366 1.378 . S
C2374 C2369 1.350 . S
C2375 H2362 0.929 . S
C2375 C2367 1.433 . S
C2375 N2377 1.384 . S
N2376 C2372 1.427 . S
N2376 C2373 1.384 . S
N2377 C2369 1.427 . S
N2377 C2375 1.384 . S
H2378 C2384 0.930 . S
H2379 C2388 0.930 . S
H2380 C2393 0.929 . S
H2381 C2391 0.929 . S
H2382 C2386 0.929 . S
H2383 C2392 0.929 1_556 S
C2384 H2378 0.930 . S
C2384 C2385 1.367 1_556 S
C2384 C2392 1.378 1_556 S
C2385 C2384 1.367 1_554 S
C2385 C2393 1.433 . S
C2386 H2382 0.929 . S
C2386 C2388 1.378 . S
C2386 C2390 1.350 . S
C2387 C2390 1.463 . S
C2387 C2392 1.350 . S
C2387 N2395 1.427 . S
C2388 H2379 0.930 . S
C2388 C2386 1.378 . S
C2388 C2389 1.367 . S
C2389 C2388 1.367 . S
C2389 C2391 1.433 . S
C2390 C2386 1.350 . S
C2390 C2387 1.463 . S
C2390 N2394 1.427 . S
C2391 H2381 0.929 . S
C2391 C2389 1.433 . S
C2391 N2394 1.384 . S
C2392 H2383 0.929 1_554 S
C2392 C2384 1.378 1_554 S
C2392 C2387 1.350 . S
C2393 H2380 0.929 . S
C2393 C2385 1.433 . S
C2393 N2395 1.384 . S
N2394 C2390 1.427 . S
N2394 C2391 1.384 . S
N2395 C2387 1.427 . S
N2395 C2393 1.384 . S
H2396 C2402 0.930 . S
H2397 C2406 0.930 . S
H2398 C2411 0.929 . S
H2399 C2409 0.929 . S
H2400 C2404 0.929 . S
H2401 C2410 0.929 . S
C2402 H2396 0.930 . S
C2402 C2403 1.367 . S
C2402 C2410 1.378 . S
C2403 C2402 1.367 . S
C2403 C2411 1.433 . S
C2404 H2400 0.929 . S
C2404 C2406 1.378 . S
C2404 C2408 1.350 . S
C2405 C2408 1.463 . S
C2405 C2410 1.350 . S
C2405 N2413 1.427 . S
C2406 H2397 0.930 . S
C2406 C2404 1.378 . S
C2406 C2407 1.367 . S
C2407 C2406 1.367 . S
C2407 C2409 1.433 . S
C2408 C2404 1.350 . S
C2408 C2405 1.463 . S
C2408 N2412 1.427 . S
C2409 H2399 0.929 . S
C2409 C2407 1.433 . S
C2409 N2412 1.384 . S
C2410 H2401 0.929 . S
C2410 C2402 1.378 . S
C2410 C2405 1.350 . S
C2411 H2398 0.929 . S
C2411 C2403 1.433 . S
C2411 N2413 1.384 . S
N2412 C2408 1.427 . S
N2412 C2409 1.384 . S
N2413 C2405 1.427 . S
N2413 C2411 1.384 . S
H2414 C2420 0.930 . S
H2415 C2424 0.930 . S
H2416 C2429 0.929 . S
H2417 C2427 0.929 . S
H2418 C2422 0.929 . S
H2419 C2428 0.929 . S
C2420 H2414 0.930 . S
C2420 C2421 1.367 . S
C2420 C2428 1.378 . S
C2421 C2420 1.367 . S
C2421 C2429 1.433 . S
C2422 H2418 0.929 . S
C2422 C2424 1.378 . S
C2422 C2426 1.350 . S
C2423 C2426 1.463 . S
C2423 C2428 1.350 . S
C2423 N2431 1.427 . S
C2424 H2415 0.930 . S
C2424 C2422 1.378 . S
C2424 C2425 1.367 . S
C2425 C2424 1.367 . S
C2425 C2427 1.433 . S
C2426 C2422 1.350 . S
C2426 C2423 1.463 . S
C2426 N2430 1.427 . S
C2427 H2417 0.929 . S
C2427 C2425 1.433 . S
C2427 N2430 1.384 . S
C2428 H2419 0.929 . S
C2428 C2420 1.378 . S
C2428 C2423 1.350 . S
C2429 H2416 0.929 . S
C2429 C2421 1.433 . S
C2429 N2431 1.384 . S
N2430 C2426 1.427 . S
N2430 C2427 1.384 . S
N2431 C2423 1.427 . S
N2431 C2429 1.384 . S
C715 C352 1.058 . S
C711 C4 1.043 . S
C729 C19 1.055 . S
C733 C380 1.214 . S
C747 C39 1.008 . S
C751 C398 0.989 . S
C769 C424 1.207 . S
C765 C54 1.339 . S
C783 C18 1.313 . S
C787 C447 1.235 1_655 S
C805 C467 1.057 . S
C801 C40 1.075 . S
C823 C495 1.178 1_556 S
C819 C53 1.268 . S
C837 C5 0.881 . S
C841 C513 1.025 . S
C855 C61 0.967 . S
C859 C354 1.209 . S
C873 C74 1.045 . S
C877 C376 1.063 . S
C895 C400 1.183 . S
C891 C89 0.977 1_565 S
C913 C421 1.043 . S
C909 C109 1.044 . S
C927 C68 1.024 . S
C931 C444 1.017 . S
C949 C469 1.313 . S
C945 C81 1.309 . S
C967 C491 0.951 . S
C963 C96 0.956 . S
C985 C515 1.385 . S
C981 C102 1.341 . S
C1003 C355 0.867 1_556 S
C999 C103 0.828 . S
C1021 C538 1.102 . S
C1017 C117 0.917 . S
C1035 C130 0.979 . S
C1039 C562 0.945 . S
C1057 C586 1.095 . S
C1053 C152 1.105 . S
C1071 C60 0.974 . S
C1075 C516 0.937 . S
C1093 C401 0.876 . S
C1089 C82 0.932 . S
C1107 C137 1.042 . S
C1111 C607 1.042 . S
C1129 C632 1.013 . S
C1125 C165 1.032 . S
C1143 C172 1.115 . S
C1147 C353 1.128 . S
C1165 C630 1.042 . S
C1161 C194 1.034 . S
C1179 C207 1.015 . S
C1183 C399 1.016 . S
C1197 C215 0.938 . S
C1201 C609 0.960 . S
C1219 C448 1.008 . S
C1215 C186 1.034 . S
C1237 C560 1.081 . S
C1233 C201 0.951 . S
C1255 C492 0.985 . S
C1251 C221 0.970 . S
C1273 C652 1.057 . S
C1269 C180 1.076 . S
C1291 C357 0.864 . S
C1287 C236 0.915 . S
C1305 C242 1.441 . S
C1309 C628 1.430 . S
C1327 C403 0.919 . S
C1323 C264 0.986 . S
C1341 C277 1.317 . S
C1345 C606 1.320 . S
C1359 C229 1.030 . S
C1363 C445 1.156 . S
C1377 C249 0.954 . S
C1381 C564 0.919 . S
C1399 C490 1.229 . S
C1395 C257 1.103 1_545 S
C1413 C270 1.047 . S
C1417 C656 1.006 . S
C1431 C278 1.253 . S
C1435 C356 1.205 . S
C1449 C292 1.242 . S
C1453 C541 1.157 . S
C1467 C298 1.439 . S
C1471 C471 1.394 . S
C1485 C313 1.093 . S
C1489 C585 1.168 . S
C1507 C655 1.321 . S
C1503 C228 1.376 . S
C1525 C402 1.235 . S
C1521 C243 1.133 . S
C1543 C426 1.095 . S
C1539 C305 1.140 . S
C1561 C378 1.018 . S
C1557 C333 1.081 . S
C1575 C32 1.055 . S
C1579 C674 1.067 . S
C1597 C633 1.194 . S
C1593 C47 1.018 . S
C1615 C697 0.992 . S
C1611 C11 1.007 . S
C1629 C26 1.339 . S
C1633 C608 1.206 . S
C1647 C46 1.330 . S
C1651 C539 1.259 . S
C1669 C559 1.054 . S
C1665 C12 1.077 . S
C1687 C587 1.197 . S
C1683 C25 1.270 . S
C1705 C651 1.030 . S
C1701 C33 0.896 . S
C1723 C676 1.204 . S
C1719 C159 0.998 . S
C1737 C116 1.054 . S
C1741 C629 1.067 . S
C1755 C131 0.983 . S
C1759 C699 1.184 . S
C1777 C605 1.032 . S
C1773 C151 1.052 . S
C1795 C536 1.016 . S
C1791 C166 1.024 . S
C1809 C123 1.306 . S
C1813 C561 1.311 . S
C1831 C583 0.935 . S
C1827 C138 0.957 . S
C1845 C144 1.347 . S
C1849 C653 1.382 . S
C1867 C677 0.863 . S
C1863 C145 0.825 . S
C1885 C446 1.098 . S
C1881 C75 0.946 . S
C1903 C470 0.947 . S
C1899 C88 0.982 . S
C1917 C110 1.105 . S
C1921 C494 1.080 . S
C1939 C654 0.944 . S
C1935 C158 0.986 . S
C1953 C124 0.932 . S
C1957 C700 0.871 1_556 S
C1975 C423 1.037 . S
C1971 C95 1.031 . S
C1993 C379 1.014 . S
C1989 C67 1.024 . S
C2007 C200 1.120 . S
C2011 C675 1.119 . S
C2029 C377 1.042 . S
C2025 C222 1.043 . S
C2047 C698 1.026 . S
C2043 C179 1.025 . S
C2061 C187 0.938 . S
C2065 C425 0.961 . S
C2079 C214 1.030 . S
C2083 C540 1.002 . S
C2097 C173 0.947 . S
C2101 C468 1.086 . S
C2115 C193 0.969 . S
C2119 C584 0.985 . S
C2133 C208 1.081 . S
C2137 C514 1.072 . S
C2155 C679 0.864 . S
C2151 C334 0.915 . S
C2169 C284 1.442 . S
C2173 C375 1.429 . S
C2191 C702 0.920 . S
C2187 C306 0.987 . S
C2205 C319 1.316 . S
C2209 C422 1.319 . S
C2223 C327 1.029 . S
C2227 C537 1.156 . S
C2245 C472 0.919 . S
C2241 C291 0.957 . S
C2259 C299 1.105 . S
C2263 C582 1.225 . S
C2281 C518 0.997 . S
C2277 C312 1.046 . S
C2299 C678 1.221 . S
C2295 C320 1.261 . S
C2317 C449 1.177 . S
C2313 C250 1.247 . S
C2331 C256 1.439 . S
C2335 C563 1.394 . S
C2353 C493 1.172 . S
C2349 C271 1.096 . S
C2371 C517 1.337 . S
C2367 C326 1.369 . S
C2385 C285 1.134 1_554 S
C2389 C701 1.236 . S
C2407 C610 1.070 . S
C2403 C263 1.128 . S
C2425 C631 1.027 . S
C2421 C235 1.086 . S
